0:0:0
     RDKit          3D

 91 99  0  0  1  0  0  0  0  0999 V2000
  -30.0170  -21.7790   17.5630 C   0  0  0  0  0  3  0  0  0  0  0  0
  -30.5620  -20.7290   18.3190 C   0  0  0  0  0  3  0  0  0  0  0  0
  -29.6690  -22.9920   18.1830 C   0  0  0  0  0  3  0  0  0  0  0  0
  -30.3860  -22.0960   20.3330 C   0  0  0  0  0  3  0  0  0  0  0  0
  -30.7520  -20.8820   19.7080 C   0  0  0  0  0  0  0  0  0  0  0  0
  -29.8480  -23.1640   19.5760 C   0  0  0  0  0  0  0  0  0  0  0  0
  -31.3700  -19.7400   20.4970 C   0  0  0  0  0  2  0  0  0  0  0  0
  -30.3890  -19.0660   21.4730 C   0  0  0  0  0  2  0  0  0  0  0  0
  -30.8040  -17.6330   21.8650 C   0  0  0  0  0  2  0  0  0  0  0  0
  -30.4800  -16.5960   20.7630 C   0  0  0  0  0  2  0  0  0  0  0  0
  -31.1820  -14.3420   20.1300 C   0  0  0  0  0  0  0  0  0  0  0  0
  -30.6410  -12.3390   18.7890 C   0  0  0  0  0  2  0  0  0  0  0  0
  -29.6360  -12.6720   17.6670 C   0  0  0  0  0  2  0  0  0  0  0  0
  -28.1880  -12.5770   18.1870 C   0  0  0  0  0  2  0  0  0  0  0  0
  -27.9830  -13.3570   19.5110 C   0  0  0  0  0  3  0  0  0  0  0  0
  -29.0800  -12.9970   20.5340 C   0  0  0  0  0  2  0  0  0  0  0  0
  -30.3990  -13.2480   19.9180 N   0  0  0  0  0  0  0  0  0  0  0  0
  -32.1560  -14.6180   19.4190 O   0  0  0  0  0  0  0  0  0  0  0  0
  -30.9780  -14.8320   22.5040 C   0  0  0  0  0  1  0  0  0  0  0  0
  -30.7620  -15.1860   21.0970 N   0  0  0  0  0  0  0  0  0  0  0  0
  -25.6570  -14.0580   20.3680 C   0  0  0  0  0  0  0  0  0  0  0  0
  -24.5790  -13.3260   20.7860 C   0  0  0  0  0  0  0  0  0  0  0  0
  -24.9770  -11.9560   20.7040 C   0  0  0  0  0  0  0  0  0  0  0  0
  -26.6460  -13.1360   20.0600 N   0  0  0  0  0  0  0  0  0  0  0  0
  -26.2420  -11.8660   20.3150 N   0  0  0  0  0  0  0  0  0  0  0  0
  -24.2090  -10.7230   20.9170 C   0  0  0  0  0  0  0  0  0  0  0  0
  -24.6400   -9.7320   21.8280 C   0  0  0  0  0  3  0  0  0  0  0  0
  -23.8760   -8.5620   22.0250 C   0  0  0  0  0  3  0  0  0  0  0  0
  -22.6670   -8.3740   21.3130 C   0  0  0  0  0  0  0  0  0  0  0  0
  -22.2560   -9.3530   20.3910 C   0  0  0  0  0  3  0  0  0  0  0  0
  -23.0190  -10.5140   20.1920 C   0  0  0  0  0  3  0  0  0  0  0  0
  -21.8730   -7.2580   21.4220 O   0  0  0  0  0  0  0  0  0  0  0  0
  -21.8220   -6.5220   22.5770 C   0  0  0  0  0  0  0  0  0  0  0  0
  -21.4540   -7.0980   23.8130 C   0  0  0  0  0  3  0  0  0  0  0  0
  -21.3440   -6.2900   24.9620 C   0  0  0  0  0  3  0  0  0  0  0  0
  -21.5940   -4.9070   24.8790 C   0  0  0  0  0  0  0  0  0  0  0  0
  -21.9550   -4.3310   23.6480 C   0  0  0  0  0  3  0  0  0  0  0  0
  -22.0650   -5.1350   22.5010 C   0  0  0  0  0  0  0  0  0  0  0  0
  -22.3920   -4.5700   21.3140 F   0  0  0  0  0  0  0  0  0  0  0  0
  -21.4820   -4.1290   25.9810 F   0  0  0  0  0  0  0  0  0  0  0  0
  -23.2220  -13.8550   21.1530 C   0  0  0  0  0  0  0  0  0  0  0  0
  -22.5320  -13.1860   22.0680 N   0  0  0  0  0  0  0  0  0  0  0  0
  -22.7890  -14.8980   20.6640 O   0  0  0  0  0  0  0  0  0  0  0  0
  -22.8970  -12.3410   22.4820 H   0  0  0  0  0  0  0  0  0  0  0  0
  -21.6250  -13.5220   22.3600 H   0  0  0  0  0  0  0  0  0  0  0  0
  -25.8740  -15.4230   20.2060 N   0  0  0  0  0  0  0  0  0  0  0  0
  -25.1500  -16.1130   20.3780 H   0  0  0  0  0  0  0  0  0  0  0  0
  -26.7330  -15.8290   19.8580 H   0  0  0  0  0  0  0  0  0  0  0  0
  -29.5000  -24.4860   20.2680 C   0  0  0  0  0  2  0  0  0  0  0  0
  -28.6270  -25.4600   19.4440 C   0  0  0  0  0  2  0  0  0  0  0  0
  -28.4020  -26.6630   20.1870 O   0  0  0  0  0  0  0  0  0  0  0  0
  -24.5250  -31.8010   23.1580 C   0  0  0  0  0  0  0  0  0  0  0  0
  -27.2040  -27.3490   20.1140 C   0  0  0  0  0  0  0  0  0  0  0  0
  -23.3420  -30.4160   21.4860 C   0  0  0  0  0  3  0  0  0  0  0  0
  -24.8120  -28.8760   20.0850 C   0  0  0  0  0  0  0  0  0  0  0  0
  -25.8730  -30.7520   21.3450 C   0  0  0  0  0  2  0  0  0  0  0  0
  -25.9590  -29.3830   20.7040 C   0  0  0  0  0  0  0  0  0  0  0  0
  -27.1500  -28.6240   20.7240 C   0  0  0  0  0  3  0  0  0  0  0  0
  -26.0310  -26.8560   19.4880 C   0  0  0  0  0  3  0  0  0  0  0  0
  -24.8430  -27.6100   19.4760 C   0  0  0  0  0  3  0  0  0  0  0  0
  -23.5740  -29.7430   20.1080 C   0  0  0  0  0  2  0  0  0  0  0  0
  -24.5970  -31.0030   22.0550 N   0  0  0  0  0  0  0  0  0  0  0  0
  -23.4350  -32.0820   23.6750 O   0  0  0  0  0  0  0  0  0  0  0  0
  -22.6630  -29.3950   22.4280 C   0  0  0  0  0  0  0  0  0  0  0  0
  -21.3390  -29.2260   22.2700 N   0  0  0  0  0  0  0  0  0  0  0  0
  -23.3220  -28.7600   23.2530 O   0  0  0  0  0  0  0  0  0  0  0  0
  -20.8710  -29.7880   21.5740 H   0  0  0  0  0  0  0  0  0  0  0  0
  -17.9420  -28.0680   22.6910 C   0  0  0  0  0  0  0  0  0  0  0  0
  -20.4960  -28.2940   23.0200 C   0  0  0  0  0  3  0  0  0  0  0  0
  -20.5960  -26.8650   22.4390 C   0  0  0  0  0  2  0  0  0  0  0  0
  -19.5110  -26.5600   21.4010 C   0  0  0  0  0  2  0  0  0  0  0  0
  -18.1180  -26.7170   22.0150 C   0  0  0  0  0  2  0  0  0  0  0  0
  -19.0610  -28.8150   23.1500 C   0  0  0  0  0  0  0  0  0  0  0  0
  -18.8450  -30.0780   23.7400 C   0  0  0  0  0  3  0  0  0  0  0  0
  -17.5440  -30.5960   23.8790 C   0  0  0  0  0  3  0  0  0  0  0  0
  -16.4400  -29.8460   23.4380 C   0  0  0  0  0  3  0  0  0  0  0  0
  -16.6390  -28.5840   22.8500 C   0  0  0  0  0  3  0  0  0  0  0  0
  -25.8030  -32.4170   23.8060 C   0  0  0  0  0  3  0  0  0  0  0  0
  -25.4950  -33.8130   24.1470 N   0  0  0  0  0  0  0  0  0  0  0  0
  -25.8360  -34.8710   23.4000 C   0  0  0  0  0  0  0  0  0  0  0  0
  -26.5160  -34.7760   22.3750 O   0  0  0  0  0  0  0  0  0  0  0  0
  -24.8910  -33.9600   24.9410 H   0  0  0  0  0  0  0  0  0  0  0  0
  -24.1150  -36.6690   23.0410 C   0  0  0  0  0  1  0  0  0  0  0  0
  -25.3460  -36.2570   23.8630 C   0  0  0  0  0  3  0  0  0  0  0  0
  -27.4730  -37.1310   24.7200 C   0  0  0  0  0  1  0  0  0  0  0  0
  -26.3830  -37.3080   23.7660 N   0  0  0  0  0  0  0  0  0  0  0  0
  -25.9790  -38.2290   23.9120 H   0  0  0  0  0  0  0  0  0  0  0  0
  -26.2960  -31.6250   25.0790 C   0  0  1  0  0  0  0  0  0  0  0  0
  -25.1860  -31.3790   26.1260 C   0  0  0  0  0  1  0  0  0  0  0  0
  -26.8820  -30.2500   24.6760 C   0  0  0  0  0  1  0  0  0  0  0  0
  -27.4380  -32.4060   25.7690 C   0  0  0  0  0  1  0  0  0  0  0  0
  1  3  2  0
  1  2  1  0
  2  5  2  0
  3  6  1  0
  5  4  1  0
  5  7  1  0
  6 49  1  0
  6  4  2  0
  7  8  1  0
  8  9  1  0
 10 20  1  0
 10  9  1  0
 11 20  1  0
 12 17  1  0
 13 14  1  0
 13 12  1  0
 15 14  1  0
 15 24  1  0
 15 16  1  0
 17 11  1  0
 17 16  1  0
 18 11  2  0
 20 19  1  0
 21 22  2  0
 22 41  1  0
 23 22  1  0
 23 26  1  0
 24 25  1  0
 24 21  1  0
 25 23  2  0
 26 27  1  0
 27 28  2  0
 29 32  1  0
 29 28  1  0
 30 29  2  0
 31 30  1  0
 31 26  2  0
 32 33  1  0
 33 34  1  0
 34 35  2  0
 36 35  1  0
 36 40  1  0
 37 36  2  0
 38 33  2  0
 38 37  1  0
 39 38  1  0
 41 42  1  0
 42 45  1  0
 42 44  1  0
 43 41  2  0
 46 21  1  0
 46 47  1  0
 48 46  1  0
 50 51  1  0
 50 49  1  0
 52 63  2  0
 53 51  1  0
 53 58  1  0
 54 62  1  0
 54 64  1  0
 55 61  1  0
 55 57  1  0
 56 62  1  0
 57 58  2  0
 57 56  1  0
 59 53  2  0
 60 59  1  0
 60 55  2  0
 61 54  1  0
 62 52  1  0
 64 66  2  0
 65 64  1  0
 67 65  1  0
 68 77  2  0
 68 73  1  0
 69 65  1  0
 69 73  1  0
 70 69  1  0
 71 72  1  0
 71 70  1  0
 72 68  1  0
 73 74  2  0
 74 75  1  0
 76 75  2  0
 77 76  1  0
 78 52  1  0
 78 79  1  0
 78 88  1  0
 79 82  1  0
 80 84  1  0
 80 79  1  0
 81 80  2  0
 84 83  1  0
 86 84  1  0
 86 87  1  0
 86 85  1  0
 88 91  1  1
 88 89  1  0
 90 88  1  0
M  ISO  4  11 100  20 100  50 101  51 101
M  END
>  <TORSDO>  (1) 
F 22

>  <SCORE>  (1) 
-11.671

>  <name>  (1) 
0

>  <ligand_id>  (1) 
0

>  <original_smiles>  (1) 
[H]c1c([H])c(C([H])([H])C([H])([H])Oc2c([H])c([H])c3c(c2[H])C([H])([H])N(C(=O)C([H])(N([H])C(=O)C([H])(N([H])C([H])([H])[H])C([H])([H])[H])C(C([H])([H])[H])(C([H])([H])[H])C([H])([H])[H])C([H])(C(=O)N([H])C2([H])c4c([H])c([H])c([H])c([H])c4C([H])([H])C([H])([H])C2([H])[H])C3([H])[H])c([H])c(C([H])([H])C([H])([H])C([H])([H])C([H])([H])N(C(=O)N2C([H])([H])C([H])([H])C([H])([H])C([H])(n3nc(-c4c([H])c([H])c(Oc5c([H])c([H])c(F)c([H])c5F)c([H])c4[H])c(C(=O)N([H])[H])c3N([H])[H])C2([H])[H])C([H])([H])[H])c1[H]

>  <smiles>  (1) 
[H]c1c([H])c(C([H])([H])C([H])([H])Oc2c([H])c([H])c3c(c2[H])C([H])([H])N(C(=O)C([H])(N([H])C(=O)C([H])(N([H])C([H])([H])[H])C([H])([H])[H])C(C([H])([H])[H])(C([H])([H])[H])C([H])([H])[H])C([H])(C(=O)N([H])C2([H])c4c([H])c([H])c([H])c([H])c4C([H])([H])C([H])([H])C2([H])[H])C3([H])[H])c([H])c(C([H])([H])C([H])([H])C([H])([H])C([H])([H])N(C(=O)N2C([H])([H])C([H])([H])C([H])([H])C([H])(n3nc(-c4c([H])c([H])c(Oc5c([H])c([H])c(F)c([H])c5F)c([H])c4[H])c(C(=O)N([H])[H])c3N([H])[H])C2([H])[H])C([H])([H])[H])c1[H]

$$$$
1:0:0
     RDKit          3D

100108  0  0  1  0  0  0  0  0999 V2000
  -31.7690  -24.3060   18.3930 C   0  0  0  0  0  3  0  0  0  0  0  0
  -31.1390  -25.3150   19.1360 C   0  0  0  0  0  3  0  0  0  0  0  0
  -31.4600  -24.0980   17.0330 C   0  0  0  0  0  0  0  0  0  0  0  0
  -30.1620  -26.1400   18.5500 C   0  0  0  0  0  0  0  0  0  0  0  0
  -30.5060  -24.9560   16.4050 C   0  0  0  0  0  0  0  0  0  0  0  0
  -29.8160  -25.9440   17.1800 C   0  0  0  0  0  0  0  0  0  0  0  0
  -32.2040  -22.9850   16.2750 C   0  0  0  0  0  2  0  0  0  0  0  0
  -32.5730  -21.7160   17.0810 C   0  0  0  0  0  2  0  0  0  0  0  0
  -31.3640  -20.9480   17.6530 C   0  0  0  0  0  2  0  0  0  0  0  0
  -31.7740  -19.6730   18.4160 C   0  0  0  0  0  2  0  0  0  0  0  0
  -30.5860  -18.9190   19.0430 C   0  0  0  0  0  2  0  0  0  0  0  0
  -31.0130  -17.6500   19.8090 C   0  0  0  0  0  2  0  0  0  0  0  0
  -29.8110  -16.8810   20.4010 C   0  0  0  0  0  2  0  0  0  0  0  0
  -30.1500  -15.6440   21.2720 C   0  0  0  0  0  2  0  0  0  0  0  0
  -30.7120  -14.4450   20.4780 C   0  0  0  0  0  0  0  0  0  0  0  0
  -30.3520  -12.3270   19.2650 C   0  0  0  0  0  2  0  0  0  0  0  0
  -29.4110  -12.5860   18.0730 C   0  0  0  0  0  2  0  0  0  0  0  0
  -27.9350  -12.4630   18.5060 C   0  0  0  0  0  2  0  0  0  0  0  0
  -27.6220  -13.2750   19.7930 C   0  0  0  0  0  3  0  0  0  0  0  0
  -28.6800  -12.9900   20.8810 C   0  0  0  0  0  2  0  0  0  0  0  0
  -30.0060  -13.2920   20.3190 N   0  0  0  0  0  0  0  0  0  0  0  0
  -31.8110  -14.6080   19.9410 O   0  0  0  0  0  0  0  0  0  0  0  0
  -25.2240  -13.9020   20.4900 C   0  0  0  0  0  0  0  0  0  0  0  0
  -24.1490  -13.1380   20.8620 C   0  0  0  0  0  0  0  0  0  0  0  0
  -24.6020  -11.7840   20.8370 C   0  0  0  0  0  0  0  0  0  0  0  0
  -26.2650  -13.0130   20.2690 N   0  0  0  0  0  0  0  0  0  0  0  0
  -25.8910  -11.7340   20.5320 N   0  0  0  0  0  0  0  0  0  0  0  0
  -23.8670  -10.5260   21.0360 C   0  0  0  0  0  0  0  0  0  0  0  0
  -24.3070   -9.5550   21.9630 C   0  0  0  0  0  3  0  0  0  0  0  0
  -23.5750   -8.3620   22.1510 C   0  0  0  0  0  3  0  0  0  0  0  0
  -22.3910   -8.1320   21.4140 C   0  0  0  0  0  0  0  0  0  0  0  0
  -21.9690   -9.0930   20.4780 C   0  0  0  0  0  3  0  0  0  0  0  0
  -22.6990  -10.2770   20.2880 C   0  0  0  0  0  3  0  0  0  0  0  0
  -21.6330   -6.9890   21.5070 O   0  0  0  0  0  0  0  0  0  0  0  0
  -21.6110   -6.2320   22.6510 C   0  0  0  0  0  0  0  0  0  0  0  0
  -21.2400   -6.7800   23.8980 C   0  0  0  0  0  3  0  0  0  0  0  0
  -21.1660   -5.9520   25.0360 C   0  0  0  0  0  3  0  0  0  0  0  0
  -21.4490   -4.5770   24.9250 C   0  0  0  0  0  0  0  0  0  0  0  0
  -21.8120   -4.0290   23.6830 C   0  0  0  0  0  3  0  0  0  0  0  0
  -21.8890   -4.8550   22.5480 C   0  0  0  0  0  0  0  0  0  0  0  0
  -22.2200   -4.3190   21.3480 F   0  0  0  0  0  0  0  0  0  0  0  0
  -21.3690   -3.7800   26.0160 F   0  0  0  0  0  0  0  0  0  0  0  0
  -22.7550  -13.6250   21.1330 C   0  0  0  0  0  0  0  0  0  0  0  0
  -22.0260  -12.9380   22.0070 N   0  0  0  0  0  0  0  0  0  0  0  0
  -22.3190  -14.6470   20.6070 O   0  0  0  0  0  0  0  0  0  0  0  0
  -22.3900  -12.1100   22.4550 H   0  0  0  0  0  0  0  0  0  0  0  0
  -21.0920  -13.2490   22.2340 H   0  0  0  0  0  0  0  0  0  0  0  0
  -25.4010  -15.2690   20.3040 N   0  0  0  0  0  0  0  0  0  0  0  0
  -24.6450  -15.9370   20.4170 H   0  0  0  0  0  0  0  0  0  0  0  0
  -26.2630  -15.6990   19.9920 H   0  0  0  0  0  0  0  0  0  0  0  0
  -29.5240  -27.2030   19.4510 C   0  0  0  0  0  2  0  0  0  0  0  0
  -28.3890  -26.6750   20.1250 O   0  0  0  0  0  0  0  0  0  0  0  0
  -24.6260  -31.8930   23.2380 C   0  0  0  0  0  0  0  0  0  0  0  0
  -27.2630  -27.4590   20.1640 C   0  0  0  0  0  0  0  0  0  0  0  0
  -23.4100  -30.4790   21.6100 C   0  0  0  0  0  3  0  0  0  0  0  0
  -24.8620  -28.9380   20.1930 C   0  0  0  0  0  0  0  0  0  0  0  0
  -25.9330  -30.8520   21.3910 C   0  0  0  0  0  2  0  0  0  0  0  0
  -26.0240  -29.4800   20.7570 C   0  0  0  0  0  0  0  0  0  0  0  0
  -27.2360  -28.7510   20.7340 C   0  0  0  0  0  3  0  0  0  0  0  0
  -26.0720  -26.9070   19.6550 C   0  0  0  0  0  3  0  0  0  0  0  0
  -24.8770  -27.6460   19.6430 C   0  0  0  0  0  3  0  0  0  0  0  0
  -23.6150  -29.7930   20.2350 C   0  0  0  0  0  2  0  0  0  0  0  0
  -24.6760  -31.0880   22.1380 N   0  0  0  0  0  0  0  0  0  0  0  0
  -23.5480  -32.1640   23.7840 O   0  0  0  0  0  0  0  0  0  0  0  0
  -22.7690  -29.4610   22.5800 C   0  0  0  0  0  0  0  0  0  0  0  0
  -21.4440  -29.2750   22.4610 N   0  0  0  0  0  0  0  0  0  0  0  0
  -23.4590  -28.8420   23.3930 O   0  0  0  0  0  0  0  0  0  0  0  0
  -20.9460  -29.8310   21.7790 H   0  0  0  0  0  0  0  0  0  0  0  0
  -18.0760  -28.0760   22.9780 C   0  0  0  0  0  0  0  0  0  0  0  0
  -20.6340  -28.3410   23.2420 C   0  0  0  0  0  3  0  0  0  0  0  0
  -20.7380  -26.9050   22.6770 C   0  0  0  0  0  2  0  0  0  0  0  0
  -19.6350  -26.5720   21.6680 C   0  0  0  0  0  2  0  0  0  0  0  0
  -18.2540  -26.7200   22.3140 C   0  0  0  0  0  2  0  0  0  0  0  0
  -19.1950  -28.8440   23.3980 C   0  0  0  0  0  0  0  0  0  0  0  0
  -18.9750  -30.1130   23.9760 C   0  0  0  0  0  3  0  0  0  0  0  0
  -17.6700  -30.6120   24.1450 C   0  0  0  0  0  3  0  0  0  0  0  0
  -16.5660  -29.8420   23.7390 C   0  0  0  0  0  3  0  0  0  0  0  0
  -16.7700  -28.5770   23.1600 C   0  0  0  0  0  3  0  0  0  0  0  0
  -25.9150  -32.5270   23.8440 C   0  0  0  0  0  3  0  0  0  0  0  0
  -25.6060  -33.9260   24.1700 N   0  0  0  0  0  0  0  0  0  0  0  0
  -25.9350  -34.9740   23.4020 C   0  0  0  0  0  0  0  0  0  0  0  0
  -26.6020  -34.8680   22.3700 O   0  0  0  0  0  0  0  0  0  0  0  0
  -25.0180  -34.0860   24.9740 H   0  0  0  0  0  0  0  0  0  0  0  0
  -24.2050  -36.7640   23.0410 C   0  0  0  0  0  1  0  0  0  0  0  0
  -25.4470  -36.3630   23.8530 C   0  0  0  0  0  3  0  0  0  0  0  0
  -27.5840  -37.2530   24.6740 C   0  0  0  0  0  1  0  0  0  0  0  0
  -26.4780  -37.4170   23.7350 N   0  0  0  0  0  0  0  0  0  0  0  0
  -26.0710  -38.3360   23.8830 H   0  0  0  0  0  0  0  0  0  0  0  0
  -26.4480  -31.7590   25.1160 C   0  0  1  0  0  0  0  0  0  0  0  0
  -25.3690  -31.5230   26.1980 C   0  0  0  0  0  1  0  0  0  0  0  0
  -27.0270  -30.3810   24.7170 C   0  0  0  0  0  1  0  0  0  0  0  0
  -27.6030  -32.5570   25.7660 C   0  0  0  0  0  1  0  0  0  0  0  0
  -28.6860  -26.7640   16.5420 C   0  0  0  0  0  2  0  0  0  0  0  0
  -26.1840  -26.8280   16.0090 C   0  0  0  0  0  1  0  0  0  0  0  0
  -27.3630  -25.9790   16.4970 C   0  0  0  0  0  2  0  0  0  0  0  0
  -30.2620  -24.8900   14.8890 C   0  0  0  0  0  2  0  0  0  0  0  0
  -31.1110  -25.9370   14.1430 C   0  0  0  0  0  2  0  0  0  0  0  0
  -30.5680  -26.2700   12.7450 C   0  0  0  0  0  2  0  0  0  0  0  0
  -30.7260  -27.8360   10.7400 C   0  0  0  0  0  1  0  0  0  0  0  0
  -31.3070  -27.4550   12.1050 C   0  0  0  0  0  2  0  0  0  0  0  0
  1  2  1  0
  3  1  2  0
  4  2  2  0
  4 51  1  0
  5  3  1  0
  5  6  2  0
  6  4  1  0
  7  3  1  0
  7  8  1  0
  8  9  1  0
  9 10  1  0
 10 11  1  0
 11 12  1  0
 12 13  1  0
 13 14  1  0
 15 14  1  0
 16 21  1  0
 17 18  1  0
 17 16  1  0
 19 18  1  0
 19 26  1  0
 19 20  1  0
 21 15  1  0
 21 20  1  0
 22 15  2  0
 23 24  2  0
 24 43  1  0
 25 24  1  0
 25 28  1  0
 26 23  1  0
 26 27  1  0
 27 25  2  0
 28 29  1  0
 29 30  2  0
 31 34  1  0
 31 30  1  0
 32 31  2  0
 33 32  1  0
 33 28  2  0
 34 35  1  0
 35 36  1  0
 36 37  2  0
 38 37  1  0
 38 42  1  0
 39 38  2  0
 40 35  2  0
 40 39  1  0
 41 40  1  0
 43 44  1  0
 44 47  1  0
 44 46  1  0
 45 43  2  0
 48 49  1  0
 48 23  1  0
 50 48  1  0
 51 52  1  0
 52 54  1  0
 53 64  2  0
 54 59  1  0
 55 63  1  0
 55 65  1  0
 56 62  1  0
 56 58  1  0
 57 63  1  0
 58 57  1  0
 59 58  2  0
 60 54  2  0
 61 60  1  0
 61 56  2  0
 62 55  1  0
 63 53  1  0
 65 67  2  0
 66 65  1  0
 68 66  1  0
 69 78  2  0
 69 74  1  0
 70 66  1  0
 70 74  1  0
 71 70  1  0
 72 73  1  0
 72 71  1  0
 73 69  1  0
 74 75  2  0
 75 76  1  0
 77 76  2  0
 78 77  1  0
 79 53  1  0
 79 80  1  0
 79 89  1  0
 80 83  1  0
 81 85  1  0
 81 80  1  0
 82 81  2  0
 85 84  1  0
 87 85  1  0
 87 88  1  0
 87 86  1  0
 89 92  1  1
 89 90  1  0
 91 89  1  0
 93  6  1  0
 94 95  1  0
 95 93  1  0
 96  5  1  0
 97 96  1  0
 98 97  1  0
 99100  1  0
100 98  1  0
M  ISO  4  14 100  15 100  51 101  52 101
M  END
>  <TORSDO>  (2) 
F 31

>  <SCORE>  (2) 
-10.610

>  <name>  (2) 
1

>  <ligand_id>  (2) 
1

>  <original_smiles>  (2) 
[H]c1c([H])c([H])c2c(c1[H])C([H])([H])C([H])([H])C([H])([H])C2([H])N([H])C(=O)C1([H])N(C(=O)C([H])(N([H])C(=O)C([H])(N([H])C([H])([H])[H])C([H])([H])[H])C(C([H])([H])[H])(C([H])([H])[H])C([H])([H])[H])C([H])([H])c2c([H])c(OC([H])([H])c3c([H])c([H])c(C([H])([H])C([H])([H])C([H])([H])C([H])([H])C([H])([H])C([H])([H])C([H])([H])C([H])([H])C(=O)N4C([H])([H])C([H])([H])C([H])([H])C([H])(n5nc(-c6c([H])c([H])c(Oc7c([H])c([H])c(F)c([H])c7F)c([H])c6[H])c(C(=O)N([H])[H])c5N([H])[H])C4([H])[H])c(C([H])([H])C([H])([H])C([H])([H])C([H])([H])C([H])([H])[H])c3C([H])([H])C([H])([H])C([H])([H])[H])c([H])c([H])c2C1([H])[H]

>  <smiles>  (2) 
[H]c1c([H])c([H])c2c(c1[H])C([H])([H])C([H])([H])C([H])([H])C2([H])N([H])C(=O)C1([H])N(C(=O)C([H])(N([H])C(=O)C([H])(N([H])C([H])([H])[H])C([H])([H])[H])C(C([H])([H])[H])(C([H])([H])[H])C([H])([H])[H])C([H])([H])c2c([H])c(OC([H])([H])c3c([H])c([H])c(C([H])([H])C([H])([H])C([H])([H])C([H])([H])C([H])([H])C([H])([H])C([H])([H])C([H])([H])C(=O)N4C([H])([H])C([H])([H])C([H])([H])C([H])(n5nc(-c6c([H])c([H])c(Oc7c([H])c([H])c(F)c([H])c7F)c([H])c6[H])c(C(=O)N([H])[H])c5N([H])[H])C4([H])[H])c(C([H])([H])C([H])([H])C([H])([H])C([H])([H])C([H])([H])[H])c3C([H])([H])C([H])([H])C([H])([H])[H])c([H])c([H])c2C1([H])[H]

$$$$
2:0:0
     RDKit          3D

 90 98  0  0  1  0  0  0  0  0999 V2000
  -30.1140  -20.0100   20.9140 C   0  0  0  0  0  3  0  0  0  0  0  0
  -28.6180  -21.1080   18.9780 C   0  0  0  0  0  3  0  0  0  0  0  0
  -29.6980  -21.4810   20.9120 C   0  0  0  0  0  0  0  0  0  0  0  0
  -29.8160  -18.8890   19.9770 C   0  0  0  0  0  0  0  0  0  0  0  0
  -28.8810  -22.2230   19.9220 C   0  0  0  0  0  0  0  0  0  0  0  0
  -29.0130  -19.6420   18.9920 C   0  0  0  0  0  0  0  0  0  0  0  0
  -30.1420  -22.2860   22.1190 C   0  0  0  0  0  1  0  0  0  0  0  0
  -28.5100  -18.8810   17.9780 O   0  0  0  0  0  0  0  0  0  0  0  0
  -27.9780  -19.3750   17.3620 H   0  0  0  0  0  0  0  0  0  0  0  0
  -28.0540  -23.8650   19.8810 C   0  0  0  0  0  2  0  0  0  0  0  0
  -28.3170  -25.5470   20.0850 O   0  0  0  0  0  0  0  0  0  0  0  0
  -24.5510  -31.6150   22.9720 C   0  0  0  0  0  0  0  0  0  0  0  0
  -27.3010  -26.6970   20.0130 C   0  0  0  0  0  0  0  0  0  0  0  0
  -23.4270  -30.1690   21.3310 C   0  0  0  0  0  3  0  0  0  0  0  0
  -24.9490  -28.5880   19.9340 C   0  0  0  0  0  0  0  0  0  0  0  0
  -25.9960  -30.4320   21.2210 C   0  0  0  0  0  2  0  0  0  0  0  0
  -26.1220  -29.0090   20.5710 C   0  0  0  0  0  0  0  0  0  0  0  0
  -27.2870  -28.0890   20.5800 C   0  0  0  0  0  3  0  0  0  0  0  0
  -26.0870  -26.4670   19.3200 C   0  0  0  0  0  3  0  0  0  0  0  0
  -24.9640  -27.3440   19.2840 C   0  0  0  0  0  3  0  0  0  0  0  0
  -23.7010  -29.4800   19.9640 C   0  0  0  0  0  2  0  0  0  0  0  0
  -24.6800  -30.7700   21.8940 N   0  0  0  0  0  0  0  0  0  0  0  0
  -23.4440  -31.8720   23.4770 O   0  0  0  0  0  0  0  0  0  0  0  0
  -22.7480  -29.1620   22.2990 C   0  0  0  0  0  0  0  0  0  0  0  0
  -21.4210  -28.9710   22.1800 N   0  0  0  0  0  0  0  0  0  0  0  0
  -23.4260  -28.5510   23.1290 O   0  0  0  0  0  0  0  0  0  0  0  0
  -20.9230  -29.5170   21.4910 H   0  0  0  0  0  0  0  0  0  0  0  0
  -18.0630  -27.6940   22.7220 C   0  0  0  0  0  0  0  0  0  0  0  0
  -20.6210  -28.0100   22.9510 C   0  0  0  0  0  3  0  0  0  0  0  0
  -20.7410  -26.5860   22.3590 C   0  0  0  0  0  2  0  0  0  0  0  0
  -19.6310  -26.2530   21.3570 C   0  0  0  0  0  2  0  0  0  0  0  0
  -18.2570  -26.3590   22.0220 C   0  0  0  0  0  2  0  0  0  0  0  0
  -19.1720  -28.4760   23.1450 C   0  0  0  0  0  0  0  0  0  0  0  0
  -18.9320  -29.7210   23.7650 C   0  0  0  0  0  3  0  0  0  0  0  0
  -17.6180  -30.1860   23.9640 C   0  0  0  0  0  3  0  0  0  0  0  0
  -16.5260  -29.4020   23.5560 C   0  0  0  0  0  3  0  0  0  0  0  0
  -16.7490  -28.1570   22.9410 C   0  0  0  0  0  3  0  0  0  0  0  0
  -25.7860  -32.3120   23.6190 C   0  0  0  0  0  3  0  0  0  0  0  0
  -26.3370  -31.5430   24.8840 C   0  0  1  0  0  0  0  0  0  0  0  0
  -25.2540  -31.2140   25.9380 C   0  0  0  0  0  1  0  0  0  0  0  0
  -27.0070  -30.2120   24.4750 C   0  0  0  0  0  1  0  0  0  0  0  0
  -27.4340  -32.3890   25.5720 C   0  0  0  0  0  1  0  0  0  0  0  0
  -25.3930  -33.6820   23.9980 N   0  0  0  0  0  0  0  0  0  0  0  0
  -25.6490  -34.7850   23.2820 C   0  0  0  0  0  0  0  0  0  0  0  0
  -26.3010  -34.7590   22.2340 O   0  0  0  0  0  0  0  0  0  0  0  0
  -24.8090  -33.7730   24.8170 H   0  0  0  0  0  0  0  0  0  0  0  0
  -23.8110  -36.4930   23.0510 C   0  0  0  0  0  1  0  0  0  0  0  0
  -25.1000  -36.1280   23.8060 C   0  0  0  0  0  3  0  0  0  0  0  0
  -27.2020  -37.1160   24.6040 C   0  0  0  0  0  1  0  0  0  0  0  0
  -26.0640  -37.2450   23.6980 N   0  0  0  0  0  0  0  0  0  0  0  0
  -25.6080  -38.1340   23.8860 H   0  0  0  0  0  0  0  0  0  0  0  0
  -29.9570  -17.0710   20.2340 C   0  0  0  0  0  3  0  0  0  0  0  0
  -30.6410  -15.5100   19.5410 C   0  0  0  0  0  0  0  0  0  0  0  0
  -30.4630  -13.0750   18.4840 C   0  0  0  0  0  2  0  0  0  0  0  0
  -29.3620  -12.9220   17.3950 C   0  0  0  0  0  2  0  0  0  0  0  0
  -27.9910  -12.6240   18.0270 C   0  0  0  0  0  2  0  0  0  0  0  0
  -27.7370  -13.5140   19.2650 C   0  0  0  0  0  3  0  0  0  0  0  0
  -28.9480  -13.5890   20.2220 C   0  0  0  0  0  2  0  0  0  0  0  0
  -30.0800  -14.1730   19.4690 N   0  0  0  0  0  0  0  0  0  0  0  0
  -31.7790  -15.4860   19.0380 O   0  0  0  0  0  0  0  0  0  0  0  0
  -25.5590  -14.0790   20.4550 C   0  0  0  0  0  0  0  0  0  0  0  0
  -24.5230  -13.3150   20.9130 C   0  0  0  0  0  0  0  0  0  0  0  0
  -24.8950  -11.9570   20.6700 C   0  0  0  0  0  0  0  0  0  0  0  0
  -26.4940  -13.1920   19.9540 N   0  0  0  0  0  0  0  0  0  0  0  0
  -26.1180  -11.9000   20.1480 N   0  0  0  0  0  0  0  0  0  0  0  0
  -24.1290  -10.7160   20.8510 C   0  0  0  0  0  0  0  0  0  0  0  0
  -24.5650   -9.6970   21.7270 C   0  0  0  0  0  3  0  0  0  0  0  0
  -23.7990   -8.5250   21.9010 C   0  0  0  0  0  3  0  0  0  0  0  0
  -22.5800   -8.3620   21.2000 C   0  0  0  0  0  0  0  0  0  0  0  0
  -22.1610   -9.3690   20.3140 C   0  0  0  0  0  3  0  0  0  0  0  0
  -22.9280  -10.5330   20.1370 C   0  0  0  0  0  3  0  0  0  0  0  0
  -21.7820   -7.2460   21.2860 O   0  0  0  0  0  0  0  0  0  0  0  0
  -21.6460   -6.5470   22.4600 C   0  0  0  0  0  0  0  0  0  0  0  0
  -21.1690   -7.1570   23.6400 C   0  0  0  0  0  3  0  0  0  0  0  0
  -20.9790   -6.3850   24.8040 C   0  0  0  0  0  3  0  0  0  0  0  0
  -21.2560   -5.0060   24.7870 C   0  0  0  0  0  0  0  0  0  0  0  0
  -21.7240   -4.3950   23.6110 C   0  0  0  0  0  3  0  0  0  0  0  0
  -21.9170   -5.1640   22.4500 C   0  0  0  0  0  0  0  0  0  0  0  0
  -22.3490   -4.5670   21.3130 F   0  0  0  0  0  0  0  0  0  0  0  0
  -21.0660   -4.2620   25.9030 F   0  0  0  0  0  0  0  0  0  0  0  0
  -23.2180  -13.8250   21.4500 C   0  0  0  0  0  0  0  0  0  0  0  0
  -22.6070  -13.0920   22.3730 N   0  0  0  0  0  0  0  0  0  0  0  0
  -22.7570  -14.9060   21.0860 O   0  0  0  0  0  0  0  0  0  0  0  0
  -22.9990  -12.2180   22.6900 H   0  0  0  0  0  0  0  0  0  0  0  0
  -21.7350  -13.4110   22.7720 H   0  0  0  0  0  0  0  0  0  0  0  0
  -25.7740  -15.4520   20.3920 N   0  0  0  0  0  0  0  0  0  0  0  0
  -25.0740  -16.1200   20.6940 H   0  0  0  0  0  0  0  0  0  0  0  0
  -26.5780  -15.8910   19.9630 H   0  0  0  0  0  0  0  0  0  0  0  0
  -29.2530  -17.5090   22.7060 C   0  0  0  0  0  1  0  0  0  0  0  0
  -30.3070  -16.9360   21.7400 C   0  0  0  0  0  2  0  0  0  0  0  0
  2  6  2  0
  2  5  1  0
  3  1  1  0
  3  7  1  0
  4 52  1  0
  4  1  2  0
  5  3  2  0
  6  4  1  0
  8  6  1  0
  9  8  1  0
 10  5  1  0
 10 11  1  0
 12 23  2  0
 13 11  1  0
 13 18  1  0
 14 22  1  0
 14 24  1  0
 15 21  1  0
 15 17  1  0
 16 22  1  0
 17 18  2  0
 17 16  1  0
 19 13  2  0
 20 19  1  0
 20 15  2  0
 21 14  1  0
 22 12  1  0
 24 26  2  0
 25 24  1  0
 27 25  1  0
 28 37  2  0
 28 33  1  0
 29 25  1  0
 29 33  1  0
 30 29  1  0
 31 32  1  0
 31 30  1  0
 32 28  1  0
 33 34  2  0
 34 35  1  0
 36 35  2  0
 37 36  1  0
 38 12  1  0
 38 43  1  0
 38 39  1  0
 39 42  1  1
 39 40  1  0
 41 39  1  0
 43 46  1  0
 44 48  1  0
 44 43  1  0
 45 44  2  0
 48 47  1  0
 50 48  1  0
 50 51  1  0
 50 49  1  0
 52 90  1  0
 53 52  1  0
 54 59  1  0
 55 56  1  0
 55 54  1  0
 57 56  1  0
 57 64  1  0
 57 58  1  0
 59 53  1  0
 59 58  1  0
 60 53  2  0
 61 62  2  0
 62 81  1  0
 63 66  1  0
 63 62  1  0
 64 65  1  0
 64 61  1  0
 65 63  2  0
 66 67  1  0
 67 68  2  0
 69 72  1  0
 69 68  1  0
 70 69  2  0
 71 70  1  0
 71 66  2  0
 72 73  1  0
 73 74  1  0
 74 75  2  0
 76 75  1  0
 76 80  1  0
 77 76  2  0
 78 73  2  0
 78 77  1  0
 79 78  1  0
 81 82  1  0
 82 84  1  0
 82 85  1  0
 83 81  2  0
 86 61  1  0
 86 87  1  0
 88 86  1  0
 90 89  1  0
M  ISO  4  10 101  11 101  52 100  53 100
M  END
>  <TORSDO>  (3) 
F 20

>  <SCORE>  (3) 
-11.877

>  <name>  (3) 
2

>  <ligand_id>  (3) 
2

>  <original_smiles>  (3) 
[H]Oc1c([H])c(C([H])([H])Oc2c([H])c([H])c3c(c2[H])C([H])([H])N(C(=O)C([H])(N([H])C(=O)C([H])(N([H])C([H])([H])[H])C([H])([H])[H])C(C([H])([H])[H])(C([H])([H])[H])C([H])([H])[H])C([H])(C(=O)N([H])C2([H])c4c([H])c([H])c([H])c([H])c4C([H])([H])C([H])([H])C2([H])[H])C3([H])[H])c(C([H])([H])[H])c([H])c1C([H])(C(=O)N1C([H])([H])C([H])([H])C([H])([H])C([H])(n2nc(-c3c([H])c([H])c(Oc4c([H])c([H])c(F)c([H])c4F)c([H])c3[H])c(C(=O)N([H])[H])c2N([H])[H])C1([H])[H])C([H])([H])C([H])([H])[H]

>  <smiles>  (3) 
[H]Oc1c([H])c(C([H])([H])Oc2c([H])c([H])c3c(c2[H])C([H])([H])N(C(=O)C([H])(N([H])C(=O)C([H])(N([H])C([H])([H])[H])C([H])([H])[H])C(C([H])([H])[H])(C([H])([H])[H])C([H])([H])[H])C([H])(C(=O)N([H])C2([H])c4c([H])c([H])c([H])c([H])c4C([H])([H])C([H])([H])C2([H])[H])C3([H])[H])c(C([H])([H])[H])c([H])c1C([H])(C(=O)N1C([H])([H])C([H])([H])C([H])([H])C([H])(n2nc(-c3c([H])c([H])c(Oc4c([H])c([H])c(F)c([H])c4F)c([H])c3[H])c(C(=O)N([H])[H])c2N([H])[H])C1([H])[H])C([H])([H])C([H])([H])[H]

$$$$
3:0:0
     RDKit          3D

 95103  0  0  1  0  0  0  0  0999 V2000
  -28.7370  -21.3670   20.1640 C   0  0  0  0  0  3  0  0  0  0  0  0
  -29.6970  -19.6290   18.4610 C   0  0  0  0  0  3  0  0  0  0  0  0
  -30.1190  -18.3980   17.9230 C   0  0  0  0  0  3  0  0  0  0  0  0
  -29.7910  -18.5250   20.6190 C   0  0  0  0  0  3  0  0  0  0  0  0
  -30.2510  -17.1400   20.0990 C   0  0  0  0  0  0  0  0  0  0  0  0
  -29.4740  -19.8240   19.8300 C   0  0  0  0  0  0  0  0  0  0  0  0
  -30.4000  -17.2250   18.6740 C   0  0  0  0  0  0  0  0  0  0  0  0
  -30.9340  -16.0740   17.8340 C   0  0  0  0  0  1  0  0  0  0  0  0
  -30.8410  -15.7290   20.8270 C   0  0  0  0  0  0  0  0  0  0  0  0
  -30.9620  -13.1770   20.3700 C   0  0  0  0  0  2  0  0  0  0  0  0
  -30.2350  -12.6530   19.1050 C   0  0  0  0  0  2  0  0  0  0  0  0
  -28.7240  -12.4740   19.3390 C   0  0  0  0  0  2  0  0  0  0  0  0
  -28.1040  -13.6050   20.1970 C   0  0  0  0  0  3  0  0  0  0  0  0
  -28.9760  -13.9870   21.4050 C   0  0  0  0  0  2  0  0  0  0  0  0
  -30.2760  -14.4220   20.8670 N   0  0  0  0  0  0  0  0  0  0  0  0
  -32.0700  -15.6920   20.9870 O   0  0  0  0  0  0  0  0  0  0  0  0
  -25.6700  -14.2210   20.6390 C   0  0  0  0  0  0  0  0  0  0  0  0
  -24.5590  -13.4690   20.9110 C   0  0  0  0  0  0  0  0  0  0  0  0
  -25.0090  -12.1180   21.0100 C   0  0  0  0  0  0  0  0  0  0  0  0
  -26.7220  -13.3260   20.5700 N   0  0  0  0  0  0  0  0  0  0  0  0
  -26.3280  -12.0600   20.8690 N   0  0  0  0  0  0  0  0  0  0  0  0
  -24.2480  -10.8700   21.1660 C   0  0  0  0  0  0  0  0  0  0  0  0
  -24.5920   -9.9130   22.1460 C   0  0  0  0  0  3  0  0  0  0  0  0
  -23.8350   -8.7320   22.2900 C   0  0  0  0  0  3  0  0  0  0  0  0
  -22.7160   -8.4970   21.4560 C   0  0  0  0  0  0  0  0  0  0  0  0
  -22.3910   -9.4410   20.4660 C   0  0  0  0  0  3  0  0  0  0  0  0
  -23.1500  -10.6150   20.3190 C   0  0  0  0  0  3  0  0  0  0  0  0
  -21.9340   -7.3690   21.5100 O   0  0  0  0  0  0  0  0  0  0  0  0
  -21.7860   -6.6510   22.6700 C   0  0  0  0  0  0  0  0  0  0  0  0
  -21.3300   -7.2500   23.8640 C   0  0  0  0  0  3  0  0  0  0  0  0
  -21.1230   -6.4600   25.0130 C   0  0  0  0  0  3  0  0  0  0  0  0
  -21.3640   -5.0740   24.9680 C   0  0  0  0  0  0  0  0  0  0  0  0
  -21.8140   -4.4750   23.7780 C   0  0  0  0  0  3  0  0  0  0  0  0
  -22.0200   -5.2620   22.6310 C   0  0  0  0  0  0  0  0  0  0  0  0
  -22.4320   -4.6770   21.4810 F   0  0  0  0  0  0  0  0  0  0  0  0
  -21.1590   -4.3130   26.0680 F   0  0  0  0  0  0  0  0  0  0  0  0
  -23.1440  -13.9650   20.9690 C   0  0  0  0  0  0  0  0  0  0  0  0
  -22.3060  -13.3360   21.7870 N   0  0  0  0  0  0  0  0  0  0  0  0
  -22.7850  -14.9470   20.3210 O   0  0  0  0  0  0  0  0  0  0  0  0
  -22.6040  -12.5410   22.3330 H   0  0  0  0  0  0  0  0  0  0  0  0
  -21.3480  -13.6500   21.8650 H   0  0  0  0  0  0  0  0  0  0  0  0
  -25.8760  -15.5780   20.4130 N   0  0  0  0  0  0  0  0  0  0  0  0
  -25.1240  -16.2570   20.4100 H   0  0  0  0  0  0  0  0  0  0  0  0
  -26.7750  -15.9830   20.1830 H   0  0  0  0  0  0  0  0  0  0  0  0
  -28.6930  -21.6330   21.6830 C   0  0  0  0  0  2  0  0  0  0  0  0
  -27.6300  -22.6890   22.0680 C   0  0  0  0  0  2  0  0  0  0  0  0
  -28.2020  -23.8950   22.8340 C   0  0  0  0  0  2  0  0  0  0  0  0
  -27.2000  -25.0600   22.9970 C   0  0  0  0  0  2  0  0  0  0  0  0
  -26.8760  -25.7320   21.7220 N   0  0  0  0  0  4  0  0  0  0  0  0
  -27.7020  -26.1140   21.2970 H   0  0  0  0  0  0  0  0  0  0  0  0
  -26.2440  -26.4930   21.8970 H   0  0  0  0  0  0  0  0  0  0  0  0
  -26.4270  -25.1050   21.0810 H   0  0  0  0  0  0  0  0  0  0  0  0
  -28.7860  -22.9590   19.3340 C   0  0  0  0  0  3  0  0  0  0  0  0
  -27.7340  -24.4130   19.4050 C   0  0  0  0  0  3  0  0  0  0  0  0
  -27.8660  -26.0060   19.0290 O   0  0  0  0  0  0  0  0  0  0  0  0
  -24.4880  -31.5940   22.8170 C   0  0  0  0  0  0  0  0  0  0  0  0
  -26.8310  -27.0610   19.1950 C   0  0  0  0  0  0  0  0  0  0  0  0
  -23.1720  -30.3170   21.1750 C   0  0  0  0  0  3  0  0  0  0  0  0
  -24.5090  -28.8740   19.5030 C   0  0  0  0  0  0  0  0  0  0  0  0
  -25.7100  -30.6010   20.8240 C   0  0  0  0  0  2  0  0  0  0  0  0
  -25.7410  -29.2560   20.0500 C   0  0  0  0  0  0  0  0  0  0  0  0
  -26.8960  -28.3720   19.8740 C   0  0  0  0  0  3  0  0  0  0  0  0
  -25.5620  -26.8280   18.6210 C   0  0  0  0  0  3  0  0  0  0  0  0
  -24.4410  -27.6820   18.7660 C   0  0  0  0  0  3  0  0  0  0  0  0
  -23.2870  -29.7600   19.7310 C   0  0  0  0  0  2  0  0  0  0  0  0
  -24.4820  -30.8590   21.6590 N   0  0  0  0  0  0  0  0  0  0  0  0
  -23.4440  -31.8180   23.4510 O   0  0  0  0  0  0  0  0  0  0  0  0
  -22.5810  -29.2260   22.1080 C   0  0  0  0  0  0  0  0  0  0  0  0
  -21.2530  -29.0230   22.0560 N   0  0  0  0  0  0  0  0  0  0  0  0
  -23.3210  -28.5680   22.8410 O   0  0  0  0  0  0  0  0  0  0  0  0
  -20.7050  -29.6100   21.4440 H   0  0  0  0  0  0  0  0  0  0  0  0
  -17.9500  -27.6640   22.7000 C   0  0  0  0  0  0  0  0  0  0  0  0
  -20.5130  -28.0000   22.8060 C   0  0  0  0  0  3  0  0  0  0  0  0
  -20.6180  -26.6200   22.1170 C   0  0  0  0  0  2  0  0  0  0  0  0
  -19.4560  -26.3340   21.1610 C   0  0  0  0  0  2  0  0  0  0  0  0
  -18.1180  -26.3780   21.9070 C   0  0  0  0  0  2  0  0  0  0  0  0
  -19.0720  -28.4340   23.1070 C   0  0  0  0  0  0  0  0  0  0  0  0
  -18.8540  -29.6360   23.8140 C   0  0  0  0  0  3  0  0  0  0  0  0
  -17.5500  -30.0690   24.1160 C   0  0  0  0  0  3  0  0  0  0  0  0
  -16.4440  -29.2970   23.7210 C   0  0  0  0  0  3  0  0  0  0  0  0
  -16.6450  -28.0970   23.0160 C   0  0  0  0  0  3  0  0  0  0  0  0
  -25.8010  -32.2030   23.3920 C   0  0  0  0  0  3  0  0  0  0  0  0
  -26.4360  -31.3290   24.5460 C   0  0  1  0  0  0  0  0  0  0  0  0
  -25.4400  -30.9810   25.6770 C   0  0  0  0  0  1  0  0  0  0  0  0
  -27.0000  -30.0020   23.9900 C   0  0  0  0  0  1  0  0  0  0  0  0
  -27.6320  -32.0840   25.1720 C   0  0  0  0  0  1  0  0  0  0  0  0
  -25.4950  -33.5560   23.8900 N   0  0  0  0  0  0  0  0  0  0  0  0
  -25.7780  -34.6950   23.2440 C   0  0  0  0  0  0  0  0  0  0  0  0
  -26.3880  -34.7190   22.1720 O   0  0  0  0  0  0  0  0  0  0  0  0
  -24.9430  -33.6120   24.7320 H   0  0  0  0  0  0  0  0  0  0  0  0
  -24.0340  -36.5110   23.1860 C   0  0  0  0  0  1  0  0  0  0  0  0
  -25.3100  -36.0170   23.8850 C   0  0  0  0  0  3  0  0  0  0  0  0
  -27.4780  -36.8150   24.7210 C   0  0  0  0  0  1  0  0  0  0  0  0
  -26.3360  -37.0830   23.8520 N   0  0  0  0  0  0  0  0  0  0  0  0
  -25.9360  -37.9770   24.1220 H   0  0  0  0  0  0  0  0  0  0  0  0
  1 53  1  0
  1 45  1  0
  2  6  1  0
  3  2  2  0
  3  7  1  0
  5  4  1  0
  5  9  1  0
  6  1  1  0
  6  4  2  0
  7  5  2  0
  8  7  1  0
  9 15  1  0
  9 16  2  0
 10 15  1  0
 11 12  1  0
 11 10  1  0
 13 12  1  0
 13 20  1  0
 13 14  1  0
 15 14  1  0
 17 18  2  0
 18 37  1  0
 18 19  1  0
 19 22  1  0
 20 17  1  0
 20 21  1  0
 21 19  2  0
 22 23  1  0
 23 24  2  0
 25 28  1  0
 25 24  1  0
 26 25  2  0
 27 26  1  0
 27 22  2  0
 28 29  1  0
 29 30  1  0
 30 31  2  0
 32 31  1  0
 32 36  1  0
 33 32  2  0
 34 29  2  0
 34 33  1  0
 35 34  1  0
 37 38  1  0
 38 41  1  0
 38 40  1  0
 39 37  2  0
 42 17  1  0
 43 42  1  0
 44 42  1  0
 45 46  1  0
 46 47  1  0
 47 48  1  0
 49 51  1  0
 49 48  1  0
 50 49  1  0
 52 49  1  0
 53 54  2  0
 55 57  1  0
 55 54  1  0
 56 67  2  0
 57 62  1  0
 58 66  1  0
 58 68  1  0
 59 65  1  0
 59 61  1  0
 60 66  1  0
 61 60  1  0
 62 61  2  0
 63 64  1  0
 63 57  2  0
 64 59  2  0
 65 58  1  0
 66 56  1  0
 68 70  2  0
 69 68  1  0
 71 69  1  0
 72 81  2  0
 72 77  1  0
 73 69  1  0
 73 77  1  0
 74 73  1  0
 75 76  1  0
 75 74  1  0
 76 72  1  0
 77 78  2  0
 78 79  1  0
 80 79  2  0
 81 80  1  0
 82 56  1  0
 82 87  1  0
 82 83  1  0
 83 86  1  1
 83 84  1  0
 85 83  1  0
 87 90  1  0
 88 92  1  0
 88 87  1  0
 89 88  2  0
 92 91  1  0
 94 92  1  0
 94 95  1  0
 94 93  1  0
M  ISO  4   5 100   9 100  54 101  55 101
M  END
>  <TORSDO>  (4) 
F 24

>  <SCORE>  (4) 
-11.504

>  <name>  (4) 
3

>  <ligand_id>  (4) 
3

>  <original_smiles>  (4) 
[H]c1c([H])c([H])c2c(c1[H])C([H])([H])C([H])([H])C([H])([H])C2([H])N([H])C(=O)C1([H])N(C(=O)C([H])(N([H])C(=O)C([H])(N([H])C([H])([H])[H])C([H])([H])[H])C(C([H])([H])[H])(C([H])([H])[H])C([H])([H])[H])C([H])([H])c2c([H])c(OC([H])([H])C([H])([H])C([H])(c3c([H])c([H])c(C([H])([H])[H])c(C(=O)N4C([H])([H])C([H])([H])C([H])([H])C([H])(n5nc(-c6c([H])c([H])c(Oc7c([H])c([H])c(F)c([H])c7F)c([H])c6[H])c(C(=O)N([H])[H])c5N([H])[H])C4([H])[H])c3[H])C([H])([H])C([H])([H])C([H])([H])C([H])([H])[N+]([H])([H])[H])c([H])c([H])c2C1([H])[H]

>  <smiles>  (4) 
[H]c1c([H])c([H])c2c(c1[H])C([H])([H])C([H])([H])C([H])([H])C2([H])N([H])C(=O)C1([H])N(C(=O)C([H])(N([H])C(=O)C([H])(N([H])C([H])([H])[H])C([H])([H])[H])C(C([H])([H])[H])(C([H])([H])[H])C([H])([H])[H])C([H])([H])c2c([H])c(OC([H])([H])C([H])([H])C([H])(c3c([H])c([H])c(C([H])([H])[H])c(C(=O)N4C([H])([H])C([H])([H])C([H])([H])C([H])(n5nc(-c6c([H])c([H])c(Oc7c([H])c([H])c(F)c([H])c7F)c([H])c6[H])c(C(=O)N([H])[H])c5N([H])[H])C4([H])[H])c3[H])C([H])([H])C([H])([H])C([H])([H])C([H])([H])[N+]([H])([H])[H])c([H])c([H])c2C1([H])[H]

$$$$
4:0:0
     RDKit          3D

 93102  0  0  1  0  0  0  0  0999 V2000
  -30.5090  -22.9390   18.9570 C   0  0  0  0  0  3  0  0  0  0  0  0
  -30.9610  -24.2460   18.7120 C   0  0  0  0  0  3  0  0  0  0  0  0
  -28.4820  -23.8790   19.9390 C   0  0  0  0  0  3  0  0  0  0  0  0
  -29.2570  -22.6920   19.5460 C   0  0  0  0  0  0  0  0  0  0  0  0
  -30.1970  -25.3770   19.0650 C   0  0  0  0  0  0  0  0  0  0  0  0
  -28.9350  -25.2530   19.7040 C   0  0  0  0  0  0  0  0  0  0  0  0
  -30.8210  -26.7370   18.7940 C   0  0  0  0  0  1  0  0  0  0  0  0
  -28.4630  -26.4800   20.2680 O   0  0  0  0  0  0  0  0  0  0  0  0
  -24.6630  -31.8480   23.1270 C   0  0  0  0  0  0  0  0  0  0  0  0
  -27.3170  -27.2800   20.0720 C   0  0  0  0  0  0  0  0  0  0  0  0
  -23.4640  -30.4360   21.4880 C   0  0  0  0  0  3  0  0  0  0  0  0
  -24.9270  -28.8820   20.0500 C   0  0  0  0  0  0  0  0  0  0  0  0
  -25.9970  -30.7720   21.2940 C   0  0  0  0  0  2  0  0  0  0  0  0
  -26.0860  -29.3890   20.6460 C   0  0  0  0  0  0  0  0  0  0  0  0
  -27.2740  -28.5970   20.6440 C   0  0  0  0  0  3  0  0  0  0  0  0
  -26.1400  -26.8270   19.4430 C   0  0  0  0  0  3  0  0  0  0  0  0
  -24.9590  -27.6120   19.4350 C   0  0  0  0  0  3  0  0  0  0  0  0
  -23.6810  -29.7510   20.1080 C   0  0  0  0  0  2  0  0  0  0  0  0
  -24.7270  -31.0390   22.0290 N   0  0  0  0  0  0  0  0  0  0  0  0
  -23.5790  -32.1180   23.6670 O   0  0  0  0  0  0  0  0  0  0  0  0
  -22.8110  -29.4230   22.4580 C   0  0  0  0  0  0  0  0  0  0  0  0
  -21.4810  -29.2580   22.3560 N   0  0  0  0  0  0  0  0  0  0  0  0
  -23.4980  -28.7910   23.2640 O   0  0  0  0  0  0  0  0  0  0  0  0
  -20.9840  -29.8200   21.6800 H   0  0  0  0  0  0  0  0  0  0  0  0
  -18.1040  -28.0900   22.9230 C   0  0  0  0  0  0  0  0  0  0  0  0
  -20.6710  -28.3180   23.1350 C   0  0  0  0  0  3  0  0  0  0  0  0
  -20.7450  -26.8950   22.5370 C   0  0  0  0  0  2  0  0  0  0  0  0
  -19.6160  -26.5980   21.5450 C   0  0  0  0  0  2  0  0  0  0  0  0
  -18.2510  -26.7480   22.2220 C   0  0  0  0  0  2  0  0  0  0  0  0
  -19.2410  -28.8340   23.3360 C   0  0  0  0  0  0  0  0  0  0  0  0
  -19.0490  -30.0890   23.9540 C   0  0  0  0  0  3  0  0  0  0  0  0
  -17.7540  -30.6000   24.1610 C   0  0  0  0  0  3  0  0  0  0  0  0
  -16.6330  -29.8540   23.7590 C   0  0  0  0  0  3  0  0  0  0  0  0
  -16.8080  -28.6000   23.1460 C   0  0  0  0  0  3  0  0  0  0  0  0
  -25.9440  -32.4910   23.7460 C   0  0  0  0  0  3  0  0  0  0  0  0
  -25.6150  -33.8780   24.1130 N   0  0  0  0  0  0  0  0  0  0  0  0
  -25.9260  -34.9550   23.3810 C   0  0  0  0  0  0  0  0  0  0  0  0
  -26.5860  -34.8870   22.3410 O   0  0  0  0  0  0  0  0  0  0  0  0
  -25.0230  -34.0040   24.9210 H   0  0  0  0  0  0  0  0  0  0  0  0
  -24.1780  -36.7410   23.0820 C   0  0  0  0  0  1  0  0  0  0  0  0
  -25.4250  -36.3250   23.8780 C   0  0  0  0  0  3  0  0  0  0  0  0
  -27.5460  -37.2180   24.7380 C   0  0  0  0  0  1  0  0  0  0  0  0
  -26.4450  -37.3930   23.7940 N   0  0  0  0  0  0  0  0  0  0  0  0
  -26.0260  -38.3040   23.9610 H   0  0  0  0  0  0  0  0  0  0  0  0
  -26.4900  -31.7030   25.0000 C   0  0  1  0  0  0  0  0  0  0  0  0
  -25.4150  -31.4260   26.0770 C   0  0  0  0  0  1  0  0  0  0  0  0
  -27.0930  -30.3450   24.5740 C   0  0  0  0  0  1  0  0  0  0  0  0
  -27.6330  -32.5050   25.6680 C   0  0  0  0  0  1  0  0  0  0  0  0
  -28.7660  -21.1740   19.4370 C   0  0  0  0  0  2  0  0  0  0  0  0
  -28.2130  -17.4910   20.3950 C   0  0  0  0  0  2  0  0  0  0  0  0
  -27.8640  -18.9900   20.3570 C   0  0  0  0  0  2  0  0  0  0  0  0
  -30.2310  -18.7170   19.9860 C   0  0  0  0  0  2  0  0  0  0  0  0
  -29.6030  -17.2370   19.8040 C   0  0  0  0  0  3  0  0  0  0  0  0
  -29.1400  -19.8730   20.3730 C   0  0  1  0  0  0  0  0  0  0  0  0
  -29.4270  -20.3870   21.7950 C   0  0  0  0  0  1  0  0  0  0  0  0
  -30.8280  -14.8240   19.9290 C   0  0  0  0  0  0  0  0  0  0  0  0
  -30.5920  -12.5350   18.9430 C   0  0  0  0  0  2  0  0  0  0  0  0
  -29.5810  -12.6250   17.7780 C   0  0  0  0  0  2  0  0  0  0  0  0
  -28.1410  -12.4440   18.2930 C   0  0  0  0  0  2  0  0  0  0  0  0
  -27.8440  -13.3080   19.5470 C   0  0  0  0  0  3  0  0  0  0  0  0
  -28.9740  -13.2050   20.5990 C   0  0  0  0  0  2  0  0  0  0  0  0
  -30.2380  -13.5740   19.9420 N   0  0  0  0  0  0  0  0  0  0  0  0
  -31.9230  -14.9770   19.3800 O   0  0  0  0  0  0  0  0  0  0  0  0
  -30.1000  -15.9060   20.4150 N   0  0  0  0  0  0  0  0  0  0  0  0
  -29.4350  -15.5710   21.0960 H   0  0  0  0  0  0  0  0  0  0  0  0
  -25.5140  -13.8820   20.4600 C   0  0  0  0  0  0  0  0  0  0  0  0
  -24.4700  -13.1070   20.8750 C   0  0  0  0  0  0  0  0  0  0  0  0
  -24.9140  -11.7550   20.7560 C   0  0  0  0  0  0  0  0  0  0  0  0
  -26.5330  -13.0080   20.1160 N   0  0  0  0  0  0  0  0  0  0  0  0
  -26.1800  -11.7170   20.3510 N   0  0  0  0  0  0  0  0  0  0  0  0
  -24.1820  -10.4970   20.9440 C   0  0  0  0  0  0  0  0  0  0  0  0
  -24.5990   -9.5370   21.8910 C   0  0  0  0  0  3  0  0  0  0  0  0
  -23.8680   -8.3450   22.0720 C   0  0  0  0  0  3  0  0  0  0  0  0
  -22.7050   -8.1030   21.3020 C   0  0  0  0  0  0  0  0  0  0  0  0
  -22.3070   -9.0510   20.3430 C   0  0  0  0  0  3  0  0  0  0  0  0
  -23.0390  -10.2360   20.1630 C   0  0  0  0  0  3  0  0  0  0  0  0
  -21.9480   -6.9600   21.3910 O   0  0  0  0  0  0  0  0  0  0  0  0
  -21.8090   -6.2760   22.5700 C   0  0  0  0  0  0  0  0  0  0  0  0
  -21.2460   -6.8760   23.7180 C   0  0  0  0  0  3  0  0  0  0  0  0
  -21.0610   -6.1160   24.8900 C   0  0  0  0  0  3  0  0  0  0  0  0
  -21.4260   -4.7570   24.9130 C   0  0  0  0  0  0  0  0  0  0  0  0
  -21.9770   -4.1560   23.7680 C   0  0  0  0  0  3  0  0  0  0  0  0
  -22.1670   -4.9140   22.6000 C   0  0  0  0  0  0  0  0  0  0  0  0
  -22.6800   -4.3250   21.4930 F   0  0  0  0  0  0  0  0  0  0  0  0
  -21.2380   -4.0240   26.0350 F   0  0  0  0  0  0  0  0  0  0  0  0
  -23.1040  -13.5900   21.2650 C   0  0  0  0  0  0  0  0  0  0  0  0
  -22.4290  -12.8670   22.1510 N   0  0  0  0  0  0  0  0  0  0  0  0
  -22.6460  -14.6430   20.8240 O   0  0  0  0  0  0  0  0  0  0  0  0
  -22.8160  -12.0180   22.5330 H   0  0  0  0  0  0  0  0  0  0  0  0
  -21.5130  -13.1670   22.4500 H   0  0  0  0  0  0  0  0  0  0  0  0
  -25.6650  -15.2550   20.3250 N   0  0  0  0  0  0  0  0  0  0  0  0
  -24.9020  -15.8990   20.5060 H   0  0  0  0  0  0  0  0  0  0  0  0
  -26.4780  -15.7040   19.9290 H   0  0  0  0  0  0  0  0  0  0  0  0
  1  4  1  0
  2  1  2  0
  2  5  1  0
  4  3  2  0
  5  6  2  0
  6  3  1  0
  6  8  1  0
  7  5  1  0
  9 20  2  0
 10  8  1  0
 10 15  1  0
 11 19  1  0
 11 21  1  0
 12 18  1  0
 12 14  1  0
 13 19  1  0
 14 13  1  0
 15 14  2  0
 16 10  2  0
 17 16  1  0
 17 12  2  0
 18 11  1  0
 19  9  1  0
 21 23  2  0
 22 21  1  0
 24 22  1  0
 25 34  2  0
 25 30  1  0
 26 22  1  0
 26 30  1  0
 27 26  1  0
 28 29  1  0
 28 27  1  0
 29 25  1  0
 30 31  2  0
 31 32  1  0
 33 32  2  0
 34 33  1  0
 35  9  1  0
 35 36  1  0
 35 45  1  0
 36 39  1  0
 37 41  1  0
 37 36  1  0
 38 37  2  0
 41 40  1  0
 43 41  1  0
 43 44  1  0
 43 42  1  0
 45 48  1  1
 45 46  1  0
 47 45  1  0
 49  4  1  0
 49 54  1  0
 51 54  1  0
 51 50  1  0
 52 54  1  0
 53 52  1  0
 53 50  1  0
 53 64  1  0
 54 55  1  1
 56 62  1  0
 56 64  1  0
 57 62  1  0
 58 59  1  0
 58 57  1  0
 60 59  1  0
 60 69  1  0
 60 61  1  0
 62 61  1  0
 63 56  2  0
 64 65  1  0
 66 67  2  0
 67 86  1  0
 68 67  1  0
 68 71  1  0
 69 70  1  0
 69 66  1  0
 70 68  2  0
 71 72  1  0
 72 73  2  0
 74 77  1  0
 74 73  1  0
 75 74  2  0
 76 75  1  0
 76 71  2  0
 77 78  1  0
 78 83  2  0
 78 79  1  0
 79 80  2  0
 80 81  1  0
 81 85  1  0
 82 81  2  0
 83 82  1  0
 84 83  1  0
 86 87  1  0
 87 90  1  0
 87 89  1  0
 88 86  2  0
 91 66  1  0
 91 92  1  0
 93 91  1  0
M  ISO  4   6 101   8 101  56 100  64 100
M  END
>  <TORSDO>  (5) 
F 18

>  <SCORE>  (5) 
-14.096

>  <name>  (5) 
4

>  <ligand_id>  (5) 
4

>  <original_smiles>  (5) 
[H]c1c([H])c([H])c2c(c1[H])C([H])([H])C([H])([H])C([H])([H])C2([H])N([H])C(=O)C1([H])N(C(=O)C([H])(N([H])C(=O)C([H])(N([H])C([H])([H])[H])C([H])([H])[H])C(C([H])([H])[H])(C([H])([H])[H])C([H])([H])[H])C([H])([H])c2c([H])c(Oc3c([H])c(C([H])([H])C4(C([H])([H])[H])C([H])([H])C([H])([H])C([H])(N([H])C(=O)N5C([H])([H])C([H])([H])C([H])([H])C([H])(n6nc(-c7c([H])c([H])c(Oc8c([H])c([H])c(F)c([H])c8F)c([H])c7[H])c(C(=O)N([H])[H])c6N([H])[H])C5([H])[H])C4([H])[H])c([H])c([H])c3C([H])([H])[H])c([H])c([H])c2C1([H])[H]

>  <smiles>  (5) 
[H]c1c([H])c([H])c2c(c1[H])C([H])([H])C([H])([H])C([H])([H])C2([H])N([H])C(=O)C1([H])N(C(=O)C([H])(N([H])C(=O)C([H])(N([H])C([H])([H])[H])C([H])([H])[H])C(C([H])([H])[H])(C([H])([H])[H])C([H])([H])[H])C([H])([H])c2c([H])c(Oc3c([H])c(C([H])([H])C4(C([H])([H])[H])C([H])([H])C([H])([H])C([H])(N([H])C(=O)N5C([H])([H])C([H])([H])C([H])([H])C([H])(n6nc(-c7c([H])c([H])c(Oc8c([H])c([H])c(F)c([H])c8F)c([H])c7[H])c(C(=O)N([H])[H])c6N([H])[H])C5([H])[H])C4([H])[H])c([H])c([H])c3C([H])([H])[H])c([H])c([H])c2C1([H])[H]

$$$$
5:0:0
     RDKit          3D

 95105  0  0  1  0  0  0  0  0999 V2000
  -30.7880  -18.0930   20.4880 C   0  0  0  0  0  3  0  0  0  0  0  0
  -29.9110  -17.5620   17.9160 C   0  0  0  0  0  3  0  0  0  0  0  0
  -30.7080  -16.6470   20.1600 C   0  0  0  0  0  0  0  0  0  0  0  0
  -30.4360  -19.2040   19.5660 C   0  0  0  0  0  0  0  0  0  0  0  0
  -29.9860  -18.9210   18.2940 C   0  0  0  0  0  0  0  0  0  0  0  0
  -30.3040  -16.4790   18.7780 C   0  0  0  0  0  0  0  0  0  0  0  0
  -27.5580  -20.9810   19.7480 C   0  0  0  0  0  0  0  0  0  0  0  0
  -29.6830  -20.1930   17.4380 C   0  0  0  0  0  2  0  0  0  0  0  0
  -28.2920  -20.7960   21.0740 C   0  0  0  0  0  2  0  0  0  0  0  0
  -28.2340  -21.8860   18.7200 C   0  0  0  0  0  2  0  0  0  0  0  0
  -29.7750  -21.2250   20.9850 C   0  0  0  0  0  2  0  0  0  0  0  0
  -30.4620  -20.7980   19.6660 C   0  0  2  0  0  0  0  0  0  0  0  0
  -29.7030  -21.5020   18.3490 C   0  0  1  0  0  0  0  0  0  0  0  0
  -30.4200  -15.1470   18.0550 C   0  0  0  0  0  1  0  0  0  0  0  0
  -31.9350  -21.2360   19.6990 C   0  0  0  0  0  1  0  0  0  0  0  0
  -26.4570  -20.4690   19.5320 O   0  0  0  0  0  0  0  0  0  0  0  0
  -31.2900  -15.4040   21.0520 C   0  0  0  0  0  0  0  0  0  0  0  0
  -31.3180  -12.8620   21.1790 C   0  0  0  0  0  2  0  0  0  0  0  0
  -30.7530  -12.1610   19.9210 C   0  0  0  0  0  2  0  0  0  0  0  0
  -29.2130  -12.1080   19.9450 C   0  0  0  0  0  2  0  0  0  0  0  0
  -28.5420  -13.4020   20.4820 C   0  0  0  0  0  3  0  0  0  0  0  0
  -29.2520  -13.9680   21.7170 C   0  0  0  0  0  2  0  0  0  0  0  0
  -30.6520  -14.1890   21.3360 N   0  0  0  0  0  0  0  0  0  0  0  0
  -32.5040  -15.4200   21.2840 O   0  0  0  0  0  0  0  0  0  0  0  0
  -26.1220  -14.2150   20.6440 C   0  0  0  0  0  0  0  0  0  0  0  0
  -24.9360  -13.5480   20.7840 C   0  0  0  0  0  0  0  0  0  0  0  0
  -25.2740  -12.1670   20.9190 C   0  0  0  0  0  0  0  0  0  0  0  0
  -27.1080  -13.2430   20.6820 N   0  0  0  0  0  0  0  0  0  0  0  0
  -26.5920  -12.0110   20.9180 N   0  0  0  0  0  0  0  0  0  0  0  0
  -24.4140  -10.9770   20.9840 C   0  0  0  0  0  0  0  0  0  0  0  0
  -24.6040   -9.9820   21.9680 C   0  0  0  0  0  3  0  0  0  0  0  0
  -23.7520   -8.8580   22.0200 C   0  0  0  0  0  3  0  0  0  0  0  0
  -22.6950   -8.7230   21.0890 C   0  0  0  0  0  0  0  0  0  0  0  0
  -22.5260   -9.7060   20.0990 C   0  0  0  0  0  3  0  0  0  0  0  0
  -23.3780  -10.8210   20.0430 C   0  0  0  0  0  3  0  0  0  0  0  0
  -21.8340   -7.6530   21.0500 O   0  0  0  0  0  0  0  0  0  0  0  0
  -21.5680   -6.9040   22.1680 C   0  0  0  0  0  0  0  0  0  0  0  0
  -21.0620   -7.4830   23.3510 C   0  0  0  0  0  3  0  0  0  0  0  0
  -20.7360   -6.6660   24.4530 C   0  0  0  0  0  3  0  0  0  0  0  0
  -20.9060   -5.2710   24.3720 C   0  0  0  0  0  0  0  0  0  0  0  0
  -21.4060   -4.6920   23.1920 C   0  0  0  0  0  3  0  0  0  0  0  0
  -21.7350   -5.5050   22.0930 C   0  0  0  0  0  0  0  0  0  0  0  0
  -22.1970   -4.9390   20.9540 F   0  0  0  0  0  0  0  0  0  0  0  0
  -20.5890   -4.4860   25.4280 F   0  0  0  0  0  0  0  0  0  0  0  0
  -23.5620  -14.1480   20.7000 C   0  0  0  0  0  0  0  0  0  0  0  0
  -22.5970  -13.5800   21.4120 N   0  0  0  0  0  0  0  0  0  0  0  0
  -23.3490  -15.1620   20.0360 O   0  0  0  0  0  0  0  0  0  0  0  0
  -22.7730  -12.7630   21.9770 H   0  0  0  0  0  0  0  0  0  0  0  0
  -21.6650  -13.9690   21.3880 H   0  0  0  0  0  0  0  0  0  0  0  0
  -26.4470  -15.5560   20.4600 N   0  0  0  0  0  0  0  0  0  0  0  0
  -25.7440  -16.2840   20.4130 H   0  0  0  0  0  0  0  0  0  0  0  0
  -27.3910  -15.9130   20.3720 H   0  0  0  0  0  0  0  0  0  0  0  0
  -30.2610  -22.9730   17.6590 C   0  0  0  0  0  2  0  0  0  0  0  0
  -29.3790  -24.3830   17.3140 C   0  0  0  0  0  2  0  0  0  0  0  0
  -29.6610  -25.8670   17.7390 O   0  0  0  0  0  0  0  0  0  0  0  0
  -26.0440  -28.9130   23.4030 C   0  0  0  0  0  0  0  0  0  0  0  0
  -28.6210  -26.7350   18.2390 C   0  0  0  0  0  0  0  0  0  0  0  0
  -24.8490  -28.6950   21.2600 C   0  0  0  0  0  3  0  0  0  0  0  0
  -26.2990  -28.2130   19.1920 C   0  0  0  0  0  0  0  0  0  0  0  0
  -27.4050  -29.0020   21.2780 C   0  0  0  0  0  2  0  0  0  0  0  0
  -27.4780  -28.2290   19.9490 C   0  0  0  0  0  0  0  0  0  0  0  0
  -28.6390  -27.5160   19.4670 C   0  0  0  0  0  3  0  0  0  0  0  0
  -27.4160  -26.8350   17.5040 C   0  0  0  0  0  3  0  0  0  0  0  0
  -26.2840  -27.5420   17.9600 C   0  0  0  0  0  3  0  0  0  0  0  0
  -25.0700  -28.9250   19.7410 C   0  0  0  0  0  2  0  0  0  0  0  0
  -26.1190  -28.8600   22.0370 N   0  0  0  0  0  0  0  0  0  0  0  0
  -24.9570  -28.8480   23.9970 O   0  0  0  0  0  0  0  0  0  0  0  0
  -24.1720  -27.3180   21.4770 C   0  0  0  0  0  0  0  0  0  0  0  0
  -22.8510  -27.2380   21.2300 N   0  0  0  0  0  0  0  0  0  0  0  0
  -24.8360  -26.3450   21.8400 O   0  0  0  0  0  0  0  0  0  0  0  0
  -22.3730  -28.0810   20.9430 H   0  0  0  0  0  0  0  0  0  0  0  0
  -19.4830  -25.9500   20.8900 C   0  0  0  0  0  0  0  0  0  0  0  0
  -22.0320  -26.0280   21.3250 C   0  0  0  0  0  3  0  0  0  0  0  0
  -22.1700  -25.1630   20.0520 C   0  0  0  0  0  2  0  0  0  0  0  0
  -21.0920  -25.4580   19.0030 C   0  0  0  0  0  2  0  0  0  0  0  0
  -19.6960  -25.2110   19.5800 C   0  0  0  0  0  2  0  0  0  0  0  0
  -20.5780  -26.3470   21.7010 C   0  0  0  0  0  0  0  0  0  0  0  0
  -20.3240  -27.0610   22.8930 C   0  0  0  0  0  3  0  0  0  0  0  0
  -19.0070  -27.3710   23.2790 C   0  0  0  0  0  3  0  0  0  0  0  0
  -17.9250  -26.9620   22.4800 C   0  0  0  0  0  3  0  0  0  0  0  0
  -18.1650  -26.2520   21.2910 C   0  0  0  0  0  3  0  0  0  0  0  0
  -27.3190  -29.0790   24.2840 C   0  0  0  0  0  3  0  0  0  0  0  0
  -27.0420  -30.1270   25.2790 N   0  0  0  0  0  0  0  0  0  0  0  0
  -27.4750  -31.3920   25.1980 C   0  0  0  0  0  0  0  0  0  0  0  0
  -28.2180  -31.7870   24.2970 O   0  0  0  0  0  0  0  0  0  0  0  0
  -26.3940  -29.8890   26.0160 H   0  0  0  0  0  0  0  0  0  0  0  0
  -25.8890  -33.2670   25.7510 C   0  0  0  0  0  1  0  0  0  0  0  0
  -27.0150  -32.3750   26.2960 C   0  0  0  0  0  3  0  0  0  0  0  0
  -29.0880  -32.4760   27.6090 C   0  0  0  0  0  1  0  0  0  0  0  0
  -28.1060  -33.2220   26.8240 N   0  0  0  0  0  0  0  0  0  0  0  0
  -27.7340  -33.9680   27.4040 H   0  0  0  0  0  0  0  0  0  0  0  0
  -27.7550  -27.7420   25.0010 C   0  0  1  0  0  0  0  0  0  0  0  0
  -26.6140  -27.0640   25.7970 C   0  0  0  0  0  1  0  0  0  0  0  0
  -28.2920  -26.7150   23.9780 C   0  0  0  0  0  1  0  0  0  0  0  0
  -28.9130  -28.0330   25.9850 C   0  0  0  0  0  1  0  0  0  0  0  0
  2  5  2  0
  2  6  1  0
  3  1  1  0
  3 17  1  0
  4 12  1  0
  4  1  2  0
  5  4  1  0
  6  3  2  0
  7  9  1  0
  8  5  1  0
  8 13  1  0
 10  7  1  0
 11  9  1  0
 12 15  1  1
 12 11  1  0
 13 53  1  6
 13 10  1  0
 13 12  1  0
 14  6  1  0
 16  7  2  0
 17 24  2  0
 17 23  1  0
 18 23  1  0
 19 20  1  0
 19 18  1  0
 21 20  1  0
 21 28  1  0
 21 22  1  0
 23 22  1  0
 25 28  1  0
 25 26  2  0
 26 27  1  0
 27 30  1  0
 28 29  1  0
 29 27  2  0
 30 31  1  0
 31 32  2  0
 33 32  1  0
 34 33  2  0
 35 34  1  0
 35 30  2  0
 36 33  1  0
 36 37  1  0
 37 38  1  0
 38 39  2  0
 40 39  1  0
 40 44  1  0
 41 40  2  0
 42 37  2  0
 42 41  1  0
 43 42  1  0
 45 26  1  0
 45 46  1  0
 46 48  1  0
 47 45  2  0
 49 46  1  0
 50 25  1  0
 51 50  1  0
 52 50  1  0
 54 53  1  0
 54 55  1  0
 55 57  1  0
 56 67  2  0
 57 62  1  0
 58 68  1  0
 58 66  1  0
 59 65  1  0
 59 61  1  0
 60 66  1  0
 61 60  1  0
 62 61  2  0
 63 64  1  0
 63 57  2  0
 64 59  2  0
 65 58  1  0
 66 56  1  0
 68 70  2  0
 69 68  1  0
 71 69  1  0
 72 81  2  0
 72 77  1  0
 73 69  1  0
 73 77  1  0
 74 73  1  0
 75 76  1  0
 75 74  1  0
 76 72  1  0
 77 78  2  0
 78 79  1  0
 80 79  2  0
 81 80  1  0
 82 56  1  0
 82 92  1  0
 82 83  1  0
 83 86  1  0
 84 83  1  0
 84 88  1  0
 85 84  2  0
 88 87  1  0
 88 90  1  0
 90 91  1  0
 90 89  1  0
 92 93  1  1
 92 95  1  0
 94 92  1  0
M  ISO  4   3 100  17 100  54 101  55 101
M  END
>  <TORSDO>  (6) 
F 18

>  <SCORE>  (6) 
-8.098

>  <name>  (6) 
5

>  <ligand_id>  (6) 
5

>  <original_smiles>  (6) 
[H]c1c([H])c([H])c2c(c1[H])C([H])([H])C([H])([H])C([H])([H])C2([H])N([H])C(=O)C1([H])N(C(=O)C([H])(N([H])C(=O)C([H])(N([H])C([H])([H])[H])C([H])([H])[H])C(C([H])([H])[H])(C([H])([H])[H])C([H])([H])[H])C([H])([H])c2c([H])c(OC([H])([H])C([H])([H])C34C([H])([H])C(=O)C([H])([H])C([H])([H])C3(C([H])([H])[H])c3c([H])c(C(=O)N5C([H])([H])C([H])([H])C([H])([H])C([H])(n6nc(-c7c([H])c([H])c(Oc8c([H])c([H])c(F)c([H])c8F)c([H])c7[H])c(C(=O)N([H])[H])c6N([H])[H])C5([H])[H])c(C([H])([H])[H])c([H])c3C4([H])[H])c([H])c([H])c2C1([H])[H]

>  <smiles>  (6) 
[H]c1c([H])c([H])c2c(c1[H])C([H])([H])C([H])([H])C([H])([H])C2([H])N([H])C(=O)C1([H])N(C(=O)C([H])(N([H])C(=O)C([H])(N([H])C([H])([H])[H])C([H])([H])[H])C(C([H])([H])[H])(C([H])([H])[H])C([H])([H])[H])C([H])([H])c2c([H])c(OC([H])([H])C([H])([H])C34C([H])([H])C(=O)C([H])([H])C([H])([H])C3(C([H])([H])[H])c3c([H])c(C(=O)N5C([H])([H])C([H])([H])C([H])([H])C([H])(n6nc(-c7c([H])c([H])c(Oc8c([H])c([H])c(F)c([H])c8F)c([H])c7[H])c(C(=O)N([H])[H])c6N([H])[H])C5([H])[H])c(C([H])([H])[H])c([H])c3C4([H])[H])c([H])c([H])c2C1([H])[H]

$$$$
6:0:0
     RDKit          3D

 91 99  0  0  1  0  0  0  0  0999 V2000
  -29.3900  -23.5220   18.5640 C   0  0  0  0  0  3  0  0  0  0  0  0
  -29.1750  -24.8990   18.7790 C   0  0  0  0  0  3  0  0  0  0  0  0
  -28.2100  -23.0100   20.6170 C   0  0  0  0  0  3  0  0  0  0  0  0
  -28.9330  -22.5500   19.4850 C   0  0  0  0  0  0  0  0  0  0  0  0
  -27.9980  -24.3960   20.8430 C   0  0  0  0  0  0  0  0  0  0  0  0
  -28.4910  -25.3570   19.9210 C   0  0  0  0  0  0  0  0  0  0  0  0
  -27.2750  -24.8280   22.1090 C   0  0  0  0  0  1  0  0  0  0  0  0
  -29.2790  -21.0990   19.2410 C   0  0  0  0  0  0  0  0  0  0  0  0
  -30.0440  -20.7550   18.3340 O   0  0  0  0  0  0  0  0  0  0  0  0
  -28.6800  -19.9880   20.1280 C   0  0  0  0  0  2  0  0  0  0  0  0
  -29.6870  -19.3280   21.1120 C   0  0  0  0  0  2  0  0  0  0  0  0
  -30.5440  -18.1550   20.5740 C   0  0  0  0  0  2  0  0  0  0  0  0
  -29.7830  -16.8100   20.4040 C   0  0  0  0  0  2  0  0  0  0  0  0
  -30.3390  -15.6030   21.2230 C   0  0  0  0  0  2  0  0  0  0  0  0
  -30.8190  -14.4240   20.3470 C   0  0  0  0  0  0  0  0  0  0  0  0
  -30.4200  -12.3060   19.1480 C   0  0  0  0  0  2  0  0  0  0  0  0
  -29.4660  -12.5620   17.9650 C   0  0  0  0  0  2  0  0  0  0  0  0
  -27.9980  -12.4390   18.4180 C   0  0  0  0  0  2  0  0  0  0  0  0
  -27.7010  -13.2650   19.7010 C   0  0  0  0  0  3  0  0  0  0  0  0
  -28.7730  -13.0050   20.7840 C   0  0  0  0  0  2  0  0  0  0  0  0
  -30.0960  -13.2800   20.2010 N   0  0  0  0  0  0  0  0  0  0  0  0
  -31.8830  -14.5980   19.7450 O   0  0  0  0  0  0  0  0  0  0  0  0
  -25.3220  -13.9020   20.4520 C   0  0  0  0  0  0  0  0  0  0  0  0
  -24.2500  -13.1460   20.8430 C   0  0  0  0  0  0  0  0  0  0  0  0
  -24.6940  -11.7870   20.8090 C   0  0  0  0  0  0  0  0  0  0  0  0
  -26.3530  -13.0080   20.2030 N   0  0  0  0  0  0  0  0  0  0  0  0
  -25.9780  -11.7310   20.4730 N   0  0  0  0  0  0  0  0  0  0  0  0
  -23.9530  -10.5340   21.0180 C   0  0  0  0  0  0  0  0  0  0  0  0
  -24.3990   -9.5580   21.9370 C   0  0  0  0  0  3  0  0  0  0  0  0
  -23.6650   -8.3680   22.1320 C   0  0  0  0  0  3  0  0  0  0  0  0
  -22.4690   -8.1470   21.4070 C   0  0  0  0  0  0  0  0  0  0  0  0
  -22.0400   -9.1100   20.4770 C   0  0  0  0  0  3  0  0  0  0  0  0
  -22.7760  -10.2910   20.2810 C   0  0  0  0  0  3  0  0  0  0  0  0
  -21.7030   -7.0110   21.5150 O   0  0  0  0  0  0  0  0  0  0  0  0
  -21.6850   -6.2580   22.6620 C   0  0  0  0  0  0  0  0  0  0  0  0
  -21.3200   -6.8090   23.9100 C   0  0  0  0  0  3  0  0  0  0  0  0
  -21.2470   -5.9830   25.0500 C   0  0  0  0  0  3  0  0  0  0  0  0
  -21.5320   -4.6090   24.9440 C   0  0  0  0  0  0  0  0  0  0  0  0
  -21.8900   -4.0570   23.7020 C   0  0  0  0  0  3  0  0  0  0  0  0
  -21.9650   -4.8810   22.5640 C   0  0  0  0  0  0  0  0  0  0  0  0
  -22.2900   -4.3400   21.3660 F   0  0  0  0  0  0  0  0  0  0  0  0
  -21.4550   -3.8150   26.0370 F   0  0  0  0  0  0  0  0  0  0  0  0
  -22.8630  -13.6390   21.1410 C   0  0  0  0  0  0  0  0  0  0  0  0
  -22.1390  -12.9580   22.0200 N   0  0  0  0  0  0  0  0  0  0  0  0
  -22.4280  -14.6670   20.6230 O   0  0  0  0  0  0  0  0  0  0  0  0
  -22.4980  -12.1250   22.4650 H   0  0  0  0  0  0  0  0  0  0  0  0
  -21.2090  -13.2730   22.2530 H   0  0  0  0  0  0  0  0  0  0  0  0
  -25.5060  -15.2700   20.2680 N   0  0  0  0  0  0  0  0  0  0  0  0
  -24.7610  -15.9470   20.3950 H   0  0  0  0  0  0  0  0  0  0  0  0
  -26.3690  -15.6850   19.9420 H   0  0  0  0  0  0  0  0  0  0  0  0
  -28.4340  -26.7250   20.1340 O   0  0  0  0  0  0  0  0  0  0  0  0
  -24.5940  -31.8600   23.2190 C   0  0  0  0  0  0  0  0  0  0  0  0
  -27.2460  -27.4260   20.1350 C   0  0  0  0  0  0  0  0  0  0  0  0
  -23.3900  -30.4610   21.5720 C   0  0  0  0  0  3  0  0  0  0  0  0
  -24.8470  -28.9250   20.1440 C   0  0  0  0  0  0  0  0  0  0  0  0
  -25.9110  -30.8290   21.3680 C   0  0  0  0  0  2  0  0  0  0  0  0
  -26.0000  -29.4520   20.7360 C   0  0  0  0  0  0  0  0  0  0  0  0
  -27.2000  -28.7070   20.7360 C   0  0  0  0  0  3  0  0  0  0  0  0
  -26.0760  -26.9140   19.5310 C   0  0  0  0  0  3  0  0  0  0  0  0
  -24.8800  -27.6550   19.5380 C   0  0  0  0  0  3  0  0  0  0  0  0
  -23.6020  -29.7840   20.1890 C   0  0  0  0  0  2  0  0  0  0  0  0
  -24.6520  -31.0630   22.1140 N   0  0  0  0  0  0  0  0  0  0  0  0
  -23.5120  -32.1300   23.7580 O   0  0  0  0  0  0  0  0  0  0  0  0
  -22.7360  -29.4380   22.5290 C   0  0  0  0  0  0  0  0  0  0  0  0
  -21.4090  -29.2660   22.4120 N   0  0  0  0  0  0  0  0  0  0  0  0
  -23.4220  -28.8030   23.3360 O   0  0  0  0  0  0  0  0  0  0  0  0
  -20.9160  -29.8400   21.7420 H   0  0  0  0  0  0  0  0  0  0  0  0
  -18.0300  -28.0930   22.9110 C   0  0  0  0  0  0  0  0  0  0  0  0
  -20.5900  -28.3250   23.1760 C   0  0  0  0  0  3  0  0  0  0  0  0
  -20.6770  -26.8980   22.5850 C   0  0  0  0  0  2  0  0  0  0  0  0
  -19.5690  -26.5950   21.5730 C   0  0  0  0  0  2  0  0  0  0  0  0
  -18.1920  -26.7460   22.2260 C   0  0  0  0  0  2  0  0  0  0  0  0
  -19.1570  -28.8410   23.3430 C   0  0  0  0  0  0  0  0  0  0  0  0
  -18.9550  -30.1020   23.9450 C   0  0  0  0  0  3  0  0  0  0  0  0
  -17.6570  -30.6170   24.1190 C   0  0  0  0  0  3  0  0  0  0  0  0
  -16.5420  -29.8660   23.7030 C   0  0  0  0  0  3  0  0  0  0  0  0
  -16.7300  -28.6050   23.1060 C   0  0  0  0  0  3  0  0  0  0  0  0
  -25.8800  -32.4890   23.8440 C   0  0  0  0  0  3  0  0  0  0  0  0
  -25.5760  -33.8860   24.1760 N   0  0  0  0  0  0  0  0  0  0  0  0
  -25.9120  -34.9380   23.4170 C   0  0  0  0  0  0  0  0  0  0  0  0
  -26.5820  -34.8350   22.3860 O   0  0  0  0  0  0  0  0  0  0  0  0
  -24.9830  -34.0450   24.9780 H   0  0  0  0  0  0  0  0  0  0  0  0
  -24.1840  -36.7280   23.0670 C   0  0  0  0  0  1  0  0  0  0  0  0
  -25.4270  -36.3280   23.8770 C   0  0  0  0  0  3  0  0  0  0  0  0
  -27.5640  -37.2060   24.7020 C   0  0  0  0  0  1  0  0  0  0  0  0
  -26.4590  -37.3810   23.7620 N   0  0  0  0  0  0  0  0  0  0  0  0
  -26.0540  -38.3010   23.9130 H   0  0  0  0  0  0  0  0  0  0  0  0
  -26.3970  -31.7110   25.1150 C   0  0  1  0  0  0  0  0  0  0  0  0
  -25.3050  -31.4710   26.1840 C   0  0  0  0  0  1  0  0  0  0  0  0
  -26.9710  -30.3360   24.7040 C   0  0  0  0  0  1  0  0  0  0  0  0
  -27.5520  -32.4970   25.7790 C   0  0  0  0  0  1  0  0  0  0  0  0
  1  2  2  0
  1  4  1  0
  2  6  1  0
  3  5  1  0
  4  3  2  0
  5  7  1  0
  6 51  1  0
  6  5  2  0
  8  4  1  0
  8 10  1  0
  9  8  2  0
 10 11  1  0
 12 11  1  0
 13 12  1  0
 13 14  1  0
 15 14  1  0
 16 21  1  0
 17 18  1  0
 17 16  1  0
 19 18  1  0
 19 26  1  0
 19 20  1  0
 21 15  1  0
 21 20  1  0
 22 15  2  0
 23 24  2  0
 24 43  1  0
 25 24  1  0
 25 28  1  0
 26 23  1  0
 26 27  1  0
 27 25  2  0
 28 29  1  0
 29 30  2  0
 31 34  1  0
 31 30  1  0
 32 31  2  0
 33 32  1  0
 33 28  2  0
 34 35  1  0
 35 36  1  0
 36 37  2  0
 38 37  1  0
 38 42  1  0
 39 38  2  0
 40 35  2  0
 40 39  1  0
 41 40  1  0
 43 44  1  0
 44 47  1  0
 44 46  1  0
 45 43  2  0
 48 49  1  0
 48 23  1  0
 50 48  1  0
 51 53  1  0
 52 63  2  0
 53 58  1  0
 54 62  1  0
 54 64  1  0
 55 61  1  0
 55 57  1  0
 56 62  1  0
 57 56  1  0
 58 57  2  0
 59 60  1  0
 59 53  2  0
 60 55  2  0
 61 54  1  0
 62 52  1  0
 64 66  2  0
 65 64  1  0
 67 65  1  0
 68 77  2  0
 68 73  1  0
 69 65  1  0
 69 73  1  0
 70 69  1  0
 71 72  1  0
 71 70  1  0
 72 68  1  0
 73 74  2  0
 74 75  1  0
 76 75  2  0
 77 76  1  0
 78 52  1  0
 78 79  1  0
 78 88  1  0
 79 82  1  0
 80 84  1  0
 80 79  1  0
 81 80  2  0
 84 83  1  0
 86 84  1  0
 86 87  1  0
 86 85  1  0
 88 91  1  1
 88 89  1  0
 90 88  1  0
M  ISO  4   6 101  14 100  15 100  51 101
M  END
>  <TORSDO>  (7) 
F 22

>  <SCORE>  (7) 
-13.071

>  <name>  (7) 
6

>  <ligand_id>  (7) 
6

>  <original_smiles>  (7) 
[H]c1c([H])c([H])c2c(c1[H])C([H])([H])C([H])([H])C([H])([H])C2([H])N([H])C(=O)C1([H])N(C(=O)C([H])(N([H])C(=O)C([H])(N([H])C([H])([H])[H])C([H])([H])[H])C(C([H])([H])[H])(C([H])([H])[H])C([H])([H])[H])C([H])([H])c2c([H])c(Oc3c([H])c([H])c(C(=O)C([H])([H])C([H])([H])C([H])([H])C([H])([H])C([H])([H])C(=O)N4C([H])([H])C([H])([H])C([H])([H])C([H])(n5nc(-c6c([H])c([H])c(Oc7c([H])c([H])c(F)c([H])c7F)c([H])c6[H])c(C(=O)N([H])[H])c5N([H])[H])C4([H])[H])c([H])c3C([H])([H])[H])c([H])c([H])c2C1([H])[H]

>  <smiles>  (7) 
[H]c1c([H])c([H])c2c(c1[H])C([H])([H])C([H])([H])C([H])([H])C2([H])N([H])C(=O)C1([H])N(C(=O)C([H])(N([H])C(=O)C([H])(N([H])C([H])([H])[H])C([H])([H])[H])C(C([H])([H])[H])(C([H])([H])[H])C([H])([H])[H])C([H])([H])c2c([H])c(Oc3c([H])c([H])c(C(=O)C([H])([H])C([H])([H])C([H])([H])C([H])([H])C([H])([H])C(=O)N4C([H])([H])C([H])([H])C([H])([H])C([H])(n5nc(-c6c([H])c([H])c(Oc7c([H])c([H])c(F)c([H])c7F)c([H])c6[H])c(C(=O)N([H])[H])c5N([H])[H])C4([H])[H])c([H])c3C([H])([H])[H])c([H])c([H])c2C1([H])[H]

$$$$
7:0:0
     RDKit          3D

 93102  0  0  1  0  0  0  0  0999 V2000
  -29.9940  -21.8970   19.3230 C   0  0  0  0  0  3  0  0  0  0  0  0
  -28.6520  -21.6700   21.3040 C   0  0  0  0  0  3  0  0  0  0  0  0
  -30.0870  -20.4780   19.2190 C   0  0  0  0  0  3  0  0  0  0  0  0
  -28.7370  -20.2450   21.1960 C   0  0  0  0  0  3  0  0  0  0  0  0
  -29.2640  -22.5380   20.3600 C   0  0  0  0  0  0  0  0  0  0  0  0
  -29.4650  -19.6080   20.1510 C   0  0  0  0  0  0  0  0  0  0  0  0
  -29.3110  -24.0640   20.5380 C   0  0  0  0  0  0  0  0  0  0  0  0
  -30.3070  -24.6020   21.0350 O   0  0  0  0  0  0  0  0  0  0  0  0
  -28.1220  -24.9830   20.0690 C   0  0  0  0  0  2  0  0  0  0  0  0
  -28.3140  -26.4380   20.2940 O   0  0  0  0  0  0  0  0  0  0  0  0
  -24.5910  -31.8550   23.2500 C   0  0  0  0  0  0  0  0  0  0  0  0
  -27.1880  -27.2700   20.2300 C   0  0  0  0  0  0  0  0  0  0  0  0
  -23.3830  -30.4490   21.6180 C   0  0  0  0  0  3  0  0  0  0  0  0
  -24.8300  -28.8890   20.1990 C   0  0  0  0  0  0  0  0  0  0  0  0
  -25.9240  -30.7620   21.4340 C   0  0  0  0  0  2  0  0  0  0  0  0
  -25.9990  -29.3810   20.7900 C   0  0  0  0  0  0  0  0  0  0  0  0
  -27.1810  -28.5850   20.7900 C   0  0  0  0  0  3  0  0  0  0  0  0
  -25.9900  -26.8230   19.6240 C   0  0  0  0  0  3  0  0  0  0  0  0
  -24.8270  -27.6170   19.6040 C   0  0  0  0  0  3  0  0  0  0  0  0
  -23.5950  -29.7660   20.2390 C   0  0  0  0  0  2  0  0  0  0  0  0
  -24.6510  -31.0390   22.1560 N   0  0  0  0  0  0  0  0  0  0  0  0
  -23.5100  -32.1410   23.7810 O   0  0  0  0  0  0  0  0  0  0  0  0
  -22.7160  -29.4390   22.5830 C   0  0  0  0  0  0  0  0  0  0  0  0
  -21.3900  -29.2640   22.4540 N   0  0  0  0  0  0  0  0  0  0  0  0
  -23.3890  -28.8190   23.4110 O   0  0  0  0  0  0  0  0  0  0  0  0
  -20.9080  -29.8200   21.7630 H   0  0  0  0  0  0  0  0  0  0  0  0
  -18.0130  -28.0720   22.9490 C   0  0  0  0  0  0  0  0  0  0  0  0
  -20.5700  -28.3320   23.2300 C   0  0  0  0  0  3  0  0  0  0  0  0
  -20.6730  -26.8930   22.6730 C   0  0  0  0  0  2  0  0  0  0  0  0
  -19.5770  -26.5630   21.6540 C   0  0  0  0  0  2  0  0  0  0  0  0
  -18.1920  -26.7150   22.2920 C   0  0  0  0  0  2  0  0  0  0  0  0
  -19.1320  -28.8370   23.3770 C   0  0  0  0  0  0  0  0  0  0  0  0
  -18.9110  -30.1060   23.9540 C   0  0  0  0  0  3  0  0  0  0  0  0
  -17.6060  -30.6100   24.1110 C   0  0  0  0  0  3  0  0  0  0  0  0
  -16.5040  -29.8430   23.6990 C   0  0  0  0  0  3  0  0  0  0  0  0
  -16.7080  -28.5760   23.1210 C   0  0  0  0  0  3  0  0  0  0  0  0
  -25.8780  -32.4850   23.8700 C   0  0  0  0  0  3  0  0  0  0  0  0
  -26.3940  -31.7170   25.1490 C   0  0  1  0  0  0  0  0  0  0  0  0
  -25.3010  -31.4830   26.2180 C   0  0  0  0  0  1  0  0  0  0  0  0
  -26.9770  -30.3390   24.7610 C   0  0  0  0  0  1  0  0  0  0  0  0
  -27.5470  -32.5130   25.8060 C   0  0  0  0  0  1  0  0  0  0  0  0
  -25.5690  -33.8840   24.1990 N   0  0  0  0  0  0  0  0  0  0  0  0
  -25.8930  -34.9370   23.4330 C   0  0  0  0  0  0  0  0  0  0  0  0
  -26.5570  -34.8300   22.3990 O   0  0  0  0  0  0  0  0  0  0  0  0
  -24.9770  -34.0390   25.0010 H   0  0  0  0  0  0  0  0  0  0  0  0
  -24.1550  -36.7220   23.0970 C   0  0  0  0  0  1  0  0  0  0  0  0
  -25.4100  -36.3260   23.8920 C   0  0  0  0  0  3  0  0  0  0  0  0
  -27.5540  -37.2150   24.6920 C   0  0  0  0  0  1  0  0  0  0  0  0
  -26.4410  -37.3780   23.7600 N   0  0  0  0  0  0  0  0  0  0  0  0
  -26.0360  -38.2980   23.9090 H   0  0  0  0  0  0  0  0  0  0  0  0
  -29.4700  -18.0450   19.9280 C   0  0  0  0  0  2  0  0  0  0  0  0
  -31.7110  -18.1390   22.1020 C   0  0  0  0  0  2  0  0  0  0  0  0
  -30.4470  -17.2960   22.2890 C   0  0  0  0  0  2  0  0  0  0  0  0
  -31.9300  -17.3450   20.8150 C   0  0  0  0  0  2  0  0  0  0  0  0
  -30.4050  -17.0630   20.7590 C   0  0  2  0  0  0  0  0  0  0  0  0
  -30.7840  -14.5390   20.0010 C   0  0  0  0  0  0  0  0  0  0  0  0
  -30.4280  -12.3270   18.9160 C   0  0  0  0  0  2  0  0  0  0  0  0
  -29.4170  -12.4830   17.7580 C   0  0  0  0  0  2  0  0  0  0  0  0
  -27.9700  -12.3660   18.2700 C   0  0  0  0  0  2  0  0  0  0  0  0
  -27.7110  -13.2550   19.5140 C   0  0  0  0  0  3  0  0  0  0  0  0
  -28.8180  -13.0530   20.5730 C   0  0  0  0  0  2  0  0  0  0  0  0
  -30.1080  -13.3510   19.9310 N   0  0  0  0  0  0  0  0  0  0  0  0
  -31.9060  -14.6670   19.5060 O   0  0  0  0  0  0  0  0  0  0  0  0
  -30.0820  -15.6030   20.5120 N   0  0  0  0  0  0  0  0  0  0  0  0
  -29.1540  -15.3290   20.7980 H   0  0  0  0  0  0  0  0  0  0  0  0
  -25.3870  -13.9540   20.3630 C   0  0  0  0  0  0  0  0  0  0  0  0
  -24.3080  -13.2200   20.7790 C   0  0  0  0  0  0  0  0  0  0  0  0
  -24.7100  -11.8510   20.7100 C   0  0  0  0  0  0  0  0  0  0  0  0
  -26.3790  -13.0320   20.0660 N   0  0  0  0  0  0  0  0  0  0  0  0
  -25.9800  -11.7630   20.3380 N   0  0  0  0  0  0  0  0  0  0  0  0
  -23.9410  -10.6190   20.9250 C   0  0  0  0  0  0  0  0  0  0  0  0
  -24.3710   -9.6330   21.8410 C   0  0  0  0  0  3  0  0  0  0  0  0
  -23.6070   -8.4640   22.0470 C   0  0  0  0  0  3  0  0  0  0  0  0
  -22.3980   -8.2730   21.3370 C   0  0  0  0  0  0  0  0  0  0  0  0
  -21.9850   -9.2480   20.4100 C   0  0  0  0  0  3  0  0  0  0  0  0
  -22.7490  -10.4080   20.2020 C   0  0  0  0  0  3  0  0  0  0  0  0
  -21.6030   -7.1580   21.4510 O   0  0  0  0  0  0  0  0  0  0  0  0
  -21.5530   -6.4250   22.6090 C   0  0  0  0  0  0  0  0  0  0  0  0
  -21.1850   -7.0060   23.8420 C   0  0  0  0  0  3  0  0  0  0  0  0
  -21.0790   -6.2030   24.9950 C   0  0  0  0  0  3  0  0  0  0  0  0
  -21.3330   -4.8210   24.9160 C   0  0  0  0  0  0  0  0  0  0  0  0
  -21.6940   -4.2390   23.6880 C   0  0  0  0  0  3  0  0  0  0  0  0
  -21.8020   -5.0400   22.5380 C   0  0  0  0  0  0  0  0  0  0  0  0
  -22.1290   -4.4710   21.3520 F   0  0  0  0  0  0  0  0  0  0  0  0
  -21.2220   -4.0470   26.0210 F   0  0  0  0  0  0  0  0  0  0  0  0
  -22.9490  -13.7530   21.1300 C   0  0  0  0  0  0  0  0  0  0  0  0
  -22.2430  -13.0790   22.0310 N   0  0  0  0  0  0  0  0  0  0  0  0
  -22.5260  -14.7990   20.6400 O   0  0  0  0  0  0  0  0  0  0  0  0
  -22.5940  -12.2300   22.4470 H   0  0  0  0  0  0  0  0  0  0  0  0
  -21.3330  -13.4180   22.3070 H   0  0  0  0  0  0  0  0  0  0  0  0
  -25.6030  -15.3190   20.1910 N   0  0  0  0  0  0  0  0  0  0  0  0
  -24.8640  -16.0000   20.3340 H   0  0  0  0  0  0  0  0  0  0  0  0
  -26.4430  -15.7290   19.8050 H   0  0  0  0  0  0  0  0  0  0  0  0
  1  5  1  0
  3  1  2  0
  3  6  1  0
  4  2  1  0
  5  7  1  0
  5  2  2  0
  6  4  2  0
  7  8  2  0
  9 10  1  0
  9  7  1  0
 11 22  2  0
 12 10  1  0
 12 17  1  0
 13 21  1  0
 13 23  1  0
 14 20  1  0
 14 16  1  0
 15 21  1  0
 16 15  1  0
 17 16  2  0
 18 12  2  0
 19 18  1  0
 19 14  2  0
 20 13  1  0
 21 11  1  0
 23 25  2  0
 24 23  1  0
 26 24  1  0
 27 36  2  0
 27 32  1  0
 28 24  1  0
 28 32  1  0
 29 28  1  0
 30 31  1  0
 30 29  1  0
 31 27  1  0
 32 33  2  0
 33 34  1  0
 35 34  2  0
 36 35  1  0
 37 11  1  0
 37 42  1  0
 37 38  1  0
 38 41  1  1
 38 39  1  0
 40 38  1  0
 42 45  1  0
 43 47  1  0
 43 42  1  0
 44 43  2  0
 47 46  1  0
 49 47  1  0
 49 50  1  0
 49 48  1  0
 51  6  1  0
 55 51  1  6
 52 53  1  0
 54 52  1  0
 55 54  1  0
 55 53  1  0
 56 64  1  0
 57 62  1  0
 58 59  1  0
 58 57  1  0
 60 59  1  0
 60 69  1  0
 60 61  1  0
 62 56  1  0
 62 61  1  0
 63 56  2  0
 64 55  1  0
 64 65  1  0
 66 67  2  0
 67 86  1  0
 68 67  1  0
 68 71  1  0
 69 70  1  0
 69 66  1  0
 70 68  2  0
 71 72  1  0
 72 73  2  0
 74 77  1  0
 74 73  1  0
 75 74  2  0
 76 75  1  0
 76 71  2  0
 77 78  1  0
 78 79  1  0
 79 80  2  0
 81 80  1  0
 81 85  1  0
 82 81  2  0
 83 78  2  0
 83 82  1  0
 84 83  1  0
 86 87  1  0
 87 90  1  0
 87 89  1  0
 88 86  2  0
 91 92  1  0
 91 66  1  0
 93 91  1  0
M  ISO  4   9 101  10 101  56 100  64 100
M  END
>  <TORSDO>  (8) 
F 20

>  <SCORE>  (8) 
-13.503

>  <name>  (8) 
7

>  <ligand_id>  (8) 
7

>  <original_smiles>  (8) 
[H]c1c([H])c([H])c2c(c1[H])C([H])([H])C([H])([H])C([H])([H])C2([H])N([H])C(=O)C1([H])N(C(=O)C([H])(N([H])C(=O)C([H])(N([H])C([H])([H])[H])C([H])([H])[H])C(C([H])([H])[H])(C([H])([H])[H])C([H])([H])[H])C([H])([H])c2c([H])c(OC([H])([H])C(=O)c3c([H])c([H])c(C([H])([H])C4(N([H])C(=O)N5C([H])([H])C([H])([H])C([H])([H])C([H])(n6nc(-c7c([H])c([H])c(Oc8c([H])c([H])c(F)c([H])c8F)c([H])c7[H])c(C(=O)N([H])[H])c6N([H])[H])C5([H])[H])C([H])([H])C([H])([H])C4([H])[H])c([H])c3[H])c([H])c([H])c2C1([H])[H]

>  <smiles>  (8) 
[H]c1c([H])c([H])c2c(c1[H])C([H])([H])C([H])([H])C([H])([H])C2([H])N([H])C(=O)C1([H])N(C(=O)C([H])(N([H])C(=O)C([H])(N([H])C([H])([H])[H])C([H])([H])[H])C(C([H])([H])[H])(C([H])([H])[H])C([H])([H])[H])C([H])([H])c2c([H])c(OC([H])([H])C(=O)c3c([H])c([H])c(C([H])([H])C4(N([H])C(=O)N5C([H])([H])C([H])([H])C([H])([H])C([H])(n6nc(-c7c([H])c([H])c(Oc8c([H])c([H])c(F)c([H])c8F)c([H])c7[H])c(C(=O)N([H])[H])c6N([H])[H])C5([H])[H])C([H])([H])C([H])([H])C4([H])[H])c([H])c3[H])c([H])c([H])c2C1([H])[H]

$$$$
8:0:0
     RDKit          3D

 94102  0  0  1  0  0  0  0  0999 V2000
  -28.4500  -23.6550   21.0460 C   0  0  0  0  0  3  0  0  0  0  0  0
  -27.7180  -24.6720   20.4110 C   0  0  0  0  0  3  0  0  0  0  0  0
  -29.8640  -23.6740   21.0650 C   0  0  0  0  0  0  0  0  0  0  0  0
  -30.5480  -24.8020   20.5200 C   0  0  0  0  0  0  0  0  0  0  0  0
  -29.7980  -25.8150   19.8540 C   0  0  0  0  0  0  0  0  0  0  0  0
  -28.3900  -25.7340   19.7770 C   0  0  0  0  0  0  0  0  0  0  0  0
  -30.4570  -27.0000   19.1490 C   0  0  0  0  0  1  0  0  0  0  0  0
  -27.7500  -26.6300   18.9530 O   0  0  0  0  0  0  0  0  0  0  0  0
  -24.5450  -31.5970   22.9560 C   0  0  0  0  0  0  0  0  0  0  0  0
  -26.6030  -27.2940   19.3040 C   0  0  0  0  0  0  0  0  0  0  0  0
  -23.0890  -30.3540   21.3870 C   0  0  0  0  0  3  0  0  0  0  0  0
  -24.2930  -28.8580   19.7130 C   0  0  0  0  0  0  0  0  0  0  0  0
  -25.5850  -30.6340   20.9100 C   0  0  0  0  0  2  0  0  0  0  0  0
  -25.5310  -29.3000   20.1980 C   0  0  0  0  0  0  0  0  0  0  0  0
  -26.6890  -28.5170   20.0010 C   0  0  0  0  0  3  0  0  0  0  0  0
  -25.3540  -26.8630   18.8130 C   0  0  0  0  0  3  0  0  0  0  0  0
  -24.1950  -27.6330   19.0300 C   0  0  0  0  0  3  0  0  0  0  0  0
  -23.1050  -29.7600   19.9540 C   0  0  0  0  0  2  0  0  0  0  0  0
  -24.4300  -30.8720   21.8070 N   0  0  0  0  0  0  0  0  0  0  0  0
  -23.5480  -31.8720   23.6400 O   0  0  0  0  0  0  0  0  0  0  0  0
  -22.5130  -29.2940   22.3530 C   0  0  0  0  0  0  0  0  0  0  0  0
  -21.1900  -29.0820   22.2850 N   0  0  0  0  0  0  0  0  0  0  0  0
  -23.2510  -28.6670   23.1180 O   0  0  0  0  0  0  0  0  0  0  0  0
  -20.6540  -29.6390   21.6360 H   0  0  0  0  0  0  0  0  0  0  0  0
  -17.9060  -27.6580   22.7690 C   0  0  0  0  0  0  0  0  0  0  0  0
  -20.4340  -28.1070   23.0680 C   0  0  0  0  0  3  0  0  0  0  0  0
  -20.6500  -26.6730   22.5300 C   0  0  0  0  0  2  0  0  0  0  0  0
  -19.5880  -26.2470   21.5100 C   0  0  0  0  0  2  0  0  0  0  0  0
  -18.1900  -26.3090   22.1320 C   0  0  0  0  0  2  0  0  0  0  0  0
  -18.9610  -28.5090   23.1950 C   0  0  0  0  0  0  0  0  0  0  0  0
  -18.6420  -29.7690   23.7480 C   0  0  0  0  0  3  0  0  0  0  0  0
  -17.3020  -30.1790   23.8810 C   0  0  0  0  0  3  0  0  0  0  0  0
  -16.2630  -29.3250   23.4740 C   0  0  0  0  0  3  0  0  0  0  0  0
  -16.5650  -28.0680   22.9210 C   0  0  0  0  0  3  0  0  0  0  0  0
  -25.9240  -32.1320   23.4510 C   0  0  0  0  0  3  0  0  0  0  0  0
  -26.6050  -31.1970   24.5250 C   0  0  1  0  0  0  0  0  0  0  0  0
  -25.6780  -30.8330   25.7080 C   0  0  0  0  0  1  0  0  0  0  0  0
  -27.0770  -29.8770   23.8720 C   0  0  0  0  0  1  0  0  0  0  0  0
  -27.8640  -31.8880   25.0980 C   0  0  0  0  0  1  0  0  0  0  0  0
  -25.7050  -33.4780   23.9960 N   0  0  0  0  0  0  0  0  0  0  0  0
  -26.0220  -34.6140   23.3610 C   0  0  0  0  0  0  0  0  0  0  0  0
  -26.6000  -34.6370   22.2720 O   0  0  0  0  0  0  0  0  0  0  0  0
  -25.1870  -33.5390   24.8590 H   0  0  0  0  0  0  0  0  0  0  0  0
  -24.3570  -36.4970   23.3900 C   0  0  0  0  0  1  0  0  0  0  0  0
  -25.6310  -35.9380   24.0430 C   0  0  0  0  0  3  0  0  0  0  0  0
  -27.8560  -36.6130   24.8280 C   0  0  0  0  0  1  0  0  0  0  0  0
  -26.7010  -36.9590   24.0050 N   0  0  0  0  0  0  0  0  0  0  0  0
  -26.3480  -37.8590   24.3170 H   0  0  0  0  0  0  0  0  0  0  0  0
  -30.6400  -22.4740   21.6260 C   0  0  0  0  0  2  0  0  0  0  0  0
  -29.8910  -21.1220   21.7040 C   0  0  0  0  0  2  0  0  0  0  0  0
  -30.8720  -19.9320   21.7510 C   0  0  0  0  0  2  0  0  0  0  0  0
  -30.1890  -18.5540   21.7790 C   0  0  0  0  0  2  0  0  0  0  0  0
  -31.1640  -17.4030   21.4530 C   0  0  0  0  0  2  0  0  0  0  0  0
  -30.5050  -16.0040   21.5270 C   0  0  0  0  0  2  0  0  0  0  0  0
  -31.1980  -14.8870   20.7120 C   0  0  0  0  0  0  0  0  0  0  0  0
  -30.8960  -12.8210   19.3840 C   0  0  0  0  0  2  0  0  0  0  0  0
  -30.0030  -13.1190   18.1610 C   0  0  0  0  0  2  0  0  0  0  0  0
  -28.5070  -13.0060   18.5210 C   0  0  0  0  0  2  0  0  0  0  0  0
  -28.1470  -13.7870   19.8140 C   0  0  0  0  0  3  0  0  0  0  0  0
  -29.1470  -13.4580   20.9450 C   0  0  0  0  0  2  0  0  0  0  0  0
  -30.5050  -13.7450   20.4570 N   0  0  0  0  0  0  0  0  0  0  0  0
  -32.3200  -15.0940   20.2370 O   0  0  0  0  0  0  0  0  0  0  0  0
  -25.7410  -14.4500   20.4550 C   0  0  0  0  0  0  0  0  0  0  0  0
  -24.6360  -13.7000   20.7540 C   0  0  0  0  0  0  0  0  0  0  0  0
  -25.0550  -12.3360   20.6850 C   0  0  0  0  0  0  0  0  0  0  0  0
  -26.7680  -13.5440   20.2280 N   0  0  0  0  0  0  0  0  0  0  0  0
  -26.3540  -12.2650   20.4220 N   0  0  0  0  0  0  0  0  0  0  0  0
  -24.2830  -11.0920   20.7970 C   0  0  0  0  0  0  0  0  0  0  0  0
  -24.6540  -10.0750   21.7040 C   0  0  0  0  0  3  0  0  0  0  0  0
  -23.8870   -8.8930   21.8060 C   0  0  0  0  0  3  0  0  0  0  0  0
  -22.7370   -8.7220   21.0000 C   0  0  0  0  0  0  0  0  0  0  0  0
  -22.3870   -9.7280   20.0830 C   0  0  0  0  0  3  0  0  0  0  0  0
  -23.1520  -10.9020   19.9780 C   0  0  0  0  0  3  0  0  0  0  0  0
  -21.9440   -7.5990   21.0130 O   0  0  0  0  0  0  0  0  0  0  0  0
  -21.8020   -6.8330   22.1430 C   0  0  0  0  0  0  0  0  0  0  0  0
  -21.3610   -7.3830   23.3660 C   0  0  0  0  0  3  0  0  0  0  0  0
  -21.1610   -6.5470   24.4820 C   0  0  0  0  0  3  0  0  0  0  0  0
  -21.3910   -5.1610   24.3760 C   0  0  0  0  0  0  0  0  0  0  0  0
  -21.8230   -4.6120   23.1570 C   0  0  0  0  0  3  0  0  0  0  0  0
  -22.0250   -5.4450   22.0430 C   0  0  0  0  0  0  0  0  0  0  0  0
  -22.4230   -4.9070   20.8640 F   0  0  0  0  0  0  0  0  0  0  0  0
  -21.1910   -4.3570   25.4450 F   0  0  0  0  0  0  0  0  0  0  0  0
  -23.2430  -14.2100   20.9930 C   0  0  0  0  0  0  0  0  0  0  0  0
  -22.4650  -13.5110   21.8120 N   0  0  0  0  0  0  0  0  0  0  0  0
  -22.8520  -15.2620   20.4870 O   0  0  0  0  0  0  0  0  0  0  0  0
  -22.7920  -12.6630   22.2490 H   0  0  0  0  0  0  0  0  0  0  0  0
  -21.5260  -13.8320   22.0060 H   0  0  0  0  0  0  0  0  0  0  0  0
  -25.9550  -15.8210   20.3410 N   0  0  0  0  0  0  0  0  0  0  0  0
  -25.2060  -16.4960   20.4500 H   0  0  0  0  0  0  0  0  0  0  0  0
  -26.8340  -16.2500   20.0820 H   0  0  0  0  0  0  0  0  0  0  0  0
  -32.0740  -24.9310   20.6160 C   0  0  0  0  0  2  0  0  0  0  0  0
  -32.5240  -26.2710   21.2270 C   0  0  0  0  0  2  0  0  0  0  0  0
  -34.3620  -28.0410   21.2880 C   0  0  0  0  0  1  0  0  0  0  0  0
  -33.9530  -26.6460   20.8030 C   0  0  0  0  0  2  0  0  0  0  0  0
  1  3  1  0
  2  1  2  0
  3 49  1  0
  4 91  1  0
  4  3  2  0
  5  4  1  0
  6  5  2  0
  6  2  1  0
  7  5  1  0
  8 10  1  0
  8  6  1  0
  9 20  2  0
 10 15  1  0
 11 19  1  0
 11 21  1  0
 12 18  1  0
 12 14  1  0
 13 19  1  0
 14 13  1  0
 15 14  2  0
 16 17  1  0
 16 10  2  0
 17 12  2  0
 18 11  1  0
 19  9  1  0
 21 23  2  0
 22 21  1  0
 24 22  1  0
 25 34  2  0
 25 30  1  0
 26 22  1  0
 26 30  1  0
 27 26  1  0
 28 29  1  0
 28 27  1  0
 29 25  1  0
 30 31  2  0
 31 32  1  0
 33 32  2  0
 34 33  1  0
 35  9  1  0
 35 40  1  0
 35 36  1  0
 36 39  1  1
 36 37  1  0
 38 36  1  0
 40 43  1  0
 41 40  1  0
 41 45  1  0
 42 41  2  0
 45 44  1  0
 47 45  1  0
 47 48  1  0
 47 46  1  0
 49 50  1  0
 50 51  1  0
 51 52  1  0
 53 54  1  0
 53 52  1  0
 55 54  1  0
 56 61  1  0
 57 58  1  0
 57 56  1  0
 59 58  1  0
 59 66  1  0
 59 60  1  0
 61 55  1  0
 61 60  1  0
 62 55  2  0
 63 64  2  0
 64 83  1  0
 65 64  1  0
 65 68  1  0
 66 67  1  0
 66 63  1  0
 67 65  2  0
 68 69  1  0
 69 70  2  0
 71 74  1  0
 71 70  1  0
 72 71  2  0
 73 72  1  0
 73 68  2  0
 74 75  1  0
 75 76  1  0
 76 77  2  0
 78 77  1  0
 78 82  1  0
 79 78  2  0
 80 75  2  0
 80 79  1  0
 81 80  1  0
 83 84  1  0
 84 87  1  0
 84 86  1  0
 85 83  2  0
 88 89  1  0
 88 63  1  0
 90 88  1  0
 91 92  1  0
 94 92  1  0
 94 93  1  0
M  ISO  4   6 101   8 101  54 100  55 100
M  END
>  <TORSDO>  (9) 
F 25

>  <SCORE>  (9) 
-10.825

>  <name>  (9) 
8

>  <ligand_id>  (9) 
8

>  <original_smiles>  (9) 
[H]c1c([H])c([H])c2c(c1[H])C([H])([H])C([H])([H])C([H])([H])C2([H])N([H])C(=O)C1([H])N(C(=O)C([H])(N([H])C(=O)C([H])(N([H])C([H])([H])[H])C([H])([H])[H])C(C([H])([H])[H])(C([H])([H])[H])C([H])([H])[H])C([H])([H])c2c([H])c(Oc3c([H])c([H])c(C([H])([H])C([H])([H])C([H])([H])C([H])([H])C([H])([H])C([H])([H])C(=O)N4C([H])([H])C([H])([H])C([H])([H])C([H])(n5nc(-c6c([H])c([H])c(Oc7c([H])c([H])c(F)c([H])c7F)c([H])c6[H])c(C(=O)N([H])[H])c5N([H])[H])C4([H])[H])c(C([H])([H])C([H])([H])C([H])([H])C([H])([H])[H])c3C([H])([H])[H])c([H])c([H])c2C1([H])[H]

>  <smiles>  (9) 
[H]c1c([H])c([H])c2c(c1[H])C([H])([H])C([H])([H])C([H])([H])C2([H])N([H])C(=O)C1([H])N(C(=O)C([H])(N([H])C(=O)C([H])(N([H])C([H])([H])[H])C([H])([H])[H])C(C([H])([H])[H])(C([H])([H])[H])C([H])([H])[H])C([H])([H])c2c([H])c(Oc3c([H])c([H])c(C([H])([H])C([H])([H])C([H])([H])C([H])([H])C([H])([H])C([H])([H])C(=O)N4C([H])([H])C([H])([H])C([H])([H])C([H])(n5nc(-c6c([H])c([H])c(Oc7c([H])c([H])c(F)c([H])c7F)c([H])c6[H])c(C(=O)N([H])[H])c5N([H])[H])C4([H])[H])c(C([H])([H])C([H])([H])C([H])([H])C([H])([H])[H])c3C([H])([H])[H])c([H])c([H])c2C1([H])[H]

$$$$
9:0:0
     RDKit          3D

 87 95  0  0  1  0  0  0  0  0999 V2000
  -29.2520  -22.4800   19.7290 C   0  0  0  0  0  3  0  0  0  0  0  0
  -26.7470  -21.8670   20.1990 C   0  0  0  0  0  3  0  0  0  0  0  0
  -29.0210  -20.8420   19.7320 C   0  0  0  0  0  0  0  0  0  0  0  0
  -27.6180  -20.7480   19.9740 C   0  0  0  0  0  0  0  0  0  0  0  0
  -27.0420  -23.2730   20.2210 C   0  0  0  0  0  0  0  0  0  0  0  0
  -28.3250  -23.8340   19.9390 C   0  0  0  0  0  0  0  0  0  0  0  0
  -26.9660  -19.3770   20.0320 C   0  0  0  0  0  1  0  0  0  0  0  0
  -25.8830  -24.1720   20.6170 C   0  0  0  0  0  1  0  0  0  0  0  0
  -29.9030  -19.1790   19.5590 C   0  0  0  0  0  3  0  0  0  0  0  0
  -29.7980  -17.6020   19.6680 C   0  0  0  0  0  3  0  0  0  0  0  0
  -30.6900  -16.0810   19.5370 C   0  0  0  0  0  0  0  0  0  0  0  0
  -30.9280  -13.4420   18.9360 C   0  0  0  0  0  2  0  0  0  0  0  0
  -30.0170  -12.8530   17.8140 C   0  0  0  0  0  2  0  0  0  0  0  0
  -28.6510  -12.4320   18.3710 C   0  0  0  0  0  2  0  0  0  0  0  0
  -28.1270  -13.4830   19.3720 C   0  0  0  0  0  3  0  0  0  0  0  0
  -29.1790  -13.9870   20.3900 C   0  0  0  0  0  2  0  0  0  0  0  0
  -30.2740  -14.6560   19.6380 N   0  0  0  0  0  0  0  0  0  0  0  0
  -31.9050  -16.0180   19.2450 O   0  0  0  0  0  0  0  0  0  0  0  0
  -25.8620  -13.9540   20.4040 C   0  0  0  0  0  0  0  0  0  0  0  0
  -24.8410  -13.1520   20.8280 C   0  0  0  0  0  0  0  0  0  0  0  0
  -25.3010  -11.8070   20.6710 C   0  0  0  0  0  0  0  0  0  0  0  0
  -26.8710  -13.1010   20.0030 N   0  0  0  0  0  0  0  0  0  0  0  0
  -26.5560  -11.7970   20.2280 N   0  0  0  0  0  0  0  0  0  0  0  0
  -24.5870  -10.5350   20.8570 C   0  0  0  0  0  0  0  0  0  0  0  0
  -24.9920   -9.5930   21.8270 C   0  0  0  0  0  3  0  0  0  0  0  0
  -24.2720   -8.3910   22.0030 C   0  0  0  0  0  3  0  0  0  0  0  0
  -23.1330   -8.1230   21.2080 C   0  0  0  0  0  0  0  0  0  0  0  0
  -22.7470   -9.0530   20.2260 C   0  0  0  0  0  3  0  0  0  0  0  0
  -23.4670  -10.2460   20.0490 C   0  0  0  0  0  3  0  0  0  0  0  0
  -22.3890   -6.9700   21.2900 O   0  0  0  0  0  0  0  0  0  0  0  0
  -22.1300   -6.3640   22.4940 C   0  0  0  0  0  0  0  0  0  0  0  0
  -21.4460   -7.0320   23.5320 C   0  0  0  0  0  3  0  0  0  0  0  0
  -21.1400   -6.3490   24.7260 C   0  0  0  0  0  3  0  0  0  0  0  0
  -21.5070   -4.9980   24.8800 C   0  0  0  0  0  0  0  0  0  0  0  0
  -22.1830   -4.3300   23.8450 C   0  0  0  0  0  3  0  0  0  0  0  0
  -22.4910   -5.0110   22.6540 C   0  0  0  0  0  0  0  0  0  0  0  0
  -23.1230   -4.3550   21.6500 F   0  0  0  0  0  0  0  0  0  0  0  0
  -21.2070   -4.3400   26.0240 F   0  0  0  0  0  0  0  0  0  0  0  0
  -23.4800  -13.6130   21.2540 C   0  0  0  0  0  0  0  0  0  0  0  0
  -22.8350  -12.8740   22.1500 N   0  0  0  0  0  0  0  0  0  0  0  0
  -23.0000  -14.6640   20.8310 O   0  0  0  0  0  0  0  0  0  0  0  0
  -23.2420  -12.0250   22.5150 H   0  0  0  0  0  0  0  0  0  0  0  0
  -21.9240  -13.1610   22.4790 H   0  0  0  0  0  0  0  0  0  0  0  0
  -26.0110  -15.3340   20.2950 N   0  0  0  0  0  0  0  0  0  0  0  0
  -25.2590  -15.9750   20.5180 H   0  0  0  0  0  0  0  0  0  0  0  0
  -26.8190  -15.7920   19.8930 H   0  0  0  0  0  0  0  0  0  0  0  0
  -28.4550  -25.4970   20.0230 O   0  0  0  0  0  0  0  0  0  0  0  0
  -24.9390  -31.8000   23.2790 C   0  0  0  0  0  0  0  0  0  0  0  0
  -27.5150  -26.7840   20.0720 C   0  0  0  0  0  0  0  0  0  0  0  0
  -23.7980  -30.5100   21.5280 C   0  0  0  0  0  3  0  0  0  0  0  0
  -25.2780  -28.9170   20.0660 C   0  0  0  0  0  0  0  0  0  0  0  0
  -26.3830  -30.6010   21.5070 C   0  0  0  0  0  2  0  0  0  0  0  0
  -26.4550  -29.1940   20.7730 C   0  0  0  0  0  0  0  0  0  0  0  0
  -27.5500  -28.1600   20.7490 C   0  0  0  0  0  3  0  0  0  0  0  0
  -26.3220  -26.7760   19.2930 C   0  0  0  0  0  3  0  0  0  0  0  0
  -25.2590  -27.7360   19.3050 C   0  0  0  0  0  3  0  0  0  0  0  0
  -24.0800  -29.8860   20.1290 C   0  0  0  0  0  2  0  0  0  0  0  0
  -25.0640  -31.0030   22.1590 N   0  0  0  0  0  0  0  0  0  0  0  0
  -23.8310  -32.0810   23.7690 O   0  0  0  0  0  0  0  0  0  0  0  0
  -23.0380  -29.4890   22.4210 C   0  0  0  0  0  0  0  0  0  0  0  0
  -21.7060  -29.3630   22.2560 N   0  0  0  0  0  0  0  0  0  0  0  0
  -23.6630  -28.8080   23.2370 O   0  0  0  0  0  0  0  0  0  0  0  0
  -21.2510  -29.9660   21.5860 H   0  0  0  0  0  0  0  0  0  0  0  0
  -18.2830  -28.2080   22.6930 C   0  0  0  0  0  0  0  0  0  0  0  0
  -20.8550  -28.3820   22.9410 C   0  0  0  0  0  3  0  0  0  0  0  0
  -20.9100  -27.0090   22.2260 C   0  0  0  0  0  2  0  0  0  0  0  0
  -19.7800  -26.8100   21.2110 C   0  0  0  0  0  2  0  0  0  0  0  0
  -18.4160  -26.9220   21.8950 C   0  0  0  0  0  2  0  0  0  0  0  0
  -19.4280  -28.9000   23.1730 C   0  0  0  0  0  0  0  0  0  0  0  0
  -19.2470  -30.1020   23.8920 C   0  0  0  0  0  3  0  0  0  0  0  0
  -17.9570  -30.6140   24.1270 C   0  0  0  0  0  3  0  0  0  0  0  0
  -16.8270  -29.9190   23.6550 C   0  0  0  0  0  3  0  0  0  0  0  0
  -16.9920  -28.7170   22.9460 C   0  0  0  0  0  3  0  0  0  0  0  0
  -26.1800  -32.4110   23.9960 C   0  0  0  0  0  3  0  0  0  0  0  0
  -25.8690  -33.8090   24.3570 N   0  0  0  0  0  0  0  0  0  0  0  0
  -26.2170  -34.8900   23.6450 C   0  0  0  0  0  0  0  0  0  0  0  0
  -26.8890  -34.8130   22.6140 O   0  0  0  0  0  0  0  0  0  0  0  0
  -25.2700  -33.9420   25.1590 H   0  0  0  0  0  0  0  0  0  0  0  0
  -24.4940  -36.7130   23.3850 C   0  0  0  0  0  1  0  0  0  0  0  0
  -25.7510  -36.2730   24.1520 C   0  0  0  0  0  3  0  0  0  0  0  0
  -27.9040  -37.1420   24.9620 C   0  0  0  0  0  1  0  0  0  0  0  0
  -26.7880  -37.3240   24.0380 N   0  0  0  0  0  0  0  0  0  0  0  0
  -26.3880  -38.2440   24.2020 H   0  0  0  0  0  0  0  0  0  0  0  0
  -26.5960  -31.6110   25.2930 C   0  0  1  0  0  0  0  0  0  0  0  0
  -25.4320  -31.3760   26.2860 C   0  0  0  0  0  1  0  0  0  0  0  0
  -27.1800  -30.2270   24.9320 C   0  0  0  0  0  1  0  0  0  0  0  0
  -27.7150  -32.3710   26.0420 C   0  0  0  0  0  1  0  0  0  0  0  0
  1  3  2  0
  1  6  1  0
  2  5  1  0
  3  4  1  0
  4  7  1  0
  4  2  2  0
  5  8  1  0
  6 47  1  0
  6  5  2  0
  9 10  2  0
  9  3  1  0
 11 17  1  0
 11 10  1  0
 12 17  1  0
 13 14  1  0
 13 12  1  0
 15 14  1  0
 15 22  1  0
 15 16  1  0
 17 16  1  0
 18 11  2  0
 19 20  2  0
 20 39  1  0
 21 20  1  0
 21 24  1  0
 22 23  1  0
 22 19  1  0
 23 21  2  0
 24 25  1  0
 25 26  2  0
 27 30  1  0
 27 26  1  0
 28 27  2  0
 29 28  1  0
 29 24  2  0
 30 31  1  0
 31 36  2  0
 31 32  1  0
 32 33  2  0
 33 34  1  0
 34 38  1  0
 35 34  2  0
 36 35  1  0
 37 36  1  0
 39 40  1  0
 40 43  1  0
 40 42  1  0
 41 39  2  0
 44 19  1  0
 44 45  1  0
 46 44  1  0
 47 49  1  0
 48 59  2  0
 49 54  1  0
 50 58  1  0
 50 60  1  0
 51 57  1  0
 51 53  1  0
 52 58  1  0
 53 52  1  0
 54 53  2  0
 55 56  1  0
 55 49  2  0
 56 51  2  0
 57 50  1  0
 58 48  1  0
 60 62  2  0
 61 60  1  0
 63 61  1  0
 64 73  2  0
 64 69  1  0
 65 61  1  0
 65 69  1  0
 66 65  1  0
 67 68  1  0
 67 66  1  0
 68 64  1  0
 69 70  2  0
 70 71  1  0
 72 71  2  0
 73 72  1  0
 74 48  1  0
 74 75  1  0
 74 84  1  0
 75 78  1  0
 76 80  1  0
 76 75  1  0
 77 76  2  0
 80 79  1  0
 82 80  1  0
 82 83  1  0
 82 81  1  0
 84 87  1  1
 84 85  1  0
 86 84  1  0
M  ISO  4   6 101  10 100  11 100  47 101
M  END
>  <TORSDO>  (10) 
F 17

>  <SCORE>  (10) 
-13.973

>  <name>  (10) 
9

>  <ligand_id>  (10) 
9

>  <original_smiles>  (10) 
[H]C(C(=O)N1C([H])([H])C([H])([H])C([H])([H])C([H])(n2nc(-c3c([H])c([H])c(Oc4c([H])c([H])c(F)c([H])c4F)c([H])c3[H])c(C(=O)N([H])[H])c2N([H])[H])C1([H])[H])=C([H])c1c([H])c(Oc2c([H])c([H])c3c(c2[H])C([H])([H])N(C(=O)C([H])(N([H])C(=O)C([H])(N([H])C([H])([H])[H])C([H])([H])[H])C(C([H])([H])[H])(C([H])([H])[H])C([H])([H])[H])C([H])(C(=O)N([H])C2([H])c4c([H])c([H])c([H])c([H])c4C([H])([H])C([H])([H])C2([H])[H])C3([H])[H])c(C([H])([H])[H])c([H])c1C([H])([H])[H]

>  <smiles>  (10) 
[H]C(C(=O)N1C([H])([H])C([H])([H])C([H])([H])C([H])(n2nc(-c3c([H])c([H])c(Oc4c([H])c([H])c(F)c([H])c4F)c([H])c3[H])c(C(=O)N([H])[H])c2N([H])[H])C1([H])[H])=C([H])c1c([H])c(Oc2c([H])c([H])c3c(c2[H])C([H])([H])N(C(=O)C([H])(N([H])C(=O)C([H])(N([H])C([H])([H])[H])C([H])([H])[H])C(C([H])([H])[H])(C([H])([H])[H])C([H])([H])[H])C([H])(C(=O)N([H])C2([H])c4c([H])c([H])c([H])c([H])c4C([H])([H])C([H])([H])C2([H])[H])C3([H])[H])c(C([H])([H])[H])c([H])c1C([H])([H])[H]

$$$$
10:0:0
     RDKit          3D

 92100  0  0  1  0  0  0  0  0999 V2000
  -29.5880  -24.2680   16.8830 C   0  0  0  0  0  3  0  0  0  0  0  0
  -29.4760  -25.6550   16.6770 C   0  0  0  0  0  3  0  0  0  0  0  0
  -28.8890  -24.5550   19.1940 C   0  0  0  0  0  3  0  0  0  0  0  0
  -29.2870  -23.6940   18.1390 C   0  0  0  0  0  0  0  0  0  0  0  0
  -29.0800  -26.5060   17.7280 C   0  0  0  0  0  0  0  0  0  0  0  0
  -28.7800  -25.9540   18.9980 C   0  0  0  0  0  0  0  0  0  0  0  0
  -28.9970  -28.0010   17.4760 C   0  0  0  0  0  1  0  0  0  0  0  0
  -29.4380  -22.2110   18.3150 C   0  0  0  0  0  0  0  0  0  0  0  0
  -30.0930  -21.5150   17.5320 O   0  0  0  0  0  0  0  0  0  0  0  0
  -28.6920  -21.5450   19.4840 C   0  0  0  0  0  2  0  0  0  0  0  0
  -28.6210  -19.9910   19.4630 C   0  0  0  0  0  2  0  0  0  0  0  0
  -29.7690  -19.2480   20.1850 C   0  0  0  0  0  2  0  0  0  0  0  0
  -29.5270  -17.7210   20.2640 C   0  0  0  0  0  2  0  0  0  0  0  0
  -30.4630  -16.9820   21.2480 C   0  0  0  0  0  2  0  0  0  0  0  0
  -30.0550  -15.5080   21.5230 C   0  0  0  0  0  2  0  0  0  0  0  0
  -30.6600  -14.4320   20.5940 C   0  0  0  0  0  0  0  0  0  0  0  0
  -30.3600  -12.3240   19.3300 C   0  0  0  0  0  2  0  0  0  0  0  0
  -29.4070  -12.5550   18.1410 C   0  0  0  0  0  2  0  0  0  0  0  0
  -27.9320  -12.4290   18.5760 C   0  0  0  0  0  2  0  0  0  0  0  0
  -27.6130  -13.2320   19.8650 C   0  0  0  0  0  3  0  0  0  0  0  0
  -28.6680  -12.9380   20.9550 C   0  0  0  0  0  2  0  0  0  0  0  0
  -29.9900  -13.2660   20.3950 N   0  0  0  0  0  0  0  0  0  0  0  0
  -31.7360  -14.6700   20.0330 O   0  0  0  0  0  0  0  0  0  0  0  0
  -25.2070  -13.8530   20.5490 C   0  0  0  0  0  0  0  0  0  0  0  0
  -24.1350  -13.0840   20.9160 C   0  0  0  0  0  0  0  0  0  0  0  0
  -24.5940  -11.7320   20.8950 C   0  0  0  0  0  0  0  0  0  0  0  0
  -26.2540  -12.9680   20.3330 N   0  0  0  0  0  0  0  0  0  0  0  0
  -25.8860  -11.6880   20.5950 N   0  0  0  0  0  0  0  0  0  0  0  0
  -23.8650  -10.4730   21.0860 C   0  0  0  0  0  0  0  0  0  0  0  0
  -24.3090   -9.4960   22.0040 C   0  0  0  0  0  3  0  0  0  0  0  0
  -23.5820   -8.3010   22.1850 C   0  0  0  0  0  3  0  0  0  0  0  0
  -22.3970   -8.0720   21.4450 C   0  0  0  0  0  0  0  0  0  0  0  0
  -21.9730   -9.0380   20.5150 C   0  0  0  0  0  3  0  0  0  0  0  0
  -22.7000  -10.2250   20.3340 C   0  0  0  0  0  3  0  0  0  0  0  0
  -21.6390   -6.9310   21.5350 O   0  0  0  0  0  0  0  0  0  0  0  0
  -21.6220   -6.1660   22.6740 C   0  0  0  0  0  0  0  0  0  0  0  0
  -21.2520   -6.7040   23.9250 C   0  0  0  0  0  3  0  0  0  0  0  0
  -21.1800   -5.8680   25.0570 C   0  0  0  0  0  3  0  0  0  0  0  0
  -21.4690   -4.4950   24.9390 C   0  0  0  0  0  0  0  0  0  0  0  0
  -21.8330   -3.9570   23.6910 C   0  0  0  0  0  3  0  0  0  0  0  0
  -21.9040   -4.7900   22.5610 C   0  0  0  0  0  0  0  0  0  0  0  0
  -22.2340   -4.2620   21.3570 F   0  0  0  0  0  0  0  0  0  0  0  0
  -21.3930   -3.6900   26.0230 F   0  0  0  0  0  0  0  0  0  0  0  0
  -22.7370  -13.5630   21.1820 C   0  0  0  0  0  0  0  0  0  0  0  0
  -22.0060  -12.8720   22.0480 N   0  0  0  0  0  0  0  0  0  0  0  0
  -22.3000  -14.5860   20.6570 O   0  0  0  0  0  0  0  0  0  0  0  0
  -22.3760  -12.0460   22.4960 H   0  0  0  0  0  0  0  0  0  0  0  0
  -21.0670  -13.1720   22.2710 H   0  0  0  0  0  0  0  0  0  0  0  0
  -25.3710  -15.2230   20.3680 N   0  0  0  0  0  0  0  0  0  0  0  0
  -24.6010  -15.8750   20.4670 H   0  0  0  0  0  0  0  0  0  0  0  0
  -26.2250  -15.6640   20.0490 H   0  0  0  0  0  0  0  0  0  0  0  0
  -28.4480  -26.7580   20.0680 O   0  0  0  0  0  0  0  0  0  0  0  0
  -24.6410  -31.8880   23.1990 C   0  0  0  0  0  0  0  0  0  0  0  0
  -27.2630  -27.4630   20.0790 C   0  0  0  0  0  0  0  0  0  0  0  0
  -23.4140  -30.4800   21.5760 C   0  0  0  0  0  3  0  0  0  0  0  0
  -24.8530  -28.9400   20.1360 C   0  0  0  0  0  0  0  0  0  0  0  0
  -25.9330  -30.8510   21.3360 C   0  0  0  0  0  2  0  0  0  0  0  0
  -26.0160  -29.4760   20.7050 C   0  0  0  0  0  0  0  0  0  0  0  0
  -27.2210  -28.7410   20.6790 C   0  0  0  0  0  3  0  0  0  0  0  0
  -26.0810  -26.9270   19.5240 C   0  0  0  0  0  3  0  0  0  0  0  0
  -24.8780  -27.6620   19.5480 C   0  0  0  0  0  3  0  0  0  0  0  0
  -23.6040  -29.7890   20.1980 C   0  0  0  0  0  2  0  0  0  0  0  0
  -24.6820  -31.0870   22.0960 N   0  0  0  0  0  0  0  0  0  0  0  0
  -23.5670  -32.1590   23.7530 O   0  0  0  0  0  0  0  0  0  0  0  0
  -22.7780  -29.4620   22.5490 C   0  0  0  0  0  0  0  0  0  0  0  0
  -21.4530  -29.2760   22.4350 N   0  0  0  0  0  0  0  0  0  0  0  0
  -23.4720  -28.8420   23.3570 O   0  0  0  0  0  0  0  0  0  0  0  0
  -20.9540  -29.8260   21.7490 H   0  0  0  0  0  0  0  0  0  0  0  0
  -18.0890  -28.0710   22.9650 C   0  0  0  0  0  0  0  0  0  0  0  0
  -20.6470  -28.3390   23.2180 C   0  0  0  0  0  3  0  0  0  0  0  0
  -20.7520  -26.9070   22.6450 C   0  0  0  0  0  2  0  0  0  0  0  0
  -19.6430  -26.5750   21.6420 C   0  0  0  0  0  2  0  0  0  0  0  0
  -18.2650  -26.7200   22.2950 C   0  0  0  0  0  2  0  0  0  0  0  0
  -19.2080  -28.8380   23.3840 C   0  0  0  0  0  0  0  0  0  0  0  0
  -18.9900  -30.1030   23.9700 C   0  0  0  0  0  3  0  0  0  0  0  0
  -17.6860  -30.6030   24.1420 C   0  0  0  0  0  3  0  0  0  0  0  0
  -16.5810  -29.8340   23.7400 C   0  0  0  0  0  3  0  0  0  0  0  0
  -16.7830  -28.5680   23.1580 C   0  0  0  0  0  3  0  0  0  0  0  0
  -25.9340  -32.5210   23.8030 C   0  0  0  0  0  3  0  0  0  0  0  0
  -25.6240  -33.9140   24.1520 N   0  0  0  0  0  0  0  0  0  0  0  0
  -25.9470  -34.9750   23.4000 C   0  0  0  0  0  0  0  0  0  0  0  0
  -26.6080  -34.8840   22.3620 O   0  0  0  0  0  0  0  0  0  0  0  0
  -25.0320  -34.0590   24.9570 H   0  0  0  0  0  0  0  0  0  0  0  0
  -24.2130  -36.7640   23.0730 C   0  0  0  0  0  1  0  0  0  0  0  0
  -25.4590  -36.3570   23.8730 C   0  0  0  0  0  3  0  0  0  0  0  0
  -27.5990  -37.2340   24.6980 C   0  0  0  0  0  1  0  0  0  0  0  0
  -26.4890  -37.4140   23.7660 N   0  0  0  0  0  0  0  0  0  0  0  0
  -26.0830  -38.3320   23.9290 H   0  0  0  0  0  0  0  0  0  0  0  0
  -26.4800  -31.7380   25.0590 C   0  0  1  0  0  0  0  0  0  0  0  0
  -25.4080  -31.4840   26.1450 C   0  0  0  0  0  1  0  0  0  0  0  0
  -27.0590  -30.3680   24.6380 C   0  0  0  0  0  1  0  0  0  0  0  0
  -27.6420  -32.5290   25.7060 C   0  0  0  0  0  1  0  0  0  0  0  0
  1  4  1  0
  2  1  2  0
  2  5  1  0
  4  8  1  0
  4  3  2  0
  5  6  2  0
  6  3  1  0
  6 52  1  0
  7  5  1  0
  8 10  1  0
  9  8  2  0
 11 10  1  0
 11 12  1  0
 12 13  1  0
 13 14  1  0
 14 15  1  0
 16 15  1  0
 17 22  1  0
 18 19  1  0
 18 17  1  0
 20 19  1  0
 20 27  1  0
 20 21  1  0
 22 16  1  0
 22 21  1  0
 23 16  2  0
 24 25  2  0
 25 44  1  0
 26 25  1  0
 26 29  1  0
 27 24  1  0
 27 28  1  0
 28 26  2  0
 29 30  1  0
 30 31  2  0
 32 35  1  0
 32 31  1  0
 33 32  2  0
 34 33  1  0
 34 29  2  0
 35 36  1  0
 36 37  1  0
 37 38  2  0
 39 38  1  0
 39 43  1  0
 40 39  2  0
 41 36  2  0
 41 40  1  0
 42 41  1  0
 44 45  1  0
 45 48  1  0
 45 47  1  0
 46 44  2  0
 49 50  1  0
 49 24  1  0
 51 49  1  0
 52 54  1  0
 53 64  2  0
 54 59  1  0
 55 63  1  0
 55 65  1  0
 56 62  1  0
 56 58  1  0
 57 63  1  0
 58 57  1  0
 59 58  2  0
 60 61  1  0
 60 54  2  0
 61 56  2  0
 62 55  1  0
 63 53  1  0
 65 67  2  0
 66 65  1  0
 68 66  1  0
 69 78  2  0
 69 74  1  0
 70 66  1  0
 70 74  1  0
 71 70  1  0
 72 73  1  0
 72 71  1  0
 73 69  1  0
 74 75  2  0
 75 76  1  0
 77 76  2  0
 78 77  1  0
 79 53  1  0
 79 80  1  0
 79 89  1  0
 80 83  1  0
 81 85  1  0
 81 80  1  0
 82 81  2  0
 85 84  1  0
 87 85  1  0
 87 88  1  0
 87 86  1  0
 89 92  1  1
 89 90  1  0
 91 89  1  0
M  ISO  4   6 101  15 100  16 100  52 101
M  END
>  <TORSDO>  (11) 
F 23

>  <SCORE>  (11) 
-12.621

>  <name>  (11) 
10

>  <ligand_id>  (11) 
10

>  <original_smiles>  (11) 
[H]c1c([H])c([H])c2c(c1[H])C([H])([H])C([H])([H])C([H])([H])C2([H])N([H])C(=O)C1([H])N(C(=O)C([H])(N([H])C(=O)C([H])(N([H])C([H])([H])[H])C([H])([H])[H])C(C([H])([H])[H])(C([H])([H])[H])C([H])([H])[H])C([H])([H])c2c([H])c(Oc3c([H])c(C(=O)C([H])([H])C([H])([H])C([H])([H])C([H])([H])C([H])([H])C([H])([H])C(=O)N4C([H])([H])C([H])([H])C([H])([H])C([H])(n5nc(-c6c([H])c([H])c(Oc7c([H])c([H])c(F)c([H])c7F)c([H])c6[H])c(C(=O)N([H])[H])c5N([H])[H])C4([H])[H])c([H])c([H])c3C([H])([H])[H])c([H])c([H])c2C1([H])[H]

>  <smiles>  (11) 
[H]c1c([H])c([H])c2c(c1[H])C([H])([H])C([H])([H])C([H])([H])C2([H])N([H])C(=O)C1([H])N(C(=O)C([H])(N([H])C(=O)C([H])(N([H])C([H])([H])[H])C([H])([H])[H])C(C([H])([H])[H])(C([H])([H])[H])C([H])([H])[H])C([H])([H])c2c([H])c(Oc3c([H])c(C(=O)C([H])([H])C([H])([H])C([H])([H])C([H])([H])C([H])([H])C([H])([H])C(=O)N4C([H])([H])C([H])([H])C([H])([H])C([H])(n5nc(-c6c([H])c([H])c(Oc7c([H])c([H])c(F)c([H])c7F)c([H])c6[H])c(C(=O)N([H])[H])c5N([H])[H])C4([H])[H])c([H])c([H])c3C([H])([H])[H])c([H])c([H])c2C1([H])[H]

$$$$
11:0:0
     RDKit          3D

 92100  0  0  1  0  0  0  0  0999 V2000
  -29.1420  -21.2270   21.7550 C   0  0  0  0  0  3  0  0  0  0  0  0
  -29.7370  -20.2320   22.5500 C   0  0  0  0  0  3  0  0  0  0  0  0
  -29.4340  -19.7760   19.8350 C   0  0  0  0  0  3  0  0  0  0  0  0
  -30.0120  -18.7000   20.6250 C   0  0  0  0  0  0  0  0  0  0  0  0
  -28.9970  -21.0530   20.3620 C   0  0  0  0  0  0  0  0  0  0  0  0
  -30.1770  -19.0020   22.0090 C   0  0  0  0  0  0  0  0  0  0  0  0
  -30.8390  -18.0400   22.9820 C   0  0  0  0  0  1  0  0  0  0  0  0
  -30.4510  -16.0500   20.4580 C   0  0  0  0  0  3  0  0  0  0  0  0
  -30.4630  -17.3590   19.9740 C   0  0  0  0  0  0  0  0  0  0  0  0
  -31.0560  -14.8530   19.7690 C   0  0  0  0  0  0  0  0  0  0  0  0
  -30.6410  -12.6560   18.6650 C   0  0  0  0  0  2  0  0  0  0  0  0
  -29.6340  -12.8730   17.5130 C   0  0  0  0  0  2  0  0  0  0  0  0
  -28.1950  -12.7100   18.0450 C   0  0  0  0  0  2  0  0  0  0  0  0
  -27.9490  -13.5630   19.3200 C   0  0  0  0  0  3  0  0  0  0  0  0
  -29.0720  -13.3600   20.3570 C   0  0  0  0  0  2  0  0  0  0  0  0
  -30.3520  -13.6710   19.7060 N   0  0  0  0  0  0  0  0  0  0  0  0
  -32.1530  -14.9050   19.2050 O   0  0  0  0  0  0  0  0  0  0  0  0
  -25.6620  -14.2230   20.2800 C   0  0  0  0  0  0  0  0  0  0  0  0
  -24.5940  -13.4780   20.7020 C   0  0  0  0  0  0  0  0  0  0  0  0
  -24.9910  -12.1130   20.5740 C   0  0  0  0  0  0  0  0  0  0  0  0
  -26.6360  -13.3120   19.9040 N   0  0  0  0  0  0  0  0  0  0  0  0
  -26.2420  -12.0350   20.1400 N   0  0  0  0  0  0  0  0  0  0  0  0
  -24.2310  -10.8730   20.7760 C   0  0  0  0  0  0  0  0  0  0  0  0
  -24.6400   -9.8990   21.7110 C   0  0  0  0  0  3  0  0  0  0  0  0
  -23.8810   -8.7240   21.8990 C   0  0  0  0  0  3  0  0  0  0  0  0
  -22.6970   -8.5200   21.1520 C   0  0  0  0  0  0  0  0  0  0  0  0
  -22.3070   -9.4820   20.2040 C   0  0  0  0  0  3  0  0  0  0  0  0
  -23.0670  -10.6480   20.0160 C   0  0  0  0  0  3  0  0  0  0  0  0
  -21.9050   -7.4040   21.2500 O   0  0  0  0  0  0  0  0  0  0  0  0
  -21.7420   -6.7410   22.4390 C   0  0  0  0  0  0  0  0  0  0  0  0
  -21.2320   -7.3820   23.5880 C   0  0  0  0  0  3  0  0  0  0  0  0
  -21.0180   -6.6430   24.7690 C   0  0  0  0  0  3  0  0  0  0  0  0
  -21.2980   -5.2630   24.8000 C   0  0  0  0  0  0  0  0  0  0  0  0
  -21.7940   -4.6220   23.6530 C   0  0  0  0  0  3  0  0  0  0  0  0
  -22.0130   -5.3580   22.4760 C   0  0  0  0  0  0  0  0  0  0  0  0
  -22.4750   -4.7300   21.3680 F   0  0  0  0  0  0  0  0  0  0  0  0
  -21.0840   -4.5520   25.9330 F   0  0  0  0  0  0  0  0  0  0  0  0
  -23.2480  -14.0030   21.1150 C   0  0  0  0  0  0  0  0  0  0  0  0
  -22.5790  -13.3180   22.0370 N   0  0  0  0  0  0  0  0  0  0  0  0
  -22.8030  -15.0550   20.6570 O   0  0  0  0  0  0  0  0  0  0  0  0
  -22.9570  -12.4690   22.4270 H   0  0  0  0  0  0  0  0  0  0  0  0
  -21.6720  -13.6390   22.3440 H   0  0  0  0  0  0  0  0  0  0  0  0
  -25.8770  -15.5930   20.1640 N   0  0  0  0  0  0  0  0  0  0  0  0
  -25.1590  -16.2670   20.4070 H   0  0  0  0  0  0  0  0  0  0  0  0
  -26.7240  -16.0190   19.8030 H   0  0  0  0  0  0  0  0  0  0  0  0
  -30.9720  -17.5810   18.7540 O   0  0  0  0  0  0  0  0  0  0  0  0
  -30.8960  -18.5110   18.5690 H   0  0  0  0  0  0  0  0  0  0  0  0
  -28.0840  -21.7880   18.0520 C   0  0  0  0  0  1  0  0  0  0  0  0
  -28.2610  -22.1930   19.5330 C   0  0  0  0  0  3  0  0  0  0  0  0
  -28.7570  -23.7310   19.6430 C   0  0  0  0  0  3  0  0  0  0  0  0
  -27.7170  -24.8700   19.2060 C   0  0  0  0  0  3  0  0  0  0  0  0
  -27.9930  -26.3330   19.3680 O   0  0  0  0  0  0  0  0  0  0  0  0
  -24.5910  -31.5890   23.0410 C   0  0  0  0  0  0  0  0  0  0  0  0
  -26.8980  -27.2210   19.4570 C   0  0  0  0  0  0  0  0  0  0  0  0
  -23.2460  -30.2880   21.4320 C   0  0  0  0  0  3  0  0  0  0  0  0
  -24.5540  -28.8450   19.7760 C   0  0  0  0  0  0  0  0  0  0  0  0
  -25.7640  -30.6190   21.0470 C   0  0  0  0  0  2  0  0  0  0  0  0
  -25.7760  -29.2790   20.3140 C   0  0  0  0  0  0  0  0  0  0  0  0
  -26.9470  -28.4750   20.1520 C   0  0  0  0  0  3  0  0  0  0  0  0
  -25.6630  -26.8860   18.8630 C   0  0  0  0  0  3  0  0  0  0  0  0
  -24.5010  -27.6570   19.0380 C   0  0  0  0  0  3  0  0  0  0  0  0
  -23.3330  -29.7160   19.9950 C   0  0  0  0  0  2  0  0  0  0  0  0
  -24.5580  -30.8500   21.8920 N   0  0  0  0  0  0  0  0  0  0  0  0
  -23.5590  -31.8240   23.6880 O   0  0  0  0  0  0  0  0  0  0  0  0
  -22.6770  -29.2030   22.3780 C   0  0  0  0  0  0  0  0  0  0  0  0
  -21.3730  -28.9050   22.2410 N   0  0  0  0  0  0  0  0  0  0  0  0
  -23.4090  -28.6360   23.1930 O   0  0  0  0  0  0  0  0  0  0  0  0
  -20.8500  -29.4020   21.5360 H   0  0  0  0  0  0  0  0  0  0  0  0
  -18.1270  -27.3450   22.6870 C   0  0  0  0  0  0  0  0  0  0  0  0
  -20.6280  -27.9080   23.0140 C   0  0  0  0  0  3  0  0  0  0  0  0
  -20.9160  -26.4790   22.5110 C   0  0  0  0  0  2  0  0  0  0  0  0
  -19.8880  -25.9710   21.4880 C   0  0  0  0  0  2  0  0  0  0  0  0
  -18.4730  -25.9990   22.0780 C   0  0  0  0  0  2  0  0  0  0  0  0
  -19.1380  -28.2480   23.1120 C   0  0  0  0  0  0  0  0  0  0  0  0
  -18.7530  -29.4970   23.6510 C   0  0  0  0  0  3  0  0  0  0  0  0
  -17.3950  -29.8490   23.7670 C   0  0  0  0  0  3  0  0  0  0  0  0
  -16.3990  -28.9460   23.3530 C   0  0  0  0  0  3  0  0  0  0  0  0
  -16.7690  -27.6970   22.8190 C   0  0  0  0  0  3  0  0  0  0  0  0
  -25.9220  -32.1880   23.5830 C   0  0  0  0  0  3  0  0  0  0  0  0
  -25.6400  -33.5570   24.0400 N   0  0  0  0  0  0  0  0  0  0  0  0
  -25.9260  -34.6680   23.3480 C   0  0  0  0  0  0  0  0  0  0  0  0
  -26.5270  -34.6490   22.2690 O   0  0  0  0  0  0  0  0  0  0  0  0
  -25.0910  -33.6450   24.8830 H   0  0  0  0  0  0  0  0  0  0  0  0
  -24.1830  -36.4810   23.2440 C   0  0  0  0  0  1  0  0  0  0  0  0
  -25.4730  -36.0150   23.9390 C   0  0  0  0  0  3  0  0  0  0  0  0
  -27.6610  -36.8370   24.6990 C   0  0  0  0  0  1  0  0  0  0  0  0
  -26.5030  -37.0750   23.8420 N   0  0  0  0  0  0  0  0  0  0  0  0
  -26.1090  -37.9810   24.0850 H   0  0  0  0  0  0  0  0  0  0  0  0
  -26.5640  -31.3340   24.7440 C   0  0  1  0  0  0  0  0  0  0  0  0
  -25.5780  -30.9940   25.8860 C   0  0  0  0  0  1  0  0  0  0  0  0
  -27.1220  -30.0000   24.1940 C   0  0  0  0  0  1  0  0  0  0  0  0
  -27.7580  -32.1040   25.3560 C   0  0  0  0  0  1  0  0  0  0  0  0
  1  2  1  0
  3  5  1  0
  3  4  2  0
  4  6  1  0
  5  1  2  0
  6  2  2  0
  6  7  1  0
  9  8  2  0
  9  4  1  0
 10  8  1  0
 11 16  1  0
 12 13  1  0
 12 11  1  0
 14 13  1  0
 14 21  1  0
 14 15  1  0
 16 10  1  0
 16 15  1  0
 17 10  2  0
 18 19  2  0
 19 38  1  0
 20 19  1  0
 20 23  1  0
 21 22  1  0
 21 18  1  0
 22 20  2  0
 23 24  1  0
 24 25  2  0
 26 29  1  0
 26 25  1  0
 27 26  2  0
 28 27  1  0
 28 23  2  0
 29 30  1  0
 30 35  2  0
 30 31  1  0
 31 32  2  0
 32 33  1  0
 33 37  1  0
 34 33  2  0
 35 34  1  0
 36 35  1  0
 38 39  1  0
 39 42  1  0
 39 41  1  0
 40 38  2  0
 43 18  1  0
 43 44  1  0
 45 43  1  0
 46  9  1  0
 47 46  1  0
 49 48  1  0
 49 50  1  0
 49  5  1  0
 51 52  1  0
 51 50  2  0
 52 54  1  0
 53 64  2  0
 54 59  1  0
 55 63  1  0
 55 65  1  0
 56 62  1  0
 56 58  1  0
 57 63  1  0
 58 57  1  0
 59 58  2  0
 60 61  1  0
 60 54  2  0
 61 56  2  0
 62 55  1  0
 63 53  1  0
 65 67  2  0
 66 65  1  0
 68 66  1  0
 69 78  2  0
 69 74  1  0
 70 66  1  0
 70 74  1  0
 71 70  1  0
 72 73  1  0
 72 71  1  0
 73 69  1  0
 74 75  2  0
 75 76  1  0
 77 76  2  0
 78 77  1  0
 79 53  1  0
 79 80  1  0
 79 89  1  0
 80 83  1  0
 81 85  1  0
 81 80  1  0
 82 81  2  0
 85 84  1  0
 87 85  1  0
 87 88  1  0
 87 86  1  0
 89 92  1  1
 89 90  1  0
 91 89  1  0
M  ISO  4   8 100  10 100  51 101  52 101
M  END
>  <TORSDO>  (12) 
F 21

>  <SCORE>  (12) 
-10.946

>  <name>  (12) 
11

>  <ligand_id>  (12) 
11

>  <original_smiles>  (12) 
[H]OC(=C([H])C(=O)N1C([H])([H])C([H])([H])C([H])([H])C([H])(n2nc(-c3c([H])c([H])c(Oc4c([H])c([H])c(F)c([H])c4F)c([H])c3[H])c(C(=O)N([H])[H])c2N([H])[H])C1([H])[H])c1c([H])c(C([H])(C([H])([H])[H])C([H])([H])C([H])([H])Oc2c([H])c([H])c3c(c2[H])C([H])([H])N(C(=O)C([H])(N([H])C(=O)C([H])(N([H])C([H])([H])[H])C([H])([H])[H])C(C([H])([H])[H])(C([H])([H])[H])C([H])([H])[H])C([H])(C(=O)N([H])C2([H])c4c([H])c([H])c([H])c([H])c4C([H])([H])C([H])([H])C2([H])[H])C3([H])[H])c([H])c([H])c1C([H])([H])[H]

>  <smiles>  (12) 
[H]OC(=C([H])C(=O)N1C([H])([H])C([H])([H])C([H])([H])C([H])(n2nc(-c3c([H])c([H])c(Oc4c([H])c([H])c(F)c([H])c4F)c([H])c3[H])c(C(=O)N([H])[H])c2N([H])[H])C1([H])[H])c1c([H])c(C([H])(C([H])([H])[H])C([H])([H])C([H])([H])Oc2c([H])c([H])c3c(c2[H])C([H])([H])N(C(=O)C([H])(N([H])C(=O)C([H])(N([H])C([H])([H])[H])C([H])([H])[H])C(C([H])([H])[H])(C([H])([H])[H])C([H])([H])[H])C([H])(C(=O)N([H])C2([H])c4c([H])c([H])c([H])c([H])c4C([H])([H])C([H])([H])C2([H])[H])C3([H])[H])c([H])c([H])c1C([H])([H])[H]

$$$$
12:0:0
     RDKit          3D

 91 99  0  0  1  0  0  0  0  0999 V2000
  -27.7710  -22.7900   17.9680 C   0  0  0  0  0  3  0  0  0  0  0  0
  -28.3340  -21.6680   18.6360 C   0  0  0  0  0  3  0  0  0  0  0  0
  -27.7880  -24.1260   18.4590 C   0  0  0  0  0  3  0  0  0  0  0  0
  -28.9590  -23.2400   20.3540 C   0  0  0  0  0  3  0  0  0  0  0  0
  -28.9960  -21.7620   19.8780 C   0  0  0  0  0  0  0  0  0  0  0  0
  -28.3490  -24.5020   19.7010 C   0  0  0  0  0  0  0  0  0  0  0  0
  -30.1080  -20.5540   21.7520 C   0  0  0  0  0  3  0  0  0  0  0  0
  -29.6430  -20.3120   20.5070 C   0  0  0  0  0  0  0  0  0  0  0  0
  -30.9480  -19.6630   22.6440 C   0  0  0  0  0  2  0  0  0  0  0  0
  -30.1760  -19.0890   23.8410 C   0  0  0  0  0  2  0  0  0  0  0  0
  -30.4080  -17.9330   26.1170 C   0  0  0  0  0  1  0  0  0  0  0  0
  -31.1290  -18.4810   24.8810 C   0  0  0  0  0  2  0  0  0  0  0  0
  -29.9060  -18.6970   19.8590 C   0  0  0  0  0  2  0  0  0  0  0  0
  -29.9000  -17.0240   20.5670 C   0  0  0  0  0  2  0  0  0  0  0  0
  -30.6570  -15.4760   20.1910 C   0  0  0  0  0  0  0  0  0  0  0  0
  -30.6620  -13.0060   19.3620 C   0  0  0  0  0  2  0  0  0  0  0  0
  -29.7640  -12.7970   18.1140 C   0  0  0  0  0  2  0  0  0  0  0  0
  -28.3080  -12.5300   18.5290 C   0  0  0  0  0  2  0  0  0  0  0  0
  -27.8380  -13.5120   19.6310 C   0  0  0  0  0  3  0  0  0  0  0  0
  -28.8620  -13.6700   20.7750 C   0  0  0  0  0  2  0  0  0  0  0  0
  -30.1180  -14.1550   20.1790 N   0  0  0  0  0  0  0  0  0  0  0  0
  -31.8550  -15.4740   19.8730 O   0  0  0  0  0  0  0  0  0  0  0  0
  -25.4470  -14.0770   20.3110 C   0  0  0  0  0  0  0  0  0  0  0  0
  -24.3790  -13.3040   20.6760 C   0  0  0  0  0  0  0  0  0  0  0  0
  -24.8540  -11.9560   20.6970 C   0  0  0  0  0  0  0  0  0  0  0  0
  -26.4990  -13.2010   20.1170 N   0  0  0  0  0  0  0  0  0  0  0  0
  -26.1530  -11.9220   20.4170 N   0  0  0  0  0  0  0  0  0  0  0  0
  -24.1270  -10.6960   20.9070 C   0  0  0  0  0  0  0  0  0  0  0  0
  -24.5450   -9.7550   21.8740 C   0  0  0  0  0  3  0  0  0  0  0  0
  -23.8160   -8.5620   22.0720 C   0  0  0  0  0  3  0  0  0  0  0  0
  -22.6570   -8.3020   21.3030 C   0  0  0  0  0  0  0  0  0  0  0  0
  -22.2580   -9.2320   20.3280 C   0  0  0  0  0  3  0  0  0  0  0  0
  -22.9870  -10.4170   20.1280 C   0  0  0  0  0  3  0  0  0  0  0  0
  -21.9030   -7.1580   21.4090 O   0  0  0  0  0  0  0  0  0  0  0  0
  -21.8300   -6.4490   22.5810 C   0  0  0  0  0  0  0  0  0  0  0  0
  -21.3990   -7.0430   23.7870 C   0  0  0  0  0  3  0  0  0  0  0  0
  -21.2730   -6.2600   24.9520 C   0  0  0  0  0  3  0  0  0  0  0  0
  -21.5690   -4.8850   24.9120 C   0  0  0  0  0  0  0  0  0  0  0  0
  -21.9920   -4.2890   23.7110 C   0  0  0  0  0  3  0  0  0  0  0  0
  -22.1200   -5.0690   22.5480 C   0  0  0  0  0  0  0  0  0  0  0  0
  -22.5100   -4.4870   21.3880 F   0  0  0  0  0  0  0  0  0  0  0  0
  -21.4400   -4.1310   26.0290 F   0  0  0  0  0  0  0  0  0  0  0  0
  -22.9740  -13.7820   20.8970 C   0  0  0  0  0  0  0  0  0  0  0  0
  -22.2340  -13.1230   21.7810 N   0  0  0  0  0  0  0  0  0  0  0  0
  -22.5410  -14.7790   20.3200 O   0  0  0  0  0  0  0  0  0  0  0  0
  -22.5950  -12.3170   22.2680 H   0  0  0  0  0  0  0  0  0  0  0  0
  -21.2910  -13.4310   21.9730 H   0  0  0  0  0  0  0  0  0  0  0  0
  -25.6030  -15.4420   20.1000 N   0  0  0  0  0  0  0  0  0  0  0  0
  -24.8270  -16.0910   20.1790 H   0  0  0  0  0  0  0  0  0  0  0  0
  -26.4580  -15.8840   19.7840 H   0  0  0  0  0  0  0  0  0  0  0  0
  -28.3750  -26.0110   20.0290 O   0  0  0  0  0  0  0  0  0  0  0  0
  -24.7730  -31.8700   23.1540 C   0  0  0  0  0  0  0  0  0  0  0  0
  -27.3400  -27.0920   19.9720 C   0  0  0  0  0  0  0  0  0  0  0  0
  -23.5710  -30.5040   21.4960 C   0  0  0  0  0  3  0  0  0  0  0  0
  -25.0160  -28.9530   20.0120 C   0  0  0  0  0  0  0  0  0  0  0  0
  -26.1340  -30.7430   21.3240 C   0  0  0  0  0  2  0  0  0  0  0  0
  -26.2090  -29.3520   20.6280 C   0  0  0  0  0  0  0  0  0  0  0  0
  -27.3600  -28.4430   20.5850 C   0  0  0  0  0  3  0  0  0  0  0  0
  -26.1070  -26.8460   19.3250 C   0  0  0  0  0  3  0  0  0  0  0  0
  -24.9900  -27.7210   19.3420 C   0  0  0  0  0  3  0  0  0  0  0  0
  -23.7890  -29.8590   20.1000 C   0  0  0  0  0  2  0  0  0  0  0  0
  -24.8480  -31.0670   22.0450 N   0  0  0  0  0  0  0  0  0  0  0  0
  -23.6880  -32.1350   23.6980 O   0  0  0  0  0  0  0  0  0  0  0  0
  -22.8990  -29.4780   22.4450 C   0  0  0  0  0  0  0  0  0  0  0  0
  -21.5630  -29.3340   22.3600 N   0  0  0  0  0  0  0  0  0  0  0  0
  -23.5860  -28.8130   23.2240 O   0  0  0  0  0  0  0  0  0  0  0  0
  -21.0620  -29.9220   21.7090 H   0  0  0  0  0  0  0  0  0  0  0  0
  -18.1870  -28.1450   22.9500 C   0  0  0  0  0  0  0  0  0  0  0  0
  -20.7580  -28.3730   23.1230 C   0  0  0  0  0  3  0  0  0  0  0  0
  -20.8180  -26.9640   22.4870 C   0  0  0  0  0  2  0  0  0  0  0  0
  -19.6740  -26.6980   21.5020 C   0  0  0  0  0  2  0  0  0  0  0  0
  -18.3210  -26.8290   22.2040 C   0  0  0  0  0  2  0  0  0  0  0  0
  -19.3300  -28.8790   23.3670 C   0  0  0  0  0  0  0  0  0  0  0  0
  -19.1480  -30.1120   24.0270 C   0  0  0  0  0  3  0  0  0  0  0  0
  -17.8550  -30.6140   24.2730 C   0  0  0  0  0  3  0  0  0  0  0  0
  -16.7280  -29.8790   23.8710 C   0  0  0  0  0  3  0  0  0  0  0  0
  -16.8940  -28.6450   23.2160 C   0  0  0  0  0  3  0  0  0  0  0  0
  -26.0470  -32.5120   23.7850 C   0  0  0  0  0  3  0  0  0  0  0  0
  -25.7120  -33.8930   24.1740 N   0  0  0  0  0  0  0  0  0  0  0  0
  -26.0330  -34.9900   23.4750 C   0  0  0  0  0  0  0  0  0  0  0  0
  -26.7020  -34.9450   22.4400 O   0  0  0  0  0  0  0  0  0  0  0  0
  -25.1150  -33.9980   24.9820 H   0  0  0  0  0  0  0  0  0  0  0  0
  -24.2910  -36.7910   23.2140 C   0  0  0  0  0  1  0  0  0  0  0  0
  -25.5340  -36.3510   24.0030 C   0  0  0  0  0  3  0  0  0  0  0  0
  -27.6640  -37.2120   24.8750 C   0  0  0  0  0  1  0  0  0  0  0  0
  -26.5580  -37.4180   23.9430 N   0  0  0  0  0  0  0  0  0  0  0  0
  -26.1450  -38.3250   24.1400 H   0  0  0  0  0  0  0  0  0  0  0  0
  -26.5840  -31.7140   25.0370 C   0  0  1  0  0  0  0  0  0  0  0  0
  -25.5060  -31.4400   26.1140 C   0  0  0  0  0  1  0  0  0  0  0  0
  -27.1760  -30.3510   24.6120 C   0  0  0  0  0  1  0  0  0  0  0  0
  -27.7350  -32.5030   25.7050 C   0  0  0  0  0  1  0  0  0  0  0  0
  1  3  2  0
  1  2  1  0
  2  5  2  0
  3  6  1  0
  5  4  1  0
  5  8  1  0
  6 51  1  0
  6  4  2  0
  7  9  1  0
  8  7  2  0
  9 10  1  0
 10 12  1  0
 12 11  1  0
 13  8  1  0
 13 14  1  0
 15 14  1  0
 16 21  1  0
 17 18  1  0
 17 16  1  0
 19 18  1  0
 19 26  1  0
 19 20  1  0
 21 15  1  0
 21 20  1  0
 22 15  2  0
 23 24  2  0
 24 25  1  0
 24 43  1  0
 25 28  1  0
 26 23  1  0
 26 27  1  0
 27 25  2  0
 28 29  1  0
 29 30  2  0
 31 34  1  0
 31 30  1  0
 32 31  2  0
 33 32  1  0
 33 28  2  0
 34 35  1  0
 35 36  1  0
 36 37  2  0
 38 37  1  0
 38 42  1  0
 39 38  2  0
 40 35  2  0
 40 39  1  0
 41 40  1  0
 43 44  1  0
 44 47  1  0
 44 46  1  0
 45 43  2  0
 48 49  1  0
 48 23  1  0
 50 48  1  0
 52 63  2  0
 53 51  1  0
 53 58  1  0
 54 62  1  0
 54 64  1  0
 55 61  1  0
 55 57  1  0
 56 62  1  0
 57 56  1  0
 58 57  2  0
 59 60  1  0
 59 53  2  0
 60 55  2  0
 61 54  1  0
 62 52  1  0
 64 66  2  0
 65 64  1  0
 67 65  1  0
 68 77  2  0
 68 73  1  0
 69 65  1  0
 69 73  1  0
 70 69  1  0
 71 72  1  0
 71 70  1  0
 72 68  1  0
 73 74  2  0
 74 75  1  0
 76 75  2  0
 77 76  1  0
 78 52  1  0
 78 79  1  0
 78 88  1  0
 79 82  1  0
 80 84  1  0
 80 79  1  0
 81 80  2  0
 84 83  1  0
 86 84  1  0
 86 87  1  0
 86 85  1  0
 88 91  1  1
 88 89  1  0
 90 88  1  0
M  ISO  4   6 101  14 100  15 100  51 101
M  END
>  <TORSDO>  (13) 
F 22

>  <SCORE>  (13) 
-7.370

>  <name>  (13) 
12

>  <ligand_id>  (13) 
12

>  <original_smiles>  (13) 
[H]C(=C(c1c([H])c([H])c([H])c(Oc2c([H])c([H])c3c(c2[H])C([H])([H])N(C(=O)C([H])(N([H])C(=O)C([H])(N([H])C([H])([H])[H])C([H])([H])[H])C(C([H])([H])[H])(C([H])([H])[H])C([H])([H])[H])C([H])(C(=O)N([H])C2([H])c4c([H])c([H])c([H])c([H])c4C([H])([H])C([H])([H])C2([H])[H])C3([H])[H])c1[H])C([H])([H])C([H])([H])C(=O)N1C([H])([H])C([H])([H])C([H])([H])C([H])(n2nc(-c3c([H])c([H])c(Oc4c([H])c([H])c(F)c([H])c4F)c([H])c3[H])c(C(=O)N([H])[H])c2N([H])[H])C1([H])[H])C([H])([H])C([H])([H])C([H])([H])C([H])([H])[H]

>  <smiles>  (13) 
[H]C(=C(c1c([H])c([H])c([H])c(Oc2c([H])c([H])c3c(c2[H])C([H])([H])N(C(=O)C([H])(N([H])C(=O)C([H])(N([H])C([H])([H])[H])C([H])([H])[H])C(C([H])([H])[H])(C([H])([H])[H])C([H])([H])[H])C([H])(C(=O)N([H])C2([H])c4c([H])c([H])c([H])c([H])c4C([H])([H])C([H])([H])C2([H])[H])C3([H])[H])c1[H])C([H])([H])C([H])([H])C(=O)N1C([H])([H])C([H])([H])C([H])([H])C([H])(n2nc(-c3c([H])c([H])c(Oc4c([H])c([H])c(F)c([H])c4F)c([H])c3[H])c(C(=O)N([H])[H])c2N([H])[H])C1([H])[H])C([H])([H])C([H])([H])C([H])([H])C([H])([H])[H]

$$$$
13:0:0
     RDKit          3D

 94102  0  0  1  0  0  0  0  0999 V2000
  -27.4270  -24.9090   23.5760 C   0  0  0  0  0  3  0  0  0  0  0  0
  -28.3340  -23.8690   23.7250 C   0  0  0  0  0  3  0  0  0  0  0  0
  -27.3690  -25.5650   22.3480 C   0  0  0  0  0  3  0  0  0  0  0  0
  -29.0300  -23.3690   22.6110 C   0  0  0  0  0  0  0  0  0  0  0  0
  -28.6420  -23.7230   21.2720 C   0  0  0  0  0  0  0  0  0  0  0  0
  -28.0350  -25.1160   21.1700 C   0  0  0  0  0  0  0  0  0  0  0  0
  -31.0820  -23.0770   24.1190 C   0  0  0  0  0  1  0  0  0  0  0  0
  -30.2710  -22.5410   22.9230 C   0  0  0  0  0  2  0  0  0  0  0  0
  -28.1290  -26.1970   20.1880 O   0  0  0  0  0  0  0  0  0  0  0  0
  -24.5530  -31.9150   23.1220 C   0  0  0  0  0  0  0  0  0  0  0  0
  -27.1320  -27.2340   20.0910 C   0  0  0  0  0  0  0  0  0  0  0  0
  -23.3500  -30.5270   21.4730 C   0  0  0  0  0  3  0  0  0  0  0  0
  -24.8020  -28.9580   20.0470 C   0  0  0  0  0  0  0  0  0  0  0  0
  -25.9040  -30.7980   21.3120 C   0  0  0  0  0  2  0  0  0  0  0  0
  -25.9800  -29.4100   20.6610 C   0  0  0  0  0  0  0  0  0  0  0  0
  -27.1470  -28.5630   20.6720 C   0  0  0  0  0  3  0  0  0  0  0  0
  -25.9390  -26.8800   19.4290 C   0  0  0  0  0  3  0  0  0  0  0  0
  -24.7930  -27.7030   19.4170 C   0  0  0  0  0  3  0  0  0  0  0  0
  -23.5730  -29.8530   20.0920 C   0  0  0  0  0  2  0  0  0  0  0  0
  -24.6210  -31.1030   22.0230 N   0  0  0  0  0  0  0  0  0  0  0  0
  -23.4660  -32.1960   23.6500 O   0  0  0  0  0  0  0  0  0  0  0  0
  -22.6760  -29.5160   22.4320 C   0  0  0  0  0  0  0  0  0  0  0  0
  -21.3450  -29.3550   22.3140 N   0  0  0  0  0  0  0  0  0  0  0  0
  -23.3510  -28.8770   23.2460 O   0  0  0  0  0  0  0  0  0  0  0  0
  -20.8580  -29.9220   21.6340 H   0  0  0  0  0  0  0  0  0  0  0  0
  -17.9560  -28.1960   22.8370 C   0  0  0  0  0  0  0  0  0  0  0  0
  -20.5220  -28.4200   23.0820 C   0  0  0  0  0  3  0  0  0  0  0  0
  -20.5970  -26.9930   22.4900 C   0  0  0  0  0  2  0  0  0  0  0  0
  -19.4800  -26.6980   21.4850 C   0  0  0  0  0  2  0  0  0  0  0  0
  -18.1070  -26.8550   22.1430 C   0  0  0  0  0  2  0  0  0  0  0  0
  -19.0890  -28.9380   23.2650 C   0  0  0  0  0  0  0  0  0  0  0  0
  -18.8910  -30.1980   23.8710 C   0  0  0  0  0  3  0  0  0  0  0  0
  -17.5930  -30.7070   24.0640 C   0  0  0  0  0  3  0  0  0  0  0  0
  -16.4760  -29.9610   23.6510 C   0  0  0  0  0  3  0  0  0  0  0  0
  -16.6580  -28.7090   23.0400 C   0  0  0  0  0  3  0  0  0  0  0  0
  -25.8320  -32.5430   23.7540 C   0  0  0  0  0  3  0  0  0  0  0  0
  -26.3310  -31.7730   25.0370 C   0  0  1  0  0  0  0  0  0  0  0  0
  -25.2280  -31.5480   26.0960 C   0  0  0  0  0  1  0  0  0  0  0  0
  -26.9090  -30.3890   24.6600 C   0  0  0  0  0  1  0  0  0  0  0  0
  -27.4810  -32.5600   25.7050 C   0  0  0  0  0  1  0  0  0  0  0  0
  -25.5240  -33.9430   24.0850 N   0  0  0  0  0  0  0  0  0  0  0  0
  -25.8520  -34.9980   23.3260 C   0  0  0  0  0  0  0  0  0  0  0  0
  -26.5110  -34.8930   22.2890 O   0  0  0  0  0  0  0  0  0  0  0  0
  -24.9390  -34.0960   24.8930 H   0  0  0  0  0  0  0  0  0  0  0  0
  -24.1120  -36.7900   23.0100 C   0  0  0  0  0  1  0  0  0  0  0  0
  -25.3720  -36.3880   23.7920 C   0  0  0  0  0  3  0  0  0  0  0  0
  -27.5250  -37.2820   24.5710 C   0  0  0  0  0  1  0  0  0  0  0  0
  -26.3990  -37.4440   23.6530 N   0  0  0  0  0  0  0  0  0  0  0  0
  -25.9940  -38.3650   23.8050 H   0  0  0  0  0  0  0  0  0  0  0  0
  -28.7520  -22.4580   20.2090 C   0  0  0  0  0  2  0  0  0  0  0  0
  -29.3070  -20.8960   20.6390 C   0  0  0  0  0  2  0  0  0  0  0  0
  -29.0250  -19.3710   19.9790 C   0  0  0  0  0  2  0  0  0  0  0  0
  -29.9890  -17.9840   20.1850 C   0  0  0  0  0  3  0  0  0  0  0  0
  -30.8030  -18.1440   21.4050 N   0  0  0  0  0  4  0  0  0  0  0  0
  -31.3430  -18.9910   21.3600 H   0  0  0  0  0  0  0  0  0  0  0  0
  -31.4560  -17.3860   21.4920 H   0  0  0  0  0  0  0  0  0  0  0  0
  -30.2310  -18.1690   22.2300 H   0  0  0  0  0  0  0  0  0  0  0  0
  -29.4320  -16.3860   20.0830 C   0  0  0  0  0  2  0  0  0  0  0  0
  -30.3050  -14.9830   19.8720 C   0  0  0  0  0  0  0  0  0  0  0  0
  -30.1730  -12.6330   18.9280 C   0  0  0  0  0  2  0  0  0  0  0  0
  -29.1620  -12.6130   17.7570 C   0  0  0  0  0  2  0  0  0  0  0  0
  -27.7280  -12.3780   18.2700 C   0  0  0  0  0  2  0  0  0  0  0  0
  -27.3850  -13.2810   19.4810 C   0  0  0  0  0  3  0  0  0  0  0  0
  -28.5080  -13.2860   20.5370 C   0  0  0  0  0  2  0  0  0  0  0  0
  -29.7510  -13.7020   19.8750 N   0  0  0  0  0  0  0  0  0  0  0  0
  -31.4860  -15.0700   19.5180 O   0  0  0  0  0  0  0  0  0  0  0  0
  -25.0480  -13.8140   20.3770 C   0  0  0  0  0  0  0  0  0  0  0  0
  -24.0240  -13.0230   20.8180 C   0  0  0  0  0  0  0  0  0  0  0  0
  -24.5060  -11.6790   20.7470 C   0  0  0  0  0  0  0  0  0  0  0  0
  -26.0870  -12.9570   20.0630 N   0  0  0  0  0  0  0  0  0  0  0  0
  -25.7740  -11.6670   20.3490 N   0  0  0  0  0  0  0  0  0  0  0  0
  -23.8100  -10.4060   20.9730 C   0  0  0  0  0  0  0  0  0  0  0  0
  -24.2930   -9.4520   21.8950 C   0  0  0  0  0  3  0  0  0  0  0  0
  -23.5970   -8.2430   22.1070 C   0  0  0  0  0  3  0  0  0  0  0  0
  -22.4010   -7.9780   21.3970 C   0  0  0  0  0  0  0  0  0  0  0  0
  -21.9360   -8.9180   20.4610 C   0  0  0  0  0  3  0  0  0  0  0  0
  -22.6340  -10.1190   20.2470 C   0  0  0  0  0  3  0  0  0  0  0  0
  -21.6710   -6.8210   21.5220 O   0  0  0  0  0  0  0  0  0  0  0  0
  -21.6590   -6.1000   22.6880 C   0  0  0  0  0  0  0  0  0  0  0  0
  -21.2470   -6.6690   23.9140 C   0  0  0  0  0  3  0  0  0  0  0  0
  -21.1840   -5.8730   25.0750 C   0  0  0  0  0  3  0  0  0  0  0  0
  -21.5220   -4.5080   25.0130 C   0  0  0  0  0  0  0  0  0  0  0  0
  -21.9260   -3.9360   23.7930 C   0  0  0  0  0  3  0  0  0  0  0  0
  -21.9920   -4.7320   22.6340 C   0  0  0  0  0  0  0  0  0  0  0  0
  -22.3620   -4.1720   21.4570 F   0  0  0  0  0  0  0  0  0  0  0  0
  -21.4560   -3.7400   26.1260 F   0  0  0  0  0  0  0  0  0  0  0  0
  -22.6410  -13.4770   21.1850 C   0  0  0  0  0  0  0  0  0  0  0  0
  -21.9830  -12.7660   22.0940 N   0  0  0  0  0  0  0  0  0  0  0  0
  -22.1540  -14.4990   20.7030 O   0  0  0  0  0  0  0  0  0  0  0  0
  -22.3880  -11.9390   22.5120 H   0  0  0  0  0  0  0  0  0  0  0  0
  -21.0570  -13.0490   22.3820 H   0  0  0  0  0  0  0  0  0  0  0  0
  -25.1730  -15.1870   20.1830 N   0  0  0  0  0  0  0  0  0  0  0  0
  -24.3720  -15.8050   20.2520 H   0  0  0  0  0  0  0  0  0  0  0  0
  -25.9590  -15.6100   19.7080 H   0  0  0  0  0  0  0  0  0  0  0  0
  1  2  1  0
  3  1  2  0
  4  8  1  0
  4  2  2  0
  5  4  1  0
  6  5  2  0
  6  3  1  0
  8  7  1  0
  9  6  1  0
 10 21  2  0
 11  9  1  0
 11 16  1  0
 12 20  1  0
 12 22  1  0
 13 19  1  0
 13 15  1  0
 14 20  1  0
 15 16  2  0
 15 14  1  0
 17 11  2  0
 18 17  1  0
 18 13  2  0
 19 12  1  0
 20 10  1  0
 22 24  2  0
 23 22  1  0
 25 23  1  0
 26 35  2  0
 26 31  1  0
 27 23  1  0
 27 31  1  0
 28 27  1  0
 29 30  1  0
 29 28  1  0
 30 26  1  0
 31 32  2  0
 32 33  1  0
 34 33  2  0
 35 34  1  0
 36 10  1  0
 36 41  1  0
 36 37  1  0
 37 40  1  1
 37 38  1  0
 39 37  1  0
 41 44  1  0
 42 46  1  0
 42 41  1  0
 43 42  2  0
 46 45  1  0
 48 46  1  0
 48 49  1  0
 48 47  1  0
 50 51  1  0
 50  5  1  0
 52 51  1  0
 53 52  1  0
 53 54  1  0
 54 56  1  0
 54 57  1  0
 55 54  1  0
 58 53  1  0
 59 65  1  0
 59 58  1  0
 60 65  1  0
 61 62  1  0
 61 60  1  0
 63 62  1  0
 63 70  1  0
 63 64  1  0
 65 64  1  0
 66 59  2  0
 67 68  2  0
 68 87  1  0
 69 68  1  0
 69 72  1  0
 70 71  1  0
 70 67  1  0
 71 69  2  0
 72 73  1  0
 73 74  2  0
 75 78  1  0
 75 74  1  0
 76 75  2  0
 77 76  1  0
 77 72  2  0
 78 79  1  0
 79 80  1  0
 80 81  2  0
 82 81  1  0
 82 86  1  0
 83 82  2  0
 84 79  2  0
 84 83  1  0
 85 84  1  0
 87 88  1  0
 88 91  1  0
 88 90  1  0
 89 87  2  0
 92 93  1  0
 92 67  1  0
 94 92  1  0
M  ISO  4   6 101   9 101  58 100  59 100
M  END
>  <TORSDO>  (14) 
F 23

>  <SCORE>  (14) 
-11.341

>  <name>  (14) 
13

>  <ligand_id>  (14) 
13

>  <original_smiles>  (14) 
[H]c1c([H])c(Oc2c([H])c([H])c3c(c2[H])C([H])([H])N(C(=O)C([H])(N([H])C(=O)C([H])(N([H])C([H])([H])[H])C([H])([H])[H])C(C([H])([H])[H])(C([H])([H])[H])C([H])([H])[H])C([H])(C(=O)N([H])C2([H])c4c([H])c([H])c([H])c([H])c4C([H])([H])C([H])([H])C2([H])[H])C3([H])[H])c(C([H])([H])C([H])([H])C([H])([H])C([H])(C([H])([H])C(=O)N2C([H])([H])C([H])([H])C([H])([H])C([H])(n3nc(-c4c([H])c([H])c(Oc5c([H])c([H])c(F)c([H])c5F)c([H])c4[H])c(C(=O)N([H])[H])c3N([H])[H])C2([H])[H])[N+]([H])([H])[H])c(C([H])([H])C([H])([H])[H])c1[H]

>  <smiles>  (14) 
[H]c1c([H])c(Oc2c([H])c([H])c3c(c2[H])C([H])([H])N(C(=O)C([H])(N([H])C(=O)C([H])(N([H])C([H])([H])[H])C([H])([H])[H])C(C([H])([H])[H])(C([H])([H])[H])C([H])([H])[H])C([H])(C(=O)N([H])C2([H])c4c([H])c([H])c([H])c([H])c4C([H])([H])C([H])([H])C2([H])[H])C3([H])[H])c(C([H])([H])C([H])([H])C([H])([H])C([H])(C([H])([H])C(=O)N2C([H])([H])C([H])([H])C([H])([H])C([H])(n3nc(-c4c([H])c([H])c(Oc5c([H])c([H])c(F)c([H])c5F)c([H])c4[H])c(C(=O)N([H])[H])c3N([H])[H])C2([H])[H])[N+]([H])([H])[H])c(C([H])([H])C([H])([H])[H])c1[H]

$$$$
14:0:0
     RDKit          3D

 95104  0  0  1  0  0  0  0  0999 V2000
  -28.8170  -22.3950   21.4190 C   0  0  0  0  0  3  0  0  0  0  0  0
  -28.6110  -23.5850   19.3230 C   0  0  0  0  0  3  0  0  0  0  0  0
  -28.2910  -24.8280   21.3760 C   0  0  0  0  0  3  0  0  0  0  0  0
  -28.8570  -22.2640   20.0180 C   0  0  0  0  0  0  0  0  0  0  0  0
  -28.5370  -23.6210   22.0720 C   0  0  0  0  0  0  0  0  0  0  0  0
  -28.3240  -24.9170   19.9700 C   0  0  0  0  0  0  0  0  0  0  0  0
  -30.5250  -18.7830   18.4830 C   0  0  0  0  0  2  0  0  0  0  0  0
  -30.3730  -20.3620   18.6380 C   0  0  0  0  0  2  0  0  0  0  0  0
  -29.1390  -19.2910   20.3420 C   0  0  0  0  0  2  0  0  0  0  0  0
  -30.1760  -18.0910   19.8290 C   0  0  0  0  0  3  0  0  0  0  0  0
  -29.0780  -20.6960   19.4290 C   0  0  1  0  0  0  0  0  0  0  0  0
  -30.7120  -15.2960   19.7640 C   0  0  0  0  0  0  0  0  0  0  0  0
  -30.6110  -12.8700   18.9660 C   0  0  0  0  0  2  0  0  0  0  0  0
  -29.6180  -12.7090   17.7910 C   0  0  0  0  0  2  0  0  0  0  0  0
  -28.1790  -12.5020   18.3040 C   0  0  0  0  0  2  0  0  0  0  0  0
  -27.8150  -13.4790   19.4530 C   0  0  0  0  0  3  0  0  0  0  0  0
  -28.9290  -13.5880   20.5120 C   0  0  0  0  0  2  0  0  0  0  0  0
  -30.1440  -14.0140   19.8050 N   0  0  0  0  0  0  0  0  0  0  0  0
  -31.9090  -15.3470   19.4590 O   0  0  0  0  0  0  0  0  0  0  0  0
  -29.9130  -16.4930   19.8590 N   0  0  0  0  0  0  0  0  0  0  0  0
  -28.9450  -16.2630   20.0240 H   0  0  0  0  0  0  0  0  0  0  0  0
  -25.5080  -14.0670   20.3880 C   0  0  0  0  0  0  0  0  0  0  0  0
  -24.4600  -13.3000   20.8130 C   0  0  0  0  0  0  0  0  0  0  0  0
  -24.8930  -11.9420   20.7050 C   0  0  0  0  0  0  0  0  0  0  0  0
  -26.5140  -13.1790   20.0410 N   0  0  0  0  0  0  0  0  0  0  0  0
  -26.1580  -11.8930   20.2980 N   0  0  0  0  0  0  0  0  0  0  0  0
  -24.1550  -10.6890   20.9070 C   0  0  0  0  0  0  0  0  0  0  0  0
  -24.5870   -9.7160   21.8360 C   0  0  0  0  0  3  0  0  0  0  0  0
  -23.8480   -8.5290   22.0260 C   0  0  0  0  0  3  0  0  0  0  0  0
  -22.6600   -8.3060   21.2890 C   0  0  0  0  0  0  0  0  0  0  0  0
  -22.2450   -9.2670   20.3500 C   0  0  0  0  0  3  0  0  0  0  0  0
  -22.9860  -10.4450   20.1580 C   0  0  0  0  0  3  0  0  0  0  0  0
  -21.8920   -7.1710   21.3910 O   0  0  0  0  0  0  0  0  0  0  0  0
  -21.8190   -6.4520   22.5560 C   0  0  0  0  0  0  0  0  0  0  0  0
  -21.3190   -7.0160   23.7500 C   0  0  0  0  0  3  0  0  0  0  0  0
  -21.1970   -6.2230   24.9080 C   0  0  0  0  0  3  0  0  0  0  0  0
  -21.5660   -4.8650   24.8740 C   0  0  0  0  0  0  0  0  0  0  0  0
  -22.0580   -4.2980   23.6840 C   0  0  0  0  0  3  0  0  0  0  0  0
  -22.1820   -5.0890   22.5290 C   0  0  0  0  0  0  0  0  0  0  0  0
  -22.6380   -4.5340   21.3800 F   0  0  0  0  0  0  0  0  0  0  0  0
  -21.4400   -4.1000   25.9830 F   0  0  0  0  0  0  0  0  0  0  0  0
  -23.0960  -13.7930   21.1980 C   0  0  0  0  0  0  0  0  0  0  0  0
  -22.4170  -13.0860   22.0940 N   0  0  0  0  0  0  0  0  0  0  0  0
  -22.6460  -14.8450   20.7430 O   0  0  0  0  0  0  0  0  0  0  0  0
  -22.7940  -12.2370   22.4860 H   0  0  0  0  0  0  0  0  0  0  0  0
  -21.5040  -13.3990   22.3920 H   0  0  0  0  0  0  0  0  0  0  0  0
  -25.6850  -15.4380   20.2360 N   0  0  0  0  0  0  0  0  0  0  0  0
  -24.9340  -16.1000   20.4070 H   0  0  0  0  0  0  0  0  0  0  0  0
  -26.4900  -15.8660   19.7970 H   0  0  0  0  0  0  0  0  0  0  0  0
  -28.0330  -20.4340   18.5170 O   0  0  0  0  0  0  0  0  0  0  0  0
  -28.1040  -19.5200   18.2670 H   0  0  0  0  0  0  0  0  0  0  0  0
  -28.5130  -23.6310   23.4650 N   0  0  0  0  0  0  0  0  0  0  0  0
  -28.9690  -22.8710   23.9590 H   0  0  0  0  0  0  0  0  0  0  0  0
  -28.6140  -24.5220   23.9410 H   0  0  0  0  0  0  0  0  0  0  0  0
  -28.2190  -26.3000   19.4260 O   0  0  0  0  0  0  0  0  0  0  0  0
  -24.5750  -31.7250   23.0440 C   0  0  0  0  0  0  0  0  0  0  0  0
  -27.1330  -27.2500   19.6060 C   0  0  0  0  0  0  0  0  0  0  0  0
  -23.3360  -30.3850   21.3930 C   0  0  0  0  0  3  0  0  0  0  0  0
  -24.7540  -28.9380   19.8070 C   0  0  0  0  0  0  0  0  0  0  0  0
  -25.8700  -30.7400   21.1090 C   0  0  0  0  0  2  0  0  0  0  0  0
  -25.9550  -29.3830   20.3770 C   0  0  0  0  0  0  0  0  0  0  0  0
  -27.1440  -28.5600   20.2550 C   0  0  0  0  0  3  0  0  0  0  0  0
  -25.8970  -26.9150   19.0150 C   0  0  0  0  0  3  0  0  0  0  0  0
  -24.7380  -27.7200   19.1110 C   0  0  0  0  0  3  0  0  0  0  0  0
  -23.5040  -29.7940   19.9680 C   0  0  0  0  0  2  0  0  0  0  0  0
  -24.6180  -30.9690   21.9030 N   0  0  0  0  0  0  0  0  0  0  0  0
  -23.5080  -31.9420   23.6390 O   0  0  0  0  0  0  0  0  0  0  0  0
  -22.7400  -29.3040   22.3250 C   0  0  0  0  0  0  0  0  0  0  0  0
  -21.4220  -29.0550   22.2200 N   0  0  0  0  0  0  0  0  0  0  0  0
  -23.4670  -28.6840   23.1040 O   0  0  0  0  0  0  0  0  0  0  0  0
  -20.8870  -29.6100   21.5680 H   0  0  0  0  0  0  0  0  0  0  0  0
  -18.1390  -27.6020   22.7090 C   0  0  0  0  0  0  0  0  0  0  0  0
  -20.6760  -28.0430   22.9690 C   0  0  0  0  0  3  0  0  0  0  0  0
  -20.8760  -26.6380   22.3540 C   0  0  0  0  0  2  0  0  0  0  0  0
  -19.7920  -26.2660   21.3360 C   0  0  0  0  0  2  0  0  0  0  0  0
  -18.4080  -26.2890   21.9920 C   0  0  0  0  0  2  0  0  0  0  0  0
  -19.2030  -28.4320   23.1550 C   0  0  0  0  0  0  0  0  0  0  0  0
  -18.8940  -29.6560   23.7870 C   0  0  0  0  0  3  0  0  0  0  0  0
  -17.5570  -30.0540   23.9760 C   0  0  0  0  0  3  0  0  0  0  0  0
  -16.5090  -29.2200   23.5470 C   0  0  0  0  0  3  0  0  0  0  0  0
  -16.8010  -27.9960   22.9190 C   0  0  0  0  0  3  0  0  0  0  0  0
  -25.8620  -32.3690   23.6460 C   0  0  0  0  0  3  0  0  0  0  0  0
  -26.4440  -31.5580   24.8700 C   0  0  1  0  0  0  0  0  0  0  0  0
  -25.3970  -31.2540   25.9680 C   0  0  0  0  0  1  0  0  0  0  0  0
  -27.0400  -30.2100   24.4020 C   0  0  0  0  0  1  0  0  0  0  0  0
  -27.6030  -32.3510   25.5190 C   0  0  0  0  0  1  0  0  0  0  0  0
  -25.5270  -33.7420   24.0560 N   0  0  0  0  0  0  0  0  0  0  0  0
  -25.8050  -34.8420   23.3440 C   0  0  0  0  0  0  0  0  0  0  0  0
  -26.4340  -34.8100   22.2850 O   0  0  0  0  0  0  0  0  0  0  0  0
  -24.9550  -33.8420   24.8810 H   0  0  0  0  0  0  0  0  0  0  0  0
  -24.0140  -36.6000   23.1710 C   0  0  0  0  0  1  0  0  0  0  0  0
  -25.3050  -36.1930   23.8950 C   0  0  0  0  0  3  0  0  0  0  0  0
  -27.4470  -37.1090   24.6720 C   0  0  0  0  0  1  0  0  0  0  0  0
  -26.3020  -37.2800   23.7830 N   0  0  0  0  0  0  0  0  0  0  0  0
  -25.8790  -38.1820   23.9830 H   0  0  0  0  0  0  0  0  0  0  0  0
  1  5  1  0
  2  6  2  0
  2  4  1  0
  3  5  2  0
  4  1  2  0
  5 52  1  0
  6  3  1  0
  7  8  1  0
  7 10  1  0
  8 11  1  0
 10 20  1  0
 10  9  1  0
 11 50  1  6
 11  4  1  0
 11  9  1  0
 12 18  1  0
 12 20  1  0
 13 18  1  0
 14 15  1  0
 14 13  1  0
 16 15  1  0
 16 25  1  0
 16 17  1  0
 18 17  1  0
 19 12  2  0
 20 21  1  0
 22 23  2  0
 23 42  1  0
 24 23  1  0
 24 27  1  0
 25 26  1  0
 25 22  1  0
 26 24  2  0
 27 28  1  0
 28 29  2  0
 30 33  1  0
 30 29  1  0
 31 30  2  0
 32 31  1  0
 32 27  2  0
 33 34  1  0
 34 35  1  0
 35 36  2  0
 37 36  1  0
 37 41  1  0
 38 37  2  0
 39 34  2  0
 39 38  1  0
 40 39  1  0
 42 43  1  0
 43 46  1  0
 43 45  1  0
 44 42  2  0
 47 22  1  0
 47 48  1  0
 49 47  1  0
 51 50  1  0
 52 54  1  0
 52 53  1  0
 55 57  1  0
 55  6  1  0
 56 67  2  0
 57 62  1  0
 58 66  1  0
 58 68  1  0
 59 65  1  0
 59 61  1  0
 60 66  1  0
 61 60  1  0
 62 61  2  0
 63 64  1  0
 63 57  2  0
 64 59  2  0
 65 58  1  0
 66 56  1  0
 68 70  2  0
 69 68  1  0
 71 69  1  0
 72 81  2  0
 72 77  1  0
 73 69  1  0
 73 77  1  0
 74 73  1  0
 75 76  1  0
 75 74  1  0
 76 72  1  0
 77 78  2  0
 78 79  1  0
 80 79  2  0
 81 80  1  0
 82 56  1  0
 82 87  1  0
 82 83  1  0
 83 86  1  1
 83 84  1  0
 85 83  1  0
 87 90  1  0
 88 92  1  0
 88 87  1  0
 89 88  2  0
 92 91  1  0
 94 92  1  0
 94 95  1  0
 94 93  1  0
M  ISO  4   6 101  12 100  20 100  55 101
M  END
>  <TORSDO>  (15) 
F 19

>  <SCORE>  (15) 
-13.477

>  <name>  (15) 
14

>  <ligand_id>  (15) 
14

>  <original_smiles>  (15) 
[H]OC1(c2c([H])c(Oc3c([H])c([H])c4c(c3[H])C([H])([H])N(C(=O)C([H])(N([H])C(=O)C([H])(N([H])C([H])([H])[H])C([H])([H])[H])C(C([H])([H])[H])(C([H])([H])[H])C([H])([H])[H])C([H])(C(=O)N([H])C3([H])c5c([H])c([H])c([H])c([H])c5C([H])([H])C([H])([H])C3([H])[H])C4([H])[H])c([H])c(N([H])[H])c2[H])C([H])([H])C([H])([H])C([H])(N([H])C(=O)N2C([H])([H])C([H])([H])C([H])([H])C([H])(n3nc(-c4c([H])c([H])c(Oc5c([H])c([H])c(F)c([H])c5F)c([H])c4[H])c(C(=O)N([H])[H])c3N([H])[H])C2([H])[H])C1([H])[H]

>  <smiles>  (15) 
[H]OC1(c2c([H])c(Oc3c([H])c([H])c4c(c3[H])C([H])([H])N(C(=O)C([H])(N([H])C(=O)C([H])(N([H])C([H])([H])[H])C([H])([H])[H])C(C([H])([H])[H])(C([H])([H])[H])C([H])([H])[H])C([H])(C(=O)N([H])C3([H])c5c([H])c([H])c([H])c([H])c5C([H])([H])C([H])([H])C3([H])[H])C4([H])[H])c([H])c(N([H])[H])c2[H])C([H])([H])C([H])([H])C([H])(N([H])C(=O)N2C([H])([H])C([H])([H])C([H])([H])C([H])(n3nc(-c4c([H])c([H])c(Oc5c([H])c([H])c(F)c([H])c5F)c([H])c4[H])c(C(=O)N([H])[H])c3N([H])[H])C2([H])[H])C1([H])[H]

$$$$
15:0:0
     RDKit          3D

 89 97  0  0  1  0  0  0  0  0999 V2000
  -28.4060  -21.3820   21.2410 C   0  0  0  0  0  3  0  0  0  0  0  0
  -28.0740  -22.8860   21.2620 C   0  0  0  0  0  3  0  0  0  0  0  0
  -29.0030  -20.4920   20.1930 C   0  0  0  0  0  0  0  0  0  0  0  0
  -29.1310  -21.5760   19.1590 C   0  0  0  0  0  0  0  0  0  0  0  0
  -28.2180  -23.9680   20.2350 C   0  0  0  0  0  0  0  0  0  0  0  0
  -28.8040  -23.0820   19.1830 C   0  0  0  0  0  0  0  0  0  0  0  0
  -29.7200  -21.1070   17.8360 C   0  0  0  0  0  1  0  0  0  0  0  0
  -29.1420  -23.7510   18.0530 F   0  0  0  0  0  0  0  0  0  0  0  0
  -29.3920  -17.2590   20.2720 C   0  0  0  0  0  3  0  0  0  0  0  0
  -29.6640  -18.7770   20.1480 C   0  0  0  0  0  0  0  0  0  0  0  0
  -30.2290  -15.7490   20.1570 C   0  0  0  0  0  0  0  0  0  0  0  0
  -30.3450  -13.1910   19.3630 C   0  0  0  0  0  2  0  0  0  0  0  0
  -29.4570  -12.7940   18.1480 C   0  0  0  0  0  2  0  0  0  0  0  0
  -28.0360  -12.4290   18.6010 C   0  0  0  0  0  2  0  0  0  0  0  0
  -27.5220  -13.4210   19.6670 C   0  0  0  0  0  3  0  0  0  0  0  0
  -28.5480  -13.7460   20.7750 C   0  0  0  0  0  2  0  0  0  0  0  0
  -29.7260  -14.3700   20.1310 N   0  0  0  0  0  0  0  0  0  0  0  0
  -31.4560  -15.6630   19.9490 O   0  0  0  0  0  0  0  0  0  0  0  0
  -25.1630  -13.9180   20.4560 C   0  0  0  0  0  0  0  0  0  0  0  0
  -24.1180  -13.1230   20.8310 C   0  0  0  0  0  0  0  0  0  0  0  0
  -24.6070  -11.7800   20.7930 C   0  0  0  0  0  0  0  0  0  0  0  0
  -26.2150  -13.0620   20.1970 N   0  0  0  0  0  0  0  0  0  0  0  0
  -25.8980  -11.7680   20.4690 N   0  0  0  0  0  0  0  0  0  0  0  0
  -23.8970  -10.5060   20.9850 C   0  0  0  0  0  0  0  0  0  0  0  0
  -24.3290   -9.5520   21.9320 C   0  0  0  0  0  3  0  0  0  0  0  0
  -23.6130   -8.3480   22.1120 C   0  0  0  0  0  3  0  0  0  0  0  0
  -22.4510   -8.0900   21.3460 C   0  0  0  0  0  0  0  0  0  0  0  0
  -22.0370   -9.0340   20.3900 C   0  0  0  0  0  3  0  0  0  0  0  0
  -22.7530  -10.2290   20.2070 C   0  0  0  0  0  3  0  0  0  0  0  0
  -21.7090   -6.9370   21.4360 O   0  0  0  0  0  0  0  0  0  0  0  0
  -21.6360   -6.2150   22.6000 C   0  0  0  0  0  0  0  0  0  0  0  0
  -21.1450   -6.7810   23.7980 C   0  0  0  0  0  3  0  0  0  0  0  0
  -21.0220   -5.9840   24.9540 C   0  0  0  0  0  3  0  0  0  0  0  0
  -21.3800   -4.6230   24.9120 C   0  0  0  0  0  0  0  0  0  0  0  0
  -21.8630   -4.0570   23.7200 C   0  0  0  0  0  3  0  0  0  0  0  0
  -21.9880   -4.8500   22.5660 C   0  0  0  0  0  0  0  0  0  0  0  0
  -22.4350   -4.2940   21.4140 F   0  0  0  0  0  0  0  0  0  0  0  0
  -21.2540   -3.8550   26.0210 F   0  0  0  0  0  0  0  0  0  0  0  0
  -22.7160  -13.5800   21.1060 C   0  0  0  0  0  0  0  0  0  0  0  0
  -22.0030  -12.8820   21.9800 N   0  0  0  0  0  0  0  0  0  0  0  0
  -22.2640  -14.5960   20.5790 O   0  0  0  0  0  0  0  0  0  0  0  0
  -22.3810  -12.0580   22.4260 H   0  0  0  0  0  0  0  0  0  0  0  0
  -21.0650  -13.1750   22.2110 H   0  0  0  0  0  0  0  0  0  0  0  0
  -25.3030  -15.2920   20.2800 N   0  0  0  0  0  0  0  0  0  0  0  0
  -24.5250  -15.9310   20.3950 H   0  0  0  0  0  0  0  0  0  0  0  0
  -26.1380  -15.7410   19.9250 H   0  0  0  0  0  0  0  0  0  0  0  0
  -30.9700  -18.9780   19.9340 O   0  0  0  0  0  0  0  0  0  0  0  0
  -31.1160  -19.9160   19.9360 H   0  0  0  0  0  0  0  0  0  0  0  0
  -28.1470  -25.5950   20.2860 O   0  0  0  0  0  0  0  0  0  0  0  0
  -24.6480  -31.8970   23.2290 C   0  0  0  0  0  0  0  0  0  0  0  0
  -27.1380  -26.7820   20.2620 C   0  0  0  0  0  0  0  0  0  0  0  0
  -23.4470  -30.4970   21.6040 C   0  0  0  0  0  3  0  0  0  0  0  0
  -24.8790  -28.8290   20.1980 C   0  0  0  0  0  0  0  0  0  0  0  0
  -26.0260  -30.6220   21.4760 C   0  0  0  0  0  2  0  0  0  0  0  0
  -26.0770  -29.1820   20.8300 C   0  0  0  0  0  0  0  0  0  0  0  0
  -27.1880  -28.1860   20.8300 C   0  0  0  0  0  3  0  0  0  0  0  0
  -25.9100  -26.6420   19.5640 C   0  0  0  0  0  3  0  0  0  0  0  0
  -24.8350  -27.5850   19.5420 C   0  0  0  0  0  3  0  0  0  0  0  0
  -23.6790  -29.7880   20.2380 C   0  0  0  0  0  2  0  0  0  0  0  0
  -24.7320  -31.0390   22.1540 N   0  0  0  0  0  0  0  0  0  0  0  0
  -23.5580  -32.2050   23.7430 O   0  0  0  0  0  0  0  0  0  0  0  0
  -22.7300  -29.5290   22.5840 C   0  0  0  0  0  0  0  0  0  0  0  0
  -21.3970  -29.3750   22.4590 N   0  0  0  0  0  0  0  0  0  0  0  0
  -23.3840  -28.9150   23.4300 O   0  0  0  0  0  0  0  0  0  0  0  0
  -20.9200  -29.9210   21.7550 H   0  0  0  0  0  0  0  0  0  0  0  0
  -18.0120  -28.1570   22.9720 C   0  0  0  0  0  0  0  0  0  0  0  0
  -20.5700  -28.4450   23.2400 C   0  0  0  0  0  3  0  0  0  0  0  0
  -20.6810  -27.0050   22.6870 C   0  0  0  0  0  2  0  0  0  0  0  0
  -19.5870  -26.6620   21.6710 C   0  0  0  0  0  2  0  0  0  0  0  0
  -18.2020  -26.8020   22.3080 C   0  0  0  0  0  2  0  0  0  0  0  0
  -19.1230  -28.9340   23.3950 C   0  0  0  0  0  0  0  0  0  0  0  0
  -18.8900  -30.1980   23.9810 C   0  0  0  0  0  3  0  0  0  0  0  0
  -17.5790  -30.6840   24.1450 C   0  0  0  0  0  3  0  0  0  0  0  0
  -16.4830  -29.9050   23.7340 C   0  0  0  0  0  3  0  0  0  0  0  0
  -16.7010  -28.6430   23.1550 C   0  0  0  0  0  3  0  0  0  0  0  0
  -25.9150  -32.5470   23.8630 C   0  0  0  0  0  3  0  0  0  0  0  0
  -25.5960  -33.9500   24.1980 N   0  0  0  0  0  0  0  0  0  0  0  0
  -25.9110  -35.0150   23.4480 C   0  0  0  0  0  0  0  0  0  0  0  0
  -26.5560  -34.9210   22.4020 O   0  0  0  0  0  0  0  0  0  0  0  0
  -25.0140  -34.0940   25.0090 H   0  0  0  0  0  0  0  0  0  0  0  0
  -24.1640  -36.8130   23.1750 C   0  0  0  0  0  1  0  0  0  0  0  0
  -25.4390  -36.4040   23.9320 C   0  0  0  0  0  3  0  0  0  0  0  0
  -27.6020  -37.3010   24.6810 C   0  0  0  0  0  1  0  0  0  0  0  0
  -26.4620  -37.4630   23.7810 N   0  0  0  0  0  0  0  0  0  0  0  0
  -26.0560  -38.3800   23.9450 H   0  0  0  0  0  0  0  0  0  0  0  0
  -26.4160  -31.7910   25.1580 C   0  0  1  0  0  0  0  0  0  0  0  0
  -25.3130  -31.5770   26.2220 C   0  0  0  0  0  1  0  0  0  0  0  0
  -26.9920  -30.4040   24.8020 C   0  0  0  0  0  1  0  0  0  0  0  0
  -27.5670  -32.5870   25.8160 C   0  0  0  0  0  1  0  0  0  0  0  0
  1  2  1  0
  3  1  2  0
  4  6  2  0
  4  3  1  0
  5 49  1  0
  5  2  2  0
  6  5  1  0
  7  4  1  0
  8  6  1  0
 10  3  1  0
 10  9  2  0
 11  9  1  0
 12 17  1  0
 13 14  1  0
 13 12  1  0
 15 14  1  0
 15 22  1  0
 15 16  1  0
 17 11  1  0
 17 16  1  0
 18 11  2  0
 19 20  2  0
 20 39  1  0
 21 20  1  0
 21 24  1  0
 22 19  1  0
 22 23  1  0
 23 21  2  0
 24 25  1  0
 25 26  2  0
 27 30  1  0
 27 26  1  0
 28 27  2  0
 29 28  1  0
 29 24  2  0
 30 31  1  0
 31 32  1  0
 32 33  2  0
 34 33  1  0
 34 38  1  0
 35 34  2  0
 36 31  2  0
 36 35  1  0
 37 36  1  0
 39 40  1  0
 40 43  1  0
 40 42  1  0
 41 39  2  0
 44 45  1  0
 44 19  1  0
 46 44  1  0
 47 48  1  0
 47 10  1  0
 50 61  2  0
 51 49  1  0
 51 56  1  0
 52 60  1  0
 52 62  1  0
 53 59  1  0
 53 55  1  0
 54 60  1  0
 55 56  2  0
 55 54  1  0
 57 51  2  0
 58 57  1  0
 58 53  2  0
 59 52  1  0
 60 50  1  0
 62 64  2  0
 63 62  1  0
 65 63  1  0
 66 75  2  0
 66 71  1  0
 67 63  1  0
 67 71  1  0
 68 67  1  0
 69 70  1  0
 69 68  1  0
 70 66  1  0
 71 72  2  0
 72 73  1  0
 74 73  2  0
 75 74  1  0
 76 50  1  0
 76 77  1  0
 76 86  1  0
 77 80  1  0
 78 82  1  0
 78 77  1  0
 79 78  2  0
 82 81  1  0
 84 82  1  0
 84 85  1  0
 84 83  1  0
 86 89  1  1
 86 87  1  0
 88 86  1  0
M  ISO  4   5 101   9 100  11 100  49 101
M  END
>  <TORSDO>  (16) 
F 18

>  <SCORE>  (16) 
-15.746

>  <name>  (16) 
15

>  <ligand_id>  (16) 
15

>  <original_smiles>  (16) 
[H]OC(=C([H])C(=O)N1C([H])([H])C([H])([H])C([H])([H])C([H])(n2nc(-c3c([H])c([H])c(Oc4c([H])c([H])c(F)c([H])c4F)c([H])c3[H])c(C(=O)N([H])[H])c2N([H])[H])C1([H])[H])c1c([H])c([H])c(Oc2c([H])c([H])c3c(c2[H])C([H])([H])N(C(=O)C([H])(N([H])C(=O)C([H])(N([H])C([H])([H])[H])C([H])([H])[H])C(C([H])([H])[H])(C([H])([H])[H])C([H])([H])[H])C([H])(C(=O)N([H])C2([H])c4c([H])c([H])c([H])c([H])c4C([H])([H])C([H])([H])C2([H])[H])C3([H])[H])c(F)c1C([H])([H])[H]

>  <smiles>  (16) 
[H]OC(=C([H])C(=O)N1C([H])([H])C([H])([H])C([H])([H])C([H])(n2nc(-c3c([H])c([H])c(Oc4c([H])c([H])c(F)c([H])c4F)c([H])c3[H])c(C(=O)N([H])[H])c2N([H])[H])C1([H])[H])c1c([H])c([H])c(Oc2c([H])c([H])c3c(c2[H])C([H])([H])N(C(=O)C([H])(N([H])C(=O)C([H])(N([H])C([H])([H])[H])C([H])([H])[H])C(C([H])([H])[H])(C([H])([H])[H])C([H])([H])[H])C([H])(C(=O)N([H])C2([H])c4c([H])c([H])c([H])c([H])c4C([H])([H])C([H])([H])C2([H])[H])C3([H])[H])c(F)c1C([H])([H])[H]

$$$$
16:0:0
     RDKit          3D

 99107  0  0  1  0  0  0  0  0999 V2000
  -29.2350  -23.6400   18.0850 C   0  0  0  0  0  3  0  0  0  0  0  0
  -30.4490  -25.6140   17.3430 C   0  0  0  0  0  3  0  0  0  0  0  0
  -30.1350  -24.2440   17.1840 C   0  0  0  0  0  0  0  0  0  0  0  0
  -28.6470  -24.3840   19.1300 C   0  0  0  0  0  0  0  0  0  0  0  0
  -29.8990  -26.3560   18.4200 C   0  0  0  0  0  0  0  0  0  0  0  0
  -28.9870  -25.7470   19.3170 C   0  0  0  0  0  0  0  0  0  0  0  0
  -27.6650  -23.7010   20.0590 C   0  0  0  0  0  1  0  0  0  0  0  0
  -30.2730  -27.6540   18.6230 O   0  0  0  0  0  0  0  0  0  0  0  0
  -31.0040  -27.9280   18.0820 H   0  0  0  0  0  0  0  0  0  0  0  0
  -30.7820  -23.3900   16.0960 C   0  0  0  0  0  2  0  0  0  0  0  0
  -29.8860  -23.1560   14.8550 C   0  0  0  0  0  2  0  0  0  0  0  0
  -30.2200  -21.8560   14.0900 C   0  0  0  0  0  2  0  0  0  0  0  0
  -29.6540  -20.6090   14.8030 C   0  0  0  0  0  2  0  0  0  0  0  0
  -30.2290  -19.2850   14.2760 C   0  0  0  0  0  2  0  0  0  0  0  0
  -30.3110  -18.2050   15.3610 C   0  0  0  0  0  2  0  0  0  0  0  0
  -31.2920  -18.5950   16.4810 C   0  0  0  0  0  2  0  0  0  0  0  0
  -32.1520  -17.4260   16.9370 C   0  0  0  0  0  0  0  0  0  0  0  0
  -32.8420  -16.7770   16.1470 O   0  0  0  0  0  0  0  0  0  0  0  0
  -32.0980  -17.0610   18.4140 C   0  0  0  0  0  2  0  0  0  0  0  0
  -30.6930  -16.5740   18.8420 C   0  0  0  0  0  2  0  0  0  0  0  0
  -30.6130  -15.8220   20.2000 C   0  0  0  0  0  3  0  0  0  0  0  0
  -29.3330  -15.7530   20.5690 F   0  0  0  0  0  0  0  0  0  0  0  0
  -31.3070  -14.4330   20.1650 C   0  0  0  0  0  0  0  0  0  0  0  0
  -30.9420  -12.2540   19.1330 C   0  0  0  0  0  2  0  0  0  0  0  0
  -30.0180  -12.4550   17.9130 C   0  0  0  0  0  2  0  0  0  0  0  0
  -28.5410  -12.3730   18.3500 C   0  0  0  0  0  2  0  0  0  0  0  0
  -28.2190  -13.2660   19.5800 C   0  0  0  0  0  3  0  0  0  0  0  0
  -29.2670  -13.0280   20.7010 C   0  0  0  0  0  2  0  0  0  0  0  0
  -30.6000  -13.2720   20.1310 N   0  0  0  0  0  0  0  0  0  0  0  0
  -32.5130  -14.4490   19.9220 O   0  0  0  0  0  0  0  0  0  0  0  0
  -25.8260  -13.9940   20.2230 C   0  0  0  0  0  0  0  0  0  0  0  0
  -24.7220  -13.2730   20.5910 C   0  0  0  0  0  0  0  0  0  0  0  0
  -25.1370  -11.9070   20.6170 C   0  0  0  0  0  0  0  0  0  0  0  0
  -26.8470  -13.0670   20.0530 N   0  0  0  0  0  0  0  0  0  0  0  0
  -26.4320  -11.8080   20.3450 N   0  0  0  0  0  0  0  0  0  0  0  0
  -24.3640  -10.6780   20.8360 C   0  0  0  0  0  0  0  0  0  0  0  0
  -24.7410   -9.7240   21.8090 C   0  0  0  0  0  3  0  0  0  0  0  0
  -23.9700   -8.5580   22.0090 C   0  0  0  0  0  3  0  0  0  0  0  0
  -22.8070   -8.3340   21.2350 C   0  0  0  0  0  0  0  0  0  0  0  0
  -22.4490   -9.2740   20.2510 C   0  0  0  0  0  3  0  0  0  0  0  0
  -23.2190  -10.4320   20.0500 C   0  0  0  0  0  3  0  0  0  0  0  0
  -22.0220   -7.2100   21.3370 O   0  0  0  0  0  0  0  0  0  0  0  0
  -21.8670   -6.5450   22.5280 C   0  0  0  0  0  0  0  0  0  0  0  0
  -21.3960   -7.2040   23.6840 C   0  0  0  0  0  3  0  0  0  0  0  0
  -21.1840   -6.4750   24.8710 C   0  0  0  0  0  3  0  0  0  0  0  0
  -21.4340   -5.0910   24.9000 C   0  0  0  0  0  0  0  0  0  0  0  0
  -21.8950   -4.4310   23.7460 C   0  0  0  0  0  3  0  0  0  0  0  0
  -22.1090   -5.1580   22.5590 C   0  0  0  0  0  0  0  0  0  0  0  0
  -22.5330   -4.5140   21.4460 F   0  0  0  0  0  0  0  0  0  0  0  0
  -21.2140   -4.3890   26.0350 F   0  0  0  0  0  0  0  0  0  0  0  0
  -23.3380  -13.8110   20.8170 C   0  0  0  0  0  0  0  0  0  0  0  0
  -22.5750  -13.1800   21.7030 N   0  0  0  0  0  0  0  0  0  0  0  0
  -22.9430  -14.8250   20.2500 O   0  0  0  0  0  0  0  0  0  0  0  0
  -22.9050  -12.3560   22.1830 H   0  0  0  0  0  0  0  0  0  0  0  0
  -21.6540  -13.5410   21.9040 H   0  0  0  0  0  0  0  0  0  0  0  0
  -26.0480  -15.3460   19.9970 N   0  0  0  0  0  0  0  0  0  0  0  0
  -25.3190  -16.0500   20.0580 H   0  0  0  0  0  0  0  0  0  0  0  0
  -26.9590  -15.7390   19.7880 H   0  0  0  0  0  0  0  0  0  0  0  0
  -28.5110  -26.4430   20.4110 O   0  0  0  0  0  0  0  0  0  0  0  0
  -24.5020  -31.6520   23.2000 C   0  0  0  0  0  0  0  0  0  0  0  0
  -27.3350  -27.1600   20.3360 C   0  0  0  0  0  0  0  0  0  0  0  0
  -23.4030  -30.2290   21.5070 C   0  0  0  0  0  3  0  0  0  0  0  0
  -24.9360  -28.6550   20.2110 C   0  0  0  0  0  0  0  0  0  0  0  0
  -25.9400  -30.5630   21.4800 C   0  0  0  0  0  2  0  0  0  0  0  0
  -26.0560  -29.1850   20.8650 C   0  0  0  0  0  0  0  0  0  0  0  0
  -27.2530  -28.4360   20.9370 C   0  0  0  0  0  3  0  0  0  0  0  0
  -26.1890  -26.6360   19.6910 C   0  0  0  0  0  3  0  0  0  0  0  0
  -24.9920  -27.3750   19.6350 C   0  0  0  0  0  3  0  0  0  0  0  0
  -23.7010  -29.5290   20.1560 C   0  0  0  0  0  2  0  0  0  0  0  0
  -24.6290  -30.8310   22.1210 N   0  0  0  0  0  0  0  0  0  0  0  0
  -23.3860  -31.9420   23.6570 O   0  0  0  0  0  0  0  0  0  0  0  0
  -22.6780  -29.2290   22.4330 C   0  0  0  0  0  0  0  0  0  0  0  0
  -21.3500  -29.1240   22.2760 N   0  0  0  0  0  0  0  0  0  0  0  0
  -23.3100  -28.5500   23.2460 O   0  0  0  0  0  0  0  0  0  0  0  0
  -20.9060  -29.7210   21.5920 H   0  0  0  0  0  0  0  0  0  0  0  0
  -17.8900  -28.2240   22.8030 C   0  0  0  0  0  0  0  0  0  0  0  0
  -20.4660  -28.2220   23.0140 C   0  0  0  0  0  3  0  0  0  0  0  0
  -20.4180  -26.8260   22.3510 C   0  0  0  0  0  2  0  0  0  0  0  0
  -19.2660  -26.6700   21.3540 C   0  0  0  0  0  2  0  0  0  0  0  0
  -17.9210  -26.9060   22.0460 C   0  0  0  0  0  2  0  0  0  0  0  0
  -19.0870  -28.8500   23.2440 C   0  0  0  0  0  0  0  0  0  0  0  0
  -19.0050  -30.0900   23.9130 C   0  0  0  0  0  3  0  0  0  0  0  0
  -17.7590  -30.7010   24.1480 C   0  0  0  0  0  3  0  0  0  0  0  0
  -16.5770  -30.0710   23.7210 C   0  0  0  0  0  3  0  0  0  0  0  0
  -16.6440  -28.8330   23.0560 C   0  0  0  0  0  3  0  0  0  0  0  0
  -25.7440  -32.2880   23.8970 C   0  0  0  0  0  3  0  0  0  0  0  0
  -26.1540  -31.5510   25.2310 C   0  0  1  0  0  0  0  0  0  0  0  0
  -24.9790  -31.3430   26.2160 C   0  0  0  0  0  1  0  0  0  0  0  0
  -26.7610  -30.1630   24.9200 C   0  0  0  0  0  1  0  0  0  0  0  0
  -27.2530  -32.3600   25.9610 C   0  0  0  0  0  1  0  0  0  0  0  0
  -25.4300  -33.6990   24.1600 N   0  0  0  0  0  0  0  0  0  0  0  0
  -25.8600  -34.7260   23.4150 C   0  0  0  0  0  0  0  0  0  0  0  0
  -26.6310  -34.5830   22.4610 O   0  0  0  0  0  0  0  0  0  0  0  0
  -24.7610  -33.8840   24.8940 H   0  0  0  0  0  0  0  0  0  0  0  0
  -24.2070  -36.5320   22.8390 C   0  0  0  0  0  1  0  0  0  0  0  0
  -25.3540  -36.1330   23.7830 C   0  0  0  0  0  3  0  0  0  0  0  0
  -27.4120  -37.0040   24.7980 C   0  0  0  0  0  1  0  0  0  0  0  0
  -26.4100  -37.1660   23.7480 N   0  0  0  0  0  0  0  0  0  0  0  0
  -26.0100  -38.0960   23.8330 H   0  0  0  0  0  0  0  0  0  0  0  0
  1  4  1  0
  2  5  2  0
  3  2  1  0
  3  1  2  0
  4  6  2  0
  4  7  1  0
  5  8  1  0
  5  6  1  0
  6 59  1  0
  9  8  1  0
 10  3  1  0
 11 10  1  0
 12 13  1  0
 12 11  1  0
 14 13  1  0
 14 15  1  0
 15 16  1  0
 16 17  1  0
 17 19  1  0
 18 17  2  0
 19 20  1  0
 20 21  1  0
 21 22  1  0
 23 21  1  0
 24 29  1  0
 25 26  1  0
 25 24  1  0
 27 26  1  0
 27 34  1  0
 27 28  1  0
 29 23  1  0
 29 28  1  0
 30 23  2  0
 31 32  2  0
 32 33  1  0
 32 51  1  0
 33 36  1  0
 34 31  1  0
 34 35  1  0
 35 33  2  0
 36 37  1  0
 37 38  2  0
 39 42  1  0
 39 38  1  0
 40 39  2  0
 41 40  1  0
 41 36  2  0
 42 43  1  0
 43 48  2  0
 43 44  1  0
 44 45  2  0
 45 46  1  0
 46 50  1  0
 47 46  2  0
 48 47  1  0
 49 48  1  0
 51 52  1  0
 52 55  1  0
 52 54  1  0
 53 51  2  0
 56 57  1  0
 56 31  1  0
 58 56  1  0
 60 71  2  0
 61 59  1  0
 61 66  1  0
 62 70  1  0
 62 72  1  0
 63 65  1  0
 64 70  1  0
 65 66  2  0
 65 64  1  0
 67 61  2  0
 68 67  1  0
 68 63  2  0
 69 63  1  0
 69 62  1  0
 70 60  1  0
 72 74  2  0
 73 72  1  0
 75 73  1  0
 76 85  2  0
 76 81  1  0
 77 73  1  0
 77 81  1  0
 78 77  1  0
 79 80  1  0
 79 78  1  0
 80 76  1  0
 81 82  2  0
 82 83  1  0
 84 83  2  0
 85 84  1  0
 86 60  1  0
 86 91  1  0
 86 87  1  0
 87 90  1  1
 87 88  1  0
 89 87  1  0
 91 94  1  0
 92 96  1  0
 92 91  1  0
 93 92  2  0
 96 95  1  0
 98 96  1  0
 98 99  1  0
 98 97  1  0
M  ISO  4   6 101  21 100  23 100  59 101
M  END
>  <TORSDO>  (17) 
F 28

>  <SCORE>  (17) 
-10.733

>  <name>  (17) 
16

>  <ligand_id>  (17) 
16

>  <original_smiles>  (17) 
[H]Oc1c([H])c(C([H])([H])C([H])([H])C([H])([H])C([H])([H])C([H])([H])C([H])([H])C([H])([H])C(=O)C([H])([H])C([H])([H])C([H])(F)C(=O)N2C([H])([H])C([H])([H])C([H])([H])C([H])(n3nc(-c4c([H])c([H])c(Oc5c([H])c([H])c(F)c([H])c5F)c([H])c4[H])c(C(=O)N([H])[H])c3N([H])[H])C2([H])[H])c([H])c(C([H])([H])[H])c1Oc1c([H])c([H])c2c(c1[H])C([H])([H])N(C(=O)C([H])(N([H])C(=O)C([H])(N([H])C([H])([H])[H])C([H])([H])[H])C(C([H])([H])[H])(C([H])([H])[H])C([H])([H])[H])C([H])(C(=O)N([H])C1([H])c3c([H])c([H])c([H])c([H])c3C([H])([H])C([H])([H])C1([H])[H])C2([H])[H]

>  <smiles>  (17) 
[H]Oc1c([H])c(C([H])([H])C([H])([H])C([H])([H])C([H])([H])C([H])([H])C([H])([H])C([H])([H])C(=O)C([H])([H])C([H])([H])C([H])(F)C(=O)N2C([H])([H])C([H])([H])C([H])([H])C([H])(n3nc(-c4c([H])c([H])c(Oc5c([H])c([H])c(F)c([H])c5F)c([H])c4[H])c(C(=O)N([H])[H])c3N([H])[H])C2([H])[H])c([H])c(C([H])([H])[H])c1Oc1c([H])c([H])c2c(c1[H])C([H])([H])N(C(=O)C([H])(N([H])C(=O)C([H])(N([H])C([H])([H])[H])C([H])([H])[H])C(C([H])([H])[H])(C([H])([H])[H])C([H])([H])[H])C([H])(C(=O)N([H])C1([H])c3c([H])c([H])c([H])c([H])c3C([H])([H])C([H])([H])C1([H])[H])C2([H])[H]

$$$$
17:0:0
     RDKit          3D

 94102  0  0  1  0  0  0  0  0999 V2000
  -29.7500  -23.8130   19.2100 C   0  0  0  0  0  3  0  0  0  0  0  0
  -29.3490  -22.4930   19.4900 C   0  0  0  0  0  3  0  0  0  0  0  0
  -31.2800  -23.7420   21.1000 C   0  0  0  0  0  3  0  0  0  0  0  0
  -30.7100  -24.4470   20.0220 C   0  0  0  0  0  0  0  0  0  0  0  0
  -29.9000  -21.7890   20.5800 C   0  0  0  0  0  0  0  0  0  0  0  0
  -30.8880  -22.4160   21.3850 C   0  0  0  0  0  0  0  0  0  0  0  0
  -31.1220  -25.8820   19.7360 C   0  0  0  0  0  2  0  0  0  0  0  0
  -30.0840  -26.9150   20.2090 C   0  0  0  0  0  2  0  0  0  0  0  0
  -28.8760  -26.7110   19.4840 O   0  0  0  0  0  0  0  0  0  0  0  0
  -25.4410  -31.3430   23.7210 C   0  0  0  0  0  0  0  0  0  0  0  0
  -27.8040  -27.5380   19.7350 C   0  0  0  0  0  0  0  0  0  0  0  0
  -24.1610  -30.4590   21.7960 C   0  0  0  0  0  3  0  0  0  0  0  0
  -25.5190  -29.1650   20.0690 C   0  0  0  0  0  0  0  0  0  0  0  0
  -26.7060  -30.6490   21.6970 C   0  0  0  0  0  2  0  0  0  0  0  0
  -26.6960  -29.4520   20.7730 C   0  0  0  0  0  0  0  0  0  0  0  0
  -27.8380  -28.6420   20.6160 C   0  0  0  0  0  3  0  0  0  0  0  0
  -26.6130  -27.2570   19.0360 C   0  0  0  0  0  3  0  0  0  0  0  0
  -25.4690  -28.0620   19.1990 C   0  0  0  0  0  3  0  0  0  0  0  0
  -24.3460  -30.0890   20.2980 C   0  0  0  0  0  2  0  0  0  0  0  0
  -25.4530  -30.8150   22.4650 N   0  0  0  0  0  0  0  0  0  0  0  0
  -24.3730  -31.5770   24.3060 O   0  0  0  0  0  0  0  0  0  0  0  0
  -23.4050  -29.3050   22.4960 C   0  0  0  0  0  0  0  0  0  0  0  0
  -22.0770  -29.2620   22.3090 N   0  0  0  0  0  0  0  0  0  0  0  0
  -24.0140  -28.4650   23.1640 O   0  0  0  0  0  0  0  0  0  0  0  0
  -21.6540  -29.9930   21.7530 H   0  0  0  0  0  0  0  0  0  0  0  0
  -18.6120  -28.2540   22.4410 C   0  0  0  0  0  0  0  0  0  0  0  0
  -21.1660  -28.2480   22.8380 C   0  0  0  0  0  3  0  0  0  0  0  0
  -21.1960  -26.9680   21.9730 C   0  0  0  0  0  2  0  0  0  0  0  0
  -20.1220  -26.9510   20.8810 C   0  0  0  0  0  2  0  0  0  0  0  0
  -18.7250  -27.0670   21.5000 C   0  0  0  0  0  2  0  0  0  0  0  0
  -19.7600  -28.8190   23.0560 C   0  0  0  0  0  0  0  0  0  0  0  0
  -19.6060  -29.9440   23.8950 C   0  0  0  0  0  3  0  0  0  0  0  0
  -18.3330  -30.5000   24.1260 C   0  0  0  0  0  3  0  0  0  0  0  0
  -17.1980  -29.9270   23.5290 C   0  0  0  0  0  3  0  0  0  0  0  0
  -17.3370  -28.8050   22.6910 C   0  0  0  0  0  3  0  0  0  0  0  0
  -26.7620  -31.7020   24.4740 C   0  0  0  0  0  3  0  0  0  0  0  0
  -27.2020  -30.6040   25.5180 C   0  0  1  0  0  0  0  0  0  0  0  0
  -26.0800  -30.2000   26.5030 C   0  0  0  0  0  1  0  0  0  0  0  0
  -27.6810  -29.3260   24.7910 C   0  0  0  0  0  1  0  0  0  0  0  0
  -28.4010  -31.1210   26.3470 C   0  0  0  0  0  1  0  0  0  0  0  0
  -26.5560  -32.9970   25.1350 N   0  0  0  0  0  0  0  0  0  0  0  0
  -26.9690  -34.1740   24.6460 C   0  0  0  0  0  0  0  0  0  0  0  0
  -27.6360  -34.2740   23.6120 O   0  0  0  0  0  0  0  0  0  0  0  0
  -25.9730  -32.9960   25.9590 H   0  0  0  0  0  0  0  0  0  0  0  0
  -25.3820  -36.1190   24.7480 C   0  0  0  0  0  1  0  0  0  0  0  0
  -26.5800  -35.4420   25.4300 C   0  0  0  0  0  3  0  0  0  0  0  0
  -28.7630  -35.9380   26.4360 C   0  0  0  0  0  1  0  0  0  0  0  0
  -27.6870  -36.4110   25.5690 N   0  0  0  0  0  0  0  0  0  0  0  0
  -27.3470  -37.2930   25.9440 H   0  0  0  0  0  0  0  0  0  0  0  0
  -31.5410  -21.7140   22.5670 C   0  0  0  0  0  2  0  0  0  0  0  0
  -30.9150  -22.1410   23.9040 C   0  0  0  0  0  2  0  0  0  0  0  0
  -31.1790  -22.1750   26.4430 C   0  0  0  0  0  1  0  0  0  0  0  0
  -31.6800  -21.5910   25.1170 C   0  0  0  0  0  2  0  0  0  0  0  0
  -29.3950  -20.3780   20.8550 C   0  0  0  0  0  2  0  0  0  0  0  0
  -30.2620  -19.2970   20.1880 C   0  0  0  0  0  2  0  0  0  0  0  0
  -29.9050  -17.8860   20.6780 C   0  0  0  0  0  2  0  0  0  0  0  0
  -30.7610  -16.7820   20.0350 C   0  0  0  0  0  2  0  0  0  0  0  0
  -30.4400  -15.3880   20.6160 C   0  0  0  0  0  2  0  0  0  0  0  0
  -31.0100  -14.2150   19.7920 C   0  0  0  0  0  0  0  0  0  0  0  0
  -30.5640  -12.0630   18.6630 C   0  0  0  0  0  2  0  0  0  0  0  0
  -29.5390  -12.2870   17.5320 C   0  0  0  0  0  2  0  0  0  0  0  0
  -28.0960  -12.2100   18.0730 C   0  0  0  0  0  2  0  0  0  0  0  0
  -27.8860  -13.0750   19.3450 C   0  0  0  0  0  3  0  0  0  0  0  0
  -29.0100  -12.8100   20.3710 C   0  0  0  0  0  2  0  0  0  0  0  0
  -30.2990  -13.0610   19.7060 N   0  0  0  0  0  0  0  0  0  0  0  0
  -32.0630  -14.3900   19.1690 O   0  0  0  0  0  0  0  0  0  0  0  0
  -25.5760  -13.7920   20.2350 C   0  0  0  0  0  0  0  0  0  0  0  0
  -24.5060  -13.0660   20.6880 C   0  0  0  0  0  0  0  0  0  0  0  0
  -24.9040  -11.6950   20.6200 C   0  0  0  0  0  0  0  0  0  0  0  0
  -26.5610  -12.8650   19.9250 N   0  0  0  0  0  0  0  0  0  0  0  0
  -26.1620  -11.5990   20.2110 N   0  0  0  0  0  0  0  0  0  0  0  0
  -24.1420  -10.4640   20.8670 C   0  0  0  0  0  0  0  0  0  0  0  0
  -24.5530   -9.5240   21.8380 C   0  0  0  0  0  3  0  0  0  0  0  0
  -23.7940   -8.3570   22.0690 C   0  0  0  0  0  3  0  0  0  0  0  0
  -22.6110   -8.1210   21.3300 C   0  0  0  0  0  0  0  0  0  0  0  0
  -22.2190   -9.0490   20.3490 C   0  0  0  0  0  3  0  0  0  0  0  0
  -22.9780  -10.2080   20.1160 C   0  0  0  0  0  3  0  0  0  0  0  0
  -21.8250   -7.0020   21.4690 O   0  0  0  0  0  0  0  0  0  0  0  0
  -21.6800   -6.3690   22.6780 C   0  0  0  0  0  0  0  0  0  0  0  0
  -21.1780   -7.0390   23.8140 C   0  0  0  0  0  3  0  0  0  0  0  0
  -20.9800   -6.3340   25.0180 C   0  0  0  0  0  3  0  0  0  0  0  0
  -21.2750   -4.9580   25.0850 C   0  0  0  0  0  0  0  0  0  0  0  0
  -21.7700   -4.2880   23.9530 C   0  0  0  0  0  3  0  0  0  0  0  0
  -21.9690   -4.9920   22.7530 C   0  0  0  0  0  0  0  0  0  0  0  0
  -22.4270   -4.3360   21.6580 F   0  0  0  0  0  0  0  0  0  0  0  0
  -21.0770   -4.2780   26.2380 F   0  0  0  0  0  0  0  0  0  0  0  0
  -23.1570  -13.6010   21.0710 C   0  0  0  0  0  0  0  0  0  0  0  0
  -22.4820  -12.9460   22.0100 N   0  0  0  0  0  0  0  0  0  0  0  0
  -22.7130  -14.6340   20.5720 O   0  0  0  0  0  0  0  0  0  0  0  0
  -22.8540  -12.1090   22.4330 H   0  0  0  0  0  0  0  0  0  0  0  0
  -21.5780  -13.2870   22.3070 H   0  0  0  0  0  0  0  0  0  0  0  0
  -25.7900  -15.1540   20.0440 N   0  0  0  0  0  0  0  0  0  0  0  0
  -25.0710  -15.8480   20.2130 H   0  0  0  0  0  0  0  0  0  0  0  0
  -26.6390  -15.5480   19.6570 H   0  0  0  0  0  0  0  0  0  0  0  0
  1  2  2  0
  1  4  1  0
  2  5  1  0
  3  6  1  0
  4  3  2  0
  5 54  1  0
  5  6  2  0
  6 50  1  0
  7  4  1  0
  7  8  1  0
  9 11  1  0
  9  8  1  0
 10 21  2  0
 11 16  1  0
 12 20  1  0
 12 22  1  0
 13 19  1  0
 13 15  1  0
 14 20  1  0
 15 14  1  0
 16 15  2  0
 17 18  1  0
 17 11  2  0
 18 13  2  0
 19 12  1  0
 20 10  1  0
 22 24  2  0
 23 22  1  0
 25 23  1  0
 26 35  2  0
 26 31  1  0
 27 23  1  0
 27 31  1  0
 28 27  1  0
 29 30  1  0
 29 28  1  0
 30 26  1  0
 31 32  2  0
 32 33  1  0
 34 33  2  0
 35 34  1  0
 36 10  1  0
 36 41  1  0
 36 37  1  0
 37 40  1  1
 37 38  1  0
 39 37  1  0
 41 44  1  0
 42 41  1  0
 42 46  1  0
 43 42  2  0
 46 45  1  0
 46 48  1  0
 48 49  1  0
 48 47  1  0
 50 51  1  0
 51 53  1  0
 53 52  1  0
 55 56  1  0
 55 54  1  0
 57 58  1  0
 57 56  1  0
 59 58  1  0
 60 65  1  0
 61 62  1  0
 61 60  1  0
 63 62  1  0
 63 70  1  0
 63 64  1  0
 65 59  1  0
 65 64  1  0
 66 59  2  0
 67 68  2  0
 68 87  1  0
 69 68  1  0
 69 72  1  0
 70 71  1  0
 70 67  1  0
 71 69  2  0
 72 73  1  0
 73 74  2  0
 75 78  1  0
 75 74  1  0
 76 75  2  0
 77 76  1  0
 77 72  2  0
 78 79  1  0
 79 84  2  0
 79 80  1  0
 80 81  2  0
 81 82  1  0
 82 86  1  0
 83 82  2  0
 84 83  1  0
 85 84  1  0
 87 88  1  0
 88 91  1  0
 88 90  1  0
 89 87  2  0
 92 93  1  0
 92 67  1  0
 94 92  1  0
M  ISO  4   8 101   9 101  58 100  59 100
M  END
>  <TORSDO>  (18) 
F 26

>  <SCORE>  (18) 
-7.597

>  <name>  (18) 
17

>  <ligand_id>  (18) 
17

>  <original_smiles>  (18) 
[H]c1c([H])c([H])c2c(c1[H])C([H])([H])C([H])([H])C([H])([H])C2([H])N([H])C(=O)C1([H])N(C(=O)C([H])(N([H])C(=O)C([H])(N([H])C([H])([H])[H])C([H])([H])[H])C(C([H])([H])[H])(C([H])([H])[H])C([H])([H])[H])C([H])([H])c2c([H])c(OC([H])([H])C([H])([H])c3c([H])c([H])c(C([H])([H])C([H])([H])C([H])([H])C([H])([H])C([H])([H])C(=O)N4C([H])([H])C([H])([H])C([H])([H])C([H])(n5nc(-c6c([H])c([H])c(Oc7c([H])c([H])c(F)c([H])c7F)c([H])c6[H])c(C(=O)N([H])[H])c5N([H])[H])C4([H])[H])c(C([H])([H])C([H])([H])C([H])([H])C([H])([H])[H])c3[H])c([H])c([H])c2C1([H])[H]

>  <smiles>  (18) 
[H]c1c([H])c([H])c2c(c1[H])C([H])([H])C([H])([H])C([H])([H])C2([H])N([H])C(=O)C1([H])N(C(=O)C([H])(N([H])C(=O)C([H])(N([H])C([H])([H])[H])C([H])([H])[H])C(C([H])([H])[H])(C([H])([H])[H])C([H])([H])[H])C([H])([H])c2c([H])c(OC([H])([H])C([H])([H])c3c([H])c([H])c(C([H])([H])C([H])([H])C([H])([H])C([H])([H])C([H])([H])C(=O)N4C([H])([H])C([H])([H])C([H])([H])C([H])(n5nc(-c6c([H])c([H])c(Oc7c([H])c([H])c(F)c([H])c7F)c([H])c6[H])c(C(=O)N([H])[H])c5N([H])[H])C4([H])[H])c(C([H])([H])C([H])([H])C([H])([H])C([H])([H])[H])c3[H])c([H])c([H])c2C1([H])[H]

$$$$
18:0:0
     RDKit          3D

 94103  0  0  1  0  0  0  0  0999 V2000
  -28.4880  -23.2620   19.6880 C   0  0  0  0  0  3  0  0  0  0  0  0
  -28.1290  -24.5500   20.1210 C   0  0  0  0  0  3  0  0  0  0  0  0
  -30.0600  -24.2430   18.1020 C   0  0  0  0  0  3  0  0  0  0  0  0
  -29.4730  -23.1030   18.6870 C   0  0  0  0  0  0  0  0  0  0  0  0
  -29.6990  -25.5350   18.5280 C   0  0  0  0  0  0  0  0  0  0  0  0
  -28.7260  -25.6870   19.5430 C   0  0  0  0  0  0  0  0  0  0  0  0
  -30.4080  -26.7380   17.9290 C   0  0  0  0  0  1  0  0  0  0  0  0
  -28.4850  -26.9230   20.0710 O   0  0  0  0  0  0  0  0  0  0  0  0
  -24.5920  -31.8880   23.2440 C   0  0  0  0  0  0  0  0  0  0  0  0
  -27.2410  -27.5120   20.1050 C   0  0  0  0  0  0  0  0  0  0  0  0
  -23.3670  -30.4840   21.6110 C   0  0  0  0  0  3  0  0  0  0  0  0
  -24.8100  -28.9440   20.1760 C   0  0  0  0  0  0  0  0  0  0  0  0
  -25.8820  -30.8620   21.3830 C   0  0  0  0  0  2  0  0  0  0  0  0
  -25.9650  -29.4930   20.7470 C   0  0  0  0  0  0  0  0  0  0  0  0
  -27.1750  -28.7770   20.7160 C   0  0  0  0  0  3  0  0  0  0  0  0
  -26.0700  -26.9540   19.5440 C   0  0  0  0  0  3  0  0  0  0  0  0
  -24.8510  -27.6670   19.5850 C   0  0  0  0  0  3  0  0  0  0  0  0
  -23.5620  -29.7940   20.2330 C   0  0  0  0  0  2  0  0  0  0  0  0
  -24.6320  -31.0920   22.1390 N   0  0  0  0  0  0  0  0  0  0  0  0
  -23.5190  -32.1590   23.7990 O   0  0  0  0  0  0  0  0  0  0  0  0
  -22.7280  -29.4650   22.5810 C   0  0  0  0  0  0  0  0  0  0  0  0
  -21.4050  -29.2770   22.4600 N   0  0  0  0  0  0  0  0  0  0  0  0
  -23.4210  -28.8430   23.3910 O   0  0  0  0  0  0  0  0  0  0  0  0
  -20.9090  -29.8280   21.7740 H   0  0  0  0  0  0  0  0  0  0  0  0
  -18.0410  -28.0660   22.9670 C   0  0  0  0  0  0  0  0  0  0  0  0
  -20.5970  -28.3390   23.2370 C   0  0  0  0  0  3  0  0  0  0  0  0
  -20.7090  -26.9060   22.6680 C   0  0  0  0  0  2  0  0  0  0  0  0
  -19.6080  -26.5720   21.6560 C   0  0  0  0  0  2  0  0  0  0  0  0
  -18.2260  -26.7130   22.3000 C   0  0  0  0  0  2  0  0  0  0  0  0
  -19.1550  -28.8360   23.3930 C   0  0  0  0  0  0  0  0  0  0  0  0
  -18.9320  -30.1040   23.9730 C   0  0  0  0  0  3  0  0  0  0  0  0
  -17.6240  -30.6010   24.1340 C   0  0  0  0  0  3  0  0  0  0  0  0
  -16.5250  -29.8270   23.7260 C   0  0  0  0  0  3  0  0  0  0  0  0
  -16.7320  -28.5620   23.1480 C   0  0  0  0  0  3  0  0  0  0  0  0
  -25.8890  -32.5160   23.8470 C   0  0  0  0  0  3  0  0  0  0  0  0
  -26.4320  -31.7380   25.1080 C   0  0  1  0  0  0  0  0  0  0  0  0
  -25.3610  -31.4980   26.1980 C   0  0  0  0  0  1  0  0  0  0  0  0
  -27.0050  -30.3620   24.6960 C   0  0  0  0  0  1  0  0  0  0  0  0
  -27.5980  -32.5260   25.7500 C   0  0  0  0  0  1  0  0  0  0  0  0
  -25.5860  -33.9120   24.1860 N   0  0  0  0  0  0  0  0  0  0  0  0
  -25.9120  -34.9660   23.4270 C   0  0  0  0  0  0  0  0  0  0  0  0
  -26.5710  -34.8670   22.3870 O   0  0  0  0  0  0  0  0  0  0  0  0
  -25.0010  -34.0650   24.9950 H   0  0  0  0  0  0  0  0  0  0  0  0
  -24.1780  -36.7570   23.0980 C   0  0  0  0  0  1  0  0  0  0  0  0
  -25.4290  -36.3530   23.8930 C   0  0  0  0  0  3  0  0  0  0  0  0
  -27.5750  -37.2330   24.6980 C   0  0  0  0  0  1  0  0  0  0  0  0
  -26.4590  -37.4070   23.7720 N   0  0  0  0  0  0  0  0  0  0  0  0
  -26.0550  -38.3260   23.9320 H   0  0  0  0  0  0  0  0  0  0  0  0
  -29.9900  -21.7420   18.2540 C   0  0  0  0  0  2  0  0  0  0  0  0
  -29.1480  -20.5200   18.6730 C   0  0  0  0  0  2  0  0  0  0  0  0
  -28.7660  -18.0630   17.9660 C   0  0  0  0  0  2  0  0  0  0  0  0
  -31.0380  -18.7890   18.9840 C   0  0  0  0  0  2  0  0  0  0  0  0
  -28.5730  -17.1530   19.1900 C   0  0  0  0  0  2  0  0  0  0  0  0
  -30.7420  -17.8660   20.1850 C   0  0  0  0  0  2  0  0  0  0  0  0
  -29.7840  -19.2110   18.1670 C   0  0  0  0  0  3  0  0  0  0  0  0
  -29.9450  -16.6610   19.6740 C   0  0  0  0  0  3  0  0  0  0  0  0
  -30.6580  -14.4530   20.4450 C   0  0  0  0  0  0  0  0  0  0  0  0
  -30.3510  -12.2870   19.3640 C   0  0  0  0  0  2  0  0  0  0  0  0
  -29.4240  -12.5140   18.1470 C   0  0  0  0  0  2  0  0  0  0  0  0
  -27.9460  -12.3860   18.5640 C   0  0  0  0  0  2  0  0  0  0  0  0
  -27.6060  -13.2330   19.8210 C   0  0  0  0  0  3  0  0  0  0  0  0
  -28.6490  -13.0270   20.9450 C   0  0  0  0  0  2  0  0  0  0  0  0
  -29.9880  -13.2780   20.3850 N   0  0  0  0  0  0  0  0  0  0  0  0
  -31.8240  -14.5910   20.0630 O   0  0  0  0  0  0  0  0  0  0  0  0
  -29.8600  -15.5240   20.5970 N   0  0  0  0  0  0  0  0  0  0  0  0
  -28.9550  -15.3340   20.9980 H   0  0  0  0  0  0  0  0  0  0  0  0
  -25.2070  -13.8670   20.5050 C   0  0  0  0  0  0  0  0  0  0  0  0
  -24.1310  -13.1040   20.8730 C   0  0  0  0  0  0  0  0  0  0  0  0
  -24.5850  -11.7500   20.8560 C   0  0  0  0  0  0  0  0  0  0  0  0
  -26.2480  -12.9770   20.2900 N   0  0  0  0  0  0  0  0  0  0  0  0
  -25.8750  -11.6990   20.5560 N   0  0  0  0  0  0  0  0  0  0  0  0
  -23.8520  -10.4920   21.0520 C   0  0  0  0  0  0  0  0  0  0  0  0
  -24.2910   -9.5200   21.9780 C   0  0  0  0  0  3  0  0  0  0  0  0
  -23.5600   -8.3270   22.1640 C   0  0  0  0  0  3  0  0  0  0  0  0
  -22.3760   -8.0990   21.4240 C   0  0  0  0  0  0  0  0  0  0  0  0
  -21.9540   -9.0610   20.4880 C   0  0  0  0  0  3  0  0  0  0  0  0
  -22.6870  -10.2450   20.3000 C   0  0  0  0  0  3  0  0  0  0  0  0
  -21.6170   -6.9590   21.5170 O   0  0  0  0  0  0  0  0  0  0  0  0
  -21.5920   -6.2010   22.6600 C   0  0  0  0  0  0  0  0  0  0  0  0
  -21.2240   -6.7480   23.9080 C   0  0  0  0  0  3  0  0  0  0  0  0
  -21.1460   -5.9190   25.0450 C   0  0  0  0  0  3  0  0  0  0  0  0
  -21.4280   -4.5440   24.9350 C   0  0  0  0  0  0  0  0  0  0  0  0
  -21.7930   -3.9970   23.6910 C   0  0  0  0  0  3  0  0  0  0  0  0
  -21.8700   -4.8230   22.5570 C   0  0  0  0  0  0  0  0  0  0  0  0
  -22.2000   -4.2880   21.3570 F   0  0  0  0  0  0  0  0  0  0  0  0
  -21.3450   -3.7450   26.0230 F   0  0  0  0  0  0  0  0  0  0  0  0
  -22.7350  -13.5910   21.1340 C   0  0  0  0  0  0  0  0  0  0  0  0
  -22.0000  -12.9130   22.0080 N   0  0  0  0  0  0  0  0  0  0  0  0
  -22.3030  -14.6110   20.5980 O   0  0  0  0  0  0  0  0  0  0  0  0
  -22.3570  -12.0870   22.4650 H   0  0  0  0  0  0  0  0  0  0  0  0
  -21.0640  -13.2250   22.2220 H   0  0  0  0  0  0  0  0  0  0  0  0
  -25.3820  -15.2350   20.3130 N   0  0  0  0  0  0  0  0  0  0  0  0
  -24.6220  -15.9000   20.4060 H   0  0  0  0  0  0  0  0  0  0  0  0
  -26.2330  -15.6600   19.9700 H   0  0  0  0  0  0  0  0  0  0  0  0
  1  2  1  0
  3  5  2  0
  3  4  1  0
  4  1  2  0
  5  6  1  0
  6  8  1  0
  6  2  2  0
  7  5  1  0
  8 10  1  0
  9 20  2  0
 10 15  1  0
 11 19  1  0
 11 21  1  0
 12 18  1  0
 12 14  1  0
 13 19  1  0
 14 13  1  0
 15 14  2  0
 16 17  1  0
 16 10  2  0
 17 12  2  0
 18 11  1  0
 19  9  1  0
 21 23  2  0
 22 21  1  0
 24 22  1  0
 25 34  2  0
 25 30  1  0
 26 22  1  0
 26 30  1  0
 27 26  1  0
 28 29  1  0
 28 27  1  0
 29 25  1  0
 30 31  2  0
 31 32  1  0
 33 32  2  0
 34 33  1  0
 35  9  1  0
 35 40  1  0
 35 36  1  0
 36 39  1  1
 36 37  1  0
 38 36  1  0
 40 43  1  0
 41 45  1  0
 41 40  1  0
 42 41  2  0
 45 44  1  0
 47 45  1  0
 47 48  1  0
 47 46  1  0
 49 50  1  0
 49  4  1  0
 51 55  1  0
 51 53  1  0
 52 54  1  0
 53 56  1  0
 55 50  1  0
 55 52  1  0
 56 54  1  0
 56 65  1  0
 57 65  1  0
 58 63  1  0
 59 60  1  0
 59 58  1  0
 61 60  1  0
 61 70  1  0
 61 62  1  0
 63 57  1  0
 63 62  1  0
 64 57  2  0
 65 66  1  0
 67 68  2  0
 68 87  1  0
 69 68  1  0
 69 72  1  0
 70 67  1  0
 70 71  1  0
 71 69  2  0
 72 73  1  0
 73 74  2  0
 75 78  1  0
 75 74  1  0
 76 75  2  0
 77 76  1  0
 77 72  2  0
 78 79  1  0
 79 80  1  0
 80 81  2  0
 82 81  1  0
 82 86  1  0
 83 82  2  0
 84 79  2  0
 84 83  1  0
 85 84  1  0
 87 88  1  0
 88 91  1  0
 88 90  1  0
 89 87  2  0
 92 93  1  0
 92 67  1  0
 94 92  1  0
M  ISO  4   6 101   8 101  57 100  65 100
M  END
>  <TORSDO>  (19) 
F 19

>  <SCORE>  (19) 
-14.307

>  <name>  (19) 
18

>  <ligand_id>  (19) 
18

>  <original_smiles>  (19) 
[H]c1c([H])c([H])c2c(c1[H])C([H])([H])C([H])([H])C([H])([H])C2([H])N([H])C(=O)C1([H])N(C(=O)C([H])(N([H])C(=O)C([H])(N([H])C([H])([H])[H])C([H])([H])[H])C(C([H])([H])[H])(C([H])([H])[H])C([H])([H])[H])C([H])([H])c2c([H])c(Oc3c([H])c([H])c(C([H])([H])C([H])([H])C4([H])C([H])([H])C([H])([H])C([H])(N([H])C(=O)N5C([H])([H])C([H])([H])C([H])([H])C([H])(n6nc(-c7c([H])c([H])c(Oc8c([H])c([H])c(F)c([H])c8F)c([H])c7[H])c(C(=O)N([H])[H])c6N([H])[H])C5([H])[H])C([H])([H])C4([H])[H])c([H])c3C([H])([H])[H])c([H])c([H])c2C1([H])[H]

>  <smiles>  (19) 
[H]c1c([H])c([H])c2c(c1[H])C([H])([H])C([H])([H])C([H])([H])C2([H])N([H])C(=O)C1([H])N(C(=O)C([H])(N([H])C(=O)C([H])(N([H])C([H])([H])[H])C([H])([H])[H])C(C([H])([H])[H])(C([H])([H])[H])C([H])([H])[H])C([H])([H])c2c([H])c(Oc3c([H])c([H])c(C([H])([H])C([H])([H])C4([H])C([H])([H])C([H])([H])C([H])(N([H])C(=O)N5C([H])([H])C([H])([H])C([H])([H])C([H])(n6nc(-c7c([H])c([H])c(Oc8c([H])c([H])c(F)c([H])c8F)c([H])c7[H])c(C(=O)N([H])[H])c6N([H])[H])C5([H])[H])C([H])([H])C4([H])[H])c([H])c3C([H])([H])[H])c([H])c([H])c2C1([H])[H]

$$$$
19:0:0
     RDKit          3D

 95103  0  0  1  0  0  0  0  0999 V2000
  -27.1840  -22.6280   18.6880 C   0  0  0  0  0  1  0  0  0  0  0  0
  -28.6190  -22.2760   19.1330 C   0  0  0  0  0  3  0  0  0  0  0  0
  -29.1860  -23.2080   20.1540 N   0  0  0  0  0  4  0  0  0  0  0  0
  -28.5730  -23.2450   20.9540 H   0  0  0  0  0  0  0  0  0  0  0  0
  -30.0490  -22.8020   20.4780 H   0  0  0  0  0  0  0  0  0  0  0  0
  -29.5250  -24.5970   19.7360 C   0  0  0  0  0  2  0  0  0  0  0  0
  -28.2740  -25.4540   19.5340 C   0  0  0  0  0  2  0  0  0  0  0  0
  -28.3810  -26.8100   19.9710 O   0  0  0  0  0  0  0  0  0  0  0  0
  -24.5680  -31.8980   23.1680 C   0  0  0  0  0  0  0  0  0  0  0  0
  -27.1940  -27.5200   19.9910 C   0  0  0  0  0  0  0  0  0  0  0  0
  -23.3480  -30.5120   21.5290 C   0  0  0  0  0  3  0  0  0  0  0  0
  -24.7890  -29.0100   20.0680 C   0  0  0  0  0  0  0  0  0  0  0  0
  -25.8680  -30.8930   21.2970 C   0  0  0  0  0  2  0  0  0  0  0  0
  -25.9550  -29.5300   20.6440 C   0  0  0  0  0  0  0  0  0  0  0  0
  -27.1580  -28.7920   20.6050 C   0  0  0  0  0  3  0  0  0  0  0  0
  -25.9970  -27.0190   19.4120 C   0  0  0  0  0  3  0  0  0  0  0  0
  -24.8030  -27.7530   19.4530 C   0  0  0  0  0  3  0  0  0  0  0  0
  -23.5430  -29.8580   20.1380 C   0  0  0  0  0  2  0  0  0  0  0  0
  -24.6160  -31.1130   22.0570 N   0  0  0  0  0  0  0  0  0  0  0  0
  -23.4910  -32.1530   23.7270 O   0  0  0  0  0  0  0  0  0  0  0  0
  -22.7170  -29.4690   22.4790 C   0  0  0  0  0  0  0  0  0  0  0  0
  -21.3920  -29.2860   22.3700 N   0  0  0  0  0  0  0  0  0  0  0  0
  -23.4170  -28.8280   23.2680 O   0  0  0  0  0  0  0  0  0  0  0  0
  -20.8900  -29.8520   21.7030 H   0  0  0  0  0  0  0  0  0  0  0  0
  -18.0260  -28.0980   22.9090 C   0  0  0  0  0  0  0  0  0  0  0  0
  -20.5870  -28.3400   23.1410 C   0  0  0  0  0  3  0  0  0  0  0  0
  -20.6760  -26.9190   22.5360 C   0  0  0  0  0  2  0  0  0  0  0  0
  -19.5570  -26.6170   21.5380 C   0  0  0  0  0  2  0  0  0  0  0  0
  -18.1870  -26.7580   22.2090 C   0  0  0  0  0  2  0  0  0  0  0  0
  -19.1540  -28.8470   23.3330 C   0  0  0  0  0  0  0  0  0  0  0  0
  -18.9520  -30.1040   23.9440 C   0  0  0  0  0  3  0  0  0  0  0  0
  -17.6520  -30.6080   24.1400 C   0  0  0  0  0  3  0  0  0  0  0  0
  -16.5370  -29.8520   23.7380 C   0  0  0  0  0  3  0  0  0  0  0  0
  -16.7250  -28.6000   23.1260 C   0  0  0  0  0  3  0  0  0  0  0  0
  -25.8580  -32.5330   23.7750 C   0  0  0  0  0  3  0  0  0  0  0  0
  -25.5410  -33.9190   24.1400 N   0  0  0  0  0  0  0  0  0  0  0  0
  -25.8420  -34.9890   23.3920 C   0  0  0  0  0  0  0  0  0  0  0  0
  -26.4910  -34.9150   22.3460 O   0  0  0  0  0  0  0  0  0  0  0  0
  -24.9760  -34.0510   24.9660 H   0  0  0  0  0  0  0  0  0  0  0  0
  -24.0830  -36.7580   23.1000 C   0  0  0  0  0  1  0  0  0  0  0  0
  -25.3430  -36.3600   23.8850 C   0  0  0  0  0  3  0  0  0  0  0  0
  -27.4830  -37.2540   24.6920 C   0  0  0  0  0  1  0  0  0  0  0  0
  -26.3580  -37.4300   23.7750 N   0  0  0  0  0  0  0  0  0  0  0  0
  -25.9440  -38.3400   23.9510 H   0  0  0  0  0  0  0  0  0  0  0  0
  -26.4060  -31.7390   25.0220 C   0  0  1  0  0  0  0  0  0  0  0  0
  -25.3370  -31.4650   26.1030 C   0  0  0  0  0  1  0  0  0  0  0  0
  -26.9900  -30.3760   24.5820 C   0  0  0  0  0  1  0  0  0  0  0  0
  -27.5620  -32.5270   25.6830 C   0  0  0  0  0  1  0  0  0  0  0  0
  -28.6060  -20.8340   19.6860 C   0  0  0  0  0  2  0  0  0  0  0  0
  -29.9430  -20.1010   19.5270 C   0  0  0  0  0  2  0  0  0  0  0  0
  -29.6500  -16.3190   19.0700 C   0  0  0  0  0  3  0  0  0  0  0  0
  -30.2220  -15.8310   20.2610 C   0  0  0  0  0  0  0  0  0  0  0  0
  -29.4990  -17.6950   18.8460 C   0  0  0  0  0  0  0  0  0  0  0  0
  -30.4790  -16.7280   21.3320 C   0  0  0  0  0  0  0  0  0  0  0  0
  -30.2670  -18.1240   21.1410 C   0  0  0  0  0  0  0  0  0  0  0  0
  -29.8680  -18.6120   19.8630 C   0  0  0  0  0  0  0  0  0  0  0  0
  -29.0470  -18.1450   17.4620 C   0  0  0  0  0  1  0  0  0  0  0  0
  -31.0920  -16.2090   22.6340 C   0  0  0  0  0  1  0  0  0  0  0  0
  -30.5690  -19.0990   22.2800 C   0  0  0  0  0  1  0  0  0  0  0  0
  -30.8730  -14.4840   20.1760 C   0  0  0  0  0  0  0  0  0  0  0  0
  -30.4120  -12.3710   19.0550 C   0  0  0  0  0  2  0  0  0  0  0  0
  -29.4550  -12.6430   17.8790 C   0  0  0  0  0  2  0  0  0  0  0  0
  -27.9910  -12.5560   18.3500 C   0  0  0  0  0  2  0  0  0  0  0  0
  -27.7080  -13.3770   19.6380 C   0  0  0  0  0  3  0  0  0  0  0  0
  -28.7980  -13.1590   20.7100 C   0  0  0  0  0  2  0  0  0  0  0  0
  -30.1140  -13.3640   20.0920 N   0  0  0  0  0  0  0  0  0  0  0  0
  -32.0550  -14.5280   19.8360 O   0  0  0  0  0  0  0  0  0  0  0  0
  -25.3400  -13.9910   20.4360 C   0  0  0  0  0  0  0  0  0  0  0  0
  -24.2760  -13.2220   20.8280 C   0  0  0  0  0  0  0  0  0  0  0  0
  -24.7280  -11.8660   20.7740 C   0  0  0  0  0  0  0  0  0  0  0  0
  -26.3710  -13.1050   20.1650 N   0  0  0  0  0  0  0  0  0  0  0  0
  -26.0080  -11.8230   20.4280 N   0  0  0  0  0  0  0  0  0  0  0  0
  -23.9980  -10.6070   20.9740 C   0  0  0  0  0  0  0  0  0  0  0  0
  -24.4360   -9.6380   21.9050 C   0  0  0  0  0  3  0  0  0  0  0  0
  -23.7040   -8.4450   22.0920 C   0  0  0  0  0  3  0  0  0  0  0  0
  -22.5230   -8.2110   21.3480 C   0  0  0  0  0  0  0  0  0  0  0  0
  -22.1060   -9.1690   20.4080 C   0  0  0  0  0  3  0  0  0  0  0  0
  -22.8370  -10.3530   20.2180 C   0  0  0  0  0  3  0  0  0  0  0  0
  -21.7620   -7.0710   21.4460 O   0  0  0  0  0  0  0  0  0  0  0  0
  -21.7010   -6.3420   22.6070 C   0  0  0  0  0  0  0  0  0  0  0  0
  -21.2820   -6.9190   23.8270 C   0  0  0  0  0  3  0  0  0  0  0  0
  -21.1660   -6.1180   24.9810 C   0  0  0  0  0  3  0  0  0  0  0  0
  -21.4600   -4.7430   24.9160 C   0  0  0  0  0  0  0  0  0  0  0  0
  -21.8720   -4.1670   23.7010 C   0  0  0  0  0  3  0  0  0  0  0  0
  -21.9890   -4.9640   22.5510 C   0  0  0  0  0  0  0  0  0  0  0  0
  -22.3650   -4.3990   21.3770 F   0  0  0  0  0  0  0  0  0  0  0  0
  -21.3410   -3.9720   26.0220 F   0  0  0  0  0  0  0  0  0  0  0  0
  -22.8910  -13.7050   21.1420 C   0  0  0  0  0  0  0  0  0  0  0  0
  -22.1910  -13.0190   22.0390 N   0  0  0  0  0  0  0  0  0  0  0  0
  -22.4380  -14.7270   20.6280 O   0  0  0  0  0  0  0  0  0  0  0  0
  -22.5700  -12.1920   22.4760 H   0  0  0  0  0  0  0  0  0  0  0  0
  -21.2610  -13.3240   22.2890 H   0  0  0  0  0  0  0  0  0  0  0  0
  -25.5130  -15.3600   20.2670 N   0  0  0  0  0  0  0  0  0  0  0  0
  -24.7700  -16.0320   20.4170 H   0  0  0  0  0  0  0  0  0  0  0  0
  -26.3810  -15.7900   19.9670 H   0  0  0  0  0  0  0  0  0  0  0  0
  2  1  1  0
  2 49  1  0
  2  3  1  0
  3  5  1  0
  3  4  1  0
  6  3  1  0
  7  6  1  0
  7  8  1  0
  8 10  1  0
  9 20  2  0
 10 15  1  0
 11 19  1  0
 11 21  1  0
 12 18  1  0
 12 14  1  0
 13 19  1  0
 14 13  1  0
 15 14  2  0
 16 17  1  0
 16 10  2  0
 17 12  2  0
 18 11  1  0
 19  9  1  0
 21 23  2  0
 22 21  1  0
 24 22  1  0
 25 34  2  0
 25 30  1  0
 26 22  1  0
 26 30  1  0
 27 26  1  0
 28 29  1  0
 28 27  1  0
 29 25  1  0
 30 31  2  0
 31 32  1  0
 33 32  2  0
 34 33  1  0
 35  9  1  0
 35 36  1  0
 35 45  1  0
 36 39  1  0
 37 41  1  0
 37 36  1  0
 38 37  2  0
 41 40  1  0
 43 41  1  0
 43 44  1  0
 43 42  1  0
 45 48  1  1
 45 46  1  0
 47 45  1  0
 50 49  1  0
 50 56  1  0
 51 52  1  0
 52 54  2  0
 53 51  2  0
 53 56  1  0
 54 58  1  0
 55 54  1  0
 55 59  1  0
 56 55  2  0
 57 53  1  0
 60 52  1  0
 61 66  1  0
 62 63  1  0
 62 61  1  0
 64 63  1  0
 64 71  1  0
 64 65  1  0
 66 60  1  0
 66 65  1  0
 67 60  2  0
 68 69  2  0
 69 88  1  0
 70 69  1  0
 70 73  1  0
 71 72  1  0
 71 68  1  0
 72 70  2  0
 73 74  1  0
 74 75  2  0
 76 79  1  0
 76 75  1  0
 77 76  2  0
 78 77  1  0
 78 73  2  0
 79 80  1  0
 80 81  1  0
 81 82  2  0
 83 82  1  0
 83 87  1  0
 84 83  2  0
 85 80  2  0
 85 84  1  0
 86 85  1  0
 88 89  1  0
 89 92  1  0
 89 91  1  0
 90 88  2  0
 93 94  1  0
 93 68  1  0
 95 93  1  0
M  ISO  4   7 101   8 101  52 100  60 100
M  END
>  <TORSDO>  (20) 
F 22

>  <SCORE>  (20) 
-12.597

>  <name>  (20) 
19

>  <ligand_id>  (20) 
19

>  <original_smiles>  (20) 
[H]c1c([H])c([H])c2c(c1[H])C([H])([H])C([H])([H])C([H])([H])C2([H])N([H])C(=O)C1([H])N(C(=O)C([H])(N([H])C(=O)C([H])(N([H])C([H])([H])[H])C([H])([H])[H])C(C([H])([H])[H])(C([H])([H])[H])C([H])([H])[H])C([H])([H])c2c([H])c(OC([H])([H])C([H])([H])[N+]([H])([H])C([H])(C([H])([H])[H])C([H])([H])C([H])([H])c3c(C([H])([H])[H])c([H])c(C(=O)N4C([H])([H])C([H])([H])C([H])([H])C([H])(n5nc(-c6c([H])c([H])c(Oc7c([H])c([H])c(F)c([H])c7F)c([H])c6[H])c(C(=O)N([H])[H])c5N([H])[H])C4([H])[H])c(C([H])([H])[H])c3C([H])([H])[H])c([H])c([H])c2C1([H])[H]

>  <smiles>  (20) 
[H]c1c([H])c([H])c2c(c1[H])C([H])([H])C([H])([H])C([H])([H])C2([H])N([H])C(=O)C1([H])N(C(=O)C([H])(N([H])C(=O)C([H])(N([H])C([H])([H])[H])C([H])([H])[H])C(C([H])([H])[H])(C([H])([H])[H])C([H])([H])[H])C([H])([H])c2c([H])c(OC([H])([H])C([H])([H])[N+]([H])([H])C([H])(C([H])([H])[H])C([H])([H])C([H])([H])c3c(C([H])([H])[H])c([H])c(C(=O)N4C([H])([H])C([H])([H])C([H])([H])C([H])(n5nc(-c6c([H])c([H])c(Oc7c([H])c([H])c(F)c([H])c7F)c([H])c6[H])c(C(=O)N([H])[H])c5N([H])[H])C4([H])[H])c(C([H])([H])[H])c3C([H])([H])[H])c([H])c([H])c2C1([H])[H]

$$$$
20:0:0
     RDKit          3D

100108  0  0  1  0  0  0  0  0999 V2000
  -26.8060  -22.5130   20.3800 C   0  0  0  0  0  2  0  0  0  0  0  0
  -28.2220  -23.1290   20.4660 C   0  0  0  0  0  2  0  0  0  0  0  0
  -28.8420  -23.0910   21.8930 C   0  0  0  0  0  2  0  0  0  0  0  0
  -30.3250  -23.5550   22.1070 C   0  0  0  0  0  2  0  0  0  0  0  0
  -30.6800  -25.0560   21.8600 C   0  0  0  0  0  3  0  0  0  0  0  0
  -31.2980  -25.1760   20.5070 N   0  0  0  0  0  0  0  0  0  0  0  0
  -32.7270  -24.9260   20.6690 O   0  0  0  0  0  1  0  0  0  0  0  0
  -30.9420  -24.5050   19.8080 H   0  0  0  0  0  0  0  0  0  0  0  0
  -29.4150  -25.9800   22.2210 C   0  0  0  0  0  2  0  0  0  0  0  0
  -29.5900  -27.3260   22.5860 O   0  0  0  0  0  0  0  0  0  0  0  0
  -24.3950  -28.1990   27.3330 C   0  0  0  0  0  0  0  0  0  0  0  0
  -28.3290  -27.8480   22.8040 C   0  0  0  0  0  0  0  0  0  0  0  0
  -23.8720  -28.9620   25.0290 C   0  0  0  0  0  3  0  0  0  0  0  0
  -25.8370  -28.9970   23.4070 C   0  0  0  0  0  0  0  0  0  0  0  0
  -26.2870  -28.8900   25.8610 C   0  0  0  0  0  2  0  0  0  0  0  0
  -26.7040  -28.6100   24.4400 C   0  0  0  0  0  0  0  0  0  0  0  0
  -27.9420  -28.0110   24.1310 C   0  0  0  0  0  3  0  0  0  0  0  0
  -27.3930  -28.1540   21.7660 C   0  0  0  0  0  3  0  0  0  0  0  0
  -26.1660  -28.7540   22.0650 C   0  0  0  0  0  3  0  0  0  0  0  0
  -24.5460  -29.6600   23.8150 C   0  0  0  0  0  2  0  0  0  0  0  0
  -24.8520  -28.6410   26.1240 N   0  0  0  0  0  0  0  0  0  0  0  0
  -23.1780  -28.0960   27.5570 O   0  0  0  0  0  0  0  0  0  0  0  0
  -23.1050  -27.7190   24.5180 C   0  0  0  0  0  0  0  0  0  0  0  0
  -22.0240  -27.9610   23.7570 N   0  0  0  0  0  0  0  0  0  0  0  0
  -23.4900  -26.5800   24.7850 O   0  0  0  0  0  0  0  0  0  0  0  0
  -21.7490  -28.9240   23.6250 H   0  0  0  0  0  0  0  0  0  0  0  0
  -19.2360  -27.4940   21.5090 C   0  0  0  0  0  0  0  0  0  0  0  0
  -21.1650  -26.9510   23.1420 C   0  0  0  0  0  3  0  0  0  0  0  0
  -21.8650  -26.2850   21.9370 C   0  0  0  0  0  2  0  0  0  0  0  0
  -21.5380  -26.9640   20.6030 C   0  0  0  0  0  2  0  0  0  0  0  0
  -20.0290  -26.9400   20.3380 C   0  0  0  0  0  2  0  0  0  0  0  0
  -19.7710  -27.5170   22.8220 C   0  0  0  0  0  0  0  0  0  0  0  0
  -19.0050  -28.0750   23.8690 C   0  0  0  0  0  3  0  0  0  0  0  0
  -17.7240  -28.6030   23.6210 C   0  0  0  0  0  3  0  0  0  0  0  0
  -17.1900  -28.5730   22.3230 C   0  0  0  0  0  3  0  0  0  0  0  0
  -17.9420  -28.0120   21.2720 C   0  0  0  0  0  3  0  0  0  0  0  0
  -25.3700  -27.8270   28.4890 C   0  0  0  0  0  3  0  0  0  0  0  0
  -24.9640  -28.5670   29.6920 N   0  0  0  0  0  0  0  0  0  0  0  0
  -25.5930  -29.6590   30.1650 C   0  0  0  0  0  0  0  0  0  0  0  0
  -26.6320  -30.1020   29.6700 O   0  0  0  0  0  0  0  0  0  0  0  0
  -24.0910  -28.2980   30.1280 H   0  0  0  0  0  0  0  0  0  0  0  0
  -24.1990  -31.6150   30.9090 C   0  0  0  0  0  1  0  0  0  0  0  0
  -24.9650  -30.3660   31.3780 C   0  0  0  0  0  3  0  0  0  0  0  0
  -26.5210  -29.5790   33.1100 C   0  0  0  0  0  1  0  0  0  0  0  0
  -25.9370  -30.7350   32.4310 N   0  0  0  0  0  0  0  0  0  0  0  0
  -25.4870  -31.3030   33.1430 H   0  0  0  0  0  0  0  0  0  0  0  0
  -25.4490  -26.2720   28.7710 C   0  0  1  0  0  0  0  0  0  0  0  0
  -24.0720  -25.5940   28.9580 C   0  0  0  0  0  1  0  0  0  0  0  0
  -26.1310  -25.5450   27.5870 C   0  0  0  0  0  1  0  0  0  0  0  0
  -26.2980  -26.0160   30.0330 C   0  0  0  0  0  1  0  0  0  0  0  0
  -26.8080  -20.9990   20.6910 C   0  0  0  0  0  2  0  0  0  0  0  0
  -25.7390  -20.2650   19.9720 N   0  0  0  0  0  4  0  0  0  0  0  0
  -24.8440  -20.5710   20.3190 H   0  0  0  0  0  0  0  0  0  0  0  0
  -25.7510  -20.4780   18.9880 H   0  0  0  0  0  0  0  0  0  0  0  0
  -25.8040  -18.8010   20.1550 C   0  0  0  0  0  2  0  0  0  0  0  0
  -25.9530  -18.0100   18.8470 C   0  0  0  0  0  2  0  0  0  0  0  0
  -29.7190  -18.4030   18.0850 C   0  0  0  0  0  3  0  0  0  0  0  0
  -29.0720  -16.1090   17.6690 C   0  0  0  0  0  3  0  0  0  0  0  0
  -28.3670  -18.7540   18.2980 C   0  0  0  0  0  3  0  0  0  0  0  0
  -27.7350  -16.4290   17.9860 C   0  0  0  0  0  3  0  0  0  0  0  0
  -30.1030  -17.0590   17.8130 C   0  0  0  0  0  0  0  0  0  0  0  0
  -27.3760  -17.7490   18.3250 C   0  0  0  0  0  0  0  0  0  0  0  0
  -31.5220  -16.5900   17.8490 C   0  0  0  0  0  3  0  0  0  0  0  0
  -31.9070  -15.2960   17.7230 C   0  0  0  0  0  3  0  0  0  0  0  0
  -33.2490  -14.7780   17.9690 C   0  0  0  0  0  0  0  0  0  0  0  0
  -34.3360  -12.9340   19.2380 C   0  0  0  0  0  2  0  0  0  0  0  0
  -33.6550  -11.6190   18.7810 C   0  0  0  0  0  2  0  0  0  0  0  0
  -32.3660  -11.3460   19.5870 C   0  0  0  0  0  2  0  0  0  0  0  0
  -31.4280  -12.5950   19.6500 C   0  0  0  0  0  3  0  0  0  0  0  0
  -32.2520  -13.8330   20.0760 C   0  0  0  0  0  2  0  0  0  0  0  0
  -33.3350  -14.0060   19.0810 N   0  0  0  0  0  0  0  0  0  0  0  0
  -34.1580  -14.8450   17.1210 O   0  0  0  0  0  0  0  0  0  0  0  0
  -29.8340  -13.1110   21.6310 C   0  0  0  0  0  0  0  0  0  0  0  0
  -28.7210  -12.4570   22.0880 C   0  0  0  0  0  0  0  0  0  0  0  0
  -28.5380  -11.3250   21.2290 C   0  0  0  0  0  0  0  0  0  0  0  0
  -30.2910  -12.3550   20.5470 N   0  0  0  0  0  0  0  0  0  0  0  0
  -29.5190  -11.2680   20.3400 N   0  0  0  0  0  0  0  0  0  0  0  0
  -27.4580  -10.3330   21.1570 C   0  0  0  0  0  0  0  0  0  0  0  0
  -27.4860   -9.1580   21.9340 C   0  0  0  0  0  3  0  0  0  0  0  0
  -26.4290   -8.2290   21.8670 C   0  0  0  0  0  3  0  0  0  0  0  0
  -25.3290   -8.4700   21.0160 C   0  0  0  0  0  0  0  0  0  0  0  0
  -25.3170   -9.6280   20.2130 C   0  0  0  0  0  3  0  0  0  0  0  0
  -26.3800  -10.5500   20.2840 C   0  0  0  0  0  3  0  0  0  0  0  0
  -24.2700   -7.6020   20.8660 O   0  0  0  0  0  0  0  0  0  0  0  0
  -23.5280   -7.1750   21.9410 C   0  0  0  0  0  0  0  0  0  0  0  0
  -22.7880   -8.0830   22.7430 C   0  0  0  0  0  3  0  0  0  0  0  0
  -21.9680   -7.5890   23.7840 C   0  0  0  0  0  3  0  0  0  0  0  0
  -21.8930   -6.1980   24.0280 C   0  0  0  0  0  0  0  0  0  0  0  0
  -22.6290   -5.3060   23.2250 C   0  0  0  0  0  3  0  0  0  0  0  0
  -23.4350   -5.7960   22.1820 C   0  0  0  0  0  0  0  0  0  0  0  0
  -24.1180   -4.9240   21.4020 F   0  0  0  0  0  0  0  0  0  0  0  0
  -21.1120   -5.7270   25.0230 F   0  0  0  0  0  0  0  0  0  0  0  0
  -27.8060  -12.8990   23.1960 C   0  0  0  0  0  0  0  0  0  0  0  0
  -27.1990  -11.9530   23.8990 N   0  0  0  0  0  0  0  0  0  0  0  0
  -27.6540  -14.0940   23.4670 O   0  0  0  0  0  0  0  0  0  0  0  0
  -27.3450  -10.9750   23.6820 H   0  0  0  0  0  0  0  0  0  0  0  0
  -26.5580  -12.1880   24.6400 H   0  0  0  0  0  0  0  0  0  0  0  0
  -30.4700  -14.2790   22.0120 N   0  0  0  0  0  0  0  0  0  0  0  0
  -30.1100  -14.8190   22.8030 H   0  0  0  0  0  0  0  0  0  0  0  0
  -31.1970  -14.7470   21.5030 H   0  0  0  0  0  0  0  0  0  0  0  0
  1  2  1  0
  1 51  1  0
  2  3  1  0
  3  4  1  0
  5  4  1  0
  5  9  1  0
  6  7  1  0
  6  5  1  0
  8  6  1  0
  9 10  1  0
 10 12  1  0
 11 22  2  0
 12 17  1  0
 13 23  1  0
 13 21  1  0
 14 20  1  0
 14 16  1  0
 15 21  1  0
 16 15  1  0
 17 16  2  0
 18 19  1  0
 18 12  2  0
 19 14  2  0
 20 13  1  0
 21 11  1  0
 23 25  2  0
 24 23  1  0
 26 24  1  0
 27 32  1  0
 28 24  1  0
 29 28  1  0
 30 29  1  0
 31 30  1  0
 31 27  1  0
 32 28  1  0
 32 33  2  0
 34 33  1  0
 35 34  2  0
 36 27  2  0
 36 35  1  0
 37 11  1  0
 37 47  1  0
 37 38  1  0
 38 41  1  0
 38 39  1  0
 39 43  1  0
 40 39  2  0
 43 42  1  0
 43 45  1  0
 45 44  1  0
 45 46  1  0
 47 48  1  1
 47 50  1  0
 49 47  1  0
 52 55  1  0
 52 53  1  0
 52 51  1  0
 54 52  1  0
 56 55  1  0
 57 59  1  0
 58 61  1  0
 58 60  2  0
 59 62  2  0
 60 62  1  0
 61 63  1  0
 61 57  2  0
 62 56  1  0
 64 63  2  0
 64 65  1  0
 65 71  1  0
 67 66  1  0
 67 68  1  0
 69 68  1  0
 69 70  1  0
 69 76  1  0
 71 66  1  0
 71 70  1  0
 72 65  2  0
 73 98  1  0
 73 74  2  0
 74 93  1  0
 75 74  1  0
 76 73  1  0
 77 76  1  0
 77 75  2  0
 78 75  1  0
 78 79  1  0
 80 79  2  0
 81 80  1  0
 82 83  1  0
 82 81  2  0
 83 78  2  0
 84 81  1  0
 84 85  1  0
 85 90  2  0
 85 86  1  0
 86 87  2  0
 87 88  1  0
 88 92  1  0
 89 88  2  0
 90 89  1  0
 91 90  1  0
 93 95  2  0
 93 94  1  0
 94 97  1  0
 96 94  1  0
 98 99  1  0
100 98  1  0
M  ISO  4   9 101  10 101  64 100  65 100
M  END
>  <TORSDO>  (21) 
F 28

>  <SCORE>  (21) 
12.304

>  <name>  (21) 
20

>  <ligand_id>  (21) 
20

>  <original_smiles>  (21) 
[H]C(C(=O)N1C([H])([H])C([H])([H])C([H])([H])C([H])(n2nc(-c3c([H])c([H])c(Oc4c([H])c([H])c(F)c([H])c4F)c([H])c3[H])c(C(=O)N([H])[H])c2N([H])[H])C1([H])[H])=C([H])c1c([H])c([H])c(C([H])([H])C([H])([H])[N+]([H])([H])C([H])([H])C([H])([H])C([H])([H])C([H])([H])C([H])([H])C([H])(N([H])[O-])C([H])([H])Oc2c([H])c([H])c3c(c2[H])C([H])([H])N(C(=O)C([H])(N([H])C(=O)C([H])(N([H])C([H])([H])[H])C([H])([H])[H])C(C([H])([H])[H])(C([H])([H])[H])C([H])([H])[H])C([H])(C(=O)N([H])C2([H])c4c([H])c([H])c([H])c([H])c4C([H])([H])C([H])([H])C2([H])[H])C3([H])[H])c([H])c1[H]

>  <smiles>  (21) 
[H]C(C(=O)N1C([H])([H])C([H])([H])C([H])([H])C([H])(n2nc(-c3c([H])c([H])c(Oc4c([H])c([H])c(F)c([H])c4F)c([H])c3[H])c(C(=O)N([H])[H])c2N([H])[H])C1([H])[H])=C([H])c1c([H])c([H])c(C([H])([H])C([H])([H])[N+]([H])([H])C([H])([H])C([H])([H])C([H])([H])C([H])([H])C([H])([H])C([H])(N([H])[O-])C([H])([H])Oc2c([H])c([H])c3c(c2[H])C([H])([H])N(C(=O)C([H])(N([H])C(=O)C([H])(N([H])C([H])([H])[H])C([H])([H])[H])C(C([H])([H])[H])(C([H])([H])[H])C([H])([H])[H])C([H])(C(=O)N([H])C2([H])c4c([H])c([H])c([H])c([H])c4C([H])([H])C([H])([H])C2([H])[H])C3([H])[H])c([H])c1[H]

$$$$
21:0:0
     RDKit          3D

 89 98  0  0  1  0  0  0  0  0999 V2000
  -30.2410  -15.8120   20.2900 C   0  0  0  0  0  0  0  0  0  0  0  0
  -30.3850  -13.2300   19.5020 C   0  0  0  0  0  2  0  0  0  0  0  0
  -29.5270  -12.6820   18.3240 C   0  0  0  0  0  2  0  0  0  0  0  0
  -28.1220  -12.2930   18.7980 C   0  0  0  0  0  2  0  0  0  0  0  0
  -27.5660  -13.3300   19.7960 C   0  0  0  0  0  3  0  0  0  0  0  0
  -28.5760  -13.7590   20.8890 C   0  0  0  0  0  2  0  0  0  0  0  0
  -29.7010  -14.4350   20.1880 N   0  0  0  0  0  0  0  0  0  0  0  0
  -31.4830  -15.6590   20.2590 O   0  0  0  0  0  0  0  0  0  0  0  0
  -30.0820  -21.7400   21.0140 C   0  0  0  0  0  3  0  0  0  0  0  0
  -29.5180  -20.4680   20.5350 C   0  0  0  0  0  0  0  0  0  0  0  0
  -28.3040  -20.8630   19.9140 C   0  0  0  0  0  3  0  0  0  0  0  0
  -29.5810  -23.1630   20.9060 C   0  0  0  0  0  0  0  0  0  0  0  0
  -28.3690  -23.7270   20.2730 C   0  0  0  0  0  0  0  0  0  0  0  0
  -27.7810  -22.3650   19.7700 C   0  0  0  0  0  0  0  0  0  0  0  0
  -27.7580  -19.4370   19.3630 C   0  0  0  0  0  3  0  0  0  0  0  0
  -30.1890  -18.8220   20.5970 C   0  0  0  0  0  3  0  0  0  0  0  0
  -28.1920  -17.8480   19.8930 C   0  0  0  0  0  3  0  0  0  0  0  0
  -30.4990  -24.2060   21.5170 C   0  0  0  0  0  1  0  0  0  0  0  0
  -29.6010  -17.2880   20.2780 N   0  0  0  0  0  0  0  0  0  0  0  0
  -26.6370  -22.4850   19.0500 F   0  0  0  0  0  0  0  0  0  0  0  0
  -25.2050  -13.8340   20.5580 C   0  0  0  0  0  0  0  0  0  0  0  0
  -24.1520  -13.0440   20.9170 C   0  0  0  0  0  0  0  0  0  0  0  0
  -24.6370  -11.6990   20.8950 C   0  0  0  0  0  0  0  0  0  0  0  0
  -26.2580  -12.9740   20.3240 N   0  0  0  0  0  0  0  0  0  0  0  0
  -25.9330  -11.6820   20.5960 N   0  0  0  0  0  0  0  0  0  0  0  0
  -23.9200  -10.4290   21.0800 C   0  0  0  0  0  0  0  0  0  0  0  0
  -24.3560   -9.4610   22.0100 C   0  0  0  0  0  3  0  0  0  0  0  0
  -23.6330   -8.2610   22.1870 C   0  0  0  0  0  3  0  0  0  0  0  0
  -22.4600   -8.0210   21.4340 C   0  0  0  0  0  0  0  0  0  0  0  0
  -22.0420   -8.9780   20.4920 C   0  0  0  0  0  3  0  0  0  0  0  0
  -22.7660  -10.1690   20.3140 C   0  0  0  0  0  3  0  0  0  0  0  0
  -21.7090   -6.8740   21.5210 O   0  0  0  0  0  0  0  0  0  0  0  0
  -21.6730   -6.1220   22.6690 C   0  0  0  0  0  0  0  0  0  0  0  0
  -21.2750   -6.6720   23.9070 C   0  0  0  0  0  3  0  0  0  0  0  0
  -21.1850   -5.8490   25.0460 C   0  0  0  0  0  3  0  0  0  0  0  0
  -21.4830   -4.4760   24.9490 C   0  0  0  0  0  0  0  0  0  0  0  0
  -21.8730   -3.9250   23.7160 C   0  0  0  0  0  3  0  0  0  0  0  0
  -21.9640   -4.7460   22.5780 C   0  0  0  0  0  0  0  0  0  0  0  0
  -22.3210   -4.2070   21.3880 F   0  0  0  0  0  0  0  0  0  0  0  0
  -21.3890   -3.6820   26.0410 F   0  0  0  0  0  0  0  0  0  0  0  0
  -22.7460  -13.5070   21.1640 C   0  0  0  0  0  0  0  0  0  0  0  0
  -22.0170  -12.8140   22.0310 N   0  0  0  0  0  0  0  0  0  0  0  0
  -22.3050  -14.5200   20.6210 O   0  0  0  0  0  0  0  0  0  0  0  0
  -22.3880  -11.9960   22.4890 H   0  0  0  0  0  0  0  0  0  0  0  0
  -21.0730  -13.1080   22.2400 H   0  0  0  0  0  0  0  0  0  0  0  0
  -25.3540  -15.2060   20.3760 N   0  0  0  0  0  0  0  0  0  0  0  0
  -24.5810  -15.8550   20.4800 H   0  0  0  0  0  0  0  0  0  0  0  0
  -26.2060  -15.6490   20.0580 H   0  0  0  0  0  0  0  0  0  0  0  0
  -28.1720  -25.3780   20.1630 O   0  0  0  0  0  0  0  0  0  0  0  0
  -24.6740  -31.8140   23.1090 C   0  0  0  0  0  0  0  0  0  0  0  0
  -27.1590  -26.5940   20.1870 C   0  0  0  0  0  0  0  0  0  0  0  0
  -23.4810  -30.3980   21.4940 C   0  0  0  0  0  3  0  0  0  0  0  0
  -24.9130  -28.7010   20.1130 C   0  0  0  0  0  0  0  0  0  0  0  0
  -26.0630  -30.4950   21.3790 C   0  0  0  0  0  2  0  0  0  0  0  0
  -26.1140  -29.0410   20.7450 C   0  0  0  0  0  0  0  0  0  0  0  0
  -27.2160  -28.0170   20.7480 C   0  0  0  0  0  3  0  0  0  0  0  0
  -25.9260  -26.4920   19.4900 C   0  0  0  0  0  3  0  0  0  0  0  0
  -24.8630  -27.4530   19.4640 C   0  0  0  0  0  3  0  0  0  0  0  0
  -23.7180  -29.6740   20.1380 C   0  0  0  0  0  2  0  0  0  0  0  0
  -24.7660  -30.9390   22.0460 N   0  0  0  0  0  0  0  0  0  0  0  0
  -23.5790  -32.1290   23.6110 O   0  0  0  0  0  0  0  0  0  0  0  0
  -22.7540  -29.4440   22.4810 C   0  0  0  0  0  0  0  0  0  0  0  0
  -21.4180  -29.3130   22.3740 N   0  0  0  0  0  0  0  0  0  0  0  0
  -23.4070  -28.8170   23.3180 O   0  0  0  0  0  0  0  0  0  0  0  0
  -20.9390  -29.8690   21.6780 H   0  0  0  0  0  0  0  0  0  0  0  0
  -18.0170  -28.1580   22.9430 C   0  0  0  0  0  0  0  0  0  0  0  0
  -20.5860  -28.3940   23.1630 C   0  0  0  0  0  3  0  0  0  0  0  0
  -20.6560  -26.9570   22.5960 C   0  0  0  0  0  2  0  0  0  0  0  0
  -19.5360  -26.6460   21.5980 C   0  0  0  0  0  2  0  0  0  0  0  0
  -18.1660  -26.8080   22.2620 C   0  0  0  0  0  2  0  0  0  0  0  0
  -19.1520  -28.9100   23.3520 C   0  0  0  0  0  0  0  0  0  0  0  0
  -18.9540  -30.1700   23.9540 C   0  0  0  0  0  3  0  0  0  0  0  0
  -17.6560  -30.6810   24.1490 C   0  0  0  0  0  3  0  0  0  0  0  0
  -16.5370  -29.9270   23.7520 C   0  0  0  0  0  3  0  0  0  0  0  0
  -16.7190  -28.6670   23.1560 C   0  0  0  0  0  3  0  0  0  0  0  0
  -25.9350  -32.4740   23.7450 C   0  0  0  0  0  3  0  0  0  0  0  0
  -25.5970  -33.8670   24.1050 N   0  0  0  0  0  0  0  0  0  0  0  0
  -25.9140  -34.9520   23.3850 C   0  0  0  0  0  0  0  0  0  0  0  0
  -26.5750  -34.8870   22.3470 O   0  0  0  0  0  0  0  0  0  0  0  0
  -25.0090  -33.9900   24.9160 H   0  0  0  0  0  0  0  0  0  0  0  0
  -24.1630  -36.7470   23.1200 C   0  0  0  0  0  1  0  0  0  0  0  0
  -25.4240  -36.3260   23.8930 C   0  0  0  0  0  3  0  0  0  0  0  0
  -27.5680  -37.2120   24.7060 C   0  0  0  0  0  1  0  0  0  0  0  0
  -26.4440  -37.3940   23.7900 N   0  0  0  0  0  0  0  0  0  0  0  0
  -26.0310  -38.3040   23.9750 H   0  0  0  0  0  0  0  0  0  0  0  0
  -26.4520  -31.7090   25.0270 C   0  0  1  0  0  0  0  0  0  0  0  0
  -25.3580  -31.4750   26.0970 C   0  0  0  0  0  1  0  0  0  0  0  0
  -27.0390  -30.3310   24.6520 C   0  0  0  0  0  1  0  0  0  0  0  0
  -27.6030  -32.5070   25.6860 C   0  0  0  0  0  1  0  0  0  0  0  0
  2  7  1  0
  3  4  1  0
  3  2  1  0
  5  4  1  0
  5 24  1  0
  5  6  1  0
  7  1  1  0
  7  6  1  0
  8  1  2  0
 10 16  2  0
 10  9  1  0
 11 15  1  0
 11 10  1  0
 12  9  2  0
 12 18  1  0
 13 12  1  0
 14 11  1  0
 14 13  2  0
 15 17  2  0
 17 19  1  0
 19  1  1  0
 19 16  1  0
 20 14  1  0
 21 22  2  0
 22 41  1  0
 23 22  1  0
 23 26  1  0
 24 21  1  0
 24 25  1  0
 25 23  2  0
 26 27  1  0
 27 28  2  0
 29 32  1  0
 29 28  1  0
 30 29  2  0
 31 30  1  0
 31 26  2  0
 32 33  1  0
 33 34  1  0
 34 35  2  0
 36 35  1  0
 36 40  1  0
 37 36  2  0
 38 33  2  0
 38 37  1  0
 39 38  1  0
 41 42  1  0
 42 45  1  0
 42 44  1  0
 43 41  2  0
 46 47  1  0
 46 21  1  0
 48 46  1  0
 49 51  1  0
 49 13  1  0
 50 61  2  0
 51 56  1  0
 52 60  1  0
 52 62  1  0
 53 59  1  0
 53 55  1  0
 54 60  1  0
 55 56  2  0
 55 54  1  0
 57 51  2  0
 58 57  1  0
 58 53  2  0
 59 52  1  0
 60 50  1  0
 62 64  2  0
 63 62  1  0
 65 63  1  0
 66 75  2  0
 66 71  1  0
 67 63  1  0
 67 71  1  0
 68 67  1  0
 69 70  1  0
 69 68  1  0
 70 66  1  0
 71 72  2  0
 72 73  1  0
 74 73  2  0
 75 74  1  0
 76 50  1  0
 76 77  1  0
 76 86  1  0
 77 80  1  0
 78 82  1  0
 78 77  1  0
 79 78  2  0
 82 81  1  0
 84 82  1  0
 84 85  1  0
 84 83  1  0
 86 89  1  1
 86 87  1  0
 88 86  1  0
M  ISO  4   1 100  13 101  19 100  49 101
M  END
>  <TORSDO>  (22) 
F 15

>  <SCORE>  (22) 
-16.884

>  <name>  (22) 
21

>  <ligand_id>  (22) 
21

>  <original_smiles>  (22) 
[H]c1c([H])c([H])c2c(c1[H])C([H])([H])C([H])([H])C([H])([H])C2([H])N([H])C(=O)C1([H])N(C(=O)C([H])(N([H])C(=O)C([H])(N([H])C([H])([H])[H])C([H])([H])[H])C(C([H])([H])[H])(C([H])([H])[H])C([H])([H])[H])C([H])([H])c2c([H])c(Oc3c(F)c4c(c([H])c3C([H])([H])[H])C([H])([H])N(C(=O)N3C([H])([H])C([H])([H])C([H])([H])C([H])(n5nc(-c6c([H])c([H])c(Oc7c([H])c([H])c(F)c([H])c7F)c([H])c6[H])c(C(=O)N([H])[H])c5N([H])[H])C3([H])[H])C([H])([H])C4([H])[H])c([H])c([H])c2C1([H])[H]

>  <smiles>  (22) 
[H]c1c([H])c([H])c2c(c1[H])C([H])([H])C([H])([H])C([H])([H])C2([H])N([H])C(=O)C1([H])N(C(=O)C([H])(N([H])C(=O)C([H])(N([H])C([H])([H])[H])C([H])([H])[H])C(C([H])([H])[H])(C([H])([H])[H])C([H])([H])[H])C([H])([H])c2c([H])c(Oc3c(F)c4c(c([H])c3C([H])([H])[H])C([H])([H])N(C(=O)N3C([H])([H])C([H])([H])C([H])([H])C([H])(n5nc(-c6c([H])c([H])c(Oc7c([H])c([H])c(F)c([H])c7F)c([H])c6[H])c(C(=O)N([H])[H])c5N([H])[H])C3([H])[H])C([H])([H])C4([H])[H])c([H])c([H])c2C1([H])[H]

$$$$
22:0:0
     RDKit          3D

 92101  0  0  1  0  0  0  0  0999 V2000
  -28.5270  -22.9790   17.7230 C   0  0  0  0  0  0  0  0  0  0  0  0
  -27.8370  -24.1890   18.4080 C   0  0  0  0  0  2  0  0  0  0  0  0
  -28.7430  -22.9580   20.5320 C   0  0  0  0  0  2  0  0  0  0  0  0
  -28.5370  -21.4430   19.7540 C   0  0  0  0  0  3  0  0  0  0  0  0
  -27.9670  -24.3880   19.9490 C   0  0  0  0  0  3  0  0  0  0  0  0
  -28.7350  -21.8000   18.3470 N   0  0  0  0  0  0  0  0  0  0  0  0
  -28.8470  -23.0930   16.5400 O   0  0  0  0  0  0  0  0  0  0  0  0
  -29.1330  -21.0680   17.7790 H   0  0  0  0  0  0  0  0  0  0  0  0
  -29.0690  -17.3900   20.9580 C   0  0  0  0  0  3  0  0  0  0  0  0
  -28.6950  -18.8300   20.9430 C   0  0  0  0  0  3  0  0  0  0  0  0
  -30.0230  -19.1580   19.0820 C   0  0  0  0  0  3  0  0  0  0  0  0
  -29.9420  -16.7060   20.0150 C   0  0  0  0  0  0  0  0  0  0  0  0
  -29.1430  -19.8490   19.9990 C   0  0  0  0  0  0  0  0  0  0  0  0
  -30.3880  -17.7290   19.0690 C   0  0  0  0  0  0  0  0  0  0  0  0
  -31.2920  -17.3050   17.9180 C   0  0  0  0  0  1  0  0  0  0  0  0
  -30.5350  -15.1480   20.0420 C   0  0  0  0  0  0  0  0  0  0  0  0
  -30.3770  -12.7280   19.2250 C   0  0  0  0  0  2  0  0  0  0  0  0
  -29.4290  -12.5810   18.0130 C   0  0  0  0  0  2  0  0  0  0  0  0
  -27.9910  -12.3330   18.4960 C   0  0  0  0  0  2  0  0  0  0  0  0
  -27.5820  -13.3020   19.6350 C   0  0  0  0  0  3  0  0  0  0  0  0
  -28.6630  -13.4560   20.7240 C   0  0  0  0  0  2  0  0  0  0  0  0
  -29.8990  -13.8860   20.0620 N   0  0  0  0  0  0  0  0  0  0  0  0
  -31.7470  -15.0530   19.8090 O   0  0  0  0  0  0  0  0  0  0  0  0
  -25.2500  -13.8480   20.5080 C   0  0  0  0  0  0  0  0  0  0  0  0
  -24.2010  -13.0640   20.8980 C   0  0  0  0  0  0  0  0  0  0  0  0
  -24.6610  -11.7130   20.8130 C   0  0  0  0  0  0  0  0  0  0  0  0
  -26.2770  -12.9760   20.1960 N   0  0  0  0  0  0  0  0  0  0  0  0
  -25.9390  -11.6850   20.4500 N   0  0  0  0  0  0  0  0  0  0  0  0
  -23.9370  -10.4490   21.0000 C   0  0  0  0  0  0  0  0  0  0  0  0
  -24.3680   -9.4770   21.9300 C   0  0  0  0  0  3  0  0  0  0  0  0
  -23.6400   -8.2810   22.1070 C   0  0  0  0  0  3  0  0  0  0  0  0
  -22.4670   -8.0450   21.3510 C   0  0  0  0  0  0  0  0  0  0  0  0
  -22.0540   -9.0040   20.4080 C   0  0  0  0  0  3  0  0  0  0  0  0
  -22.7840  -10.1920   20.2300 C   0  0  0  0  0  3  0  0  0  0  0  0
  -21.7130   -6.9000   21.4350 O   0  0  0  0  0  0  0  0  0  0  0  0
  -21.6160   -6.1840   22.6020 C   0  0  0  0  0  0  0  0  0  0  0  0
  -21.1120   -6.7600   23.7880 C   0  0  0  0  0  3  0  0  0  0  0  0
  -20.9640   -5.9710   24.9470 C   0  0  0  0  0  3  0  0  0  0  0  0
  -21.3110   -4.6060   24.9180 C   0  0  0  0  0  0  0  0  0  0  0  0
  -21.8080   -4.0310   23.7360 C   0  0  0  0  0  3  0  0  0  0  0  0
  -21.9570   -4.8170   22.5810 C   0  0  0  0  0  0  0  0  0  0  0  0
  -22.4160   -4.2520   21.4370 F   0  0  0  0  0  0  0  0  0  0  0  0
  -21.1620   -3.8470   26.0280 F   0  0  0  0  0  0  0  0  0  0  0  0
  -22.8170  -13.5370   21.2310 C   0  0  0  0  0  0  0  0  0  0  0  0
  -22.1220  -12.8290   22.1120 N   0  0  0  0  0  0  0  0  0  0  0  0
  -22.3630  -14.5730   20.7450 O   0  0  0  0  0  0  0  0  0  0  0  0
  -22.5020  -11.9920   22.5270 H   0  0  0  0  0  0  0  0  0  0  0  0
  -21.1950  -13.1320   22.3790 H   0  0  0  0  0  0  0  0  0  0  0  0
  -25.4120  -15.2220   20.3650 N   0  0  0  0  0  0  0  0  0  0  0  0
  -24.6550  -15.8750   20.5410 H   0  0  0  0  0  0  0  0  0  0  0  0
  -26.2560  -15.6750   20.0360 H   0  0  0  0  0  0  0  0  0  0  0  0
  -28.1870  -25.9610   20.2600 O   0  0  0  0  0  0  0  0  0  0  0  0
  -24.6340  -31.8220   23.2490 C   0  0  0  0  0  0  0  0  0  0  0  0
  -27.1710  -27.0250   20.1870 C   0  0  0  0  0  0  0  0  0  0  0  0
  -23.4350  -30.4480   21.5970 C   0  0  0  0  0  3  0  0  0  0  0  0
  -24.8780  -28.8700   20.1570 C   0  0  0  0  0  0  0  0  0  0  0  0
  -25.9970  -30.6710   21.4510 C   0  0  0  0  0  2  0  0  0  0  0  0
  -26.0630  -29.2750   20.7830 C   0  0  0  0  0  0  0  0  0  0  0  0
  -27.2080  -28.3710   20.7790 C   0  0  0  0  0  3  0  0  0  0  0  0
  -25.9570  -26.7580   19.5190 C   0  0  0  0  0  3  0  0  0  0  0  0
  -24.8460  -27.6290   19.5050 C   0  0  0  0  0  3  0  0  0  0  0  0
  -23.6610  -29.7860   20.2110 C   0  0  0  0  0  2  0  0  0  0  0  0
  -24.7100  -31.0040   22.1530 N   0  0  0  0  0  0  0  0  0  0  0  0
  -23.5470  -32.1100   23.7740 O   0  0  0  0  0  0  0  0  0  0  0  0
  -22.7430  -29.4380   22.5480 C   0  0  0  0  0  0  0  0  0  0  0  0
  -21.4140  -29.2720   22.4150 N   0  0  0  0  0  0  0  0  0  0  0  0
  -23.4050  -28.8060   23.3760 O   0  0  0  0  0  0  0  0  0  0  0  0
  -20.9320  -29.8330   21.7250 H   0  0  0  0  0  0  0  0  0  0  0  0
  -18.0240  -28.0780   22.9020 C   0  0  0  0  0  0  0  0  0  0  0  0
  -20.5840  -28.3330   23.1770 C   0  0  0  0  0  3  0  0  0  0  0  0
  -20.6820  -26.9040   22.5920 C   0  0  0  0  0  2  0  0  0  0  0  0
  -19.5820  -26.5930   21.5720 C   0  0  0  0  0  2  0  0  0  0  0  0
  -18.2000  -26.7350   22.2140 C   0  0  0  0  0  2  0  0  0  0  0  0
  -19.1440  -28.8350   23.3390 C   0  0  0  0  0  0  0  0  0  0  0  0
  -18.9240  -30.0910   23.9460 C   0  0  0  0  0  3  0  0  0  0  0  0
  -17.6190  -30.5910   24.1160 C   0  0  0  0  0  3  0  0  0  0  0  0
  -16.5140  -29.8310   23.6920 C   0  0  0  0  0  3  0  0  0  0  0  0
  -16.7180  -28.5760   23.0920 C   0  0  0  0  0  3  0  0  0  0  0  0
  -25.9120  -32.4510   23.8860 C   0  0  0  0  0  3  0  0  0  0  0  0
  -25.6030  -33.8510   24.2230 N   0  0  0  0  0  0  0  0  0  0  0  0
  -25.9200  -34.9090   23.4640 C   0  0  0  0  0  0  0  0  0  0  0  0
  -26.5650  -34.8070   22.4170 O   0  0  0  0  0  0  0  0  0  0  0  0
  -25.0280  -34.0010   25.0380 H   0  0  0  0  0  0  0  0  0  0  0  0
  -24.1730  -36.6970   23.1790 C   0  0  0  0  0  1  0  0  0  0  0  0
  -25.4490  -36.2990   23.9380 C   0  0  0  0  0  3  0  0  0  0  0  0
  -27.6090  -37.2000   24.6820 C   0  0  0  0  0  1  0  0  0  0  0  0
  -26.4720  -37.3550   23.7780 N   0  0  0  0  0  0  0  0  0  0  0  0
  -26.0680  -38.2760   23.9330 H   0  0  0  0  0  0  0  0  0  0  0  0
  -26.4070  -31.6760   25.1690 C   0  0  1  0  0  0  0  0  0  0  0  0
  -25.3030  -31.4470   26.2280 C   0  0  0  0  0  1  0  0  0  0  0  0
  -26.9860  -30.2930   24.7910 C   0  0  0  0  0  1  0  0  0  0  0  0
  -27.5580  -32.4610   25.8430 C   0  0  0  0  0  1  0  0  0  0  0  0
  1  6  1  0
  1  2  1  0
  2  5  1  0
  4 13  1  0
  4  3  1  0
  5 52  1  0
  5  3  1  0
  6  4  1  0
  7  1  2  0
  8  6  1  0
 10  9  1  0
 11 13  1  0
 12 16  1  0
 12  9  2  0
 13 10  2  0
 14 11  2  0
 14 12  1  0
 15 14  1  0
 16 22  1  0
 17 22  1  0
 18 19  1  0
 18 17  1  0
 20 19  1  0
 20 27  1  0
 20 21  1  0
 22 21  1  0
 23 16  2  0
 24 25  2  0
 25 44  1  0
 26 25  1  0
 26 29  1  0
 27 28  1  0
 27 24  1  0
 28 26  2  0
 29 30  1  0
 30 31  2  0
 32 35  1  0
 32 31  1  0
 33 32  2  0
 34 33  1  0
 34 29  2  0
 35 36  1  0
 36 37  1  0
 37 38  2  0
 39 38  1  0
 39 43  1  0
 40 39  2  0
 41 36  2  0
 41 40  1  0
 42 41  1  0
 44 45  1  0
 45 48  1  0
 45 47  1  0
 46 44  2  0
 49 24  1  0
 49 50  1  0
 51 49  1  0
 53 64  2  0
 54 52  1  0
 54 59  1  0
 55 63  1  0
 55 65  1  0
 56 62  1  0
 56 58  1  0
 57 63  1  0
 58 57  1  0
 59 58  2  0
 60 54  2  0
 61 60  1  0
 61 56  2  0
 62 55  1  0
 63 53  1  0
 65 67  2  0
 66 65  1  0
 68 66  1  0
 69 78  2  0
 69 74  1  0
 70 66  1  0
 70 74  1  0
 71 70  1  0
 72 73  1  0
 72 71  1  0
 73 69  1  0
 74 75  2  0
 75 76  1  0
 77 76  2  0
 78 77  1  0
 79 53  1  0
 79 80  1  0
 79 89  1  0
 80 83  1  0
 81 85  1  0
 81 80  1  0
 82 81  2  0
 85 84  1  0
 87 88  1  0
 87 85  1  0
 87 86  1  0
 89 92  1  1
 89 90  1  0
 91 89  1  0
M  ISO  4   5 101  12 100  16 100  52 101
M  END
>  <TORSDO>  (23) 
F 17

>  <SCORE>  (23) 
-15.305

>  <name>  (23) 
22

>  <ligand_id>  (23) 
22

>  <original_smiles>  (23) 
[H]c1c([H])c([H])c2c(c1[H])C([H])([H])C([H])([H])C([H])([H])C2([H])N([H])C(=O)C1([H])N(C(=O)C([H])(N([H])C(=O)C([H])(N([H])C([H])([H])[H])C([H])([H])[H])C(C([H])([H])[H])(C([H])([H])[H])C([H])([H])[H])C([H])([H])c2c([H])c(OC3([H])C([H])([H])C(=O)N([H])C([H])(c4c([H])c([H])c(C(=O)N5C([H])([H])C([H])([H])C([H])([H])C([H])(n6nc(-c7c([H])c([H])c(Oc8c([H])c([H])c(F)c([H])c8F)c([H])c7[H])c(C(=O)N([H])[H])c6N([H])[H])C5([H])[H])c(C([H])([H])[H])c4[H])C3([H])[H])c([H])c([H])c2C1([H])[H]

>  <smiles>  (23) 
[H]c1c([H])c([H])c2c(c1[H])C([H])([H])C([H])([H])C([H])([H])C2([H])N([H])C(=O)C1([H])N(C(=O)C([H])(N([H])C(=O)C([H])(N([H])C([H])([H])[H])C([H])([H])[H])C(C([H])([H])[H])(C([H])([H])[H])C([H])([H])[H])C([H])([H])c2c([H])c(OC3([H])C([H])([H])C(=O)N([H])C([H])(c4c([H])c([H])c(C(=O)N5C([H])([H])C([H])([H])C([H])([H])C([H])(n6nc(-c7c([H])c([H])c(Oc8c([H])c([H])c(F)c([H])c8F)c([H])c7[H])c(C(=O)N([H])[H])c6N([H])[H])C5([H])[H])c(C([H])([H])[H])c4[H])C3([H])[H])c([H])c([H])c2C1([H])[H]

$$$$
23:0:0
     RDKit          3D

 89 97  0  0  1  0  0  0  0  0999 V2000
  -26.8450  -23.8300   17.3540 C   0  0  0  0  0  3  0  0  0  0  0  0
  -27.0410  -23.1360   18.5580 C   0  0  0  0  0  3  0  0  0  0  0  0
  -27.6480  -24.9400   17.0670 C   0  0  0  0  0  3  0  0  0  0  0  0
  -27.9580  -23.5700   19.5480 C   0  0  0  0  0  0  0  0  0  0  0  0
  -28.4390  -25.5080   18.0850 C   0  0  0  0  0  0  0  0  0  0  0  0
  -28.3370  -25.0390   19.4230 C   0  0  0  0  0  0  0  0  0  0  0  0
  -29.3340  -26.6910   17.7400 C   0  0  0  0  0  1  0  0  0  0  0  0
  -28.6060  -22.2510   20.1260 C   0  0  0  0  0  0  0  0  0  0  0  0
  -28.8620  -21.0120   20.2720 C   0  0  0  0  0  0  0  0  0  0  0  0
  -28.7860  -19.4130   20.3060 C   0  0  0  0  0  3  0  0  0  0  0  0
  -29.9010  -18.1320   20.4470 C   0  0  0  0  0  3  0  0  0  0  0  0
  -29.4810  -16.4780   20.5250 C   0  0  0  0  0  2  0  0  0  0  0  0
  -30.4200  -15.0950   20.3720 C   0  0  0  0  0  0  0  0  0  0  0  0
  -30.3880  -12.7480   19.3980 C   0  0  0  0  0  2  0  0  0  0  0  0
  -29.4530  -12.7400   18.1640 C   0  0  0  0  0  2  0  0  0  0  0  0
  -27.9850  -12.5100   18.5800 C   0  0  0  0  0  2  0  0  0  0  0  0
  -27.5700  -13.3890   19.7880 C   0  0  0  0  0  3  0  0  0  0  0  0
  -28.6240  -13.3510   20.9100 C   0  0  0  0  0  2  0  0  0  0  0  0
  -29.8970  -13.8000   20.3330 N   0  0  0  0  0  0  0  0  0  0  0  0
  -31.6250  -15.1990   20.1120 O   0  0  0  0  0  0  0  0  0  0  0  0
  -25.1820  -13.9380   20.5350 C   0  0  0  0  0  0  0  0  0  0  0  0
  -24.1240  -13.1500   20.8920 C   0  0  0  0  0  0  0  0  0  0  0  0
  -24.6010  -11.8030   20.8440 C   0  0  0  0  0  0  0  0  0  0  0  0
  -26.2330  -13.0720   20.2810 N   0  0  0  0  0  0  0  0  0  0  0  0
  -25.8930  -11.7830   20.5340 N   0  0  0  0  0  0  0  0  0  0  0  0
  -23.8850  -10.5330   21.0170 C   0  0  0  0  0  0  0  0  0  0  0  0
  -24.3160   -9.5640   21.9500 C   0  0  0  0  0  3  0  0  0  0  0  0
  -23.6010   -8.3570   22.1110 C   0  0  0  0  0  3  0  0  0  0  0  0
  -22.4410   -8.1100   21.3380 C   0  0  0  0  0  0  0  0  0  0  0  0
  -22.0290   -9.0690   20.3950 C   0  0  0  0  0  3  0  0  0  0  0  0
  -22.7450  -10.2660   20.2330 C   0  0  0  0  0  3  0  0  0  0  0  0
  -21.6970   -6.9570   21.4080 O   0  0  0  0  0  0  0  0  0  0  0  0
  -21.6260   -6.2160   22.5610 C   0  0  0  0  0  0  0  0  0  0  0  0
  -21.1330   -6.7600   23.7680 C   0  0  0  0  0  3  0  0  0  0  0  0
  -21.0110   -5.9440   24.9100 C   0  0  0  0  0  3  0  0  0  0  0  0
  -21.3720   -4.5850   24.8470 C   0  0  0  0  0  0  0  0  0  0  0  0
  -21.8570   -4.0410   23.6450 C   0  0  0  0  0  3  0  0  0  0  0  0
  -21.9810   -4.8540   22.5050 C   0  0  0  0  0  0  0  0  0  0  0  0
  -22.4300   -4.3180   21.3440 F   0  0  0  0  0  0  0  0  0  0  0  0
  -21.2470   -3.8000   25.9420 F   0  0  0  0  0  0  0  0  0  0  0  0
  -22.7220  -13.6090   21.1650 C   0  0  0  0  0  0  0  0  0  0  0  0
  -21.9960  -12.8890   22.0130 N   0  0  0  0  0  0  0  0  0  0  0  0
  -22.2810  -14.6410   20.6610 O   0  0  0  0  0  0  0  0  0  0  0  0
  -22.3690  -12.0580   22.4460 H   0  0  0  0  0  0  0  0  0  0  0  0
  -21.0520  -13.1740   22.2330 H   0  0  0  0  0  0  0  0  0  0  0  0
  -25.3350  -15.3130   20.3810 N   0  0  0  0  0  0  0  0  0  0  0  0
  -24.5630  -15.9580   20.5070 H   0  0  0  0  0  0  0  0  0  0  0  0
  -26.1850  -15.7660   20.0690 H   0  0  0  0  0  0  0  0  0  0  0  0
  -28.2250  -26.2140   20.2990 O   0  0  0  0  0  0  0  0  0  0  0  0
  -24.5990  -31.9560   23.2480 C   0  0  0  0  0  0  0  0  0  0  0  0
  -27.1810  -27.2220   20.2180 C   0  0  0  0  0  0  0  0  0  0  0  0
  -23.3960  -30.5400   21.6350 C   0  0  0  0  0  3  0  0  0  0  0  0
  -24.8380  -28.9650   20.2100 C   0  0  0  0  0  0  0  0  0  0  0  0
  -25.9500  -30.8160   21.4460 C   0  0  0  0  0  2  0  0  0  0  0  0
  -26.0250  -29.4190   20.7960 C   0  0  0  0  0  0  0  0  0  0  0  0
  -27.1950  -28.5670   20.7830 C   0  0  0  0  0  3  0  0  0  0  0  0
  -25.9510  -26.8640   19.6230 C   0  0  0  0  0  3  0  0  0  0  0  0
  -24.8140  -27.6980   19.6110 C   0  0  0  0  0  3  0  0  0  0  0  0
  -23.6060  -29.8540   20.2630 C   0  0  0  0  0  2  0  0  0  0  0  0
  -24.6690  -31.1260   22.1640 N   0  0  0  0  0  0  0  0  0  0  0  0
  -23.5140  -32.2390   23.7820 O   0  0  0  0  0  0  0  0  0  0  0  0
  -22.7270  -29.5360   22.6100 C   0  0  0  0  0  0  0  0  0  0  0  0
  -21.4010  -29.3450   22.4800 N   0  0  0  0  0  0  0  0  0  0  0  0
  -23.4010  -28.9320   23.4480 O   0  0  0  0  0  0  0  0  0  0  0  0
  -20.9120  -29.8760   21.7730 H   0  0  0  0  0  0  0  0  0  0  0  0
  -18.0370  -28.0960   22.9940 C   0  0  0  0  0  0  0  0  0  0  0  0
  -20.5900  -28.4100   23.2670 C   0  0  0  0  0  3  0  0  0  0  0  0
  -20.7200  -26.9700   22.7220 C   0  0  0  0  0  2  0  0  0  0  0  0
  -19.6300  -26.6070   21.7090 C   0  0  0  0  0  2  0  0  0  0  0  0
  -18.2420  -26.7380   22.3440 C   0  0  0  0  0  2  0  0  0  0  0  0
  -19.1390  -28.8880   23.4120 C   0  0  0  0  0  0  0  0  0  0  0  0
  -18.8910  -30.1560   23.9830 C   0  0  0  0  0  3  0  0  0  0  0  0
  -17.5750  -30.6330   24.1360 C   0  0  0  0  0  3  0  0  0  0  0  0
  -16.4890  -29.8370   23.7330 C   0  0  0  0  0  3  0  0  0  0  0  0
  -16.7190  -28.5720   23.1660 C   0  0  0  0  0  3  0  0  0  0  0  0
  -25.8740  -32.6090   23.8640 C   0  0  0  0  0  3  0  0  0  0  0  0
  -26.3890  -31.8660   25.1580 C   0  0  1  0  0  0  0  0  0  0  0  0
  -25.2920  -31.6440   26.2260 C   0  0  0  0  0  1  0  0  0  0  0  0
  -26.9820  -30.4860   24.7980 C   0  0  0  0  0  1  0  0  0  0  0  0
  -27.5370  -32.6760   25.8070 C   0  0  0  0  0  1  0  0  0  0  0  0
  -25.5550  -34.0120   24.1760 N   0  0  0  0  0  0  0  0  0  0  0  0
  -25.8890  -35.0610   23.4150 C   0  0  0  0  0  0  0  0  0  0  0  0
  -26.5670  -34.9510   22.3900 O   0  0  0  0  0  0  0  0  0  0  0  0
  -24.9520  -34.1720   24.9690 H   0  0  0  0  0  0  0  0  0  0  0  0
  -24.1760  -36.8630   23.0220 C   0  0  0  0  0  1  0  0  0  0  0  0
  -25.3980  -36.4540   23.8610 C   0  0  0  0  0  3  0  0  0  0  0  0
  -27.5130  -37.3330   24.7440 C   0  0  0  0  0  1  0  0  0  0  0  0
  -26.4370  -37.5040   23.7710 N   0  0  0  0  0  0  0  0  0  0  0  0
  -26.0320  -38.4280   23.9010 H   0  0  0  0  0  0  0  0  0  0  0  0
  1  2  1  0
  2  4  2  0
  3  1  2  0
  3  5  1  0
  4  8  1  0
  5  6  2  0
  6  4  1  0
  6 49  1  0
  7  5  1  0
  8  9  3  0
  9 10  1  0
 10 11  2  0
 11 12  1  0
 13 12  1  0
 14 19  1  0
 15 16  1  0
 15 14  1  0
 17 16  1  0
 17 24  1  0
 17 18  1  0
 19 13  1  0
 19 18  1  0
 20 13  2  0
 21 22  2  0
 22 41  1  0
 23 22  1  0
 23 26  1  0
 24 25  1  0
 24 21  1  0
 25 23  2  0
 26 27  1  0
 27 28  2  0
 29 32  1  0
 29 28  1  0
 30 29  2  0
 31 30  1  0
 31 26  2  0
 32 33  1  0
 33 34  1  0
 34 35  2  0
 36 35  1  0
 36 40  1  0
 37 36  2  0
 38 33  2  0
 38 37  1  0
 39 38  1  0
 41 42  1  0
 42 45  1  0
 42 44  1  0
 43 41  2  0
 46 47  1  0
 46 21  1  0
 48 46  1  0
 50 61  2  0
 51 49  1  0
 51 56  1  0
 52 60  1  0
 52 62  1  0
 53 59  1  0
 53 55  1  0
 54 60  1  0
 55 54  1  0
 56 55  2  0
 57 51  2  0
 58 57  1  0
 58 53  2  0
 59 52  1  0
 60 50  1  0
 62 64  2  0
 63 62  1  0
 65 63  1  0
 66 75  2  0
 66 71  1  0
 67 63  1  0
 67 71  1  0
 68 67  1  0
 69 70  1  0
 69 68  1  0
 70 66  1  0
 71 72  2  0
 72 73  1  0
 74 73  2  0
 75 74  1  0
 76 50  1  0
 76 81  1  0
 76 77  1  0
 77 80  1  1
 77 78  1  0
 79 77  1  0
 81 84  1  0
 82 86  1  0
 82 81  1  0
 83 82  2  0
 86 85  1  0
 88 86  1  0
 88 89  1  0
 88 87  1  0
M  ISO  4   6 101  12 100  13 100  49 101
M  END
>  <TORSDO>  (24) 
F 20

>  <SCORE>  (24) 
-14.816

>  <name>  (24) 
23

>  <ligand_id>  (24) 
23

>  <original_smiles>  (24) 
[H]c1c([H])c(C#CC([H])([H])C([H])([H])C([H])([H])C(=O)N2C([H])([H])C([H])([H])C([H])([H])C([H])(n3nc(-c4c([H])c([H])c(Oc5c([H])c([H])c(F)c([H])c5F)c([H])c4[H])c(C(=O)N([H])[H])c3N([H])[H])C2([H])[H])c(Oc2c([H])c([H])c3c(c2[H])C([H])([H])N(C(=O)C([H])(N([H])C(=O)C([H])(N([H])C([H])([H])[H])C([H])([H])[H])C(C([H])([H])[H])(C([H])([H])[H])C([H])([H])[H])C([H])(C(=O)N([H])C2([H])c4c([H])c([H])c([H])c([H])c4C([H])([H])C([H])([H])C2([H])[H])C3([H])[H])c(C([H])([H])[H])c1[H]

>  <smiles>  (24) 
[H]c1c([H])c(C#CC([H])([H])C([H])([H])C([H])([H])C(=O)N2C([H])([H])C([H])([H])C([H])([H])C([H])(n3nc(-c4c([H])c([H])c(Oc5c([H])c([H])c(F)c([H])c5F)c([H])c4[H])c(C(=O)N([H])[H])c3N([H])[H])C2([H])[H])c(Oc2c([H])c([H])c3c(c2[H])C([H])([H])N(C(=O)C([H])(N([H])C(=O)C([H])(N([H])C([H])([H])[H])C([H])([H])[H])C(C([H])([H])[H])(C([H])([H])[H])C([H])([H])[H])C([H])(C(=O)N([H])C2([H])c4c([H])c([H])c([H])c([H])c4C([H])([H])C([H])([H])C2([H])[H])C3([H])[H])c(C([H])([H])[H])c1[H]

$$$$
24:0:0
     RDKit          3D

 92100  0  0  1  0  0  0  0  0999 V2000
  -29.7190  -24.4730   19.3150 C   0  0  0  0  0  3  0  0  0  0  0  0
  -29.2620  -22.0040   19.8040 C   0  0  0  0  0  0  0  0  0  0  0  0
  -30.0530  -23.0700   19.2300 C   0  0  0  0  0  0  0  0  0  0  0  0
  -28.1160  -22.5450   20.5050 C   0  0  0  0  0  0  0  0  0  0  0  0
  -27.8310  -23.9850   20.6420 C   0  0  0  0  0  0  0  0  0  0  0  0
  -28.6000  -25.0250   20.0030 C   0  0  0  0  0  0  0  0  0  0  0  0
  -31.3490  -22.7580   18.4910 C   0  0  0  0  0  1  0  0  0  0  0  0
  -27.1320  -21.5570   21.1270 C   0  0  0  0  0  1  0  0  0  0  0  0
  -26.6790  -24.4200   21.5330 C   0  0  0  0  0  1  0  0  0  0  0  0
  -29.5930  -20.4490   19.4400 C   0  0  0  0  0  0  0  0  0  0  0  0
  -29.8710  -20.2120   18.2620 O   0  0  0  0  0  0  0  0  0  0  0  0
  -29.6200  -19.0970   20.3640 C   0  0  0  0  0  2  0  0  0  0  0  0
  -30.4000  -17.7070   19.8370 C   0  0  0  0  0  2  0  0  0  0  0  0
  -30.8520  -15.0570   20.0730 C   0  0  0  0  0  0  0  0  0  0  0  0
  -30.6610  -12.7420   19.1050 C   0  0  0  0  0  2  0  0  0  0  0  0
  -29.6810  -12.7610   17.9110 C   0  0  0  0  0  2  0  0  0  0  0  0
  -28.2340  -12.5590   18.4000 C   0  0  0  0  0  2  0  0  0  0  0  0
  -27.8860  -13.4560   19.6160 C   0  0  0  0  0  3  0  0  0  0  0  0
  -28.9850  -13.4230   20.7000 C   0  0  0  0  0  2  0  0  0  0  0  0
  -30.2420  -13.8120   20.0510 N   0  0  0  0  0  0  0  0  0  0  0  0
  -32.0300  -15.1350   19.7110 O   0  0  0  0  0  0  0  0  0  0  0  0
  -30.0890  -16.2290   20.2660 N   0  0  0  0  0  0  0  0  0  0  0  0
  -29.1430  -16.0570   20.5720 H   0  0  0  0  0  0  0  0  0  0  0  0
  -25.5360  -14.0280   20.4640 C   0  0  0  0  0  0  0  0  0  0  0  0
  -24.4850  -13.2480   20.8580 C   0  0  0  0  0  0  0  0  0  0  0  0
  -24.9400  -11.8960   20.7690 C   0  0  0  0  0  0  0  0  0  0  0  0
  -26.5660  -13.1530   20.1590 N   0  0  0  0  0  0  0  0  0  0  0  0
  -26.2170  -11.8640   20.4070 N   0  0  0  0  0  0  0  0  0  0  0  0
  -24.2170  -10.6330   20.9550 C   0  0  0  0  0  0  0  0  0  0  0  0
  -24.6360   -9.6720   21.9030 C   0  0  0  0  0  3  0  0  0  0  0  0
  -23.9100   -8.4740   22.0760 C   0  0  0  0  0  3  0  0  0  0  0  0
  -22.7530   -8.2270   21.3020 C   0  0  0  0  0  0  0  0  0  0  0  0
  -22.3540   -9.1750   20.3430 C   0  0  0  0  0  3  0  0  0  0  0  0
  -23.0780  -10.3650   20.1670 C   0  0  0  0  0  3  0  0  0  0  0  0
  -21.9990   -7.0810   21.3840 O   0  0  0  0  0  0  0  0  0  0  0  0
  -21.8890   -6.3740   22.5550 C   0  0  0  0  0  0  0  0  0  0  0  0
  -21.3300   -6.9450   23.7200 C   0  0  0  0  0  3  0  0  0  0  0  0
  -21.1720   -6.1620   24.8810 C   0  0  0  0  0  3  0  0  0  0  0  0
  -21.5600   -4.8090   24.8780 C   0  0  0  0  0  0  0  0  0  0  0  0
  -22.1110   -4.2380   23.7170 C   0  0  0  0  0  3  0  0  0  0  0  0
  -22.2720   -5.0180   22.5590 C   0  0  0  0  0  0  0  0  0  0  0  0
  -22.7830   -4.4560   21.4370 F   0  0  0  0  0  0  0  0  0  0  0  0
  -21.4020   -4.0550   25.9900 F   0  0  0  0  0  0  0  0  0  0  0  0
  -23.1020  -13.7230   21.1970 C   0  0  0  0  0  0  0  0  0  0  0  0
  -22.4090  -13.0060   22.0740 N   0  0  0  0  0  0  0  0  0  0  0  0
  -22.6470  -14.7620   20.7190 O   0  0  0  0  0  0  0  0  0  0  0  0
  -22.7920  -12.1650   22.4790 H   0  0  0  0  0  0  0  0  0  0  0  0
  -21.4810  -13.3010   22.3430 H   0  0  0  0  0  0  0  0  0  0  0  0
  -25.7000  -15.4030   20.3130 N   0  0  0  0  0  0  0  0  0  0  0  0
  -24.9360  -16.0550   20.4570 H   0  0  0  0  0  0  0  0  0  0  0  0
  -26.5210  -15.8410   19.9170 H   0  0  0  0  0  0  0  0  0  0  0  0
  -28.4920  -26.4800   20.1040 O   0  0  0  0  0  0  0  0  0  0  0  0
  -24.6820  -31.9060   23.2100 C   0  0  0  0  0  0  0  0  0  0  0  0
  -27.3520  -27.3430   20.0820 C   0  0  0  0  0  0  0  0  0  0  0  0
  -23.5060  -30.5320   21.5290 C   0  0  0  0  0  3  0  0  0  0  0  0
  -24.9830  -29.0050   20.0780 C   0  0  0  0  0  0  0  0  0  0  0  0
  -26.0510  -30.8470   21.3810 C   0  0  0  0  0  2  0  0  0  0  0  0
  -26.1450  -29.4710   20.7050 C   0  0  0  0  0  0  0  0  0  0  0  0
  -27.3250  -28.6520   20.6950 C   0  0  0  0  0  3  0  0  0  0  0  0
  -26.1680  -26.9590   19.4190 C   0  0  0  0  0  3  0  0  0  0  0  0
  -25.0010  -27.7580   19.4250 C   0  0  0  0  0  3  0  0  0  0  0  0
  -23.7420  -29.8820   20.1370 C   0  0  0  0  0  2  0  0  0  0  0  0
  -24.7660  -31.1150   22.0970 N   0  0  0  0  0  0  0  0  0  0  0  0
  -23.5900  -32.1640   23.7400 O   0  0  0  0  0  0  0  0  0  0  0  0
  -22.8390  -29.4940   22.4650 C   0  0  0  0  0  0  0  0  0  0  0  0
  -21.5110  -29.3260   22.3400 N   0  0  0  0  0  0  0  0  0  0  0  0
  -23.5180  -28.8420   23.2640 O   0  0  0  0  0  0  0  0  0  0  0  0
  -21.0230  -29.9010   21.6690 H   0  0  0  0  0  0  0  0  0  0  0  0
  -18.1280  -28.1500   22.8480 C   0  0  0  0  0  0  0  0  0  0  0  0
  -20.6930  -28.3670   23.0860 C   0  0  0  0  0  3  0  0  0  0  0  0
  -20.7690  -26.9600   22.4470 C   0  0  0  0  0  2  0  0  0  0  0  0
  -19.6450  -26.6970   21.4390 C   0  0  0  0  0  2  0  0  0  0  0  0
  -18.2760  -26.8300   22.1110 C   0  0  0  0  0  2  0  0  0  0  0  0
  -19.2630  -28.8790   23.2920 C   0  0  0  0  0  0  0  0  0  0  0  0
  -19.0670  -30.1200   23.9400 C   0  0  0  0  0  3  0  0  0  0  0  0
  -17.7700  -30.6230   24.1540 C   0  0  0  0  0  3  0  0  0  0  0  0
  -16.6500  -29.8880   23.7290 C   0  0  0  0  0  3  0  0  0  0  0  0
  -16.8310  -28.6550   23.0800 C   0  0  0  0  0  3  0  0  0  0  0  0
  -25.9520  -32.5390   23.8590 C   0  0  0  0  0  3  0  0  0  0  0  0
  -26.4320  -31.7760   25.1550 C   0  0  1  0  0  0  0  0  0  0  0  0
  -25.3100  -31.5510   26.1950 C   0  0  0  0  0  1  0  0  0  0  0  0
  -27.0220  -30.3940   24.7880 C   0  0  0  0  0  1  0  0  0  0  0  0
  -27.5630  -32.5740   25.8450 C   0  0  0  0  0  1  0  0  0  0  0  0
  -25.6400  -33.9400   24.1790 N   0  0  0  0  0  0  0  0  0  0  0  0
  -25.9800  -34.9910   23.4210 C   0  0  0  0  0  0  0  0  0  0  0  0
  -26.6600  -34.8830   22.3980 O   0  0  0  0  0  0  0  0  0  0  0  0
  -25.0460  -34.0980   24.9800 H   0  0  0  0  0  0  0  0  0  0  0  0
  -24.2700  -36.7930   23.0300 C   0  0  0  0  0  1  0  0  0  0  0  0
  -25.4910  -36.3810   23.8690 C   0  0  0  0  0  3  0  0  0  0  0  0
  -27.6050  -37.2660   24.7540 C   0  0  0  0  0  1  0  0  0  0  0  0
  -26.5310  -37.4300   23.7780 N   0  0  0  0  0  0  0  0  0  0  0  0
  -26.1230  -38.3530   23.9080 H   0  0  0  0  0  0  0  0  0  0  0  0
  1  6  1  0
  2  4  2  0
  3  1  2  0
  3  2  1  0
  4  5  1  0
  4  8  1  0
  5  9  1  0
  6 52  1  0
  6  5  2  0
  7  3  1  0
 10  2  1  0
 10 12  1  0
 11 10  2  0
 13 22  1  0
 13 12  1  0
 14 22  1  0
 15 20  1  0
 16 17  1  0
 16 15  1  0
 18 17  1  0
 18 27  1  0
 18 19  1  0
 20 14  1  0
 20 19  1  0
 21 14  2  0
 22 23  1  0
 24 25  2  0
 25 44  1  0
 26 25  1  0
 26 29  1  0
 27 28  1  0
 27 24  1  0
 28 26  2  0
 29 30  1  0
 30 31  2  0
 32 35  1  0
 32 31  1  0
 33 32  2  0
 34 33  1  0
 34 29  2  0
 35 36  1  0
 36 41  2  0
 36 37  1  0
 37 38  2  0
 39 38  1  0
 39 43  1  0
 40 39  2  0
 41 40  1  0
 42 41  1  0
 44 45  1  0
 45 48  1  0
 45 47  1  0
 46 44  2  0
 49 50  1  0
 49 24  1  0
 51 49  1  0
 53 64  2  0
 54 52  1  0
 54 59  1  0
 55 63  1  0
 55 65  1  0
 56 62  1  0
 56 58  1  0
 57 63  1  0
 58 57  1  0
 59 58  2  0
 60 61  1  0
 60 54  2  0
 61 56  2  0
 62 55  1  0
 63 53  1  0
 65 67  2  0
 66 65  1  0
 68 66  1  0
 69 78  2  0
 69 74  1  0
 70 66  1  0
 70 74  1  0
 71 70  1  0
 72 73  1  0
 72 71  1  0
 73 69  1  0
 74 75  2  0
 75 76  1  0
 77 76  2  0
 78 77  1  0
 79 53  1  0
 79 84  1  0
 79 80  1  0
 80 83  1  1
 80 81  1  0
 82 80  1  0
 84 87  1  0
 85 89  1  0
 85 84  1  0
 86 85  2  0
 89 88  1  0
 91 89  1  0
 91 92  1  0
 91 90  1  0
M  ISO  4   6 101  14 100  22 100  52 101
M  END
>  <TORSDO>  (25) 
F 19

>  <SCORE>  (25) 
-13.279

>  <name>  (25) 
24

>  <ligand_id>  (25) 
24

>  <original_smiles>  (25) 
[H]c1c([H])c([H])c2c(c1[H])C([H])([H])C([H])([H])C([H])([H])C2([H])N([H])C(=O)C1([H])N(C(=O)C([H])(N([H])C(=O)C([H])(N([H])C([H])([H])[H])C([H])([H])[H])C(C([H])([H])[H])(C([H])([H])[H])C([H])([H])[H])C([H])([H])c2c([H])c(Oc3c([H])c(C([H])([H])[H])c(C(=O)C([H])([H])C([H])([H])N([H])C(=O)N4C([H])([H])C([H])([H])C([H])([H])C([H])(n5nc(-c6c([H])c([H])c(Oc7c([H])c([H])c(F)c([H])c7F)c([H])c6[H])c(C(=O)N([H])[H])c5N([H])[H])C4([H])[H])c(C([H])([H])[H])c3C([H])([H])[H])c([H])c([H])c2C1([H])[H]

>  <smiles>  (25) 
[H]c1c([H])c([H])c2c(c1[H])C([H])([H])C([H])([H])C([H])([H])C2([H])N([H])C(=O)C1([H])N(C(=O)C([H])(N([H])C(=O)C([H])(N([H])C([H])([H])[H])C([H])([H])[H])C(C([H])([H])[H])(C([H])([H])[H])C([H])([H])[H])C([H])([H])c2c([H])c(Oc3c([H])c(C([H])([H])[H])c(C(=O)C([H])([H])C([H])([H])N([H])C(=O)N4C([H])([H])C([H])([H])C([H])([H])C([H])(n5nc(-c6c([H])c([H])c(Oc7c([H])c([H])c(F)c([H])c7F)c([H])c6[H])c(C(=O)N([H])[H])c5N([H])[H])C4([H])[H])c(C([H])([H])[H])c3C([H])([H])[H])c([H])c([H])c2C1([H])[H]

$$$$
25:0:0
     RDKit          3D

 87 93  0  0  1  0  0  0  0  0999 V2000
  -30.0250  -20.2150   20.5120 C   0  0  0  0  0  3  0  0  0  0  0  0
  -29.4590  -18.8200   19.9890 C   0  0  0  0  0  3  0  0  0  0  0  0
  -29.6700  -21.8310   20.5630 C   0  0  0  0  0  0  0  0  0  0  0  0
  -28.3210  -19.8350   19.4790 C   0  0  0  0  0  0  0  0  0  0  0  0
  -28.5430  -22.8650   20.0870 C   0  0  0  0  0  3  0  0  0  0  0  0
  -27.9410  -21.4690   19.5290 C   0  0  0  0  0  0  0  0  0  0  0  0
  -30.7750  -22.5670   21.2990 C   0  0  0  0  0  1  0  0  0  0  0  0
  -27.2660  -19.0480   18.7130 C   0  0  0  0  0  1  0  0  0  0  0  0
  -30.0850  -16.8460   19.9210 C   0  0  0  0  0  2  0  0  0  0  0  0
  -30.4600  -14.0480   19.2220 C   0  0  0  0  0  2  0  0  0  0  0  0
  -29.6800  -13.1820   18.1430 C   0  0  0  0  0  2  0  0  0  0  0  0
  -28.3810  -12.5940   18.6910 C   0  0  0  0  0  2  0  0  0  0  0  0
  -27.7350  -13.6430   19.6040 C   0  0  0  0  0  3  0  0  0  0  0  0
  -28.6940  -14.3820   20.6090 C   0  0  0  0  0  2  0  0  0  0  0  0
  -29.6870  -15.2980   19.8840 N   0  0  0  0  0  0  0  0  0  0  0  0
  -31.3270  -16.5920   19.8020 O   0  0  0  0  0  1  0  0  0  0  0  0
  -25.4110  -14.0400   20.4800 C   0  0  0  0  0  0  0  0  0  0  0  0
  -24.3820  -13.2310   20.8580 C   0  0  0  0  0  0  0  0  0  0  0  0
  -24.8730  -11.8900   20.7720 C   0  0  0  0  0  0  0  0  0  0  0  0
  -26.4670  -13.2060   20.1840 N   0  0  0  0  0  0  0  0  0  0  0  0
  -26.1600  -11.8950   20.4100 N   0  0  0  0  0  0  0  0  0  0  0  0
  -24.1560  -10.6150   20.9560 C   0  0  0  0  0  0  0  0  0  0  0  0
  -24.5770   -9.6530   21.9000 C   0  0  0  0  0  3  0  0  0  0  0  0
  -23.8510   -8.4550   22.0790 C   0  0  0  0  0  3  0  0  0  0  0  0
  -22.6860   -8.2070   21.3140 C   0  0  0  0  0  0  0  0  0  0  0  0
  -22.2810   -9.1570   20.3600 C   0  0  0  0  0  3  0  0  0  0  0  0
  -23.0080  -10.3460   20.1810 C   0  0  0  0  0  3  0  0  0  0  0  0
  -21.9350   -7.0570   21.3990 O   0  0  0  0  0  0  0  0  0  0  0  0
  -21.8280   -6.3500   22.5700 C   0  0  0  0  0  0  0  0  0  0  0  0
  -21.2810   -6.9230   23.7380 C   0  0  0  0  0  3  0  0  0  0  0  0
  -21.1250   -6.1420   24.9010 C   0  0  0  0  0  3  0  0  0  0  0  0
  -21.5060   -4.7870   24.8960 C   0  0  0  0  0  0  0  0  0  0  0  0
  -22.0460   -4.2120   23.7320 C   0  0  0  0  0  3  0  0  0  0  0  0
  -22.2020   -4.9910   22.5720 C   0  0  0  0  0  0  0  0  0  0  0  0
  -22.7020   -4.4260   21.4460 F   0  0  0  0  0  0  0  0  0  0  0  0
  -21.3510   -4.0330   26.0090 F   0  0  0  0  0  0  0  0  0  0  0  0
  -22.9900  -13.6840   21.1810 C   0  0  0  0  0  0  0  0  0  0  0  0
  -22.3030  -12.9720   22.0660 N   0  0  0  0  0  0  0  0  0  0  0  0
  -22.5260  -14.7110   20.6850 O   0  0  0  0  0  0  0  0  0  0  0  0
  -22.6960  -12.1430   22.4870 H   0  0  0  0  0  0  0  0  0  0  0  0
  -21.3720  -13.2590   22.3310 H   0  0  0  0  0  0  0  0  0  0  0  0
  -25.5360  -15.4160   20.3220 N   0  0  0  0  0  0  0  0  0  0  0  0
  -24.7520  -16.0450   20.4520 H   0  0  0  0  0  0  0  0  0  0  0  0
  -26.3640  -15.8760   19.9690 H   0  0  0  0  0  0  0  0  0  0  0  0
  -25.9200  -22.7150   19.2840 C   0  0  0  0  0  1  0  0  0  0  0  0
  -26.7490  -21.6430   18.8630 O   0  0  0  0  0  0  0  0  0  0  0  0
  -28.3120  -24.7310   20.1790 O   0  0  0  0  0  1  0  0  0  0  0  0
  -24.7920  -31.8160   23.1730 C   0  0  0  0  0  0  0  0  0  0  0  0
  -27.3720  -26.2210   20.1960 C   0  0  0  0  0  0  0  0  0  0  0  0
  -23.6740  -30.4310   21.4860 C   0  0  0  0  0  3  0  0  0  0  0  0
  -25.1630  -28.6760   20.1210 C   0  0  0  0  0  0  0  0  0  0  0  0
  -26.2730  -30.3780   21.5150 C   0  0  0  0  0  2  0  0  0  0  0  0
  -26.3480  -28.8860   20.8340 C   0  0  0  0  0  0  0  0  0  0  0  0
  -27.3940  -27.7120   20.8280 C   0  0  0  0  0  3  0  0  0  0  0  0
  -26.1610  -26.4130   19.4110 C   0  0  0  0  0  3  0  0  0  0  0  0
  -25.1500  -27.4690   19.3860 C   0  0  0  0  0  3  0  0  0  0  0  0
  -23.9840  -29.7060   20.1330 C   0  0  0  0  0  2  0  0  0  0  0  0
  -24.9450  -30.9240   22.1110 N   0  0  0  0  0  0  0  0  0  0  0  0
  -23.6730  -32.1370   23.6210 O   0  0  0  0  0  0  0  0  0  0  0  0
  -22.8680  -29.4980   22.4360 C   0  0  0  0  0  0  0  0  0  0  0  0
  -21.5320  -29.3920   22.2780 N   0  0  0  0  0  0  0  0  0  0  0  0
  -23.4720  -28.8590   23.2990 O   0  0  0  0  0  0  0  0  0  0  0  0
  -21.0870  -29.9550   21.5670 H   0  0  0  0  0  0  0  0  0  0  0  0
  -18.0950  -28.2700   22.7820 C   0  0  0  0  0  0  0  0  0  0  0  0
  -20.6690  -28.4510   23.0140 C   0  0  0  0  0  3  0  0  0  0  0  0
  -20.7120  -27.0460   22.3670 C   0  0  0  0  0  2  0  0  0  0  0  0
  -19.5890  -26.8140   21.3510 C   0  0  0  0  0  2  0  0  0  0  0  0
  -18.2220  -26.9600   22.0230 C   0  0  0  0  0  2  0  0  0  0  0  0
  -19.2420  -28.9780   23.2330 C   0  0  0  0  0  0  0  0  0  0  0  0
  -19.0630  -30.2000   23.9160 C   0  0  0  0  0  3  0  0  0  0  0  0
  -17.7740  -30.7150   24.1480 C   0  0  0  0  0  3  0  0  0  0  0  0
  -16.6430  -30.0060   23.7080 C   0  0  0  0  0  3  0  0  0  0  0  0
  -16.8050  -28.7840   23.0300 C   0  0  0  0  0  3  0  0  0  0  0  0
  -26.0060  -32.4900   23.8880 C   0  0  0  0  0  3  0  0  0  0  0  0
  -25.6420  -33.8800   24.2620 N   0  0  0  0  0  0  0  0  0  0  0  0
  -25.9530  -34.9880   23.5720 C   0  0  0  0  0  0  0  0  0  0  0  0
  -26.6190  -34.9500   22.5350 O   0  0  0  0  0  0  0  0  0  0  0  0
  -25.0390  -33.9810   25.0650 H   0  0  0  0  0  0  0  0  0  0  0  0
  -24.1820  -36.7780   23.3650 C   0  0  0  0  0  1  0  0  0  0  0  0
  -25.4590  -36.3520   24.1090 C   0  0  0  0  0  3  0  0  0  0  0  0
  -27.5950  -37.2660   24.9180 C   0  0  0  0  0  1  0  0  0  0  0  0
  -26.4660  -37.4360   24.0070 N   0  0  0  0  0  0  0  0  0  0  0  0
  -26.0400  -38.3390   24.1960 H   0  0  0  0  0  0  0  0  0  0  0  0
  -26.4570  -31.7140   25.1880 C   0  0  1  0  0  0  0  0  0  0  0  0
  -25.3130  -31.4600   26.1980 C   0  0  0  0  0  1  0  0  0  0  0  0
  -27.0720  -30.3430   24.8390 C   0  0  0  0  0  1  0  0  0  0  0  0
  -27.5650  -32.5110   25.9180 C   0  0  0  0  0  1  0  0  0  0  0  0
  1  3  1  0
  2  1  2  0
  3  7  1  0
  4  6  2  0
  4  2  1  0
  5  3  2  0
  6  5  1  0
  8  4  1  0
 10 15  1  0
 11 12  1  0
 11 10  1  0
 13 12  1  0
 13 20  1  0
 13 14  1  0
 15  9  1  0
 15 14  1  0
 16  9  1  0
 17 18  2  0
 18 37  1  0
 19 18  1  0
 19 22  1  0
 20 21  1  0
 20 17  1  0
 21 19  2  0
 22 23  1  0
 23 24  2  0
 25 28  1  0
 25 24  1  0
 26 25  2  0
 27 26  1  0
 27 22  2  0
 28 29  1  0
 29 34  2  0
 29 30  1  0
 30 31  2  0
 32 31  1  0
 32 36  1  0
 33 32  2  0
 34 33  1  0
 35 34  1  0
 37 38  1  0
 38 41  1  0
 38 40  1  0
 39 37  2  0
 42 43  1  0
 42 17  1  0
 44 42  1  0
 46 45  1  0
 46  6  1  0
 47 49  1  0
 48 59  2  0
 49 54  1  0
 50 58  1  0
 50 60  1  0
 51 57  1  0
 51 53  1  0
 52 58  1  0
 53 52  1  0
 54 53  2  0
 55 49  2  0
 56 55  1  0
 56 51  2  0
 57 50  1  0
 58 48  1  0
 60 62  2  0
 61 60  1  0
 63 61  1  0
 64 73  2  0
 64 69  1  0
 65 61  1  0
 65 69  1  0
 66 65  1  0
 67 68  1  0
 67 66  1  0
 68 64  1  0
 69 70  2  0
 70 71  1  0
 72 71  2  0
 73 72  1  0
 74 48  1  0
 74 75  1  0
 74 84  1  0
 75 78  1  0
 76 80  1  0
 76 75  1  0
 77 76  2  0
 80 79  1  0
 82 80  1  0
 82 83  1  0
 82 81  1  0
 84 87  1  1
 84 85  1  0
 86 84  1  0
M  ISO  4   2 100   5 101   9 100  47 101
M  END
>  <TORSDO>  (26) 
F 17

>  <SCORE>  (26) 
-16.122

>  <name>  (26) 
25

>  <ligand_id>  (26) 
25

>  <original_smiles>  (26) 
[H]c1c([H])c([H])c2c(c1[H])C([H])([H])C([H])([H])C([H])([H])C2([H])N([H])C(=O)C1([H])N(C(=O)C([H])(N([H])C(=O)C([H])(N([H])C([H])([H])[H])C([H])([H])[H])C(C([H])([H])[H])(C([H])([H])[H])C([H])([H])[H])C([H])([H])c2c([H])c(Oc3c(OC([H])([H])[H])c(C([H])([H])[H])c(C(=O)N4C([H])([H])C([H])([H])C([H])([H])C([H])(n5nc(-c6c([H])c([H])c(Oc7c([H])c([H])c(F)c([H])c7F)c([H])c6[H])c(C(=O)N([H])[H])c5N([H])[H])C4([H])[H])c([H])c3C([H])([H])[H])c([H])c([H])c2C1([H])[H]

>  <smiles>  (26) 
[H]c1c([H])c([H])c2c(c1[H])C([H])([H])C([H])([H])C([H])([H])C2([H])N([H])C(=O)C1([H])N(C(=O)C([H])(N([H])C(=O)C([H])(N([H])C([H])([H])[H])C([H])([H])[H])C(C([H])([H])[H])(C([H])([H])[H])C([H])([H])[H])C([H])([H])c2c([H])c(Oc3c(OC([H])([H])[H])c(C([H])([H])[H])c(C(=O)N4C([H])([H])C([H])([H])C([H])([H])C([H])(n5nc(-c6c([H])c([H])c(Oc7c([H])c([H])c(F)c([H])c7F)c([H])c6[H])c(C(=O)N([H])[H])c5N([H])[H])C4([H])[H])c([H])c3C([H])([H])[H])c([H])c([H])c2C1([H])[H]

$$$$
26:0:0
     RDKit          3D

 89 97  0  0  1  0  0  0  0  0999 V2000
  -29.3590  -21.7750   18.9070 C   0  0  0  0  0  3  0  0  0  0  0  0
  -29.0050  -23.2480   18.9670 C   0  0  0  0  0  3  0  0  0  0  0  0
  -28.8030  -21.5250   21.0450 C   0  0  0  0  0  3  0  0  0  0  0  0
  -29.3190  -20.6910   19.9210 C   0  0  0  0  0  0  0  0  0  0  0  0
  -28.4470  -23.0200   21.1230 C   0  0  0  0  0  0  0  0  0  0  0  0
  -28.4860  -24.0830   20.0720 C   0  0  0  0  0  0  0  0  0  0  0  0
  -28.0380  -23.5120   22.4990 C   0  0  0  0  0  1  0  0  0  0  0  0
  -29.8920  -18.9840   19.6340 C   0  0  0  0  0  0  0  0  0  0  0  0
  -30.5430  -18.9350   18.5870 O   0  0  0  0  0  0  0  0  0  0  0  0
  -30.4120  -17.5170   21.7350 C   0  0  0  0  0  1  0  0  0  0  0  0
  -28.2980  -17.0710   20.4920 C   0  0  0  0  0  1  0  0  0  0  0  0
  -29.8100  -17.2910   20.3330 C   0  0  1  0  0  0  0  0  0  0  0  0
  -30.5050  -15.6250   19.8560 C   0  0  0  0  0  0  0  0  0  0  0  0
  -30.4960  -13.1150   18.9470 C   0  0  0  0  0  2  0  0  0  0  0  0
  -29.5140  -12.8270   17.7740 C   0  0  0  0  0  2  0  0  0  0  0  0
  -28.1040  -12.4980   18.2960 C   0  0  0  0  0  2  0  0  0  0  0  0
  -27.6970  -13.4520   19.4410 C   0  0  0  0  0  3  0  0  0  0  0  0
  -28.8090  -13.6480   20.4980 C   0  0  0  0  0  2  0  0  0  0  0  0
  -29.9740  -14.2630   19.8140 N   0  0  0  0  0  0  0  0  0  0  0  0
  -31.6940  -15.5550   19.4900 O   0  0  0  0  0  0  0  0  0  0  0  0
  -25.3800  -13.9880   20.3480 C   0  0  0  0  0  0  0  0  0  0  0  0
  -24.3400  -13.2090   20.7670 C   0  0  0  0  0  0  0  0  0  0  0  0
  -24.8000  -11.8590   20.6860 C   0  0  0  0  0  0  0  0  0  0  0  0
  -26.4070  -13.1170   20.0300 N   0  0  0  0  0  0  0  0  0  0  0  0
  -26.0730  -11.8280   20.3000 N   0  0  0  0  0  0  0  0  0  0  0  0
  -24.0760  -10.5990   20.8970 C   0  0  0  0  0  0  0  0  0  0  0  0
  -24.5220   -9.6350   21.8270 C   0  0  0  0  0  3  0  0  0  0  0  0
  -23.7930   -8.4440   22.0280 C   0  0  0  0  0  3  0  0  0  0  0  0
  -22.6040   -8.2060   21.3000 C   0  0  0  0  0  0  0  0  0  0  0  0
  -22.1760   -9.1580   20.3590 C   0  0  0  0  0  3  0  0  0  0  0  0
  -22.9060  -10.3420   20.1550 C   0  0  0  0  0  3  0  0  0  0  0  0
  -21.8460   -7.0660   21.4110 O   0  0  0  0  0  0  0  0  0  0  0  0
  -21.7820   -6.3560   22.5830 C   0  0  0  0  0  0  0  0  0  0  0  0
  -21.2930   -6.9300   23.7760 C   0  0  0  0  0  3  0  0  0  0  0  0
  -21.1780   -6.1450   24.9400 C   0  0  0  0  0  3  0  0  0  0  0  0
  -21.5430   -4.7860   24.9120 C   0  0  0  0  0  0  0  0  0  0  0  0
  -22.0240   -4.2100   23.7230 C   0  0  0  0  0  3  0  0  0  0  0  0
  -22.1400   -4.9930   22.5610 C   0  0  0  0  0  0  0  0  0  0  0  0
  -22.5850   -4.4280   21.4130 F   0  0  0  0  0  0  0  0  0  0  0  0
  -21.4240   -4.0290   26.0280 F   0  0  0  0  0  0  0  0  0  0  0  0
  -22.9640  -13.6930   21.1210 C   0  0  0  0  0  0  0  0  0  0  0  0
  -22.2770  -12.9890   22.0130 N   0  0  0  0  0  0  0  0  0  0  0  0
  -22.5110  -14.7310   20.6420 O   0  0  0  0  0  0  0  0  0  0  0  0
  -22.6590  -12.1510   22.4260 H   0  0  0  0  0  0  0  0  0  0  0  0
  -21.3540  -13.2960   22.2890 H   0  0  0  0  0  0  0  0  0  0  0  0
  -25.5240  -15.3590   20.1840 N   0  0  0  0  0  0  0  0  0  0  0  0
  -24.7680  -16.0070   20.3830 H   0  0  0  0  0  0  0  0  0  0  0  0
  -26.3620  -15.8190   19.8560 H   0  0  0  0  0  0  0  0  0  0  0  0
  -28.3810  -25.6810   20.1420 O   0  0  0  0  0  0  0  0  0  0  0  0
  -24.6850  -31.7900   23.0650 C   0  0  0  0  0  0  0  0  0  0  0  0
  -27.3300  -26.8030   20.1050 C   0  0  0  0  0  0  0  0  0  0  0  0
  -23.5340  -30.3820   21.4050 C   0  0  0  0  0  3  0  0  0  0  0  0
  -25.0230  -28.7590   20.0140 C   0  0  0  0  0  0  0  0  0  0  0  0
  -26.1090  -30.5720   21.3190 C   0  0  0  0  0  2  0  0  0  0  0  0
  -26.1990  -29.1470   20.6670 C   0  0  0  0  0  0  0  0  0  0  0  0
  -27.3360  -28.1920   20.6830 C   0  0  0  0  0  3  0  0  0  0  0  0
  -26.1210  -26.6080   19.3940 C   0  0  0  0  0  3  0  0  0  0  0  0
  -25.0190  -27.5150   19.3560 C   0  0  0  0  0  3  0  0  0  0  0  0
  -23.8020  -29.6890   20.0370 C   0  0  0  0  0  2  0  0  0  0  0  0
  -24.7980  -30.9470   21.9820 N   0  0  0  0  0  0  0  0  0  0  0  0
  -23.5820  -32.0750   23.5620 O   0  0  0  0  0  0  0  0  0  0  0  0
  -22.8200  -29.3930   22.3650 C   0  0  0  0  0  0  0  0  0  0  0  0
  -21.4840  -29.2630   22.2550 N   0  0  0  0  0  0  0  0  0  0  0  0
  -23.4780  -28.7400   23.1780 O   0  0  0  0  0  0  0  0  0  0  0  0
  -21.0050  -29.8400   21.5790 H   0  0  0  0  0  0  0  0  0  0  0  0
  -18.0790  -28.1340   22.8220 C   0  0  0  0  0  0  0  0  0  0  0  0
  -20.6520  -28.3240   23.0170 C   0  0  0  0  0  3  0  0  0  0  0  0
  -20.6950  -26.9090   22.3930 C   0  0  0  0  0  2  0  0  0  0  0  0
  -19.5570  -26.6530   21.4000 C   0  0  0  0  0  2  0  0  0  0  0  0
  -18.1990  -26.8080   22.0900 C   0  0  0  0  0  2  0  0  0  0  0  0
  -19.2290  -28.8530   23.2440 C   0  0  0  0  0  0  0  0  0  0  0  0
  -19.0590  -30.0920   23.8970 C   0  0  0  0  0  3  0  0  0  0  0  0
  -17.7720  -30.6160   24.1260 C   0  0  0  0  0  3  0  0  0  0  0  0
  -16.6370  -29.8940   23.7170 C   0  0  0  0  0  3  0  0  0  0  0  0
  -16.7920  -28.6550   23.0720 C   0  0  0  0  0  3  0  0  0  0  0  0
  -25.9320  -32.4510   23.7240 C   0  0  0  0  0  3  0  0  0  0  0  0
  -25.5870  -33.8430   24.0730 N   0  0  0  0  0  0  0  0  0  0  0  0
  -25.9230  -34.9230   23.3560 C   0  0  0  0  0  0  0  0  0  0  0  0
  -26.6170  -34.8550   22.3380 O   0  0  0  0  0  0  0  0  0  0  0  0
  -24.9730  -33.9680   24.8640 H   0  0  0  0  0  0  0  0  0  0  0  0
  -24.2000  -36.7290   23.0050 C   0  0  0  0  0  1  0  0  0  0  0  0
  -25.4160  -36.2990   23.8410 C   0  0  0  0  0  3  0  0  0  0  0  0
  -27.5060  -37.1850   24.7830 C   0  0  0  0  0  1  0  0  0  0  0  0
  -26.4470  -37.3590   23.7910 N   0  0  0  0  0  0  0  0  0  0  0  0
  -26.0300  -38.2750   23.9300 H   0  0  0  0  0  0  0  0  0  0  0  0
  -26.4290  -31.6850   25.0130 C   0  0  1  0  0  0  0  0  0  0  0  0
  -25.3150  -31.4270   26.0560 C   0  0  0  0  0  1  0  0  0  0  0  0
  -27.0440  -30.3160   24.6440 C   0  0  0  0  0  1  0  0  0  0  0  0
  -27.5530  -32.4940   25.7040 C   0  0  0  0  0  1  0  0  0  0  0  0
  1  2  2  0
  1  4  1  0
  2  6  1  0
  3  5  1  0
  4  3  2  0
  5  7  1  0
  6 49  1  0
  6  5  2  0
  8  4  1  0
  8 12  1  0
  9  8  2  0
 12 11  1  1
 12 10  1  0
 13 12  1  0
 14 19  1  0
 15 16  1  0
 15 14  1  0
 17 16  1  0
 17 24  1  0
 17 18  1  0
 19 13  1  0
 19 18  1  0
 20 13  2  0
 21 22  2  0
 22 41  1  0
 23 22  1  0
 23 26  1  0
 24 25  1  0
 24 21  1  0
 25 23  2  0
 26 27  1  0
 27 28  2  0
 29 32  1  0
 29 28  1  0
 30 29  2  0
 31 30  1  0
 31 26  2  0
 32 33  1  0
 33 34  1  0
 34 35  2  0
 36 35  1  0
 36 40  1  0
 37 36  2  0
 38 33  2  0
 38 37  1  0
 39 38  1  0
 41 42  1  0
 42 45  1  0
 42 44  1  0
 43 41  2  0
 46 21  1  0
 46 47  1  0
 48 46  1  0
 50 61  2  0
 51 49  1  0
 51 56  1  0
 52 60  1  0
 52 62  1  0
 53 59  1  0
 53 55  1  0
 54 60  1  0
 55 56  2  0
 55 54  1  0
 57 51  2  0
 58 57  1  0
 58 53  2  0
 59 52  1  0
 60 50  1  0
 62 64  2  0
 63 62  1  0
 65 63  1  0
 66 75  2  0
 66 71  1  0
 67 63  1  0
 67 71  1  0
 68 67  1  0
 69 70  1  0
 69 68  1  0
 70 66  1  0
 71 72  2  0
 72 73  1  0
 74 73  2  0
 75 74  1  0
 76 50  1  0
 76 77  1  0
 76 86  1  0
 77 80  1  0
 78 82  1  0
 78 77  1  0
 79 78  2  0
 82 81  1  0
 84 82  1  0
 84 85  1  0
 84 83  1  0
 86 89  1  1
 86 87  1  0
 88 86  1  0
M  ISO  4   6 101  12 100  13 100  49 101
M  END
>  <TORSDO>  (27) 
F 18

>  <SCORE>  (27) 
-15.451

>  <name>  (27) 
26

>  <ligand_id>  (27) 
26

>  <original_smiles>  (27) 
[H]c1c([H])c([H])c2c(c1[H])C([H])([H])C([H])([H])C([H])([H])C2([H])N([H])C(=O)C1([H])N(C(=O)C([H])(N([H])C(=O)C([H])(N([H])C([H])([H])[H])C([H])([H])[H])C(C([H])([H])[H])(C([H])([H])[H])C([H])([H])[H])C([H])([H])c2c([H])c(Oc3c([H])c([H])c(C(=O)C(C(=O)N4C([H])([H])C([H])([H])C([H])([H])C([H])(n5nc(-c6c([H])c([H])c(Oc7c([H])c([H])c(F)c([H])c7F)c([H])c6[H])c(C(=O)N([H])[H])c5N([H])[H])C4([H])[H])(C([H])([H])[H])C([H])([H])[H])c([H])c3C([H])([H])[H])c([H])c([H])c2C1([H])[H]

>  <smiles>  (27) 
[H]c1c([H])c([H])c2c(c1[H])C([H])([H])C([H])([H])C([H])([H])C2([H])N([H])C(=O)C1([H])N(C(=O)C([H])(N([H])C(=O)C([H])(N([H])C([H])([H])[H])C([H])([H])[H])C(C([H])([H])[H])(C([H])([H])[H])C([H])([H])[H])C([H])([H])c2c([H])c(Oc3c([H])c([H])c(C(=O)C(C(=O)N4C([H])([H])C([H])([H])C([H])([H])C([H])(n5nc(-c6c([H])c([H])c(Oc7c([H])c([H])c(F)c([H])c7F)c([H])c6[H])c(C(=O)N([H])[H])c5N([H])[H])C4([H])[H])(C([H])([H])[H])C([H])([H])[H])c([H])c3C([H])([H])[H])c([H])c([H])c2C1([H])[H]

$$$$
27:0:0
     RDKit          3D

 94 94  0  0  1  0  0  0  0  0999 V2000
  -19.1070  -29.5410   22.1060 C   0  0  0  0  0  1  0  0  0  0  0  0
  -20.4680  -29.0530   21.1840 C   0  0  0  0  0  2  0  0  0  0  0  0
  -19.1980  -26.4320   24.0370 C   0  0  0  0  0  2  0  0  0  0  0  0
  -20.5060  -26.1160   23.0300 C   0  0  0  0  0  1  0  0  0  0  0  0
  -18.3230  -27.8840   23.9480 C   0  0  0  0  0  2  0  0  0  0  0  0
  -21.3660  -27.6360   21.4820 C   0  0  0  0  0  1  0  0  0  0  0  0
  -17.7890  -27.6350   26.2540 C   0  0  0  0  0  1  0  0  0  0  0  0
  -17.3370  -27.9560   24.9390 O   0  0  0  0  0  0  0  0  0  0  0  0
  -21.1220  -24.2620   23.3290 C   0  0  0  0  0  2  0  0  0  0  0  0
  -20.3640  -23.5730   24.0140 O   0  0  0  0  0  1  0  0  0  0  0  0
  -22.6780  -23.2640   22.7870 C   0  0  0  0  0  3  0  0  0  0  0  0
  -23.4910  -21.4800   22.6660 C   0  0  0  0  0  3  0  0  0  0  0  0
  -25.0920  -20.5500   22.0090 C   0  0  0  0  0  2  0  0  0  0  0  0
  -25.9610  -18.7900   21.8940 C   0  0  0  0  0  3  0  0  0  0  0  0
  -27.6340  -17.9260   21.3230 C   0  0  0  0  0  3  0  0  0  0  0  0
  -29.6230  -15.4010   20.7390 C   0  0  0  0  0  0  0  0  0  0  0  0
  -30.3410  -13.0410   19.6540 C   0  0  0  0  0  2  0  0  0  0  0  0
  -29.5170  -12.6550   18.3810 C   0  0  0  0  0  2  0  0  0  0  0  0
  -28.0740  -12.2490   18.7390 C   0  0  0  0  0  2  0  0  0  0  0  0
  -27.5280  -13.1910   19.8310 C   0  0  0  0  0  3  0  0  0  0  0  0
  -28.4380  -13.2340   21.0530 C   0  0  0  0  0  2  0  0  0  0  0  0
  -29.5490  -13.9860   20.5660 N   0  0  0  0  0  0  0  0  0  0  0  0
  -30.8070  -15.7230   20.4290 O   0  0  0  0  0  0  0  0  0  0  0  0
  -28.3810  -16.3000   21.1280 N   0  0  0  0  0  0  0  0  0  0  0  0
  -27.6330  -15.6470   21.3140 H   0  0  0  0  0  0  0  0  0  0  0  0
  -25.1980  -13.8000   20.5490 C   0  0  0  0  0  0  0  0  0  0  0  0
  -24.1390  -13.0330   20.9270 C   0  0  0  0  0  0  0  0  0  0  0  0
  -24.5960  -11.6790   20.8810 C   0  0  0  0  0  0  0  0  0  0  0  0
  -26.2040  -12.9010   20.2720 N   0  0  0  0  0  0  0  0  0  0  0  0
  -25.8740  -11.6250   20.5530 N   0  0  0  0  0  0  0  0  0  0  0  0
  -23.8750  -10.4220   21.0500 C   0  0  0  0  0  0  0  0  0  0  0  0
  -24.3440   -9.4180   21.9230 C   0  0  0  0  0  3  0  0  0  0  0  0
  -23.6190   -8.2180   22.0780 C   0  0  0  0  0  3  0  0  0  0  0  0
  -22.4190   -8.0200   21.3550 C   0  0  0  0  0  0  0  0  0  0  0  0
  -21.9750   -9.0140   20.4660 C   0  0  0  0  0  3  0  0  0  0  0  0
  -22.6990  -10.2050   20.3090 C   0  0  0  0  0  3  0  0  0  0  0  0
  -21.6610   -6.8780   21.4230 O   0  0  0  0  0  0  0  0  0  0  0  0
  -21.6820   -6.0680   22.5280 C   0  0  0  0  0  0  0  0  0  0  0  0
  -21.3990   -6.5610   23.8200 C   0  0  0  0  0  3  0  0  0  0  0  0
  -21.3650   -5.6780   24.9180 C   0  0  0  0  0  3  0  0  0  0  0  0
  -21.6040   -4.3040   24.7240 C   0  0  0  0  0  0  0  0  0  0  0  0
  -21.8830   -3.8120   23.4370 C   0  0  0  0  0  3  0  0  0  0  0  0
  -21.9190   -4.6910   22.3420 C   0  0  0  0  0  0  0  0  0  0  0  0
  -22.1670   -4.2110   21.0990 F   0  0  0  0  0  0  0  0  0  0  0  0
  -21.5630   -3.4540   25.7760 F   0  0  0  0  0  0  0  0  0  0  0  0
  -22.7500  -13.5200   21.1990 C   0  0  0  0  0  0  0  0  0  0  0  0
  -22.0160  -12.8230   22.0570 N   0  0  0  0  0  0  0  0  0  0  0  0
  -22.3280  -14.5530   20.6820 O   0  0  0  0  0  0  0  0  0  0  0  0
  -22.3770  -11.9850   22.4900 H   0  0  0  0  0  0  0  0  0  0  0  0
  -21.0810  -13.1320   22.2840 H   0  0  0  0  0  0  0  0  0  0  0  0
  -25.3870  -15.1690   20.3860 N   0  0  0  0  0  0  0  0  0  0  0  0
  -24.5640  -15.7610   20.4240 H   0  0  0  0  0  0  0  0  0  0  0  0
  -26.0410  -15.4830   19.6810 H   0  0  0  0  0  0  0  0  0  0  0  0
  -23.1880  -27.5610   20.7780 O   0  0  0  0  0  1  0  0  0  0  0  0
  -24.6880  -31.9850   23.2010 C   0  0  0  0  0  0  0  0  0  0  0  0
  -24.8190  -27.2920   20.8640 C   0  0  0  0  0  3  0  0  0  0  0  0
  -23.4940  -30.6060   21.6000 C   0  0  0  0  0  3  0  0  0  0  0  0
  -24.8650  -29.4110   19.6540 C   0  0  0  0  0  3  0  0  0  0  0  0
  -25.9940  -30.8050   21.4040 C   0  0  0  0  0  2  0  0  0  0  0  0
  -25.8250  -29.4880   20.6580 C   0  0  0  0  0  3  0  0  0  0  0  0
  -25.9260  -28.2200   21.2620 C   0  0  0  0  0  2  0  0  0  0  0  0
  -25.2960  -27.0380   19.5640 C   0  0  0  0  0  2  0  0  0  0  0  0
  -24.7900  -28.1770   18.9110 C   0  0  0  0  0  2  0  0  0  0  0  0
  -23.6110  -30.1820   20.0590 C   0  0  0  0  0  2  0  0  0  0  0  0
  -24.7400  -31.2480   22.0570 N   0  0  0  0  0  0  0  0  0  0  0  0
  -23.6070  -32.2570   23.7510 O   0  0  0  0  0  0  0  0  0  0  0  0
  -23.2940  -29.5260   22.7040 C   0  0  0  0  0  0  0  0  0  0  0  0
  -22.1770  -29.2940   23.2660 N   0  0  0  0  0  0  0  0  0  0  0  0
  -24.1910  -28.9160   23.2500 O   0  0  0  0  0  0  0  0  0  0  0  0
  -21.3510  -29.8090   22.9910 H   0  0  0  0  0  0  0  0  0  0  0  0
  -18.8920  -27.3800   21.8800 C   0  0  0  0  0  3  0  0  0  0  0  0
  -21.9640  -27.9170   23.7500 C   0  0  0  0  0  2  0  0  0  0  0  0
  -22.7320  -26.2650   22.6870 C   0  0  0  0  0 15  0  0  0  0  0  0
  -21.3520  -25.4200   20.9910 C   0  0  0  0  0 15  0  0  0  0  0  0
  -19.4540  -26.0880   20.8820 C   0  0  0  0  0  1  0  0  0  0  0  0
  -20.3870  -28.4320   23.5050 C   0  0  0  0  0  3  0  0  0  0  0  0
  -19.6060  -29.8100   24.3640 C   0  0  0  0  0  3  0  0  0  0  0  0
  -17.9660  -30.2820   24.0690 C   0  0  0  0  0  3  0  0  0  0  0  0
  -16.8700  -29.5310   22.9740 C   0  0  0  0  0  3  0  0  0  0  0  0
  -17.2270  -28.1640   21.9270 C   0  0  0  0  0  3  0  0  0  0  0  0
  -25.9820  -32.5210   23.8530 C   0  0  0  0  0  3  0  0  0  0  0  0
  -25.6700  -33.8920   24.2590 N   0  0  0  0  0  0  0  0  0  0  0  0
  -25.9260  -34.9680   23.5120 C   0  0  0  0  0  0  0  0  0  0  0  0
  -26.5500  -34.9090   22.4490 O   0  0  0  0  0  0  0  0  0  0  0  0
  -25.1130  -34.0050   25.0930 H   0  0  0  0  0  0  0  0  0  0  0  0
  -24.1540  -36.7350   23.2590 C   0  0  0  0  0  1  0  0  0  0  0  0
  -25.4180  -36.3240   24.0310 C   0  0  0  0  0  3  0  0  0  0  0  0
  -27.5620  -37.1910   24.8460 C   0  0  0  0  0  1  0  0  0  0  0  0
  -26.4320  -37.3950   23.9440 N   0  0  0  0  0  0  0  0  0  0  0  0
  -26.0180  -38.2990   24.1540 H   0  0  0  0  0  0  0  0  0  0  0  0
  -26.4730  -31.6750   25.0920 C   0  0  1  0  0  0  0  0  0  0  0  0
  -25.3710  -31.3820   26.1380 C   0  0  0  0  0  1  0  0  0  0  0  0
  -27.0730  -30.3220   24.6520 C   0  0  0  0  0  1  0  0  0  0  0  0
  -27.6160  -32.4380   25.8000 C   0  0  0  0  0  1  0  0  0  0  0  0
  2  6  1  0
  2  1  1  0
  4  3  1  0
  5  3  1  0
  5  8  1  0
  8  7  1  0
  9 10  1  0
 11  9  1  0
 12 11  2  0
 13 12  1  0
 14 13  1  0
 15 14  2  0
 16 24  1  0
 17 22  1  0
 18 19  1  0
 18 17  1  0
 20 19  1  0
 20 29  1  0
 20 21  1  0
 22 16  1  0
 22 21  1  0
 23 16  2  0
 24 25  1  0
 24 15  1  0
 26 27  2  0
 27 46  1  0
 28 27  1  0
 28 31  1  0
 29 26  1  0
 29 30  1  0
 30 28  2  0
 31 32  1  0
 32 33  2  0
 34 37  1  0
 34 33  1  0
 35 34  2  0
 36 35  1  0
 36 31  2  0
 37 38  1  0
 38 39  1  0
 39 40  2  0
 41 40  1  0
 41 45  1  0
 42 41  2  0
 43 38  2  0
 43 42  1  0
 44 43  1  0
 46 47  1  0
 47 50  1  0
 47 49  1  0
 48 46  2  0
 51 52  1  0
 51 26  1  0
 53 51  1  0
 55 66  2  0
 56 54  1  0
 56 61  1  0
 57 65  1  0
 57 67  1  0
 58 63  1  0
 58 64  1  0
 58 60  1  0
 59 65  1  0
 60 61  1  0
 60 59  1  0
 62 56  1  0
 63 62  1  0
 64 57  1  0
 65 55  1  0
 67 69  2  0
 67 68  1  0
 68 72  1  0
 70 68  1  0
 71 80  2  0
 75 71  1  0
 76 72  1  0
 76 77  2  0
 78 77  1  0
 79 78  2  0
 80 79  1  0
 81 55  1  0
 81 82  1  0
 81 91  1  0
 82 85  1  0
 83 87  1  0
 83 82  1  0
 84 83  2  0
 87 86  1  0
 89 87  1  0
 89 90  1  0
 89 88  1  0
 91 94  1  1
 91 92  1  0
 93 91  1  0
M  ISO  4   6 101  16 100  24 100  54 101
M  END
>  <TORSDO>  (28) 
F 23

>  <SCORE>  (28) 
39.468

>  <name>  (28) 
27

>  <ligand_id>  (28) 
27

>  <original_smiles>  (28) 
[H]c1c([H])c([H])c2c(c1[H])C([H])([H])C([H])([H])C([H])([H])C2([H])N([H])C(=O)C1([H])N(C(=O)C([H])(N([H])C(=O)C([H])(N([H])C([H])([H])[H])C([H])([H])[H])C(C([H])([H])[H])(C([H])([H])[H])C([H])([H])[H])C([H])([H])c2c([H])c(Oc3c([H])c([H])c(OC([H])([H])[H])c([H])c3C(=O)C([H])([H])C([H])([H])C([H])([H])C([H])([H])C([H])([H])N([H])C(=O)N3C([H])([H])C([H])([H])C([H])([H])C([H])(n4nc(-c5c([H])c([H])c(Oc6c([H])c([H])c(F)c([H])c6F)c([H])c5[H])c(C(=O)N([H])[H])c4N([H])[H])C3([H])[H])c([H])c([H])c2C1([H])[H]

>  <smiles>  (28) 
[H]c1c([H])c([H])c2c(c1[H])C([H])([H])C([H])([H])C([H])([H])C2([H])N([H])C(=O)C1([H])N(C(=O)C([H])(N([H])C(=O)C([H])(N([H])C([H])([H])[H])C([H])([H])[H])C(C([H])([H])[H])(C([H])([H])[H])C([H])([H])[H])C([H])([H])c2c([H])c(Oc3c([H])c([H])c(OC([H])([H])[H])c([H])c3C(=O)C([H])([H])C([H])([H])C([H])([H])C([H])([H])C([H])([H])N([H])C(=O)N3C([H])([H])C([H])([H])C([H])([H])C([H])(n4nc(-c5c([H])c([H])c(Oc6c([H])c([H])c(F)c([H])c6F)c([H])c5[H])c(C(=O)N([H])[H])c4N([H])[H])C3([H])[H])c([H])c([H])c2C1([H])[H]

$$$$
28:0:0
     RDKit          3D

102109  0  0  1  0  0  0  0  0999 V2000
  -30.9310  -17.0710   17.2460 C   0  0  0  0  0  2  0  0  0  0  0  0
  -32.4080  -14.2820   17.2970 C   0  0  0  0  0  3  0  0  0  0  0  0
  -32.3740  -12.6470   17.7740 C   0  0  0  0  0  3  0  0  0  0  0  0
  -30.4060  -15.3020   18.8520 C   0  0  0  0  0  3  0  0  0  0  0  0
  -31.4170  -15.5240   17.7920 C   0  0  0  0  0  0  0  0  0  0  0  0
  -31.2070  -12.1620   18.9550 C   0  0  0  0  0  3  0  0  0  0  0  0
  -30.0840  -13.9680   19.5050 C   0  0  0  0  0  2  0  0  0  0  0  0
  -31.0730  -10.4510   19.2310 C   0  0  0  0  0  2  0  0  0  0  0  0
  -29.7300   -9.3280   19.2690 C   0  0  0  0  0  2  0  0  0  0  0  0
  -29.3700   -8.1050   20.4020 C   0  0  0  0  0  2  0  0  0  0  0  0
  -27.8810   -7.2690   20.8500 C   0  0  0  0  0  1  0  0  0  0  0  0
  -24.7630   -7.4530   24.0800 C   0  0  0  0  0  1  0  0  0  0  0  0
  -25.6130   -8.1590   23.0180 C   0  0  0  0  0  1  0  0  0  0  0  0
  -29.1990  -14.5690   20.7630 C   0  0  0  0  0  2  0  0  0  0  0  0
  -29.9520  -14.5590   22.1060 C   0  0  0  0  0  2  0  0  0  0  0  0
  -30.9800  -13.4490   22.0680 C   0  0  0  0  0  0  0  0  0  0  0  0
  -31.3010  -12.0870   20.2840 C   0  0  0  0  0  2  0  0  0  0  0  0
  -29.0160  -11.9900   18.0710 C   0  0  0  0  0  1  0  0  0  0  0  0
  -27.4700  -11.7280   18.9600 C   0  0  0  0  0  2  0  0  0  0  0  0
  -27.4020  -11.9700   20.7530 C   0  0  0  0  0  3  0  0  0  0  0  0
  -28.7850  -11.9330   22.0970 C   0  0  0  0  0  2  0  0  0  0  0  0
  -30.5110  -12.1990   21.8280 N   0  0  0  0  0  0  0  0  0  0  0  0
  -32.1490  -13.8020   21.8720 O   0  0  0  0  0  0  0  0  0  0  0  0
  -25.3380  -13.3430   21.0590 C   0  0  0  0  0  3  0  0  0  0  0  0
  -24.1260  -12.8050   21.2000 C   0  0  0  0  0  0  0  0  0  0  0  0
  -24.4080  -11.4360   21.3220 C   0  0  0  0  0  0  0  0  0  0  0  0
  -26.1550  -12.2130   21.1680 N   0  0  0  0  0  0  0  0  0  0  0  0
  -25.6140  -11.1210   21.5410 N   0  0  0  0  0  2  0  0  0  0  0  0
  -23.6630  -10.3440   21.2050 C   0  0  0  0  0  0  0  0  0  0  0  0
  -23.7460   -9.1710   22.4220 C   0  0  0  0  0  3  0  0  0  0  0  0
  -22.6970   -7.8840   22.3600 C   0  0  0  0  0  3  0  0  0  0  0  0
  -21.5970   -7.7650   21.1140 C   0  0  0  0  0  0  0  0  0  0  0  0
  -21.5440   -8.9050   19.9110 C   0  0  0  0  0  3  0  0  0  0  0  0
  -22.5830  -10.2070   19.9310 C   0  0  0  0  0  3  0  0  0  0  0  0
  -20.5240   -6.9180   21.1720 O   0  0  0  0  0  0  0  0  0  0  0  0
  -20.2490   -6.2020   22.3120 C   0  0  0  0  0  0  0  0  0  0  0  0
  -19.6680   -6.7320   23.4910 C   0  0  0  0  0  3  0  0  0  0  0  0
  -19.3940   -5.9370   24.6060 C   0  0  0  0  0  3  0  0  0  0  0  0
  -19.5870   -4.5590   24.5120 C   0  0  0  0  0  0  0  0  0  0  0  0
  -20.0820   -3.9940   23.3230 C   0  0  0  0  0  3  0  0  0  0  0  0
  -20.4180   -4.8140   22.2320 C   0  0  0  0  0  0  0  0  0  0  0  0
  -20.8500   -4.2670   21.0720 F   0  0  0  0  0  0  0  0  0  0  0  0
  -19.2420   -3.7750   25.5570 F   0  0  0  0  0  0  0  0  0  0  0  0
  -22.8200  -13.4870   21.0790 C   0  0  0  0  0  0  0  0  0  0  0  0
  -21.8310  -13.0150   21.8170 N   0  0  0  0  0  0  0  0  0  0  0  0
  -22.7010  -14.5080   20.4090 O   0  0  0  0  0  0  0  0  0  0  0  0
  -21.9630  -12.2080   22.4060 H   0  0  0  0  0  0  0  0  0  0  0  0
  -20.9310  -13.4750   21.8060 H   0  0  0  0  0  0  0  0  0  0  0  0
  -25.7920  -14.6380   20.7930 N   0  0  0  0  0  0  0  0  0  0  0  0
  -25.1550  -15.4160   20.6610 H   0  0  0  0  0  0  0  0  0  0  0  0
  -26.7580  -14.8810   20.6090 H   0  0  0  0  0  0  0  0  0  0  0  0
  -31.0530  -18.6200   18.1170 C   0  0  0  0  0  2  0  0  0  0  0  0
  -28.4870  -22.0150   17.8580 C   0  0  0  0  0  3  0  0  0  0  0  0
  -29.0460  -20.6620   17.6480 C   0  0  0  0  0  3  0  0  0  0  0  0
  -30.2860  -22.6280   19.1680 C   0  0  0  0  0  3  0  0  0  0  0  0
  -29.0380  -23.1260   18.6300 C   0  0  0  0  0  0  0  0  0  0  0  0
  -30.2910  -20.1660   18.1880 C   0  0  0  0  0  0  0  0  0  0  0  0
  -30.8580  -21.2740   18.9600 C   0  0  0  0  0  0  0  0  0  0  0  0
  -31.9520  -20.5920   20.9170 C   0  0  0  0  0  1  0  0  0  0  0  0
  -32.0610  -21.0250   19.5670 O   0  0  0  0  0  0  0  0  0  0  0  0
  -28.1360  -24.5650   18.9270 C   0  0  0  0  0  2  0  0  0  0  0  0
  -28.4100  -26.0900   19.3900 O   0  0  0  0  0  0  0  0  0  0  0  0
  -24.5620  -31.6650   22.9290 C   0  0  0  0  0  0  0  0  0  0  0  0
  -27.3100  -27.0690   19.5770 C   0  0  0  0  0  0  0  0  0  0  0  0
  -23.4000  -30.2460   21.2950 C   0  0  0  0  0  3  0  0  0  0  0  0
  -24.8840  -28.7510   19.8100 C   0  0  0  0  0  0  0  0  0  0  0  0
  -25.9550  -30.5850   21.0970 C   0  0  0  0  0  2  0  0  0  0  0  0
  -26.0770  -29.2080   20.3840 C   0  0  0  0  0  0  0  0  0  0  0  0
  -27.2830  -28.3830   20.2570 C   0  0  0  0  0  3  0  0  0  0  0  0
  -26.0480  -26.7310   19.0390 C   0  0  0  0  0  3  0  0  0  0  0  0
  -24.8840  -27.5200   19.1440 C   0  0  0  0  0  3  0  0  0  0  0  0
  -23.6250  -29.6050   19.9060 C   0  0  0  0  0  2  0  0  0  0  0  0
  -24.6620  -30.8550   21.8270 N   0  0  0  0  0  0  0  0  0  0  0  0
  -23.4710  -31.8970   23.4740 O   0  0  0  0  0  0  0  0  0  0  0  0
  -22.7710  -29.2000   22.2510 C   0  0  0  0  0  0  0  0  0  0  0  0
  -21.4450  -28.9910   22.1560 N   0  0  0  0  0  0  0  0  0  0  0  0
  -23.4820  -28.5770   23.0450 O   0  0  0  0  0  0  0  0  0  0  0  0
  -20.9240  -29.5460   21.4910 H   0  0  0  0  0  0  0  0  0  0  0  0
  -18.1210  -27.6490   22.7170 C   0  0  0  0  0  0  0  0  0  0  0  0
  -20.6750  -28.0080   22.9260 C   0  0  0  0  0  3  0  0  0  0  0  0
  -20.8170  -26.5930   22.3190 C   0  0  0  0  0  2  0  0  0  0  0  0
  -19.7030  -26.2480   21.3260 C   0  0  0  0  0  2  0  0  0  0  0  0
  -18.3330  -26.3240   22.0060 C   0  0  0  0  0  2  0  0  0  0  0  0
  -19.2200  -28.4470   23.1340 C   0  0  0  0  0  0  0  0  0  0  0  0
  -18.9650  -29.6860   23.7640 C   0  0  0  0  0  3  0  0  0  0  0  0
  -17.6460  -30.1270   23.9780 C   0  0  0  0  0  3  0  0  0  0  0  0
  -16.5630  -29.3270   23.5730 C   0  0  0  0  0  3  0  0  0  0  0  0
  -16.8010  -28.0900   22.9490 C   0  0  0  0  0  3  0  0  0  0  0  0
  -25.8150  -32.3520   23.5510 C   0  0  0  0  0  3  0  0  0  0  0  0
  -25.4320  -33.7210   23.9400 N   0  0  0  0  0  0  0  0  0  0  0  0
  -25.7730  -34.8310   23.2730 C   0  0  0  0  0  0  0  0  0  0  0  0
  -26.5050  -34.8130   22.2800 O   0  0  0  0  0  0  0  0  0  0  0  0
  -24.7840  -33.8050   24.7100 H   0  0  0  0  0  0  0  0  0  0  0  0
  -24.0240  -36.6090   22.9200 C   0  0  0  0  0  1  0  0  0  0  0  0
  -25.2170  -36.1750   23.7870 C   0  0  0  0  0  3  0  0  0  0  0  0
  -27.2670  -37.0490   24.8210 C   0  0  0  0  0  1  0  0  0  0  0  0
  -26.2260  -37.2580   23.8180 N   0  0  0  0  0  0  0  0  0  0  0  0
  -25.7850  -38.1550   24.0010 H   0  0  0  0  0  0  0  0  0  0  0  0
  -26.3900  -31.5740   24.7980 C   0  0  1  0  0  0  0  0  0  0  0  0
  -25.3310  -31.2630   25.8810 C   0  0  0  0  0  1  0  0  0  0  0  0
  -27.0270  -30.2320   24.3680 C   0  0  0  0  0  1  0  0  0  0  0  0
  -27.5190  -32.4030   25.4550 C   0  0  0  0  0  1  0  0  0  0  0  0
  1  5  1  0
  1 52  1  0
  2  3  2  0
  2  5  1  0
  3  6  1  0
  4  7  1  0
  5  4  2  0
  6  8  1  0
  6 17  1  0
  7 14  1  0
  8  9  1  0
  9 10  1  0
 10 11  1  0
 13 12  1  0
 14 15  1  0
 16 15  1  0
 17 22  1  0
 18 19  1  0
 20 19  1  0
 20 27  1  0
 20 21  1  0
 22 16  1  0
 22 21  1  0
 23 16  2  0
 24 49  1  0
 24 27  1  0
 24 25  1  0
 25 26  2  0
 26 28  1  0
 27 28  1  0
 29 26  1  0
 29 30  1  0
 31 30  2  0
 32 35  1  0
 32 31  1  0
 33 34  1  0
 33 32  2  0
 34 29  2  0
 35 36  1  0
 36 37  1  0
 37 38  2  0
 39 38  1  0
 39 43  1  0
 40 39  2  0
 41 36  2  0
 41 40  1  0
 42 41  1  0
 44 25  1  0
 44 45  1  0
 45 47  1  0
 46 44  2  0
 48 45  1  0
 50 49  1  0
 51 49  1  0
 52 57  1  0
 53 56  1  0
 54 53  2  0
 54 57  1  0
 56 61  1  0
 56 55  2  0
 57 58  2  0
 58 55  1  0
 58 60  1  0
 60 59  1  0
 61 62  1  0
 62 64  1  0
 63 74  2  0
 64 69  1  0
 65 73  1  0
 65 75  1  0
 66 72  1  0
 66 68  1  0
 67 73  1  0
 68 67  1  0
 69 68  2  0
 70 71  1  0
 70 64  2  0
 71 66  2  0
 72 65  1  0
 73 63  1  0
 75 77  2  0
 76 75  1  0
 78 76  1  0
 79 88  2  0
 79 84  1  0
 80 76  1  0
 80 84  1  0
 81 80  1  0
 82 83  1  0
 82 81  1  0
 83 79  1  0
 84 85  2  0
 85 86  1  0
 87 86  2  0
 88 87  1  0
 89 63  1  0
 89 90  1  0
 89 99  1  0
 90 93  1  0
 91 95  1  0
 91 90  1  0
 92 91  2  0
 95 94  1  0
 95 97  1  0
 97 98  1  0
 97 96  1  0
 99102  1  1
 99100  1  0
101 99  1  0
M  ISO  4  15 100  16 100  61 101  62 101
M  END
>  <TORSDO>  (29) 
F 28

>  <SCORE>  (29) 
-4.752

>  <name>  (29) 
28

>  <ligand_id>  (29) 
28

>  <original_smiles>  (29) 
[H]c1c([H])c([H])c2c(c1[H])C([H])([H])C([H])([H])C([H])([H])C2([H])N([H])C(=O)C1([H])N(C(=O)C([H])(N([H])C(=O)C([H])(N([H])C([H])([H])[H])C([H])([H])[H])C(C([H])([H])[H])(C([H])([H])[H])C([H])([H])[H])C([H])([H])c2c([H])c(OC([H])([H])c3c([H])c([H])c(C([H])([H])C([H])([H])c4c([H])c([H])c(C([H])([H])C([H])([H])C([H])([H])C([H])([H])C([H])([H])C([H])([H])[H])c(C([H])([H])C([H])([H])C(=O)N5C([H])([H])C([H])([H])C([H])([H])C([H])(n6nc(-c7c([H])c([H])c(Oc8c([H])c([H])c(F)c([H])c8F)c([H])c7[H])c(C(=O)N([H])[H])c6N([H])[H])C5([H])[H])c4[H])c(OC([H])([H])[H])c3[H])c([H])c([H])c2C1([H])[H]

>  <smiles>  (29) 
[H]c1c([H])c([H])c2c(c1[H])C([H])([H])C([H])([H])C([H])([H])C2([H])N([H])C(=O)C1([H])N(C(=O)C([H])(N([H])C(=O)C([H])(N([H])C([H])([H])[H])C([H])([H])[H])C(C([H])([H])[H])(C([H])([H])[H])C([H])([H])[H])C([H])([H])c2c([H])c(OC([H])([H])c3c([H])c([H])c(C([H])([H])C([H])([H])c4c([H])c([H])c(C([H])([H])C([H])([H])C([H])([H])C([H])([H])C([H])([H])C([H])([H])[H])c(C([H])([H])C([H])([H])C(=O)N5C([H])([H])C([H])([H])C([H])([H])C([H])(n6nc(-c7c([H])c([H])c(Oc8c([H])c([H])c(F)c([H])c8F)c([H])c7[H])c(C(=O)N([H])[H])c6N([H])[H])C5([H])[H])c4[H])c(OC([H])([H])[H])c3[H])c([H])c([H])c2C1([H])[H]

$$$$
29:0:0
     RDKit          3D

 95104  0  0  1  0  0  0  0  0999 V2000
  -29.2640  -22.2270   21.8250 C   0  0  0  0  0  3  0  0  0  0  0  0
  -28.7140  -23.3990   19.7840 C   0  0  0  0  0  3  0  0  0  0  0  0
  -29.0520  -22.0870   20.4420 C   0  0  0  0  0  0  0  0  0  0  0  0
  -29.1890  -23.4700   22.5120 C   0  0  0  0  0  0  0  0  0  0  0  0
  -28.5760  -24.7500   20.4420 C   0  0  0  0  0  0  0  0  0  0  0  0
  -28.8490  -24.6870   21.8380 C   0  0  0  0  0  0  0  0  0  0  0  0
  -30.9070  -20.1330   19.9860 C   0  0  0  0  0  2  0  0  0  0  0  0
  -31.0810  -18.5790   20.2840 C   0  0  0  0  0  2  0  0  0  0  0  0
  -28.8100  -19.0620   20.1990 C   0  0  0  0  0  2  0  0  0  0  0  0
  -29.4140  -20.5640   19.8120 C   0  0  0  0  0  3  0  0  0  0  0  0
  -29.8330  -17.8100   19.7960 C   0  0  0  0  0  3  0  0  0  0  0  0
  -30.4430  -15.0460   20.0240 C   0  0  0  0  0  0  0  0  0  0  0  0
  -30.3520  -12.6190   19.2240 C   0  0  0  0  0  2  0  0  0  0  0  0
  -29.3890  -12.4580   18.0230 C   0  0  0  0  0  2  0  0  0  0  0  0
  -27.9560  -12.2130   18.5200 C   0  0  0  0  0  2  0  0  0  0  0  0
  -27.5500  -13.2150   19.6310 C   0  0  0  0  0  3  0  0  0  0  0  0
  -28.6310  -13.3490   20.7280 C   0  0  0  0  0  2  0  0  0  0  0  0
  -29.8720  -13.7640   20.0650 N   0  0  0  0  0  0  0  0  0  0  0  0
  -31.6220  -15.0970   19.6540 O   0  0  0  0  0  0  0  0  0  0  0  0
  -29.6700  -16.2520   20.1930 N   0  0  0  0  0  0  0  0  0  0  0  0
  -28.7400  -16.0360   20.5110 H   0  0  0  0  0  0  0  0  0  0  0  0
  -25.2210  -13.8080   20.4960 C   0  0  0  0  0  0  0  0  0  0  0  0
  -24.1590  -13.0390   20.8890 C   0  0  0  0  0  0  0  0  0  0  0  0
  -24.5980  -11.6830   20.8000 C   0  0  0  0  0  0  0  0  0  0  0  0
  -26.2340  -12.9200   20.1820 N   0  0  0  0  0  0  0  0  0  0  0  0
  -25.8720  -11.6340   20.4290 N   0  0  0  0  0  0  0  0  0  0  0  0
  -23.8570  -10.4280   20.9870 C   0  0  0  0  0  0  0  0  0  0  0  0
  -24.3090   -9.4290   21.8770 C   0  0  0  0  0  3  0  0  0  0  0  0
  -23.5680   -8.2430   22.0580 C   0  0  0  0  0  3  0  0  0  0  0  0
  -22.3600   -8.0440   21.3500 C   0  0  0  0  0  0  0  0  0  0  0  0
  -21.9250   -9.0310   20.4480 C   0  0  0  0  0  3  0  0  0  0  0  0
  -22.6670  -10.2100   20.2640 C   0  0  0  0  0  3  0  0  0  0  0  0
  -21.5900   -6.9100   21.4400 O   0  0  0  0  0  0  0  0  0  0  0  0
  -21.5940   -6.1270   22.5670 C   0  0  0  0  0  0  0  0  0  0  0  0
  -21.2350   -6.6380   23.8330 C   0  0  0  0  0  3  0  0  0  0  0  0
  -21.1850   -5.7810   24.9500 C   0  0  0  0  0  3  0  0  0  0  0  0
  -21.4850   -4.4140   24.8030 C   0  0  0  0  0  0  0  0  0  0  0  0
  -21.8370   -3.9010   23.5420 C   0  0  0  0  0  3  0  0  0  0  0  0
  -21.8870   -4.7560   22.4280 C   0  0  0  0  0  0  0  0  0  0  0  0
  -22.2060   -4.2530   21.2100 F   0  0  0  0  0  0  0  0  0  0  0  0
  -21.4290   -3.5890   25.8730 F   0  0  0  0  0  0  0  0  0  0  0  0
  -22.7870  -13.5320   21.2340 C   0  0  0  0  0  0  0  0  0  0  0  0
  -22.0880  -12.8340   22.1230 N   0  0  0  0  0  0  0  0  0  0  0  0
  -22.3440  -14.5750   20.7530 O   0  0  0  0  0  0  0  0  0  0  0  0
  -22.4540  -11.9870   22.5320 H   0  0  0  0  0  0  0  0  0  0  0  0
  -21.1730  -13.1580   22.4030 H   0  0  0  0  0  0  0  0  0  0  0  0
  -25.4060  -15.1800   20.3580 N   0  0  0  0  0  0  0  0  0  0  0  0
  -24.6670  -15.8470   20.5540 H   0  0  0  0  0  0  0  0  0  0  0  0
  -26.2720  -15.6190   20.0760 H   0  0  0  0  0  0  0  0  0  0  0  0
  -31.0670  -23.9730   24.1290 C   0  0  0  0  0  1  0  0  0  0  0  0
  -29.4330  -22.1400   24.7210 C   0  0  0  0  0  1  0  0  0  0  0  0
  -29.6160  -23.4840   23.9900 C   0  0  0  0  0  3  0  0  0  0  0  0
  -28.8660  -25.8650   22.5370 O   0  0  0  0  0  0  0  0  0  0  0  0
  -29.1720  -25.7640   23.4290 H   0  0  0  0  0  0  0  0  0  0  0  0
  -28.4370  -26.1090   19.8400 O   0  0  0  0  0  0  0  0  0  0  0  0
  -24.6250  -31.6020   23.1220 C   0  0  0  0  0  0  0  0  0  0  0  0
  -27.3290  -27.0540   19.9270 C   0  0  0  0  0  0  0  0  0  0  0  0
  -23.4490  -30.2090   21.4630 C   0  0  0  0  0  3  0  0  0  0  0  0
  -24.9350  -28.7350   19.9620 C   0  0  0  0  0  0  0  0  0  0  0  0
  -25.9860  -30.5830   21.2510 C   0  0  0  0  0  2  0  0  0  0  0  0
  -26.1070  -29.2060   20.5660 C   0  0  0  0  0  0  0  0  0  0  0  0
  -27.3030  -28.3850   20.5270 C   0  0  0  0  0  3  0  0  0  0  0  0
  -26.1280  -26.6950   19.2810 C   0  0  0  0  0  3  0  0  0  0  0  0
  -24.9580  -27.4960   19.3000 C   0  0  0  0  0  3  0  0  0  0  0  0
  -23.6730  -29.5840   20.0580 C   0  0  0  0  0  2  0  0  0  0  0  0
  -24.7080  -30.8220   22.0010 N   0  0  0  0  0  0  0  0  0  0  0  0
  -23.5390  -31.8180   23.6850 O   0  0  0  0  0  0  0  0  0  0  0  0
  -22.8360  -29.1440   22.4080 C   0  0  0  0  0  0  0  0  0  0  0  0
  -21.5330  -28.8490   22.2440 N   0  0  0  0  0  0  0  0  0  0  0  0
  -23.5380  -28.5860   23.2560 O   0  0  0  0  0  0  0  0  0  0  0  0
  -21.0160  -29.3590   21.5400 H   0  0  0  0  0  0  0  0  0  0  0  0
  -18.3070  -27.2290   22.5520 C   0  0  0  0  0  0  0  0  0  0  0  0
  -20.7840  -27.8360   22.9920 C   0  0  0  0  0  3  0  0  0  0  0  0
  -21.1130  -26.4120   22.4870 C   0  0  0  0  0  2  0  0  0  0  0  0
  -20.1450  -25.9150   21.4110 C   0  0  0  0  0  2  0  0  0  0  0  0
  -18.7100  -25.8950   21.9450 C   0  0  0  0  0  2  0  0  0  0  0  0
  -19.2810  -28.1470   23.0300 C   0  0  0  0  0  0  0  0  0  0  0  0
  -18.8550  -29.3860   23.5550 C   0  0  0  0  0  3  0  0  0  0  0  0
  -17.4870  -29.7120   23.6080 C   0  0  0  0  0  3  0  0  0  0  0  0
  -16.5270  -28.7960   23.1450 C   0  0  0  0  0  3  0  0  0  0  0  0
  -16.9360  -27.5560   22.6220 C   0  0  0  0  0  3  0  0  0  0  0  0
  -25.8860  -32.2760   23.7430 C   0  0  0  0  0  3  0  0  0  0  0  0
  -26.4300  -31.5170   25.0160 C   0  0  1  0  0  0  0  0  0  0  0  0
  -25.3520  -31.2580   26.0970 C   0  0  0  0  0  1  0  0  0  0  0  0
  -27.0390  -30.1530   24.6230 C   0  0  0  0  0  1  0  0  0  0  0  0
  -27.5700  -32.3340   25.6650 C   0  0  0  0  0  1  0  0  0  0  0  0
  -25.5340  -33.6630   24.0890 N   0  0  0  0  0  0  0  0  0  0  0  0
  -25.8560  -34.7400   23.3600 C   0  0  0  0  0  0  0  0  0  0  0  0
  -26.5490  -34.6730   22.3420 O   0  0  0  0  0  0  0  0  0  0  0  0
  -24.9140  -33.7860   24.8760 H   0  0  0  0  0  0  0  0  0  0  0  0
  -24.0900  -36.5020   23.0160 C   0  0  0  0  0  1  0  0  0  0  0  0
  -25.3290  -36.1090   23.8380 C   0  0  0  0  0  3  0  0  0  0  0  0
  -27.4330  -37.0270   24.7090 C   0  0  0  0  0  1  0  0  0  0  0  0
  -26.3340  -37.1920   23.7630 N   0  0  0  0  0  0  0  0  0  0  0  0
  -25.9010  -38.0950   23.9380 H   0  0  0  0  0  0  0  0  0  0  0  0
  1  4  1  0
  2  3  1  0
  2  5  2  0
  3  1  2  0
  4 52  1  0
  5  6  1  0
  6  4  2  0
  6 53  1  0
  7  8  1  0
 10  7  1  0
 10  9  1  0
 10  3  1  0
 11 20  1  0
 11  9  1  0
 11  8  1  0
 12 18  1  0
 12 20  1  0
 13 18  1  0
 14 15  1  0
 14 13  1  0
 16 15  1  0
 16 25  1  0
 16 17  1  0
 18 17  1  0
 19 12  2  0
 20 21  1  0
 22 23  2  0
 23 42  1  0
 24 23  1  0
 24 27  1  0
 25 26  1  0
 25 22  1  0
 26 24  2  0
 27 28  1  0
 28 29  2  0
 30 33  1  0
 30 29  1  0
 31 30  2  0
 32 31  1  0
 32 27  2  0
 33 34  1  0
 34 35  1  0
 35 36  2  0
 37 36  1  0
 37 41  1  0
 38 37  2  0
 39 34  2  0
 39 38  1  0
 40 39  1  0
 42 43  1  0
 43 46  1  0
 43 45  1  0
 44 42  2  0
 47 22  1  0
 47 48  1  0
 49 47  1  0
 52 50  1  0
 52 51  1  0
 53 54  1  0
 55 57  1  0
 55  5  1  0
 56 67  2  0
 57 62  1  0
 58 66  1  0
 58 68  1  0
 59 65  1  0
 59 61  1  0
 60 66  1  0
 61 60  1  0
 62 61  2  0
 63 64  1  0
 63 57  2  0
 64 59  2  0
 65 58  1  0
 66 56  1  0
 68 70  2  0
 69 68  1  0
 71 69  1  0
 72 81  2  0
 72 77  1  0
 73 69  1  0
 73 77  1  0
 74 73  1  0
 75 76  1  0
 75 74  1  0
 76 72  1  0
 77 78  2  0
 78 79  1  0
 80 79  2  0
 81 80  1  0
 82 56  1  0
 82 87  1  0
 82 83  1  0
 83 86  1  1
 83 84  1  0
 85 83  1  0
 87 90  1  0
 88 92  1  0
 88 87  1  0
 89 88  2  0
 92 91  1  0
 94 92  1  0
 94 95  1  0
 94 93  1  0
M  ISO  4   5 101  12 100  20 100  55 101
M  END
>  <TORSDO>  (30) 
F 19

>  <SCORE>  (30) 
-10.346

>  <name>  (30) 
29

>  <ligand_id>  (30) 
29

>  <original_smiles>  (30) 
[H]Oc1c(Oc2c([H])c([H])c3c(c2[H])C([H])([H])N(C(=O)C([H])(N([H])C(=O)C([H])(N([H])C([H])([H])[H])C([H])([H])[H])C(C([H])([H])[H])(C([H])([H])[H])C([H])([H])[H])C([H])(C(=O)N([H])C2([H])c4c([H])c([H])c([H])c([H])c4C([H])([H])C([H])([H])C2([H])[H])C3([H])[H])c([H])c(C2([H])C([H])([H])C([H])([H])C([H])(N([H])C(=O)N3C([H])([H])C([H])([H])C([H])([H])C([H])(n4nc(-c5c([H])c([H])c(Oc6c([H])c([H])c(F)c([H])c6F)c([H])c5[H])c(C(=O)N([H])[H])c4N([H])[H])C3([H])[H])C2([H])[H])c([H])c1C([H])(C([H])([H])[H])C([H])([H])[H]

>  <smiles>  (30) 
[H]Oc1c(Oc2c([H])c([H])c3c(c2[H])C([H])([H])N(C(=O)C([H])(N([H])C(=O)C([H])(N([H])C([H])([H])[H])C([H])([H])[H])C(C([H])([H])[H])(C([H])([H])[H])C([H])([H])[H])C([H])(C(=O)N([H])C2([H])c4c([H])c([H])c([H])c([H])c4C([H])([H])C([H])([H])C2([H])[H])C3([H])[H])c([H])c(C2([H])C([H])([H])C([H])([H])C([H])(N([H])C(=O)N3C([H])([H])C([H])([H])C([H])([H])C([H])(n4nc(-c5c([H])c([H])c(Oc6c([H])c([H])c(F)c([H])c6F)c([H])c5[H])c(C(=O)N([H])[H])c4N([H])[H])C3([H])[H])C2([H])[H])c([H])c1C([H])(C([H])([H])[H])C([H])([H])[H]

$$$$
30:0:0
     RDKit          3D

 94102  0  0  1  0  0  0  0  0999 V2000
  -28.1220  -25.4880   17.9160 C   0  0  0  0  0  3  0  0  0  0  0  0
  -27.5150  -24.4160   17.2350 C   0  0  0  0  0  3  0  0  0  0  0  0
  -27.9220  -24.2330   19.9980 C   0  0  0  0  0  0  0  0  0  0  0  0
  -28.2200  -25.4620   19.3260 C   0  0  0  0  0  0  0  0  0  0  0  0
  -26.9720  -23.3730   19.3830 C   0  0  0  0  0  0  0  0  0  0  0  0
  -26.8690  -23.4150   17.9670 C   0  0  0  0  0  0  0  0  0  0  0  0
  -26.1760  -22.4730   17.2780 F   0  0  0  0  0  0  0  0  0  0  0  0
  -24.8610  -22.2590   19.6840 C   0  0  0  0  0  1  0  0  0  0  0  0
  -26.1770  -22.5650   20.1740 O   0  0  0  0  0  0  0  0  0  0  0  0
  -28.3450  -26.6770   20.0060 O   0  0  0  0  0  0  0  0  0  0  0  0
  -24.6310  -31.9110   23.3310 C   0  0  0  0  0  0  0  0  0  0  0  0
  -27.1980  -27.4850   20.0890 C   0  0  0  0  0  0  0  0  0  0  0  0
  -23.4030  -30.5800   21.6490 C   0  0  0  0  0  3  0  0  0  0  0  0
  -24.8320  -29.0790   20.1820 C   0  0  0  0  0  0  0  0  0  0  0  0
  -25.9460  -30.8980   21.4630 C   0  0  0  0  0  2  0  0  0  0  0  0
  -26.0130  -29.5470   20.7720 C   0  0  0  0  0  0  0  0  0  0  0  0
  -27.2000  -28.7580   20.7280 C   0  0  0  0  0  3  0  0  0  0  0  0
  -25.9660  -27.0470   19.5400 C   0  0  0  0  0  3  0  0  0  0  0  0
  -24.8070  -27.8200   19.5700 C   0  0  0  0  0  3  0  0  0  0  0  0
  -23.6020  -29.9470   20.2530 C   0  0  0  0  0  2  0  0  0  0  0  0
  -24.6790  -31.1420   22.2060 N   0  0  0  0  0  0  0  0  0  0  0  0
  -23.5550  -32.1650   23.8890 O   0  0  0  0  0  0  0  0  0  0  0  0
  -22.7440  -29.5300   22.5730 C   0  0  0  0  0  0  0  0  0  0  0  0
  -21.4200  -29.3440   22.4300 N   0  0  0  0  0  0  0  0  0  0  0  0
  -23.4160  -28.8840   23.3780 O   0  0  0  0  0  0  0  0  0  0  0  0
  -20.9300  -29.9250   21.7620 H   0  0  0  0  0  0  0  0  0  0  0  0
  -18.0450  -28.1300   22.8490 C   0  0  0  0  0  0  0  0  0  0  0  0
  -20.5950  -28.3910   23.1690 C   0  0  0  0  0  3  0  0  0  0  0  0
  -20.7110  -26.9670   22.5720 C   0  0  0  0  0  2  0  0  0  0  0  0
  -19.6280  -26.6590   21.5320 C   0  0  0  0  0  2  0  0  0  0  0  0
  -18.2340  -26.7940   22.1520 C   0  0  0  0  0  2  0  0  0  0  0  0
  -19.1550  -28.8870   23.3080 C   0  0  0  0  0  0  0  0  0  0  0  0
  -18.9210  -30.1390   23.9130 C   0  0  0  0  0  3  0  0  0  0  0  0
  -17.6140  -30.6310   24.0760 C   0  0  0  0  0  3  0  0  0  0  0  0
  -16.5160  -29.8670   23.6410 C   0  0  0  0  0  3  0  0  0  0  0  0
  -16.7350  -28.6220   23.0250 C   0  0  0  0  0  3  0  0  0  0  0  0
  -25.9250  -32.5170   23.9590 C   0  0  0  0  0  3  0  0  0  0  0  0
  -25.6380  -33.9100   24.3200 N   0  0  0  0  0  0  0  0  0  0  0  0
  -25.9670  -34.9730   23.5730 C   0  0  0  0  0  0  0  0  0  0  0  0
  -26.6160  -34.8870   22.5260 O   0  0  0  0  0  0  0  0  0  0  0  0
  -25.0800  -34.0660   25.1470 H   0  0  0  0  0  0  0  0  0  0  0  0
  -24.2490  -36.7840   23.2850 C   0  0  0  0  0  1  0  0  0  0  0  0
  -25.4980  -36.3540   24.0690 C   0  0  0  0  0  3  0  0  0  0  0  0
  -27.6480  -37.1940   24.9000 C   0  0  0  0  0  1  0  0  0  0  0  0
  -26.5370  -37.4020   23.9770 N   0  0  0  0  0  0  0  0  0  0  0  0
  -26.1380  -38.3170   24.1680 H   0  0  0  0  0  0  0  0  0  0  0  0
  -26.4380  -31.7100   25.2100 C   0  0  1  0  0  0  0  0  0  0  0  0
  -25.3510  -31.4530   26.2800 C   0  0  0  0  0  1  0  0  0  0  0  0
  -27.0020  -30.3360   24.7790 C   0  0  0  0  0  1  0  0  0  0  0  0
  -27.5970  -32.4720   25.8920 C   0  0  0  0  0  1  0  0  0  0  0  0
  -28.7410  -23.7950   21.2320 C   0  0  0  0  0  2  0  0  0  0  0  0
  -28.9180  -22.2650   21.6110 C   0  0  0  0  0  2  0  0  0  0  0  0
  -29.1940  -21.1410   20.5340 C   0  0  0  0  0  2  0  0  0  0  0  0
  -29.8270  -19.7950   21.0800 C   0  0  0  0  0  2  0  0  0  0  0  0
  -29.4750  -18.4290   20.3670 C   0  0  0  0  0  3  0  0  0  0  0  0
  -30.3830  -17.1890   20.7570 C   0  0  0  0  0  3  0  0  0  0  0  0
  -30.6330  -14.7390   19.9950 C   0  0  0  0  0  0  0  0  0  0  0  0
  -30.3440  -12.5160   18.9190 C   0  0  0  0  0  2  0  0  0  0  0  0
  -29.3560  -12.6640   17.7400 C   0  0  0  0  0  2  0  0  0  0  0  0
  -27.8990  -12.5120   18.2300 C   0  0  0  0  0  2  0  0  0  0  0  0
  -27.5990  -13.3800   19.4840 C   0  0  0  0  0  3  0  0  0  0  0  0
  -28.7010  -13.2220   20.5540 C   0  0  0  0  0  2  0  0  0  0  0  0
  -29.9820  -13.5420   19.9110 N   0  0  0  0  0  0  0  0  0  0  0  0
  -31.7890  -14.8740   19.5820 O   0  0  0  0  0  0  0  0  0  0  0  0
  -29.8960  -15.8150   20.4060 N   0  0  0  0  0  0  0  0  0  0  0  0
  -28.9130  -15.6330   20.5580 H   0  0  0  0  0  0  0  0  0  0  0  0
  -25.2490  -13.9950   20.3210 C   0  0  0  0  0  0  0  0  0  0  0  0
  -24.2020  -13.2290   20.7380 C   0  0  0  0  0  0  0  0  0  0  0  0
  -24.6580  -11.8740   20.7010 C   0  0  0  0  0  0  0  0  0  0  0  0
  -26.2770  -13.1080   20.0350 N   0  0  0  0  0  0  0  0  0  0  0  0
  -25.9320  -11.8280   20.3290 N   0  0  0  0  0  0  0  0  0  0  0  0
  -23.9370  -10.6200   20.9390 C   0  0  0  0  0  0  0  0  0  0  0  0
  -24.3990   -9.6640   21.8710 C   0  0  0  0  0  3  0  0  0  0  0  0
  -23.6760   -8.4740   22.0980 C   0  0  0  0  0  3  0  0  0  0  0  0
  -22.4730   -8.2300   21.3910 C   0  0  0  0  0  0  0  0  0  0  0  0
  -22.0290   -9.1720   20.4490 C   0  0  0  0  0  3  0  0  0  0  0  0
  -22.7550  -10.3540   20.2210 C   0  0  0  0  0  3  0  0  0  0  0  0
  -21.7190   -7.0890   21.5230 O   0  0  0  0  0  0  0  0  0  0  0  0
  -21.7040   -6.3660   22.6890 C   0  0  0  0  0  0  0  0  0  0  0  0
  -21.3050   -6.9400   23.9160 C   0  0  0  0  0  3  0  0  0  0  0  0
  -21.2380   -6.1420   25.0750 C   0  0  0  0  0  3  0  0  0  0  0  0
  -21.5670   -4.7740   25.0100 C   0  0  0  0  0  0  0  0  0  0  0  0
  -21.9600   -4.2030   23.7890 C   0  0  0  0  0  3  0  0  0  0  0  0
  -22.0290   -4.9980   22.6300 C   0  0  0  0  0  0  0  0  0  0  0  0
  -22.3890   -4.4350   21.4510 F   0  0  0  0  0  0  0  0  0  0  0  0
  -21.4960   -4.0070   26.1230 F   0  0  0  0  0  0  0  0  0  0  0  0
  -22.8190  -13.7150   21.0740 C   0  0  0  0  0  0  0  0  0  0  0  0
  -22.1360  -13.0310   21.9800 N   0  0  0  0  0  0  0  0  0  0  0  0
  -22.3600  -14.7340   20.5590 O   0  0  0  0  0  0  0  0  0  0  0  0
  -22.5230  -12.2030   22.4070 H   0  0  0  0  0  0  0  0  0  0  0  0
  -21.2110  -13.3360   22.2510 H   0  0  0  0  0  0  0  0  0  0  0  0
  -25.4150  -15.3660   20.1390 N   0  0  0  0  0  0  0  0  0  0  0  0
  -24.6640  -16.0180   20.3400 H   0  0  0  0  0  0  0  0  0  0  0  0
  -26.2630  -15.8220   19.8320 H   0  0  0  0  0  0  0  0  0  0  0  0
  1  4  1  0
  2  1  2  0
  2  6  1  0
  3 51  1  0
  4  3  2  0
  4 10  1  0
  5  3  1  0
  5  9  1  0
  6  5  2  0
  7  6  1  0
  8  9  1  0
 10 12  1  0
 11 22  2  0
 12 17  1  0
 13 21  1  0
 13 23  1  0
 14 20  1  0
 14 16  1  0
 15 21  1  0
 16 15  1  0
 17 16  2  0
 18 19  1  0
 18 12  2  0
 19 14  2  0
 20 13  1  0
 21 11  1  0
 23 25  2  0
 24 23  1  0
 26 24  1  0
 27 36  2  0
 27 32  1  0
 28 24  1  0
 28 32  1  0
 29 28  1  0
 30 31  1  0
 30 29  1  0
 31 27  1  0
 32 33  2  0
 33 34  1  0
 35 34  2  0
 36 35  1  0
 37 11  1  0
 37 38  1  0
 37 47  1  0
 38 41  1  0
 39 43  1  0
 39 38  1  0
 40 39  2  0
 43 42  1  0
 45 43  1  0
 45 46  1  0
 45 44  1  0
 47 50  1  1
 47 48  1  0
 49 47  1  0
 51 52  1  0
 53 54  1  0
 53 52  1  0
 55 56  2  0
 55 54  1  0
 57 65  1  0
 58 63  1  0
 59 60  1  0
 59 58  1  0
 61 60  1  0
 61 70  1  0
 61 62  1  0
 63 57  1  0
 63 62  1  0
 64 57  2  0
 65 66  1  0
 65 56  1  0
 67 68  2  0
 68 87  1  0
 69 68  1  0
 69 72  1  0
 70 67  1  0
 70 71  1  0
 71 69  2  0
 72 73  1  0
 73 74  2  0
 75 78  1  0
 75 74  1  0
 76 75  2  0
 77 76  1  0
 77 72  2  0
 78 79  1  0
 79 80  1  0
 80 81  2  0
 82 81  1  0
 82 86  1  0
 83 82  2  0
 84 79  2  0
 84 83  1  0
 85 84  1  0
 87 88  1  0
 88 91  1  0
 88 90  1  0
 89 87  2  0
 92 67  1  0
 92 93  1  0
 94 92  1  0
M  ISO  4   4 101  10 101  57 100  65 100
M  END
>  <TORSDO>  (31) 
F 23

>  <SCORE>  (31) 
-12.116

>  <name>  (31) 
30

>  <ligand_id>  (31) 
30

>  <original_smiles>  (31) 
[H]c1c([H])c([H])c2c(c1[H])C([H])([H])C([H])([H])C([H])([H])C2([H])N([H])C(=O)C1([H])N(C(=O)C([H])(N([H])C(=O)C([H])(N([H])C([H])([H])[H])C([H])([H])[H])C(C([H])([H])[H])(C([H])([H])[H])C([H])([H])[H])C([H])([H])c2c([H])c(Oc3c([H])c([H])c(F)c(OC([H])([H])[H])c3C([H])([H])C([H])([H])C([H])([H])C([H])([H])C([H])([H])C([H])([H])N([H])C(=O)N3C([H])([H])C([H])([H])C([H])([H])C([H])(n4nc(-c5c([H])c([H])c(Oc6c([H])c([H])c(F)c([H])c6F)c([H])c5[H])c(C(=O)N([H])[H])c4N([H])[H])C3([H])[H])c([H])c([H])c2C1([H])[H]

>  <smiles>  (31) 
[H]c1c([H])c([H])c2c(c1[H])C([H])([H])C([H])([H])C([H])([H])C2([H])N([H])C(=O)C1([H])N(C(=O)C([H])(N([H])C(=O)C([H])(N([H])C([H])([H])[H])C([H])([H])[H])C(C([H])([H])[H])(C([H])([H])[H])C([H])([H])[H])C([H])([H])c2c([H])c(Oc3c([H])c([H])c(F)c(OC([H])([H])[H])c3C([H])([H])C([H])([H])C([H])([H])C([H])([H])C([H])([H])C([H])([H])N([H])C(=O)N3C([H])([H])C([H])([H])C([H])([H])C([H])(n4nc(-c5c([H])c([H])c(Oc6c([H])c([H])c(F)c([H])c6F)c([H])c5[H])c(C(=O)N([H])[H])c4N([H])[H])C3([H])[H])c([H])c([H])c2C1([H])[H]

$$$$
31:0:0
     RDKit          3D

 97107  0  0  1  0  0  0  0  0999 V2000
  -26.8570  -20.8630   19.1130 C   0  0  0  0  0  0  0  0  0  0  0  0
  -26.7620  -21.9410   19.9120 C   0  0  0  0  0  3  0  0  0  0  0  0
  -25.7940  -19.7950   19.0390 C   0  0  0  0  0  2  0  0  0  0  0  0
  -28.0030  -20.4990   18.2000 C   0  0  0  0  0  2  0  0  0  0  0  0
  -26.4040  -18.6230   18.2650 C   0  0  0  0  0  2  0  0  0  0  0  0
  -27.8560  -18.9950   17.9280 C   0  0  0  0  0  3  0  0  0  0  0  0
  -28.0880  -23.7480   18.7430 C   0  0  0  0  0  3  0  0  0  0  0  0
  -28.5790  -25.0680   18.7630 C   0  0  0  0  0  3  0  0  0  0  0  0
  -27.7790  -23.8290   21.1550 C   0  0  0  0  0  3  0  0  0  0  0  0
  -27.5910  -23.1590   19.9280 C   0  0  0  0  0  0  0  0  0  0  0  0
  -28.2880  -25.1440   21.1800 C   0  0  0  0  0  0  0  0  0  0  0  0
  -28.5890  -25.8030   19.9660 C   0  0  0  0  0  0  0  0  0  0  0  0
  -28.4100  -25.8810   22.4980 C   0  0  0  0  0  1  0  0  0  0  0  0
  -28.7170  -27.1750   19.9310 O   0  0  0  0  0  0  0  0  0  0  0  0
  -24.7170  -31.9900   23.3870 C   0  0  0  0  0  0  0  0  0  0  0  0
  -27.5290  -27.8860   19.9880 C   0  0  0  0  0  0  0  0  0  0  0  0
  -23.5670  -30.6650   21.6460 C   0  0  0  0  0  3  0  0  0  0  0  0
  -25.0770  -29.2940   20.1250 C   0  0  0  0  0  0  0  0  0  0  0  0
  -26.0820  -31.1250   21.4920 C   0  0  0  0  0  2  0  0  0  0  0  0
  -26.2190  -29.8130   20.7500 C   0  0  0  0  0  0  0  0  0  0  0  0
  -27.4490  -29.1140   20.6860 C   0  0  0  0  0  3  0  0  0  0  0  0
  -26.3610  -27.3920   19.3560 C   0  0  0  0  0  3  0  0  0  0  0  0
  -25.1410  -28.0770   19.4320 C   0  0  0  0  0  3  0  0  0  0  0  0
  -23.8050  -30.0980   20.2260 C   0  0  0  0  0  2  0  0  0  0  0  0
  -24.8050  -31.2690   22.2330 N   0  0  0  0  0  0  0  0  0  0  0  0
  -23.6250  -32.1840   23.9370 O   0  0  0  0  0  0  0  0  0  0  0  0
  -22.9500  -29.5530   22.5230 C   0  0  0  0  0  0  0  0  0  0  0  0
  -21.6400  -29.3140   22.3510 N   0  0  0  0  0  0  0  0  0  0  0  0
  -23.6460  -28.9130   23.3160 O   0  0  0  0  0  0  0  0  0  0  0  0
  -21.1420  -29.8850   21.6830 H   0  0  0  0  0  0  0  0  0  0  0  0
  -18.3210  -27.9200   22.6780 C   0  0  0  0  0  0  0  0  0  0  0  0
  -20.8520  -28.2930   23.0410 C   0  0  0  0  0  3  0  0  0  0  0  0
  -21.0490  -26.9060   22.3870 C   0  0  0  0  0  2  0  0  0  0  0  0
  -19.9920  -26.5820   21.3260 C   0  0  0  0  0  2  0  0  0  0  0  0
  -18.5880  -26.6230   21.9350 C   0  0  0  0  0  2  0  0  0  0  0  0
  -19.3860  -28.7130   23.1840 C   0  0  0  0  0  0  0  0  0  0  0  0
  -19.0840  -29.9300   23.8350 C   0  0  0  0  0  3  0  0  0  0  0  0
  -17.7490  -30.3530   23.9880 C   0  0  0  0  0  3  0  0  0  0  0  0
  -16.7000  -29.5550   23.5020 C   0  0  0  0  0  3  0  0  0  0  0  0
  -16.9860  -28.3400   22.8530 C   0  0  0  0  0  3  0  0  0  0  0  0
  -25.9800  -32.6180   24.0540 C   0  0  0  0  0  3  0  0  0  0  0  0
  -25.6360  -33.9940   24.4370 N   0  0  0  0  0  0  0  0  0  0  0  0
  -25.9670  -35.0830   23.7290 C   0  0  0  0  0  0  0  0  0  0  0  0
  -26.6620  -35.0350   22.7110 O   0  0  0  0  0  0  0  0  0  0  0  0
  -25.0240  -34.1040   25.2330 H   0  0  0  0  0  0  0  0  0  0  0  0
  -24.2210  -36.8580   23.3950 C   0  0  0  0  0  1  0  0  0  0  0  0
  -25.4400  -36.4410   24.2320 C   0  0  0  0  0  3  0  0  0  0  0  0
  -27.5240  -37.3240   25.1810 C   0  0  0  0  0  1  0  0  0  0  0  0
  -26.4580  -37.5130   24.2010 N   0  0  0  0  0  0  0  0  0  0  0  0
  -26.0320  -38.4210   24.3660 H   0  0  0  0  0  0  0  0  0  0  0  0
  -26.4920  -31.8020   25.3020 C   0  0  1  0  0  0  0  0  0  0  0  0
  -25.3780  -31.4610   26.3190 C   0  0  0  0  0  1  0  0  0  0  0  0
  -27.1460  -30.4730   24.8570 C   0  0  0  0  0  1  0  0  0  0  0  0
  -27.5910  -32.6050   26.0380 C   0  0  0  0  0  1  0  0  0  0  0  0
  -30.5670  -16.3740   18.4790 C   0  0  0  0  0  3  0  0  0  0  0  0
  -29.7090  -17.2960   17.8630 C   0  0  0  0  0  3  0  0  0  0  0  0
  -28.9800  -18.0520   20.0560 C   0  0  0  0  0  3  0  0  0  0  0  0
  -30.6060  -16.2210   19.8830 C   0  0  0  0  0  0  0  0  0  0  0  0
  -28.8780  -18.1140   18.6450 C   0  0  0  0  0  0  0  0  0  0  0  0
  -29.8420  -17.1160   20.6860 C   0  0  0  0  0  0  0  0  0  0  0  0
  -29.8990  -17.1210   22.2060 C   0  0  0  0  0  1  0  0  0  0  0  0
  -31.4460  -15.0700   20.3930 C   0  0  0  0  0  0  0  0  0  0  0  0
  -31.2410  -12.8250   19.4660 C   0  0  0  0  0  2  0  0  0  0  0  0
  -30.3430  -12.9390   18.2110 C   0  0  0  0  0  2  0  0  0  0  0  0
  -28.8560  -12.8180   18.5970 C   0  0  0  0  0  2  0  0  0  0  0  0
  -28.4560  -13.7300   19.7830 C   0  0  0  0  0  3  0  0  0  0  0  0
  -29.4750  -13.6100   20.9370 C   0  0  0  0  0  2  0  0  0  0  0  0
  -30.8200  -13.8660   20.4140 N   0  0  0  0  0  0  0  0  0  0  0  0
  -32.6630  -15.1930   20.2410 O   0  0  0  0  0  0  0  0  0  0  0  0
  -26.0570  -14.3570   20.4670 C   0  0  0  0  0  0  0  0  0  0  0  0
  -24.9670  -13.5910   20.7870 C   0  0  0  0  0  0  0  0  0  0  0  0
  -25.4160  -12.2370   20.7440 C   0  0  0  0  0  0  0  0  0  0  0  0
  -27.0940  -13.4670   20.2360 N   0  0  0  0  0  0  0  0  0  0  0  0
  -26.7110  -12.1860   20.4670 N   0  0  0  0  0  0  0  0  0  0  0  0
  -24.6710  -10.9810   20.8910 C   0  0  0  0  0  0  0  0  0  0  0  0
  -24.9760  -10.0600   21.9170 C   0  0  0  0  0  3  0  0  0  0  0  0
  -24.2380   -8.8650   22.0480 C   0  0  0  0  0  3  0  0  0  0  0  0
  -23.1780   -8.5840   21.1540 C   0  0  0  0  0  0  0  0  0  0  0  0
  -22.8920   -9.4930   20.1200 C   0  0  0  0  0  3  0  0  0  0  0  0
  -23.6330  -10.6800   19.9870 C   0  0  0  0  0  3  0  0  0  0  0  0
  -22.4210   -7.4370   21.1930 O   0  0  0  0  0  0  0  0  0  0  0  0
  -22.0540   -6.8570   22.3810 C   0  0  0  0  0  0  0  0  0  0  0  0
  -21.2860   -7.5510   23.3420 C   0  0  0  0  0  3  0  0  0  0  0  0
  -20.8700   -6.8930   24.5170 C   0  0  0  0  0  3  0  0  0  0  0  0
  -21.2100   -5.5430   24.7280 C   0  0  0  0  0  0  0  0  0  0  0  0
  -21.9690   -4.8520   23.7690 C   0  0  0  0  0  3  0  0  0  0  0  0
  -22.3860   -5.5060   22.5970 C   0  0  0  0  0  0  0  0  0  0  0  0
  -23.1000   -4.8290   21.6670 F   0  0  0  0  0  0  0  0  0  0  0  0
  -20.8050   -4.9080   25.8530 F   0  0  0  0  0  0  0  0  0  0  0  0
  -23.5700  -14.0820   21.0270 C   0  0  0  0  0  0  0  0  0  0  0  0
  -22.8100  -13.3830   21.8630 N   0  0  0  0  0  0  0  0  0  0  0  0
  -23.1550  -15.1160   20.5050 O   0  0  0  0  0  0  0  0  0  0  0  0
  -23.1570  -12.5450   22.3060 H   0  0  0  0  0  0  0  0  0  0  0  0
  -21.8680  -13.6900   22.0610 H   0  0  0  0  0  0  0  0  0  0  0  0
  -26.2480  -15.7250   20.3340 N   0  0  0  0  0  0  0  0  0  0  0  0
  -25.4900  -16.3910   20.4200 H   0  0  0  0  0  0  0  0  0  0  0  0
  -27.1310  -16.1620   20.0880 H   0  0  0  0  0  0  0  0  0  0  0  0
  1  2  2  0
  2 10  1  0
  3  1  1  0
  4  1  1  0
  5  3  1  0
  6  4  1  0
  6  5  1  0
  6 59  1  0
  7  8  2  0
  7 10  1  0
  8 12  1  0
  9 11  1  0
 10  9  2  0
 11 13  1  0
 12 11  2  0
 14 12  1  0
 14 16  1  0
 15 26  2  0
 16 21  1  0
 17 25  1  0
 17 27  1  0
 18 24  1  0
 18 20  1  0
 19 25  1  0
 20 19  1  0
 21 20  2  0
 22 23  1  0
 22 16  2  0
 23 18  2  0
 24 17  1  0
 25 15  1  0
 27 29  2  0
 28 27  1  0
 30 28  1  0
 31 40  2  0
 31 36  1  0
 32 28  1  0
 32 36  1  0
 33 32  1  0
 34 35  1  0
 34 33  1  0
 35 31  1  0
 36 37  2  0
 37 38  1  0
 39 38  2  0
 40 39  1  0
 41 15  1  0
 41 42  1  0
 41 51  1  0
 42 45  1  0
 43 47  1  0
 43 42  1  0
 44 43  2  0
 47 46  1  0
 49 47  1  0
 49 50  1  0
 49 48  1  0
 51 54  1  1
 51 52  1  0
 53 51  1  0
 55 58  1  0
 56 55  2  0
 56 59  1  0
 57 60  1  0
 58 62  1  0
 58 60  2  0
 59 57  2  0
 60 61  1  0
 62 68  1  0
 63 68  1  0
 64 65  1  0
 64 63  1  0
 66 65  1  0
 66 73  1  0
 66 67  1  0
 68 67  1  0
 69 62  2  0
 70 71  2  0
 71 90  1  0
 72 71  1  0
 72 75  1  0
 73 74  1  0
 73 70  1  0
 74 72  2  0
 75 76  1  0
 76 77  2  0
 78 81  1  0
 78 77  1  0
 79 78  2  0
 80 79  1  0
 80 75  2  0
 81 82  1  0
 82 87  2  0
 82 83  1  0
 83 84  2  0
 84 85  1  0
 85 89  1  0
 86 85  2  0
 87 86  1  0
 88 87  1  0
 90 91  1  0
 91 94  1  0
 91 93  1  0
 92 90  2  0
 95 96  1  0
 95 70  1  0
 97 95  1  0
M  ISO  4  12 101  14 101  58 100  62 100
M  END
>  <TORSDO>  (32) 
F 18

>  <SCORE>  (32) 
-11.081

>  <name>  (32) 
31

>  <ligand_id>  (32) 
31

>  <original_smiles>  (32) 
[H]C(=C1C([H])([H])C([H])([H])C([H])(c2c([H])c([H])c(C(=O)N3C([H])([H])C([H])([H])C([H])([H])C([H])(n4nc(-c5c([H])c([H])c(Oc6c([H])c([H])c(F)c([H])c6F)c([H])c5[H])c(C(=O)N([H])[H])c4N([H])[H])C3([H])[H])c(C([H])([H])[H])c2[H])C1([H])[H])c1c([H])c([H])c(Oc2c([H])c([H])c3c(c2[H])C([H])([H])N(C(=O)C([H])(N([H])C(=O)C([H])(N([H])C([H])([H])[H])C([H])([H])[H])C(C([H])([H])[H])(C([H])([H])[H])C([H])([H])[H])C([H])(C(=O)N([H])C2([H])c4c([H])c([H])c([H])c([H])c4C([H])([H])C([H])([H])C2([H])[H])C3([H])[H])c(C([H])([H])[H])c1[H]

>  <smiles>  (32) 
[H]C(=C1C([H])([H])C([H])([H])C([H])(c2c([H])c([H])c(C(=O)N3C([H])([H])C([H])([H])C([H])([H])C([H])(n4nc(-c5c([H])c([H])c(Oc6c([H])c([H])c(F)c([H])c6F)c([H])c5[H])c(C(=O)N([H])[H])c4N([H])[H])C3([H])[H])c(C([H])([H])[H])c2[H])C1([H])[H])c1c([H])c([H])c(Oc2c([H])c([H])c3c(c2[H])C([H])([H])N(C(=O)C([H])(N([H])C(=O)C([H])(N([H])C([H])([H])[H])C([H])([H])[H])C(C([H])([H])[H])(C([H])([H])[H])C([H])([H])[H])C([H])(C(=O)N([H])C2([H])c4c([H])c([H])c([H])c([H])c4C([H])([H])C([H])([H])C2([H])[H])C3([H])[H])c(C([H])([H])[H])c1[H]

$$$$
32:0:0
     RDKit          3D

 92101  0  0  1  0  0  0  0  0999 V2000
  -29.5280  -22.2950   20.3660 C   0  0  0  0  0  0  0  0  0  0  0  0
  -28.9780  -23.5730   20.7090 C   0  0  0  0  0  3  0  0  0  0  0  0
  -30.1020  -21.8460   19.0300 C   0  0  0  0  0  2  0  0  0  0  0  0
  -29.6750  -20.9330   21.2120 C   0  0  0  0  0  2  0  0  0  0  0  0
  -30.1380  -20.2670   18.9820 C   0  0  0  0  0  2  0  0  0  0  0  0
  -30.3630  -19.6500   20.4040 C   0  0  0  0  0  3  0  0  0  0  0  0
  -29.5720  -16.8100   18.5930 C   0  0  0  0  0  2  0  0  0  0  0  0
  -28.5680  -18.0950   20.8600 C   0  0  0  0  0  2  0  0  0  0  0  0
  -30.2970  -16.8160   19.8050 C   0  0  0  0  0  3  0  0  0  0  0  0
  -29.9600  -18.0360   20.6420 C   0  0  0  0  0  3  0  0  0  0  0  0
  -28.3030  -17.4260   18.5320 C   0  0  0  0  0  0  0  0  0  0  0  0
  -27.7550  -17.9690   19.7170 C   0  0  0  0  0  0  0  0  0  0  0  0
  -27.5090  -17.3910   17.2420 C   0  0  0  0  0  1  0  0  0  0  0  0
  -26.4820  -18.4300   19.7430 F   0  0  0  0  0  0  0  0  0  0  0  0
  -31.1360  -15.4430   20.0740 C   0  0  0  0  0  0  0  0  0  0  0  0
  -31.0330  -13.0290   19.2550 C   0  0  0  0  0  2  0  0  0  0  0  0
  -30.0810  -12.8920   18.0420 C   0  0  0  0  0  2  0  0  0  0  0  0
  -28.6250  -12.6700   18.5020 C   0  0  0  0  0  2  0  0  0  0  0  0
  -28.2110  -13.6330   19.6390 C   0  0  0  0  0  3  0  0  0  0  0  0
  -29.2890  -13.7590   20.7350 C   0  0  0  0  0  2  0  0  0  0  0  0
  -30.5500  -14.1650   20.0940 N   0  0  0  0  0  0  0  0  0  0  0  0
  -32.3630  -15.4680   19.9240 O   0  0  0  0  0  0  0  0  0  0  0  0
  -25.8790  -14.2280   20.5030 C   0  0  0  0  0  0  0  0  0  0  0  0
  -24.8050  -13.4700   20.8650 C   0  0  0  0  0  0  0  0  0  0  0  0
  -25.2320  -12.1130   20.7430 C   0  0  0  0  0  0  0  0  0  0  0  0
  -26.8890  -13.3400   20.1780 N   0  0  0  0  0  0  0  0  0  0  0  0
  -26.5100  -12.0550   20.3890 N   0  0  0  0  0  0  0  0  0  0  0  0
  -24.4740  -10.8680   20.8820 C   0  0  0  0  0  0  0  0  0  0  0  0
  -24.8220   -9.9000   21.8480 C   0  0  0  0  0  3  0  0  0  0  0  0
  -24.0620   -8.7170   21.9760 C   0  0  0  0  0  3  0  0  0  0  0  0
  -22.9440   -8.4990   21.1370 C   0  0  0  0  0  0  0  0  0  0  0  0
  -22.6180   -9.4570   20.1610 C   0  0  0  0  0  3  0  0  0  0  0  0
  -23.3770  -10.6310   20.0320 C   0  0  0  0  0  3  0  0  0  0  0  0
  -22.1640   -7.3690   21.1730 O   0  0  0  0  0  0  0  0  0  0  0  0
  -21.8670   -6.7390   22.3560 C   0  0  0  0  0  0  0  0  0  0  0  0
  -21.1520   -7.3860   23.3870 C   0  0  0  0  0  3  0  0  0  0  0  0
  -20.8110   -6.6800   24.5570 C   0  0  0  0  0  3  0  0  0  0  0  0
  -21.1730   -5.3260   24.6930 C   0  0  0  0  0  0  0  0  0  0  0  0
  -21.8810   -4.6790   23.6660 C   0  0  0  0  0  3  0  0  0  0  0  0
  -22.2250   -5.3840   22.4990 C   0  0  0  0  0  0  0  0  0  0  0  0
  -22.8900   -4.7500   21.5030 F   0  0  0  0  0  0  0  0  0  0  0  0
  -20.8360   -4.6430   25.8130 F   0  0  0  0  0  0  0  0  0  0  0  0
  -23.4340  -13.9780   21.2040 C   0  0  0  0  0  0  0  0  0  0  0  0
  -22.7170  -13.2710   22.0670 N   0  0  0  0  0  0  0  0  0  0  0  0
  -23.0110  -15.0370   20.7400 O   0  0  0  0  0  0  0  0  0  0  0  0
  -23.0720  -12.4140   22.4630 H   0  0  0  0  0  0  0  0  0  0  0  0
  -21.7970  -13.5920   22.3380 H   0  0  0  0  0  0  0  0  0  0  0  0
  -26.0610  -15.5950   20.3970 N   0  0  0  0  0  0  0  0  0  0  0  0
  -25.3050  -16.2550   20.5400 H   0  0  0  0  0  0  0  0  0  0  0  0
  -26.8960  -16.0270   20.0240 H   0  0  0  0  0  0  0  0  0  0  0  0
  -28.6130  -24.9520   19.8710 C   0  0  0  0  0  2  0  0  0  0  0  0
  -28.5850  -26.4180   20.4350 O   0  0  0  0  0  0  0  0  0  0  0  0
  -24.6830  -31.9860   23.3010 C   0  0  0  0  0  0  0  0  0  0  0  0
  -27.4940  -27.3680   20.2960 C   0  0  0  0  0  0  0  0  0  0  0  0
  -23.5710  -30.5780   21.6100 C   0  0  0  0  0  3  0  0  0  0  0  0
  -25.1100  -29.0590   20.2110 C   0  0  0  0  0  0  0  0  0  0  0  0
  -26.1230  -30.9100   21.5300 C   0  0  0  0  0  2  0  0  0  0  0  0
  -26.2550  -29.5240   20.8670 C   0  0  0  0  0  0  0  0  0  0  0  0
  -27.4400  -28.6940   20.8990 C   0  0  0  0  0  3  0  0  0  0  0  0
  -26.3240  -27.0210   19.5800 C   0  0  0  0  0  3  0  0  0  0  0  0
  -25.1600  -27.8210   19.5510 C   0  0  0  0  0  3  0  0  0  0  0  0
  -23.8550  -29.9190   20.2320 C   0  0  0  0  0  2  0  0  0  0  0  0
  -24.8100  -31.1800   22.2030 N   0  0  0  0  0  0  0  0  0  0  0  0
  -23.5750  -32.2350   23.7990 O   0  0  0  0  0  0  0  0  0  0  0  0
  -22.8900  -29.5440   22.5410 C   0  0  0  0  0  0  0  0  0  0  0  0
  -21.5650  -29.3640   22.3940 N   0  0  0  0  0  0  0  0  0  0  0  0
  -23.5570  -28.9050   23.3580 O   0  0  0  0  0  0  0  0  0  0  0  0
  -21.0840  -29.9300   21.7110 H   0  0  0  0  0  0  0  0  0  0  0  0
  -18.1790  -28.1730   22.8830 C   0  0  0  0  0  0  0  0  0  0  0  0
  -20.7430  -28.4020   23.1340 C   0  0  0  0  0  3  0  0  0  0  0  0
  -20.8250  -26.9960   22.4960 C   0  0  0  0  0  2  0  0  0  0  0  0
  -19.7110  -26.7270   21.4800 C   0  0  0  0  0  2  0  0  0  0  0  0
  -18.3360  -26.8560   22.1420 C   0  0  0  0  0  2  0  0  0  0  0  0
  -19.3090  -28.9070   23.3340 C   0  0  0  0  0  0  0  0  0  0  0  0
  -19.1050  -30.1430   23.9860 C   0  0  0  0  0  3  0  0  0  0  0  0
  -17.8050  -30.6450   24.1900 C   0  0  0  0  0  3  0  0  0  0  0  0
  -16.6910  -29.9070   23.7550 C   0  0  0  0  0  3  0  0  0  0  0  0
  -16.8790  -28.6730   23.1080 C   0  0  0  0  0  3  0  0  0  0  0  0
  -25.9240  -32.6480   23.9740 C   0  0  0  0  0  3  0  0  0  0  0  0
  -25.5860  -34.0520   24.2590 N   0  0  0  0  0  0  0  0  0  0  0  0
  -25.9490  -35.0960   23.5020 C   0  0  0  0  0  0  0  0  0  0  0  0
  -26.6700  -34.9780   22.5070 O   0  0  0  0  0  0  0  0  0  0  0  0
  -24.9510  -34.2170   25.0280 H   0  0  0  0  0  0  0  0  0  0  0  0
  -24.2390  -36.8790   23.0250 C   0  0  0  0  0  1  0  0  0  0  0  0
  -25.4330  -36.4900   23.9100 C   0  0  0  0  0  3  0  0  0  0  0  0
  -27.5070  -37.4080   24.8530 C   0  0  0  0  0  1  0  0  0  0  0  0
  -26.4670  -37.5460   23.8370 N   0  0  0  0  0  0  0  0  0  0  0  0
  -26.0500  -38.4670   23.9330 H   0  0  0  0  0  0  0  0  0  0  0  0
  -26.3750  -31.9150   25.2970 C   0  0  1  0  0  0  0  0  0  0  0  0
  -25.2230  -31.6740   26.3010 C   0  0  0  0  0  1  0  0  0  0  0  0
  -27.0110  -30.5430   24.9750 C   0  0  0  0  0  1  0  0  0  0  0  0
  -27.4660  -32.7470   26.0120 C   0  0  0  0  0  1  0  0  0  0  0  0
  1  2  2  0
  1  4  1  0
  3  1  1  0
  5  3  1  0
  6  5  1  0
  6 10  1  0
  6  4  1  0
  7  9  1  0
  9 15  1  0
  9 10  1  0
 10  8  1  0
 11  7  1  0
 11 12  2  0
 12 14  1  0
 12  8  1  0
 13 11  1  0
 15 21  1  0
 16 21  1  0
 17 18  1  0
 17 16  1  0
 19 18  1  0
 19 26  1  0
 19 20  1  0
 21 20  1  0
 22 15  2  0
 23 24  2  0
 24 43  1  0
 25 24  1  0
 25 28  1  0
 26 27  1  0
 26 23  1  0
 27 25  2  0
 28 29  1  0
 29 30  2  0
 31 34  1  0
 31 30  1  0
 32 31  2  0
 33 32  1  0
 33 28  2  0
 34 35  1  0
 35 40  2  0
 35 36  1  0
 36 37  2  0
 37 38  1  0
 38 42  1  0
 39 38  2  0
 40 39  1  0
 41 40  1  0
 43 44  1  0
 44 47  1  0
 44 46  1  0
 45 43  2  0
 48 23  1  0
 48 49  1  0
 50 48  1  0
 51 52  1  0
 51  2  1  0
 53 64  2  0
 54 52  1  0
 54 59  1  0
 55 63  1  0
 55 65  1  0
 56 62  1  0
 56 58  1  0
 57 63  1  0
 58 59  2  0
 58 57  1  0
 60 54  2  0
 61 60  1  0
 61 56  2  0
 62 55  1  0
 63 53  1  0
 65 67  2  0
 66 65  1  0
 68 66  1  0
 69 78  2  0
 69 74  1  0
 70 66  1  0
 70 74  1  0
 71 70  1  0
 72 73  1  0
 72 71  1  0
 73 69  1  0
 74 75  2  0
 75 76  1  0
 77 76  2  0
 78 77  1  0
 79 53  1  0
 79 80  1  0
 79 89  1  0
 80 83  1  0
 81 85  1  0
 81 80  1  0
 82 81  2  0
 85 84  1  0
 87 85  1  0
 87 88  1  0
 87 86  1  0
 89 92  1  1
 89 90  1  0
 91 89  1  0
M  ISO  4   9 100  15 100  51 101  52 101
M  END
>  <TORSDO>  (33) 
F 18

>  <SCORE>  (33) 
-11.848

>  <name>  (33) 
32

>  <ligand_id>  (33) 
32

>  <original_smiles>  (33) 
[H]C(=C1C([H])([H])C([H])([H])C([H])(c2c([H])c(F)c(C([H])([H])[H])c([H])c2C(=O)N2C([H])([H])C([H])([H])C([H])([H])C([H])(n3nc(-c4c([H])c([H])c(Oc5c([H])c([H])c(F)c([H])c5F)c([H])c4[H])c(C(=O)N([H])[H])c3N([H])[H])C2([H])[H])C1([H])[H])C([H])([H])Oc1c([H])c([H])c2c(c1[H])C([H])([H])N(C(=O)C([H])(N([H])C(=O)C([H])(N([H])C([H])([H])[H])C([H])([H])[H])C(C([H])([H])[H])(C([H])([H])[H])C([H])([H])[H])C([H])(C(=O)N([H])C1([H])c3c([H])c([H])c([H])c([H])c3C([H])([H])C([H])([H])C1([H])[H])C2([H])[H]

>  <smiles>  (33) 
[H]C(=C1C([H])([H])C([H])([H])C([H])(c2c([H])c(F)c(C([H])([H])[H])c([H])c2C(=O)N2C([H])([H])C([H])([H])C([H])([H])C([H])(n3nc(-c4c([H])c([H])c(Oc5c([H])c([H])c(F)c([H])c5F)c([H])c4[H])c(C(=O)N([H])[H])c3N([H])[H])C2([H])[H])C1([H])[H])C([H])([H])Oc1c([H])c([H])c2c(c1[H])C([H])([H])N(C(=O)C([H])(N([H])C(=O)C([H])(N([H])C([H])([H])[H])C([H])([H])[H])C(C([H])([H])[H])(C([H])([H])[H])C([H])([H])[H])C([H])(C(=O)N([H])C1([H])c3c([H])c([H])c([H])c([H])c3C([H])([H])C([H])([H])C1([H])[H])C2([H])[H]

$$$$
33:0:0
     RDKit          3D

 90 99  0  0  1  0  0  0  0  0999 V2000
  -29.5990  -17.7020   20.3200 C   0  0  0  0  0  0  0  0  0  0  0  0
  -29.1520  -20.6350   20.4240 C   0  0  0  0  0  0  0  0  0  0  0  0
  -27.9050  -20.4170   19.8230 C   0  0  0  0  0  0  0  0  0  0  0  0
  -29.9280  -19.2380   20.6890 C   0  0  0  0  0  0  0  0  0  0  0  0
  -28.4350  -17.8740   19.4700 C   0  0  0  0  0  0  0  0  0  0  0  0
  -27.6070  -19.0830   19.3310 C   0  0  0  0  0  0  0  0  0  0  0  0
  -26.9380  -21.6630   19.5900 C   0  0  0  0  0  3  0  0  0  0  0  0
  -29.3810  -22.4240   20.6540 C   0  0  0  0  0  3  0  0  0  0  0  0
  -27.0280  -23.1020   20.3250 C   0  0  0  0  0  3  0  0  0  0  0  0
  -28.3450  -23.9340   20.1960 C   0  0  0  0  0  0  0  0  0  0  0  0
  -31.2470  -19.4130   21.4130 C   0  0  0  0  0  1  0  0  0  0  0  0
  -28.1010  -16.7580   18.4810 C   0  0  0  0  0  1  0  0  0  0  0  0
  -26.3150  -18.9200   18.5150 C   0  0  0  0  0  1  0  0  0  0  0  0
  -30.3990  -16.0710   20.4670 C   0  0  0  0  0  0  0  0  0  0  0  0
  -30.6170  -13.4820   19.7350 C   0  0  0  0  0  2  0  0  0  0  0  0
  -29.8010  -12.9960   18.4980 C   0  0  0  0  0  2  0  0  0  0  0  0
  -28.3740  -12.5900   18.8950 C   0  0  0  0  0  2  0  0  0  0  0  0
  -27.7770  -13.5870   19.9080 C   0  0  0  0  0  3  0  0  0  0  0  0
  -28.7420  -14.0060   21.0430 C   0  0  0  0  0  2  0  0  0  0  0  0
  -29.9230  -14.6680   20.4290 N   0  0  0  0  0  0  0  0  0  0  0  0
  -31.6450  -15.9900   20.4390 O   0  0  0  0  0  0  0  0  0  0  0  0
  -25.3770  -14.0880   20.5570 C   0  0  0  0  0  0  0  0  0  0  0  0
  -24.3140  -13.2900   20.8700 C   0  0  0  0  0  0  0  0  0  0  0  0
  -24.8130  -11.9520   20.8780 C   0  0  0  0  0  0  0  0  0  0  0  0
  -26.4480  -13.2330   20.3740 N   0  0  0  0  0  0  0  0  0  0  0  0
  -26.1200  -11.9420   20.6360 N   0  0  0  0  0  0  0  0  0  0  0  0
  -24.1050  -10.6770   21.0440 C   0  0  0  0  0  0  0  0  0  0  0  0
  -24.4820   -9.7460   22.0380 C   0  0  0  0  0  3  0  0  0  0  0  0
  -23.7680   -8.5390   22.1930 C   0  0  0  0  0  3  0  0  0  0  0  0
  -22.6640   -8.2530   21.3540 C   0  0  0  0  0  0  0  0  0  0  0  0
  -22.3070   -9.1730   20.3530 C   0  0  0  0  0  3  0  0  0  0  0  0
  -23.0210  -10.3720   20.1960 C   0  0  0  0  0  3  0  0  0  0  0  0
  -21.9290   -7.0940   21.4150 O   0  0  0  0  0  0  0  0  0  0  0  0
  -21.7850   -6.3940   22.5870 C   0  0  0  0  0  0  0  0  0  0  0  0
  -21.1590   -6.9580   23.7190 C   0  0  0  0  0  3  0  0  0  0  0  0
  -20.9690   -6.1820   24.8790 C   0  0  0  0  0  3  0  0  0  0  0  0
  -21.3960   -4.8400   24.9060 C   0  0  0  0  0  0  0  0  0  0  0  0
  -22.0150   -4.2750   23.7770 C   0  0  0  0  0  3  0  0  0  0  0  0
  -22.2060   -5.0500   22.6200 C   0  0  0  0  0  0  0  0  0  0  0  0
  -22.7840   -4.4940   21.5280 F   0  0  0  0  0  0  0  0  0  0  0  0
  -21.2070   -4.0910   26.0180 F   0  0  0  0  0  0  0  0  0  0  0  0
  -22.8950  -13.7420   21.0540 C   0  0  0  0  0  0  0  0  0  0  0  0
  -22.1360  -13.0470   21.8940 N   0  0  0  0  0  0  0  0  0  0  0  0
  -22.4670  -14.7480   20.4890 O   0  0  0  0  0  0  0  0  0  0  0  0
  -22.4960  -12.2350   22.3720 H   0  0  0  0  0  0  0  0  0  0  0  0
  -21.1830  -13.3340   22.0620 H   0  0  0  0  0  0  0  0  0  0  0  0
  -25.5160  -15.4610   20.3840 N   0  0  0  0  0  0  0  0  0  0  0  0
  -24.7300  -16.0970   20.4790 H   0  0  0  0  0  0  0  0  0  0  0  0
  -26.3860  -15.9350   20.1830 H   0  0  0  0  0  0  0  0  0  0  0  0
  -28.3080  -25.7140   20.4740 O   0  0  0  0  0  0  0  0  0  0  0  0
  -24.7320  -32.0220   23.3610 C   0  0  0  0  0  0  0  0  0  0  0  0
  -27.3280  -26.9400   20.3600 C   0  0  0  0  0  0  0  0  0  0  0  0
  -23.5720  -30.6280   21.7000 C   0  0  0  0  0  3  0  0  0  0  0  0
  -25.0480  -28.9920   20.2890 C   0  0  0  0  0  0  0  0  0  0  0  0
  -26.1520  -30.7740   21.6140 C   0  0  0  0  0  2  0  0  0  0  0  0
  -26.2320  -29.3410   20.9470 C   0  0  0  0  0  0  0  0  0  0  0  0
  -27.3500  -28.3430   20.9520 C   0  0  0  0  0  3  0  0  0  0  0  0
  -26.1120  -26.8190   19.6360 C   0  0  0  0  0  3  0  0  0  0  0  0
  -25.0300  -27.7580   19.6100 C   0  0  0  0  0  3  0  0  0  0  0  0
  -23.8340  -29.9380   20.3280 C   0  0  0  0  0  2  0  0  0  0  0  0
  -24.8420  -31.1760   22.2780 N   0  0  0  0  0  0  0  0  0  0  0  0
  -23.6310  -32.3140   23.8600 O   0  0  0  0  0  0  0  0  0  0  0  0
  -22.8470  -29.6450   22.6590 C   0  0  0  0  0  0  0  0  0  0  0  0
  -21.5200  -29.4670   22.5040 N   0  0  0  0  0  0  0  0  0  0  0  0
  -23.4930  -29.0370   23.5170 O   0  0  0  0  0  0  0  0  0  0  0  0
  -21.0470  -30.0090   21.7940 H   0  0  0  0  0  0  0  0  0  0  0  0
  -18.1430  -28.1950   22.9480 C   0  0  0  0  0  0  0  0  0  0  0  0
  -20.6930  -28.5170   23.2600 C   0  0  0  0  0  3  0  0  0  0  0  0
  -20.8330  -27.0850   22.6910 C   0  0  0  0  0  2  0  0  0  0  0  0
  -19.7590  -26.7410   21.6540 C   0  0  0  0  0  2  0  0  0  0  0  0
  -18.3630  -26.8540   22.2700 C   0  0  0  0  0  2  0  0  0  0  0  0
  -19.2370  -28.9840   23.3980 C   0  0  0  0  0  0  0  0  0  0  0  0
  -18.9760  -30.2350   23.9970 C   0  0  0  0  0  3  0  0  0  0  0  0
  -17.6560  -30.7010   24.1470 C   0  0  0  0  0  3  0  0  0  0  0  0
  -16.5780  -29.9120   23.7090 C   0  0  0  0  0  3  0  0  0  0  0  0
  -16.8220  -28.6610   23.1160 C   0  0  0  0  0  3  0  0  0  0  0  0
  -25.9820  -32.6790   24.0230 C   0  0  0  0  0  3  0  0  0  0  0  0
  -25.6640  -34.0910   24.3150 N   0  0  0  0  0  0  0  0  0  0  0  0
  -25.9830  -35.1330   23.5350 C   0  0  0  0  0  0  0  0  0  0  0  0
  -26.6310  -35.0070   22.4940 O   0  0  0  0  0  0  0  0  0  0  0  0
  -25.0860  -34.2620   25.1240 H   0  0  0  0  0  0  0  0  0  0  0  0
  -24.2240  -36.9130   23.2240 C   0  0  0  0  0  1  0  0  0  0  0  0
  -25.5120  -36.5370   23.9760 C   0  0  0  0  0  3  0  0  0  0  0  0
  -27.6700  -37.4840   24.6720 C   0  0  0  0  0  1  0  0  0  0  0  0
  -26.5280  -37.5940   23.7690 N   0  0  0  0  0  0  0  0  0  0  0  0
  -26.1180  -38.5160   23.8890 H   0  0  0  0  0  0  0  0  0  0  0  0
  -26.4300  -31.9510   25.3510 C   0  0  1  0  0  0  0  0  0  0  0  0
  -25.2860  -31.7550   26.3750 C   0  0  0  0  0  1  0  0  0  0  0  0
  -27.0230  -30.5570   25.0480 C   0  0  0  0  0  1  0  0  0  0  0  0
  -27.5550  -32.7620   26.0390 C   0  0  0  0  0  1  0  0  0  0  0  0
  1 14  1  0
  1  4  1  0
  2  8  1  0
  2  4  2  0
  3  2  1  0
  4 11  1  0
  5  1  2  0
  6  5  1  0
  6  3  2  0
  7  3  1  0
  7  9  2  0
 10  9  1  0
 10 50  1  0
 10  8  2  0
 12  5  1  0
 13  6  1  0
 15 20  1  0
 16 17  1  0
 16 15  1  0
 18 17  1  0
 18 25  1  0
 18 19  1  0
 20 14  1  0
 20 19  1  0
 21 14  2  0
 22 23  2  0
 23 24  1  0
 23 42  1  0
 24 27  1  0
 25 22  1  0
 25 26  1  0
 26 24  2  0
 27 28  1  0
 28 29  2  0
 30 33  1  0
 30 29  1  0
 31 30  2  0
 32 31  1  0
 32 27  2  0
 33 34  1  0
 34 39  2  0
 34 35  1  0
 35 36  2  0
 36 37  1  0
 37 41  1  0
 38 37  2  0
 39 38  1  0
 40 39  1  0
 42 43  1  0
 43 46  1  0
 43 45  1  0
 44 42  2  0
 47 48  1  0
 47 22  1  0
 49 47  1  0
 51 62  2  0
 52 50  1  0
 52 57  1  0
 53 61  1  0
 53 63  1  0
 54 60  1  0
 54 56  1  0
 55 61  1  0
 56 57  2  0
 56 55  1  0
 58 52  2  0
 59 58  1  0
 59 54  2  0
 60 53  1  0
 61 51  1  0
 63 65  2  0
 64 63  1  0
 66 64  1  0
 67 76  2  0
 67 72  1  0
 68 64  1  0
 68 72  1  0
 69 68  1  0
 70 71  1  0
 70 69  1  0
 71 67  1  0
 72 73  2  0
 73 74  1  0
 75 74  2  0
 76 75  1  0
 77 51  1  0
 77 78  1  0
 77 87  1  0
 78 81  1  0
 79 83  1  0
 79 78  1  0
 80 79  2  0
 83 82  1  0
 85 86  1  0
 85 83  1  0
 85 84  1  0
 87 90  1  1
 87 88  1  0
 89 87  1  0
M  ISO  4   1 100  10 101  14 100  50 101
M  END
>  <TORSDO>  (34) 
F 16

>  <SCORE>  (34) 
-15.922

>  <name>  (34) 
33

>  <ligand_id>  (34) 
33

>  <original_smiles>  (34) 
[H]c1c([H])c([H])c2c(c1[H])C([H])([H])C([H])([H])C([H])([H])C2([H])N([H])C(=O)C1([H])N(C(=O)C([H])(N([H])C(=O)C([H])(N([H])C([H])([H])[H])C([H])([H])[H])C(C([H])([H])[H])(C([H])([H])[H])C([H])([H])[H])C([H])([H])c2c([H])c(OC3([H])C([H])([H])c4c(C([H])([H])[H])c(C(=O)N5C([H])([H])C([H])([H])C([H])([H])C([H])(n6nc(-c7c([H])c([H])c(Oc8c([H])c([H])c(F)c([H])c8F)c([H])c7[H])c(C(=O)N([H])[H])c6N([H])[H])C5([H])[H])c(C([H])([H])[H])c(C([H])([H])[H])c4C([H])([H])C3([H])[H])c([H])c([H])c2C1([H])[H]

>  <smiles>  (34) 
[H]c1c([H])c([H])c2c(c1[H])C([H])([H])C([H])([H])C([H])([H])C2([H])N([H])C(=O)C1([H])N(C(=O)C([H])(N([H])C(=O)C([H])(N([H])C([H])([H])[H])C([H])([H])[H])C(C([H])([H])[H])(C([H])([H])[H])C([H])([H])[H])C([H])([H])c2c([H])c(OC3([H])C([H])([H])c4c(C([H])([H])[H])c(C(=O)N5C([H])([H])C([H])([H])C([H])([H])C([H])(n6nc(-c7c([H])c([H])c(Oc8c([H])c([H])c(F)c([H])c8F)c([H])c7[H])c(C(=O)N([H])[H])c6N([H])[H])C5([H])[H])c(C([H])([H])[H])c(C([H])([H])[H])c4C([H])([H])C3([H])[H])c([H])c([H])c2C1([H])[H]

$$$$
34:0:0
     RDKit          3D

 93102  0  0  1  0  0  0  0  0999 V2000
  -29.9930  -21.7970   20.0500 C   0  0  0  0  0  3  0  0  0  0  0  0
  -27.9160  -21.2760   20.5840 C   0  0  0  0  0  3  0  0  0  0  0  0
  -29.2050  -20.5600   20.3030 C   0  0  0  0  0  0  0  0  0  0  0  0
  -29.6610  -23.2820   20.0460 C   0  0  0  0  0  0  0  0  0  0  0  0
  -28.3880  -23.9990   20.3070 C   0  0  0  0  0  0  0  0  0  0  0  0
  -27.5510  -22.7830   20.5980 C   0  0  0  0  0  0  0  0  0  0  0  0
  -30.8310  -24.2020   19.7340 C   0  0  0  0  0  1  0  0  0  0  0  0
  -26.2660  -23.0510   20.9390 F   0  0  0  0  0  0  0  0  0  0  0  0
  -31.7400  -19.3870   18.6290 C   0  0  0  0  0  0  0  0  0  0  0  0
  -32.2620  -20.2510   17.7440 C   0  0  0  0  0  2  0  0  0  0  0  0
  -32.4080  -18.9070   19.8790 C   0  0  0  0  0  2  0  0  0  0  0  0
  -30.3220  -18.8800   18.6440 C   0  0  0  0  0  2  0  0  0  0  0  0
  -31.2690  -18.9190   20.9080 C   0  0  0  0  0  2  0  0  0  0  0  0
  -29.9110  -18.8150   20.1430 C   0  0  1  0  0  0  0  0  0  0  0  0
  -30.2960  -15.6860   20.2000 C   0  0  0  0  0  0  0  0  0  0  0  0
  -30.3440  -13.1640   19.3290 C   0  0  0  0  0  2  0  0  0  0  0  0
  -29.4280  -12.7830   18.1320 C   0  0  0  0  0  2  0  0  0  0  0  0
  -28.0200  -12.4200   18.6220 C   0  0  0  0  0  2  0  0  0  0  0  0
  -27.5310  -13.4130   19.6990 C   0  0  0  0  0  3  0  0  0  0  0  0
  -28.5820  -13.7110   20.7950 C   0  0  0  0  0  2  0  0  0  0  0  0
  -29.7450  -14.3340   20.1230 N   0  0  0  0  0  0  0  0  0  0  0  0
  -31.5170  -15.5930   19.9820 O   0  0  0  0  0  0  0  0  0  0  0  0
  -29.5850  -17.0750   20.3280 N   0  0  0  0  0  0  0  0  0  0  0  0
  -28.6040  -16.9290   20.5180 H   0  0  0  0  0  0  0  0  0  0  0  0
  -25.1790  -13.9250   20.5110 C   0  0  0  0  0  0  0  0  0  0  0  0
  -24.1310  -13.1350   20.8880 C   0  0  0  0  0  0  0  0  0  0  0  0
  -24.6090  -11.7900   20.8370 C   0  0  0  0  0  0  0  0  0  0  0  0
  -26.2250  -13.0630   20.2400 N   0  0  0  0  0  0  0  0  0  0  0  0
  -25.8980  -11.7700   20.5050 N   0  0  0  0  0  0  0  0  0  0  0  0
  -23.8940  -10.5200   21.0250 C   0  0  0  0  0  0  0  0  0  0  0  0
  -24.3320   -9.5520   21.9550 C   0  0  0  0  0  3  0  0  0  0  0  0
  -23.6100   -8.3520   22.1330 C   0  0  0  0  0  3  0  0  0  0  0  0
  -22.4330   -8.1120   21.3840 C   0  0  0  0  0  0  0  0  0  0  0  0
  -22.0130   -9.0680   20.4420 C   0  0  0  0  0  3  0  0  0  0  0  0
  -22.7370  -10.2600   20.2620 C   0  0  0  0  0  3  0  0  0  0  0  0
  -21.6830   -6.9640   21.4700 O   0  0  0  0  0  0  0  0  0  0  0  0
  -21.6300   -6.2260   22.6260 C   0  0  0  0  0  0  0  0  0  0  0  0
  -21.1730   -6.7780   23.8420 C   0  0  0  0  0  3  0  0  0  0  0  0
  -21.0660   -5.9660   24.9880 C   0  0  0  0  0  3  0  0  0  0  0  0
  -21.4090   -4.6020   24.9200 C   0  0  0  0  0  0  0  0  0  0  0  0
  -21.8600   -4.0490   23.7080 C   0  0  0  0  0  3  0  0  0  0  0  0
  -21.9680   -4.8590   22.5640 C   0  0  0  0  0  0  0  0  0  0  0  0
  -22.3830   -4.3160   21.3930 F   0  0  0  0  0  0  0  0  0  0  0  0
  -21.3010   -3.8190   26.0190 F   0  0  0  0  0  0  0  0  0  0  0  0
  -22.7350  -13.6000   21.1780 C   0  0  0  0  0  0  0  0  0  0  0  0
  -22.0200  -12.9010   22.0520 N   0  0  0  0  0  0  0  0  0  0  0  0
  -22.2850  -14.6240   20.6640 O   0  0  0  0  0  0  0  0  0  0  0  0
  -22.3970  -12.0720   22.4900 H   0  0  0  0  0  0  0  0  0  0  0  0
  -21.0860  -13.2020   22.2890 H   0  0  0  0  0  0  0  0  0  0  0  0
  -25.3290  -15.3000   20.3430 N   0  0  0  0  0  0  0  0  0  0  0  0
  -24.5580  -15.9480   20.4640 H   0  0  0  0  0  0  0  0  0  0  0  0
  -26.1610  -15.7400   19.9730 H   0  0  0  0  0  0  0  0  0  0  0  0
  -28.2420  -25.6160   20.3260 O   0  0  0  0  0  0  0  0  0  0  0  0
  -24.6720  -31.8720   23.2000 C   0  0  0  0  0  0  0  0  0  0  0  0
  -27.2110  -26.7730   20.2840 C   0  0  0  0  0  0  0  0  0  0  0  0
  -23.4950  -30.4670   21.5600 C   0  0  0  0  0  3  0  0  0  0  0  0
  -24.9480  -28.8020   20.1750 C   0  0  0  0  0  0  0  0  0  0  0  0
  -26.0710  -30.6050   21.4600 C   0  0  0  0  0  2  0  0  0  0  0  0
  -26.1350  -29.1650   20.8220 C   0  0  0  0  0  0  0  0  0  0  0  0
  -27.2480  -28.1770   20.8440 C   0  0  0  0  0  3  0  0  0  0  0  0
  -25.9940  -26.6160   19.5710 C   0  0  0  0  0  3  0  0  0  0  0  0
  -24.9170  -27.5540   19.5270 C   0  0  0  0  0  3  0  0  0  0  0  0
  -23.7430  -29.7560   20.1970 C   0  0  0  0  0  2  0  0  0  0  0  0
  -24.7700  -31.0140   22.1260 N   0  0  0  0  0  0  0  0  0  0  0  0
  -23.5760  -32.1800   23.6980 O   0  0  0  0  0  0  0  0  0  0  0  0
  -22.7660  -29.4990   22.5330 C   0  0  0  0  0  0  0  0  0  0  0  0
  -21.4310  -29.3620   22.4060 N   0  0  0  0  0  0  0  0  0  0  0  0
  -23.4120  -28.8690   23.3710 O   0  0  0  0  0  0  0  0  0  0  0  0
  -20.9600  -29.9180   21.7060 H   0  0  0  0  0  0  0  0  0  0  0  0
  -18.0280  -28.2050   22.9270 C   0  0  0  0  0  0  0  0  0  0  0  0
  -20.5930  -28.4370   23.1790 C   0  0  0  0  0  3  0  0  0  0  0  0
  -20.6710  -27.0050   22.6020 C   0  0  0  0  0  2  0  0  0  0  0  0
  -19.5630  -26.7010   21.5890 C   0  0  0  0  0  2  0  0  0  0  0  0
  -18.1840  -26.8590   22.2400 C   0  0  0  0  0  2  0  0  0  0  0  0
  -19.1590  -28.9530   23.3530 C   0  0  0  0  0  0  0  0  0  0  0  0
  -18.9540  -30.2100   23.9620 C   0  0  0  0  0  3  0  0  0  0  0  0
  -17.6550  -30.7210   24.1440 C   0  0  0  0  0  3  0  0  0  0  0  0
  -16.5400  -29.9720   23.7300 C   0  0  0  0  0  3  0  0  0  0  0  0
  -16.7280  -28.7150   23.1280 C   0  0  0  0  0  3  0  0  0  0  0  0
  -25.9320  -32.5220   23.8480 C   0  0  0  0  0  3  0  0  0  0  0  0
  -25.6090  -33.9210   24.1880 N   0  0  0  0  0  0  0  0  0  0  0  0
  -25.9240  -34.9890   23.4440 C   0  0  0  0  0  0  0  0  0  0  0  0
  -26.5750  -34.8990   22.3990 O   0  0  0  0  0  0  0  0  0  0  0  0
  -25.0210  -34.0640   24.9970 H   0  0  0  0  0  0  0  0  0  0  0  0
  -24.1730  -36.7800   23.1670 C   0  0  0  0  0  1  0  0  0  0  0  0
  -25.4460  -36.3750   23.9270 C   0  0  0  0  0  3  0  0  0  0  0  0
  -27.6000  -37.2810   24.6870 C   0  0  0  0  0  1  0  0  0  0  0  0
  -26.4660  -37.4370   23.7800 N   0  0  0  0  0  0  0  0  0  0  0  0
  -26.0570  -38.3550   23.9390 H   0  0  0  0  0  0  0  0  0  0  0  0
  -26.4240  -31.7580   25.1410 C   0  0  1  0  0  0  0  0  0  0  0  0
  -25.3120  -31.5340   26.1940 C   0  0  0  0  0  1  0  0  0  0  0  0
  -27.0070  -30.3750   24.7800 C   0  0  0  0  0  1  0  0  0  0  0  0
  -27.5680  -32.5520   25.8150 C   0  0  0  0  0  1  0  0  0  0  0  0
  1  3  1  0
  2  6  1  0
  3  2  2  0
  4  1  2  0
  4  5  1  0
  5 53  1  0
  5  6  2  0
  6  8  1  0
  7  4  1  0
  9 12  1  0
  9 11  1  0
 10  9  2  0
 11 13  1  0
 12 14  1  0
 14  3  1  0
 14 23  1  6
 14 13  1  0
 15 23  1  0
 16 21  1  0
 17 18  1  0
 17 16  1  0
 19 18  1  0
 19 28  1  0
 19 20  1  0
 21 15  1  0
 21 20  1  0
 22 15  2  0
 23 24  1  0
 25 26  2  0
 26 45  1  0
 27 26  1  0
 27 30  1  0
 28 29  1  0
 28 25  1  0
 29 27  2  0
 30 31  1  0
 31 32  2  0
 33 36  1  0
 33 32  1  0
 34 33  2  0
 35 34  1  0
 35 30  2  0
 36 37  1  0
 37 38  1  0
 38 39  2  0
 40 39  1  0
 40 44  1  0
 41 40  2  0
 42 37  2  0
 42 41  1  0
 43 42  1  0
 45 46  1  0
 46 49  1  0
 46 48  1  0
 47 45  2  0
 50 51  1  0
 50 25  1  0
 52 50  1  0
 54 65  2  0
 55 53  1  0
 55 60  1  0
 56 64  1  0
 56 66  1  0
 57 63  1  0
 57 59  1  0
 58 64  1  0
 59 60  2  0
 59 58  1  0
 61 55  2  0
 62 61  1  0
 62 57  2  0
 63 56  1  0
 64 54  1  0
 66 68  2  0
 67 66  1  0
 69 67  1  0
 70 79  2  0
 70 75  1  0
 71 67  1  0
 71 75  1  0
 72 71  1  0
 73 74  1  0
 73 72  1  0
 74 70  1  0
 75 76  2  0
 76 77  1  0
 78 77  2  0
 79 78  1  0
 80 54  1  0
 80 81  1  0
 80 90  1  0
 81 84  1  0
 82 86  1  0
 82 81  1  0
 83 82  2  0
 86 85  1  0
 88 86  1  0
 88 89  1  0
 88 87  1  0
 90 93  1  1
 90 91  1  0
 92 90  1  0
M  ISO  4   5 101  15 100  23 100  53 101
M  END
>  <TORSDO>  (35) 
F 17

>  <SCORE>  (35) 
-16.237

>  <name>  (35) 
34

>  <ligand_id>  (35) 
34

>  <original_smiles>  (35) 
[H]C([H])=C1C([H])([H])C([H])([H])C(c2c([H])c(F)c(Oc3c([H])c([H])c4c(c3[H])C([H])([H])N(C(=O)C([H])(N([H])C(=O)C([H])(N([H])C([H])([H])[H])C([H])([H])[H])C(C([H])([H])[H])(C([H])([H])[H])C([H])([H])[H])C([H])(C(=O)N([H])C3([H])c5c([H])c([H])c([H])c([H])c5C([H])([H])C([H])([H])C3([H])[H])C4([H])[H])c(C([H])([H])[H])c2[H])(N([H])C(=O)N2C([H])([H])C([H])([H])C([H])([H])C([H])(n3nc(-c4c([H])c([H])c(Oc5c([H])c([H])c(F)c([H])c5F)c([H])c4[H])c(C(=O)N([H])[H])c3N([H])[H])C2([H])[H])C1([H])[H]

>  <smiles>  (35) 
[H]C([H])=C1C([H])([H])C([H])([H])C(c2c([H])c(F)c(Oc3c([H])c([H])c4c(c3[H])C([H])([H])N(C(=O)C([H])(N([H])C(=O)C([H])(N([H])C([H])([H])[H])C([H])([H])[H])C(C([H])([H])[H])(C([H])([H])[H])C([H])([H])[H])C([H])(C(=O)N([H])C3([H])c5c([H])c([H])c([H])c([H])c5C([H])([H])C([H])([H])C3([H])[H])C4([H])[H])c(C([H])([H])[H])c2[H])(N([H])C(=O)N2C([H])([H])C([H])([H])C([H])([H])C([H])(n3nc(-c4c([H])c([H])c(Oc5c([H])c([H])c(F)c([H])c5F)c([H])c4[H])c(C(=O)N([H])[H])c3N([H])[H])C2([H])[H])C1([H])[H]

$$$$
35:0:0
     RDKit          3D

 92101  0  0  1  0  0  0  0  0999 V2000
  -28.5280  -19.5320   20.4030 C   0  0  0  0  0  0  0  0  0  0  0  0
  -27.8780  -18.3270   20.0050 C   0  0  0  0  0  0  0  0  0  0  0  0
  -28.6400  -17.1260   19.7210 C   0  0  0  0  0  0  0  0  0  0  0  0
  -29.9090  -16.8390   20.3340 C   0  0  0  0  0  0  0  0  0  0  0  0
  -29.9110  -19.3980   20.6380 C   0  0  0  0  0  0  0  0  0  0  0  0
  -27.7540  -20.9370   20.3570 C   0  0  0  0  0  2  0  0  0  0  0  0
  -30.6800  -20.8020   20.8390 C   0  0  0  0  0  2  0  0  0  0  0  0
  -28.0510  -22.2440   21.2480 C   0  0  0  0  0  2  0  0  0  0  0  0
  -30.2090  -22.2620   20.1640 C   0  0  0  0  0  2  0  0  0  0  0  0
  -29.1600  -23.3190   20.8500 C   0  0  2  0  0  0  0  0  0  0  0  0
  -26.3620  -18.3220   19.7520 C   0  0  0  0  0  1  0  0  0  0  0  0
  -28.3830  -16.6040   18.3060 C   0  0  0  0  0  1  0  0  0  0  0  0
  -29.8660  -23.8890   22.0980 C   0  0  0  0  0  1  0  0  0  0  0  0
  -30.5260  -18.0870   20.7010 N   0  0  0  0  0  0  0  0  0  0  0  0
  -30.6310  -15.3190   20.3010 C   0  0  0  0  0  0  0  0  0  0  0  0
  -30.5860  -12.8480   19.5810 C   0  0  0  0  0  2  0  0  0  0  0  0
  -29.7120  -12.6320   18.3240 C   0  0  0  0  0  2  0  0  0  0  0  0
  -28.2470  -12.3630   18.7360 C   0  0  0  0  0  2  0  0  0  0  0  0
  -27.7470  -13.3500   19.8230 C   0  0  0  0  0  3  0  0  0  0  0  0
  -28.7730  -13.5800   20.9540 C   0  0  0  0  0  2  0  0  0  0  0  0
  -30.0390  -14.0300   20.3390 N   0  0  0  0  0  0  0  0  0  0  0  0
  -31.8570  -15.2710   20.1030 O   0  0  0  0  0  0  0  0  0  0  0  0
  -25.3810  -13.9390   20.5610 C   0  0  0  0  0  0  0  0  0  0  0  0
  -24.2980  -13.1740   20.8960 C   0  0  0  0  0  0  0  0  0  0  0  0
  -24.7600  -11.8280   20.8740 C   0  0  0  0  0  0  0  0  0  0  0  0
  -26.4160  -13.0520   20.3190 N   0  0  0  0  0  0  0  0  0  0  0  0
  -26.0530  -11.7720   20.5730 N   0  0  0  0  0  0  0  0  0  0  0  0
  -24.0230  -10.5730   21.0560 C   0  0  0  0  0  0  0  0  0  0  0  0
  -24.4160   -9.6110   22.0140 C   0  0  0  0  0  3  0  0  0  0  0  0
  -23.6760   -8.4210   22.1750 C   0  0  0  0  0  3  0  0  0  0  0  0
  -22.5290   -8.1880   21.3790 C   0  0  0  0  0  0  0  0  0  0  0  0
  -22.1560   -9.1380   20.4110 C   0  0  0  0  0  3  0  0  0  0  0  0
  -22.9000  -10.3180   20.2470 C   0  0  0  0  0  3  0  0  0  0  0  0
  -21.7590   -7.0550   21.4550 O   0  0  0  0  0  0  0  0  0  0  0  0
  -21.6400   -6.3480   22.6260 C   0  0  0  0  0  0  0  0  0  0  0  0
  -21.0730   -6.9190   23.7860 C   0  0  0  0  0  3  0  0  0  0  0  0
  -20.9110   -6.1340   24.9470 C   0  0  0  0  0  3  0  0  0  0  0  0
  -21.2960   -4.7820   24.9410 C   0  0  0  0  0  0  0  0  0  0  0  0
  -21.8560   -4.2130   23.7840 C   0  0  0  0  0  3  0  0  0  0  0  0
  -22.0230   -4.9940   22.6260 C   0  0  0  0  0  0  0  0  0  0  0  0
  -22.5450   -4.4350   21.5080 F   0  0  0  0  0  0  0  0  0  0  0  0
  -21.1280   -4.0250   26.0500 F   0  0  0  0  0  0  0  0  0  0  0  0
  -22.9050  -13.6830   21.1340 C   0  0  0  0  0  0  0  0  0  0  0  0
  -22.1520  -13.0130   22.0000 N   0  0  0  0  0  0  0  0  0  0  0  0
  -22.4930  -14.7060   20.5940 O   0  0  0  0  0  0  0  0  0  0  0  0
  -22.4950  -12.1890   22.4640 H   0  0  0  0  0  0  0  0  0  0  0  0
  -21.2180  -13.3430   22.1990 H   0  0  0  0  0  0  0  0  0  0  0  0
  -25.5390  -15.3000   20.4230 N   0  0  0  0  0  0  0  0  0  0  0  0
  -24.7340  -15.9170   20.4770 H   0  0  0  0  0  0  0  0  0  0  0  0
  -26.3910  -15.7790   20.1570 H   0  0  0  0  0  0  0  0  0  0  0  0
  -28.5440  -24.7360   20.0660 C   0  0  0  0  0  2  0  0  0  0  0  0
  -28.5410  -26.2670   20.4730 O   0  0  0  0  0  0  0  0  0  0  0  0
  -24.6490  -31.8790   23.2760 C   0  0  0  0  0  0  0  0  0  0  0  0
  -27.4470  -27.2220   20.3190 C   0  0  0  0  0  0  0  0  0  0  0  0
  -23.5250  -30.4760   21.5840 C   0  0  0  0  0  3  0  0  0  0  0  0
  -25.0620  -28.9310   20.2040 C   0  0  0  0  0  0  0  0  0  0  0  0
  -26.0790  -30.7940   21.5000 C   0  0  0  0  0  2  0  0  0  0  0  0
  -26.2140  -29.4040   20.8450 C   0  0  0  0  0  0  0  0  0  0  0  0
  -27.4030  -28.5760   20.8640 C   0  0  0  0  0  3  0  0  0  0  0  0
  -26.2680  -26.8640   19.6160 C   0  0  0  0  0  3  0  0  0  0  0  0
  -25.1130  -27.6840   19.5640 C   0  0  0  0  0  3  0  0  0  0  0  0
  -23.8090  -29.8010   20.2130 C   0  0  0  0  0  2  0  0  0  0  0  0
  -24.7670  -31.0750   22.1720 N   0  0  0  0  0  0  0  0  0  0  0  0
  -23.5470  -32.1310   23.7790 O   0  0  0  0  0  0  0  0  0  0  0  0
  -22.8310  -29.4540   22.5230 C   0  0  0  0  0  0  0  0  0  0  0  0
  -21.5050  -29.2870   22.3820 N   0  0  0  0  0  0  0  0  0  0  0  0
  -23.4960  -28.8130   23.3430 O   0  0  0  0  0  0  0  0  0  0  0  0
  -21.0270  -29.8530   21.6960 H   0  0  0  0  0  0  0  0  0  0  0  0
  -18.1040  -28.1320   22.8700 C   0  0  0  0  0  0  0  0  0  0  0  0
  -20.6720  -28.3370   23.1260 C   0  0  0  0  0  3  0  0  0  0  0  0
  -20.7350  -26.9250   22.4980 C   0  0  0  0  0  2  0  0  0  0  0  0
  -19.6190  -26.6630   21.4800 C   0  0  0  0  0  2  0  0  0  0  0  0
  -18.2480  -26.8090   22.1440 C   0  0  0  0  0  2  0  0  0  0  0  0
  -19.2390  -28.8590   23.3200 C   0  0  0  0  0  0  0  0  0  0  0  0
  -19.0430  -30.1010   23.9610 C   0  0  0  0  0  3  0  0  0  0  0  0
  -17.7460  -30.6150   24.1590 C   0  0  0  0  0  3  0  0  0  0  0  0
  -16.6270  -29.8810   23.7270 C   0  0  0  0  0  3  0  0  0  0  0  0
  -16.8070  -28.6430   23.0900 C   0  0  0  0  0  3  0  0  0  0  0  0
  -25.8970  -32.5350   23.9450 C   0  0  0  0  0  3  0  0  0  0  0  0
  -25.5580  -33.9360   24.2410 N   0  0  0  0  0  0  0  0  0  0  0  0
  -25.8970  -34.9860   23.4810 C   0  0  0  0  0  0  0  0  0  0  0  0
  -26.5960  -34.8760   22.4700 O   0  0  0  0  0  0  0  0  0  0  0  0
  -24.9430  -34.0870   25.0260 H   0  0  0  0  0  0  0  0  0  0  0  0
  -24.1710  -36.7730   23.0560 C   0  0  0  0  0  1  0  0  0  0  0  0
  -25.3870  -36.3750   23.9090 C   0  0  0  0  0  3  0  0  0  0  0  0
  -27.4770  -37.3020   24.8110 C   0  0  0  0  0  1  0  0  0  0  0  0
  -26.4100  -37.4390   23.8220 N   0  0  0  0  0  0  0  0  0  0  0  0
  -25.9870  -38.3530   23.9430 H   0  0  0  0  0  0  0  0  0  0  0  0
  -26.3520  -31.7990   25.2660 C   0  0  1  0  0  0  0  0  0  0  0  0
  -25.2090  -31.5710   26.2830 C   0  0  0  0  0  1  0  0  0  0  0  0
  -26.9680  -30.4190   24.9370 C   0  0  0  0  0  1  0  0  0  0  0  0
  -27.4530  -32.6220   25.9760 C   0  0  0  0  0  1  0  0  0  0  0  0
  1  5  1  0
  2  1  2  0
  3  2  1  0
  3  4  2  0
  4 14  1  0
  5 14  2  0
  5  7  1  0
  6  1  1  0
  6  8  1  0
  9  7  1  0
  9 10  1  0
 10  8  1  0
 10 13  1  1
 11  2  1  0
 12  3  1  0
 15  4  1  0
 15 21  1  0
 16 21  1  0
 17 18  1  0
 17 16  1  0
 19 18  1  0
 19 26  1  0
 19 20  1  0
 21 20  1  0
 22 15  2  0
 23 24  2  0
 24 43  1  0
 25 24  1  0
 25 28  1  0
 26 23  1  0
 26 27  1  0
 27 25  2  0
 28 29  1  0
 29 30  2  0
 31 34  1  0
 31 30  1  0
 32 31  2  0
 33 32  1  0
 33 28  2  0
 34 35  1  0
 35 36  1  0
 36 37  2  0
 38 37  1  0
 38 42  1  0
 39 38  2  0
 40 35  2  0
 40 39  1  0
 41 40  1  0
 43 44  1  0
 44 47  1  0
 44 46  1  0
 45 43  2  0
 48 49  1  0
 48 23  1  0
 50 48  1  0
 51 52  1  0
 51 10  1  0
 53 64  2  0
 54 52  1  0
 54 59  1  0
 55 63  1  0
 55 65  1  0
 56 62  1  0
 56 58  1  0
 57 63  1  0
 58 59  2  0
 58 57  1  0
 60 54  2  0
 61 60  1  0
 61 56  2  0
 62 55  1  0
 63 53  1  0
 65 67  2  0
 66 65  1  0
 68 66  1  0
 69 78  2  0
 69 74  1  0
 70 66  1  0
 70 74  1  0
 71 70  1  0
 72 73  1  0
 72 71  1  0
 73 69  1  0
 74 75  2  0
 75 76  1  0
 77 76  2  0
 78 77  1  0
 79 53  1  0
 79 80  1  0
 79 89  1  0
 80 83  1  0
 81 85  1  0
 81 80  1  0
 82 81  2  0
 85 84  1  0
 87 85  1  0
 87 88  1  0
 87 86  1  0
 89 92  1  1
 89 90  1  0
 91 89  1  0
M  ISO  4   4 100  15 100  51 101  52 101
M  END
>  <TORSDO>  (36) 
F 17

>  <SCORE>  (36) 
-15.473

>  <name>  (36) 
35

>  <ligand_id>  (36) 
35

>  <original_smiles>  (36) 
[H]c1c([H])c([H])c2c(c1[H])C([H])([H])C([H])([H])C([H])([H])C2([H])N([H])C(=O)C1([H])N(C(=O)C([H])(N([H])C(=O)C([H])(N([H])C([H])([H])[H])C([H])([H])[H])C(C([H])([H])[H])(C([H])([H])[H])C([H])([H])[H])C([H])([H])c2c([H])c(OC([H])([H])C3(C([H])([H])[H])C([H])([H])C([H])([H])c4nc(C(=O)N5C([H])([H])C([H])([H])C([H])([H])C([H])(n6nc(-c7c([H])c([H])c(Oc8c([H])c([H])c(F)c([H])c8F)c([H])c7[H])c(C(=O)N([H])[H])c6N([H])[H])C5([H])[H])c(C([H])([H])[H])c(C([H])([H])[H])c4C([H])([H])C3([H])[H])c([H])c([H])c2C1([H])[H]

>  <smiles>  (36) 
[H]c1c([H])c([H])c2c(c1[H])C([H])([H])C([H])([H])C([H])([H])C2([H])N([H])C(=O)C1([H])N(C(=O)C([H])(N([H])C(=O)C([H])(N([H])C([H])([H])[H])C([H])([H])[H])C(C([H])([H])[H])(C([H])([H])[H])C([H])([H])[H])C([H])([H])c2c([H])c(OC([H])([H])C3(C([H])([H])[H])C([H])([H])C([H])([H])c4nc(C(=O)N5C([H])([H])C([H])([H])C([H])([H])C([H])(n6nc(-c7c([H])c([H])c(Oc8c([H])c([H])c(F)c([H])c8F)c([H])c7[H])c(C(=O)N([H])[H])c6N([H])[H])C5([H])[H])c(C([H])([H])[H])c(C([H])([H])[H])c4C([H])([H])C3([H])[H])c([H])c([H])c2C1([H])[H]

$$$$
36:0:0
     RDKit          3D

 92101  0  0  1  0  0  0  0  0999 V2000
  -28.9130  -23.7170   19.6740 C   0  0  0  0  0  3  0  0  0  0  0  0
  -28.5900  -24.8990   21.6840 C   0  0  0  0  0  0  0  0  0  0  0  0
  -28.7590  -23.6610   22.3890 C   0  0  0  0  0  0  0  0  0  0  0  0
  -29.0400  -22.3790   20.3650 C   0  0  0  0  0  0  0  0  0  0  0  0
  -28.6690  -25.0590   20.2980 C   0  0  0  0  0  0  0  0  0  0  0  0
  -28.9520  -22.4070   21.7880 C   0  0  0  0  0  0  0  0  0  0  0  0
  -28.4530  -25.7010   22.9490 C   0  0  0  0  0  2  0  0  0  0  0  0
  -28.6480  -24.3260   23.7490 C   0  0  0  0  0  3  0  0  0  0  0  0
  -29.0490  -21.2870   22.5430 F   0  0  0  0  0  0  0  0  0  0  0  0
  -30.2830  -22.7710   25.0190 C   0  0  0  0  0  1  0  0  0  0  0  0
  -29.8800  -24.2060   24.6520 C   0  0  0  0  0  2  0  0  0  0  0  0
  -28.6580  -26.4070   19.7340 O   0  0  0  0  0  0  0  0  0  0  0  0
  -25.0220  -31.6480   23.4390 C   0  0  0  0  0  0  0  0  0  0  0  0
  -27.5830  -27.3450   19.8750 C   0  0  0  0  0  0  0  0  0  0  0  0
  -23.8090  -30.4550   21.6520 C   0  0  0  0  0  3  0  0  0  0  0  0
  -25.2480  -29.0500   20.0540 C   0  0  0  0  0  0  0  0  0  0  0  0
  -26.3570  -30.7450   21.5030 C   0  0  0  0  0  2  0  0  0  0  0  0
  -26.4280  -29.4350   20.7040 C   0  0  0  0  0  0  0  0  0  0  0  0
  -27.5970  -28.5960   20.6030 C   0  0  0  0  0  3  0  0  0  0  0  0
  -26.3810  -27.0510   19.2030 C   0  0  0  0  0  3  0  0  0  0  0  0
  -25.2340  -27.8720   19.2910 C   0  0  0  0  0  3  0  0  0  0  0  0
  -24.0220  -29.9380   20.2040 C   0  0  0  0  0  2  0  0  0  0  0  0
  -25.0840  -30.9640   22.2560 N   0  0  0  0  0  0  0  0  0  0  0  0
  -23.9400  -31.8650   24.0050 O   0  0  0  0  0  0  0  0  0  0  0  0
  -23.1380  -29.3420   22.4960 C   0  0  0  0  0  0  0  0  0  0  0  0
  -21.8120  -29.1730   22.3410 N   0  0  0  0  0  0  0  0  0  0  0  0
  -23.8120  -28.6360   23.2490 O   0  0  0  0  0  0  0  0  0  0  0  0
  -21.3240  -29.7980   21.7170 H   0  0  0  0  0  0  0  0  0  0  0  0
  -18.4540  -27.8470   22.6230 C   0  0  0  0  0  0  0  0  0  0  0  0
  -20.9960  -28.1510   23.0010 C   0  0  0  0  0  3  0  0  0  0  0  0
  -21.1550  -26.7790   22.3080 C   0  0  0  0  0  2  0  0  0  0  0  0
  -20.0960  -26.5170   21.2320 C   0  0  0  0  0  2  0  0  0  0  0  0
  -18.6900  -26.5680   21.8380 C   0  0  0  0  0  2  0  0  0  0  0  0
  -19.5360  -28.5980   23.1550 C   0  0  0  0  0  0  0  0  0  0  0  0
  -19.2600  -29.7970   23.8480 C   0  0  0  0  0  3  0  0  0  0  0  0
  -17.9360  -30.2450   24.0140 C   0  0  0  0  0  3  0  0  0  0  0  0
  -16.8690  -29.4910   23.4970 C   0  0  0  0  0  3  0  0  0  0  0  0
  -17.1280  -28.2920   22.8080 C   0  0  0  0  0  3  0  0  0  0  0  0
  -26.3070  -32.2050   24.1280 C   0  0  0  0  0  3  0  0  0  0  0  0
  -26.0120  -33.5690   24.5900 N   0  0  0  0  0  0  0  0  0  0  0  0
  -26.3970  -34.6880   23.9590 C   0  0  0  0  0  0  0  0  0  0  0  0
  -27.1000  -34.6760   22.9460 O   0  0  0  0  0  0  0  0  0  0  0  0
  -25.3890  -33.6520   25.3800 H   0  0  0  0  0  0  0  0  0  0  0  0
  -24.7250  -36.5570   23.7360 C   0  0  0  0  0  1  0  0  0  0  0  0
  -25.9250  -36.0350   24.5430 C   0  0  0  0  0  3  0  0  0  0  0  0
  -28.0500  -36.7680   25.5340 C   0  0  0  0  0  1  0  0  0  0  0  0
  -26.9870  -37.0670   24.5770 N   0  0  0  0  0  0  0  0  0  0  0  0
  -26.5990  -37.9780   24.8080 H   0  0  0  0  0  0  0  0  0  0  0  0
  -26.7990  -31.3100   25.3320 C   0  0  1  0  0  0  0  0  0  0  0  0
  -25.6960  -31.0030   26.3720 C   0  0  0  0  0  1  0  0  0  0  0  0
  -27.3500  -29.9580   24.8230 C   0  0  0  0  0  1  0  0  0  0  0  0
  -27.9650  -32.0130   26.0630 C   0  0  0  0  0  1  0  0  0  0  0  0
  -29.3240  -20.9220   19.6430 C   0  0  0  0  0  3  0  0  0  0  0  0
  -29.3190  -19.4050   20.3790 C   0  0  0  0  0  3  0  0  0  0  0  0
  -29.9030  -17.9640   19.7280 C   0  0  0  0  0  3  0  0  0  0  0  0
  -29.7510  -16.4430   20.4290 C   0  0  0  0  0  3  0  0  0  0  0  0
  -30.5350  -15.0510   19.9890 C   0  0  0  0  0  0  0  0  0  0  0  0
  -30.3990  -12.6950   19.0550 C   0  0  0  0  0  2  0  0  0  0  0  0
  -29.4340  -12.6790   17.8460 C   0  0  0  0  0  2  0  0  0  0  0  0
  -27.9760  -12.4880   18.3080 C   0  0  0  0  0  2  0  0  0  0  0  0
  -27.6110  -13.4100   19.5010 C   0  0  0  0  0  3  0  0  0  0  0  0
  -28.6930  -13.3930   20.6010 C   0  0  0  0  0  2  0  0  0  0  0  0
  -29.9630  -13.7810   19.9770 N   0  0  0  0  0  0  0  0  0  0  0  0
  -31.6960  -15.1380   19.5730 O   0  0  0  0  0  0  0  0  0  0  0  0
  -25.2720  -14.0140   20.3530 C   0  0  0  0  0  0  0  0  0  0  0  0
  -24.2020  -13.2490   20.7320 C   0  0  0  0  0  0  0  0  0  0  0  0
  -24.6310  -11.8900   20.6270 C   0  0  0  0  0  0  0  0  0  0  0  0
  -26.2830  -13.1230   20.0350 N   0  0  0  0  0  0  0  0  0  0  0  0
  -25.9080  -11.8370   20.2640 N   0  0  0  0  0  0  0  0  0  0  0  0
  -23.8800  -10.6390   20.7930 C   0  0  0  0  0  0  0  0  0  0  0  0
  -24.3380   -9.6100   21.6450 C   0  0  0  0  0  3  0  0  0  0  0  0
  -23.5890   -8.4250   21.8030 C   0  0  0  0  0  3  0  0  0  0  0  0
  -22.3660   -8.2590   21.1090 C   0  0  0  0  0  0  0  0  0  0  0  0
  -21.9260   -9.2760   20.2450 C   0  0  0  0  0  3  0  0  0  0  0  0
  -22.6760  -10.4540   20.0850 C   0  0  0  0  0  3  0  0  0  0  0  0
  -21.5830   -7.1320   21.1820 O   0  0  0  0  0  0  0  0  0  0  0  0
  -21.5870   -6.3220   22.2890 C   0  0  0  0  0  0  0  0  0  0  0  0
  -21.2750   -6.8150   23.5740 C   0  0  0  0  0  3  0  0  0  0  0  0
  -21.2230   -5.9350   24.6730 C   0  0  0  0  0  3  0  0  0  0  0  0
  -21.4740   -4.5620   24.4890 C   0  0  0  0  0  0  0  0  0  0  0  0
  -21.7810   -4.0670   23.2090 C   0  0  0  0  0  3  0  0  0  0  0  0
  -21.8350   -4.9460   22.1120 C   0  0  0  0  0  0  0  0  0  0  0  0
  -22.1100   -4.4610   20.8770 F   0  0  0  0  0  0  0  0  0  0  0  0
  -21.4170   -3.7140   25.5430 F   0  0  0  0  0  0  0  0  0  0  0  0
  -22.8290  -13.7460   21.0770 C   0  0  0  0  0  0  0  0  0  0  0  0
  -22.1260  -13.0470   21.9600 N   0  0  0  0  0  0  0  0  0  0  0  0
  -22.3900  -14.7920   20.5990 O   0  0  0  0  0  0  0  0  0  0  0  0
  -22.4950  -12.2010   22.3700 H   0  0  0  0  0  0  0  0  0  0  0  0
  -21.2050  -13.3600   22.2290 H   0  0  0  0  0  0  0  0  0  0  0  0
  -25.4610  -15.3870   20.2280 N   0  0  0  0  0  0  0  0  0  0  0  0
  -24.7150  -16.0530   20.4030 H   0  0  0  0  0  0  0  0  0  0  0  0
  -26.3090  -15.8230   19.8890 H   0  0  0  0  0  0  0  0  0  0  0  0
  1  5  2  0
  1  4  1  0
  2  3  2  0
  2  7  1  0
  3  8  1  0
  4  6  2  0
  5  2  1  0
  6  3  1  0
  6  9  1  0
  7  8  1  0
  8 11  1  0
 11 10  1  0
 12 14  1  0
 12  5  1  0
 13 24  2  0
 14 19  1  0
 15 23  1  0
 15 25  1  0
 16 22  1  0
 16 18  1  0
 17 23  1  0
 18 17  1  0
 19 18  2  0
 20 21  1  0
 20 14  2  0
 21 16  2  0
 22 15  1  0
 23 13  1  0
 25 27  2  0
 26 25  1  0
 28 26  1  0
 29 38  2  0
 29 34  1  0
 30 26  1  0
 30 34  1  0
 31 30  1  0
 32 33  1  0
 32 31  1  0
 33 29  1  0
 34 35  2  0
 35 36  1  0
 37 36  2  0
 38 37  1  0
 39 13  1  0
 39 40  1  0
 39 49  1  0
 40 43  1  0
 41 45  1  0
 41 40  1  0
 42 41  2  0
 45 44  1  0
 45 47  1  0
 47 48  1  0
 47 46  1  0
 49 52  1  1
 49 50  1  0
 51 49  1  0
 53  4  1  0
 53 54  2  0
 55 54  1  0
 55 56  2  0
 57 56  1  0
 58 63  1  0
 59 60  1  0
 59 58  1  0
 61 60  1  0
 61 68  1  0
 61 62  1  0
 63 57  1  0
 63 62  1  0
 64 57  2  0
 65 66  2  0
 66 85  1  0
 67 66  1  0
 67 70  1  0
 68 69  1  0
 68 65  1  0
 69 67  2  0
 70 71  1  0
 71 72  2  0
 73 76  1  0
 73 72  1  0
 74 73  2  0
 75 74  1  0
 75 70  2  0
 76 77  1  0
 77 78  1  0
 78 79  2  0
 80 79  1  0
 80 84  1  0
 81 80  2  0
 82 77  2  0
 82 81  1  0
 83 82  1  0
 85 86  1  0
 86 89  1  0
 86 88  1  0
 87 85  2  0
 90 65  1  0
 90 91  1  0
 92 90  1  0
M  ISO  4   5 101  12 101  56 100  57 100
M  END
>  <TORSDO>  (37) 
F 21

>  <SCORE>  (37) 
-10.203

>  <name>  (37) 
36

>  <ligand_id>  (37) 
36

>  <original_smiles>  (37) 
[H]c1c([H])c([H])c2c(c1[H])C([H])([H])C([H])([H])C([H])([H])C2([H])N([H])C(=O)C1([H])N(C(=O)C([H])(N([H])C(=O)C([H])(N([H])C([H])([H])[H])C([H])([H])[H])C(C([H])([H])[H])(C([H])([H])[H])C([H])([H])[H])C([H])([H])c2c([H])c(Oc3c([H])c(C([H])([H])C([H])([H])C([H])([H])C([H])([H])C(=O)N4C([H])([H])C([H])([H])C([H])([H])C([H])(n5nc(-c6c([H])c([H])c(Oc7c([H])c([H])c(F)c([H])c7F)c([H])c6[H])c(C(=O)N([H])[H])c5N([H])[H])C4([H])[H])c(F)c4c3C([H])([H])C4([H])C([H])([H])C([H])([H])[H])c([H])c([H])c2C1([H])[H]

>  <smiles>  (37) 
[H]c1c([H])c([H])c2c(c1[H])C([H])([H])C([H])([H])C([H])([H])C2([H])N([H])C(=O)C1([H])N(C(=O)C([H])(N([H])C(=O)C([H])(N([H])C([H])([H])[H])C([H])([H])[H])C(C([H])([H])[H])(C([H])([H])[H])C([H])([H])[H])C([H])([H])c2c([H])c(Oc3c([H])c(C([H])([H])C([H])([H])C([H])([H])C([H])([H])C(=O)N4C([H])([H])C([H])([H])C([H])([H])C([H])(n5nc(-c6c([H])c([H])c(Oc7c([H])c([H])c(F)c([H])c7F)c([H])c6[H])c(C(=O)N([H])[H])c5N([H])[H])C4([H])[H])c(F)c4c3C([H])([H])C4([H])C([H])([H])C([H])([H])[H])c([H])c([H])c2C1([H])[H]

$$$$
37:0:0
     RDKit          3D

 91100  0  0  1  0  0  0  0  0999 V2000
  -29.1630  -19.7120   21.3460 C   0  0  0  0  0  3  0  0  0  0  0  0
  -29.6250  -17.5530   19.8020 C   0  0  0  0  0  0  0  0  0  0  0  0
  -28.8700  -20.8170   20.4210 C   0  0  0  0  0  0  0  0  0  0  0  0
  -28.9480  -20.2360   19.1270 C   0  0  0  0  0  0  0  0  0  0  0  0
  -29.5000  -18.2660   21.0890 C   0  0  0  0  0  0  0  0  0  0  0  0
  -29.3270  -18.7360   18.8450 C   0  0  0  0  0  0  0  0  0  0  0  0
  -28.5160  -22.5010   20.7750 C   0  0  0  0  0  3  0  0  0  0  0  0
  -28.6650  -21.4530   18.1050 C   0  0  0  0  0  3  0  0  0  0  0  0
  -27.8880  -22.9160   18.4690 C   0  0  0  0  0  3  0  0  0  0  0  0
  -28.2470  -23.9060   19.7180 C   0  0  0  0  0  0  0  0  0  0  0  0
  -29.4280  -18.4020   17.3680 C   0  0  0  0  0  1  0  0  0  0  0  0
  -30.2530  -15.8860   19.5390 C   0  0  0  0  0  0  0  0  0  0  0  0
  -30.2880  -13.3340   18.7220 C   0  0  0  0  0  2  0  0  0  0  0  0
  -29.3080  -12.9600   17.5700 C   0  0  0  0  0  2  0  0  0  0  0  0
  -27.9300  -12.5800   18.1270 C   0  0  0  0  0  2  0  0  0  0  0  0
  -27.5030  -13.5530   19.2480 C   0  0  0  0  0  3  0  0  0  0  0  0
  -28.6130  -13.8670   20.2770 C   0  0  0  0  0  2  0  0  0  0  0  0
  -29.7400  -14.5070   19.5580 N   0  0  0  0  0  0  0  0  0  0  0  0
  -31.4420  -15.7890   19.1740 O   0  0  0  0  0  0  0  0  0  0  0  0
  -25.2200  -14.0280   20.2430 C   0  0  0  0  0  0  0  0  0  0  0  0
  -24.2070  -13.2240   20.6850 C   0  0  0  0  0  0  0  0  0  0  0  0
  -24.6890  -11.8830   20.5760 C   0  0  0  0  0  0  0  0  0  0  0  0
  -26.2450  -13.1790   19.8770 N   0  0  0  0  0  0  0  0  0  0  0  0
  -25.9480  -11.8790   20.1450 N   0  0  0  0  0  0  0  0  0  0  0  0
  -23.9960  -10.6060   20.8000 C   0  0  0  0  0  0  0  0  0  0  0  0
  -24.4710   -9.6570   21.7310 C   0  0  0  0  0  3  0  0  0  0  0  0
  -23.7700   -8.4500   21.9450 C   0  0  0  0  0  3  0  0  0  0  0  0
  -22.5810   -8.1820   21.2270 C   0  0  0  0  0  0  0  0  0  0  0  0
  -22.1250   -9.1200   20.2830 C   0  0  0  0  0  3  0  0  0  0  0  0
  -22.8250  -10.3180   20.0690 C   0  0  0  0  0  3  0  0  0  0  0  0
  -21.8490   -7.0250   21.3490 O   0  0  0  0  0  0  0  0  0  0  0  0
  -21.7820   -6.3370   22.5340 C   0  0  0  0  0  0  0  0  0  0  0  0
  -21.3030   -6.9380   23.7190 C   0  0  0  0  0  3  0  0  0  0  0  0
  -21.1850   -6.1750   24.8970 C   0  0  0  0  0  3  0  0  0  0  0  0
  -21.5360   -4.8120   24.8920 C   0  0  0  0  0  0  0  0  0  0  0  0
  -22.0080   -4.2110   23.7130 C   0  0  0  0  0  3  0  0  0  0  0  0
  -22.1270   -4.9700   22.5360 C   0  0  0  0  0  0  0  0  0  0  0  0
  -22.5620   -4.3800   21.3970 F   0  0  0  0  0  0  0  0  0  0  0  0
  -21.4170   -4.0760   26.0230 F   0  0  0  0  0  0  0  0  0  0  0  0
  -22.8350  -13.6760   21.0860 C   0  0  0  0  0  0  0  0  0  0  0  0
  -22.2020  -12.9620   22.0090 N   0  0  0  0  0  0  0  0  0  0  0  0
  -22.3360  -14.6970   20.6150 O   0  0  0  0  0  0  0  0  0  0  0  0
  -22.6210  -12.1370   22.4100 H   0  0  0  0  0  0  0  0  0  0  0  0
  -21.2840  -13.2460   22.3220 H   0  0  0  0  0  0  0  0  0  0  0  0
  -25.3470  -15.4060   20.0900 N   0  0  0  0  0  0  0  0  0  0  0  0
  -24.5880  -16.0440   20.3000 H   0  0  0  0  0  0  0  0  0  0  0  0
  -26.1630  -15.8720   19.7170 H   0  0  0  0  0  0  0  0  0  0  0  0
  -28.0380  -25.6810   19.8720 O   0  0  0  0  0  0  0  0  0  0  0  0
  -24.6000  -31.8940   23.0260 C   0  0  0  0  0  0  0  0  0  0  0  0
  -27.0160  -26.8570   19.8540 C   0  0  0  0  0  0  0  0  0  0  0  0
  -23.3500  -30.5230   21.4130 C   0  0  0  0  0  3  0  0  0  0  0  0
  -24.7420  -28.8940   19.9170 C   0  0  0  0  0  0  0  0  0  0  0  0
  -25.9210  -30.6670   21.1930 C   0  0  0  0  0  2  0  0  0  0  0  0
  -25.9600  -29.2430   20.5100 C   0  0  0  0  0  0  0  0  0  0  0  0
  -27.0750  -28.2540   20.4440 C   0  0  0  0  0  3  0  0  0  0  0  0
  -25.7600  -26.7190   19.2090 C   0  0  0  0  0  3  0  0  0  0  0  0
  -24.6810  -27.6590   19.2420 C   0  0  0  0  0  3  0  0  0  0  0  0
  -23.5360  -29.8440   20.0230 C   0  0  0  0  0  2  0  0  0  0  0  0
  -24.6500  -31.0610   21.9290 N   0  0  0  0  0  0  0  0  0  0  0  0
  -23.5270  -32.1840   23.5850 O   0  0  0  0  0  0  0  0  0  0  0  0
  -22.6730  -29.5300   22.3960 C   0  0  0  0  0  0  0  0  0  0  0  0
  -21.3420  -29.3500   22.2980 N   0  0  0  0  0  0  0  0  0  0  0  0
  -23.3580  -28.9180   23.2190 O   0  0  0  0  0  0  0  0  0  0  0  0
  -20.8370  -29.8930   21.6120 H   0  0  0  0  0  0  0  0  0  0  0  0
  -18.0020  -28.0180   22.8240 C   0  0  0  0  0  0  0  0  0  0  0  0
  -20.5500  -28.3960   23.0850 C   0  0  0  0  0  3  0  0  0  0  0  0
  -20.7090  -26.9590   22.5350 C   0  0  0  0  0  2  0  0  0  0  0  0
  -19.6250  -26.5760   21.5240 C   0  0  0  0  0  2  0  0  0  0  0  0
  -18.2370  -26.6700   22.1640 C   0  0  0  0  0  2  0  0  0  0  0  0
  -19.0870  -28.8350   23.2420 C   0  0  0  0  0  0  0  0  0  0  0  0
  -18.8110  -30.0900   23.8250 C   0  0  0  0  0  3  0  0  0  0  0  0
  -17.4840  -30.5320   23.9920 C   0  0  0  0  0  3  0  0  0  0  0  0
  -16.4150  -29.7140   23.5880 C   0  0  0  0  0  3  0  0  0  0  0  0
  -16.6740  -28.4580   23.0100 C   0  0  0  0  0  3  0  0  0  0  0  0
  -25.8860  -32.5370   23.6290 C   0  0  0  0  0  3  0  0  0  0  0  0
  -25.5680  -33.9240   24.0250 N   0  0  0  0  0  0  0  0  0  0  0  0
  -25.8900  -35.0210   23.3250 C   0  0  0  0  0  0  0  0  0  0  0  0
  -26.5430  -34.9710   22.2800 O   0  0  0  0  0  0  0  0  0  0  0  0
  -24.9860  -34.0340   24.8420 H   0  0  0  0  0  0  0  0  0  0  0  0
  -24.1700  -36.8480   23.0930 C   0  0  0  0  0  1  0  0  0  0  0  0
  -25.4170  -36.3880   23.8660 C   0  0  0  0  0  3  0  0  0  0  0  0
  -27.5630  -37.2220   24.7260 C   0  0  0  0  0  1  0  0  0  0  0  0
  -26.4550  -37.4410   23.7990 N   0  0  0  0  0  0  0  0  0  0  0  0
  -26.0550  -38.3550   23.9950 H   0  0  0  0  0  0  0  0  0  0  0  0
  -26.4470  -31.7450   24.8760 C   0  0  1  0  0  0  0  0  0  0  0  0
  -25.3930  -31.4900   25.9810 C   0  0  0  0  0  1  0  0  0  0  0  0
  -27.0150  -30.3720   24.4530 C   0  0  0  0  0  1  0  0  0  0  0  0
  -27.6230  -32.5250   25.5090 C   0  0  0  0  0  1  0  0  0  0  0  0
  -29.8240  -17.4660   22.3420 C   0  0  0  0  0  2  0  0  0  0  0  0
  -31.6270  -16.8800   24.0550 C   0  0  0  0  0  1  0  0  0  0  0  0
  -31.3040  -17.5890   22.7350 C   0  0  0  0  0  2  0  0  0  0  0  0
  2  5  2  0
  3  7  1  0
  3  1  2  0
  4  3  1  0
  5  1  1  0
  5 89  1  0
  6  4  2  0
  6  2  1  0
  8  9  2  0
  8  4  1  0
  9 10  1  0
 10 48  1  0
 10  7  2  0
 11  6  1  0
 12 18  1  0
 12  2  1  0
 13 18  1  0
 14 15  1  0
 14 13  1  0
 16 15  1  0
 16 23  1  0
 16 17  1  0
 18 17  1  0
 19 12  2  0
 20 21  2  0
 21 40  1  0
 22 21  1  0
 22 25  1  0
 23 24  1  0
 23 20  1  0
 24 22  2  0
 25 26  1  0
 26 27  2  0
 28 31  1  0
 28 27  1  0
 29 28  2  0
 30 29  1  0
 30 25  2  0
 31 32  1  0
 32 37  2  0
 32 33  1  0
 33 34  2  0
 35 34  1  0
 35 39  1  0
 36 35  2  0
 37 36  1  0
 38 37  1  0
 40 41  1  0
 41 44  1  0
 41 43  1  0
 42 40  2  0
 45 20  1  0
 45 46  1  0
 47 45  1  0
 49 60  2  0
 50 48  1  0
 50 55  1  0
 51 59  1  0
 51 61  1  0
 52 58  1  0
 52 54  1  0
 53 59  1  0
 54 53  1  0
 55 54  2  0
 56 57  1  0
 56 50  2  0
 57 52  2  0
 58 51  1  0
 59 49  1  0
 61 63  2  0
 62 61  1  0
 64 62  1  0
 65 74  2  0
 65 70  1  0
 66 62  1  0
 66 70  1  0
 67 66  1  0
 68 69  1  0
 68 67  1  0
 69 65  1  0
 70 71  2  0
 71 72  1  0
 73 72  2  0
 74 73  1  0
 75 49  1  0
 75 76  1  0
 75 85  1  0
 76 79  1  0
 77 81  1  0
 77 76  1  0
 78 77  2  0
 81 80  1  0
 83 81  1  0
 83 84  1  0
 83 82  1  0
 85 88  1  1
 85 86  1  0
 87 85  1  0
 89 91  1  0
 91 90  1  0
M  ISO  4   2 100  10 101  12 100  48 101
M  END
>  <TORSDO>  (38) 
F 18

>  <SCORE>  (38) 
-10.589

>  <name>  (38) 
37

>  <ligand_id>  (38) 
37

>  <original_smiles>  (38) 
[H]c1c([H])c([H])c2c(c1[H])C([H])([H])C([H])([H])C([H])([H])C2([H])N([H])C(=O)C1([H])N(C(=O)C([H])(N([H])C(=O)C([H])(N([H])C([H])([H])[H])C([H])([H])[H])C(C([H])([H])[H])(C([H])([H])[H])C([H])([H])[H])C([H])([H])c2c([H])c(OC3([H])C([H])([H])c4c([H])c(C([H])([H])C([H])([H])C([H])([H])[H])c(C(=O)N5C([H])([H])C([H])([H])C([H])([H])C([H])(n6nc(-c7c([H])c([H])c(Oc8c([H])c([H])c(F)c([H])c8F)c([H])c7[H])c(C(=O)N([H])[H])c6N([H])[H])C5([H])[H])c(C([H])([H])[H])c4C([H])([H])C3([H])[H])c([H])c([H])c2C1([H])[H]

>  <smiles>  (38) 
[H]c1c([H])c([H])c2c(c1[H])C([H])([H])C([H])([H])C([H])([H])C2([H])N([H])C(=O)C1([H])N(C(=O)C([H])(N([H])C(=O)C([H])(N([H])C([H])([H])[H])C([H])([H])[H])C(C([H])([H])[H])(C([H])([H])[H])C([H])([H])[H])C([H])([H])c2c([H])c(OC3([H])C([H])([H])c4c([H])c(C([H])([H])C([H])([H])C([H])([H])[H])c(C(=O)N5C([H])([H])C([H])([H])C([H])([H])C([H])(n6nc(-c7c([H])c([H])c(Oc8c([H])c([H])c(F)c([H])c8F)c([H])c7[H])c(C(=O)N([H])[H])c6N([H])[H])C5([H])[H])c(C([H])([H])[H])c4C([H])([H])C3([H])[H])c([H])c([H])c2C1([H])[H]

$$$$
38:0:0
     RDKit          3D

 95104  0  0  1  0  0  0  0  0999 V2000
  -29.8600  -20.2130   20.1810 C   0  0  0  0  0  3  0  0  0  0  0  0
  -28.8920  -16.2020   21.9070 C   0  0  0  0  0  3  0  0  0  0  0  0
  -30.0020  -15.4120   22.2160 C   0  0  0  0  0  3  0  0  0  0  0  0
  -31.0700  -16.0120   20.0480 C   0  0  0  0  0  0  0  0  0  0  0  0
  -29.0040  -17.0970   20.8410 C   0  0  0  0  0  0  0  0  0  0  0  0
  -30.1670  -17.2520   20.0580 C   0  0  0  0  0  0  0  0  0  0  0  0
  -31.0770  -15.3220   21.3100 C   0  0  0  0  0  0  0  0  0  0  0  0
  -27.8360  -17.9090   20.3410 C   0  0  0  0  0  2  0  0  0  0  0  0
  -28.3690  -18.4870   19.0260 C   0  0  0  0  0  2  0  0  0  0  0  0
  -29.8580  -18.7070   19.3290 C   0  0  0  0  0  3  0  0  0  0  0  0
  -32.2120  -14.3810   21.7190 C   0  0  0  0  0  1  0  0  0  0  0  0
  -31.9350  -15.2080   18.9510 C   0  0  0  0  0  0  0  0  0  0  0  0
  -32.6970  -13.0100   17.8810 C   0  0  0  0  0  2  0  0  0  0  0  0
  -31.5910  -12.4220   16.9730 C   0  0  0  0  0  2  0  0  0  0  0  0
  -30.5970  -11.5720   17.7880 C   0  0  0  0  0  2  0  0  0  0  0  0
  -30.1550  -12.2930   19.0850 C   0  0  0  0  0  3  0  0  0  0  0  0
  -31.3570  -12.8660   19.8580 C   0  0  0  0  0  2  0  0  0  0  0  0
  -32.0520  -13.8090   18.9640 N   0  0  0  0  0  0  0  0  0  0  0  0
  -32.6430  -15.8210   18.1440 O   0  0  0  0  0  0  0  0  0  0  0  0
  -28.0800  -11.7520   20.4850 C   0  0  0  0  0  0  0  0  0  0  0  0
  -27.6670  -10.6120   21.1160 C   0  0  0  0  0  0  0  0  0  0  0  0
  -28.7010   -9.6500   20.9120 C   0  0  0  0  0  0  0  0  0  0  0  0
  -29.3130  -11.4520   19.9300 N   0  0  0  0  0  0  0  0  0  0  0  0
  -29.7140  -10.1930   20.2460 N   0  0  0  0  0  0  0  0  0  0  0  0
  -28.7580   -8.2230   21.2610 C   0  0  0  0  0  0  0  0  0  0  0  0
  -29.8100   -7.6930   22.0410 C   0  0  0  0  0  3  0  0  0  0  0  0
  -29.8320   -6.3240   22.3800 C   0  0  0  0  0  3  0  0  0  0  0  0
  -28.7920   -5.4680   21.9450 C   0  0  0  0  0  0  0  0  0  0  0  0
  -27.7590   -5.9950   21.1510 C   0  0  0  0  0  3  0  0  0  0  0  0
  -27.7410   -7.3570   20.8090 C   0  0  0  0  0  3  0  0  0  0  0  0
  -28.7440   -4.1190   22.2050 O   0  0  0  0  0  0  0  0  0  0  0  0
  -29.1700   -3.6000   23.4020 C   0  0  0  0  0  0  0  0  0  0  0  0
  -28.7530   -4.1400   24.6380 C   0  0  0  0  0  3  0  0  0  0  0  0
  -29.1570   -3.5320   25.8440 C   0  0  0  0  0  3  0  0  0  0  0  0
  -29.9690   -2.3810   25.8160 C   0  0  0  0  0  0  0  0  0  0  0  0
  -30.3790   -1.8390   24.5850 C   0  0  0  0  0  3  0  0  0  0  0  0
  -29.9780   -2.4450   23.3820 C   0  0  0  0  0  0  0  0  0  0  0  0
  -30.3580   -1.9050   22.1980 F   0  0  0  0  0  0  0  0  0  0  0  0
  -30.3530   -1.7920   26.9730 F   0  0  0  0  0  0  0  0  0  0  0  0
  -26.3420  -10.3960   21.7900 C   0  0  0  0  0  0  0  0  0  0  0  0
  -26.3020   -9.5430   22.8090 N   0  0  0  0  0  0  0  0  0  0  0  0
  -25.3430  -11.0240   21.4460 O   0  0  0  0  0  0  0  0  0  0  0  0
  -27.1270   -9.0440   23.1050 H   0  0  0  0  0  0  0  0  0  0  0  0
  -25.4320   -9.3880   23.2970 H   0  0  0  0  0  0  0  0  0  0  0  0
  -27.5060  -13.0080   20.3140 N   0  0  0  0  0  0  0  0  0  0  0  0
  -26.5900  -13.2430   20.6770 H   0  0  0  0  0  0  0  0  0  0  0  0
  -27.9640  -13.7850   19.8590 H   0  0  0  0  0  0  0  0  0  0  0  0
  -31.2540  -20.6160   20.4200 N   0  0  0  0  0  4  0  0  0  0  0  0
  -31.7040  -20.8620   19.5570 H   0  0  0  0  0  0  0  0  0  0  0  0
  -31.7650  -19.8640   20.8480 H   0  0  0  0  0  0  0  0  0  0  0  0
  -31.2860  -21.4080   21.0360 H   0  0  0  0  0  0  0  0  0  0  0  0
  -28.3490  -22.6110   20.6290 C   0  0  0  0  0  3  0  0  0  0  0  0
  -28.9750  -21.5940   19.8340 C   0  0  0  0  0  3  0  0  0  0  0  0
  -27.3740  -23.9010   20.2280 C   0  0  0  0  0  2  0  0  0  0  0  0
  -26.5580  -24.8560   21.1790 O   0  0  0  0  0  0  0  0  0  0  0  0
  -19.4630  -26.2680   19.5760 C   0  0  0  0  0  0  0  0  0  0  0  0
  -25.5330  -25.7500   20.6610 C   0  0  0  0  0  0  0  0  0  0  0  0
  -21.1940  -27.4520   18.2850 C   0  0  0  0  0  3  0  0  0  0  0  0
  -23.5720  -27.4090   19.2660 C   0  0  0  0  0  0  0  0  0  0  0  0
  -21.6630  -26.7530   20.7180 C   0  0  0  0  0  2  0  0  0  0  0  0
  -23.1640  -26.6590   20.3760 C   0  0  0  0  0  0  0  0  0  0  0  0
  -24.1410  -25.8520   21.0850 C   0  0  0  0  0  3  0  0  0  0  0  0
  -25.8640  -26.6000   19.5820 C   0  0  0  0  0  3  0  0  0  0  0  0
  -24.9240  -27.3950   18.8930 C   0  0  0  0  0  3  0  0  0  0  0  0
  -22.5300  -28.2110   18.4990 C   0  0  0  0  0  2  0  0  0  0  0  0
  -20.7300  -26.7810   19.5440 N   0  0  0  0  0  0  0  0  0  0  0  0
  -18.6970  -26.3590   18.6030 O   0  0  0  0  0  0  0  0  0  0  0  0
  -21.3420  -26.4780   17.0900 C   0  0  0  0  0  0  0  0  0  0  0  0
  -21.5040  -27.0190   15.8690 N   0  0  0  0  0  0  0  0  0  0  0  0
  -21.3330  -25.2570   17.2740 O   0  0  0  0  0  0  0  0  0  0  0  0
  -21.4920  -28.0270   15.7940 H   0  0  0  0  0  0  0  0  0  0  0  0
  -22.1770  -27.3780   12.3260 C   0  0  0  0  0  0  0  0  0  0  0  0
  -21.7120  -26.2800   14.6210 C   0  0  0  0  0  3  0  0  0  0  0  0
  -23.1570  -25.7340   14.5350 C   0  0  0  0  0  2  0  0  0  0  0  0
  -24.1130  -26.6730   13.7940 C   0  0  0  0  0  2  0  0  0  0  0  0
  -23.6250  -26.9200   12.3650 C   0  0  0  0  0  2  0  0  0  0  0  0
  -21.2840  -27.0900   13.3920 C   0  0  0  0  0  0  0  0  0  0  0  0
  -19.9560  -27.5670   13.3180 C   0  0  0  0  0  3  0  0  0  0  0  0
  -19.5200  -28.3150   12.2090 C   0  0  0  0  0  3  0  0  0  0  0  0
  -20.4050  -28.5840   11.1510 C   0  0  0  0  0  3  0  0  0  0  0  0
  -21.7290  -28.1120   11.2090 C   0  0  0  0  0  3  0  0  0  0  0  0
  -18.9050  -25.5550   20.8460 C   0  0  0  0  0  3  0  0  0  0  0  0
  -18.2970  -24.1300   20.5400 C   0  0  1  0  0  0  0  0  0  0  0  0
  -17.3530  -24.1080   19.3150 C   0  0  0  0  0  1  0  0  0  0  0  0
  -19.4180  -23.0970   20.2860 C   0  0  0  0  0  1  0  0  0  0  0  0
  -17.5030  -23.6270   21.7680 C   0  0  0  0  0  1  0  0  0  0  0  0
  -17.8810  -26.4310   21.4390 N   0  0  0  0  0  0  0  0  0  0  0  0
  -17.9850  -27.0320   22.6310 C   0  0  0  0  0  0  0  0  0  0  0  0
  -18.9450  -26.8540   23.3860 O   0  0  0  0  0  0  0  0  0  0  0  0
  -17.0940  -26.6650   20.8520 H   0  0  0  0  0  0  0  0  0  0  0  0
  -17.3430  -29.4350   23.0170 C   0  0  0  0  0  1  0  0  0  0  0  0
  -16.8460  -27.9810   23.0570 C   0  0  0  0  0  3  0  0  0  0  0  0
  -15.5490  -26.4260   24.4460 C   0  0  0  0  0  1  0  0  0  0  0  0
  -16.2960  -27.6800   24.3950 N   0  0  0  0  0  0  0  0  0  0  0  0
  -15.6800  -28.4270   24.7090 H   0  0  0  0  0  0  0  0  0  0  0  0
  1 53  1  0
  1 48  1  0
  2  3  1  0
  4  6  2  0
  4  7  1  0
  5  2  2  0
  6  5  1  0
  7 11  1  0
  7  3  2  0
  8  5  1  0
  9 10  1  0
  9  8  1  0
 10  6  1  0
 10  1  1  0
 12 18  1  0
 12  4  1  0
 13 18  1  0
 14 15  1  0
 14 13  1  0
 16 15  1  0
 16 17  1  0
 16 23  1  0
 18 17  1  0
 19 12  2  0
 20 21  2  0
 21 40  1  0
 22 21  1  0
 22 25  1  0
 23 24  1  0
 23 20  1  0
 24 22  2  0
 25 26  1  0
 26 27  2  0
 28 31  1  0
 28 27  1  0
 29 28  2  0
 30 29  1  0
 30 25  2  0
 31 32  1  0
 32 33  1  0
 33 34  2  0
 35 34  1  0
 35 39  1  0
 36 35  2  0
 37 32  2  0
 37 36  1  0
 38 37  1  0
 40 41  1  0
 41 43  1  0
 41 44  1  0
 42 40  2  0
 45 20  1  0
 45 46  1  0
 47 45  1  0
 48 50  1  0
 48 51  1  0
 49 48  1  0
 53 52  2  0
 54 52  1  0
 54 55  1  0
 57 62  1  0
 57 55  1  0
 58 68  1  0
 58 65  1  0
 58 66  1  0
 59 61  1  0
 61 60  1  0
 61 62  2  0
 63 57  2  0
 64 59  2  0
 64 63  1  0
 65 59  1  0
 66 56  1  0
 66 60  1  0
 67 56  2  0
 68 70  2  0
 69 68  1  0
 71 69  1  0
 72 76  1  0
 72 77  1  0
 73 69  1  0
 74 73  1  0
 75 74  1  0
 76 75  1  0
 77 73  1  0
 78 77  2  0
 79 78  1  0
 80 81  1  0
 80 79  2  0
 81 72  2  0
 82 56  1  0
 82 87  1  0
 83 82  1  0
 83 86  1  1
 84 83  1  0
 85 83  1  0
 87 88  1  0
 88 92  1  0
 88 89  2  0
 90 87  1  0
 92 91  1  0
 92 94  1  0
 94 93  1  0
 94 95  1  0
M  ISO  4   4 100  12 100  54 101  55 101
M  END
>  <TORSDO>  (39) 
F 20

>  <SCORE>  (39) 
0.198

>  <name>  (39) 
38

>  <ligand_id>  (39) 
38

>  <original_smiles>  (39) 
[H]C(=C([H])C([H])(C1([H])c2c(C(=O)N3C([H])([H])C([H])([H])C([H])([H])C([H])(n4nc(-c5c([H])c([H])c(Oc6c([H])c([H])c(F)c([H])c6F)c([H])c5[H])c(C(=O)N([H])[H])c4N([H])[H])C3([H])[H])c(C([H])([H])[H])c([H])c([H])c2C([H])([H])C1([H])[H])[N+]([H])([H])[H])C([H])([H])Oc1c([H])c([H])c2c(c1[H])C([H])([H])N(C(=O)C([H])(N([H])C(=O)C([H])(N([H])C([H])([H])[H])C([H])([H])[H])C(C([H])([H])[H])(C([H])([H])[H])C([H])([H])[H])C([H])(C(=O)N([H])C1([H])c3c([H])c([H])c([H])c([H])c3C([H])([H])C([H])([H])C1([H])[H])C2([H])[H]

>  <smiles>  (39) 
[H]C(=C([H])C([H])(C1([H])c2c(C(=O)N3C([H])([H])C([H])([H])C([H])([H])C([H])(n4nc(-c5c([H])c([H])c(Oc6c([H])c([H])c(F)c([H])c6F)c([H])c5[H])c(C(=O)N([H])[H])c4N([H])[H])C3([H])[H])c(C([H])([H])[H])c([H])c([H])c2C([H])([H])C1([H])[H])[N+]([H])([H])[H])C([H])([H])Oc1c([H])c([H])c2c(c1[H])C([H])([H])N(C(=O)C([H])(N([H])C(=O)C([H])(N([H])C([H])([H])[H])C([H])([H])[H])C(C([H])([H])[H])(C([H])([H])[H])C([H])([H])[H])C([H])(C(=O)N([H])C1([H])c3c([H])c([H])c([H])c([H])c3C([H])([H])C([H])([H])C1([H])[H])C2([H])[H]

$$$$
39:0:0
     RDKit          3D

 94103  0  0  1  0  0  0  0  0999 V2000
  -29.8070  -23.0290   19.7130 C   0  0  0  0  0  3  0  0  0  0  0  0
  -27.5770  -24.3400   20.7420 C   0  0  0  0  0  3  0  0  0  0  0  0
  -28.8160  -22.1830   20.2860 C   0  0  0  0  0  0  0  0  0  0  0  0
  -29.6960  -24.4640   19.6520 C   0  0  0  0  0  0  0  0  0  0  0  0
  -27.6970  -22.9060   20.8250 C   0  0  0  0  0  0  0  0  0  0  0  0
  -28.5540  -25.1810   20.1350 C   0  0  0  0  0  0  0  0  0  0  0  0
  -26.5800  -22.1520   21.5270 C   0  0  0  0  0  1  0  0  0  0  0  0
  -29.8960  -19.9240   21.3520 C   0  0  0  0  0  2  0  0  0  0  0  0
  -29.2770  -19.8310   18.9740 C   0  0  0  0  0  2  0  0  0  0  0  0
  -29.8620  -18.3380   21.4300 C   0  0  0  0  0  2  0  0  0  0  0  0
  -29.2330  -18.2430   19.0410 C   0  0  0  0  0  2  0  0  0  0  0  0
  -28.9300  -20.5720   20.3080 C   0  0  0  0  0  3  0  0  0  0  0  0
  -30.1580  -17.5480   20.1040 C   0  0  0  0  0  3  0  0  0  0  0  0
  -30.7930  -14.9450   19.9260 C   0  0  0  0  0  0  0  0  0  0  0  0
  -30.6150  -12.6540   18.9360 C   0  0  0  0  0  2  0  0  0  0  0  0
  -29.5980  -12.6980   17.7730 C   0  0  0  0  0  2  0  0  0  0  0  0
  -28.1590  -12.4970   18.2920 C   0  0  0  0  0  2  0  0  0  0  0  0
  -27.8450  -13.3830   19.5280 C   0  0  0  0  0  3  0  0  0  0  0  0
  -28.9710  -13.3070   20.5820 C   0  0  0  0  0  2  0  0  0  0  0  0
  -30.2190  -13.6940   19.9140 N   0  0  0  0  0  0  0  0  0  0  0  0
  -31.9440  -15.0990   19.5080 O   0  0  0  0  0  0  0  0  0  0  0  0
  -29.9710  -16.0270   20.2260 N   0  0  0  0  0  0  0  0  0  0  0  0
  -29.0540  -15.7440   20.5370 H   0  0  0  0  0  0  0  0  0  0  0  0
  -25.5220  -13.9470   20.4610 C   0  0  0  0  0  0  0  0  0  0  0  0
  -24.4810  -13.1600   20.8720 C   0  0  0  0  0  0  0  0  0  0  0  0
  -24.9300  -11.8110   20.7410 C   0  0  0  0  0  0  0  0  0  0  0  0
  -26.5390  -13.0770   20.1030 N   0  0  0  0  0  0  0  0  0  0  0  0
  -26.1930  -11.7850   20.3320 N   0  0  0  0  0  0  0  0  0  0  0  0
  -24.2110  -10.5440   20.9220 C   0  0  0  0  0  0  0  0  0  0  0  0
  -24.6220   -9.5930   21.8820 C   0  0  0  0  0  3  0  0  0  0  0  0
  -23.9050   -8.3890   22.0510 C   0  0  0  0  0  3  0  0  0  0  0  0
  -22.7610   -8.1280   21.2610 C   0  0  0  0  0  0  0  0  0  0  0  0
  -22.3680   -9.0670   20.2890 C   0  0  0  0  0  3  0  0  0  0  0  0
  -23.0870  -10.2630   20.1200 C   0  0  0  0  0  3  0  0  0  0  0  0
  -22.0160   -6.9770   21.3390 O   0  0  0  0  0  0  0  0  0  0  0  0
  -21.8210   -6.3220   22.5290 C   0  0  0  0  0  0  0  0  0  0  0  0
  -21.1990   -6.9490   23.6290 C   0  0  0  0  0  3  0  0  0  0  0  0
  -20.9580   -6.2210   24.8120 C   0  0  0  0  0  3  0  0  0  0  0  0
  -21.3270   -4.8640   24.8890 C   0  0  0  0  0  0  0  0  0  0  0  0
  -21.9420   -4.2360   23.7920 C   0  0  0  0  0  3  0  0  0  0  0  0
  -22.1850   -4.9630   22.6140 C   0  0  0  0  0  0  0  0  0  0  0  0
  -22.7590   -4.3470   21.5520 F   0  0  0  0  0  0  0  0  0  0  0  0
  -21.0870   -4.1590   26.0210 F   0  0  0  0  0  0  0  0  0  0  0  0
  -23.1120  -13.6280   21.2690 C   0  0  0  0  0  0  0  0  0  0  0  0
  -22.4420  -12.8940   22.1500 N   0  0  0  0  0  0  0  0  0  0  0  0
  -22.6470  -14.6800   20.8340 O   0  0  0  0  0  0  0  0  0  0  0  0
  -22.8320  -12.0410   22.5240 H   0  0  0  0  0  0  0  0  0  0  0  0
  -21.5250  -13.1880   22.4540 H   0  0  0  0  0  0  0  0  0  0  0  0
  -25.6790  -15.3240   20.3410 N   0  0  0  0  0  0  0  0  0  0  0  0
  -24.9180  -15.9640   20.5370 H   0  0  0  0  0  0  0  0  0  0  0  0
  -26.4840  -15.7840   19.9380 H   0  0  0  0  0  0  0  0  0  0  0  0
  -30.8900  -25.2160   17.5400 C   0  0  0  0  0  1  0  0  0  0  0  0
  -30.8740  -25.2320   19.0720 C   0  0  0  0  0  2  0  0  0  0  0  0
  -28.5030  -26.6140   20.0670 O   0  0  0  0  0  0  0  0  0  0  0  0
  -24.7490  -31.9310   23.2670 C   0  0  0  0  0  0  0  0  0  0  0  0
  -27.3540  -27.4320   20.0890 C   0  0  0  0  0  0  0  0  0  0  0  0
  -23.5390  -30.5740   21.5940 C   0  0  0  0  0  3  0  0  0  0  0  0
  -24.9840  -29.0550   20.1190 C   0  0  0  0  0  0  0  0  0  0  0  0
  -26.0760  -30.8960   21.4080 C   0  0  0  0  0  2  0  0  0  0  0  0
  -26.1530  -29.5290   20.7270 C   0  0  0  0  0  0  0  0  0  0  0  0
  -27.3370  -28.7300   20.7010 C   0  0  0  0  0  3  0  0  0  0  0  0
  -26.1660  -27.0190   19.4500 C   0  0  0  0  0  3  0  0  0  0  0  0
  -24.9930  -27.8070   19.4720 C   0  0  0  0  0  3  0  0  0  0  0  0
  -23.7480  -29.9320   20.1960 C   0  0  0  0  0  2  0  0  0  0  0  0
  -24.8070  -31.1520   22.1460 N   0  0  0  0  0  0  0  0  0  0  0  0
  -23.6680  -32.1920   23.8160 O   0  0  0  0  0  0  0  0  0  0  0  0
  -22.8820  -29.5340   22.5320 C   0  0  0  0  0  0  0  0  0  0  0  0
  -21.5600  -29.3420   22.3950 N   0  0  0  0  0  0  0  0  0  0  0  0
  -23.5640  -28.9000   23.3420 O   0  0  0  0  0  0  0  0  0  0  0  0
  -21.0680  -29.9050   21.7130 H   0  0  0  0  0  0  0  0  0  0  0  0
  -18.1910  -28.1100   22.8720 C   0  0  0  0  0  0  0  0  0  0  0  0
  -20.7480  -28.3790   23.1410 C   0  0  0  0  0  3  0  0  0  0  0  0
  -20.8570  -26.9650   22.5250 C   0  0  0  0  0  2  0  0  0  0  0  0
  -19.7550  -26.6640   21.5040 C   0  0  0  0  0  2  0  0  0  0  0  0
  -18.3740  -26.7820   22.1570 C   0  0  0  0  0  2  0  0  0  0  0  0
  -19.3060  -28.8670   23.3200 C   0  0  0  0  0  0  0  0  0  0  0  0
  -19.0810  -30.1100   23.9490 C   0  0  0  0  0  3  0  0  0  0  0  0
  -17.7740  -30.5980   24.1340 C   0  0  0  0  0  3  0  0  0  0  0  0
  -16.6720  -29.8370   23.7020 C   0  0  0  0  0  3  0  0  0  0  0  0
  -16.8820  -28.5940   23.0780 C   0  0  0  0  0  3  0  0  0  0  0  0
  -26.0340  -32.5490   23.9010 C   0  0  0  0  0  3  0  0  0  0  0  0
  -25.7350  -33.9480   24.2400 N   0  0  0  0  0  0  0  0  0  0  0  0
  -26.0420  -35.0020   23.4710 C   0  0  0  0  0  0  0  0  0  0  0  0
  -26.6750  -34.8970   22.4160 O   0  0  0  0  0  0  0  0  0  0  0  0
  -25.1720  -34.1020   25.0630 H   0  0  0  0  0  0  0  0  0  0  0  0
  -24.2860  -36.7810   23.1920 C   0  0  0  0  0  1  0  0  0  0  0  0
  -25.5690  -36.3910   23.9420 C   0  0  0  0  0  3  0  0  0  0  0  0
  -27.7350  -37.2970   24.6610 C   0  0  0  0  0  1  0  0  0  0  0  0
  -26.5870  -37.4510   23.7710 N   0  0  0  0  0  0  0  0  0  0  0  0
  -26.1820  -38.3700   23.9320 H   0  0  0  0  0  0  0  0  0  0  0  0
  -26.5370  -31.7670   25.1770 C   0  0  1  0  0  0  0  0  0  0  0  0
  -25.4370  -31.5300   26.2370 C   0  0  0  0  0  1  0  0  0  0  0  0
  -27.1130  -30.3880   24.7830 C   0  0  0  0  0  1  0  0  0  0  0  0
  -27.6900  -32.5490   25.8510 C   0  0  0  0  0  1  0  0  0  0  0  0
  1  3  1  0
  2  5  1  0
  3  5  2  0
  4  1  2  0
  4  6  1  0
  5  7  1  0
  6  2  2  0
  8 10  1  0
  9 11  1  0
  9 12  1  0
 11 13  1  0
 12  3  1  0
 12  8  1  0
 13 22  1  0
 13 10  1  0
 14 22  1  0
 15 20  1  0
 16 17  1  0
 16 15  1  0
 18 17  1  0
 18 27  1  0
 18 19  1  0
 20 14  1  0
 20 19  1  0
 21 14  2  0
 22 23  1  0
 24 25  2  0
 25 44  1  0
 26 25  1  0
 26 29  1  0
 27 28  1  0
 27 24  1  0
 28 26  2  0
 29 30  1  0
 30 31  2  0
 32 35  1  0
 32 31  1  0
 33 32  2  0
 34 33  1  0
 34 29  2  0
 35 36  1  0
 36 41  2  0
 36 37  1  0
 37 38  2  0
 38 39  1  0
 39 43  1  0
 40 39  2  0
 41 40  1  0
 42 41  1  0
 44 45  1  0
 45 48  1  0
 45 47  1  0
 46 44  2  0
 49 24  1  0
 49 50  1  0
 51 49  1  0
 52 53  1  0
 53  4  1  0
 54 56  1  0
 54  6  1  0
 55 66  2  0
 56 61  1  0
 57 65  1  0
 57 67  1  0
 58 64  1  0
 58 60  1  0
 59 65  1  0
 60 59  1  0
 61 60  2  0
 62 63  1  0
 62 56  2  0
 63 58  2  0
 64 57  1  0
 65 55  1  0
 67 69  2  0
 68 67  1  0
 70 68  1  0
 71 80  2  0
 71 76  1  0
 72 68  1  0
 72 76  1  0
 73 72  1  0
 74 75  1  0
 74 73  1  0
 75 71  1  0
 76 77  2  0
 77 78  1  0
 79 78  2  0
 80 79  1  0
 81 55  1  0
 81 82  1  0
 81 91  1  0
 82 85  1  0
 83 87  1  0
 83 82  1  0
 84 83  2  0
 87 86  1  0
 89 90  1  0
 89 87  1  0
 89 88  1  0
 91 94  1  1
 91 92  1  0
 93 91  1  0
M  ISO  4   6 101  14 100  22 100  54 101
M  END
>  <TORSDO>  (40) 
F 18

>  <SCORE>  (40) 
-13.119

>  <name>  (40) 
39

>  <ligand_id>  (40) 
39

>  <original_smiles>  (40) 
[H]c1c([H])c([H])c2c(c1[H])C([H])([H])C([H])([H])C([H])([H])C2([H])N([H])C(=O)C1([H])N(C(=O)C([H])(N([H])C(=O)C([H])(N([H])C([H])([H])[H])C([H])([H])[H])C(C([H])([H])[H])(C([H])([H])[H])C([H])([H])[H])C([H])([H])c2c([H])c(Oc3c([H])c(C([H])([H])[H])c(C4([H])C([H])([H])C([H])([H])C([H])(N([H])C(=O)N5C([H])([H])C([H])([H])C([H])([H])C([H])(n6nc(-c7c([H])c([H])c(Oc8c([H])c([H])c(F)c([H])c8F)c([H])c7[H])c(C(=O)N([H])[H])c6N([H])[H])C5([H])[H])C([H])([H])C4([H])[H])c([H])c3C([H])([H])C([H])([H])[H])c([H])c([H])c2C1([H])[H]

>  <smiles>  (40) 
[H]c1c([H])c([H])c2c(c1[H])C([H])([H])C([H])([H])C([H])([H])C2([H])N([H])C(=O)C1([H])N(C(=O)C([H])(N([H])C(=O)C([H])(N([H])C([H])([H])[H])C([H])([H])[H])C(C([H])([H])[H])(C([H])([H])[H])C([H])([H])[H])C([H])([H])c2c([H])c(Oc3c([H])c(C([H])([H])[H])c(C4([H])C([H])([H])C([H])([H])C([H])(N([H])C(=O)N5C([H])([H])C([H])([H])C([H])([H])C([H])(n6nc(-c7c([H])c([H])c(Oc8c([H])c([H])c(F)c([H])c8F)c([H])c7[H])c(C(=O)N([H])[H])c6N([H])[H])C5([H])[H])C([H])([H])C4([H])[H])c([H])c3C([H])([H])C([H])([H])[H])c([H])c([H])c2C1([H])[H]

$$$$
40:0:0
     RDKit          3D

 95104  0  0  1  0  0  0  0  0999 V2000
  -30.3720  -21.7330   21.8270 C   0  0  0  0  0  2  0  0  0  0  0  0
  -28.6430  -23.3850   21.6510 C   0  0  0  0  0  2  0  0  0  0  0  0
  -30.0950  -21.6630   20.3120 C   0  0  1  0  0  0  0  0  0  0  0  0
  -29.0770  -22.1910   22.5180 C   0  0  2  0  0  0  0  0  0  0  0  0
  -29.0010  -23.1220   20.1650 C   0  0  1  0  0  0  0  0  0  0  0  0
  -31.3560  -22.0190   19.5030 C   0  0  0  0  0  1  0  0  0  0  0  0
  -29.3450  -22.6120   23.9720 C   0  0  0  0  0  1  0  0  0  0  0  0
  -27.9970  -21.0850   22.5610 C   0  0  0  0  0  1  0  0  0  0  0  0
  -27.7080  -22.6970   19.4460 C   0  0  0  0  0  1  0  0  0  0  0  0
  -30.5670  -18.6750   20.6130 C   0  0  0  0  0  3  0  0  0  0  0  0
  -29.0430  -19.5900   18.9760 C   0  0  0  0  0  3  0  0  0  0  0  0
  -30.4530  -17.2010   20.1680 C   0  0  0  0  0  0  0  0  0  0  0  0
  -29.9090  -19.9470   20.0190 C   0  0  0  0  0  0  0  0  0  0  0  0
  -28.9440  -18.2820   18.4560 C   0  0  0  0  0  0  0  0  0  0  0  0
  -29.7410  -17.1940   18.9210 C   0  0  0  0  0  0  0  0  0  0  0  0
  -27.9900  -18.0930   17.2800 C   0  0  0  0  0  1  0  0  0  0  0  0
  -30.0340  -16.1380   17.8630 C   0  0  0  0  0  1  0  0  0  0  0  0
  -31.2020  -15.7630   20.6680 C   0  0  0  0  0  0  0  0  0  0  0  0
  -31.3040  -13.2320   20.1170 C   0  0  0  0  0  2  0  0  0  0  0  0
  -30.5670  -12.7970   18.8220 C   0  0  0  0  0  2  0  0  0  0  0  0
  -29.0520  -12.6330   19.0420 C   0  0  0  0  0  2  0  0  0  0  0  0
  -28.4510  -13.7110   19.9850 C   0  0  0  0  0  3  0  0  0  0  0  0
  -29.3290  -14.0190   21.2070 C   0  0  0  0  0  2  0  0  0  0  0  0
  -30.6440  -14.4520   20.7040 N   0  0  0  0  0  0  0  0  0  0  0  0
  -32.4370  -15.7470   20.7730 O   0  0  0  0  0  0  0  0  0  0  0  0
  -26.0380  -14.3770   20.4530 C   0  0  0  0  0  0  0  0  0  0  0  0
  -24.9050  -13.6470   20.6720 C   0  0  0  0  0  0  0  0  0  0  0  0
  -25.3170  -12.2780   20.6830 C   0  0  0  0  0  0  0  0  0  0  0  0
  -27.0630  -13.4560   20.3320 N   0  0  0  0  0  0  0  0  0  0  0  0
  -26.6340  -12.1880   20.5430 N   0  0  0  0  0  0  0  0  0  0  0  0
  -24.5250  -11.0450   20.7540 C   0  0  0  0  0  0  0  0  0  0  0  0
  -24.8150  -10.0380   21.7020 C   0  0  0  0  0  3  0  0  0  0  0  0
  -24.0260   -8.8710   21.7680 C   0  0  0  0  0  3  0  0  0  0  0  0
  -22.9330   -8.7020   20.8850 C   0  0  0  0  0  0  0  0  0  0  0  0
  -22.6640   -9.6960   19.9270 C   0  0  0  0  0  3  0  0  0  0  0  0
  -23.4540  -10.8550   19.8590 C   0  0  0  0  0  3  0  0  0  0  0  0
  -22.1260   -7.5910   20.8610 O   0  0  0  0  0  0  0  0  0  0  0  0
  -21.9200   -6.8280   21.9820 C   0  0  0  0  0  0  0  0  0  0  0  0
  -21.3770   -7.3740   23.1670 C   0  0  0  0  0  3  0  0  0  0  0  0
  -21.1130   -6.5380   24.2700 C   0  0  0  0  0  3  0  0  0  0  0  0
  -21.3830   -5.1590   24.1900 C   0  0  0  0  0  0  0  0  0  0  0  0
  -21.9210   -4.6150   23.0110 C   0  0  0  0  0  3  0  0  0  0  0  0
  -22.1860   -5.4460   21.9090 C   0  0  0  0  0  0  0  0  0  0  0  0
  -22.6810   -4.9120   20.7660 F   0  0  0  0  0  0  0  0  0  0  0  0
  -21.1260   -4.3550   25.2480 F   0  0  0  0  0  0  0  0  0  0  0  0
  -23.5050  -14.1780   20.7640 C   0  0  0  0  0  0  0  0  0  0  0  0
  -22.6460  -13.5160   21.5280 N   0  0  0  0  0  0  0  0  0  0  0  0
  -23.1750  -15.2190   20.1920 O   0  0  0  0  0  0  0  0  0  0  0  0
  -22.9190  -12.6740   22.0150 H   0  0  0  0  0  0  0  0  0  0  0  0
  -21.7010  -13.8570   21.6320 H   0  0  0  0  0  0  0  0  0  0  0  0
  -26.2870  -15.7410   20.3150 N   0  0  0  0  0  0  0  0  0  0  0  0
  -25.5630  -16.4470   20.3760 H   0  0  0  0  0  0  0  0  0  0  0  0
  -27.2030  -16.1260   20.1150 H   0  0  0  0  0  0  0  0  0  0  0  0
  -29.2640  -24.7820   19.5140 C   0  0  0  0  0  2  0  0  0  0  0  0
  -29.0160  -26.3570   19.9110 O   0  0  0  0  0  0  0  0  0  0  0  0
  -24.9340  -31.7020   23.1670 C   0  0  0  0  0  0  0  0  0  0  0  0
  -27.9020  -27.3300   19.8150 C   0  0  0  0  0  0  0  0  0  0  0  0
  -23.8640  -30.3440   21.4050 C   0  0  0  0  0  3  0  0  0  0  0  0
  -25.4510  -28.9850   19.8710 C   0  0  0  0  0  0  0  0  0  0  0  0
  -26.3980  -30.7860   21.3070 C   0  0  0  0  0  2  0  0  0  0  0  0
  -26.5870  -29.4480   20.5420 C   0  0  0  0  0  0  0  0  0  0  0  0
  -27.8000  -28.6340   20.5000 C   0  0  0  0  0  3  0  0  0  0  0  0
  -26.7370  -27.0160   19.0860 C   0  0  0  0  0  3  0  0  0  0  0  0
  -25.5480  -27.7970   19.1220 C   0  0  0  0  0  3  0  0  0  0  0  0
  -24.1510  -29.7840   19.9830 C   0  0  0  0  0  2  0  0  0  0  0  0
  -25.0830  -30.9680   22.0170 N   0  0  0  0  0  0  0  0  0  0  0  0
  -23.8230  -31.8630   23.6970 O   0  0  0  0  0  0  0  0  0  0  0  0
  -23.2500  -29.2260   22.2850 C   0  0  0  0  0  0  0  0  0  0  0  0
  -21.9320  -28.9850   22.1530 N   0  0  0  0  0  0  0  0  0  0  0  0
  -23.9650  -28.5730   23.0490 O   0  0  0  0  0  0  0  0  0  0  0  0
  -21.4050  -29.5710   21.5210 H   0  0  0  0  0  0  0  0  0  0  0  0
  -18.6390  -27.5350   22.5870 C   0  0  0  0  0  0  0  0  0  0  0  0
  -21.1820  -27.9280   22.8380 C   0  0  0  0  0  3  0  0  0  0  0  0
  -21.3570  -26.5700   22.1200 C   0  0  0  0  0  2  0  0  0  0  0  0
  -20.2560  -26.2790   21.0960 C   0  0  0  0  0  2  0  0  0  0  0  0
  -18.8790  -26.2760   21.7710 C   0  0  0  0  0  2  0  0  0  0  0  0
  -19.7180  -28.3200   23.0720 C   0  0  0  0  0  0  0  0  0  0  0  0
  -19.4360  -29.4990   23.7960 C   0  0  0  0  0  3  0  0  0  0  0  0
  -18.1070  -29.8960   24.0370 C   0  0  0  0  0  3  0  0  0  0  0  0
  -17.0430  -29.1060   23.5680 C   0  0  0  0  0  3  0  0  0  0  0  0
  -17.3100  -27.9270   22.8490 C   0  0  0  0  0  3  0  0  0  0  0  0
  -26.1460  -32.3900   23.8660 C   0  0  0  0  0  3  0  0  0  0  0  0
  -25.7140  -33.7210   24.3250 N   0  0  0  0  0  0  0  0  0  0  0  0
  -25.9730  -34.8720   23.6920 C   0  0  0  0  0  0  0  0  0  0  0  0
  -26.6650  -34.9310   22.6720 O   0  0  0  0  0  0  0  0  0  0  0  0
  -25.1040  -33.7450   25.1300 H   0  0  0  0  0  0  0  0  0  0  0  0
  -24.1130  -36.5580   23.4840 C   0  0  0  0  0  1  0  0  0  0  0  0
  -25.3690  -36.1650   24.2790 C   0  0  0  0  0  3  0  0  0  0  0  0
  -27.4120  -37.1230   25.2500 C   0  0  0  0  0  1  0  0  0  0  0  0
  -26.3150  -37.3010   24.3020 N   0  0  0  0  0  0  0  0  0  0  0  0
  -25.8340  -38.1660   24.5330 H   0  0  0  0  0  0  0  0  0  0  0  0
  -26.7150  -31.5600   25.0840 C   0  0  1  0  0  0  0  0  0  0  0  0
  -25.6370  -31.1550   26.1170 C   0  0  0  0  0  1  0  0  0  0  0  0
  -27.4090  -30.2670   24.5970 C   0  0  0  0  0  1  0  0  0  0  0  0
  -27.7940  -32.3860   25.8230 C   0  0  0  0  0  1  0  0  0  0  0  0
  1  4  1  0
  2  4  1  0
  3  6  1  6
  3  1  1  0
  4  8  1  1
  4  7  1  0
  5  9  1  6
  5  3  1  0
  5  2  1  0
 11 13  1  0
 12 10  1  0
 12 18  1  0
 13  3  1  0
 13 10  2  0
 14 15  1  0
 14 11  2  0
 15 12  2  0
 16 14  1  0
 17 15  1  0
 18 24  1  0
 18 25  2  0
 19 24  1  0
 20 21  1  0
 20 19  1  0
 22 21  1  0
 22 29  1  0
 22 23  1  0
 24 23  1  0
 26 27  2  0
 27 28  1  0
 27 46  1  0
 28 31  1  0
 29 26  1  0
 29 30  1  0
 30 28  2  0
 31 32  1  0
 32 33  2  0
 34 33  1  0
 35 34  2  0
 36 35  1  0
 36 31  2  0
 37 34  1  0
 37 38  1  0
 38 39  1  0
 39 40  2  0
 41 40  1  0
 41 45  1  0
 42 41  2  0
 43 38  2  0
 43 42  1  0
 44 43  1  0
 46 47  1  0
 47 50  1  0
 47 49  1  0
 48 46  2  0
 51 52  1  0
 51 26  1  0
 53 51  1  0
 54 55  1  0
 54  5  1  0
 56 67  2  0
 57 55  1  0
 57 62  1  0
 58 66  1  0
 58 68  1  0
 59 65  1  0
 59 61  1  0
 60 66  1  0
 61 60  1  0
 62 61  2  0
 63 64  1  0
 63 57  2  0
 64 59  2  0
 65 58  1  0
 66 56  1  0
 68 70  2  0
 69 68  1  0
 71 69  1  0
 72 81  2  0
 72 77  1  0
 73 69  1  0
 73 77  1  0
 74 73  1  0
 75 76  1  0
 75 74  1  0
 76 72  1  0
 77 78  2  0
 78 79  1  0
 80 79  2  0
 81 80  1  0
 82 56  1  0
 82 83  1  0
 82 92  1  0
 83 86  1  0
 84 88  1  0
 84 83  1  0
 85 84  2  0
 88 87  1  0
 88 90  1  0
 90 91  1  0
 90 89  1  0
 92 95  1  1
 92 93  1  0
 94 92  1  0
M  ISO  4  12 100  18 100  54 101  55 101
M  END
>  <TORSDO>  (41) 
F 18

>  <SCORE>  (41) 
-9.238

>  <name>  (41) 
40

>  <ligand_id>  (41) 
40

>  <original_smiles>  (41) 
[H]c1c([H])c([H])c2c(c1[H])C([H])([H])C([H])([H])C([H])([H])C2([H])N([H])C(=O)C1([H])N(C(=O)C([H])(N([H])C(=O)C([H])(N([H])C([H])([H])[H])C([H])([H])[H])C(C([H])([H])[H])(C([H])([H])[H])C([H])([H])[H])C([H])([H])c2c([H])c(OC([H])([H])C3(C([H])([H])[H])C([H])([H])C(C([H])([H])[H])(C([H])([H])[H])C([H])([H])C3(c3c([H])c(C(=O)N4C([H])([H])C([H])([H])C([H])([H])C([H])(n5nc(-c6c([H])c([H])c(Oc7c([H])c([H])c(F)c([H])c7F)c([H])c6[H])c(C(=O)N([H])[H])c5N([H])[H])C4([H])[H])c(C([H])([H])[H])c(C([H])([H])[H])c3[H])C([H])([H])[H])c([H])c([H])c2C1([H])[H]

>  <smiles>  (41) 
[H]c1c([H])c([H])c2c(c1[H])C([H])([H])C([H])([H])C([H])([H])C2([H])N([H])C(=O)C1([H])N(C(=O)C([H])(N([H])C(=O)C([H])(N([H])C([H])([H])[H])C([H])([H])[H])C(C([H])([H])[H])(C([H])([H])[H])C([H])([H])[H])C([H])([H])c2c([H])c(OC([H])([H])C3(C([H])([H])[H])C([H])([H])C(C([H])([H])[H])(C([H])([H])[H])C([H])([H])C3(c3c([H])c(C(=O)N4C([H])([H])C([H])([H])C([H])([H])C([H])(n5nc(-c6c([H])c([H])c(Oc7c([H])c([H])c(F)c([H])c7F)c([H])c6[H])c(C(=O)N([H])[H])c5N([H])[H])C4([H])[H])c(C([H])([H])[H])c(C([H])([H])[H])c3[H])C([H])([H])[H])c([H])c([H])c2C1([H])[H]

$$$$
41:0:0
     RDKit          3D

 89 97  0  0  1  0  0  0  0  0999 V2000
  -27.7670  -21.0890   20.9910 C   0  0  0  0  0  3  0  0  0  0  0  0
  -26.9810  -22.2040   21.4090 C   0  0  0  0  0  3  0  0  0  0  0  0
  -28.8830  -21.1780   20.1370 C   0  0  0  0  0  0  0  0  0  0  0  0
  -27.1420  -23.5840   21.0590 C   0  0  0  0  0  0  0  0  0  0  0  0
  -28.9950  -22.7550   19.7430 C   0  0  0  0  0  0  0  0  0  0  0  0
  -28.1340  -24.0730   20.1530 C   0  0  0  0  0  0  0  0  0  0  0  0
  -26.2000  -24.5490   21.7570 C   0  0  0  0  0  1  0  0  0  0  0  0
  -29.9700  -22.4410   17.4180 C   0  0  0  0  0  1  0  0  0  0  0  0
  -31.5180  -22.8130   19.4080 C   0  0  0  0  0  1  0  0  0  0  0  0
  -30.1400  -23.1020   18.7950 C   0  0  0  0  0  3  0  0  0  0  0  0
  -28.1870  -25.6850   19.8980 O   0  0  0  0  0  0  0  0  0  0  0  0
  -24.6300  -31.8930   23.0690 C   0  0  0  0  0  0  0  0  0  0  0  0
  -27.1940  -26.8980   19.9410 C   0  0  0  0  0  0  0  0  0  0  0  0
  -23.4390  -30.5080   21.4230 C   0  0  0  0  0  3  0  0  0  0  0  0
  -24.8930  -28.9100   19.9570 C   0  0  0  0  0  0  0  0  0  0  0  0
  -26.0130  -30.6870   21.2710 C   0  0  0  0  0  2  0  0  0  0  0  0
  -26.0900  -29.2650   20.5910 C   0  0  0  0  0  0  0  0  0  0  0  0
  -27.2210  -28.2860   20.5580 C   0  0  0  0  0  3  0  0  0  0  0  0
  -25.9680  -26.7790   19.2340 C   0  0  0  0  0  3  0  0  0  0  0  0
  -24.8700  -27.6930   19.2570 C   0  0  0  0  0  3  0  0  0  0  0  0
  -23.6720  -29.8420   20.0350 C   0  0  0  0  0  2  0  0  0  0  0  0
  -24.7180  -31.0620   21.9730 N   0  0  0  0  0  0  0  0  0  0  0  0
  -23.5390  -32.1650   23.6010 O   0  0  0  0  0  0  0  0  0  0  0  0
  -22.7530  -29.5000   22.3850 C   0  0  0  0  0  0  0  0  0  0  0  0
  -21.4220  -29.3190   22.2710 N   0  0  0  0  0  0  0  0  0  0  0  0
  -23.4280  -28.8780   23.2080 O   0  0  0  0  0  0  0  0  0  0  0  0
  -20.9250  -29.8710   21.5860 H   0  0  0  0  0  0  0  0  0  0  0  0
  -18.0590  -28.0650   22.8440 C   0  0  0  0  0  0  0  0  0  0  0  0
  -20.6240  -28.3550   23.0370 C   0  0  0  0  0  3  0  0  0  0  0  0
  -20.7210  -26.9380   22.4220 C   0  0  0  0  0  2  0  0  0  0  0  0
  -19.5940  -26.6350   21.4290 C   0  0  0  0  0  2  0  0  0  0  0  0
  -18.2310  -26.7410   22.1170 C   0  0  0  0  0  2  0  0  0  0  0  0
  -19.1810  -28.8290   23.2620 C   0  0  0  0  0  0  0  0  0  0  0  0
  -18.9620  -30.0650   23.9090 C   0  0  0  0  0  3  0  0  0  0  0  0
  -17.6560  -30.5360   24.1380 C   0  0  0  0  0  3  0  0  0  0  0  0
  -16.5500  -29.7710   23.7300 C   0  0  0  0  0  3  0  0  0  0  0  0
  -16.7530  -28.5360   23.0890 C   0  0  0  0  0  3  0  0  0  0  0  0
  -25.8910  -32.5540   23.7020 C   0  0  0  0  0  3  0  0  0  0  0  0
  -26.4100  -31.7900   24.9860 C   0  0  1  0  0  0  0  0  0  0  0  0
  -25.3210  -31.5650   26.0610 C   0  0  0  0  0  1  0  0  0  0  0  0
  -26.9900  -30.4070   24.6150 C   0  0  0  0  0  1  0  0  0  0  0  0
  -27.5640  -32.5860   25.6390 C   0  0  0  0  0  1  0  0  0  0  0  0
  -25.5560  -33.9480   24.0530 N   0  0  0  0  0  0  0  0  0  0  0  0
  -25.8670  -35.0260   23.3210 C   0  0  0  0  0  0  0  0  0  0  0  0
  -26.5250  -34.9530   22.2810 O   0  0  0  0  0  0  0  0  0  0  0  0
  -24.9690  -34.0750   24.8650 H   0  0  0  0  0  0  0  0  0  0  0  0
  -24.1230  -36.8220   23.0290 C   0  0  0  0  0  1  0  0  0  0  0  0
  -25.3740  -36.4030   23.8180 C   0  0  0  0  0  3  0  0  0  0  0  0
  -27.5020  -37.2980   24.6590 C   0  0  0  0  0  1  0  0  0  0  0  0
  -26.3980  -37.4680   23.7190 N   0  0  0  0  0  0  0  0  0  0  0  0
  -25.9830  -38.3830   23.8830 H   0  0  0  0  0  0  0  0  0  0  0  0
  -29.7680  -19.5380   19.8440 C   0  0  0  0  0  3  0  0  0  0  0  0
  -29.5860  -17.6140   20.1700 C   0  0  0  0  0  3  0  0  0  0  0  0
  -30.4500  -15.9460   19.9320 C   0  0  0  0  0  0  0  0  0  0  0  0
  -30.5980  -13.3810   19.1370 C   0  0  0  0  0  2  0  0  0  0  0  0
  -29.6620  -12.9710   17.9600 C   0  0  0  0  0  2  0  0  0  0  0  0
  -28.2640  -12.5900   18.4680 C   0  0  0  0  0  2  0  0  0  0  0  0
  -27.7800  -13.5800   19.5500 C   0  0  0  0  0  3  0  0  0  0  0  0
  -28.8480  -13.9080   20.6190 C   0  0  0  0  0  2  0  0  0  0  0  0
  -29.9970  -14.5480   19.9330 N   0  0  0  0  0  0  0  0  0  0  0  0
  -31.6630  -15.9120   19.6430 O   0  0  0  0  0  0  0  0  0  0  0  0
  -25.4630  -14.0660   20.4690 C   0  0  0  0  0  0  0  0  0  0  0  0
  -24.4280  -13.2670   20.8640 C   0  0  0  0  0  0  0  0  0  0  0  0
  -24.9030  -11.9220   20.7570 C   0  0  0  0  0  0  0  0  0  0  0  0
  -26.4950  -13.2120   20.1290 N   0  0  0  0  0  0  0  0  0  0  0  0
  -26.1760  -11.9110   20.3700 N   0  0  0  0  0  0  0  0  0  0  0  0
  -24.1900  -10.6490   20.9390 C   0  0  0  0  0  0  0  0  0  0  0  0
  -24.6160   -9.6900   21.8850 C   0  0  0  0  0  3  0  0  0  0  0  0
  -23.8980   -8.4860   22.0580 C   0  0  0  0  0  3  0  0  0  0  0  0
  -22.7410   -8.2320   21.2850 C   0  0  0  0  0  0  0  0  0  0  0  0
  -22.3340   -9.1790   20.3290 C   0  0  0  0  0  3  0  0  0  0  0  0
  -23.0520  -10.3730   20.1550 C   0  0  0  0  0  3  0  0  0  0  0  0
  -21.9980   -7.0790   21.3650 O   0  0  0  0  0  0  0  0  0  0  0  0
  -21.8640   -6.3870   22.5430 C   0  0  0  0  0  0  0  0  0  0  0  0
  -21.2780   -6.9720   23.6870 C   0  0  0  0  0  3  0  0  0  0  0  0
  -21.0960   -6.2050   24.8550 C   0  0  0  0  0  3  0  0  0  0  0  0
  -21.4910   -4.8550   24.8800 C   0  0  0  0  0  0  0  0  0  0  0  0
  -22.0710   -4.2690   23.7410 C   0  0  0  0  0  3  0  0  0  0  0  0
  -22.2530   -5.0330   22.5750 C   0  0  0  0  0  0  0  0  0  0  0  0
  -22.7930   -4.4590   21.4730 F   0  0  0  0  0  0  0  0  0  0  0  0
  -21.3100   -4.1150   25.9990 F   0  0  0  0  0  0  0  0  0  0  0  0
  -23.0450  -13.7250   21.2240 C   0  0  0  0  0  0  0  0  0  0  0  0
  -22.3690  -13.0000   22.1060 N   0  0  0  0  0  0  0  0  0  0  0  0
  -22.5760  -14.7630   20.7560 O   0  0  0  0  0  0  0  0  0  0  0  0
  -22.7630  -12.1630   22.5090 H   0  0  0  0  0  0  0  0  0  0  0  0
  -21.4440  -13.2890   22.3870 H   0  0  0  0  0  0  0  0  0  0  0  0
  -25.6080  -15.4440   20.3400 N   0  0  0  0  0  0  0  0  0  0  0  0
  -24.8450  -16.0860   20.5270 H   0  0  0  0  0  0  0  0  0  0  0  0
  -26.4380  -15.9070   19.9910 H   0  0  0  0  0  0  0  0  0  0  0  0
  1  2  1  0
  3  1  2  0
  4  2  2  0
  4  7  1  0
  5  3  1  0
  5  6  2  0
  6  4  1  0
  8 10  1  0
 10  9  1  0
 10  5  1  0
 11 13  1  0
 11  6  1  0
 12 23  2  0
 13 18  1  0
 14 22  1  0
 14 24  1  0
 15 21  1  0
 15 17  1  0
 16 22  1  0
 17 16  1  0
 18 17  2  0
 19 20  1  0
 19 13  2  0
 20 15  2  0
 21 14  1  0
 22 12  1  0
 24 26  2  0
 25 24  1  0
 27 25  1  0
 28 37  2  0
 28 33  1  0
 29 25  1  0
 29 33  1  0
 30 29  1  0
 31 32  1  0
 31 30  1  0
 32 28  1  0
 33 34  2  0
 34 35  1  0
 36 35  2  0
 37 36  1  0
 38 12  1  0
 38 43  1  0
 38 39  1  0
 39 42  1  1
 39 40  1  0
 41 39  1  0
 43 46  1  0
 44 48  1  0
 44 43  1  0
 45 44  2  0
 48 47  1  0
 50 48  1  0
 50 51  1  0
 50 49  1  0
 52  3  1  0
 52 53  2  0
 54 60  1  0
 54 53  1  0
 55 60  1  0
 56 57  1  0
 56 55  1  0
 58 57  1  0
 58 65  1  0
 58 59  1  0
 60 59  1  0
 61 54  2  0
 62 63  2  0
 63 82  1  0
 64 63  1  0
 64 67  1  0
 65 66  1  0
 65 62  1  0
 66 64  2  0
 67 68  1  0
 68 69  2  0
 70 73  1  0
 70 69  1  0
 71 70  2  0
 72 71  1  0
 72 67  2  0
 73 74  1  0
 74 79  2  0
 74 75  1  0
 75 76  2  0
 76 77  1  0
 77 81  1  0
 78 77  2  0
 79 78  1  0
 80 79  1  0
 82 83  1  0
 83 86  1  0
 83 85  1  0
 84 82  2  0
 87 62  1  0
 87 88  1  0
 89 87  1  0
M  ISO  4   6 101  11 101  53 100  54 100
M  END
>  <TORSDO>  (42) 
F 19

>  <SCORE>  (42) 
-14.518

>  <name>  (42) 
41

>  <ligand_id>  (42) 
41

>  <original_smiles>  (42) 
[H]c1c([H])c([H])c2c(c1[H])C([H])([H])C([H])([H])C([H])([H])C2([H])N([H])C(=O)C1([H])N(C(=O)C([H])(N([H])C(=O)C([H])(N([H])C([H])([H])[H])C([H])([H])[H])C(C([H])([H])[H])(C([H])([H])[H])C([H])([H])[H])C([H])([H])c2c([H])c(Oc3c(C([H])([H])[H])c([H])c([H])c(C([H])([H])C([H])([H])C(=O)N4C([H])([H])C([H])([H])C([H])([H])C([H])(n5nc(-c6c([H])c([H])c(Oc7c([H])c([H])c(F)c([H])c7F)c([H])c6[H])c(C(=O)N([H])[H])c5N([H])[H])C4([H])[H])c3C([H])(C([H])([H])[H])C([H])([H])[H])c([H])c([H])c2C1([H])[H]

>  <smiles>  (42) 
[H]c1c([H])c([H])c2c(c1[H])C([H])([H])C([H])([H])C([H])([H])C2([H])N([H])C(=O)C1([H])N(C(=O)C([H])(N([H])C(=O)C([H])(N([H])C([H])([H])[H])C([H])([H])[H])C(C([H])([H])[H])(C([H])([H])[H])C([H])([H])[H])C([H])([H])c2c([H])c(Oc3c(C([H])([H])[H])c([H])c([H])c(C([H])([H])C([H])([H])C(=O)N4C([H])([H])C([H])([H])C([H])([H])C([H])(n5nc(-c6c([H])c([H])c(Oc7c([H])c([H])c(F)c([H])c7F)c([H])c6[H])c(C(=O)N([H])[H])c5N([H])[H])C4([H])[H])c3C([H])(C([H])([H])[H])C([H])([H])[H])c([H])c([H])c2C1([H])[H]

$$$$
42:0:0
     RDKit          3D

 92100  0  0  1  0  0  0  0  0999 V2000
  -26.4820  -25.6480   21.6910 C   0  0  0  0  0  3  0  0  0  0  0  0
  -26.8980  -22.9960   21.0870 C   0  0  0  0  0  3  0  0  0  0  0  0
  -25.5640  -24.6900   22.1480 C   0  0  0  0  0  0  0  0  0  0  0  0
  -27.8900  -23.9050   20.6270 C   0  0  0  0  0  0  0  0  0  0  0  0
  -25.7530  -23.3500   21.8040 C   0  0  0  0  0  0  0  0  0  0  0  0
  -27.6200  -25.4040   20.8480 C   0  0  0  0  0  0  0  0  0  0  0  0
  -24.3850  -25.1200   23.0110 C   0  0  0  0  0  1  0  0  0  0  0  0
  -23.6760  -22.2840   21.4880 C   0  0  0  0  0  1  0  0  0  0  0  0
  -24.8920  -22.3700   22.2270 O   0  0  0  0  0  0  0  0  0  0  0  0
  -28.2060  -26.7080   20.4300 O   0  0  0  0  0  0  0  0  0  0  0  0
  -24.8360  -32.2850   23.8590 C   0  0  0  0  0  0  0  0  0  0  0  0
  -27.3460  -27.8740   20.3480 C   0  0  0  0  0  0  0  0  0  0  0  0
  -23.6470  -31.1170   22.0480 C   0  0  0  0  0  3  0  0  0  0  0  0
  -25.0920  -29.6990   20.4570 C   0  0  0  0  0  0  0  0  0  0  0  0
  -26.2100  -31.3260   21.9710 C   0  0  0  0  0  2  0  0  0  0  0  0
  -26.2630  -30.0190   21.1610 C   0  0  0  0  0  0  0  0  0  0  0  0
  -27.3910  -29.1130   21.1090 C   0  0  0  0  0  3  0  0  0  0  0  0
  -26.1880  -27.7050   19.5620 C   0  0  0  0  0  3  0  0  0  0  0  0
  -25.0730  -28.5610   19.6360 C   0  0  0  0  0  3  0  0  0  0  0  0
  -23.8840  -30.6150   20.5970 C   0  0  0  0  0  2  0  0  0  0  0  0
  -24.9160  -31.5960   22.6820 N   0  0  0  0  0  0  0  0  0  0  0  0
  -23.7440  -32.5320   24.3960 O   0  0  0  0  0  0  0  0  0  0  0  0
  -22.9300  -30.0140   22.8690 C   0  0  0  0  0  0  0  0  0  0  0  0
  -21.6160  -29.8380   22.6410 N   0  0  0  0  0  0  0  0  0  0  0  0
  -23.5600  -29.3310   23.6820 O   0  0  0  0  0  0  0  0  0  0  0  0
  -21.1650  -30.4490   21.9740 H   0  0  0  0  0  0  0  0  0  0  0  0
  -18.2270  -28.5740   22.8390 C   0  0  0  0  0  0  0  0  0  0  0  0
  -20.7650  -28.8250   23.2760 C   0  0  0  0  0  3  0  0  0  0  0  0
  -20.9160  -27.4570   22.5720 C   0  0  0  0  0  2  0  0  0  0  0  0
  -19.8760  -27.2260   21.4740 C   0  0  0  0  0  2  0  0  0  0  0  0
  -18.4590  -27.2990   22.0480 C   0  0  0  0  0  2  0  0  0  0  0  0
  -19.3100  -29.2990   23.4010 C   0  0  0  0  0  0  0  0  0  0  0  0
  -19.0410  -30.4970   24.0990 C   0  0  0  0  0  3  0  0  0  0  0  0
  -17.7220  -30.9670   24.2430 C   0  0  0  0  0  3  0  0  0  0  0  0
  -16.6520  -30.2400   23.6950 C   0  0  0  0  0  3  0  0  0  0  0  0
  -16.9070  -29.0430   23.0020 C   0  0  0  0  0  3  0  0  0  0  0  0
  -26.1140  -32.8160   24.5810 C   0  0  0  0  0  3  0  0  0  0  0  0
  -25.8510  -34.2020   25.0000 N   0  0  0  0  0  0  0  0  0  0  0  0
  -26.2300  -35.2930   24.3210 C   0  0  0  0  0  0  0  0  0  0  0  0
  -26.9130  -35.2340   23.2950 O   0  0  0  0  0  0  0  0  0  0  0  0
  -25.2590  -34.3170   25.8110 H   0  0  0  0  0  0  0  0  0  0  0  0
  -24.5640  -37.1660   24.0720 C   0  0  0  0  0  1  0  0  0  0  0  0
  -25.7840  -36.6670   24.8640 C   0  0  0  0  0  3  0  0  0  0  0  0
  -27.9430  -37.4230   25.7620 C   0  0  0  0  0  1  0  0  0  0  0  0
  -26.8520  -37.6910   24.8270 N   0  0  0  0  0  0  0  0  0  0  0  0
  -26.4760  -38.6110   25.0360 H   0  0  0  0  0  0  0  0  0  0  0  0
  -26.5300  -31.9380   25.8240 C   0  0  1  0  0  0  0  0  0  0  0  0
  -25.3700  -31.6740   26.8110 C   0  0  0  0  0  1  0  0  0  0  0  0
  -27.0820  -30.5640   25.3770 C   0  0  0  0  0  1  0  0  0  0  0  0
  -27.6670  -32.6380   26.6010 C   0  0  0  0  0  1  0  0  0  0  0  0
  -29.0350  -22.9540   19.9370 C   0  0  0  0  0  2  0  0  0  0  0  0
  -29.5920  -21.4630   20.5840 C   0  0  0  0  0  2  0  0  0  0  0  0
  -29.4340  -19.8490   20.0740 C   0  0  0  0  0  2  0  0  0  0  0  0
  -30.4440  -18.5610   20.5470 C   0  0  0  0  0  2  0  0  0  0  0  0
  -30.9550  -15.8240   20.4450 C   0  0  0  0  0  0  0  0  0  0  0  0
  -30.9700  -13.4170   19.6370 C   0  0  0  0  0  2  0  0  0  0  0  0
  -30.1210  -13.2550   18.3560 C   0  0  0  0  0  2  0  0  0  0  0  0
  -28.6380  -13.0280   18.7140 C   0  0  0  0  0  2  0  0  0  0  0  0
  -28.1350  -14.0190   19.7960 C   0  0  0  0  0  3  0  0  0  0  0  0
  -29.1080  -14.1250   20.9860 C   0  0  0  0  0  2  0  0  0  0  0  0
  -30.3990  -14.5480   20.4260 N   0  0  0  0  0  0  0  0  0  0  0  0
  -32.1770  -15.8990   20.2510 O   0  0  0  0  0  0  0  0  0  0  0  0
  -30.1360  -17.0010   20.4890 N   0  0  0  0  0  0  0  0  0  0  0  0
  -29.1580  -16.7840   20.6170 H   0  0  0  0  0  0  0  0  0  0  0  0
  -25.7310  -14.6090   20.4390 C   0  0  0  0  0  0  0  0  0  0  0  0
  -24.6460  -13.8400   20.7520 C   0  0  0  0  0  0  0  0  0  0  0  0
  -25.1020  -12.4870   20.7250 C   0  0  0  0  0  0  0  0  0  0  0  0
  -26.7760  -13.7270   20.2280 N   0  0  0  0  0  0  0  0  0  0  0  0
  -26.4060  -12.4440   20.4710 N   0  0  0  0  0  0  0  0  0  0  0  0
  -24.3580  -11.2270   20.8690 C   0  0  0  0  0  0  0  0  0  0  0  0
  -24.7010  -10.2710   21.8510 C   0  0  0  0  0  3  0  0  0  0  0  0
  -23.9570   -9.0770   21.9810 C   0  0  0  0  0  3  0  0  0  0  0  0
  -22.8550   -8.8320   21.1270 C   0  0  0  0  0  0  0  0  0  0  0  0
  -22.5320   -9.7750   20.1360 C   0  0  0  0  0  3  0  0  0  0  0  0
  -23.2770  -10.9590   20.0030 C   0  0  0  0  0  3  0  0  0  0  0  0
  -22.0910   -7.6900   21.1630 O   0  0  0  0  0  0  0  0  0  0  0  0
  -21.8810   -7.0060   22.3330 C   0  0  0  0  0  0  0  0  0  0  0  0
  -21.2940   -7.6180   23.4630 C   0  0  0  0  0  3  0  0  0  0  0  0
  -21.0290   -6.8560   24.6200 C   0  0  0  0  0  3  0  0  0  0  0  0
  -21.3470   -5.4830   24.6460 C   0  0  0  0  0  0  0  0  0  0  0  0
  -21.9250   -4.8720   23.5190 C   0  0  0  0  0  3  0  0  0  0  0  0
  -22.1910   -5.6320   22.3670 C   0  0  0  0  0  0  0  0  0  0  0  0
  -22.7290   -5.0340   21.2780 F   0  0  0  0  0  0  0  0  0  0  0  0
  -21.0860   -4.7490   25.7520 F   0  0  0  0  0  0  0  0  0  0  0  0
  -23.2410  -14.3270   20.9620 C   0  0  0  0  0  0  0  0  0  0  0  0
  -22.4740  -13.6360   21.7990 N   0  0  0  0  0  0  0  0  0  0  0  0
  -22.8350  -15.3550   20.4220 O   0  0  0  0  0  0  0  0  0  0  0  0
  -22.8170  -12.8080   22.2610 H   0  0  0  0  0  0  0  0  0  0  0  0
  -21.5260  -13.9380   21.9790 H   0  0  0  0  0  0  0  0  0  0  0  0
  -25.9150  -15.9790   20.2830 N   0  0  0  0  0  0  0  0  0  0  0  0
  -25.1450  -16.6340   20.3740 H   0  0  0  0  0  0  0  0  0  0  0  0
  -26.7750  -16.4170   19.9850 H   0  0  0  0  0  0  0  0  0  0  0  0
  1  3  1  0
  2  5  1  0
  3  7  1  0
  4  6  1  0
  4  2  2  0
  5  3  2  0
  5  9  1  0
  6  1  2  0
  8  9  1  0
 10  6  1  0
 11 22  2  0
 12 10  1  0
 12 17  1  0
 13 21  1  0
 13 23  1  0
 14 20  1  0
 14 16  1  0
 15 21  1  0
 16 15  1  0
 17 16  2  0
 18 19  1  0
 18 12  2  0
 19 14  2  0
 20 13  1  0
 21 11  1  0
 23 25  2  0
 24 23  1  0
 26 24  1  0
 27 36  2  0
 27 32  1  0
 28 24  1  0
 28 32  1  0
 29 28  1  0
 30 31  1  0
 30 29  1  0
 31 27  1  0
 32 33  2  0
 33 34  1  0
 35 34  2  0
 36 35  1  0
 37 11  1  0
 37 38  1  0
 37 47  1  0
 38 41  1  0
 39 43  1  0
 39 38  1  0
 40 39  2  0
 43 42  1  0
 45 43  1  0
 45 46  1  0
 45 44  1  0
 47 50  1  1
 47 48  1  0
 49 47  1  0
 51 52  1  0
 51  4  1  0
 53 54  1  0
 53 52  1  0
 55 63  1  0
 56 61  1  0
 57 58  1  0
 57 56  1  0
 59 58  1  0
 59 68  1  0
 59 60  1  0
 61 55  1  0
 61 60  1  0
 62 55  2  0
 63 54  1  0
 63 64  1  0
 65 66  2  0
 66 85  1  0
 67 66  1  0
 67 70  1  0
 68 65  1  0
 68 69  1  0
 69 67  2  0
 70 71  1  0
 71 72  2  0
 73 76  1  0
 73 72  1  0
 74 73  2  0
 75 74  1  0
 75 70  2  0
 76 77  1  0
 77 82  2  0
 77 78  1  0
 78 79  2  0
 79 80  1  0
 80 84  1  0
 81 80  2  0
 82 81  1  0
 83 82  1  0
 85 86  1  0
 86 89  1  0
 86 88  1  0
 87 85  2  0
 90 91  1  0
 90 65  1  0
 92 90  1  0
M  ISO  4   6 101  10 101  55 100  63 100
M  END
>  <TORSDO>  (43) 
F 21

>  <SCORE>  (43) 
-7.566

>  <name>  (43) 
42

>  <ligand_id>  (43) 
42

>  <original_smiles>  (43) 
[H]c1c([H])c([H])c2c(c1[H])C([H])([H])C([H])([H])C([H])([H])C2([H])N([H])C(=O)C1([H])N(C(=O)C([H])(N([H])C(=O)C([H])(N([H])C([H])([H])[H])C([H])([H])[H])C(C([H])([H])[H])(C([H])([H])[H])C([H])([H])[H])C([H])([H])c2c([H])c(Oc3c([H])c(C([H])([H])[H])c(OC([H])([H])[H])c([H])c3C([H])([H])C([H])([H])C([H])([H])C([H])([H])N([H])C(=O)N3C([H])([H])C([H])([H])C([H])([H])C([H])(n4nc(-c5c([H])c([H])c(Oc6c([H])c([H])c(F)c([H])c6F)c([H])c5[H])c(C(=O)N([H])[H])c4N([H])[H])C3([H])[H])c([H])c([H])c2C1([H])[H]

>  <smiles>  (43) 
[H]c1c([H])c([H])c2c(c1[H])C([H])([H])C([H])([H])C([H])([H])C2([H])N([H])C(=O)C1([H])N(C(=O)C([H])(N([H])C(=O)C([H])(N([H])C([H])([H])[H])C([H])([H])[H])C(C([H])([H])[H])(C([H])([H])[H])C([H])([H])[H])C([H])([H])c2c([H])c(Oc3c([H])c(C([H])([H])[H])c(OC([H])([H])[H])c([H])c3C([H])([H])C([H])([H])C([H])([H])C([H])([H])N([H])C(=O)N3C([H])([H])C([H])([H])C([H])([H])C([H])(n4nc(-c5c([H])c([H])c(Oc6c([H])c([H])c(F)c([H])c6F)c([H])c5[H])c(C(=O)N([H])[H])c4N([H])[H])C3([H])[H])c([H])c([H])c2C1([H])[H]

$$$$
43:0:0
     RDKit          3D

 93101  0  0  1  0  0  0  0  0999 V2000
  -29.1240  -22.4770   19.7470 C   0  0  0  0  0  3  0  0  0  0  0  0
  -27.6200  -20.8710   18.8000 C   0  0  0  0  0  3  0  0  0  0  0  0
  -27.0360  -23.3740   19.0250 C   0  0  0  0  0  3  0  0  0  0  0  0
  -28.9210  -20.8940   19.3570 C   0  0  0  0  0  0  0  0  0  0  0  0
  -28.2320  -23.8490   19.6270 C   0  0  0  0  0  0  0  0  0  0  0  0
  -26.7390  -22.0120   18.6510 C   0  0  0  0  0  0  0  0  0  0  0  0
  -25.0750  -20.5900   17.6160 C   0  0  0  0  0  1  0  0  0  0  0  0
  -25.4790  -21.8680   18.0990 O   0  0  0  0  0  0  0  0  0  0  0  0
  -28.3060  -25.4680   20.0000 O   0  0  0  0  0  0  0  0  0  0  0  0
  -24.7580  -31.7480   23.2220 C   0  0  0  0  0  0  0  0  0  0  0  0
  -27.3390  -26.7280   20.0400 C   0  0  0  0  0  0  0  0  0  0  0  0
  -23.6030  -30.4240   21.5060 C   0  0  0  0  0  3  0  0  0  0  0  0
  -25.0800  -28.8320   20.0420 C   0  0  0  0  0  0  0  0  0  0  0  0
  -26.1860  -30.5500   21.4380 C   0  0  0  0  0  2  0  0  0  0  0  0
  -26.2640  -29.1340   20.7240 C   0  0  0  0  0  0  0  0  0  0  0  0
  -27.3720  -28.1140   20.6930 C   0  0  0  0  0  3  0  0  0  0  0  0
  -26.1280  -26.6810   19.2970 C   0  0  0  0  0  3  0  0  0  0  0  0
  -25.0580  -27.6330   19.3050 C   0  0  0  0  0  3  0  0  0  0  0  0
  -23.8730  -29.7880   20.1090 C   0  0  0  0  0  2  0  0  0  0  0  0
  -24.8740  -30.9420   22.1090 N   0  0  0  0  0  0  0  0  0  0  0  0
  -23.6550  -32.0200   23.7280 O   0  0  0  0  0  0  0  0  0  0  0  0
  -22.8720  -29.4020   22.4180 C   0  0  0  0  0  0  0  0  0  0  0  0
  -21.5410  -29.2520   22.2700 N   0  0  0  0  0  0  0  0  0  0  0  0
  -23.5170  -28.7430   23.2380 O   0  0  0  0  0  0  0  0  0  0  0  0
  -21.0690  -29.8410   21.5980 H   0  0  0  0  0  0  0  0  0  0  0  0
  -18.1430  -28.0420   22.7350 C   0  0  0  0  0  0  0  0  0  0  0  0
  -20.7090  -28.2760   22.9850 C   0  0  0  0  0  3  0  0  0  0  0  0
  -20.7890  -26.8820   22.3200 C   0  0  0  0  0  2  0  0  0  0  0  0
  -19.6750  -26.6350   21.2960 C   0  0  0  0  0  2  0  0  0  0  0  0
  -18.3010  -26.7440   21.9610 C   0  0  0  0  0  2  0  0  0  0  0  0
  -19.2720  -28.7690   23.2020 C   0  0  0  0  0  0  0  0  0  0  0  0
  -19.0630  -29.9820   23.8930 C   0  0  0  0  0  3  0  0  0  0  0  0
  -17.7610  -30.4710   24.1150 C   0  0  0  0  0  3  0  0  0  0  0  0
  -16.6490  -29.7440   23.6570 C   0  0  0  0  0  3  0  0  0  0  0  0
  -16.8400  -28.5290   22.9740 C   0  0  0  0  0  3  0  0  0  0  0  0
  -26.0030  -32.3790   23.9170 C   0  0  0  0  0  3  0  0  0  0  0  0
  -25.6760  -33.7740   24.2810 N   0  0  0  0  0  0  0  0  0  0  0  0
  -25.9890  -34.8550   23.5550 C   0  0  0  0  0  0  0  0  0  0  0  0
  -26.6380  -34.7850   22.5100 O   0  0  0  0  0  0  0  0  0  0  0  0
  -25.0960  -33.9010   25.0970 H   0  0  0  0  0  0  0  0  0  0  0  0
  -24.2240  -36.6430   23.3300 C   0  0  0  0  0  1  0  0  0  0  0  0
  -25.5100  -36.2320   24.0660 C   0  0  0  0  0  3  0  0  0  0  0  0
  -27.6680  -37.1380   24.8130 C   0  0  0  0  0  1  0  0  0  0  0  0
  -26.5200  -37.3030   23.9250 N   0  0  0  0  0  0  0  0  0  0  0  0
  -26.1070  -38.2130   24.1080 H   0  0  0  0  0  0  0  0  0  0  0  0
  -26.4560  -31.5890   25.2080 C   0  0  1  0  0  0  0  0  0  0  0  0
  -25.3130  -31.3400   26.2220 C   0  0  0  0  0  1  0  0  0  0  0  0
  -27.0580  -30.2160   24.8360 C   0  0  0  0  0  1  0  0  0  0  0  0
  -27.5740  -32.3720   25.9370 C   0  0  0  0  0  1  0  0  0  0  0  0
  -29.8800  -19.2270   19.3580 C   0  0  0  0  0  0  0  0  0  0  0  0
  -30.5100  -16.0360   19.8330 C   0  0  0  0  0  0  0  0  0  0  0  0
  -30.7000  -13.3810   19.3260 C   0  0  0  0  0  2  0  0  0  0  0  0
  -29.8540  -12.7560   18.1740 C   0  0  0  0  0  2  0  0  0  0  0  0
  -28.4440  -12.4010   18.6590 C   0  0  0  0  0  2  0  0  0  0  0  0
  -27.8780  -13.5140   19.5650 C   0  0  0  0  0  3  0  0  0  0  0  0
  -28.8700  -14.0340   20.6370 C   0  0  0  0  0  2  0  0  0  0  0  0
  -30.0210  -14.6380   19.9190 N   0  0  0  0  0  0  0  0  0  0  0  0
  -31.7450  -15.9370   19.6690 O   0  0  0  0  0  0  0  0  0  0  0  0
  -29.7490  -17.4390   19.7550 N   0  0  0  0  0  4  0  0  0  0  0  0
  -28.7780  -17.2430   19.9490 H   0  0  0  0  0  0  0  0  0  0  0  0
  -25.5540  -14.0950   20.3850 C   0  0  0  0  0  0  0  0  0  0  0  0
  -24.4790  -13.3410   20.7560 C   0  0  0  0  0  0  0  0  0  0  0  0
  -24.9060  -11.9790   20.6900 C   0  0  0  0  0  0  0  0  0  0  0  0
  -26.5660  -13.1980   20.1050 N   0  0  0  0  0  0  0  0  0  0  0  0
  -26.1920  -11.9140   20.3530 N   0  0  0  0  0  0  0  0  0  0  0  0
  -24.1400  -10.7350   20.8650 C   0  0  0  0  0  0  0  0  0  0  0  0
  -24.5330   -9.7470   21.7950 C   0  0  0  0  0  3  0  0  0  0  0  0
  -23.7650   -8.5740   21.9610 C   0  0  0  0  0  3  0  0  0  0  0  0
  -22.5900   -8.3790   21.1960 C   0  0  0  0  0  0  0  0  0  0  0  0
  -22.2150   -9.3540   20.2540 C   0  0  0  0  0  3  0  0  0  0  0  0
  -22.9840  -10.5190   20.0870 C   0  0  0  0  0  3  0  0  0  0  0  0
  -21.7960   -7.2610   21.2710 O   0  0  0  0  0  0  0  0  0  0  0  0
  -21.6690   -6.5460   22.4350 C   0  0  0  0  0  0  0  0  0  0  0  0
  -21.2020   -7.1400   23.6280 C   0  0  0  0  0  3  0  0  0  0  0  0
  -21.0210   -6.3520   24.7810 C   0  0  0  0  0  3  0  0  0  0  0  0
  -21.3010   -4.9730   24.7450 C   0  0  0  0  0  0  0  0  0  0  0  0
  -21.7600   -4.3780   23.5560 C   0  0  0  0  0  3  0  0  0  0  0  0
  -21.9430   -5.1640   22.4040 C   0  0  0  0  0  0  0  0  0  0  0  0
  -22.3660   -4.5830   21.2560 F   0  0  0  0  0  0  0  0  0  0  0  0
  -21.1200   -4.2140   25.8500 F   0  0  0  0  0  0  0  0  0  0  0  0
  -23.1020  -13.8560   21.0520 C   0  0  0  0  0  0  0  0  0  0  0  0
  -22.3770  -13.1890   21.9410 N   0  0  0  0  0  0  0  0  0  0  0  0
  -22.6830  -14.8890   20.5310 O   0  0  0  0  0  0  0  0  0  0  0  0
  -22.7340  -12.3520   22.3790 H   0  0  0  0  0  0  0  0  0  0  0  0
  -21.4550  -13.5150   22.1900 H   0  0  0  0  0  0  0  0  0  0  0  0
  -25.7530  -15.4640   20.2260 N   0  0  0  0  0  0  0  0  0  0  0  0
  -24.9960  -16.1300   20.3330 H   0  0  0  0  0  0  0  0  0  0  0  0
  -26.5980  -15.8740   19.8470 H   0  0  0  0  0  0  0  0  0  0  0  0
  -31.3640  -19.5780   19.5350 C   0  0  0  0  0  2  0  0  0  0  0  0
  -31.8050  -19.8350   20.9830 C   0  0  0  0  0  2  0  0  0  0  0  0
  -33.3170  -20.1080   21.0610 C   0  0  0  0  0  2  0  0  0  0  0  0
  -35.3240  -20.6470   22.5420 C   0  0  0  0  0  1  0  0  0  0  0  0
  -33.8140  -20.3820   22.4880 C   0  0  0  0  0  2  0  0  0  0  0  0
  2  4  1  0
  3  5  2  0
  4 50  1  0
  4  1  2  0
  5  1  1  0
  5  9  1  0
  6  2  2  0
  6  3  1  0
  7  8  1  0
  8  6  1  0
  9 11  1  0
 10 21  2  0
 11 16  1  0
 12 20  1  0
 12 22  1  0
 13 19  1  0
 13 15  1  0
 14 20  1  0
 15 14  1  0
 16 15  2  0
 17 18  1  0
 17 11  2  0
 18 13  2  0
 19 12  1  0
 20 10  1  0
 22 24  2  0
 23 22  1  0
 25 23  1  0
 26 35  2  0
 26 31  1  0
 27 23  1  0
 27 31  1  0
 28 27  1  0
 29 30  1  0
 29 28  1  0
 30 26  1  0
 31 32  2  0
 32 33  1  0
 34 33  2  0
 35 34  1  0
 36 10  1  0
 36 37  1  0
 36 46  1  0
 37 40  1  0
 38 42  1  0
 38 37  1  0
 39 38  2  0
 42 41  1  0
 44 42  1  0
 44 45  1  0
 44 43  1  0
 46 49  1  1
 46 47  1  0
 48 46  1  0
 50 89  1  0
 50 59  2  0
 51 57  1  0
 52 57  1  0
 53 54  1  0
 53 52  1  0
 55 54  1  0
 55 64  1  0
 55 56  1  0
 57 56  1  0
 58 51  2  0
 59 51  1  0
 59 60  1  0
 61 62  2  0
 62 81  1  0
 63 62  1  0
 63 66  1  0
 64 65  1  0
 64 61  1  0
 65 63  2  0
 66 67  1  0
 67 68  2  0
 69 72  1  0
 69 68  1  0
 70 69  2  0
 71 70  1  0
 71 66  2  0
 72 73  1  0
 73 74  1  0
 74 75  2  0
 76 75  1  0
 76 80  1  0
 77 76  2  0
 78 73  2  0
 78 77  1  0
 79 78  1  0
 81 82  1  0
 82 85  1  0
 82 84  1  0
 83 81  2  0
 86 87  1  0
 86 61  1  0
 88 86  1  0
 89 90  1  0
 90 91  1  0
 91 93  1  0
 93 92  1  0
M  ISO  4   5 101   9 101  51 100  59 100
M  END
>  <TORSDO>  (44) 
F 22

>  <SCORE>  (44) 
-14.793

>  <name>  (44) 
43

>  <ligand_id>  (44) 
43

>  <original_smiles>  (44) 
[H]c1c([H])c([H])c2c(c1[H])C([H])([H])C([H])([H])C([H])([H])C2([H])N([H])C(=O)C1([H])N(C(=O)C([H])(N([H])C(=O)C([H])(N([H])C([H])([H])[H])C([H])([H])[H])C(C([H])([H])[H])(C([H])([H])[H])C([H])([H])[H])C([H])([H])c2c([H])c(Oc3c([H])c(OC([H])([H])[H])c([H])c(C([H])(N([H])C(=O)N4C([H])([H])C([H])([H])C([H])([H])C([H])(n5nc(-c6c([H])c([H])c(Oc7c([H])c([H])c(F)c([H])c7F)c([H])c6[H])c(C(=O)N([H])[H])c5N([H])[H])C4([H])[H])C([H])([H])C([H])([H])C([H])([H])C([H])([H])C([H])([H])[H])c3[H])c([H])c([H])c2C1([H])[H]

>  <smiles>  (44) 
[H]c1c([H])c([H])c2c(c1[H])C([H])([H])C([H])([H])C([H])([H])C2([H])N([H])C(=O)C1([H])N(C(=O)C([H])(N([H])C(=O)C([H])(N([H])C([H])([H])[H])C([H])([H])[H])C(C([H])([H])[H])(C([H])([H])[H])C([H])([H])[H])C([H])([H])c2c([H])c(Oc3c([H])c(OC([H])([H])[H])c([H])c(C([H])(N([H])C(=O)N4C([H])([H])C([H])([H])C([H])([H])C([H])(n5nc(-c6c([H])c([H])c(Oc7c([H])c([H])c(F)c([H])c7F)c([H])c6[H])c(C(=O)N([H])[H])c5N([H])[H])C4([H])[H])C([H])([H])C([H])([H])C([H])([H])C([H])([H])C([H])([H])[H])c3[H])c([H])c([H])c2C1([H])[H]

$$$$
44:0:0
     RDKit          3D

 91 99  0  0  1  0  0  0  0  0999 V2000
  -29.6030  -21.9150   18.8330 C   0  0  0  0  0  3  0  0  0  0  0  0
  -29.6310  -20.9250   19.9310 C   0  0  0  0  0  0  0  0  0  0  0  0
  -29.2290  -23.3800   18.7870 C   0  0  0  0  0  0  0  0  0  0  0  0
  -29.1430  -21.8040   21.0330 C   0  0  0  0  0  0  0  0  0  0  0  0
  -28.7950  -23.3120   21.0060 C   0  0  0  0  0  0  0  0  0  0  0  0
  -28.7710  -24.2760   19.8680 C   0  0  0  0  0  0  0  0  0  0  0  0
  -29.3720  -24.0590   17.4360 C   0  0  0  0  0  1  0  0  0  0  0  0
  -28.9670  -21.0510   22.3440 C   0  0  0  0  0  1  0  0  0  0  0  0
  -29.6350  -24.2740   23.0480 C   0  0  0  0  0  1  0  0  0  0  0  0
  -28.4820  -23.9510   22.2150 N   0  0  0  0  0  0  0  0  0  0  0  0
  -27.8980  -24.7690   22.0540 H   0  0  0  0  0  0  0  0  0  0  0  0
  -28.6400  -25.8680   19.7970 O   0  0  0  0  0  0  0  0  0  0  0  0
  -24.8020  -31.7130   23.0200 C   0  0  0  0  0  0  0  0  0  0  0  0
  -27.5720  -26.9670   19.8080 C   0  0  0  0  0  0  0  0  0  0  0  0
  -23.6980  -30.3860   21.2660 C   0  0  0  0  0  3  0  0  0  0  0  0
  -25.2320  -28.8780   19.8000 C   0  0  0  0  0  0  0  0  0  0  0  0
  -26.2680  -30.6310   21.2220 C   0  0  0  0  0  2  0  0  0  0  0  0
  -26.3930  -29.2490   20.4890 C   0  0  0  0  0  0  0  0  0  0  0  0
  -27.5480  -28.3200   20.4650 C   0  0  0  0  0  3  0  0  0  0  0  0
  -26.3770  -26.7860   19.0730 C   0  0  0  0  0  3  0  0  0  0  0  0
  -25.2580  -27.6730   19.0730 C   0  0  0  0  0  3  0  0  0  0  0  0
  -23.9930  -29.7810   19.8620 C   0  0  0  0  0  2  0  0  0  0  0  0
  -24.9430  -30.9390   21.8910 N   0  0  0  0  0  0  0  0  0  0  0  0
  -23.6890  -31.9470   23.5190 O   0  0  0  0  0  0  0  0  0  0  0  0
  -22.9910  -29.3270   22.1540 C   0  0  0  0  0  0  0  0  0  0  0  0
  -21.6520  -29.2240   22.0650 N   0  0  0  0  0  0  0  0  0  0  0  0
  -23.6580  -28.5990   22.8930 O   0  0  0  0  0  0  0  0  0  0  0  0
  -21.1640  -29.8610   21.4500 H   0  0  0  0  0  0  0  0  0  0  0  0
  -18.2400  -28.1180   22.6420 C   0  0  0  0  0  0  0  0  0  0  0  0
  -20.8230  -28.2360   22.7660 C   0  0  0  0  0  3  0  0  0  0  0  0
  -20.8120  -26.8860   22.0130 C   0  0  0  0  0  2  0  0  0  0  0  0
  -19.6370  -26.7470   21.0390 C   0  0  0  0  0  2  0  0  0  0  0  0
  -18.3070  -26.8640   21.7850 C   0  0  0  0  0  2  0  0  0  0  0  0
  -19.4210  -28.7710   23.0880 C   0  0  0  0  0  0  0  0  0  0  0  0
  -19.3000  -29.9480   23.8580 C   0  0  0  0  0  3  0  0  0  0  0  0
  -18.0350  -30.4740   24.1790 C   0  0  0  0  0  3  0  0  0  0  0  0
  -16.8700  -29.8170   23.7430 C   0  0  0  0  0  3  0  0  0  0  0  0
  -16.9740  -28.6390   22.9820 C   0  0  0  0  0  3  0  0  0  0  0  0
  -26.0310  -32.3540   23.7340 C   0  0  0  0  0  3  0  0  0  0  0  0
  -26.5110  -31.5330   24.9960 C   0  0  1  0  0  0  0  0  0  0  0  0
  -25.3840  -31.2360   26.0130 C   0  0  0  0  0  1  0  0  0  0  0  0
  -27.1290  -30.1800   24.5770 C   0  0  0  0  0  1  0  0  0  0  0  0
  -27.6260  -32.3110   25.7340 C   0  0  0  0  0  1  0  0  0  0  0  0
  -25.6620  -33.7240   24.1390 N   0  0  0  0  0  0  0  0  0  0  0  0
  -25.9640  -34.8370   23.4570 C   0  0  0  0  0  0  0  0  0  0  0  0
  -26.6420  -34.8210   22.4260 O   0  0  0  0  0  0  0  0  0  0  0  0
  -25.0580  -33.8060   24.9440 H   0  0  0  0  0  0  0  0  0  0  0  0
  -24.1650  -36.5860   23.2350 C   0  0  0  0  0  1  0  0  0  0  0  0
  -25.4340  -36.1800   24.0020 C   0  0  0  0  0  3  0  0  0  0  0  0
  -27.5390  -37.1090   24.8630 C   0  0  0  0  0  1  0  0  0  0  0  0
  -26.4250  -37.2790   23.9340 N   0  0  0  0  0  0  0  0  0  0  0  0
  -25.9830  -38.1730   24.1290 H   0  0  0  0  0  0  0  0  0  0  0  0
  -30.2420  -19.1890   19.7450 C   0  0  0  0  0  2  0  0  0  0  0  0
  -30.3410  -17.5640   21.9350 C   0  0  0  0  0  1  0  0  0  0  0  0
  -30.1680  -17.4160   20.4130 C   0  0  0  0  0  3  0  0  0  0  0  0
  -30.9370  -15.7810   20.0330 C   0  0  0  0  0  0  0  0  0  0  0  0
  -30.9480  -13.2810   19.1270 C   0  0  0  0  0  2  0  0  0  0  0  0
  -30.0060  -13.0200   17.9160 C   0  0  0  0  0  2  0  0  0  0  0  0
  -28.5740  -12.7140   18.3850 C   0  0  0  0  0  2  0  0  0  0  0  0
  -28.1360  -13.6770   19.5130 C   0  0  0  0  0  3  0  0  0  0  0  0
  -29.2040  -13.8600   20.6140 C   0  0  0  0  0  2  0  0  0  0  0  0
  -30.4080  -14.4290   19.9760 N   0  0  0  0  0  0  0  0  0  0  0  0
  -32.1410  -15.7350   19.7180 O   0  0  0  0  0  0  0  0  0  0  0  0
  -25.7980  -14.2390   20.3370 C   0  0  0  0  0  0  0  0  0  0  0  0
  -24.7360  -13.4690   20.7170 C   0  0  0  0  0  0  0  0  0  0  0  0
  -25.1860  -12.1130   20.6570 C   0  0  0  0  0  0  0  0  0  0  0  0
  -26.8230  -13.3560   20.0540 N   0  0  0  0  0  0  0  0  0  0  0  0
  -26.4710  -12.0700   20.3150 N   0  0  0  0  0  0  0  0  0  0  0  0
  -24.4470  -10.8580   20.8460 C   0  0  0  0  0  0  0  0  0  0  0  0
  -24.8410   -9.9040   21.8090 C   0  0  0  0  0  3  0  0  0  0  0  0
  -24.0970   -8.7160   21.9870 C   0  0  0  0  0  3  0  0  0  0  0  0
  -22.9460   -8.4740   21.2010 C   0  0  0  0  0  0  0  0  0  0  0  0
  -22.5720   -9.4170   20.2280 C   0  0  0  0  0  3  0  0  0  0  0  0
  -23.3140  -10.5960   20.0490 C   0  0  0  0  0  3  0  0  0  0  0  0
  -22.1780   -7.3380   21.2860 O   0  0  0  0  0  0  0  0  0  0  0  0
  -21.9720   -6.6960   22.4810 C   0  0  0  0  0  0  0  0  0  0  0  0
  -21.3740   -7.3470   23.5820 C   0  0  0  0  0  3  0  0  0  0  0  0
  -21.1180   -6.6300   24.7680 C   0  0  0  0  0  3  0  0  0  0  0  0
  -21.4470   -5.2650   24.8520 C   0  0  0  0  0  0  0  0  0  0  0  0
  -22.0350   -4.6130   23.7530 C   0  0  0  0  0  3  0  0  0  0  0  0
  -22.2940   -5.3270   22.5700 C   0  0  0  0  0  0  0  0  0  0  0  0
  -22.8430   -4.6890   21.5080 F   0  0  0  0  0  0  0  0  0  0  0  0
  -21.1930   -4.5740   25.9880 F   0  0  0  0  0  0  0  0  0  0  0  0
  -23.3510  -13.9600   21.0210 C   0  0  0  0  0  0  0  0  0  0  0  0
  -22.6390  -13.2740   21.9070 N   0  0  0  0  0  0  0  0  0  0  0  0
  -22.9120  -14.9870   20.5070 O   0  0  0  0  0  0  0  0  0  0  0  0
  -23.0110  -12.4430   22.3440 H   0  0  0  0  0  0  0  0  0  0  0  0
  -21.7110  -13.5850   22.1550 H   0  0  0  0  0  0  0  0  0  0  0  0
  -25.9730  -15.6100   20.1780 N   0  0  0  0  0  0  0  0  0  0  0  0
  -25.2190  -16.2720   20.3250 H   0  0  0  0  0  0  0  0  0  0  0  0
  -26.8230  -16.0460   19.8440 H   0  0  0  0  0  0  0  0  0  0  0  0
  1  2  1  0
  2  4  2  0
  3  1  2  0
  3  6  1  0
  4  8  1  0
  5  4  1  0
  5 10  1  0
  6  5  2  0
  7  3  1  0
 10  9  1  0
 11 10  1  0
 12 14  1  0
 12  6  1  0
 13 24  2  0
 14 19  1  0
 15 23  1  0
 15 25  1  0
 16 22  1  0
 16 18  1  0
 17 23  1  0
 18 17  1  0
 19 18  2  0
 20 14  2  0
 21 20  1  0
 21 16  2  0
 22 15  1  0
 23 13  1  0
 25 27  2  0
 26 25  1  0
 28 26  1  0
 29 38  2  0
 29 34  1  0
 30 26  1  0
 30 34  1  0
 31 30  1  0
 32 33  1  0
 32 31  1  0
 33 29  1  0
 34 35  2  0
 35 36  1  0
 37 36  2  0
 38 37  1  0
 39 13  1  0
 39 44  1  0
 39 40  1  0
 40 43  1  1
 40 41  1  0
 42 40  1  0
 44 47  1  0
 45 49  1  0
 45 44  1  0
 46 45  2  0
 49 48  1  0
 51 49  1  0
 51 52  1  0
 51 50  1  0
 53  2  1  0
 53 55  1  0
 55 54  1  0
 56 55  1  0
 57 62  1  0
 58 59  1  0
 58 57  1  0
 60 59  1  0
 60 67  1  0
 60 61  1  0
 62 56  1  0
 62 61  1  0
 63 56  2  0
 64 65  2  0
 65 84  1  0
 66 65  1  0
 66 69  1  0
 67 68  1  0
 67 64  1  0
 68 66  2  0
 69 70  1  0
 70 71  2  0
 72 75  1  0
 72 71  1  0
 73 72  2  0
 74 73  1  0
 74 69  2  0
 75 76  1  0
 76 81  2  0
 76 77  1  0
 77 78  2  0
 78 79  1  0
 79 83  1  0
 80 79  2  0
 81 80  1  0
 82 81  1  0
 84 85  1  0
 85 88  1  0
 85 87  1  0
 86 84  2  0
 89 90  1  0
 89 64  1  0
 91 89  1  0
M  ISO  4   6 101  12 101  55 100  56 100
M  END
>  <TORSDO>  (45) 
F 19

>  <SCORE>  (45) 
-13.947

>  <name>  (45) 
44

>  <ligand_id>  (45) 
44

>  <original_smiles>  (45) 
[H]c1c([H])c([H])c2c(c1[H])C([H])([H])C([H])([H])C([H])([H])C2([H])N([H])C(=O)C1([H])N(C(=O)C([H])(N([H])C(=O)C([H])(N([H])C([H])([H])[H])C([H])([H])[H])C(C([H])([H])[H])(C([H])([H])[H])C([H])([H])[H])C([H])([H])c2c([H])c(Oc3c(N([H])C([H])([H])[H])c(C([H])([H])[H])c(C([H])([H])C([H])(C(=O)N4C([H])([H])C([H])([H])C([H])([H])C([H])(n5nc(-c6c([H])c([H])c(Oc7c([H])c([H])c(F)c([H])c7F)c([H])c6[H])c(C(=O)N([H])[H])c5N([H])[H])C4([H])[H])C([H])([H])[H])c([H])c3C([H])([H])[H])c([H])c([H])c2C1([H])[H]

>  <smiles>  (45) 
[H]c1c([H])c([H])c2c(c1[H])C([H])([H])C([H])([H])C([H])([H])C2([H])N([H])C(=O)C1([H])N(C(=O)C([H])(N([H])C(=O)C([H])(N([H])C([H])([H])[H])C([H])([H])[H])C(C([H])([H])[H])(C([H])([H])[H])C([H])([H])[H])C([H])([H])c2c([H])c(Oc3c(N([H])C([H])([H])[H])c(C([H])([H])[H])c(C([H])([H])C([H])(C(=O)N4C([H])([H])C([H])([H])C([H])([H])C([H])(n5nc(-c6c([H])c([H])c(Oc7c([H])c([H])c(F)c([H])c7F)c([H])c6[H])c(C(=O)N([H])[H])c5N([H])[H])C4([H])[H])C([H])([H])[H])c([H])c3C([H])([H])[H])c([H])c([H])c2C1([H])[H]

$$$$
45:0:0
     RDKit          3D

 91 99  0  0  1  0  0  0  0  0999 V2000
  -28.1810  -22.9740   19.2100 C   0  0  0  0  0  3  0  0  0  0  0  0
  -28.1400  -24.3910   19.1360 C   0  0  0  0  0  3  0  0  0  0  0  0
  -28.4990  -22.2870   20.4090 C   0  0  0  0  0  0  0  0  0  0  0  0
  -28.8220  -23.0980   21.5390 C   0  0  0  0  0  0  0  0  0  0  0  0
  -28.7810  -24.5350   21.4590 C   0  0  0  0  0  0  0  0  0  0  0  0
  -28.4000  -25.2060   20.2620 C   0  0  0  0  0  0  0  0  0  0  0  0
  -29.2240  -22.4320   22.8530 C   0  0  0  0  0  1  0  0  0  0  0  0
  -29.1630  -25.3780   22.6710 C   0  0  0  0  0  1  0  0  0  0  0  0
  -28.4040  -26.6090   20.1560 O   0  0  0  0  0  0  0  0  0  0  0  0
  -24.6180  -31.8700   23.2810 C   0  0  0  0  0  0  0  0  0  0  0  0
  -27.2390  -27.3750   20.1830 C   0  0  0  0  0  0  0  0  0  0  0  0
  -23.4130  -30.4900   21.6230 C   0  0  0  0  0  3  0  0  0  0  0  0
  -24.8620  -28.9470   20.1910 C   0  0  0  0  0  0  0  0  0  0  0  0
  -25.9470  -30.8170   21.4440 C   0  0  0  0  0  2  0  0  0  0  0  0
  -26.0260  -29.4440   20.7920 C   0  0  0  0  0  0  0  0  0  0  0  0
  -27.2160  -28.6660   20.7820 C   0  0  0  0  0  3  0  0  0  0  0  0
  -26.0530  -26.9110   19.5740 C   0  0  0  0  0  3  0  0  0  0  0  0
  -24.8740  -27.6830   19.5790 C   0  0  0  0  0  3  0  0  0  0  0  0
  -23.6280  -29.8220   20.2380 C   0  0  0  0  0  2  0  0  0  0  0  0
  -24.6780  -31.0750   22.1730 N   0  0  0  0  0  0  0  0  0  0  0  0
  -23.5350  -32.1440   23.8170 O   0  0  0  0  0  0  0  0  0  0  0  0
  -22.7490  -29.4650   22.5730 C   0  0  0  0  0  0  0  0  0  0  0  0
  -21.4240  -29.2840   22.4340 N   0  0  0  0  0  0  0  0  0  0  0  0
  -23.4240  -28.8360   23.3910 O   0  0  0  0  0  0  0  0  0  0  0  0
  -20.9390  -29.8440   21.7470 H   0  0  0  0  0  0  0  0  0  0  0  0
  -18.0450  -28.0910   22.9100 C   0  0  0  0  0  0  0  0  0  0  0  0
  -20.6020  -28.3410   23.1930 C   0  0  0  0  0  3  0  0  0  0  0  0
  -20.7030  -26.9140   22.6030 C   0  0  0  0  0  2  0  0  0  0  0  0
  -19.6050  -26.6040   21.5820 C   0  0  0  0  0  2  0  0  0  0  0  0
  -18.2210  -26.7480   22.2230 C   0  0  0  0  0  2  0  0  0  0  0  0
  -19.1630  -28.8460   23.3520 C   0  0  0  0  0  0  0  0  0  0  0  0
  -18.9460  -30.1040   23.9540 C   0  0  0  0  0  3  0  0  0  0  0  0
  -17.6420  -30.6070   24.1200 C   0  0  0  0  0  3  0  0  0  0  0  0
  -16.5370  -29.8490   23.6940 C   0  0  0  0  0  3  0  0  0  0  0  0
  -16.7390  -28.5920   23.0950 C   0  0  0  0  0  3  0  0  0  0  0  0
  -25.9030  -32.4920   23.9100 C   0  0  0  0  0  3  0  0  0  0  0  0
  -26.4130  -31.7090   25.1820 C   0  0  1  0  0  0  0  0  0  0  0  0
  -25.3180  -31.4660   26.2450 C   0  0  0  0  0  1  0  0  0  0  0  0
  -26.9950  -30.3330   24.7800 C   0  0  0  0  0  1  0  0  0  0  0  0
  -27.5630  -32.4950   25.8550 C   0  0  0  0  0  1  0  0  0  0  0  0
  -25.5980  -33.8880   24.2500 N   0  0  0  0  0  0  0  0  0  0  0  0
  -25.8940  -34.9420   23.4760 C   0  0  0  0  0  0  0  0  0  0  0  0
  -26.5230  -34.8410   22.4200 O   0  0  0  0  0  0  0  0  0  0  0  0
  -25.0360  -34.0420   25.0750 H   0  0  0  0  0  0  0  0  0  0  0  0
  -24.1270  -36.7110   23.2100 C   0  0  0  0  0  1  0  0  0  0  0  0
  -25.4180  -36.3290   23.9520 C   0  0  0  0  0  3  0  0  0  0  0  0
  -27.5830  -37.2500   24.6560 C   0  0  0  0  0  1  0  0  0  0  0  0
  -26.4300  -37.3920   23.7700 N   0  0  0  0  0  0  0  0  0  0  0  0
  -26.0210  -38.3100   23.9260 H   0  0  0  0  0  0  0  0  0  0  0  0
  -28.3150  -20.7290   20.4660 C   0  0  0  0  0  2  0  0  0  0  0  0
  -29.5470  -19.7390   20.4730 C   0  0  0  0  0  2  0  0  0  0  0  0
  -29.1680  -18.2010   20.6000 C   0  0  0  0  0  3  0  0  0  0  0  0
  -30.3340  -17.1340   20.5640 C   0  0  0  0  0  3  0  0  0  0  0  0
  -30.6700  -14.6100   20.2990 C   0  0  0  0  0  0  0  0  0  0  0  0
  -30.4050  -12.3910   19.2260 C   0  0  0  0  0  2  0  0  0  0  0  0
  -29.4350  -12.5340   18.0320 C   0  0  0  0  0  2  0  0  0  0  0  0
  -27.9710  -12.3830   18.4960 C   0  0  0  0  0  2  0  0  0  0  0  0
  -27.6460  -13.2410   19.7490 C   0  0  0  0  0  3  0  0  0  0  0  0
  -28.7300  -13.0780   20.8380 C   0  0  0  0  0  2  0  0  0  0  0  0
  -30.0260  -13.4050   20.2260 N   0  0  0  0  0  0  0  0  0  0  0  0
  -31.8240  -14.7500   19.8820 O   0  0  0  0  0  0  0  0  0  0  0  0
  -29.9230  -15.6930   20.6530 N   0  0  0  0  0  0  0  0  0  0  0  0
  -28.9820  -15.5020   20.9600 H   0  0  0  0  0  0  0  0  0  0  0  0
  -25.2760  -13.8340   20.5480 C   0  0  0  0  0  0  0  0  0  0  0  0
  -24.2160  -13.0590   20.9300 C   0  0  0  0  0  0  0  0  0  0  0  0
  -24.6690  -11.7060   20.8550 C   0  0  0  0  0  0  0  0  0  0  0  0
  -26.3100  -12.9550   20.2640 N   0  0  0  0  0  0  0  0  0  0  0  0
  -25.9500  -11.6680   20.5080 N   0  0  0  0  0  0  0  0  0  0  0  0
  -23.9410  -10.4430   21.0340 C   0  0  0  0  0  0  0  0  0  0  0  0
  -24.3680   -9.4700   21.9650 C   0  0  0  0  0  3  0  0  0  0  0  0
  -23.6410   -8.2720   22.1320 C   0  0  0  0  0  3  0  0  0  0  0  0
  -22.4720   -8.0390   21.3710 C   0  0  0  0  0  0  0  0  0  0  0  0
  -22.0630   -9.0000   20.4290 C   0  0  0  0  0  3  0  0  0  0  0  0
  -22.7910  -10.1900   20.2600 C   0  0  0  0  0  3  0  0  0  0  0  0
  -21.7140   -6.8940   21.4490 O   0  0  0  0  0  0  0  0  0  0  0  0
  -21.6210   -6.1720   22.6120 C   0  0  0  0  0  0  0  0  0  0  0  0
  -21.1070   -6.7340   23.8000 C   0  0  0  0  0  3  0  0  0  0  0  0
  -20.9650   -5.9350   24.9520 C   0  0  0  0  0  3  0  0  0  0  0  0
  -21.3240   -4.5750   24.9160 C   0  0  0  0  0  0  0  0  0  0  0  0
  -21.8320   -4.0110   23.7320 C   0  0  0  0  0  3  0  0  0  0  0  0
  -21.9770   -4.8070   22.5830 C   0  0  0  0  0  0  0  0  0  0  0  0
  -22.4460   -4.2540   21.4380 F   0  0  0  0  0  0  0  0  0  0  0  0
  -21.1810   -3.8070   26.0220 F   0  0  0  0  0  0  0  0  0  0  0  0
  -22.8290  -13.5370   21.2520 C   0  0  0  0  0  0  0  0  0  0  0  0
  -22.1240  -12.8310   22.1300 N   0  0  0  0  0  0  0  0  0  0  0  0
  -22.3800  -14.5730   20.7630 O   0  0  0  0  0  0  0  0  0  0  0  0
  -22.5000  -11.9930   22.5480 H   0  0  0  0  0  0  0  0  0  0  0  0
  -21.1950  -13.1330   22.3870 H   0  0  0  0  0  0  0  0  0  0  0  0
  -25.4450  -15.2080   20.3970 N   0  0  0  0  0  0  0  0  0  0  0  0
  -24.6850  -15.8630   20.5460 H   0  0  0  0  0  0  0  0  0  0  0  0
  -26.2810  -15.6480   20.0370 H   0  0  0  0  0  0  0  0  0  0  0  0
  1  3  1  0
  2  1  2  0
  2  6  1  0
  3 50  1  0
  3  4  2  0
  4  7  1  0
  5  4  1  0
  5  8  1  0
  6  5  2  0
  9 11  1  0
  9  6  1  0
 10 21  2  0
 11 16  1  0
 12 20  1  0
 12 22  1  0
 13 19  1  0
 13 15  1  0
 14 20  1  0
 15 14  1  0
 16 15  2  0
 17 18  1  0
 17 11  2  0
 18 13  2  0
 19 12  1  0
 20 10  1  0
 22 24  2  0
 23 22  1  0
 25 23  1  0
 26 35  2  0
 26 31  1  0
 27 23  1  0
 27 31  1  0
 28 27  1  0
 29 30  1  0
 29 28  1  0
 30 26  1  0
 31 32  2  0
 32 33  1  0
 34 33  2  0
 35 34  1  0
 36 10  1  0
 36 41  1  0
 36 37  1  0
 37 40  1  1
 37 38  1  0
 39 37  1  0
 41 44  1  0
 42 46  1  0
 42 41  1  0
 43 42  2  0
 46 45  1  0
 48 49  1  0
 48 46  1  0
 48 47  1  0
 50 51  1  0
 51 52  1  0
 53 52  2  0
 53 62  1  0
 54 62  1  0
 55 60  1  0
 56 57  1  0
 56 55  1  0
 58 57  1  0
 58 67  1  0
 58 59  1  0
 60 54  1  0
 60 59  1  0
 61 54  2  0
 62 63  1  0
 64 65  2  0
 65 84  1  0
 66 65  1  0
 66 69  1  0
 67 68  1  0
 67 64  1  0
 68 66  2  0
 69 70  1  0
 70 71  2  0
 72 75  1  0
 72 71  1  0
 73 72  2  0
 74 73  1  0
 74 69  2  0
 75 76  1  0
 76 77  1  0
 77 78  2  0
 79 78  1  0
 79 83  1  0
 80 79  2  0
 81 76  2  0
 81 80  1  0
 82 81  1  0
 84 85  1  0
 85 88  1  0
 85 87  1  0
 86 84  2  0
 89 90  1  0
 89 64  1  0
 91 89  1  0
M  ISO  4   6 101   9 101  54 100  62 100
M  END
>  <TORSDO>  (46) 
F 20

>  <SCORE>  (46) 
-13.914

>  <name>  (46) 
45

>  <ligand_id>  (46) 
45

>  <original_smiles>  (46) 
[H]c1c([H])c([H])c2c(c1[H])C([H])([H])C([H])([H])C([H])([H])C2([H])N([H])C(=O)C1([H])N(C(=O)C([H])(N([H])C(=O)C([H])(N([H])C([H])([H])[H])C([H])([H])[H])C(C([H])([H])[H])(C([H])([H])[H])C([H])([H])[H])C([H])([H])c2c([H])c(Oc3c([H])c([H])c(C([H])([H])C([H])([H])C([H])([H])C([H])([H])N([H])C(=O)N4C([H])([H])C([H])([H])C([H])([H])C([H])(n5nc(-c6c([H])c([H])c(Oc7c([H])c([H])c(F)c([H])c7F)c([H])c6[H])c(C(=O)N([H])[H])c5N([H])[H])C4([H])[H])c(C([H])([H])[H])c3C([H])([H])[H])c([H])c([H])c2C1([H])[H]

>  <smiles>  (46) 
[H]c1c([H])c([H])c2c(c1[H])C([H])([H])C([H])([H])C([H])([H])C2([H])N([H])C(=O)C1([H])N(C(=O)C([H])(N([H])C(=O)C([H])(N([H])C([H])([H])[H])C([H])([H])[H])C(C([H])([H])[H])(C([H])([H])[H])C([H])([H])[H])C([H])([H])c2c([H])c(Oc3c([H])c([H])c(C([H])([H])C([H])([H])C([H])([H])C([H])([H])N([H])C(=O)N4C([H])([H])C([H])([H])C([H])([H])C([H])(n5nc(-c6c([H])c([H])c(Oc7c([H])c([H])c(F)c([H])c7F)c([H])c6[H])c(C(=O)N([H])[H])c5N([H])[H])C4([H])[H])c(C([H])([H])[H])c3C([H])([H])[H])c([H])c([H])c2C1([H])[H]

$$$$
46:0:0
     RDKit          3D

 91100  0  0  1  0  0  0  0  0999 V2000
  -30.5970  -18.0050   19.1600 C   0  0  0  0  0  3  0  0  0  0  0  0
  -30.0780  -19.4140   19.3050 C   0  0  0  0  0  0  0  0  0  0  0  0
  -29.9040  -16.7120   19.4330 C   0  0  0  0  0  0  0  0  0  0  0  0
  -28.7320  -19.6820   19.6490 C   0  0  0  0  0  0  0  0  0  0  0  0
  -28.5960  -17.0870   19.9580 C   0  0  0  0  0  0  0  0  0  0  0  0
  -28.0250  -18.4540   19.9700 C   0  0  0  0  0  0  0  0  0  0  0  0
  -30.8600  -20.7270   19.0920 C   0  0  0  0  0  0  0  0  0  0  0  0
  -28.0870  -21.2190   19.7220 C   0  0  0  0  0  2  0  0  0  0  0  0
  -30.3540  -22.1470   19.6780 C   0  0  0  0  0  2  0  0  0  0  0  0
  -28.8750  -22.6600   19.3800 C   0  0  0  0  0  3  0  0  0  0  0  0
  -27.7830  -16.0230   20.6780 C   0  0  0  0  0  1  0  0  0  0  0  0
  -26.5700  -18.6170   20.4020 C   0  0  0  0  0  1  0  0  0  0  0  0
  -31.9420  -20.7160   18.5010 O   0  0  0  0  0  0  0  0  0  0  0  0
  -30.6010  -15.1690   19.3460 C   0  0  0  0  0  0  0  0  0  0  0  0
  -30.5650  -12.6620   18.6780 C   0  0  0  0  0  2  0  0  0  0  0  0
  -29.5490  -12.3450   17.5480 C   0  0  0  0  0  2  0  0  0  0  0  0
  -28.1400  -12.0890   18.1160 C   0  0  0  0  0  2  0  0  0  0  0  0
  -27.7700  -13.1200   19.2090 C   0  0  0  0  0  3  0  0  0  0  0  0
  -28.9080  -13.3160   20.2210 C   0  0  0  0  0  2  0  0  0  0  0  0
  -30.0690  -13.8470   19.4790 N   0  0  0  0  0  0  0  0  0  0  0  0
  -31.7760  -15.1350   18.9450 O   0  0  0  0  0  0  0  0  0  0  0  0
  -25.5290  -13.7150   20.2690 C   0  0  0  0  0  0  0  0  0  0  0  0
  -24.4930  -12.9550   20.7360 C   0  0  0  0  0  0  0  0  0  0  0  0
  -24.9080  -11.5940   20.5940 C   0  0  0  0  0  0  0  0  0  0  0  0
  -26.5010  -12.8210   19.8600 N   0  0  0  0  0  0  0  0  0  0  0  0
  -26.1500  -11.5360   20.1220 N   0  0  0  0  0  0  0  0  0  0  0  0
  -24.1660  -10.3450   20.8200 C   0  0  0  0  0  0  0  0  0  0  0  0
  -24.6330   -9.3590   21.7170 C   0  0  0  0  0  3  0  0  0  0  0  0
  -23.8910   -8.1780   21.9310 C   0  0  0  0  0  3  0  0  0  0  0  0
  -22.6680   -7.9740   21.2500 C   0  0  0  0  0  0  0  0  0  0  0  0
  -22.2180   -8.9490   20.3410 C   0  0  0  0  0  3  0  0  0  0  0  0
  -22.9610  -10.1220   20.1250 C   0  0  0  0  0  3  0  0  0  0  0  0
  -21.8920   -6.8470   21.3750 O   0  0  0  0  0  0  0  0  0  0  0  0
  -21.8190   -6.1530   22.5560 C   0  0  0  0  0  0  0  0  0  0  0  0
  -21.3870   -6.7640   23.7540 C   0  0  0  0  0  3  0  0  0  0  0  0
  -21.2610   -5.9960   24.9280 C   0  0  0  0  0  3  0  0  0  0  0  0
  -21.5540   -4.6200   24.9070 C   0  0  0  0  0  0  0  0  0  0  0  0
  -21.9770   -4.0080   23.7130 C   0  0  0  0  0  3  0  0  0  0  0  0
  -22.1060   -4.7720   22.5400 C   0  0  0  0  0  0  0  0  0  0  0  0
  -22.4940   -4.1740   21.3890 F   0  0  0  0  0  0  0  0  0  0  0  0
  -21.4250   -3.8810   26.0340 F   0  0  0  0  0  0  0  0  0  0  0  0
  -23.1570  -13.4590   21.1940 C   0  0  0  0  0  0  0  0  0  0  0  0
  -22.5240  -12.7570   22.1270 N   0  0  0  0  0  0  0  0  0  0  0  0
  -22.6880  -14.5090   20.7570 O   0  0  0  0  0  0  0  0  0  0  0  0
  -22.9170  -11.9060   22.5000 H   0  0  0  0  0  0  0  0  0  0  0  0
  -21.6300  -13.0770   22.4750 H   0  0  0  0  0  0  0  0  0  0  0  0
  -25.7140  -15.0870   20.1280 N   0  0  0  0  0  0  0  0  0  0  0  0
  -24.9870  -15.7560   20.3590 H   0  0  0  0  0  0  0  0  0  0  0  0
  -26.5360  -15.5180   19.7230 H   0  0  0  0  0  0  0  0  0  0  0  0
  -28.2150  -24.2580   19.8820 C   0  0  0  0  0  2  0  0  0  0  0  0
  -28.3810  -25.8550   19.5780 O   0  0  0  0  0  0  0  0  0  0  0  0
  -24.7140  -31.5360   22.9380 C   0  0  0  0  0  0  0  0  0  0  0  0
  -27.3320  -26.9000   19.6580 C   0  0  0  0  0  0  0  0  0  0  0  0
  -23.5320  -30.2120   21.2330 C   0  0  0  0  0  3  0  0  0  0  0  0
  -24.9960  -28.7130   19.7230 C   0  0  0  0  0  0  0  0  0  0  0  0
  -26.0910  -30.4850   21.0810 C   0  0  0  0  0  2  0  0  0  0  0  0
  -26.1820  -29.1150   20.3530 C   0  0  0  0  0  0  0  0  0  0  0  0
  -27.3470  -28.2330   20.2920 C   0  0  0  0  0  3  0  0  0  0  0  0
  -26.1130  -26.6370   18.9960 C   0  0  0  0  0  3  0  0  0  0  0  0
  -24.9840  -27.4950   19.0250 C   0  0  0  0  0  3  0  0  0  0  0  0
  -23.7630  -29.6080   19.8210 C   0  0  0  0  0  2  0  0  0  0  0  0
  -24.8000  -30.7670   21.8060 N   0  0  0  0  0  0  0  0  0  0  0  0
  -23.6240  -31.7780   23.4810 O   0  0  0  0  0  0  0  0  0  0  0  0
  -22.8620  -29.1530   22.1460 C   0  0  0  0  0  0  0  0  0  0  0  0
  -21.5290  -29.0000   22.0440 N   0  0  0  0  0  0  0  0  0  0  0  0
  -23.5470  -28.4700   22.9120 O   0  0  0  0  0  0  0  0  0  0  0  0
  -21.0290  -29.6020   21.4060 H   0  0  0  0  0  0  0  0  0  0  0  0
  -18.1460  -27.8210   22.6210 C   0  0  0  0  0  0  0  0  0  0  0  0
  -20.7210  -28.0130   22.7720 C   0  0  0  0  0  3  0  0  0  0  0  0
  -20.7590  -26.6370   22.0680 C   0  0  0  0  0  2  0  0  0  0  0  0
  -19.6010  -26.4280   21.0890 C   0  0  0  0  0  2  0  0  0  0  0  0
  -18.2570  -26.5370   21.8150 C   0  0  0  0  0  2  0  0  0  0  0  0
  -19.3020  -28.5220   23.0570 C   0  0  0  0  0  0  0  0  0  0  0  0
  -19.1410  -29.7260   23.7760 C   0  0  0  0  0  3  0  0  0  0  0  0
  -17.8570  -30.2300   24.0600 C   0  0  0  0  0  3  0  0  0  0  0  0
  -16.7170  -29.5240   23.6370 C   0  0  0  0  0  3  0  0  0  0  0  0
  -16.8620  -28.3210   22.9240 C   0  0  0  0  0  3  0  0  0  0  0  0
  -25.9800  -32.1620   23.5990 C   0  0  0  0  0  3  0  0  0  0  0  0
  -25.6440  -33.5380   24.0050 N   0  0  0  0  0  0  0  0  0  0  0  0
  -25.9580  -34.6410   23.3130 C   0  0  0  0  0  0  0  0  0  0  0  0
  -26.6240  -34.6080   22.2750 O   0  0  0  0  0  0  0  0  0  0  0  0
  -25.0510  -33.6360   24.8170 H   0  0  0  0  0  0  0  0  0  0  0  0
  -24.2020  -36.4310   23.0820 C   0  0  0  0  0  1  0  0  0  0  0  0
  -25.4570  -35.9960   23.8560 C   0  0  0  0  0  3  0  0  0  0  0  0
  -27.5850  -36.8680   24.7200 C   0  0  0  0  0  1  0  0  0  0  0  0
  -26.4740  -37.0690   23.7920 N   0  0  0  0  0  0  0  0  0  0  0  0
  -26.0550  -37.9740   23.9900 H   0  0  0  0  0  0  0  0  0  0  0  0
  -26.4990  -31.3400   24.8430 C   0  0  1  0  0  0  0  0  0  0  0  0
  -25.4080  -31.0470   25.8990 C   0  0  0  0  0  1  0  0  0  0  0  0
  -27.0950  -29.9840   24.3980 C   0  0  0  0  0  1  0  0  0  0  0  0
  -27.6440  -32.1130   25.5400 C   0  0  0  0  0  1  0  0  0  0  0  0
  1  2  2  0
  1  3  1  0
  2  4  1  0
  3  5  2  0
  4  8  1  0
  4  6  2  0
  5  6  1  0
  5 11  1  0
  6 12  1  0
  7  2  1  0
  7  9  1  0
 10  9  1  0
 10  8  1  0
 10 50  1  0
 13  7  2  0
 14  3  1  0
 14 20  1  0
 15 20  1  0
 16 17  1  0
 16 15  1  0
 18 17  1  0
 18 25  1  0
 18 19  1  0
 20 19  1  0
 21 14  2  0
 22 23  2  0
 23 42  1  0
 24 23  1  0
 24 27  1  0
 25 26  1  0
 25 22  1  0
 26 24  2  0
 27 28  1  0
 28 29  2  0
 30 33  1  0
 30 29  1  0
 31 30  2  0
 32 31  1  0
 32 27  2  0
 33 34  1  0
 34 35  1  0
 35 36  2  0
 37 36  1  0
 37 41  1  0
 38 37  2  0
 39 34  2  0
 39 38  1  0
 40 39  1  0
 42 43  1  0
 43 46  1  0
 43 45  1  0
 44 42  2  0
 47 22  1  0
 47 48  1  0
 49 47  1  0
 51 53  1  0
 51 50  1  0
 52 63  2  0
 53 58  1  0
 54 62  1  0
 54 64  1  0
 55 61  1  0
 55 57  1  0
 56 62  1  0
 57 56  1  0
 58 57  2  0
 59 60  1  0
 59 53  2  0
 60 55  2  0
 61 54  1  0
 62 52  1  0
 64 66  2  0
 65 64  1  0
 67 65  1  0
 68 77  2  0
 68 73  1  0
 69 65  1  0
 69 73  1  0
 70 69  1  0
 71 72  1  0
 71 70  1  0
 72 68  1  0
 73 74  2  0
 74 75  1  0
 76 75  2  0
 77 76  1  0
 78 52  1  0
 78 79  1  0
 78 88  1  0
 79 82  1  0
 80 84  1  0
 80 79  1  0
 81 80  2  0
 84 83  1  0
 86 84  1  0
 86 87  1  0
 86 85  1  0
 88 91  1  1
 88 89  1  0
 90 88  1  0
M  ISO  4   3 100  14 100  50 101  51 101
M  END
>  <TORSDO>  (47) 
F 17

>  <SCORE>  (47) 
-14.196

>  <name>  (47) 
46

>  <ligand_id>  (47) 
46

>  <original_smiles>  (47) 
[H]c1c([H])c([H])c2c(c1[H])C([H])([H])C([H])([H])C([H])([H])C2([H])N([H])C(=O)C1([H])N(C(=O)C([H])(N([H])C(=O)C([H])(N([H])C([H])([H])[H])C([H])([H])[H])C(C([H])([H])[H])(C([H])([H])[H])C([H])([H])[H])C([H])([H])c2c([H])c(OC([H])([H])C3([H])C([H])([H])C(=O)c4c([H])c(C(=O)N5C([H])([H])C([H])([H])C([H])([H])C([H])(n6nc(-c7c([H])c([H])c(Oc8c([H])c([H])c(F)c([H])c8F)c([H])c7[H])c(C(=O)N([H])[H])c6N([H])[H])C5([H])[H])c(C([H])([H])[H])c(C([H])([H])[H])c4C3([H])[H])c([H])c([H])c2C1([H])[H]

>  <smiles>  (47) 
[H]c1c([H])c([H])c2c(c1[H])C([H])([H])C([H])([H])C([H])([H])C2([H])N([H])C(=O)C1([H])N(C(=O)C([H])(N([H])C(=O)C([H])(N([H])C([H])([H])[H])C([H])([H])[H])C(C([H])([H])[H])(C([H])([H])[H])C([H])([H])[H])C([H])([H])c2c([H])c(OC([H])([H])C3([H])C([H])([H])C(=O)c4c([H])c(C(=O)N5C([H])([H])C([H])([H])C([H])([H])C([H])(n6nc(-c7c([H])c([H])c(Oc8c([H])c([H])c(F)c([H])c8F)c([H])c7[H])c(C(=O)N([H])[H])c6N([H])[H])C5([H])[H])c(C([H])([H])[H])c(C([H])([H])[H])c4C3([H])[H])c([H])c([H])c2C1([H])[H]

$$$$
47:0:0
     RDKit          3D

 90 99  0  0  1  0  0  0  0  0999 V2000
  -28.9630  -21.4430   18.9780 C   0  0  0  0  0  3  0  0  0  0  0  0
  -28.6170  -22.9410   19.0640 C   0  0  0  0  0  3  0  0  0  0  0  0
  -29.6260  -21.5020   21.0820 C   0  0  0  0  0  3  0  0  0  0  0  0
  -29.5300  -20.4900   19.9820 C   0  0  0  0  0  0  0  0  0  0  0  0
  -28.7210  -23.9370   20.1790 C   0  0  0  0  0  0  0  0  0  0  0  0
  -29.2870  -22.9910   21.1810 C   0  0  0  0  0  0  0  0  0  0  0  0
  -29.6020  -23.5590   22.3710 F   0  0  0  0  0  0  0  0  0  0  0  0
  -30.6730  -15.6590   19.4870 C   0  0  0  0  0  0  0  0  0  0  0  0
  -30.6420  -13.1630   18.5160 C   0  0  0  0  0  2  0  0  0  0  0  0
  -29.5500  -12.8030   17.4670 C   0  0  0  0  0  2  0  0  0  0  0  0
  -28.2250  -12.4160   18.1430 C   0  0  0  0  0  2  0  0  0  0  0  0
  -27.9150  -13.3470   19.3370 C   0  0  0  0  0  3  0  0  0  0  0  0
  -29.1370  -13.5660   20.2630 C   0  0  0  0  0  2  0  0  0  0  0  0
  -30.1530  -14.2840   19.4450 N   0  0  0  0  0  0  0  0  0  0  0  0
  -31.8440  -15.6110   19.0560 O   0  0  0  0  0  0  0  0  0  0  0  0
  -30.3700  -18.2970   22.3730 C   0  0  0  0  0  2  0  0  0  0  0  0
  -29.5470  -17.0040   22.1730 C   0  0  0  0  0  2  0  0  0  0  0  0
  -31.1960  -18.7190   21.1270 C   0  0  0  0  0  2  0  0  0  0  0  0
  -28.8920  -16.9510   20.7770 C   0  0  0  0  0  2  0  0  0  0  0  0
  -30.2980  -18.7720   19.8710 C   0  0  0  0  0  3  0  0  0  0  0  0
  -29.9590  -17.0320   19.7890 N   0  0  0  0  0  0  0  0  0  0  0  0
  -25.7660  -13.8180   20.6100 C   0  0  0  0  0  0  0  0  0  0  0  0
  -24.7620  -13.0150   21.0720 C   0  0  0  0  0  0  0  0  0  0  0  0
  -25.1500  -11.6760   20.7570 C   0  0  0  0  0  0  0  0  0  0  0  0
  -26.7040  -12.9700   20.0520 N   0  0  0  0  0  0  0  0  0  0  0  0
  -26.3570  -11.6640   20.1970 N   0  0  0  0  0  0  0  0  0  0  0  0
  -24.4060  -10.4180   20.9030 C   0  0  0  0  0  0  0  0  0  0  0  0
  -24.8630   -9.3830   21.7470 C   0  0  0  0  0  3  0  0  0  0  0  0
  -24.1170   -8.1930   21.8910 C   0  0  0  0  0  3  0  0  0  0  0  0
  -22.8980   -8.0300   21.1880 C   0  0  0  0  0  0  0  0  0  0  0  0
  -22.4590   -9.0540   20.3310 C   0  0  0  0  0  3  0  0  0  0  0  0
  -23.2070  -10.2360   20.1860 C   0  0  0  0  0  3  0  0  0  0  0  0
  -22.1210   -6.8990   21.2460 O   0  0  0  0  0  0  0  0  0  0  0  0
  -21.9690   -6.1890   22.4100 C   0  0  0  0  0  0  0  0  0  0  0  0
  -21.4580   -6.7820   23.5840 C   0  0  0  0  0  3  0  0  0  0  0  0
  -21.2520   -5.9990   24.7370 C   0  0  0  0  0  3  0  0  0  0  0  0
  -21.5500   -4.6230   24.7170 C   0  0  0  0  0  0  0  0  0  0  0  0
  -22.0530   -4.0290   23.5460 C   0  0  0  0  0  3  0  0  0  0  0  0
  -22.2590   -4.8090   22.3960 C   0  0  0  0  0  0  0  0  0  0  0  0
  -22.7250   -4.2270   21.2650 F   0  0  0  0  0  0  0  0  0  0  0  0
  -21.3450   -3.8690   25.8230 F   0  0  0  0  0  0  0  0  0  0  0  0
  -23.4680  -13.4790   21.6700 C   0  0  0  0  0  0  0  0  0  0  0  0
  -22.8990  -12.6970   22.5790 N   0  0  0  0  0  0  0  0  0  0  0  0
  -22.9810  -14.5690   21.3720 O   0  0  0  0  0  0  0  0  0  0  0  0
  -23.3120  -11.8140   22.8390 H   0  0  0  0  0  0  0  0  0  0  0  0
  -22.0380  -12.9850   23.0220 H   0  0  0  0  0  0  0  0  0  0  0  0
  -25.9390  -15.1970   20.5880 N   0  0  0  0  0  0  0  0  0  0  0  0
  -25.2220  -15.8290   20.9260 H   0  0  0  0  0  0  0  0  0  0  0  0
  -26.6920  -15.6720   20.1090 H   0  0  0  0  0  0  0  0  0  0  0  0
  -28.6440  -25.5570   20.2210 O   0  0  0  0  0  0  0  0  0  0  0  0
  -24.9840  -31.6940   23.2780 C   0  0  0  0  0  0  0  0  0  0  0  0
  -27.6190  -26.7200   20.2210 C   0  0  0  0  0  0  0  0  0  0  0  0
  -23.8540  -30.3520   21.5540 C   0  0  0  0  0  3  0  0  0  0  0  0
  -25.3490  -28.7450   20.1450 C   0  0  0  0  0  0  0  0  0  0  0  0
  -26.4330  -30.4960   21.5300 C   0  0  0  0  0  2  0  0  0  0  0  0
  -26.5180  -29.0840   20.8350 C   0  0  0  0  0  0  0  0  0  0  0  0
  -27.6360  -28.0990   20.8430 C   0  0  0  0  0  3  0  0  0  0  0  0
  -26.4190  -26.5890   19.4770 C   0  0  0  0  0  3  0  0  0  0  0  0
  -25.3360  -27.5240   19.4460 C   0  0  0  0  0  3  0  0  0  0  0  0
  -24.1420  -29.6960   20.1720 C   0  0  0  0  0  2  0  0  0  0  0  0
  -25.1130  -30.8790   22.1750 N   0  0  0  0  0  0  0  0  0  0  0  0
  -23.8740  -31.9790   23.7580 O   0  0  0  0  0  0  0  0  0  0  0  0
  -23.1020  -29.3470   22.4670 C   0  0  0  0  0  0  0  0  0  0  0  0
  -21.7710  -29.2160   22.3020 N   0  0  0  0  0  0  0  0  0  0  0  0
  -23.7290  -28.6810   23.2940 O   0  0  0  0  0  0  0  0  0  0  0  0
  -21.3170  -29.8040   21.6170 H   0  0  0  0  0  0  0  0  0  0  0  0
  -18.3540  -28.0440   22.6930 C   0  0  0  0  0  0  0  0  0  0  0  0
  -20.9130  -28.2610   23.0150 C   0  0  0  0  0  3  0  0  0  0  0  0
  -21.0030  -26.8530   22.3790 C   0  0  0  0  0  2  0  0  0  0  0  0
  -19.9170  -26.5950   21.3290 C   0  0  0  0  0  2  0  0  0  0  0  0
  -18.5260  -26.7270   21.9540 C   0  0  0  0  0  2  0  0  0  0  0  0
  -19.4760  -28.7710   23.1770 C   0  0  0  0  0  0  0  0  0  0  0  0
  -19.2590  -30.0020   23.8340 C   0  0  0  0  0  3  0  0  0  0  0  0
  -17.9560  -30.5080   24.0070 C   0  0  0  0  0  3  0  0  0  0  0  0
  -16.8500  -29.7780   23.5360 C   0  0  0  0  0  3  0  0  0  0  0  0
  -17.0500  -28.5480   22.8860 C   0  0  0  0  0  3  0  0  0  0  0  0
  -26.2250  -32.3180   23.9860 C   0  0  0  0  0  3  0  0  0  0  0  0
  -25.8920  -33.7070   24.3600 N   0  0  0  0  0  0  0  0  0  0  0  0
  -26.2350  -34.7990   23.6630 C   0  0  0  0  0  0  0  0  0  0  0  0
  -26.9240  -34.7440   22.6420 O   0  0  0  0  0  0  0  0  0  0  0  0
  -25.2790  -33.8220   25.1540 H   0  0  0  0  0  0  0  0  0  0  0  0
  -24.4980  -36.6040   23.3850 C   0  0  0  0  0  1  0  0  0  0  0  0
  -25.7410  -36.1680   24.1780 C   0  0  0  0  0  3  0  0  0  0  0  0
  -27.8650  -37.0410   25.0500 C   0  0  0  0  0  1  0  0  0  0  0  0
  -26.7670  -37.2330   24.1070 N   0  0  0  0  0  0  0  0  0  0  0  0
  -26.3550  -38.1440   24.2800 H   0  0  0  0  0  0  0  0  0  0  0  0
  -26.6760  -31.5130   25.2670 C   0  0  1  0  0  0  0  0  0  0  0  0
  -25.5320  -31.2550   26.2770 C   0  0  0  0  0  1  0  0  0  0  0  0
  -27.2700  -30.1410   24.8810 C   0  0  0  0  0  1  0  0  0  0  0  0
  -27.7980  -32.2830   26.0040 C   0  0  0  0  0  1  0  0  0  0  0  0
  1  2  2  0
  1  4  1  0
  2  5  1  0
  3  6  1  0
  4  3  2  0
  5 50  1  0
  5  6  2  0
  6  7  1  0
  8 21  1  0
  9 14  1  0
 10 11  1  0
 10  9  1  0
 12 11  1  0
 12 25  1  0
 12 13  1  0
 14  8  1  0
 14 13  1  0
 15  8  2  0
 17 16  1  0
 18 16  1  0
 19 17  1  0
 20  4  1  0
 20 18  1  0
 21 20  1  0
 21 19  1  0
 22 23  2  0
 23 42  1  0
 24 27  1  0
 24 23  1  0
 25 26  1  0
 25 22  1  0
 26 24  2  0
 27 28  1  0
 28 29  2  0
 30 33  1  0
 30 29  1  0
 31 30  2  0
 32 31  1  0
 32 27  2  0
 33 34  1  0
 34 35  1  0
 35 36  2  0
 37 36  1  0
 37 41  1  0
 38 37  2  0
 39 34  2  0
 39 38  1  0
 40 39  1  0
 42 43  1  0
 43 45  1  0
 43 46  1  0
 44 42  2  0
 47 22  1  0
 47 48  1  0
 49 47  1  0
 51 62  2  0
 52 50  1  0
 52 57  1  0
 53 61  1  0
 53 63  1  0
 54 60  1  0
 54 56  1  0
 55 61  1  0
 56 57  2  0
 56 55  1  0
 58 52  2  0
 59 58  1  0
 59 54  2  0
 60 53  1  0
 61 51  1  0
 63 65  2  0
 64 63  1  0
 66 64  1  0
 67 76  2  0
 67 72  1  0
 68 64  1  0
 68 72  1  0
 69 68  1  0
 70 71  1  0
 70 69  1  0
 71 67  1  0
 72 73  2  0
 73 74  1  0
 75 74  2  0
 76 75  1  0
 77 51  1  0
 77 78  1  0
 77 87  1  0
 78 81  1  0
 79 83  1  0
 79 78  1  0
 80 79  2  0
 83 82  1  0
 85 83  1  0
 85 86  1  0
 85 84  1  0
 87 90  1  1
 87 88  1  0
 89 87  1  0
M  ISO  4   5 101   8 100  21 100  50 101
M  END
>  <TORSDO>  (48) 
F 16

>  <SCORE>  (48) 
-12.666

>  <name>  (48) 
47

>  <ligand_id>  (48) 
47

>  <original_smiles>  (48) 
[H]c1c([H])c([H])c2c(c1[H])C([H])([H])C([H])([H])C([H])([H])C2([H])N([H])C(=O)C1([H])N(C(=O)C([H])(N([H])C(=O)C([H])(N([H])C([H])([H])[H])C([H])([H])[H])C(C([H])([H])[H])(C([H])([H])[H])C([H])([H])[H])C([H])([H])c2c([H])c(Oc3c([H])c([H])c(C4([H])N(C(=O)N5C([H])([H])C([H])([H])C([H])([H])C([H])(n6nc(-c7c([H])c([H])c(Oc8c([H])c([H])c(F)c([H])c8F)c([H])c7[H])c(C(=O)N([H])[H])c6N([H])[H])C5([H])[H])C([H])([H])C([H])([H])C([H])([H])C4([H])[H])c([H])c3F)c([H])c([H])c2C1([H])[H]

>  <smiles>  (48) 
[H]c1c([H])c([H])c2c(c1[H])C([H])([H])C([H])([H])C([H])([H])C2([H])N([H])C(=O)C1([H])N(C(=O)C([H])(N([H])C(=O)C([H])(N([H])C([H])([H])[H])C([H])([H])[H])C(C([H])([H])[H])(C([H])([H])[H])C([H])([H])[H])C([H])([H])c2c([H])c(Oc3c([H])c([H])c(C4([H])N(C(=O)N5C([H])([H])C([H])([H])C([H])([H])C([H])(n6nc(-c7c([H])c([H])c(Oc8c([H])c([H])c(F)c([H])c8F)c([H])c7[H])c(C(=O)N([H])[H])c6N([H])[H])C5([H])[H])C([H])([H])C([H])([H])C([H])([H])C4([H])[H])c([H])c3F)c([H])c([H])c2C1([H])[H]

$$$$
48:0:0
     RDKit          3D

101110  0  0  1  0  0  0  0  0999 V2000
  -31.1080  -24.9470   24.9740 C   0  0  0  0  0  3  0  0  0  0  0  0
  -32.1200  -24.1450   25.5240 C   0  0  0  0  0  3  0  0  0  0  0  0
  -33.3560  -24.2990   23.4370 C   0  0  0  0  0  3  0  0  0  0  0  0
  -31.1580  -25.3650   23.6190 C   0  0  0  0  0  0  0  0  0  0  0  0
  -33.2030  -23.7380   24.7220 C   0  0  0  0  0  0  0  0  0  0  0  0
  -32.3480  -25.1210   22.8930 C   0  0  0  0  0  0  0  0  0  0  0  0
  -32.5100  -25.6130   21.6420 F   0  0  0  0  0  0  0  0  0  0  0  0
  -27.4170  -26.4880   23.2140 C   0  0  0  0  0  2  0  0  0  0  0  0
  -28.7150  -26.0650   23.8880 C   0  0  0  0  0  2  0  0  0  0  0  0
  -27.0970  -25.5250   22.0650 C   0  0  0  0  0  2  0  0  0  0  0  0
  -29.5490  -25.1540   21.6440 C   0  0  0  0  0  2  0  0  0  0  0  0
  -29.9260  -25.9770   22.9200 C   0  0  0  0  0  3  0  0  0  0  0  0
  -28.2050  -25.5290   20.9760 C   0  0  0  0  0  3  0  0  0  0  0  0
  -28.3690  -26.7470   20.2210 O   0  0  0  0  0  0  0  0  0  0  0  0
  -24.6070  -31.8720   23.2120 C   0  0  0  0  0  0  0  0  0  0  0  0
  -27.2300  -27.4990   20.0740 C   0  0  0  0  0  0  0  0  0  0  0  0
  -23.3920  -30.4950   21.5510 C   0  0  0  0  0  3  0  0  0  0  0  0
  -24.8380  -28.9770   20.0950 C   0  0  0  0  0  0  0  0  0  0  0  0
  -25.9140  -30.8590   21.3540 C   0  0  0  0  0  2  0  0  0  0  0  0
  -25.9960  -29.5100   20.6770 C   0  0  0  0  0  0  0  0  0  0  0  0
  -27.2010  -28.7840   20.6480 C   0  0  0  0  0  3  0  0  0  0  0  0
  -26.0710  -26.9810   19.4570 C   0  0  0  0  0  3  0  0  0  0  0  0
  -24.8690  -27.7140   19.4760 C   0  0  0  0  0  3  0  0  0  0  0  0
  -23.5950  -29.8320   20.1630 C   0  0  0  0  0  2  0  0  0  0  0  0
  -24.6550  -31.0860   22.0990 N   0  0  0  0  0  0  0  0  0  0  0  0
  -23.5280  -32.1450   23.7570 O   0  0  0  0  0  0  0  0  0  0  0  0
  -22.7390  -29.4640   22.4990 C   0  0  0  0  0  0  0  0  0  0  0  0
  -21.4110  -29.2990   22.3740 N   0  0  0  0  0  0  0  0  0  0  0  0
  -23.4190  -28.8190   23.3010 O   0  0  0  0  0  0  0  0  0  0  0  0
  -20.9250  -29.8680   21.6950 H   0  0  0  0  0  0  0  0  0  0  0  0
  -18.0270  -28.1370   22.8470 C   0  0  0  0  0  0  0  0  0  0  0  0
  -20.5850  -28.3630   23.1330 C   0  0  0  0  0  3  0  0  0  0  0  0
  -20.6770  -26.9380   22.5430 C   0  0  0  0  0  2  0  0  0  0  0  0
  -19.5770  -26.6380   21.5200 C   0  0  0  0  0  2  0  0  0  0  0  0
  -18.1930  -26.7910   22.1590 C   0  0  0  0  0  2  0  0  0  0  0  0
  -19.1510  -28.8820   23.2890 C   0  0  0  0  0  0  0  0  0  0  0  0
  -18.9470  -30.1430   23.8890 C   0  0  0  0  0  3  0  0  0  0  0  0
  -17.6470  -30.6580   24.0570 C   0  0  0  0  0  3  0  0  0  0  0  0
  -16.5360  -29.9090   23.6330 C   0  0  0  0  0  3  0  0  0  0  0  0
  -16.7250  -28.6510   23.0320 C   0  0  0  0  0  3  0  0  0  0  0  0
  -25.9020  -32.4810   23.8370 C   0  0  0  0  0  3  0  0  0  0  0  0
  -26.4450  -31.6490   25.0650 C   0  0  1  0  0  0  0  0  0  0  0  0
  -25.3710  -31.3470   26.1380 C   0  0  0  0  0  1  0  0  0  0  0  0
  -27.0380  -30.3020   24.5860 C   0  0  0  0  0  1  0  0  0  0  0  0
  -27.5950  -32.4160   25.7580 C   0  0  0  0  0  1  0  0  0  0  0  0
  -25.5950  -33.8600   24.2380 N   0  0  0  0  0  0  0  0  0  0  0  0
  -25.9030  -34.9460   23.5160 C   0  0  0  0  0  0  0  0  0  0  0  0
  -26.5520  -34.8910   22.4680 O   0  0  0  0  0  0  0  0  0  0  0  0
  -25.0310  -33.9770   25.0680 H   0  0  0  0  0  0  0  0  0  0  0  0
  -24.1510  -36.7280   23.2630 C   0  0  0  0  0  1  0  0  0  0  0  0
  -25.4120  -36.3110   24.0370 C   0  0  0  0  0  3  0  0  0  0  0  0
  -27.5610  -37.1800   24.8480 C   0  0  0  0  0  1  0  0  0  0  0  0
  -26.4330  -37.3790   23.9420 N   0  0  0  0  0  0  0  0  0  0  0  0
  -26.0250  -38.2890   24.1390 H   0  0  0  0  0  0  0  0  0  0  0  0
  -34.8000  -22.8910   26.5020 C   0  0  0  0  0  1  0  0  0  0  0  0
  -34.0930  -22.5820   25.1710 C   0  0  0  0  0  3  0  0  0  0  0  0
  -33.3190  -21.3070   25.2300 N   0  0  0  0  0  4  0  0  0  0  0  0
  -33.9720  -20.5480   25.3420 H   0  0  0  0  0  0  0  0  0  0  0  0
  -32.7420  -21.3300   26.0550 H   0  0  0  0  0  0  0  0  0  0  0  0
  -32.4460  -21.0260   24.0550 C   0  0  0  0  0  2  0  0  0  0  0  0
  -31.5680  -19.7580   24.1850 C   0  0  0  0  0  2  0  0  0  0  0  0
  -32.0900  -18.5350   23.4060 C   0  0  0  0  0  2  0  0  0  0  0  0
  -31.0080  -17.4580   23.1720 C   0  0  0  0  0  2  0  0  0  0  0  0
  -31.4560  -16.3840   22.1630 C   0  0  0  0  0  2  0  0  0  0  0  0
  -30.3740  -15.3260   21.8330 C   0  0  0  0  0  2  0  0  0  0  0  0
  -30.7870  -14.3590   20.7030 C   0  0  0  0  0  0  0  0  0  0  0  0
  -30.4130  -12.2890   19.4000 C   0  0  0  0  0  2  0  0  0  0  0  0
  -29.4850  -12.5220   18.1950 C   0  0  0  0  0  2  0  0  0  0  0  0
  -28.0110  -12.3730   18.6140 C   0  0  0  0  0  2  0  0  0  0  0  0
  -27.6680  -13.2040   19.8790 C   0  0  0  0  0  3  0  0  0  0  0  0
  -28.7080  -12.9710   20.9980 C   0  0  0  0  0  2  0  0  0  0  0  0
  -30.0480  -13.2460   20.4560 N   0  0  0  0  0  0  0  0  0  0  0  0
  -31.8050  -14.6220   20.0530 O   0  0  0  0  0  0  0  0  0  0  0  0
  -25.2630  -13.8160   20.5690 C   0  0  0  0  0  0  0  0  0  0  0  0
  -24.1860  -13.0430   20.9160 C   0  0  0  0  0  0  0  0  0  0  0  0
  -24.6410  -11.6910   20.8720 C   0  0  0  0  0  0  0  0  0  0  0  0
  -26.3070  -12.9320   20.3400 N   0  0  0  0  0  0  0  0  0  0  0  0
  -25.9340  -11.6480   20.5760 N   0  0  0  0  0  0  0  0  0  0  0  0
  -23.9060  -10.4290   21.0390 C   0  0  0  0  0  0  0  0  0  0  0  0
  -24.3610   -9.4210   21.9170 C   0  0  0  0  0  3  0  0  0  0  0  0
  -23.6290   -8.2250   22.0750 C   0  0  0  0  0  3  0  0  0  0  0  0
  -22.4270   -8.0280   21.3540 C   0  0  0  0  0  0  0  0  0  0  0  0
  -21.9900   -9.0250   20.4640 C   0  0  0  0  0  3  0  0  0  0  0  0
  -22.7230  -10.2130   20.3040 C   0  0  0  0  0  3  0  0  0  0  0  0
  -21.6630   -6.8880   21.4240 O   0  0  0  0  0  0  0  0  0  0  0  0
  -21.6850   -6.0730   22.5280 C   0  0  0  0  0  0  0  0  0  0  0  0
  -21.4020   -6.5640   23.8210 C   0  0  0  0  0  3  0  0  0  0  0  0
  -21.3660   -5.6790   24.9180 C   0  0  0  0  0  3  0  0  0  0  0  0
  -21.6040   -4.3050   24.7230 C   0  0  0  0  0  0  0  0  0  0  0  0
  -21.8820   -3.8150   23.4350 C   0  0  0  0  0  3  0  0  0  0  0  0
  -21.9190   -4.6960   22.3400 C   0  0  0  0  0  0  0  0  0  0  0  0
  -22.1660   -4.2150   21.0980 F   0  0  0  0  0  0  0  0  0  0  0  0
  -21.5630   -3.4540   25.7740 F   0  0  0  0  0  0  0  0  0  0  0  0
  -22.7880  -13.5240   21.1820 C   0  0  0  0  0  0  0  0  0  0  0  0
  -22.0520  -12.8230   22.0380 N   0  0  0  0  0  0  0  0  0  0  0  0
  -22.3560  -14.5550   20.6670 O   0  0  0  0  0  0  0  0  0  0  0  0
  -22.4130  -11.9890   22.4770 H   0  0  0  0  0  0  0  0  0  0  0  0
  -21.1140  -13.1250   22.2570 H   0  0  0  0  0  0  0  0  0  0  0  0
  -25.4360  -15.1870   20.4110 N   0  0  0  0  0  0  0  0  0  0  0  0
  -24.6760  -15.8490   20.5240 H   0  0  0  0  0  0  0  0  0  0  0  0
  -26.3000  -15.6240   20.1130 H   0  0  0  0  0  0  0  0  0  0  0  0
  1  2  1  0
  3  5  1  0
  4  1  2  0
  5 56  1  0
  5  2  2  0
  6  3  2  0
  6  4  1  0
  7  6  1  0
  8  9  1  0
 10  8  1  0
 11 12  1  0
 12  4  1  0
 12  9  1  0
 13 14  1  0
 13 11  1  0
 13 10  1  0
 15 26  2  0
 16 14  1  0
 16 21  1  0
 17 25  1  0
 17 27  1  0
 18 24  1  0
 18 20  1  0
 19 25  1  0
 20 19  1  0
 21 20  2  0
 22 23  1  0
 22 16  2  0
 23 18  2  0
 24 17  1  0
 25 15  1  0
 27 29  2  0
 28 27  1  0
 30 28  1  0
 31 40  2  0
 31 36  1  0
 32 28  1  0
 32 36  1  0
 33 32  1  0
 34 35  1  0
 34 33  1  0
 35 31  1  0
 36 37  2  0
 37 38  1  0
 39 38  2  0
 40 39  1  0
 41 15  1  0
 41 46  1  0
 41 42  1  0
 42 45  1  1
 42 43  1  0
 44 42  1  0
 46 49  1  0
 47 51  1  0
 47 46  1  0
 48 47  2  0
 51 50  1  0
 53 51  1  0
 53 54  1  0
 53 52  1  0
 56 57  1  0
 56 55  1  0
 57 58  1  0
 57 59  1  0
 60 61  1  0
 60 57  1  0
 62 61  1  0
 63 62  1  0
 64 63  1  0
 65 64  1  0
 66 65  1  0
 67 72  1  0
 68 69  1  0
 68 67  1  0
 70 69  1  0
 70 77  1  0
 70 71  1  0
 72 66  1  0
 72 71  1  0
 73 66  2  0
 74 75  2  0
 75 94  1  0
 76 75  1  0
 76 79  1  0
 77 74  1  0
 77 78  1  0
 78 76  2  0
 79 80  1  0
 80 81  2  0
 82 85  1  0
 82 81  1  0
 83 82  2  0
 84 83  1  0
 84 79  2  0
 85 86  1  0
 86 87  1  0
 87 88  2  0
 89 88  1  0
 89 93  1  0
 90 89  2  0
 91 86  2  0
 91 90  1  0
 92 91  1  0
 94 95  1  0
 95 98  1  0
 95 97  1  0
 96 94  2  0
 99100  1  0
 99 74  1  0
101 99  1  0
M  ISO  4  13 101  14 101  65 100  66 100
M  END
>  <TORSDO>  (49) 
F 25

>  <SCORE>  (49) 
38.397

>  <name>  (49) 
48

>  <ligand_id>  (49) 
48

>  <original_smiles>  (49) 
[H]c1c([H])c([H])c2c(c1[H])C([H])([H])C([H])([H])C([H])([H])C2([H])N([H])C(=O)C1([H])N(C(=O)C([H])(N([H])C(=O)C([H])(N([H])C([H])([H])[H])C([H])([H])[H])C(C([H])([H])[H])(C([H])([H])[H])C([H])([H])[H])C([H])([H])c2c([H])c(OC3([H])C([H])([H])C([H])([H])C([H])([H])C([H])(c4c([H])c([H])c(C([H])(C([H])([H])[H])[N+]([H])([H])C([H])([H])C([H])([H])C([H])([H])C([H])([H])C([H])([H])C([H])([H])C(=O)N5C([H])([H])C([H])([H])C([H])([H])C([H])(n6nc(-c7c([H])c([H])c(Oc8c([H])c([H])c(F)c([H])c8F)c([H])c7[H])c(C(=O)N([H])[H])c6N([H])[H])C5([H])[H])c([H])c4F)C3([H])[H])c([H])c([H])c2C1([H])[H]

>  <smiles>  (49) 
[H]c1c([H])c([H])c2c(c1[H])C([H])([H])C([H])([H])C([H])([H])C2([H])N([H])C(=O)C1([H])N(C(=O)C([H])(N([H])C(=O)C([H])(N([H])C([H])([H])[H])C([H])([H])[H])C(C([H])([H])[H])(C([H])([H])[H])C([H])([H])[H])C([H])([H])c2c([H])c(OC3([H])C([H])([H])C([H])([H])C([H])([H])C([H])(c4c([H])c([H])c(C([H])(C([H])([H])[H])[N+]([H])([H])C([H])([H])C([H])([H])C([H])([H])C([H])([H])C([H])([H])C([H])([H])C(=O)N5C([H])([H])C([H])([H])C([H])([H])C([H])(n6nc(-c7c([H])c([H])c(Oc8c([H])c([H])c(F)c([H])c8F)c([H])c7[H])c(C(=O)N([H])[H])c6N([H])[H])C5([H])[H])c([H])c4F)C3([H])[H])c([H])c([H])c2C1([H])[H]

$$$$
49:0:0
     RDKit          3D

101110  0  0  1  0  0  0  0  0999 V2000
  -30.3800  -24.5670   23.8930 C   0  0  0  0  0  3  0  0  0  0  0  0
  -30.6340  -23.1930   23.7310 C   0  0  0  0  0  3  0  0  0  0  0  0
  -30.7800  -24.9130   21.5160 C   0  0  0  0  0  3  0  0  0  0  0  0
  -30.4300  -25.4330   22.7830 C   0  0  0  0  0  0  0  0  0  0  0  0
  -30.9220  -22.6590   22.4570 C   0  0  0  0  0  0  0  0  0  0  0  0
  -31.0110  -23.5320   21.3390 C   0  0  0  0  0  0  0  0  0  0  0  0
  -32.8110  -22.8200   19.6840 C   0  0  0  0  0  1  0  0  0  0  0  0
  -31.3120  -23.0280   19.9310 C   0  0  0  0  0  2  0  0  0  0  0  0
  -31.0570  -21.1460   22.3230 C   0  0  0  0  0  2  0  0  0  0  0  0
  -29.8960  -20.5720   21.4880 C   0  0  0  0  0  2  0  0  0  0  0  0
  -29.8370  -18.1950   22.5300 C   0  0  0  0  0  2  0  0  0  0  0  0
  -30.9920  -18.5240   20.3270 C   0  0  0  0  0  2  0  0  0  0  0  0
  -29.4970  -16.7160   22.2220 C   0  0  0  0  0  2  0  0  0  0  0  0
  -31.0370  -16.9800   20.2030 C   0  0  0  0  0  2  0  0  0  0  0  0
  -29.8730  -19.0440   21.2520 C   0  0  0  0  0  3  0  0  0  0  0  0
  -29.7690  -16.2800   20.7540 C   0  0  0  0  0  3  0  0  0  0  0  0
  -30.2940  -13.9690   19.7770 C   0  0  0  0  0  0  0  0  0  0  0  0
  -30.0400  -11.7680   18.6840 C   0  0  0  0  0  2  0  0  0  0  0  0
  -28.9850  -11.8590   17.5620 C   0  0  0  0  0  2  0  0  0  0  0  0
  -27.5670  -11.6320   18.1210 C   0  0  0  0  0  2  0  0  0  0  0  0
  -27.2780  -12.5000   19.3740 C   0  0  0  0  0  3  0  0  0  0  0  0
  -28.4310  -12.3790   20.3970 C   0  0  0  0  0  2  0  0  0  0  0  0
  -29.6930  -12.7500   19.7230 N   0  0  0  0  0  0  0  0  0  0  0  0
  -31.2310  -14.2850   19.0400 O   0  0  0  0  0  0  0  0  0  0  0  0
  -29.7500  -14.8110   20.6750 N   0  0  0  0  0  0  0  0  0  0  0  0
  -29.0520  -14.3680   21.2530 H   0  0  0  0  0  0  0  0  0  0  0  0
  -24.9230  -12.9920   20.3000 C   0  0  0  0  0  0  0  0  0  0  0  0
  -23.9360  -12.1700   20.7740 C   0  0  0  0  0  0  0  0  0  0  0  0
  -24.4590  -10.8430   20.7020 C   0  0  0  0  0  0  0  0  0  0  0  0
  -25.9860  -12.1630   19.9740 N   0  0  0  0  0  0  0  0  0  0  0  0
  -25.7140  -10.8650   20.2680 N   0  0  0  0  0  0  0  0  0  0  0  0
  -23.8200   -9.5480   20.9670 C   0  0  0  0  0  0  0  0  0  0  0  0
  -24.3070   -8.6780   21.9670 C   0  0  0  0  0  3  0  0  0  0  0  0
  -23.6660   -7.4460   22.2180 C   0  0  0  0  0  3  0  0  0  0  0  0
  -22.5260   -7.0730   21.4680 C   0  0  0  0  0  0  0  0  0  0  0  0
  -22.0580   -7.9320   20.4580 C   0  0  0  0  0  3  0  0  0  0  0  0
  -22.6990   -9.1570   20.2070 C   0  0  0  0  0  3  0  0  0  0  0  0
  -21.8560   -5.8830   21.6220 O   0  0  0  0  0  0  0  0  0  0  0  0
  -21.7350   -5.2790   22.8480 C   0  0  0  0  0  0  0  0  0  0  0  0
  -21.1300   -5.9330   23.9430 C   0  0  0  0  0  3  0  0  0  0  0  0
  -20.9630   -5.2490   25.1650 C   0  0  0  0  0  3  0  0  0  0  0  0
  -21.3890   -3.9130   25.2910 C   0  0  0  0  0  0  0  0  0  0  0  0
  -21.9850   -3.2600   24.1990 C   0  0  0  0  0  3  0  0  0  0  0  0
  -22.1550   -3.9400   22.9800 C   0  0  0  0  0  0  0  0  0  0  0  0
  -22.7110   -3.2970   21.9250 F   0  0  0  0  0  0  0  0  0  0  0  0
  -21.2200   -3.2560   26.4610 F   0  0  0  0  0  0  0  0  0  0  0  0
  -22.5510  -12.5800   21.1810 C   0  0  0  0  0  0  0  0  0  0  0  0
  -21.9510  -11.8650   22.1280 N   0  0  0  0  0  0  0  0  0  0  0  0
  -22.0070  -13.5690   20.6920 O   0  0  0  0  0  0  0  0  0  0  0  0
  -22.4030  -11.0680   22.5500 H   0  0  0  0  0  0  0  0  0  0  0  0
  -21.0260  -12.1270   22.4380 H   0  0  0  0  0  0  0  0  0  0  0  0
  -24.9970  -14.3680   20.1040 N   0  0  0  0  0  0  0  0  0  0  0  0
  -24.2100  -14.9810   20.2900 H   0  0  0  0  0  0  0  0  0  0  0  0
  -25.7930  -14.8540   19.7070 H   0  0  0  0  0  0  0  0  0  0  0  0
  -30.0570  -26.9050   22.9450 C   0  0  0  0  0  2  0  0  0  0  0  0
  -29.1920  -28.9460   21.8990 C   0  0  0  0  0  1  0  0  0  0  0  0
  -29.4800  -27.5010   21.7090 N   0  0  2  0  0  4  0  0  0  0  0  0
  -30.2240  -27.4490   21.0280 H   0  0  0  0  0  0  0  0  0  0  0  0
  -28.3150  -26.7500   21.1510 C   0  0  0  0  0  2  0  0  0  0  0  0
  -28.2160  -26.8560   19.6130 C   0  0  0  0  0  2  0  0  0  0  0  0
  -26.8750  -26.6890   19.1500 O   0  0  0  0  0  0  0  0  0  0  0  0
  -24.3760  -31.4740   23.8310 C   0  0  0  0  0  0  0  0  0  0  0  0
  -25.9160  -27.6130   19.5120 C   0  0  0  0  0  0  0  0  0  0  0  0
  -22.8100  -30.7860   22.0410 C   0  0  0  0  0  3  0  0  0  0  0  0
  -23.8370  -29.4290   20.1400 C   0  0  0  0  0  0  0  0  0  0  0  0
  -25.3340  -30.7490   21.6520 C   0  0  0  0  0  2  0  0  0  0  0  0
  -25.1080  -29.5930   20.7030 C   0  0  0  0  0  0  0  0  0  0  0  0
  -26.1470  -28.6990   20.3910 C   0  0  0  0  0  3  0  0  0  0  0  0
  -24.6270  -27.4540   18.9610 C   0  0  0  0  0  3  0  0  0  0  0  0
  -23.5880  -28.3560   19.2650 C   0  0  0  0  0  3  0  0  0  0  0  0
  -22.7890  -30.4480   20.5230 C   0  0  0  0  0  2  0  0  0  0  0  0
  -24.1980  -30.9980   22.5670 N   0  0  0  0  0  0  0  0  0  0  0  0
  -23.4090  -31.7870   24.5400 O   0  0  0  0  0  0  0  0  0  0  0  0
  -22.0320  -29.6840   22.7920 C   0  0  0  0  0  0  0  0  0  0  0  0
  -20.6990  -29.6810   22.6320 N   0  0  0  0  0  0  0  0  0  0  0  0
  -22.6250  -28.8420   23.4720 O   0  0  0  0  0  0  0  0  0  0  0  0
  -20.2890  -30.4110   22.0660 H   0  0  0  0  0  0  0  0  0  0  0  0
  -17.2230  -28.7130   22.7390 C   0  0  0  0  0  0  0  0  0  0  0  0
  -19.7650  -28.7170   23.2090 C   0  0  0  0  0  3  0  0  0  0  0  0
  -19.8060  -27.3730   22.4450 C   0  0  0  0  0  2  0  0  0  0  0  0
  -18.7610  -27.2830   21.3280 C   0  0  0  0  0  2  0  0  0  0  0  0
  -17.3500  -27.4550   21.8950 C   0  0  0  0  0  2  0  0  0  0  0  0
  -18.3590  -29.3140   23.3420 C   0  0  0  0  0  0  0  0  0  0  0  0
  -18.1890  -30.5010   24.0850 C   0  0  0  0  0  3  0  0  0  0  0  0
  -16.9150  -31.0810   24.2350 C   0  0  0  0  0  3  0  0  0  0  0  0
  -15.7930  -30.4710   23.6480 C   0  0  0  0  0  3  0  0  0  0  0  0
  -15.9480  -29.2900   22.9040 C   0  0  0  0  0  3  0  0  0  0  0  0
  -25.7990  -31.6760   24.4390 C   0  0  0  0  0  3  0  0  0  0  0  0
  -25.8150  -32.9880   25.1000 N   0  0  0  0  0  0  0  0  0  0  0  0
  -26.4220  -34.0780   24.6130 C   0  0  0  0  0  0  0  0  0  0  0  0
  -27.0980  -34.0630   23.5790 O   0  0  0  0  0  0  0  0  0  0  0  0
  -25.2370  -33.0850   25.9230 H   0  0  0  0  0  0  0  0  0  0  0  0
  -25.2130  -36.2810   24.6890 C   0  0  0  0  0  1  0  0  0  0  0  0
  -26.2540  -35.3950   25.3930 C   0  0  0  0  0  3  0  0  0  0  0  0
  -28.4720  -35.4790   26.4430 C   0  0  0  0  0  1  0  0  0  0  0  0
  -27.5160  -36.1460   25.5620 N   0  0  0  0  0  0  0  0  0  0  0  0
  -27.3360  -37.0730   25.9370 H   0  0  0  0  0  0  0  0  0  0  0  0
  -26.2160  -30.5350   25.4440 C   0  0  1  0  0  0  0  0  0  0  0  0
  -25.1540  -30.2460   26.5320 C   0  0  0  0  0  1  0  0  0  0  0  0
  -26.4870  -29.2150   24.6840 C   0  0  0  0  0  1  0  0  0  0  0  0
  -27.5350  -30.9210   26.1540 C   0  0  0  0  0  1  0  0  0  0  0  0
  2  1  1  0
  3  4  1  0
  4 55  1  0
  4  1  2  0
  5  2  2  0
  6  3  2  0
  6  5  1  0
  7  8  1  0
  8  6  1  0
  9  5  1  0
 10  9  1  0
 12 15  1  0
 13 11  1  0
 14 12  1  0
 14 16  1  0
 15 10  1  0
 15 11  1  0
 16 25  1  0
 16 13  1  0
 17 25  1  0
 18 23  1  0
 19 20  1  0
 19 18  1  0
 21 20  1  0
 21 30  1  0
 21 22  1  0
 23 17  1  0
 23 22  1  0
 24 17  2  0
 25 26  1  0
 27 28  2  0
 28 47  1  0
 29 28  1  0
 29 32  1  0
 30 31  1  0
 30 27  1  0
 31 29  2  0
 32 33  1  0
 33 34  2  0
 35 38  1  0
 35 34  1  0
 36 35  2  0
 37 36  1  0
 37 32  2  0
 38 39  1  0
 39 44  2  0
 39 40  1  0
 40 41  2  0
 41 42  1  0
 42 46  1  0
 43 42  2  0
 44 43  1  0
 45 44  1  0
 47 48  1  0
 48 51  1  0
 48 50  1  0
 49 47  2  0
 52 53  1  0
 52 27  1  0
 54 52  1  0
 57 56  1  0
 57 55  1  0
 57 58  1  6
 59 57  1  0
 60 59  1  0
 61 63  1  0
 61 60  1  0
 62 73  2  0
 63 68  1  0
 64 72  1  0
 64 74  1  0
 65 71  1  0
 65 67  1  0
 66 72  1  0
 67 66  1  0
 68 67  2  0
 69 70  1  0
 69 63  2  0
 70 65  2  0
 71 64  1  0
 72 62  1  0
 74 76  2  0
 75 74  1  0
 77 75  1  0
 78 87  2  0
 78 83  1  0
 79 75  1  0
 79 83  1  0
 80 79  1  0
 81 82  1  0
 81 80  1  0
 82 78  1  0
 83 84  2  0
 84 85  1  0
 86 85  2  0
 87 86  1  0
 88 62  1  0
 88 89  1  0
 88 98  1  0
 89 92  1  0
 90 89  1  0
 90 94  1  0
 91 90  2  0
 94 93  1  0
 94 96  1  0
 96 97  1  0
 96 95  1  0
 98101  1  1
 98 99  1  0
100 98  1  0
M  ISO  4  17 100  25 100  60 101  61 101
M  END
>  <TORSDO>  (50) 
F 24

>  <SCORE>  (50) 
-3.920

>  <name>  (50) 
49

>  <ligand_id>  (50) 
49

>  <original_smiles>  (50) 
[H]c1c([H])c([H])c2c(c1[H])C([H])([H])C([H])([H])C([H])([H])C2([H])N([H])C(=O)C1([H])N(C(=O)C([H])(N([H])C(=O)C([H])(N([H])C([H])([H])[H])C([H])([H])[H])C(C([H])([H])[H])(C([H])([H])[H])C([H])([H])[H])C([H])([H])c2c([H])c(OC([H])([H])C([H])([H])[N+]([H])(C([H])([H])[H])C([H])([H])c3c([H])c([H])c(C([H])([H])C([H])([H])C4([H])C([H])([H])C([H])([H])C([H])(N([H])C(=O)N5C([H])([H])C([H])([H])C([H])([H])C([H])(n6nc(-c7c([H])c([H])c(Oc8c([H])c([H])c(F)c([H])c8F)c([H])c7[H])c(C(=O)N([H])[H])c6N([H])[H])C5([H])[H])C([H])([H])C4([H])[H])c(C([H])([H])C([H])([H])[H])c3[H])c([H])c([H])c2C1([H])[H]

>  <smiles>  (50) 
[H]c1c([H])c([H])c2c(c1[H])C([H])([H])C([H])([H])C([H])([H])C2([H])N([H])C(=O)C1([H])N(C(=O)C([H])(N([H])C(=O)C([H])(N([H])C([H])([H])[H])C([H])([H])[H])C(C([H])([H])[H])(C([H])([H])[H])C([H])([H])[H])C([H])([H])c2c([H])c(OC([H])([H])C([H])([H])[N+]([H])(C([H])([H])[H])C([H])([H])c3c([H])c([H])c(C([H])([H])C([H])([H])C4([H])C([H])([H])C([H])([H])C([H])(N([H])C(=O)N5C([H])([H])C([H])([H])C([H])([H])C([H])(n6nc(-c7c([H])c([H])c(Oc8c([H])c([H])c(F)c([H])c8F)c([H])c7[H])c(C(=O)N([H])[H])c6N([H])[H])C5([H])[H])C([H])([H])C4([H])[H])c(C([H])([H])C([H])([H])[H])c3[H])c([H])c([H])c2C1([H])[H]

$$$$
50:0:0
     RDKit          3D

 94102  0  0  1  0  0  0  0  0999 V2000
  -29.0720  -26.4880   22.9690 C   0  0  0  0  0  3  0  0  0  0  0  0
  -28.8980  -27.3810   21.9030 C   0  0  0  0  0  3  0  0  0  0  0  0
  -28.8400  -25.5320   20.3400 C   0  0  0  0  0  3  0  0  0  0  0  0
  -29.1350  -24.6300   21.3940 C   0  0  0  0  0  0  0  0  0  0  0  0
  -29.1530  -25.1040   22.7390 C   0  0  0  0  0  0  0  0  0  0  0  0
  -28.6880  -26.9130   20.5850 C   0  0  0  0  0  0  0  0  0  0  0  0
  -29.4200  -23.2180   21.0370 C   0  0  0  0  0  0  0  0  0  0  0  0
  -28.6930  -22.5400   20.3050 O   0  0  0  0  0  0  0  0  0  0  0  0
  -30.7690  -22.6780   21.5370 C   0  0  0  0  0  2  0  0  0  0  0  0
  -31.2700  -21.4160   20.8200 C   0  0  0  0  0  2  0  0  0  0  0  0
  -31.0680  -20.1220   21.6220 C   0  0  0  0  0  2  0  0  0  0  0  0
  -31.5310  -18.9140   20.8030 C   0  0  0  0  0  2  0  0  0  0  0  0
  -31.1340  -17.5640   21.4080 C   0  0  0  0  0  2  0  0  0  0  0  0
  -31.4720  -16.4360   20.4280 C   0  0  0  0  0  2  0  0  0  0  0  0
  -30.7820  -15.1060   20.7630 C   0  0  0  0  0  2  0  0  0  0  0  0
  -31.1660  -13.9820   19.7910 C   0  0  0  0  0  0  0  0  0  0  0  0
  -30.7650  -11.7060   18.9250 C   0  0  0  0  0  2  0  0  0  0  0  0
  -29.7350  -11.7160   17.7820 C   0  0  0  0  0  2  0  0  0  0  0  0
  -28.3030  -11.6400   18.3430 C   0  0  0  0  0  2  0  0  0  0  0  0
  -28.0460  -12.6860   19.4600 C   0  0  0  0  0  3  0  0  0  0  0  0
  -29.1740  -12.6430   20.5140 C   0  0  0  0  0  2  0  0  0  0  0  0
  -30.4580  -12.8290   19.8190 N   0  0  0  0  0  0  0  0  0  0  0  0
  -32.1200  -14.1550   19.0220 O   0  0  0  0  0  0  0  0  0  0  0  0
  -25.7910  -13.4500   20.4450 C   0  0  0  0  0  0  0  0  0  0  0  0
  -24.7050  -12.7460   20.8940 C   0  0  0  0  0  0  0  0  0  0  0  0
  -25.0440  -11.3650   20.7520 C   0  0  0  0  0  0  0  0  0  0  0  0
  -26.7300  -12.5010   20.0670 N   0  0  0  0  0  0  0  0  0  0  0  0
  -26.2860  -11.2390   20.3040 N   0  0  0  0  0  0  0  0  0  0  0  0
  -24.2400  -10.1560   20.9650 C   0  0  0  0  0  0  0  0  0  0  0  0
  -24.6240   -9.1680   21.8980 C   0  0  0  0  0  3  0  0  0  0  0  0
  -23.8240   -8.0220   22.0980 C   0  0  0  0  0  3  0  0  0  0  0  0
  -22.6260   -7.8560   21.3640 C   0  0  0  0  0  0  0  0  0  0  0  0
  -22.2600   -8.8310   20.4190 C   0  0  0  0  0  3  0  0  0  0  0  0
  -23.0600   -9.9690   20.2180 C   0  0  0  0  0  3  0  0  0  0  0  0
  -21.8000   -6.7630   21.4730 O   0  0  0  0  0  0  0  0  0  0  0  0
  -21.6690   -6.0740   22.6520 C   0  0  0  0  0  0  0  0  0  0  0  0
  -21.1820   -6.6910   23.8250 C   0  0  0  0  0  3  0  0  0  0  0  0
  -20.9970   -5.9300   24.9970 C   0  0  0  0  0  3  0  0  0  0  0  0
  -21.2900   -4.5530   24.9950 C   0  0  0  0  0  0  0  0  0  0  0  0
  -21.7700   -3.9360   23.8270 C   0  0  0  0  0  3  0  0  0  0  0  0
  -21.9560   -4.6940   22.6580 C   0  0  0  0  0  0  0  0  0  0  0  0
  -22.3990   -4.0900   21.5300 F   0  0  0  0  0  0  0  0  0  0  0  0
  -21.1040   -3.8200   26.1170 F   0  0  0  0  0  0  0  0  0  0  0  0
  -23.3890  -13.3150   21.3400 C   0  0  0  0  0  0  0  0  0  0  0  0
  -22.7080  -12.6400   22.2580 N   0  0  0  0  0  0  0  0  0  0  0  0
  -22.9790  -14.3920   20.9090 O   0  0  0  0  0  0  0  0  0  0  0  0
  -23.0520  -11.7670   22.6280 H   0  0  0  0  0  0  0  0  0  0  0  0
  -21.8290  -13.0020   22.5990 H   0  0  0  0  0  0  0  0  0  0  0  0
  -26.0520  -14.8100   20.3110 N   0  0  0  0  0  0  0  0  0  0  0  0
  -25.3630  -15.5220   20.5300 H   0  0  0  0  0  0  0  0  0  0  0  0
  -26.9090  -15.1920   19.9300 H   0  0  0  0  0  0  0  0  0  0  0  0
  -30.6440  -24.0640   24.5330 C   0  0  0  0  0  1  0  0  0  0  0  0
  -29.2240  -24.2040   23.9720 C   0  0  0  0  0  2  0  0  0  0  0  0
  -28.3560  -27.7700   19.5500 O   0  0  0  0  0  0  0  0  0  0  0  0
  -24.4680  -32.1090   23.5360 C   0  0  0  0  0  0  0  0  0  0  0  0
  -27.1480  -28.4210   19.6690 C   0  0  0  0  0  0  0  0  0  0  0  0
  -23.2210  -30.9040   21.7670 C   0  0  0  0  0  3  0  0  0  0  0  0
  -24.6540  -29.7010   20.0300 C   0  0  0  0  0  0  0  0  0  0  0  0
  -25.6890  -31.4820   21.4600 C   0  0  0  0  0  2  0  0  0  0  0  0
  -25.8080  -30.2390   20.6040 C   0  0  0  0  0  0  0  0  0  0  0  0
  -27.0540  -29.6310   20.3890 C   0  0  0  0  0  3  0  0  0  0  0  0
  -25.9810  -27.8840   19.0870 C   0  0  0  0  0  3  0  0  0  0  0  0
  -24.7350  -28.5270   19.2550 C   0  0  0  0  0  3  0  0  0  0  0  0
  -23.3640  -30.4500   20.2870 C   0  0  0  0  0  2  0  0  0  0  0  0
  -24.4800  -31.5020   22.3150 N   0  0  0  0  0  0  0  0  0  0  0  0
  -23.4170  -32.2200   24.1830 O   0  0  0  0  0  0  0  0  0  0  0  0
  -22.6980  -29.7080   22.5930 C   0  0  0  0  0  0  0  0  0  0  0  0
  -21.4080  -29.3820   22.4140 N   0  0  0  0  0  0  0  0  0  0  0  0
  -23.4480  -29.0820   23.3450 O   0  0  0  0  0  0  0  0  0  0  0  0
  -20.8580  -29.9500   21.7840 H   0  0  0  0  0  0  0  0  0  0  0  0
  -18.2470  -27.6460   22.5710 C   0  0  0  0  0  0  0  0  0  0  0  0
  -20.7080  -28.2720   23.0550 C   0  0  0  0  0  3  0  0  0  0  0  0
  -21.0740  -26.9270   22.3860 C   0  0  0  0  0  2  0  0  0  0  0  0
  -20.1040  -26.5230   21.2720 C   0  0  0  0  0  2  0  0  0  0  0  0
  -18.6790  -26.4000   21.8180 C   0  0  0  0  0  2  0  0  0  0  0  0
  -19.1990  -28.5340   23.1380 C   0  0  0  0  0  0  0  0  0  0  0  0
  -18.7430  -29.6960   23.7980 C   0  0  0  0  0  3  0  0  0  0  0  0
  -17.3670  -29.9750   23.8940 C   0  0  0  0  0  3  0  0  0  0  0  0
  -16.4280  -29.0870   23.3420 C   0  0  0  0  0  3  0  0  0  0  0  0
  -16.8690  -27.9230   22.6880 C   0  0  0  0  0  3  0  0  0  0  0  0
  -25.7630  -32.7100   24.1700 C   0  0  0  0  0  3  0  0  0  0  0  0
  -26.2390  -31.9440   25.4640 C   0  0  1  0  0  0  0  0  0  0  0  0
  -25.1210  -31.7360   26.5130 C   0  0  0  0  0  1  0  0  0  0  0  0
  -26.8070  -30.5540   25.0940 C   0  0  0  0  0  1  0  0  0  0  0  0
  -27.3920  -32.7230   26.1400 C   0  0  0  0  0  1  0  0  0  0  0  0
  -25.4910  -34.1210   24.4720 N   0  0  0  0  0  0  0  0  0  0  0  0
  -25.8770  -35.1490   23.7040 C   0  0  0  0  0  0  0  0  0  0  0  0
  -26.5680  -35.0080   22.6930 O   0  0  0  0  0  0  0  0  0  0  0  0
  -24.8820  -34.3080   25.2550 H   0  0  0  0  0  0  0  0  0  0  0  0
  -24.2300  -36.9950   23.2570 C   0  0  0  0  0  1  0  0  0  0  0  0
  -25.4200  -36.5600   24.1260 C   0  0  0  0  0  3  0  0  0  0  0  0
  -27.5440  -37.3820   25.0420 C   0  0  0  0  0  1  0  0  0  0  0  0
  -26.4940  -37.5730   24.0460 N   0  0  0  0  0  0  0  0  0  0  0  0
  -26.1140  -38.5090   24.1630 H   0  0  0  0  0  0  0  0  0  0  0  0
  2  1  2  0
  3  6  2  0
  3  4  1  0
  4  5  2  0
  5  1  1  0
  5 53  1  0
  6  2  1  0
  7  4  1  0
  7  9  1  0
  8  7  2  0
 10  9  1  0
 10 11  1  0
 12 13  1  0
 12 11  1  0
 14 15  1  0
 14 13  1  0
 16 22  1  0
 16 15  1  0
 17 22  1  0
 18 19  1  0
 18 17  1  0
 20 19  1  0
 20 27  1  0
 20 21  1  0
 22 21  1  0
 23 16  2  0
 24 25  2  0
 25 44  1  0
 26 25  1  0
 26 29  1  0
 27 28  1  0
 27 24  1  0
 28 26  2  0
 29 30  1  0
 30 31  2  0
 32 35  1  0
 32 31  1  0
 33 32  2  0
 34 33  1  0
 34 29  2  0
 35 36  1  0
 36 41  2  0
 36 37  1  0
 37 38  2  0
 39 38  1  0
 39 43  1  0
 40 39  2  0
 41 40  1  0
 42 41  1  0
 44 45  1  0
 45 48  1  0
 45 47  1  0
 46 44  2  0
 49 24  1  0
 49 50  1  0
 51 49  1  0
 53 52  1  0
 54 56  1  0
 54  6  1  0
 55 66  2  0
 56 61  1  0
 57 65  1  0
 57 67  1  0
 58 64  1  0
 58 60  1  0
 59 65  1  0
 60 59  1  0
 61 60  2  0
 62 63  1  0
 62 56  2  0
 63 58  2  0
 64 57  1  0
 65 55  1  0
 67 69  2  0
 68 67  1  0
 70 68  1  0
 71 80  2  0
 71 76  1  0
 72 68  1  0
 72 76  1  0
 73 72  1  0
 74 75  1  0
 74 73  1  0
 75 71  1  0
 76 77  2  0
 77 78  1  0
 79 78  2  0
 80 79  1  0
 81 55  1  0
 81 86  1  0
 81 82  1  0
 82 85  1  1
 82 83  1  0
 84 82  1  0
 86 89  1  0
 87 91  1  0
 87 86  1  0
 88 87  2  0
 91 90  1  0
 93 91  1  0
 93 94  1  0
 93 92  1  0
M  ISO  4   6 101  15 100  16 100  54 101
M  END
>  <TORSDO>  (51) 
F 25

>  <SCORE>  (51) 
-8.109

>  <name>  (51) 
50

>  <ligand_id>  (51) 
50

>  <original_smiles>  (51) 
[H]c1c([H])c([H])c2c(c1[H])C([H])([H])C([H])([H])C([H])([H])C2([H])N([H])C(=O)C1([H])N(C(=O)C([H])(N([H])C(=O)C([H])(N([H])C([H])([H])[H])C([H])([H])[H])C(C([H])([H])[H])(C([H])([H])[H])C([H])([H])[H])C([H])([H])c2c([H])c(Oc3c([H])c([H])c(C([H])([H])C([H])([H])[H])c(C(=O)C([H])([H])C([H])([H])C([H])([H])C([H])([H])C([H])([H])C([H])([H])C([H])([H])C(=O)N4C([H])([H])C([H])([H])C([H])([H])C([H])(n5nc(-c6c([H])c([H])c(Oc7c([H])c([H])c(F)c([H])c7F)c([H])c6[H])c(C(=O)N([H])[H])c5N([H])[H])C4([H])[H])c3[H])c([H])c([H])c2C1([H])[H]

>  <smiles>  (51) 
[H]c1c([H])c([H])c2c(c1[H])C([H])([H])C([H])([H])C([H])([H])C2([H])N([H])C(=O)C1([H])N(C(=O)C([H])(N([H])C(=O)C([H])(N([H])C([H])([H])[H])C([H])([H])[H])C(C([H])([H])[H])(C([H])([H])[H])C([H])([H])[H])C([H])([H])c2c([H])c(Oc3c([H])c([H])c(C([H])([H])C([H])([H])[H])c(C(=O)C([H])([H])C([H])([H])C([H])([H])C([H])([H])C([H])([H])C([H])([H])C([H])([H])C(=O)N4C([H])([H])C([H])([H])C([H])([H])C([H])(n5nc(-c6c([H])c([H])c(Oc7c([H])c([H])c(F)c([H])c7F)c([H])c6[H])c(C(=O)N([H])[H])c5N([H])[H])C4([H])[H])c3[H])c([H])c([H])c2C1([H])[H]

$$$$
51:0:0
     RDKit          3D

 90 98  0  0  1  0  0  0  0  0999 V2000
  -28.4830  -23.3670   17.6940 C   0  0  0  0  0  3  0  0  0  0  0  0
  -28.6380  -23.5370   20.4190 C   0  0  0  0  0  3  0  0  0  0  0  0
  -28.7990  -22.1860   18.4080 C   0  0  0  0  0  0  0  0  0  0  0  0
  -28.2910  -24.6370   18.2870 C   0  0  0  0  0  0  0  0  0  0  0  0
  -28.8870  -22.1770   19.8250 C   0  0  0  0  0  0  0  0  0  0  0  0
  -28.3250  -24.8150   19.6950 C   0  0  0  0  0  0  0  0  0  0  0  0
  -29.1100  -20.9540   17.5730 C   0  0  0  0  0  1  0  0  0  0  0  0
  -28.1150  -25.8080   17.3300 C   0  0  0  0  0  1  0  0  0  0  0  0
  -28.2630  -26.2030   20.2130 O   0  0  0  0  0  0  0  0  0  0  0  0
  -24.6320  -31.9110   23.1960 C   0  0  0  0  0  0  0  0  0  0  0  0
  -27.1810  -27.1690   20.1530 C   0  0  0  0  0  0  0  0  0  0  0  0
  -23.4130  -30.4980   21.5880 C   0  0  0  0  0  3  0  0  0  0  0  0
  -24.8400  -28.9100   20.1530 C   0  0  0  0  0  0  0  0  0  0  0  0
  -25.9630  -30.7670   21.3750 C   0  0  0  0  0  2  0  0  0  0  0  0
  -26.0300  -29.3670   20.7340 C   0  0  0  0  0  0  0  0  0  0  0  0
  -27.1980  -28.5140   20.7130 C   0  0  0  0  0  3  0  0  0  0  0  0
  -25.9520  -26.8050   19.5610 C   0  0  0  0  0  3  0  0  0  0  0  0
  -24.8150  -27.6430   19.5500 C   0  0  0  0  0  3  0  0  0  0  0  0
  -23.6140  -29.8090   20.2120 C   0  0  0  0  0  2  0  0  0  0  0  0
  -24.6920  -31.0810   22.1090 N   0  0  0  0  0  0  0  0  0  0  0  0
  -23.5530  -32.1940   23.7390 O   0  0  0  0  0  0  0  0  0  0  0  0
  -22.7520  -29.4980   22.5700 C   0  0  0  0  0  0  0  0  0  0  0  0
  -21.4250  -29.3110   22.4560 N   0  0  0  0  0  0  0  0  0  0  0  0
  -23.4370  -28.8940   23.3990 O   0  0  0  0  0  0  0  0  0  0  0  0
  -20.9280  -29.8580   21.7690 H   0  0  0  0  0  0  0  0  0  0  0  0
  -18.0650  -28.0520   22.9810 C   0  0  0  0  0  0  0  0  0  0  0  0
  -20.6180  -28.3710   23.2440 C   0  0  0  0  0  3  0  0  0  0  0  0
  -20.7470  -26.9290   22.6990 C   0  0  0  0  0  2  0  0  0  0  0  0
  -19.6530  -26.5630   21.6920 C   0  0  0  0  0  2  0  0  0  0  0  0
  -18.2670  -26.6940   22.3320 C   0  0  0  0  0  2  0  0  0  0  0  0
  -19.1680  -28.8460   23.3960 C   0  0  0  0  0  0  0  0  0  0  0  0
  -18.9230  -30.1130   23.9660 C   0  0  0  0  0  3  0  0  0  0  0  0
  -17.6080  -30.5910   24.1230 C   0  0  0  0  0  3  0  0  0  0  0  0
  -16.5190  -29.7960   23.7210 C   0  0  0  0  0  3  0  0  0  0  0  0
  -16.7490  -28.5280   23.1580 C   0  0  0  0  0  3  0  0  0  0  0  0
  -25.9140  -32.5600   23.8010 C   0  0  0  0  0  3  0  0  0  0  0  0
  -26.4470  -31.8010   25.0790 C   0  0  1  0  0  0  0  0  0  0  0  0
  -25.3670  -31.5670   26.1640 C   0  0  0  0  0  1  0  0  0  0  0  0
  -27.0320  -30.4260   24.6900 C   0  0  0  0  0  1  0  0  0  0  0  0
  -27.6030  -32.6050   25.7180 C   0  0  0  0  0  1  0  0  0  0  0  0
  -25.5970  -33.9590   24.1370 N   0  0  0  0  0  0  0  0  0  0  0  0
  -25.9170  -35.0180   23.3820 C   0  0  0  0  0  0  0  0  0  0  0  0
  -26.5780  -34.9210   22.3440 O   0  0  0  0  0  0  0  0  0  0  0  0
  -25.0110  -34.1030   24.9470 H   0  0  0  0  0  0  0  0  0  0  0  0
  -24.1890  -36.8170   23.0420 C   0  0  0  0  0  1  0  0  0  0  0  0
  -25.4300  -36.4050   23.8510 C   0  0  0  0  0  3  0  0  0  0  0  0
  -27.5670  -37.2820   24.6860 C   0  0  0  0  0  1  0  0  0  0  0  0
  -26.4630  -37.4580   23.7440 N   0  0  0  0  0  0  0  0  0  0  0  0
  -26.0590  -38.3780   23.8990 H   0  0  0  0  0  0  0  0  0  0  0  0
  -29.4400  -20.7860   20.5790 C   0  0  0  0  0  2  0  0  0  0  0  0
  -29.0550  -19.1360   20.3210 C   0  0  0  0  0  3  0  0  0  0  0  0
  -30.1080  -17.8050   20.5060 C   0  0  0  0  0  3  0  0  0  0  0  0
  -30.5070  -15.0560   20.3580 C   0  0  0  0  0  0  0  0  0  0  0  0
  -30.4090  -12.7130   19.3880 C   0  0  0  0  0  2  0  0  0  0  0  0
  -29.4720  -12.6440   18.1600 C   0  0  0  0  0  2  0  0  0  0  0  0
  -28.0100  -12.4200   18.5960 C   0  0  0  0  0  2  0  0  0  0  0  0
  -27.5930  -13.3240   19.7860 C   0  0  0  0  0  3  0  0  0  0  0  0
  -28.6570  -13.3450   20.9040 C   0  0  0  0  0  2  0  0  0  0  0  0
  -29.9110  -13.7940   20.2860 N   0  0  0  0  0  0  0  0  0  0  0  0
  -31.7150  -15.1140   20.1060 O   0  0  0  0  0  0  0  0  0  0  0  0
  -29.7350  -16.2520   20.4970 N   0  0  0  0  0  0  0  0  0  0  0  0
  -28.7540  -16.0600   20.6340 H   0  0  0  0  0  0  0  0  0  0  0  0
  -25.1940  -13.8590   20.5020 C   0  0  0  0  0  0  0  0  0  0  0  0
  -24.1440  -13.0660   20.8720 C   0  0  0  0  0  0  0  0  0  0  0  0
  -24.6350  -11.7240   20.8560 C   0  0  0  0  0  0  0  0  0  0  0  0
  -26.2590  -13.0020   20.2800 N   0  0  0  0  0  0  0  0  0  0  0  0
  -25.9310  -11.7130   20.5600 N   0  0  0  0  0  0  0  0  0  0  0  0
  -23.9320  -10.4490   21.0480 C   0  0  0  0  0  0  0  0  0  0  0  0
  -24.3740   -9.4980   21.9940 C   0  0  0  0  0  3  0  0  0  0  0  0
  -23.6700   -8.2880   22.1770 C   0  0  0  0  0  3  0  0  0  0  0  0
  -22.5100   -8.0200   21.4120 C   0  0  0  0  0  0  0  0  0  0  0  0
  -22.0870   -8.9590   20.4560 C   0  0  0  0  0  3  0  0  0  0  0  0
  -22.7900  -10.1610   20.2720 C   0  0  0  0  0  3  0  0  0  0  0  0
  -21.7770   -6.8600   21.5020 O   0  0  0  0  0  0  0  0  0  0  0  0
  -21.7230   -6.1300   22.6630 C   0  0  0  0  0  0  0  0  0  0  0  0
  -21.2550   -6.6870   23.8730 C   0  0  0  0  0  3  0  0  0  0  0  0
  -21.1530   -5.8830   25.0250 C   0  0  0  0  0  3  0  0  0  0  0  0
  -21.5100   -4.5220   24.9690 C   0  0  0  0  0  0  0  0  0  0  0  0
  -21.9710   -3.9640   23.7630 C   0  0  0  0  0  3  0  0  0  0  0  0
  -22.0750   -4.7660   22.6140 C   0  0  0  0  0  0  0  0  0  0  0  0
  -22.5010   -4.2190   21.4490 F   0  0  0  0  0  0  0  0  0  0  0  0
  -21.4050   -3.7470   26.0740 F   0  0  0  0  0  0  0  0  0  0  0  0
  -22.7340  -13.5160   21.1260 C   0  0  0  0  0  0  0  0  0  0  0  0
  -22.0060  -12.8090   21.9830 N   0  0  0  0  0  0  0  0  0  0  0  0
  -22.2840  -14.5320   20.5980 O   0  0  0  0  0  0  0  0  0  0  0  0
  -22.3810  -11.9890   22.4380 H   0  0  0  0  0  0  0  0  0  0  0  0
  -21.0580  -13.0930   22.1890 H   0  0  0  0  0  0  0  0  0  0  0  0
  -25.3270  -15.2310   20.3090 N   0  0  0  0  0  0  0  0  0  0  0  0
  -24.5420  -15.8670   20.4100 H   0  0  0  0  0  0  0  0  0  0  0  0
  -26.1530  -15.6830   19.9400 H   0  0  0  0  0  0  0  0  0  0  0  0
  1  4  2  0
  1  3  1  0
  3  5  2  0
  4  6  1  0
  5  2  1  0
  5 50  1  0
  6  9  1  0
  6  2  2  0
  7  3  1  0
  8  4  1  0
 10 21  2  0
 11  9  1  0
 11 16  1  0
 12 20  1  0
 12 22  1  0
 13 19  1  0
 13 15  1  0
 14 20  1  0
 15 14  1  0
 16 15  2  0
 17 11  2  0
 18 17  1  0
 18 13  2  0
 19 12  1  0
 20 10  1  0
 22 24  2  0
 23 22  1  0
 25 23  1  0
 26 35  2  0
 26 31  1  0
 27 23  1  0
 27 31  1  0
 28 27  1  0
 29 30  1  0
 29 28  1  0
 30 26  1  0
 31 32  2  0
 32 33  1  0
 34 33  2  0
 35 34  1  0
 36 10  1  0
 36 41  1  0
 36 37  1  0
 37 40  1  1
 37 38  1  0
 39 37  1  0
 41 44  1  0
 42 46  1  0
 42 41  1  0
 43 42  2  0
 46 45  1  0
 48 46  1  0
 48 49  1  0
 48 47  1  0
 51 52  2  0
 51 50  1  0
 53 61  1  0
 54 59  1  0
 55 56  1  0
 55 54  1  0
 57 56  1  0
 57 66  1  0
 57 58  1  0
 59 53  1  0
 59 58  1  0
 60 53  2  0
 61 52  1  0
 61 62  1  0
 63 64  2  0
 64 83  1  0
 65 64  1  0
 65 68  1  0
 66 63  1  0
 66 67  1  0
 67 65  2  0
 68 69  1  0
 69 70  2  0
 71 74  1  0
 71 70  1  0
 72 71  2  0
 73 72  1  0
 73 68  2  0
 74 75  1  0
 75 76  1  0
 76 77  2  0
 78 77  1  0
 78 82  1  0
 79 78  2  0
 80 75  2  0
 80 79  1  0
 81 80  1  0
 83 84  1  0
 84 87  1  0
 84 86  1  0
 85 83  2  0
 88 89  1  0
 88 63  1  0
 90 88  1  0
M  ISO  4   6 101   9 101  53 100  61 100
M  END
>  <TORSDO>  (52) 
F 19

>  <SCORE>  (52) 
-15.413

>  <name>  (52) 
51

>  <ligand_id>  (52) 
51

>  <original_smiles>  (52) 
[H]c1c([H])c([H])c2c(c1[H])C([H])([H])C([H])([H])C([H])([H])C2([H])N([H])C(=O)C1([H])N(C(=O)C([H])(N([H])C(=O)C([H])(N([H])C([H])([H])[H])C([H])([H])[H])C(C([H])([H])[H])(C([H])([H])[H])C([H])([H])[H])C([H])([H])c2c([H])c(Oc3c([H])c(C([H])([H])C([H])([H])C([H])([H])N([H])C(=O)N4C([H])([H])C([H])([H])C([H])([H])C([H])(n5nc(-c6c([H])c([H])c(Oc7c([H])c([H])c(F)c([H])c7F)c([H])c6[H])c(C(=O)N([H])[H])c5N([H])[H])C4([H])[H])c(C([H])([H])[H])c([H])c3C([H])([H])[H])c([H])c([H])c2C1([H])[H]

>  <smiles>  (52) 
[H]c1c([H])c([H])c2c(c1[H])C([H])([H])C([H])([H])C([H])([H])C2([H])N([H])C(=O)C1([H])N(C(=O)C([H])(N([H])C(=O)C([H])(N([H])C([H])([H])[H])C([H])([H])[H])C(C([H])([H])[H])(C([H])([H])[H])C([H])([H])[H])C([H])([H])c2c([H])c(Oc3c([H])c(C([H])([H])C([H])([H])C([H])([H])N([H])C(=O)N4C([H])([H])C([H])([H])C([H])([H])C([H])(n5nc(-c6c([H])c([H])c(Oc7c([H])c([H])c(F)c([H])c7F)c([H])c6[H])c(C(=O)N([H])[H])c5N([H])[H])C4([H])[H])c(C([H])([H])[H])c([H])c3C([H])([H])[H])c([H])c([H])c2C1([H])[H]

$$$$
52:0:0
     RDKit          3D

 94103  0  0  1  0  0  0  0  0999 V2000
  -29.4880  -22.7630   21.9260 C   0  0  0  0  0  3  0  0  0  0  0  0
  -29.8570  -21.4860   22.4050 C   0  0  0  0  0  3  0  0  0  0  0  0
  -31.0350  -22.5060   20.0740 C   0  0  0  0  0  3  0  0  0  0  0  0
  -30.0410  -23.2750   20.7240 C   0  0  0  0  0  0  0  0  0  0  0  0
  -30.8070  -20.7040   21.7140 C   0  0  0  0  0  0  0  0  0  0  0  0
  -31.4110  -21.2350   20.5550 C   0  0  0  0  0  0  0  0  0  0  0  0
  -32.3450  -20.5190   19.8840 F   0  0  0  0  0  0  0  0  0  0  0  0
  -27.5290  -23.9080   18.9730 C   0  0  0  0  0  0  0  0  0  0  0  0
  -28.9790  -24.2190   18.6520 C   0  0  0  0  0  2  0  0  0  0  0  0
  -27.1760  -24.4130   20.3600 C   0  0  0  0  0  2  0  0  0  0  0  0
  -29.5610  -24.5770   20.0370 C   0  0  0  0  0  3  0  0  0  0  0  0
  -28.3720  -25.3430   20.6980 C   0  0  0  0  0  3  0  0  0  0  0  0
  -26.7440  -23.3380   18.2110 O   0  0  0  0  0  0  0  0  0  0  0  0
  -28.3680  -26.6860   20.1170 O   0  0  0  0  0  0  0  0  0  0  0  0
  -24.6120  -31.9250   23.2280 C   0  0  0  0  0  0  0  0  0  0  0  0
  -27.2130  -27.4490   20.1460 C   0  0  0  0  0  0  0  0  0  0  0  0
  -23.3930  -30.5220   21.6000 C   0  0  0  0  0  3  0  0  0  0  0  0
  -24.8340  -28.9900   20.1630 C   0  0  0  0  0  0  0  0  0  0  0  0
  -25.9210  -30.8670   21.3940 C   0  0  0  0  0  2  0  0  0  0  0  0
  -25.9970  -29.4920   20.7590 C   0  0  0  0  0  0  0  0  0  0  0  0
  -27.1890  -28.7260   20.7590 C   0  0  0  0  0  3  0  0  0  0  0  0
  -26.0490  -27.0150   19.4740 C   0  0  0  0  0  3  0  0  0  0  0  0
  -24.8550  -27.7470   19.5190 C   0  0  0  0  0  3  0  0  0  0  0  0
  -23.5920  -29.8490   20.2190 C   0  0  0  0  0  2  0  0  0  0  0  0
  -24.6600  -31.1200   22.1300 N   0  0  0  0  0  0  0  0  0  0  0  0
  -23.5350  -32.1990   23.7740 O   0  0  0  0  0  0  0  0  0  0  0  0
  -22.7510  -29.4980   22.5630 C   0  0  0  0  0  0  0  0  0  0  0  0
  -21.4260  -29.3130   22.4450 N   0  0  0  0  0  0  0  0  0  0  0  0
  -23.4390  -28.8730   23.3750 O   0  0  0  0  0  0  0  0  0  0  0  0
  -20.9280  -29.8690   21.7630 H   0  0  0  0  0  0  0  0  0  0  0  0
  -18.0570  -28.1120   22.9640 C   0  0  0  0  0  0  0  0  0  0  0  0
  -20.6160  -28.3760   23.2230 C   0  0  0  0  0  3  0  0  0  0  0  0
  -20.7180  -26.9420   22.6540 C   0  0  0  0  0  2  0  0  0  0  0  0
  -19.6130  -26.6130   21.6460 C   0  0  0  0  0  2  0  0  0  0  0  0
  -18.2330  -26.7600   22.2940 C   0  0  0  0  0  2  0  0  0  0  0  0
  -19.1760  -28.8780   23.3860 C   0  0  0  0  0  0  0  0  0  0  0  0
  -18.9570  -30.1460   23.9690 C   0  0  0  0  0  3  0  0  0  0  0  0
  -17.6520  -30.6450   24.1380 C   0  0  0  0  0  3  0  0  0  0  0  0
  -16.5490  -29.8750   23.7330 C   0  0  0  0  0  3  0  0  0  0  0  0
  -16.7510  -28.6100   23.1520 C   0  0  0  0  0  3  0  0  0  0  0  0
  -25.9030  -32.5580   23.8340 C   0  0  0  0  0  3  0  0  0  0  0  0
  -25.5970  -33.9560   24.1610 N   0  0  0  0  0  0  0  0  0  0  0  0
  -25.9180  -35.0050   23.3910 C   0  0  0  0  0  0  0  0  0  0  0  0
  -26.5770  -34.8980   22.3530 O   0  0  0  0  0  0  0  0  0  0  0  0
  -25.0110  -34.1140   24.9670 H   0  0  0  0  0  0  0  0  0  0  0  0
  -24.1790  -36.7890   23.0470 C   0  0  0  0  0  1  0  0  0  0  0  0
  -25.4310  -36.3940   23.8470 C   0  0  0  0  0  3  0  0  0  0  0  0
  -27.5810  -37.2790   24.6380 C   0  0  0  0  0  1  0  0  0  0  0  0
  -26.4550  -37.4530   23.7230 N   0  0  0  0  0  0  0  0  0  0  0  0
  -26.0470  -38.3670   23.8970 H   0  0  0  0  0  0  0  0  0  0  0  0
  -26.4340  -31.7880   25.1050 C   0  0  1  0  0  0  0  0  0  0  0  0
  -25.3520  -31.5530   26.1840 C   0  0  0  0  0  1  0  0  0  0  0  0
  -27.0140  -30.4090   24.7110 C   0  0  0  0  0  1  0  0  0  0  0  0
  -27.5910  -32.5840   25.7540 C   0  0  0  0  0  1  0  0  0  0  0  0
  -31.2020  -19.3180   22.2190 C   0  0  0  0  0  2  0  0  0  0  0  0
  -30.3010  -18.1690   21.7060 C   0  0  0  0  0  2  0  0  0  0  0  0
  -31.0350  -16.8070   21.6620 C   0  0  0  0  0  2  0  0  0  0  0  0
  -30.1170  -15.5800   21.3920 C   0  0  0  0  0  2  0  0  0  0  0  0
  -30.7160  -14.4630   20.5010 C   0  0  0  0  0  0  0  0  0  0  0  0
  -30.3770  -12.3600   19.2380 C   0  0  0  0  0  2  0  0  0  0  0  0
  -29.4300  -12.5990   18.0450 C   0  0  0  0  0  2  0  0  0  0  0  0
  -27.9570  -12.4550   18.4750 C   0  0  0  0  0  2  0  0  0  0  0  0
  -27.6310  -13.2740   19.7520 C   0  0  0  0  0  3  0  0  0  0  0  0
  -28.6850  -13.0190   20.8520 C   0  0  0  0  0  2  0  0  0  0  0  0
  -30.0160  -13.3140   20.2990 N   0  0  0  0  0  0  0  0  0  0  0  0
  -31.7930  -14.6700   19.9340 O   0  0  0  0  0  0  0  0  0  0  0  0
  -25.2320  -13.8890   20.4520 C   0  0  0  0  0  0  0  0  0  0  0  0
  -24.1620  -13.1210   20.8240 C   0  0  0  0  0  0  0  0  0  0  0  0
  -24.6220  -11.7680   20.8050 C   0  0  0  0  0  0  0  0  0  0  0  0
  -26.2770  -13.0050   20.2290 N   0  0  0  0  0  0  0  0  0  0  0  0
  -25.9130  -11.7240   20.4980 N   0  0  0  0  0  0  0  0  0  0  0  0
  -23.8960  -10.5080   21.0040 C   0  0  0  0  0  0  0  0  0  0  0  0
  -24.3330   -9.5430   21.9380 C   0  0  0  0  0  3  0  0  0  0  0  0
  -23.6070   -8.3470   22.1250 C   0  0  0  0  0  3  0  0  0  0  0  0
  -22.4300   -8.1060   21.3770 C   0  0  0  0  0  0  0  0  0  0  0  0
  -22.0130   -9.0580   20.4310 C   0  0  0  0  0  3  0  0  0  0  0  0
  -22.7390  -10.2470   20.2420 C   0  0  0  0  0  3  0  0  0  0  0  0
  -21.6760   -6.9610   21.4720 O   0  0  0  0  0  0  0  0  0  0  0  0
  -21.6380   -6.2180   22.6240 C   0  0  0  0  0  0  0  0  0  0  0  0
  -21.2320   -6.7760   23.8570 C   0  0  0  0  0  3  0  0  0  0  0  0
  -21.1410   -5.9600   25.0020 C   0  0  0  0  0  3  0  0  0  0  0  0
  -21.4440   -4.5880   24.9150 C   0  0  0  0  0  0  0  0  0  0  0  0
  -21.8420   -4.0310   23.6870 C   0  0  0  0  0  3  0  0  0  0  0  0
  -21.9360   -4.8430   22.5450 C   0  0  0  0  0  0  0  0  0  0  0  0
  -22.3000   -4.2970   21.3600 F   0  0  0  0  0  0  0  0  0  0  0  0
  -21.3480   -3.8020   26.0140 F   0  0  0  0  0  0  0  0  0  0  0  0
  -22.7650  -13.6000   21.0930 C   0  0  0  0  0  0  0  0  0  0  0  0
  -22.0380  -12.9090   21.9640 N   0  0  0  0  0  0  0  0  0  0  0  0
  -22.3270  -14.6220   20.5670 O   0  0  0  0  0  0  0  0  0  0  0  0
  -22.4060  -12.0840   22.4140 H   0  0  0  0  0  0  0  0  0  0  0  0
  -21.0990  -13.2110   22.1860 H   0  0  0  0  0  0  0  0  0  0  0  0
  -25.4000  -15.2580   20.2660 N   0  0  0  0  0  0  0  0  0  0  0  0
  -24.6370  -15.9180   20.3680 H   0  0  0  0  0  0  0  0  0  0  0  0
  -26.2600  -15.6920   19.9560 H   0  0  0  0  0  0  0  0  0  0  0  0
  1  2  1  0
  3  6  2  0
  3  4  1  0
  4  1  2  0
  5 55  1  0
  5  2  2  0
  6  5  1  0
  7  6  1  0
  8 10  1  0
  9  8  1  0
  9 11  1  0
 10 12  1  0
 11 12  1  0
 11  4  1  0
 12 14  1  0
 13  8  2  0
 14 16  1  0
 15 26  2  0
 16 21  1  0
 17 25  1  0
 17 27  1  0
 18 24  1  0
 18 20  1  0
 19 25  1  0
 20 19  1  0
 21 20  2  0
 22 23  1  0
 22 16  2  0
 23 18  2  0
 24 17  1  0
 25 15  1  0
 27 29  2  0
 28 27  1  0
 30 28  1  0
 31 40  2  0
 31 36  1  0
 32 28  1  0
 32 36  1  0
 33 32  1  0
 34 35  1  0
 34 33  1  0
 35 31  1  0
 36 37  2  0
 37 38  1  0
 39 38  2  0
 40 39  1  0
 41 15  1  0
 41 42  1  0
 41 51  1  0
 42 45  1  0
 43 47  1  0
 43 42  1  0
 44 43  2  0
 47 46  1  0
 49 47  1  0
 49 50  1  0
 49 48  1  0
 51 54  1  1
 51 52  1  0
 53 51  1  0
 56 55  1  0
 57 56  1  0
 58 57  1  0
 59 58  1  0
 60 65  1  0
 61 62  1  0
 61 60  1  0
 63 62  1  0
 63 70  1  0
 63 64  1  0
 65 59  1  0
 65 64  1  0
 66 59  2  0
 67 68  2  0
 68 87  1  0
 69 68  1  0
 69 72  1  0
 70 67  1  0
 70 71  1  0
 71 69  2  0
 72 73  1  0
 73 74  2  0
 75 78  1  0
 75 74  1  0
 76 75  2  0
 77 76  1  0
 77 72  2  0
 78 79  1  0
 79 80  1  0
 80 81  2  0
 82 81  1  0
 82 86  1  0
 83 82  2  0
 84 79  2  0
 84 83  1  0
 85 84  1  0
 87 88  1  0
 88 91  1  0
 88 90  1  0
 89 87  2  0
 92 93  1  0
 92 67  1  0
 94 92  1  0
M  ISO  4  12 101  14 101  58 100  59 100
M  END
>  <TORSDO>  (53) 
F 21

>  <SCORE>  (53) 
-13.786

>  <name>  (53) 
52

>  <ligand_id>  (53) 
52

>  <original_smiles>  (53) 
[H]c1c([H])c([H])c2c(c1[H])C([H])([H])C([H])([H])C([H])([H])C2([H])N([H])C(=O)C1([H])N(C(=O)C([H])(N([H])C(=O)C([H])(N([H])C([H])([H])[H])C([H])([H])[H])C(C([H])([H])[H])(C([H])([H])[H])C([H])([H])[H])C([H])([H])c2c([H])c(OC3([H])C([H])([H])C(=O)C([H])([H])C3([H])c3c([H])c([H])c(C([H])([H])C([H])([H])C([H])([H])C([H])([H])C(=O)N4C([H])([H])C([H])([H])C([H])([H])C([H])(n5nc(-c6c([H])c([H])c(Oc7c([H])c([H])c(F)c([H])c7F)c([H])c6[H])c(C(=O)N([H])[H])c5N([H])[H])C4([H])[H])c(F)c3[H])c([H])c([H])c2C1([H])[H]

>  <smiles>  (53) 
[H]c1c([H])c([H])c2c(c1[H])C([H])([H])C([H])([H])C([H])([H])C2([H])N([H])C(=O)C1([H])N(C(=O)C([H])(N([H])C(=O)C([H])(N([H])C([H])([H])[H])C([H])([H])[H])C(C([H])([H])[H])(C([H])([H])[H])C([H])([H])[H])C([H])([H])c2c([H])c(OC3([H])C([H])([H])C(=O)C([H])([H])C3([H])c3c([H])c([H])c(C([H])([H])C([H])([H])C([H])([H])C([H])([H])C(=O)N4C([H])([H])C([H])([H])C([H])([H])C([H])(n5nc(-c6c([H])c([H])c(Oc7c([H])c([H])c(F)c([H])c7F)c([H])c6[H])c(C(=O)N([H])[H])c5N([H])[H])C4([H])[H])c(F)c3[H])c([H])c([H])c2C1([H])[H]

$$$$
53:0:0
     RDKit          3D

 93101  0  0  1  0  0  0  0  0999 V2000
  -28.1800  -24.5250   20.4840 C   0  0  0  0  0  3  0  0  0  0  0  0
  -27.1580  -26.2110   21.9330 C   0  0  0  0  0  3  0  0  0  0  0  0
  -27.5330  -23.4790   21.2290 C   0  0  0  0  0  0  0  0  0  0  0  0
  -27.9430  -25.9140   20.7860 C   0  0  0  0  0  0  0  0  0  0  0  0
  -26.5970  -23.8580   22.2280 C   0  0  0  0  0  0  0  0  0  0  0  0
  -26.4670  -25.2090   22.6140 C   0  0  0  0  0  0  0  0  0  0  0  0
  -25.6310  -25.5980   23.6130 F   0  0  0  0  0  0  0  0  0  0  0  0
  -24.4940  -23.2440   23.1940 C   0  0  0  0  0  1  0  0  0  0  0  0
  -25.8040  -22.8750   22.7840 O   0  0  0  0  0  0  0  0  0  0  0  0
  -28.3050  -26.9970   19.9610 O   0  0  0  0  0  0  0  0  0  0  0  0
  -24.6220  -32.0990   23.3140 C   0  0  0  0  0  0  0  0  0  0  0  0
  -27.3050  -27.9560   19.8310 C   0  0  0  0  0  0  0  0  0  0  0  0
  -23.4370  -30.8560   21.5400 C   0  0  0  0  0  3  0  0  0  0  0  0
  -24.9220  -29.4860   19.9670 C   0  0  0  0  0  0  0  0  0  0  0  0
  -25.9700  -31.2310   21.4020 C   0  0  0  0  0  2  0  0  0  0  0  0
  -26.0770  -29.9330   20.6210 C   0  0  0  0  0  0  0  0  0  0  0  0
  -27.2760  -29.1760   20.5600 C   0  0  0  0  0  3  0  0  0  0  0  0
  -26.1570  -27.5770   19.1070 C   0  0  0  0  0  3  0  0  0  0  0  0
  -24.9640  -28.3100   19.1950 C   0  0  0  0  0  3  0  0  0  0  0  0
  -23.6710  -30.3250   20.0990 C   0  0  0  0  0  2  0  0  0  0  0  0
  -24.6950  -31.4000   22.1460 N   0  0  0  0  0  0  0  0  0  0  0  0
  -23.5390  -32.3280   23.8620 O   0  0  0  0  0  0  0  0  0  0  0  0
  -22.7850  -29.7450   22.3900 C   0  0  0  0  0  0  0  0  0  0  0  0
  -21.4560  -29.5960   22.2720 N   0  0  0  0  0  0  0  0  0  0  0  0
  -23.4660  -29.0300   23.1260 O   0  0  0  0  0  0  0  0  0  0  0  0
  -20.9580  -30.2770   21.7230 H   0  0  0  0  0  0  0  0  0  0  0  0
  -18.0560  -28.4430   22.7180 C   0  0  0  0  0  0  0  0  0  0  0  0
  -20.6340  -28.5770   22.9340 C   0  0  0  0  0  3  0  0  0  0  0  0
  -20.6610  -27.2270   22.1660 C   0  0  0  0  0  2  0  0  0  0  0  0
  -19.5120  -27.0960   21.1550 C   0  0  0  0  0  2  0  0  0  0  0  0
  -18.1580  -27.1870   21.8660 C   0  0  0  0  0  2  0  0  0  0  0  0
  -19.2170  -29.1060   23.2060 C   0  0  0  0  0  0  0  0  0  0  0  0
  -19.0700  -30.2940   23.9540 C   0  0  0  0  0  3  0  0  0  0  0  0
  -17.7880  -30.8160   24.2150 C   0  0  0  0  0  3  0  0  0  0  0  0
  -16.6420  -30.1440   23.7650 C   0  0  0  0  0  3  0  0  0  0  0  0
  -16.7810  -28.9580   23.0180 C   0  0  0  0  0  3  0  0  0  0  0  0
  -25.9030  -32.6810   23.9940 C   0  0  0  0  0  3  0  0  0  0  0  0
  -25.6050  -34.0640   24.3940 N   0  0  0  0  0  0  0  0  0  0  0  0
  -25.9380  -35.1500   23.6780 C   0  0  0  0  0  0  0  0  0  0  0  0
  -26.5900  -35.0890   22.6340 O   0  0  0  0  0  0  0  0  0  0  0  0
  -25.0230  -34.1780   25.2080 H   0  0  0  0  0  0  0  0  0  0  0  0
  -24.1960  -36.9520   23.4440 C   0  0  0  0  0  1  0  0  0  0  0  0
  -25.4630  -36.5200   24.2020 C   0  0  0  0  0  3  0  0  0  0  0  0
  -27.6150  -37.3850   25.0080 C   0  0  0  0  0  1  0  0  0  0  0  0
  -26.4910  -37.5750   24.0950 N   0  0  0  0  0  0  0  0  0  0  0  0
  -26.0890  -38.4900   24.2700 H   0  0  0  0  0  0  0  0  0  0  0  0
  -26.3810  -31.8320   25.2350 C   0  0  1  0  0  0  0  0  0  0  0  0
  -25.2580  -31.5430   26.2600 C   0  0  0  0  0  1  0  0  0  0  0  0
  -26.9540  -30.4690   24.7740 C   0  0  0  0  0  1  0  0  0  0  0  0
  -27.5260  -32.5680   25.9690 C   0  0  0  0  0  1  0  0  0  0  0  0
  -27.6100  -21.9550   20.9220 C   0  0  0  0  0  2  0  0  0  0  0  0
  -28.8370  -21.2140   20.2970 C   0  0  0  0  0  2  0  0  0  0  0  0
  -28.6150  -19.6690   20.5090 C   0  0  0  0  0  2  0  0  0  0  0  0
  -29.6740  -18.5780   20.1560 C   0  0  0  0  0  2  0  0  0  0  0  0
  -29.1160  -17.1210   20.4350 C   0  0  0  0  0  2  0  0  0  0  0  0
  -30.6650  -15.1500   20.7230 C   0  0  0  0  0  0  0  0  0  0  0  0
  -30.5140  -12.9390   19.6240 C   0  0  0  0  0  2  0  0  0  0  0  0
  -29.6360  -13.0500   18.3610 C   0  0  0  0  0  2  0  0  0  0  0  0
  -28.1430  -12.8640   18.7020 C   0  0  0  0  0  2  0  0  0  0  0  0
  -27.6910  -13.6890   19.9400 C   0  0  0  0  0  3  0  0  0  0  0  0
  -28.7050  -13.5830   21.1050 C   0  0  0  0  0  2  0  0  0  0  0  0
  -30.0350  -13.9430   20.5860 N   0  0  0  0  0  0  0  0  0  0  0  0
  -31.8180  -15.3440   20.3400 O   0  0  0  0  0  0  0  0  0  0  0  0
  -29.9600  -16.1890   21.2250 N   0  0  0  0  0  0  0  0  0  0  0  0
  -30.4930  -16.6900   21.9210 H   0  0  0  0  0  0  0  0  0  0  0  0
  -25.2440  -14.1700   20.5580 C   0  0  0  0  0  0  0  0  0  0  0  0
  -24.1980  -13.3400   20.8760 C   0  0  0  0  0  0  0  0  0  0  0  0
  -24.7270  -12.0150   20.8710 C   0  0  0  0  0  0  0  0  0  0  0  0
  -26.3380  -13.3390   20.3650 N   0  0  0  0  0  0  0  0  0  0  0  0
  -26.0320  -12.0380   20.6090 N   0  0  0  0  0  0  0  0  0  0  0  0
  -24.0500  -10.7190   21.0330 C   0  0  0  0  0  0  0  0  0  0  0  0
  -24.4380   -9.7980   22.0360 C   0  0  0  0  0  3  0  0  0  0  0  0
  -23.7570   -8.5710   22.1810 C   0  0  0  0  0  3  0  0  0  0  0  0
  -22.6760   -8.2560   21.3270 C   0  0  0  0  0  0  0  0  0  0  0  0
  -22.3020   -9.1650   20.3220 C   0  0  0  0  0  3  0  0  0  0  0  0
  -22.9840  -10.3830   20.1720 C   0  0  0  0  0  3  0  0  0  0  0  0
  -21.9660   -7.0800   21.3820 O   0  0  0  0  0  0  0  0  0  0  0  0
  -21.8040   -6.3900   22.5570 C   0  0  0  0  0  0  0  0  0  0  0  0
  -21.1740   -6.9720   23.6780 C   0  0  0  0  0  3  0  0  0  0  0  0
  -20.9590   -6.2090   24.8440 C   0  0  0  0  0  3  0  0  0  0  0  0
  -21.3650   -4.8630   24.8910 C   0  0  0  0  0  0  0  0  0  0  0  0
  -21.9940   -4.2790   23.7760 C   0  0  0  0  0  3  0  0  0  0  0  0
  -22.2100   -5.0400   22.6130 C   0  0  0  0  0  0  0  0  0  0  0  0
  -22.7940   -4.4660   21.5330 F   0  0  0  0  0  0  0  0  0  0  0  0
  -21.1580   -4.1280   26.0080 F   0  0  0  0  0  0  0  0  0  0  0  0
  -22.7680  -13.7510   21.0890 C   0  0  0  0  0  0  0  0  0  0  0  0
  -22.0360  -13.0210   21.9230 N   0  0  0  0  0  0  0  0  0  0  0  0
  -22.3020  -14.7540   20.5530 O   0  0  0  0  0  0  0  0  0  0  0  0
  -22.4260  -12.2130   22.3890 H   0  0  0  0  0  0  0  0  0  0  0  0
  -21.0770  -13.2820   22.1140 H   0  0  0  0  0  0  0  0  0  0  0  0
  -25.3400  -15.5460   20.3830 N   0  0  0  0  0  0  0  0  0  0  0  0
  -24.5320  -16.1530   20.4600 H   0  0  0  0  0  0  0  0  0  0  0  0
  -26.1750  -16.0430   20.1080 H   0  0  0  0  0  0  0  0  0  0  0  0
  1  4  2  0
  1  3  1  0
  2  6  2  0
  3  5  2  0
  4  2  1  0
  5  6  1  0
  5  9  1  0
  6  7  1  0
  9  8  1  0
 10  4  1  0
 11 22  2  0
 12 10  1  0
 12 17  1  0
 13 21  1  0
 13 23  1  0
 14 20  1  0
 14 16  1  0
 15 21  1  0
 16 15  1  0
 17 16  2  0
 18 19  1  0
 18 12  2  0
 19 14  2  0
 20 13  1  0
 21 11  1  0
 23 25  2  0
 24 23  1  0
 26 24  1  0
 27 36  2  0
 27 32  1  0
 28 24  1  0
 28 32  1  0
 29 28  1  0
 30 31  1  0
 30 29  1  0
 31 27  1  0
 32 33  2  0
 33 34  1  0
 35 34  2  0
 36 35  1  0
 37 11  1  0
 37 38  1  0
 37 47  1  0
 38 41  1  0
 39 43  1  0
 39 38  1  0
 40 39  2  0
 43 42  1  0
 45 43  1  0
 45 46  1  0
 45 44  1  0
 47 50  1  1
 47 48  1  0
 49 47  1  0
 51  3  1  0
 52 53  1  0
 52 51  1  0
 54 55  1  0
 54 53  1  0
 55 64  1  0
 56 64  1  0
 57 62  1  0
 58 59  1  0
 58 57  1  0
 60 59  1  0
 60 69  1  0
 60 61  1  0
 62 56  1  0
 62 61  1  0
 63 56  2  0
 64 65  1  0
 66 67  2  0
 67 86  1  0
 68 67  1  0
 68 71  1  0
 69 66  1  0
 69 70  1  0
 70 68  2  0
 71 72  1  0
 72 73  2  0
 74 77  1  0
 74 73  1  0
 75 74  2  0
 76 75  1  0
 76 71  2  0
 77 78  1  0
 78 83  2  0
 78 79  1  0
 79 80  2  0
 80 81  1  0
 81 85  1  0
 82 81  2  0
 83 82  1  0
 84 83  1  0
 86 87  1  0
 87 90  1  0
 87 89  1  0
 88 86  2  0
 91 92  1  0
 91 66  1  0
 93 91  1  0
M  ISO  4   4 101  10 101  56 100  64 100
M  END
>  <TORSDO>  (54) 
F 22

>  <SCORE>  (54) 
-10.857

>  <name>  (54) 
53

>  <ligand_id>  (54) 
53

>  <original_smiles>  (54) 
[H]c1c([H])c([H])c2c(c1[H])C([H])([H])C([H])([H])C([H])([H])C2([H])N([H])C(=O)C1([H])N(C(=O)C([H])(N([H])C(=O)C([H])(N([H])C([H])([H])[H])C([H])([H])[H])C(C([H])([H])[H])(C([H])([H])[H])C([H])([H])[H])C([H])([H])c2c([H])c(Oc3c([H])c(F)c(OC([H])([H])[H])c(C([H])([H])C([H])([H])C([H])([H])C([H])([H])C([H])([H])N([H])C(=O)N4C([H])([H])C([H])([H])C([H])([H])C([H])(n5nc(-c6c([H])c([H])c(Oc7c([H])c([H])c(F)c([H])c7F)c([H])c6[H])c(C(=O)N([H])[H])c5N([H])[H])C4([H])[H])c3[H])c([H])c([H])c2C1([H])[H]

>  <smiles>  (54) 
[H]c1c([H])c([H])c2c(c1[H])C([H])([H])C([H])([H])C([H])([H])C2([H])N([H])C(=O)C1([H])N(C(=O)C([H])(N([H])C(=O)C([H])(N([H])C([H])([H])[H])C([H])([H])[H])C(C([H])([H])[H])(C([H])([H])[H])C([H])([H])[H])C([H])([H])c2c([H])c(Oc3c([H])c(F)c(OC([H])([H])[H])c(C([H])([H])C([H])([H])C([H])([H])C([H])([H])C([H])([H])N([H])C(=O)N4C([H])([H])C([H])([H])C([H])([H])C([H])(n5nc(-c6c([H])c([H])c(Oc7c([H])c([H])c(F)c([H])c7F)c([H])c6[H])c(C(=O)N([H])[H])c5N([H])[H])C4([H])[H])c3[H])c([H])c([H])c2C1([H])[H]

$$$$
54:0:0
     RDKit          3D

 90 98  0  0  1  0  0  0  0  0999 V2000
  -30.6570  -22.6440   20.9030 C   0  0  0  0  0  1  0  0  0  0  0  0
  -29.2500  -22.3300   20.5550 N   0  0  2  0  0  4  0  0  0  0  0  0
  -28.7580  -22.3340   21.4370 H   0  0  0  0  0  0  0  0  0  0  0  0
  -30.1260  -18.4970   19.0880 C   0  0  0  0  0  2  0  0  0  0  0  0
  -28.8080  -18.2640   21.1070 C   0  0  0  0  0  2  0  0  0  0  0  0
  -30.2530  -20.0830   19.3400 C   0  0  0  0  0  2  0  0  0  0  0  0
  -28.8860  -19.8400   21.3500 C   0  0  0  0  0  2  0  0  0  0  0  0
  -30.0000  -17.5660   20.3560 C   0  0  0  0  0  3  0  0  0  0  0  0
  -29.0750  -20.8180   20.1210 C   0  0  0  0  0  3  0  0  0  0  0  0
  -30.6070  -14.9230   19.9640 C   0  0  0  0  0  0  0  0  0  0  0  0
  -30.4100  -12.6350   18.9380 C   0  0  0  0  0  2  0  0  0  0  0  0
  -29.3940  -12.6900   17.7750 C   0  0  0  0  0  2  0  0  0  0  0  0
  -27.9530  -12.4950   18.2860 C   0  0  0  0  0  2  0  0  0  0  0  0
  -27.6430  -13.3480   19.5440 C   0  0  0  0  0  3  0  0  0  0  0  0
  -28.7720  -13.2760   20.5940 C   0  0  0  0  0  2  0  0  0  0  0  0
  -30.0130  -13.6750   19.9170 N   0  0  0  0  0  0  0  0  0  0  0  0
  -31.7910  -15.0410   19.6360 O   0  0  0  0  0  0  0  0  0  0  0  0
  -29.7850  -16.0380   20.1730 N   0  0  0  0  0  0  0  0  0  0  0  0
  -28.8220  -15.7620   20.2850 H   0  0  0  0  0  0  0  0  0  0  0  0
  -25.3030  -13.8990   20.4340 C   0  0  0  0  0  0  0  0  0  0  0  0
  -24.2670  -13.1090   20.8460 C   0  0  0  0  0  0  0  0  0  0  0  0
  -24.7350  -11.7620   20.7530 C   0  0  0  0  0  0  0  0  0  0  0  0
  -26.3370  -13.0340   20.1120 N   0  0  0  0  0  0  0  0  0  0  0  0
  -26.0050  -11.7420   20.3690 N   0  0  0  0  0  0  0  0  0  0  0  0
  -24.0280  -10.4900   20.9510 C   0  0  0  0  0  0  0  0  0  0  0  0
  -24.4800   -9.5300   21.8830 C   0  0  0  0  0  3  0  0  0  0  0  0
  -23.7700   -8.3240   22.0690 C   0  0  0  0  0  3  0  0  0  0  0  0
  -22.5950   -8.0700   21.3210 C   0  0  0  0  0  0  0  0  0  0  0  0
  -22.1630   -9.0190   20.3780 C   0  0  0  0  0  3  0  0  0  0  0  0
  -22.8740  -10.2160   20.1900 C   0  0  0  0  0  3  0  0  0  0  0  0
  -21.8560   -6.9150   21.4150 O   0  0  0  0  0  0  0  0  0  0  0  0
  -21.7670   -6.2110   22.5880 C   0  0  0  0  0  0  0  0  0  0  0  0
  -21.2750   -6.7990   23.7740 C   0  0  0  0  0  3  0  0  0  0  0  0
  -21.1340   -6.0210   24.9390 C   0  0  0  0  0  3  0  0  0  0  0  0
  -21.4770   -4.6550   24.9210 C   0  0  0  0  0  0  0  0  0  0  0  0
  -21.9620   -4.0660   23.7400 C   0  0  0  0  0  3  0  0  0  0  0  0
  -22.1040   -4.8420   22.5760 C   0  0  0  0  0  0  0  0  0  0  0  0
  -22.5520   -4.2670   21.4340 F   0  0  0  0  0  0  0  0  0  0  0  0
  -21.3360   -3.9050   26.0380 F   0  0  0  0  0  0  0  0  0  0  0  0
  -22.8860  -13.5680   21.2120 C   0  0  0  0  0  0  0  0  0  0  0  0
  -22.2130  -12.8410   22.0950 N   0  0  0  0  0  0  0  0  0  0  0  0
  -22.4140  -14.6080   20.7500 O   0  0  0  0  0  0  0  0  0  0  0  0
  -22.6110  -12.0000   22.4840 H   0  0  0  0  0  0  0  0  0  0  0  0
  -21.2900  -13.1280   22.3870 H   0  0  0  0  0  0  0  0  0  0  0  0
  -25.4440  -15.2750   20.2770 N   0  0  0  0  0  0  0  0  0  0  0  0
  -24.6610  -15.9030   20.4270 H   0  0  0  0  0  0  0  0  0  0  0  0
  -26.2320  -15.7250   19.8330 H   0  0  0  0  0  0  0  0  0  0  0  0
  -28.6120  -23.5520   19.8030 C   0  0  0  0  0  2  0  0  0  0  0  0
  -28.3390  -24.9870   20.5990 C   0  0  0  0  0  2  0  0  0  0  0  0
  -28.3880  -26.4040   20.0260 O   0  0  0  0  0  0  0  0  0  0  0  0
  -24.6190  -31.8600   23.1550 C   0  0  0  0  0  0  0  0  0  0  0  0
  -27.2730  -27.2850   20.0670 C   0  0  0  0  0  0  0  0  0  0  0  0
  -23.4320  -30.4590   21.5030 C   0  0  0  0  0  3  0  0  0  0  0  0
  -24.9020  -28.9280   20.0630 C   0  0  0  0  0  0  0  0  0  0  0  0
  -25.9730  -30.7970   21.3180 C   0  0  0  0  0  2  0  0  0  0  0  0
  -26.0710  -29.4170   20.6590 C   0  0  0  0  0  0  0  0  0  0  0  0
  -27.2640  -28.6100   20.6400 C   0  0  0  0  0  3  0  0  0  0  0  0
  -26.0770  -26.8700   19.4520 C   0  0  0  0  0  3  0  0  0  0  0  0
  -24.9130  -27.6680   19.4450 C   0  0  0  0  0  3  0  0  0  0  0  0
  -23.6560  -29.7960   20.1200 C   0  0  0  0  0  2  0  0  0  0  0  0
  -24.6950  -31.0570   22.0500 N   0  0  0  0  0  0  0  0  0  0  0  0
  -23.5340  -32.1150   23.6970 O   0  0  0  0  0  0  0  0  0  0  0  0
  -22.7800  -29.4280   22.4550 C   0  0  0  0  0  0  0  0  0  0  0  0
  -21.4530  -29.2470   22.3480 N   0  0  0  0  0  0  0  0  0  0  0  0
  -23.4720  -28.7910   23.2540 O   0  0  0  0  0  0  0  0  0  0  0  0
  -20.9500  -29.8170   21.6810 H   0  0  0  0  0  0  0  0  0  0  0  0
  -18.0890  -28.0210   22.8690 C   0  0  0  0  0  0  0  0  0  0  0  0
  -20.6510  -28.2890   23.1110 C   0  0  0  0  0  3  0  0  0  0  0  0
  -20.7500  -26.8670   22.5070 C   0  0  0  0  0  2  0  0  0  0  0  0
  -19.6380  -26.5610   21.5010 C   0  0  0  0  0  2  0  0  0  0  0  0
  -18.2630  -26.6860   22.1650 C   0  0  0  0  0  2  0  0  0  0  0  0
  -19.2100  -28.7800   23.3000 C   0  0  0  0  0  0  0  0  0  0  0  0
  -18.9940  -30.0310   23.9190 C   0  0  0  0  0  3  0  0  0  0  0  0
  -17.6890  -30.5220   24.1150 C   0  0  0  0  0  3  0  0  0  0  0  0
  -16.5820  -29.7580   23.7070 C   0  0  0  0  0  3  0  0  0  0  0  0
  -16.7830  -28.5110   23.0880 C   0  0  0  0  0  3  0  0  0  0  0  0
  -25.8920  -32.5080   23.7800 C   0  0  0  0  0  3  0  0  0  0  0  0
  -26.4180  -31.7360   25.0530 C   0  0  1  0  0  0  0  0  0  0  0  0
  -25.3290  -31.4800   26.1210 C   0  0  0  0  0  1  0  0  0  0  0  0
  -27.0160  -30.3690   24.6490 C   0  0  0  0  0  1  0  0  0  0  0  0
  -27.5600  -32.5410   25.7190 C   0  0  0  0  0  1  0  0  0  0  0  0
  -25.5640  -33.9020   24.1230 N   0  0  0  0  0  0  0  0  0  0  0  0
  -25.8900  -34.9680   23.3810 C   0  0  0  0  0  0  0  0  0  0  0  0
  -26.5650  -34.8810   22.3500 O   0  0  0  0  0  0  0  0  0  0  0  0
  -24.9770  -34.0430   24.9310 H   0  0  0  0  0  0  0  0  0  0  0  0
  -24.1540  -36.7530   23.0310 C   0  0  0  0  0  1  0  0  0  0  0  0
  -25.3880  -36.3460   23.8530 C   0  0  0  0  0  3  0  0  0  0  0  0
  -27.5070  -37.2390   24.7160 C   0  0  0  0  0  1  0  0  0  0  0  0
  -26.4120  -37.4100   23.7660 N   0  0  0  0  0  0  0  0  0  0  0  0
  -25.9970  -38.3240   23.9220 H   0  0  0  0  0  0  0  0  0  0  0  0
  2  1  1  0
  2  3  1  1
  4  6  1  0
  4  8  1  0
  5  7  1  0
  6  9  1  0
  8 18  1  0
  8  5  1  0
  9  2  1  0
  9  7  1  0
 10 18  1  0
 11 16  1  0
 12 13  1  0
 12 11  1  0
 14 13  1  0
 14 23  1  0
 14 15  1  0
 16 10  1  0
 16 15  1  0
 17 10  2  0
 18 19  1  0
 20 21  2  0
 21 40  1  0
 22 21  1  0
 22 25  1  0
 23 24  1  0
 23 20  1  0
 24 22  2  0
 25 26  1  0
 26 27  2  0
 28 31  1  0
 28 27  1  0
 29 28  2  0
 30 29  1  0
 30 25  2  0
 31 32  1  0
 32 33  1  0
 33 34  2  0
 35 34  1  0
 35 39  1  0
 36 35  2  0
 37 32  2  0
 37 36  1  0
 38 37  1  0
 40 41  1  0
 41 44  1  0
 41 43  1  0
 42 40  2  0
 45 46  1  0
 45 20  1  0
 47 45  1  0
 48  2  1  0
 48 49  1  0
 50 52  1  0
 50 49  1  0
 51 62  2  0
 52 57  1  0
 53 61  1  0
 53 63  1  0
 54 60  1  0
 54 56  1  0
 55 61  1  0
 56 55  1  0
 57 56  2  0
 58 52  2  0
 59 58  1  0
 59 54  2  0
 60 53  1  0
 61 51  1  0
 63 65  2  0
 64 63  1  0
 66 64  1  0
 67 76  2  0
 67 72  1  0
 68 64  1  0
 68 72  1  0
 69 68  1  0
 70 71  1  0
 70 69  1  0
 71 67  1  0
 72 73  2  0
 73 74  1  0
 75 74  2  0
 76 75  1  0
 77 51  1  0
 77 82  1  0
 77 78  1  0
 78 81  1  1
 78 79  1  0
 80 78  1  0
 82 85  1  0
 83 87  1  0
 83 82  1  0
 84 83  2  0
 87 86  1  0
 89 87  1  0
 89 90  1  0
 89 88  1  0
M  ISO  4  10 100  18 100  49 101  50 101
M  END
>  <TORSDO>  (55) 
F 19

>  <SCORE>  (55) 
-13.185

>  <name>  (55) 
54

>  <ligand_id>  (55) 
54

>  <original_smiles>  (55) 
[H]c1c([H])c([H])c2c(c1[H])C([H])([H])C([H])([H])C([H])([H])C2([H])N([H])C(=O)C1([H])N(C(=O)C([H])(N([H])C(=O)C([H])(N([H])C([H])([H])[H])C([H])([H])[H])C(C([H])([H])[H])(C([H])([H])[H])C([H])([H])[H])C([H])([H])c2c([H])c(OC([H])([H])C([H])([H])[N+]([H])(C([H])([H])[H])C3([H])C([H])([H])C([H])([H])C([H])(N([H])C(=O)N4C([H])([H])C([H])([H])C([H])([H])C([H])(n5nc(-c6c([H])c([H])c(Oc7c([H])c([H])c(F)c([H])c7F)c([H])c6[H])c(C(=O)N([H])[H])c5N([H])[H])C4([H])[H])C([H])([H])C3([H])[H])c([H])c([H])c2C1([H])[H]

>  <smiles>  (55) 
[H]c1c([H])c([H])c2c(c1[H])C([H])([H])C([H])([H])C([H])([H])C2([H])N([H])C(=O)C1([H])N(C(=O)C([H])(N([H])C(=O)C([H])(N([H])C([H])([H])[H])C([H])([H])[H])C(C([H])([H])[H])(C([H])([H])[H])C([H])([H])[H])C([H])([H])c2c([H])c(OC([H])([H])C([H])([H])[N+]([H])(C([H])([H])[H])C3([H])C([H])([H])C([H])([H])C([H])(N([H])C(=O)N4C([H])([H])C([H])([H])C([H])([H])C([H])(n5nc(-c6c([H])c([H])c(Oc7c([H])c([H])c(F)c([H])c7F)c([H])c6[H])c(C(=O)N([H])[H])c5N([H])[H])C4([H])[H])C([H])([H])C3([H])[H])c([H])c([H])c2C1([H])[H]

$$$$
55:0:0
     RDKit          3D

 96105  0  0  1  0  0  0  0  0999 V2000
  -28.9720  -23.9830   17.0400 C   0  0  0  0  0  3  0  0  0  0  0  0
  -28.4660  -23.4570   19.6810 C   0  0  0  0  0  3  0  0  0  0  0  0
  -29.0910  -22.6370   17.4810 C   0  0  0  0  0  0  0  0  0  0  0  0
  -28.6300  -25.0710   17.8830 C   0  0  0  0  0  0  0  0  0  0  0  0
  -28.8620  -22.2850   18.8360 C   0  0  0  0  0  0  0  0  0  0  0  0
  -28.3040  -24.8780   19.2480 C   0  0  0  0  0  0  0  0  0  0  0  0
  -29.4840  -21.5920   16.4500 C   0  0  0  0  0  1  0  0  0  0  0  0
  -28.6920  -26.4820   17.3120 C   0  0  0  0  0  1  0  0  0  0  0  0
  -28.0890  -26.1030   20.0470 O   0  0  0  0  0  0  0  0  0  0  0  0
  -24.5430  -31.7280   23.2450 C   0  0  0  0  0  0  0  0  0  0  0  0
  -27.0460  -27.1060   19.9740 C   0  0  0  0  0  0  0  0  0  0  0  0
  -23.3300  -30.4520   21.5110 C   0  0  0  0  0  3  0  0  0  0  0  0
  -24.7570  -28.9090   20.0200 C   0  0  0  0  0  0  0  0  0  0  0  0
  -25.8900  -30.6530   21.3970 C   0  0  0  0  0  2  0  0  0  0  0  0
  -25.9370  -29.2950   20.6730 C   0  0  0  0  0  0  0  0  0  0  0  0
  -27.0730  -28.3980   20.6440 C   0  0  0  0  0  3  0  0  0  0  0  0
  -25.8410  -26.8270   19.2950 C   0  0  0  0  0  3  0  0  0  0  0  0
  -24.7200  -27.6900   19.3250 C   0  0  0  0  0  3  0  0  0  0  0  0
  -23.5570  -29.8420   20.1000 C   0  0  0  0  0  2  0  0  0  0  0  0
  -24.6050  -30.9640   22.1100 N   0  0  0  0  0  0  0  0  0  0  0  0
  -23.4580  -32.0150   23.7740 O   0  0  0  0  0  0  0  0  0  0  0  0
  -22.6090  -29.4200   22.4130 C   0  0  0  0  0  0  0  0  0  0  0  0
  -21.2680  -29.3620   22.3370 N   0  0  0  0  0  0  0  0  0  0  0  0
  -23.2630  -28.6780   23.1520 O   0  0  0  0  0  0  0  0  0  0  0  0
  -20.7980  -30.0130   21.7260 H   0  0  0  0  0  0  0  0  0  0  0  0
  -17.8250  -28.4450   22.9820 C   0  0  0  0  0  0  0  0  0  0  0  0
  -20.4100  -28.4190   23.0610 C   0  0  0  0  0  3  0  0  0  0  0  0
  -20.3130  -27.0670   22.3180 C   0  0  0  0  0  2  0  0  0  0  0  0
  -19.1130  -26.9830   21.3700 C   0  0  0  0  0  2  0  0  0  0  0  0
  -17.8050  -27.1820   22.1380 C   0  0  0  0  0  2  0  0  0  0  0  0
  -19.0470  -29.0340   23.4040 C   0  0  0  0  0  0  0  0  0  0  0  0
  -19.0060  -30.2230   24.1640 C   0  0  0  0  0  3  0  0  0  0  0  0
  -17.7770  -30.8250   24.4930 C   0  0  0  0  0  3  0  0  0  0  0  0
  -16.5720  -30.2300   24.0830 C   0  0  0  0  0  3  0  0  0  0  0  0
  -16.5940  -29.0380   23.3380 C   0  0  0  0  0  3  0  0  0  0  0  0
  -25.8290  -32.2970   23.9200 C   0  0  0  0  0  3  0  0  0  0  0  0
  -26.3310  -31.4230   25.1330 C   0  0  1  0  0  0  0  0  0  0  0  0
  -25.2320  -31.1200   26.1780 C   0  0  0  0  0  1  0  0  0  0  0  0
  -26.8940  -30.0700   24.6390 C   0  0  0  0  0  1  0  0  0  0  0  0
  -27.4910  -32.1470   25.8620 C   0  0  0  0  0  1  0  0  0  0  0  0
  -25.5420  -33.6680   24.3690 N   0  0  0  0  0  0  0  0  0  0  0  0
  -25.9070  -34.7770   23.7120 C   0  0  0  0  0  0  0  0  0  0  0  0
  -26.5860  -34.7450   22.6830 O   0  0  0  0  0  0  0  0  0  0  0  0
  -24.9490  -33.7620   25.1800 H   0  0  0  0  0  0  0  0  0  0  0  0
  -24.2290  -36.6370   23.4850 C   0  0  0  0  0  1  0  0  0  0  0  0
  -25.4420  -36.1330   24.2820 C   0  0  0  0  0  3  0  0  0  0  0  0
  -27.5780  -36.8860   25.2360 C   0  0  0  0  0  1  0  0  0  0  0  0
  -26.5020  -37.1650   24.2900 N   0  0  0  0  0  0  0  0  0  0  0  0
  -26.1100  -38.0770   24.5130 H   0  0  0  0  0  0  0  0  0  0  0  0
  -28.9500  -20.6870   19.3130 C   0  0  0  0  0  2  0  0  0  0  0  0
  -29.7290  -19.3200   18.5920 C   0  0  0  0  0  2  0  0  0  0  0  0
  -30.8420  -18.1000   19.0950 C   0  0  0  0  0  3  0  0  0  0  0  0
  -31.4420  -15.3720   19.3220 C   0  0  0  0  0  0  0  0  0  0  0  0
  -31.3210  -12.8510   19.0400 C   0  0  0  0  0  2  0  0  0  0  0  0
  -30.3680  -12.4500   17.8910 C   0  0  0  0  0  2  0  0  0  0  0  0
  -28.9060  -12.3830   18.3720 C   0  0  0  0  0  2  0  0  0  0  0  0
  -28.5160  -13.6000   19.2510 C   0  0  0  0  0  3  0  0  0  0  0  0
  -29.5840  -13.9200   20.3160 C   0  0  0  0  0  2  0  0  0  0  0  0
  -30.8370  -14.1470   19.5870 N   0  0  0  0  0  0  0  0  0  0  0  0
  -32.6640  -15.3720   19.1510 O   0  0  0  0  0  0  0  0  0  0  0  0
  -30.6400  -16.5230   19.0340 N   0  0  0  0  0  0  0  0  0  0  0  0
  -29.6680  -16.2750   18.9540 H   0  0  0  0  0  0  0  0  0  0  0  0
  -26.2890  -14.4680   20.1680 C   0  0  0  0  0  0  0  0  0  0  0  0
  -25.1560  -13.8320   20.5910 C   0  0  0  0  0  0  0  0  0  0  0  0
  -25.4310  -12.4310   20.5000 C   0  0  0  0  0  0  0  0  0  0  0  0
  -27.1860  -13.4670   19.8390 N   0  0  0  0  0  0  0  0  0  0  0  0
  -26.6820  -12.2320   20.1040 N   0  0  0  0  0  0  0  0  0  0  0  0
  -24.5510  -11.2710   20.7040 C   0  0  0  0  0  0  0  0  0  0  0  0
  -24.9370  -10.1790   21.5110 C   0  0  0  0  0  3  0  0  0  0  0  0
  -24.0640   -9.0880   21.7070 C   0  0  0  0  0  3  0  0  0  0  0  0
  -22.7880   -9.0810   21.0960 C   0  0  0  0  0  0  0  0  0  0  0  0
  -22.4170  -10.1600   20.2750 C   0  0  0  0  0  3  0  0  0  0  0  0
  -23.2900  -11.2430   20.0780 C   0  0  0  0  0  3  0  0  0  0  0  0
  -21.8820   -8.0530   21.2110 O   0  0  0  0  0  0  0  0  0  0  0  0
  -21.8450   -7.2490   22.3220 C   0  0  0  0  0  0  0  0  0  0  0  0
  -21.6390   -7.7750   23.6160 C   0  0  0  0  0  3  0  0  0  0  0  0
  -21.5400   -6.9060   24.7210 C   0  0  0  0  0  3  0  0  0  0  0  0
  -21.6340   -5.5130   24.5330 C   0  0  0  0  0  0  0  0  0  0  0  0
  -21.8340   -4.9890   23.2430 C   0  0  0  0  0  3  0  0  0  0  0  0
  -21.9390   -5.8560   22.1410 C   0  0  0  0  0  0  0  0  0  0  0  0
  -22.1080   -5.3450   20.8990 F   0  0  0  0  0  0  0  0  0  0  0  0
  -21.5310   -4.6760   25.5900 F   0  0  0  0  0  0  0  0  0  0  0  0
  -23.8540  -14.4840   20.9530 C   0  0  0  0  0  0  0  0  0  0  0  0
  -23.1280  -13.9090   21.9070 N   0  0  0  0  0  0  0  0  0  0  0  0
  -23.4950  -15.5370   20.4220 O   0  0  0  0  0  0  0  0  0  0  0  0
  -23.4330  -13.0610   22.3580 H   0  0  0  0  0  0  0  0  0  0  0  0
  -22.2510  -14.3250   22.1900 H   0  0  0  0  0  0  0  0  0  0  0  0
  -26.6210  -15.8090   20.0040 N   0  0  0  0  0  0  0  0  0  0  0  0
  -25.9240  -16.5350   20.1240 H   0  0  0  0  0  0  0  0  0  0  0  0
  -27.4530  -16.1380   19.5340 H   0  0  0  0  0  0  0  0  0  0  0  0
  -30.7580  -17.9960   21.6860 C   0  0  0  0  0  3  0  0  0  0  0  0
  -32.2220  -19.5920   22.5190 C   0  0  0  0  0  3  0  0  0  0  0  0
  -31.2670  -18.6650   22.8410 C   0  0  0  0  0  0  0  0  0  0  0  0
  -31.2930  -18.4430   20.5000 C   0  0  0  0  0  0  0  0  0  0  0  0
  -30.7770  -18.4100   24.2350 C   0  0  0  0  0  1  0  0  0  0  0  0
  -32.5520  -19.6180   20.8090 S   0  0  0  0  0  0  0  0  0  0  0  0
  1  3  2  0
  1  4  1  0
  3  5  1  0
  4  6  2  0
  5 50  1  0
  5  2  2  0
  6  2  1  0
  6  9  1  0
  7  3  1  0
  8  4  1  0
 10 21  2  0
 11  9  1  0
 11 16  1  0
 12 20  1  0
 12 22  1  0
 13 19  1  0
 13 15  1  0
 14 20  1  0
 15 14  1  0
 16 15  2  0
 17 18  1  0
 17 11  2  0
 18 13  2  0
 19 12  1  0
 20 10  1  0
 22 24  2  0
 23 22  1  0
 25 23  1  0
 26 35  2  0
 26 31  1  0
 27 23  1  0
 27 31  1  0
 28 27  1  0
 29 30  1  0
 29 28  1  0
 30 26  1  0
 31 32  2  0
 32 33  1  0
 34 33  2  0
 35 34  1  0
 36 10  1  0
 36 41  1  0
 36 37  1  0
 37 40  1  1
 37 38  1  0
 39 37  1  0
 41 44  1  0
 42 46  1  0
 42 41  1  0
 43 42  2  0
 46 45  1  0
 46 48  1  0
 48 49  1  0
 48 47  1  0
 51 50  1  0
 52 51  1  0
 52 94  1  0
 53 59  1  0
 54 59  1  0
 55 56  1  0
 55 54  1  0
 57 56  1  0
 57 66  1  0
 57 58  1  0
 59 58  1  0
 60 53  2  0
 61 52  1  0
 61 53  1  0
 62 61  1  0
 63 64  2  0
 64 83  1  0
 65 64  1  0
 65 68  1  0
 66 67  1  0
 66 63  1  0
 67 65  2  0
 68 69  1  0
 69 70  2  0
 71 74  1  0
 71 70  1  0
 72 71  2  0
 73 72  1  0
 73 68  2  0
 74 75  1  0
 75 76  1  0
 76 77  2  0
 78 77  1  0
 78 82  1  0
 79 78  2  0
 80 75  2  0
 80 79  1  0
 81 80  1  0
 83 84  1  0
 84 87  1  0
 84 86  1  0
 85 83  2  0
 88 89  1  0
 88 63  1  0
 90 88  1  0
 91 93  1  0
 92 93  2  0
 93 95  1  0
 94 96  1  0
 94 91  2  0
 96 92  1  0
M  ISO  4   6 101   9 101  53 100  61 100
M  END
>  <TORSDO>  (56) 
F 20

>  <SCORE>  (56) 
-12.222

>  <name>  (56) 
55

>  <ligand_id>  (56) 
55

>  <original_smiles>  (56) 
[H]c1sc(C([H])(N([H])C(=O)N2C([H])([H])C([H])([H])C([H])([H])C([H])(n3nc(-c4c([H])c([H])c(Oc5c([H])c([H])c(F)c([H])c5F)c([H])c4[H])c(C(=O)N([H])[H])c3N([H])[H])C2([H])[H])C([H])([H])C([H])([H])c2c([H])c(Oc3c([H])c([H])c4c(c3[H])C([H])([H])N(C(=O)C([H])(N([H])C(=O)C([H])(N([H])C([H])([H])[H])C([H])([H])[H])C(C([H])([H])[H])(C([H])([H])[H])C([H])([H])[H])C([H])(C(=O)N([H])C3([H])c5c([H])c([H])c([H])c([H])c5C([H])([H])C([H])([H])C3([H])[H])C4([H])[H])c(C([H])([H])[H])c([H])c2C([H])([H])[H])c([H])c1C([H])([H])[H]

>  <smiles>  (56) 
[H]c1sc(C([H])(N([H])C(=O)N2C([H])([H])C([H])([H])C([H])([H])C([H])(n3nc(-c4c([H])c([H])c(Oc5c([H])c([H])c(F)c([H])c5F)c([H])c4[H])c(C(=O)N([H])[H])c3N([H])[H])C2([H])[H])C([H])([H])C([H])([H])c2c([H])c(Oc3c([H])c([H])c4c(c3[H])C([H])([H])N(C(=O)C([H])(N([H])C(=O)C([H])(N([H])C([H])([H])[H])C([H])([H])[H])C(C([H])([H])[H])(C([H])([H])[H])C([H])([H])[H])C([H])(C(=O)N([H])C3([H])c5c([H])c([H])c([H])c([H])c5C([H])([H])C([H])([H])C3([H])[H])C4([H])[H])c(C([H])([H])[H])c([H])c2C([H])([H])[H])c([H])c1C([H])([H])[H]

$$$$
56:0:0
     RDKit          3D

 91 99  0  0  1  0  0  0  0  0999 V2000
  -29.9890  -21.4260   20.2050 C   0  0  0  0  0  3  0  0  0  0  0  0
  -29.2470  -22.6070   20.0870 C   0  0  0  0  0  3  0  0  0  0  0  0
  -30.4750  -21.0020   21.4550 C   0  0  0  0  0  0  0  0  0  0  0  0
  -28.9540  -23.3900   21.2210 C   0  0  0  0  0  0  0  0  0  0  0  0
  -30.1960  -21.7810   22.6120 C   0  0  0  0  0  0  0  0  0  0  0  0
  -29.4250  -22.9760   22.4960 C   0  0  0  0  0  0  0  0  0  0  0  0
  -30.7300  -21.3510   23.9750 C   0  0  0  0  0  1  0  0  0  0  0  0
  -29.0830  -23.8160   23.7260 C   0  0  0  0  0  1  0  0  0  0  0  0
  -31.3000  -19.7180   21.4820 C   0  0  0  0  0  2  0  0  0  0  0  0
  -30.4530  -18.4280   21.4970 C   0  0  0  0  0  2  0  0  0  0  0  0
  -31.3240  -17.1720   21.2940 C   0  0  0  0  0  2  0  0  0  0  0  0
  -30.5320  -15.8420   21.2600 C   0  0  0  0  0  2  0  0  0  0  0  0
  -31.2570  -14.6570   20.5790 C   0  0  0  0  0  0  0  0  0  0  0  0
  -31.0130  -12.4740   19.4500 C   0  0  0  0  0  2  0  0  0  0  0  0
  -30.1130  -12.6400   18.2080 C   0  0  0  0  0  2  0  0  0  0  0  0
  -28.6190  -12.5360   18.5840 C   0  0  0  0  0  2  0  0  0  0  0  0
  -28.2410  -13.4200   19.8030 C   0  0  0  0  0  3  0  0  0  0  0  0
  -29.2460  -13.2130   20.9570 C   0  0  0  0  0  2  0  0  0  0  0  0
  -30.5970  -13.4800   20.4390 N   0  0  0  0  0  0  0  0  0  0  0  0
  -32.3780  -14.8410   20.0910 O   0  0  0  0  0  0  0  0  0  0  0  0
  -25.8340  -14.0910   20.4270 C   0  0  0  0  0  0  0  0  0  0  0  0
  -24.7330  -13.3460   20.7590 C   0  0  0  0  0  0  0  0  0  0  0  0
  -25.1590  -11.9820   20.7420 C   0  0  0  0  0  0  0  0  0  0  0  0
  -26.8630  -13.1810   20.2320 N   0  0  0  0  0  0  0  0  0  0  0  0
  -26.4570  -11.9080   20.4760 N   0  0  0  0  0  0  0  0  0  0  0  0
  -24.3930  -10.7400   20.9060 C   0  0  0  0  0  0  0  0  0  0  0  0
  -24.7580   -9.7680   21.8630 C   0  0  0  0  0  3  0  0  0  0  0  0
  -23.9960   -8.5910   22.0150 C   0  0  0  0  0  3  0  0  0  0  0  0
  -22.8530   -8.3750   21.2070 C   0  0  0  0  0  0  0  0  0  0  0  0
  -22.5070   -9.3370   20.2420 C   0  0  0  0  0  3  0  0  0  0  0  0
  -23.2690  -10.5060   20.0890 C   0  0  0  0  0  3  0  0  0  0  0  0
  -22.0680   -7.2490   21.2640 O   0  0  0  0  0  0  0  0  0  0  0  0
  -21.9080   -6.5420   22.4290 C   0  0  0  0  0  0  0  0  0  0  0  0
  -21.4010   -7.1470   23.6020 C   0  0  0  0  0  3  0  0  0  0  0  0
  -21.1870   -6.3680   24.7570 C   0  0  0  0  0  3  0  0  0  0  0  0
  -21.4690   -4.9900   24.7410 C   0  0  0  0  0  0  0  0  0  0  0  0
  -21.9680   -4.3860   23.5730 C   0  0  0  0  0  3  0  0  0  0  0  0
  -22.1830   -5.1620   22.4200 C   0  0  0  0  0  0  0  0  0  0  0  0
  -22.6460   -4.5700   21.2900 F   0  0  0  0  0  0  0  0  0  0  0  0
  -21.2550   -4.2410   25.8480 F   0  0  0  0  0  0  0  0  0  0  0  0
  -23.3420  -13.8610   20.9830 C   0  0  0  0  0  0  0  0  0  0  0  0
  -22.5750  -13.2040   21.8470 N   0  0  0  0  0  0  0  0  0  0  0  0
  -22.9410  -14.8850   20.4300 O   0  0  0  0  0  0  0  0  0  0  0  0
  -22.9090  -12.3770   22.3170 H   0  0  0  0  0  0  0  0  0  0  0  0
  -21.6410  -13.5370   22.0380 H   0  0  0  0  0  0  0  0  0  0  0  0
  -26.0400  -15.4570   20.2600 N   0  0  0  0  0  0  0  0  0  0  0  0
  -25.2860  -16.1290   20.3520 H   0  0  0  0  0  0  0  0  0  0  0  0
  -26.9150  -15.8780   19.9740 H   0  0  0  0  0  0  0  0  0  0  0  0
  -28.1330  -24.6600   20.9910 C   0  0  0  0  0  2  0  0  0  0  0  0
  -28.9980  -25.9440   20.9660 C   0  0  0  0  0  2  0  0  0  0  0  0
  -28.6970  -26.8340   19.8840 O   0  0  0  0  0  0  0  0  0  0  0  0
  -24.6640  -31.7040   23.1740 C   0  0  0  0  0  0  0  0  0  0  0  0
  -27.5030  -27.5070   19.9590 C   0  0  0  0  0  0  0  0  0  0  0  0
  -23.5360  -30.3410   21.4450 C   0  0  0  0  0  3  0  0  0  0  0  0
  -25.0680  -28.9260   19.9790 C   0  0  0  0  0  0  0  0  0  0  0  0
  -26.0480  -30.7980   21.3130 C   0  0  0  0  0  2  0  0  0  0  0  0
  -26.1940  -29.4600   20.6190 C   0  0  0  0  0  0  0  0  0  0  0  0
  -27.4180  -28.7540   20.6120 C   0  0  0  0  0  3  0  0  0  0  0  0
  -26.3680  -26.9900   19.3030 C   0  0  0  0  0  3  0  0  0  0  0  0
  -25.1450  -27.6860   19.3230 C   0  0  0  0  0  3  0  0  0  0  0  0
  -23.7960  -29.7410   20.0380 C   0  0  0  0  0  2  0  0  0  0  0  0
  -24.7660  -30.9610   22.0360 N   0  0  0  0  0  0  0  0  0  0  0  0
  -23.5660  -31.9080   23.7090 O   0  0  0  0  0  0  0  0  0  0  0  0
  -22.9090  -29.2490   22.3430 C   0  0  0  0  0  0  0  0  0  0  0  0
  -21.5860  -29.0530   22.2160 N   0  0  0  0  0  0  0  0  0  0  0  0
  -23.6090  -28.5840   23.1110 O   0  0  0  0  0  0  0  0  0  0  0  0
  -21.0800  -29.6440   21.5720 H   0  0  0  0  0  0  0  0  0  0  0  0
  -18.2340  -27.7860   22.6650 C   0  0  0  0  0  0  0  0  0  0  0  0
  -20.7900  -28.0590   22.9350 C   0  0  0  0  0  3  0  0  0  0  0  0
  -20.9060  -26.6670   22.2700 C   0  0  0  0  0  2  0  0  0  0  0  0
  -19.8000  -26.3960   21.2470 C   0  0  0  0  0  2  0  0  0  0  0  0
  -18.4210  -26.4830   21.9080 C   0  0  0  0  0  2  0  0  0  0  0  0
  -19.3460  -28.5350   23.1330 C   0  0  0  0  0  0  0  0  0  0  0  0
  -19.1150  -29.7580   23.8000 C   0  0  0  0  0  3  0  0  0  0  0  0
  -17.8040  -30.2310   24.0070 C   0  0  0  0  0  3  0  0  0  0  0  0
  -16.7070  -29.4770   23.5550 C   0  0  0  0  0  3  0  0  0  0  0  0
  -16.9220  -28.2570   22.8890 C   0  0  0  0  0  3  0  0  0  0  0  0
  -25.9160  -32.3510   23.8410 C   0  0  0  0  0  3  0  0  0  0  0  0
  -25.5600  -33.7270   24.2100 N   0  0  0  0  0  0  0  0  0  0  0  0
  -25.8890  -34.8160   23.5020 C   0  0  0  0  0  0  0  0  0  0  0  0
  -26.5950  -34.7670   22.4900 O   0  0  0  0  0  0  0  0  0  0  0  0
  -24.9400  -33.8400   25.0000 H   0  0  0  0  0  0  0  0  0  0  0  0
  -24.1250  -36.5730   23.1530 C   0  0  0  0  0  1  0  0  0  0  0  0
  -25.3490  -36.1730   23.9910 C   0  0  0  0  0  3  0  0  0  0  0  0
  -27.4280  -37.0840   24.9290 C   0  0  0  0  0  1  0  0  0  0  0  0
  -26.3550  -37.2570   23.9530 N   0  0  0  0  0  0  0  0  0  0  0  0
  -25.9180  -38.1600   24.1170 H   0  0  0  0  0  0  0  0  0  0  0  0
  -26.4330  -31.5530   25.0990 C   0  0  1  0  0  0  0  0  0  0  0  0
  -25.3320  -31.2590   26.1450 C   0  0  0  0  0  1  0  0  0  0  0  0
  -27.0520  -30.2020   24.6660 C   0  0  0  0  0  1  0  0  0  0  0  0
  -27.5540  -32.3540   25.8040 C   0  0  0  0  0  1  0  0  0  0  0  0
  1  3  1  0
  2  1  2  0
  2  4  1  0
  3  9  1  0
  3  5  2  0
  4  6  2  0
  5  7  1  0
  6  5  1  0
  6  8  1  0
  9 10  1  0
 11 10  1  0
 12 11  1  0
 13 12  1  0
 14 19  1  0
 15 16  1  0
 15 14  1  0
 17 16  1  0
 17 24  1  0
 17 18  1  0
 19 13  1  0
 19 18  1  0
 20 13  2  0
 21 22  2  0
 22 41  1  0
 23 22  1  0
 23 26  1  0
 24 21  1  0
 24 25  1  0
 25 23  2  0
 26 27  1  0
 27 28  2  0
 29 32  1  0
 29 28  1  0
 30 29  2  0
 31 30  1  0
 31 26  2  0
 32 33  1  0
 33 34  1  0
 34 35  2  0
 36 35  1  0
 36 40  1  0
 37 36  2  0
 38 33  2  0
 38 37  1  0
 39 38  1  0
 41 42  1  0
 42 45  1  0
 42 44  1  0
 43 41  2  0
 46 47  1  0
 46 21  1  0
 48 46  1  0
 49  4  1  0
 50 49  1  0
 51 53  1  0
 51 50  1  0
 52 63  2  0
 53 58  1  0
 54 62  1  0
 54 64  1  0
 55 61  1  0
 55 57  1  0
 56 62  1  0
 57 56  1  0
 58 57  2  0
 59 60  1  0
 59 53  2  0
 60 55  2  0
 61 54  1  0
 62 52  1  0
 64 66  2  0
 65 64  1  0
 67 65  1  0
 68 77  2  0
 68 73  1  0
 69 65  1  0
 69 73  1  0
 70 69  1  0
 71 72  1  0
 71 70  1  0
 72 68  1  0
 73 74  2  0
 74 75  1  0
 76 75  2  0
 77 76  1  0
 78 52  1  0
 78 79  1  0
 78 88  1  0
 79 82  1  0
 80 84  1  0
 80 79  1  0
 81 80  2  0
 84 83  1  0
 86 84  1  0
 86 87  1  0
 86 85  1  0
 88 91  1  1
 88 89  1  0
 90 88  1  0
M  ISO  4  12 100  13 100  50 101  51 101
M  END
>  <TORSDO>  (57) 
F 22

>  <SCORE>  (57) 
-12.465

>  <name>  (57) 
56

>  <ligand_id>  (57) 
56

>  <original_smiles>  (57) 
[H]c1c([H])c([H])c2c(c1[H])C([H])([H])C([H])([H])C([H])([H])C2([H])N([H])C(=O)C1([H])N(C(=O)C([H])(N([H])C(=O)C([H])(N([H])C([H])([H])[H])C([H])([H])[H])C(C([H])([H])[H])(C([H])([H])[H])C([H])([H])[H])C([H])([H])c2c([H])c(OC([H])([H])C([H])([H])c3c([H])c([H])c(C([H])([H])C([H])([H])C([H])([H])C([H])([H])C(=O)N4C([H])([H])C([H])([H])C([H])([H])C([H])(n5nc(-c6c([H])c([H])c(Oc7c([H])c([H])c(F)c([H])c7F)c([H])c6[H])c(C(=O)N([H])[H])c5N([H])[H])C4([H])[H])c(C([H])([H])[H])c3C([H])([H])[H])c([H])c([H])c2C1([H])[H]

>  <smiles>  (57) 
[H]c1c([H])c([H])c2c(c1[H])C([H])([H])C([H])([H])C([H])([H])C2([H])N([H])C(=O)C1([H])N(C(=O)C([H])(N([H])C(=O)C([H])(N([H])C([H])([H])[H])C([H])([H])[H])C(C([H])([H])[H])(C([H])([H])[H])C([H])([H])[H])C([H])([H])c2c([H])c(OC([H])([H])C([H])([H])c3c([H])c([H])c(C([H])([H])C([H])([H])C([H])([H])C([H])([H])C(=O)N4C([H])([H])C([H])([H])C([H])([H])C([H])(n5nc(-c6c([H])c([H])c(Oc7c([H])c([H])c(F)c([H])c7F)c([H])c6[H])c(C(=O)N([H])[H])c5N([H])[H])C4([H])[H])c(C([H])([H])[H])c3C([H])([H])[H])c([H])c([H])c2C1([H])[H]

$$$$
57:0:0
     RDKit          3D

 91 99  0  0  1  0  0  0  0  0999 V2000
  -28.4740  -24.0850   19.0600 C   0  0  0  0  0  3  0  0  0  0  0  0
  -28.9610  -24.2510   21.3620 C   0  0  0  0  0  3  0  0  0  0  0  0
  -28.8130  -22.6730   19.0810 C   0  0  0  0  0  0  0  0  0  0  0  0
  -29.2930  -21.9830   20.2480 C   0  0  0  0  0  0  0  0  0  0  0  0
  -28.5580  -24.9620   20.1860 C   0  0  0  0  0  0  0  0  0  0  0  0
  -29.3140  -22.8340   21.4070 C   0  0  0  0  0  0  0  0  0  0  0  0
  -28.7160  -21.9180   17.7680 C   0  0  0  0  0  1  0  0  0  0  0  0
  -29.8470  -23.0020   23.7500 C   0  0  0  0  0  1  0  0  0  0  0  0
  -29.7610  -22.2280   22.5610 O   0  0  0  0  0  0  0  0  0  0  0  0
  -28.5110  -26.4160   20.0980 O   0  0  0  0  0  0  0  0  0  0  0  0
  -24.7520  -31.8640   23.2410 C   0  0  0  0  0  0  0  0  0  0  0  0
  -27.3790  -27.2830   20.1140 C   0  0  0  0  0  0  0  0  0  0  0  0
  -23.5620  -30.4980   21.5640 C   0  0  0  0  0  3  0  0  0  0  0  0
  -25.0230  -28.9600   20.1130 C   0  0  0  0  0  0  0  0  0  0  0  0
  -26.1070  -30.7980   21.4050 C   0  0  0  0  0  2  0  0  0  0  0  0
  -26.1910  -29.4200   20.7330 C   0  0  0  0  0  0  0  0  0  0  0  0
  -27.3680  -28.5960   20.7190 C   0  0  0  0  0  3  0  0  0  0  0  0
  -26.1860  -26.8970   19.4680 C   0  0  0  0  0  3  0  0  0  0  0  0
  -25.0290  -27.7090   19.4700 C   0  0  0  0  0  3  0  0  0  0  0  0
  -23.7900  -29.8460   20.1720 C   0  0  0  0  0  2  0  0  0  0  0  0
  -24.8260  -31.0730   22.1270 N   0  0  0  0  0  0  0  0  0  0  0  0
  -23.6640  -32.1290   23.7730 O   0  0  0  0  0  0  0  0  0  0  0  0
  -22.8900  -29.4650   22.5020 C   0  0  0  0  0  0  0  0  0  0  0  0
  -21.5610  -29.3030   22.3770 N   0  0  0  0  0  0  0  0  0  0  0  0
  -23.5640  -28.8140   23.3040 O   0  0  0  0  0  0  0  0  0  0  0  0
  -21.0750  -29.8780   21.7040 H   0  0  0  0  0  0  0  0  0  0  0  0
  -18.1740  -28.1230   22.8780 C   0  0  0  0  0  0  0  0  0  0  0  0
  -20.7380  -28.3490   23.1260 C   0  0  0  0  0  3  0  0  0  0  0  0
  -20.8180  -26.9360   22.5010 C   0  0  0  0  0  2  0  0  0  0  0  0
  -19.7010  -26.6610   21.4890 C   0  0  0  0  0  2  0  0  0  0  0  0
  -18.3290  -26.7970   22.1540 C   0  0  0  0  0  2  0  0  0  0  0  0
  -19.3060  -28.8600   23.3210 C   0  0  0  0  0  0  0  0  0  0  0  0
  -19.1050  -30.1020   23.9600 C   0  0  0  0  0  3  0  0  0  0  0  0
  -17.8060  -30.6070   24.1600 C   0  0  0  0  0  3  0  0  0  0  0  0
  -16.6900  -29.8680   23.7320 C   0  0  0  0  0  3  0  0  0  0  0  0
  -16.8740  -28.6270   23.0980 C   0  0  0  0  0  3  0  0  0  0  0  0
  -26.0260  -32.4890   23.8860 C   0  0  0  0  0  3  0  0  0  0  0  0
  -26.5370  -31.6920   25.1490 C   0  0  1  0  0  0  0  0  0  0  0  0
  -25.4410  -31.4290   26.2070 C   0  0  0  0  0  1  0  0  0  0  0  0
  -27.1230  -30.3240   24.7280 C   0  0  0  0  0  1  0  0  0  0  0  0
  -27.6860  -32.4700   25.8320 C   0  0  0  0  0  1  0  0  0  0  0  0
  -25.7100  -33.8780   24.2520 N   0  0  0  0  0  0  0  0  0  0  0  0
  -25.9940  -34.9480   23.4980 C   0  0  0  0  0  0  0  0  0  0  0  0
  -26.6210  -34.8710   22.4380 O   0  0  0  0  0  0  0  0  0  0  0  0
  -25.1540  -34.0110   25.0840 H   0  0  0  0  0  0  0  0  0  0  0  0
  -24.2040  -36.7020   23.2770 C   0  0  0  0  0  1  0  0  0  0  0  0
  -25.5080  -36.3240   23.9990 C   0  0  0  0  0  3  0  0  0  0  0  0
  -27.6700  -37.2590   24.6940 C   0  0  0  0  0  1  0  0  0  0  0  0
  -26.5070  -37.4020   23.8230 N   0  0  0  0  0  0  0  0  0  0  0  0
  -26.0890  -38.3120   24.0000 H   0  0  0  0  0  0  0  0  0  0  0  0
  -30.0480  -20.5210   20.2050 C   0  0  0  0  0  2  0  0  0  0  0  0
  -29.4510  -18.9800   20.3560 C   0  0  0  0  0  3  0  0  0  0  0  0
  -30.4810  -17.6650   20.3070 C   0  0  0  0  0  3  0  0  0  0  0  0
  -30.8310  -14.9910   20.3070 C   0  0  0  0  0  0  0  0  0  0  0  0
  -30.6920  -12.6590   19.3690 C   0  0  0  0  0  2  0  0  0  0  0  0
  -29.7350  -12.6120   18.1570 C   0  0  0  0  0  2  0  0  0  0  0  0
  -28.2790  -12.4100   18.6150 C   0  0  0  0  0  2  0  0  0  0  0  0
  -27.8890  -13.3370   19.7970 C   0  0  0  0  0  3  0  0  0  0  0  0
  -28.9640  -13.3480   20.9050 C   0  0  0  0  0  2  0  0  0  0  0  0
  -30.2260  -13.7450   20.2710 N   0  0  0  0  0  0  0  0  0  0  0  0
  -32.0300  -15.0660   20.0230 O   0  0  0  0  0  0  0  0  0  0  0  0
  -30.0600  -16.1650   20.4340 N   0  0  0  0  0  0  0  0  0  0  0  0
  -29.0770  -16.0030   20.5890 H   0  0  0  0  0  0  0  0  0  0  0  0
  -25.5250  -13.9040   20.6040 C   0  0  0  0  0  0  0  0  0  0  0  0
  -24.4670  -13.1200   20.9720 C   0  0  0  0  0  0  0  0  0  0  0  0
  -24.9260  -11.7690   20.8920 C   0  0  0  0  0  0  0  0  0  0  0  0
  -26.5610  -13.0300   20.3170 N   0  0  0  0  0  0  0  0  0  0  0  0
  -26.2110  -11.7400   20.5570 N   0  0  0  0  0  0  0  0  0  0  0  0
  -24.2010  -10.5040   21.0580 C   0  0  0  0  0  0  0  0  0  0  0  0
  -24.6250   -9.5240   21.9830 C   0  0  0  0  0  3  0  0  0  0  0  0
  -23.8990   -8.3240   22.1380 C   0  0  0  0  0  3  0  0  0  0  0  0
  -22.7340   -8.0940   21.3680 C   0  0  0  0  0  0  0  0  0  0  0  0
  -22.3300   -9.0620   20.4310 C   0  0  0  0  0  3  0  0  0  0  0  0
  -23.0560  -10.2540   20.2740 C   0  0  0  0  0  3  0  0  0  0  0  0
  -21.9800   -6.9470   21.4340 O   0  0  0  0  0  0  0  0  0  0  0  0
  -21.8730   -6.2210   22.5930 C   0  0  0  0  0  0  0  0  0  0  0  0
  -21.3540   -6.7850   23.7790 C   0  0  0  0  0  3  0  0  0  0  0  0
  -21.1950   -5.9840   24.9280 C   0  0  0  0  0  3  0  0  0  0  0  0
  -21.5460   -4.6220   24.8920 C   0  0  0  0  0  0  0  0  0  0  0  0
  -22.0560   -4.0570   23.7100 C   0  0  0  0  0  3  0  0  0  0  0  0
  -22.2170   -4.8550   22.5630 C   0  0  0  0  0  0  0  0  0  0  0  0
  -22.6900   -4.3010   21.4200 F   0  0  0  0  0  0  0  0  0  0  0  0
  -21.3860   -3.8520   25.9930 F   0  0  0  0  0  0  0  0  0  0  0  0
  -23.0750  -13.5910   21.2820 C   0  0  0  0  0  0  0  0  0  0  0  0
  -22.3630  -12.8730   22.1420 N   0  0  0  0  0  0  0  0  0  0  0  0
  -22.6300  -14.6300   20.7960 O   0  0  0  0  0  0  0  0  0  0  0  0
  -22.7370  -12.0330   22.5570 H   0  0  0  0  0  0  0  0  0  0  0  0
  -21.4280  -13.1670   22.3890 H   0  0  0  0  0  0  0  0  0  0  0  0
  -25.6880  -15.2780   20.4600 N   0  0  0  0  0  0  0  0  0  0  0  0
  -24.9250  -15.9300   20.6130 H   0  0  0  0  0  0  0  0  0  0  0  0
  -26.5180  -15.7230   20.0930 H   0  0  0  0  0  0  0  0  0  0  0  0
  1  3  2  0
  1  5  1  0
  2  6  1  0
  3  4  1  0
  4  6  2  0
  5  2  2  0
  6  9  1  0
  7  3  1  0
  9  8  1  0
 10 12  1  0
 10  5  1  0
 11 22  2  0
 12 17  1  0
 13 21  1  0
 13 23  1  0
 14 20  1  0
 14 16  1  0
 15 21  1  0
 16 15  1  0
 17 16  2  0
 18 19  1  0
 18 12  2  0
 19 14  2  0
 20 13  1  0
 21 11  1  0
 23 25  2  0
 24 23  1  0
 26 24  1  0
 27 36  2  0
 27 32  1  0
 28 24  1  0
 28 32  1  0
 29 28  1  0
 30 31  1  0
 30 29  1  0
 31 27  1  0
 32 33  2  0
 33 34  1  0
 35 34  2  0
 36 35  1  0
 37 11  1  0
 37 42  1  0
 37 38  1  0
 38 41  1  1
 38 39  1  0
 40 38  1  0
 42 45  1  0
 43 47  1  0
 43 42  1  0
 44 43  2  0
 47 46  1  0
 49 47  1  0
 49 50  1  0
 49 48  1  0
 51  4  1  0
 51 52  1  0
 53 52  2  0
 53 62  1  0
 54 62  1  0
 55 60  1  0
 56 57  1  0
 56 55  1  0
 58 57  1  0
 58 67  1  0
 58 59  1  0
 60 54  1  0
 60 59  1  0
 61 54  2  0
 62 63  1  0
 64 65  2  0
 65 84  1  0
 66 65  1  0
 66 69  1  0
 67 68  1  0
 67 64  1  0
 68 66  2  0
 69 70  1  0
 70 71  2  0
 72 75  1  0
 72 71  1  0
 73 72  2  0
 74 73  1  0
 74 69  2  0
 75 76  1  0
 76 77  1  0
 77 78  2  0
 79 78  1  0
 79 83  1  0
 80 79  2  0
 81 76  2  0
 81 80  1  0
 82 81  1  0
 84 85  1  0
 85 88  1  0
 85 87  1  0
 86 84  2  0
 89 64  1  0
 89 90  1  0
 91 89  1  0
M  ISO  4   5 101  10 101  54 100  62 100
M  END
>  <TORSDO>  (58) 
F 20

>  <SCORE>  (58) 
-13.533

>  <name>  (58) 
57

>  <ligand_id>  (58) 
57

>  <original_smiles>  (58) 
[H]c1c([H])c([H])c2c(c1[H])C([H])([H])C([H])([H])C([H])([H])C2([H])N([H])C(=O)C1([H])N(C(=O)C([H])(N([H])C(=O)C([H])(N([H])C([H])([H])[H])C([H])([H])[H])C(C([H])([H])[H])(C([H])([H])[H])C([H])([H])[H])C([H])([H])c2c([H])c(Oc3c([H])c(OC([H])([H])[H])c(C([H])([H])C([H])([H])C([H])([H])N([H])C(=O)N4C([H])([H])C([H])([H])C([H])([H])C([H])(n5nc(-c6c([H])c([H])c(Oc7c([H])c([H])c(F)c([H])c7F)c([H])c6[H])c(C(=O)N([H])[H])c5N([H])[H])C4([H])[H])c(C([H])([H])[H])c3[H])c([H])c([H])c2C1([H])[H]

>  <smiles>  (58) 
[H]c1c([H])c([H])c2c(c1[H])C([H])([H])C([H])([H])C([H])([H])C2([H])N([H])C(=O)C1([H])N(C(=O)C([H])(N([H])C(=O)C([H])(N([H])C([H])([H])[H])C([H])([H])[H])C(C([H])([H])[H])(C([H])([H])[H])C([H])([H])[H])C([H])([H])c2c([H])c(Oc3c([H])c(OC([H])([H])[H])c(C([H])([H])C([H])([H])C([H])([H])N([H])C(=O)N4C([H])([H])C([H])([H])C([H])([H])C([H])(n5nc(-c6c([H])c([H])c(Oc7c([H])c([H])c(F)c([H])c7F)c([H])c6[H])c(C(=O)N([H])[H])c5N([H])[H])C4([H])[H])c(C([H])([H])[H])c3[H])c([H])c([H])c2C1([H])[H]

$$$$
58:0:0
     RDKit          3D

 91 99  0  0  1  0  0  0  0  0999 V2000
  -28.6340  -23.7690   17.6130 C   0  0  0  0  0  3  0  0  0  0  0  0
  -28.9310  -22.6300   18.3910 C   0  0  0  0  0  0  0  0  0  0  0  0
  -28.4380  -25.0440   18.1800 C   0  0  0  0  0  0  0  0  0  0  0  0
  -29.0150  -22.7240   19.8060 C   0  0  0  0  0  0  0  0  0  0  0  0
  -28.7610  -24.0400   20.3830 C   0  0  0  0  0  0  0  0  0  0  0  0
  -28.4620  -25.2160   19.5870 C   0  0  0  0  0  0  0  0  0  0  0  0
  -29.2270  -21.3360   17.6490 C   0  0  0  0  0  1  0  0  0  0  0  0
  -28.2530  -26.2230   17.2340 C   0  0  0  0  0  1  0  0  0  0  0  0
  -28.8660  -24.2290   21.8890 C   0  0  0  0  0  1  0  0  0  0  0  0
  -28.3620  -26.5260   20.1260 O   0  0  0  0  0  0  0  0  0  0  0  0
  -24.6170  -31.8780   23.2160 C   0  0  0  0  0  0  0  0  0  0  0  0
  -27.2030  -27.3210   20.1190 C   0  0  0  0  0  0  0  0  0  0  0  0
  -23.3950  -30.4720   21.5970 C   0  0  0  0  0  3  0  0  0  0  0  0
  -24.8250  -28.9150   20.1590 C   0  0  0  0  0  0  0  0  0  0  0  0
  -25.9290  -30.7980   21.3720 C   0  0  0  0  0  2  0  0  0  0  0  0
  -26.0020  -29.4160   20.7290 C   0  0  0  0  0  0  0  0  0  0  0  0
  -27.1910  -28.6300   20.6950 C   0  0  0  0  0  3  0  0  0  0  0  0
  -25.9900  -26.8550   19.5650 C   0  0  0  0  0  3  0  0  0  0  0  0
  -24.8180  -27.6390   19.5740 C   0  0  0  0  0  3  0  0  0  0  0  0
  -23.5880  -29.7890   20.2190 C   0  0  0  0  0  2  0  0  0  0  0  0
  -24.6680  -31.0660   22.1190 N   0  0  0  0  0  0  0  0  0  0  0  0
  -23.5390  -32.1540   23.7630 O   0  0  0  0  0  0  0  0  0  0  0  0
  -22.7440  -29.4590   22.5680 C   0  0  0  0  0  0  0  0  0  0  0  0
  -21.4160  -29.2770   22.4550 N   0  0  0  0  0  0  0  0  0  0  0  0
  -23.4320  -28.8390   23.3830 O   0  0  0  0  0  0  0  0  0  0  0  0
  -20.9210  -29.8300   21.7700 H   0  0  0  0  0  0  0  0  0  0  0  0
  -18.0510  -28.0610   22.9730 C   0  0  0  0  0  0  0  0  0  0  0  0
  -20.6070  -28.3400   23.2360 C   0  0  0  0  0  3  0  0  0  0  0  0
  -20.7190  -26.9040   22.6720 C   0  0  0  0  0  2  0  0  0  0  0  0
  -19.6170  -26.5640   21.6640 C   0  0  0  0  0  2  0  0  0  0  0  0
  -18.2360  -26.7060   22.3100 C   0  0  0  0  0  2  0  0  0  0  0  0
  -19.1650  -28.8350   23.3940 C   0  0  0  0  0  0  0  0  0  0  0  0
  -18.9370  -30.1020   23.9730 C   0  0  0  0  0  3  0  0  0  0  0  0
  -17.6280  -30.5960   24.1340 C   0  0  0  0  0  3  0  0  0  0  0  0
  -16.5290  -29.8180   23.7320 C   0  0  0  0  0  3  0  0  0  0  0  0
  -16.7410  -28.5510   23.1590 C   0  0  0  0  0  3  0  0  0  0  0  0
  -25.9070  -32.5130   23.8220 C   0  0  0  0  0  3  0  0  0  0  0  0
  -25.5990  -33.9080   24.1650 N   0  0  0  0  0  0  0  0  0  0  0  0
  -25.9230  -34.9670   23.4100 C   0  0  0  0  0  0  0  0  0  0  0  0
  -26.5820  -34.8700   22.3710 O   0  0  0  0  0  0  0  0  0  0  0  0
  -25.0120  -34.0560   24.9730 H   0  0  0  0  0  0  0  0  0  0  0  0
  -24.1930  -36.7630   23.0790 C   0  0  0  0  0  1  0  0  0  0  0  0
  -25.4380  -36.3520   23.8820 C   0  0  0  0  0  3  0  0  0  0  0  0
  -27.5790  -37.2280   24.7040 C   0  0  0  0  0  1  0  0  0  0  0  0
  -26.4710  -37.4050   23.7690 N   0  0  0  0  0  0  0  0  0  0  0  0
  -26.0660  -38.3250   23.9300 H   0  0  0  0  0  0  0  0  0  0  0  0
  -26.4460  -31.7370   25.0870 C   0  0  1  0  0  0  0  0  0  0  0  0
  -25.3720  -31.4900   26.1720 C   0  0  0  0  0  1  0  0  0  0  0  0
  -27.0260  -30.3640   24.6780 C   0  0  0  0  0  1  0  0  0  0  0  0
  -27.6060  -32.5300   25.7350 C   0  0  0  0  0  1  0  0  0  0  0  0
  -29.5600  -21.4810   20.6380 C   0  0  0  0  0  2  0  0  0  0  0  0
  -28.9440  -19.9960   20.5780 C   0  0  0  0  0  2  0  0  0  0  0  0
  -29.7850  -18.7660   19.9750 C   0  0  0  0  0  2  0  0  0  0  0  0
  -30.1850  -17.4650   20.8390 C   0  0  0  0  0  2  0  0  0  0  0  0
  -29.5810  -16.0110   20.5160 C   0  0  0  0  0  2  0  0  0  0  0  0
  -30.4980  -14.7050   20.3860 C   0  0  0  0  0  0  0  0  0  0  0  0
  -30.3560  -12.4410   19.3660 C   0  0  0  0  0  2  0  0  0  0  0  0
  -29.4120  -12.5570   18.1440 C   0  0  0  0  0  2  0  0  0  0  0  0
  -27.9370  -12.3920   18.5600 C   0  0  0  0  0  2  0  0  0  0  0  0
  -27.5670  -13.2450   19.7990 C   0  0  0  0  0  3  0  0  0  0  0  0
  -28.6210  -13.1000   20.9160 C   0  0  0  0  0  2  0  0  0  0  0  0
  -29.9280  -13.4550   20.3510 N   0  0  0  0  0  0  0  0  0  0  0  0
  -31.6880  -14.8460   20.0850 O   0  0  0  0  0  0  0  0  0  0  0  0
  -25.1720  -13.8330   20.5110 C   0  0  0  0  0  0  0  0  0  0  0  0
  -24.1080  -13.0570   20.8770 C   0  0  0  0  0  0  0  0  0  0  0  0
  -24.5780  -11.7070   20.8590 C   0  0  0  0  0  0  0  0  0  0  0  0
  -26.2200  -12.9570   20.2830 N   0  0  0  0  0  0  0  0  0  0  0  0
  -25.8710  -11.6740   20.5550 N   0  0  0  0  0  0  0  0  0  0  0  0
  -23.8590  -10.4430   21.0570 C   0  0  0  0  0  0  0  0  0  0  0  0
  -24.3010   -9.4760   21.9860 C   0  0  0  0  0  3  0  0  0  0  0  0
  -23.5810   -8.2760   22.1680 C   0  0  0  0  0  3  0  0  0  0  0  0
  -22.4040   -8.0360   21.4200 C   0  0  0  0  0  0  0  0  0  0  0  0
  -21.9810   -8.9920   20.4790 C   0  0  0  0  0  3  0  0  0  0  0  0
  -22.7020  -10.1830   20.2950 C   0  0  0  0  0  3  0  0  0  0  0  0
  -21.6520   -6.8900   21.5100 O   0  0  0  0  0  0  0  0  0  0  0  0
  -21.6250   -6.1360   22.6560 C   0  0  0  0  0  0  0  0  0  0  0  0
  -21.2320   -6.6850   23.8970 C   0  0  0  0  0  3  0  0  0  0  0  0
  -21.1500   -5.8590   25.0360 C   0  0  0  0  0  3  0  0  0  0  0  0
  -21.4540   -4.4880   24.9360 C   0  0  0  0  0  0  0  0  0  0  0  0
  -21.8440   -3.9400   23.7000 C   0  0  0  0  0  3  0  0  0  0  0  0
  -21.9250   -4.7620   22.5630 C   0  0  0  0  0  0  0  0  0  0  0  0
  -22.2800   -4.2250   21.3700 F   0  0  0  0  0  0  0  0  0  0  0  0
  -21.3700   -3.6920   26.0280 F   0  0  0  0  0  0  0  0  0  0  0  0
  -22.7070  -13.5280   21.1390 C   0  0  0  0  0  0  0  0  0  0  0  0
  -21.9800  -12.8310   22.0040 N   0  0  0  0  0  0  0  0  0  0  0  0
  -22.2660  -14.5480   20.6100 O   0  0  0  0  0  0  0  0  0  0  0  0
  -22.3520  -12.0050   22.4490 H   0  0  0  0  0  0  0  0  0  0  0  0
  -21.0400  -13.1260   22.2240 H   0  0  0  0  0  0  0  0  0  0  0  0
  -25.3340  -15.2040   20.3290 N   0  0  0  0  0  0  0  0  0  0  0  0
  -24.5690  -15.8610   20.4320 H   0  0  0  0  0  0  0  0  0  0  0  0
  -26.1920  -15.6420   20.0210 H   0  0  0  0  0  0  0  0  0  0  0  0
  1  3  2  0
  1  2  1  0
  2  4  2  0
  3  6  1  0
  4  5  1  0
  4 51  1  0
  5  9  1  0
  6 10  1  0
  6  5  2  0
  7  2  1  0
  8  3  1  0
 11 22  2  0
 12 10  1  0
 12 17  1  0
 13 21  1  0
 13 23  1  0
 14 20  1  0
 14 16  1  0
 15 21  1  0
 16 15  1  0
 17 16  2  0
 18 19  1  0
 18 12  2  0
 19 14  2  0
 20 13  1  0
 21 11  1  0
 23 25  2  0
 24 23  1  0
 26 24  1  0
 27 36  2  0
 27 32  1  0
 28 24  1  0
 28 32  1  0
 29 28  1  0
 30 31  1  0
 30 29  1  0
 31 27  1  0
 32 33  2  0
 33 34  1  0
 35 34  2  0
 36 35  1  0
 37 11  1  0
 37 38  1  0
 37 47  1  0
 38 41  1  0
 39 43  1  0
 39 38  1  0
 40 39  2  0
 43 42  1  0
 45 43  1  0
 45 46  1  0
 45 44  1  0
 47 50  1  1
 47 48  1  0
 49 47  1  0
 52 51  1  0
 53 52  1  0
 53 54  1  0
 55 54  1  0
 56 55  1  0
 57 62  1  0
 58 59  1  0
 58 57  1  0
 60 59  1  0
 60 67  1  0
 60 61  1  0
 62 56  1  0
 62 61  1  0
 63 56  2  0
 64 65  2  0
 65 84  1  0
 66 65  1  0
 66 69  1  0
 67 64  1  0
 67 68  1  0
 68 66  2  0
 69 70  1  0
 70 71  2  0
 72 75  1  0
 72 71  1  0
 73 72  2  0
 74 73  1  0
 74 69  2  0
 75 76  1  0
 76 77  1  0
 77 78  2  0
 79 78  1  0
 79 83  1  0
 80 79  2  0
 81 76  2  0
 81 80  1  0
 82 81  1  0
 84 85  1  0
 85 88  1  0
 85 87  1  0
 86 84  2  0
 89 90  1  0
 89 64  1  0
 91 89  1  0
M  ISO  4   6 101  10 101  55 100  56 100
M  END
>  <TORSDO>  (59) 
F 21

>  <SCORE>  (59) 
-13.485

>  <name>  (59) 
58

>  <ligand_id>  (59) 
58

>  <original_smiles>  (59) 
[H]c1c([H])c([H])c2c(c1[H])C([H])([H])C([H])([H])C([H])([H])C2([H])N([H])C(=O)C1([H])N(C(=O)C([H])(N([H])C(=O)C([H])(N([H])C([H])([H])[H])C([H])([H])[H])C(C([H])([H])[H])(C([H])([H])[H])C([H])([H])[H])C([H])([H])c2c([H])c(Oc3c(C([H])([H])[H])c([H])c(C([H])([H])[H])c(C([H])([H])C([H])([H])C([H])([H])C([H])([H])C([H])([H])C(=O)N4C([H])([H])C([H])([H])C([H])([H])C([H])(n5nc(-c6c([H])c([H])c(Oc7c([H])c([H])c(F)c([H])c7F)c([H])c6[H])c(C(=O)N([H])[H])c5N([H])[H])C4([H])[H])c3C([H])([H])[H])c([H])c([H])c2C1([H])[H]

>  <smiles>  (59) 
[H]c1c([H])c([H])c2c(c1[H])C([H])([H])C([H])([H])C([H])([H])C2([H])N([H])C(=O)C1([H])N(C(=O)C([H])(N([H])C(=O)C([H])(N([H])C([H])([H])[H])C([H])([H])[H])C(C([H])([H])[H])(C([H])([H])[H])C([H])([H])[H])C([H])([H])c2c([H])c(Oc3c(C([H])([H])[H])c([H])c(C([H])([H])[H])c(C([H])([H])C([H])([H])C([H])([H])C([H])([H])C([H])([H])C(=O)N4C([H])([H])C([H])([H])C([H])([H])C([H])(n5nc(-c6c([H])c([H])c(Oc7c([H])c([H])c(F)c([H])c7F)c([H])c6[H])c(C(=O)N([H])[H])c5N([H])[H])C4([H])[H])c3C([H])([H])[H])c([H])c([H])c2C1([H])[H]

$$$$
59:0:0
     RDKit          3D

 94103  0  0  1  0  0  0  0  0999 V2000
  -28.9230  -23.1910   22.2540 C   0  0  0  0  0  3  0  0  0  0  0  0
  -28.1050  -24.1850   22.8080 C   0  0  0  0  0  3  0  0  0  0  0  0
  -29.5530  -23.3880   21.0090 C   0  0  0  0  0  0  0  0  0  0  0  0
  -27.9180  -25.4140   22.1500 C   0  0  0  0  0  0  0  0  0  0  0  0
  -29.3170  -24.6040   20.2990 C   0  0  0  0  0  0  0  0  0  0  0  0
  -28.5080  -25.6240   20.8640 C   0  0  0  0  0  0  0  0  0  0  0  0
  -27.1150  -26.4690   22.8960 C   0  0  0  0  0  1  0  0  0  0  0  0
  -29.9560  -24.8610   18.9330 C   0  0  0  0  0  1  0  0  0  0  0  0
  -30.5280  -22.3510   20.5410 C   0  0  0  0  0  0  0  0  0  0  0  0
  -31.6590  -22.6740   20.1630 O   0  0  0  0  0  0  0  0  0  0  0  0
  -28.8930  -20.3250   20.6520 C   0  0  0  0  0  3  0  0  0  0  0  0
  -28.9530  -18.8990   20.5190 C   0  0  0  0  0  3  0  0  0  0  0  0
  -30.1200  -20.9340   20.5340 C   0  0  0  0  0  0  0  0  0  0  0  0
  -30.2250  -18.4350   20.2980 C   0  0  0  0  0  0  0  0  0  0  0  0
  -31.3760  -19.7470   20.3020 S   0  0  0  0  0  0  0  0  0  0  0  0
  -30.7320  -17.0540   20.0040 C   0  0  0  0  0  2  0  0  0  0  0  0
  -30.0810  -15.8390   20.7220 C   0  0  0  0  0  2  0  0  0  0  0  0
  -30.7480  -14.5260   20.2440 C   0  0  0  0  0  0  0  0  0  0  0  0
  -30.3910  -12.3650   19.1300 C   0  0  0  0  0  2  0  0  0  0  0  0
  -29.4420  -12.5860   17.9350 C   0  0  0  0  0  2  0  0  0  0  0  0
  -27.9740  -12.4600   18.3820 C   0  0  0  0  0  2  0  0  0  0  0  0
  -27.6550  -13.3050   19.6450 C   0  0  0  0  0  3  0  0  0  0  0  0
  -28.7270  -13.1140   20.7420 C   0  0  0  0  0  2  0  0  0  0  0  0
  -30.0470  -13.3660   20.1520 N   0  0  0  0  0  0  0  0  0  0  0  0
  -31.8940  -14.6150   19.7980 O   0  0  0  0  0  0  0  0  0  0  0  0
  -25.2700  -13.9090   20.3940 C   0  0  0  0  0  0  0  0  0  0  0  0
  -24.2090  -13.1350   20.7800 C   0  0  0  0  0  0  0  0  0  0  0  0
  -24.6730  -11.7850   20.7490 C   0  0  0  0  0  0  0  0  0  0  0  0
  -26.3130  -13.0290   20.1480 N   0  0  0  0  0  0  0  0  0  0  0  0
  -25.9590  -11.7470   20.4240 N   0  0  0  0  0  0  0  0  0  0  0  0
  -23.9520  -10.5220   20.9540 C   0  0  0  0  0  0  0  0  0  0  0  0
  -24.3960   -9.5610   21.8910 C   0  0  0  0  0  3  0  0  0  0  0  0
  -23.6770   -8.3630   22.0820 C   0  0  0  0  0  3  0  0  0  0  0  0
  -22.4980   -8.1160   21.3390 C   0  0  0  0  0  0  0  0  0  0  0  0
  -22.0740   -9.0640   20.3910 C   0  0  0  0  0  3  0  0  0  0  0  0
  -22.7940  -10.2540   20.1970 C   0  0  0  0  0  3  0  0  0  0  0  0
  -21.7480   -6.9690   21.4400 O   0  0  0  0  0  0  0  0  0  0  0  0
  -21.7070   -6.2360   22.5990 C   0  0  0  0  0  0  0  0  0  0  0  0
  -21.2880   -6.8010   23.8230 C   0  0  0  0  0  3  0  0  0  0  0  0
  -21.1950   -5.9940   24.9750 C   0  0  0  0  0  3  0  0  0  0  0  0
  -21.5080   -4.6230   24.9020 C   0  0  0  0  0  0  0  0  0  0  0  0
  -21.9190   -4.0590   23.6820 C   0  0  0  0  0  3  0  0  0  0  0  0
  -22.0150   -4.8630   22.5330 C   0  0  0  0  0  0  0  0  0  0  0  0
  -22.3910   -4.3090   21.3550 F   0  0  0  0  0  0  0  0  0  0  0  0
  -21.4100   -3.8460   26.0060 F   0  0  0  0  0  0  0  0  0  0  0  0
  -22.8140  -13.6100   21.0680 C   0  0  0  0  0  0  0  0  0  0  0  0
  -22.0980  -12.9150   21.9450 N   0  0  0  0  0  0  0  0  0  0  0  0
  -22.3670  -14.6320   20.5490 O   0  0  0  0  0  0  0  0  0  0  0  0
  -22.4740  -12.0890   22.3880 H   0  0  0  0  0  0  0  0  0  0  0  0
  -21.1610  -13.2140   22.1780 H   0  0  0  0  0  0  0  0  0  0  0  0
  -25.4280  -15.2790   20.2090 N   0  0  0  0  0  0  0  0  0  0  0  0
  -24.6600  -15.9300   20.3270 H   0  0  0  0  0  0  0  0  0  0  0  0
  -26.2740  -15.7210   19.8720 H   0  0  0  0  0  0  0  0  0  0  0  0
  -28.4180  -26.8090   20.1520 O   0  0  0  0  0  0  0  0  0  0  0  0
  -24.5460  -31.8950   23.1710 C   0  0  0  0  0  0  0  0  0  0  0  0
  -27.2450  -27.5130   20.1000 C   0  0  0  0  0  0  0  0  0  0  0  0
  -23.3550  -30.4780   21.5220 C   0  0  0  0  0  3  0  0  0  0  0  0
  -24.8290  -28.9610   20.0920 C   0  0  0  0  0  0  0  0  0  0  0  0
  -25.8690  -30.8830   21.3190 C   0  0  0  0  0  2  0  0  0  0  0  0
  -25.9740  -29.5160   20.6760 C   0  0  0  0  0  0  0  0  0  0  0  0
  -27.1890  -28.8050   20.6600 C   0  0  0  0  0  3  0  0  0  0  0  0
  -26.0920  -26.9600   19.5050 C   0  0  0  0  0  3  0  0  0  0  0  0
  -24.8830  -27.6860   19.4960 C   0  0  0  0  0  3  0  0  0  0  0  0
  -23.5720  -29.7970   20.1430 C   0  0  0  0  0  2  0  0  0  0  0  0
  -24.6070  -31.1010   22.0640 N   0  0  0  0  0  0  0  0  0  0  0  0
  -23.4640  -32.1550   23.7120 O   0  0  0  0  0  0  0  0  0  0  0  0
  -22.7180  -29.4530   22.4850 C   0  0  0  0  0  0  0  0  0  0  0  0
  -21.3910  -29.2770   22.3720 N   0  0  0  0  0  0  0  0  0  0  0  0
  -23.4110  -28.8190   23.2850 O   0  0  0  0  0  0  0  0  0  0  0  0
  -20.8970  -29.8420   21.6970 H   0  0  0  0  0  0  0  0  0  0  0  0
  -18.0180  -28.0970   22.9050 C   0  0  0  0  0  0  0  0  0  0  0  0
  -20.5800  -28.3350   23.1430 C   0  0  0  0  0  3  0  0  0  0  0  0
  -20.6660  -26.9100   22.5470 C   0  0  0  0  0  2  0  0  0  0  0  0
  -19.5480  -26.6080   21.5440 C   0  0  0  0  0  2  0  0  0  0  0  0
  -18.1770  -26.7550   22.2100 C   0  0  0  0  0  2  0  0  0  0  0  0
  -19.1480  -28.8440   23.3290 C   0  0  0  0  0  0  0  0  0  0  0  0
  -18.9460  -30.1020   23.9370 C   0  0  0  0  0  3  0  0  0  0  0  0
  -17.6480  -30.6110   24.1240 C   0  0  0  0  0  3  0  0  0  0  0  0
  -16.5330  -29.8590   23.7140 C   0  0  0  0  0  3  0  0  0  0  0  0
  -16.7190  -28.6030   23.1110 C   0  0  0  0  0  3  0  0  0  0  0  0
  -25.8290  -32.5340   23.7940 C   0  0  0  0  0  3  0  0  0  0  0  0
  -26.3590  -31.7570   25.0610 C   0  0  1  0  0  0  0  0  0  0  0  0
  -25.2740  -31.5010   26.1350 C   0  0  0  0  0  1  0  0  0  0  0  0
  -26.9520  -30.3900   24.6490 C   0  0  0  0  0  1  0  0  0  0  0  0
  -27.5080  -32.5550   25.7210 C   0  0  0  0  0  1  0  0  0  0  0  0
  -25.5080  -33.9250   24.1340 N   0  0  0  0  0  0  0  0  0  0  0  0
  -25.8360  -34.9850   23.3820 C   0  0  0  0  0  0  0  0  0  0  0  0
  -26.5100  -34.8930   22.3520 O   0  0  0  0  0  0  0  0  0  0  0  0
  -24.9070  -34.0720   24.9310 H   0  0  0  0  0  0  0  0  0  0  0  0
  -24.0940  -36.7630   23.0270 C   0  0  0  0  0  1  0  0  0  0  0  0
  -25.3340  -36.3660   23.8450 C   0  0  0  0  0  3  0  0  0  0  0  0
  -27.4580  -37.2600   24.6930 C   0  0  0  0  0  1  0  0  0  0  0  0
  -26.3580  -37.4290   23.7480 N   0  0  0  0  0  0  0  0  0  0  0  0
  -25.9430  -38.3430   23.9070 H   0  0  0  0  0  0  0  0  0  0  0  0
  1  2  1  0
  3  1  2  0
  4  2  2  0
  4  7  1  0
  5  6  2  0
  5  3  1  0
  6  4  1  0
  8  5  1  0
  9  3  1  0
 10  9  2  0
 12 11  1  0
 13  9  1  0
 13 11  2  0
 14 15  1  0
 14 12  2  0
 15 13  1  0
 16 14  1  0
 16 17  1  0
 18 17  1  0
 19 24  1  0
 20 21  1  0
 20 19  1  0
 22 21  1  0
 22 29  1  0
 22 23  1  0
 24 18  1  0
 24 23  1  0
 25 18  2  0
 26 27  2  0
 27 46  1  0
 28 27  1  0
 28 31  1  0
 29 26  1  0
 29 30  1  0
 30 28  2  0
 31 32  1  0
 32 33  2  0
 34 37  1  0
 34 33  1  0
 35 34  2  0
 36 35  1  0
 36 31  2  0
 37 38  1  0
 38 39  1  0
 39 40  2  0
 41 40  1  0
 41 45  1  0
 42 41  2  0
 43 38  2  0
 43 42  1  0
 44 43  1  0
 46 47  1  0
 47 50  1  0
 47 49  1  0
 48 46  2  0
 51 52  1  0
 51 26  1  0
 53 51  1  0
 54  6  1  0
 55 66  2  0
 56 54  1  0
 56 61  1  0
 57 65  1  0
 57 67  1  0
 58 64  1  0
 58 60  1  0
 59 65  1  0
 60 59  1  0
 61 60  2  0
 62 56  2  0
 63 62  1  0
 63 58  2  0
 64 57  1  0
 65 55  1  0
 67 69  2  0
 68 67  1  0
 70 68  1  0
 71 80  2  0
 71 76  1  0
 72 68  1  0
 72 76  1  0
 73 72  1  0
 74 75  1  0
 74 73  1  0
 75 71  1  0
 76 77  2  0
 77 78  1  0
 79 78  2  0
 80 79  1  0
 81 55  1  0
 81 86  1  0
 81 82  1  0
 82 85  1  1
 82 83  1  0
 84 82  1  0
 86 89  1  0
 87 91  1  0
 87 86  1  0
 88 87  2  0
 91 90  1  0
 93 91  1  0
 93 94  1  0
 93 92  1  0
M  ISO  4   6 101  17 100  18 100  54 101
M  END
>  <TORSDO>  (60) 
F 20

>  <SCORE>  (60) 
-13.727

>  <name>  (60) 
59

>  <ligand_id>  (60) 
59

>  <original_smiles>  (60) 
[H]c1c(C(=O)c2c([H])c([H])c(C([H])([H])[H])c(Oc3c([H])c([H])c4c(c3[H])C([H])([H])N(C(=O)C([H])(N([H])C(=O)C([H])(N([H])C([H])([H])[H])C([H])([H])[H])C(C([H])([H])[H])(C([H])([H])[H])C([H])([H])[H])C([H])(C(=O)N([H])C3([H])c5c([H])c([H])c([H])c([H])c5C([H])([H])C([H])([H])C3([H])[H])C4([H])[H])c2C([H])([H])[H])sc(C([H])([H])C([H])([H])C(=O)N2C([H])([H])C([H])([H])C([H])([H])C([H])(n3nc(-c4c([H])c([H])c(Oc5c([H])c([H])c(F)c([H])c5F)c([H])c4[H])c(C(=O)N([H])[H])c3N([H])[H])C2([H])[H])c1[H]

>  <smiles>  (60) 
[H]c1c(C(=O)c2c([H])c([H])c(C([H])([H])[H])c(Oc3c([H])c([H])c4c(c3[H])C([H])([H])N(C(=O)C([H])(N([H])C(=O)C([H])(N([H])C([H])([H])[H])C([H])([H])[H])C(C([H])([H])[H])(C([H])([H])[H])C([H])([H])[H])C([H])(C(=O)N([H])C3([H])c5c([H])c([H])c([H])c([H])c5C([H])([H])C([H])([H])C3([H])[H])C4([H])[H])c2C([H])([H])[H])sc(C([H])([H])C([H])([H])C(=O)N2C([H])([H])C([H])([H])C([H])([H])C([H])(n3nc(-c4c([H])c([H])c(Oc5c([H])c([H])c(F)c([H])c5F)c([H])c4[H])c(C(=O)N([H])[H])c3N([H])[H])C2([H])[H])c1[H]

$$$$
60:0:0
     RDKit          3D

 95104  0  0  1  0  0  0  0  0999 V2000
  -31.0740  -22.2300   19.4020 C   0  0  0  0  0  3  0  0  0  0  0  0
  -30.1900  -24.5060   19.3500 C   0  0  0  0  0  3  0  0  0  0  0  0
  -29.1510  -22.8260   20.7810 C   0  0  0  0  0  3  0  0  0  0  0  0
  -31.1340  -23.5530   18.9110 C   0  0  0  0  0  0  0  0  0  0  0  0
  -30.0800  -21.8520   20.3270 C   0  0  0  0  0  0  0  0  0  0  0  0
  -29.1970  -24.1610   20.2960 C   0  0  0  0  0  0  0  0  0  0  0  0
  -32.2150  -23.9580   17.9200 C   0  0  0  0  0  1  0  0  0  0  0  0
  -30.0710  -20.4280   20.8910 C   0  0  0  0  0  2  0  0  0  0  0  0
  -29.1940  -19.3970   20.1340 C   0  0  0  0  0  2  0  0  0  0  0  0
  -29.7910  -16.8660   20.0370 C   0  0  0  0  0  3  0  0  0  0  0  0
  -28.9410  -17.8280   22.1000 C   0  0  0  0  0  3  0  0  0  0  0  0
  -30.0700  -15.6300   20.6880 C   0  0  0  0  0  0  0  0  0  0  0  0
  -29.2920  -17.9900   20.7490 C   0  0  0  0  0  0  0  0  0  0  0  0
  -29.2460  -16.6410   22.7860 C   0  0  0  0  0  0  0  0  0  0  0  0
  -29.8790  -15.5640   22.1040 C   0  0  0  0  0  0  0  0  0  0  0  0
  -28.9760  -16.6000   24.2850 C   0  0  0  0  0  1  0  0  0  0  0  0
  -30.4230  -14.4100   22.9360 C   0  0  0  0  0  1  0  0  0  0  0  0
  -30.6850  -14.4960   19.8660 C   0  0  0  0  0  0  0  0  0  0  0  0
  -30.3270  -12.4180   18.5610 C   0  0  0  0  0  2  0  0  0  0  0  0
  -29.2700  -12.6390   17.4600 C   0  0  0  0  0  2  0  0  0  0  0  0
  -27.8340  -12.4640   18.0000 C   0  0  0  0  0  2  0  0  0  0  0  0
  -27.5960  -13.2150   19.3340 C   0  0  0  0  0  3  0  0  0  0  0  0
  -28.7420  -12.9400   20.3230 C   0  0  0  0  0  2  0  0  0  0  0  0
  -30.0150  -13.3180   19.6880 N   0  0  0  0  0  0  0  0  0  0  0  0
  -31.7410  -14.7360   19.2700 O   0  0  0  0  0  0  0  0  0  0  0  0
  -25.3010  -13.7590   20.3800 C   0  0  0  0  0  0  0  0  0  0  0  0
  -24.2520  -12.9660   20.7560 C   0  0  0  0  0  0  0  0  0  0  0  0
  -24.6680  -11.6220   20.5120 C   0  0  0  0  0  0  0  0  0  0  0  0
  -26.2910  -12.9000   19.9230 N   0  0  0  0  0  0  0  0  0  0  0  0
  -25.9220  -11.6000   20.0670 N   0  0  0  0  0  0  0  0  0  0  0  0
  -23.9230  -10.3580   20.6080 C   0  0  0  0  0  0  0  0  0  0  0  0
  -24.4480   -9.2470   21.3030 C   0  0  0  0  0  3  0  0  0  0  0  0
  -23.7130   -8.0460   21.4010 C   0  0  0  0  0  3  0  0  0  0  0  0
  -22.4360   -7.9450   20.8000 C   0  0  0  0  0  0  0  0  0  0  0  0
  -21.9280   -9.0410   20.0860 C   0  0  0  0  0  3  0  0  0  0  0  0
  -22.6630  -10.2340   19.9850 C   0  0  0  0  0  3  0  0  0  0  0  0
  -21.6620   -6.8090   20.8100 O   0  0  0  0  0  0  0  0  0  0  0  0
  -21.7880   -5.8660   21.7970 C   0  0  0  0  0  0  0  0  0  0  0  0
  -21.6620   -6.2010   23.1630 C   0  0  0  0  0  3  0  0  0  0  0  0
  -21.7260   -5.1920   24.1430 C   0  0  0  0  0  3  0  0  0  0  0  0
  -21.9040   -3.8480   23.7580 C   0  0  0  0  0  0  0  0  0  0  0  0
  -22.0330   -3.5150   22.3980 C   0  0  0  0  0  3  0  0  0  0  0  0
  -21.9710   -4.5210   21.4210 C   0  0  0  0  0  0  0  0  0  0  0  0
  -22.0730   -4.1940   20.1100 F   0  0  0  0  0  0  0  0  0  0  0  0
  -21.9600   -2.8770   24.6980 F   0  0  0  0  0  0  0  0  0  0  0  0
  -22.8970  -13.4250   21.2190 C   0  0  0  0  0  0  0  0  0  0  0  0
  -22.2400  -12.6490   22.0760 N   0  0  0  0  0  0  0  0  0  0  0  0
  -22.4330  -14.5070   20.8610 O   0  0  0  0  0  0  0  0  0  0  0  0
  -22.6410  -11.7840   22.4010 H   0  0  0  0  0  0  0  0  0  0  0  0
  -21.3260  -12.9210   22.4060 H   0  0  0  0  0  0  0  0  0  0  0  0
  -25.4790  -15.1420   20.3640 N   0  0  0  0  0  0  0  0  0  0  0  0
  -24.7390  -15.7800   20.6320 H   0  0  0  0  0  0  0  0  0  0  0  0
  -26.3210  -15.6220   20.0690 H   0  0  0  0  0  0  0  0  0  0  0  0
  -28.2090  -25.2100   20.8270 C   0  0  0  0  0  2  0  0  0  0  0  0
  -28.3700  -26.5560   20.3100 O   0  0  0  0  0  0  0  0  0  0  0  0
  -24.6090  -31.6570   23.6370 C   0  0  0  0  0  0  0  0  0  0  0  0
  -27.2270  -27.3400   20.3440 C   0  0  0  0  0  0  0  0  0  0  0  0
  -23.3990  -30.3510   21.9240 C   0  0  0  0  0  3  0  0  0  0  0  0
  -24.8460  -28.8780   20.4170 C   0  0  0  0  0  0  0  0  0  0  0  0
  -25.9270  -30.6960   21.7440 C   0  0  0  0  0  2  0  0  0  0  0  0
  -26.0050  -29.3540   21.0390 C   0  0  0  0  0  0  0  0  0  0  0  0
  -27.2020  -28.5920   20.9990 C   0  0  0  0  0  3  0  0  0  0  0  0
  -26.0590  -26.8990   19.6850 C   0  0  0  0  0  3  0  0  0  0  0  0
  -24.8700  -27.6500   19.7280 C   0  0  0  0  0  3  0  0  0  0  0  0
  -23.6060  -29.7430   20.5110 C   0  0  0  0  0  2  0  0  0  0  0  0
  -24.6640  -30.9130   22.4950 N   0  0  0  0  0  0  0  0  0  0  0  0
  -23.5260  -31.9070   24.1890 O   0  0  0  0  0  0  0  0  0  0  0  0
  -22.7390  -29.2830   22.8270 C   0  0  0  0  0  0  0  0  0  0  0  0
  -21.4140  -29.1190   22.6950 N   0  0  0  0  0  0  0  0  0  0  0  0
  -23.4180  -28.6060   23.6050 O   0  0  0  0  0  0  0  0  0  0  0  0
  -20.9240  -29.7110   22.0380 H   0  0  0  0  0  0  0  0  0  0  0  0
  -18.0350  -27.9080   23.1260 C   0  0  0  0  0  0  0  0  0  0  0  0
  -20.5920  -28.1480   23.4180 C   0  0  0  0  0  3  0  0  0  0  0  0
  -20.6970  -26.7450   22.7750 C   0  0  0  0  0  2  0  0  0  0  0  0
  -19.5990  -26.4750   21.7440 C   0  0  0  0  0  2  0  0  0  0  0  0
  -18.2140  -26.5930   22.3850 C   0  0  0  0  0  2  0  0  0  0  0  0
  -19.1540  -28.6480   23.5960 C   0  0  0  0  0  0  0  0  0  0  0  0
  -18.9320  -29.8810   24.2480 C   0  0  0  0  0  3  0  0  0  0  0  0
  -17.6280  -30.3760   24.4310 C   0  0  0  0  0  3  0  0  0  0  0  0
  -16.5250  -29.6350   23.9740 C   0  0  0  0  0  3  0  0  0  0  0  0
  -16.7300  -28.4030   23.3270 C   0  0  0  0  0  3  0  0  0  0  0  0
  -25.8950  -32.2530   24.2870 C   0  0  0  0  0  3  0  0  0  0  0  0
  -26.4370  -31.3910   25.4910 C   0  0  1  0  0  0  0  0  0  0  0  0
  -25.3650  -31.0590   26.5540 C   0  0  0  0  0  1  0  0  0  0  0  0
  -27.0220  -30.0550   24.9780 C   0  0  0  0  0  1  0  0  0  0  0  0
  -27.5910  -32.1430   26.1960 C   0  0  0  0  0  1  0  0  0  0  0  0
  -25.5760  -33.6180   24.7280 N   0  0  0  0  0  0  0  0  0  0  0  0
  -25.8830  -34.7300   24.0440 C   0  0  0  0  0  0  0  0  0  0  0  0
  -26.5370  -34.7140   22.9970 O   0  0  0  0  0  0  0  0  0  0  0  0
  -25.0020  -33.7030   25.5540 H   0  0  0  0  0  0  0  0  0  0  0  0
  -24.1260  -36.5210   23.8530 C   0  0  0  0  0  1  0  0  0  0  0  0
  -25.3870  -36.0730   24.6120 C   0  0  0  0  0  3  0  0  0  0  0  0
  -27.5310  -36.9210   25.4570 C   0  0  0  0  0  1  0  0  0  0  0  0
  -26.4010  -37.1490   24.5590 N   0  0  0  0  0  0  0  0  0  0  0  0
  -25.9860  -38.0450   24.7970 H   0  0  0  0  0  0  0  0  0  0  0  0
  1  5  1  0
  2  6  2  0
  4  2  1  0
  4  1  2  0
  5  3  2  0
  5  8  1  0
  6  3  1  0
  6 54  1  0
  7  4  1  0
  9 13  1  0
  9  8  1  0
 10 12  2  0
 10 13  1  0
 11 14  1  0
 12 15  1  0
 13 11  2  0
 14 16  1  0
 15 14  2  0
 15 17  1  0
 18 12  1  0
 19 24  1  0
 20 21  1  0
 20 19  1  0
 22 21  1  0
 22 29  1  0
 22 23  1  0
 24 18  1  0
 24 23  1  0
 25 18  2  0
 26 27  2  0
 27 46  1  0
 28 31  1  0
 28 27  1  0
 29 30  1  0
 29 26  1  0
 30 28  2  0
 31 32  1  0
 32 33  2  0
 34 37  1  0
 34 33  1  0
 35 34  2  0
 36 35  1  0
 36 31  2  0
 37 38  1  0
 38 39  1  0
 39 40  2  0
 41 40  1  0
 41 45  1  0
 42 41  2  0
 43 38  2  0
 43 42  1  0
 44 43  1  0
 46 47  1  0
 47 49  1  0
 47 50  1  0
 48 46  2  0
 51 26  1  0
 51 52  1  0
 53 51  1  0
 55 57  1  0
 55 54  1  0
 56 67  2  0
 57 62  1  0
 58 66  1  0
 58 68  1  0
 59 65  1  0
 59 61  1  0
 60 66  1  0
 61 60  1  0
 62 61  2  0
 63 64  1  0
 63 57  2  0
 64 59  2  0
 65 58  1  0
 66 56  1  0
 68 70  2  0
 69 68  1  0
 71 69  1  0
 72 81  2  0
 72 77  1  0
 73 69  1  0
 73 77  1  0
 74 73  1  0
 75 76  1  0
 75 74  1  0
 76 72  1  0
 77 78  2  0
 78 79  1  0
 80 79  2  0
 81 80  1  0
 82 56  1  0
 82 87  1  0
 82 83  1  0
 83 86  1  1
 83 84  1  0
 85 83  1  0
 87 90  1  0
 88 92  1  0
 88 87  1  0
 89 88  2  0
 92 91  1  0
 94 92  1  0
 94 95  1  0
 94 93  1  0
M  ISO  4  12 100  18 100  54 101  55 101
M  END
>  <TORSDO>  (61) 
F 20

>  <SCORE>  (61) 
4.441

>  <name>  (61) 
60

>  <ligand_id>  (61) 
60

>  <original_smiles>  (61) 
[H]c1c([H])c([H])c2c(c1[H])C([H])([H])C([H])([H])C([H])([H])C2([H])N([H])C(=O)C1([H])N(C(=O)C([H])(N([H])C(=O)C([H])(N([H])C([H])([H])[H])C([H])([H])[H])C(C([H])([H])[H])(C([H])([H])[H])C([H])([H])[H])C([H])([H])c2c([H])c(OC([H])([H])c3c([H])c(C([H])([H])[H])c([H])c(C([H])([H])C([H])([H])c4c([H])c(C(=O)N5C([H])([H])C([H])([H])C([H])([H])C([H])(n6nc(-c7c([H])c([H])c(Oc8c([H])c([H])c(F)c([H])c8F)c([H])c7[H])c(C(=O)N([H])[H])c6N([H])[H])C5([H])[H])c(C([H])([H])[H])c(C([H])([H])[H])c4[H])c3[H])c([H])c([H])c2C1([H])[H]

>  <smiles>  (61) 
[H]c1c([H])c([H])c2c(c1[H])C([H])([H])C([H])([H])C([H])([H])C2([H])N([H])C(=O)C1([H])N(C(=O)C([H])(N([H])C(=O)C([H])(N([H])C([H])([H])[H])C([H])([H])[H])C(C([H])([H])[H])(C([H])([H])[H])C([H])([H])[H])C([H])([H])c2c([H])c(OC([H])([H])c3c([H])c(C([H])([H])[H])c([H])c(C([H])([H])C([H])([H])c4c([H])c(C(=O)N5C([H])([H])C([H])([H])C([H])([H])C([H])(n6nc(-c7c([H])c([H])c(Oc8c([H])c([H])c(F)c([H])c8F)c([H])c7[H])c(C(=O)N([H])[H])c6N([H])[H])C5([H])[H])c(C([H])([H])[H])c(C([H])([H])[H])c4[H])c3[H])c([H])c([H])c2C1([H])[H]

$$$$
61:0:0
     RDKit          3D

 89 95  0  0  1  0  0  0  0  0999 V2000
  -30.0640  -21.3040   19.6680 C   0  0  0  0  0  3  0  0  0  0  0  0
  -27.9790  -20.9180   19.8870 C   0  0  0  0  0  3  0  0  0  0  0  0
  -29.2290  -20.0310   19.7910 C   0  0  0  0  0  3  0  0  0  0  0  0
  -29.7590  -22.8590   19.6480 C   0  0  0  0  0  0  0  0  0  0  0  0
  -27.6410  -22.4640   19.8760 C   0  0  0  0  0  0  0  0  0  0  0  0
  -28.4900  -23.7260   19.7510 C   0  0  0  0  0  0  0  0  0  0  0  0
  -31.7360  -23.9030   20.8430 C   0  0  0  0  0  1  0  0  0  0  0  0
  -31.0210  -23.6950   19.5030 C   0  0  0  0  0  2  0  0  0  0  0  0
  -25.7970  -23.1300   21.4830 C   0  0  0  0  0  1  0  0  0  0  0  0
  -26.1600  -22.7610   20.0400 C   0  0  0  0  0  2  0  0  0  0  0  0
  -29.0210  -17.8690   21.4320 C   0  0  0  0  0  1  0  0  0  0  0  0
  -29.4020  -18.0370   19.9510 C   0  0  0  0  0  1  0  0  0  0  0  0
  -30.3060  -16.2730   19.6170 C   0  0  0  0  0  2  0  0  0  0  0  0
  -30.5420  -13.6200   18.8570 C   0  0  0  0  0  2  0  0  0  0  0  0
  -29.5950  -13.0380   17.7520 C   0  0  0  0  0  2  0  0  0  0  0  0
  -28.2480  -12.5910   18.3350 C   0  0  0  0  0  2  0  0  0  0  0  0
  -27.7590  -13.6100   19.3820 C   0  0  0  0  0  3  0  0  0  0  0  0
  -28.8480  -14.0720   20.3840 C   0  0  0  0  0  2  0  0  0  0  0  0
  -29.9090  -14.8150   19.6330 N   0  0  0  0  0  0  0  0  0  0  0  0
  -31.5130  -16.2010   19.2820 O   0  0  0  0  0  1  0  0  0  0  0  0
  -25.5110  -14.0850   20.4430 C   0  0  0  0  0  0  0  0  0  0  0  0
  -24.4880  -13.2900   20.8730 C   0  0  0  0  0  0  0  0  0  0  0  0
  -24.9340  -11.9420   20.7030 C   0  0  0  0  0  0  0  0  0  0  0  0
  -26.5100  -13.2280   20.0260 N   0  0  0  0  0  0  0  0  0  0  0  0
  -26.1850  -11.9240   20.2460 N   0  0  0  0  0  0  0  0  0  0  0  0
  -24.2090  -10.6770   20.8940 C   0  0  0  0  0  0  0  0  0  0  0  0
  -24.6540   -9.6970   21.8090 C   0  0  0  0  0  3  0  0  0  0  0  0
  -23.9240   -8.5030   21.9930 C   0  0  0  0  0  3  0  0  0  0  0  0
  -22.7340   -8.2770   21.2610 C   0  0  0  0  0  0  0  0  0  0  0  0
  -22.3070   -9.2450   20.3340 C   0  0  0  0  0  3  0  0  0  0  0  0
  -23.0370  -10.4310   20.1490 C   0  0  0  0  0  3  0  0  0  0  0  0
  -21.9760   -7.1350   21.3530 O   0  0  0  0  0  0  0  0  0  0  0  0
  -21.8610   -6.4390   22.5300 C   0  0  0  0  0  0  0  0  0  0  0  0
  -21.3420   -7.0360   23.7010 C   0  0  0  0  0  3  0  0  0  0  0  0
  -21.1770   -6.2660   24.8680 C   0  0  0  0  0  3  0  0  0  0  0  0
  -21.5200   -4.9000   24.8680 C   0  0  0  0  0  0  0  0  0  0  0  0
  -22.0300   -4.3030   23.7020 C   0  0  0  0  0  3  0  0  0  0  0  0
  -22.1970   -5.0700   22.5360 C   0  0  0  0  0  0  0  0  0  0  0  0
  -22.6690   -4.4850   21.4090 F   0  0  0  0  0  0  0  0  0  0  0  0
  -21.3540   -4.1580   25.9870 F   0  0  0  0  0  0  0  0  0  0  0  0
  -23.1340  -13.7610   21.3160 C   0  0  0  0  0  0  0  0  0  0  0  0
  -22.4940  -13.0230   22.2140 N   0  0  0  0  0  0  0  0  0  0  0  0
  -22.6610  -14.8180   20.9030 O   0  0  0  0  0  0  0  0  0  0  0  0
  -22.8940  -12.1660   22.5690 H   0  0  0  0  0  0  0  0  0  0  0  0
  -21.5880  -13.3170   22.5540 H   0  0  0  0  0  0  0  0  0  0  0  0
  -25.6690  -15.4630   20.3350 N   0  0  0  0  0  0  0  0  0  0  0  0
  -24.9270  -16.1120   20.5760 H   0  0  0  0  0  0  0  0  0  0  0  0
  -26.4820  -15.9200   19.9430 H   0  0  0  0  0  0  0  0  0  0  0  0
  -28.3050  -25.4300   19.8020 O   0  0  0  0  0  0  0  0  0  0  0  0
  -24.7410  -31.8560   23.0140 C   0  0  0  0  0  0  0  0  0  0  0  0
  -27.2900  -26.6980   19.8580 C   0  0  0  0  0  0  0  0  0  0  0  0
  -23.5530  -30.4730   21.3690 C   0  0  0  0  0  3  0  0  0  0  0  0
  -25.0010  -28.8400   19.8980 C   0  0  0  0  0  0  0  0  0  0  0  0
  -26.1360  -30.5970   21.2230 C   0  0  0  0  0  2  0  0  0  0  0  0
  -26.2070  -29.1550   20.5320 C   0  0  0  0  0  0  0  0  0  0  0  0
  -27.3190  -28.1200   20.4760 C   0  0  0  0  0  3  0  0  0  0  0  0
  -26.0420  -26.6610   19.1640 C   0  0  0  0  0  3  0  0  0  0  0  0
  -24.9700  -27.6220   19.1890 C   0  0  0  0  0  3  0  0  0  0  0  0
  -23.7870  -29.7960   19.9830 C   0  0  0  0  0  2  0  0  0  0  0  0
  -24.8370  -31.0130   21.9200 N   0  0  0  0  0  0  0  0  0  0  0  0
  -23.6490  -32.1330   23.5420 O   0  0  0  0  0  0  0  0  0  0  0  0
  -22.8520  -29.4790   22.3360 C   0  0  0  0  0  0  0  0  0  0  0  0
  -21.5180  -29.3140   22.2340 N   0  0  0  0  0  0  0  0  0  0  0  0
  -23.5260  -28.8510   23.1560 O   0  0  0  0  0  0  0  0  0  0  0  0
  -21.0190  -29.8720   21.5550 H   0  0  0  0  0  0  0  0  0  0  0  0
  -18.1530  -28.0570   22.8230 C   0  0  0  0  0  0  0  0  0  0  0  0
  -20.7200  -28.3450   23.0000 C   0  0  0  0  0  3  0  0  0  0  0  0
  -20.8110  -26.9340   22.3720 C   0  0  0  0  0  2  0  0  0  0  0  0
  -19.6780  -26.6390   21.3850 C   0  0  0  0  0  2  0  0  0  0  0  0
  -18.3190  -26.7400   22.0830 C   0  0  0  0  0  2  0  0  0  0  0  0
  -19.2790  -28.8190   23.2390 C   0  0  0  0  0  0  0  0  0  0  0  0
  -19.0650  -30.0460   23.9010 C   0  0  0  0  0  3  0  0  0  0  0  0
  -17.7610  -30.5160   24.1450 C   0  0  0  0  0  3  0  0  0  0  0  0
  -16.6510  -29.7540   23.7400 C   0  0  0  0  0  3  0  0  0  0  0  0
  -16.8490  -28.5250   23.0850 C   0  0  0  0  0  3  0  0  0  0  0  0
  -25.9940  -32.5250   23.6550 C   0  0  0  0  0  3  0  0  0  0  0  0
  -26.5330  -31.7400   24.9170 C   0  0  1  0  0  0  0  0  0  0  0  0
  -25.4520  -31.4610   25.9900 C   0  0  0  0  0  1  0  0  0  0  0  0
  -27.1400  -30.3800   24.5110 C   0  0  0  0  0  1  0  0  0  0  0  0
  -27.6730  -32.5430   25.5880 C   0  0  0  0  0  1  0  0  0  0  0  0
  -25.6410  -33.9060   24.0490 N   0  0  0  0  0  0  0  0  0  0  0  0
  -25.9150  -35.0100   23.3390 C   0  0  0  0  0  0  0  0  0  0  0  0
  -26.5410  -34.9740   22.2770 O   0  0  0  0  0  0  0  0  0  0  0  0
  -25.0750  -34.0050   24.8780 H   0  0  0  0  0  0  0  0  0  0  0  0
  -24.1160  -36.7720   23.1830 C   0  0  0  0  0  1  0  0  0  0  0  0
  -25.4210  -36.3680   23.8880 C   0  0  0  0  0  3  0  0  0  0  0  0
  -27.5740  -37.3030   24.6200 C   0  0  0  0  0  1  0  0  0  0  0  0
  -26.4120  -37.4590   23.7480 N   0  0  0  0  0  0  0  0  0  0  0  0
  -25.9870  -38.3600   23.9480 H   0  0  0  0  0  0  0  0  0  0  0  0
  1  3  1  0
  3  2  2  0
  4  1  2  0
  4  6  1  0
  5  2  1  0
  5 10  1  0
  6 49  1  0
  6  5  2  0
  8  4  1  0
  8  7  1  0
 10  9  1  0
 12 11  1  0
 13 19  1  0
 14 19  1  0
 15 16  1  0
 15 14  1  0
 17 16  1  0
 17 24  1  0
 17 18  1  0
 19 18  1  0
 20 13  1  0
 21 22  2  0
 22 41  1  0
 23 22  1  0
 23 26  1  0
 24 25  1  0
 24 21  1  0
 25 23  2  0
 26 27  1  0
 27 28  2  0
 29 32  1  0
 29 28  1  0
 30 29  2  0
 31 30  1  0
 31 26  2  0
 32 33  1  0
 33 38  2  0
 33 34  1  0
 34 35  2  0
 35 36  1  0
 36 40  1  0
 37 36  2  0
 38 37  1  0
 39 38  1  0
 41 42  1  0
 42 45  1  0
 42 44  1  0
 43 41  2  0
 46 21  1  0
 46 47  1  0
 48 46  1  0
 49 51  1  0
 50 61  2  0
 51 56  1  0
 52 60  1  0
 52 62  1  0
 53 59  1  0
 53 55  1  0
 54 60  1  0
 55 54  1  0
 56 55  2  0
 57 58  1  0
 57 51  2  0
 58 53  2  0
 59 52  1  0
 60 50  1  0
 62 64  2  0
 63 62  1  0
 65 63  1  0
 66 75  2  0
 66 71  1  0
 67 63  1  0
 67 71  1  0
 68 67  1  0
 69 70  1  0
 69 68  1  0
 70 66  1  0
 71 72  2  0
 72 73  1  0
 74 73  2  0
 75 74  1  0
 76 50  1  0
 76 81  1  0
 76 77  1  0
 77 80  1  1
 77 78  1  0
 79 77  1  0
 81 84  1  0
 82 86  1  0
 82 81  1  0
 83 82  2  0
 86 85  1  0
 88 86  1  0
 88 89  1  0
 88 87  1  0
M  ISO  4   6 101  12 100  13 100  49 101
M  END
>  <TORSDO>  (62) 
F 19

>  <SCORE>  (62) 
-13.971

>  <name>  (62) 
61

>  <ligand_id>  (62) 
61

>  <original_smiles>  (62) 
[H]c1c([H])c([H])c2c(c1[H])C([H])([H])C([H])([H])C([H])([H])C2([H])N([H])C(=O)C1([H])N(C(=O)C([H])(N([H])C(=O)C([H])(N([H])C([H])([H])[H])C([H])([H])[H])C(C([H])([H])[H])(C([H])([H])[H])C([H])([H])[H])C([H])([H])c2c([H])c(Oc3c(C([H])([H])C([H])([H])[H])c([H])c(C([H])(C(=O)N4C([H])([H])C([H])([H])C([H])([H])C([H])(n5nc(-c6c([H])c([H])c(Oc7c([H])c([H])c(F)c([H])c7F)c([H])c6[H])c(C(=O)N([H])[H])c5N([H])[H])C4([H])[H])C([H])([H])[H])c([H])c3C([H])([H])C([H])([H])[H])c([H])c([H])c2C1([H])[H]

>  <smiles>  (62) 
[H]c1c([H])c([H])c2c(c1[H])C([H])([H])C([H])([H])C([H])([H])C2([H])N([H])C(=O)C1([H])N(C(=O)C([H])(N([H])C(=O)C([H])(N([H])C([H])([H])[H])C([H])([H])[H])C(C([H])([H])[H])(C([H])([H])[H])C([H])([H])[H])C([H])([H])c2c([H])c(Oc3c(C([H])([H])C([H])([H])[H])c([H])c(C([H])(C(=O)N4C([H])([H])C([H])([H])C([H])([H])C([H])(n5nc(-c6c([H])c([H])c(Oc7c([H])c([H])c(F)c([H])c7F)c([H])c6[H])c(C(=O)N([H])[H])c5N([H])[H])C4([H])[H])C([H])([H])[H])c([H])c3C([H])([H])C([H])([H])[H])c([H])c([H])c2C1([H])[H]

$$$$
62:0:0
     RDKit          3D

 91100  0  0  1  0  0  0  0  0999 V2000
  -29.9210  -19.3860   20.6690 C   0  0  0  0  0  3  0  0  0  0  0  0
  -29.1880  -20.8020   20.3450 C   0  0  0  0  0  0  0  0  0  0  0  0
  -29.6250  -17.8370   20.3100 C   0  0  0  0  0  0  0  0  0  0  0  0
  -27.9900  -20.5610   19.6410 C   0  0  0  0  0  0  0  0  0  0  0  0
  -28.5000  -17.9930   19.4050 C   0  0  0  0  0  0  0  0  0  0  0  0
  -27.7000  -19.2100   19.1860 C   0  0  0  0  0  0  0  0  0  0  0  0
  -29.3840  -22.5850   20.5790 C   0  0  0  0  0  0  0  0  0  0  0  0
  -27.0570  -21.7870   19.2290 C   0  0  0  0  0  2  0  0  0  0  0  0
  -28.3700  -24.0110   20.0120 C   0  0  0  0  0  3  0  0  0  0  0  0
  -27.0200  -23.2240   19.9620 C   0  0  0  0  0  3  0  0  0  0  0  0
  -28.1880  -16.8360   18.4590 C   0  0  0  0  0  1  0  0  0  0  0  0
  -26.4210  -19.0980   18.3390 C   0  0  0  0  0  1  0  0  0  0  0  0
  -26.3550  -23.1320   21.3480 C   0  0  0  0  0  1  0  0  0  0  0  0
  -30.3780  -22.9230   21.2270 O   0  0  0  0  0  0  0  0  0  0  0  0
  -30.4180  -16.2020   20.5200 C   0  0  0  0  0  0  0  0  0  0  0  0
  -30.6480  -13.5940   19.8400 C   0  0  0  0  0  2  0  0  0  0  0  0
  -29.8520  -13.0760   18.6020 C   0  0  0  0  0  2  0  0  0  0  0  0
  -28.4190  -12.6770   18.9850 C   0  0  0  0  0  2  0  0  0  0  0  0
  -27.8090  -13.6960   19.9690 C   0  0  0  0  0  3  0  0  0  0  0  0
  -28.7550  -14.1410   21.1080 C   0  0  0  0  0  2  0  0  0  0  0  0
  -29.9430  -14.7970   20.4970 N   0  0  0  0  0  0  0  0  0  0  0  0
  -31.6650  -16.1160   20.5220 O   0  0  0  0  0  0  0  0  0  0  0  0
  -25.4030  -14.2180   20.5810 C   0  0  0  0  0  0  0  0  0  0  0  0
  -24.3300  -13.4320   20.8870 C   0  0  0  0  0  0  0  0  0  0  0  0
  -24.8190  -12.0890   20.9110 C   0  0  0  0  0  0  0  0  0  0  0  0
  -26.4710  -13.3540   20.4200 N   0  0  0  0  0  0  0  0  0  0  0  0
  -26.1300  -12.0680   20.6840 N   0  0  0  0  0  0  0  0  0  0  0  0
  -24.0980  -10.8210   21.0750 C   0  0  0  0  0  0  0  0  0  0  0  0
  -24.4660   -9.8860   22.0670 C   0  0  0  0  0  3  0  0  0  0  0  0
  -23.7400   -8.6840   22.2200 C   0  0  0  0  0  3  0  0  0  0  0  0
  -22.6340   -8.4110   21.3800 C   0  0  0  0  0  0  0  0  0  0  0  0
  -22.2870   -9.3350   20.3800 C   0  0  0  0  0  3  0  0  0  0  0  0
  -23.0130  -10.5280   20.2250 C   0  0  0  0  0  3  0  0  0  0  0  0
  -21.8870   -7.2590   21.4400 O   0  0  0  0  0  0  0  0  0  0  0  0
  -21.7490   -6.5510   22.6070 C   0  0  0  0  0  0  0  0  0  0  0  0
  -21.1590   -7.1170   23.7570 C   0  0  0  0  0  3  0  0  0  0  0  0
  -20.9740   -6.3320   24.9130 C   0  0  0  0  0  3  0  0  0  0  0  0
  -21.3690   -4.9810   24.9180 C   0  0  0  0  0  0  0  0  0  0  0  0
  -21.9540   -4.4140   23.7720 C   0  0  0  0  0  3  0  0  0  0  0  0
  -22.1400   -5.1960   22.6190 C   0  0  0  0  0  0  0  0  0  0  0  0
  -22.6840   -4.6390   21.5100 F   0  0  0  0  0  0  0  0  0  0  0  0
  -21.1850   -4.2250   26.0250 F   0  0  0  0  0  0  0  0  0  0  0  0
  -22.9130  -13.8950   21.0510 C   0  0  0  0  0  0  0  0  0  0  0  0
  -22.1380  -13.2080   21.8810 N   0  0  0  0  0  0  0  0  0  0  0  0
  -22.5010  -14.9040   20.4790 O   0  0  0  0  0  0  0  0  0  0  0  0
  -22.4820  -12.3940   22.3660 H   0  0  0  0  0  0  0  0  0  0  0  0
  -21.1830  -13.5040   22.0360 H   0  0  0  0  0  0  0  0  0  0  0  0
  -25.5560  -15.5900   20.3990 N   0  0  0  0  0  0  0  0  0  0  0  0
  -24.7730  -16.2310   20.4640 H   0  0  0  0  0  0  0  0  0  0  0  0
  -26.4310  -16.0550   20.1960 H   0  0  0  0  0  0  0  0  0  0  0  0
  -28.3810  -25.7940   20.3190 O   0  0  0  0  0  0  0  0  0  0  0  0
  -24.7600  -32.0190   23.3890 C   0  0  0  0  0  0  0  0  0  0  0  0
  -27.3950  -27.0260   20.2460 C   0  0  0  0  0  0  0  0  0  0  0  0
  -23.6040  -30.6470   21.7080 C   0  0  0  0  0  3  0  0  0  0  0  0
  -25.0890  -29.0610   20.2470 C   0  0  0  0  0  0  0  0  0  0  0  0
  -26.1830  -30.8220   21.6060 C   0  0  0  0  0  2  0  0  0  0  0  0
  -26.2750  -29.4050   20.9040 C   0  0  0  0  0  0  0  0  0  0  0  0
  -27.4040  -28.4160   20.8760 C   0  0  0  0  0  3  0  0  0  0  0  0
  -26.1740  -26.9200   19.5270 C   0  0  0  0  0  3  0  0  0  0  0  0
  -25.0820  -27.8480   19.5350 C   0  0  0  0  0  3  0  0  0  0  0  0
  -23.8630  -29.9920   20.3190 C   0  0  0  0  0  2  0  0  0  0  0  0
  -24.8720  -31.1970   22.2870 N   0  0  0  0  0  0  0  0  0  0  0  0
  -23.6590  -32.2860   23.9040 O   0  0  0  0  0  0  0  0  0  0  0  0
  -22.8990  -29.6330   22.6500 C   0  0  0  0  0  0  0  0  0  0  0  0
  -21.5810  -29.4140   22.4770 N   0  0  0  0  0  0  0  0  0  0  0  0
  -23.5530  -29.0410   23.5120 O   0  0  0  0  0  0  0  0  0  0  0  0
  -21.0990  -29.9430   21.7640 H   0  0  0  0  0  0  0  0  0  0  0  0
  -18.2520  -27.9970   22.8430 C   0  0  0  0  0  0  0  0  0  0  0  0
  -20.7760  -28.4310   23.2170 C   0  0  0  0  0  3  0  0  0  0  0  0
  -20.9920  -27.0050   22.6600 C   0  0  0  0  0  2  0  0  0  0  0  0
  -19.9620  -26.6100   21.5970 C   0  0  0  0  0  2  0  0  0  0  0  0
  -18.5460  -26.6630   22.1760 C   0  0  0  0  0  2  0  0  0  0  0  0
  -19.2980  -28.8340   23.3170 C   0  0  0  0  0  0  0  0  0  0  0  0
  -18.9650  -30.0750   23.9030 C   0  0  0  0  0  3  0  0  0  0  0  0
  -17.6230  -30.4820   24.0170 C   0  0  0  0  0  3  0  0  0  0  0  0
  -16.5920  -29.6450   23.5560 C   0  0  0  0  0  3  0  0  0  0  0  0
  -16.9070  -28.4040   22.9750 C   0  0  0  0  0  3  0  0  0  0  0  0
  -26.0070  -32.6780   24.0550 C   0  0  0  0  0  3  0  0  0  0  0  0
  -25.6730  -34.0800   24.3800 N   0  0  0  0  0  0  0  0  0  0  0  0
  -25.9600  -35.1410   23.6140 C   0  0  0  0  0  0  0  0  0  0  0  0
  -26.5890  -35.0450   22.5580 O   0  0  0  0  0  0  0  0  0  0  0  0
  -25.1100  -34.2270   25.2050 H   0  0  0  0  0  0  0  0  0  0  0  0
  -24.1660  -36.8950   23.3770 C   0  0  0  0  0  1  0  0  0  0  0  0
  -25.4760  -36.5280   24.0910 C   0  0  0  0  0  3  0  0  0  0  0  0
  -27.6370  -37.4960   24.7490 C   0  0  0  0  0  1  0  0  0  0  0  0
  -26.4690  -37.6060   23.8800 N   0  0  0  0  0  0  0  0  0  0  0  0
  -26.0470  -38.5180   24.0300 H   0  0  0  0  0  0  0  0  0  0  0  0
  -26.4750  -31.9280   25.3650 C   0  0  1  0  0  0  0  0  0  0  0  0
  -25.3430  -31.7050   26.3960 C   0  0  0  0  0  1  0  0  0  0  0  0
  -27.0750  -30.5440   25.0300 C   0  0  0  0  0  1  0  0  0  0  0  0
  -27.5990  -32.7340   26.0560 C   0  0  0  0  0  1  0  0  0  0  0  0
  2  7  1  0
  2  1  1  0
  3 15  1  0
  3  1  2  0
  4  2  2  0
  5  3  1  0
  6  5  2  0
  6  4  1  0
  7 14  2  0
  8  4  1  0
  8 10  1  0
  9 51  1  0
  9  7  1  0
 10  9  1  0
 10 13  1  0
 11  5  1  0
 12  6  1  0
 15 22  2  0
 16 21  1  0
 17 18  1  0
 17 16  1  0
 19 18  1  0
 19 26  1  0
 19 20  1  0
 21 15  1  0
 21 20  1  0
 23 24  2  0
 24 25  1  0
 24 43  1  0
 25 28  1  0
 26 23  1  0
 26 27  1  0
 27 25  2  0
 28 29  1  0
 29 30  2  0
 31 34  1  0
 31 30  1  0
 32 31  2  0
 33 32  1  0
 33 28  2  0
 34 35  1  0
 35 40  2  0
 35 36  1  0
 36 37  2  0
 37 38  1  0
 38 42  1  0
 39 38  2  0
 40 39  1  0
 41 40  1  0
 43 44  1  0
 44 47  1  0
 44 46  1  0
 45 43  2  0
 48 49  1  0
 48 23  1  0
 50 48  1  0
 52 63  2  0
 53 51  1  0
 53 58  1  0
 54 62  1  0
 54 64  1  0
 55 61  1  0
 55 57  1  0
 56 62  1  0
 57 56  1  0
 58 57  2  0
 59 60  1  0
 59 53  2  0
 60 55  2  0
 61 54  1  0
 62 52  1  0
 64 66  2  0
 65 64  1  0
 67 65  1  0
 68 77  2  0
 68 73  1  0
 69 65  1  0
 69 73  1  0
 70 69  1  0
 71 72  1  0
 71 70  1  0
 72 68  1  0
 73 74  2  0
 74 75  1  0
 76 75  2  0
 77 76  1  0
 78 52  1  0
 78 79  1  0
 78 88  1  0
 79 82  1  0
 80 84  1  0
 80 79  1  0
 81 80  2  0
 84 83  1  0
 86 87  1  0
 86 84  1  0
 86 85  1  0
 88 91  1  1
 88 89  1  0
 90 88  1  0
M  ISO  4   3 100   9 101  15 100  51 101
M  END
>  <TORSDO>  (63) 
F 16

>  <SCORE>  (63) 
-16.088

>  <name>  (63) 
62

>  <ligand_id>  (63) 
62

>  <original_smiles>  (63) 
[H]c1c([H])c([H])c2c(c1[H])C([H])([H])C([H])([H])C([H])([H])C2([H])N([H])C(=O)C1([H])N(C(=O)C([H])(N([H])C(=O)C([H])(N([H])C([H])([H])[H])C([H])([H])[H])C(C([H])([H])[H])(C([H])([H])[H])C([H])([H])[H])C([H])([H])c2c([H])c(OC3([H])C(=O)c4c([H])c(C(=O)N5C([H])([H])C([H])([H])C([H])([H])C([H])(n6nc(-c7c([H])c([H])c(Oc8c([H])c([H])c(F)c([H])c8F)c([H])c7[H])c(C(=O)N([H])[H])c6N([H])[H])C5([H])[H])c(C([H])([H])[H])c(C([H])([H])[H])c4C([H])([H])C3([H])C([H])([H])[H])c([H])c([H])c2C1([H])[H]

>  <smiles>  (63) 
[H]c1c([H])c([H])c2c(c1[H])C([H])([H])C([H])([H])C([H])([H])C2([H])N([H])C(=O)C1([H])N(C(=O)C([H])(N([H])C(=O)C([H])(N([H])C([H])([H])[H])C([H])([H])[H])C(C([H])([H])[H])(C([H])([H])[H])C([H])([H])[H])C([H])([H])c2c([H])c(OC3([H])C(=O)c4c([H])c(C(=O)N5C([H])([H])C([H])([H])C([H])([H])C([H])(n6nc(-c7c([H])c([H])c(Oc8c([H])c([H])c(F)c([H])c8F)c([H])c7[H])c(C(=O)N([H])[H])c6N([H])[H])C5([H])[H])c(C([H])([H])[H])c(C([H])([H])[H])c4C([H])([H])C3([H])C([H])([H])[H])c([H])c([H])c2C1([H])[H]

$$$$
63:0:0
     RDKit          3D

 95104  0  0  1  0  0  0  0  0999 V2000
  -29.1120  -24.0650   19.3020 C   0  0  0  0  0  3  0  0  0  0  0  0
  -29.4730  -22.1060   20.8960 C   0  0  0  0  0  0  0  0  0  0  0  0
  -29.0170  -23.0700   21.8850 C   0  0  0  0  0  0  0  0  0  0  0  0
  -28.6760  -24.4660   21.5900 C   0  0  0  0  0  0  0  0  0  0  0  0
  -28.7090  -25.0410   20.2730 C   0  0  0  0  0  0  0  0  0  0  0  0
  -29.4760  -22.6870   19.5840 C   0  0  0  0  0  0  0  0  0  0  0  0
  -28.9410  -22.6300   23.3490 C   0  0  0  0  0  1  0  0  0  0  0  0
  -28.3160  -25.3970   22.7430 C   0  0  0  0  0  1  0  0  0  0  0  0
  -29.9140  -21.9350   18.5470 F   0  0  0  0  0  0  0  0  0  0  0  0
  -30.1340  -20.6730   21.2870 C   0  0  0  0  0  0  0  0  0  0  0  0
  -30.9400  -20.7020   22.2250 O   0  0  0  0  0  0  0  0  0  0  0  0
  -29.1710  -19.1320   19.4920 C   0  0  0  0  0  3  0  0  0  0  0  0
  -29.0250  -17.9050   18.8260 C   0  0  0  0  0  3  0  0  0  0  0  0
  -30.4070  -17.9130   21.2040 C   0  0  0  0  0  3  0  0  0  0  0  0
  -29.9080  -19.2170   20.6790 C   0  0  0  0  0  0  0  0  0  0  0  0
  -30.2350  -16.5800   20.5720 C   0  0  0  0  0  0  0  0  0  0  0  0
  -29.5920  -16.6940   19.2940 C   0  0  0  0  0  0  0  0  0  0  0  0
  -29.6120  -15.5940   18.2480 C   0  0  0  0  0  1  0  0  0  0  0  0
  -30.9290  -15.1850   21.0120 C   0  0  0  0  0  0  0  0  0  0  0  0
  -30.9040  -12.7470   20.3270 C   0  0  0  0  0  2  0  0  0  0  0  0
  -30.1320  -12.4790   19.0140 C   0  0  0  0  0  2  0  0  0  0  0  0
  -28.6030  -12.4420   19.2280 C   0  0  0  0  0  2  0  0  0  0  0  0
  -28.0610  -13.4450   20.2870 C   0  0  0  0  0  3  0  0  0  0  0  0
  -28.9810  -13.5790   21.5090 C   0  0  0  0  0  2  0  0  0  0  0  0
  -30.3140  -13.9340   21.0060 N   0  0  0  0  0  0  0  0  0  0  0  0
  -32.1620  -15.1870   21.0580 O   0  0  0  0  0  0  0  0  0  0  0  0
  -25.6250  -14.0480   20.7670 C   0  0  0  0  0  0  0  0  0  0  0  0
  -24.5180  -13.2810   21.0160 C   0  0  0  0  0  0  0  0  0  0  0  0
  -24.9750  -11.9270   21.0490 C   0  0  0  0  0  0  0  0  0  0  0  0
  -26.6800  -13.1600   20.6520 N   0  0  0  0  0  0  0  0  0  0  0  0
  -26.2920  -11.8810   20.8950 N   0  0  0  0  0  0  0  0  0  0  0  0
  -24.2250  -10.6700   21.1630 C   0  0  0  0  0  0  0  0  0  0  0  0
  -24.5790   -9.6820   22.1070 C   0  0  0  0  0  3  0  0  0  0  0  0
  -23.8290   -8.4900   22.2100 C   0  0  0  0  0  3  0  0  0  0  0  0
  -22.7120   -8.2790   21.3680 C   0  0  0  0  0  0  0  0  0  0  0  0
  -22.3810   -9.2560   20.4130 C   0  0  0  0  0  3  0  0  0  0  0  0
  -23.1290  -10.4400   20.3080 C   0  0  0  0  0  3  0  0  0  0  0  0
  -21.9410   -7.1430   21.3830 O   0  0  0  0  0  0  0  0  0  0  0  0
  -21.8280   -6.3640   22.5060 C   0  0  0  0  0  0  0  0  0  0  0  0
  -21.3530   -6.8850   23.7290 C   0  0  0  0  0  3  0  0  0  0  0  0
  -21.1860   -6.0330   24.8390 C   0  0  0  0  0  3  0  0  0  0  0  0
  -21.4850   -4.6620   24.7260 C   0  0  0  0  0  0  0  0  0  0  0  0
  -21.9510   -4.1410   23.5070 C   0  0  0  0  0  3  0  0  0  0  0  0
  -22.1190   -4.9900   22.3990 C   0  0  0  0  0  0  0  0  0  0  0  0
  -22.5500   -4.4780   21.2200 F   0  0  0  0  0  0  0  0  0  0  0  0
  -21.3170   -3.8420   25.7900 F   0  0  0  0  0  0  0  0  0  0  0  0
  -23.1040  -13.7690   21.1190 C   0  0  0  0  0  0  0  0  0  0  0  0
  -22.2830  -13.0950   21.9180 N   0  0  0  0  0  0  0  0  0  0  0  0
  -22.7310  -14.7820   20.5290 O   0  0  0  0  0  0  0  0  0  0  0  0
  -22.5960  -12.2760   22.4180 H   0  0  0  0  0  0  0  0  0  0  0  0
  -21.3270  -13.4020   22.0350 H   0  0  0  0  0  0  0  0  0  0  0  0
  -25.8190  -15.4160   20.6010 N   0  0  0  0  0  0  0  0  0  0  0  0
  -25.0580  -16.0860   20.6430 H   0  0  0  0  0  0  0  0  0  0  0  0
  -26.7150  -15.8480   20.4010 H   0  0  0  0  0  0  0  0  0  0  0  0
  -28.6070  -26.4660   19.9560 O   0  0  0  0  0  0  0  0  0  0  0  0
  -24.8040  -31.8430   23.1710 C   0  0  0  0  0  0  0  0  0  0  0  0
  -27.4640  -27.3270   19.9830 C   0  0  0  0  0  0  0  0  0  0  0  0
  -23.6160  -30.4810   21.4890 C   0  0  0  0  0  3  0  0  0  0  0  0
  -25.0830  -28.9790   20.0090 C   0  0  0  0  0  0  0  0  0  0  0  0
  -26.1550  -30.8180   21.3110 C   0  0  0  0  0  2  0  0  0  0  0  0
  -26.2500  -29.4480   20.6260 C   0  0  0  0  0  0  0  0  0  0  0  0
  -27.4370  -28.6370   20.5960 C   0  0  0  0  0  3  0  0  0  0  0  0
  -26.2730  -26.9360   19.3380 C   0  0  0  0  0  3  0  0  0  0  0  0
  -25.1050  -27.7340   19.3520 C   0  0  0  0  0  3  0  0  0  0  0  0
  -23.8360  -29.8470   20.0870 C   0  0  0  0  0  2  0  0  0  0  0  0
  -24.8780  -31.0670   22.0470 N   0  0  0  0  0  0  0  0  0  0  0  0
  -23.7180  -32.0870   23.7170 O   0  0  0  0  0  0  0  0  0  0  0  0
  -22.9650  -29.4320   22.4220 C   0  0  0  0  0  0  0  0  0  0  0  0
  -21.6380  -29.2490   22.3050 N   0  0  0  0  0  0  0  0  0  0  0  0
  -23.6550  -28.7850   23.2150 O   0  0  0  0  0  0  0  0  0  0  0  0
  -21.1370  -29.8210   21.6390 H   0  0  0  0  0  0  0  0  0  0  0  0
  -18.2860  -27.9690   22.7690 C   0  0  0  0  0  0  0  0  0  0  0  0
  -20.8390  -28.2710   23.0450 C   0  0  0  0  0  3  0  0  0  0  0  0
  -20.9690  -26.8600   22.4260 C   0  0  0  0  0  2  0  0  0  0  0  0
  -19.8730  -26.5490   21.4020 C   0  0  0  0  0  2  0  0  0  0  0  0
  -18.4870  -26.6470   22.0480 C   0  0  0  0  0  2  0  0  0  0  0  0
  -19.3900  -28.7380   23.2230 C   0  0  0  0  0  0  0  0  0  0  0  0
  -19.1470  -29.9760   23.8580 C   0  0  0  0  0  3  0  0  0  0  0  0
  -17.8330  -30.4450   24.0430 C   0  0  0  0  0  3  0  0  0  0  0  0
  -16.7430  -29.6730   23.6050 C   0  0  0  0  0  3  0  0  0  0  0  0
  -16.9720  -28.4380   22.9730 C   0  0  0  0  0  3  0  0  0  0  0  0
  -26.0770  -32.4760   23.8110 C   0  0  0  0  0  3  0  0  0  0  0  0
  -25.7300  -33.8400   24.2420 N   0  0  0  0  0  0  0  0  0  0  0  0
  -26.0540  -34.9560   23.5760 C   0  0  0  0  0  0  0  0  0  0  0  0
  -26.7370  -34.9470   22.5490 O   0  0  0  0  0  0  0  0  0  0  0  0
  -25.1220  -33.9190   25.0440 H   0  0  0  0  0  0  0  0  0  0  0  0
  -24.3030  -36.7480   23.3310 C   0  0  0  0  0  1  0  0  0  0  0  0
  -25.5330  -36.2960   24.1350 C   0  0  0  0  0  3  0  0  0  0  0  0
  -27.6360  -37.1390   25.0810 C   0  0  0  0  0  1  0  0  0  0  0  0
  -26.5500  -37.3700   24.1310 N   0  0  0  0  0  0  0  0  0  0  0  0
  -26.1260  -38.2690   24.3460 H   0  0  0  0  0  0  0  0  0  0  0  0
  -26.6420  -31.6400   25.0260 C   0  0  1  0  0  0  0  0  0  0  0  0
  -25.5800  -31.3090   26.1010 C   0  0  0  0  0  1  0  0  0  0  0  0
  -27.2480  -30.3040   24.5380 C   0  0  0  0  0  1  0  0  0  0  0  0
  -27.7880  -32.4200   25.7110 C   0  0  0  0  0  1  0  0  0  0  0  0
  1  6  2  0
  1  5  1  0
  2 10  1  0
  2  3  2  0
  3  7  1  0
  4  3  1  0
  4  8  1  0
  5  4  2  0
  6  2  1  0
  9  6  1  0
 10 11  2  0
 12 15  1  0
 13 17  1  0
 13 12  2  0
 15 14  2  0
 15 10  1  0
 16 19  1  0
 16 14  1  0
 17 16  2  0
 18 17  1  0
 19 26  2  0
 20 25  1  0
 21 22  1  0
 21 20  1  0
 23 22  1  0
 23 30  1  0
 23 24  1  0
 25 19  1  0
 25 24  1  0
 27 28  2  0
 28 29  1  0
 28 47  1  0
 29 32  1  0
 30 27  1  0
 30 31  1  0
 31 29  2  0
 32 33  1  0
 33 34  2  0
 35 38  1  0
 35 34  1  0
 36 35  2  0
 37 36  1  0
 37 32  2  0
 38 39  1  0
 39 40  1  0
 40 41  2  0
 42 41  1  0
 42 46  1  0
 43 42  2  0
 44 39  2  0
 44 43  1  0
 45 44  1  0
 47 48  1  0
 48 51  1  0
 48 50  1  0
 49 47  2  0
 52 53  1  0
 52 27  1  0
 54 52  1  0
 55 57  1  0
 55  5  1  0
 56 67  2  0
 57 62  1  0
 58 66  1  0
 58 68  1  0
 59 65  1  0
 59 61  1  0
 60 66  1  0
 61 60  1  0
 62 61  2  0
 63 64  1  0
 63 57  2  0
 64 59  2  0
 65 58  1  0
 66 56  1  0
 68 70  2  0
 69 68  1  0
 71 69  1  0
 72 81  2  0
 72 77  1  0
 73 69  1  0
 73 77  1  0
 74 73  1  0
 75 76  1  0
 75 74  1  0
 76 72  1  0
 77 78  2  0
 78 79  1  0
 80 79  2  0
 81 80  1  0
 82 56  1  0
 82 83  1  0
 82 92  1  0
 83 86  1  0
 84 88  1  0
 84 83  1  0
 85 84  2  0
 88 87  1  0
 90 88  1  0
 90 91  1  0
 90 89  1  0
 92 95  1  1
 92 93  1  0
 94 92  1  0
M  ISO  4   5 101  16 100  19 100  55 101
M  END
>  <TORSDO>  (64) 
F 18

>  <SCORE>  (64) 
-12.850

>  <name>  (64) 
63

>  <ligand_id>  (64) 
63

>  <original_smiles>  (64) 
[H]c1c([H])c([H])c2c(c1[H])C([H])([H])C([H])([H])C([H])([H])C2([H])N([H])C(=O)C1([H])N(C(=O)C([H])(N([H])C(=O)C([H])(N([H])C([H])([H])[H])C([H])([H])[H])C(C([H])([H])[H])(C([H])([H])[H])C([H])([H])[H])C([H])([H])c2c([H])c(Oc3c([H])c(F)c(C(=O)c4c([H])c([H])c(C([H])([H])[H])c(C(=O)N5C([H])([H])C([H])([H])C([H])([H])C([H])(n6nc(-c7c([H])c([H])c(Oc8c([H])c([H])c(F)c([H])c8F)c([H])c7[H])c(C(=O)N([H])[H])c6N([H])[H])C5([H])[H])c4[H])c(C([H])([H])[H])c3C([H])([H])[H])c([H])c([H])c2C1([H])[H]

>  <smiles>  (64) 
[H]c1c([H])c([H])c2c(c1[H])C([H])([H])C([H])([H])C([H])([H])C2([H])N([H])C(=O)C1([H])N(C(=O)C([H])(N([H])C(=O)C([H])(N([H])C([H])([H])[H])C([H])([H])[H])C(C([H])([H])[H])(C([H])([H])[H])C([H])([H])[H])C([H])([H])c2c([H])c(Oc3c([H])c(F)c(C(=O)c4c([H])c([H])c(C([H])([H])[H])c(C(=O)N5C([H])([H])C([H])([H])C([H])([H])C([H])(n6nc(-c7c([H])c([H])c(Oc8c([H])c([H])c(F)c([H])c8F)c([H])c7[H])c(C(=O)N([H])[H])c6N([H])[H])C5([H])[H])c4[H])c(C([H])([H])[H])c3C([H])([H])[H])c([H])c([H])c2C1([H])[H]

$$$$
64:0:0
     RDKit          3D

 95104  0  0  1  0  0  0  0  0999 V2000
  -28.7000  -23.1790   19.9330 C   0  0  0  0  0  3  0  0  0  0  0  0
  -29.0770  -25.7320   21.0270 C   0  0  0  0  0  3  0  0  0  0  0  0
  -28.9160  -23.3140   21.3240 C   0  0  0  0  0  0  0  0  0  0  0  0
  -28.6280  -24.3160   19.0960 C   0  0  0  0  0  0  0  0  0  0  0  0
  -29.1080  -24.6060   21.8710 C   0  0  0  0  0  0  0  0  0  0  0  0
  -28.8040  -25.6070   19.6460 C   0  0  0  0  0  0  0  0  0  0  0  0
  -28.3040  -24.1420   17.6250 C   0  0  0  0  0  1  0  0  0  0  0  0
  -29.2870  -24.8260   23.3660 C   0  0  0  0  0  1  0  0  0  0  0  0
  -28.6190  -26.7400   18.8810 O   0  0  0  0  0  0  0  0  0  0  0  0
  -24.8640  -30.9010   23.2430 C   0  0  0  0  0  0  0  0  0  0  0  0
  -27.4290  -27.3880   19.1030 C   0  0  0  0  0  0  0  0  0  0  0  0
  -23.5700  -29.6580   21.5420 C   0  0  0  0  0  3  0  0  0  0  0  0
  -24.9370  -28.5630   19.6870 C   0  0  0  0  0  0  0  0  0  0  0  0
  -25.9960  -30.3390   21.0980 C   0  0  0  0  0  2  0  0  0  0  0  0
  -26.1140  -29.1160   20.2140 C   0  0  0  0  0  0  0  0  0  0  0  0
  -27.3660  -28.5360   19.9200 C   0  0  0  0  0  3  0  0  0  0  0  0
  -26.2400  -26.8500   18.5680 C   0  0  0  0  0  3  0  0  0  0  0  0
  -24.9930  -27.4270   18.8620 C   0  0  0  0  0  3  0  0  0  0  0  0
  -23.6400  -29.2480   20.0480 C   0  0  0  0  0  2  0  0  0  0  0  0
  -24.8350  -30.3060   22.0180 N   0  0  0  0  0  0  0  0  0  0  0  0
  -23.8500  -30.9520   23.9530 O   0  0  0  0  0  0  0  0  0  0  0  0
  -23.1650  -28.4220   22.3770 C   0  0  0  0  0  0  0  0  0  0  0  0
  -21.9380  -27.9250   22.1460 N   0  0  0  0  0  0  0  0  0  0  0  0
  -23.9480  -27.9190   23.1860 O   0  0  0  0  0  0  0  0  0  0  0  0
  -21.3550  -28.3970   21.4690 H   0  0  0  0  0  0  0  0  0  0  0  0
  -19.1800  -25.5950   21.9900 C   0  0  0  0  0  0  0  0  0  0  0  0
  -21.3550  -26.7460   22.7860 C   0  0  0  0  0  3  0  0  0  0  0  0
  -22.0810  -25.4560   22.3420 C   0  0  0  0  0  2  0  0  0  0  0  0
  -21.4200  -24.7730   21.1420 C   0  0  0  0  0  2  0  0  0  0  0  0
  -19.9670  -24.4070   21.4620 C   0  0  0  0  0  2  0  0  0  0  0  0
  -19.8340  -26.6990   22.5970 C   0  0  0  0  0  0  0  0  0  0  0  0
  -19.0610  -27.7940   23.0400 C   0  0  0  0  0  3  0  0  0  0  0  0
  -17.6620  -27.7950   22.8890 C   0  0  0  0  0  3  0  0  0  0  0  0
  -17.0170  -26.6900   22.3040 C   0  0  0  0  0  3  0  0  0  0  0  0
  -17.7760  -25.5930   21.8580 C   0  0  0  0  0  3  0  0  0  0  0  0
  -26.1620  -31.5640   23.8020 C   0  0  0  0  0  3  0  0  0  0  0  0
  -26.7800  -30.7840   25.0280 C   0  0  1  0  0  0  0  0  0  0  0  0
  -25.7650  -30.5090   26.1630 C   0  0  0  0  0  1  0  0  0  0  0  0
  -27.3680  -29.4270   24.5740 C   0  0  0  0  0  1  0  0  0  0  0  0
  -27.9550  -31.5960   25.6210 C   0  0  0  0  0  1  0  0  0  0  0  0
  -25.8240  -32.9410   24.1790 N   0  0  0  0  0  0  0  0  0  0  0  0
  -26.2590  -34.0320   23.5330 C   0  0  0  0  0  0  0  0  0  0  0  0
  -27.0530  -33.9810   22.5900 O   0  0  0  0  0  0  0  0  0  0  0  0
  -25.1280  -33.0570   24.9010 H   0  0  0  0  0  0  0  0  0  0  0  0
  -24.7060  -35.9350   23.0000 C   0  0  0  0  0  1  0  0  0  0  0  0
  -25.7280  -35.3960   24.0120 C   0  0  0  0  0  3  0  0  0  0  0  0
  -27.6650  -36.0850   25.3550 C   0  0  0  0  0  1  0  0  0  0  0  0
  -26.7940  -36.3990   24.2240 N   0  0  0  0  0  0  0  0  0  0  0  0
  -26.3980  -37.3220   24.3770 H   0  0  0  0  0  0  0  0  0  0  0  0
  -28.8950  -22.0770   22.2200 C   0  0  0  0  0  2  0  0  0  0  0  0
  -30.2590  -21.3620   22.3030 C   0  0  0  0  0  2  0  0  0  0  0  0
  -30.4890  -20.3340   21.1910 C   0  0  0  0  0  2  0  0  0  0  0  0
  -29.7250  -19.0110   21.3940 C   0  0  0  0  0  2  0  0  0  0  0  0
  -31.6170  -13.9640   19.5240 C   0  0  0  0  0  0  0  0  0  0  0  0
  -31.0230  -11.6690   18.8810 C   0  0  0  0  0  2  0  0  0  0  0  0
  -30.0100  -11.7080   17.7210 C   0  0  0  0  0  2  0  0  0  0  0  0
  -28.5720  -11.7830   18.2680 C   0  0  0  0  0  2  0  0  0  0  0  0
  -28.3950  -12.8940   19.3380 C   0  0  0  0  0  3  0  0  0  0  0  0
  -29.5220  -12.8360   20.3920 C   0  0  0  0  0  2  0  0  0  0  0  0
  -30.8180  -12.8770   19.6900 N   0  0  0  0  0  0  0  0  0  0  0  0
  -32.6390  -13.9470   18.8270 O   0  0  0  0  0  0  0  0  0  0  0  0
  -30.3350  -17.4340   19.4990 C   0  0  0  0  0  2  0  0  0  0  0  0
  -30.4030  -16.5650   21.8490 C   0  0  0  0  0  2  0  0  0  0  0  0
  -31.2600  -16.2890   19.0750 C   0  0  0  0  0  2  0  0  0  0  0  0
  -31.3820  -15.4740   21.3850 C   0  0  0  0  0  2  0  0  0  0  0  0
  -30.5830  -17.8110   20.9670 C   0  0  0  0  0  3  0  0  0  0  0  0
  -31.1360  -15.1340   19.9780 N   0  0  0  0  0  0  0  0  0  0  0  0
  -26.2280  -13.8570   20.3450 C   0  0  0  0  0  0  0  0  0  0  0  0
  -25.0820  -13.2560   20.7940 C   0  0  0  0  0  0  0  0  0  0  0  0
  -25.2870  -11.8510   20.6430 C   0  0  0  0  0  0  0  0  0  0  0  0
  -27.0700  -12.8280   19.9540 N   0  0  0  0  0  0  0  0  0  0  0  0
  -26.5110  -11.6110   20.1870 N   0  0  0  0  0  0  0  0  0  0  0  0
  -24.3710  -10.7230   20.8520 C   0  0  0  0  0  0  0  0  0  0  0  0
  -24.7560   -9.5890   21.6010 C   0  0  0  0  0  3  0  0  0  0  0  0
  -23.8520   -8.5240   21.8040 C   0  0  0  0  0  3  0  0  0  0  0  0
  -22.5460   -8.5880   21.2600 C   0  0  0  0  0  0  0  0  0  0  0  0
  -22.1750   -9.7100   20.4990 C   0  0  0  0  0  3  0  0  0  0  0  0
  -23.0780  -10.7660   20.2930 C   0  0  0  0  0  3  0  0  0  0  0  0
  -21.6090   -7.5900   21.3840 O   0  0  0  0  0  0  0  0  0  0  0  0
  -21.5500   -6.7930   22.4990 C   0  0  0  0  0  0  0  0  0  0  0  0
  -21.4080   -7.3350   23.7960 C   0  0  0  0  0  3  0  0  0  0  0  0
  -21.2820   -6.4770   24.9070 C   0  0  0  0  0  3  0  0  0  0  0  0
  -21.2870   -5.0820   24.7230 C   0  0  0  0  0  0  0  0  0  0  0  0
  -21.4230   -4.5400   23.4320 C   0  0  0  0  0  3  0  0  0  0  0  0
  -21.5500   -5.3950   22.3240 C   0  0  0  0  0  0  0  0  0  0  0  0
  -21.6590   -4.8700   21.0800 F   0  0  0  0  0  0  0  0  0  0  0  0
  -21.1570   -4.2570   25.7890 F   0  0  0  0  0  0  0  0  0  0  0  0
  -23.8300  -13.9480   21.2520 C   0  0  0  0  0  0  0  0  0  0  0  0
  -23.1560  -13.3940   22.2530 N   0  0  0  0  0  0  0  0  0  0  0  0
  -23.4690  -15.0130   20.7520 O   0  0  0  0  0  0  0  0  0  0  0  0
  -23.4630  -12.5290   22.6740 H   0  0  0  0  0  0  0  0  0  0  0  0
  -22.3210  -13.8410   22.6040 H   0  0  0  0  0  0  0  0  0  0  0  0
  -26.6200  -15.1870   20.2180 N   0  0  0  0  0  0  0  0  0  0  0  0
  -26.0120  -15.9610   20.4610 H   0  0  0  0  0  0  0  0  0  0  0  0
  -27.5160  -15.4840   19.8530 H   0  0  0  0  0  0  0  0  0  0  0  0
  1  3  1  0
  2  5  1  0
  3  5  2  0
  3 50  1  0
  4  6  1  0
  4  1  2  0
  5  8  1  0
  6  2  2  0
  7  4  1  0
  9 11  1  0
  9  6  1  0
 10 21  2  0
 11 16  1  0
 12 20  1  0
 12 22  1  0
 13 19  1  0
 13 15  1  0
 14 20  1  0
 15 14  1  0
 16 15  2  0
 17 18  1  0
 17 11  2  0
 18 13  2  0
 19 12  1  0
 20 10  1  0
 22 24  2  0
 23 22  1  0
 25 23  1  0
 26 31  1  0
 27 23  1  0
 28 27  1  0
 29 30  1  0
 29 28  1  0
 30 26  1  0
 31 27  1  0
 31 32  2  0
 33 32  1  0
 34 33  2  0
 35 26  2  0
 35 34  1  0
 36 10  1  0
 36 41  1  0
 36 37  1  0
 37 40  1  1
 37 38  1  0
 39 37  1  0
 41 44  1  0
 42 46  1  0
 42 41  1  0
 43 42  2  0
 46 45  1  0
 46 48  1  0
 48 49  1  0
 48 47  1  0
 50 51  1  0
 52 53  1  0
 52 51  1  0
 54 60  1  0
 54 67  1  0
 55 60  1  0
 56 57  1  0
 56 55  1  0
 58 57  1  0
 58 71  1  0
 58 59  1  0
 60 59  1  0
 61 54  2  0
 62 66  1  0
 64 62  1  0
 64 67  1  0
 65 63  1  0
 66 53  1  0
 66 63  1  0
 67 65  1  0
 68 69  2  0
 69 88  1  0
 70 69  1  0
 70 73  1  0
 71 72  1  0
 71 68  1  0
 72 70  2  0
 73 74  1  0
 74 75  2  0
 76 79  1  0
 76 75  1  0
 77 76  2  0
 78 77  1  0
 78 73  2  0
 79 80  1  0
 80 81  1  0
 81 82  2  0
 83 82  1  0
 83 87  1  0
 84 83  2  0
 85 80  2  0
 85 84  1  0
 86 85  1  0
 88 89  1  0
 89 92  1  0
 89 91  1  0
 90 88  2  0
 93 68  1  0
 93 94  1  0
 95 93  1  0
M  ISO  4   6 101   9 101  54 100  67 100
M  END
>  <TORSDO>  (65) 
F 20

>  <SCORE>  (65) 
-11.229

>  <name>  (65) 
64

>  <ligand_id>  (65) 
64

>  <original_smiles>  (65) 
[H]c1c([H])c([H])c2c(c1[H])C([H])([H])C([H])([H])C([H])([H])C2([H])N([H])C(=O)C1([H])N(C(=O)C([H])(N([H])C(=O)C([H])(N([H])C([H])([H])[H])C([H])([H])[H])C(C([H])([H])[H])(C([H])([H])[H])C([H])([H])[H])C([H])([H])c2c([H])c(Oc3c([H])c(C([H])([H])[H])c(C([H])([H])C([H])([H])C([H])([H])C([H])([H])C4([H])C([H])([H])C([H])([H])N(C(=O)N5C([H])([H])C([H])([H])C([H])([H])C([H])(n6nc(-c7c([H])c([H])c(Oc8c([H])c([H])c(F)c([H])c8F)c([H])c7[H])c(C(=O)N([H])[H])c6N([H])[H])C5([H])[H])C([H])([H])C4([H])[H])c([H])c3C([H])([H])[H])c([H])c([H])c2C1([H])[H]

>  <smiles>  (65) 
[H]c1c([H])c([H])c2c(c1[H])C([H])([H])C([H])([H])C([H])([H])C2([H])N([H])C(=O)C1([H])N(C(=O)C([H])(N([H])C(=O)C([H])(N([H])C([H])([H])[H])C([H])([H])[H])C(C([H])([H])[H])(C([H])([H])[H])C([H])([H])[H])C([H])([H])c2c([H])c(Oc3c([H])c(C([H])([H])[H])c(C([H])([H])C([H])([H])C([H])([H])C([H])([H])C4([H])C([H])([H])C([H])([H])N(C(=O)N5C([H])([H])C([H])([H])C([H])([H])C([H])(n6nc(-c7c([H])c([H])c(Oc8c([H])c([H])c(F)c([H])c8F)c([H])c7[H])c(C(=O)N([H])[H])c6N([H])[H])C5([H])[H])C([H])([H])C4([H])[H])c([H])c3C([H])([H])[H])c([H])c([H])c2C1([H])[H]

$$$$
65:0:0
     RDKit          3D

 91 99  0  0  1  0  0  0  0  0999 V2000
  -28.1720  -21.5000   19.1720 C   0  0  0  0  0  3  0  0  0  0  0  0
  -27.8030  -22.9810   19.1250 C   0  0  0  0  0  3  0  0  0  0  0  0
  -29.8610  -21.9430   20.5460 C   0  0  0  0  0  3  0  0  0  0  0  0
  -29.2430  -20.7590   19.8970 C   0  0  0  0  0  0  0  0  0  0  0  0
  -29.5150  -23.4310   20.4960 C   0  0  0  0  0  0  0  0  0  0  0  0
  -28.4230  -24.1570   19.7840 C   0  0  0  0  0  0  0  0  0  0  0  0
  -29.8330  -19.0540   19.6560 C   0  0  0  0  0  0  0  0  0  0  0  0
  -30.4460  -18.9640   18.5910 O   0  0  0  0  0  0  0  0  0  0  0  0
  -30.2360  -17.7160   21.8860 C   0  0  0  0  0  1  0  0  0  0  0  0
  -28.2650  -17.1250   20.4880 C   0  0  0  0  0  1  0  0  0  0  0  0
  -29.7770  -17.3980   20.4500 C   0  0  1  0  0  0  0  0  0  0  0  0
  -30.5710  -15.7400   20.1310 C   0  0  0  0  0  0  0  0  0  0  0  0
  -30.6930  -13.1890   19.3540 C   0  0  0  0  0  2  0  0  0  0  0  0
  -29.7990  -12.8210   18.1360 C   0  0  0  0  0  2  0  0  0  0  0  0
  -28.3640  -12.4880   18.5750 C   0  0  0  0  0  2  0  0  0  0  0  0
  -27.8590  -13.4860   19.6440 C   0  0  0  0  0  3  0  0  0  0  0  0
  -28.8940  -13.7500   20.7620 C   0  0  0  0  0  2  0  0  0  0  0  0
  -30.0850  -14.3610   20.1270 N   0  0  0  0  0  0  0  0  0  0  0  0
  -31.7860  -15.6910   19.8590 O   0  0  0  0  0  0  0  0  0  0  0  0
  -25.4840  -14.0180   20.3880 C   0  0  0  0  0  0  0  0  0  0  0  0
  -24.4280  -13.2380   20.7620 C   0  0  0  0  0  0  0  0  0  0  0  0
  -24.9050  -11.8920   20.7390 C   0  0  0  0  0  0  0  0  0  0  0  0
  -26.5370  -13.1510   20.1560 N   0  0  0  0  0  0  0  0  0  0  0  0
  -26.2000  -11.8640   20.4320 N   0  0  0  0  0  0  0  0  0  0  0  0
  -24.1800  -10.6290   20.9310 C   0  0  0  0  0  0  0  0  0  0  0  0
  -24.5980   -9.6730   21.8830 C   0  0  0  0  0  3  0  0  0  0  0  0
  -23.8670   -8.4780   22.0650 C   0  0  0  0  0  3  0  0  0  0  0  0
  -22.7050   -8.2330   21.2960 C   0  0  0  0  0  0  0  0  0  0  0  0
  -22.3060   -9.1770   20.3330 C   0  0  0  0  0  3  0  0  0  0  0  0
  -23.0380  -10.3630   20.1500 C   0  0  0  0  0  3  0  0  0  0  0  0
  -21.9470   -7.0900   21.3860 O   0  0  0  0  0  0  0  0  0  0  0  0
  -21.8570   -6.3760   22.5540 C   0  0  0  0  0  0  0  0  0  0  0  0
  -21.3990   -6.9660   23.7530 C   0  0  0  0  0  3  0  0  0  0  0  0
  -21.2560   -6.1800   24.9140 C   0  0  0  0  0  3  0  0  0  0  0  0
  -21.5610   -4.8060   24.8770 C   0  0  0  0  0  0  0  0  0  0  0  0
  -22.0120   -4.2160   23.6830 C   0  0  0  0  0  3  0  0  0  0  0  0
  -22.1560   -5.0000   22.5250 C   0  0  0  0  0  0  0  0  0  0  0  0
  -22.5710   -4.4230   21.3700 F   0  0  0  0  0  0  0  0  0  0  0  0
  -21.4170   -4.0480   25.9900 F   0  0  0  0  0  0  0  0  0  0  0  0
  -23.0290  -13.7140   21.0240 C   0  0  0  0  0  0  0  0  0  0  0  0
  -22.3070  -13.0370   21.9070 N   0  0  0  0  0  0  0  0  0  0  0  0
  -22.5870  -14.7250   20.4790 O   0  0  0  0  0  0  0  0  0  0  0  0
  -22.6780  -12.2220   22.3740 H   0  0  0  0  0  0  0  0  0  0  0  0
  -21.3680  -13.3410   22.1260 H   0  0  0  0  0  0  0  0  0  0  0  0
  -25.6200  -15.3860   20.1950 N   0  0  0  0  0  0  0  0  0  0  0  0
  -24.8390  -16.0220   20.3040 H   0  0  0  0  0  0  0  0  0  0  0  0
  -26.4630  -15.8440   19.8730 H   0  0  0  0  0  0  0  0  0  0  0  0
  -28.2670  -25.7430   19.6080 O   0  0  0  0  0  0  0  0  0  0  0  0
  -24.7080  -31.7160   22.9670 C   0  0  0  0  0  0  0  0  0  0  0  0
  -27.2050  -26.8510   19.6860 C   0  0  0  0  0  0  0  0  0  0  0  0
  -23.4680  -30.3430   21.3440 C   0  0  0  0  0  3  0  0  0  0  0  0
  -24.8780  -28.7830   19.8080 C   0  0  0  0  0  0  0  0  0  0  0  0
  -26.0290  -30.5680   21.0950 C   0  0  0  0  0  2  0  0  0  0  0  0
  -26.0910  -29.1640   20.3950 C   0  0  0  0  0  0  0  0  0  0  0  0
  -27.2350  -28.2230   20.3070 C   0  0  0  0  0  3  0  0  0  0  0  0
  -25.9520  -26.6650   19.0520 C   0  0  0  0  0  3  0  0  0  0  0  0
  -24.8410  -27.5600   19.1150 C   0  0  0  0  0  3  0  0  0  0  0  0
  -23.6510  -29.6970   19.9410 C   0  0  0  0  0  2  0  0  0  0  0  0
  -24.7600  -30.9070   21.8540 N   0  0  0  0  0  0  0  0  0  0  0  0
  -23.6370  -31.9710   23.5440 O   0  0  0  0  0  0  0  0  0  0  0  0
  -22.8290  -29.3150   22.3160 C   0  0  0  0  0  0  0  0  0  0  0  0
  -21.5010  -29.1080   22.2300 N   0  0  0  0  0  0  0  0  0  0  0  0
  -23.5380  -28.7020   23.1180 O   0  0  0  0  0  0  0  0  0  0  0  0
  -20.9760  -29.6560   21.5620 H   0  0  0  0  0  0  0  0  0  0  0  0
  -18.2000  -27.6860   22.7560 C   0  0  0  0  0  0  0  0  0  0  0  0
  -20.7380  -28.1240   23.0080 C   0  0  0  0  0  3  0  0  0  0  0  0
  -20.9310  -26.6980   22.4390 C   0  0  0  0  0  2  0  0  0  0  0  0
  -19.8500  -26.3000   21.4300 C   0  0  0  0  0  2  0  0  0  0  0  0
  -18.4640  -26.3520   22.0780 C   0  0  0  0  0  2  0  0  0  0  0  0
  -19.2660  -28.5260   23.1780 C   0  0  0  0  0  0  0  0  0  0  0  0
  -18.9630  -29.7670   23.7760 C   0  0  0  0  0  3  0  0  0  0  0  0
  -17.6270  -30.1740   23.9540 C   0  0  0  0  0  3  0  0  0  0  0  0
  -16.5760  -29.3350   23.5460 C   0  0  0  0  0  3  0  0  0  0  0  0
  -16.8630  -28.0930   22.9530 C   0  0  0  0  0  3  0  0  0  0  0  0
  -25.9890  -32.3720   23.5640 C   0  0  0  0  0  3  0  0  0  0  0  0
  -26.5810  -31.5720   24.7900 C   0  0  1  0  0  0  0  0  0  0  0  0
  -25.5470  -31.2790   25.9030 C   0  0  0  0  0  1  0  0  0  0  0  0
  -27.1700  -30.2170   24.3360 C   0  0  0  0  0  1  0  0  0  0  0  0
  -27.7490  -32.3660   25.4220 C   0  0  0  0  0  1  0  0  0  0  0  0
  -25.6500  -33.7460   23.9810 N   0  0  0  0  0  0  0  0  0  0  0  0
  -25.9670  -34.8590   23.3050 C   0  0  0  0  0  0  0  0  0  0  0  0
  -26.6340  -34.8380   22.2680 O   0  0  0  0  0  0  0  0  0  0  0  0
  -25.0540  -33.8330   24.7910 H   0  0  0  0  0  0  0  0  0  0  0  0
  -24.2160  -36.6600   23.0960 C   0  0  0  0  0  1  0  0  0  0  0  0
  -25.4680  -36.2090   23.8640 C   0  0  0  0  0  3  0  0  0  0  0  0
  -27.6020  -37.0630   24.7330 C   0  0  0  0  0  1  0  0  0  0  0  0
  -26.4870  -37.2820   23.8160 N   0  0  0  0  0  0  0  0  0  0  0  0
  -26.0700  -38.1840   24.0350 H   0  0  0  0  0  0  0  0  0  0  0  0
  -30.4830  -24.3320   21.2420 C   0  0  0  0  0  2  0  0  0  0  0  0
  -32.3210  -26.0870   20.9780 C   0  0  0  0  0  1  0  0  0  0  0  0
  -31.4920  -24.9950   20.2910 C   0  0  0  0  0  2  0  0  0  0  0  0
  1  4  1  0
  2  1  2  0
  2  6  1  0
  4  3  2  0
  5  3  1  0
  5 89  1  0
  6  5  2  0
  7  4  1  0
  7 11  1  0
  8  7  2  0
 11 10  1  1
 11  9  1  0
 12 11  1  0
 13 18  1  0
 14 15  1  0
 14 13  1  0
 16 15  1  0
 16 23  1  0
 16 17  1  0
 18 12  1  0
 18 17  1  0
 19 12  2  0
 20 21  2  0
 21 40  1  0
 22 21  1  0
 22 25  1  0
 23 20  1  0
 23 24  1  0
 24 22  2  0
 25 26  1  0
 26 27  2  0
 28 31  1  0
 28 27  1  0
 29 28  2  0
 30 29  1  0
 30 25  2  0
 31 32  1  0
 32 33  1  0
 33 34  2  0
 35 34  1  0
 35 39  1  0
 36 35  2  0
 37 32  2  0
 37 36  1  0
 38 37  1  0
 40 41  1  0
 41 44  1  0
 41 43  1  0
 42 40  2  0
 45 46  1  0
 45 20  1  0
 47 45  1  0
 48 50  1  0
 48  6  1  0
 49 60  2  0
 50 55  1  0
 51 59  1  0
 51 61  1  0
 52 58  1  0
 52 54  1  0
 53 59  1  0
 54 53  1  0
 55 54  2  0
 56 57  1  0
 56 50  2  0
 57 52  2  0
 58 51  1  0
 59 49  1  0
 61 63  2  0
 62 61  1  0
 64 62  1  0
 65 74  2  0
 65 70  1  0
 66 62  1  0
 66 70  1  0
 67 66  1  0
 68 69  1  0
 68 67  1  0
 69 65  1  0
 70 71  2  0
 71 72  1  0
 73 72  2  0
 74 73  1  0
 75 49  1  0
 75 80  1  0
 75 76  1  0
 76 79  1  1
 76 77  1  0
 78 76  1  0
 80 83  1  0
 81 85  1  0
 81 80  1  0
 82 81  2  0
 85 84  1  0
 87 85  1  0
 87 88  1  0
 87 86  1  0
 91 90  1  0
 91 89  1  0
M  ISO  4   6 101  11 100  12 100  48 101
M  END
>  <TORSDO>  (66) 
F 20

>  <SCORE>  (66) 
-14.607

>  <name>  (66) 
65

>  <ligand_id>  (66) 
65

>  <original_smiles>  (66) 
[H]c1c([H])c([H])c2c(c1[H])C([H])([H])C([H])([H])C([H])([H])C2([H])N([H])C(=O)C1([H])N(C(=O)C([H])(N([H])C(=O)C([H])(N([H])C([H])([H])[H])C([H])([H])[H])C(C([H])([H])[H])(C([H])([H])[H])C([H])([H])[H])C([H])([H])c2c([H])c(Oc3c([H])c([H])c(C(=O)C(C(=O)N4C([H])([H])C([H])([H])C([H])([H])C([H])(n5nc(-c6c([H])c([H])c(Oc7c([H])c([H])c(F)c([H])c7F)c([H])c6[H])c(C(=O)N([H])[H])c5N([H])[H])C4([H])[H])(C([H])([H])[H])C([H])([H])[H])c([H])c3C([H])([H])C([H])([H])C([H])([H])[H])c([H])c([H])c2C1([H])[H]

>  <smiles>  (66) 
[H]c1c([H])c([H])c2c(c1[H])C([H])([H])C([H])([H])C([H])([H])C2([H])N([H])C(=O)C1([H])N(C(=O)C([H])(N([H])C(=O)C([H])(N([H])C([H])([H])[H])C([H])([H])[H])C(C([H])([H])[H])(C([H])([H])[H])C([H])([H])[H])C([H])([H])c2c([H])c(Oc3c([H])c([H])c(C(=O)C(C(=O)N4C([H])([H])C([H])([H])C([H])([H])C([H])(n5nc(-c6c([H])c([H])c(Oc7c([H])c([H])c(F)c([H])c7F)c([H])c6[H])c(C(=O)N([H])[H])c5N([H])[H])C4([H])[H])(C([H])([H])[H])C([H])([H])[H])c([H])c3C([H])([H])C([H])([H])C([H])([H])[H])c([H])c([H])c2C1([H])[H]

$$$$
66:0:0
     RDKit          3D

 92 96  0  0  1  0  0  0  0  0999 V2000
  -21.0670  -24.6250   23.0640 C   0  0  0  0  0  2  0  0  0  0  0  0
  -21.4630  -27.3430   21.5340 C   0  0  0  0  0  1  0  0  0  0  0  0
  -23.1270  -25.1780   21.3880 C   0  0  0  0  0  3  0  0  0  0  0  0
  -20.3120  -26.0750   22.9800 C   0  0  0  0  0  2  0  0  0  0  0  0
  -22.3540  -24.2220   22.2630 C   0  0  0  0  0  0  0  0  0  0  0  0
  -23.0540  -26.6490   21.0650 C   0  0  0  0  0  3  0  0  0  0  0  0
  -19.5500  -26.0980   25.4860 C   0  0  0  0  0  1  0  0  0  0  0  0
  -19.1230  -25.9650   24.0160 C   0  0  0  0  0  2  0  0  0  0  0  0
  -24.7070  -26.9500   21.2060 O   0  0  0  0  0  0  0  0  0  0  0  0
  -24.6720  -31.9530   23.2000 C   0  0  0  0  0  0  0  0  0  0  0  0
  -25.9910  -27.1290   20.4970 C   0  0  0  0  0  3  0  0  0  0  0  0
  -23.4320  -30.6280   21.5750 C   0  0  0  0  0  3  0  0  0  0  0  0
  -24.7450  -29.2460   19.8410 C   0  0  0  0  0  3  0  0  0  0  0  0
  -25.9670  -30.8050   21.3810 C   0  0  0  0  0  2  0  0  0  0  0  0
  -25.8610  -29.4720   20.6550 C   0  0  0  0  0  3  0  0  0  0  0  0
  -26.6760  -28.3430   20.8730 C   0  0  0  0  0  2  0  0  0  0  0  0
  -25.6770  -27.0950   19.1680 C   0  0  0  0  0  2  0  0  0  0  0  0
  -24.7350  -28.1150   18.9700 C   0  0  0  0  0  2  0  0  0  0  0  0
  -23.5250  -30.0760   20.1100 C   0  0  0  0  0  2  0  0  0  0  0  0
  -24.7110  -31.2040   22.0610 N   0  0  0  0  0  0  0  0  0  0  0  0
  -23.5950  -32.2400   23.7490 O   0  0  0  0  0  0  0  0  0  0  0  0
  -23.0130  -29.6020   22.6480 C   0  0  0  0  0  0  0  0  0  0  0  0
  -21.7530  -29.4960   23.0080 N   0  0  0  0  0  0  0  0  0  0  0  0
  -23.8520  -28.9710   23.2720 O   0  0  0  0  0  0  0  0  0  0  0  0
  -21.0650  -30.1070   22.5930 H   0  0  0  0  0  0  0  0  0  0  0  0
  -18.6350  -28.0170   22.2780 C   0  0  0  0  0  0  0  0  0  0  0  0
  -21.2430  -28.3150   23.7370 C   0  0  0  0  0  2  0  0  0  0  0  0
  -22.3260  -26.6790   23.4050 C   0  0  0  0  0 15  0  0  0  0  0  0
  -20.4990  -25.5270   20.8930 C   0  0  0  0  0 15  0  0  0  0  0  0
  -18.9190  -26.6970   21.1090 C   0  0  0  0  0  1  0  0  0  0  0  0
  -19.6030  -28.6620   23.2760 C   0  0  0  0  0  0  0  0  0  0  0  0
  -19.1170  -29.8380   23.9660 C   0  0  0  0  0  3  0  0  0  0  0  0
  -17.7950  -30.3200   23.9650 C   0  0  0  0  0  3  0  0  0  0  0  0
  -16.8280  -29.5710   23.2870 C   0  0  0  0  0  3  0  0  0  0  0  0
  -17.2510  -28.4700   22.4790 C   0  0  0  0  0  3  0  0  0  0  0  0
  -25.9660  -32.5050   23.8460 C   0  0  0  0  0  3  0  0  0  0  0  0
  -25.6540  -33.8810   24.2480 N   0  0  0  0  0  0  0  0  0  0  0  0
  -25.9210  -34.9600   23.5080 C   0  0  0  0  0  0  0  0  0  0  0  0
  -26.5570  -34.9040   22.4530 O   0  0  0  0  0  0  0  0  0  0  0  0
  -25.0870  -33.9920   25.0760 H   0  0  0  0  0  0  0  0  0  0  0  0
  -24.1520  -36.7320   23.2600 C   0  0  0  0  0  1  0  0  0  0  0  0
  -25.4150  -36.3180   24.0300 C   0  0  0  0  0  3  0  0  0  0  0  0
  -27.5610  -37.1870   24.8450 C   0  0  0  0  0  1  0  0  0  0  0  0
  -26.4290  -37.3890   23.9440 N   0  0  0  0  0  0  0  0  0  0  0  0
  -26.0150  -38.2940   24.1540 H   0  0  0  0  0  0  0  0  0  0  0  0
  -26.4640  -31.6650   25.0830 C   0  0  1  0  0  0  0  0  0  0  0  0
  -25.3720  -31.3810   26.1400 C   0  0  0  0  0  1  0  0  0  0  0  0
  -27.0410  -30.3050   24.6300 C   0  0  0  0  0  1  0  0  0  0  0  0
  -27.6160  -32.4250   25.7810 C   0  0  0  0  0  1  0  0  0  0  0  0
  -22.9340  -22.6630   22.2290 C   0  0  0  0  0  3  0  0  0  0  0  0
  -24.5080  -22.1020   21.8860 C   0  0  0  0  0  3  0  0  0  0  0  0
  -25.0140  -20.4740   21.8050 C   0  0  0  0  0  2  0  0  0  0  0  0
  -26.5620  -19.8540   21.4350 C   0  0  0  0  0  3  0  0  0  0  0  0
  -27.0240  -18.2140   21.3790 C   0  0  0  0  0  3  0  0  0  0  0  0
  -28.5170  -17.5050   20.9290 C   0  0  0  0  0  2  0  0  0  0  0  0
  -29.0700  -15.9590   21.3670 C   0  0  0  0  0  2  0  0  0  0  0  0
  -30.1770  -14.8760   20.6680 C   0  0  0  0  0  0  0  0  0  0  0  0
  -30.4420  -12.6040   19.5080 C   0  0  0  0  0  2  0  0  0  0  0  0
  -29.5110  -12.5640   18.2640 C   0  0  0  0  0  2  0  0  0  0  0  0
  -28.0330  -12.3190   18.6490 C   0  0  0  0  0  2  0  0  0  0  0  0
  -27.6140  -13.1800   19.8670 C   0  0  0  0  0  3  0  0  0  0  0  0
  -28.6200  -12.9710   21.0080 C   0  0  0  0  0  2  0  0  0  0  0  0
  -29.8600  -13.5390   20.5130 N   0  0  0  0  0  0  0  0  0  0  0  0
  -31.3160  -15.1980   20.2700 O   0  0  0  0  0  0  0  0  0  0  0  0
  -25.2400  -13.8050   20.5610 C   0  0  0  0  0  0  0  0  0  0  0  0
  -24.1670  -13.0370   20.9160 C   0  0  0  0  0  0  0  0  0  0  0  0
  -24.6190  -11.6830   20.8740 C   0  0  0  0  0  0  0  0  0  0  0  0
  -26.2680  -12.9110   20.3180 N   0  0  0  0  0  0  0  0  0  0  0  0
  -25.9060  -11.6310   20.5700 N   0  0  0  0  0  0  0  0  0  0  0  0
  -23.8910  -10.4250   21.0460 C   0  0  0  0  0  0  0  0  0  0  0  0
  -24.3520   -9.4190   21.9230 C   0  0  0  0  0  3  0  0  0  0  0  0
  -23.6240   -8.2210   22.0780 C   0  0  0  0  0  3  0  0  0  0  0  0
  -22.4230   -8.0230   21.3540 C   0  0  0  0  0  0  0  0  0  0  0  0
  -21.9830   -9.0200   20.4670 C   0  0  0  0  0  3  0  0  0  0  0  0
  -22.7110  -10.2090   20.3100 C   0  0  0  0  0  3  0  0  0  0  0  0
  -21.6610   -6.8830   21.4230 O   0  0  0  0  0  0  0  0  0  0  0  0
  -21.6830   -6.0720   22.5270 C   0  0  0  0  0  0  0  0  0  0  0  0
  -21.4000   -6.5640   23.8200 C   0  0  0  0  0  3  0  0  0  0  0  0
  -21.3650   -5.6800   24.9170 C   0  0  0  0  0  3  0  0  0  0  0  0
  -21.6030   -4.3060   24.7230 C   0  0  0  0  0  0  0  0  0  0  0  0
  -21.8830   -3.8140   23.4360 C   0  0  0  0  0  3  0  0  0  0  0  0
  -21.9190   -4.6950   22.3410 C   0  0  0  0  0  0  0  0  0  0  0  0
  -22.1660   -4.2150   21.0980 F   0  0  0  0  0  0  0  0  0  0  0  0
  -21.5620   -3.4540   25.7740 F   0  0  0  0  0  0  0  0  0  0  0  0
  -22.7740  -13.5230   21.1840 C   0  0  0  0  0  0  0  0  0  0  0  0
  -22.0380  -12.8270   22.0410 N   0  0  0  0  0  0  0  0  0  0  0  0
  -22.3460  -14.5550   20.6680 O   0  0  0  0  0  0  0  0  0  0  0  0
  -22.3940  -11.9890   22.4770 H   0  0  0  0  0  0  0  0  0  0  0  0
  -21.1030  -13.1390   22.2650 H   0  0  0  0  0  0  0  0  0  0  0  0
  -25.4230  -15.1740   20.3990 N   0  0  0  0  0  0  0  0  0  0  0  0
  -24.6740  -15.8450   20.5300 H   0  0  0  0  0  0  0  0  0  0  0  0
  -26.2870  -15.5990   20.0850 H   0  0  0  0  0  0  0  0  0  0  0  0
  3  5  2  0
  4  1  1  0
  4  8  1  0
  5  1  1  0
  6  9  1  0
  6  3  1  0
  6  2  1  0
  8  7  1  0
 10 21  2  0
 11 16  1  0
 11  9  1  0
 12 20  1  0
 12 22  1  0
 13 18  1  0
 13 19  1  0
 13 15  1  0
 14 20  1  0
 15 16  1  0
 15 14  1  0
 17 11  1  0
 18 17  1  0
 19 12  1  0
 20 10  1  0
 22 23  1  0
 22 24  2  0
 23 27  1  0
 25 23  1  0
 26 35  2  0
 26 31  1  0
 30 26  1  0
 31 27  1  0
 31 32  2  0
 33 32  1  0
 34 33  2  0
 35 34  1  0
 36 10  1  0
 36 37  1  0
 36 46  1  0
 37 40  1  0
 38 42  1  0
 38 37  1  0
 39 38  2  0
 42 41  1  0
 44 42  1  0
 44 45  1  0
 44 43  1  0
 46 49  1  1
 46 47  1  0
 48 46  1  0
 50  5  1  0
 51 50  2  0
 52 51  1  0
 53 52  1  0
 54 53  2  0
 55 56  1  0
 55 54  1  0
 57 56  1  0
 58 63  1  0
 59 60  1  0
 59 58  1  0
 61 60  1  0
 61 68  1  0
 61 62  1  0
 63 57  1  0
 63 62  1  0
 64 57  2  0
 65 66  2  0
 66 85  1  0
 67 66  1  0
 67 70  1  0
 68 65  1  0
 68 69  1  0
 69 67  2  0
 70 71  1  0
 71 72  2  0
 73 76  1  0
 73 72  1  0
 74 73  2  0
 75 74  1  0
 75 70  2  0
 76 77  1  0
 77 78  1  0
 78 79  2  0
 80 79  1  0
 80 84  1  0
 81 80  2  0
 82 77  2  0
 82 81  1  0
 83 82  1  0
 85 86  1  0
 86 89  1  0
 86 88  1  0
 87 85  2  0
 90 91  1  0
 90 65  1  0
 92 90  1  0
M  ISO  4   6 101   9 101  56 100  57 100
M  END
>  <TORSDO>  (67) 
F 24

>  <SCORE>  (67) 
24.067

>  <name>  (67) 
66

>  <ligand_id>  (67) 
66

>  <original_smiles>  (67) 
[H]c1c([H])c([H])c2c(c1[H])C([H])([H])C([H])([H])C([H])([H])C2([H])N([H])C(=O)C1([H])N(C(=O)C([H])(N([H])C(=O)C([H])(N([H])C([H])([H])[H])C([H])([H])[H])C(C([H])([H])[H])(C([H])([H])[H])C([H])([H])[H])C([H])([H])c2c([H])c(Oc3c([H])c(C([H])([H])C([H])([H])[H])c([H])c(C([H])([H])C([H])([H])C([H])([H])C([H])([H])C([H])([H])C([H])([H])C([H])([H])C(=O)N4C([H])([H])C([H])([H])C([H])([H])C([H])(n5nc(-c6c([H])c([H])c(Oc7c([H])c([H])c(F)c([H])c7F)c([H])c6[H])c(C(=O)N([H])[H])c5N([H])[H])C4([H])[H])c3[H])c([H])c([H])c2C1([H])[H]

>  <smiles>  (67) 
[H]c1c([H])c([H])c2c(c1[H])C([H])([H])C([H])([H])C([H])([H])C2([H])N([H])C(=O)C1([H])N(C(=O)C([H])(N([H])C(=O)C([H])(N([H])C([H])([H])[H])C([H])([H])[H])C(C([H])([H])[H])(C([H])([H])[H])C([H])([H])[H])C([H])([H])c2c([H])c(Oc3c([H])c(C([H])([H])C([H])([H])[H])c([H])c(C([H])([H])C([H])([H])C([H])([H])C([H])([H])C([H])([H])C([H])([H])C([H])([H])C(=O)N4C([H])([H])C([H])([H])C([H])([H])C([H])(n5nc(-c6c([H])c([H])c(Oc7c([H])c([H])c(F)c([H])c7F)c([H])c6[H])c(C(=O)N([H])[H])c5N([H])[H])C4([H])[H])c3[H])c([H])c([H])c2C1([H])[H]

$$$$
67:0:0
     RDKit          3D

 93101  0  0  1  0  0  0  0  0999 V2000
  -30.1310  -16.9270   20.2430 C   0  0  0  0  0  0  0  0  0  0  0  0
  -30.8750  -17.3690   21.3800 C   0  0  0  0  0  0  0  0  0  0  0  0
  -29.2660  -18.0880   19.6950 C   0  0  0  0  0  0  0  0  0  0  0  0
  -30.1090  -19.7890   21.2270 C   0  0  0  0  0  0  0  0  0  0  0  0
  -30.9200  -18.7450   21.8020 C   0  0  0  0  0  0  0  0  0  0  0  0
  -29.1680  -19.5540   20.1780 C   0  0  0  0  0  0  0  0  0  0  0  0
  -31.7310  -16.3600   22.1660 C   0  0  0  0  0  1  0  0  0  0  0  0
  -28.3570  -17.7490   18.5250 C   0  0  0  0  0  1  0  0  0  0  0  0
  -30.2530  -21.2180   21.7540 C   0  0  0  0  0  1  0  0  0  0  0  0
  -30.5660  -15.4160   19.6250 C   0  0  0  0  0  0  0  0  0  0  0  0
  -30.3680  -12.9550   18.8190 C   0  0  0  0  0  2  0  0  0  0  0  0
  -29.3630  -12.7970   17.6510 C   0  0  0  0  0  2  0  0  0  0  0  0
  -27.9440  -12.5650   18.1970 C   0  0  0  0  0  2  0  0  0  0  0  0
  -27.6130  -13.5390   19.3550 C   0  0  0  0  0  3  0  0  0  0  0  0
  -28.7480  -13.6760   20.3970 C   0  0  0  0  0  2  0  0  0  0  0  0
  -29.9530  -14.1260   19.6830 N   0  0  0  0  0  0  0  0  0  0  0  0
  -31.6850  -15.3590   19.0960 O   0  0  0  0  0  0  0  0  0  0  0  0
  -25.3460  -14.1540   20.3410 C   0  0  0  0  0  0  0  0  0  0  0  0
  -24.2910  -13.4020   20.7810 C   0  0  0  0  0  0  0  0  0  0  0  0
  -24.6980  -12.0390   20.6610 C   0  0  0  0  0  0  0  0  0  0  0  0
  -26.3240  -13.2500   19.9710 N   0  0  0  0  0  0  0  0  0  0  0  0
  -25.9530  -11.9670   20.2290 N   0  0  0  0  0  0  0  0  0  0  0  0
  -23.9390  -10.7970   20.8780 C   0  0  0  0  0  0  0  0  0  0  0  0
  -24.3970   -9.7940   21.7590 C   0  0  0  0  0  3  0  0  0  0  0  0
  -23.6360   -8.6220   21.9670 C   0  0  0  0  0  3  0  0  0  0  0  0
  -22.4020   -8.4470   21.2960 C   0  0  0  0  0  0  0  0  0  0  0  0
  -21.9640   -9.4380   20.4030 C   0  0  0  0  0  3  0  0  0  0  0  0
  -22.7250  -10.6010   20.1900 C   0  0  0  0  0  3  0  0  0  0  0  0
  -21.6090   -7.3290   21.4160 O   0  0  0  0  0  0  0  0  0  0  0  0
  -21.6230   -6.5560   22.5480 C   0  0  0  0  0  0  0  0  0  0  0  0
  -21.3200   -7.0900   23.8200 C   0  0  0  0  0  3  0  0  0  0  0  0
  -21.2750   -6.2460   24.9470 C   0  0  0  0  0  3  0  0  0  0  0  0
  -21.5240   -4.8670   24.8060 C   0  0  0  0  0  0  0  0  0  0  0  0
  -21.8190   -4.3320   23.5400 C   0  0  0  0  0  3  0  0  0  0  0  0
  -21.8660   -5.1730   22.4150 C   0  0  0  0  0  0  0  0  0  0  0  0
  -22.1290   -4.6480   21.1930 F   0  0  0  0  0  0  0  0  0  0  0  0
  -21.4740   -4.0550   25.8870 F   0  0  0  0  0  0  0  0  0  0  0  0
  -22.9470  -13.9210   21.1960 C   0  0  0  0  0  0  0  0  0  0  0  0
  -22.2820  -13.2310   22.1150 N   0  0  0  0  0  0  0  0  0  0  0  0
  -22.5010  -14.9720   20.7400 O   0  0  0  0  0  0  0  0  0  0  0  0
  -22.6620  -12.3800   22.5050 H   0  0  0  0  0  0  0  0  0  0  0  0
  -21.3830  -13.5600   22.4340 H   0  0  0  0  0  0  0  0  0  0  0  0
  -25.5460  -15.5240   20.2010 N   0  0  0  0  0  0  0  0  0  0  0  0
  -24.8290  -16.2010   20.4330 H   0  0  0  0  0  0  0  0  0  0  0  0
  -26.3940  -15.9520   19.8500 H   0  0  0  0  0  0  0  0  0  0  0  0
  -31.9870  -19.1410   22.8530 C   0  0  0  0  0  2  0  0  0  0  0  0
  -33.2260  -19.7510   22.1620 C   0  0  0  0  0  2  0  0  0  0  0  0
  -35.3000  -21.2420   22.3080 C   0  0  0  0  0  1  0  0  0  0  0  0
  -34.0830  -20.6670   23.0530 C   0  0  0  0  0  2  0  0  0  0  0  0
  -28.1240  -20.8760   19.6620 C   0  0  0  0  0  2  0  0  0  0  0  0
  -28.2450  -22.6900   19.5840 C   0  0  0  0  0  3  0  0  0  0  0  0
  -27.1570  -24.0310   19.0750 C   0  0  0  0  0  3  0  0  0  0  0  0
  -27.3430  -25.6350   18.7470 O   0  0  0  0  0  0  0  0  0  0  0  0
  -24.4610  -31.2920   22.7760 C   0  0  0  0  0  0  0  0  0  0  0  0
  -26.3680  -26.7490   18.9090 C   0  0  0  0  0  0  0  0  0  0  0  0
  -22.9880  -30.1210   21.1880 C   0  0  0  0  0  3  0  0  0  0  0  0
  -24.1530  -28.6580   19.4010 C   0  0  0  0  0  0  0  0  0  0  0  0
  -25.5100  -30.2980   20.6840 C   0  0  0  0  0  2  0  0  0  0  0  0
  -25.4320  -28.9710   19.8770 C   0  0  0  0  0  0  0  0  0  0  0  0
  -26.5290  -28.0390   19.6130 C   0  0  0  0  0  3  0  0  0  0  0  0
  -25.0620  -26.5940   18.3900 C   0  0  0  0  0  3  0  0  0  0  0  0
  -23.9900  -27.4900   18.6390 C   0  0  0  0  0  3  0  0  0  0  0  0
  -22.9880  -29.5890   19.7270 C   0  0  0  0  0  2  0  0  0  0  0  0
  -24.3500  -30.5890   21.6020 N   0  0  0  0  0  0  0  0  0  0  0  0
  -23.4720  -31.5420   23.4830 O   0  0  0  0  0  0  0  0  0  0  0  0
  -22.4060  -29.0360   22.1320 C   0  0  0  0  0  0  0  0  0  0  0  0
  -21.0760  -28.8310   22.1030 N   0  0  0  0  0  0  0  0  0  0  0  0
  -23.1560  -28.3780   22.8560 O   0  0  0  0  0  0  0  0  0  0  0  0
  -20.5160  -29.4190   21.5000 H   0  0  0  0  0  0  0  0  0  0  0  0
  -17.8260  -27.3030   22.6130 C   0  0  0  0  0  0  0  0  0  0  0  0
  -20.3500  -27.8120   22.8690 C   0  0  0  0  0  3  0  0  0  0  0  0
  -20.5840  -26.3990   22.2850 C   0  0  0  0  0  2  0  0  0  0  0  0
  -19.5160  -25.9810   21.2710 C   0  0  0  0  0  2  0  0  0  0  0  0
  -18.1290  -25.9850   21.9210 C   0  0  0  0  0  2  0  0  0  0  0  0
  -18.8680  -28.1680   23.0460 C   0  0  0  0  0  0  0  0  0  0  0  0
  -18.5290  -29.3940   23.6570 C   0  0  0  0  0  3  0  0  0  0  0  0
  -17.1830  -29.7620   23.8380 C   0  0  0  0  0  3  0  0  0  0  0  0
  -16.1570  -28.8960   23.4190 C   0  0  0  0  0  3  0  0  0  0  0  0
  -16.4790  -27.6690   22.8130 C   0  0  0  0  0  3  0  0  0  0  0  0
  -25.8340  -31.8330   23.2790 C   0  0  0  0  0  3  0  0  0  0  0  0
  -25.5980  -33.1250   23.9460 N   0  0  0  0  0  0  0  0  0  0  0  0
  -25.9790  -34.3170   23.4660 C   0  0  0  0  0  0  0  0  0  0  0  0
  -26.6290  -34.4380   22.4250 O   0  0  0  0  0  0  0  0  0  0  0  0
  -25.0230  -33.1060   24.7760 H   0  0  0  0  0  0  0  0  0  0  0  0
  -24.3690  -36.2470   23.6010 C   0  0  0  0  0  1  0  0  0  0  0  0
  -25.5800  -35.5720   24.2670 C   0  0  0  0  0  3  0  0  0  0  0  0
  -27.7610  -36.0920   25.2690 C   0  0  0  0  0  1  0  0  0  0  0  0
  -26.6760  -36.5560   24.4090 N   0  0  0  0  0  0  0  0  0  0  0  0
  -26.3260  -37.4330   24.7850 H   0  0  0  0  0  0  0  0  0  0  0  0
  -26.5670  -30.8400   24.2660 C   0  0  1  0  0  0  0  0  0  0  0  0
  -25.6850  -30.3660   25.4450 C   0  0  0  0  0  1  0  0  0  0  0  0
  -27.0610  -29.5820   23.5180 C   0  0  0  0  0  1  0  0  0  0  0  0
  -27.8270  -31.5200   24.8530 C   0  0  0  0  0  1  0  0  0  0  0  0
  1  2  1  0
  2  5  2  0
  2  7  1  0
  3  6  1  0
  3  1  2  0
  4  9  1  0
  4  5  1  0
  5 46  1  0
  6  4  2  0
  8  3  1  0
 10 16  1  0
 10  1  1  0
 11 16  1  0
 12 13  1  0
 12 11  1  0
 14 13  1  0
 14 21  1  0
 14 15  1  0
 16 15  1  0
 17 10  2  0
 18 19  2  0
 19 38  1  0
 20 19  1  0
 20 23  1  0
 21 22  1  0
 21 18  1  0
 22 20  2  0
 23 24  1  0
 24 25  2  0
 26 29  1  0
 26 25  1  0
 27 26  2  0
 28 27  1  0
 28 23  2  0
 29 30  1  0
 30 31  1  0
 31 32  2  0
 33 32  1  0
 33 37  1  0
 34 33  2  0
 35 30  2  0
 35 34  1  0
 36 35  1  0
 38 39  1  0
 39 42  1  0
 39 41  1  0
 40 38  2  0
 43 18  1  0
 43 44  1  0
 45 43  1  0
 47 46  1  0
 47 49  1  0
 48 49  1  0
 50  6  1  0
 51 50  1  0
 52 51  2  0
 53 55  1  0
 53 52  1  0
 54 65  2  0
 55 60  1  0
 56 64  1  0
 56 66  1  0
 57 63  1  0
 57 59  1  0
 58 64  1  0
 59 58  1  0
 60 59  2  0
 61 62  1  0
 61 55  2  0
 62 57  2  0
 63 56  1  0
 64 54  1  0
 66 68  2  0
 67 66  1  0
 69 67  1  0
 70 79  2  0
 70 75  1  0
 71 67  1  0
 71 75  1  0
 72 71  1  0
 73 74  1  0
 73 72  1  0
 74 70  1  0
 75 76  2  0
 76 77  1  0
 78 77  2  0
 79 78  1  0
 80 54  1  0
 80 81  1  0
 80 90  1  0
 81 84  1  0
 82 81  1  0
 82 86  1  0
 83 82  2  0
 86 85  1  0
 86 88  1  0
 88 89  1  0
 88 87  1  0
 90 93  1  1
 90 91  1  0
 92 90  1  0
M  ISO  4   1 100  10 100  52 101  53 101
M  END
>  <TORSDO>  (68) 
F 22

>  <SCORE>  (68) 
-11.727

>  <name>  (68) 
67

>  <ligand_id>  (68) 
67

>  <original_smiles>  (68) 
[H]c1c([H])c([H])c2c(c1[H])C([H])([H])C([H])([H])C([H])([H])C2([H])N([H])C(=O)C1([H])N(C(=O)C([H])(N([H])C(=O)C([H])(N([H])C([H])([H])[H])C([H])([H])[H])C(C([H])([H])[H])(C([H])([H])[H])C([H])([H])[H])C([H])([H])c2c([H])c(OC([H])([H])C([H])([H])C([H])([H])c3c(C([H])([H])[H])c(C(=O)N4C([H])([H])C([H])([H])C([H])([H])C([H])(n5nc(-c6c([H])c([H])c(Oc7c([H])c([H])c(F)c([H])c7F)c([H])c6[H])c(C(=O)N([H])[H])c5N([H])[H])C4([H])[H])c(C([H])([H])[H])c(C([H])([H])C([H])([H])C([H])([H])C([H])([H])[H])c3C([H])([H])[H])c([H])c([H])c2C1([H])[H]

>  <smiles>  (68) 
[H]c1c([H])c([H])c2c(c1[H])C([H])([H])C([H])([H])C([H])([H])C2([H])N([H])C(=O)C1([H])N(C(=O)C([H])(N([H])C(=O)C([H])(N([H])C([H])([H])[H])C([H])([H])[H])C(C([H])([H])[H])(C([H])([H])[H])C([H])([H])[H])C([H])([H])c2c([H])c(OC([H])([H])C([H])([H])C([H])([H])c3c(C([H])([H])[H])c(C(=O)N4C([H])([H])C([H])([H])C([H])([H])C([H])(n5nc(-c6c([H])c([H])c(Oc7c([H])c([H])c(F)c([H])c7F)c([H])c6[H])c(C(=O)N([H])[H])c5N([H])[H])C4([H])[H])c(C([H])([H])[H])c(C([H])([H])C([H])([H])C([H])([H])C([H])([H])[H])c3C([H])([H])[H])c([H])c([H])c2C1([H])[H]

$$$$
68:0:0
     RDKit          3D

 95103  0  0  1  0  0  0  0  0999 V2000
  -28.8470  -26.2260   22.2860 C   0  0  0  0  0  3  0  0  0  0  0  0
  -29.2290  -25.2630   23.2390 C   0  0  0  0  0  0  0  0  0  0  0  0
  -29.4550  -23.9210   22.8470 C   0  0  0  0  0  0  0  0  0  0  0  0
  -29.2310  -23.5450   21.4890 C   0  0  0  0  0  0  0  0  0  0  0  0
  -28.8530  -24.5330   20.5380 C   0  0  0  0  0  0  0  0  0  0  0  0
  -28.6680  -25.8750   20.9380 C   0  0  0  0  0  0  0  0  0  0  0  0
  -29.4040  -25.7070   24.6840 C   0  0  0  0  0  1  0  0  0  0  0  0
  -29.9340  -22.9230   23.9020 C   0  0  0  0  0  1  0  0  0  0  0  0
  -28.6900  -24.2030   19.0560 C   0  0  0  0  0  1  0  0  0  0  0  0
  -28.3940  -26.8340   19.9930 O   0  0  0  0  0  0  0  0  0  0  0  0
  -24.5210  -31.8810   23.1570 C   0  0  0  0  0  0  0  0  0  0  0  0
  -27.2020  -27.5090   20.0650 C   0  0  0  0  0  0  0  0  0  0  0  0
  -23.3210  -30.4820   21.5030 C   0  0  0  0  0  3  0  0  0  0  0  0
  -24.7870  -28.9610   20.0770 C   0  0  0  0  0  0  0  0  0  0  0  0
  -25.8380  -30.8720   21.3000 C   0  0  0  0  0  2  0  0  0  0  0  0
  -25.9360  -29.5020   20.6680 C   0  0  0  0  0  0  0  0  0  0  0  0
  -27.1480  -28.7830   20.6620 C   0  0  0  0  0  3  0  0  0  0  0  0
  -26.0440  -26.9640   19.4770 C   0  0  0  0  0  3  0  0  0  0  0  0
  -24.8330  -27.6860   19.4800 C   0  0  0  0  0  3  0  0  0  0  0  0
  -23.5360  -29.8060   20.1220 C   0  0  0  0  0  2  0  0  0  0  0  0
  -24.5800  -31.0930   22.0470 N   0  0  0  0  0  0  0  0  0  0  0  0
  -23.4380  -32.1410   23.7010 O   0  0  0  0  0  0  0  0  0  0  0  0
  -22.6760  -29.4550   22.4560 C   0  0  0  0  0  0  0  0  0  0  0  0
  -21.3540  -29.2640   22.3260 N   0  0  0  0  0  0  0  0  0  0  0  0
  -23.3630  -28.8280   23.2690 O   0  0  0  0  0  0  0  0  0  0  0  0
  -20.8620  -29.8250   21.6430 H   0  0  0  0  0  0  0  0  0  0  0  0
  -17.9860  -28.0470   22.8010 C   0  0  0  0  0  0  0  0  0  0  0  0
  -20.5400  -28.3180   23.0860 C   0  0  0  0  0  3  0  0  0  0  0  0
  -20.6540  -26.8920   22.4980 C   0  0  0  0  0  2  0  0  0  0  0  0
  -19.5570  -26.5700   21.4780 C   0  0  0  0  0  2  0  0  0  0  0  0
  -18.1720  -26.7030   22.1180 C   0  0  0  0  0  2  0  0  0  0  0  0
  -19.0970  -28.8140   23.2420 C   0  0  0  0  0  0  0  0  0  0  0  0
  -18.8690  -30.0720   23.8390 C   0  0  0  0  0  3  0  0  0  0  0  0
  -17.5600  -30.5650   24.0010 C   0  0  0  0  0  3  0  0  0  0  0  0
  -16.4640  -29.7970   23.5760 C   0  0  0  0  0  3  0  0  0  0  0  0
  -16.6770  -28.5400   22.9840 C   0  0  0  0  0  3  0  0  0  0  0  0
  -25.8060  -32.5100   23.7860 C   0  0  0  0  0  3  0  0  0  0  0  0
  -25.4900  -33.9010   24.1350 N   0  0  0  0  0  0  0  0  0  0  0  0
  -25.8250  -34.9650   23.3910 C   0  0  0  0  0  0  0  0  0  0  0  0
  -26.5000  -34.8780   22.3610 O   0  0  0  0  0  0  0  0  0  0  0  0
  -24.8950  -34.0440   24.9380 H   0  0  0  0  0  0  0  0  0  0  0  0
  -24.0960  -36.7570   23.0410 C   0  0  0  0  0  1  0  0  0  0  0  0
  -25.3300  -36.3450   23.8610 C   0  0  0  0  0  3  0  0  0  0  0  0
  -27.4560  -37.2200   24.7240 C   0  0  0  0  0  1  0  0  0  0  0  0
  -26.3630  -37.4010   23.7720 N   0  0  0  0  0  0  0  0  0  0  0  0
  -25.9540  -38.3190   23.9290 H   0  0  0  0  0  0  0  0  0  0  0  0
  -26.3350  -31.7190   25.0440 C   0  0  1  0  0  0  0  0  0  0  0  0
  -25.2480  -31.4490   26.1110 C   0  0  0  0  0  1  0  0  0  0  0  0
  -26.9300  -30.3570   24.6180 C   0  0  0  0  0  1  0  0  0  0  0  0
  -27.4810  -32.5120   25.7170 C   0  0  0  0  0  1  0  0  0  0  0  0
  -29.4180  -22.1010   21.0130 C   0  0  0  0  0  2  0  0  0  0  0  0
  -30.7570  -21.9290   20.2680 C   0  0  0  0  0  2  0  0  0  0  0  0
  -30.6720  -21.1620   18.9360 C   0  0  0  0  0  2  0  0  0  0  0  0
  -30.1230  -19.7280   19.0160 C   0  0  0  0  0  2  0  0  0  0  0  0
  -30.5710  -18.9340   20.2510 C   0  0  0  0  0  2  0  0  0  0  0  0
  -30.2640  -17.4480   20.1070 C   0  0  0  0  0  2  0  0  0  0  0  0
  -30.3090  -16.6840   21.4460 C   0  0  0  0  0  2  0  0  0  0  0  0
  -30.7270  -14.4040   20.4970 C   0  0  0  0  0  0  0  0  0  0  0  0
  -30.4280  -12.3370   19.1880 C   0  0  0  0  0  2  0  0  0  0  0  0
  -29.4760  -12.5950   18.0020 C   0  0  0  0  0  2  0  0  0  0  0  0
  -28.0010  -12.4640   18.4390 C   0  0  0  0  0  2  0  0  0  0  0  0
  -27.6830  -13.2610   19.7330 C   0  0  0  0  0  3  0  0  0  0  0  0
  -28.7250  -12.9250   20.8230 C   0  0  0  0  0  2  0  0  0  0  0  0
  -30.0600  -13.2460   20.2820 N   0  0  0  0  0  0  0  0  0  0  0  0
  -31.8120  -14.6860   19.9730 O   0  0  0  0  0  0  0  0  0  0  0  0
  -30.0420  -15.2690   21.2510 N   0  0  0  0  0  0  0  0  0  0  0  0
  -29.1730  -14.9100   21.6240 H   0  0  0  0  0  0  0  0  0  0  0  0
  -25.2740  -13.8990   20.3970 C   0  0  0  0  0  0  0  0  0  0  0  0
  -24.2010  -13.1380   20.7690 C   0  0  0  0  0  0  0  0  0  0  0  0
  -24.6570  -11.7840   20.7660 C   0  0  0  0  0  0  0  0  0  0  0  0
  -26.3200  -13.0090   20.1950 N   0  0  0  0  0  0  0  0  0  0  0  0
  -25.9480  -11.7330   20.4690 N   0  0  0  0  0  0  0  0  0  0  0  0
  -23.9290  -10.5280   20.9730 C   0  0  0  0  0  0  0  0  0  0  0  0
  -24.3680   -9.5700   21.9130 C   0  0  0  0  0  3  0  0  0  0  0  0
  -23.6410   -8.3770   22.1100 C   0  0  0  0  0  3  0  0  0  0  0  0
  -22.4660   -8.1300   21.3620 C   0  0  0  0  0  0  0  0  0  0  0  0
  -22.0470   -9.0770   20.4110 C   0  0  0  0  0  3  0  0  0  0  0  0
  -22.7730  -10.2630   20.2130 C   0  0  0  0  0  3  0  0  0  0  0  0
  -21.7090   -6.9880   21.4660 O   0  0  0  0  0  0  0  0  0  0  0  0
  -21.6790   -6.2480   22.6210 C   0  0  0  0  0  0  0  0  0  0  0  0
  -21.2850   -6.8090   23.8570 C   0  0  0  0  0  3  0  0  0  0  0  0
  -21.1960   -5.9950   25.0040 C   0  0  0  0  0  3  0  0  0  0  0  0
  -21.4960   -4.6220   24.9180 C   0  0  0  0  0  0  0  0  0  0  0  0
  -21.8870   -4.0610   23.6900 C   0  0  0  0  0  3  0  0  0  0  0  0
  -21.9770   -4.8720   22.5450 C   0  0  0  0  0  0  0  0  0  0  0  0
  -22.3300   -4.3210   21.3590 F   0  0  0  0  0  0  0  0  0  0  0  0
  -21.4060   -3.8380   26.0180 F   0  0  0  0  0  0  0  0  0  0  0  0
  -22.8040  -13.6220   21.0250 C   0  0  0  0  0  0  0  0  0  0  0  0
  -22.0710  -12.9430   21.8980 N   0  0  0  0  0  0  0  0  0  0  0  0
  -22.3700  -14.6410   20.4870 O   0  0  0  0  0  0  0  0  0  0  0  0
  -22.4370  -12.1240   22.3610 H   0  0  0  0  0  0  0  0  0  0  0  0
  -21.1310  -13.2470   22.1100 H   0  0  0  0  0  0  0  0  0  0  0  0
  -25.4460  -15.2660   20.1990 N   0  0  0  0  0  0  0  0  0  0  0  0
  -24.6810  -15.9260   20.2910 H   0  0  0  0  0  0  0  0  0  0  0  0
  -26.3000  -15.6980   19.8650 H   0  0  0  0  0  0  0  0  0  0  0  0
  1  2  1  0
  2  7  1  0
  3  2  2  0
  3  8  1  0
  4  3  1  0
  5  6  1  0
  5  4  2  0
  6  1  2  0
  9  5  1  0
 10 12  1  0
 10  6  1  0
 11 22  2  0
 12 17  1  0
 13 21  1  0
 13 23  1  0
 14 20  1  0
 14 16  1  0
 15 21  1  0
 16 15  1  0
 17 16  2  0
 18 19  1  0
 18 12  2  0
 19 14  2  0
 20 13  1  0
 21 11  1  0
 23 25  2  0
 24 23  1  0
 26 24  1  0
 27 36  2  0
 27 32  1  0
 28 24  1  0
 28 32  1  0
 29 28  1  0
 30 31  1  0
 30 29  1  0
 31 27  1  0
 32 33  2  0
 33 34  1  0
 35 34  2  0
 36 35  1  0
 37 11  1  0
 37 38  1  0
 37 47  1  0
 38 41  1  0
 39 43  1  0
 39 38  1  0
 40 39  2  0
 43 42  1  0
 45 43  1  0
 45 46  1  0
 45 44  1  0
 47 50  1  1
 47 48  1  0
 49 47  1  0
 51  4  1  0
 52 51  1  0
 53 54  1  0
 53 52  1  0
 54 55  1  0
 56 55  1  0
 56 57  1  0
 58 66  1  0
 59 64  1  0
 60 61  1  0
 60 59  1  0
 62 61  1  0
 62 71  1  0
 62 63  1  0
 64 58  1  0
 64 63  1  0
 65 58  2  0
 66 57  1  0
 66 67  1  0
 68 69  2  0
 69 88  1  0
 70 69  1  0
 70 73  1  0
 71 68  1  0
 71 72  1  0
 72 70  2  0
 73 74  1  0
 74 75  2  0
 76 79  1  0
 76 75  1  0
 77 76  2  0
 78 77  1  0
 78 73  2  0
 79 80  1  0
 80 81  1  0
 81 82  2  0
 83 82  1  0
 83 87  1  0
 84 83  2  0
 85 80  2  0
 85 84  1  0
 86 85  1  0
 88 89  1  0
 89 92  1  0
 89 91  1  0
 90 88  2  0
 93 94  1  0
 93 68  1  0
 95 93  1  0
M  ISO  4   6 101  10 101  58 100  66 100
M  END
>  <TORSDO>  (69) 
F 23

>  <SCORE>  (69) 
-12.371

>  <name>  (69) 
68

>  <ligand_id>  (69) 
68

>  <original_smiles>  (69) 
[H]c1c([H])c([H])c2c(c1[H])C([H])([H])C([H])([H])C([H])([H])C2([H])N([H])C(=O)C1([H])N(C(=O)C([H])(N([H])C(=O)C([H])(N([H])C([H])([H])[H])C([H])([H])[H])C(C([H])([H])[H])(C([H])([H])[H])C([H])([H])[H])C([H])([H])c2c([H])c(Oc3c([H])c(C([H])([H])[H])c(C([H])([H])[H])c(C([H])([H])C([H])([H])C([H])([H])C([H])([H])C([H])([H])C([H])([H])C([H])([H])N([H])C(=O)N4C([H])([H])C([H])([H])C([H])([H])C([H])(n5nc(-c6c([H])c([H])c(Oc7c([H])c([H])c(F)c([H])c7F)c([H])c6[H])c(C(=O)N([H])[H])c5N([H])[H])C4([H])[H])c3C([H])([H])[H])c([H])c([H])c2C1([H])[H]

>  <smiles>  (69) 
[H]c1c([H])c([H])c2c(c1[H])C([H])([H])C([H])([H])C([H])([H])C2([H])N([H])C(=O)C1([H])N(C(=O)C([H])(N([H])C(=O)C([H])(N([H])C([H])([H])[H])C([H])([H])[H])C(C([H])([H])[H])(C([H])([H])[H])C([H])([H])[H])C([H])([H])c2c([H])c(Oc3c([H])c(C([H])([H])[H])c(C([H])([H])[H])c(C([H])([H])C([H])([H])C([H])([H])C([H])([H])C([H])([H])C([H])([H])C([H])([H])N([H])C(=O)N4C([H])([H])C([H])([H])C([H])([H])C([H])(n5nc(-c6c([H])c([H])c(Oc7c([H])c([H])c(F)c([H])c7F)c([H])c6[H])c(C(=O)N([H])[H])c5N([H])[H])C4([H])[H])c3C([H])([H])[H])c([H])c([H])c2C1([H])[H]

$$$$
69:0:0
     RDKit          3D

 97105  0  0  1  0  0  0  0  0999 V2000
  -27.7660  -23.4370   17.9820 C   0  0  0  0  0  0  0  0  0  0  0  0
  -28.1520  -22.3490   18.8200 C   0  0  0  0  0  0  0  0  0  0  0  0
  -29.0390  -22.5490   19.9170 C   0  0  0  0  0  0  0  0  0  0  0  0
  -28.0540  -24.7870   18.3210 C   0  0  0  0  0  0  0  0  0  0  0  0
  -29.1210  -23.9750   20.3420 C   0  0  0  0  0  0  0  0  0  0  0  0
  -28.5350  -25.1320   19.6120 C   0  0  0  0  0  0  0  0  0  0  0  0
  -26.9820  -23.1840   16.6870 C   0  0  0  0  0  1  0  0  0  0  0  0
  -27.8300  -25.8700   17.2630 C   0  0  0  0  0  1  0  0  0  0  0  0
  -29.8970  -24.2740   21.6080 C   0  0  0  0  0  1  0  0  0  0  0  0
  -28.5520  -26.5520   19.9930 O   0  0  0  0  0  0  0  0  0  0  0  0
  -24.7710  -31.9660   23.2810 C   0  0  0  0  0  0  0  0  0  0  0  0
  -27.4240  -27.4570   20.0290 C   0  0  0  0  0  0  0  0  0  0  0  0
  -23.5770  -30.6070   21.6080 C   0  0  0  0  0  3  0  0  0  0  0  0
  -25.0380  -29.1220   20.1140 C   0  0  0  0  0  0  0  0  0  0  0  0
  -26.1190  -30.9520   21.4040 C   0  0  0  0  0  2  0  0  0  0  0  0
  -26.2200  -29.5880   20.7040 C   0  0  0  0  0  0  0  0  0  0  0  0
  -27.4130  -28.7770   20.6370 C   0  0  0  0  0  3  0  0  0  0  0  0
  -26.1860  -27.0640   19.4730 C   0  0  0  0  0  3  0  0  0  0  0  0
  -25.0300  -27.8710   19.4850 C   0  0  0  0  0  3  0  0  0  0  0  0
  -23.7940  -29.9890   20.2030 C   0  0  0  0  0  2  0  0  0  0  0  0
  -24.8440  -31.1930   22.1550 N   0  0  0  0  0  0  0  0  0  0  0  0
  -23.6880  -32.2030   23.8370 O   0  0  0  0  0  0  0  0  0  0  0  0
  -22.9380  -29.5470   22.5410 C   0  0  0  0  0  0  0  0  0  0  0  0
  -21.6130  -29.3450   22.4240 N   0  0  0  0  0  0  0  0  0  0  0  0
  -23.6350  -28.9080   23.3330 O   0  0  0  0  0  0  0  0  0  0  0  0
  -21.1010  -29.9170   21.7650 H   0  0  0  0  0  0  0  0  0  0  0  0
  -18.2770  -28.0150   22.8950 C   0  0  0  0  0  0  0  0  0  0  0  0
  -20.8250  -28.3610   23.1730 C   0  0  0  0  0  3  0  0  0  0  0  0
  -20.9770  -26.9460   22.5650 C   0  0  0  0  0  2  0  0  0  0  0  0
  -19.8890  -26.6080   21.5420 C   0  0  0  0  0  2  0  0  0  0  0  0
  -18.5020  -26.6890   22.1880 C   0  0  0  0  0  2  0  0  0  0  0  0
  -19.3680  -28.8070   23.3440 C   0  0  0  0  0  0  0  0  0  0  0  0
  -19.1010  -30.0440   23.9680 C   0  0  0  0  0  3  0  0  0  0  0  0
  -17.7780  -30.4920   24.1470 C   0  0  0  0  0  3  0  0  0  0  0  0
  -16.7030  -29.6980   23.7110 C   0  0  0  0  0  3  0  0  0  0  0  0
  -16.9530  -28.4620   23.0900 C   0  0  0  0  0  3  0  0  0  0  0  0
  -26.0450  -32.6090   23.9090 C   0  0  0  0  0  3  0  0  0  0  0  0
  -25.6900  -33.9680   24.3490 N   0  0  0  0  0  0  0  0  0  0  0  0
  -25.9850  -35.0900   23.6780 C   0  0  0  0  0  0  0  0  0  0  0  0
  -26.6530  -35.0900   22.6410 O   0  0  0  0  0  0  0  0  0  0  0  0
  -25.0940  -34.0390   25.1610 H   0  0  0  0  0  0  0  0  0  0  0  0
  -24.2080  -36.8610   23.4710 C   0  0  0  0  0  1  0  0  0  0  0  0
  -25.4620  -36.4240   24.2460 C   0  0  0  0  0  3  0  0  0  0  0  0
  -27.5800  -37.2940   25.1370 C   0  0  0  0  0  1  0  0  0  0  0  0
  -26.4640  -37.5120   24.2190 N   0  0  0  0  0  0  0  0  0  0  0  0
  -26.0340  -38.4030   24.4500 H   0  0  0  0  0  0  0  0  0  0  0  0
  -26.6250  -31.7750   25.1160 C   0  0  1  0  0  0  0  0  0  0  0  0
  -25.5760  -31.4290   26.1990 C   0  0  0  0  0  1  0  0  0  0  0  0
  -27.2380  -30.4470   24.6190 C   0  0  0  0  0  1  0  0  0  0  0  0
  -27.7700  -32.5630   25.7960 C   0  0  0  0  0  1  0  0  0  0  0  0
  -27.4870  -20.9920   18.6100 C   0  0  0  0  0  2  0  0  0  0  0  0
  -28.3020  -19.9060   17.8820 C   0  0  0  0  0  2  0  0  0  0  0  0
  -27.7140  -18.5290   18.2310 C   0  0  0  0  0  2  0  0  0  0  0  0
  -28.0230  -16.0330   18.4570 C   0  0  0  0  0  1  0  0  0  0  0  0
  -28.5940  -17.3290   17.8630 C   0  0  0  0  0  2  0  0  0  0  0  0
  -29.9960  -21.2900   20.4330 C   0  0  0  0  0  2  0  0  0  0  0  0
  -29.6280  -19.6880   20.7990 C   0  0  0  0  0  3  0  0  0  0  0  0
  -30.6470  -18.3480   20.6670 C   0  0  0  0  0  3  0  0  0  0  0  0
  -30.5550  -16.8540   22.7550 C   0  0  0  0  0  1  0  0  0  0  0  0
  -28.7400  -16.7640   21.0690 C   0  0  0  0  0  1  0  0  0  0  0  0
  -30.2670  -16.8060   21.2400 C   0  0  1  0  0  0  0  0  0  0  0  0
  -31.0080  -15.3800   20.7170 C   0  0  0  0  0  0  0  0  0  0  0  0
  -30.9490  -13.0680   19.6260 C   0  0  0  0  0  2  0  0  0  0  0  0
  -30.0490  -13.0600   18.3640 C   0  0  0  0  0  2  0  0  0  0  0  0
  -28.5670  -12.8300   18.7350 C   0  0  0  0  0  2  0  0  0  0  0  0
  -28.1270  -13.7020   19.9360 C   0  0  0  0  0  3  0  0  0  0  0  0
  -29.1510  -13.6090   21.0940 C   0  0  0  0  0  2  0  0  0  0  0  0
  -30.4340  -14.1060   20.5740 N   0  0  0  0  0  0  0  0  0  0  0  0
  -32.1960  -15.4550   20.3780 O   0  0  0  0  0  0  0  0  0  0  0  0
  -25.7040  -14.2990   20.5550 C   0  0  0  0  0  0  0  0  0  0  0  0
  -24.6250  -13.5250   20.8770 C   0  0  0  0  0  0  0  0  0  0  0  0
  -25.0880  -12.1770   20.8550 C   0  0  0  0  0  0  0  0  0  0  0  0
  -26.7620  -13.4190   20.3670 N   0  0  0  0  0  0  0  0  0  0  0  0
  -26.3930  -12.1390   20.6070 N   0  0  0  0  0  0  0  0  0  0  0  0
  -24.3500  -10.9160   20.9950 C   0  0  0  0  0  0  0  0  0  0  0  0
  -24.7310   -9.9340   21.9350 C   0  0  0  0  0  3  0  0  0  0  0  0
  -23.9910   -8.7390   22.0620 C   0  0  0  0  0  3  0  0  0  0  0  0
  -22.8540   -8.5190   21.2480 C   0  0  0  0  0  0  0  0  0  0  0  0
  -22.4940   -9.4890   20.2970 C   0  0  0  0  0  3  0  0  0  0  0  0
  -23.2350  -10.6760   20.1670 C   0  0  0  0  0  3  0  0  0  0  0  0
  -22.0890   -7.3800   21.2850 O   0  0  0  0  0  0  0  0  0  0  0  0
  -21.9560   -6.6410   22.4330 C   0  0  0  0  0  0  0  0  0  0  0  0
  -21.4830   -7.2100   23.6370 C   0  0  0  0  0  3  0  0  0  0  0  0
  -21.3000   -6.3980   24.7740 C   0  0  0  0  0  3  0  0  0  0  0  0
  -21.5760   -5.0190   24.7070 C   0  0  0  0  0  0  0  0  0  0  0  0
  -22.0410   -4.4510   23.5080 C   0  0  0  0  0  3  0  0  0  0  0  0
  -22.2270   -5.2600   22.3740 C   0  0  0  0  0  0  0  0  0  0  0  0
  -22.6550   -4.7050   21.2130 F   0  0  0  0  0  0  0  0  0  0  0  0
  -21.3910   -4.2350   25.7950 F   0  0  0  0  0  0  0  0  0  0  0  0
  -23.2200  -14.0090   21.0910 C   0  0  0  0  0  0  0  0  0  0  0  0
  -22.4530  -13.3210   21.9300 N   0  0  0  0  0  0  0  0  0  0  0  0
  -22.8100  -15.0360   20.5520 O   0  0  0  0  0  0  0  0  0  0  0  0
  -22.7930  -12.4900   22.3920 H   0  0  0  0  0  0  0  0  0  0  0  0
  -21.5110  -13.6340   22.1100 H   0  0  0  0  0  0  0  0  0  0  0  0
  -25.8470  -15.6710   20.3820 N   0  0  0  0  0  0  0  0  0  0  0  0
  -25.0600  -16.3040   20.4670 H   0  0  0  0  0  0  0  0  0  0  0  0
  -26.7070  -16.1420   20.1390 H   0  0  0  0  0  0  0  0  0  0  0  0
  1  4  2  0
  1  2  1  0
  2  3  2  0
  3  5  1  0
  3 56  1  0
  4  6  1  0
  5  9  1  0
  6 10  1  0
  6  5  2  0
  7  1  1  0
  8  4  1  0
 10 12  1  0
 11 22  2  0
 12 17  1  0
 13 21  1  0
 13 23  1  0
 14 20  1  0
 14 16  1  0
 15 21  1  0
 16 15  1  0
 17 16  2  0
 18 19  1  0
 18 12  2  0
 19 14  2  0
 20 13  1  0
 21 11  1  0
 23 25  2  0
 24 23  1  0
 26 24  1  0
 27 36  2  0
 27 32  1  0
 28 24  1  0
 28 32  1  0
 29 28  1  0
 30 31  1  0
 30 29  1  0
 31 27  1  0
 32 33  2  0
 33 34  1  0
 35 34  2  0
 36 35  1  0
 37 11  1  0
 37 38  1  0
 37 47  1  0
 38 41  1  0
 39 43  1  0
 39 38  1  0
 40 39  2  0
 43 42  1  0
 45 43  1  0
 45 46  1  0
 45 44  1  0
 47 50  1  1
 47 48  1  0
 49 47  1  0
 51  2  1  0
 52 53  1  0
 52 51  1  0
 55 53  1  0
 55 54  1  0
 56 57  1  0
 58 57  2  0
 58 61  1  0
 61 60  1  1
 61 59  1  0
 62 61  1  0
 63 68  1  0
 64 65  1  0
 64 63  1  0
 66 65  1  0
 66 73  1  0
 66 67  1  0
 68 62  1  0
 68 67  1  0
 69 62  2  0
 70 71  2  0
 71 90  1  0
 72 71  1  0
 72 75  1  0
 73 70  1  0
 73 74  1  0
 74 72  2  0
 75 76  1  0
 76 77  2  0
 78 81  1  0
 78 77  1  0
 79 78  2  0
 80 79  1  0
 80 75  2  0
 81 82  1  0
 82 83  1  0
 83 84  2  0
 85 84  1  0
 85 89  1  0
 86 85  2  0
 87 82  2  0
 87 86  1  0
 88 87  1  0
 90 91  1  0
 91 94  1  0
 91 93  1  0
 92 90  2  0
 95 96  1  0
 95 70  1  0
 97 95  1  0
M  ISO  4   6 101  10 101  61 100  62 100
M  END
>  <TORSDO>  (70) 
F 24

>  <SCORE>  (70) 
-10.375

>  <name>  (70) 
69

>  <ligand_id>  (70) 
69

>  <original_smiles>  (70) 
[H]c1c([H])c([H])c2c(c1[H])C([H])([H])C([H])([H])C([H])([H])C2([H])N([H])C(=O)C1([H])N(C(=O)C([H])(N([H])C(=O)C([H])(N([H])C([H])([H])[H])C([H])([H])[H])C(C([H])([H])[H])(C([H])([H])[H])C([H])([H])[H])C([H])([H])c2c([H])c(Oc3c(C([H])([H])[H])c(C([H])([H])[H])c(C([H])([H])C([H])([H])C([H])([H])C([H])([H])C([H])([H])[H])c(C([H])([H])C([H])([H])C([H])([H])C(C(=O)N4C([H])([H])C([H])([H])C([H])([H])C([H])(n5nc(-c6c([H])c([H])c(Oc7c([H])c([H])c(F)c([H])c7F)c([H])c6[H])c(C(=O)N([H])[H])c5N([H])[H])C4([H])[H])(C([H])([H])[H])C([H])([H])[H])c3C([H])([H])[H])c([H])c([H])c2C1([H])[H]

>  <smiles>  (70) 
[H]c1c([H])c([H])c2c(c1[H])C([H])([H])C([H])([H])C([H])([H])C2([H])N([H])C(=O)C1([H])N(C(=O)C([H])(N([H])C(=O)C([H])(N([H])C([H])([H])[H])C([H])([H])[H])C(C([H])([H])[H])(C([H])([H])[H])C([H])([H])[H])C([H])([H])c2c([H])c(Oc3c(C([H])([H])[H])c(C([H])([H])[H])c(C([H])([H])C([H])([H])C([H])([H])C([H])([H])C([H])([H])[H])c(C([H])([H])C([H])([H])C([H])([H])C(C(=O)N4C([H])([H])C([H])([H])C([H])([H])C([H])(n5nc(-c6c([H])c([H])c(Oc7c([H])c([H])c(F)c([H])c7F)c([H])c6[H])c(C(=O)N([H])[H])c5N([H])[H])C4([H])[H])(C([H])([H])[H])C([H])([H])[H])c3C([H])([H])[H])c([H])c([H])c2C1([H])[H]

$$$$
70:0:0
     RDKit          3D

 92101  0  0  1  0  0  0  0  0999 V2000
  -30.3280  -21.7230   21.5400 C   0  0  0  0  0  3  0  0  0  0  0  0
  -30.1480  -20.9850   19.2270 C   0  0  0  0  0  3  0  0  0  0  0  0
  -29.7580  -22.9630   21.1920 C   0  0  0  0  0  0  0  0  0  0  0  0
  -29.3510  -23.2100   19.8540 C   0  0  0  0  0  0  0  0  0  0  0  0
  -30.5300  -20.7360   20.5590 C   0  0  0  0  0  0  0  0  0  0  0  0
  -29.5630  -22.2160   18.8660 C   0  0  0  0  0  0  0  0  0  0  0  0
  -29.6210  -24.0220   22.2760 C   0  0  0  0  0  2  0  0  0  0  0  0
  -28.7360  -24.5510   19.4540 C   0  0  0  0  0  2  0  0  0  0  0  0
  -29.5340  -25.4340   21.6990 C   0  0  0  0  0  2  0  0  0  0  0  0
  -28.4510  -25.5060   20.6240 C   0  0  0  0  0  3  0  0  0  0  0  0
  -29.2000  -22.4550   17.4100 C   0  0  0  0  0  1  0  0  0  0  0  0
  -28.4390  -26.8420   20.1440 O   0  0  0  0  0  0  0  0  0  0  0  0
  -24.5400  -31.8800   23.2400 C   0  0  0  0  0  0  0  0  0  0  0  0
  -27.2340  -27.4920   20.1720 C   0  0  0  0  0  0  0  0  0  0  0  0
  -23.3480  -30.4700   21.5920 C   0  0  0  0  0  3  0  0  0  0  0  0
  -24.8160  -28.9360   20.1840 C   0  0  0  0  0  0  0  0  0  0  0  0
  -25.8670  -30.8560   21.4000 C   0  0  0  0  0  2  0  0  0  0  0  0
  -25.9640  -29.4870   20.7660 C   0  0  0  0  0  0  0  0  0  0  0  0
  -27.1780  -28.7740   20.7530 C   0  0  0  0  0  3  0  0  0  0  0  0
  -26.0710  -26.9350   19.5990 C   0  0  0  0  0  3  0  0  0  0  0  0
  -24.8610  -27.6550   19.6010 C   0  0  0  0  0  3  0  0  0  0  0  0
  -23.5670  -29.7840   20.2170 C   0  0  0  0  0  2  0  0  0  0  0  0
  -24.6030  -31.0830   22.1370 N   0  0  0  0  0  0  0  0  0  0  0  0
  -23.4570  -32.1470   23.7770 O   0  0  0  0  0  0  0  0  0  0  0  0
  -22.6980  -29.4480   22.5510 C   0  0  0  0  0  0  0  0  0  0  0  0
  -21.3740  -29.2640   22.4180 N   0  0  0  0  0  0  0  0  0  0  0  0
  -23.3800  -28.8240   23.3700 O   0  0  0  0  0  0  0  0  0  0  0  0
  -20.8860  -29.8210   21.7300 H   0  0  0  0  0  0  0  0  0  0  0  0
  -17.9990  -28.0820   22.9090 C   0  0  0  0  0  0  0  0  0  0  0  0
  -20.5570  -28.3270   23.1850 C   0  0  0  0  0  3  0  0  0  0  0  0
  -20.6530  -26.8970   22.6040 C   0  0  0  0  0  2  0  0  0  0  0  0
  -19.5520  -26.5840   21.5860 C   0  0  0  0  0  2  0  0  0  0  0  0
  -18.1690  -26.7350   22.2260 C   0  0  0  0  0  2  0  0  0  0  0  0
  -19.1210  -28.8370   23.3440 C   0  0  0  0  0  0  0  0  0  0  0  0
  -18.9070  -30.0990   23.9390 C   0  0  0  0  0  3  0  0  0  0  0  0
  -17.6050  -30.6070   24.1050 C   0  0  0  0  0  3  0  0  0  0  0  0
  -16.4980  -29.8480   23.6870 C   0  0  0  0  0  3  0  0  0  0  0  0
  -16.6960  -28.5880   23.0940 C   0  0  0  0  0  3  0  0  0  0  0  0
  -25.8230  -32.5160   23.8660 C   0  0  0  0  0  3  0  0  0  0  0  0
  -26.3360  -31.7520   25.1470 C   0  0  1  0  0  0  0  0  0  0  0  0
  -25.2360  -31.5130   26.2080 C   0  0  0  0  0  1  0  0  0  0  0  0
  -26.9250  -30.3750   24.7620 C   0  0  0  0  0  1  0  0  0  0  0  0
  -27.4830  -32.5490   25.8080 C   0  0  0  0  0  1  0  0  0  0  0  0
  -25.5120  -33.9150   24.1820 N   0  0  0  0  0  0  0  0  0  0  0  0
  -25.8570  -34.9630   23.4220 C   0  0  0  0  0  0  0  0  0  0  0  0
  -26.5430  -34.8530   22.4010 O   0  0  0  0  0  0  0  0  0  0  0  0
  -24.9030  -34.0750   24.9720 H   0  0  0  0  0  0  0  0  0  0  0  0
  -24.1400  -36.7570   23.0250 C   0  0  0  0  0  1  0  0  0  0  0  0
  -25.3630  -36.3530   23.8640 C   0  0  0  0  0  3  0  0  0  0  0  0
  -27.4820  -37.2340   24.7390 C   0  0  0  0  0  1  0  0  0  0  0  0
  -26.4000  -37.4040   23.7720 N   0  0  0  0  0  0  0  0  0  0  0  0
  -25.9920  -38.3240   23.9140 H   0  0  0  0  0  0  0  0  0  0  0  0
  -31.2070  -19.4270   20.9120 C   0  0  0  0  0  2  0  0  0  0  0  0
  -30.2240  -18.2670   21.1600 C   0  0  0  0  0  2  0  0  0  0  0  0
  -30.9190  -16.9250   20.8920 C   0  0  0  0  0  2  0  0  0  0  0  0
  -30.0820  -15.6470   21.1450 C   0  0  0  0  0  2  0  0  0  0  0  0
  -30.7100  -14.4200   20.4550 C   0  0  0  0  0  0  0  0  0  0  0  0
  -30.3300  -12.3190   19.2340 C   0  0  0  0  0  2  0  0  0  0  0  0
  -29.3970  -12.6050   18.0410 C   0  0  0  0  0  2  0  0  0  0  0  0
  -27.9240  -12.4770   18.4720 C   0  0  0  0  0  2  0  0  0  0  0  0
  -27.6070  -13.2860   19.7580 C   0  0  0  0  0  3  0  0  0  0  0  0
  -28.6620  -13.0230   20.8590 C   0  0  0  0  0  2  0  0  0  0  0  0
  -29.9930  -13.2800   20.2930 N   0  0  0  0  0  0  0  0  0  0  0  0
  -31.8310  -14.5540   19.9560 O   0  0  0  0  0  0  0  0  0  0  0  0
  -25.2070  -13.9050   20.4540 C   0  0  0  0  0  0  0  0  0  0  0  0
  -24.1360  -13.1340   20.8220 C   0  0  0  0  0  0  0  0  0  0  0  0
  -24.5950  -11.7820   20.8020 C   0  0  0  0  0  0  0  0  0  0  0  0
  -26.2520  -13.0200   20.2350 N   0  0  0  0  0  0  0  0  0  0  0  0
  -25.8860  -11.7400   20.5010 N   0  0  0  0  0  0  0  0  0  0  0  0
  -23.8660  -10.5220   20.9960 C   0  0  0  0  0  0  0  0  0  0  0  0
  -24.2880   -9.5640   21.9450 C   0  0  0  0  0  3  0  0  0  0  0  0
  -23.5610   -8.3680   22.1260 C   0  0  0  0  0  3  0  0  0  0  0  0
  -22.3970   -8.1220   21.3600 C   0  0  0  0  0  0  0  0  0  0  0  0
  -21.9940   -9.0690   20.4020 C   0  0  0  0  0  3  0  0  0  0  0  0
  -22.7210  -10.2560   20.2170 C   0  0  0  0  0  3  0  0  0  0  0  0
  -21.6410   -6.9780   21.4500 O   0  0  0  0  0  0  0  0  0  0  0  0
  -21.5750   -6.2490   22.6100 C   0  0  0  0  0  0  0  0  0  0  0  0
  -21.1230   -6.8160   23.8220 C   0  0  0  0  0  3  0  0  0  0  0  0
  -21.0050   -6.0120   24.9740 C   0  0  0  0  0  3  0  0  0  0  0  0
  -21.3290   -4.6440   24.9150 C   0  0  0  0  0  0  0  0  0  0  0  0
  -21.7730   -4.0770   23.7070 C   0  0  0  0  0  3  0  0  0  0  0  0
  -21.8940   -4.8770   22.5580 C   0  0  0  0  0  0  0  0  0  0  0  0
  -22.3040   -4.3210   21.3920 F   0  0  0  0  0  0  0  0  0  0  0  0
  -21.2080   -3.8700   26.0190 F   0  0  0  0  0  0  0  0  0  0  0  0
  -22.7370  -13.6160   21.0850 C   0  0  0  0  0  0  0  0  0  0  0  0
  -22.0030  -12.9220   21.9490 N   0  0  0  0  0  0  0  0  0  0  0  0
  -22.3040  -14.6390   20.5590 O   0  0  0  0  0  0  0  0  0  0  0  0
  -22.3680  -12.0940   22.3950 H   0  0  0  0  0  0  0  0  0  0  0  0
  -21.0650  -13.2270   22.1690 H   0  0  0  0  0  0  0  0  0  0  0  0
  -25.3720  -15.2730   20.2680 N   0  0  0  0  0  0  0  0  0  0  0  0
  -24.6040  -15.9270   20.3700 H   0  0  0  0  0  0  0  0  0  0  0  0
  -26.2300  -15.7130   19.9560 H   0  0  0  0  0  0  0  0  0  0  0  0
  2  5  1  0
  3  1  1  0
  3  7  1  0
  4  3  2  0
  5 53  1  0
  5  1  2  0
  6  2  2  0
  6  4  1  0
  8  4  1  0
  8 10  1  0
  9  7  1  0
 10 12  1  0
 10  9  1  0
 11  6  1  0
 12 14  1  0
 13 24  2  0
 14 19  1  0
 15 23  1  0
 15 25  1  0
 16 22  1  0
 16 18  1  0
 17 23  1  0
 18 17  1  0
 19 18  2  0
 20 21  1  0
 20 14  2  0
 21 16  2  0
 22 15  1  0
 23 13  1  0
 25 27  2  0
 26 25  1  0
 28 26  1  0
 29 38  2  0
 29 34  1  0
 30 26  1  0
 30 34  1  0
 31 30  1  0
 32 33  1  0
 32 31  1  0
 33 29  1  0
 34 35  2  0
 35 36  1  0
 37 36  2  0
 38 37  1  0
 39 13  1  0
 39 44  1  0
 39 40  1  0
 40 43  1  1
 40 41  1  0
 42 40  1  0
 44 47  1  0
 45 49  1  0
 45 44  1  0
 46 45  2  0
 49 48  1  0
 51 49  1  0
 51 52  1  0
 51 50  1  0
 53 54  1  0
 55 56  1  0
 55 54  1  0
 57 56  1  0
 58 63  1  0
 59 60  1  0
 59 58  1  0
 61 60  1  0
 61 68  1  0
 61 62  1  0
 63 57  1  0
 63 62  1  0
 64 57  2  0
 65 66  2  0
 66 85  1  0
 67 66  1  0
 67 70  1  0
 68 65  1  0
 68 69  1  0
 69 67  2  0
 70 71  1  0
 71 72  2  0
 73 76  1  0
 73 72  1  0
 74 73  2  0
 75 74  1  0
 75 70  2  0
 76 77  1  0
 77 78  1  0
 78 79  2  0
 80 79  1  0
 80 84  1  0
 81 80  2  0
 82 77  2  0
 82 81  1  0
 83 82  1  0
 85 86  1  0
 86 89  1  0
 86 88  1  0
 87 85  2  0
 90 91  1  0
 90 65  1  0
 92 90  1  0
M  ISO  4  10 101  12 101  56 100  57 100
M  END
>  <TORSDO>  (71) 
F 20

>  <SCORE>  (71) 
-14.076

>  <name>  (71) 
70

>  <ligand_id>  (71) 
70

>  <original_smiles>  (71) 
[H]c1c([H])c([H])c2c(c1[H])C([H])([H])C([H])([H])C([H])([H])C2([H])N([H])C(=O)C1([H])N(C(=O)C([H])(N([H])C(=O)C([H])(N([H])C([H])([H])[H])C([H])([H])[H])C(C([H])([H])[H])(C([H])([H])[H])C([H])([H])[H])C([H])([H])c2c([H])c(OC3([H])C([H])([H])c4c(C([H])([H])[H])c([H])c(C([H])([H])C([H])([H])C([H])([H])C([H])([H])C(=O)N5C([H])([H])C([H])([H])C([H])([H])C([H])(n6nc(-c7c([H])c([H])c(Oc8c([H])c([H])c(F)c([H])c8F)c([H])c7[H])c(C(=O)N([H])[H])c6N([H])[H])C5([H])[H])c([H])c4C([H])([H])C3([H])[H])c([H])c([H])c2C1([H])[H]

>  <smiles>  (71) 
[H]c1c([H])c([H])c2c(c1[H])C([H])([H])C([H])([H])C([H])([H])C2([H])N([H])C(=O)C1([H])N(C(=O)C([H])(N([H])C(=O)C([H])(N([H])C([H])([H])[H])C([H])([H])[H])C(C([H])([H])[H])(C([H])([H])[H])C([H])([H])[H])C([H])([H])c2c([H])c(OC3([H])C([H])([H])c4c(C([H])([H])[H])c([H])c(C([H])([H])C([H])([H])C([H])([H])C([H])([H])C(=O)N5C([H])([H])C([H])([H])C([H])([H])C([H])(n6nc(-c7c([H])c([H])c(Oc8c([H])c([H])c(F)c([H])c8F)c([H])c7[H])c(C(=O)N([H])[H])c6N([H])[H])C5([H])[H])c([H])c4C([H])([H])C3([H])[H])c([H])c([H])c2C1([H])[H]

$$$$
71:0:0
     RDKit          3D

 97107  0  0  1  0  0  0  0  0999 V2000
  -29.8180  -23.4190   19.7550 C   0  0  0  0  0  3  0  0  0  0  0  0
  -28.3450  -23.5600   21.6680 C   0  0  0  0  0  3  0  0  0  0  0  0
  -29.1070  -22.7690   20.7830 C   0  0  0  0  0  0  0  0  0  0  0  0
  -29.7320  -24.8170   19.5760 C   0  0  0  0  0  0  0  0  0  0  0  0
  -28.2710  -24.9670   21.5200 C   0  0  0  0  0  0  0  0  0  0  0  0
  -28.9110  -25.6050   20.4210 C   0  0  0  0  0  0  0  0  0  0  0  0
  -30.6010  -25.4520   18.5040 C   0  0  0  0  0  1  0  0  0  0  0  0
  -27.5610  -25.7620   22.6050 C   0  0  0  0  0  1  0  0  0  0  0  0
  -28.8410  -26.9700   20.1810 O   0  0  0  0  0  0  0  0  0  0  0  0
  -24.6370  -31.7960   23.2300 C   0  0  0  0  0  0  0  0  0  0  0  0
  -27.6250  -27.6170   20.1260 C   0  0  0  0  0  0  0  0  0  0  0  0
  -23.5550  -30.3680   21.5220 C   0  0  0  0  0  3  0  0  0  0  0  0
  -25.1350  -28.9550   20.0950 C   0  0  0  0  0  0  0  0  0  0  0  0
  -26.0530  -30.8900   21.3900 C   0  0  0  0  0  2  0  0  0  0  0  0
  -26.2390  -29.5420   20.7250 C   0  0  0  0  0  0  0  0  0  0  0  0
  -27.4850  -28.8820   20.7350 C   0  0  0  0  0  3  0  0  0  0  0  0
  -26.5110  -27.0390   19.4780 C   0  0  0  0  0  3  0  0  0  0  0  0
  -25.2660  -27.7030   19.4640 C   0  0  0  0  0  3  0  0  0  0  0  0
  -23.8340  -29.7280   20.1340 C   0  0  0  0  0  2  0  0  0  0  0  0
  -24.7650  -31.0310   22.1080 N   0  0  0  0  0  0  0  0  0  0  0  0
  -23.5300  -31.9930   23.7520 O   0  0  0  0  0  0  0  0  0  0  0  0
  -22.9420  -29.2900   22.4450 C   0  0  0  0  0  0  0  0  0  0  0  0
  -21.6300  -29.0440   22.2890 N   0  0  0  0  0  0  0  0  0  0  0  0
  -23.6440  -28.6770   23.2530 O   0  0  0  0  0  0  0  0  0  0  0  0
  -21.1230  -29.5990   21.6150 H   0  0  0  0  0  0  0  0  0  0  0  0
  -18.3180  -27.6590   22.6740 C   0  0  0  0  0  0  0  0  0  0  0  0
  -20.8500  -28.0420   23.0140 C   0  0  0  0  0  3  0  0  0  0  0  0
  -21.0420  -26.6350   22.4030 C   0  0  0  0  0  2  0  0  0  0  0  0
  -19.9810  -26.2840   21.3530 C   0  0  0  0  0  2  0  0  0  0  0  0
  -18.5800  -26.3400   21.9680 C   0  0  0  0  0  2  0  0  0  0  0  0
  -19.3850  -28.4650   23.1520 C   0  0  0  0  0  0  0  0  0  0  0  0
  -19.0870  -29.6990   23.7700 C   0  0  0  0  0  3  0  0  0  0  0  0
  -17.7550  -30.1280   23.9190 C   0  0  0  0  0  3  0  0  0  0  0  0
  -16.7020  -29.3180   23.4590 C   0  0  0  0  0  3  0  0  0  0  0  0
  -16.9840  -28.0860   22.8430 C   0  0  0  0  0  3  0  0  0  0  0  0
  -25.8690  -32.4840   23.8960 C   0  0  0  0  0  3  0  0  0  0  0  0
  -25.4930  -33.8700   24.2020 N   0  0  0  0  0  0  0  0  0  0  0  0
  -25.8150  -34.9280   23.4470 C   0  0  0  0  0  0  0  0  0  0  0  0
  -26.5300  -34.8470   22.4460 O   0  0  0  0  0  0  0  0  0  0  0  0
  -24.8560  -34.0050   24.9730 H   0  0  0  0  0  0  0  0  0  0  0  0
  -24.0190  -36.6390   23.0240 C   0  0  0  0  0  1  0  0  0  0  0  0
  -25.2560  -36.3000   23.8720 C   0  0  0  0  0  3  0  0  0  0  0  0
  -27.3270  -37.2890   24.7460 C   0  0  0  0  0  1  0  0  0  0  0  0
  -26.2430  -37.3970   23.7740 N   0  0  0  0  0  0  0  0  0  0  0  0
  -25.7920  -38.2980   23.9000 H   0  0  0  0  0  0  0  0  0  0  0  0
  -26.3690  -31.7420   25.1970 C   0  0  1  0  0  0  0  0  0  0  0  0
  -25.2440  -31.4520   26.2170 C   0  0  0  0  0  1  0  0  0  0  0  0
  -27.0360  -30.3940   24.8300 C   0  0  0  0  0  1  0  0  0  0  0  0
  -27.4460  -32.5960   25.9090 C   0  0  0  0  0  1  0  0  0  0  0  0
  -29.2770  -21.2620   21.0340 C   0  0  0  0  0  2  0  0  0  0  0  0
  -29.5360  -17.7290   19.8930 C   0  0  0  0  0  0  0  0  0  0  0  0
  -29.9780  -16.4760   20.4590 C   0  0  0  0  0  0  0  0  0  0  0  0
  -30.7900  -15.7720   19.5890 C   0  0  0  0  0  0  0  0  0  0  0  0
  -29.9540  -17.8960   18.6050 C   0  0  0  0  0  0  0  0  0  0  0  0
  -28.7180  -18.8100   20.5710 C   0  0  0  0  0  2  0  0  0  0  0  0
  -29.6670  -19.1010   17.7910 C   0  0  0  0  0  2  0  0  0  0  0  0
  -29.7530  -20.3280   18.7010 C   0  0  0  0  0  2  0  0  0  0  0  0
  -28.8000  -20.2600   19.9330 C   0  0  2  0  0  0  0  0  0  0  0  0
  -29.6150  -16.0140   21.8410 C   0  0  0  0  0  1  0  0  0  0  0  0
  -27.3870  -20.6820   19.4650 C   0  0  0  0  0  1  0  0  0  0  0  0
  -31.0130  -16.6280   18.0830 S   0  0  0  0  0  0  0  0  0  0  0  0
  -31.5660  -14.5080   19.6460 C   0  0  0  0  0  0  0  0  0  0  0  0
  -31.1960  -12.1770   19.0010 C   0  0  0  0  0  2  0  0  0  0  0  0
  -30.2410  -12.2040   17.7880 C   0  0  0  0  0  2  0  0  0  0  0  0
  -28.7720  -12.1860   18.2590 C   0  0  0  0  0  2  0  0  0  0  0  0
  -28.4810  -13.2610   19.3430 C   0  0  0  0  0  3  0  0  0  0  0  0
  -29.5580  -13.2480   20.4520 C   0  0  0  0  0  2  0  0  0  0  0  0
  -30.8820  -13.3510   19.8270 N   0  0  0  0  0  0  0  0  0  0  0  0
  -32.7300  -14.5410   19.2400 O   0  0  0  0  0  0  0  0  0  0  0  0
  -26.2200  -14.1200   20.2220 C   0  0  0  0  0  0  0  0  0  0  0  0
  -25.0900  -13.4650   20.6260 C   0  0  0  0  0  0  0  0  0  0  0  0
  -25.3830  -12.0700   20.5260 C   0  0  0  0  0  0  0  0  0  0  0  0
  -27.1360  -13.1300   19.8970 N   0  0  0  0  0  0  0  0  0  0  0  0
  -26.6390  -11.8900   20.1400 N   0  0  0  0  0  0  0  0  0  0  0  0
  -24.5240  -10.8950   20.7200 C   0  0  0  0  0  0  0  0  0  0  0  0
  -24.8720   -9.8750   21.6310 C   0  0  0  0  0  3  0  0  0  0  0  0
  -24.0250   -8.7610   21.8140 C   0  0  0  0  0  3  0  0  0  0  0  0
  -22.8150   -8.6600   21.0860 C   0  0  0  0  0  0  0  0  0  0  0  0
  -22.4840   -9.6710   20.1660 C   0  0  0  0  0  3  0  0  0  0  0  0
  -23.3300  -10.7790   19.9800 C   0  0  0  0  0  3  0  0  0  0  0  0
  -21.9420   -7.6040   21.1810 O   0  0  0  0  0  0  0  0  0  0  0  0
  -21.7880   -6.8990   22.3480 C   0  0  0  0  0  0  0  0  0  0  0  0
  -21.4020   -7.5290   23.5520 C   0  0  0  0  0  3  0  0  0  0  0  0
  -21.1870   -6.7580   24.7120 C   0  0  0  0  0  3  0  0  0  0  0  0
  -21.3480   -5.3590   24.6680 C   0  0  0  0  0  0  0  0  0  0  0  0
  -21.7260   -4.7310   23.4680 C   0  0  0  0  0  3  0  0  0  0  0  0
  -21.9430   -5.4990   22.3110 C   0  0  0  0  0  0  0  0  0  0  0  0
  -22.2870   -4.8860   21.1520 F   0  0  0  0  0  0  0  0  0  0  0  0
  -21.1310   -4.6170   25.7790 F   0  0  0  0  0  0  0  0  0  0  0  0
  -23.7790  -14.0930   20.9970 C   0  0  0  0  0  0  0  0  0  0  0  0
  -23.0330  -13.4700   21.9050 N   0  0  0  0  0  0  0  0  0  0  0  0
  -23.4250  -15.1680   20.5160 O   0  0  0  0  0  0  0  0  0  0  0  0
  -23.3310  -12.6010   22.3230 H   0  0  0  0  0  0  0  0  0  0  0  0
  -22.1520  -13.8750   22.1890 H   0  0  0  0  0  0  0  0  0  0  0  0
  -26.5410  -15.4670   20.0800 N   0  0  0  0  0  0  0  0  0  0  0  0
  -25.8780  -16.2090   20.2750 H   0  0  0  0  0  0  0  0  0  0  0  0
  -27.4430  -15.8170   19.7780 H   0  0  0  0  0  0  0  0  0  0  0  0
  1  3  1  0
  3 50  1  0
  3  2  2  0
  4  1  2  0
  4  6  1  0
  5  2  1  0
  5  8  1  0
  6  5  2  0
  7  4  1  0
  9  6  1  0
 10 21  2  0
 11  9  1  0
 11 16  1  0
 12 20  1  0
 12 22  1  0
 13 19  1  0
 13 15  1  0
 14 20  1  0
 15 16  2  0
 15 14  1  0
 17 11  2  0
 18 17  1  0
 18 13  2  0
 19 12  1  0
 20 10  1  0
 22 24  2  0
 23 22  1  0
 25 23  1  0
 26 35  2  0
 26 31  1  0
 27 23  1  0
 27 31  1  0
 28 27  1  0
 29 30  1  0
 29 28  1  0
 30 26  1  0
 31 32  2  0
 32 33  1  0
 34 33  2  0
 35 34  1  0
 36 10  1  0
 36 37  1  0
 36 46  1  0
 37 40  1  0
 38 42  1  0
 38 37  1  0
 39 38  2  0
 42 41  1  0
 44 42  1  0
 44 45  1  0
 44 43  1  0
 46 49  1  1
 46 47  1  0
 48 46  1  0
 51 52  1  0
 51 55  1  0
 52 59  1  0
 53 62  1  0
 53 52  2  0
 54 51  2  0
 56 54  1  0
 56 57  1  0
 57 58  1  0
 58 60  1  6
 58 55  1  0
 58 50  1  0
 61 54  1  0
 61 53  1  0
 62 68  1  0
 63 68  1  0
 64 65  1  0
 64 63  1  0
 66 65  1  0
 66 73  1  0
 66 67  1  0
 68 67  1  0
 69 62  2  0
 70 71  2  0
 71 90  1  0
 72 71  1  0
 72 75  1  0
 73 74  1  0
 73 70  1  0
 74 72  2  0
 75 76  1  0
 76 77  2  0
 78 81  1  0
 78 77  1  0
 79 78  2  0
 80 79  1  0
 80 75  2  0
 81 82  1  0
 82 83  1  0
 83 84  2  0
 85 84  1  0
 85 89  1  0
 86 85  2  0
 87 82  2  0
 87 86  1  0
 88 87  1  0
 90 91  1  0
 91 94  1  0
 91 93  1  0
 92 90  2  0
 95 70  1  0
 95 96  1  0
 97 95  1  0
M  ISO  4   6 101   9 101  53 100  62 100
M  END
>  <TORSDO>  (72) 
F 18

>  <SCORE>  (72) 
-13.395

>  <name>  (72) 
71

>  <ligand_id>  (72) 
71

>  <original_smiles>  (72) 
[H]c1c([H])c([H])c2c(c1[H])C([H])([H])C([H])([H])C([H])([H])C2([H])N([H])C(=O)C1([H])N(C(=O)C([H])(N([H])C(=O)C([H])(N([H])C([H])([H])[H])C([H])([H])[H])C(C([H])([H])[H])(C([H])([H])[H])C([H])([H])[H])C([H])([H])c2c([H])c(Oc3c(C([H])([H])[H])c([H])c(C([H])([H])C4(C([H])([H])[H])C([H])([H])c5c(sc(C(=O)N6C([H])([H])C([H])([H])C([H])([H])C([H])(n7nc(-c8c([H])c([H])c(Oc9c([H])c([H])c(F)c([H])c9F)c([H])c8[H])c(C(=O)N([H])[H])c7N([H])[H])C6([H])[H])c5C([H])([H])[H])C([H])([H])C4([H])[H])c([H])c3C([H])([H])[H])c([H])c([H])c2C1([H])[H]

>  <smiles>  (72) 
[H]c1c([H])c([H])c2c(c1[H])C([H])([H])C([H])([H])C([H])([H])C2([H])N([H])C(=O)C1([H])N(C(=O)C([H])(N([H])C(=O)C([H])(N([H])C([H])([H])[H])C([H])([H])[H])C(C([H])([H])[H])(C([H])([H])[H])C([H])([H])[H])C([H])([H])c2c([H])c(Oc3c(C([H])([H])[H])c([H])c(C([H])([H])C4(C([H])([H])[H])C([H])([H])c5c(sc(C(=O)N6C([H])([H])C([H])([H])C([H])([H])C([H])(n7nc(-c8c([H])c([H])c(Oc9c([H])c([H])c(F)c([H])c9F)c([H])c8[H])c(C(=O)N([H])[H])c7N([H])[H])C6([H])[H])c5C([H])([H])[H])C([H])([H])C4([H])[H])c([H])c3C([H])([H])[H])c([H])c([H])c2C1([H])[H]

$$$$
72:0:0
     RDKit          3D

 97103  0  0  1  0  0  0  0  0999 V2000
  -20.3970  -27.3160   21.4180 C   0  0  0  0  0  1  0  0  0  0  0  0
  -23.1320  -26.1480   22.8190 C   0  0  0  0  0  2  0  0  0  0  0  0
  -21.9020  -27.4400   20.7740 C   0  0  0  0  0  3  0  0  0  0  0  0
  -20.3780  -26.1170   23.2480 C   0  0  0  0  0  2  0  0  0  0  0  0
  -21.9700  -25.5690   23.5910 C   0  0  0  0  0  3  0  0  0  0  0  0
  -23.2210  -26.8200   21.4760 C   0  0  0  0  0  3  0  0  0  0  0  0
  -21.8160  -27.4930   19.2430 C   0  0  0  0  0  1  0  0  0  0  0  0
  -24.6620  -26.2100   20.7900 C   0  0  0  0  0  2  0  0  0  0  0  0
  -26.2580  -26.5200   20.9450 O   0  0  0  0  0  0  0  0  0  0  0  0
  -24.6840  -31.9710   23.2410 C   0  0  0  0  0  0  0  0  0  0  0  0
  -26.8750  -27.4210   20.1320 C   0  0  0  0  0  3  0  0  0  0  0  0
  -23.5090  -30.6660   21.5820 C   0  0  0  0  0  3  0  0  0  0  0  0
  -24.8880  -29.2440   19.9530 C   0  0  0  0  0  0  0  0  0  0  0  0
  -26.0270  -30.8850   21.4410 C   0  0  0  0  0  2  0  0  0  0  0  0
  -26.0140  -29.5590   20.7190 C   0  0  0  0  0  0  0  0  0  0  0  0
  -27.0900  -28.6560   20.7750 C   0  0  0  0  0  3  0  0  0  0  0  0
  -26.1280  -27.4020   18.9660 C   0  0  0  0  0  2  0  0  0  0  0  0
  -24.9910  -28.2350   18.9770 C   0  0  0  0  0  3  0  0  0  0  0  0
  -23.6930  -30.1480   20.1370 C   0  0  0  0  0  2  0  0  0  0  0  0
  -24.7580  -31.2250   22.1130 N   0  0  0  0  0  0  0  0  0  0  0  0
  -23.5970  -32.2460   23.7750 O   0  0  0  0  0  0  0  0  0  0  0  0
  -23.0480  -29.6050   22.5800 C   0  0  0  0  0  0  0  0  0  0  0  0
  -21.7850  -29.3390   22.6190 N   0  0  0  0  0  0  0  0  0  0  0  0
  -23.8240  -29.0090   23.3260 O   0  0  0  0  0  0  0  0  0  0  0  0
  -21.1280  -29.8200   22.0170 H   0  0  0  0  0  0  0  0  0  0  0  0
  -18.3170  -27.9280   22.7870 C   0  0  0  0  0  0  0  0  0  0  0  0
  -21.3960  -28.0580   23.1870 C   0  0  0  0  0  2  0  0  0  0  0  0
  -21.1550  -25.2820   21.3840 C   0  0  0  0  0  1  0  0  0  0  0  0
  -19.2790  -25.2390   21.1870 C   0  0  0  0  0  3  0  0  0  0  0  0
  -18.1020  -26.4370   21.9270 C   0  0  0  0  0  3  0  0  0  0  0  0
  -19.5950  -28.6150   23.3840 C   0  0  0  0  0  0  0  0  0  0  0  0
  -19.2780  -29.9020   23.9640 C   0  0  0  0  0  3  0  0  0  0  0  0
  -17.9690  -30.4720   24.0600 C   0  0  0  0  0  3  0  0  0  0  0  0
  -16.8340  -29.7940   23.5820 C   0  0  0  0  0  3  0  0  0  0  0  0
  -17.0380  -28.5550   22.9550 C   0  0  0  0  0  3  0  0  0  0  0  0
  -25.9710  -32.5280   23.8800 C   0  0  0  0  0  3  0  0  0  0  0  0
  -26.4680  -31.6710   25.1040 C   0  0  1  0  0  0  0  0  0  0  0  0
  -25.3710  -31.3800   26.1530 C   0  0  0  0  0  1  0  0  0  0  0  0
  -27.0410  -30.3120   24.6380 C   0  0  0  0  0  1  0  0  0  0  0  0
  -27.6210  -32.4220   25.8000 C   0  0  0  0  0  1  0  0  0  0  0  0
  -25.6570  -33.9000   24.2770 N   0  0  0  0  0  0  0  0  0  0  0  0
  -25.9160  -34.9710   23.5200 C   0  0  0  0  0  0  0  0  0  0  0  0
  -26.5430  -34.9050   22.4590 O   0  0  0  0  0  0  0  0  0  0  0  0
  -25.0960  -34.0210   25.1070 H   0  0  0  0  0  0  0  0  0  0  0  0
  -24.1520  -36.7400   23.2570 C   0  0  0  0  0  1  0  0  0  0  0  0
  -25.4130  -36.3290   24.0340 C   0  0  0  0  0  3  0  0  0  0  0  0
  -27.5620  -37.1910   24.8450 C   0  0  0  0  0  1  0  0  0  0  0  0
  -26.4320  -37.3960   23.9420 N   0  0  0  0  0  0  0  0  0  0  0  0
  -26.0220  -38.3030   24.1490 H   0  0  0  0  0  0  0  0  0  0  0  0
  -22.6700  -23.9900   23.9320 C   0  0  0  0  0  2  0  0  0  0  0  0
  -23.7030  -22.8870   22.8910 C   0  0  0  0  0  3  0  0  0  0  0  0
  -24.9270  -21.5600   23.1650 C   0  0  0  0  0  3  0  0  0  0  0  0
  -25.8180  -20.3730   22.0940 C   0  0  0  0  0  3  0  0  0  0  0  0
  -27.0720  -19.0540   22.3250 C   0  0  0  0  0  3  0  0  0  0  0  0
  -27.8680  -17.7750   21.2830 C   0  0  0  0  0  3  0  0  0  0  0  0
  -28.9830  -16.3640   21.6200 C   0  0  0  0  0  3  0  0  0  0  0  0
  -30.0000  -15.1540   20.7670 C   0  0  0  0  0  0  0  0  0  0  0  0
  -30.3940  -12.8120   19.6160 C   0  0  0  0  0  2  0  0  0  0  0  0
  -29.5310  -12.6330   18.3350 C   0  0  0  0  0  2  0  0  0  0  0  0
  -28.0670  -12.3120   18.6870 C   0  0  0  0  0  2  0  0  0  0  0  0
  -27.5720  -13.2140   19.8450 C   0  0  0  0  0  3  0  0  0  0  0  0
  -28.5190  -13.1560   21.0410 C   0  0  0  0  0  2  0  0  0  0  0  0
  -29.7240  -13.7870   20.5670 N   0  0  0  0  0  0  0  0  0  0  0  0
  -31.1490  -15.4140   20.3370 O   0  0  0  0  0  0  0  0  0  0  0  0
  -25.2170  -13.8070   20.5610 C   0  0  0  0  0  0  0  0  0  0  0  0
  -24.1530  -13.0330   20.9180 C   0  0  0  0  0  0  0  0  0  0  0  0
  -24.6120  -11.6820   20.8690 C   0  0  0  0  0  0  0  0  0  0  0  0
  -26.2360  -12.9180   20.2850 N   0  0  0  0  0  0  0  0  0  0  0  0
  -25.8950  -11.6370   20.5470 N   0  0  0  0  0  0  0  0  0  0  0  0
  -23.8900  -10.4220   21.0420 C   0  0  0  0  0  0  0  0  0  0  0  0
  -24.3520   -9.4170   21.9190 C   0  0  0  0  0  3  0  0  0  0  0  0
  -23.6240   -8.2190   22.0770 C   0  0  0  0  0  3  0  0  0  0  0  0
  -22.4220   -8.0210   21.3540 C   0  0  0  0  0  0  0  0  0  0  0  0
  -21.9800   -9.0170   20.4650 C   0  0  0  0  0  3  0  0  0  0  0  0
  -22.7100  -10.2050   20.3050 C   0  0  0  0  0  3  0  0  0  0  0  0
  -21.6610   -6.8810   21.4230 O   0  0  0  0  0  0  0  0  0  0  0  0
  -21.6830   -6.0710   22.5290 C   0  0  0  0  0  0  0  0  0  0  0  0
  -21.4000   -6.5640   23.8210 C   0  0  0  0  0  3  0  0  0  0  0  0
  -21.3650   -5.6800   24.9180 C   0  0  0  0  0  3  0  0  0  0  0  0
  -21.6040   -4.3050   24.7240 C   0  0  0  0  0  0  0  0  0  0  0  0
  -21.8820   -3.8130   23.4360 C   0  0  0  0  0  3  0  0  0  0  0  0
  -21.9180   -4.6950   22.3420 C   0  0  0  0  0  0  0  0  0  0  0  0
  -22.1650   -4.2150   21.0990 F   0  0  0  0  0  0  0  0  0  0  0  0
  -21.5610   -3.4530   25.7740 F   0  0  0  0  0  0  0  0  0  0  0  0
  -22.7620  -13.5150   21.1890 C   0  0  0  0  0  0  0  0  0  0  0  0
  -22.0290  -12.8210   22.0500 N   0  0  0  0  0  0  0  0  0  0  0  0
  -22.3340  -14.5480   20.6750 O   0  0  0  0  0  0  0  0  0  0  0  0
  -22.3870  -11.9860   22.4850 H   0  0  0  0  0  0  0  0  0  0  0  0
  -21.0910  -13.1270   22.2700 H   0  0  0  0  0  0  0  0  0  0  0  0
  -25.3990  -15.1800   20.4350 N   0  0  0  0  0  0  0  0  0  0  0  0
  -24.6570  -15.8440   20.6280 H   0  0  0  0  0  0  0  0  0  0  0  0
  -26.2830  -15.6180   20.2070 H   0  0  0  0  0  0  0  0  0  0  0  0
  -19.3460  -25.4140   24.2110 C   0  0  0  0  0  3  0  0  0  0  0  0
  -18.5700  -26.2820   25.2460 C   0  0  0  0  0  3  0  0  0  0  0  0
  -17.6800  -25.6060   26.3060 C   0  0  0  0  0  2  0  0  0  0  0  0
  -15.5690  -26.1360   27.7750 C   0  0  0  0  0  1  0  0  0  0  0  0
  -16.5080  -26.5690   26.6470 C   0  0  0  0  0  2  0  0  0  0  0  0
  3  1  1  0
  3  6  1  0
  4  5  1  0
  4 93  1  0
  5  2  1  0
  5 50  1  0
  6  8  1  0
  6  2  1  0
  7  3  1  0
  8  9  1  0
 10 21  2  0
 11 16  1  0
 11  9  1  0
 12 20  1  0
 12 22  1  0
 13 19  1  0
 13 15  1  0
 14 20  1  0
 15 16  2  0
 15 14  1  0
 17 18  1  0
 17 11  1  0
 18 13  2  0
 19 12  1  0
 20 10  1  0
 22 23  1  0
 22 24  2  0
 23 27  1  0
 25 23  1  0
 26 35  2  0
 26 31  1  0
 27 31  1  0
 29 28  1  0
 29 30  2  0
 30 26  1  0
 31 32  2  0
 32 33  1  0
 34 33  2  0
 35 34  1  0
 36 10  1  0
 36 41  1  0
 36 37  1  0
 37 40  1  1
 37 38  1  0
 39 37  1  0
 41 44  1  0
 42 46  1  0
 42 41  1  0
 43 42  2  0
 46 45  1  0
 48 46  1  0
 48 49  1  0
 48 47  1  0
 51 52  2  0
 51 50  1  0
 53 54  2  0
 53 52  1  0
 55 56  2  0
 55 54  1  0
 57 56  1  0
 58 63  1  0
 59 60  1  0
 59 58  1  0
 61 60  1  0
 61 68  1  0
 61 62  1  0
 63 57  1  0
 63 62  1  0
 64 57  2  0
 65 66  2  0
 66 85  1  0
 67 66  1  0
 67 70  1  0
 68 69  1  0
 68 65  1  0
 69 67  2  0
 70 71  1  0
 71 72  2  0
 73 76  1  0
 73 72  1  0
 74 73  2  0
 75 74  1  0
 75 70  2  0
 76 77  1  0
 77 78  1  0
 78 79  2  0
 80 79  1  0
 80 84  1  0
 81 80  2  0
 82 77  2  0
 82 81  1  0
 83 82  1  0
 85 86  1  0
 86 89  1  0
 86 88  1  0
 87 85  2  0
 90 65  1  0
 90 91  1  0
 92 90  1  0
 93 94  2  0
 94 95  1  0
 95 97  1  0
 97 96  1  0
M  ISO  4   8 101   9 101  56 100  57 100
M  END
>  <TORSDO>  (73) 
F 28

>  <SCORE>  (73) 
29.903

>  <name>  (73) 
72

>  <ligand_id>  (73) 
72

>  <original_smiles>  (73) 
[H]c1c([H])c([H])c2c(c1[H])C([H])([H])C([H])([H])C([H])([H])C2([H])N([H])C(=O)C1([H])N(C(=O)C([H])(N([H])C(=O)C([H])(N([H])C([H])([H])[H])C([H])([H])[H])C(C([H])([H])[H])(C([H])([H])[H])C([H])([H])[H])C([H])([H])c2c([H])c(OC([H])([H])c3c([H])c(C([H])([H])C([H])([H])C([H])([H])C([H])([H])C([H])([H])C([H])([H])C([H])([H])C(=O)N4C([H])([H])C([H])([H])C([H])([H])C([H])(n5nc(-c6c([H])c([H])c(Oc7c([H])c([H])c(F)c([H])c7F)c([H])c6[H])c(C(=O)N([H])[H])c5N([H])[H])C4([H])[H])c(C([H])([H])C([H])([H])C([H])([H])C([H])([H])C([H])([H])[H])c([H])c3C([H])([H])[H])c([H])c([H])c2C1([H])[H]

>  <smiles>  (73) 
[H]c1c([H])c([H])c2c(c1[H])C([H])([H])C([H])([H])C([H])([H])C2([H])N([H])C(=O)C1([H])N(C(=O)C([H])(N([H])C(=O)C([H])(N([H])C([H])([H])[H])C([H])([H])[H])C(C([H])([H])[H])(C([H])([H])[H])C([H])([H])[H])C([H])([H])c2c([H])c(OC([H])([H])c3c([H])c(C([H])([H])C([H])([H])C([H])([H])C([H])([H])C([H])([H])C([H])([H])C([H])([H])C(=O)N4C([H])([H])C([H])([H])C([H])([H])C([H])(n5nc(-c6c([H])c([H])c(Oc7c([H])c([H])c(F)c([H])c7F)c([H])c6[H])c(C(=O)N([H])[H])c5N([H])[H])C4([H])[H])c(C([H])([H])C([H])([H])C([H])([H])C([H])([H])C([H])([H])[H])c([H])c3C([H])([H])[H])c([H])c([H])c2C1([H])[H]

$$$$
73:0:0
     RDKit          3D

 89 98  0  0  1  0  0  0  0  0999 V2000
  -27.8020  -19.0060   18.9000 C   0  0  0  0  0  3  0  0  0  0  0  0
  -29.5340  -17.5940   20.2210 C   0  0  0  0  0  0  0  0  0  0  0  0
  -28.0270  -20.3360   19.3910 C   0  0  0  0  0  0  0  0  0  0  0  0
  -29.0500  -20.5300   20.3220 C   0  0  0  0  0  0  0  0  0  0  0  0
  -28.4920  -17.7690   19.2270 C   0  0  0  0  0  0  0  0  0  0  0  0
  -29.7750  -19.1230   20.6920 C   0  0  0  0  0  0  0  0  0  0  0  0
  -27.1250  -21.5560   18.9460 C   0  0  0  0  0  3  0  0  0  0  0  0
  -29.1440  -22.3090   20.6900 C   0  0  0  0  0  3  0  0  0  0  0  0
  -27.6400  -23.0870   18.8650 C   0  0  0  0  0  3  0  0  0  0  0  0
  -28.0930  -23.7990   20.1890 C   0  0  0  0  0  0  0  0  0  0  0  0
  -28.0680  -16.6230   18.3250 C   0  0  0  0  0  1  0  0  0  0  0  0
  -30.9290  -19.2800   21.6610 C   0  0  0  0  0  1  0  0  0  0  0  0
  -30.3190  -15.9660   20.4340 C   0  0  0  0  0  0  0  0  0  0  0  0
  -30.5450  -13.3690   19.7400 C   0  0  0  0  0  2  0  0  0  0  0  0
  -29.7210  -12.8430   18.5240 C   0  0  0  0  0  2  0  0  0  0  0  0
  -28.3000  -12.4380   18.9470 C   0  0  0  0  0  2  0  0  0  0  0  0
  -27.7040  -13.4610   19.9360 C   0  0  0  0  0  3  0  0  0  0  0  0
  -28.6740  -13.9100   21.0530 C   0  0  0  0  0  2  0  0  0  0  0  0
  -29.8470  -14.5640   20.4120 N   0  0  0  0  0  0  0  0  0  0  0  0
  -31.5660  -15.8860   20.4130 O   0  0  0  0  0  0  0  0  0  0  0  0
  -25.3230  -13.9610   20.6480 C   0  0  0  0  0  0  0  0  0  0  0  0
  -24.2620  -13.1640   20.9680 C   0  0  0  0  0  0  0  0  0  0  0  0
  -24.7510  -11.8220   20.9370 C   0  0  0  0  0  0  0  0  0  0  0  0
  -26.3840  -13.1030   20.4240 N   0  0  0  0  0  0  0  0  0  0  0  0
  -26.0530  -11.8090   20.6660 N   0  0  0  0  0  0  0  0  0  0  0  0
  -24.0340  -10.5500   21.0920 C   0  0  0  0  0  0  0  0  0  0  0  0
  -24.4300   -9.5910   22.0510 C   0  0  0  0  0  3  0  0  0  0  0  0
  -23.7090   -8.3860   22.1970 C   0  0  0  0  0  3  0  0  0  0  0  0
  -22.5800   -8.1310   21.3820 C   0  0  0  0  0  0  0  0  0  0  0  0
  -22.2040   -9.0780   20.4140 C   0  0  0  0  0  3  0  0  0  0  0  0
  -22.9260  -10.2740   20.2670 C   0  0  0  0  0  3  0  0  0  0  0  0
  -21.8350   -6.9770   21.4360 O   0  0  0  0  0  0  0  0  0  0  0  0
  -21.7050   -6.2580   22.5960 C   0  0  0  0  0  0  0  0  0  0  0  0
  -21.1450   -6.8240   23.7640 C   0  0  0  0  0  3  0  0  0  0  0  0
  -20.9660   -6.0300   24.9140 C   0  0  0  0  0  3  0  0  0  0  0  0
  -21.3340   -4.6720   24.8980 C   0  0  0  0  0  0  0  0  0  0  0  0
  -21.8850   -4.1060   23.7340 C   0  0  0  0  0  3  0  0  0  0  0  0
  -22.0670   -4.8970   22.5870 C   0  0  0  0  0  0  0  0  0  0  0  0
  -22.5800   -4.3420   21.4630 F   0  0  0  0  0  0  0  0  0  0  0  0
  -21.1540   -3.9070   25.9990 F   0  0  0  0  0  0  0  0  0  0  0  0
  -22.8510  -13.6220   21.1910 C   0  0  0  0  0  0  0  0  0  0  0  0
  -22.1050  -12.9160   22.0320 N   0  0  0  0  0  0  0  0  0  0  0  0
  -22.4190  -14.6420   20.6550 O   0  0  0  0  0  0  0  0  0  0  0  0
  -22.4680  -12.0910   22.4860 H   0  0  0  0  0  0  0  0  0  0  0  0
  -21.1570  -13.2050   22.2260 H   0  0  0  0  0  0  0  0  0  0  0  0
  -25.4710  -15.3370   20.5010 N   0  0  0  0  0  0  0  0  0  0  0  0
  -24.6980  -15.9790   20.6290 H   0  0  0  0  0  0  0  0  0  0  0  0
  -26.3440  -15.8050   20.2900 H   0  0  0  0  0  0  0  0  0  0  0  0
  -28.1670  -25.5980   20.1700 O   0  0  0  0  0  0  0  0  0  0  0  0
  -24.6250  -31.9160   23.1450 C   0  0  0  0  0  0  0  0  0  0  0  0
  -27.1700  -26.8130   20.1370 C   0  0  0  0  0  0  0  0  0  0  0  0
  -23.4340  -30.5050   21.5220 C   0  0  0  0  0  3  0  0  0  0  0  0
  -24.8810  -28.8580   20.1020 C   0  0  0  0  0  0  0  0  0  0  0  0
  -26.0110  -30.6600   21.3740 C   0  0  0  0  0  2  0  0  0  0  0  0
  -26.0830  -29.2190   20.7210 C   0  0  0  0  0  0  0  0  0  0  0  0
  -27.2080  -28.2280   20.7020 C   0  0  0  0  0  3  0  0  0  0  0  0
  -25.9260  -26.6750   19.4640 C   0  0  0  0  0  3  0  0  0  0  0  0
  -24.8440  -27.6130   19.4480 C   0  0  0  0  0  3  0  0  0  0  0  0
  -23.6680  -29.8040   20.1520 C   0  0  0  0  0  2  0  0  0  0  0  0
  -24.7150  -31.0610   22.0670 N   0  0  0  0  0  0  0  0  0  0  0  0
  -23.5340  -32.2090   23.6640 O   0  0  0  0  0  0  0  0  0  0  0  0
  -22.7310  -29.5270   22.5040 C   0  0  0  0  0  0  0  0  0  0  0  0
  -21.4000  -29.3570   22.3870 N   0  0  0  0  0  0  0  0  0  0  0  0
  -23.3970  -28.9180   23.3430 O   0  0  0  0  0  0  0  0  0  0  0  0
  -20.9100  -29.9030   21.6910 H   0  0  0  0  0  0  0  0  0  0  0  0
  -18.0300  -28.1080   22.9350 C   0  0  0  0  0  0  0  0  0  0  0  0
  -20.5900  -28.4130   23.1680 C   0  0  0  0  0  3  0  0  0  0  0  0
  -20.7020  -26.9800   22.5970 C   0  0  0  0  0  2  0  0  0  0  0  0
  -19.5960  -26.6420   21.5930 C   0  0  0  0  0  2  0  0  0  0  0  0
  -18.2190  -26.7640   22.2510 C   0  0  0  0  0  2  0  0  0  0  0  0
  -19.1420  -28.8900   23.3500 C   0  0  0  0  0  0  0  0  0  0  0  0
  -18.9060  -30.1430   23.9560 C   0  0  0  0  0  3  0  0  0  0  0  0
  -17.5940  -30.6170   24.1450 C   0  0  0  0  0  3  0  0  0  0  0  0
  -16.4980  -29.8360   23.7410 C   0  0  0  0  0  3  0  0  0  0  0  0
  -16.7170  -28.5820   23.1430 C   0  0  0  0  0  3  0  0  0  0  0  0
  -25.8870  -32.5800   23.7760 C   0  0  0  0  0  3  0  0  0  0  0  0
  -25.5580  -33.9800   24.1090 N   0  0  0  0  0  0  0  0  0  0  0  0
  -25.8990  -35.0500   23.3770 C   0  0  0  0  0  0  0  0  0  0  0  0
  -26.5810  -34.9620   22.3540 O   0  0  0  0  0  0  0  0  0  0  0  0
  -24.9550  -34.1200   24.9060 H   0  0  0  0  0  0  0  0  0  0  0  0
  -24.1920  -36.8710   23.0240 C   0  0  0  0  0  1  0  0  0  0  0  0
  -25.4110  -36.4360   23.8520 C   0  0  0  0  0  3  0  0  0  0  0  0
  -27.5290  -37.3010   24.7500 C   0  0  0  0  0  1  0  0  0  0  0  0
  -26.4520  -37.4860   23.7820 N   0  0  0  0  0  0  0  0  0  0  0  0
  -26.0450  -38.4060   23.9350 H   0  0  0  0  0  0  0  0  0  0  0  0
  -26.3950  -31.8310   25.0700 C   0  0  1  0  0  0  0  0  0  0  0  0
  -25.2930  -31.6030   26.1320 C   0  0  0  0  0  1  0  0  0  0  0  0
  -26.9880  -30.4490   24.7140 C   0  0  0  0  0  1  0  0  0  0  0  0
  -27.5380  -32.6400   25.7280 C   0  0  0  0  0  1  0  0  0  0  0  0
  1  5  2  0
  1  3  1  0
  2 13  1  0
  2  6  2  0
  3  4  1  0
  4  8  2  0
  4  6  1  0
  5  2  1  0
  6 12  1  0
  7  3  2  0
  9  7  1  0
  9 10  2  0
 10  8  1  0
 11  5  1  0
 14 19  1  0
 15 16  1  0
 15 14  1  0
 17 16  1  0
 17 24  1  0
 17 18  1  0
 19 13  1  0
 19 18  1  0
 20 13  2  0
 21 22  2  0
 22 41  1  0
 23 22  1  0
 23 26  1  0
 24 21  1  0
 24 25  1  0
 25 23  2  0
 26 27  1  0
 27 28  2  0
 29 32  1  0
 29 28  1  0
 30 29  2  0
 31 30  1  0
 31 26  2  0
 32 33  1  0
 33 34  1  0
 34 35  2  0
 36 35  1  0
 36 40  1  0
 37 36  2  0
 38 33  2  0
 38 37  1  0
 39 38  1  0
 41 42  1  0
 42 45  1  0
 42 44  1  0
 43 41  2  0
 46 47  1  0
 46 21  1  0
 48 46  1  0
 49 10  1  0
 50 61  2  0
 51 49  1  0
 51 56  1  0
 52 60  1  0
 52 62  1  0
 53 59  1  0
 53 55  1  0
 54 60  1  0
 55 54  1  0
 56 55  2  0
 57 51  2  0
 58 57  1  0
 58 53  2  0
 59 52  1  0
 60 50  1  0
 62 64  2  0
 63 62  1  0
 65 63  1  0
 66 75  2  0
 66 71  1  0
 67 63  1  0
 67 71  1  0
 68 67  1  0
 69 70  1  0
 69 68  1  0
 70 66  1  0
 71 72  2  0
 72 73  1  0
 74 73  2  0
 75 74  1  0
 76 50  1  0
 76 77  1  0
 76 86  1  0
 77 80  1  0
 78 82  1  0
 78 77  1  0
 79 78  2  0
 82 81  1  0
 84 82  1  0
 84 85  1  0
 84 83  1  0
 86 89  1  1
 86 87  1  0
 88 86  1  0
M  ISO  4   2 100  10 101  13 100  49 101
M  END
>  <TORSDO>  (74) 
F 16

>  <SCORE>  (74) 
-16.415

>  <name>  (74) 
73

>  <ligand_id>  (74) 
73

>  <original_smiles>  (74) 
[H]c1c([H])c([H])c2c(c1[H])C([H])([H])C([H])([H])C([H])([H])C2([H])N([H])C(=O)C1([H])N(C(=O)C([H])(N([H])C(=O)C([H])(N([H])C([H])([H])[H])C([H])([H])[H])C(C([H])([H])[H])(C([H])([H])[H])C([H])([H])[H])C([H])([H])c2c([H])c(OC3([H])C([H])([H])c4c(C([H])([H])[H])c(C(=O)N5C([H])([H])C([H])([H])C([H])([H])C([H])(n6nc(-c7c([H])c([H])c(Oc8c([H])c([H])c(F)c([H])c8F)c([H])c7[H])c(C(=O)N([H])[H])c6N([H])[H])C5([H])[H])c(C([H])([H])[H])c([H])c4C([H])([H])C3([H])[H])c([H])c([H])c2C1([H])[H]

>  <smiles>  (74) 
[H]c1c([H])c([H])c2c(c1[H])C([H])([H])C([H])([H])C([H])([H])C2([H])N([H])C(=O)C1([H])N(C(=O)C([H])(N([H])C(=O)C([H])(N([H])C([H])([H])[H])C([H])([H])[H])C(C([H])([H])[H])(C([H])([H])[H])C([H])([H])[H])C([H])([H])c2c([H])c(OC3([H])C([H])([H])c4c(C([H])([H])[H])c(C(=O)N5C([H])([H])C([H])([H])C([H])([H])C([H])(n6nc(-c7c([H])c([H])c(Oc8c([H])c([H])c(F)c([H])c8F)c([H])c7[H])c(C(=O)N([H])[H])c6N([H])[H])C5([H])[H])c(C([H])([H])[H])c([H])c4C([H])([H])C3([H])[H])c([H])c([H])c2C1([H])[H]

$$$$
74:0:0
     RDKit          3D

 94104  0  0  1  0  0  0  0  0999 V2000
  -28.3050  -17.0800   18.0090 C   0  0  0  0  0  3  0  0  0  0  0  0
  -29.0560  -16.0670   18.6730 C   0  0  0  0  0  3  0  0  0  0  0  0
  -28.4650  -18.4500   18.2970 C   0  0  0  0  0  3  0  0  0  0  0  0
  -29.9670  -16.2410   19.7600 C   0  0  0  0  0  0  0  0  0  0  0  0
  -29.3900  -18.7120   19.3000 C   0  0  0  0  0  0  0  0  0  0  0  0
  -30.1090  -17.6750   20.0400 C   0  0  0  0  0  0  0  0  0  0  0  0
  -30.6590  -19.3440   22.0600 C   0  0  0  0  0  2  0  0  0  0  0  0
  -30.3080  -20.8730   21.9210 C   0  0  0  0  0  2  0  0  0  0  0  0
  -30.2140  -19.9120   19.7470 C   0  0  0  0  0  3  0  0  0  0  0  0
  -30.9630  -18.8200   20.6600 C   0  0  0  0  0  3  0  0  0  0  0  0
  -29.5580  -21.1190   20.5690 C   0  0  1  0  0  0  0  0  0  0  0  0
  -28.0480  -20.8830   20.7960 C   0  0  0  0  0  1  0  0  0  0  0  0
  -30.7850  -14.9630   20.2050 C   0  0  0  0  0  0  0  0  0  0  0  0
  -30.6300  -12.6140   19.3530 C   0  0  0  0  0  2  0  0  0  0  0  0
  -29.6870  -12.5410   18.1310 C   0  0  0  0  0  2  0  0  0  0  0  0
  -28.2050  -12.4260   18.5610 C   0  0  0  0  0  2  0  0  0  0  0  0
  -27.8080  -13.3350   19.7580 C   0  0  0  0  0  3  0  0  0  0  0  0
  -28.8910  -13.3760   20.8540 C   0  0  0  0  0  2  0  0  0  0  0  0
  -30.1770  -13.7180   20.2300 N   0  0  0  0  0  0  0  0  0  0  0  0
  -32.0140  -15.0280   20.1250 O   0  0  0  0  0  0  0  0  0  0  0  0
  -25.4420  -13.9280   20.5260 C   0  0  0  0  0  0  0  0  0  0  0  0
  -24.3780  -13.1510   20.8890 C   0  0  0  0  0  0  0  0  0  0  0  0
  -24.8440  -11.8000   20.8460 C   0  0  0  0  0  0  0  0  0  0  0  0
  -26.4820  -13.0450   20.2760 N   0  0  0  0  0  0  0  0  0  0  0  0
  -26.1320  -11.7630   20.5360 N   0  0  0  0  0  0  0  0  0  0  0  0
  -24.1250  -10.5370   21.0240 C   0  0  0  0  0  0  0  0  0  0  0  0
  -24.5540   -9.5720   21.9620 C   0  0  0  0  0  3  0  0  0  0  0  0
  -23.8370   -8.3690   22.1280 C   0  0  0  0  0  3  0  0  0  0  0  0
  -22.6760   -8.1250   21.3560 C   0  0  0  0  0  0  0  0  0  0  0  0
  -22.2670   -9.0780   20.4080 C   0  0  0  0  0  3  0  0  0  0  0  0
  -22.9860  -10.2730   20.2400 C   0  0  0  0  0  3  0  0  0  0  0  0
  -21.9270   -6.9770   21.4350 O   0  0  0  0  0  0  0  0  0  0  0  0
  -21.8440   -6.2530   22.5970 C   0  0  0  0  0  0  0  0  0  0  0  0
  -21.3770   -6.8260   23.8010 C   0  0  0  0  0  3  0  0  0  0  0  0
  -21.2390   -6.0270   24.9520 C   0  0  0  0  0  3  0  0  0  0  0  0
  -21.5590   -4.6570   24.9040 C   0  0  0  0  0  0  0  0  0  0  0  0
  -22.0200   -4.0840   23.7050 C   0  0  0  0  0  3  0  0  0  0  0  0
  -22.1590   -4.8800   22.5550 C   0  0  0  0  0  0  0  0  0  0  0  0
  -22.5830   -4.3190   21.3970 F   0  0  0  0  0  0  0  0  0  0  0  0
  -21.4190   -3.8870   26.0080 F   0  0  0  0  0  0  0  0  0  0  0  0
  -22.9800  -13.6230   21.1650 C   0  0  0  0  0  0  0  0  0  0  0  0
  -22.2550  -12.9220   22.0270 N   0  0  0  0  0  0  0  0  0  0  0  0
  -22.5400  -14.6510   20.6500 O   0  0  0  0  0  0  0  0  0  0  0  0
  -22.6250  -12.0940   22.4690 H   0  0  0  0  0  0  0  0  0  0  0  0
  -21.3160  -13.2210   22.2520 H   0  0  0  0  0  0  0  0  0  0  0  0
  -25.5990  -15.3020   20.3620 N   0  0  0  0  0  0  0  0  0  0  0  0
  -24.8310  -15.9520   20.4880 H   0  0  0  0  0  0  0  0  0  0  0  0
  -26.4510  -15.7520   20.0500 H   0  0  0  0  0  0  0  0  0  0  0  0
  -29.7270  -22.6040   19.9180 C   0  0  0  0  0  0  0  0  0  0  0  0
  -30.3560  -22.6450   18.8570 O   0  0  0  0  0  0  0  0  0  0  0  0
  -28.9250  -24.0940   21.7730 C   0  0  0  0  0  2  0  0  0  0  0  0
  -29.1540  -23.9530   20.4550 C   0  0  0  0  0  0  0  0  0  0  0  0
  -28.8440  -25.1590   19.4580 C   0  0  0  0  0  2  0  0  0  0  0  0
  -28.6930  -26.5680   19.9700 O   0  0  0  0  0  0  0  0  0  0  0  0
  -24.6410  -31.6980   23.0640 C   0  0  0  0  0  0  0  0  0  0  0  0
  -27.5160  -27.3530   19.8850 C   0  0  0  0  0  0  0  0  0  0  0  0
  -23.5250  -30.3010   21.3600 C   0  0  0  0  0  3  0  0  0  0  0  0
  -25.0680  -28.8730   19.8950 C   0  0  0  0  0  0  0  0  0  0  0  0
  -26.0490  -30.7450   21.2200 C   0  0  0  0  0  2  0  0  0  0  0  0
  -26.2040  -29.3920   20.5250 C   0  0  0  0  0  0  0  0  0  0  0  0
  -27.4230  -28.6440   20.5110 C   0  0  0  0  0  3  0  0  0  0  0  0
  -26.3480  -26.8970   19.2300 C   0  0  0  0  0  3  0  0  0  0  0  0
  -25.1430  -27.6340   19.2390 C   0  0  0  0  0  3  0  0  0  0  0  0
  -23.7890  -29.6850   19.9610 C   0  0  0  0  0  2  0  0  0  0  0  0
  -24.7560  -30.9310   21.9390 N   0  0  0  0  0  0  0  0  0  0  0  0
  -23.5380  -31.9010   23.5960 O   0  0  0  0  0  0  0  0  0  0  0  0
  -22.9030  -29.2200   22.2790 C   0  0  0  0  0  0  0  0  0  0  0  0
  -21.5810  -29.0110   22.1590 N   0  0  0  0  0  0  0  0  0  0  0  0
  -23.6090  -28.5770   23.0580 O   0  0  0  0  0  0  0  0  0  0  0  0
  -21.0680  -29.5870   21.5070 H   0  0  0  0  0  0  0  0  0  0  0  0
  -18.2430  -27.7070   22.6580 C   0  0  0  0  0  0  0  0  0  0  0  0
  -20.8000  -28.0130   22.8920 C   0  0  0  0  0  3  0  0  0  0  0  0
  -20.9230  -26.6190   22.2350 C   0  0  0  0  0  2  0  0  0  0  0  0
  -19.8070  -26.3280   21.2260 C   0  0  0  0  0  2  0  0  0  0  0  0
  -18.4370  -26.4020   21.9030 C   0  0  0  0  0  2  0  0  0  0  0  0
  -19.3520  -28.4700   23.1090 C   0  0  0  0  0  0  0  0  0  0  0  0
  -19.1160  -29.6920   23.7760 C   0  0  0  0  0  3  0  0  0  0  0  0
  -17.8040  -30.1500   23.9960 C   0  0  0  0  0  3  0  0  0  0  0  0
  -16.7090  -29.3830   23.5620 C   0  0  0  0  0  3  0  0  0  0  0  0
  -16.9300  -28.1630   22.8990 C   0  0  0  0  0  3  0  0  0  0  0  0
  -25.8830  -32.3720   23.7240 C   0  0  0  0  0  3  0  0  0  0  0  0
  -26.4360  -31.5740   24.9690 C   0  0  1  0  0  0  0  0  0  0  0  0
  -25.3550  -31.2350   26.0210 C   0  0  0  0  0  1  0  0  0  0  0  0
  -27.0880  -30.2460   24.5200 C   0  0  0  0  0  1  0  0  0  0  0  0
  -27.5430  -32.3950   25.6690 C   0  0  0  0  0  1  0  0  0  0  0  0
  -25.4940  -33.7350   24.1190 N   0  0  0  0  0  0  0  0  0  0  0  0
  -25.7680  -34.8400   23.4130 C   0  0  0  0  0  0  0  0  0  0  0  0
  -26.4450  -34.8240   22.3820 O   0  0  0  0  0  0  0  0  0  0  0  0
  -24.8920  -33.8170   24.9250 H   0  0  0  0  0  0  0  0  0  0  0  0
  -23.9440  -36.5500   23.1410 C   0  0  0  0  0  1  0  0  0  0  0  0
  -25.2040  -36.1760   23.9360 C   0  0  0  0  0  3  0  0  0  0  0  0
  -27.2860  -37.1370   24.8170 C   0  0  0  0  0  1  0  0  0  0  0  0
  -26.1770  -37.2890   23.8780 N   0  0  0  0  0  0  0  0  0  0  0  0
  -25.7210  -38.1770   24.0680 H   0  0  0  0  0  0  0  0  0  0  0  0
  1  3  2  0
  1  2  1  0
  2  4  2  0
  3  5  1  0
  4  6  1  0
  4 13  1  0
  5  6  2  0
  6 10  1  0
  8  7  1  0
  9  5  1  0
  9 11  1  0
  9 10  1  0
 10  7  1  0
 11 12  1  1
 11  8  1  0
 13 19  1  0
 14 19  1  0
 15 16  1  0
 15 14  1  0
 17 16  1  0
 17 24  1  0
 17 18  1  0
 19 18  1  0
 20 13  2  0
 21 22  2  0
 22 41  1  0
 23 22  1  0
 23 26  1  0
 24 21  1  0
 24 25  1  0
 25 23  2  0
 26 27  1  0
 27 28  2  0
 29 32  1  0
 29 28  1  0
 30 29  2  0
 31 30  1  0
 31 26  2  0
 32 33  1  0
 33 34  1  0
 34 35  2  0
 36 35  1  0
 36 40  1  0
 37 36  2  0
 38 33  2  0
 38 37  1  0
 39 38  1  0
 41 42  1  0
 42 45  1  0
 42 44  1  0
 43 41  2  0
 46 47  1  0
 46 21  1  0
 48 46  1  0
 49 52  1  0
 49 11  1  0
 50 49  2  0
 52 51  2  0
 53 54  1  0
 53 52  1  0
 55 66  2  0
 56 54  1  0
 56 61  1  0
 57 65  1  0
 57 67  1  0
 58 64  1  0
 58 60  1  0
 59 65  1  0
 60 59  1  0
 61 60  2  0
 62 63  1  0
 62 56  2  0
 63 58  2  0
 64 57  1  0
 65 55  1  0
 67 69  2  0
 68 67  1  0
 70 68  1  0
 71 80  2  0
 71 76  1  0
 72 68  1  0
 72 76  1  0
 73 72  1  0
 74 75  1  0
 74 73  1  0
 75 71  1  0
 76 77  2  0
 77 78  1  0
 79 78  2  0
 80 79  1  0
 81 55  1  0
 81 86  1  0
 81 82  1  0
 82 85  1  1
 82 83  1  0
 84 82  1  0
 86 89  1  0
 87 91  1  0
 87 86  1  0
 88 87  2  0
 91 90  1  0
 93 91  1  0
 93 94  1  0
 93 92  1  0
M  ISO  4   4 100  13 100  53 101  54 101
M  END
>  <TORSDO>  (75) 
F 19

>  <SCORE>  (75) 
-13.237

>  <name>  (75) 
74

>  <ligand_id>  (75) 
74

>  <original_smiles>  (75) 
[H]C([H])=C(C(=O)C1(C([H])([H])[H])C([H])([H])C([H])([H])C2([H])c3c(C(=O)N4C([H])([H])C([H])([H])C([H])([H])C([H])(n5nc(-c6c([H])c([H])c(Oc7c([H])c([H])c(F)c([H])c7F)c([H])c6[H])c(C(=O)N([H])[H])c5N([H])[H])C4([H])[H])c([H])c([H])c([H])c3C21[H])C([H])([H])Oc1c([H])c([H])c2c(c1[H])C([H])([H])N(C(=O)C([H])(N([H])C(=O)C([H])(N([H])C([H])([H])[H])C([H])([H])[H])C(C([H])([H])[H])(C([H])([H])[H])C([H])([H])[H])C([H])(C(=O)N([H])C1([H])c3c([H])c([H])c([H])c([H])c3C([H])([H])C([H])([H])C1([H])[H])C2([H])[H]

>  <smiles>  (75) 
[H]C([H])=C(C(=O)C1(C([H])([H])[H])C([H])([H])C([H])([H])C2([H])c3c(C(=O)N4C([H])([H])C([H])([H])C([H])([H])C([H])(n5nc(-c6c([H])c([H])c(Oc7c([H])c([H])c(F)c([H])c7F)c([H])c6[H])c(C(=O)N([H])[H])c5N([H])[H])C4([H])[H])c([H])c([H])c([H])c3C21[H])C([H])([H])Oc1c([H])c([H])c2c(c1[H])C([H])([H])N(C(=O)C([H])(N([H])C(=O)C([H])(N([H])C([H])([H])[H])C([H])([H])[H])C(C([H])([H])[H])(C([H])([H])[H])C([H])([H])[H])C([H])(C(=O)N([H])C1([H])c3c([H])c([H])c([H])c([H])c3C([H])([H])C([H])([H])C1([H])[H])C2([H])[H]

$$$$
75:0:0
     RDKit          3D

 92101  0  0  1  0  0  0  0  0999 V2000
  -27.5890  -23.7230   22.4990 C   0  0  0  0  0  3  0  0  0  0  0  0
  -28.0580  -22.5600   21.8540 C   0  0  0  0  0  3  0  0  0  0  0  0
  -27.6830  -24.9940   21.8920 C   0  0  0  0  0  3  0  0  0  0  0  0
  -28.7340  -23.9430   19.9700 C   0  0  0  0  0  3  0  0  0  0  0  0
  -28.6560  -22.6170   20.5770 C   0  0  0  0  0  0  0  0  0  0  0  0
  -28.2420  -25.1550   20.6060 C   0  0  0  0  0  0  0  0  0  0  0  0
  -28.3560  -19.0010   19.1070 C   0  0  0  0  0  2  0  0  0  0  0  0
  -27.9250  -20.4820   19.2670 C   0  0  0  0  0  2  0  0  0  0  0  0
  -29.7700  -20.0540   20.7540 C   0  0  0  0  0  2  0  0  0  0  0  0
  -29.1470  -18.6300   20.3730 C   0  0  0  0  0  3  0  0  0  0  0  0
  -29.1080  -21.2460   19.8960 C   0  0  2  0  0  0  0  0  0  0  0  0
  -29.7730  -16.0210   20.5650 C   0  0  0  0  0  3  0  0  0  0  0  0
  -30.0530  -17.3310   20.2030 C   0  0  0  0  0  3  0  0  0  0  0  0
  -30.6550  -14.8190   20.3020 C   0  0  0  0  0  0  0  0  0  0  0  0
  -30.5150  -12.5240   19.3270 C   0  0  0  0  0  2  0  0  0  0  0  0
  -29.5770  -12.5810   18.0990 C   0  0  0  0  0  2  0  0  0  0  0  0
  -28.1040  -12.4070   18.5180 C   0  0  0  0  0  2  0  0  0  0  0  0
  -27.7210  -13.2900   19.7350 C   0  0  0  0  0  3  0  0  0  0  0  0
  -28.7750  -13.1900   20.8570 C   0  0  0  0  0  2  0  0  0  0  0  0
  -30.0720  -13.5690   20.2800 N   0  0  0  0  0  0  0  0  0  0  0  0
  -31.8340  -14.9300   19.9500 O   0  0  0  0  0  0  0  0  0  0  0  0
  -25.3280  -13.8730   20.4560 C   0  0  0  0  0  0  0  0  0  0  0  0
  -24.2660  -13.0940   20.8260 C   0  0  0  0  0  0  0  0  0  0  0  0
  -24.7360  -11.7450   20.7990 C   0  0  0  0  0  0  0  0  0  0  0  0
  -26.3760  -12.9980   20.2210 N   0  0  0  0  0  0  0  0  0  0  0  0
  -26.0270  -11.7140   20.4900 N   0  0  0  0  0  0  0  0  0  0  0  0
  -24.0160  -10.4790   20.9900 C   0  0  0  0  0  0  0  0  0  0  0  0
  -24.4400   -9.5250   21.9420 C   0  0  0  0  0  3  0  0  0  0  0  0
  -23.7200   -8.3250   22.1220 C   0  0  0  0  0  3  0  0  0  0  0  0
  -22.5620   -8.0700   21.3490 C   0  0  0  0  0  0  0  0  0  0  0  0
  -22.1580   -9.0110   20.3880 C   0  0  0  0  0  3  0  0  0  0  0  0
  -22.8780  -10.2040   20.2070 C   0  0  0  0  0  3  0  0  0  0  0  0
  -21.8160   -6.9190   21.4380 O   0  0  0  0  0  0  0  0  0  0  0  0
  -21.7330   -6.2030   22.6040 C   0  0  0  0  0  0  0  0  0  0  0  0
  -21.2570   -6.7790   23.8020 C   0  0  0  0  0  3  0  0  0  0  0  0
  -21.1240   -5.9870   24.9600 C   0  0  0  0  0  3  0  0  0  0  0  0
  -21.4570   -4.6190   24.9210 C   0  0  0  0  0  0  0  0  0  0  0  0
  -21.9230   -4.0430   23.7270 C   0  0  0  0  0  3  0  0  0  0  0  0
  -22.0600   -4.8310   22.5710 C   0  0  0  0  0  0  0  0  0  0  0  0
  -22.4900   -4.2660   21.4180 F   0  0  0  0  0  0  0  0  0  0  0  0
  -21.3210   -3.8550   26.0300 F   0  0  0  0  0  0  0  0  0  0  0  0
  -22.8650  -13.5640   21.0930 C   0  0  0  0  0  0  0  0  0  0  0  0
  -22.1390  -12.8670   21.9610 N   0  0  0  0  0  0  0  0  0  0  0  0
  -22.4230  -14.5850   20.5700 O   0  0  0  0  0  0  0  0  0  0  0  0
  -22.5090  -12.0420   22.4090 H   0  0  0  0  0  0  0  0  0  0  0  0
  -21.1990  -13.1640   22.1810 H   0  0  0  0  0  0  0  0  0  0  0  0
  -25.4850  -15.2450   20.2770 N   0  0  0  0  0  0  0  0  0  0  0  0
  -24.7180  -15.8960   20.3960 H   0  0  0  0  0  0  0  0  0  0  0  0
  -26.3350  -15.6870   19.9480 H   0  0  0  0  0  0  0  0  0  0  0  0
  -30.0190  -21.5010   18.8450 O   0  0  0  0  0  0  0  0  0  0  0  0
  -29.5750  -22.0600   18.2180 H   0  0  0  0  0  0  0  0  0  0  0  0
  -28.3340  -26.4730   20.0680 O   0  0  0  0  0  0  0  0  0  0  0  0
  -24.6290  -31.9030   23.1630 C   0  0  0  0  0  0  0  0  0  0  0  0
  -27.2300  -27.3470   20.0830 C   0  0  0  0  0  0  0  0  0  0  0  0
  -23.4170  -30.5070   21.5240 C   0  0  0  0  0  3  0  0  0  0  0  0
  -24.8640  -28.9620   20.0830 C   0  0  0  0  0  0  0  0  0  0  0  0
  -25.9550  -30.8300   21.3250 C   0  0  0  0  0  2  0  0  0  0  0  0
  -26.0360  -29.4500   20.6770 C   0  0  0  0  0  0  0  0  0  0  0  0
  -27.2230  -28.6530   20.6690 C   0  0  0  0  0  3  0  0  0  0  0  0
  -26.0400  -26.9140   19.4630 C   0  0  0  0  0  3  0  0  0  0  0  0
  -24.8680  -27.7000   19.4650 C   0  0  0  0  0  3  0  0  0  0  0  0
  -23.6260  -29.8360   20.1400 C   0  0  0  0  0  2  0  0  0  0  0  0
  -24.6860  -31.0990   22.0600 N   0  0  0  0  0  0  0  0  0  0  0  0
  -23.5480  -32.1770   23.7060 O   0  0  0  0  0  0  0  0  0  0  0  0
  -22.7630  -29.4880   22.4870 C   0  0  0  0  0  0  0  0  0  0  0  0
  -21.4350  -29.3090   22.3700 N   0  0  0  0  0  0  0  0  0  0  0  0
  -23.4490  -28.8570   23.2950 O   0  0  0  0  0  0  0  0  0  0  0  0
  -20.9410  -29.8670   21.6890 H   0  0  0  0  0  0  0  0  0  0  0  0
  -18.0640  -28.1090   22.8970 C   0  0  0  0  0  0  0  0  0  0  0  0
  -20.6250  -28.3670   23.1450 C   0  0  0  0  0  3  0  0  0  0  0  0
  -20.7220  -26.9400   22.5600 C   0  0  0  0  0  2  0  0  0  0  0  0
  -19.6120  -26.6210   21.5550 C   0  0  0  0  0  2  0  0  0  0  0  0
  -18.2360  -26.7630   22.2120 C   0  0  0  0  0  2  0  0  0  0  0  0
  -19.1860  -28.8690   23.3210 C   0  0  0  0  0  0  0  0  0  0  0  0
  -18.9720  -30.1280   23.9220 C   0  0  0  0  0  3  0  0  0  0  0  0
  -17.6680  -30.6270   24.1030 C   0  0  0  0  0  3  0  0  0  0  0  0
  -16.5610  -29.8640   23.6950 C   0  0  0  0  0  3  0  0  0  0  0  0
  -16.7600  -28.6070   23.0980 C   0  0  0  0  0  3  0  0  0  0  0  0
  -25.9140  -32.5380   23.7770 C   0  0  0  0  0  3  0  0  0  0  0  0
  -26.4520  -31.7520   25.0370 C   0  0  1  0  0  0  0  0  0  0  0  0
  -25.3700  -31.4790   26.1080 C   0  0  0  0  0  1  0  0  0  0  0  0
  -27.0540  -30.3900   24.6200 C   0  0  0  0  0  1  0  0  0  0  0  0
  -27.5950  -32.5530   25.7040 C   0  0  0  0  0  1  0  0  0  0  0  0
  -25.5990  -33.9290   24.1310 N   0  0  0  0  0  0  0  0  0  0  0  0
  -25.9170  -34.9960   23.3860 C   0  0  0  0  0  0  0  0  0  0  0  0
  -26.5770  -34.9120   22.3460 O   0  0  0  0  0  0  0  0  0  0  0  0
  -25.0120  -34.0670   24.9410 H   0  0  0  0  0  0  0  0  0  0  0  0
  -24.1770  -36.7840   23.0760 C   0  0  0  0  0  1  0  0  0  0  0  0
  -25.4270  -36.3740   23.8700 C   0  0  0  0  0  3  0  0  0  0  0  0
  -27.5670  -37.2530   24.6930 C   0  0  0  0  0  1  0  0  0  0  0  0
  -26.4510  -37.4360   23.7670 N   0  0  0  0  0  0  0  0  0  0  0  0
  -26.0420  -38.3490   23.9430 H   0  0  0  0  0  0  0  0  0  0  0  0
  2  1  2  0
  3  1  1  0
  4  5  2  0
  4  6  1  0
  5  2  1  0
  6  3  2  0
  7  8  1  0
  7 10  1  0
  8 11  1  0
 10 13  1  0
 10  9  1  0
 11 50  1  6
 11  5  1  0
 11  9  1  0
 13 12  2  0
 14 12  1  0
 15 20  1  0
 16 17  1  0
 16 15  1  0
 18 17  1  0
 18 25  1  0
 18 19  1  0
 20 14  1  0
 20 19  1  0
 21 14  2  0
 22 23  2  0
 23 42  1  0
 24 23  1  0
 24 27  1  0
 25 22  1  0
 25 26  1  0
 26 24  2  0
 27 28  1  0
 28 29  2  0
 30 33  1  0
 30 29  1  0
 31 30  2  0
 32 31  1  0
 32 27  2  0
 33 34  1  0
 34 35  1  0
 35 36  2  0
 37 36  1  0
 37 41  1  0
 38 37  2  0
 39 34  2  0
 39 38  1  0
 40 39  1  0
 42 43  1  0
 43 46  1  0
 43 45  1  0
 44 42  2  0
 47 48  1  0
 47 22  1  0
 49 47  1  0
 51 50  1  0
 52 54  1  0
 52  6  1  0
 53 64  2  0
 54 59  1  0
 55 63  1  0
 55 65  1  0
 56 62  1  0
 56 58  1  0
 57 63  1  0
 58 57  1  0
 59 58  2  0
 60 61  1  0
 60 54  2  0
 61 56  2  0
 62 55  1  0
 63 53  1  0
 65 67  2  0
 66 65  1  0
 68 66  1  0
 69 78  2  0
 69 74  1  0
 70 66  1  0
 70 74  1  0
 71 70  1  0
 72 73  1  0
 72 71  1  0
 73 69  1  0
 74 75  2  0
 75 76  1  0
 77 76  2  0
 78 77  1  0
 79 53  1  0
 79 84  1  0
 79 80  1  0
 80 83  1  1
 80 81  1  0
 82 80  1  0
 84 87  1  0
 85 89  1  0
 85 84  1  0
 86 85  2  0
 89 88  1  0
 91 89  1  0
 91 92  1  0
 91 90  1  0
M  ISO  4   6 101  12 100  14 100  52 101
M  END
>  <TORSDO>  (76) 
F 19

>  <SCORE>  (76) 
-14.097

>  <name>  (76) 
75

>  <ligand_id>  (76) 
75

>  <original_smiles>  (76) 
[H]OC1(c2c([H])c([H])c([H])c(Oc3c([H])c([H])c4c(c3[H])C([H])([H])N(C(=O)C([H])(N([H])C(=O)C([H])(N([H])C([H])([H])[H])C([H])([H])[H])C(C([H])([H])[H])(C([H])([H])[H])C([H])([H])[H])C([H])(C(=O)N([H])C3([H])c5c([H])c([H])c([H])c([H])c5C([H])([H])C([H])([H])C3([H])[H])C4([H])[H])c2[H])C([H])([H])C([H])([H])C([H])(C([H])=C([H])C(=O)N2C([H])([H])C([H])([H])C([H])([H])C([H])(n3nc(-c4c([H])c([H])c(Oc5c([H])c([H])c(F)c([H])c5F)c([H])c4[H])c(C(=O)N([H])[H])c3N([H])[H])C2([H])[H])C1([H])[H]

>  <smiles>  (76) 
[H]OC1(c2c([H])c([H])c([H])c(Oc3c([H])c([H])c4c(c3[H])C([H])([H])N(C(=O)C([H])(N([H])C(=O)C([H])(N([H])C([H])([H])[H])C([H])([H])[H])C(C([H])([H])[H])(C([H])([H])[H])C([H])([H])[H])C([H])(C(=O)N([H])C3([H])c5c([H])c([H])c([H])c([H])c5C([H])([H])C([H])([H])C3([H])[H])C4([H])[H])c2[H])C([H])([H])C([H])([H])C([H])(C([H])=C([H])C(=O)N2C([H])([H])C([H])([H])C([H])([H])C([H])(n3nc(-c4c([H])c([H])c(Oc5c([H])c([H])c(F)c([H])c5F)c([H])c4[H])c(C(=O)N([H])[H])c3N([H])[H])C2([H])[H])C1([H])[H]

$$$$
76:0:0
     RDKit          3D

 90 98  0  0  1  0  0  0  0  0999 V2000
  -28.8480  -21.6370   18.3880 C   0  0  0  0  0  3  0  0  0  0  0  0
  -28.5520  -22.8380   17.6920 C   0  0  0  0  0  3  0  0  0  0  0  0
  -28.9540  -21.5540   19.7920 C   0  0  0  0  0  0  0  0  0  0  0  0
  -28.3340  -24.1200   18.2790 C   0  0  0  0  0  0  0  0  0  0  0  0
  -28.6770  -22.9820   20.3890 C   0  0  0  0  0  0  0  0  0  0  0  0
  -28.3520  -24.3450   19.6850 C   0  0  0  0  0  0  0  0  0  0  0  0
  -28.1340  -25.2810   17.3130 C   0  0  0  0  0  1  0  0  0  0  0  0
  -28.7510  -23.0680   21.8990 C   0  0  0  0  0  1  0  0  0  0  0  0
  -29.2290  -19.9280   20.4050 C   0  0  0  0  0  0  0  0  0  0  0  0
  -28.8770  -19.7620   21.5760 O   0  0  0  0  0  0  0  0  0  0  0  0
  -29.9260  -18.4290   19.7320 C   0  0  0  0  0  2  0  0  0  0  0  0
  -30.5140  -15.4750   19.9510 C   0  0  0  0  0  0  0  0  0  0  0  0
  -30.4710  -13.0070   19.0880 C   0  0  0  0  0  2  0  0  0  0  0  0
  -29.5050  -12.7730   17.8970 C   0  0  0  0  0  2  0  0  0  0  0  0
  -28.0830  -12.4830   18.4010 C   0  0  0  0  0  2  0  0  0  0  0  0
  -27.6710  -13.4520   19.5340 C   0  0  0  0  0  3  0  0  0  0  0  0
  -28.7610  -13.6220   20.6170 C   0  0  0  0  0  2  0  0  0  0  0  0
  -29.9550  -14.1540   19.9370 N   0  0  0  0  0  0  0  0  0  0  0  0
  -31.7140  -15.4560   19.6300 O   0  0  0  0  0  0  0  0  0  0  0  0
  -29.7740  -16.7730   20.1220 N   0  0  0  0  0  0  0  0  0  0  0  0
  -28.8350  -16.5880   20.4480 H   0  0  0  0  0  0  0  0  0  0  0  0
  -25.3370  -14.0110   20.3810 C   0  0  0  0  0  0  0  0  0  0  0  0
  -24.2880  -13.2360   20.7880 C   0  0  0  0  0  0  0  0  0  0  0  0
  -24.7490  -11.8840   20.7340 C   0  0  0  0  0  0  0  0  0  0  0  0
  -26.3660  -13.1330   20.0950 N   0  0  0  0  0  0  0  0  0  0  0  0
  -26.0280  -11.8470   20.3760 N   0  0  0  0  0  0  0  0  0  0  0  0
  -24.0250  -10.6240   20.9480 C   0  0  0  0  0  0  0  0  0  0  0  0
  -24.4770   -9.6570   21.8730 C   0  0  0  0  0  3  0  0  0  0  0  0
  -23.7490   -8.4640   22.0750 C   0  0  0  0  0  3  0  0  0  0  0  0
  -22.5560   -8.2290   21.3510 C   0  0  0  0  0  0  0  0  0  0  0  0
  -22.1230   -9.1850   20.4160 C   0  0  0  0  0  3  0  0  0  0  0  0
  -22.8500  -10.3690   20.2120 C   0  0  0  0  0  3  0  0  0  0  0  0
  -21.7980   -7.0880   21.4630 O   0  0  0  0  0  0  0  0  0  0  0  0
  -21.7680   -6.3540   22.6220 C   0  0  0  0  0  0  0  0  0  0  0  0
  -21.3400   -6.9130   23.8460 C   0  0  0  0  0  3  0  0  0  0  0  0
  -21.2600   -6.1060   24.9980 C   0  0  0  0  0  3  0  0  0  0  0  0
  -21.5950   -4.7400   24.9270 C   0  0  0  0  0  0  0  0  0  0  0  0
  -22.0160   -4.1810   23.7070 C   0  0  0  0  0  3  0  0  0  0  0  0
  -22.0980   -4.9860   22.5570 C   0  0  0  0  0  0  0  0  0  0  0  0
  -22.4840   -4.4370   21.3800 F   0  0  0  0  0  0  0  0  0  0  0  0
  -21.5100   -3.9620   26.0310 F   0  0  0  0  0  0  0  0  0  0  0  0
  -22.9020  -13.7180   21.1060 C   0  0  0  0  0  0  0  0  0  0  0  0
  -22.2040  -13.0260   21.9990 N   0  0  0  0  0  0  0  0  0  0  0  0
  -22.4520  -14.7440   20.5990 O   0  0  0  0  0  0  0  0  0  0  0  0
  -22.5820  -12.1950   22.4260 H   0  0  0  0  0  0  0  0  0  0  0  0
  -21.2790  -13.3360   22.2610 H   0  0  0  0  0  0  0  0  0  0  0  0
  -25.4970  -15.3820   20.1990 N   0  0  0  0  0  0  0  0  0  0  0  0
  -24.7370  -16.0380   20.3410 H   0  0  0  0  0  0  0  0  0  0  0  0
  -26.3220  -15.8120   19.8000 H   0  0  0  0  0  0  0  0  0  0  0  0
  -28.2620  -25.8360   20.1460 O   0  0  0  0  0  0  0  0  0  0  0  0
  -24.6620  -31.8430   23.0930 C   0  0  0  0  0  0  0  0  0  0  0  0
  -27.2500  -26.9540   20.0390 C   0  0  0  0  0  0  0  0  0  0  0  0
  -23.4810  -30.4520   21.4410 C   0  0  0  0  0  3  0  0  0  0  0  0
  -24.9420  -28.8560   20.0090 C   0  0  0  0  0  0  0  0  0  0  0  0
  -26.0490  -30.6630   21.3060 C   0  0  0  0  0  2  0  0  0  0  0  0
  -26.1290  -29.2530   20.6350 C   0  0  0  0  0  0  0  0  0  0  0  0
  -27.2720  -28.3250   20.6250 C   0  0  0  0  0  3  0  0  0  0  0  0
  -26.0230  -26.7170   19.3770 C   0  0  0  0  0  3  0  0  0  0  0  0
  -24.9160  -27.6100   19.3610 C   0  0  0  0  0  3  0  0  0  0  0  0
  -23.7200  -29.7780   20.0610 C   0  0  0  0  0  2  0  0  0  0  0  0
  -24.7530  -31.0160   22.0000 N   0  0  0  0  0  0  0  0  0  0  0  0
  -23.5690  -32.1220   23.6140 O   0  0  0  0  0  0  0  0  0  0  0  0
  -22.7870  -29.4490   22.4010 C   0  0  0  0  0  0  0  0  0  0  0  0
  -21.4580  -29.2780   22.2740 N   0  0  0  0  0  0  0  0  0  0  0  0
  -23.4530  -28.8240   23.2310 O   0  0  0  0  0  0  0  0  0  0  0  0
  -20.9720  -29.8320   21.5830 H   0  0  0  0  0  0  0  0  0  0  0  0
  -18.0860  -28.0260   22.7540 C   0  0  0  0  0  0  0  0  0  0  0  0
  -20.6400  -28.3290   23.0370 C   0  0  0  0  0  3  0  0  0  0  0  0
  -20.7660  -26.8990   22.4620 C   0  0  0  0  0  2  0  0  0  0  0  0
  -19.6770  -26.5620   21.4390 C   0  0  0  0  0  2  0  0  0  0  0  0
  -18.2890  -26.6830   22.0720 C   0  0  0  0  0  2  0  0  0  0  0  0
  -19.1890  -28.8060   23.1920 C   0  0  0  0  0  0  0  0  0  0  0  0
  -18.9420  -30.0600   23.7930 C   0  0  0  0  0  3  0  0  0  0  0  0
  -17.6270  -30.5350   23.9560 C   0  0  0  0  0  3  0  0  0  0  0  0
  -16.5390  -29.7540   23.5310 C   0  0  0  0  0  3  0  0  0  0  0  0
  -16.7690  -28.5010   22.9360 C   0  0  0  0  0  3  0  0  0  0  0  0
  -25.9260  -32.4910   23.7370 C   0  0  0  0  0  3  0  0  0  0  0  0
  -25.5970  -33.8870   24.0830 N   0  0  0  0  0  0  0  0  0  0  0  0
  -25.9320  -34.9590   23.3540 C   0  0  0  0  0  0  0  0  0  0  0  0
  -26.6110  -34.8800   22.3280 O   0  0  0  0  0  0  0  0  0  0  0  0
  -24.9980  -34.0230   24.8840 H   0  0  0  0  0  0  0  0  0  0  0  0
  -24.2100  -36.7670   23.0190 C   0  0  0  0  0  1  0  0  0  0  0  0
  -25.4390  -36.3390   23.8380 C   0  0  0  0  0  3  0  0  0  0  0  0
  -27.5550  -37.2160   24.7270 C   0  0  0  0  0  1  0  0  0  0  0  0
  -26.4720  -37.3960   23.7640 N   0  0  0  0  0  0  0  0  0  0  0  0
  -26.0610  -38.3130   23.9180 H   0  0  0  0  0  0  0  0  0  0  0  0
  -26.4310  -31.7220   25.0200 C   0  0  1  0  0  0  0  0  0  0  0  0
  -25.3270  -31.4800   26.0780 C   0  0  0  0  0  1  0  0  0  0  0  0
  -27.0250  -30.3460   24.6430 C   0  0  0  0  0  1  0  0  0  0  0  0
  -27.5720  -32.5210   25.6950 C   0  0  0  0  0  1  0  0  0  0  0  0
  1  3  1  0
  2  4  1  0
  2  1  2  0
  3  5  2  0
  3  9  1  0
  4  6  2  0
  5  8  1  0
  6 50  1  0
  6  5  1  0
  7  4  1  0
  9 10  2  0
 11 20  1  0
 11  9  1  0
 12 20  1  0
 13 18  1  0
 14 15  1  0
 14 13  1  0
 16 15  1  0
 16 25  1  0
 16 17  1  0
 18 12  1  0
 18 17  1  0
 19 12  2  0
 20 21  1  0
 22 23  2  0
 23 42  1  0
 24 23  1  0
 24 27  1  0
 25 26  1  0
 25 22  1  0
 26 24  2  0
 27 28  1  0
 28 29  2  0
 30 33  1  0
 30 29  1  0
 31 30  2  0
 32 31  1  0
 32 27  2  0
 33 34  1  0
 34 35  1  0
 35 36  2  0
 37 36  1  0
 37 41  1  0
 38 37  2  0
 39 34  2  0
 39 38  1  0
 40 39  1  0
 42 43  1  0
 43 46  1  0
 43 45  1  0
 44 42  2  0
 47 48  1  0
 47 22  1  0
 49 47  1  0
 51 62  2  0
 52 50  1  0
 52 57  1  0
 53 61  1  0
 53 63  1  0
 54 60  1  0
 54 56  1  0
 55 61  1  0
 56 55  1  0
 57 56  2  0
 58 52  2  0
 59 58  1  0
 59 54  2  0
 60 53  1  0
 61 51  1  0
 63 65  2  0
 64 63  1  0
 66 64  1  0
 67 76  2  0
 67 72  1  0
 68 64  1  0
 68 72  1  0
 69 68  1  0
 70 71  1  0
 70 69  1  0
 71 67  1  0
 72 73  2  0
 73 74  1  0
 75 74  2  0
 76 75  1  0
 77 51  1  0
 77 78  1  0
 77 87  1  0
 78 81  1  0
 79 83  1  0
 79 78  1  0
 80 79  2  0
 83 82  1  0
 85 83  1  0
 85 86  1  0
 85 84  1  0
 87 90  1  1
 87 88  1  0
 89 87  1  0
M  ISO  4   6 101  12 100  20 100  50 101
M  END
>  <TORSDO>  (77) 
F 18

>  <SCORE>  (77) 
-15.232

>  <name>  (77) 
76

>  <ligand_id>  (77) 
76

>  <original_smiles>  (77) 
[H]c1c([H])c([H])c2c(c1[H])C([H])([H])C([H])([H])C([H])([H])C2([H])N([H])C(=O)C1([H])N(C(=O)C([H])(N([H])C(=O)C([H])(N([H])C([H])([H])[H])C([H])([H])[H])C(C([H])([H])[H])(C([H])([H])[H])C([H])([H])[H])C([H])([H])c2c([H])c(Oc3c(C([H])([H])[H])c([H])c([H])c(C(=O)C([H])([H])N([H])C(=O)N4C([H])([H])C([H])([H])C([H])([H])C([H])(n5nc(-c6c([H])c([H])c(Oc7c([H])c([H])c(F)c([H])c7F)c([H])c6[H])c(C(=O)N([H])[H])c5N([H])[H])C4([H])[H])c3C([H])([H])[H])c([H])c([H])c2C1([H])[H]

>  <smiles>  (77) 
[H]c1c([H])c([H])c2c(c1[H])C([H])([H])C([H])([H])C([H])([H])C2([H])N([H])C(=O)C1([H])N(C(=O)C([H])(N([H])C(=O)C([H])(N([H])C([H])([H])[H])C([H])([H])[H])C(C([H])([H])[H])(C([H])([H])[H])C([H])([H])[H])C([H])([H])c2c([H])c(Oc3c(C([H])([H])[H])c([H])c([H])c(C(=O)C([H])([H])N([H])C(=O)N4C([H])([H])C([H])([H])C([H])([H])C([H])(n5nc(-c6c([H])c([H])c(Oc7c([H])c([H])c(F)c([H])c7F)c([H])c6[H])c(C(=O)N([H])[H])c5N([H])[H])C4([H])[H])c3C([H])([H])[H])c([H])c([H])c2C1([H])[H]

$$$$
77:0:0
     RDKit          3D

 96105  0  0  1  0  0  0  0  0999 V2000
  -29.3050  -24.5580   22.0180 C   0  0  0  0  0  3  0  0  0  0  0  0
  -30.0100  -26.1080   19.8020 C   0  0  0  0  0  3  0  0  0  0  0  0
  -30.6160  -24.4660   21.4970 C   0  0  0  0  0  0  0  0  0  0  0  0
  -28.3310  -25.3890   21.4150 C   0  0  0  0  0  0  0  0  0  0  0  0
  -30.9790  -25.2730   20.3930 C   0  0  0  0  0  0  0  0  0  0  0  0
  -28.6840  -26.1500   20.2720 C   0  0  0  0  0  0  0  0  0  0  0  0
  -26.9240  -25.3890   21.9830 C   0  0  0  0  0  1  0  0  0  0  0  0
  -32.3750  -25.2390   19.7900 C   0  0  0  0  0  1  0  0  0  0  0  0
  -27.8040  -26.7910   19.4320 O   0  0  0  0  0  0  0  0  0  0  0  0
  -24.4670  -31.8490   23.2920 C   0  0  0  0  0  0  0  0  0  0  0  0
  -26.6850  -27.4920   19.8010 C   0  0  0  0  0  0  0  0  0  0  0  0
  -23.0730  -30.5560   21.7070 C   0  0  0  0  0  3  0  0  0  0  0  0
  -24.3480  -29.0440   20.1050 C   0  0  0  0  0  0  0  0  0  0  0  0
  -25.5810  -30.8560   21.3030 C   0  0  0  0  0  2  0  0  0  0  0  0
  -25.5700  -29.5050   20.6170 C   0  0  0  0  0  0  0  0  0  0  0  0
  -26.7440  -28.7300   20.4780 C   0  0  0  0  0  3  0  0  0  0  0  0
  -25.4510  -27.0400   19.2930 C   0  0  0  0  0  3  0  0  0  0  0  0
  -24.2800  -27.8040   19.4470 C   0  0  0  0  0  3  0  0  0  0  0  0
  -23.1410  -29.9350   20.2880 C   0  0  0  0  0  2  0  0  0  0  0  0
  -24.3970  -31.0990   22.1580 N   0  0  0  0  0  0  0  0  0  0  0  0
  -23.4490  -32.1240   23.9400 O   0  0  0  0  0  0  0  0  0  0  0  0
  -22.4820  -29.5080   22.6780 C   0  0  0  0  0  0  0  0  0  0  0  0
  -21.1740  -29.2360   22.5420 N   0  0  0  0  0  0  0  0  0  0  0  0
  -23.1940  -28.9400   23.5090 O   0  0  0  0  0  0  0  0  0  0  0  0
  -20.6550  -29.7480   21.8440 H   0  0  0  0  0  0  0  0  0  0  0  0
  -17.9360  -27.6680   22.8670 C   0  0  0  0  0  0  0  0  0  0  0  0
  -20.4110  -28.2590   23.3180 C   0  0  0  0  0  3  0  0  0  0  0  0
  -20.7340  -26.8170   22.8680 C   0  0  0  0  0  2  0  0  0  0  0  0
  -19.7700  -26.2890   21.7990 C   0  0  0  0  0  2  0  0  0  0  0  0
  -18.3290  -26.3080   22.3180 C   0  0  0  0  0  2  0  0  0  0  0  0
  -18.9150  -28.5910   23.3230 C   0  0  0  0  0  0  0  0  0  0  0  0
  -18.4970  -29.8550   23.7930 C   0  0  0  0  0  3  0  0  0  0  0  0
  -17.1330  -30.2020   23.8110 C   0  0  0  0  0  3  0  0  0  0  0  0
  -16.1670  -29.2770   23.3750 C   0  0  0  0  0  3  0  0  0  0  0  0
  -16.5700  -28.0130   22.9090 C   0  0  0  0  0  3  0  0  0  0  0  0
  -25.8240  -32.4150   23.8160 C   0  0  0  0  0  3  0  0  0  0  0  0
  -25.6010  -33.8150   24.1950 N   0  0  0  0  0  0  0  0  0  0  0  0
  -25.8940  -34.8690   23.4220 C   0  0  0  0  0  0  0  0  0  0  0  0
  -26.4520  -34.7600   22.3260 O   0  0  0  0  0  0  0  0  0  0  0  0
  -25.1020  -33.9730   25.0590 H   0  0  0  0  0  0  0  0  0  0  0  0
  -24.2050  -36.7240   23.2680 C   0  0  0  0  0  1  0  0  0  0  0  0
  -25.5050  -36.2630   23.9450 C   0  0  0  0  0  3  0  0  0  0  0  0
  -27.7430  -37.0610   24.5660 C   0  0  0  0  0  1  0  0  0  0  0  0
  -26.5590  -37.2810   23.7400 N   0  0  0  0  0  0  0  0  0  0  0  0
  -26.2040  -38.2120   23.9400 H   0  0  0  0  0  0  0  0  0  0  0  0
  -26.4140  -31.5940   25.0260 C   0  0  1  0  0  0  0  0  0  0  0  0
  -25.4030  -31.3790   26.1760 C   0  0  0  0  0  1  0  0  0  0  0  0
  -26.9090  -30.2040   24.5560 C   0  0  0  0  0  1  0  0  0  0  0  0
  -27.6450  -32.3290   25.6050 C   0  0  0  0  0  1  0  0  0  0  0  0
  -31.6030  -23.4820   22.1160 C   0  0  0  0  0  2  0  0  0  0  0  0
  -31.7890  -22.1960   21.2760 C   0  0  0  0  0  2  0  0  0  0  0  0
  -30.8010  -21.0740   21.6480 C   0  0  0  0  0  2  0  0  0  0  0  0
  -30.7800  -19.8690   20.6780 C   0  0  0  0  0  2  0  0  0  0  0  0
  -31.3260  -17.9330   22.3190 C   0  0  0  0  0  2  0  0  0  0  0  0
  -30.9350  -16.4470   22.4310 C   0  0  0  0  0  2  0  0  0  0  0  0
  -29.8240  -17.4160   20.5030 C   0  0  0  0  0  2  0  0  0  0  0  0
  -30.2900  -18.5850   21.3840 C   0  0  0  0  0  3  0  0  0  0  0  0
  -29.6900  -16.2950   21.5460 C   0  0  0  0  0  3  0  0  0  0  0  0
  -29.8960  -14.2280   20.0260 C   0  0  0  0  0  0  0  0  0  0  0  0
  -29.6270  -12.0970   18.7920 C   0  0  0  0  0  2  0  0  0  0  0  0
  -28.5270  -12.2180   17.7200 C   0  0  0  0  0  2  0  0  0  0  0  0
  -27.1270  -11.9580   18.3160 C   0  0  0  0  0  2  0  0  0  0  0  0
  -26.8770  -12.7490   19.6270 C   0  0  0  0  0  3  0  0  0  0  0  0
  -28.0690  -12.5810   20.5920 C   0  0  0  0  0  2  0  0  0  0  0  0
  -29.2980  -13.0140   19.8940 N   0  0  0  0  0  0  0  0  0  0  0  0
  -30.8010  -14.6290   19.2880 O   0  0  0  0  0  0  0  0  0  0  0  0
  -29.4190  -14.9430   21.0550 N   0  0  0  0  0  0  0  0  0  0  0  0
  -28.7150  -14.4440   21.5790 H   0  0  0  0  0  0  0  0  0  0  0  0
  -24.5540  -13.1620   20.6620 C   0  0  0  0  0  0  0  0  0  0  0  0
  -23.5940  -12.3040   21.1290 C   0  0  0  0  0  0  0  0  0  0  0  0
  -24.1270  -10.9900   20.9660 C   0  0  0  0  0  0  0  0  0  0  0  0
  -25.6130  -12.3640   20.2550 N   0  0  0  0  0  0  0  0  0  0  0  0
  -25.3650  -11.0500   20.4900 N   0  0  0  0  0  0  0  0  0  0  0  0
  -23.5120   -9.6740   21.1880 C   0  0  0  0  0  0  0  0  0  0  0  0
  -24.0650   -8.7420   22.0940 C   0  0  0  0  0  3  0  0  0  0  0  0
  -23.4480   -7.4920   22.3060 C   0  0  0  0  0  3  0  0  0  0  0  0
  -22.2600   -7.1610   21.6110 C   0  0  0  0  0  0  0  0  0  0  0  0
  -21.7230   -8.0820   20.6940 C   0  0  0  0  0  3  0  0  0  0  0  0
  -22.3430   -9.3250   20.4810 C   0  0  0  0  0  3  0  0  0  0  0  0
  -21.6050   -5.9580   21.7290 O   0  0  0  0  0  0  0  0  0  0  0  0
  -21.6200   -5.2430   22.8980 C   0  0  0  0  0  0  0  0  0  0  0  0
  -21.1270   -5.7790   24.1080 C   0  0  0  0  0  3  0  0  0  0  0  0
  -21.0990   -4.9850   25.2720 C   0  0  0  0  0  3  0  0  0  0  0  0
  -21.5510   -3.6520   25.2270 C   0  0  0  0  0  0  0  0  0  0  0  0
  -22.0360   -3.1140   24.0220 C   0  0  0  0  0  3  0  0  0  0  0  0
  -22.0670   -3.9060   22.8600 C   0  0  0  0  0  0  0  0  0  0  0  0
  -22.5160   -3.3750   21.6970 F   0  0  0  0  0  0  0  0  0  0  0  0
  -21.5170   -2.8870   26.3410 F   0  0  0  0  0  0  0  0  0  0  0  0
  -22.2190  -12.6720   21.6090 C   0  0  0  0  0  0  0  0  0  0  0  0
  -21.6660  -11.9000   22.5360 N   0  0  0  0  0  0  0  0  0  0  0  0
  -21.6450  -13.6790   21.1930 O   0  0  0  0  0  0  0  0  0  0  0  0
  -22.1470  -11.0890   22.8970 H   0  0  0  0  0  0  0  0  0  0  0  0
  -20.7470  -12.1260   22.8900 H   0  0  0  0  0  0  0  0  0  0  0  0
  -24.6120  -14.5490   20.5380 N   0  0  0  0  0  0  0  0  0  0  0  0
  -23.8350  -15.1510   20.7900 H   0  0  0  0  0  0  0  0  0  0  0  0
  -25.3970  -15.0610   20.1540 H   0  0  0  0  0  0  0  0  0  0  0  0
  2  6  2  0
  2  5  1  0
  3  1  1  0
  3 50  1  0
  4  7  1  0
  4  1  2  0
  5  3  2  0
  6  4  1  0
  8  5  1  0
  9 11  1  0
  9  6  1  0
 10 21  2  0
 11 16  1  0
 12 20  1  0
 12 22  1  0
 13 19  1  0
 13 15  1  0
 14 20  1  0
 15 14  1  0
 16 15  2  0
 17 18  1  0
 17 11  2  0
 18 13  2  0
 19 12  1  0
 20 10  1  0
 22 24  2  0
 23 22  1  0
 25 23  1  0
 26 35  2  0
 26 31  1  0
 27 23  1  0
 27 31  1  0
 28 27  1  0
 29 30  1  0
 29 28  1  0
 30 26  1  0
 31 32  2  0
 32 33  1  0
 34 33  2  0
 35 34  1  0
 36 10  1  0
 36 37  1  0
 36 46  1  0
 37 40  1  0
 38 42  1  0
 38 37  1  0
 39 38  2  0
 42 41  1  0
 44 45  1  0
 44 42  1  0
 44 43  1  0
 46 49  1  1
 46 47  1  0
 48 46  1  0
 51 52  1  0
 51 50  1  0
 53 52  1  0
 54 55  1  0
 56 57  1  0
 56 58  1  0
 57 53  1  0
 57 54  1  0
 58 67  1  0
 58 55  1  0
 59 67  1  0
 60 65  1  0
 61 62  1  0
 61 60  1  0
 63 62  1  0
 63 72  1  0
 63 64  1  0
 65 59  1  0
 65 64  1  0
 66 59  2  0
 67 68  1  0
 69 70  2  0
 70 89  1  0
 71 70  1  0
 71 74  1  0
 72 73  1  0
 72 69  1  0
 73 71  2  0
 74 75  1  0
 75 76  2  0
 77 80  1  0
 77 76  1  0
 78 77  2  0
 79 78  1  0
 79 74  2  0
 80 81  1  0
 81 82  1  0
 82 83  2  0
 84 83  1  0
 84 88  1  0
 85 84  2  0
 86 81  2  0
 86 85  1  0
 87 86  1  0
 89 90  1  0
 90 93  1  0
 90 92  1  0
 91 89  2  0
 94 69  1  0
 94 95  1  0
 96 94  1  0
M  ISO  4   6 101   9 101  59 100  67 100
M  END
>  <TORSDO>  (78) 
F 21

>  <SCORE>  (78) 
-9.594

>  <name>  (78) 
77

>  <ligand_id>  (78) 
77

>  <original_smiles>  (78) 
[H]c1c([H])c([H])c2c(c1[H])C([H])([H])C([H])([H])C([H])([H])C2([H])N([H])C(=O)C1([H])N(C(=O)C([H])(N([H])C(=O)C([H])(N([H])C([H])([H])[H])C([H])([H])[H])C(C([H])([H])[H])(C([H])([H])[H])C([H])([H])[H])C([H])([H])c2c([H])c(Oc3c([H])c(C([H])([H])[H])c(C([H])([H])C([H])([H])C([H])([H])C([H])([H])C4([H])C([H])([H])C([H])([H])C([H])(N([H])C(=O)N5C([H])([H])C([H])([H])C([H])([H])C([H])(n6nc(-c7c([H])c([H])c(Oc8c([H])c([H])c(F)c([H])c8F)c([H])c7[H])c(C(=O)N([H])[H])c6N([H])[H])C5([H])[H])C4([H])[H])c([H])c3C([H])([H])[H])c([H])c([H])c2C1([H])[H]

>  <smiles>  (78) 
[H]c1c([H])c([H])c2c(c1[H])C([H])([H])C([H])([H])C([H])([H])C2([H])N([H])C(=O)C1([H])N(C(=O)C([H])(N([H])C(=O)C([H])(N([H])C([H])([H])[H])C([H])([H])[H])C(C([H])([H])[H])(C([H])([H])[H])C([H])([H])[H])C([H])([H])c2c([H])c(Oc3c([H])c(C([H])([H])[H])c(C([H])([H])C([H])([H])C([H])([H])C([H])([H])C4([H])C([H])([H])C([H])([H])C([H])(N([H])C(=O)N5C([H])([H])C([H])([H])C([H])([H])C([H])(n6nc(-c7c([H])c([H])c(Oc8c([H])c([H])c(F)c([H])c8F)c([H])c7[H])c(C(=O)N([H])[H])c6N([H])[H])C5([H])[H])C4([H])[H])c([H])c3C([H])([H])[H])c([H])c([H])c2C1([H])[H]

$$$$
78:0:0
     RDKit          3D

 94103  0  0  1  0  0  0  0  0999 V2000
  -27.9430  -22.1210   19.2310 C   0  0  0  0  0  3  0  0  0  0  0  0
  -27.7220  -23.5860   19.2760 C   0  0  0  0  0  3  0  0  0  0  0  0
  -29.3820  -22.2450   21.0190 C   0  0  0  0  0  3  0  0  0  0  0  0
  -28.7980  -21.3000   20.0810 C   0  0  0  0  0  0  0  0  0  0  0  0
  -29.1660  -23.7200   21.0700 C   0  0  0  0  0  0  0  0  0  0  0  0
  -28.3050  -24.5330   20.2080 C   0  0  0  0  0  0  0  0  0  0  0  0
  -29.9450  -24.4820   22.1250 C   0  0  0  0  0  1  0  0  0  0  0  0
  -27.8710  -18.6430   20.5760 C   0  0  0  0  0  2  0  0  0  0  0  0
  -28.2080  -17.1060   20.2860 C   0  0  0  0  0  2  0  0  0  0  0  0
  -28.9430  -19.5710   19.9280 C   0  0  0  0  0  3  0  0  0  0  0  0
  -29.7260  -16.8270   20.4840 C   0  0  0  0  0  3  0  0  0  0  0  0
  -30.1980  -18.4210   20.0680 C   0  0  0  0  0  3  0  0  0  0  0  0
  -30.4320  -15.2820   20.0880 C   0  0  0  0  0  0  0  0  0  0  0  0
  -30.4070  -12.8320   19.2560 C   0  0  0  0  0  2  0  0  0  0  0  0
  -29.4570  -12.6490   18.0470 C   0  0  0  0  0  2  0  0  0  0  0  0
  -28.0220  -12.3700   18.5240 C   0  0  0  0  0  2  0  0  0  0  0  0
  -27.5960  -13.3220   19.6700 C   0  0  0  0  0  3  0  0  0  0  0  0
  -28.6760  -13.4710   20.7640 C   0  0  0  0  0  2  0  0  0  0  0  0
  -29.8950  -13.9660   20.1070 N   0  0  0  0  0  0  0  0  0  0  0  0
  -31.6140  -15.2870   19.7170 O   0  0  0  0  0  0  0  0  0  0  0  0
  -25.2460  -13.8330   20.5260 C   0  0  0  0  0  0  0  0  0  0  0  0
  -24.2090  -13.0340   20.9170 C   0  0  0  0  0  0  0  0  0  0  0  0
  -24.6880  -11.6910   20.8300 C   0  0  0  0  0  0  0  0  0  0  0  0
  -26.2900  -12.9780   20.2180 N   0  0  0  0  0  0  0  0  0  0  0  0
  -25.9680  -11.6800   20.4660 N   0  0  0  0  0  0  0  0  0  0  0  0
  -23.9820  -10.4160   21.0130 C   0  0  0  0  0  0  0  0  0  0  0  0
  -24.4170   -9.4540   21.9500 C   0  0  0  0  0  3  0  0  0  0  0  0
  -23.7030   -8.2480   22.1220 C   0  0  0  0  0  3  0  0  0  0  0  0
  -22.5410   -7.9940   21.3540 C   0  0  0  0  0  0  0  0  0  0  0  0
  -22.1260   -8.9460   20.4040 C   0  0  0  0  0  3  0  0  0  0  0  0
  -22.8410  -10.1430   20.2310 C   0  0  0  0  0  3  0  0  0  0  0  0
  -21.8000   -6.8420   21.4340 O   0  0  0  0  0  0  0  0  0  0  0  0
  -21.6810   -6.1430   22.6090 C   0  0  0  0  0  0  0  0  0  0  0  0
  -21.1190   -6.7230   23.7680 C   0  0  0  0  0  3  0  0  0  0  0  0
  -20.9540   -5.9480   24.9330 C   0  0  0  0  0  3  0  0  0  0  0  0
  -21.3410   -4.5940   24.9410 C   0  0  0  0  0  0  0  0  0  0  0  0
  -21.8940   -4.0140   23.7850 C   0  0  0  0  0  3  0  0  0  0  0  0
  -22.0620   -4.7860   22.6230 C   0  0  0  0  0  0  0  0  0  0  0  0
  -22.5760   -4.2160   21.5060 F   0  0  0  0  0  0  0  0  0  0  0  0
  -21.1750   -3.8460   26.0560 F   0  0  0  0  0  0  0  0  0  0  0  0
  -22.8190  -13.4880   21.2530 C   0  0  0  0  0  0  0  0  0  0  0  0
  -22.1360  -12.7650   22.1340 N   0  0  0  0  0  0  0  0  0  0  0  0
  -22.3500  -14.5200   20.7750 O   0  0  0  0  0  0  0  0  0  0  0  0
  -22.5300  -11.9320   22.5450 H   0  0  0  0  0  0  0  0  0  0  0  0
  -21.2070  -13.0530   22.4060 H   0  0  0  0  0  0  0  0  0  0  0  0
  -25.3790  -15.2090   20.3780 N   0  0  0  0  0  0  0  0  0  0  0  0
  -24.6170  -15.8480   20.5710 H   0  0  0  0  0  0  0  0  0  0  0  0
  -26.2120  -15.6710   20.0410 H   0  0  0  0  0  0  0  0  0  0  0  0
  -31.0450  -18.3700   18.7870 C   0  0  0  0  0  0  0  0  0  0  0  0
  -32.3510  -18.5940   18.8850 N   0  0  0  0  0  0  0  0  0  0  0  0
  -30.5280  -18.1230   17.6990 O   0  0  0  0  0  0  0  0  0  0  0  0
  -32.7780  -18.7680   19.7840 H   0  0  0  0  0  0  0  0  0  0  0  0
  -32.9360  -18.5670   18.0610 H   0  0  0  0  0  0  0  0  0  0  0  0
  -28.2680  -26.0600   20.1980 O   0  0  0  0  0  0  0  0  0  0  0  0
  -24.6550  -31.8940   23.2480 C   0  0  0  0  0  0  0  0  0  0  0  0
  -27.1960  -27.0780   20.1840 C   0  0  0  0  0  0  0  0  0  0  0  0
  -23.4500  -30.5220   21.5920 C   0  0  0  0  0  3  0  0  0  0  0  0
  -24.8930  -28.9280   20.1530 C   0  0  0  0  0  0  0  0  0  0  0  0
  -26.0140  -30.7350   21.4450 C   0  0  0  0  0  2  0  0  0  0  0  0
  -26.0770  -29.3350   20.7790 C   0  0  0  0  0  0  0  0  0  0  0  0
  -27.2220  -28.4300   20.7700 C   0  0  0  0  0  3  0  0  0  0  0  0
  -25.9830  -26.8060   19.5140 C   0  0  0  0  0  3  0  0  0  0  0  0
  -24.8670  -27.6820   19.5050 C   0  0  0  0  0  3  0  0  0  0  0  0
  -23.6750  -29.8490   20.2080 C   0  0  0  0  0  2  0  0  0  0  0  0
  -24.7270  -31.0760   22.1490 N   0  0  0  0  0  0  0  0  0  0  0  0
  -23.5680  -32.1810   23.7750 O   0  0  0  0  0  0  0  0  0  0  0  0
  -22.7570  -29.5160   22.5450 C   0  0  0  0  0  0  0  0  0  0  0  0
  -21.4270  -29.3540   22.4150 N   0  0  0  0  0  0  0  0  0  0  0  0
  -23.4200  -28.8820   23.3690 O   0  0  0  0  0  0  0  0  0  0  0  0
  -20.9480  -29.9140   21.7240 H   0  0  0  0  0  0  0  0  0  0  0  0
  -18.0390  -28.1640   22.9130 C   0  0  0  0  0  0  0  0  0  0  0  0
  -20.6010  -28.4100   23.1730 C   0  0  0  0  0  3  0  0  0  0  0  0
  -20.6910  -26.9860   22.5760 C   0  0  0  0  0  2  0  0  0  0  0  0
  -19.5850  -26.6860   21.5610 C   0  0  0  0  0  2  0  0  0  0  0  0
  -18.2060  -26.8260   22.2110 C   0  0  0  0  0  2  0  0  0  0  0  0
  -19.1620  -28.9150   23.3490 C   0  0  0  0  0  0  0  0  0  0  0  0
  -18.9510  -30.1660   23.9690 C   0  0  0  0  0  3  0  0  0  0  0  0
  -17.6490  -30.6670   24.1520 C   0  0  0  0  0  3  0  0  0  0  0  0
  -16.5400  -29.9140   23.7300 C   0  0  0  0  0  3  0  0  0  0  0  0
  -16.7350  -28.6640   23.1170 C   0  0  0  0  0  3  0  0  0  0  0  0
  -25.9300  -32.5200   23.8880 C   0  0  0  0  0  3  0  0  0  0  0  0
  -25.6220  -33.9170   24.2370 N   0  0  0  0  0  0  0  0  0  0  0  0
  -25.9250  -34.9820   23.4830 C   0  0  0  0  0  0  0  0  0  0  0  0
  -26.5600  -34.8910   22.4280 O   0  0  0  0  0  0  0  0  0  0  0  0
  -25.0540  -34.0610   25.0610 H   0  0  0  0  0  0  0  0  0  0  0  0
  -24.1700  -36.7690   23.2340 C   0  0  0  0  0  1  0  0  0  0  0  0
  -25.4550  -36.3680   23.9740 C   0  0  0  0  0  3  0  0  0  0  0  0
  -27.6170  -37.2730   24.7050 C   0  0  0  0  0  1  0  0  0  0  0  0
  -26.4740  -37.4280   23.8110 N   0  0  0  0  0  0  0  0  0  0  0  0
  -26.0660  -38.3460   23.9750 H   0  0  0  0  0  0  0  0  0  0  0  0
  -26.4310  -31.7370   25.1640 C   0  0  1  0  0  0  0  0  0  0  0  0
  -25.3270  -31.4980   26.2210 C   0  0  0  0  0  1  0  0  0  0  0  0
  -27.0110  -30.3600   24.7750 C   0  0  0  0  0  1  0  0  0  0  0  0
  -27.5790  -32.5230   25.8420 C   0  0  0  0  0  1  0  0  0  0  0  0
  1  2  2  0
  1  4  1  0
  2  6  1  0
  3  5  1  0
  4  3  2  0
  5  7  1  0
  6  5  2  0
  9 11  1  0
  9  8  1  0
 10 12  1  0
 10  4  1  0
 10  8  1  0
 11 13  1  0
 12 49  1  0
 12 11  1  0
 13 19  1  0
 14 19  1  0
 15 16  1  0
 15 14  1  0
 17 16  1  0
 17 24  1  0
 17 18  1  0
 19 18  1  0
 20 13  2  0
 21 22  2  0
 22 41  1  0
 23 22  1  0
 23 26  1  0
 24 25  1  0
 24 21  1  0
 25 23  2  0
 26 27  1  0
 27 28  2  0
 29 32  1  0
 29 28  1  0
 30 29  2  0
 31 30  1  0
 31 26  2  0
 32 33  1  0
 33 38  2  0
 33 34  1  0
 34 35  2  0
 35 36  1  0
 36 40  1  0
 37 36  2  0
 38 37  1  0
 39 38  1  0
 41 42  1  0
 42 45  1  0
 42 44  1  0
 43 41  2  0
 46 21  1  0
 46 47  1  0
 48 46  1  0
 49 50  1  0
 50 52  1  0
 51 49  2  0
 53 50  1  0
 54  6  1  0
 55 66  2  0
 56 54  1  0
 56 61  1  0
 57 65  1  0
 57 67  1  0
 58 64  1  0
 58 60  1  0
 59 65  1  0
 60 59  1  0
 61 60  2  0
 62 56  2  0
 63 62  1  0
 63 58  2  0
 64 57  1  0
 65 55  1  0
 67 69  2  0
 68 67  1  0
 70 68  1  0
 71 80  2  0
 71 76  1  0
 72 68  1  0
 72 76  1  0
 73 72  1  0
 74 75  1  0
 74 73  1  0
 75 71  1  0
 76 77  2  0
 77 78  1  0
 79 78  2  0
 80 79  1  0
 81 55  1  0
 81 82  1  0
 81 91  1  0
 82 85  1  0
 83 87  1  0
 83 82  1  0
 84 83  2  0
 87 86  1  0
 89 87  1  0
 89 90  1  0
 89 88  1  0
 91 94  1  1
 91 92  1  0
 93 91  1  0
M  ISO  4   6 101  11 100  13 100  54 101
M  END
>  <TORSDO>  (79) 
F 18

>  <SCORE>  (79) 
-15.926

>  <name>  (79) 
78

>  <ligand_id>  (79) 
78

>  <original_smiles>  (79) 
[H]c1c([H])c([H])c2c(c1[H])C([H])([H])C([H])([H])C([H])([H])C2([H])N([H])C(=O)C1([H])N(C(=O)C([H])(N([H])C(=O)C([H])(N([H])C([H])([H])[H])C([H])([H])[H])C(C([H])([H])[H])(C([H])([H])[H])C([H])([H])[H])C([H])([H])c2c([H])c(Oc3c([H])c([H])c(C4([H])C([H])([H])C([H])([H])C([H])(C(=O)N5C([H])([H])C([H])([H])C([H])([H])C([H])(n6nc(-c7c([H])c([H])c(Oc8c([H])c([H])c(F)c([H])c8F)c([H])c7[H])c(C(=O)N([H])[H])c6N([H])[H])C5([H])[H])C4([H])C(=O)N([H])[H])c([H])c3C([H])([H])[H])c([H])c([H])c2C1([H])[H]

>  <smiles>  (79) 
[H]c1c([H])c([H])c2c(c1[H])C([H])([H])C([H])([H])C([H])([H])C2([H])N([H])C(=O)C1([H])N(C(=O)C([H])(N([H])C(=O)C([H])(N([H])C([H])([H])[H])C([H])([H])[H])C(C([H])([H])[H])(C([H])([H])[H])C([H])([H])[H])C([H])([H])c2c([H])c(Oc3c([H])c([H])c(C4([H])C([H])([H])C([H])([H])C([H])(C(=O)N5C([H])([H])C([H])([H])C([H])([H])C([H])(n6nc(-c7c([H])c([H])c(Oc8c([H])c([H])c(F)c([H])c8F)c([H])c7[H])c(C(=O)N([H])[H])c6N([H])[H])C5([H])[H])C4([H])C(=O)N([H])[H])c([H])c3C([H])([H])[H])c([H])c([H])c2C1([H])[H]

$$$$
79:0:0
     RDKit          3D

 92101  0  0  1  0  0  0  0  0999 V2000
  -27.4180  -22.1720   21.1030 C   0  0  0  0  0  2  0  0  0  0  0  0
  -29.0430  -23.2110   19.7610 C   0  0  0  0  0  2  0  0  0  0  0  0
  -28.3650  -21.6830   19.9670 C   0  0  0  0  0  3  0  0  0  0  0  0
  -27.1480  -23.7630   21.0800 C   0  0  0  0  0  3  0  0  0  0  0  0
  -27.9520  -24.4980   19.9510 C   0  0  0  0  0  3  0  0  0  0  0  0
  -27.4410  -24.3750   22.4600 C   0  0  0  0  0  1  0  0  0  0  0  0
  -28.7440  -17.4790   19.4120 C   0  0  0  0  0  3  0  0  0  0  0  0
  -30.0680  -19.4770   20.7590 C   0  0  0  0  0  3  0  0  0  0  0  0
  -29.8600  -16.9110   20.1410 C   0  0  0  0  0  0  0  0  0  0  0  0
  -28.9540  -20.0450   20.0200 C   0  0  0  0  0  0  0  0  0  0  0  0
  -28.3200  -18.9020   19.3580 C   0  0  0  0  0  0  0  0  0  0  0  0
  -30.4930  -18.0540   20.8100 C   0  0  0  0  0  0  0  0  0  0  0  0
  -27.0900  -19.1840   18.5110 C   0  0  0  0  0  1  0  0  0  0  0  0
  -30.4830  -15.3640   19.9990 C   0  0  0  0  0  0  0  0  0  0  0  0
  -30.3530  -12.9400   19.1350 C   0  0  0  0  0  2  0  0  0  0  0  0
  -29.3950  -12.7840   17.9300 C   0  0  0  0  0  2  0  0  0  0  0  0
  -27.9590  -12.5270   18.4170 C   0  0  0  0  0  2  0  0  0  0  0  0
  -27.5560  -13.4800   19.5700 C   0  0  0  0  0  3  0  0  0  0  0  0
  -28.6440  -13.6260   20.6540 C   0  0  0  0  0  2  0  0  0  0  0  0
  -29.8670  -14.0880   19.9850 N   0  0  0  0  0  0  0  0  0  0  0  0
  -31.6900  -15.2930   19.7230 O   0  0  0  0  0  0  0  0  0  0  0  0
  -25.2240  -14.0150   20.4480 C   0  0  0  0  0  0  0  0  0  0  0  0
  -24.1810  -13.2270   20.8450 C   0  0  0  0  0  0  0  0  0  0  0  0
  -24.6480  -11.8790   20.7650 C   0  0  0  0  0  0  0  0  0  0  0  0
  -26.2550  -13.1480   20.1350 N   0  0  0  0  0  0  0  0  0  0  0  0
  -25.9250  -11.8560   20.3950 N   0  0  0  0  0  0  0  0  0  0  0  0
  -23.9310  -10.6110   20.9590 C   0  0  0  0  0  0  0  0  0  0  0  0
  -24.3690   -9.6490   21.8950 C   0  0  0  0  0  3  0  0  0  0  0  0
  -23.6480   -8.4480   22.0790 C   0  0  0  0  0  3  0  0  0  0  0  0
  -22.4770   -8.2000   21.3240 C   0  0  0  0  0  0  0  0  0  0  0  0
  -22.0580   -9.1520   20.3760 C   0  0  0  0  0  3  0  0  0  0  0  0
  -22.7790  -10.3430   20.1920 C   0  0  0  0  0  3  0  0  0  0  0  0
  -21.7280   -7.0520   21.4160 O   0  0  0  0  0  0  0  0  0  0  0  0
  -21.6370   -6.3440   22.5880 C   0  0  0  0  0  0  0  0  0  0  0  0
  -21.1210   -6.9200   23.7690 C   0  0  0  0  0  3  0  0  0  0  0  0
  -20.9800   -6.1360   24.9310 C   0  0  0  0  0  3  0  0  0  0  0  0
  -21.3460   -4.7760   24.9130 C   0  0  0  0  0  0  0  0  0  0  0  0
  -21.8540   -4.2000   23.7360 C   0  0  0  0  0  3  0  0  0  0  0  0
  -21.9960   -4.9810   22.5760 C   0  0  0  0  0  0  0  0  0  0  0  0
  -22.4670   -4.4150   21.4390 F   0  0  0  0  0  0  0  0  0  0  0  0
  -21.2030   -4.0210   26.0270 F   0  0  0  0  0  0  0  0  0  0  0  0
  -22.7960  -13.6960   21.1840 C   0  0  0  0  0  0  0  0  0  0  0  0
  -22.1060  -12.9810   22.0660 N   0  0  0  0  0  0  0  0  0  0  0  0
  -22.3370  -14.7310   20.7030 O   0  0  0  0  0  0  0  0  0  0  0  0
  -22.4920  -12.1440   22.4760 H   0  0  0  0  0  0  0  0  0  0  0  0
  -21.1790  -13.2760   22.3360 H   0  0  0  0  0  0  0  0  0  0  0  0
  -25.3790  -15.3910   20.2990 N   0  0  0  0  0  0  0  0  0  0  0  0
  -24.6230  -16.0420   20.4780 H   0  0  0  0  0  0  0  0  0  0  0  0
  -26.2290  -15.8460   19.9910 H   0  0  0  0  0  0  0  0  0  0  0  0
  -31.5970  -17.8040   21.5750 O   0  0  0  0  0  0  0  0  0  0  0  0
  -31.9620  -18.5880   21.9750 H   0  0  0  0  0  0  0  0  0  0  0  0
  -28.1550  -26.1090   20.0840 O   0  0  0  0  0  0  0  0  0  0  0  0
  -24.6530  -31.9430   23.2250 C   0  0  0  0  0  0  0  0  0  0  0  0
  -27.1250  -27.1670   20.0570 C   0  0  0  0  0  0  0  0  0  0  0  0
  -23.4150  -30.5820   21.5890 C   0  0  0  0  0  3  0  0  0  0  0  0
  -24.8230  -29.0110   20.1000 C   0  0  0  0  0  0  0  0  0  0  0  0
  -25.9720  -30.8090   21.3780 C   0  0  0  0  0  2  0  0  0  0  0  0
  -26.0240  -29.4160   20.6950 C   0  0  0  0  0  0  0  0  0  0  0  0
  -27.1710  -28.5140   20.6490 C   0  0  0  0  0  3  0  0  0  0  0  0
  -25.8940  -26.8970   19.4200 C   0  0  0  0  0  3  0  0  0  0  0  0
  -24.7790  -27.7720   19.4420 C   0  0  0  0  0  3  0  0  0  0  0  0
  -23.6060  -29.9270   20.1930 C   0  0  0  0  0  2  0  0  0  0  0  0
  -24.7030  -31.1370   22.1180 N   0  0  0  0  0  0  0  0  0  0  0  0
  -23.5780  -32.2230   23.7800 O   0  0  0  0  0  0  0  0  0  0  0  0
  -22.7470  -29.5660   22.5500 C   0  0  0  0  0  0  0  0  0  0  0  0
  -21.4200  -29.3740   22.4270 N   0  0  0  0  0  0  0  0  0  0  0  0
  -23.4280  -28.9510   23.3760 O   0  0  0  0  0  0  0  0  0  0  0  0
  -20.9240  -29.9230   21.7380 H   0  0  0  0  0  0  0  0  0  0  0  0
  -18.0700  -28.0720   22.9060 C   0  0  0  0  0  0  0  0  0  0  0  0
  -20.6180  -28.4180   23.1960 C   0  0  0  0  0  3  0  0  0  0  0  0
  -20.7690  -26.9850   22.6330 C   0  0  0  0  0  2  0  0  0  0  0  0
  -19.6880  -26.6220   21.6090 C   0  0  0  0  0  2  0  0  0  0  0  0
  -18.2960  -26.7260   22.2380 C   0  0  0  0  0  2  0  0  0  0  0  0
  -19.1600  -28.8730   23.3420 C   0  0  0  0  0  0  0  0  0  0  0  0
  -18.8920  -30.1300   23.9280 C   0  0  0  0  0  3  0  0  0  0  0  0
  -17.5700  -30.5870   24.0820 C   0  0  0  0  0  3  0  0  0  0  0  0
  -16.4960  -29.7840   23.6610 C   0  0  0  0  0  3  0  0  0  0  0  0
  -16.7460  -28.5290   23.0790 C   0  0  0  0  0  3  0  0  0  0  0  0
  -25.9430  -32.5700   23.8370 C   0  0  0  0  0  3  0  0  0  0  0  0
  -25.6410  -33.9670   24.1950 N   0  0  0  0  0  0  0  0  0  0  0  0
  -25.9340  -35.0340   23.4390 C   0  0  0  0  0  0  0  0  0  0  0  0
  -26.5520  -34.9450   22.3750 O   0  0  0  0  0  0  0  0  0  0  0  0
  -25.0860  -34.1080   25.0270 H   0  0  0  0  0  0  0  0  0  0  0  0
  -24.1810  -36.8270   23.2170 C   0  0  0  0  0  1  0  0  0  0  0  0
  -25.4730  -36.4170   23.9410 C   0  0  0  0  0  3  0  0  0  0  0  0
  -27.6480  -37.3130   24.6490 C   0  0  0  0  0  1  0  0  0  0  0  0
  -26.4920  -37.4760   23.7720 N   0  0  0  0  0  0  0  0  0  0  0  0
  -26.0900  -38.3940   23.9440 H   0  0  0  0  0  0  0  0  0  0  0  0
  -26.4700  -31.7860   25.1030 C   0  0  1  0  0  0  0  0  0  0  0  0
  -25.3900  -31.5480   26.1830 C   0  0  0  0  0  1  0  0  0  0  0  0
  -27.0400  -30.4070   24.7000 C   0  0  0  0  0  1  0  0  0  0  0  0
  -27.6340  -32.5690   25.7550 C   0  0  0  0  0  1  0  0  0  0  0  0
  2  5  1  0
  2  3  1  0
  3 10  1  0
  3  1  1  0
  4  1  1  0
  4  6  1  0
  5 52  1  0
  5  4  1  0
  7  9  1  0
  8 12  1  0
  9 12  2  0
 10  8  2  0
 11  7  2  0
 11 10  1  0
 12 50  1  0
 13 11  1  0
 14  9  1  0
 15 20  1  0
 16 17  1  0
 16 15  1  0
 18 17  1  0
 18 25  1  0
 18 19  1  0
 20 14  1  0
 20 19  1  0
 21 14  2  0
 22 23  2  0
 23 42  1  0
 24 23  1  0
 24 27  1  0
 25 26  1  0
 25 22  1  0
 26 24  2  0
 27 28  1  0
 28 29  2  0
 30 33  1  0
 30 29  1  0
 31 30  2  0
 32 31  1  0
 32 27  2  0
 33 34  1  0
 34 35  1  0
 35 36  2  0
 37 36  1  0
 37 41  1  0
 38 37  2  0
 39 34  2  0
 39 38  1  0
 40 39  1  0
 42 43  1  0
 43 46  1  0
 43 45  1  0
 44 42  2  0
 47 22  1  0
 47 48  1  0
 49 47  1  0
 50 51  1  0
 53 64  2  0
 54 52  1  0
 54 59  1  0
 55 63  1  0
 55 65  1  0
 56 62  1  0
 56 58  1  0
 57 63  1  0
 58 57  1  0
 59 58  2  0
 60 61  1  0
 60 54  2  0
 61 56  2  0
 62 55  1  0
 63 53  1  0
 65 67  2  0
 66 65  1  0
 68 66  1  0
 69 78  2  0
 69 74  1  0
 70 66  1  0
 70 74  1  0
 71 70  1  0
 72 73  1  0
 72 71  1  0
 73 69  1  0
 74 75  2  0
 75 76  1  0
 77 76  2  0
 78 77  1  0
 79 53  1  0
 79 80  1  0
 79 89  1  0
 80 83  1  0
 81 85  1  0
 81 80  1  0
 82 81  2  0
 85 84  1  0
 87 85  1  0
 87 88  1  0
 87 86  1  0
 89 92  1  1
 89 90  1  0
 91 89  1  0
M  ISO  4   5 101   9 100  14 100  52 101
M  END
>  <TORSDO>  (80) 
F 18

>  <SCORE>  (80) 
-15.224

>  <name>  (80) 
79

>  <ligand_id>  (80) 
79

>  <original_smiles>  (80) 
[H]Oc1c([H])c(C2([H])C([H])([H])C([H])(Oc3c([H])c([H])c4c(c3[H])C([H])([H])N(C(=O)C([H])(N([H])C(=O)C([H])(N([H])C([H])([H])[H])C([H])([H])[H])C(C([H])([H])[H])(C([H])([H])[H])C([H])([H])[H])C([H])(C(=O)N([H])C3([H])c5c([H])c([H])c([H])c([H])c5C([H])([H])C([H])([H])C3([H])[H])C4([H])[H])C([H])(C([H])([H])[H])C2([H])[H])c(C([H])([H])[H])c([H])c1C(=O)N1C([H])([H])C([H])([H])C([H])([H])C([H])(n2nc(-c3c([H])c([H])c(Oc4c([H])c([H])c(F)c([H])c4F)c([H])c3[H])c(C(=O)N([H])[H])c2N([H])[H])C1([H])[H]

>  <smiles>  (80) 
[H]Oc1c([H])c(C2([H])C([H])([H])C([H])(Oc3c([H])c([H])c4c(c3[H])C([H])([H])N(C(=O)C([H])(N([H])C(=O)C([H])(N([H])C([H])([H])[H])C([H])([H])[H])C(C([H])([H])[H])(C([H])([H])[H])C([H])([H])[H])C([H])(C(=O)N([H])C3([H])c5c([H])c([H])c([H])c([H])c5C([H])([H])C([H])([H])C3([H])[H])C4([H])[H])C([H])(C([H])([H])[H])C2([H])[H])c(C([H])([H])[H])c([H])c1C(=O)N1C([H])([H])C([H])([H])C([H])([H])C([H])(n2nc(-c3c([H])c([H])c(Oc4c([H])c([H])c(F)c([H])c4F)c([H])c3[H])c(C(=O)N([H])[H])c2N([H])[H])C1([H])[H]

$$$$
80:0:0
     RDKit          3D

 98106  0  0  1  0  0  0  0  0999 V2000
  -30.8570  -16.0390   20.5530 C   0  0  0  0  0  0  0  0  0  0  0  0
  -29.8570  -16.6150   19.7020 C   0  0  0  0  0  0  0  0  0  0  0  0
  -31.2550  -16.7400   21.7260 C   0  0  0  0  0  0  0  0  0  0  0  0
  -29.3120  -17.9060   19.9880 C   0  0  0  0  0  0  0  0  0  0  0  0
  -30.7080  -18.0240   22.0100 C   0  0  0  0  0  0  0  0  0  0  0  0
  -29.8190  -18.6490   21.0920 C   0  0  0  0  0  0  0  0  0  0  0  0
  -29.3490  -15.8650   18.4620 C   0  0  0  0  0  1  0  0  0  0  0  0
  -32.2960  -16.1480   22.6900 C   0  0  0  0  0  1  0  0  0  0  0  0
  -31.5240  -14.7170   20.1890 C   0  0  0  0  0  0  0  0  0  0  0  0
  -31.2260  -12.3350   19.6190 C   0  0  0  0  0  2  0  0  0  0  0  0
  -30.3300  -12.2380   18.3680 C   0  0  0  0  0  2  0  0  0  0  0  0
  -28.8370  -12.2360   18.7620 C   0  0  0  0  0  2  0  0  0  0  0  0
  -28.4740  -13.3530   19.7750 C   0  0  0  0  0  3  0  0  0  0  0  0
  -29.4960  -13.4280   20.9290 C   0  0  0  0  0  2  0  0  0  0  0  0
  -30.8340  -13.5570   20.3400 N   0  0  0  0  0  0  0  0  0  0  0  0
  -32.6490  -14.7550   19.6770 O   0  0  0  0  0  0  0  0  0  0  0  0
  -26.1870  -14.1790   20.6090 C   0  0  0  0  0  0  0  0  0  0  0  0
  -25.0380  -13.5160   20.9360 C   0  0  0  0  0  0  0  0  0  0  0  0
  -25.3280  -12.1230   20.7830 C   0  0  0  0  0  0  0  0  0  0  0  0
  -27.1120  -13.1990   20.2760 N   0  0  0  0  0  0  0  0  0  0  0  0
  -26.5980  -11.9520   20.4380 N   0  0  0  0  0  0  0  0  0  0  0  0
  -24.4510  -10.9510   20.8900 C   0  0  0  0  0  0  0  0  0  0  0  0
  -24.8770   -9.7680   21.5350 C   0  0  0  0  0  3  0  0  0  0  0  0
  -24.0110   -8.6620   21.6390 C   0  0  0  0  0  3  0  0  0  0  0  0
  -22.7020   -8.7300   21.1030 C   0  0  0  0  0  0  0  0  0  0  0  0
  -22.2920   -9.9000   20.4450 C   0  0  0  0  0  3  0  0  0  0  0  0
  -23.1590  -11.0030   20.3360 C   0  0  0  0  0  3  0  0  0  0  0  0
  -21.8000   -7.6920   21.1360 O   0  0  0  0  0  0  0  0  0  0  0  0
  -21.9740   -6.6060   21.9590 C   0  0  0  0  0  0  0  0  0  0  0  0
  -22.0880   -6.7440   23.3600 C   0  0  0  0  0  3  0  0  0  0  0  0
  -22.2020   -5.6010   24.1750 C   0  0  0  0  0  3  0  0  0  0  0  0
  -22.1910   -4.3180   23.5950 C   0  0  0  0  0  0  0  0  0  0  0  0
  -22.0670   -4.1770   22.2030 C   0  0  0  0  0  3  0  0  0  0  0  0
  -21.9590   -5.3180   21.3870 C   0  0  0  0  0  0  0  0  0  0  0  0
  -21.8200   -5.1770   20.0470 F   0  0  0  0  0  0  0  0  0  0  0  0
  -22.2950   -3.2160   24.3770 F   0  0  0  0  0  0  0  0  0  0  0  0
  -23.7190  -14.1350   21.2960 C   0  0  0  0  0  0  0  0  0  0  0  0
  -22.9430  -13.4670   22.1410 N   0  0  0  0  0  0  0  0  0  0  0  0
  -23.3930  -15.2390   20.8630 O   0  0  0  0  0  0  0  0  0  0  0  0
  -23.2230  -12.5640   22.4940 H   0  0  0  0  0  0  0  0  0  0  0  0
  -22.0590  -13.8600   22.4310 H   0  0  0  0  0  0  0  0  0  0  0  0
  -26.5120  -15.5310   20.5460 N   0  0  0  0  0  0  0  0  0  0  0  0
  -25.8320  -16.2630   20.7200 H   0  0  0  0  0  0  0  0  0  0  0  0
  -27.4390  -15.8870   20.3530 H   0  0  0  0  0  0  0  0  0  0  0  0
  -30.5190  -21.1290   20.9320 C   0  0  0  0  0  1  0  0  0  0  0  0
  -29.4110  -20.1190   21.3200 C   0  0  0  0  0  2  0  0  0  0  0  0
  -28.1250  -18.4810   19.1800 C   0  0  0  0  0  2  0  0  0  0  0  0
  -28.4850  -19.6870   18.2720 C   0  0  0  0  0  2  0  0  0  0  0  0
  -27.4950  -20.8660   18.3210 C   0  0  0  0  0  0  0  0  0  0  0  0
  -28.0090  -22.1040   18.4560 N   0  0  0  0  0  0  0  0  0  0  0  0
  -26.2840  -20.6640   18.2080 O   0  0  0  0  0  0  0  0  0  0  0  0
  -29.0150  -22.1880   18.5380 H   0  0  0  0  0  0  0  0  0  0  0  0
  -27.2410  -23.3510   18.3070 C   0  0  0  0  0  2  0  0  0  0  0  0
  -27.9470  -24.6170   18.9340 C   0  0  0  0  0  2  0  0  0  0  0  0
  -28.1150  -26.0510   18.7020 O   0  0  0  0  0  0  0  0  0  0  0  0
  -25.4000  -30.8230   23.3080 C   0  0  0  0  0  0  0  0  0  0  0  0
  -27.0760  -26.9300   19.0280 C   0  0  0  0  0  0  0  0  0  0  0  0
  -23.8790  -30.0570   21.5250 C   0  0  0  0  0  3  0  0  0  0  0  0
  -24.9620  -28.7210   19.6460 C   0  0  0  0  0  0  0  0  0  0  0  0
  -26.4110  -30.0920   21.1420 C   0  0  0  0  0  2  0  0  0  0  0  0
  -26.2340  -28.9150   20.2060 C   0  0  0  0  0  0  0  0  0  0  0  0
  -27.2980  -28.0370   19.8820 C   0  0  0  0  0  3  0  0  0  0  0  0
  -25.7840  -26.7610   18.4810 C   0  0  0  0  0  3  0  0  0  0  0  0
  -24.7330  -27.6440   18.7810 C   0  0  0  0  0  3  0  0  0  0  0  0
  -23.8770  -29.7060   20.0160 C   0  0  0  0  0  2  0  0  0  0  0  0
  -25.2570  -30.3190   22.0510 N   0  0  0  0  0  0  0  0  0  0  0  0
  -24.4150  -31.0930   24.0130 O   0  0  0  0  0  0  0  0  0  0  0  0
  -23.1320  -28.9320   22.2820 C   0  0  0  0  0  0  0  0  0  0  0  0
  -21.7950  -28.9170   22.1760 N   0  0  0  0  0  0  0  0  0  0  0  0
  -23.7620  -28.0790   22.9160 O   0  0  0  0  0  0  0  0  0  0  0  0
  -21.3510  -29.6540   21.6430 H   0  0  0  0  0  0  0  0  0  0  0  0
  -18.3350  -27.9200   22.4310 C   0  0  0  0  0  0  0  0  0  0  0  0
  -20.8950  -27.9340   22.7770 C   0  0  0  0  0  3  0  0  0  0  0  0
  -20.9110  -26.6090   21.9790 C   0  0  0  0  0  2  0  0  0  0  0  0
  -19.8180  -26.5360   20.9090 C   0  0  0  0  0  2  0  0  0  0  0  0
  -18.4330  -26.6850   21.5480 C   0  0  0  0  0  2  0  0  0  0  0  0
  -19.4950  -28.5170   22.9930 C   0  0  0  0  0  0  0  0  0  0  0  0
  -19.3530  -29.6900   23.7700 C   0  0  0  0  0  3  0  0  0  0  0  0
  -18.0850  -30.2560   23.9950 C   0  0  0  0  0  3  0  0  0  0  0  0
  -16.9400  -29.6530   23.4470 C   0  0  0  0  0  3  0  0  0  0  0  0
  -17.0660  -28.4880   22.6700 C   0  0  0  0  0  3  0  0  0  0  0  0
  -26.8070  -31.1000   23.9190 C   0  0  0  0  0  3  0  0  0  0  0  0
  -26.7210  -32.3660   24.6610 N   0  0  0  0  0  0  0  0  0  0  0  0
  -27.2400  -33.5310   24.2440 C   0  0  0  0  0  0  0  0  0  0  0  0
  -27.9060  -33.6340   23.2080 O   0  0  0  0  0  0  0  0  0  0  0  0
  -26.1250  -32.3740   25.4780 H   0  0  0  0  0  0  0  0  0  0  0  0
  -25.8710  -35.6350   24.4790 C   0  0  0  0  0  1  0  0  0  0  0  0
  -26.9810  -34.7790   25.1120 C   0  0  0  0  0  3  0  0  0  0  0  0
  -29.1940  -34.9640   26.1600 C   0  0  0  0  0  1  0  0  0  0  0  0
  -28.1860  -35.6110   25.3240 N   0  0  0  0  0  0  0  0  0  0  0  0
  -27.9430  -36.5000   25.7510 H   0  0  0  0  0  0  0  0  0  0  0  0
  -27.3190  -29.9330   24.8450 C   0  0  1  0  0  0  0  0  0  0  0  0
  -26.3070  -29.4970   25.9340 C   0  0  0  0  0  1  0  0  0  0  0  0
  -27.6570  -28.6800   24.0050 C   0  0  0  0  0  1  0  0  0  0  0  0
  -28.6350  -30.3550   25.5430 C   0  0  0  0  0  1  0  0  0  0  0  0
  -31.0040  -18.6990   23.3580 C   0  0  0  0  0  2  0  0  0  0  0  0
  -29.7500  -19.7330   25.3480 C   0  0  0  0  0  1  0  0  0  0  0  0
  -29.7610  -18.6440   24.2700 C   0  0  0  0  0  2  0  0  0  0  0  0
  1  3  1  0
  2  4  1  0
  2  1  2  0
  3  5  2  0
  3  8  1  0
  4  6  2  0
  5 96  1  0
  6 46  1  0
  6  5  1  0
  7  2  1  0
  9 15  1  0
  9  1  1  0
 10 15  1  0
 11 12  1  0
 11 10  1  0
 13 12  1  0
 13 20  1  0
 13 14  1  0
 15 14  1  0
 16  9  2  0
 17 18  2  0
 18 37  1  0
 19 22  1  0
 19 18  1  0
 20 21  1  0
 20 17  1  0
 21 19  2  0
 22 23  1  0
 23 24  2  0
 25 28  1  0
 25 24  1  0
 26 25  2  0
 27 26  1  0
 27 22  2  0
 28 29  1  0
 29 30  1  0
 30 31  2  0
 32 31  1  0
 32 36  1  0
 33 32  2  0
 34 29  2  0
 34 33  1  0
 35 34  1  0
 37 38  1  0
 38 41  1  0
 38 40  1  0
 39 37  2  0
 42 17  1  0
 42 43  1  0
 44 42  1  0
 45 46  1  0
 47  4  1  0
 48 49  1  0
 48 47  1  0
 49 50  1  0
 50 52  1  0
 51 49  2  0
 53 50  1  0
 53 54  1  0
 55 54  1  0
 55 57  1  0
 56 67  2  0
 57 62  1  0
 58 66  1  0
 58 68  1  0
 59 65  1  0
 59 61  1  0
 60 66  1  0
 61 60  1  0
 62 61  2  0
 63 64  1  0
 63 57  2  0
 64 59  2  0
 65 58  1  0
 66 56  1  0
 68 70  2  0
 69 68  1  0
 71 69  1  0
 72 81  2  0
 72 77  1  0
 73 69  1  0
 73 77  1  0
 74 73  1  0
 75 76  1  0
 75 74  1  0
 76 72  1  0
 77 78  2  0
 78 79  1  0
 80 79  2  0
 81 80  1  0
 82 56  1  0
 82 83  1  0
 82 92  1  0
 83 86  1  0
 84 83  1  0
 84 88  1  0
 85 84  2  0
 88 87  1  0
 88 90  1  0
 90 91  1  0
 90 89  1  0
 92 95  1  1
 92 93  1  0
 94 92  1  0
 96 98  1  0
 98 97  1  0
M  ISO  4   1 100   9 100  54 101  55 101
M  END
>  <TORSDO>  (81) 
F 24

>  <SCORE>  (81) 
-3.590

>  <name>  (81) 
80

>  <ligand_id>  (81) 
80

>  <original_smiles>  (81) 
[H]c1c([H])c([H])c2c(c1[H])C([H])([H])C([H])([H])C([H])([H])C2([H])N([H])C(=O)C1([H])N(C(=O)C([H])(N([H])C(=O)C([H])(N([H])C([H])([H])[H])C([H])([H])[H])C(C([H])([H])[H])(C([H])([H])[H])C([H])([H])[H])C([H])([H])c2c([H])c(OC([H])([H])C([H])([H])N([H])C(=O)C([H])([H])C([H])([H])c3c(C([H])([H])[H])c(C(=O)N4C([H])([H])C([H])([H])C([H])([H])C([H])(n5nc(-c6c([H])c([H])c(Oc7c([H])c([H])c(F)c([H])c7F)c([H])c6[H])c(C(=O)N([H])[H])c5N([H])[H])C4([H])[H])c(C([H])([H])[H])c(C([H])([H])C([H])([H])C([H])([H])[H])c3C([H])([H])C([H])([H])[H])c([H])c([H])c2C1([H])[H]

>  <smiles>  (81) 
[H]c1c([H])c([H])c2c(c1[H])C([H])([H])C([H])([H])C([H])([H])C2([H])N([H])C(=O)C1([H])N(C(=O)C([H])(N([H])C(=O)C([H])(N([H])C([H])([H])[H])C([H])([H])[H])C(C([H])([H])[H])(C([H])([H])[H])C([H])([H])[H])C([H])([H])c2c([H])c(OC([H])([H])C([H])([H])N([H])C(=O)C([H])([H])C([H])([H])c3c(C([H])([H])[H])c(C(=O)N4C([H])([H])C([H])([H])C([H])([H])C([H])(n5nc(-c6c([H])c([H])c(Oc7c([H])c([H])c(F)c([H])c7F)c([H])c6[H])c(C(=O)N([H])[H])c5N([H])[H])C4([H])[H])c(C([H])([H])[H])c(C([H])([H])C([H])([H])C([H])([H])[H])c3C([H])([H])C([H])([H])[H])c([H])c([H])c2C1([H])[H]

$$$$
81:0:0
     RDKit          3D

105114  0  0  1  0  0  0  0  0999 V2000
  -27.6500  -19.2200   19.4640 C   0  0  0  0  0  2  0  0  0  0  0  0
  -25.9130  -19.4700   18.0140 C   0  0  0  0  0  2  0  0  0  0  0  0
  -27.5680  -20.8890   19.6920 C   0  0  0  0  0  3  0  0  0  0  0  0
  -27.0080  -21.9690   18.5900 C   0  0  0  0  0  3  0  0  0  0  0  0
  -26.3530  -18.3140   19.1080 C   0  0  2  0  0  0  0  0  0  0  0  0
  -28.9350  -21.3920   20.1570 C   0  0  0  0  0  1  0  0  0  0  0  0
  -25.8490  -20.9980   18.3300 O   0  0  0  0  0  0  0  0  0  0  0  0
  -25.3690  -18.4010   20.2070 N   0  0  0  0  0  4  0  0  0  0  0  0
  -25.0550  -19.3490   20.3260 H   0  0  0  0  0  0  0  0  0  0  0  0
  -25.7440  -18.0540   21.0730 H   0  0  0  0  0  0  0  0  0  0  0  0
  -24.5580  -17.8470   19.9840 H   0  0  0  0  0  0  0  0  0  0  0  0
  -26.3180  -16.5460   18.6760 C   0  0  0  0  0  2  0  0  0  0  0  0
  -29.9870  -10.6500   18.7870 C   0  0  0  0  0  2  0  0  0  0  0  0
  -32.3670  -11.8770   20.3010 C   0  0  0  0  0  3  0  0  0  0  0  0
  -28.6780  -11.6880   18.9260 C   0  0  0  0  0  3  0  0  0  0  0  0
  -28.7400  -12.9750   19.8170 C   0  0  0  0  0  3  0  0  0  0  0  0
  -31.5930  -10.7430   19.3130 C   0  0  0  0  0  3  0  0  0  0  0  0
  -31.5890  -13.2380   20.8970 C   0  0  0  0  0  3  0  0  0  0  0  0
  -27.7860  -12.2260   17.7300 C   0  0  0  0  0  3  0  0  0  0  0  0
  -27.4440  -14.0130   19.8330 C   0  0  0  0  0  2  0  0  0  0  0  0
  -27.2270  -13.8320   17.5790 C   0  0  0  0  0  3  0  0  0  0  0  0
  -27.3460  -15.0780   18.6600 C   0  0  0  0  0  3  0  0  0  0  0  0
  -34.0250   -9.8050   18.8620 C   0  0  0  0  0  1  0  0  0  0  0  0
  -32.5520   -9.9430   18.4240 C   0  0  0  0  0  2  0  0  0  0  0  0
  -32.4090  -14.5460   21.5300 C   0  0  0  0  0  2  0  0  0  0  0  0
  -33.3630  -15.7320   20.7980 C   0  0  0  0  0  2  0  0  0  0  0  0
  -33.1780  -16.7230   19.4660 C   0  0  0  0  0  2  0  0  0  0  0  0
  -33.6070  -16.3700   17.9210 C   0  0  0  0  0  0  0  0  0  0  0  0
  -33.4550  -14.4730   16.2510 C   0  0  0  0  0  2  0  0  0  0  0  0
  -31.9870  -14.2830   15.7650 C   0  0  0  0  0  2  0  0  0  0  0  0
  -30.8930  -14.1170   16.8270 C   0  0  0  0  0  2  0  0  0  0  0  0
  -31.2370  -14.8850   18.1680 C   0  0  0  0  0  3  0  0  0  0  0  0
  -32.6790  -14.3220   18.4070 C   0  0  0  0  0  2  0  0  0  0  0  0
  -33.4870  -15.0850   17.5780 N   0  0  0  0  0  0  0  0  0  0  0  0
  -33.8990  -17.1910   17.0270 O   0  0  0  0  0  0  0  0  0  0  0  0
  -29.7360  -14.9680   20.8380 C   0  0  0  0  0  3  0  0  0  0  0  0
  -29.2720  -13.6830   21.8390 C   0  0  0  0  0  3  0  0  0  0  0  0
  -29.6390  -12.0960   21.1170 C   0  0  0  0  0  3  0  0  0  0  0  0
  -30.4830  -14.5460   19.2770 N   0  0  0  0  0  0  0  0  0  0  0  0
  -30.5850  -12.9570   19.0270 N   0  0  0  0  0  1  0  0  0  0  0  0
  -29.6430  -10.7750   21.7890 C   0  0  0  0  0  0  0  0  0  0  0  0
  -30.8430  -10.1000   22.1810 C   0  0  0  0  0  3  0  0  0  0  0  0
  -30.8320   -8.7650   22.5880 C   0  0  0  0  0  3  0  0  0  0  0  0
  -29.5810   -8.1420   22.7220 C   0  0  0  0  0  0  0  0  0  0  0  0
  -28.3890   -8.8270   22.4140 C   0  0  0  0  0  3  0  0  0  0  0  0
  -28.4080  -10.1450   21.9490 C   0  0  0  0  0  3  0  0  0  0  0  0
  -29.4490   -6.8860   23.2360 O   0  0  0  0  0  0  0  0  0  0  0  0
  -30.5340   -6.1250   23.5900 C   0  0  0  0  0  0  0  0  0  0  0  0
  -31.6280   -6.6490   24.3180 C   0  0  0  0  0  3  0  0  0  0  0  0
  -32.6770   -5.8060   24.7210 C   0  0  0  0  0  3  0  0  0  0  0  0
  -32.6320   -4.4360   24.4060 C   0  0  0  0  0  0  0  0  0  0  0  0
  -31.5600   -3.9130   23.6640 C   0  0  0  0  0  3  0  0  0  0  0  0
  -30.5080   -4.7540   23.2620 C   0  0  0  0  0  0  0  0  0  0  0  0
  -29.4600   -4.2520   22.5600 F   0  0  0  0  0  0  0  0  0  0  0  0
  -33.6200   -3.6190   24.8210 F   0  0  0  0  0  0  0  0  0  0  0  0
  -28.1240  -13.6830   22.7750 C   0  0  0  0  0  0  0  0  0  0  0  0
  -28.1790  -12.7790   23.7310 N   0  0  0  0  0  0  0  0  0  0  0  0
  -27.1440  -14.4000   22.6020 O   0  0  0  0  0  0  0  0  0  0  0  0
  -28.9850  -12.1790   23.8150 H   0  0  0  0  0  0  0  0  0  0  0  0
  -27.4010  -12.6770   24.3650 H   0  0  0  0  0  0  0  0  0  0  0  0
  -29.4080  -16.3010   20.8730 N   0  0  0  0  0  0  0  0  0  0  0  0
  -29.0400  -16.7580   21.6960 H   0  0  0  0  0  0  0  0  0  0  0  0
  -29.6930  -16.9650   20.1650 H   0  0  0  0  0  0  0  0  0  0  0  0
  -26.7700  -23.7690   18.9390 C   0  0  0  0  0  2  0  0  0  0  0  0
  -27.5290  -25.2980   18.9740 O   0  0  0  0  0  0  0  0  0  0  0  0
  -24.5020  -31.1710   22.9410 C   0  0  0  0  0  0  0  0  0  0  0  0
  -26.7870  -26.5670   19.2280 C   0  0  0  0  0  0  0  0  0  0  0  0
  -23.2660  -29.8730   21.2810 C   0  0  0  0  0  3  0  0  0  0  0  0
  -24.6340  -28.5010   19.6030 C   0  0  0  0  0  0  0  0  0  0  0  0
  -25.8320  -30.1160   21.0350 C   0  0  0  0  0  2  0  0  0  0  0  0
  -25.8570  -28.7840   20.2210 C   0  0  0  0  0  0  0  0  0  0  0  0
  -26.9570  -27.8100   20.0420 C   0  0  0  0  0  3  0  0  0  0  0  0
  -25.6050  -26.5680   18.5050 C   0  0  0  0  0  3  0  0  0  0  0  0
  -24.5360  -27.4320   18.7260 C   0  0  0  0  0  3  0  0  0  0  0  0
  -23.4250  -29.3890   19.8270 C   0  0  0  0  0  2  0  0  0  0  0  0
  -24.5600  -30.4130   21.8020 N   0  0  0  0  0  0  0  0  0  0  0  0
  -23.4280  -31.3790   23.5310 O   0  0  0  0  0  0  0  0  0  0  0  0
  -22.6840  -28.7410   22.1690 C   0  0  0  0  0  0  0  0  0  0  0  0
  -21.3700  -28.4760   22.0550 N   0  0  0  0  0  0  0  0  0  0  0  0
  -23.4150  -28.1230   22.9480 O   0  0  0  0  0  0  0  0  0  0  0  0
  -20.8260  -29.0370   21.4160 H   0  0  0  0  0  0  0  0  0  0  0  0
  -18.1260  -26.9040   22.4630 C   0  0  0  0  0  0  0  0  0  0  0  0
  -20.6380  -27.4340   22.7830 C   0  0  0  0  0  3  0  0  0  0  0  0
  -20.9010  -26.0360   22.1740 C   0  0  0  0  0  2  0  0  0  0  0  0
  -19.8560  -25.6260   21.1310 C   0  0  0  0  0  2  0  0  0  0  0  0
  -18.4580  -25.6010   21.7540 C   0  0  0  0  0  2  0  0  0  0  0  0
  -19.1490  -27.7720   22.9330 C   0  0  0  0  0  0  0  0  0  0  0  0
  -18.7830  -28.9830   23.5570 C   0  0  0  0  0  3  0  0  0  0  0  0
  -17.4280  -29.3330   23.7140 C   0  0  0  0  0  3  0  0  0  0  0  0
  -16.4200  -28.4650   23.2590 C   0  0  0  0  0  3  0  0  0  0  0  0
  -16.7690  -27.2510   22.6400 C   0  0  0  0  0  3  0  0  0  0  0  0
  -25.7730  -31.8320   23.5450 C   0  0  0  0  0  3  0  0  0  0  0  0
  -26.3710  -31.0170   24.7590 C   0  0  1  0  0  0  0  0  0  0  0  0
  -25.3330  -30.6660   25.8500 C   0  0  0  0  0  1  0  0  0  0  0  0
  -27.0050  -29.6910   24.2820 C   0  0  0  0  0  1  0  0  0  0  0  0
  -27.5070  -31.8290   25.4240 C   0  0  0  0  0  1  0  0  0  0  0  0
  -25.4080  -33.1920   23.9840 N   0  0  0  0  0  0  0  0  0  0  0  0
  -25.8190  -34.3270   23.4050 C   0  0  0  0  0  0  0  0  0  0  0  0
  -26.6110  -34.3420   22.4590 O   0  0  0  0  0  0  0  0  0  0  0  0
  -24.7220  -33.2550   24.7220 H   0  0  0  0  0  0  0  0  0  0  0  0
  -24.1740  -36.1990   23.0240 C   0  0  0  0  0  1  0  0  0  0  0  0
  -25.2680  -35.6590   23.9590 C   0  0  0  0  0  3  0  0  0  0  0  0
  -27.2580  -36.3690   25.2130 C   0  0  0  0  0  1  0  0  0  0  0  0
  -26.3070  -36.6950   24.1550 N   0  0  0  0  0  0  0  0  0  0  0  0
  -25.8820  -37.5920   24.3780 H   0  0  0  0  0  0  0  0  0  0  0  0
  1  3  1  0
  2  7  1  0
  2  5  1  0
  3  6  1  0
  4 64  1  0
  4  3  1  0
  5 12  1  6
  5  1  1  0
  5  8  1  0
  7  4  1  0
  8  9  1  0
  8 10  1  0
 11  8  1  0
 13 15  1  0
 13 17  1  0
 14 18  2  0
 15 19  1  0
 15 16  1  0
 16 20  1  0
 16 38  1  0
 17 24  1  0
 17 14  1  0
 18 25  1  0
 21 19  2  0
 21 22  1  0
 22 12  1  0
 22 20  1  0
 24 23  1  0
 26 25  1  0
 27 26  1  0
 28 27  1  0
 29 34  1  0
 30 29  1  0
 30 31  1  0
 32 31  1  0
 32 33  1  0
 32 39  1  0
 34 28  1  0
 34 33  1  0
 35 28  2  0
 36 61  1  0
 36 37  1  0
 37 56  1  0
 38 41  1  0
 38 37  1  0
 39 36  1  0
 40 39  1  0
 41 46  2  0
 41 42  1  0
 42 43  2  0
 43 44  1  0
 44 47  1  0
 45 44  2  0
 46 45  1  0
 47 48  1  0
 48 49  1  0
 49 50  2  0
 51 50  1  0
 51 55  1  0
 52 51  2  0
 53 48  2  0
 53 52  1  0
 54 53  1  0
 56 57  1  0
 57 59  1  0
 57 60  1  0
 58 56  2  0
 61 62  1  0
 63 61  1  0
 64 65  1  0
 65 67  1  0
 66 77  2  0
 67 72  1  0
 68 76  1  0
 68 78  1  0
 69 75  1  0
 69 71  1  0
 70 76  1  0
 71 70  1  0
 72 71  2  0
 73 74  1  0
 73 67  2  0
 74 69  2  0
 75 68  1  0
 76 66  1  0
 78 80  2  0
 79 78  1  0
 81 79  1  0
 82 91  2  0
 82 87  1  0
 83 79  1  0
 83 87  1  0
 84 83  1  0
 85 86  1  0
 85 84  1  0
 86 82  1  0
 87 88  2  0
 88 89  1  0
 90 89  2  0
 91 90  1  0
 92 66  1  0
 92 97  1  0
 92 93  1  0
 93 96  1  1
 93 94  1  0
 95 93  1  0
 97100  1  0
 98102  1  0
 98 97  1  0
 99 98  2  0
102101  1  0
102104  1  0
104105  1  0
104103  1  0
M  ISO  4  27 100  28 100  64 101  65 101
M  END
>  <TORSDO>  (82) 
F 24

>  <SCORE>  (82) 
7.473

>  <name>  (82) 
81

>  <ligand_id>  (82) 
81

>  <original_smiles>  (82) 
[H]c1c([H])c([H])c2c(c1[H])C([H])([H])C([H])([H])C([H])([H])C2([H])N([H])C(=O)C1([H])N(C(=O)C([H])(N([H])C(=O)C([H])(N([H])C([H])([H])[H])C([H])([H])[H])C(C([H])([H])[H])(C([H])([H])[H])C([H])([H])[H])C([H])([H])c2c([H])c(OC([H])([H])C3([H])OC([H])([H])C(C([H])([H])C4([H])C([H])([H])c5c(C([H])([H])C([H])([H])C([H])([H])C(=O)N6C([H])([H])C([H])([H])C([H])([H])C([H])(n7nc(-c8c([H])c([H])c(Oc9c([H])c([H])c(F)c([H])c9F)c([H])c8[H])c(C(=O)N([H])[H])c7N([H])[H])C6([H])[H])c([H])c(C([H])([H])C([H])([H])[H])c([H])c5C([H])([H])C4([H])[H])([N+]([H])([H])[H])C([H])([H])C3([H])C([H])([H])[H])c([H])c([H])c2C1([H])[H]

>  <smiles>  (82) 
[H]c1c([H])c([H])c2c(c1[H])C([H])([H])C([H])([H])C([H])([H])C2([H])N([H])C(=O)C1([H])N(C(=O)C([H])(N([H])C(=O)C([H])(N([H])C([H])([H])[H])C([H])([H])[H])C(C([H])([H])[H])(C([H])([H])[H])C([H])([H])[H])C([H])([H])c2c([H])c(OC([H])([H])C3([H])OC([H])([H])C(C([H])([H])C4([H])C([H])([H])c5c(C([H])([H])C([H])([H])C([H])([H])C(=O)N6C([H])([H])C([H])([H])C([H])([H])C([H])(n7nc(-c8c([H])c([H])c(Oc9c([H])c([H])c(F)c([H])c9F)c([H])c8[H])c(C(=O)N([H])[H])c7N([H])[H])C6([H])[H])c([H])c(C([H])([H])C([H])([H])[H])c([H])c5C([H])([H])C4([H])[H])([N+]([H])([H])[H])C([H])([H])C3([H])C([H])([H])[H])c([H])c([H])c2C1([H])[H]

$$$$
82:0:0
     RDKit          3D

 91 99  0  0  1  0  0  0  0  0999 V2000
  -31.1870  -22.4270   20.9900 C   0  0  0  0  0  3  0  0  0  0  0  0
  -31.6530  -23.7520   20.8650 C   0  0  0  0  0  3  0  0  0  0  0  0
  -29.0180  -23.1300   20.1690 C   0  0  0  0  0  3  0  0  0  0  0  0
  -29.8620  -22.1000   20.6320 C   0  0  0  0  0  0  0  0  0  0  0  0
  -30.8070  -24.7750   20.3780 C   0  0  0  0  0  0  0  0  0  0  0  0
  -29.4650  -24.4660   20.0420 C   0  0  0  0  0  0  0  0  0  0  0  0
  -31.3620  -26.1790   20.2220 C   0  0  0  0  0  1  0  0  0  0  0  0
  -29.3120  -20.7160   20.7570 C   0  0  0  0  0  0  0  0  0  0  0  0
  -28.0990  -20.4780   20.7530 O   0  0  0  0  0  0  0  0  0  0  0  0
  -30.3190  -19.5570   20.8470 C   0  0  0  0  0  2  0  0  0  0  0  0
  -29.6750  -18.1580   20.9540 C   0  0  0  0  0  2  0  0  0  0  0  0
  -30.6900  -17.0190   20.7510 C   0  0  0  0  0  2  0  0  0  0  0  0
  -30.0950  -15.6290   21.0670 C   0  0  0  0  0  2  0  0  0  0  0  0
  -30.7940  -14.4590   20.3430 C   0  0  0  0  0  0  0  0  0  0  0  0
  -30.4650  -12.3200   19.1570 C   0  0  0  0  0  2  0  0  0  0  0  0
  -29.4820  -12.5390   17.9890 C   0  0  0  0  0  2  0  0  0  0  0  0
  -28.0240  -12.4010   18.4650 C   0  0  0  0  0  2  0  0  0  0  0  0
  -27.7300  -13.2460   19.7300 C   0  0  0  0  0  3  0  0  0  0  0  0
  -28.8120  -13.0000   20.8050 C   0  0  0  0  0  2  0  0  0  0  0  0
  -30.1240  -13.2880   20.2080 N   0  0  0  0  0  0  0  0  0  0  0  0
  -31.8930  -14.6590   19.8150 O   0  0  0  0  0  0  0  0  0  0  0  0
  -25.3620  -13.8760   20.5290 C   0  0  0  0  0  0  0  0  0  0  0  0
  -24.2950  -13.1070   20.9160 C   0  0  0  0  0  0  0  0  0  0  0  0
  -24.7400  -11.7510   20.8470 C   0  0  0  0  0  0  0  0  0  0  0  0
  -26.3890  -12.9860   20.2500 N   0  0  0  0  0  0  0  0  0  0  0  0
  -26.0200  -11.7040   20.4980 N   0  0  0  0  0  0  0  0  0  0  0  0
  -24.0060  -10.4940   21.0410 C   0  0  0  0  0  0  0  0  0  0  0  0
  -24.4420   -9.5160   21.9620 C   0  0  0  0  0  3  0  0  0  0  0  0
  -23.7090   -8.3250   22.1420 C   0  0  0  0  0  3  0  0  0  0  0  0
  -22.5250   -8.1020   21.3990 C   0  0  0  0  0  0  0  0  0  0  0  0
  -22.1070   -9.0680   20.4660 C   0  0  0  0  0  3  0  0  0  0  0  0
  -22.8410  -10.2530   20.2850 C   0  0  0  0  0  3  0  0  0  0  0  0
  -21.7620   -6.9620   21.4890 O   0  0  0  0  0  0  0  0  0  0  0  0
  -21.7080   -6.2220   22.6440 C   0  0  0  0  0  0  0  0  0  0  0  0
  -21.2640   -6.7800   23.8630 C   0  0  0  0  0  3  0  0  0  0  0  0
  -21.1520   -5.9680   25.0080 C   0  0  0  0  0  3  0  0  0  0  0  0
  -21.4760   -4.5990   24.9360 C   0  0  0  0  0  0  0  0  0  0  0  0
  -21.9160   -4.0410   23.7220 C   0  0  0  0  0  3  0  0  0  0  0  0
  -22.0270   -4.8500   22.5780 C   0  0  0  0  0  0  0  0  0  0  0  0
  -22.4300   -4.3040   21.4040 F   0  0  0  0  0  0  0  0  0  0  0  0
  -21.3610   -3.8170   26.0340 F   0  0  0  0  0  0  0  0  0  0  0  0
  -22.9140  -13.5930   21.2460 C   0  0  0  0  0  0  0  0  0  0  0  0
  -22.2120  -12.8830   22.1220 N   0  0  0  0  0  0  0  0  0  0  0  0
  -22.4690  -14.6330   20.7640 O   0  0  0  0  0  0  0  0  0  0  0  0
  -22.5820  -12.0310   22.5170 H   0  0  0  0  0  0  0  0  0  0  0  0
  -21.2930  -13.1970   22.4020 H   0  0  0  0  0  0  0  0  0  0  0  0
  -25.5340  -15.2490   20.3750 N   0  0  0  0  0  0  0  0  0  0  0  0
  -24.7730  -15.9060   20.5100 H   0  0  0  0  0  0  0  0  0  0  0  0
  -26.3810  -15.6920   20.0420 H   0  0  0  0  0  0  0  0  0  0  0  0
  -28.4710  -25.4810   19.4810 C   0  0  0  0  0  2  0  0  0  0  0  0
  -28.4390  -26.7640   20.1240 O   0  0  0  0  0  0  0  0  0  0  0  0
  -24.5420  -31.8590   23.2140 C   0  0  0  0  0  0  0  0  0  0  0  0
  -27.2530  -27.4810   20.0810 C   0  0  0  0  0  0  0  0  0  0  0  0
  -23.3660  -30.4740   21.5400 C   0  0  0  0  0  3  0  0  0  0  0  0
  -24.8470  -28.9800   20.1050 C   0  0  0  0  0  0  0  0  0  0  0  0
  -25.8940  -30.8550   21.3750 C   0  0  0  0  0  2  0  0  0  0  0  0
  -25.9950  -29.4930   20.7190 C   0  0  0  0  0  0  0  0  0  0  0  0
  -27.1980  -28.7460   20.7120 C   0  0  0  0  0  3  0  0  0  0  0  0
  -26.0810  -27.0020   19.4420 C   0  0  0  0  0  3  0  0  0  0  0  0
  -24.8830  -27.7330   19.4670 C   0  0  0  0  0  3  0  0  0  0  0  0
  -23.5970  -29.8250   20.1500 C   0  0  0  0  0  2  0  0  0  0  0  0
  -24.6190  -31.0750   22.1030 N   0  0  0  0  0  0  0  0  0  0  0  0
  -23.4500  -32.1130   23.7430 O   0  0  0  0  0  0  0  0  0  0  0  0
  -22.7150  -29.4280   22.4740 C   0  0  0  0  0  0  0  0  0  0  0  0
  -21.3890  -29.2540   22.3460 N   0  0  0  0  0  0  0  0  0  0  0  0
  -23.3980  -28.7810   23.2720 O   0  0  0  0  0  0  0  0  0  0  0  0
  -20.8980  -29.8320   21.6780 H   0  0  0  0  0  0  0  0  0  0  0  0
  -18.0100  -28.0690   22.8320 C   0  0  0  0  0  0  0  0  0  0  0  0
  -20.5710  -28.3000   23.0960 C   0  0  0  0  0  3  0  0  0  0  0  0
  -20.6580  -26.8830   22.4820 C   0  0  0  0  0  2  0  0  0  0  0  0
  -19.5480  -26.5960   21.4660 C   0  0  0  0  0  2  0  0  0  0  0  0
  -18.1720  -26.7350   22.1230 C   0  0  0  0  0  2  0  0  0  0  0  0
  -19.1370  -28.8110   23.2770 C   0  0  0  0  0  0  0  0  0  0  0  0
  -18.9310  -30.0600   23.9010 C   0  0  0  0  0  3  0  0  0  0  0  0
  -17.6310  -30.5690   24.0840 C   0  0  0  0  0  3  0  0  0  0  0  0
  -16.5180  -29.8240   23.6550 C   0  0  0  0  0  3  0  0  0  0  0  0
  -16.7090  -28.5760   23.0370 C   0  0  0  0  0  3  0  0  0  0  0  0
  -25.8140  -32.4940   23.8570 C   0  0  0  0  0  3  0  0  0  0  0  0
  -25.4960  -33.8910   24.1810 N   0  0  0  0  0  0  0  0  0  0  0  0
  -25.8340  -34.9430   23.4230 C   0  0  0  0  0  0  0  0  0  0  0  0
  -26.5170  -34.8390   22.4000 O   0  0  0  0  0  0  0  0  0  0  0  0
  -24.8890  -34.0450   24.9710 H   0  0  0  0  0  0  0  0  0  0  0  0
  -24.1030  -36.7260   23.0440 C   0  0  0  0  0  1  0  0  0  0  0  0
  -25.3370  -36.3310   23.8720 C   0  0  0  0  0  3  0  0  0  0  0  0
  -27.4560  -37.2250   24.7290 C   0  0  0  0  0  1  0  0  0  0  0  0
  -26.3650  -37.3880   23.7710 N   0  0  0  0  0  0  0  0  0  0  0  0
  -25.9540  -38.3050   23.9140 H   0  0  0  0  0  0  0  0  0  0  0  0
  -26.3130  -31.7230   25.1380 C   0  0  1  0  0  0  0  0  0  0  0  0
  -25.2040  -31.4740   26.1870 C   0  0  0  0  0  1  0  0  0  0  0  0
  -26.9110  -30.3510   24.7470 C   0  0  0  0  0  1  0  0  0  0  0  0
  -27.4500  -32.5190   25.8220 C   0  0  0  0  0  1  0  0  0  0  0  0
  2  1  1  0
  3  4  1  0
  4  8  1  0
  4  1  2  0
  5  2  2  0
  6  3  2  0
  6  5  1  0
  7  5  1  0
  8 10  1  0
  9  8  2  0
 10 11  1  0
 12 11  1  0
 12 13  1  0
 14 13  1  0
 15 20  1  0
 16 17  1  0
 16 15  1  0
 18 17  1  0
 18 25  1  0
 18 19  1  0
 20 14  1  0
 20 19  1  0
 21 14  2  0
 22 23  2  0
 23 42  1  0
 24 23  1  0
 24 27  1  0
 25 26  1  0
 25 22  1  0
 26 24  2  0
 27 28  1  0
 28 29  2  0
 30 33  1  0
 30 29  1  0
 31 30  2  0
 32 31  1  0
 32 27  2  0
 33 34  1  0
 34 35  1  0
 35 36  2  0
 37 36  1  0
 37 41  1  0
 38 37  2  0
 39 34  2  0
 39 38  1  0
 40 39  1  0
 42 43  1  0
 43 46  1  0
 43 45  1  0
 44 42  2  0
 47 48  1  0
 47 22  1  0
 49 47  1  0
 50  6  1  0
 50 51  1  0
 52 63  2  0
 53 51  1  0
 53 58  1  0
 54 62  1  0
 54 64  1  0
 55 61  1  0
 55 57  1  0
 56 62  1  0
 57 56  1  0
 58 57  2  0
 59 60  1  0
 59 53  2  0
 60 55  2  0
 61 54  1  0
 62 52  1  0
 64 66  2  0
 65 64  1  0
 67 65  1  0
 68 77  2  0
 68 73  1  0
 69 65  1  0
 69 73  1  0
 70 69  1  0
 71 72  1  0
 71 70  1  0
 72 68  1  0
 73 74  2  0
 74 75  1  0
 76 75  2  0
 77 76  1  0
 78 52  1  0
 78 79  1  0
 78 88  1  0
 79 82  1  0
 80 84  1  0
 80 79  1  0
 81 80  2  0
 84 83  1  0
 86 84  1  0
 86 87  1  0
 86 85  1  0
 88 91  1  1
 88 89  1  0
 90 88  1  0
M  ISO  4  13 100  14 100  50 101  51 101
M  END
>  <TORSDO>  (83) 
F 22

>  <SCORE>  (83) 
-13.111

>  <name>  (83) 
82

>  <ligand_id>  (83) 
82

>  <original_smiles>  (83) 
[H]c1c([H])c([H])c2c(c1[H])C([H])([H])C([H])([H])C([H])([H])C2([H])N([H])C(=O)C1([H])N(C(=O)C([H])(N([H])C(=O)C([H])(N([H])C([H])([H])[H])C([H])([H])[H])C(C([H])([H])[H])(C([H])([H])[H])C([H])([H])[H])C([H])([H])c2c([H])c(OC([H])([H])c3c([H])c(C(=O)C([H])([H])C([H])([H])C([H])([H])C([H])([H])C(=O)N4C([H])([H])C([H])([H])C([H])([H])C([H])(n5nc(-c6c([H])c([H])c(Oc7c([H])c([H])c(F)c([H])c7F)c([H])c6[H])c(C(=O)N([H])[H])c5N([H])[H])C4([H])[H])c([H])c([H])c3C([H])([H])[H])c([H])c([H])c2C1([H])[H]

>  <smiles>  (83) 
[H]c1c([H])c([H])c2c(c1[H])C([H])([H])C([H])([H])C([H])([H])C2([H])N([H])C(=O)C1([H])N(C(=O)C([H])(N([H])C(=O)C([H])(N([H])C([H])([H])[H])C([H])([H])[H])C(C([H])([H])[H])(C([H])([H])[H])C([H])([H])[H])C([H])([H])c2c([H])c(OC([H])([H])c3c([H])c(C(=O)C([H])([H])C([H])([H])C([H])([H])C([H])([H])C(=O)N4C([H])([H])C([H])([H])C([H])([H])C([H])(n5nc(-c6c([H])c([H])c(Oc7c([H])c([H])c(F)c([H])c7F)c([H])c6[H])c(C(=O)N([H])[H])c5N([H])[H])C4([H])[H])c([H])c([H])c3C([H])([H])[H])c([H])c([H])c2C1([H])[H]

$$$$
83:0:0
     RDKit          3D

 93102  0  0  1  0  0  0  0  0999 V2000
  -28.8700  -22.7500   19.2490 C   0  0  0  0  0  3  0  0  0  0  0  0
  -28.6750  -24.1750   19.0860 C   0  0  0  0  0  3  0  0  0  0  0  0
  -28.9220  -23.0440   21.6010 C   0  0  0  0  0  3  0  0  0  0  0  0
  -29.0130  -22.1110   20.5210 C   0  0  0  0  0  0  0  0  0  0  0  0
  -28.6920  -24.4640   21.4460 C   0  0  0  0  0  0  0  0  0  0  0  0
  -28.5590  -25.1010   20.1710 C   0  0  0  0  0  0  0  0  0  0  0  0
  -28.5650  -25.3210   22.6910 C   0  0  0  0  0  1  0  0  0  0  0  0
  -28.5070  -26.5320   19.9870 O   0  0  0  0  0  0  0  0  0  0  0  0
  -24.6920  -31.8870   23.1480 C   0  0  0  0  0  0  0  0  0  0  0  0
  -27.3580  -27.3630   20.0150 C   0  0  0  0  0  0  0  0  0  0  0  0
  -23.5050  -30.5050   21.4810 C   0  0  0  0  0  3  0  0  0  0  0  0
  -24.9750  -28.9840   20.0260 C   0  0  0  0  0  0  0  0  0  0  0  0
  -26.0420  -30.8420   21.3050 C   0  0  0  0  0  2  0  0  0  0  0  0
  -26.1390  -29.4680   20.6360 C   0  0  0  0  0  0  0  0  0  0  0  0
  -27.3300  -28.6700   20.6180 C   0  0  0  0  0  3  0  0  0  0  0  0
  -26.1710  -26.9430   19.3800 C   0  0  0  0  0  3  0  0  0  0  0  0
  -24.9970  -27.7310   19.3870 C   0  0  0  0  0  3  0  0  0  0  0  0
  -23.7290  -29.8510   20.0900 C   0  0  0  0  0  2  0  0  0  0  0  0
  -24.7650  -31.0960   22.0360 N   0  0  0  0  0  0  0  0  0  0  0  0
  -23.6050  -32.1420   23.6880 O   0  0  0  0  0  0  0  0  0  0  0  0
  -22.8490  -29.4670   22.4240 C   0  0  0  0  0  0  0  0  0  0  0  0
  -21.5280  -29.2680   22.2830 N   0  0  0  0  0  0  0  0  0  0  0  0
  -23.5290  -28.8440   23.2420 O   0  0  0  0  0  0  0  0  0  0  0  0
  -21.0340  -29.8230   21.5990 H   0  0  0  0  0  0  0  0  0  0  0  0
  -18.1730  -27.9820   22.7250 C   0  0  0  0  0  0  0  0  0  0  0  0
  -20.7200  -28.3020   23.0330 C   0  0  0  0  0  3  0  0  0  0  0  0
  -20.8660  -26.8790   22.4440 C   0  0  0  0  0  2  0  0  0  0  0  0
  -19.7860  -26.5400   21.4110 C   0  0  0  0  0  2  0  0  0  0  0  0
  -18.3920  -26.6440   22.0370 C   0  0  0  0  0  2  0  0  0  0  0  0
  -19.2660  -28.7670   23.1780 C   0  0  0  0  0  0  0  0  0  0  0  0
  -19.0070  -30.0170   23.7800 C   0  0  0  0  0  3  0  0  0  0  0  0
  -17.6880  -30.4830   23.9350 C   0  0  0  0  0  3  0  0  0  0  0  0
  -16.6100  -29.6960   23.4990 C   0  0  0  0  0  3  0  0  0  0  0  0
  -16.8530  -28.4470   22.9000 C   0  0  0  0  0  3  0  0  0  0  0  0
  -25.9670  -32.5230   23.7830 C   0  0  0  0  0  3  0  0  0  0  0  0
  -26.5020  -31.7230   25.0350 C   0  0  1  0  0  0  0  0  0  0  0  0
  -25.4210  -31.4370   26.1030 C   0  0  0  0  0  1  0  0  0  0  0  0
  -27.1040  -30.3650   24.6020 C   0  0  0  0  0  1  0  0  0  0  0  0
  -27.6450  -32.5130   25.7150 C   0  0  0  0  0  1  0  0  0  0  0  0
  -25.6360  -33.9060   24.1600 N   0  0  0  0  0  0  0  0  0  0  0  0
  -25.9330  -34.9870   23.4280 C   0  0  0  0  0  0  0  0  0  0  0  0
  -26.5820  -34.9270   22.3800 O   0  0  0  0  0  0  0  0  0  0  0  0
  -25.0540  -34.0250   24.9760 H   0  0  0  0  0  0  0  0  0  0  0  0
  -24.1570  -36.7530   23.1740 C   0  0  0  0  0  1  0  0  0  0  0  0
  -25.4290  -36.3530   23.9370 C   0  0  0  0  0  3  0  0  0  0  0  0
  -27.5650  -37.2650   24.7330 C   0  0  0  0  0  1  0  0  0  0  0  0
  -26.4350  -37.4310   23.8240 N   0  0  0  0  0  0  0  0  0  0  0  0
  -26.0120  -38.3380   24.0060 H   0  0  0  0  0  0  0  0  0  0  0  0
  -28.9450  -20.5090   20.7750 C   0  0  0  0  0  3  0  0  0  0  0  0
  -30.0420  -19.3100   20.4600 C   0  0  0  0  0  3  0  0  0  0  0  0
  -29.9930  -16.3940   19.9700 C   0  0  0  0  0  3  0  0  0  0  0  0
  -28.9920  -16.6790   19.1400 C   0  0  0  0  0  3  0  0  0  0  0  0
  -28.2110  -17.4500   20.1870 C   0  0  0  0  0  2  0  0  0  0  0  0
  -29.6060  -17.7510   20.8190 C   0  0  2  0  0  0  0  0  0  0  0  0
  -29.8250  -17.4860   22.3100 C   0  0  0  0  0  1  0  0  0  0  0  0
  -30.7430  -15.0510   20.1140 C   0  0  0  0  0  0  0  0  0  0  0  0
  -30.4810  -12.7900   19.0500 C   0  0  0  0  0  2  0  0  0  0  0  0
  -29.4640  -12.8350   17.8890 C   0  0  0  0  0  2  0  0  0  0  0  0
  -28.0220  -12.6210   18.4020 C   0  0  0  0  0  2  0  0  0  0  0  0
  -27.6990  -13.4330   19.6870 C   0  0  0  0  0  3  0  0  0  0  0  0
  -28.8470  -13.4140   20.7130 C   0  0  0  0  0  2  0  0  0  0  0  0
  -30.0790  -13.8320   20.0260 N   0  0  0  0  0  0  0  0  0  0  0  0
  -31.9640  -15.0310   19.9510 O   0  0  0  0  0  0  0  0  0  0  0  0
  -25.3660  -13.9230   20.6220 C   0  0  0  0  0  0  0  0  0  0  0  0
  -24.3400  -13.1140   21.0170 C   0  0  0  0  0  0  0  0  0  0  0  0
  -24.8250  -11.7800   20.8780 C   0  0  0  0  0  0  0  0  0  0  0  0
  -26.4070  -13.0830   20.2670 N   0  0  0  0  0  0  0  0  0  0  0  0
  -26.0950  -11.7800   20.4860 N   0  0  0  0  0  0  0  0  0  0  0  0
  -24.1310  -10.4990   21.0390 C   0  0  0  0  0  0  0  0  0  0  0  0
  -24.5510   -9.5460   21.9940 C   0  0  0  0  0  3  0  0  0  0  0  0
  -23.8560   -8.3270   22.1390 C   0  0  0  0  0  3  0  0  0  0  0  0
  -22.7280   -8.0520   21.3310 C   0  0  0  0  0  0  0  0  0  0  0  0
  -22.3270   -8.9930   20.3660 C   0  0  0  0  0  3  0  0  0  0  0  0
  -23.0240  -10.2050   20.2180 C   0  0  0  0  0  3  0  0  0  0  0  0
  -22.0100   -6.8830   21.3880 O   0  0  0  0  0  0  0  0  0  0  0  0
  -21.7990   -6.2240   22.5730 C   0  0  0  0  0  0  0  0  0  0  0  0
  -21.1420   -6.8390   23.6610 C   0  0  0  0  0  3  0  0  0  0  0  0
  -20.8880   -6.1040   24.8360 C   0  0  0  0  0  3  0  0  0  0  0  0
  -21.2780   -4.7540   24.9210 C   0  0  0  0  0  0  0  0  0  0  0  0
  -21.9280   -4.1380   23.8370 C   0  0  0  0  0  3  0  0  0  0  0  0
  -22.1850   -4.8700   22.6640 C   0  0  0  0  0  0  0  0  0  0  0  0
  -22.7940   -4.2690   21.6140 F   0  0  0  0  0  0  0  0  0  0  0  0
  -21.0270   -4.0450   26.0450 F   0  0  0  0  0  0  0  0  0  0  0  0
  -22.9580  -13.5580   21.4000 C   0  0  0  0  0  0  0  0  0  0  0  0
  -22.2970  -12.8090   22.2750 N   0  0  0  0  0  0  0  0  0  0  0  0
  -22.4730  -14.5980   20.9580 O   0  0  0  0  0  0  0  0  0  0  0  0
  -22.7080  -11.9680   22.6500 H   0  0  0  0  0  0  0  0  0  0  0  0
  -21.3690  -13.0770   22.5730 H   0  0  0  0  0  0  0  0  0  0  0  0
  -25.4770  -15.2980   20.5070 N   0  0  0  0  0  0  0  0  0  0  0  0
  -24.7080  -15.9250   20.7090 H   0  0  0  0  0  0  0  0  0  0  0  0
  -26.2850  -15.7610   20.1140 H   0  0  0  0  0  0  0  0  0  0  0  0
  -28.3310  -15.9860   18.2050 O   0  0  0  0  0  0  0  0  0  0  0  0
  -27.4580  -16.3580   18.1400 H   0  0  0  0  0  0  0  0  0  0  0  0
  1  4  1  0
  2  1  2  0
  2  6  1  0
  4 49  1  0
  4  3  2  0
  5  3  1  0
  5  7  1  0
  6  5  2  0
  8 10  1  0
  8  6  1  0
  9 20  2  0
 10 15  1  0
 11 19  1  0
 11 21  1  0
 12 18  1  0
 12 14  1  0
 13 19  1  0
 14 13  1  0
 15 14  2  0
 16 17  1  0
 16 10  2  0
 17 12  2  0
 18 11  1  0
 19  9  1  0
 21 23  2  0
 22 21  1  0
 24 22  1  0
 25 34  2  0
 25 30  1  0
 26 22  1  0
 26 30  1  0
 27 26  1  0
 28 29  1  0
 28 27  1  0
 29 25  1  0
 30 31  2  0
 31 32  1  0
 33 32  2  0
 34 33  1  0
 35  9  1  0
 35 40  1  0
 35 36  1  0
 36 39  1  1
 36 37  1  0
 38 36  1  0
 40 43  1  0
 41 45  1  0
 41 40  1  0
 42 41  2  0
 45 44  1  0
 47 45  1  0
 47 48  1  0
 47 46  1  0
 50 49  2  0
 50 54  1  0
 51 56  1  0
 51 54  1  0
 52 92  1  0
 52 51  1  0
 52 53  1  0
 53 54  1  0
 54 55  1  1
 57 62  1  0
 58 59  1  0
 58 57  1  0
 60 59  1  0
 60 67  1  0
 60 61  1  0
 62 56  1  0
 62 61  1  0
 63 56  2  0
 64 65  2  0
 65 84  1  0
 66 65  1  0
 66 69  1  0
 67 68  1  0
 67 64  1  0
 68 66  2  0
 69 70  1  0
 70 71  2  0
 72 75  1  0
 72 71  1  0
 73 72  2  0
 74 73  1  0
 74 69  2  0
 75 76  1  0
 76 81  2  0
 76 77  1  0
 77 78  2  0
 78 79  1  0
 79 83  1  0
 80 79  2  0
 81 80  1  0
 82 81  1  0
 84 85  1  0
 85 88  1  0
 85 87  1  0
 86 84  2  0
 89 64  1  0
 89 90  1  0
 91 89  1  0
 93 92  1  0
M  ISO  4   6 101   8 101  51 100  56 100
M  END
>  <TORSDO>  (84) 
F 20

>  <SCORE>  (84) 
-13.016

>  <name>  (84) 
83

>  <ligand_id>  (84) 
83

>  <original_smiles>  (84) 
[H]OC1=C(C(=O)N2C([H])([H])C([H])([H])C([H])([H])C([H])(n3nc(-c4c([H])c([H])c(Oc5c([H])c([H])c(F)c([H])c5F)c([H])c4[H])c(C(=O)N([H])[H])c3N([H])[H])C2([H])[H])C(C([H])([H])[H])(C([H])([H])C([H])([H])c2c([H])c([H])c(Oc3c([H])c([H])c4c(c3[H])C([H])([H])N(C(=O)C([H])(N([H])C(=O)C([H])(N([H])C([H])([H])[H])C([H])([H])[H])C(C([H])([H])[H])(C([H])([H])[H])C([H])([H])[H])C([H])(C(=O)N([H])C3([H])c5c([H])c([H])c([H])c([H])c5C([H])([H])C([H])([H])C3([H])[H])C4([H])[H])c(C([H])([H])[H])c2[H])C1([H])[H]

>  <smiles>  (84) 
[H]OC1=C(C(=O)N2C([H])([H])C([H])([H])C([H])([H])C([H])(n3nc(-c4c([H])c([H])c(Oc5c([H])c([H])c(F)c([H])c5F)c([H])c4[H])c(C(=O)N([H])[H])c3N([H])[H])C2([H])[H])C(C([H])([H])[H])(C([H])([H])C([H])([H])c2c([H])c([H])c(Oc3c([H])c([H])c4c(c3[H])C([H])([H])N(C(=O)C([H])(N([H])C(=O)C([H])(N([H])C([H])([H])[H])C([H])([H])[H])C(C([H])([H])[H])(C([H])([H])[H])C([H])([H])[H])C([H])(C(=O)N([H])C3([H])c5c([H])c([H])c([H])c([H])c5C([H])([H])C([H])([H])C3([H])[H])C4([H])[H])c(C([H])([H])[H])c2[H])C1([H])[H]

$$$$
84:0:0
     RDKit          3D

 96105  0  0  1  0  0  0  0  0999 V2000
  -30.3190  -16.5430   20.0990 C   0  0  0  0  0  0  0  0  0  0  0  0
  -29.5770  -16.6870   21.2190 C   0  0  0  0  0  0  0  0  0  0  0  0
  -28.5140  -21.2290   20.2950 C   0  0  0  0  0  0  0  0  0  0  0  0
  -27.5750  -21.7540   21.1050 C   0  0  0  0  0  2  0  0  0  0  0  0
  -28.7330  -17.9540   21.3120 C   0  0  0  0  0  2  0  0  0  0  0  0
  -28.1740  -19.9200   19.5050 C   0  0  0  0  0  2  0  0  0  0  0  0
  -31.0660  -19.2820   19.7760 C   0  0  0  0  0  2  0  0  0  0  0  0
  -28.7520  -18.4720   19.8570 C   0  0  0  0  0  3  0  0  0  0  0  0
  -30.8010  -20.8520   19.2970 C   0  0  0  0  0  3  0  0  0  0  0  0
  -30.1490  -17.9970   19.3400 C   0  0  2  0  0  0  0  0  0  0  0  0
  -29.8820  -21.9530   20.1140 C   0  0  2  0  0  0  0  0  0  0  0  0
  -30.1700  -17.8070   17.8120 C   0  0  0  0  0  1  0  0  0  0  0  0
  -30.5160  -22.1000   21.5220 C   0  0  0  0  0  1  0  0  0  0  0  0
  -31.0100  -15.1930   19.6720 C   0  0  0  0  0  0  0  0  0  0  0  0
  -30.7840  -12.8140   18.7870 C   0  0  0  0  0  2  0  0  0  0  0  0
  -29.7760  -12.7640   17.6120 C   0  0  0  0  0  2  0  0  0  0  0  0
  -28.3350  -12.5770   18.1280 C   0  0  0  0  0  2  0  0  0  0  0  0
  -28.0220  -13.5200   19.3160 C   0  0  0  0  0  3  0  0  0  0  0  0
  -29.1440  -13.5050   20.3670 C   0  0  0  0  0  2  0  0  0  0  0  0
  -30.3900  -13.9300   19.7070 N   0  0  0  0  0  0  0  0  0  0  0  0
  -32.1520  -15.1910   19.1940 O   0  0  0  0  0  0  0  0  0  0  0  0
  -25.7510  -14.1610   20.3030 C   0  0  0  0  0  0  0  0  0  0  0  0
  -24.6850  -13.4150   20.7250 C   0  0  0  0  0  0  0  0  0  0  0  0
  -25.0760  -12.0490   20.5790 C   0  0  0  0  0  0  0  0  0  0  0  0
  -26.7190  -13.2520   19.9140 N   0  0  0  0  0  0  0  0  0  0  0  0
  -26.3300  -11.9720   20.1470 N   0  0  0  0  0  0  0  0  0  0  0  0
  -24.3070  -10.8120   20.7670 C   0  0  0  0  0  0  0  0  0  0  0  0
  -24.7430   -9.7930   21.6400 C   0  0  0  0  0  3  0  0  0  0  0  0
  -23.9720   -8.6230   21.8160 C   0  0  0  0  0  3  0  0  0  0  0  0
  -22.7500   -8.4650   21.1200 C   0  0  0  0  0  0  0  0  0  0  0  0
  -22.3320   -9.4730   20.2340 C   0  0  0  0  0  3  0  0  0  0  0  0
  -23.1030  -10.6350   20.0560 C   0  0  0  0  0  3  0  0  0  0  0  0
  -21.9480   -7.3530   21.2110 O   0  0  0  0  0  0  0  0  0  0  0  0
  -21.8920   -6.5990   22.3540 C   0  0  0  0  0  0  0  0  0  0  0  0
  -21.5020   -7.1500   23.5940 C   0  0  0  0  0  3  0  0  0  0  0  0
  -21.3880   -6.3230   24.7290 C   0  0  0  0  0  3  0  0  0  0  0  0
  -21.6550   -4.9460   24.6250 C   0  0  0  0  0  0  0  0  0  0  0  0
  -22.0390   -4.3930   23.3910 C   0  0  0  0  0  3  0  0  0  0  0  0
  -22.1530   -5.2160   22.2580 C   0  0  0  0  0  0  0  0  0  0  0  0
  -22.5020   -4.6740   21.0660 F   0  0  0  0  0  0  0  0  0  0  0  0
  -21.5390   -4.1490   25.7140 F   0  0  0  0  0  0  0  0  0  0  0  0
  -23.3440  -13.9400   21.1480 C   0  0  0  0  0  0  0  0  0  0  0  0
  -22.6630  -13.2330   22.0420 N   0  0  0  0  0  0  0  0  0  0  0  0
  -22.9140  -15.0110   20.7190 O   0  0  0  0  0  0  0  0  0  0  0  0
  -23.0260  -12.3640   22.4060 H   0  0  0  0  0  0  0  0  0  0  0  0
  -21.7670  -13.5650   22.3670 H   0  0  0  0  0  0  0  0  0  0  0  0
  -25.9700  -15.5310   20.1930 N   0  0  0  0  0  0  0  0  0  0  0  0
  -25.2630  -16.2150   20.4390 H   0  0  0  0  0  0  0  0  0  0  0  0
  -26.8290  -15.9480   19.8620 H   0  0  0  0  0  0  0  0  0  0  0  0
  -29.4210  -15.8730   22.2750 O   0  0  0  0  0  0  0  0  0  0  0  0
  -30.0130  -15.1390   22.1850 H   0  0  0  0  0  0  0  0  0  0  0  0
  -32.0850  -21.4390   19.1800 O   0  0  0  0  0  0  0  0  0  0  0  0
  -32.3950  -21.6150   20.0610 H   0  0  0  0  0  0  0  0  0  0  0  0
  -29.7970  -23.5580   19.5130 C   0  0  0  0  0  3  0  0  0  0  0  0
  -28.8360  -24.8740   19.9930 C   0  0  0  0  0  3  0  0  0  0  0  0
  -28.8600  -26.3580   19.4880 O   0  0  0  0  0  0  0  0  0  0  0  0
  -24.7110  -31.4970   22.8260 C   0  0  0  0  0  0  0  0  0  0  0  0
  -27.7130  -27.2360   19.5300 C   0  0  0  0  0  0  0  0  0  0  0  0
  -23.6520  -30.1230   21.0760 C   0  0  0  0  0  3  0  0  0  0  0  0
  -25.2440  -28.7750   19.5730 C   0  0  0  0  0  0  0  0  0  0  0  0
  -26.1750  -30.6170   20.9680 C   0  0  0  0  0  2  0  0  0  0  0  0
  -26.3750  -29.2810   20.2260 C   0  0  0  0  0  0  0  0  0  0  0  0
  -27.6130  -28.5320   20.1820 C   0  0  0  0  0  3  0  0  0  0  0  0
  -26.5480  -26.8290   18.8480 C   0  0  0  0  0  3  0  0  0  0  0  0
  -25.3430  -27.5650   18.8690 C   0  0  0  0  0  3  0  0  0  0  0  0
  -23.9440  -29.5620   19.6590 C   0  0  0  0  0  2  0  0  0  0  0  0
  -24.8630  -30.7660   21.6800 N   0  0  0  0  0  0  0  0  0  0  0  0
  -23.6000  -31.6510   23.3560 O   0  0  0  0  0  0  0  0  0  0  0  0
  -23.0530  -28.9980   21.9570 C   0  0  0  0  0  0  0  0  0  0  0  0
  -21.7440  -28.7270   21.8020 N   0  0  0  0  0  0  0  0  0  0  0  0
  -23.7680  -28.3730   22.7430 O   0  0  0  0  0  0  0  0  0  0  0  0
  -21.2180  -29.2890   21.1470 H   0  0  0  0  0  0  0  0  0  0  0  0
  -18.4620  -27.2540   22.2190 C   0  0  0  0  0  0  0  0  0  0  0  0
  -20.9990  -27.6720   22.4940 C   0  0  0  0  0  3  0  0  0  0  0  0
  -21.1940  -26.3040   21.7990 C   0  0  0  0  0  2  0  0  0  0  0  0
  -20.1060  -25.9920   20.7670 C   0  0  0  0  0  2  0  0  0  0  0  0
  -18.7250  -25.9830   21.4280 C   0  0  0  0  0  2  0  0  0  0  0  0
  -19.5290  -28.0550   22.7060 C   0  0  0  0  0  0  0  0  0  0  0  0
  -19.2270  -29.2410   23.4090 C   0  0  0  0  0  3  0  0  0  0  0  0
  -17.8920  -29.6300   23.6270 C   0  0  0  0  0  3  0  0  0  0  0  0
  -16.8400  -28.8270   23.1550 C   0  0  0  0  0  3  0  0  0  0  0  0
  -17.1250  -27.6390   22.4570 C   0  0  0  0  0  3  0  0  0  0  0  0
  -25.9240  -32.1960   23.5160 C   0  0  0  0  0  3  0  0  0  0  0  0
  -26.5050  -31.3710   24.7310 C   0  0  1  0  0  0  0  0  0  0  0  0
  -25.4360  -30.9520   25.7680 C   0  0  0  0  0  1  0  0  0  0  0  0
  -27.2080  -30.0860   24.2380 C   0  0  0  0  0  1  0  0  0  0  0  0
  -27.5790  -32.2070   25.4650 C   0  0  0  0  0  1  0  0  0  0  0  0
  -25.4790  -33.5250   23.9670 N   0  0  0  0  0  0  0  0  0  0  0  0
  -25.7040  -34.6700   23.3090 C   0  0  0  0  0  0  0  0  0  0  0  0
  -26.3710  -34.7240   22.2730 O   0  0  0  0  0  0  0  0  0  0  0  0
  -24.8790  -33.5470   24.7780 H   0  0  0  0  0  0  0  0  0  0  0  0
  -23.8010  -36.3090   23.1310 C   0  0  0  0  0  1  0  0  0  0  0  0
  -25.0910  -35.9600   23.8910 C   0  0  0  0  0  3  0  0  0  0  0  0
  -27.1400  -36.9830   24.7780 C   0  0  0  0  0  1  0  0  0  0  0  0
  -26.0130  -37.1170   23.8590 N   0  0  0  0  0  0  0  0  0  0  0  0
  -25.5200  -37.9760   24.0830 H   0  0  0  0  0  0  0  0  0  0  0  0
  1  2  2  0
  2  5  1  0
  2 50  1  0
  3  4  2  0
  6  3  1  0
  8  6  1  0
  8  5  1  0
  9 52  1  0
  9  7  1  0
  9 11  1  0
 10 12  1  6
 10  7  1  0
 10  8  1  0
 10  1  1  0
 11  3  1  0
 11 13  1  1
 14 20  1  0
 14  1  1  0
 15 20  1  0
 16 17  1  0
 16 15  1  0
 18 17  1  0
 18 25  1  0
 18 19  1  0
 20 19  1  0
 21 14  2  0
 22 23  2  0
 23 42  1  0
 24 23  1  0
 24 27  1  0
 25 26  1  0
 25 22  1  0
 26 24  2  0
 27 28  1  0
 28 29  2  0
 30 33  1  0
 30 29  1  0
 31 30  2  0
 32 31  1  0
 32 27  2  0
 33 34  1  0
 34 35  1  0
 35 36  2  0
 37 36  1  0
 37 41  1  0
 38 37  2  0
 39 34  2  0
 39 38  1  0
 40 39  1  0
 42 43  1  0
 43 46  1  0
 43 45  1  0
 44 42  2  0
 47 22  1  0
 47 48  1  0
 49 47  1  0
 51 50  1  0
 52 53  1  0
 54 55  2  0
 54 11  1  0
 56 58  1  0
 56 55  1  0
 57 68  2  0
 58 63  1  0
 59 67  1  0
 59 69  1  0
 60 66  1  0
 60 62  1  0
 61 67  1  0
 62 61  1  0
 63 62  2  0
 64 65  1  0
 64 58  2  0
 65 60  2  0
 66 59  1  0
 67 57  1  0
 69 71  2  0
 70 69  1  0
 72 70  1  0
 73 82  2  0
 73 78  1  0
 74 70  1  0
 74 78  1  0
 75 74  1  0
 76 77  1  0
 76 75  1  0
 77 73  1  0
 78 79  2  0
 79 80  1  0
 81 80  2  0
 82 81  1  0
 83 57  1  0
 83 88  1  0
 83 84  1  0
 84 87  1  1
 84 85  1  0
 86 84  1  0
 88 91  1  0
 89 93  1  0
 89 88  1  0
 90 89  2  0
 93 92  1  0
 95 93  1  0
 95 96  1  0
 95 94  1  0
M  ISO  4   1 100  14 100  55 101  56 101
M  END
>  <TORSDO>  (85) 
F 20

>  <SCORE>  (85) 
-12.001

>  <name>  (85) 
84

>  <ligand_id>  (85) 
84

>  <original_smiles>  (85) 
[H]OC1=C(C(=O)N2C([H])([H])C([H])([H])C([H])([H])C([H])(n3nc(-c4c([H])c([H])c(Oc5c([H])c([H])c(F)c([H])c5F)c([H])c4[H])c(C(=O)N([H])[H])c3N([H])[H])C2([H])[H])C2(C([H])([H])[H])C([H])([H])C([H])(O[H])C(C([H])([H])[H])(C([H])([H])C([H])([H])Oc3c([H])c([H])c4c(c3[H])C([H])([H])N(C(=O)C([H])(N([H])C(=O)C([H])(N([H])C([H])([H])[H])C([H])([H])[H])C(C([H])([H])[H])(C([H])([H])[H])C([H])([H])[H])C([H])(C(=O)N([H])C3([H])c5c([H])c([H])c([H])c([H])c5C([H])([H])C([H])([H])C3([H])[H])C4([H])[H])C(=C([H])[H])C([H])([H])C2([H])C1([H])[H]

>  <smiles>  (85) 
[H]OC1=C(C(=O)N2C([H])([H])C([H])([H])C([H])([H])C([H])(n3nc(-c4c([H])c([H])c(Oc5c([H])c([H])c(F)c([H])c5F)c([H])c4[H])c(C(=O)N([H])[H])c3N([H])[H])C2([H])[H])C2(C([H])([H])[H])C([H])([H])C([H])(O[H])C(C([H])([H])[H])(C([H])([H])C([H])([H])Oc3c([H])c([H])c4c(c3[H])C([H])([H])N(C(=O)C([H])(N([H])C(=O)C([H])(N([H])C([H])([H])[H])C([H])([H])[H])C(C([H])([H])[H])(C([H])([H])[H])C([H])([H])[H])C([H])(C(=O)N([H])C3([H])c5c([H])c([H])c([H])c([H])c5C([H])([H])C([H])([H])C3([H])[H])C4([H])[H])C(=C([H])[H])C([H])([H])C2([H])C1([H])[H]

$$$$
85:0:0
     RDKit          3D

 93102  0  0  1  0  0  0  0  0999 V2000
  -28.7830  -25.0850   16.8290 C   0  0  0  0  0  3  0  0  0  0  0  0
  -28.7320  -25.7350   18.0660 C   0  0  0  0  0  3  0  0  0  0  0  0
  -29.0920  -23.0010   17.9950 C   0  0  0  0  0  3  0  0  0  0  0  0
  -28.9150  -23.7000   16.7960 C   0  0  0  0  0  0  0  0  0  0  0  0
  -29.1650  -23.5860   19.2870 C   0  0  0  0  0  0  0  0  0  0  0  0
  -28.7960  -25.0830   19.3280 C   0  0  0  0  0  0  0  0  0  0  0  0
  -28.8880  -22.9460   15.4810 C   0  0  0  0  0  1  0  0  0  0  0  0
  -28.5030  -26.1250   20.3170 O   0  0  0  0  0  0  0  0  0  0  0  0
  -24.5940  -31.7560   23.1390 C   0  0  0  0  0  0  0  0  0  0  0  0
  -27.4440  -27.1200   20.1890 C   0  0  0  0  0  0  0  0  0  0  0  0
  -23.5030  -30.3190   21.4600 C   0  0  0  0  0  3  0  0  0  0  0  0
  -25.0550  -28.7980   20.0840 C   0  0  0  0  0  0  0  0  0  0  0  0
  -26.0520  -30.6690   21.3850 C   0  0  0  0  0  2  0  0  0  0  0  0
  -26.1980  -29.2790   20.7350 C   0  0  0  0  0  0  0  0  0  0  0  0
  -27.3900  -28.4530   20.7760 C   0  0  0  0  0  3  0  0  0  0  0  0
  -26.2620  -26.7430   19.5110 C   0  0  0  0  0  3  0  0  0  0  0  0
  -25.1010  -27.5440   19.4560 C   0  0  0  0  0  3  0  0  0  0  0  0
  -23.7980  -29.6550   20.0890 C   0  0  0  0  0  2  0  0  0  0  0  0
  -24.7340  -30.9370   22.0510 N   0  0  0  0  0  0  0  0  0  0  0  0
  -23.4800  -32.0010   23.6300 O   0  0  0  0  0  0  0  0  0  0  0  0
  -22.8260  -29.2890   22.3990 C   0  0  0  0  0  0  0  0  0  0  0  0
  -21.5040  -29.0920   22.2460 N   0  0  0  0  0  0  0  0  0  0  0  0
  -23.4930  -28.6690   23.2310 O   0  0  0  0  0  0  0  0  0  0  0  0
  -21.0210  -29.6450   21.5510 H   0  0  0  0  0  0  0  0  0  0  0  0
  -18.1330  -27.8380   22.6980 C   0  0  0  0  0  0  0  0  0  0  0  0
  -20.6860  -28.1310   22.9930 C   0  0  0  0  0  3  0  0  0  0  0  0
  -20.8120  -26.7110   22.3970 C   0  0  0  0  0  2  0  0  0  0  0  0
  -19.7240  -26.3910   21.3650 C   0  0  0  0  0  2  0  0  0  0  0  0
  -18.3350  -26.5050   21.9990 C   0  0  0  0  0  2  0  0  0  0  0  0
  -19.2360  -28.6100   23.1510 C   0  0  0  0  0  0  0  0  0  0  0  0
  -18.9930  -29.8570   23.7660 C   0  0  0  0  0  3  0  0  0  0  0  0
  -17.6780  -30.3340   23.9290 C   0  0  0  0  0  3  0  0  0  0  0  0
  -16.5890  -29.5610   23.4900 C   0  0  0  0  0  3  0  0  0  0  0  0
  -16.8180  -28.3140   22.8810 C   0  0  0  0  0  3  0  0  0  0  0  0
  -25.8250  -32.4370   23.8100 C   0  0  0  0  0  3  0  0  0  0  0  0
  -26.3130  -31.6920   25.1130 C   0  0  1  0  0  0  0  0  0  0  0  0
  -25.1850  -31.4220   26.1370 C   0  0  0  0  0  1  0  0  0  0  0  0
  -26.9600  -30.3340   24.7600 C   0  0  0  0  0  1  0  0  0  0  0  0
  -27.4080  -32.5280   25.8160 C   0  0  0  0  0  1  0  0  0  0  0  0
  -25.4560  -33.8260   24.1270 N   0  0  0  0  0  0  0  0  0  0  0  0
  -25.7840  -34.8920   23.3850 C   0  0  0  0  0  0  0  0  0  0  0  0
  -26.4970  -34.8130   22.3810 O   0  0  0  0  0  0  0  0  0  0  0  0
  -24.8300  -33.9600   24.9080 H   0  0  0  0  0  0  0  0  0  0  0  0
  -24.0140  -36.6310   22.9620 C   0  0  0  0  0  1  0  0  0  0  0  0
  -25.2340  -36.2640   23.8230 C   0  0  0  0  0  3  0  0  0  0  0  0
  -27.2970  -37.2160   24.7520 C   0  0  0  0  0  1  0  0  0  0  0  0
  -26.2360  -37.3510   23.7570 N   0  0  0  0  0  0  0  0  0  0  0  0
  -25.7940  -38.2570   23.8850 H   0  0  0  0  0  0  0  0  0  0  0  0
  -29.5830  -22.3610   20.3300 C   0  0  0  0  0  2  0  0  0  0  0  0
  -30.3220  -20.8700   19.8440 C   0  0  0  0  0  2  0  0  0  0  0  0
  -32.2840  -18.9770   21.5950 C   0  0  0  0  0  2  0  0  0  0  0  0
  -30.8080  -19.2890   21.8520 C   0  0  0  0  0  2  0  0  0  0  0  0
  -32.3440  -18.0610   20.3630 C   0  0  0  0  0  2  0  0  0  0  0  0
  -30.1620  -19.2850   20.4690 C   0  0  0  0  0  3  0  0  0  0  0  0
  -30.9030  -17.8850   19.8350 C   0  0  0  0  0  3  0  0  0  0  0  0
  -31.1420  -15.1160   19.8480 C   0  0  0  0  0  0  0  0  0  0  0  0
  -30.8780  -12.7560   18.9430 C   0  0  0  0  0  2  0  0  0  0  0  0
  -29.8780  -12.7050   17.7640 C   0  0  0  0  0  2  0  0  0  0  0  0
  -28.4420  -12.5310   18.2870 C   0  0  0  0  0  2  0  0  0  0  0  0
  -28.1230  -13.4890   19.4630 C   0  0  0  0  0  3  0  0  0  0  0  0
  -29.2390  -13.5080   20.5300 C   0  0  0  0  0  2  0  0  0  0  0  0
  -30.4830  -13.8810   19.8450 N   0  0  0  0  0  0  0  0  0  0  0  0
  -32.3180  -15.1020   19.4700 O   0  0  0  0  0  0  0  0  0  0  0  0
  -30.4700  -16.3620   20.0700 N   0  0  0  0  0  0  0  0  0  0  0  0
  -29.5120  -16.2490   20.3660 H   0  0  0  0  0  0  0  0  0  0  0  0
  -25.8210  -14.1380   20.3700 C   0  0  0  0  0  0  0  0  0  0  0  0
  -24.7490  -13.3970   20.7830 C   0  0  0  0  0  0  0  0  0  0  0  0
  -25.1520  -12.0290   20.6830 C   0  0  0  0  0  0  0  0  0  0  0  0
  -26.8090  -13.2280   20.0390 N   0  0  0  0  0  0  0  0  0  0  0  0
  -26.4200  -11.9500   20.2940 N   0  0  0  0  0  0  0  0  0  0  0  0
  -24.3840  -10.7920   20.8790 C   0  0  0  0  0  0  0  0  0  0  0  0
  -24.7730   -9.8260   21.8330 C   0  0  0  0  0  3  0  0  0  0  0  0
  -24.0060   -8.6540   22.0180 C   0  0  0  0  0  3  0  0  0  0  0  0
  -22.8370   -8.4420   21.2490 C   0  0  0  0  0  0  0  0  0  0  0  0
  -22.4670   -9.3970   20.2870 C   0  0  0  0  0  3  0  0  0  0  0  0
  -23.2330  -10.5590   20.1000 C   0  0  0  0  0  3  0  0  0  0  0  0
  -22.0460   -7.3230   21.3430 O   0  0  0  0  0  0  0  0  0  0  0  0
  -21.8710   -6.6620   22.5320 C   0  0  0  0  0  0  0  0  0  0  0  0
  -21.3080   -7.2960   23.6610 C   0  0  0  0  0  3  0  0  0  0  0  0
  -21.0830   -6.5610   24.8420 C   0  0  0  0  0  3  0  0  0  0  0  0
  -21.4090   -5.1920   24.8930 C   0  0  0  0  0  0  0  0  0  0  0  0
  -21.9650   -4.5580   23.7690 C   0  0  0  0  0  3  0  0  0  0  0  0
  -22.1920   -5.2900   22.5910 C   0  0  0  0  0  0  0  0  0  0  0  0
  -22.7070   -4.6690   21.5020 F   0  0  0  0  0  0  0  0  0  0  0  0
  -21.1850   -4.4840   26.0250 F   0  0  0  0  0  0  0  0  0  0  0  0
  -23.3920  -13.9210   21.1520 C   0  0  0  0  0  0  0  0  0  0  0  0
  -22.6980  -13.2400   22.0560 N   0  0  0  0  0  0  0  0  0  0  0  0
  -22.9610  -14.9700   20.6730 O   0  0  0  0  0  0  0  0  0  0  0  0
  -23.0640  -12.3930   22.4650 H   0  0  0  0  0  0  0  0  0  0  0  0
  -21.7880  -13.5710   22.3450 H   0  0  0  0  0  0  0  0  0  0  0  0
  -26.0320  -15.5060   20.2220 N   0  0  0  0  0  0  0  0  0  0  0  0
  -25.2980  -16.1850   20.3910 H   0  0  0  0  0  0  0  0  0  0  0  0
  -26.8720  -15.9190   19.8380 H   0  0  0  0  0  0  0  0  0  0  0  0
  1  2  1  0
  2  6  2  0
  3  5  2  0
  4  1  2  0
  4  3  1  0
  5  6  1  0
  5 49  1  0
  6  8  1  0
  7  4  1  0
  9 20  2  0
 10  8  1  0
 10 15  1  0
 11 19  1  0
 11 21  1  0
 12 18  1  0
 12 14  1  0
 13 19  1  0
 14 15  2  0
 14 13  1  0
 16 10  2  0
 17 16  1  0
 17 12  2  0
 18 11  1  0
 19  9  1  0
 21 23  2  0
 22 21  1  0
 24 22  1  0
 25 34  2  0
 25 30  1  0
 26 22  1  0
 26 30  1  0
 27 26  1  0
 28 29  1  0
 28 27  1  0
 29 25  1  0
 30 31  2  0
 31 32  1  0
 33 32  2  0
 34 33  1  0
 35  9  1  0
 35 40  1  0
 35 36  1  0
 36 39  1  1
 36 37  1  0
 38 36  1  0
 40 43  1  0
 41 45  1  0
 41 40  1  0
 42 41  2  0
 45 44  1  0
 47 45  1  0
 47 48  1  0
 47 46  1  0
 50 49  1  0
 51 52  1  0
 53 51  1  0
 54 50  1  0
 54 52  1  0
 55 64  1  0
 55 53  1  0
 55 54  1  0
 56 64  1  0
 57 62  1  0
 58 59  1  0
 58 57  1  0
 60 59  1  0
 60 69  1  0
 60 61  1  0
 62 56  1  0
 62 61  1  0
 63 56  2  0
 64 65  1  0
 66 67  2  0
 67 86  1  0
 68 67  1  0
 68 71  1  0
 69 70  1  0
 69 66  1  0
 70 68  2  0
 71 72  1  0
 72 73  2  0
 74 77  1  0
 74 73  1  0
 75 74  2  0
 76 75  1  0
 76 71  2  0
 77 78  1  0
 78 83  2  0
 78 79  1  0
 79 80  2  0
 80 81  1  0
 81 85  1  0
 82 81  2  0
 83 82  1  0
 84 83  1  0
 86 87  1  0
 87 90  1  0
 87 89  1  0
 88 86  2  0
 91 66  1  0
 91 92  1  0
 93 91  1  0
M  ISO  4   6 101   8 101  56 100  64 100
M  END
>  <TORSDO>  (86) 
F 19

>  <SCORE>  (86) 
-13.692

>  <name>  (86) 
85

>  <ligand_id>  (86) 
85

>  <original_smiles>  (86) 
[H]c1c([H])c([H])c2c(c1[H])C([H])([H])C([H])([H])C([H])([H])C2([H])N([H])C(=O)C1([H])N(C(=O)C([H])(N([H])C(=O)C([H])(N([H])C([H])([H])[H])C([H])([H])[H])C(C([H])([H])[H])(C([H])([H])[H])C([H])([H])[H])C([H])([H])c2c([H])c(Oc3c([H])c([H])c(C([H])([H])[H])c([H])c3C([H])([H])C([H])([H])C3([H])C([H])([H])C([H])([H])C([H])([H])C3([H])N([H])C(=O)N3C([H])([H])C([H])([H])C([H])([H])C([H])(n4nc(-c5c([H])c([H])c(Oc6c([H])c([H])c(F)c([H])c6F)c([H])c5[H])c(C(=O)N([H])[H])c4N([H])[H])C3([H])[H])c([H])c([H])c2C1([H])[H]

>  <smiles>  (86) 
[H]c1c([H])c([H])c2c(c1[H])C([H])([H])C([H])([H])C([H])([H])C2([H])N([H])C(=O)C1([H])N(C(=O)C([H])(N([H])C(=O)C([H])(N([H])C([H])([H])[H])C([H])([H])[H])C(C([H])([H])[H])(C([H])([H])[H])C([H])([H])[H])C([H])([H])c2c([H])c(Oc3c([H])c([H])c(C([H])([H])[H])c([H])c3C([H])([H])C([H])([H])C3([H])C([H])([H])C([H])([H])C([H])([H])C3([H])N([H])C(=O)N3C([H])([H])C([H])([H])C([H])([H])C([H])(n4nc(-c5c([H])c([H])c(Oc6c([H])c([H])c(F)c([H])c6F)c([H])c5[H])c(C(=O)N([H])[H])c4N([H])[H])C3([H])[H])c([H])c([H])c2C1([H])[H]

$$$$
86:0:0
     RDKit          3D

 90 99  0  0  1  0  0  0  0  0999 V2000
  -29.7890  -18.3700   21.0480 C   0  0  0  0  0  3  0  0  0  0  0  0
  -28.9370  -18.5180   18.4720 C   0  0  0  0  0  3  0  0  0  0  0  0
  -29.8610  -17.0200   20.3020 C   0  0  0  0  0  0  0  0  0  0  0  0
  -29.2830  -19.7460   20.5480 C   0  0  0  0  0  0  0  0  0  0  0  0
  -28.8360  -19.7190   19.2240 C   0  0  0  0  0  0  0  0  0  0  0  0
  -29.4440  -17.2640   18.9470 C   0  0  0  0  0  0  0  0  0  0  0  0
  -29.0600  -21.3020   21.2310 C   0  0  0  0  0  2  0  0  0  0  0  0
  -28.1740  -20.9860   18.6270 C   0  0  0  0  0  2  0  0  0  0  0  0
  -28.8310  -22.3890   18.9110 C   0  0  0  0  0  2  0  0  0  0  0  0
  -29.0000  -22.8680   20.3970 C   0  0  2  0  0  0  0  0  0  0  0  0
  -29.6020  -16.1960   17.8730 C   0  0  0  0  0  1  0  0  0  0  0  0
  -30.4400  -23.4000   20.5540 C   0  0  0  0  0  1  0  0  0  0  0  0
  -30.5500  -15.5070   20.6570 C   0  0  0  0  0  0  0  0  0  0  0  0
  -30.5830  -13.0200   19.8880 C   0  0  0  0  0  2  0  0  0  0  0  0
  -29.7500  -12.6860   18.6240 C   0  0  0  0  0  2  0  0  0  0  0  0
  -28.2620  -12.4710   18.9650 C   0  0  0  0  0  2  0  0  0  0  0  0
  -27.7320  -13.4730   20.0240 C   0  0  0  0  0  3  0  0  0  0  0  0
  -28.7120  -13.7180   21.1860 C   0  0  0  0  0  2  0  0  0  0  0  0
  -29.9720  -14.2020   20.5980 N   0  0  0  0  0  0  0  0  0  0  0  0
  -31.7900  -15.4490   20.6450 O   0  0  0  0  0  0  0  0  0  0  0  0
  -25.3330  -14.0220   20.6740 C   0  0  0  0  0  0  0  0  0  0  0  0
  -24.2560  -13.2420   20.9880 C   0  0  0  0  0  0  0  0  0  0  0  0
  -24.7290  -11.8930   20.9850 C   0  0  0  0  0  0  0  0  0  0  0  0
  -26.3880  -13.1500   20.4820 N   0  0  0  0  0  0  0  0  0  0  0  0
  -26.0350  -11.8640   20.7460 N   0  0  0  0  0  0  0  0  0  0  0  0
  -24.0010  -10.6280   21.1360 C   0  0  0  0  0  0  0  0  0  0  0  0
  -24.3850   -9.6630   22.0930 C   0  0  0  0  0  3  0  0  0  0  0  0
  -23.6530   -8.4650   22.2350 C   0  0  0  0  0  3  0  0  0  0  0  0
  -22.5250   -8.2220   21.4160 C   0  0  0  0  0  0  0  0  0  0  0  0
  -22.1610   -9.1730   20.4480 C   0  0  0  0  0  3  0  0  0  0  0  0
  -22.8930  -10.3630   20.3050 C   0  0  0  0  0  3  0  0  0  0  0  0
  -21.7660   -7.0770   21.4650 O   0  0  0  0  0  0  0  0  0  0  0  0
  -21.6440   -6.3440   22.6180 C   0  0  0  0  0  0  0  0  0  0  0  0
  -21.0840   -6.8930   23.7920 C   0  0  0  0  0  3  0  0  0  0  0  0
  -20.9120   -6.0830   24.9330 C   0  0  0  0  0  3  0  0  0  0  0  0
  -21.2890   -4.7280   24.9000 C   0  0  0  0  0  0  0  0  0  0  0  0
  -21.8430   -4.1790   23.7300 C   0  0  0  0  0  3  0  0  0  0  0  0
  -22.0160   -4.9840   22.5910 C   0  0  0  0  0  0  0  0  0  0  0  0
  -22.5290   -4.4440   21.4590 F   0  0  0  0  0  0  0  0  0  0  0  0
  -21.1180   -3.9510   25.9960 F   0  0  0  0  0  0  0  0  0  0  0  0
  -22.8440  -13.7140   21.1780 C   0  0  0  0  0  0  0  0  0  0  0  0
  -22.0760  -13.0270   22.0160 N   0  0  0  0  0  0  0  0  0  0  0  0
  -22.4310  -14.7300   20.6220 O   0  0  0  0  0  0  0  0  0  0  0  0
  -22.4260  -12.2060   22.4890 H   0  0  0  0  0  0  0  0  0  0  0  0
  -21.1300  -13.3310   22.1960 H   0  0  0  0  0  0  0  0  0  0  0  0
  -25.5030  -15.3940   20.5040 N   0  0  0  0  0  0  0  0  0  0  0  0
  -24.7360  -16.0510   20.5810 H   0  0  0  0  0  0  0  0  0  0  0  0
  -26.3750  -15.8360   20.2410 H   0  0  0  0  0  0  0  0  0  0  0  0
  -28.0490  -24.3860   20.7180 C   0  0  0  0  0  2  0  0  0  0  0  0
  -28.2360  -26.0100   20.4400 O   0  0  0  0  0  0  0  0  0  0  0  0
  -24.5250  -31.9890   23.2600 C   0  0  0  0  0  0  0  0  0  0  0  0
  -27.1950  -27.0810   20.3920 C   0  0  0  0  0  0  0  0  0  0  0  0
  -23.3760  -30.5420   21.6330 C   0  0  0  0  0  3  0  0  0  0  0  0
  -24.8680  -28.9280   20.2690 C   0  0  0  0  0  0  0  0  0  0  0  0
  -25.9420  -30.7890   21.5180 C   0  0  0  0  0  2  0  0  0  0  0  0
  -26.0430  -29.3660   20.8940 C   0  0  0  0  0  0  0  0  0  0  0  0
  -27.2020  -28.4660   20.9230 C   0  0  0  0  0  3  0  0  0  0  0  0
  -25.9850  -26.7960   19.7170 C   0  0  0  0  0  3  0  0  0  0  0  0
  -24.8650  -27.6640   19.6600 C   0  0  0  0  0  3  0  0  0  0  0  0
  -23.6350  -29.8330   20.2760 C   0  0  0  0  0  2  0  0  0  0  0  0
  -24.6350  -31.1360   22.1900 N   0  0  0  0  0  0  0  0  0  0  0  0
  -23.4240  -32.2720   23.7590 O   0  0  0  0  0  0  0  0  0  0  0  0
  -22.6820  -29.5560   22.6100 C   0  0  0  0  0  0  0  0  0  0  0  0
  -21.3620  -29.3470   22.4510 N   0  0  0  0  0  0  0  0  0  0  0  0
  -23.3380  -28.9790   23.4790 O   0  0  0  0  0  0  0  0  0  0  0  0
  -20.8840  -29.8660   21.7260 H   0  0  0  0  0  0  0  0  0  0  0  0
  -18.0000  -28.0490   22.8970 C   0  0  0  0  0  0  0  0  0  0  0  0
  -20.5430  -28.4090   23.2260 C   0  0  0  0  0  3  0  0  0  0  0  0
  -20.7060  -26.9620   22.7020 C   0  0  0  0  0  2  0  0  0  0  0  0
  -19.6450  -26.5730   21.6670 C   0  0  0  0  0  2  0  0  0  0  0  0
  -18.2410  -26.6890   22.2650 C   0  0  0  0  0  2  0  0  0  0  0  0
  -19.0800  -28.8640   23.3330 C   0  0  0  0  0  0  0  0  0  0  0  0
  -18.7980  -30.1320   23.8850 C   0  0  0  0  0  3  0  0  0  0  0  0
  -17.4720  -30.5890   24.0020 C   0  0  0  0  0  3  0  0  0  0  0  0
  -16.4080  -29.7730   23.5800 C   0  0  0  0  0  3  0  0  0  0  0  0
  -16.6730  -28.5050   23.0340 C   0  0  0  0  0  3  0  0  0  0  0  0
  -25.7760  -32.6640   23.9000 C   0  0  0  0  0  3  0  0  0  0  0  0
  -25.4350  -34.0680   24.1920 N   0  0  0  0  0  0  0  0  0  0  0  0
  -25.7720  -35.1160   23.4280 C   0  0  0  0  0  0  0  0  0  0  0  0
  -26.4630  -35.0030   22.4140 O   0  0  0  0  0  0  0  0  0  0  0  0
  -24.8220  -34.2270   24.9780 H   0  0  0  0  0  0  0  0  0  0  0  0
  -24.0430  -36.8980   23.0080 C   0  0  0  0  0  1  0  0  0  0  0  0
  -25.2640  -36.5090   23.8560 C   0  0  0  0  0  3  0  0  0  0  0  0
  -27.3640  -37.4280   24.7390 C   0  0  0  0  0  1  0  0  0  0  0  0
  -26.2930  -37.5680   23.7560 N   0  0  0  0  0  0  0  0  0  0  0  0
  -25.8760  -38.4880   23.8710 H   0  0  0  0  0  0  0  0  0  0  0  0
  -26.2650  -31.9410   25.2150 C   0  0  1  0  0  0  0  0  0  0  0  0
  -25.1420  -31.7050   26.2520 C   0  0  0  0  0  1  0  0  0  0  0  0
  -26.8940  -30.5670   24.8900 C   0  0  0  0  0  1  0  0  0  0  0  0
  -27.3730  -32.7810   25.8940 C   0  0  0  0  0  1  0  0  0  0  0  0
  2  6  2  0
  2  5  1  0
  3 13  1  0
  3  1  2  0
  4  1  1  0
  4  7  1  0
  5  4  2  0
  6  3  1  0
  8  9  1  0
  8  5  1  0
  9 10  1  0
 10 12  1  6
 10 49  1  0
 10  7  1  0
 11  6  1  0
 14 19  1  0
 15 16  1  0
 15 14  1  0
 17 16  1  0
 17 24  1  0
 17 18  1  0
 19 13  1  0
 19 18  1  0
 20 13  2  0
 21 22  2  0
 22 41  1  0
 23 22  1  0
 23 26  1  0
 24 21  1  0
 24 25  1  0
 25 23  2  0
 26 27  1  0
 27 28  2  0
 29 32  1  0
 29 28  1  0
 30 29  2  0
 31 30  1  0
 31 26  2  0
 32 33  1  0
 33 34  1  0
 34 35  2  0
 36 35  1  0
 36 40  1  0
 37 36  2  0
 38 33  2  0
 38 37  1  0
 39 38  1  0
 41 42  1  0
 42 45  1  0
 42 44  1  0
 43 41  2  0
 46 47  1  0
 46 21  1  0
 48 46  1  0
 50 49  1  0
 51 62  2  0
 52 50  1  0
 52 57  1  0
 53 61  1  0
 53 63  1  0
 54 60  1  0
 54 56  1  0
 55 61  1  0
 56 57  2  0
 56 55  1  0
 58 52  2  0
 59 58  1  0
 59 54  2  0
 60 53  1  0
 61 51  1  0
 63 65  2  0
 64 63  1  0
 66 64  1  0
 67 76  2  0
 67 72  1  0
 68 64  1  0
 68 72  1  0
 69 68  1  0
 70 71  1  0
 70 69  1  0
 71 67  1  0
 72 73  2  0
 73 74  1  0
 75 74  2  0
 76 75  1  0
 77 51  1  0
 77 78  1  0
 77 87  1  0
 78 81  1  0
 79 83  1  0
 79 78  1  0
 80 79  2  0
 83 82  1  0
 85 83  1  0
 85 86  1  0
 85 84  1  0
 87 90  1  1
 87 88  1  0
 89 87  1  0
M  ISO  4   3 100  13 100  49 101  50 101
M  END
>  <TORSDO>  (87) 
F 17

>  <SCORE>  (87) 
-15.232

>  <name>  (87) 
86

>  <ligand_id>  (87) 
86

>  <original_smiles>  (87) 
[H]c1c([H])c([H])c2c(c1[H])C([H])([H])C([H])([H])C([H])([H])C2([H])N([H])C(=O)C1([H])N(C(=O)C([H])(N([H])C(=O)C([H])(N([H])C([H])([H])[H])C([H])([H])[H])C(C([H])([H])[H])(C([H])([H])[H])C([H])([H])[H])C([H])([H])c2c([H])c(OC([H])([H])C3(C([H])([H])[H])C([H])([H])c4c([H])c(C(=O)N5C([H])([H])C([H])([H])C([H])([H])C([H])(n6nc(-c7c([H])c([H])c(Oc8c([H])c([H])c(F)c([H])c8F)c([H])c7[H])c(C(=O)N([H])[H])c6N([H])[H])C5([H])[H])c(C([H])([H])[H])c([H])c4C([H])([H])C3([H])[H])c([H])c([H])c2C1([H])[H]

>  <smiles>  (87) 
[H]c1c([H])c([H])c2c(c1[H])C([H])([H])C([H])([H])C([H])([H])C2([H])N([H])C(=O)C1([H])N(C(=O)C([H])(N([H])C(=O)C([H])(N([H])C([H])([H])[H])C([H])([H])[H])C(C([H])([H])[H])(C([H])([H])[H])C([H])([H])[H])C([H])([H])c2c([H])c(OC([H])([H])C3(C([H])([H])[H])C([H])([H])c4c([H])c(C(=O)N5C([H])([H])C([H])([H])C([H])([H])C([H])(n6nc(-c7c([H])c([H])c(Oc8c([H])c([H])c(F)c([H])c8F)c([H])c7[H])c(C(=O)N([H])[H])c6N([H])[H])C5([H])[H])c(C([H])([H])[H])c([H])c4C([H])([H])C3([H])[H])c([H])c([H])c2C1([H])[H]

$$$$
87:0:0
     RDKit          3D

 93101  0  0  1  0  0  0  0  0999 V2000
  -29.6520  -20.6110   19.7370 C   0  0  0  0  0  3  0  0  0  0  0  0
  -30.4340  -19.1110   21.7030 C   0  0  0  0  0  3  0  0  0  0  0  0
  -30.0720  -16.4700   20.5010 C   0  0  0  0  0  0  0  0  0  0  0  0
  -30.7310  -17.9220   22.4220 C   0  0  0  0  0  0  0  0  0  0  0  0
  -29.8220  -19.1170   20.4340 C   0  0  0  0  0  0  0  0  0  0  0  0
  -30.5750  -16.6330   21.8380 C   0  0  0  0  0  0  0  0  0  0  0  0
  -29.5800  -17.7500   19.8730 C   0  0  0  0  0  0  0  0  0  0  0  0
  -31.3270  -18.0710   23.8260 C   0  0  0  0  0  1  0  0  0  0  0  0
  -31.0730  -15.4120   22.6350 C   0  0  0  0  0  1  0  0  0  0  0  0
  -30.4570  -15.0750   19.7730 C   0  0  0  0  0  0  0  0  0  0  0  0
  -30.2150  -12.7390   18.7980 C   0  0  0  0  0  2  0  0  0  0  0  0
  -29.2060  -12.7020   17.6330 C   0  0  0  0  0  2  0  0  0  0  0  0
  -27.7870  -12.4630   18.1670 C   0  0  0  0  0  2  0  0  0  0  0  0
  -27.4640  -13.3410   19.4060 C   0  0  0  0  0  3  0  0  0  0  0  0
  -28.6060  -13.3840   20.4490 C   0  0  0  0  0  2  0  0  0  0  0  0
  -29.8240  -13.8220   19.7570 N   0  0  0  0  0  0  0  0  0  0  0  0
  -31.5330  -15.1160   19.1670 O   0  0  0  0  0  0  0  0  0  0  0  0
  -25.1610  -13.8220   20.4000 C   0  0  0  0  0  0  0  0  0  0  0  0
  -24.1500  -13.0120   20.8340 C   0  0  0  0  0  0  0  0  0  0  0  0
  -24.6380  -11.6780   20.7150 C   0  0  0  0  0  0  0  0  0  0  0  0
  -26.1880  -12.9780   20.0230 N   0  0  0  0  0  0  0  0  0  0  0  0
  -25.8920  -11.6810   20.2790 N   0  0  0  0  0  0  0  0  0  0  0  0
  -23.9670  -10.3920   20.9310 C   0  0  0  0  0  0  0  0  0  0  0  0
  -24.4340   -9.4650   21.8890 C   0  0  0  0  0  3  0  0  0  0  0  0
  -23.7550   -8.2460   22.0960 C   0  0  0  0  0  3  0  0  0  0  0  0
  -22.5900   -7.9440   21.3490 C   0  0  0  0  0  0  0  0  0  0  0  0
  -22.1470   -8.8620   20.3820 C   0  0  0  0  0  3  0  0  0  0  0  0
  -22.8290  -10.0720   20.1690 C   0  0  0  0  0  3  0  0  0  0  0  0
  -21.8770   -6.7770   21.4660 O   0  0  0  0  0  0  0  0  0  0  0  0
  -21.7630   -6.1130   22.6640 C   0  0  0  0  0  0  0  0  0  0  0  0
  -21.1990   -6.7300   23.8030 C   0  0  0  0  0  3  0  0  0  0  0  0
  -21.0350   -5.9910   24.9930 C   0  0  0  0  0  3  0  0  0  0  0  0
  -21.4270   -4.6380   25.0460 C   0  0  0  0  0  0  0  0  0  0  0  0
  -21.9890   -4.0260   23.9110 C   0  0  0  0  0  3  0  0  0  0  0  0
  -22.1530   -4.7620   22.7250 C   0  0  0  0  0  0  0  0  0  0  0  0
  -22.6720   -4.1570   21.6250 F   0  0  0  0  0  0  0  0  0  0  0  0
  -21.2650   -3.9260   26.1840 F   0  0  0  0  0  0  0  0  0  0  0  0
  -22.7730  -13.4470   21.2510 C   0  0  0  0  0  0  0  0  0  0  0  0
  -22.1360  -12.7080   22.1500 N   0  0  0  0  0  0  0  0  0  0  0  0
  -22.2730  -14.4840   20.8080 O   0  0  0  0  0  0  0  0  0  0  0  0
  -22.5440  -11.8800   22.5560 H   0  0  0  0  0  0  0  0  0  0  0  0
  -21.2110  -12.9830   22.4490 H   0  0  0  0  0  0  0  0  0  0  0  0
  -25.2990  -15.1980   20.2770 N   0  0  0  0  0  0  0  0  0  0  0  0
  -24.5790  -15.8610   20.5410 H   0  0  0  0  0  0  0  0  0  0  0  0
  -26.1900  -15.6340   20.0580 H   0  0  0  0  0  0  0  0  0  0  0  0
  -27.4040  -18.4480   18.5610 C   0  0  0  0  0  1  0  0  0  0  0  0
  -28.7380  -17.6390   18.5920 C   0  0  0  0  0  2  0  0  0  0  0  0
  -28.9390  -21.9930   20.3870 C   0  0  0  0  0  3  0  0  0  0  0  0
  -27.7600  -23.2340   18.5130 C   0  0  0  0  0  1  0  0  0  0  0  0
  -30.1280  -23.9200   18.9840 C   0  0  0  0  0  1  0  0  0  0  0  0
  -28.7860  -23.5030   19.6340 C   0  0  2  0  0  0  0  0  0  0  0  0
  -28.2140  -24.8540   20.4720 C   0  0  0  0  0  2  0  0  0  0  0  0
  -28.3350  -26.3600   20.1110 O   0  0  0  0  0  0  0  0  0  0  0  0
  -24.6120  -31.9600   23.1840 C   0  0  0  0  0  0  0  0  0  0  0  0
  -27.2280  -27.2770   20.1570 C   0  0  0  0  0  0  0  0  0  0  0  0
  -23.4130  -30.5400   21.5640 C   0  0  0  0  0  3  0  0  0  0  0  0
  -24.8660  -28.9660   20.1490 C   0  0  0  0  0  0  0  0  0  0  0  0
  -25.9590  -30.8380   21.3740 C   0  0  0  0  0  2  0  0  0  0  0  0
  -26.0460  -29.4410   20.7370 C   0  0  0  0  0  0  0  0  0  0  0  0
  -27.2250  -28.6130   20.7220 C   0  0  0  0  0  3  0  0  0  0  0  0
  -26.0140  -26.8810   19.5560 C   0  0  0  0  0  3  0  0  0  0  0  0
  -24.8620  -27.6980   19.5400 C   0  0  0  0  0  3  0  0  0  0  0  0
  -23.6360  -29.8530   20.1880 C   0  0  0  0  0  2  0  0  0  0  0  0
  -24.6810  -31.1340   22.0970 N   0  0  0  0  0  0  0  0  0  0  0  0
  -23.5270  -32.2370   23.7160 O   0  0  0  0  0  0  0  0  0  0  0  0
  -22.7520  -29.5350   22.5380 C   0  0  0  0  0  0  0  0  0  0  0  0
  -21.4300  -29.3320   22.4040 N   0  0  0  0  0  0  0  0  0  0  0  0
  -23.4330  -28.9400   23.3780 O   0  0  0  0  0  0  0  0  0  0  0  0
  -20.9390  -29.8600   21.6940 H   0  0  0  0  0  0  0  0  0  0  0  0
  -18.0800  -28.0290   22.8740 C   0  0  0  0  0  0  0  0  0  0  0  0
  -20.6220  -28.3890   23.1850 C   0  0  0  0  0  3  0  0  0  0  0  0
  -20.7860  -26.9480   22.6530 C   0  0  0  0  0  2  0  0  0  0  0  0
  -19.7160  -26.5590   21.6270 C   0  0  0  0  0  2  0  0  0  0  0  0
  -18.3160  -26.6710   22.2410 C   0  0  0  0  0  2  0  0  0  0  0  0
  -19.1610  -28.8430   23.3070 C   0  0  0  0  0  0  0  0  0  0  0  0
  -18.8900  -30.1100   23.8660 C   0  0  0  0  0  3  0  0  0  0  0  0
  -17.5650  -30.5700   23.9960 C   0  0  0  0  0  3  0  0  0  0  0  0
  -16.4960  -29.7580   23.5790 C   0  0  0  0  0  3  0  0  0  0  0  0
  -16.7540  -28.4900   23.0300 C   0  0  0  0  0  3  0  0  0  0  0  0
  -25.8870  -32.6130   23.7970 C   0  0  0  0  0  3  0  0  0  0  0  0
  -25.5550  -34.0050   24.1400 N   0  0  0  0  0  0  0  0  0  0  0  0
  -25.8800  -35.0740   23.3960 C   0  0  0  0  0  0  0  0  0  0  0  0
  -26.5550  -34.9890   22.3700 O   0  0  0  0  0  0  0  0  0  0  0  0
  -24.9470  -34.1400   24.9320 H   0  0  0  0  0  0  0  0  0  0  0  0
  -24.1400  -36.8630   23.0560 C   0  0  0  0  0  1  0  0  0  0  0  0
  -25.3780  -36.4540   23.8710 C   0  0  0  0  0  3  0  0  0  0  0  0
  -27.4990  -37.3440   24.7340 C   0  0  0  0  0  1  0  0  0  0  0  0
  -26.4070  -37.5160   23.7810 N   0  0  0  0  0  0  0  0  0  0  0  0
  -25.9910  -38.4310   23.9360 H   0  0  0  0  0  0  0  0  0  0  0  0
  -26.4250  -31.8470   25.0690 C   0  0  1  0  0  0  0  0  0  0  0  0
  -25.3370  -31.5710   26.1360 C   0  0  0  0  0  1  0  0  0  0  0  0
  -27.0450  -30.4870   24.6730 C   0  0  0  0  0  1  0  0  0  0  0  0
  -27.5540  -32.6680   25.7370 C   0  0  0  0  0  1  0  0  0  0  0  0
  1 48  2  0
  1  5  1  0
  2  4  1  0
  3  6  1  0
  4  8  1  0
  5  2  2  0
  6  4  2  0
  6  9  1  0
  7  5  1  0
  7  3  2  0
 10  3  1  0
 11 16  1  0
 12 13  1  0
 12 11  1  0
 14 13  1  0
 14 21  1  0
 14 15  1  0
 16 10  1  0
 16 15  1  0
 17 10  2  0
 18 19  2  0
 19 38  1  0
 20 19  1  0
 20 23  1  0
 21 22  1  0
 21 18  1  0
 22 20  2  0
 23 24  1  0
 24 25  2  0
 26 29  1  0
 26 25  1  0
 27 26  2  0
 28 27  1  0
 28 23  2  0
 29 30  1  0
 30 35  2  0
 30 31  1  0
 31 32  2  0
 32 33  1  0
 33 37  1  0
 34 33  2  0
 35 34  1  0
 36 35  1  0
 38 39  1  0
 39 42  1  0
 39 41  1  0
 40 38  2  0
 43 18  1  0
 43 44  1  0
 45 43  1  0
 46 47  1  0
 47  7  1  0
 51 49  1  6
 50 51  1  0
 51 48  1  0
 51 52  1  0
 53 55  1  0
 53 52  1  0
 54 65  2  0
 55 60  1  0
 56 64  1  0
 56 66  1  0
 57 63  1  0
 57 59  1  0
 58 64  1  0
 59 58  1  0
 60 59  2  0
 61 55  2  0
 62 61  1  0
 62 57  2  0
 63 56  1  0
 64 54  1  0
 66 68  2  0
 67 66  1  0
 69 67  1  0
 70 79  2  0
 70 75  1  0
 71 67  1  0
 71 75  1  0
 72 71  1  0
 73 74  1  0
 73 72  1  0
 74 70  1  0
 75 76  2  0
 76 77  1  0
 78 77  2  0
 79 78  1  0
 80 54  1  0
 80 81  1  0
 80 90  1  0
 81 84  1  0
 82 86  1  0
 82 81  1  0
 83 82  2  0
 86 85  1  0
 88 86  1  0
 88 89  1  0
 88 87  1  0
 90 93  1  1
 90 91  1  0
 92 90  1  0
M  ISO  4   3 100  10 100  52 101  53 101
M  END
>  <TORSDO>  (88) 
F 21

>  <SCORE>  (88) 
-11.949

>  <name>  (88) 
87

>  <ligand_id>  (88) 
87

>  <original_smiles>  (88) 
[H]c1c([H])c([H])c2c(c1[H])C([H])([H])C([H])([H])C([H])([H])C2([H])N([H])C(=O)C1([H])N(C(=O)C([H])(N([H])C(=O)C([H])(N([H])C([H])([H])[H])C([H])([H])[H])C(C([H])([H])[H])(C([H])([H])[H])C([H])([H])[H])C([H])([H])c2c([H])c(OC([H])([H])C(C([H])([H])[H])(C([H])([H])[H])C([H])([H])C([H])([H])c3c([H])c(C([H])([H])[H])c(C([H])([H])[H])c(C(=O)N4C([H])([H])C([H])([H])C([H])([H])C([H])(n5nc(-c6c([H])c([H])c(Oc7c([H])c([H])c(F)c([H])c7F)c([H])c6[H])c(C(=O)N([H])[H])c5N([H])[H])C4([H])[H])c3C([H])([H])C([H])([H])[H])c([H])c([H])c2C1([H])[H]

>  <smiles>  (88) 
[H]c1c([H])c([H])c2c(c1[H])C([H])([H])C([H])([H])C([H])([H])C2([H])N([H])C(=O)C1([H])N(C(=O)C([H])(N([H])C(=O)C([H])(N([H])C([H])([H])[H])C([H])([H])[H])C(C([H])([H])[H])(C([H])([H])[H])C([H])([H])[H])C([H])([H])c2c([H])c(OC([H])([H])C(C([H])([H])[H])(C([H])([H])[H])C([H])([H])C([H])([H])c3c([H])c(C([H])([H])[H])c(C([H])([H])[H])c(C(=O)N4C([H])([H])C([H])([H])C([H])([H])C([H])(n5nc(-c6c([H])c([H])c(Oc7c([H])c([H])c(F)c([H])c7F)c([H])c6[H])c(C(=O)N([H])[H])c5N([H])[H])C4([H])[H])c3C([H])([H])C([H])([H])[H])c([H])c([H])c2C1([H])[H]

$$$$
88:0:0
     RDKit          3D

 95103  0  0  1  0  0  0  0  0999 V2000
  -27.9610  -25.1010   20.7990 C   0  0  0  0  0  3  0  0  0  0  0  0
  -27.6680  -24.6220   23.1790 C   0  0  0  0  0  3  0  0  0  0  0  0
  -28.4160  -26.8210   22.4620 C   0  0  0  0  0  3  0  0  0  0  0  0
  -27.6410  -24.1980   21.8330 C   0  0  0  0  0  0  0  0  0  0  0  0
  -28.3080  -26.4300   21.1070 C   0  0  0  0  0  0  0  0  0  0  0  0
  -28.0770  -25.9370   23.5070 C   0  0  0  0  0  0  0  0  0  0  0  0
  -27.1930  -22.8290   21.5130 C   0  0  0  0  0  0  0  0  0  0  0  0
  -26.1380  -22.3430   21.9220 O   0  0  0  0  0  0  0  0  0  0  0  0
  -28.1740  -21.9740   20.7130 C   0  0  0  0  0  2  0  0  0  0  0  0
  -29.4550  -21.7220   21.5250 C   0  0  0  0  0  2  0  0  0  0  0  0
  -30.4120  -20.7380   20.8450 C   0  0  0  0  0  2  0  0  0  0  0  0
  -31.6250  -20.4270   21.7390 C   0  0  0  0  0  2  0  0  0  0  0  0
  -32.4000  -19.1790   21.2980 C   0  0  0  0  0  2  0  0  0  0  0  0
  -31.6340  -17.8660   21.5570 C   0  0  0  0  0  2  0  0  0  0  0  0
  -31.6740  -16.9030   20.3630 C   0  0  0  0  0  2  0  0  0  0  0  0
  -30.8290  -15.6340   20.5980 C   0  0  0  0  0  2  0  0  0  0  0  0
  -31.1870  -14.4640   19.6680 C   0  0  0  0  0  0  0  0  0  0  0  0
  -30.8260  -12.1270   18.9480 C   0  0  0  0  0  2  0  0  0  0  0  0
  -29.8370  -12.0250   17.7750 C   0  0  0  0  0  2  0  0  0  0  0  0
  -28.3890  -11.9620   18.2910 C   0  0  0  0  0  2  0  0  0  0  0  0
  -28.0750  -13.0830   19.3180 C   0  0  0  0  0  3  0  0  0  0  0  0
  -29.1700  -13.1570   20.4090 C   0  0  0  0  0  2  0  0  0  0  0  0
  -30.4760  -13.3100   19.7460 N   0  0  0  0  0  0  0  0  0  0  0  0
  -32.1480  -14.5940   18.9040 O   0  0  0  0  0  0  0  0  0  0  0  0
  -25.7880  -13.8700   20.2090 C   0  0  0  0  0  0  0  0  0  0  0  0
  -24.6900  -13.1760   20.6470 C   0  0  0  0  0  0  0  0  0  0  0  0
  -25.0390  -11.7930   20.5650 C   0  0  0  0  0  0  0  0  0  0  0  0
  -26.7410  -12.9120   19.8930 N   0  0  0  0  0  0  0  0  0  0  0  0
  -26.2960  -11.6570   20.1620 N   0  0  0  0  0  0  0  0  0  0  0  0
  -24.2310  -10.5870   20.7940 C   0  0  0  0  0  0  0  0  0  0  0  0
  -24.6090   -9.6150   21.7450 C   0  0  0  0  0  3  0  0  0  0  0  0
  -23.8070   -8.4740   21.9590 C   0  0  0  0  0  3  0  0  0  0  0  0
  -22.6100   -8.2980   21.2230 C   0  0  0  0  0  0  0  0  0  0  0  0
  -22.2520   -9.2570   20.2600 C   0  0  0  0  0  3  0  0  0  0  0  0
  -23.0550  -10.3900   20.0440 C   0  0  0  0  0  3  0  0  0  0  0  0
  -21.7820   -7.2080   21.3450 O   0  0  0  0  0  0  0  0  0  0  0  0
  -21.6480   -6.5360   22.5330 C   0  0  0  0  0  0  0  0  0  0  0  0
  -21.2040   -7.1800   23.7090 C   0  0  0  0  0  3  0  0  0  0  0  0
  -21.0140   -6.4350   24.8910 C   0  0  0  0  0  3  0  0  0  0  0  0
  -21.2600   -5.0490   24.8970 C   0  0  0  0  0  0  0  0  0  0  0  0
  -21.6950   -4.4060   23.7260 C   0  0  0  0  0  3  0  0  0  0  0  0
  -21.8870   -5.1470   22.5470 C   0  0  0  0  0  0  0  0  0  0  0  0
  -22.2880   -4.5170   21.4170 F   0  0  0  0  0  0  0  0  0  0  0  0
  -21.0700   -4.3330   26.0310 F   0  0  0  0  0  0  0  0  0  0  0  0
  -23.3590  -13.7570   21.0290 C   0  0  0  0  0  0  0  0  0  0  0  0
  -22.6470  -13.1080   21.9450 N   0  0  0  0  0  0  0  0  0  0  0  0
  -22.9630  -14.8180   20.5510 O   0  0  0  0  0  0  0  0  0  0  0  0
  -22.9800  -12.2490   22.3560 H   0  0  0  0  0  0  0  0  0  0  0  0
  -21.7550  -13.4800   22.2410 H   0  0  0  0  0  0  0  0  0  0  0  0
  -26.0490  -15.2240   20.0360 N   0  0  0  0  0  0  0  0  0  0  0  0
  -25.3530  -15.9410   20.2130 H   0  0  0  0  0  0  0  0  0  0  0  0
  -26.9160  -15.5990   19.6680 H   0  0  0  0  0  0  0  0  0  0  0  0
  -27.4920  -25.6880   25.8270 C   0  0  0  0  0  1  0  0  0  0  0  0
  -28.1350  -26.4270   24.7940 O   0  0  0  0  0  0  0  0  0  0  0  0
  -28.3870  -27.3620   20.0980 O   0  0  0  0  0  0  0  0  0  0  0  0
  -24.5610  -32.1690   23.5490 C   0  0  0  0  0  0  0  0  0  0  0  0
  -27.2580  -28.1370   20.0430 C   0  0  0  0  0  0  0  0  0  0  0  0
  -23.3730  -30.9500   21.7490 C   0  0  0  0  0  3  0  0  0  0  0  0
  -24.8480  -29.5850   20.1760 C   0  0  0  0  0  0  0  0  0  0  0  0
  -25.8900  -31.3550   21.6100 C   0  0  0  0  0  2  0  0  0  0  0  0
  -25.9920  -30.0680   20.8250 C   0  0  0  0  0  0  0  0  0  0  0  0
  -27.2000  -29.3510   20.7550 C   0  0  0  0  0  3  0  0  0  0  0  0
  -26.1090  -27.6640   19.3770 C   0  0  0  0  0  3  0  0  0  0  0  0
  -24.9010  -28.3830   19.4440 C   0  0  0  0  0  3  0  0  0  0  0  0
  -23.5930  -30.4180   20.3070 C   0  0  0  0  0  2  0  0  0  0  0  0
  -24.6260  -31.4980   22.3640 N   0  0  0  0  0  0  0  0  0  0  0  0
  -23.4750  -32.3760   24.1100 O   0  0  0  0  0  0  0  0  0  0  0  0
  -22.7150  -29.8340   22.5900 C   0  0  0  0  0  0  0  0  0  0  0  0
  -21.3890  -29.6800   22.4430 N   0  0  0  0  0  0  0  0  0  0  0  0
  -23.3920  -29.1140   23.3280 O   0  0  0  0  0  0  0  0  0  0  0  0
  -20.9060  -30.3190   21.8280 H   0  0  0  0  0  0  0  0  0  0  0  0
  -18.0010  -28.4790   22.8090 C   0  0  0  0  0  0  0  0  0  0  0  0
  -20.5620  -28.6680   23.0980 C   0  0  0  0  0  3  0  0  0  0  0  0
  -20.6420  -27.3140   22.3560 C   0  0  0  0  0  2  0  0  0  0  0  0
  -19.5330  -27.1320   21.3140 C   0  0  0  0  0  2  0  0  0  0  0  0
  -18.1560  -27.2140   21.9800 C   0  0  0  0  0  2  0  0  0  0  0  0
  -19.1310  -29.1690   23.3220 C   0  0  0  0  0  0  0  0  0  0  0  0
  -18.9340  -30.3560   24.0580 C   0  0  0  0  0  3  0  0  0  0  0  0
  -17.6380  -30.8510   24.2920 C   0  0  0  0  0  3  0  0  0  0  0  0
  -16.5220  -30.1600   23.7920 C   0  0  0  0  0  3  0  0  0  0  0  0
  -16.7040  -28.9750   23.0570 C   0  0  0  0  0  3  0  0  0  0  0  0
  -25.8420  -32.7310   24.2430 C   0  0  0  0  0  3  0  0  0  0  0  0
  -26.2860  -31.8930   25.5050 C   0  0  1  0  0  0  0  0  0  0  0  0
  -25.1450  -31.6350   26.5160 C   0  0  0  0  0  1  0  0  0  0  0  0
  -26.8600  -30.5210   25.0790 C   0  0  0  0  0  1  0  0  0  0  0  0
  -27.4240  -32.6310   26.2490 C   0  0  0  0  0  1  0  0  0  0  0  0
  -25.5690  -34.1280   24.6120 N   0  0  0  0  0  0  0  0  0  0  0  0
  -25.9780  -35.1930   23.9100 C   0  0  0  0  0  0  0  0  0  0  0  0
  -26.6960  -35.1000   22.9090 O   0  0  0  0  0  0  0  0  0  0  0  0
  -24.9470  -34.2780   25.3910 H   0  0  0  0  0  0  0  0  0  0  0  0
  -24.3360  -37.0610   23.5380 C   0  0  0  0  0  1  0  0  0  0  0  0
  -25.5200  -36.5830   24.3940 C   0  0  0  0  0  3  0  0  0  0  0  0
  -27.6450  -37.3520   25.3550 C   0  0  0  0  0  1  0  0  0  0  0  0
  -26.5960  -37.5980   24.3680 N   0  0  0  0  0  0  0  0  0  0  0  0
  -26.2210  -38.5270   24.5370 H   0  0  0  0  0  0  0  0  0  0  0  0
  1  5  2  0
  1  4  1  0
  2  6  1  0
  3  6  2  0
  4  2  2  0
  5  3  1  0
  6 54  1  0
  7  4  1  0
  7  8  2  0
  9  7  1  0
  9 10  1  0
 11 10  1  0
 11 12  1  0
 13 14  1  0
 13 12  1  0
 15 16  1  0
 15 14  1  0
 17 23  1  0
 17 16  1  0
 18 23  1  0
 19 20  1  0
 19 18  1  0
 21 20  1  0
 21 28  1  0
 21 22  1  0
 23 22  1  0
 24 17  2  0
 25 26  2  0
 26 45  1  0
 27 26  1  0
 27 30  1  0
 28 29  1  0
 28 25  1  0
 29 27  2  0
 30 31  1  0
 31 32  2  0
 33 36  1  0
 33 32  1  0
 34 33  2  0
 35 34  1  0
 35 30  2  0
 36 37  1  0
 37 42  2  0
 37 38  1  0
 38 39  2  0
 39 40  1  0
 40 44  1  0
 41 40  2  0
 42 41  1  0
 43 42  1  0
 45 46  1  0
 46 49  1  0
 46 48  1  0
 47 45  2  0
 50 25  1  0
 50 51  1  0
 52 50  1  0
 54 53  1  0
 55  5  1  0
 56 67  2  0
 57 55  1  0
 57 62  1  0
 58 66  1  0
 58 68  1  0
 59 65  1  0
 59 61  1  0
 60 66  1  0
 61 60  1  0
 62 61  2  0
 63 64  1  0
 63 57  2  0
 64 59  2  0
 65 58  1  0
 66 56  1  0
 68 70  2  0
 69 68  1  0
 71 69  1  0
 72 81  2  0
 72 77  1  0
 73 69  1  0
 73 77  1  0
 74 73  1  0
 75 76  1  0
 75 74  1  0
 76 72  1  0
 77 78  2  0
 78 79  1  0
 80 79  2  0
 81 80  1  0
 82 56  1  0
 82 87  1  0
 82 83  1  0
 83 86  1  1
 83 84  1  0
 85 83  1  0
 87 90  1  0
 88 92  1  0
 88 87  1  0
 89 88  2  0
 92 91  1  0
 94 92  1  0
 94 95  1  0
 94 93  1  0
M  ISO  4   5 101  16 100  17 100  55 101
M  END
>  <TORSDO>  (89) 
F 26

>  <SCORE>  (89) 
-9.681

>  <name>  (89) 
88

>  <ligand_id>  (89) 
88

>  <original_smiles>  (89) 
[H]c1c([H])c([H])c2c(c1[H])C([H])([H])C([H])([H])C([H])([H])C2([H])N([H])C(=O)C1([H])N(C(=O)C([H])(N([H])C(=O)C([H])(N([H])C([H])([H])[H])C([H])([H])[H])C(C([H])([H])[H])(C([H])([H])[H])C([H])([H])[H])C([H])([H])c2c([H])c(Oc3c([H])c(OC([H])([H])[H])c([H])c(C(=O)C([H])([H])C([H])([H])C([H])([H])C([H])([H])C([H])([H])C([H])([H])C([H])([H])C([H])([H])C(=O)N4C([H])([H])C([H])([H])C([H])([H])C([H])(n5nc(-c6c([H])c([H])c(Oc7c([H])c([H])c(F)c([H])c7F)c([H])c6[H])c(C(=O)N([H])[H])c5N([H])[H])C4([H])[H])c3[H])c([H])c([H])c2C1([H])[H]

>  <smiles>  (89) 
[H]c1c([H])c([H])c2c(c1[H])C([H])([H])C([H])([H])C([H])([H])C2([H])N([H])C(=O)C1([H])N(C(=O)C([H])(N([H])C(=O)C([H])(N([H])C([H])([H])[H])C([H])([H])[H])C(C([H])([H])[H])(C([H])([H])[H])C([H])([H])[H])C([H])([H])c2c([H])c(Oc3c([H])c(OC([H])([H])[H])c([H])c(C(=O)C([H])([H])C([H])([H])C([H])([H])C([H])([H])C([H])([H])C([H])([H])C([H])([H])C([H])([H])C(=O)N4C([H])([H])C([H])([H])C([H])([H])C([H])(n5nc(-c6c([H])c([H])c(Oc7c([H])c([H])c(F)c([H])c7F)c([H])c6[H])c(C(=O)N([H])[H])c5N([H])[H])C4([H])[H])c3[H])c([H])c([H])c2C1([H])[H]

$$$$
89:0:0
     RDKit          3D

 92101  0  0  1  0  0  0  0  0999 V2000
  -30.3930  -18.2790   19.5990 C   0  0  0  0  0  3  0  0  0  0  0  0
  -30.8140  -16.9700   20.3020 C   0  0  0  0  0  0  0  0  0  0  0  0
  -29.9790  -19.6440   20.1890 C   0  0  0  0  0  0  0  0  0  0  0  0
  -29.9440  -19.5520   21.6120 C   0  0  0  0  0  0  0  0  0  0  0  0
  -30.9610  -17.2200   21.6990 C   0  0  0  0  0  0  0  0  0  0  0  0
  -30.4900  -18.4260   22.3270 C   0  0  0  0  0  0  0  0  0  0  0  0
  -29.5210  -21.1640   19.4310 C   0  0  0  0  0  2  0  0  0  0  0  0
  -29.3080  -20.6770   22.4440 C   0  0  0  0  0  2  0  0  0  0  0  0
  -28.0780  -21.3610   21.8350 C   0  0  0  0  0  2  0  0  0  0  0  0
  -28.3660  -22.7630   21.2890 C   0  0  0  0  0  2  0  0  0  0  0  0
  -29.2800  -22.8590   20.0400 C   0  0  1  0  0  0  0  0  0  0  0  0
  -31.7150  -16.2160   22.5890 C   0  0  0  0  0  1  0  0  0  0  0  0
  -30.5740  -18.5200   23.8620 C   0  0  0  0  0  1  0  0  0  0  0  0
  -30.7010  -23.2590   20.4740 C   0  0  0  0  0  1  0  0  0  0  0  0
  -31.3150  -15.4730   19.7080 C   0  0  0  0  0  0  0  0  0  0  0  0
  -30.9890  -13.0790   18.7530 C   0  0  0  0  0  2  0  0  0  0  0  0
  -29.9900  -13.0290   17.5650 C   0  0  0  0  0  2  0  0  0  0  0  0
  -28.5400  -12.8920   18.0670 C   0  0  0  0  0  2  0  0  0  0  0  0
  -28.2570  -13.8450   19.2510 C   0  0  0  0  0  3  0  0  0  0  0  0
  -29.3660  -13.8240   20.3200 C   0  0  0  0  0  2  0  0  0  0  0  0
  -30.6280  -14.2230   19.6730 N   0  0  0  0  0  0  0  0  0  0  0  0
  -32.4580  -15.3900   19.2340 O   0  0  0  0  0  0  0  0  0  0  0  0
  -26.0040  -14.6100   20.1660 C   0  0  0  0  0  0  0  0  0  0  0  0
  -24.8890  -13.9340   20.5740 C   0  0  0  0  0  0  0  0  0  0  0  0
  -25.2120  -12.5450   20.4770 C   0  0  0  0  0  0  0  0  0  0  0  0
  -26.9340  -13.6440   19.8290 N   0  0  0  0  0  0  0  0  0  0  0  0
  -26.4740  -12.3920   20.0840 N   0  0  0  0  0  0  0  0  0  0  0  0
  -24.3720  -11.3570   20.6780 C   0  0  0  0  0  0  0  0  0  0  0  0
  -24.7750  -10.3000   21.5240 C   0  0  0  0  0  3  0  0  0  0  0  0
  -23.9400   -9.1780   21.7170 C   0  0  0  0  0  3  0  0  0  0  0  0
  -22.6860   -9.1070   21.0640 C   0  0  0  0  0  0  0  0  0  0  0  0
  -22.3000  -10.1500   20.2050 C   0  0  0  0  0  3  0  0  0  0  0  0
  -23.1340  -11.2640   20.0110 C   0  0  0  0  0  3  0  0  0  0  0  0
  -21.8190   -8.0460   21.1710 O   0  0  0  0  0  0  0  0  0  0  0  0
  -21.8150   -7.2280   22.2730 C   0  0  0  0  0  0  0  0  0  0  0  0
  -21.6120   -7.7330   23.5760 C   0  0  0  0  0  3  0  0  0  0  0  0
  -21.5450   -6.8470   24.6700 C   0  0  0  0  0  3  0  0  0  0  0  0
  -21.6720   -5.4610   24.4640 C   0  0  0  0  0  0  0  0  0  0  0  0
  -21.8700   -4.9560   23.1660 C   0  0  0  0  0  3  0  0  0  0  0  0
  -21.9400   -5.8380   22.0740 C   0  0  0  0  0  0  0  0  0  0  0  0
  -22.1090   -5.3450   20.8240 F   0  0  0  0  0  0  0  0  0  0  0  0
  -21.6030   -4.6090   25.5150 F   0  0  0  0  0  0  0  0  0  0  0  0
  -23.5670  -14.5410   20.9420 C   0  0  0  0  0  0  0  0  0  0  0  0
  -22.8320  -13.9080   21.8490 N   0  0  0  0  0  0  0  0  0  0  0  0
  -23.1990  -15.6080   20.4540 O   0  0  0  0  0  0  0  0  0  0  0  0
  -23.1440  -13.0430   22.2640 H   0  0  0  0  0  0  0  0  0  0  0  0
  -21.9470  -14.3000   22.1360 H   0  0  0  0  0  0  0  0  0  0  0  0
  -26.2990  -15.9620   20.0240 N   0  0  0  0  0  0  0  0  0  0  0  0
  -25.6220  -16.6900   20.2160 H   0  0  0  0  0  0  0  0  0  0  0  0
  -27.1890  -16.3220   19.6980 H   0  0  0  0  0  0  0  0  0  0  0  0
  -28.6470  -24.3560   19.2400 C   0  0  0  0  0  2  0  0  0  0  0  0
  -28.5740  -25.9700   19.5880 O   0  0  0  0  0  0  0  0  0  0  0  0
  -24.6800  -31.4830   22.8960 C   0  0  0  0  0  0  0  0  0  0  0  0
  -27.4750  -26.9770   19.5450 C   0  0  0  0  0  0  0  0  0  0  0  0
  -23.5330  -30.0910   21.2190 C   0  0  0  0  0  3  0  0  0  0  0  0
  -25.0430  -28.6740   19.6660 C   0  0  0  0  0  0  0  0  0  0  0  0
  -26.0690  -30.5010   21.0070 C   0  0  0  0  0  2  0  0  0  0  0  0
  -26.2160  -29.1370   20.2730 C   0  0  0  0  0  0  0  0  0  0  0  0
  -27.4190  -28.3060   20.1930 C   0  0  0  0  0  3  0  0  0  0  0  0
  -26.2640  -26.6680   18.8860 C   0  0  0  0  0  3  0  0  0  0  0  0
  -25.0890  -27.4640   18.9510 C   0  0  0  0  0  3  0  0  0  0  0  0
  -23.7620  -29.4990   19.8000 C   0  0  0  0  0  2  0  0  0  0  0  0
  -24.7820  -30.7190   21.7620 N   0  0  0  0  0  0  0  0  0  0  0  0
  -23.5920  -31.6630   23.4700 O   0  0  0  0  0  0  0  0  0  0  0  0
  -22.9480  -28.9980   22.1520 C   0  0  0  0  0  0  0  0  0  0  0  0
  -21.6480  -28.6830   22.0030 N   0  0  0  0  0  0  0  0  0  0  0  0
  -23.6720  -28.4350   22.9780 O   0  0  0  0  0  0  0  0  0  0  0  0
  -21.1120  -29.1930   21.3170 H   0  0  0  0  0  0  0  0  0  0  0  0
  -18.4560  -26.9880   22.3380 C   0  0  0  0  0  0  0  0  0  0  0  0
  -20.9310  -27.6350   22.7370 C   0  0  0  0  0  3  0  0  0  0  0  0
  -21.2750  -26.2310   22.1870 C   0  0  0  0  0  2  0  0  0  0  0  0
  -20.2910  -25.7450   21.1180 C   0  0  0  0  0  2  0  0  0  0  0  0
  -18.8690  -25.6800   21.6840 C   0  0  0  0  0  2  0  0  0  0  0  0
  -19.4240  -27.9120   22.8180 C   0  0  0  0  0  0  0  0  0  0  0  0
  -18.9840  -29.1250   23.3910 C   0  0  0  0  0  3  0  0  0  0  0  0
  -17.6110  -29.4220   23.4870 C   0  0  0  0  0  3  0  0  0  0  0  0
  -16.6590  -28.4980   23.0220 C   0  0  0  0  0  3  0  0  0  0  0  0
  -17.0820  -27.2830   22.4530 C   0  0  0  0  0  3  0  0  0  0  0  0
  -25.9230  -32.1840   23.5250 C   0  0  0  0  0  3  0  0  0  0  0  0
  -25.5140  -33.5310   23.9620 N   0  0  0  0  0  0  0  0  0  0  0  0
  -25.7550  -34.6650   23.2890 C   0  0  0  0  0  0  0  0  0  0  0  0
  -26.4110  -34.6900   22.2450 O   0  0  0  0  0  0  0  0  0  0  0  0
  -24.9280  -33.5810   24.7840 H   0  0  0  0  0  0  0  0  0  0  0  0
  -23.8880  -36.3460   23.1230 C   0  0  0  0  0  1  0  0  0  0  0  0
  -25.1830  -35.9770   23.8650 C   0  0  0  0  0  3  0  0  0  0  0  0
  -27.2730  -36.9620   24.6960 C   0  0  0  0  0  1  0  0  0  0  0  0
  -26.1290  -37.1120   23.8020 N   0  0  0  0  0  0  0  0  0  0  0  0
  -25.6580  -37.9840   24.0290 H   0  0  0  0  0  0  0  0  0  0  0  0
  -26.5360  -31.3830   24.7410 C   0  0  1  0  0  0  0  0  0  0  0  0
  -25.5020  -31.0140   25.8310 C   0  0  0  0  0  1  0  0  0  0  0  0
  -27.1990  -30.0720   24.2630 C   0  0  0  0  0  1  0  0  0  0  0  0
  -27.6510  -32.2210   25.4100 C   0  0  0  0  0  1  0  0  0  0  0  0
  1  3  2  0
  1  2  1  0
  2  5  2  0
  3  4  1  0
  4  6  2  0
  4  8  1  0
  5  6  1  0
  5 12  1  0
  6 13  1  0
  7 11  1  0
  7  3  1  0
  9  8  1  0
 10  9  1  0
 11 14  1  1
 11 10  1  0
 15  2  1  0
 16 21  1  0
 17 18  1  0
 17 16  1  0
 19 18  1  0
 19 26  1  0
 19 20  1  0
 21 15  1  0
 21 20  1  0
 22 15  2  0
 23 24  2  0
 24 43  1  0
 25 24  1  0
 25 28  1  0
 26 27  1  0
 26 23  1  0
 27 25  2  0
 28 29  1  0
 29 30  2  0
 31 34  1  0
 31 30  1  0
 32 31  2  0
 33 32  1  0
 33 28  2  0
 34 35  1  0
 35 36  1  0
 36 37  2  0
 38 37  1  0
 38 42  1  0
 39 38  2  0
 40 35  2  0
 40 39  1  0
 41 40  1  0
 43 44  1  0
 44 47  1  0
 44 46  1  0
 45 43  2  0
 48 23  1  0
 48 49  1  0
 50 48  1  0
 51 52  1  0
 51 11  1  0
 53 64  2  0
 54 52  1  0
 54 59  1  0
 55 63  1  0
 55 65  1  0
 56 62  1  0
 56 58  1  0
 57 63  1  0
 58 57  1  0
 59 58  2  0
 60 61  1  0
 60 54  2  0
 61 56  2  0
 62 55  1  0
 63 53  1  0
 65 67  2  0
 66 65  1  0
 68 66  1  0
 69 78  2  0
 69 74  1  0
 70 66  1  0
 70 74  1  0
 71 70  1  0
 72 73  1  0
 72 71  1  0
 73 69  1  0
 74 75  2  0
 75 76  1  0
 77 76  2  0
 78 77  1  0
 79 53  1  0
 79 80  1  0
 79 89  1  0
 80 83  1  0
 81 85  1  0
 81 80  1  0
 82 81  2  0
 85 84  1  0
 87 85  1  0
 87 88  1  0
 87 86  1  0
 89 92  1  1
 89 90  1  0
 91 89  1  0
M  ISO  4   2 100  15 100  51 101  52 101
M  END
>  <TORSDO>  (90) 
F 17

>  <SCORE>  (90) 
-9.271

>  <name>  (90) 
89

>  <ligand_id>  (90) 
89

>  <original_smiles>  (90) 
[H]c1c([H])c([H])c2c(c1[H])C([H])([H])C([H])([H])C([H])([H])C2([H])N([H])C(=O)C1([H])N(C(=O)C([H])(N([H])C(=O)C([H])(N([H])C([H])([H])[H])C([H])([H])[H])C(C([H])([H])[H])(C([H])([H])[H])C([H])([H])[H])C([H])([H])c2c([H])c(OC([H])([H])C3(C([H])([H])[H])C([H])([H])c4c([H])c(C(=O)N5C([H])([H])C([H])([H])C([H])([H])C([H])(n6nc(-c7c([H])c([H])c(Oc8c([H])c([H])c(F)c([H])c8F)c([H])c7[H])c(C(=O)N([H])[H])c6N([H])[H])C5([H])[H])c(C([H])([H])[H])c(C([H])([H])[H])c4C([H])([H])C([H])([H])C3([H])[H])c([H])c([H])c2C1([H])[H]

>  <smiles>  (90) 
[H]c1c([H])c([H])c2c(c1[H])C([H])([H])C([H])([H])C([H])([H])C2([H])N([H])C(=O)C1([H])N(C(=O)C([H])(N([H])C(=O)C([H])(N([H])C([H])([H])[H])C([H])([H])[H])C(C([H])([H])[H])(C([H])([H])[H])C([H])([H])[H])C([H])([H])c2c([H])c(OC([H])([H])C3(C([H])([H])[H])C([H])([H])c4c([H])c(C(=O)N5C([H])([H])C([H])([H])C([H])([H])C([H])(n6nc(-c7c([H])c([H])c(Oc8c([H])c([H])c(F)c([H])c8F)c([H])c7[H])c(C(=O)N([H])[H])c6N([H])[H])C5([H])[H])c(C([H])([H])[H])c(C([H])([H])[H])c4C([H])([H])C([H])([H])C3([H])[H])c([H])c([H])c2C1([H])[H]

$$$$
90:0:0
     RDKit          3D

 95104  0  0  1  0  0  0  0  0999 V2000
  -28.2220  -23.5890   18.3340 C   0  0  0  0  0  3  0  0  0  0  0  0
  -28.5020  -24.9420   18.5810 C   0  0  0  0  0  3  0  0  0  0  0  0
  -27.7550  -23.2560   20.7120 C   0  0  0  0  0  3  0  0  0  0  0  0
  -27.8190  -22.7570   19.3950 C   0  0  0  0  0  0  0  0  0  0  0  0
  -28.0240  -24.6130   20.9620 C   0  0  0  0  0  0  0  0  0  0  0  0
  -28.3580  -25.4600   19.8820 C   0  0  0  0  0  0  0  0  0  0  0  0
  -27.8950  -25.1620   22.3710 C   0  0  0  0  0  1  0  0  0  0  0  0
  -28.4200  -26.8110   20.0630 O   0  0  0  0  0  0  0  0  0  0  0  0
  -24.5500  -31.8440   23.2230 C   0  0  0  0  0  0  0  0  0  0  0  0
  -27.2210  -27.4890   20.0840 C   0  0  0  0  0  0  0  0  0  0  0  0
  -23.3470  -30.4550   21.5660 C   0  0  0  0  0  3  0  0  0  0  0  0
  -24.8060  -28.9450   20.1280 C   0  0  0  0  0  0  0  0  0  0  0  0
  -25.8680  -30.8370   21.3690 C   0  0  0  0  0  2  0  0  0  0  0  0
  -25.9590  -29.4750   20.7210 C   0  0  0  0  0  0  0  0  0  0  0  0
  -27.1680  -28.7500   20.7050 C   0  0  0  0  0  3  0  0  0  0  0  0
  -26.0440  -26.9620   19.4930 C   0  0  0  0  0  3  0  0  0  0  0  0
  -24.8400  -27.6820   19.5180 C   0  0  0  0  0  3  0  0  0  0  0  0
  -23.5570  -29.7920   20.1800 C   0  0  0  0  0  2  0  0  0  0  0  0
  -24.6060  -31.0580   22.1120 N   0  0  0  0  0  0  0  0  0  0  0  0
  -23.4690  -32.1060   23.7660 O   0  0  0  0  0  0  0  0  0  0  0  0
  -22.7030  -29.4190   22.5130 C   0  0  0  0  0  0  0  0  0  0  0  0
  -21.3840  -29.2160   22.3650 N   0  0  0  0  0  0  0  0  0  0  0  0
  -23.3860  -28.8020   23.3360 O   0  0  0  0  0  0  0  0  0  0  0  0
  -20.8960  -29.7670   21.6720 H   0  0  0  0  0  0  0  0  0  0  0  0
  -18.0260  -27.9590   22.7900 C   0  0  0  0  0  0  0  0  0  0  0  0
  -20.5700  -28.2650   23.1210 C   0  0  0  0  0  3  0  0  0  0  0  0
  -20.7140  -26.8340   22.5520 C   0  0  0  0  0  2  0  0  0  0  0  0
  -19.6420  -26.4860   21.5140 C   0  0  0  0  0  2  0  0  0  0  0  0
  -18.2420  -26.6100   22.1270 C   0  0  0  0  0  2  0  0  0  0  0  0
  -19.1190  -28.7430   23.2430 C   0  0  0  0  0  0  0  0  0  0  0  0
  -18.8640  -30.0060   23.8200 C   0  0  0  0  0  3  0  0  0  0  0  0
  -17.5480  -30.4850   23.9510 C   0  0  0  0  0  3  0  0  0  0  0  0
  -16.4680  -29.6970   23.5160 C   0  0  0  0  0  3  0  0  0  0  0  0
  -16.7080  -28.4370   22.9420 C   0  0  0  0  0  3  0  0  0  0  0  0
  -25.8360  -32.4700   23.8480 C   0  0  0  0  0  3  0  0  0  0  0  0
  -26.3600  -31.6820   25.1100 C   0  0  1  0  0  0  0  0  0  0  0  0
  -25.2720  -31.4250   26.1770 C   0  0  0  0  0  1  0  0  0  0  0  0
  -26.9470  -30.3140   24.6930 C   0  0  0  0  0  1  0  0  0  0  0  0
  -27.5100  -32.4720   25.7800 C   0  0  0  0  0  1  0  0  0  0  0  0
  -25.5250  -33.8630   24.1920 N   0  0  0  0  0  0  0  0  0  0  0  0
  -25.8400  -34.9210   23.4330 C   0  0  0  0  0  0  0  0  0  0  0  0
  -26.4960  -34.8280   22.3930 O   0  0  0  0  0  0  0  0  0  0  0  0
  -24.9400  -34.0090   25.0020 H   0  0  0  0  0  0  0  0  0  0  0  0
  -24.0840  -36.6940   23.1220 C   0  0  0  0  0  1  0  0  0  0  0  0
  -25.3480  -36.3030   23.9040 C   0  0  0  0  0  3  0  0  0  0  0  0
  -27.4920  -37.2070   24.6880 C   0  0  0  0  0  1  0  0  0  0  0  0
  -26.3670  -37.3670   23.7710 N   0  0  0  0  0  0  0  0  0  0  0  0
  -25.9550  -38.2820   23.9310 H   0  0  0  0  0  0  0  0  0  0  0  0
  -27.4820  -21.3130   19.1300 C   0  0  0  0  0  2  0  0  0  0  0  0
  -28.7460  -20.5200   18.7830 C   0  0  0  0  0  2  0  0  0  0  0  0
  -29.0210  -17.4140   21.1390 C   0  0  0  0  0  2  0  0  0  0  0  0
  -30.1180  -16.9140   18.8930 C   0  0  0  0  0  2  0  0  0  0  0  0
  -28.8410  -18.8680   20.6920 C   0  0  0  0  0  2  0  0  0  0  0  0
  -29.9290  -18.3740   18.4910 C   0  0  0  0  0  2  0  0  0  0  0  0
  -30.1950  -16.7150   20.4300 C   0  0  0  0  0  3  0  0  0  0  0  0
  -28.7020  -19.0260   19.1560 C   0  0  2  0  0  0  0  0  0  0  0  0
  -27.3930  -18.3920   18.6270 C   0  0  0  0  0  1  0  0  0  0  0  0
  -30.8200  -14.3270   20.1940 C   0  0  0  0  0  0  0  0  0  0  0  0
  -30.4200  -12.2550   18.9500 C   0  0  0  0  0  2  0  0  0  0  0  0
  -29.4210  -12.5610   17.8140 C   0  0  0  0  0  2  0  0  0  0  0  0
  -27.9660  -12.4370   18.3100 C   0  0  0  0  0  2  0  0  0  0  0  0
  -27.7140  -13.2120   19.6310 C   0  0  0  0  0  3  0  0  0  0  0  0
  -28.8150  -12.8840   20.6670 C   0  0  0  0  0  2  0  0  0  0  0  0
  -30.1270  -13.1710   20.0580 N   0  0  0  0  0  0  0  0  0  0  0  0
  -31.9120  -14.5490   19.6620 O   0  0  0  0  0  0  0  0  0  0  0  0
  -30.1030  -15.3000   20.7560 N   0  0  0  0  0  0  0  0  0  0  0  0
  -29.2500  -15.0000   21.2010 H   0  0  0  0  0  0  0  0  0  0  0  0
  -25.3480  -13.8310   20.4480 C   0  0  0  0  0  0  0  0  0  0  0  0
  -24.2910  -13.0600   20.8510 C   0  0  0  0  0  0  0  0  0  0  0  0
  -24.7390  -11.7060   20.7720 C   0  0  0  0  0  0  0  0  0  0  0  0
  -26.3760  -12.9470   20.1580 N   0  0  0  0  0  0  0  0  0  0  0  0
  -26.0130  -11.6620   20.4050 N   0  0  0  0  0  0  0  0  0  0  0  0
  -24.0130  -10.4440   20.9720 C   0  0  0  0  0  0  0  0  0  0  0  0
  -24.4560   -9.4770   21.9010 C   0  0  0  0  0  3  0  0  0  0  0  0
  -23.7320   -8.2810   22.0880 C   0  0  0  0  0  3  0  0  0  0  0  0
  -22.5510   -8.0420   21.3450 C   0  0  0  0  0  0  0  0  0  0  0  0
  -22.1280   -8.9980   20.4040 C   0  0  0  0  0  3  0  0  0  0  0  0
  -22.8530  -10.1860   20.2160 C   0  0  0  0  0  3  0  0  0  0  0  0
  -21.7970   -6.8970   21.4400 O   0  0  0  0  0  0  0  0  0  0  0  0
  -21.7180   -6.1830   22.6090 C   0  0  0  0  0  0  0  0  0  0  0  0
  -21.2600   -6.7680   23.8090 C   0  0  0  0  0  3  0  0  0  0  0  0
  -21.1290   -5.9800   24.9710 C   0  0  0  0  0  3  0  0  0  0  0  0
  -21.4460   -4.6090   24.9320 C   0  0  0  0  0  0  0  0  0  0  0  0
  -21.8960   -4.0240   23.7350 C   0  0  0  0  0  3  0  0  0  0  0  0
  -22.0290   -4.8080   22.5760 C   0  0  0  0  0  0  0  0  0  0  0  0
  -22.4440   -4.2360   21.4210 F   0  0  0  0  0  0  0  0  0  0  0  0
  -21.3120   -3.8500   26.0440 F   0  0  0  0  0  0  0  0  0  0  0  0
  -22.9120  -13.5410   21.1990 C   0  0  0  0  0  0  0  0  0  0  0  0
  -22.2230  -12.8360   22.0900 N   0  0  0  0  0  0  0  0  0  0  0  0
  -22.4540  -14.5750   20.7160 O   0  0  0  0  0  0  0  0  0  0  0  0
  -22.6070  -11.9980   22.5010 H   0  0  0  0  0  0  0  0  0  0  0  0
  -21.2990  -13.1380   22.3650 H   0  0  0  0  0  0  0  0  0  0  0  0
  -25.5150  -15.2030   20.2890 N   0  0  0  0  0  0  0  0  0  0  0  0
  -24.7570  -15.8590   20.4440 H   0  0  0  0  0  0  0  0  0  0  0  0
  -26.3490  -15.6400   19.9220 H   0  0  0  0  0  0  0  0  0  0  0  0
  1  2  2  0
  1  4  1  0
  2  6  1  0
  3  5  1  0
  4  3  2  0
  5  7  1  0
  6  8  1  0
  6  5  2  0
  8 10  1  0
  9 20  2  0
 10 15  1  0
 11 19  1  0
 11 21  1  0
 12 18  1  0
 12 14  1  0
 13 19  1  0
 14 13  1  0
 15 14  2  0
 16 17  1  0
 16 10  2  0
 17 12  2  0
 18 11  1  0
 19  9  1  0
 21 23  2  0
 22 21  1  0
 24 22  1  0
 25 34  2  0
 25 30  1  0
 26 22  1  0
 26 30  1  0
 27 26  1  0
 28 29  1  0
 28 27  1  0
 29 25  1  0
 30 31  2  0
 31 32  1  0
 33 32  2  0
 34 33  1  0
 35  9  1  0
 35 40  1  0
 35 36  1  0
 36 39  1  1
 36 37  1  0
 38 36  1  0
 40 43  1  0
 41 45  1  0
 41 40  1  0
 42 41  2  0
 45 44  1  0
 47 45  1  0
 47 48  1  0
 47 46  1  0
 49  4  1  0
 50 49  1  0
 50 56  1  0
 52 55  1  0
 53 51  1  0
 54 52  1  0
 54 56  1  0
 55 66  1  0
 55 51  1  0
 56 57  1  6
 56 53  1  0
 58 66  1  0
 59 64  1  0
 60 61  1  0
 60 59  1  0
 62 61  1  0
 62 71  1  0
 62 63  1  0
 64 58  1  0
 64 63  1  0
 65 58  2  0
 66 67  1  0
 68 69  2  0
 69 88  1  0
 70 69  1  0
 70 73  1  0
 71 72  1  0
 71 68  1  0
 72 70  2  0
 73 74  1  0
 74 75  2  0
 76 79  1  0
 76 75  1  0
 77 76  2  0
 78 77  1  0
 78 73  2  0
 79 80  1  0
 80 81  1  0
 81 82  2  0
 83 82  1  0
 83 87  1  0
 84 83  2  0
 85 80  2  0
 85 84  1  0
 86 85  1  0
 88 89  1  0
 89 92  1  0
 89 91  1  0
 90 88  2  0
 93 94  1  0
 93 68  1  0
 95 93  1  0
M  ISO  4   6 101   8 101  58 100  66 100
M  END
>  <TORSDO>  (91) 
F 19

>  <SCORE>  (91) 
-14.098

>  <name>  (91) 
90

>  <ligand_id>  (91) 
90

>  <original_smiles>  (91) 
[H]c1c([H])c([H])c2c(c1[H])C([H])([H])C([H])([H])C([H])([H])C2([H])N([H])C(=O)C1([H])N(C(=O)C([H])(N([H])C(=O)C([H])(N([H])C([H])([H])[H])C([H])([H])[H])C(C([H])([H])[H])(C([H])([H])[H])C([H])([H])[H])C([H])([H])c2c([H])c(Oc3c([H])c([H])c(C([H])([H])C([H])([H])C4(C([H])([H])[H])C([H])([H])C([H])([H])C([H])(N([H])C(=O)N5C([H])([H])C([H])([H])C([H])([H])C([H])(n6nc(-c7c([H])c([H])c(Oc8c([H])c([H])c(F)c([H])c8F)c([H])c7[H])c(C(=O)N([H])[H])c6N([H])[H])C5([H])[H])C([H])([H])C4([H])[H])c([H])c3C([H])([H])[H])c([H])c([H])c2C1([H])[H]

>  <smiles>  (91) 
[H]c1c([H])c([H])c2c(c1[H])C([H])([H])C([H])([H])C([H])([H])C2([H])N([H])C(=O)C1([H])N(C(=O)C([H])(N([H])C(=O)C([H])(N([H])C([H])([H])[H])C([H])([H])[H])C(C([H])([H])[H])(C([H])([H])[H])C([H])([H])[H])C([H])([H])c2c([H])c(Oc3c([H])c([H])c(C([H])([H])C([H])([H])C4(C([H])([H])[H])C([H])([H])C([H])([H])C([H])(N([H])C(=O)N5C([H])([H])C([H])([H])C([H])([H])C([H])(n6nc(-c7c([H])c([H])c(Oc8c([H])c([H])c(F)c([H])c8F)c([H])c7[H])c(C(=O)N([H])[H])c6N([H])[H])C5([H])[H])C([H])([H])C4([H])[H])c([H])c3C([H])([H])[H])c([H])c([H])c2C1([H])[H]

$$$$
91:0:0
     RDKit          3D

 93101  0  0  1  0  0  0  0  0999 V2000
  -29.3120  -24.7860   22.9970 C   0  0  0  0  0  3  0  0  0  0  0  0
  -29.5110  -23.4180   20.9780 C   0  0  0  0  0  0  0  0  0  0  0  0
  -28.8700  -25.8850   22.2350 C   0  0  0  0  0  0  0  0  0  0  0  0
  -28.7330  -25.7560   20.8300 C   0  0  0  0  0  0  0  0  0  0  0  0
  -29.6490  -23.5720   22.3730 C   0  0  0  0  0  0  0  0  0  0  0  0
  -29.0510  -24.5210   20.2130 C   0  0  0  0  0  0  0  0  0  0  0  0
  -30.1550  -22.5700   23.1340 F   0  0  0  0  0  0  0  0  0  0  0  0
  -28.9720  -24.4180   18.8620 F   0  0  0  0  0  0  0  0  0  0  0  0
  -28.6360  -27.0750   22.8700 O   0  0  0  0  0  0  0  0  0  0  0  0
  -28.7880  -27.0400   23.8070 H   0  0  0  0  0  0  0  0  0  0  0  0
  -28.4400  -26.8360   20.0250 O   0  0  0  0  0  0  0  0  0  0  0  0
  -24.5710  -31.9040   23.2150 C   0  0  0  0  0  0  0  0  0  0  0  0
  -27.2380  -27.4950   20.1300 C   0  0  0  0  0  0  0  0  0  0  0  0
  -23.3620  -30.4850   21.5870 C   0  0  0  0  0  3  0  0  0  0  0  0
  -24.8160  -28.9460   20.1640 C   0  0  0  0  0  0  0  0  0  0  0  0
  -25.8790  -30.8710   21.3640 C   0  0  0  0  0  2  0  0  0  0  0  0
  -25.9710  -29.4980   20.7330 C   0  0  0  0  0  0  0  0  0  0  0  0
  -27.1850  -28.7810   20.7080 C   0  0  0  0  0  3  0  0  0  0  0  0
  -26.0710  -26.9440   19.5640 C   0  0  0  0  0  3  0  0  0  0  0  0
  -24.8590  -27.6660   19.5780 C   0  0  0  0  0  3  0  0  0  0  0  0
  -23.5660  -29.7910   20.2110 C   0  0  0  0  0  2  0  0  0  0  0  0
  -24.6220  -31.1020   22.1140 N   0  0  0  0  0  0  0  0  0  0  0  0
  -23.4940  -32.1700   23.7630 O   0  0  0  0  0  0  0  0  0  0  0  0
  -22.7260  -29.4650   22.5580 C   0  0  0  0  0  0  0  0  0  0  0  0
  -21.4010  -29.2800   22.4430 N   0  0  0  0  0  0  0  0  0  0  0  0
  -23.4200  -28.8410   23.3650 O   0  0  0  0  0  0  0  0  0  0  0  0
  -20.9010  -29.8340   21.7620 H   0  0  0  0  0  0  0  0  0  0  0  0
  -18.0370  -28.0720   22.9670 C   0  0  0  0  0  0  0  0  0  0  0  0
  -20.5950  -28.3410   23.2220 C   0  0  0  0  0  3  0  0  0  0  0  0
  -20.7000  -26.9080   22.6490 C   0  0  0  0  0  2  0  0  0  0  0  0
  -19.5930  -26.5780   21.6430 C   0  0  0  0  0  2  0  0  0  0  0  0
  -18.2150  -26.7200   22.2950 C   0  0  0  0  0  2  0  0  0  0  0  0
  -19.1550  -28.8390   23.3890 C   0  0  0  0  0  0  0  0  0  0  0  0
  -18.9350  -30.1060   23.9740 C   0  0  0  0  0  3  0  0  0  0  0  0
  -17.6290  -30.6030   24.1450 C   0  0  0  0  0  3  0  0  0  0  0  0
  -16.5250  -29.8310   23.7420 C   0  0  0  0  0  3  0  0  0  0  0  0
  -16.7310  -28.5680   23.1570 C   0  0  0  0  0  3  0  0  0  0  0  0
  -25.8610  -32.5440   23.8240 C   0  0  0  0  0  3  0  0  0  0  0  0
  -25.5420  -33.9360   24.1690 N   0  0  0  0  0  0  0  0  0  0  0  0
  -25.8560  -34.9960   23.4140 C   0  0  0  0  0  0  0  0  0  0  0  0
  -26.5170  -34.9070   22.3750 O   0  0  0  0  0  0  0  0  0  0  0  0
  -24.9530  -34.0780   24.9760 H   0  0  0  0  0  0  0  0  0  0  0  0
  -24.1020  -36.7710   23.0960 C   0  0  0  0  0  1  0  0  0  0  0  0
  -25.3590  -36.3770   23.8880 C   0  0  0  0  0  3  0  0  0  0  0  0
  -27.4970  -37.2750   24.6940 C   0  0  0  0  0  1  0  0  0  0  0  0
  -26.3780  -37.4420   23.7690 N   0  0  0  0  0  0  0  0  0  0  0  0
  -25.9630  -38.3570   23.9340 H   0  0  0  0  0  0  0  0  0  0  0  0
  -26.4080  -31.7680   25.0840 C   0  0  1  0  0  0  0  0  0  0  0  0
  -25.3340  -31.5130   26.1660 C   0  0  0  0  0  1  0  0  0  0  0  0
  -27.0000  -30.4010   24.6700 C   0  0  0  0  0  1  0  0  0  0  0  0
  -27.5600  -32.5710   25.7330 C   0  0  0  0  0  1  0  0  0  0  0  0
  -29.9770  -22.1270   20.2990 C   0  0  0  0  0  2  0  0  0  0  0  0
  -29.3030  -20.8200   20.7880 C   0  0  0  0  0  2  0  0  0  0  0  0
  -30.0910  -19.5650   20.3600 C   0  0  0  0  0  2  0  0  0  0  0  0
  -29.6370  -18.2550   21.0350 C   0  0  0  0  0  2  0  0  0  0  0  0
  -30.4820  -17.0470   20.5740 C   0  0  0  0  0  2  0  0  0  0  0  0
  -30.0400  -15.6720   21.1400 C   0  0  0  0  0  2  0  0  0  0  0  0
  -30.6770  -14.4820   20.3810 C   0  0  0  0  0  0  0  0  0  0  0  0
  -30.3320  -12.3660   19.1580 C   0  0  0  0  0  2  0  0  0  0  0  0
  -29.3680  -12.6240   17.9800 C   0  0  0  0  0  2  0  0  0  0  0  0
  -27.9000  -12.4900   18.4350 C   0  0  0  0  0  2  0  0  0  0  0  0
  -27.5990  -13.2920   19.7300 C   0  0  0  0  0  3  0  0  0  0  0  0
  -28.6760  -13.0190   20.8060 C   0  0  0  0  0  2  0  0  0  0  0  0
  -29.9910  -13.3200   20.2220 N   0  0  0  0  0  0  0  0  0  0  0  0
  -31.7740  -14.6690   19.8430 O   0  0  0  0  0  0  0  0  0  0  0  0
  -25.2090  -13.9050   20.4690 C   0  0  0  0  0  0  0  0  0  0  0  0
  -24.1450  -13.1340   20.8560 C   0  0  0  0  0  0  0  0  0  0  0  0
  -24.6050  -11.7820   20.8220 C   0  0  0  0  0  0  0  0  0  0  0  0
  -26.2510  -13.0230   20.2260 N   0  0  0  0  0  0  0  0  0  0  0  0
  -25.8890  -11.7400   20.4920 N   0  0  0  0  0  0  0  0  0  0  0  0
  -23.8810  -10.5220   21.0280 C   0  0  0  0  0  0  0  0  0  0  0  0
  -24.3420   -9.5450   21.9380 C   0  0  0  0  0  3  0  0  0  0  0  0
  -23.6180   -8.3490   22.1350 C   0  0  0  0  0  3  0  0  0  0  0  0
  -22.4190   -8.1210   21.4190 C   0  0  0  0  0  0  0  0  0  0  0  0
  -21.9740   -9.0880   20.4990 C   0  0  0  0  0  3  0  0  0  0  0  0
  -22.7000  -10.2750   20.3010 C   0  0  0  0  0  3  0  0  0  0  0  0
  -21.6640   -6.9790   21.5250 O   0  0  0  0  0  0  0  0  0  0  0  0
  -21.6700   -6.2140   22.6640 C   0  0  0  0  0  0  0  0  0  0  0  0
  -21.3330   -6.7550   23.9240 C   0  0  0  0  0  3  0  0  0  0  0  0
  -21.2820   -5.9200   25.0570 C   0  0  0  0  0  3  0  0  0  0  0  0
  -21.5570   -4.5440   24.9330 C   0  0  0  0  0  0  0  0  0  0  0  0
  -21.8870   -4.0030   23.6780 C   0  0  0  0  0  3  0  0  0  0  0  0
  -21.9390   -4.8360   22.5470 C   0  0  0  0  0  0  0  0  0  0  0  0
  -22.2360   -4.3040   21.3350 F   0  0  0  0  0  0  0  0  0  0  0  0
  -21.5000   -3.7400   26.0200 F   0  0  0  0  0  0  0  0  0  0  0  0
  -22.7530  -13.6140   21.1500 C   0  0  0  0  0  0  0  0  0  0  0  0
  -22.0400  -12.9270   22.0360 N   0  0  0  0  0  0  0  0  0  0  0  0
  -22.3060  -14.6360   20.6310 O   0  0  0  0  0  0  0  0  0  0  0  0
  -22.4160  -12.1030   22.4810 H   0  0  0  0  0  0  0  0  0  0  0  0
  -21.1060  -13.2310   22.2740 H   0  0  0  0  0  0  0  0  0  0  0  0
  -25.3690  -15.2770   20.2900 N   0  0  0  0  0  0  0  0  0  0  0  0
  -24.6010  -15.9280   20.4110 H   0  0  0  0  0  0  0  0  0  0  0  0
  -26.2170  -15.7210   19.9600 H   0  0  0  0  0  0  0  0  0  0  0  0
  2  5  2  0
  3  9  1  0
  3  1  2  0
  4  3  1  0
  5  1  1  0
  5  7  1  0
  6  4  2  0
  6  2  1  0
  8  6  1  0
  9 10  1  0
 11 13  1  0
 11  4  1  0
 12 23  2  0
 13 18  1  0
 14 22  1  0
 14 24  1  0
 15 21  1  0
 15 17  1  0
 16 22  1  0
 17 16  1  0
 18 17  2  0
 19 20  1  0
 19 13  2  0
 20 15  2  0
 21 14  1  0
 22 12  1  0
 24 26  2  0
 25 24  1  0
 27 25  1  0
 28 37  2  0
 28 33  1  0
 29 25  1  0
 29 33  1  0
 30 29  1  0
 31 32  1  0
 31 30  1  0
 32 28  1  0
 33 34  2  0
 34 35  1  0
 36 35  2  0
 37 36  1  0
 38 12  1  0
 38 39  1  0
 38 48  1  0
 39 42  1  0
 40 44  1  0
 40 39  1  0
 41 40  2  0
 44 43  1  0
 46 44  1  0
 46 47  1  0
 46 45  1  0
 48 51  1  1
 48 49  1  0
 50 48  1  0
 52 53  1  0
 52  2  1  0
 54 53  1  0
 54 55  1  0
 56 55  1  0
 56 57  1  0
 58 57  1  0
 59 64  1  0
 60 61  1  0
 60 59  1  0
 62 61  1  0
 62 69  1  0
 62 63  1  0
 64 58  1  0
 64 63  1  0
 65 58  2  0
 66 67  2  0
 67 86  1  0
 68 67  1  0
 68 71  1  0
 69 66  1  0
 69 70  1  0
 70 68  2  0
 71 72  1  0
 72 73  2  0
 74 77  1  0
 74 73  1  0
 75 74  2  0
 76 75  1  0
 76 71  2  0
 77 78  1  0
 78 79  1  0
 79 80  2  0
 81 80  1  0
 81 85  1  0
 82 81  2  0
 83 78  2  0
 83 82  1  0
 84 83  1  0
 86 87  1  0
 87 90  1  0
 87 89  1  0
 88 86  2  0
 91 92  1  0
 91 66  1  0
 93 91  1  0
M  ISO  4   4 101  11 101  57 100  58 100
M  END
>  <TORSDO>  (92) 
F 23

>  <SCORE>  (92) 
-13.149

>  <name>  (92) 
91

>  <ligand_id>  (92) 
91

>  <original_smiles>  (92) 
[H]Oc1c([H])c(F)c(C([H])([H])C([H])([H])C([H])([H])C([H])([H])C([H])([H])C([H])([H])C(=O)N2C([H])([H])C([H])([H])C([H])([H])C([H])(n3nc(-c4c([H])c([H])c(Oc5c([H])c([H])c(F)c([H])c5F)c([H])c4[H])c(C(=O)N([H])[H])c3N([H])[H])C2([H])[H])c(F)c1Oc1c([H])c([H])c2c(c1[H])C([H])([H])N(C(=O)C([H])(N([H])C(=O)C([H])(N([H])C([H])([H])[H])C([H])([H])[H])C(C([H])([H])[H])(C([H])([H])[H])C([H])([H])[H])C([H])(C(=O)N([H])C1([H])c3c([H])c([H])c([H])c([H])c3C([H])([H])C([H])([H])C1([H])[H])C2([H])[H]

>  <smiles>  (92) 
[H]Oc1c([H])c(F)c(C([H])([H])C([H])([H])C([H])([H])C([H])([H])C([H])([H])C([H])([H])C(=O)N2C([H])([H])C([H])([H])C([H])([H])C([H])(n3nc(-c4c([H])c([H])c(Oc5c([H])c([H])c(F)c([H])c5F)c([H])c4[H])c(C(=O)N([H])[H])c3N([H])[H])C2([H])[H])c(F)c1Oc1c([H])c([H])c2c(c1[H])C([H])([H])N(C(=O)C([H])(N([H])C(=O)C([H])(N([H])C([H])([H])[H])C([H])([H])[H])C(C([H])([H])[H])(C([H])([H])[H])C([H])([H])[H])C([H])(C(=O)N([H])C1([H])c3c([H])c([H])c([H])c([H])c3C([H])([H])C([H])([H])C1([H])[H])C2([H])[H]

$$$$
92:0:0
     RDKit          3D

 89 97  0  0  1  0  0  0  0  0999 V2000
  -29.5260  -18.1830   19.7600 C   0  0  0  0  0  3  0  0  0  0  0  0
  -30.0500  -19.7370   21.5280 C   0  0  0  0  0  3  0  0  0  0  0  0
  -30.1940  -16.9510   20.4080 C   0  0  0  0  0  0  0  0  0  0  0  0
  -29.3850  -19.6270   20.2940 C   0  0  0  0  0  0  0  0  0  0  0  0
  -30.8090  -17.3300   21.6430 C   0  0  0  0  0  0  0  0  0  0  0  0
  -30.7560  -18.6690   22.1530 C   0  0  0  0  0  0  0  0  0  0  0  0
  -31.6760  -16.3080   22.3920 C   0  0  0  0  0  1  0  0  0  0  0  0
  -30.6380  -15.4380   19.8230 C   0  0  0  0  0  0  0  0  0  0  0  0
  -30.4780  -13.0000   18.9830 C   0  0  0  0  0  2  0  0  0  0  0  0
  -29.5370  -12.9070   17.7550 C   0  0  0  0  0  2  0  0  0  0  0  0
  -28.0810  -12.6980   18.2070 C   0  0  0  0  0  2  0  0  0  0  0  0
  -27.7100  -13.5930   19.4270 C   0  0  0  0  0  3  0  0  0  0  0  0
  -28.8000  -13.6660   20.5190 C   0  0  0  0  0  2  0  0  0  0  0  0
  -30.0330  -14.1450   19.8680 N   0  0  0  0  0  0  0  0  0  0  0  0
  -31.7680  -15.3930   19.3170 O   0  0  0  0  0  0  0  0  0  0  0  0
  -25.3800  -14.1610   20.2760 C   0  0  0  0  0  0  0  0  0  0  0  0
  -24.3290  -13.3930   20.6960 C   0  0  0  0  0  0  0  0  0  0  0  0
  -24.7750  -12.0390   20.6130 C   0  0  0  0  0  0  0  0  0  0  0  0
  -26.3970  -13.2780   19.9720 N   0  0  0  0  0  0  0  0  0  0  0  0
  -26.0530  -11.9940   20.2390 N   0  0  0  0  0  0  0  0  0  0  0  0
  -24.0360  -10.7860   20.8220 C   0  0  0  0  0  0  0  0  0  0  0  0
  -24.4640   -9.8330   21.7730 C   0  0  0  0  0  3  0  0  0  0  0  0
  -23.7350   -8.6400   21.9750 C   0  0  0  0  0  3  0  0  0  0  0  0
  -22.5520   -8.3990   21.2390 C   0  0  0  0  0  0  0  0  0  0  0  0
  -22.1400   -9.3410   20.2800 C   0  0  0  0  0  3  0  0  0  0  0  0
  -22.8690  -10.5250   20.0720 C   0  0  0  0  0  3  0  0  0  0  0  0
  -21.7890   -7.2600   21.3540 O   0  0  0  0  0  0  0  0  0  0  0  0
  -21.6950   -6.5710   22.5360 C   0  0  0  0  0  0  0  0  0  0  0  0
  -21.2180   -7.1730   23.7210 C   0  0  0  0  0  3  0  0  0  0  0  0
  -21.0810   -6.4040   24.8950 C   0  0  0  0  0  3  0  0  0  0  0  0
  -21.4030   -5.0340   24.8800 C   0  0  0  0  0  0  0  0  0  0  0  0
  -21.8700   -4.4310   23.7000 C   0  0  0  0  0  3  0  0  0  0  0  0
  -22.0160   -5.1980   22.5310 C   0  0  0  0  0  0  0  0  0  0  0  0
  -22.4460   -4.6070   21.3890 F   0  0  0  0  0  0  0  0  0  0  0  0
  -21.2640   -4.2930   26.0050 F   0  0  0  0  0  0  0  0  0  0  0  0
  -22.9550  -13.8860   21.0430 C   0  0  0  0  0  0  0  0  0  0  0  0
  -22.2560  -13.1940   21.9360 N   0  0  0  0  0  0  0  0  0  0  0  0
  -22.5080  -14.9180   20.5460 O   0  0  0  0  0  0  0  0  0  0  0  0
  -22.6370  -12.3680   22.3760 H   0  0  0  0  0  0  0  0  0  0  0  0
  -21.3260  -13.4990   22.1870 H   0  0  0  0  0  0  0  0  0  0  0  0
  -25.5480  -15.5310   20.1040 N   0  0  0  0  0  0  0  0  0  0  0  0
  -24.7910  -16.1820   20.2650 H   0  0  0  0  0  0  0  0  0  0  0  0
  -26.3880  -15.9690   19.7450 H   0  0  0  0  0  0  0  0  0  0  0  0
  -32.3730  -20.1010   23.0860 C   0  0  0  0  0  1  0  0  0  0  0  0
  -31.4970  -18.9820   23.2670 O   0  0  0  0  0  0  0  0  0  0  0  0
  -28.5640  -21.0730   19.7340 C   0  0  0  0  0  2  0  0  0  0  0  0
  -28.7640  -22.8410   20.0600 C   0  0  0  0  0  3  0  0  0  0  0  0
  -27.8360  -24.3360   19.6170 C   0  0  0  0  0  3  0  0  0  0  0  0
  -28.0490  -25.9660   19.7810 O   0  0  0  0  0  0  0  0  0  0  0  0
  -24.5960  -31.8380   23.0340 C   0  0  0  0  0  0  0  0  0  0  0  0
  -27.0220  -27.0480   19.7720 C   0  0  0  0  0  0  0  0  0  0  0  0
  -23.3320  -30.4630   21.4290 C   0  0  0  0  0  3  0  0  0  0  0  0
  -24.7160  -28.9160   19.8840 C   0  0  0  0  0  0  0  0  0  0  0  0
  -25.8780  -30.7050   21.1570 C   0  0  0  0  0  2  0  0  0  0  0  0
  -25.9250  -29.3110   20.4650 C   0  0  0  0  0  0  0  0  0  0  0  0
  -27.0690  -28.3940   20.3890 C   0  0  0  0  0  3  0  0  0  0  0  0
  -25.7760  -26.8030   19.1580 C   0  0  0  0  0  3  0  0  0  0  0  0
  -24.6670  -27.6840   19.2070 C   0  0  0  0  0  3  0  0  0  0  0  0
  -23.4920  -29.8190   20.0240 C   0  0  0  0  0  2  0  0  0  0  0  0
  -24.6270  -31.0260   21.9300 N   0  0  0  0  0  0  0  0  0  0  0  0
  -23.5340  -32.1040   23.6210 O   0  0  0  0  0  0  0  0  0  0  0  0
  -22.6990  -29.4390   22.4060 C   0  0  0  0  0  0  0  0  0  0  0  0
  -21.3700  -29.2540   22.3490 N   0  0  0  0  0  0  0  0  0  0  0  0
  -23.4110  -28.8090   23.1940 O   0  0  0  0  0  0  0  0  0  0  0  0
  -20.8420  -29.8090   21.6900 H   0  0  0  0  0  0  0  0  0  0  0  0
  -18.0490  -27.9370   22.9780 C   0  0  0  0  0  0  0  0  0  0  0  0
  -20.6080  -28.2870   23.1430 C   0  0  0  0  0  3  0  0  0  0  0  0
  -20.7330  -26.8630   22.5550 C   0  0  0  0  0  2  0  0  0  0  0  0
  -19.6050  -26.5100   21.5810 C   0  0  0  0  0  2  0  0  0  0  0  0
  -18.2460  -26.6020   22.2780 C   0  0  0  0  0  2  0  0  0  0  0  0
  -19.1580  -28.7340   23.3720 C   0  0  0  0  0  0  0  0  0  0  0  0
  -18.9200  -29.9740   24.0020 C   0  0  0  0  0  3  0  0  0  0  0  0
  -17.6070  -30.4330   24.2230 C   0  0  0  0  0  3  0  0  0  0  0  0
  -16.5140  -29.6370   23.8420 C   0  0  0  0  0  3  0  0  0  0  0  0
  -16.7360  -28.3880   23.2350 C   0  0  0  0  0  3  0  0  0  0  0  0
  -25.8910  -32.4880   23.6150 C   0  0  0  0  0  3  0  0  0  0  0  0
  -26.4810  -31.7010   24.8500 C   0  0  1  0  0  0  0  0  0  0  0  0
  -25.4500  -31.4340   25.9710 C   0  0  0  0  0  1  0  0  0  0  0  0
  -27.0500  -30.3340   24.4140 C   0  0  0  0  0  1  0  0  0  0  0  0
  -27.6670  -32.4860   25.4600 C   0  0  0  0  0  1  0  0  0  0  0  0
  -25.5720  -33.8700   24.0070 N   0  0  0  0  0  0  0  0  0  0  0  0
  -25.8950  -34.9630   23.2990 C   0  0  0  0  0  0  0  0  0  0  0  0
  -26.5450  -34.9090   22.2550 O   0  0  0  0  0  0  0  0  0  0  0  0
  -25.0020  -33.9870   24.8320 H   0  0  0  0  0  0  0  0  0  0  0  0
  -24.1650  -36.7740   23.0530 C   0  0  0  0  0  1  0  0  0  0  0  0
  -25.4110  -36.3280   23.8330 C   0  0  0  0  0  3  0  0  0  0  0  0
  -27.5450  -37.1750   24.7000 C   0  0  0  0  0  1  0  0  0  0  0  0
  -26.4430  -37.3860   23.7690 N   0  0  0  0  0  0  0  0  0  0  0  0
  -26.0340  -38.2980   23.9630 H   0  0  0  0  0  0  0  0  0  0  0  0
  1  4  2  0
  1  3  1  0
  2  6  2  0
  3  5  2  0
  4  2  1  0
  5  6  1  0
  5  7  1  0
  6 45  1  0
  8 14  1  0
  8  3  1  0
  9 14  1  0
 10 11  1  0
 10  9  1  0
 12 11  1  0
 12 19  1  0
 12 13  1  0
 14 13  1  0
 15  8  2  0
 16 17  2  0
 17 36  1  0
 18 17  1  0
 18 21  1  0
 19 20  1  0
 19 16  1  0
 20 18  2  0
 21 22  1  0
 22 23  2  0
 24 27  1  0
 24 23  1  0
 25 24  2  0
 26 25  1  0
 26 21  2  0
 27 28  1  0
 28 29  1  0
 29 30  2  0
 31 30  1  0
 31 35  1  0
 32 31  2  0
 33 28  2  0
 33 32  1  0
 34 33  1  0
 36 37  1  0
 37 40  1  0
 37 39  1  0
 38 36  2  0
 41 42  1  0
 41 16  1  0
 43 41  1  0
 44 45  1  0
 46 47  1  0
 46  4  1  0
 48 49  1  0
 48 47  2  0
 50 61  2  0
 51 49  1  0
 51 56  1  0
 52 60  1  0
 52 62  1  0
 53 59  1  0
 53 55  1  0
 54 60  1  0
 55 54  1  0
 56 55  2  0
 57 58  1  0
 57 51  2  0
 58 53  2  0
 59 52  1  0
 60 50  1  0
 62 64  2  0
 63 62  1  0
 65 63  1  0
 66 75  2  0
 66 71  1  0
 67 63  1  0
 67 71  1  0
 68 67  1  0
 69 70  1  0
 69 68  1  0
 70 66  1  0
 71 72  2  0
 72 73  1  0
 74 73  2  0
 75 74  1  0
 76 50  1  0
 76 81  1  0
 76 77  1  0
 77 80  1  1
 77 78  1  0
 79 77  1  0
 81 84  1  0
 82 86  1  0
 82 81  1  0
 83 82  2  0
 86 85  1  0
 88 86  1  0
 88 89  1  0
 88 87  1  0
M  ISO  4   3 100   8 100  48 101  49 101
M  END
>  <TORSDO>  (93) 
F 20

>  <SCORE>  (93) 
-13.782

>  <name>  (93) 
92

>  <ligand_id>  (93) 
92

>  <original_smiles>  (93) 
[H]c1c([H])c([H])c2c(c1[H])C([H])([H])C([H])([H])C([H])([H])C2([H])N([H])C(=O)C1([H])N(C(=O)C([H])(N([H])C(=O)C([H])(N([H])C([H])([H])[H])C([H])([H])[H])C(C([H])([H])[H])(C([H])([H])[H])C([H])([H])[H])C([H])([H])c2c([H])c(OC([H])([H])C([H])([H])C([H])([H])c3c([H])c(OC([H])([H])[H])c(C([H])([H])[H])c(C(=O)N4C([H])([H])C([H])([H])C([H])([H])C([H])(n5nc(-c6c([H])c([H])c(Oc7c([H])c([H])c(F)c([H])c7F)c([H])c6[H])c(C(=O)N([H])[H])c5N([H])[H])C4([H])[H])c3[H])c([H])c([H])c2C1([H])[H]

>  <smiles>  (93) 
[H]c1c([H])c([H])c2c(c1[H])C([H])([H])C([H])([H])C([H])([H])C2([H])N([H])C(=O)C1([H])N(C(=O)C([H])(N([H])C(=O)C([H])(N([H])C([H])([H])[H])C([H])([H])[H])C(C([H])([H])[H])(C([H])([H])[H])C([H])([H])[H])C([H])([H])c2c([H])c(OC([H])([H])C([H])([H])C([H])([H])c3c([H])c(OC([H])([H])[H])c(C([H])([H])[H])c(C(=O)N4C([H])([H])C([H])([H])C([H])([H])C([H])(n5nc(-c6c([H])c([H])c(Oc7c([H])c([H])c(F)c([H])c7F)c([H])c6[H])c(C(=O)N([H])[H])c5N([H])[H])C4([H])[H])c3[H])c([H])c([H])c2C1([H])[H]

$$$$
93:0:0
     RDKit          3D

 93101  0  0  1  0  0  0  0  0999 V2000
  -27.9530  -25.2270   18.3110 C   0  0  0  0  0  3  0  0  0  0  0  0
  -27.2120  -24.3240   17.5450 C   0  0  0  0  0  0  0  0  0  0  0  0
  -27.4580  -22.6730   19.3170 C   0  0  0  0  0  0  0  0  0  0  0  0
  -28.3950  -23.4870   20.0310 C   0  0  0  0  0  0  0  0  0  0  0  0
  -28.3660  -24.9750   19.6430 C   0  0  0  0  0  0  0  0  0  0  0  0
  -26.8930  -23.0760   18.0870 C   0  0  0  0  0  0  0  0  0  0  0  0
  -26.6700  -24.7560   16.1930 C   0  0  0  0  0  1  0  0  0  0  0  0
  -27.0190  -21.3140   19.8370 C   0  0  0  0  0  1  0  0  0  0  0  0
  -26.7000  -21.1940   16.7140 C   0  0  0  0  0  1  0  0  0  0  0  0
  -26.0410  -22.2480   17.4020 O   0  0  0  0  0  0  0  0  0  0  0  0
  -28.5970  -26.2880   20.2790 O   0  0  0  0  0  0  0  0  0  0  0  0
  -25.0700  -31.9200   23.6550 C   0  0  0  0  0  0  0  0  0  0  0  0
  -27.5850  -27.3470   20.3090 C   0  0  0  0  0  0  0  0  0  0  0  0
  -23.8670  -30.6690   21.9120 C   0  0  0  0  0  3  0  0  0  0  0  0
  -25.2990  -29.1770   20.3990 C   0  0  0  0  0  0  0  0  0  0  0  0
  -26.4350  -30.8860   21.7930 C   0  0  0  0  0  2  0  0  0  0  0  0
  -26.4900  -29.5410   21.0400 C   0  0  0  0  0  0  0  0  0  0  0  0
  -27.6360  -28.6480   20.9740 C   0  0  0  0  0  3  0  0  0  0  0  0
  -26.3350  -27.0860   19.6940 C   0  0  0  0  0  3  0  0  0  0  0  0
  -25.2360  -27.9630   19.7130 C   0  0  0  0  0  3  0  0  0  0  0  0
  -24.0940  -30.0970   20.4930 C   0  0  0  0  0  2  0  0  0  0  0  0
  -25.1450  -31.1750   22.5100 N   0  0  0  0  0  0  0  0  0  0  0  0
  -23.9810  -32.1880   24.1870 O   0  0  0  0  0  0  0  0  0  0  0  0
  -23.1560  -29.6070   22.7890 C   0  0  0  0  0  0  0  0  0  0  0  0
  -21.8350  -29.4330   22.5950 N   0  0  0  0  0  0  0  0  0  0  0  0
  -23.7960  -28.9470   23.6100 O   0  0  0  0  0  0  0  0  0  0  0  0
  -21.3760  -30.0190   21.9130 H   0  0  0  0  0  0  0  0  0  0  0  0
  -18.4590  -28.1360   22.8430 C   0  0  0  0  0  0  0  0  0  0  0  0
  -20.9890  -28.4530   23.2830 C   0  0  0  0  0  3  0  0  0  0  0  0
  -21.1640  -27.0420   22.6740 C   0  0  0  0  0  2  0  0  0  0  0  0
  -20.1380  -26.7250   21.5810 C   0  0  0  0  0  2  0  0  0  0  0  0
  -18.7140  -26.8140   22.1380 C   0  0  0  0  0  2  0  0  0  0  0  0
  -19.5270  -28.9130   23.3670 C   0  0  0  0  0  0  0  0  0  0  0  0
  -19.2350  -30.1480   23.9840 C   0  0  0  0  0  3  0  0  0  0  0  0
  -17.9090  -30.6090   24.0820 C   0  0  0  0  0  3  0  0  0  0  0  0
  -16.8550  -29.8300   23.5740 C   0  0  0  0  0  3  0  0  0  0  0  0
  -17.1310  -28.5940   22.9620 C   0  0  0  0  0  3  0  0  0  0  0  0
  -26.3480  -32.4900   24.3410 C   0  0  0  0  0  3  0  0  0  0  0  0
  -26.0350  -33.8450   24.8200 N   0  0  0  0  0  0  0  0  0  0  0  0
  -26.4010  -34.9770   24.2020 C   0  0  0  0  0  0  0  0  0  0  0  0
  -27.1020  -34.9850   23.1870 O   0  0  0  0  0  0  0  0  0  0  0  0
  -25.4160  -33.9100   25.6140 H   0  0  0  0  0  0  0  0  0  0  0  0
  -24.7120  -36.8340   24.0000 C   0  0  0  0  0  1  0  0  0  0  0  0
  -25.9140  -36.3110   24.8050 C   0  0  0  0  0  3  0  0  0  0  0  0
  -28.0260  -37.0500   25.8210 C   0  0  0  0  0  1  0  0  0  0  0  0
  -26.9660  -37.3500   24.8600 N   0  0  0  0  0  0  0  0  0  0  0  0
  -26.5670  -38.2530   25.1030 H   0  0  0  0  0  0  0  0  0  0  0  0
  -26.8610  -31.5890   25.5320 C   0  0  1  0  0  0  0  0  0  0  0  0
  -25.7660  -31.2490   26.5700 C   0  0  0  0  0  1  0  0  0  0  0  0
  -27.4400  -30.2570   25.0060 C   0  0  0  0  0  1  0  0  0  0  0  0
  -28.0130  -32.3080   26.2730 C   0  0  0  0  0  1  0  0  0  0  0  0
  -29.4950  -22.5760   20.8680 C   0  0  0  0  0  2  0  0  0  0  0  0
  -29.5760  -20.9140   21.3640 C   0  0  0  0  0  2  0  0  0  0  0  0
  -29.7380  -19.3760   20.6310 C   0  0  0  0  0  2  0  0  0  0  0  0
  -30.4320  -17.9860   21.3410 C   0  0  0  0  0  2  0  0  0  0  0  0
  -30.9020  -15.2450   21.0320 C   0  0  0  0  0  0  0  0  0  0  0  0
  -30.8680  -12.8680   20.1240 C   0  0  0  0  0  2  0  0  0  0  0  0
  -30.0600  -12.7770   18.8080 C   0  0  0  0  0  2  0  0  0  0  0  0
  -28.5630  -12.5700   19.1040 C   0  0  0  0  0  2  0  0  0  0  0  0
  -28.0400  -13.5350   20.1990 C   0  0  0  0  0  3  0  0  0  0  0  0
  -28.9770  -13.5880   21.4230 C   0  0  0  0  0  2  0  0  0  0  0  0
  -30.3000  -13.9890   20.9250 N   0  0  0  0  0  0  0  0  0  0  0  0
  -32.1330  -15.2820   20.9340 O   0  0  0  0  0  0  0  0  0  0  0  0
  -30.1260  -16.4480   21.0470 N   0  0  0  0  0  0  0  0  0  0  0  0
  -29.1370  -16.2510   20.9890 H   0  0  0  0  0  0  0  0  0  0  0  0
  -25.6040  -14.1420   20.6860 C   0  0  0  0  0  0  0  0  0  0  0  0
  -24.5020  -13.3810   20.9610 C   0  0  0  0  0  0  0  0  0  0  0  0
  -24.9570  -12.0280   21.0050 C   0  0  0  0  0  0  0  0  0  0  0  0
  -26.6580  -13.2540   20.5700 N   0  0  0  0  0  0  0  0  0  0  0  0
  -26.2730  -11.9770   20.8300 N   0  0  0  0  0  0  0  0  0  0  0  0
  -24.2040  -10.7730   21.1430 C   0  0  0  0  0  0  0  0  0  0  0  0
  -24.5390   -9.8140   22.1250 C   0  0  0  0  0  3  0  0  0  0  0  0
  -23.7860   -8.6270   22.2510 C   0  0  0  0  0  3  0  0  0  0  0  0
  -22.6850   -8.3900   21.3950 C   0  0  0  0  0  0  0  0  0  0  0  0
  -22.3700   -9.3370   20.4040 C   0  0  0  0  0  3  0  0  0  0  0  0
  -23.1230  -10.5160   20.2760 C   0  0  0  0  0  3  0  0  0  0  0  0
  -21.9140   -7.2540   21.4270 O   0  0  0  0  0  0  0  0  0  0  0  0
  -21.7490   -6.5280   22.5800 C   0  0  0  0  0  0  0  0  0  0  0  0
  -21.2160   -7.1060   23.7530 C   0  0  0  0  0  3  0  0  0  0  0  0
  -20.9970   -6.3080   24.8930 C   0  0  0  0  0  3  0  0  0  0  0  0
  -21.3020   -4.9340   24.8620 C   0  0  0  0  0  0  0  0  0  0  0  0
  -21.8260   -4.3560   23.6930 C   0  0  0  0  0  3  0  0  0  0  0  0
  -22.0460   -5.1510   22.5540 C   0  0  0  0  0  0  0  0  0  0  0  0
  -22.5330   -4.5840   21.4230 F   0  0  0  0  0  0  0  0  0  0  0  0
  -21.0840   -4.1660   25.9550 F   0  0  0  0  0  0  0  0  0  0  0  0
  -23.0880  -13.8720   21.0750 C   0  0  0  0  0  0  0  0  0  0  0  0
  -22.2700  -13.2050   21.8810 N   0  0  0  0  0  0  0  0  0  0  0  0
  -22.7140  -14.8850   20.4830 O   0  0  0  0  0  0  0  0  0  0  0  0
  -22.5830  -12.3870   22.3820 H   0  0  0  0  0  0  0  0  0  0  0  0
  -21.3160  -13.5190   22.0000 H   0  0  0  0  0  0  0  0  0  0  0  0
  -25.7930  -15.5090   20.4980 N   0  0  0  0  0  0  0  0  0  0  0  0
  -25.0170  -16.1620   20.5090 H   0  0  0  0  0  0  0  0  0  0  0  0
  -26.6630  -15.9350   20.2090 H   0  0  0  0  0  0  0  0  0  0  0  0
  1  5  1  0
  2  6  1  0
  2  1  2  0
  3  8  1  0
  3  4  1  0
  4 52  1  0
  5  4  2  0
  5 11  1  0
  6  3  2  0
  7  2  1  0
  9 10  1  0
 10  6  1  0
 11 13  1  0
 12 23  2  0
 13 18  1  0
 14 22  1  0
 14 24  1  0
 15 21  1  0
 15 17  1  0
 16 22  1  0
 17 16  1  0
 18 17  2  0
 19 20  1  0
 19 13  2  0
 20 15  2  0
 21 14  1  0
 22 12  1  0
 24 26  2  0
 25 24  1  0
 27 25  1  0
 28 37  2  0
 28 33  1  0
 29 25  1  0
 29 33  1  0
 30 29  1  0
 31 32  1  0
 31 30  1  0
 32 28  1  0
 33 34  2  0
 34 35  1  0
 36 35  2  0
 37 36  1  0
 38 12  1  0
 38 39  1  0
 38 48  1  0
 39 42  1  0
 40 44  1  0
 40 39  1  0
 41 40  2  0
 44 43  1  0
 44 46  1  0
 46 47  1  0
 46 45  1  0
 48 51  1  1
 48 49  1  0
 50 48  1  0
 52 53  1  0
 54 55  1  0
 54 53  1  0
 56 64  1  0
 57 62  1  0
 58 59  1  0
 58 57  1  0
 60 59  1  0
 60 69  1  0
 60 61  1  0
 62 56  1  0
 62 61  1  0
 63 56  2  0
 64 55  1  0
 65 64  1  0
 66 67  2  0
 67 68  1  0
 67 86  1  0
 68 71  1  0
 69 66  1  0
 69 70  1  0
 70 68  2  0
 71 72  1  0
 72 73  2  0
 74 77  1  0
 74 73  1  0
 75 74  2  0
 76 75  1  0
 76 71  2  0
 77 78  1  0
 78 79  1  0
 79 80  2  0
 81 80  1  0
 81 85  1  0
 82 81  2  0
 83 78  2  0
 83 82  1  0
 84 83  1  0
 86 87  1  0
 87 90  1  0
 87 89  1  0
 88 86  2  0
 91 92  1  0
 91 66  1  0
 93 91  1  0
M  ISO  4   5 101  11 101  56 100  64 100
M  END
>  <TORSDO>  (94) 
F 21

>  <SCORE>  (94) 
-12.181

>  <name>  (94) 
93

>  <ligand_id>  (94) 
93

>  <original_smiles>  (94) 
[H]c1c([H])c([H])c2c(c1[H])C([H])([H])C([H])([H])C([H])([H])C2([H])N([H])C(=O)C1([H])N(C(=O)C([H])(N([H])C(=O)C([H])(N([H])C([H])([H])[H])C([H])([H])[H])C(C([H])([H])[H])(C([H])([H])[H])C([H])([H])[H])C([H])([H])c2c([H])c(Oc3c([H])c(C([H])([H])[H])c(OC([H])([H])[H])c(C([H])([H])[H])c3C([H])([H])C([H])([H])C([H])([H])C([H])([H])N([H])C(=O)N3C([H])([H])C([H])([H])C([H])([H])C([H])(n4nc(-c5c([H])c([H])c(Oc6c([H])c([H])c(F)c([H])c6F)c([H])c5[H])c(C(=O)N([H])[H])c4N([H])[H])C3([H])[H])c([H])c([H])c2C1([H])[H]

>  <smiles>  (94) 
[H]c1c([H])c([H])c2c(c1[H])C([H])([H])C([H])([H])C([H])([H])C2([H])N([H])C(=O)C1([H])N(C(=O)C([H])(N([H])C(=O)C([H])(N([H])C([H])([H])[H])C([H])([H])[H])C(C([H])([H])[H])(C([H])([H])[H])C([H])([H])[H])C([H])([H])c2c([H])c(Oc3c([H])c(C([H])([H])[H])c(OC([H])([H])[H])c(C([H])([H])[H])c3C([H])([H])C([H])([H])C([H])([H])C([H])([H])N([H])C(=O)N3C([H])([H])C([H])([H])C([H])([H])C([H])(n4nc(-c5c([H])c([H])c(Oc6c([H])c([H])c(F)c([H])c6F)c([H])c5[H])c(C(=O)N([H])[H])c4N([H])[H])C3([H])[H])c([H])c([H])c2C1([H])[H]

$$$$
94:0:0
     RDKit          3D

 92100  0  0  1  0  0  0  0  0999 V2000
  -30.0130  -22.9420   19.9140 C   0  0  0  0  0  3  0  0  0  0  0  0
  -31.8490  -23.9450   21.1490 C   0  0  0  0  0  3  0  0  0  0  0  0
  -29.3240  -24.1710   19.9390 C   0  0  0  0  0  3  0  0  0  0  0  0
  -31.1610  -25.1760   21.1750 C   0  0  0  0  0  3  0  0  0  0  0  0
  -31.2790  -22.8090   20.5310 C   0  0  0  0  0  0  0  0  0  0  0  0
  -29.8880  -25.3030   20.5750 C   0  0  0  0  0  0  0  0  0  0  0  0
  -29.1540  -26.6040   20.6540 C   0  0  0  0  0  0  0  0  0  0  0  0
  -29.4390  -27.4810   21.4730 O   0  0  0  0  0  0  0  0  0  0  0  0
  -28.1430  -26.6700   19.7440 O   0  0  0  0  0  0  0  0  0  0  0  0
  -24.3830  -31.7360   23.1480 C   0  0  0  0  0  0  0  0  0  0  0  0
  -27.0220  -27.4660   19.8530 C   0  0  0  0  0  0  0  0  0  0  0  0
  -23.1550  -30.3940   21.4650 C   0  0  0  0  0  3  0  0  0  0  0  0
  -24.5970  -28.9180   19.9680 C   0  0  0  0  0  0  0  0  0  0  0  0
  -25.6710  -30.7850   21.2410 C   0  0  0  0  0  2  0  0  0  0  0  0
  -25.7560  -29.4420   20.5530 C   0  0  0  0  0  0  0  0  0  0  0  0
  -26.9710  -28.7270   20.4940 C   0  0  0  0  0  3  0  0  0  0  0  0
  -25.8440  -26.9540   19.2710 C   0  0  0  0  0  3  0  0  0  0  0  0
  -24.6340  -27.6690   19.3230 C   0  0  0  0  0  3  0  0  0  0  0  0
  -23.3440  -29.7560   20.0630 C   0  0  0  0  0  2  0  0  0  0  0  0
  -24.4210  -30.9840   22.0110 N   0  0  0  0  0  0  0  0  0  0  0  0
  -23.3100  -31.9820   23.7160 O   0  0  0  0  0  0  0  0  0  0  0  0
  -22.5200  -29.3380   22.3970 C   0  0  0  0  0  0  0  0  0  0  0  0
  -21.2000  -29.1380   22.2580 N   0  0  0  0  0  0  0  0  0  0  0  0
  -23.2110  -28.7010   23.1950 O   0  0  0  0  0  0  0  0  0  0  0  0
  -20.7030  -29.7050   21.5850 H   0  0  0  0  0  0  0  0  0  0  0  0
  -17.8530  -27.8440   22.6730 C   0  0  0  0  0  0  0  0  0  0  0  0
  -20.3970  -28.1650   22.9950 C   0  0  0  0  0  3  0  0  0  0  0  0
  -20.5480  -26.7480   22.3930 C   0  0  0  0  0  2  0  0  0  0  0  0
  -19.4740  -26.4140   21.3550 C   0  0  0  0  0  2  0  0  0  0  0  0
  -18.0780  -26.5120   21.9750 C   0  0  0  0  0  2  0  0  0  0  0  0
  -18.9430  -28.6270   23.1360 C   0  0  0  0  0  0  0  0  0  0  0  0
  -18.6790  -29.8760   23.7410 C   0  0  0  0  0  3  0  0  0  0  0  0
  -17.3580  -30.3400   23.8900 C   0  0  0  0  0  3  0  0  0  0  0  0
  -16.2830  -29.5510   23.4440 C   0  0  0  0  0  3  0  0  0  0  0  0
  -16.5320  -28.3050   22.8410 C   0  0  0  0  0  3  0  0  0  0  0  0
  -25.6780  -32.3420   23.7740 C   0  0  0  0  0  3  0  0  0  0  0  0
  -25.3740  -33.7240   24.1680 N   0  0  0  0  0  0  0  0  0  0  0  0
  -25.7070  -34.8090   23.4530 C   0  0  0  0  0  0  0  0  0  0  0  0
  -26.3740  -34.7490   22.4150 O   0  0  0  0  0  0  0  0  0  0  0  0
  -24.7790  -33.8450   24.9740 H   0  0  0  0  0  0  0  0  0  0  0  0
  -23.9840  -36.6210   23.1770 C   0  0  0  0  0  1  0  0  0  0  0  0
  -25.2220  -36.1760   23.9730 C   0  0  0  0  0  3  0  0  0  0  0  0
  -27.3560  -37.0140   24.8510 C   0  0  0  0  0  1  0  0  0  0  0  0
  -26.2580  -37.2300   23.9140 N   0  0  0  0  0  0  0  0  0  0  0  0
  -25.8530  -38.1420   24.1070 H   0  0  0  0  0  0  0  0  0  0  0  0
  -26.2230  -31.5170   25.0050 C   0  0  1  0  0  0  0  0  0  0  0  0
  -25.1510  -31.2270   26.0800 C   0  0  0  0  0  1  0  0  0  0  0  0
  -26.8000  -30.1610   24.5400 C   0  0  0  0  0  1  0  0  0  0  0  0
  -27.3830  -32.2840   25.6820 C   0  0  0  0  0  1  0  0  0  0  0  0
  -32.0340  -21.5190   20.5390 C   0  0  0  0  0  0  0  0  0  0  0  0
  -33.1820  -21.4200   20.9880 O   0  0  0  0  0  0  0  0  0  0  0  0
  -31.3310  -20.2630   19.9990 C   0  0  0  0  0  2  0  0  0  0  0  0
  -31.6840  -18.9930   20.7900 C   0  0  0  0  0  2  0  0  0  0  0  0
  -30.7730  -17.8030   20.4570 C   0  0  0  0  0  2  0  0  0  0  0  0
  -30.9700  -16.6630   21.4700 C   0  0  0  0  0  2  0  0  0  0  0  0
  -30.0890  -15.4220   21.2290 C   0  0  0  0  0  2  0  0  0  0  0  0
  -30.6110  -14.4220   20.1800 C   0  0  0  0  0  0  0  0  0  0  0  0
  -30.2300  -12.3310   18.9100 C   0  0  0  0  0  2  0  0  0  0  0  0
  -29.2160  -12.5800   17.7770 C   0  0  0  0  0  2  0  0  0  0  0  0
  -27.7640  -12.4530   18.2830 C   0  0  0  0  0  2  0  0  0  0  0  0
  -27.5160  -13.2460   19.5940 C   0  0  0  0  0  3  0  0  0  0  0  0
  -28.6260  -12.9530   20.6240 C   0  0  0  0  0  2  0  0  0  0  0  0
  -29.9210  -13.2670   19.9970 N   0  0  0  0  0  0  0  0  0  0  0  0
  -31.6210  -14.6990   19.5240 O   0  0  0  0  0  0  0  0  0  0  0  0
  -25.1500  -13.8500   20.4190 C   0  0  0  0  0  0  0  0  0  0  0  0
  -24.1070  -13.0720   20.8490 C   0  0  0  0  0  0  0  0  0  0  0  0
  -24.5740  -11.7230   20.8020 C   0  0  0  0  0  0  0  0  0  0  0  0
  -26.1870  -12.9710   20.1400 N   0  0  0  0  0  0  0  0  0  0  0  0
  -25.8450  -11.6890   20.4260 N   0  0  0  0  0  0  0  0  0  0  0  0
  -23.8670  -10.4580   21.0400 C   0  0  0  0  0  0  0  0  0  0  0  0
  -24.3230   -9.5240   21.9960 C   0  0  0  0  0  3  0  0  0  0  0  0
  -23.6150   -8.3240   22.2200 C   0  0  0  0  0  3  0  0  0  0  0  0
  -22.4360   -8.0490   21.4850 C   0  0  0  0  0  0  0  0  0  0  0  0
  -22.0020   -8.9700   20.5160 C   0  0  0  0  0  3  0  0  0  0  0  0
  -22.7100  -10.1610   20.2920 C   0  0  0  0  0  3  0  0  0  0  0  0
  -21.6970   -6.8980   21.6150 O   0  0  0  0  0  0  0  0  0  0  0  0
  -21.6380   -6.2120   22.8010 C   0  0  0  0  0  0  0  0  0  0  0  0
  -21.1510   -6.8080   23.9850 C   0  0  0  0  0  3  0  0  0  0  0  0
  -21.0430   -6.0460   25.1660 C   0  0  0  0  0  3  0  0  0  0  0  0
  -21.4100   -4.6860   25.1630 C   0  0  0  0  0  0  0  0  0  0  0  0
  -21.8900   -4.0890   23.9830 C   0  0  0  0  0  3  0  0  0  0  0  0
  -22.0000   -4.8490   22.8070 C   0  0  0  0  0  0  0  0  0  0  0  0
  -22.4430   -4.2620   21.6680 F   0  0  0  0  0  0  0  0  0  0  0  0
  -21.2980   -3.9510   26.2940 F   0  0  0  0  0  0  0  0  0  0  0  0
  -22.7220  -13.5420   21.1950 C   0  0  0  0  0  0  0  0  0  0  0  0
  -22.0470  -12.8400   22.0990 N   0  0  0  0  0  0  0  0  0  0  0  0
  -22.2520  -14.5650   20.7000 O   0  0  0  0  0  0  0  0  0  0  0  0
  -22.4430  -12.0130   22.5170 H   0  0  0  0  0  0  0  0  0  0  0  0
  -21.1230  -13.1380   22.3780 H   0  0  0  0  0  0  0  0  0  0  0  0
  -25.2960  -15.2200   20.2250 N   0  0  0  0  0  0  0  0  0  0  0  0
  -24.5360  -15.8740   20.3780 H   0  0  0  0  0  0  0  0  0  0  0  0
  -26.1320  -15.6620   19.8630 H   0  0  0  0  0  0  0  0  0  0  0  0
  1  3  2  0
  1  5  1  0
  2  4  1  0
  3  6  1  0
  5 50  1  0
  5  2  2  0
  6  7  1  0
  6  4  2  0
  7  8  2  0
  9 11  1  0
  9  7  1  0
 10 21  2  0
 11 16  1  0
 12 20  1  0
 12 22  1  0
 13 19  1  0
 13 15  1  0
 14 20  1  0
 15 14  1  0
 16 15  2  0
 17 18  1  0
 17 11  2  0
 18 13  2  0
 19 12  1  0
 20 10  1  0
 22 24  2  0
 23 22  1  0
 25 23  1  0
 26 35  2  0
 26 31  1  0
 27 23  1  0
 27 31  1  0
 28 27  1  0
 29 30  1  0
 29 28  1  0
 30 26  1  0
 31 32  2  0
 32 33  1  0
 34 33  2  0
 35 34  1  0
 36 10  1  0
 36 37  1  0
 36 46  1  0
 37 40  1  0
 38 42  1  0
 38 37  1  0
 39 38  2  0
 42 41  1  0
 44 42  1  0
 44 45  1  0
 44 43  1  0
 46 49  1  1
 46 47  1  0
 48 46  1  0
 50 51  2  0
 52 50  1  0
 52 53  1  0
 54 53  1  0
 54 55  1  0
 56 55  1  0
 57 56  1  0
 58 63  1  0
 59 60  1  0
 59 58  1  0
 61 60  1  0
 61 68  1  0
 61 62  1  0
 63 57  1  0
 63 62  1  0
 64 57  2  0
 65 66  2  0
 66 85  1  0
 67 66  1  0
 67 70  1  0
 68 65  1  0
 68 69  1  0
 69 67  2  0
 70 71  1  0
 71 72  2  0
 73 76  1  0
 73 72  1  0
 74 73  2  0
 75 74  1  0
 75 70  2  0
 76 77  1  0
 77 82  2  0
 77 78  1  0
 78 79  2  0
 80 79  1  0
 80 84  1  0
 81 80  2  0
 82 81  1  0
 83 82  1  0
 85 86  1  0
 86 89  1  0
 86 88  1  0
 87 85  2  0
 90 91  1  0
 90 65  1  0
 92 90  1  0
M  ISO  4   7 101   9 101  56 100  57 100
M  END
>  <TORSDO>  (95) 
F 23

>  <SCORE>  (95) 
-12.016

>  <name>  (95) 
94

>  <ligand_id>  (95) 
94

>  <original_smiles>  (95) 
[H]c1c([H])c([H])c2c(c1[H])C([H])([H])C([H])([H])C([H])([H])C2([H])N([H])C(=O)C1([H])N(C(=O)C([H])(N([H])C(=O)C([H])(N([H])C([H])([H])[H])C([H])([H])[H])C(C([H])([H])[H])(C([H])([H])[H])C([H])([H])[H])C([H])([H])c2c([H])c(OC(=O)c3c([H])c([H])c(C(=O)C([H])([H])C([H])([H])C([H])([H])C([H])([H])C([H])([H])C(=O)N4C([H])([H])C([H])([H])C([H])([H])C([H])(n5nc(-c6c([H])c([H])c(Oc7c([H])c([H])c(F)c([H])c7F)c([H])c6[H])c(C(=O)N([H])[H])c5N([H])[H])C4([H])[H])c([H])c3[H])c([H])c([H])c2C1([H])[H]

>  <smiles>  (95) 
[H]c1c([H])c([H])c2c(c1[H])C([H])([H])C([H])([H])C([H])([H])C2([H])N([H])C(=O)C1([H])N(C(=O)C([H])(N([H])C(=O)C([H])(N([H])C([H])([H])[H])C([H])([H])[H])C(C([H])([H])[H])(C([H])([H])[H])C([H])([H])[H])C([H])([H])c2c([H])c(OC(=O)c3c([H])c([H])c(C(=O)C([H])([H])C([H])([H])C([H])([H])C([H])([H])C([H])([H])C(=O)N4C([H])([H])C([H])([H])C([H])([H])C([H])(n5nc(-c6c([H])c([H])c(Oc7c([H])c([H])c(F)c([H])c7F)c([H])c6[H])c(C(=O)N([H])[H])c5N([H])[H])C4([H])[H])c([H])c3[H])c([H])c([H])c2C1([H])[H]

$$$$
95:0:0
     RDKit          3D

 89 97  0  0  1  0  0  0  0  0999 V2000
  -30.1800  -23.3140   19.5330 C   0  0  0  0  0  0  0  0  0  0  0  0
  -28.8750  -23.0630   20.0610 C   0  0  0  0  0  3  0  0  0  0  0  0
  -30.0590  -24.0850   18.3980 C   0  0  0  0  0  0  0  0  0  0  0  0
  -28.1630  -24.3980   19.8760 C   0  0  0  0  0  3  0  0  0  0  0  0
  -31.4310  -22.5690   19.8890 C   0  0  0  0  0  1  0  0  0  0  0  0
  -31.0920  -24.3950   17.3620 C   0  0  0  0  0  1  0  0  0  0  0  0
  -28.3930  -24.5590   18.1640 S   0  0  0  0  0  0  0  0  0  0  0  0
  -28.1980  -25.8540   20.2680 O   0  0  0  0  0  0  0  0  0  0  0  0
  -24.6380  -31.8330   23.1900 C   0  0  0  0  0  0  0  0  0  0  0  0
  -27.1840  -26.9480   20.1710 C   0  0  0  0  0  0  0  0  0  0  0  0
  -23.4380  -30.4320   21.5620 C   0  0  0  0  0  3  0  0  0  0  0  0
  -24.8800  -28.8240   20.1350 C   0  0  0  0  0  0  0  0  0  0  0  0
  -26.0010  -30.6450   21.4000 C   0  0  0  0  0  2  0  0  0  0  0  0
  -26.0690  -29.2320   20.7510 C   0  0  0  0  0  0  0  0  0  0  0  0
  -27.2120  -28.3130   20.7500 C   0  0  0  0  0  3  0  0  0  0  0  0
  -25.9610  -26.6930   19.5070 C   0  0  0  0  0  3  0  0  0  0  0  0
  -24.8500  -27.5750   19.4950 C   0  0  0  0  0  3  0  0  0  0  0  0
  -23.6610  -29.7430   20.1860 C   0  0  0  0  0  2  0  0  0  0  0  0
  -24.7160  -30.9980   22.1050 N   0  0  0  0  0  0  0  0  0  0  0  0
  -23.5520  -32.1230   23.7170 O   0  0  0  0  0  0  0  0  0  0  0  0
  -22.7480  -29.4410   22.5330 C   0  0  0  0  0  0  0  0  0  0  0  0
  -21.4170  -29.2800   22.4170 N   0  0  0  0  0  0  0  0  0  0  0  0
  -23.4170  -28.8160   23.3590 O   0  0  0  0  0  0  0  0  0  0  0  0
  -20.9300  -29.8360   21.7300 H   0  0  0  0  0  0  0  0  0  0  0  0
  -18.0380  -28.0650   22.9410 C   0  0  0  0  0  0  0  0  0  0  0  0
  -20.5970  -28.3450   23.1970 C   0  0  0  0  0  3  0  0  0  0  0  0
  -20.7010  -26.9070   22.6340 C   0  0  0  0  0  2  0  0  0  0  0  0
  -19.5990  -26.5730   21.6230 C   0  0  0  0  0  2  0  0  0  0  0  0
  -18.2190  -26.7140   22.2700 C   0  0  0  0  0  2  0  0  0  0  0  0
  -19.1530  -28.8370   23.3610 C   0  0  0  0  0  0  0  0  0  0  0  0
  -18.9260  -30.0990   23.9540 C   0  0  0  0  0  3  0  0  0  0  0  0
  -17.6170  -30.5890   24.1260 C   0  0  0  0  0  3  0  0  0  0  0  0
  -16.5160  -29.8150   23.7190 C   0  0  0  0  0  3  0  0  0  0  0  0
  -16.7280  -28.5540   23.1320 C   0  0  0  0  0  3  0  0  0  0  0  0
  -25.9100  -32.4820   23.8150 C   0  0  0  0  0  3  0  0  0  0  0  0
  -26.4310  -31.7150   25.0940 C   0  0  1  0  0  0  0  0  0  0  0  0
  -25.3420  -31.4780   26.1670 C   0  0  0  0  0  1  0  0  0  0  0  0
  -27.0150  -30.3350   24.7110 C   0  0  0  0  0  1  0  0  0  0  0  0
  -27.5850  -32.5090   25.7490 C   0  0  0  0  0  1  0  0  0  0  0  0
  -25.5890  -33.8780   24.1580 N   0  0  0  0  0  0  0  0  0  0  0  0
  -25.9110  -34.9460   23.4130 C   0  0  0  0  0  0  0  0  0  0  0  0
  -26.5680  -34.8570   22.3740 O   0  0  0  0  0  0  0  0  0  0  0  0
  -25.0030  -34.0200   24.9670 H   0  0  0  0  0  0  0  0  0  0  0  0
  -24.1710  -36.7420   23.1140 C   0  0  0  0  0  1  0  0  0  0  0  0
  -25.4290  -36.3280   23.8960 C   0  0  0  0  0  3  0  0  0  0  0  0
  -27.5750  -37.2180   24.6960 C   0  0  0  0  0  1  0  0  0  0  0  0
  -26.4550  -37.3870   23.7740 N   0  0  0  0  0  0  0  0  0  0  0  0
  -26.0480  -38.3050   23.9370 H   0  0  0  0  0  0  0  0  0  0  0  0
  -28.5400  -21.3390   20.0100 C   0  0  0  0  0  2  0  0  0  0  0  0
  -29.3610  -19.8070   20.5490 C   0  0  0  0  0  2  0  0  0  0  0  0
  -29.5830  -18.1520   19.8360 C   0  0  0  0  0  2  0  0  0  0  0  0
  -30.3850  -15.2990   20.1940 C   0  0  0  0  0  0  0  0  0  0  0  0
  -30.3530  -12.8430   19.3470 C   0  0  0  0  0  2  0  0  0  0  0  0
  -29.4250  -12.6540   18.1200 C   0  0  0  0  0  2  0  0  0  0  0  0
  -27.9760  -12.3880   18.5640 C   0  0  0  0  0  2  0  0  0  0  0  0
  -27.5410  -13.3420   19.7060 C   0  0  0  0  0  3  0  0  0  0  0  0
  -28.5990  -13.4780   20.8250 C   0  0  0  0  0  2  0  0  0  0  0  0
  -29.8310  -13.9830   20.1960 N   0  0  0  0  0  0  0  0  0  0  0  0
  -31.5740  -15.3100   19.8390 O   0  0  0  0  0  0  0  0  0  0  0  0
  -29.6330  -16.5670   20.4000 N   0  0  0  0  0  0  0  0  0  0  0  0
  -28.7600  -16.3420   20.8560 H   0  0  0  0  0  0  0  0  0  0  0  0
  -25.1730  -13.8940   20.4720 C   0  0  0  0  0  0  0  0  0  0  0  0
  -24.1180  -13.1180   20.8570 C   0  0  0  0  0  0  0  0  0  0  0  0
  -24.5870  -11.7680   20.8260 C   0  0  0  0  0  0  0  0  0  0  0  0
  -26.2170  -13.0210   20.2240 N   0  0  0  0  0  0  0  0  0  0  0  0
  -25.8760  -11.7350   20.5030 N   0  0  0  0  0  0  0  0  0  0  0  0
  -23.8620  -10.5050   21.0270 C   0  0  0  0  0  0  0  0  0  0  0  0
  -24.3060   -9.5350   21.9520 C   0  0  0  0  0  3  0  0  0  0  0  0
  -23.5760   -8.3400   22.1430 C   0  0  0  0  0  3  0  0  0  0  0  0
  -22.3890   -8.1080   21.4080 C   0  0  0  0  0  0  0  0  0  0  0  0
  -21.9630   -9.0680   20.4730 C   0  0  0  0  0  3  0  0  0  0  0  0
  -22.6940  -10.2530   20.2810 C   0  0  0  0  0  3  0  0  0  0  0  0
  -21.6290   -6.9670   21.5090 O   0  0  0  0  0  0  0  0  0  0  0  0
  -21.6080   -6.2160   22.6570 C   0  0  0  0  0  0  0  0  0  0  0  0
  -21.2210   -6.7640   23.8990 C   0  0  0  0  0  3  0  0  0  0  0  0
  -21.1470   -5.9400   25.0410 C   0  0  0  0  0  3  0  0  0  0  0  0
  -21.4480   -4.5700   24.9410 C   0  0  0  0  0  0  0  0  0  0  0  0
  -21.8280   -4.0200   23.7040 C   0  0  0  0  0  3  0  0  0  0  0  0
  -21.9050   -4.8410   22.5650 C   0  0  0  0  0  0  0  0  0  0  0  0
  -22.2510   -4.3010   21.3710 F   0  0  0  0  0  0  0  0  0  0  0  0
  -21.3710   -3.7760   26.0350 F   0  0  0  0  0  0  0  0  0  0  0  0
  -22.7210  -13.5940   21.1320 C   0  0  0  0  0  0  0  0  0  0  0  0
  -22.0000  -12.9050   22.0090 N   0  0  0  0  0  0  0  0  0  0  0  0
  -22.2810  -14.6150   20.6070 O   0  0  0  0  0  0  0  0  0  0  0  0
  -22.3690  -12.0800   22.4590 H   0  0  0  0  0  0  0  0  0  0  0  0
  -21.0620  -13.2070   22.2330 H   0  0  0  0  0  0  0  0  0  0  0  0
  -25.3310  -15.2650   20.2830 N   0  0  0  0  0  0  0  0  0  0  0  0
  -24.5640  -15.9190   20.3970 H   0  0  0  0  0  0  0  0  0  0  0  0
  -26.1630  -15.6970   19.9020 H   0  0  0  0  0  0  0  0  0  0  0  0
  1  5  1  0
  1  2  1  0
  2 49  1  0
  3  1  2  0
  4  2  1  0
  4  8  1  0
  6  3  1  0
  7  3  1  0
  7  4  1  0
  9 20  2  0
 10  8  1  0
 10 15  1  0
 11 19  1  0
 11 21  1  0
 12 18  1  0
 12 14  1  0
 13 19  1  0
 14 13  1  0
 15 14  2  0
 16 10  2  0
 17 16  1  0
 17 12  2  0
 18 11  1  0
 19  9  1  0
 21 23  2  0
 22 21  1  0
 24 22  1  0
 25 34  2  0
 25 30  1  0
 26 22  1  0
 26 30  1  0
 27 26  1  0
 28 29  1  0
 28 27  1  0
 29 25  1  0
 30 31  2  0
 31 32  1  0
 33 32  2  0
 34 33  1  0
 35  9  1  0
 35 40  1  0
 35 36  1  0
 36 39  1  1
 36 37  1  0
 38 36  1  0
 40 43  1  0
 41 45  1  0
 41 40  1  0
 42 41  2  0
 45 44  1  0
 47 45  1  0
 47 48  1  0
 47 46  1  0
 49 50  1  0
 51 60  1  0
 51 50  1  0
 52 58  1  0
 52 60  1  0
 53 58  1  0
 54 55  1  0
 54 53  1  0
 56 55  1  0
 56 65  1  0
 56 57  1  0
 58 57  1  0
 59 52  2  0
 60 61  1  0
 62 63  2  0
 63 82  1  0
 64 63  1  0
 64 67  1  0
 65 62  1  0
 65 66  1  0
 66 64  2  0
 67 68  1  0
 68 69  2  0
 70 73  1  0
 70 69  1  0
 71 70  2  0
 72 71  1  0
 72 67  2  0
 73 74  1  0
 74 75  1  0
 75 76  2  0
 77 76  1  0
 77 81  1  0
 78 77  2  0
 79 74  2  0
 79 78  1  0
 80 79  1  0
 82 83  1  0
 83 86  1  0
 83 85  1  0
 84 82  2  0
 87 88  1  0
 87 62  1  0
 89 87  1  0
M  ISO  4   4 101   8 101  52 100  60 100
M  END
>  <TORSDO>  (96) 
F 19

>  <SCORE>  (96) 
-15.734

>  <name>  (96) 
95

>  <ligand_id>  (96) 
95

>  <original_smiles>  (96) 
[H]c1c([H])c([H])c2c(c1[H])C([H])([H])C([H])([H])C([H])([H])C2([H])N([H])C(=O)C1([H])N(C(=O)C([H])(N([H])C(=O)C([H])(N([H])C([H])([H])[H])C([H])([H])[H])C(C([H])([H])[H])(C([H])([H])[H])C([H])([H])[H])C([H])([H])c2c([H])c(Oc3sc(C([H])([H])[H])c(C([H])([H])[H])c3C([H])([H])C([H])([H])C([H])([H])N([H])C(=O)N3C([H])([H])C([H])([H])C([H])([H])C([H])(n4nc(-c5c([H])c([H])c(Oc6c([H])c([H])c(F)c([H])c6F)c([H])c5[H])c(C(=O)N([H])[H])c4N([H])[H])C3([H])[H])c([H])c([H])c2C1([H])[H]

>  <smiles>  (96) 
[H]c1c([H])c([H])c2c(c1[H])C([H])([H])C([H])([H])C([H])([H])C2([H])N([H])C(=O)C1([H])N(C(=O)C([H])(N([H])C(=O)C([H])(N([H])C([H])([H])[H])C([H])([H])[H])C(C([H])([H])[H])(C([H])([H])[H])C([H])([H])[H])C([H])([H])c2c([H])c(Oc3sc(C([H])([H])[H])c(C([H])([H])[H])c3C([H])([H])C([H])([H])C([H])([H])N([H])C(=O)N3C([H])([H])C([H])([H])C([H])([H])C([H])(n4nc(-c5c([H])c([H])c(Oc6c([H])c([H])c(F)c([H])c6F)c([H])c5[H])c(C(=O)N([H])[H])c4N([H])[H])C3([H])[H])c([H])c([H])c2C1([H])[H]

$$$$
96:0:0
     RDKit          3D

 93102  0  0  1  0  0  0  0  0999 V2000
  -28.0500  -22.4470   20.5590 C   0  0  0  0  0  3  0  0  0  0  0  0
  -29.9450  -22.9770   19.2590 C   0  0  0  0  0  3  0  0  0  0  0  0
  -29.1770  -21.9210   19.8380 C   0  0  0  0  0  0  0  0  0  0  0  0
  -27.7400  -23.8740   20.6810 C   0  0  0  0  0  0  0  0  0  0  0  0
  -29.6500  -24.3850   19.3570 C   0  0  0  0  0  0  0  0  0  0  0  0
  -28.5180  -24.9240   20.0500 C   0  0  0  0  0  0  0  0  0  0  0  0
  -26.5440  -24.2480   21.5380 C   0  0  0  0  0  1  0  0  0  0  0  0
  -30.6180  -25.3550   18.6990 C   0  0  0  0  0  1  0  0  0  0  0  0
  -28.4000  -26.3790   20.1330 O   0  0  0  0  0  0  0  0  0  0  0  0
  -24.6450  -31.8630   23.1560 C   0  0  0  0  0  0  0  0  0  0  0  0
  -27.2680  -27.2450   20.0900 C   0  0  0  0  0  0  0  0  0  0  0  0
  -23.4500  -30.4700   21.5060 C   0  0  0  0  0  3  0  0  0  0  0  0
  -24.9090  -28.9190   20.0630 C   0  0  0  0  0  0  0  0  0  0  0  0
  -25.9920  -30.7740   21.3320 C   0  0  0  0  0  2  0  0  0  0  0  0
  -26.0750  -29.3880   20.6820 C   0  0  0  0  0  0  0  0  0  0  0  0
  -27.2490  -28.5620   20.6810 C   0  0  0  0  0  3  0  0  0  0  0  0
  -26.0900  -26.8660   19.4100 C   0  0  0  0  0  3  0  0  0  0  0  0
  -24.9270  -27.6740   19.4120 C   0  0  0  0  0  3  0  0  0  0  0  0
  -23.6730  -29.8010   20.1210 C   0  0  0  0  0  2  0  0  0  0  0  0
  -24.7150  -31.0570   22.0550 N   0  0  0  0  0  0  0  0  0  0  0  0
  -23.5580  -32.1320   23.6910 O   0  0  0  0  0  0  0  0  0  0  0  0
  -22.7860  -29.4470   22.4610 C   0  0  0  0  0  0  0  0  0  0  0  0
  -21.4630  -29.2500   22.3190 N   0  0  0  0  0  0  0  0  0  0  0  0
  -23.4620  -28.8340   23.2900 O   0  0  0  0  0  0  0  0  0  0  0  0
  -20.9750  -29.7970   21.6230 H   0  0  0  0  0  0  0  0  0  0  0  0
  -18.1070  -27.9620   22.7510 C   0  0  0  0  0  0  0  0  0  0  0  0
  -20.6500  -28.2980   23.0800 C   0  0  0  0  0  3  0  0  0  0  0  0
  -20.8050  -26.8630   22.5250 C   0  0  0  0  0  2  0  0  0  0  0  0
  -19.7390  -26.4980   21.4870 C   0  0  0  0  0  2  0  0  0  0  0  0
  -18.3380  -26.6120   22.0930 C   0  0  0  0  0  2  0  0  0  0  0  0
  -19.1920  -28.7610   23.1980 C   0  0  0  0  0  0  0  0  0  0  0  0
  -18.9210  -30.0230   23.7730 C   0  0  0  0  0  3  0  0  0  0  0  0
  -17.5970  -30.4870   23.9020 C   0  0  0  0  0  3  0  0  0  0  0  0
  -16.5270  -29.6840   23.4710 C   0  0  0  0  0  3  0  0  0  0  0  0
  -16.7830  -28.4240   22.9010 C   0  0  0  0  0  3  0  0  0  0  0  0
  -25.9230  -32.5040   23.7820 C   0  0  0  0  0  3  0  0  0  0  0  0
  -25.6070  -33.8970   24.1270 N   0  0  0  0  0  0  0  0  0  0  0  0
  -25.9310  -34.9590   23.3800 C   0  0  0  0  0  0  0  0  0  0  0  0
  -26.6020  -34.8700   22.3480 O   0  0  0  0  0  0  0  0  0  0  0  0
  -25.0340  -34.0410   24.9460 H   0  0  0  0  0  0  0  0  0  0  0  0
  -24.2070  -36.7530   23.0240 C   0  0  0  0  0  1  0  0  0  0  0  0
  -25.4360  -36.3420   23.8490 C   0  0  0  0  0  3  0  0  0  0  0  0
  -27.5560  -37.2180   24.7290 C   0  0  0  0  0  1  0  0  0  0  0  0
  -26.4700  -37.3980   23.7700 N   0  0  0  0  0  0  0  0  0  0  0  0
  -26.0620  -38.3140   23.9260 H   0  0  0  0  0  0  0  0  0  0  0  0
  -26.4400  -31.7320   25.0600 C   0  0  1  0  0  0  0  0  0  0  0  0
  -25.3420  -31.4850   26.1210 C   0  0  0  0  0  1  0  0  0  0  0  0
  -27.0350  -30.3600   24.6670 C   0  0  0  0  0  1  0  0  0  0  0  0
  -27.5810  -32.5290   25.7330 C   0  0  0  0  0  1  0  0  0  0  0  0
  -29.6240  -20.3750   19.4960 C   0  0  0  0  0  2  0  0  0  0  0  0
  -31.3620  -18.8770   21.7800 C   0  0  0  0  0  2  0  0  0  0  0  0
  -29.8480  -19.0820   21.7530 C   0  0  0  0  0  2  0  0  0  0  0  0
  -31.7090  -17.9130   20.6320 C   0  0  0  0  0  2  0  0  0  0  0  0
  -29.4640  -18.9210   20.2850 C   0  0  0  0  0  3  0  0  0  0  0  0
  -30.4200  -17.6340   19.8290 C   0  0  0  0  0  3  0  0  0  0  0  0
  -30.8180  -14.9530   19.7930 C   0  0  0  0  0  0  0  0  0  0  0  0
  -30.6510  -12.5830   18.9450 C   0  0  0  0  0  2  0  0  0  0  0  0
  -29.6490  -12.5150   17.7700 C   0  0  0  0  0  2  0  0  0  0  0  0
  -28.2080  -12.3350   18.2840 C   0  0  0  0  0  2  0  0  0  0  0  0
  -27.8740  -13.2910   19.4590 C   0  0  0  0  0  3  0  0  0  0  0  0
  -28.9890  -13.3260   20.5230 C   0  0  0  0  0  2  0  0  0  0  0  0
  -30.2280  -13.6990   19.8320 N   0  0  0  0  0  0  0  0  0  0  0  0
  -31.9900  -15.0270   19.4060 O   0  0  0  0  0  0  0  0  0  0  0  0
  -30.0470  -16.1210   19.9940 N   0  0  0  0  0  0  0  0  0  0  0  0
  -29.0860  -15.9470   20.2480 H   0  0  0  0  0  0  0  0  0  0  0  0
  -25.5750  -13.8980   20.4080 C   0  0  0  0  0  0  0  0  0  0  0  0
  -24.5250  -13.1340   20.8340 C   0  0  0  0  0  0  0  0  0  0  0  0
  -24.9470  -11.7760   20.7100 C   0  0  0  0  0  0  0  0  0  0  0  0
  -26.5710  -13.0060   20.0480 N   0  0  0  0  0  0  0  0  0  0  0  0
  -26.2070  -11.7190   20.2930 N   0  0  0  0  0  0  0  0  0  0  0  0
  -24.2040  -10.5230   20.9080 C   0  0  0  0  0  0  0  0  0  0  0  0
  -24.6250   -9.5530   21.8430 C   0  0  0  0  0  3  0  0  0  0  0  0
  -23.8820   -8.3680   22.0290 C   0  0  0  0  0  3  0  0  0  0  0  0
  -22.7030   -8.1440   21.2800 C   0  0  0  0  0  0  0  0  0  0  0  0
  -22.3020   -9.1020   20.3300 C   0  0  0  0  0  3  0  0  0  0  0  0
  -23.0460  -10.2780   20.1440 C   0  0  0  0  0  3  0  0  0  0  0  0
  -21.9330   -7.0110   21.3730 O   0  0  0  0  0  0  0  0  0  0  0  0
  -21.7990   -6.3270   22.5550 C   0  0  0  0  0  0  0  0  0  0  0  0
  -21.2680   -6.9370   23.7120 C   0  0  0  0  0  3  0  0  0  0  0  0
  -21.0820   -6.1780   24.8860 C   0  0  0  0  0  3  0  0  0  0  0  0
  -21.4180   -4.8110   24.9020 C   0  0  0  0  0  0  0  0  0  0  0  0
  -21.9430   -4.2010   23.7490 C   0  0  0  0  0  3  0  0  0  0  0  0
  -22.1290   -4.9570   22.5770 C   0  0  0  0  0  0  0  0  0  0  0  0
  -22.6140   -4.3590   21.4620 F   0  0  0  0  0  0  0  0  0  0  0  0
  -21.2340   -4.0800   26.0260 F   0  0  0  0  0  0  0  0  0  0  0  0
  -23.1670  -13.6320   21.2380 C   0  0  0  0  0  0  0  0  0  0  0  0
  -22.4950  -12.9220   22.1360 N   0  0  0  0  0  0  0  0  0  0  0  0
  -22.7150  -14.6870   20.7920 O   0  0  0  0  0  0  0  0  0  0  0  0
  -22.8750  -12.0670   22.5150 H   0  0  0  0  0  0  0  0  0  0  0  0
  -21.5880  -13.2350   22.4490 H   0  0  0  0  0  0  0  0  0  0  0  0
  -25.7610  -15.2720   20.2740 N   0  0  0  0  0  0  0  0  0  0  0  0
  -25.0180  -15.9370   20.4700 H   0  0  0  0  0  0  0  0  0  0  0  0
  -26.5790  -15.7030   19.8640 H   0  0  0  0  0  0  0  0  0  0  0  0
  1  4  1  0
  2  5  2  0
  2  3  1  0
  3  1  2  0
  4  7  1  0
  5  6  1  0
  6  9  1  0
  6  4  2  0
  8  5  1  0
 10 21  2  0
 11  9  1  0
 11 16  1  0
 12 20  1  0
 12 22  1  0
 13 19  1  0
 13 15  1  0
 14 20  1  0
 15 14  1  0
 16 15  2  0
 17 18  1  0
 17 11  2  0
 18 13  2  0
 19 12  1  0
 20 10  1  0
 22 24  2  0
 23 22  1  0
 25 23  1  0
 26 35  2  0
 26 31  1  0
 27 23  1  0
 27 31  1  0
 28 27  1  0
 29 30  1  0
 29 28  1  0
 30 26  1  0
 31 32  2  0
 32 33  1  0
 34 33  2  0
 35 34  1  0
 36 10  1  0
 36 37  1  0
 36 46  1  0
 37 40  1  0
 38 42  1  0
 38 37  1  0
 39 38  2  0
 42 41  1  0
 44 42  1  0
 44 45  1  0
 44 43  1  0
 46 49  1  1
 46 47  1  0
 48 46  1  0
 50  3  1  0
 52 51  1  0
 53 51  1  0
 54 50  1  0
 54 52  1  0
 55 64  1  0
 55 54  1  0
 55 53  1  0
 56 62  1  0
 56 64  1  0
 57 62  1  0
 58 59  1  0
 58 57  1  0
 60 59  1  0
 60 69  1  0
 60 61  1  0
 62 61  1  0
 63 56  2  0
 64 65  1  0
 66 67  2  0
 67 86  1  0
 68 67  1  0
 68 71  1  0
 69 70  1  0
 69 66  1  0
 70 68  2  0
 71 72  1  0
 72 73  2  0
 74 77  1  0
 74 73  1  0
 75 74  2  0
 76 75  1  0
 76 71  2  0
 77 78  1  0
 78 83  2  0
 78 79  1  0
 79 80  2  0
 80 81  1  0
 81 85  1  0
 82 81  2  0
 83 82  1  0
 84 83  1  0
 86 87  1  0
 87 90  1  0
 87 89  1  0
 88 86  2  0
 91 66  1  0
 91 92  1  0
 93 91  1  0
M  ISO  4   6 101   9 101  56 100  64 100
M  END
>  <TORSDO>  (97) 
F 18

>  <SCORE>  (97) 
-14.097

>  <name>  (97) 
96

>  <ligand_id>  (97) 
96

>  <original_smiles>  (97) 
[H]c1c([H])c([H])c2c(c1[H])C([H])([H])C([H])([H])C([H])([H])C2([H])N([H])C(=O)C1([H])N(C(=O)C([H])(N([H])C(=O)C([H])(N([H])C([H])([H])[H])C([H])([H])[H])C(C([H])([H])[H])(C([H])([H])[H])C([H])([H])[H])C([H])([H])c2c([H])c(Oc3c(C([H])([H])[H])c([H])c(C([H])([H])C4([H])C([H])([H])C([H])([H])C([H])([H])C4([H])N([H])C(=O)N4C([H])([H])C([H])([H])C([H])([H])C([H])(n5nc(-c6c([H])c([H])c(Oc7c([H])c([H])c(F)c([H])c7F)c([H])c6[H])c(C(=O)N([H])[H])c5N([H])[H])C4([H])[H])c([H])c3C([H])([H])[H])c([H])c([H])c2C1([H])[H]

>  <smiles>  (97) 
[H]c1c([H])c([H])c2c(c1[H])C([H])([H])C([H])([H])C([H])([H])C2([H])N([H])C(=O)C1([H])N(C(=O)C([H])(N([H])C(=O)C([H])(N([H])C([H])([H])[H])C([H])([H])[H])C(C([H])([H])[H])(C([H])([H])[H])C([H])([H])[H])C([H])([H])c2c([H])c(Oc3c(C([H])([H])[H])c([H])c(C([H])([H])C4([H])C([H])([H])C([H])([H])C([H])([H])C4([H])N([H])C(=O)N4C([H])([H])C([H])([H])C([H])([H])C([H])(n5nc(-c6c([H])c([H])c(Oc7c([H])c([H])c(F)c([H])c7F)c([H])c6[H])c(C(=O)N([H])[H])c5N([H])[H])C4([H])[H])c([H])c3C([H])([H])[H])c([H])c([H])c2C1([H])[H]

$$$$
