0:0:0
     RDKit          3D

 94102  0  0  1  0  0  0  0  0999 V2000
  -29.2830  -23.6860   20.3620 C   0  0  0  0  0  3  0  0  0  0  0  0
  -29.2430  -24.8740   19.6090 C   0  0  0  0  0  3  0  0  0  0  0  0
  -28.0340  -25.9560   21.4230 C   0  0  0  0  0  3  0  0  0  0  0  0
  -28.6920  -23.6160   21.6440 C   0  0  0  0  0  0  0  0  0  0  0  0
  -28.6060  -26.0130   20.1290 C   0  0  0  0  0  0  0  0  0  0  0  0
  -28.0470  -24.7620   22.1850 C   0  0  0  0  0  0  0  0  0  0  0  0
  -26.7240  -25.7730   23.9390 C   0  0  0  0  0  1  0  0  0  0  0  0
  -27.4730  -24.6700   23.4380 O   0  0  0  0  0  0  0  0  0  0  0  0
  -28.7010  -22.3180   22.3770 C   0  0  0  0  0  0  0  0  0  0  0  0
  -27.7350  -21.8740   23.0060 O   0  0  0  0  0  0  0  0  0  0  0  0
  -30.0040  -21.5160   22.3570 C   0  0  0  0  0  2  0  0  0  0  0  0
  -29.8780  -20.2270   21.5350 C   0  0  0  0  0  2  0  0  0  0  0  0
  -31.1180  -19.3340   21.6580 C   0  0  0  0  0  2  0  0  0  0  0  0
  -30.8260  -17.9190   21.1540 C   0  0  0  0  0  2  0  0  0  0  0  0
  -31.9370  -16.9120   21.4750 C   0  0  0  0  0  2  0  0  0  0  0  0
  -31.7000  -14.8530   20.0930 C   0  0  0  0  0  0  0  0  0  0  0  0
  -31.2240  -12.7030   18.9900 C   0  0  0  0  0  2  0  0  0  0  0  0
  -30.2610  -12.8500   17.8000 C   0  0  0  0  0  2  0  0  0  0  0  0
  -28.7990  -12.7900   18.2710 C   0  0  0  0  0  2  0  0  0  0  0  0
  -28.5180  -13.7530   19.4540 C   0  0  0  0  0  3  0  0  0  0  0  0
  -29.5770  -13.5820   20.5640 C   0  0  0  0  0  2  0  0  0  0  0  0
  -30.9240  -13.7490   19.9750 N   0  0  0  0  0  0  0  0  0  0  0  0
  -32.6240  -15.1380   19.3240 O   0  0  0  0  0  0  0  0  0  0  0  0
  -31.4470  -15.5730   21.1880 N   0  0  0  0  0  0  0  0  0  0  0  0
  -30.7520  -15.1940   21.8130 H   0  0  0  0  0  0  0  0  0  0  0  0
  -26.1930  -14.5280   20.2600 C   0  0  0  0  0  0  0  0  0  0  0  0
  -25.0810  -13.8300   20.6440 C   0  0  0  0  0  0  0  0  0  0  0  0
  -25.4320  -12.4480   20.5570 C   0  0  0  0  0  0  0  0  0  0  0  0
  -27.1590  -13.5760   19.9690 N   0  0  0  0  0  0  0  0  0  0  0  0
  -26.7040  -12.3180   20.2000 N   0  0  0  0  0  0  0  0  0  0  0  0
  -24.6160  -11.2410   20.7360 C   0  0  0  0  0  0  0  0  0  0  0  0
  -24.9590  -10.2530   21.6850 C   0  0  0  0  0  3  0  0  0  0  0  0
  -24.1480   -9.1080   21.8510 C   0  0  0  0  0  3  0  0  0  0  0  0
  -22.9810   -8.9450   21.0670 C   0  0  0  0  0  0  0  0  0  0  0  0
  -22.6570   -9.9220   20.1090 C   0  0  0  0  0  3  0  0  0  0  0  0
  -23.4670  -11.0570   19.9410 C   0  0  0  0  0  3  0  0  0  0  0  0
  -22.1480   -7.8550   21.1430 O   0  0  0  0  0  0  0  0  0  0  0  0
  -21.9430   -7.1860   22.3220 C   0  0  0  0  0  0  0  0  0  0  0  0
  -21.4450   -7.8370   23.4720 C   0  0  0  0  0  3  0  0  0  0  0  0
  -21.1810   -7.0980   24.6410 C   0  0  0  0  0  3  0  0  0  0  0  0
  -21.4080   -5.7090   24.6640 C   0  0  0  0  0  0  0  0  0  0  0  0
  -21.9030   -5.0580   23.5200 C   0  0  0  0  0  3  0  0  0  0  0  0
  -22.1670   -5.7940   22.3510 C   0  0  0  0  0  0  0  0  0  0  0  0
  -22.6210   -5.1580   21.2450 F   0  0  0  0  0  0  0  0  0  0  0  0
  -21.1500   -4.9960   25.7850 F   0  0  0  0  0  0  0  0  0  0  0  0
  -23.7350  -14.4050   20.9850 C   0  0  0  0  0  0  0  0  0  0  0  0
  -22.9940  -13.7460   21.8680 N   0  0  0  0  0  0  0  0  0  0  0  0
  -23.3540  -15.4730   20.5070 O   0  0  0  0  0  0  0  0  0  0  0  0
  -23.3140  -12.8800   22.2750 H   0  0  0  0  0  0  0  0  0  0  0  0
  -22.0940  -14.1120   22.1430 H   0  0  0  0  0  0  0  0  0  0  0  0
  -26.4570  -15.8870   20.1170 N   0  0  0  0  0  0  0  0  0  0  0  0
  -25.7480  -16.5940   20.2810 H   0  0  0  0  0  0  0  0  0  0  0  0
  -27.3330  -16.2720   19.7890 H   0  0  0  0  0  0  0  0  0  0  0  0
  -28.5330  -27.1490   19.3530 O   0  0  0  0  0  0  0  0  0  0  0  0
  -24.8050  -31.7880   23.1980 C   0  0  0  0  0  0  0  0  0  0  0  0
  -27.3740  -27.8750   19.4520 C   0  0  0  0  0  0  0  0  0  0  0  0
  -23.5440  -30.5780   21.4470 C   0  0  0  0  0  3  0  0  0  0  0  0
  -24.9540  -29.2740   19.7680 C   0  0  0  0  0  0  0  0  0  0  0  0
  -26.0460  -31.0290   21.1790 C   0  0  0  0  0  2  0  0  0  0  0  0
  -26.1250  -29.7580   20.3630 C   0  0  0  0  0  0  0  0  0  0  0  0
  -27.3430  -29.0650   20.2060 C   0  0  0  0  0  3  0  0  0  0  0  0
  -26.1920  -27.3960   18.8490 C   0  0  0  0  0  3  0  0  0  0  0  0
  -24.9780  -28.0900   19.0090 C   0  0  0  0  0  3  0  0  0  0  0  0
  -23.6950  -30.0820   19.9840 C   0  0  0  0  0  2  0  0  0  0  0  0
  -24.8190  -31.1380   22.0000 N   0  0  0  0  0  0  0  0  0  0  0  0
  -23.7470  -31.9660   23.8180 O   0  0  0  0  0  0  0  0  0  0  0  0
  -22.9600  -29.4290   22.2980 C   0  0  0  0  0  0  0  0  0  0  0  0
  -21.6420  -29.2030   22.1720 N   0  0  0  0  0  0  0  0  0  0  0  0
  -23.6880  -28.7470   23.0240 O   0  0  0  0  0  0  0  0  0  0  0  0
  -21.1140  -29.8090   21.5590 H   0  0  0  0  0  0  0  0  0  0  0  0
  -18.3420  -27.7870   22.5370 C   0  0  0  0  0  0  0  0  0  0  0  0
  -20.8810  -28.1530   22.8450 C   0  0  0  0  0  3  0  0  0  0  0  0
  -21.0610  -26.7940   22.1310 C   0  0  0  0  0  2  0  0  0  0  0  0
  -19.9760  -26.5120   21.0860 C   0  0  0  0  0  2  0  0  0  0  0  0
  -18.5900  -26.5200   21.7360 C   0  0  0  0  0  2  0  0  0  0  0  0
  -19.4180  -28.5610   23.0450 C   0  0  0  0  0  0  0  0  0  0  0  0
  -19.1310  -29.7500   23.7530 C   0  0  0  0  0  3  0  0  0  0  0  0
  -17.8030  -30.1620   23.9600 C   0  0  0  0  0  3  0  0  0  0  0  0
  -16.7410  -29.3820   23.4710 C   0  0  0  0  0  3  0  0  0  0  0  0
  -17.0100  -28.1960   22.7640 C   0  0  0  0  0  3  0  0  0  0  0  0
  -26.1100  -32.3600   23.8340 C   0  0  0  0  0  3  0  0  0  0  0  0
  -25.7980  -33.6970   24.3560 N   0  0  0  0  0  0  0  0  0  0  0  0
  -26.1120  -34.8450   23.7410 C   0  0  0  0  0  0  0  0  0  0  0  0
  -26.7700  -34.8880   22.6970 O   0  0  0  0  0  0  0  0  0  0  0  0
  -25.2130  -33.7370   25.1780 H   0  0  0  0  0  0  0  0  0  0  0  0
  -24.3700  -36.6550   23.6440 C   0  0  0  0  0  1  0  0  0  0  0  0
  -25.6190  -36.1530   24.3860 C   0  0  0  0  0  3  0  0  0  0  0  0
  -27.7540  -36.9290   25.3180 C   0  0  0  0  0  1  0  0  0  0  0  0
  -26.6450  -37.2190   24.4130 N   0  0  0  0  0  0  0  0  0  0  0  0
  -26.2340  -38.1070   24.6870 H   0  0  0  0  0  0  0  0  0  0  0  0
  -26.7030  -31.4390   24.9690 C   0  0  1  0  0  0  0  0  0  0  0  0
  -25.6710  -31.0440   26.0510 C   0  0  0  0  0  1  0  0  0  0  0  0
  -27.2820  -30.1360   24.3690 C   0  0  0  0  0  1  0  0  0  0  0  0
  -27.8770  -32.1640   25.6700 C   0  0  0  0  0  1  0  0  0  0  0  0
  1  4  1  0
  2  5  1  0
  2  1  2  0
  3  6  1  0
  4  6  2  0
  4  9  1  0
  5  3  2  0
  6  8  1  0
  8  7  1  0
  9 10  2  0
 11  9  1  0
 12 13  1  0
 12 11  1  0
 14 15  1  0
 14 13  1  0
 16 24  1  0
 17 22  1  0
 18 19  1  0
 18 17  1  0
 20 19  1  0
 20 29  1  0
 20 21  1  0
 22 16  1  0
 22 21  1  0
 23 16  2  0
 24 15  1  0
 24 25  1  0
 26 27  2  0
 27 46  1  0
 28 27  1  0
 28 31  1  0
 29 30  1  0
 29 26  1  0
 30 28  2  0
 31 32  1  0
 32 33  2  0
 34 37  1  0
 34 33  1  0
 35 34  2  0
 36 35  1  0
 36 31  2  0
 37 38  1  0
 38 43  2  0
 38 39  1  0
 39 40  2  0
 40 41  1  0
 41 45  1  0
 42 41  2  0
 43 42  1  0
 44 43  1  0
 46 47  1  0
 47 50  1  0
 47 49  1  0
 48 46  2  0
 51 26  1  0
 51 52  1  0
 53 51  1  0
 54 56  1  0
 54  5  1  0
 55 66  2  0
 56 61  1  0
 57 65  1  0
 57 67  1  0
 58 64  1  0
 58 60  1  0
 59 65  1  0
 60 59  1  0
 61 60  2  0
 62 63  1  0
 62 56  2  0
 63 58  2  0
 64 57  1  0
 65 55  1  0
 67 69  2  0
 68 67  1  0
 70 68  1  0
 71 80  2  0
 71 76  1  0
 72 68  1  0
 72 76  1  0
 73 72  1  0
 74 75  1  0
 74 73  1  0
 75 71  1  0
 76 77  2  0
 77 78  1  0
 79 78  2  0
 80 79  1  0
 81 55  1  0
 81 82  1  0
 81 91  1  0
 82 85  1  0
 83 82  1  0
 83 87  1  0
 84 83  2  0
 87 86  1  0
 87 89  1  0
 89 90  1  0
 89 88  1  0
 91 94  1  1
 91 92  1  0
 93 91  1  0
M  ISO  4   5 101  16 100  24 100  54 101
M  END
>  <TORSDO>  (1) 
F 23

>  <SCORE>  (1) 
-8.009

>  <name>  (1) 
0

>  <ligand_id>  (1) 
0

>  <original_smiles>  (1) 
[H]c1c([H])c([H])c2c(c1[H])C([H])([H])C([H])([H])C([H])([H])C2([H])N([H])C(=O)C1([H])N(C(=O)C([H])(N([H])C(=O)C([H])(N([H])C([H])([H])[H])C([H])([H])[H])C(C([H])([H])[H])(C([H])([H])[H])C([H])([H])[H])C([H])([H])c2c([H])c(Oc3c([H])c([H])c(C(=O)C([H])([H])C([H])([H])C([H])([H])C([H])([H])C([H])([H])N([H])C(=O)N4C([H])([H])C([H])([H])C([H])([H])C([H])(n5nc(-c6c([H])c([H])c(Oc7c([H])c([H])c(F)c([H])c7F)c([H])c6[H])c(C(=O)N([H])[H])c5N([H])[H])C4([H])[H])c(OC([H])([H])[H])c3[H])c([H])c([H])c2C1([H])[H]

>  <smiles>  (1) 
[H]c1c([H])c([H])c2c(c1[H])C([H])([H])C([H])([H])C([H])([H])C2([H])N([H])C(=O)C1([H])N(C(=O)C([H])(N([H])C(=O)C([H])(N([H])C([H])([H])[H])C([H])([H])[H])C(C([H])([H])[H])(C([H])([H])[H])C([H])([H])[H])C([H])([H])c2c([H])c(Oc3c([H])c([H])c(C(=O)C([H])([H])C([H])([H])C([H])([H])C([H])([H])C([H])([H])N([H])C(=O)N4C([H])([H])C([H])([H])C([H])([H])C([H])(n5nc(-c6c([H])c([H])c(Oc7c([H])c([H])c(F)c([H])c7F)c([H])c6[H])c(C(=O)N([H])[H])c5N([H])[H])C4([H])[H])c(OC([H])([H])[H])c3[H])c([H])c([H])c2C1([H])[H]

$$$$
1:0:0
     RDKit          3D

 92100  0  0  1  0  0  0  0  0999 V2000
  -29.4270  -22.7640   18.4480 C   0  0  0  0  0  3  0  0  0  0  0  0
  -29.5350  -23.9880   17.7520 C   0  0  0  0  0  3  0  0  0  0  0  0
  -28.4590  -23.9710   20.3240 C   0  0  0  0  0  3  0  0  0  0  0  0
  -28.8880  -22.7040   19.7530 C   0  0  0  0  0  0  0  0  0  0  0  0
  -29.1210  -25.2120   18.3300 C   0  0  0  0  0  0  0  0  0  0  0  0
  -28.5680  -25.2390   19.6310 C   0  0  0  0  0  0  0  0  0  0  0  0
  -28.7800  -21.3270   20.4710 C   0  0  0  0  0  0  0  0  0  0  0  0
  -28.1530  -21.2220   21.5260 O   0  0  0  0  0  0  0  0  0  0  0  0
  -29.4820  -20.0080   19.9000 C   0  0  0  0  0  2  0  0  0  0  0  0
  -29.2060  -18.5490   20.5500 C   0  0  0  0  0  3  0  0  0  0  0  0
  -30.1020  -17.2990   20.0510 C   0  0  0  0  0  3  0  0  0  0  0  0
  -30.5970  -14.7460   20.3090 C   0  0  0  0  0  0  0  0  0  0  0  0
  -30.3860  -12.4910   19.2830 C   0  0  0  0  0  2  0  0  0  0  0  0
  -29.4490  -12.6390   18.0640 C   0  0  0  0  0  2  0  0  0  0  0  0
  -27.9770  -12.4670   18.4800 C   0  0  0  0  0  2  0  0  0  0  0  0
  -27.6180  -13.3100   19.7340 C   0  0  0  0  0  3  0  0  0  0  0  0
  -28.6770  -13.1790   20.8510 C   0  0  0  0  0  2  0  0  0  0  0  0
  -29.9780  -13.5210   20.2650 N   0  0  0  0  0  0  0  0  0  0  0  0
  -31.7710  -14.8610   19.9520 O   0  0  0  0  0  0  0  0  0  0  0  0
  -29.8100  -15.8720   20.5080 N   0  0  0  0  0  0  0  0  0  0  0  0
  -28.8660  -15.6920   20.8220 H   0  0  0  0  0  0  0  0  0  0  0  0
  -25.2280  -13.9010   20.4390 C   0  0  0  0  0  0  0  0  0  0  0  0
  -24.1630  -13.1270   20.8130 C   0  0  0  0  0  0  0  0  0  0  0  0
  -24.6290  -11.7770   20.7970 C   0  0  0  0  0  0  0  0  0  0  0  0
  -26.2740  -13.0210   20.2190 N   0  0  0  0  0  0  0  0  0  0  0  0
  -25.9200  -11.7380   20.4930 N   0  0  0  0  0  0  0  0  0  0  0  0
  -23.9010  -10.5170   20.9940 C   0  0  0  0  0  0  0  0  0  0  0  0
  -24.3290   -9.5580   21.9360 C   0  0  0  0  0  3  0  0  0  0  0  0
  -23.6040   -8.3600   22.1220 C   0  0  0  0  0  3  0  0  0  0  0  0
  -22.4330   -8.1140   21.3630 C   0  0  0  0  0  0  0  0  0  0  0  0
  -22.0250   -9.0610   20.4060 C   0  0  0  0  0  3  0  0  0  0  0  0
  -22.7530  -10.2510   20.2210 C   0  0  0  0  0  3  0  0  0  0  0  0
  -21.6790   -6.9690   21.4580 O   0  0  0  0  0  0  0  0  0  0  0  0
  -21.6210   -6.2390   22.6170 C   0  0  0  0  0  0  0  0  0  0  0  0
  -21.1880   -6.8040   23.8360 C   0  0  0  0  0  3  0  0  0  0  0  0
  -21.0830   -6.0000   24.9890 C   0  0  0  0  0  3  0  0  0  0  0  0
  -21.3960   -4.6280   24.9210 C   0  0  0  0  0  0  0  0  0  0  0  0
  -21.8170   -4.0620   23.7070 C   0  0  0  0  0  3  0  0  0  0  0  0
  -21.9290   -4.8650   22.5580 C   0  0  0  0  0  0  0  0  0  0  0  0
  -22.3160   -4.3080   21.3850 F   0  0  0  0  0  0  0  0  0  0  0  0
  -21.2840   -3.8520   26.0260 F   0  0  0  0  0  0  0  0  0  0  0  0
  -22.7670  -13.6040   21.0730 C   0  0  0  0  0  0  0  0  0  0  0  0
  -22.0370  -12.9150   21.9450 N   0  0  0  0  0  0  0  0  0  0  0  0
  -22.3290  -14.6220   20.5390 O   0  0  0  0  0  0  0  0  0  0  0  0
  -22.4020  -12.0920   22.4000 H   0  0  0  0  0  0  0  0  0  0  0  0
  -21.0960  -13.2150   22.1620 H   0  0  0  0  0  0  0  0  0  0  0  0
  -25.3840  -15.2690   20.2420 N   0  0  0  0  0  0  0  0  0  0  0  0
  -24.5890  -15.9000   20.2630 H   0  0  0  0  0  0  0  0  0  0  0  0
  -26.2250  -15.7070   19.8850 H   0  0  0  0  0  0  0  0  0  0  0  0
  -30.6040  -26.7090   17.2690 C   0  0  0  0  0  1  0  0  0  0  0  0
  -29.2710  -26.4030   17.6590 O   0  0  0  0  0  0  0  0  0  0  0  0
  -28.3770  -26.5190   20.2090 O   0  0  0  0  0  0  0  0  0  0  0  0
  -24.6110  -31.8650   23.1970 C   0  0  0  0  0  0  0  0  0  0  0  0
  -27.2350  -27.3280   20.1040 C   0  0  0  0  0  0  0  0  0  0  0  0
  -23.4080  -30.4690   21.5500 C   0  0  0  0  0  3  0  0  0  0  0  0
  -24.8570  -28.9200   20.1110 C   0  0  0  0  0  0  0  0  0  0  0  0
  -25.9440  -30.7920   21.3660 C   0  0  0  0  0  2  0  0  0  0  0  0
  -26.0210  -29.4160   20.7090 C   0  0  0  0  0  0  0  0  0  0  0  0
  -27.2070  -28.6290   20.6980 C   0  0  0  0  0  3  0  0  0  0  0  0
  -26.0500  -26.8740   19.4870 C   0  0  0  0  0  3  0  0  0  0  0  0
  -24.8730  -27.6540   19.4920 C   0  0  0  0  0  3  0  0  0  0  0  0
  -23.6220  -29.7930   20.1670 C   0  0  0  0  0  2  0  0  0  0  0  0
  -24.6730  -31.0600   22.0960 N   0  0  0  0  0  0  0  0  0  0  0  0
  -23.5290  -32.1370   23.7330 O   0  0  0  0  0  0  0  0  0  0  0  0
  -22.7490  -29.4510   22.5110 C   0  0  0  0  0  0  0  0  0  0  0  0
  -21.4200  -29.2830   22.3940 N   0  0  0  0  0  0  0  0  0  0  0  0
  -23.4300  -28.8180   23.3190 O   0  0  0  0  0  0  0  0  0  0  0  0
  -20.9300  -29.8500   21.7190 H   0  0  0  0  0  0  0  0  0  0  0  0
  -18.0430  -28.0940   22.9070 C   0  0  0  0  0  0  0  0  0  0  0  0
  -20.6040  -28.3430   23.1620 C   0  0  0  0  0  3  0  0  0  0  0  0
  -20.6990  -26.9160   22.5760 C   0  0  0  0  0  2  0  0  0  0  0  0
  -19.5890  -26.6030   21.5670 C   0  0  0  0  0  2  0  0  0  0  0  0
  -18.2120  -26.7490   22.2190 C   0  0  0  0  0  2  0  0  0  0  0  0
  -19.1670  -28.8480   23.3360 C   0  0  0  0  0  0  0  0  0  0  0  0
  -18.9560  -30.1050   23.9430 C   0  0  0  0  0  3  0  0  0  0  0  0
  -17.6550  -30.6090   24.1230 C   0  0  0  0  0  3  0  0  0  0  0  0
  -16.5460  -29.8530   23.7080 C   0  0  0  0  0  3  0  0  0  0  0  0
  -16.7400  -28.5970   23.1060 C   0  0  0  0  0  3  0  0  0  0  0  0
  -25.8950  -32.4950   23.8250 C   0  0  0  0  0  3  0  0  0  0  0  0
  -25.5840  -33.8930   24.1620 N   0  0  0  0  0  0  0  0  0  0  0  0
  -25.9220  -34.9510   23.4120 C   0  0  0  0  0  0  0  0  0  0  0  0
  -26.5960  -34.8510   22.3820 O   0  0  0  0  0  0  0  0  0  0  0  0
  -24.9820  -34.0440   24.9590 H   0  0  0  0  0  0  0  0  0  0  0  0
  -24.1990  -36.7510   23.0670 C   0  0  0  0  0  1  0  0  0  0  0  0
  -25.4380  -36.3370   23.8780 C   0  0  0  0  0  3  0  0  0  0  0  0
  -27.5780  -37.2100   24.7120 C   0  0  0  0  0  1  0  0  0  0  0  0
  -26.4720  -37.3910   23.7750 N   0  0  0  0  0  0  0  0  0  0  0  0
  -26.0680  -38.3090   23.9350 H   0  0  0  0  0  0  0  0  0  0  0  0
  -26.4080  -31.7210   25.1010 C   0  0  1  0  0  0  0  0  0  0  0  0
  -25.3120  -31.4870   26.1680 C   0  0  0  0  0  1  0  0  0  0  0  0
  -26.9900  -30.3430   24.7090 C   0  0  0  0  0  1  0  0  0  0  0  0
  -27.5580  -32.5110   25.7650 C   0  0  0  0  0  1  0  0  0  0  0  0
  1  4  1  0
  2  5  1  0
  2  1  2  0
  4  3  2  0
  4  7  1  0
  5  6  2  0
  6 52  1  0
  6  3  1  0
  7  8  2  0
  9  7  1  0
  9 10  1  0
 11 20  1  0
 11 10  2  0
 12 20  1  0
 13 18  1  0
 14 15  1  0
 14 13  1  0
 16 15  1  0
 16 25  1  0
 16 17  1  0
 18 12  1  0
 18 17  1  0
 19 12  2  0
 20 21  1  0
 22 23  2  0
 23 42  1  0
 24 23  1  0
 24 27  1  0
 25 22  1  0
 25 26  1  0
 26 24  2  0
 27 28  1  0
 28 29  2  0
 30 33  1  0
 30 29  1  0
 31 30  2  0
 32 31  1  0
 32 27  2  0
 33 34  1  0
 34 35  1  0
 35 36  2  0
 37 36  1  0
 37 41  1  0
 38 37  2  0
 39 34  2  0
 39 38  1  0
 40 39  1  0
 42 43  1  0
 43 46  1  0
 43 45  1  0
 44 42  2  0
 47 48  1  0
 47 22  1  0
 49 47  1  0
 50 51  1  0
 51  5  1  0
 53 64  2  0
 54 52  1  0
 54 59  1  0
 55 63  1  0
 55 65  1  0
 56 62  1  0
 56 58  1  0
 57 63  1  0
 58 57  1  0
 59 58  2  0
 60 61  1  0
 60 54  2  0
 61 56  2  0
 62 55  1  0
 63 53  1  0
 65 67  2  0
 66 65  1  0
 68 66  1  0
 69 78  2  0
 69 74  1  0
 70 66  1  0
 70 74  1  0
 71 70  1  0
 72 73  1  0
 72 71  1  0
 73 69  1  0
 74 75  2  0
 75 76  1  0
 77 76  2  0
 78 77  1  0
 79 53  1  0
 79 80  1  0
 79 89  1  0
 80 83  1  0
 81 85  1  0
 81 80  1  0
 82 81  2  0
 85 84  1  0
 87 85  1  0
 87 88  1  0
 87 86  1  0
 89 92  1  1
 89 90  1  0
 91 89  1  0
M  ISO  4   6 101  12 100  20 100  52 101
M  END
>  <TORSDO>  (2) 
F 21

>  <SCORE>  (2) 
-13.383

>  <name>  (2) 
1

>  <ligand_id>  (2) 
1

>  <original_smiles>  (2) 
[H]c1c([H])c([H])c2c(c1[H])C([H])([H])C([H])([H])C([H])([H])C2([H])N([H])C(=O)C1([H])N(C(=O)C([H])(N([H])C(=O)C([H])(N([H])C([H])([H])[H])C([H])([H])[H])C(C([H])([H])[H])(C([H])([H])[H])C([H])([H])[H])C([H])([H])c2c([H])c(Oc3c([H])c(C(=O)C([H])([H])C([H])([H])C([H])([H])N([H])C(=O)N4C([H])([H])C([H])([H])C([H])([H])C([H])(n5nc(-c6c([H])c([H])c(Oc7c([H])c([H])c(F)c([H])c7F)c([H])c6[H])c(C(=O)N([H])[H])c5N([H])[H])C4([H])[H])c([H])c([H])c3OC([H])([H])[H])c([H])c([H])c2C1([H])[H]

>  <smiles>  (2) 
[H]c1c([H])c([H])c2c(c1[H])C([H])([H])C([H])([H])C([H])([H])C2([H])N([H])C(=O)C1([H])N(C(=O)C([H])(N([H])C(=O)C([H])(N([H])C([H])([H])[H])C([H])([H])[H])C(C([H])([H])[H])(C([H])([H])[H])C([H])([H])[H])C([H])([H])c2c([H])c(Oc3c([H])c(C(=O)C([H])([H])C([H])([H])C([H])([H])N([H])C(=O)N4C([H])([H])C([H])([H])C([H])([H])C([H])(n5nc(-c6c([H])c([H])c(Oc7c([H])c([H])c(F)c([H])c7F)c([H])c6[H])c(C(=O)N([H])[H])c5N([H])[H])C4([H])[H])c([H])c([H])c3OC([H])([H])[H])c([H])c([H])c2C1([H])[H]

$$$$
2:0:0
     RDKit          3D

 90 98  0  0  1  0  0  0  0  0999 V2000
  -27.5440  -22.0020   20.5710 C   0  0  0  0  0  3  0  0  0  0  0  0
  -27.3420  -23.4740   20.5610 C   0  0  0  0  0  3  0  0  0  0  0  0
  -29.7460  -22.2440   19.9940 C   0  0  0  0  0  3  0  0  0  0  0  0
  -28.7540  -21.2200   20.3010 C   0  0  0  0  0  0  0  0  0  0  0  0
  -28.3330  -24.4900   20.2550 C   0  0  0  0  0  0  0  0  0  0  0  0
  -29.5610  -23.7360   19.9730 C   0  0  0  0  0  0  0  0  0  0  0  0
  -28.7850  -19.4970   20.3420 C   0  0  0  0  0  0  0  0  0  0  0  0
  -27.6650  -18.9960   20.4910 O   0  0  0  0  0  0  0  0  0  0  0  0
  -29.9590  -18.2300   20.2400 C   0  0  0  0  0  2  0  0  0  0  0  0
  -30.4550  -15.3340   20.2050 C   0  0  0  0  0  0  0  0  0  0  0  0
  -30.4150  -12.9070   19.3000 C   0  0  0  0  0  2  0  0  0  0  0  0
  -29.4670  -12.7220   18.0900 C   0  0  0  0  0  2  0  0  0  0  0  0
  -28.0300  -12.4430   18.5630 C   0  0  0  0  0  2  0  0  0  0  0  0
  -27.6020  -13.3860   19.7160 C   0  0  0  0  0  3  0  0  0  0  0  0
  -28.6770  -13.5200   20.8150 C   0  0  0  0  0  2  0  0  0  0  0  0
  -29.8900  -14.0300   20.1590 N   0  0  0  0  0  0  0  0  0  0  0  0
  -31.6640  -15.3510   19.9400 O   0  0  0  0  0  0  0  0  0  0  0  0
  -29.6880  -16.5880   20.3430 N   0  0  0  0  0  0  0  0  0  0  0  0
  -28.7130  -16.4020   20.5230 H   0  0  0  0  0  0  0  0  0  0  0  0
  -25.2480  -13.9140   20.5430 C   0  0  0  0  0  0  0  0  0  0  0  0
  -24.2010  -13.1210   20.9230 C   0  0  0  0  0  0  0  0  0  0  0  0
  -24.6750  -11.7760   20.8480 C   0  0  0  0  0  0  0  0  0  0  0  0
  -26.2900  -13.0500   20.2530 N   0  0  0  0  0  0  0  0  0  0  0  0
  -25.9590  -11.7570   20.5040 N   0  0  0  0  0  0  0  0  0  0  0  0
  -23.9590  -10.5050   21.0270 C   0  0  0  0  0  0  0  0  0  0  0  0
  -24.3920   -9.5370   21.9600 C   0  0  0  0  0  3  0  0  0  0  0  0
  -23.6720   -8.3340   22.1280 C   0  0  0  0  0  3  0  0  0  0  0  0
  -22.5060   -8.0900   21.3630 C   0  0  0  0  0  0  0  0  0  0  0  0
  -22.0930   -9.0480   20.4200 C   0  0  0  0  0  3  0  0  0  0  0  0
  -22.8130  -10.2420   20.2500 C   0  0  0  0  0  3  0  0  0  0  0  0
  -21.7600   -6.9380   21.4410 O   0  0  0  0  0  0  0  0  0  0  0  0
  -21.6690   -6.2170   22.6040 C   0  0  0  0  0  0  0  0  0  0  0  0
  -21.1480   -6.7780   23.7900 C   0  0  0  0  0  3  0  0  0  0  0  0
  -21.0070   -5.9810   24.9440 C   0  0  0  0  0  3  0  0  0  0  0  0
  -21.3770   -4.6230   24.9110 C   0  0  0  0  0  0  0  0  0  0  0  0
  -21.8900   -4.0600   23.7290 C   0  0  0  0  0  3  0  0  0  0  0  0
  -22.0330   -4.8560   22.5770 C   0  0  0  0  0  0  0  0  0  0  0  0
  -22.5070   -4.3030   21.4350 F   0  0  0  0  0  0  0  0  0  0  0  0
  -21.2340   -3.8540   26.0160 F   0  0  0  0  0  0  0  0  0  0  0  0
  -22.8080  -13.5850   21.2340 C   0  0  0  0  0  0  0  0  0  0  0  0
  -22.1090  -12.8740   22.1110 N   0  0  0  0  0  0  0  0  0  0  0  0
  -22.3530  -14.6150   20.7390 O   0  0  0  0  0  0  0  0  0  0  0  0
  -22.4920  -12.0430   22.5360 H   0  0  0  0  0  0  0  0  0  0  0  0
  -21.1760  -13.1660   22.3630 H   0  0  0  0  0  0  0  0  0  0  0  0
  -25.3980  -15.2890   20.3920 N   0  0  0  0  0  0  0  0  0  0  0  0
  -24.6310  -15.9340   20.5440 H   0  0  0  0  0  0  0  0  0  0  0  0
  -26.2260  -15.7410   20.0280 H   0  0  0  0  0  0  0  0  0  0  0  0
  -31.8980  -24.0220   19.4090 C   0  0  0  0  0  1  0  0  0  0  0  0
  -30.6150  -24.5760   19.6700 O   0  0  0  0  0  0  0  0  0  0  0  0
  -28.2670  -26.0240   20.2790 O   0  0  0  0  0  0  0  0  0  0  0  0
  -24.6440  -31.9210   23.2560 C   0  0  0  0  0  0  0  0  0  0  0  0
  -27.1960  -27.0480   20.2660 C   0  0  0  0  0  0  0  0  0  0  0  0
  -23.4470  -30.5220   21.6200 C   0  0  0  0  0  3  0  0  0  0  0  0
  -24.8920  -28.9060   20.2090 C   0  0  0  0  0  0  0  0  0  0  0  0
  -26.0100  -30.7330   21.4740 C   0  0  0  0  0  2  0  0  0  0  0  0
  -26.0750  -29.3210   20.8300 C   0  0  0  0  0  0  0  0  0  0  0  0
  -27.2200  -28.4110   20.8340 C   0  0  0  0  0  3  0  0  0  0  0  0
  -25.9830  -26.7710   19.5980 C   0  0  0  0  0  3  0  0  0  0  0  0
  -24.8670  -27.6510   19.5750 C   0  0  0  0  0  3  0  0  0  0  0  0
  -23.6740  -29.8290   20.2480 C   0  0  0  0  0  2  0  0  0  0  0  0
  -24.7220  -31.0860   22.1700 N   0  0  0  0  0  0  0  0  0  0  0  0
  -23.5560  -32.2150   23.7760 O   0  0  0  0  0  0  0  0  0  0  0  0
  -22.7510  -29.5310   22.5890 C   0  0  0  0  0  0  0  0  0  0  0  0
  -21.4220  -29.3620   22.4560 N   0  0  0  0  0  0  0  0  0  0  0  0
  -23.4120  -28.9130   23.4270 O   0  0  0  0  0  0  0  0  0  0  0  0
  -20.9400  -29.9120   21.7590 H   0  0  0  0  0  0  0  0  0  0  0  0
  -18.0390  -28.1570   22.9570 C   0  0  0  0  0  0  0  0  0  0  0  0
  -20.5970  -28.4290   23.2300 C   0  0  0  0  0  3  0  0  0  0  0  0
  -20.7030  -26.9930   22.6650 C   0  0  0  0  0  2  0  0  0  0  0  0
  -19.6050  -26.6630   21.6480 C   0  0  0  0  0  2  0  0  0  0  0  0
  -18.2220  -26.8060   22.2860 C   0  0  0  0  0  2  0  0  0  0  0  0
  -19.1530  -28.9250   23.3870 C   0  0  0  0  0  0  0  0  0  0  0  0
  -18.9270  -30.1880   23.9780 C   0  0  0  0  0  3  0  0  0  0  0  0
  -17.6190  -30.6820   24.1410 C   0  0  0  0  0  3  0  0  0  0  0  0
  -16.5190  -29.9110   23.7250 C   0  0  0  0  0  3  0  0  0  0  0  0
  -16.7300  -28.6500   23.1400 C   0  0  0  0  0  3  0  0  0  0  0  0
  -25.9170  -32.5610   23.8890 C   0  0  0  0  0  3  0  0  0  0  0  0
  -26.4170  -31.8000   25.1790 C   0  0  1  0  0  0  0  0  0  0  0  0
  -25.3120  -31.5780   26.2390 C   0  0  0  0  0  1  0  0  0  0  0  0
  -27.0000  -30.4160   24.8140 C   0  0  0  0  0  1  0  0  0  0  0  0
  -27.5650  -32.5980   25.8450 C   0  0  0  0  0  1  0  0  0  0  0  0
  -25.6040  -33.9630   24.2180 N   0  0  0  0  0  0  0  0  0  0  0  0
  -25.9110  -35.0190   23.4540 C   0  0  0  0  0  0  0  0  0  0  0  0
  -26.5510  -34.9160   22.4030 O   0  0  0  0  0  0  0  0  0  0  0  0
  -25.0270  -34.1150   25.0330 H   0  0  0  0  0  0  0  0  0  0  0  0
  -24.1590  -36.8070   23.1720 C   0  0  0  0  0  1  0  0  0  0  0  0
  -25.4390  -36.4090   23.9260 C   0  0  0  0  0  3  0  0  0  0  0  0
  -27.5970  -37.3250   24.6590 C   0  0  0  0  0  1  0  0  0  0  0  0
  -26.4590  -37.4680   23.7560 N   0  0  0  0  0  0  0  0  0  0  0  0
  -26.0520  -38.3890   23.9000 H   0  0  0  0  0  0  0  0  0  0  0  0
  2  1  1  0
  3  4  1  0
  4  7  1  0
  4  1  2  0
  5 50  1  0
  5  2  2  0
  6  3  2  0
  6  5  1  0
  7  8  2  0
  9  7  1  0
  9 18  1  0
 10 18  1  0
 11 16  1  0
 12 13  1  0
 12 11  1  0
 14 13  1  0
 14 23  1  0
 14 15  1  0
 16 10  1  0
 16 15  1  0
 17 10  2  0
 18 19  1  0
 20 21  2  0
 21 40  1  0
 22 21  1  0
 22 25  1  0
 23 24  1  0
 23 20  1  0
 24 22  2  0
 25 26  1  0
 26 27  2  0
 28 31  1  0
 28 27  1  0
 29 28  2  0
 30 29  1  0
 30 25  2  0
 31 32  1  0
 32 33  1  0
 33 34  2  0
 35 34  1  0
 35 39  1  0
 36 35  2  0
 37 32  2  0
 37 36  1  0
 38 37  1  0
 40 41  1  0
 41 44  1  0
 41 43  1  0
 42 40  2  0
 45 20  1  0
 45 46  1  0
 47 45  1  0
 48 49  1  0
 49  6  1  0
 51 62  2  0
 52 50  1  0
 52 57  1  0
 53 61  1  0
 53 63  1  0
 54 60  1  0
 54 56  1  0
 55 61  1  0
 56 57  2  0
 56 55  1  0
 58 52  2  0
 59 58  1  0
 59 54  2  0
 60 53  1  0
 61 51  1  0
 63 65  2  0
 64 63  1  0
 66 64  1  0
 67 76  2  0
 67 72  1  0
 68 64  1  0
 68 72  1  0
 69 68  1  0
 70 71  1  0
 70 69  1  0
 71 67  1  0
 72 73  2  0
 73 74  1  0
 75 74  2  0
 76 75  1  0
 77 51  1  0
 77 82  1  0
 77 78  1  0
 78 81  1  1
 78 79  1  0
 80 78  1  0
 82 85  1  0
 83 87  1  0
 83 82  1  0
 84 83  2  0
 87 86  1  0
 89 90  1  0
 89 87  1  0
 89 88  1  0
M  ISO  4   5 101  10 100  18 100  50 101
M  END
>  <TORSDO>  (3) 
F 19

>  <SCORE>  (3) 
-15.215

>  <name>  (3) 
2

>  <ligand_id>  (3) 
2

>  <original_smiles>  (3) 
[H]c1c([H])c([H])c2c(c1[H])C([H])([H])C([H])([H])C([H])([H])C2([H])N([H])C(=O)C1([H])N(C(=O)C([H])(N([H])C(=O)C([H])(N([H])C([H])([H])[H])C([H])([H])[H])C(C([H])([H])[H])(C([H])([H])[H])C([H])([H])[H])C([H])([H])c2c([H])c(Oc3c([H])c([H])c(C(=O)C([H])([H])N([H])C(=O)N4C([H])([H])C([H])([H])C([H])([H])C([H])(n5nc(-c6c([H])c([H])c(Oc7c([H])c([H])c(F)c([H])c7F)c([H])c6[H])c(C(=O)N([H])[H])c5N([H])[H])C4([H])[H])c([H])c3OC([H])([H])[H])c([H])c([H])c2C1([H])[H]

>  <smiles>  (3) 
[H]c1c([H])c([H])c2c(c1[H])C([H])([H])C([H])([H])C([H])([H])C2([H])N([H])C(=O)C1([H])N(C(=O)C([H])(N([H])C(=O)C([H])(N([H])C([H])([H])[H])C([H])([H])[H])C(C([H])([H])[H])(C([H])([H])[H])C([H])([H])[H])C([H])([H])c2c([H])c(Oc3c([H])c([H])c(C(=O)C([H])([H])N([H])C(=O)N4C([H])([H])C([H])([H])C([H])([H])C([H])(n5nc(-c6c([H])c([H])c(Oc7c([H])c([H])c(F)c([H])c7F)c([H])c6[H])c(C(=O)N([H])[H])c5N([H])[H])C4([H])[H])c([H])c3OC([H])([H])[H])c([H])c([H])c2C1([H])[H]

$$$$
3:0:0
     RDKit          3D

 92100  0  0  1  0  0  0  0  0999 V2000
  -30.8430  -19.7360   20.1730 C   0  0  0  0  0  3  0  0  0  0  0  0
  -30.3170  -21.0580   20.1270 C   0  0  0  0  0  3  0  0  0  0  0  0
  -28.6770  -18.8100   19.7080 C   0  0  0  0  0  3  0  0  0  0  0  0
  -30.0510  -18.5750   19.9430 C   0  0  0  0  0  0  0  0  0  0  0  0
  -28.9520  -21.3000   19.8330 C   0  0  0  0  0  0  0  0  0  0  0  0
  -28.1420  -20.1330   19.6390 C   0  0  0  0  0  0  0  0  0  0  0  0
  -31.0540  -17.0230   18.2630 C   0  0  0  0  0  1  0  0  0  0  0  0
  -30.7720  -17.1890   19.7710 C   0  0  0  0  0  3  0  0  0  0  0  0
  -30.9230  -14.7040   20.2320 C   0  0  0  0  0  0  0  0  0  0  0  0
  -30.6070  -12.4660   19.2300 C   0  0  0  0  0  2  0  0  0  0  0  0
  -29.6770  -12.5990   18.0060 C   0  0  0  0  0  2  0  0  0  0  0  0
  -28.2050  -12.4680   18.4390 C   0  0  0  0  0  2  0  0  0  0  0  0
  -27.8570  -13.3570   19.6640 C   0  0  0  0  0  3  0  0  0  0  0  0
  -28.9170  -13.2480   20.7820 C   0  0  0  0  0  2  0  0  0  0  0  0
  -30.2250  -13.5300   20.1820 N   0  0  0  0  0  0  0  0  0  0  0  0
  -32.1190  -14.7300   19.9340 O   0  0  0  0  0  0  0  0  0  0  0  0
  -30.2260  -15.8860   20.3060 N   0  0  0  0  0  0  0  0  0  0  0  0
  -29.2430  -15.8390   20.5210 H   0  0  0  0  0  0  0  0  0  0  0  0
  -25.4810  -13.9780   20.4110 C   0  0  0  0  0  0  0  0  0  0  0  0
  -24.4050  -13.2170   20.7790 C   0  0  0  0  0  0  0  0  0  0  0  0
  -24.8480  -11.8590   20.7310 C   0  0  0  0  0  0  0  0  0  0  0  0
  -26.5100  -13.0870   20.1590 N   0  0  0  0  0  0  0  0  0  0  0  0
  -26.1360  -11.8060   20.4160 N   0  0  0  0  0  0  0  0  0  0  0  0
  -24.1040  -10.6050   20.9110 C   0  0  0  0  0  0  0  0  0  0  0  0
  -24.5280   -9.6190   21.8280 C   0  0  0  0  0  3  0  0  0  0  0  0
  -23.7850   -8.4310   21.9980 C   0  0  0  0  0  3  0  0  0  0  0  0
  -22.6020   -8.2220   21.2490 C   0  0  0  0  0  0  0  0  0  0  0  0
  -22.1950   -9.1970   20.3220 C   0  0  0  0  0  3  0  0  0  0  0  0
  -22.9390  -10.3770   20.1510 C   0  0  0  0  0  3  0  0  0  0  0  0
  -21.8280   -7.0880   21.3290 O   0  0  0  0  0  0  0  0  0  0  0  0
  -21.7810   -6.3280   22.4700 C   0  0  0  0  0  0  0  0  0  0  0  0
  -21.3760   -6.8690   23.7110 C   0  0  0  0  0  3  0  0  0  0  0  0
  -21.2760   -6.0370   24.8430 C   0  0  0  0  0  3  0  0  0  0  0  0
  -21.5690   -4.6640   24.7360 C   0  0  0  0  0  0  0  0  0  0  0  0
  -21.9660   -4.1220   23.5010 C   0  0  0  0  0  3  0  0  0  0  0  0
  -22.0690   -4.9520   22.3710 C   0  0  0  0  0  0  0  0  0  0  0  0
  -22.4320   -4.4220   21.1780 F   0  0  0  0  0  0  0  0  0  0  0  0
  -21.4650   -3.8610   25.8210 F   0  0  0  0  0  0  0  0  0  0  0  0
  -23.0170  -13.7120   21.0630 C   0  0  0  0  0  0  0  0  0  0  0  0
  -22.2860  -13.0230   21.9320 N   0  0  0  0  0  0  0  0  0  0  0  0
  -22.5900  -14.7440   20.5490 O   0  0  0  0  0  0  0  0  0  0  0  0
  -22.6450  -12.1860   22.3680 H   0  0  0  0  0  0  0  0  0  0  0  0
  -21.3550  -13.3380   22.1640 H   0  0  0  0  0  0  0  0  0  0  0  0
  -25.6630  -15.3480   20.2440 N   0  0  0  0  0  0  0  0  0  0  0  0
  -24.9000  -16.0070   20.3590 H   0  0  0  0  0  0  0  0  0  0  0  0
  -26.5040  -15.7780   19.8830 H   0  0  0  0  0  0  0  0  0  0  0  0
  -26.4740  -20.8660   18.1380 C   0  0  0  0  0  1  0  0  0  0  0  0
  -26.7990  -20.2350   19.3700 O   0  0  0  0  0  0  0  0  0  0  0  0
  -28.3670  -22.5780   19.7220 O   0  0  0  0  0  0  0  0  0  0  0  0
  -29.0790  -23.8560   19.8400 C   0  0  0  0  0  2  0  0  0  0  0  0
  -28.1370  -25.0650   19.4200 C   0  0  0  0  0  2  0  0  0  0  0  0
  -28.3890  -26.4870   19.7690 O   0  0  0  0  0  0  0  0  0  0  0  0
  -24.5470  -31.6180   23.0960 C   0  0  0  0  0  0  0  0  0  0  0  0
  -27.2680  -27.3390   19.7500 C   0  0  0  0  0  0  0  0  0  0  0  0
  -23.3820  -30.3050   21.3640 C   0  0  0  0  0  3  0  0  0  0  0  0
  -24.8710  -28.9000   19.8380 C   0  0  0  0  0  0  0  0  0  0  0  0
  -25.9150  -30.6960   21.2120 C   0  0  0  0  0  2  0  0  0  0  0  0
  -26.0290  -29.3690   20.4730 C   0  0  0  0  0  0  0  0  0  0  0  0
  -27.2310  -28.6010   20.4220 C   0  0  0  0  0  3  0  0  0  0  0  0
  -26.0840  -26.9390   19.0830 C   0  0  0  0  0  3  0  0  0  0  0  0
  -24.9010  -27.6910   19.1350 C   0  0  0  0  0  3  0  0  0  0  0  0
  -23.6140  -29.7360   19.9410 C   0  0  0  0  0  2  0  0  0  0  0  0
  -24.6330  -30.8870   21.9480 N   0  0  0  0  0  0  0  0  0  0  0  0
  -23.4550  -31.8340   23.6420 O   0  0  0  0  0  0  0  0  0  0  0  0
  -22.7440  -29.2060   22.2480 C   0  0  0  0  0  0  0  0  0  0  0  0
  -21.4180  -29.0250   22.1250 N   0  0  0  0  0  0  0  0  0  0  0  0
  -23.4400  -28.5240   23.0050 O   0  0  0  0  0  0  0  0  0  0  0  0
  -20.9160  -29.6300   21.4890 H   0  0  0  0  0  0  0  0  0  0  0  0
  -18.0520  -27.7980   22.6150 C   0  0  0  0  0  0  0  0  0  0  0  0
  -20.6180  -28.0250   22.8320 C   0  0  0  0  0  3  0  0  0  0  0  0
  -20.6960  -26.6510   22.1290 C   0  0  0  0  0  2  0  0  0  0  0  0
  -19.5640  -26.4220   21.1220 C   0  0  0  0  0  2  0  0  0  0  0  0
  -18.2020  -26.5130   21.8160 C   0  0  0  0  0  2  0  0  0  0  0  0
  -19.1860  -28.5150   23.0780 C   0  0  0  0  0  0  0  0  0  0  0  0
  -18.9900  -29.7210   23.7850 C   0  0  0  0  0  3  0  0  0  0  0  0
  -17.6940  -30.2100   24.0340 C   0  0  0  0  0  3  0  0  0  0  0  0
  -16.5750  -29.4870   23.5860 C   0  0  0  0  0  3  0  0  0  0  0  0
  -16.7540  -28.2830   22.8820 C   0  0  0  0  0  3  0  0  0  0  0  0
  -25.8120  -32.2390   23.7630 C   0  0  0  0  0  3  0  0  0  0  0  0
  -25.4830  -33.6220   24.1350 N   0  0  0  0  0  0  0  0  0  0  0  0
  -25.7970  -34.7020   23.4080 C   0  0  0  0  0  0  0  0  0  0  0  0
  -26.4650  -34.6390   22.3720 O   0  0  0  0  0  0  0  0  0  0  0  0
  -24.8890  -33.7440   24.9430 H   0  0  0  0  0  0  0  0  0  0  0  0
  -24.0320  -36.4720   23.1240 C   0  0  0  0  0  1  0  0  0  0  0  0
  -25.2910  -36.0690   23.9080 C   0  0  0  0  0  3  0  0  0  0  0  0
  -27.4170  -36.9740   24.7390 C   0  0  0  0  0  1  0  0  0  0  0  0
  -26.3040  -37.1430   23.8100 N   0  0  0  0  0  0  0  0  0  0  0  0
  -25.8820  -38.0520   23.9810 H   0  0  0  0  0  0  0  0  0  0  0  0
  -26.3100  -31.4270   25.0220 C   0  0  1  0  0  0  0  0  0  0  0  0
  -25.2000  -31.1530   26.0640 C   0  0  0  0  0  1  0  0  0  0  0  0
  -26.9030  -30.0640   24.5960 C   0  0  0  0  0  1  0  0  0  0  0  0
  -27.4470  -32.2030   25.7280 C   0  0  0  0  0  1  0  0  0  0  0  0
  2  1  1  0
  3  4  1  0
  4  1  2  0
  5  2  2  0
  6  3  2  0
  6  5  1  0
  8  7  1  0
  8  4  1  0
  8 17  1  0
  9 17  1  0
 10 15  1  0
 11 12  1  0
 11 10  1  0
 13 12  1  0
 13 22  1  0
 13 14  1  0
 15  9  1  0
 15 14  1  0
 16  9  2  0
 17 18  1  0
 19 20  2  0
 20 39  1  0
 21 20  1  0
 21 24  1  0
 22 19  1  0
 22 23  1  0
 23 21  2  0
 24 25  1  0
 25 26  2  0
 27 30  1  0
 27 26  1  0
 28 27  2  0
 29 28  1  0
 29 24  2  0
 30 31  1  0
 31 32  1  0
 32 33  2  0
 34 33  1  0
 34 38  1  0
 35 34  2  0
 36 31  2  0
 36 35  1  0
 37 36  1  0
 39 40  1  0
 40 43  1  0
 40 42  1  0
 41 39  2  0
 44 45  1  0
 44 19  1  0
 46 44  1  0
 47 48  1  0
 48  6  1  0
 49  5  1  0
 49 50  1  0
 51 52  1  0
 51 50  1  0
 53 64  2  0
 54 52  1  0
 54 59  1  0
 55 63  1  0
 55 65  1  0
 56 62  1  0
 56 58  1  0
 57 63  1  0
 58 57  1  0
 59 58  2  0
 60 61  1  0
 60 54  2  0
 61 56  2  0
 62 55  1  0
 63 53  1  0
 65 67  2  0
 66 65  1  0
 68 66  1  0
 69 78  2  0
 69 74  1  0
 70 66  1  0
 70 74  1  0
 71 70  1  0
 72 73  1  0
 72 71  1  0
 73 69  1  0
 74 75  2  0
 75 76  1  0
 77 76  2  0
 78 77  1  0
 79 53  1  0
 79 80  1  0
 79 89  1  0
 80 83  1  0
 81 85  1  0
 81 80  1  0
 82 81  2  0
 85 84  1  0
 87 85  1  0
 87 88  1  0
 87 86  1  0
 89 92  1  1
 89 90  1  0
 91 89  1  0
M  ISO  4   9 100  17 100  51 101  52 101
M  END
>  <TORSDO>  (4) 
F 21

>  <SCORE>  (4) 
-12.977

>  <name>  (4) 
3

>  <ligand_id>  (4) 
3

>  <original_smiles>  (4) 
[H]c1c([H])c([H])c2c(c1[H])C([H])([H])C([H])([H])C([H])([H])C2([H])N([H])C(=O)C1([H])N(C(=O)C([H])(N([H])C(=O)C([H])(N([H])C([H])([H])[H])C([H])([H])[H])C(C([H])([H])[H])(C([H])([H])[H])C([H])([H])[H])C([H])([H])c2c([H])c(OC([H])([H])C([H])([H])Oc3c([H])c([H])c(C([H])(N([H])C(=O)N4C([H])([H])C([H])([H])C([H])([H])C([H])(n5nc(-c6c([H])c([H])c(Oc7c([H])c([H])c(F)c([H])c7F)c([H])c6[H])c(C(=O)N([H])[H])c5N([H])[H])C4([H])[H])C([H])([H])[H])c([H])c3OC([H])([H])[H])c([H])c([H])c2C1([H])[H]

>  <smiles>  (4) 
[H]c1c([H])c([H])c2c(c1[H])C([H])([H])C([H])([H])C([H])([H])C2([H])N([H])C(=O)C1([H])N(C(=O)C([H])(N([H])C(=O)C([H])(N([H])C([H])([H])[H])C([H])([H])[H])C(C([H])([H])[H])(C([H])([H])[H])C([H])([H])[H])C([H])([H])c2c([H])c(OC([H])([H])C([H])([H])Oc3c([H])c([H])c(C([H])(N([H])C(=O)N4C([H])([H])C([H])([H])C([H])([H])C([H])(n5nc(-c6c([H])c([H])c(Oc7c([H])c([H])c(F)c([H])c7F)c([H])c6[H])c(C(=O)N([H])[H])c5N([H])[H])C4([H])[H])C([H])([H])[H])c([H])c3OC([H])([H])[H])c([H])c([H])c2C1([H])[H]

$$$$
4:0:0
     RDKit          3D

 92100  0  0  1  0  0  0  0  0999 V2000
  -30.0670  -21.6470   22.0630 C   0  0  0  0  0  3  0  0  0  0  0  0
  -29.3360  -22.7730   21.5870 C   0  0  0  0  0  3  0  0  0  0  0  0
  -28.5350  -21.2860   19.8700 C   0  0  0  0  0  3  0  0  0  0  0  0
  -30.0800  -20.3450   21.4700 C   0  0  0  0  0  0  0  0  0  0  0  0
  -28.5110  -22.7350   20.4440 C   0  0  0  0  0  0  0  0  0  0  0  0
  -29.2960  -20.0050   20.3330 C   0  0  0  0  0  0  0  0  0  0  0  0
  -31.0380  -19.3580   22.0340 C   0  0  0  0  0  0  0  0  0  0  0  0
  -30.7200  -18.5520   22.9180 O   0  0  0  0  0  0  0  0  0  0  0  0
  -32.4930  -19.3710   21.4820 C   0  0  0  0  0  0  0  0  0  0  0  0
  -32.8780  -20.4800   20.5060 C   0  0  0  0  0  1  0  0  0  0  0  0
  -33.3190  -18.5120   21.8170 O   0  0  0  0  0  0  0  0  0  0  0  0
  -29.4990  -18.3790   19.6400 C   0  0  0  0  0  2  0  0  0  0  0  0
  -30.3400  -15.5010   19.9290 C   0  0  0  0  0  0  0  0  0  0  0  0
  -30.3270  -13.0400   19.0640 C   0  0  0  0  0  2  0  0  0  0  0  0
  -29.3550  -12.8170   17.8760 C   0  0  0  0  0  2  0  0  0  0  0  0
  -27.9370  -12.5100   18.3850 C   0  0  0  0  0  2  0  0  0  0  0  0
  -27.5250  -13.4530   19.5420 C   0  0  0  0  0  3  0  0  0  0  0  0
  -28.6240  -13.6260   20.6160 C   0  0  0  0  0  2  0  0  0  0  0  0
  -29.8120  -14.1700   19.9350 N   0  0  0  0  0  0  0  0  0  0  0  0
  -31.5200  -15.5250   19.5460 O   0  0  0  0  0  0  0  0  0  0  0  0
  -29.5710  -16.7660   20.1620 N   0  0  0  0  0  0  0  0  0  0  0  0
  -28.6910  -16.5220   20.5940 H   0  0  0  0  0  0  0  0  0  0  0  0
  -25.2130  -13.9600   20.4840 C   0  0  0  0  0  0  0  0  0  0  0  0
  -24.1760  -13.1620   20.8750 C   0  0  0  0  0  0  0  0  0  0  0  0
  -24.6350  -11.8160   20.7340 C   0  0  0  0  0  0  0  0  0  0  0  0
  -26.2330  -13.1020   20.1180 N   0  0  0  0  0  0  0  0  0  0  0  0
  -25.9040  -11.8010   20.3370 N   0  0  0  0  0  0  0  0  0  0  0  0
  -23.9160  -10.5440   20.8960 C   0  0  0  0  0  0  0  0  0  0  0  0
  -24.3110   -9.5880   21.8570 C   0  0  0  0  0  3  0  0  0  0  0  0
  -23.5890   -8.3840   22.0080 C   0  0  0  0  0  3  0  0  0  0  0  0
  -22.4570   -8.1300   21.1990 C   0  0  0  0  0  0  0  0  0  0  0  0
  -22.0810   -9.0750   20.2280 C   0  0  0  0  0  3  0  0  0  0  0  0
  -22.8040  -10.2700   20.0750 C   0  0  0  0  0  3  0  0  0  0  0  0
  -21.7090   -6.9780   21.2580 O   0  0  0  0  0  0  0  0  0  0  0  0
  -21.4920   -6.3200   22.4420 C   0  0  0  0  0  0  0  0  0  0  0  0
  -20.8330   -6.9360   23.5280 C   0  0  0  0  0  3  0  0  0  0  0  0
  -20.5710   -6.2010   24.7020 C   0  0  0  0  0  3  0  0  0  0  0  0
  -20.9580   -4.8500   24.7870 C   0  0  0  0  0  0  0  0  0  0  0  0
  -21.6110   -4.2340   23.7050 C   0  0  0  0  0  3  0  0  0  0  0  0
  -21.8740   -4.9660   22.5350 C   0  0  0  0  0  0  0  0  0  0  0  0
  -22.4850   -4.3620   21.4880 F   0  0  0  0  0  0  0  0  0  0  0  0
  -20.7000   -4.1410   25.9110 F   0  0  0  0  0  0  0  0  0  0  0  0
  -22.8010  -13.6240   21.2600 C   0  0  0  0  0  0  0  0  0  0  0  0
  -22.1250  -12.8760   22.1230 N   0  0  0  0  0  0  0  0  0  0  0  0
  -22.3390  -14.6800   20.8320 O   0  0  0  0  0  0  0  0  0  0  0  0
  -22.5160  -12.0220   22.4900 H   0  0  0  0  0  0  0  0  0  0  0  0
  -21.2050  -13.1640   22.4260 H   0  0  0  0  0  0  0  0  0  0  0  0
  -25.3660  -15.3400   20.3770 N   0  0  0  0  0  0  0  0  0  0  0  0
  -24.6020  -15.9790   20.5640 H   0  0  0  0  0  0  0  0  0  0  0  0
  -26.1760  -15.7960   19.9770 H   0  0  0  0  0  0  0  0  0  0  0  0
  -27.6170  -24.2140   20.0520 C   0  0  0  0  0  2  0  0  0  0  0  0
  -27.8750  -25.8460   20.2960 O   0  0  0  0  0  0  0  0  0  0  0  0
  -24.5050  -31.9920   23.1920 C   0  0  0  0  0  0  0  0  0  0  0  0
  -26.8960  -26.9860   20.2010 C   0  0  0  0  0  0  0  0  0  0  0  0
  -23.2400  -30.5690   21.6330 C   0  0  0  0  0  3  0  0  0  0  0  0
  -24.6200  -28.9160   20.1940 C   0  0  0  0  0  0  0  0  0  0  0  0
  -25.8030  -30.7420   21.3920 C   0  0  0  0  0  2  0  0  0  0  0  0
  -25.8350  -29.3140   20.7660 C   0  0  0  0  0  0  0  0  0  0  0  0
  -26.9620  -28.3690   20.7480 C   0  0  0  0  0  3  0  0  0  0  0  0
  -25.6550  -26.7570   19.5650 C   0  0  0  0  0  3  0  0  0  0  0  0
  -24.5580  -27.6590   19.5690 C   0  0  0  0  0  3  0  0  0  0  0  0
  -23.4120  -29.8500   20.2670 C   0  0  0  0  0  2  0  0  0  0  0  0
  -24.5400  -31.1310   22.1240 N   0  0  0  0  0  0  0  0  0  0  0  0
  -23.4390  -32.3040   23.7490 O   0  0  0  0  0  0  0  0  0  0  0  0
  -22.5720  -29.6050   22.6510 C   0  0  0  0  0  0  0  0  0  0  0  0
  -21.2550  -29.3650   22.5120 N   0  0  0  0  0  0  0  0  0  0  0  0
  -23.2490  -29.0710   23.5340 O   0  0  0  0  0  0  0  0  0  0  0  0
  -20.7590  -29.8440   21.7740 H   0  0  0  0  0  0  0  0  0  0  0  0
  -17.9550  -27.9190   22.9590 C   0  0  0  0  0  0  0  0  0  0  0  0
  -20.4640  -28.4370   23.3280 C   0  0  0  0  0  3  0  0  0  0  0  0
  -20.7190  -26.9710   22.9060 C   0  0  0  0  0  2  0  0  0  0  0  0
  -19.7110  -26.4580   21.8730 C   0  0  0  0  0  2  0  0  0  0  0  0
  -18.2860  -26.5360   22.4250 C   0  0  0  0  0  2  0  0  0  0  0  0
  -18.9780  -28.8170   23.3680 C   0  0  0  0  0  0  0  0  0  0  0  0
  -18.6150  -30.1020   23.8280 C   0  0  0  0  0  3  0  0  0  0  0  0
  -17.2630  -30.4920   23.8830 C   0  0  0  0  0  3  0  0  0  0  0  0
  -16.2550  -29.5960   23.4880 C   0  0  0  0  0  3  0  0  0  0  0  0
  -16.6020  -28.3110   23.0320 C   0  0  0  0  0  3  0  0  0  0  0  0
  -25.8040  -32.6390   23.7630 C   0  0  0  0  0  3  0  0  0  0  0  0
  -26.3890  -31.8620   25.0070 C   0  0  1  0  0  0  0  0  0  0  0  0
  -25.3380  -31.5590   26.1010 C   0  0  0  0  0  1  0  0  0  0  0  0
  -27.0140  -30.5150   24.5750 C   0  0  0  0  0  1  0  0  0  0  0  0
  -27.5290  -32.6850   25.6500 C   0  0  0  0  0  1  0  0  0  0  0  0
  -25.4920  -34.0300   24.1410 N   0  0  0  0  0  0  0  0  0  0  0  0
  -25.7920  -35.1120   23.4090 C   0  0  0  0  0  0  0  0  0  0  0  0
  -26.4220  -35.0430   22.3510 O   0  0  0  0  0  0  0  0  0  0  0  0
  -24.9280  -34.1550   24.9690 H   0  0  0  0  0  0  0  0  0  0  0  0
  -24.0550  -36.9200   23.1780 C   0  0  0  0  0  1  0  0  0  0  0  0
  -25.3230  -36.4850   23.9300 C   0  0  0  0  0  3  0  0  0  0  0  0
  -27.4770  -37.3560   24.7290 C   0  0  0  0  0  1  0  0  0  0  0  0
  -26.3510  -37.5430   23.8160 N   0  0  0  0  0  0  0  0  0  0  0  0
  -25.9480  -38.4590   23.9940 H   0  0  0  0  0  0  0  0  0  0  0  0
  2  1  1  0
  3  6  2  0
  3  5  1  0
  4  7  1  0
  4  1  2  0
  5  2  2  0
  6  4  1  0
  7  8  2  0
  9 11  2  0
  9  7  1  0
 10  9  1  0
 12 21  1  0
 12  6  1  0
 13 19  1  0
 13 21  1  0
 14 19  1  0
 15 16  1  0
 15 14  1  0
 17 16  1  0
 17 26  1  0
 17 18  1  0
 19 18  1  0
 20 13  2  0
 21 22  1  0
 23 24  2  0
 24 43  1  0
 25 24  1  0
 25 28  1  0
 26 27  1  0
 26 23  1  0
 27 25  2  0
 28 29  1  0
 29 30  2  0
 31 34  1  0
 31 30  1  0
 32 31  2  0
 33 32  1  0
 33 28  2  0
 34 35  1  0
 35 40  2  0
 35 36  1  0
 36 37  2  0
 37 38  1  0
 38 42  1  0
 39 38  2  0
 40 39  1  0
 41 40  1  0
 43 44  1  0
 44 47  1  0
 44 46  1  0
 45 43  2  0
 48 23  1  0
 48 49  1  0
 50 48  1  0
 51 52  1  0
 51  5  1  0
 53 64  2  0
 54 52  1  0
 54 59  1  0
 55 63  1  0
 55 65  1  0
 56 62  1  0
 56 58  1  0
 57 63  1  0
 58 57  1  0
 59 58  2  0
 60 61  1  0
 60 54  2  0
 61 56  2  0
 62 55  1  0
 63 53  1  0
 65 67  2  0
 66 65  1  0
 68 66  1  0
 69 78  2  0
 69 74  1  0
 70 66  1  0
 70 74  1  0
 71 70  1  0
 72 73  1  0
 72 71  1  0
 73 69  1  0
 74 75  2  0
 75 76  1  0
 77 76  2  0
 78 77  1  0
 79 53  1  0
 79 84  1  0
 79 80  1  0
 80 83  1  1
 80 81  1  0
 82 80  1  0
 84 87  1  0
 85 89  1  0
 85 84  1  0
 86 85  2  0
 89 88  1  0
 91 89  1  0
 91 92  1  0
 91 90  1  0
M  ISO  4  13 100  21 100  51 101  52 101
M  END
>  <TORSDO>  (5) 
F 20

>  <SCORE>  (5) 
-14.975

>  <name>  (5) 
4

>  <ligand_id>  (5) 
4

>  <original_smiles>  (5) 
[H]c1c([H])c([H])c2c(c1[H])C([H])([H])C([H])([H])C([H])([H])C2([H])N([H])C(=O)C1([H])N(C(=O)C([H])(N([H])C(=O)C([H])(N([H])C([H])([H])[H])C([H])([H])[H])C(C([H])([H])[H])(C([H])([H])[H])C([H])([H])[H])C([H])([H])c2c([H])c(OC([H])([H])c3c([H])c([H])c(C(=O)C(=O)C([H])([H])[H])c(C([H])([H])N([H])C(=O)N4C([H])([H])C([H])([H])C([H])([H])C([H])(n5nc(-c6c([H])c([H])c(Oc7c([H])c([H])c(F)c([H])c7F)c([H])c6[H])c(C(=O)N([H])[H])c5N([H])[H])C4([H])[H])c3[H])c([H])c([H])c2C1([H])[H]

>  <smiles>  (5) 
[H]c1c([H])c([H])c2c(c1[H])C([H])([H])C([H])([H])C([H])([H])C2([H])N([H])C(=O)C1([H])N(C(=O)C([H])(N([H])C(=O)C([H])(N([H])C([H])([H])[H])C([H])([H])[H])C(C([H])([H])[H])(C([H])([H])[H])C([H])([H])[H])C([H])([H])c2c([H])c(OC([H])([H])c3c([H])c([H])c(C(=O)C(=O)C([H])([H])[H])c(C([H])([H])N([H])C(=O)N4C([H])([H])C([H])([H])C([H])([H])C([H])(n5nc(-c6c([H])c([H])c(Oc7c([H])c([H])c(F)c([H])c7F)c([H])c6[H])c(C(=O)N([H])[H])c5N([H])[H])C4([H])[H])c3[H])c([H])c([H])c2C1([H])[H]

$$$$
5:0:0
     RDKit          3D

 96105  0  0  1  0  0  0  0  0999 V2000
  -28.8600  -23.2770   20.0360 C   0  0  0  0  0  3  0  0  0  0  0  0
  -28.7140  -24.4720   19.3040 C   0  0  0  0  0  3  0  0  0  0  0  0
  -29.2340  -23.3020   21.4020 C   0  0  0  0  0  0  0  0  0  0  0  0
  -28.9390  -25.7190   19.9200 C   0  0  0  0  0  0  0  0  0  0  0  0
  -29.3510  -25.7510   21.2720 C   0  0  0  0  0  0  0  0  0  0  0  0
  -29.4840  -24.5570   22.0090 C   0  0  0  0  0  0  0  0  0  0  0  0
  -29.8720  -24.6550   23.3050 F   0  0  0  0  0  0  0  0  0  0  0  0
  -29.3160  -22.0400   22.1990 C   0  0  0  0  0  0  0  0  0  0  0  0
  -29.0700  -21.9750   23.4070 O   0  0  0  0  0  0  0  0  0  0  0  0
  -29.7460  -20.7730   21.4450 C   0  0  0  0  0  2  0  0  0  0  0  0
  -29.7370  -19.4720   22.2800 C   0  0  0  0  0  2  0  0  0  0  0  0
  -31.6400  -14.6720   19.7450 C   0  0  0  0  0  0  0  0  0  0  0  0
  -31.0830  -12.5800   18.5750 C   0  0  0  0  0  2  0  0  0  0  0  0
  -30.0480  -12.8700   17.4700 C   0  0  0  0  0  2  0  0  0  0  0  0
  -28.6170  -12.8030   18.0370 C   0  0  0  0  0  2  0  0  0  0  0  0
  -28.4460  -13.6290   19.3400 C   0  0  0  0  0  3  0  0  0  0  0  0
  -29.5850  -13.3290   20.3390 C   0  0  0  0  0  2  0  0  0  0  0  0
  -30.8680  -13.5570   19.6520 N   0  0  0  0  0  0  0  0  0  0  0  0
  -32.6930  -14.8110   19.1120 O   0  0  0  0  0  0  0  0  0  0  0  0
  -30.1100  -18.0320   20.1840 C   0  0  0  0  0  2  0  0  0  0  0  0
  -30.5190  -17.0310   22.4270 C   0  0  0  0  0  2  0  0  0  0  0  0
  -31.0360  -16.9770   19.5670 C   0  0  0  0  0  2  0  0  0  0  0  0
  -31.4110  -15.9540   21.7730 C   0  0  0  0  0  2  0  0  0  0  0  0
  -30.5520  -18.3410   21.6220 C   0  0  0  0  0  3  0  0  0  0  0  0
  -31.0740  -15.7340   20.3580 N   0  0  0  0  0  0  0  0  0  0  0  0
  -26.1820  -14.3400   20.3390 C   0  0  0  0  0  0  0  0  0  0  0  0
  -25.1020  -13.6140   20.7650 C   0  0  0  0  0  0  0  0  0  0  0  0
  -25.4560  -12.2410   20.5930 C   0  0  0  0  0  0  0  0  0  0  0  0
  -27.1310  -13.4110   19.9390 N   0  0  0  0  0  0  0  0  0  0  0  0
  -26.7020  -12.1400   20.1470 N   0  0  0  0  0  0  0  0  0  0  0  0
  -24.6630  -11.0190   20.7740 C   0  0  0  0  0  0  0  0  0  0  0  0
  -25.0360  -10.0260   21.7070 C   0  0  0  0  0  3  0  0  0  0  0  0
  -24.2460   -8.8690   21.8760 C   0  0  0  0  0  3  0  0  0  0  0  0
  -23.0680   -8.6950   21.1100 C   0  0  0  0  0  0  0  0  0  0  0  0
  -22.7130   -9.6750   20.1670 C   0  0  0  0  0  3  0  0  0  0  0  0
  -23.5030  -10.8240   19.9960 C   0  0  0  0  0  3  0  0  0  0  0  0
  -22.2540   -7.5910   21.1880 O   0  0  0  0  0  0  0  0  0  0  0  0
  -22.0130   -6.9560   22.3810 C   0  0  0  0  0  0  0  0  0  0  0  0
  -21.4770   -7.6400   23.4930 C   0  0  0  0  0  3  0  0  0  0  0  0
  -21.1800   -6.9340   24.6760 C   0  0  0  0  0  3  0  0  0  0  0  0
  -21.4100   -5.5460   24.7460 C   0  0  0  0  0  0  0  0  0  0  0  0
  -21.9410   -4.8650   23.6380 C   0  0  0  0  0  3  0  0  0  0  0  0
  -22.2380   -5.5670   22.4570 C   0  0  0  0  0  0  0  0  0  0  0  0
  -22.7290   -4.9010   21.3840 F   0  0  0  0  0  0  0  0  0  0  0  0
  -21.1190   -4.8670   25.8800 F   0  0  0  0  0  0  0  0  0  0  0  0
  -23.7800  -14.1600   21.2190 C   0  0  0  0  0  0  0  0  0  0  0  0
  -23.1220  -13.4800   22.1510 N   0  0  0  0  0  0  0  0  0  0  0  0
  -23.3430  -15.2250   20.7820 O   0  0  0  0  0  0  0  0  0  0  0  0
  -23.4900  -12.6180   22.5250 H   0  0  0  0  0  0  0  0  0  0  0  0
  -22.2390  -13.8270   22.4960 H   0  0  0  0  0  0  0  0  0  0  0  0
  -26.4290  -15.7050   20.2390 N   0  0  0  0  0  0  0  0  0  0  0  0
  -25.7350  -16.4020   20.4820 H   0  0  0  0  0  0  0  0  0  0  0  0
  -27.2880  -16.1060   19.8820 H   0  0  0  0  0  0  0  0  0  0  0  0
  -29.6280  -26.9300   21.9050 O   0  0  0  0  0  0  0  0  0  0  0  0
  -29.8670  -26.7500   22.8090 H   0  0  0  0  0  0  0  0  0  0  0  0
  -28.7330  -26.8710   19.1980 O   0  0  0  0  0  0  0  0  0  0  0  0
  -24.5790  -31.2610   22.9160 C   0  0  0  0  0  0  0  0  0  0  0  0
  -27.4950  -27.4480   19.3190 C   0  0  0  0  0  0  0  0  0  0  0  0
  -23.4270  -29.8380   21.2510 C   0  0  0  0  0  3  0  0  0  0  0  0
  -24.9420  -28.6050   19.6090 C   0  0  0  0  0  0  0  0  0  0  0  0
  -25.8620  -30.5350   20.9100 C   0  0  0  0  0  2  0  0  0  0  0  0
  -26.0640  -29.2380   20.1590 C   0  0  0  0  0  0  0  0  0  0  0  0
  -27.3450  -28.6650   20.0140 C   0  0  0  0  0  3  0  0  0  0  0  0
  -26.3600  -26.8200   18.7630 C   0  0  0  0  0  3  0  0  0  0  0  0
  -25.0830  -27.3920   18.9100 C   0  0  0  0  0  3  0  0  0  0  0  0
  -23.6080  -29.2890   19.8090 C   0  0  0  0  0  2  0  0  0  0  0  0
  -24.6430  -30.5570   21.7500 N   0  0  0  0  0  0  0  0  0  0  0  0
  -23.5190  -31.3550   23.5480 O   0  0  0  0  0  0  0  0  0  0  0  0
  -22.9810  -28.6770   22.1680 C   0  0  0  0  0  0  0  0  0  0  0  0
  -21.7140  -28.2550   22.0220 N   0  0  0  0  0  0  0  0  0  0  0  0
  -23.7690  -28.1610   22.9640 O   0  0  0  0  0  0  0  0  0  0  0  0
  -21.1290  -28.7350   21.3550 H   0  0  0  0  0  0  0  0  0  0  0  0
  -18.6910  -26.2990   22.2970 C   0  0  0  0  0  0  0  0  0  0  0  0
  -21.0870  -27.1520   22.7500 C   0  0  0  0  0  3  0  0  0  0  0  0
  -21.5670  -25.7850   22.2100 C   0  0  0  0  0  2  0  0  0  0  0  0
  -20.6500  -25.2100   21.1240 C   0  0  0  0  0  2  0  0  0  0  0  0
  -19.2290  -25.0280   21.6630 C   0  0  0  0  0  2  0  0  0  0  0  0
  -19.5630  -27.3040   22.7930 C   0  0  0  0  0  0  0  0  0  0  0  0
  -19.0110  -28.4830   23.3390 C   0  0  0  0  0  3  0  0  0  0  0  0
  -17.6160  -28.6640   23.3990 C   0  0  0  0  0  3  0  0  0  0  0  0
  -16.7570  -27.6590   22.9220 C   0  0  0  0  0  3  0  0  0  0  0  0
  -17.2940  -26.4790   22.3760 C   0  0  0  0  0  3  0  0  0  0  0  0
  -25.8260  -32.0000   23.4940 C   0  0  0  0  0  3  0  0  0  0  0  0
  -26.5110  -31.2270   24.6880 C   0  0  1  0  0  0  0  0  0  0  0  0
  -25.5280  -30.8210   25.8110 C   0  0  0  0  0  1  0  0  0  0  0  0
  -27.2030  -29.9410   24.1770 C   0  0  0  0  0  1  0  0  0  0  0  0
  -27.6180  -32.1050   25.3150 C   0  0  0  0  0  1  0  0  0  0  0  0
  -25.3880  -33.3340   23.9240 N   0  0  0  0  0  0  0  0  0  0  0  0
  -25.6180  -34.4650   23.2430 C   0  0  0  0  0  0  0  0  0  0  0  0
  -26.2940  -34.5000   22.2110 O   0  0  0  0  0  0  0  0  0  0  0  0
  -24.7830  -33.3740   24.7300 H   0  0  0  0  0  0  0  0  0  0  0  0
  -23.7400  -36.1170   22.9900 C   0  0  0  0  0  1  0  0  0  0  0  0
  -25.0000  -35.7650   23.7940 C   0  0  0  0  0  3  0  0  0  0  0  0
  -27.0380  -36.7670   24.7300 C   0  0  0  0  0  1  0  0  0  0  0  0
  -25.9350  -36.9100   23.7830 N   0  0  0  0  0  0  0  0  0  0  0  0
  -25.4450  -37.7760   23.9930 H   0  0  0  0  0  0  0  0  0  0  0  0
  1  3  1  0
  2  4  1  0
  2  1  2  0
  3  6  2  0
  3  8  1  0
  4  5  2  0
  5 54  1  0
  5  6  1  0
  6  7  1  0
  8  9  2  0
 10  8  1  0
 10 11  1  0
 12 25  1  0
 13 18  1  0
 14 15  1  0
 14 13  1  0
 16 15  1  0
 16 29  1  0
 16 17  1  0
 18 12  1  0
 18 17  1  0
 19 12  2  0
 20 24  1  0
 22 20  1  0
 22 25  1  0
 23 21  1  0
 24 11  1  0
 24 21  1  0
 25 23  1  0
 26 27  2  0
 27 46  1  0
 28 27  1  0
 28 31  1  0
 29 30  1  0
 29 26  1  0
 30 28  2  0
 31 32  1  0
 32 33  2  0
 34 37  1  0
 34 33  1  0
 35 34  2  0
 36 35  1  0
 36 31  2  0
 37 38  1  0
 38 43  2  0
 38 39  1  0
 39 40  2  0
 40 41  1  0
 41 45  1  0
 42 41  2  0
 43 42  1  0
 44 43  1  0
 46 47  1  0
 47 50  1  0
 47 49  1  0
 48 46  2  0
 51 26  1  0
 51 52  1  0
 53 51  1  0
 54 55  1  0
 56 58  1  0
 56  4  1  0
 57 68  2  0
 58 63  1  0
 59 67  1  0
 59 69  1  0
 60 66  1  0
 60 62  1  0
 61 67  1  0
 62 61  1  0
 63 62  2  0
 64 65  1  0
 64 58  2  0
 65 60  2  0
 66 59  1  0
 67 57  1  0
 69 71  2  0
 70 69  1  0
 72 70  1  0
 73 82  2  0
 73 78  1  0
 74 70  1  0
 74 78  1  0
 75 74  1  0
 76 77  1  0
 76 75  1  0
 77 73  1  0
 78 79  2  0
 79 80  1  0
 81 80  2  0
 82 81  1  0
 83 57  1  0
 83 88  1  0
 83 84  1  0
 84 87  1  1
 84 85  1  0
 86 84  1  0
 88 91  1  0
 89 93  1  0
 89 88  1  0
 90 89  2  0
 93 92  1  0
 95 93  1  0
 95 96  1  0
 95 94  1  0
M  ISO  4   4 101  12 100  25 100  56 101
M  END
>  <TORSDO>  (6) 
F 20

>  <SCORE>  (6) 
-9.641

>  <name>  (6) 
5

>  <ligand_id>  (6) 
5

>  <original_smiles>  (6) 
[H]Oc1c(F)c(C(=O)C([H])([H])C([H])([H])C2([H])C([H])([H])C([H])([H])N(C(=O)N3C([H])([H])C([H])([H])C([H])([H])C([H])(n4nc(-c5c([H])c([H])c(Oc6c([H])c([H])c(F)c([H])c6F)c([H])c5[H])c(C(=O)N([H])[H])c4N([H])[H])C3([H])[H])C([H])([H])C2([H])[H])c([H])c([H])c1Oc1c([H])c([H])c2c(c1[H])C([H])([H])N(C(=O)C([H])(N([H])C(=O)C([H])(N([H])C([H])([H])[H])C([H])([H])[H])C(C([H])([H])[H])(C([H])([H])[H])C([H])([H])[H])C([H])(C(=O)N([H])C1([H])c3c([H])c([H])c([H])c([H])c3C([H])([H])C([H])([H])C1([H])[H])C2([H])[H]

>  <smiles>  (6) 
[H]Oc1c(F)c(C(=O)C([H])([H])C([H])([H])C2([H])C([H])([H])C([H])([H])N(C(=O)N3C([H])([H])C([H])([H])C([H])([H])C([H])(n4nc(-c5c([H])c([H])c(Oc6c([H])c([H])c(F)c([H])c6F)c([H])c5[H])c(C(=O)N([H])[H])c4N([H])[H])C3([H])[H])C([H])([H])C2([H])[H])c([H])c([H])c1Oc1c([H])c([H])c2c(c1[H])C([H])([H])N(C(=O)C([H])(N([H])C(=O)C([H])(N([H])C([H])([H])[H])C([H])([H])[H])C(C([H])([H])[H])(C([H])([H])[H])C([H])([H])[H])C([H])(C(=O)N([H])C1([H])c3c([H])c([H])c([H])c([H])c3C([H])([H])C([H])([H])C1([H])[H])C2([H])[H]

$$$$
6:0:0
     RDKit          3D

 90 98  0  0  1  0  0  0  0  0999 V2000
  -28.9770  -22.6860   21.4240 C   0  0  0  0  0  3  0  0  0  0  0  0
  -28.6700  -24.1070   21.4190 C   0  0  0  0  0  3  0  0  0  0  0  0
  -28.2190  -24.0080   19.1110 C   0  0  0  0  0  3  0  0  0  0  0  0
  -28.9550  -21.8440   20.2620 C   0  0  0  0  0  0  0  0  0  0  0  0
  -28.2990  -24.8650   20.2590 C   0  0  0  0  0  0  0  0  0  0  0  0
  -28.5280  -22.5860   19.1070 C   0  0  0  0  0  0  0  0  0  0  0  0
  -28.4880  -21.9370   17.9180 F   0  0  0  0  0  0  0  0  0  0  0  0
  -28.2860  -26.3280   20.2180 O   0  0  0  0  0  0  0  0  0  0  0  0
  -24.6160  -31.9220   23.2370 C   0  0  0  0  0  0  0  0  0  0  0  0
  -27.1720  -27.2230   20.2130 C   0  0  0  0  0  0  0  0  0  0  0  0
  -23.4010  -30.5240   21.6050 C   0  0  0  0  0  3  0  0  0  0  0  0
  -24.8370  -28.9360   20.1840 C   0  0  0  0  0  0  0  0  0  0  0  0
  -25.9500  -30.7920   21.4240 C   0  0  0  0  0  2  0  0  0  0  0  0
  -26.0150  -29.3970   20.7850 C   0  0  0  0  0  0  0  0  0  0  0  0
  -27.1810  -28.5540   20.7840 C   0  0  0  0  0  3  0  0  0  0  0  0
  -25.9720  -26.8440   19.5800 C   0  0  0  0  0  3  0  0  0  0  0  0
  -24.8240  -27.6710   19.5690 C   0  0  0  0  0  3  0  0  0  0  0  0
  -23.6120  -29.8340   20.2290 C   0  0  0  0  0  2  0  0  0  0  0  0
  -24.6750  -31.1010   22.1430 N   0  0  0  0  0  0  0  0  0  0  0  0
  -23.5340  -32.2100   23.7700 O   0  0  0  0  0  0  0  0  0  0  0  0
  -22.7270  -29.5230   22.5750 C   0  0  0  0  0  0  0  0  0  0  0  0
  -21.3990  -29.3530   22.4500 N   0  0  0  0  0  0  0  0  0  0  0  0
  -23.4000  -28.9000   23.4000 O   0  0  0  0  0  0  0  0  0  0  0  0
  -20.9130  -29.9060   21.7580 H   0  0  0  0  0  0  0  0  0  0  0  0
  -18.0170  -28.1620   22.9600 C   0  0  0  0  0  0  0  0  0  0  0  0
  -20.5770  -28.4220   23.2270 C   0  0  0  0  0  3  0  0  0  0  0  0
  -20.6750  -26.9860   22.6600 C   0  0  0  0  0  2  0  0  0  0  0  0
  -19.5730  -26.6600   21.6470 C   0  0  0  0  0  2  0  0  0  0  0  0
  -18.1920  -26.8100   22.2910 C   0  0  0  0  0  2  0  0  0  0  0  0
  -19.1360  -28.9260   23.3850 C   0  0  0  0  0  0  0  0  0  0  0  0
  -18.9180  -30.1920   23.9730 C   0  0  0  0  0  3  0  0  0  0  0  0
  -17.6140  -30.6930   24.1380 C   0  0  0  0  0  3  0  0  0  0  0  0
  -16.5090  -29.9270   23.7280 C   0  0  0  0  0  3  0  0  0  0  0  0
  -16.7110  -28.6640   23.1450 C   0  0  0  0  0  3  0  0  0  0  0  0
  -25.8990  -32.5530   23.8560 C   0  0  0  0  0  3  0  0  0  0  0  0
  -25.5930  -33.9510   24.1960 N   0  0  0  0  0  0  0  0  0  0  0  0
  -25.8990  -35.0080   23.4320 C   0  0  0  0  0  0  0  0  0  0  0  0
  -26.5360  -34.9090   22.3800 O   0  0  0  0  0  0  0  0  0  0  0  0
  -25.0220  -34.1000   25.0150 H   0  0  0  0  0  0  0  0  0  0  0  0
  -24.1450  -36.7910   23.1520 C   0  0  0  0  0  1  0  0  0  0  0  0
  -25.4230  -36.3950   23.9090 C   0  0  0  0  0  3  0  0  0  0  0  0
  -27.5850  -37.3000   24.6450 C   0  0  0  0  0  1  0  0  0  0  0  0
  -26.4430  -37.4550   23.7490 N   0  0  0  0  0  0  0  0  0  0  0  0
  -26.0370  -38.3730   23.9080 H   0  0  0  0  0  0  0  0  0  0  0  0
  -26.4200  -31.7780   25.1300 C   0  0  1  0  0  0  0  0  0  0  0  0
  -25.3290  -31.5420   26.2030 C   0  0  0  0  0  1  0  0  0  0  0  0
  -26.9970  -30.4000   24.7380 C   0  0  0  0  0  1  0  0  0  0  0  0
  -27.5740  -32.5690   25.7900 C   0  0  0  0  0  1  0  0  0  0  0  0
  -29.6750  -20.3620   20.1870 C   0  0  0  0  0  3  0  0  0  0  0  0
  -29.1010  -18.8150   20.4540 C   0  0  0  0  0  3  0  0  0  0  0  0
  -30.5220  -14.9560   20.3050 C   0  0  0  0  0  0  0  0  0  0  0  0
  -30.3730  -12.6170   19.3670 C   0  0  0  0  0  2  0  0  0  0  0  0
  -29.4360  -12.6000   18.1380 C   0  0  0  0  0  2  0  0  0  0  0  0
  -27.9750  -12.3940   18.5760 C   0  0  0  0  0  2  0  0  0  0  0  0
  -27.5780  -13.3070   19.7660 C   0  0  0  0  0  3  0  0  0  0  0  0
  -28.6390  -13.3100   20.8860 C   0  0  0  0  0  2  0  0  0  0  0  0
  -29.9110  -13.7080   20.2690 N   0  0  0  0  0  0  0  0  0  0  0  0
  -31.7250  -14.9830   20.0240 O   0  0  0  0  0  0  0  0  0  0  0  0
  -30.1060  -17.5130   20.3270 C   0  0  0  0  0  0  0  0  0  0  0  0
  -29.7510  -16.1420   20.4480 N   0  0  0  0  0  0  0  0  0  0  0  0
  -31.2800  -17.8170   20.0980 O   0  0  0  0  0  0  0  0  0  0  0  0
  -28.7760  -15.9820   20.6370 H   0  0  0  0  0  0  0  0  0  0  0  0
  -25.2020  -13.8730   20.5310 C   0  0  0  0  0  0  0  0  0  0  0  0
  -24.1440  -13.0910   20.9010 C   0  0  0  0  0  0  0  0  0  0  0  0
  -24.6120  -11.7420   20.8520 C   0  0  0  0  0  0  0  0  0  0  0  0
  -26.2460  -13.0010   20.2720 N   0  0  0  0  0  0  0  0  0  0  0  0
  -25.9010  -11.7130   20.5320 N   0  0  0  0  0  0  0  0  0  0  0  0
  -23.8890  -10.4760   21.0310 C   0  0  0  0  0  0  0  0  0  0  0  0
  -24.3150   -9.5090   21.9690 C   0  0  0  0  0  3  0  0  0  0  0  0
  -23.5910   -8.3090   22.1380 C   0  0  0  0  0  3  0  0  0  0  0  0
  -22.4280   -8.0660   21.3690 C   0  0  0  0  0  0  0  0  0  0  0  0
  -22.0230   -9.0220   20.4210 C   0  0  0  0  0  3  0  0  0  0  0  0
  -22.7470  -10.2130   20.2500 C   0  0  0  0  0  3  0  0  0  0  0  0
  -21.6780   -6.9180   21.4470 O   0  0  0  0  0  0  0  0  0  0  0  0
  -21.5950   -6.1900   22.6070 C   0  0  0  0  0  0  0  0  0  0  0  0
  -21.1120   -6.7530   23.8080 C   0  0  0  0  0  3  0  0  0  0  0  0
  -20.9780   -5.9500   24.9590 C   0  0  0  0  0  3  0  0  0  0  0  0
  -21.3160   -4.5840   24.9070 C   0  0  0  0  0  0  0  0  0  0  0  0
  -21.7920   -4.0210   23.7100 C   0  0  0  0  0  3  0  0  0  0  0  0
  -21.9270   -4.8200   22.5630 C   0  0  0  0  0  0  0  0  0  0  0  0
  -22.3660   -4.2680   21.4060 F   0  0  0  0  0  0  0  0  0  0  0  0
  -21.1810   -3.8110   26.0090 F   0  0  0  0  0  0  0  0  0  0  0  0
  -22.7470  -13.5610   21.1860 C   0  0  0  0  0  0  0  0  0  0  0  0
  -22.0260  -12.8550   22.0490 N   0  0  0  0  0  0  0  0  0  0  0  0
  -22.3050  -14.5900   20.6780 O   0  0  0  0  0  0  0  0  0  0  0  0
  -22.3990  -12.0230   22.4830 H   0  0  0  0  0  0  0  0  0  0  0  0
  -21.0900  -13.1520   22.2820 H   0  0  0  0  0  0  0  0  0  0  0  0
  -25.3590  -15.2460   20.3650 N   0  0  0  0  0  0  0  0  0  0  0  0
  -24.5820  -15.8890   20.4780 H   0  0  0  0  0  0  0  0  0  0  0  0
  -26.1820  -15.6890   19.9770 H   0  0  0  0  0  0  0  0  0  0  0  0
  2  1  1  0
  3  5  1  0
  4  1  2  0
  5  2  2  0
  6  3  2  0
  6  4  1  0
  7  6  1  0
  8  5  1  0
  9 20  2  0
 10  8  1  0
 10 15  1  0
 11 19  1  0
 11 21  1  0
 12 18  1  0
 12 14  1  0
 13 19  1  0
 14 13  1  0
 15 14  2  0
 16 10  2  0
 17 16  1  0
 17 12  2  0
 18 11  1  0
 19  9  1  0
 21 23  2  0
 22 21  1  0
 24 22  1  0
 25 34  2  0
 25 30  1  0
 26 22  1  0
 26 30  1  0
 27 26  1  0
 28 29  1  0
 28 27  1  0
 29 25  1  0
 30 31  2  0
 31 32  1  0
 33 32  2  0
 34 33  1  0
 35  9  1  0
 35 36  1  0
 35 45  1  0
 36 39  1  0
 37 41  1  0
 37 36  1  0
 38 37  2  0
 41 40  1  0
 43 44  1  0
 43 41  1  0
 43 42  1  0
 45 48  1  1
 45 46  1  0
 47 45  1  0
 49  4  1  0
 49 50  2  0
 51 60  1  0
 52 57  1  0
 53 54  1  0
 53 52  1  0
 55 54  1  0
 55 66  1  0
 55 56  1  0
 57 51  1  0
 57 56  1  0
 58 51  2  0
 59 60  1  0
 59 50  1  0
 60 62  1  0
 61 59  2  0
 63 64  2  0
 64 83  1  0
 65 64  1  0
 65 68  1  0
 66 63  1  0
 66 67  1  0
 67 65  2  0
 68 69  1  0
 69 70  2  0
 71 74  1  0
 71 70  1  0
 72 71  2  0
 73 72  1  0
 73 68  2  0
 74 75  1  0
 75 76  1  0
 76 77  2  0
 78 77  1  0
 78 82  1  0
 79 78  2  0
 80 75  2  0
 80 79  1  0
 81 80  1  0
 83 84  1  0
 84 87  1  0
 84 86  1  0
 85 83  2  0
 88 89  1  0
 88 63  1  0
 90 88  1  0
M  ISO  4   5 101   8 101  51 100  60 100
M  END
>  <TORSDO>  (7) 
F 18

>  <SCORE>  (7) 
-14.630

>  <name>  (7) 
6

>  <ligand_id>  (7) 
6

>  <original_smiles>  (7) 
[H]c1c([H])c([H])c2c(c1[H])C([H])([H])C([H])([H])C([H])([H])C2([H])N([H])C(=O)C1([H])N(C(=O)C([H])(N([H])C(=O)C([H])(N([H])C([H])([H])[H])C([H])([H])[H])C(C([H])([H])[H])(C([H])([H])[H])C([H])([H])[H])C([H])([H])c2c([H])c(Oc3c([H])c([H])c(C([H])([H])C([H])([H])C(=O)N([H])C(=O)N4C([H])([H])C([H])([H])C([H])([H])C([H])(n5nc(-c6c([H])c([H])c(Oc7c([H])c([H])c(F)c([H])c7F)c([H])c6[H])c(C(=O)N([H])[H])c5N([H])[H])C4([H])[H])c(F)c3[H])c([H])c([H])c2C1([H])[H]

>  <smiles>  (7) 
[H]c1c([H])c([H])c2c(c1[H])C([H])([H])C([H])([H])C([H])([H])C2([H])N([H])C(=O)C1([H])N(C(=O)C([H])(N([H])C(=O)C([H])(N([H])C([H])([H])[H])C([H])([H])[H])C(C([H])([H])[H])(C([H])([H])[H])C([H])([H])[H])C([H])([H])c2c([H])c(Oc3c([H])c([H])c(C([H])([H])C([H])([H])C(=O)N([H])C(=O)N4C([H])([H])C([H])([H])C([H])([H])C([H])(n5nc(-c6c([H])c([H])c(Oc7c([H])c([H])c(F)c([H])c7F)c([H])c6[H])c(C(=O)N([H])[H])c5N([H])[H])C4([H])[H])c(F)c3[H])c([H])c([H])c2C1([H])[H]

$$$$
7:0:0
     RDKit          3D

 95103  0  0  1  0  0  0  0  0999 V2000
  -29.2910  -20.9040   20.5510 C   0  0  0  0  0  2  0  0  0  0  0  0
  -28.9570  -22.0390   19.5650 C   0  0  0  0  0  0  0  0  0  0  0  0
  -28.4460  -23.1690   20.0820 N   0  0  0  0  0  0  0  0  0  0  0  0
  -29.1680  -21.9100   18.3590 O   0  0  0  0  0  0  0  0  0  0  0  0
  -28.2740  -23.1900   21.0790 H   0  0  0  0  0  0  0  0  0  0  0  0
  -28.1150  -24.3770   19.3210 C   0  0  0  0  0  2  0  0  0  0  0  0
  -28.1020  -25.6370   20.2110 C   0  0  0  0  0  2  0  0  0  0  0  0
  -28.0940  -26.8430   19.4360 O   0  0  0  0  0  0  0  0  0  0  0  0
  -24.6120  -31.6930   23.2920 C   0  0  0  0  0  0  0  0  0  0  0  0
  -26.9640  -27.6120   19.5680 C   0  0  0  0  0  0  0  0  0  0  0  0
  -23.3050  -30.5900   21.5020 C   0  0  0  0  0  3  0  0  0  0  0  0
  -24.6510  -29.1980   19.8420 C   0  0  0  0  0  0  0  0  0  0  0  0
  -25.8400  -30.8610   21.2850 C   0  0  0  0  0  2  0  0  0  0  0  0
  -25.8430  -29.5880   20.4660 C   0  0  0  0  0  0  0  0  0  0  0  0
  -27.0070  -28.8030   20.3240 C   0  0  0  0  0  3  0  0  0  0  0  0
  -25.7610  -27.2320   18.9400 C   0  0  0  0  0  3  0  0  0  0  0  0
  -24.6030  -28.0230   19.0720 C   0  0  0  0  0  3  0  0  0  0  0  0
  -23.4500  -30.0950   20.0380 C   0  0  0  0  0  2  0  0  0  0  0  0
  -24.6070  -31.0540   22.0870 N   0  0  0  0  0  0  0  0  0  0  0  0
  -23.5580  -31.9360   23.8930 O   0  0  0  0  0  0  0  0  0  0  0  0
  -22.6250  -29.4790   22.3360 C   0  0  0  0  0  0  0  0  0  0  0  0
  -21.2980  -29.3470   22.1830 N   0  0  0  0  0  0  0  0  0  0  0  0
  -23.2880  -28.7430   23.0720 O   0  0  0  0  0  0  0  0  0  0  0  0
  -20.8280  -29.9930   21.5650 H   0  0  0  0  0  0  0  0  0  0  0  0
  -17.9010  -28.1490   22.4600 C   0  0  0  0  0  0  0  0  0  0  0  0
  -20.4520  -28.3450   22.8300 C   0  0  0  0  0  3  0  0  0  0  0  0
  -20.5600  -26.9800   22.1130 C   0  0  0  0  0  2  0  0  0  0  0  0
  -19.4840  -26.7760   21.0430 C   0  0  0  0  0  2  0  0  0  0  0  0
  -18.0850  -26.8720   21.6600 C   0  0  0  0  0  2  0  0  0  0  0  0
  -19.0130  -28.8490   22.9980 C   0  0  0  0  0  0  0  0  0  0  0  0
  -18.7860  -30.0500   23.7050 C   0  0  0  0  0  3  0  0  0  0  0  0
  -17.4830  -30.5460   23.8860 C   0  0  0  0  0  3  0  0  0  0  0  0
  -16.3840  -29.8370   23.3670 C   0  0  0  0  0  3  0  0  0  0  0  0
  -16.5950  -28.6430   22.6570 C   0  0  0  0  0  3  0  0  0  0  0  0
  -25.9410  -32.1730   23.9560 C   0  0  0  0  0  3  0  0  0  0  0  0
  -25.6910  -33.4980   24.5410 N   0  0  0  0  0  0  0  0  0  0  0  0
  -26.0410  -34.6590   23.9730 C   0  0  0  0  0  0  0  0  0  0  0  0
  -26.6820  -34.7230   22.9190 O   0  0  0  0  0  0  0  0  0  0  0  0
  -25.1200  -33.5250   25.3740 H   0  0  0  0  0  0  0  0  0  0  0  0
  -24.3680  -36.5370   24.0030 C   0  0  0  0  0  1  0  0  0  0  0  0
  -25.6160  -35.9570   24.6860 C   0  0  0  0  0  3  0  0  0  0  0  0
  -27.8010  -36.6190   25.5950 C   0  0  0  0  0  1  0  0  0  0  0  0
  -26.6820  -36.9820   24.7280 N   0  0  0  0  0  0  0  0  0  0  0  0
  -26.3120  -37.8730   25.0460 H   0  0  0  0  0  0  0  0  0  0  0  0
  -26.4850  -31.1720   25.0480 C   0  0  1  0  0  0  0  0  0  0  0  0
  -25.4290  -30.7650   26.1020 C   0  0  0  0  0  1  0  0  0  0  0  0
  -27.0060  -29.8770   24.3830 C   0  0  0  0  0  1  0  0  0  0  0  0
  -27.6860  -31.8050   25.7880 C   0  0  0  0  0  1  0  0  0  0  0  0
  -29.3970  -19.4940   19.9060 C   0  0  0  0  0  2  0  0  0  0  0  0
  -31.2490  -15.9970   21.8510 C   0  0  0  0  0  3  0  0  0  0  0  0
  -30.9450  -15.9680   20.4810 C   0  0  0  0  0  0  0  0  0  0  0  0
  -30.9760  -17.1300   22.6380 C   0  0  0  0  0  0  0  0  0  0  0  0
  -30.3100  -17.1010   19.8900 C   0  0  0  0  0  0  0  0  0  0  0  0
  -30.3830  -18.2860   22.0530 C   0  0  0  0  0  0  0  0  0  0  0  0
  -30.0520  -18.2880   20.6530 C   0  0  0  0  0  0  0  0  0  0  0  0
  -29.9030  -17.0290   18.4110 C   0  0  0  0  0  1  0  0  0  0  0  0
  -30.1070  -19.4970   22.9490 C   0  0  0  0  0  1  0  0  0  0  0  0
  -31.4350  -14.7960   19.6500 C   0  0  0  0  0  0  0  0  0  0  0  0
  -30.9420  -12.6860   18.4710 C   0  0  0  0  0  2  0  0  0  0  0  0
  -29.9340  -12.9490   17.3360 C   0  0  0  0  0  2  0  0  0  0  0  0
  -28.4900  -12.8460   17.8600 C   0  0  0  0  0  2  0  0  0  0  0  0
  -28.2700  -13.6760   19.1540 C   0  0  0  0  0  3  0  0  0  0  0  0
  -29.3890  -13.4200   20.1900 C   0  0  0  0  0  2  0  0  0  0  0  0
  -30.6850  -13.6640   19.5410 N   0  0  0  0  0  0  0  0  0  0  0  0
  -32.4820  -14.9580   19.0180 O   0  0  0  0  0  0  0  0  0  0  0  0
  -25.9470  -14.3390   20.0340 C   0  0  0  0  0  0  0  0  0  0  0  0
  -24.8840  -13.5930   20.4690 C   0  0  0  0  0  0  0  0  0  0  0  0
  -25.3010  -12.2290   20.3910 C   0  0  0  0  0  0  0  0  0  0  0  0
  -26.9480  -13.4320   19.7230 N   0  0  0  0  0  0  0  0  0  0  0  0
  -26.5650  -12.1560   19.9930 N   0  0  0  0  0  0  0  0  0  0  0  0
  -24.5530  -10.9860   20.6180 C   0  0  0  0  0  0  0  0  0  0  0  0
  -24.9640  -10.0420   21.5860 C   0  0  0  0  0  3  0  0  0  0  0  0
  -24.2160   -8.8640   21.7970 C   0  0  0  0  0  3  0  0  0  0  0  0
  -23.0440   -8.6220   21.0410 C   0  0  0  0  0  0  0  0  0  0  0  0
  -22.6550   -9.5530   20.0620 C   0  0  0  0  0  3  0  0  0  0  0  0
  -23.4020  -10.7220   19.8480 C   0  0  0  0  0  3  0  0  0  0  0  0
  -22.2680   -7.4940   21.1610 O   0  0  0  0  0  0  0  0  0  0  0  0
  -22.0800   -6.8760   22.3710 C   0  0  0  0  0  0  0  0  0  0  0  0
  -21.5840   -7.5700   23.4950 C   0  0  0  0  0  3  0  0  0  0  0  0
  -21.3410   -6.8810   24.7000 C   0  0  0  0  0  3  0  0  0  0  0  0
  -21.5830   -5.4960   24.7800 C   0  0  0  0  0  0  0  0  0  0  0  0
  -22.0700   -4.8000   23.6600 C   0  0  0  0  0  3  0  0  0  0  0  0
  -22.3160   -5.4880   22.4580 C   0  0  0  0  0  0  0  0  0  0  0  0
  -22.7660   -4.8100   21.3750 F   0  0  0  0  0  0  0  0  0  0  0  0
  -21.3430   -4.8310   25.9330 F   0  0  0  0  0  0  0  0  0  0  0  0
  -23.5260  -14.1090   20.8470 C   0  0  0  0  0  0  0  0  0  0  0  0
  -22.8870  -13.4860   21.8320 N   0  0  0  0  0  0  0  0  0  0  0  0
  -23.0410  -15.1000   20.3010 O   0  0  0  0  0  0  0  0  0  0  0  0
  -23.2940  -12.6850   22.2950 H   0  0  0  0  0  0  0  0  0  0  0  0
  -21.9800  -13.8140   22.1320 H   0  0  0  0  0  0  0  0  0  0  0  0
  -26.1410  -15.7070   19.8600 N   0  0  0  0  0  0  0  0  0  0  0  0
  -25.4150  -16.3880   20.0490 H   0  0  0  0  0  0  0  0  0  0  0  0
  -27.0070  -16.1270   19.5480 H   0  0  0  0  0  0  0  0  0  0  0  0
  -30.2650  -17.4930   25.0710 C   0  0  0  0  0  1  0  0  0  0  0  0
  -31.3830  -17.0590   24.1090 C   0  0  0  0  0  2  0  0  0  0  0  0
  2  3  1  0
  2  1  1  0
  3  5  1  0
  4  2  2  0
  6  3  1  0
  6  7  1  0
  8 10  1  0
  8  7  1  0
  9 20  2  0
 10 15  1  0
 11 19  1  0
 11 21  1  0
 12 18  1  0
 12 14  1  0
 13 19  1  0
 14 13  1  0
 15 14  2  0
 16 17  1  0
 16 10  2  0
 17 12  2  0
 18 11  1  0
 19  9  1  0
 21 23  2  0
 22 21  1  0
 24 22  1  0
 25 34  2  0
 25 30  1  0
 26 22  1  0
 26 30  1  0
 27 26  1  0
 28 29  1  0
 28 27  1  0
 29 25  1  0
 30 31  2  0
 31 32  1  0
 33 32  2  0
 34 33  1  0
 35  9  1  0
 35 36  1  0
 35 45  1  0
 36 39  1  0
 37 36  1  0
 37 41  1  0
 38 37  2  0
 41 40  1  0
 41 43  1  0
 43 44  1  0
 43 42  1  0
 45 48  1  1
 45 46  1  0
 47 45  1  0
 49  1  1  0
 49 55  1  0
 50 52  1  0
 51 50  2  0
 52 95  1  0
 53 51  1  0
 53 55  2  0
 54 52  2  0
 54 57  1  0
 55 54  1  0
 56 53  1  0
 58 51  1  0
 59 64  1  0
 60 61  1  0
 60 59  1  0
 62 61  1  0
 62 69  1  0
 62 63  1  0
 64 58  1  0
 64 63  1  0
 65 58  2  0
 66 67  2  0
 67 86  1  0
 68 67  1  0
 68 71  1  0
 69 70  1  0
 69 66  1  0
 70 68  2  0
 71 72  1  0
 72 73  2  0
 74 77  1  0
 74 73  1  0
 75 74  2  0
 76 75  1  0
 76 71  2  0
 77 78  1  0
 78 83  2  0
 78 79  1  0
 79 80  2  0
 80 81  1  0
 81 85  1  0
 82 81  2  0
 83 82  1  0
 84 83  1  0
 86 87  1  0
 87 90  1  0
 87 89  1  0
 88 86  2  0
 91 66  1  0
 91 92  1  0
 93 91  1  0
 95 94  1  0
M  ISO  4   7 101   8 101  51 100  58 100
M  END
>  <TORSDO>  (8) 
F 22

>  <SCORE>  (8) 
-4.585

>  <name>  (8) 
7

>  <ligand_id>  (8) 
7

>  <original_smiles>  (8) 
[H]c1c([H])c([H])c2c(c1[H])C([H])([H])C([H])([H])C([H])([H])C2([H])N([H])C(=O)C1([H])N(C(=O)C([H])(N([H])C(=O)C([H])(N([H])C([H])([H])[H])C([H])([H])[H])C(C([H])([H])[H])(C([H])([H])[H])C([H])([H])[H])C([H])([H])c2c([H])c(OC([H])([H])C([H])([H])N([H])C(=O)C([H])([H])C([H])([H])c3c(C([H])([H])[H])c(C(=O)N4C([H])([H])C([H])([H])C([H])([H])C([H])(n5nc(-c6c([H])c([H])c(Oc7c([H])c([H])c(F)c([H])c7F)c([H])c6[H])c(C(=O)N([H])[H])c5N([H])[H])C4([H])[H])c([H])c(C([H])([H])C([H])([H])[H])c3C([H])([H])[H])c([H])c([H])c2C1([H])[H]

>  <smiles>  (8) 
[H]c1c([H])c([H])c2c(c1[H])C([H])([H])C([H])([H])C([H])([H])C2([H])N([H])C(=O)C1([H])N(C(=O)C([H])(N([H])C(=O)C([H])(N([H])C([H])([H])[H])C([H])([H])[H])C(C([H])([H])[H])(C([H])([H])[H])C([H])([H])[H])C([H])([H])c2c([H])c(OC([H])([H])C([H])([H])N([H])C(=O)C([H])([H])C([H])([H])c3c(C([H])([H])[H])c(C(=O)N4C([H])([H])C([H])([H])C([H])([H])C([H])(n5nc(-c6c([H])c([H])c(Oc7c([H])c([H])c(F)c([H])c7F)c([H])c6[H])c(C(=O)N([H])[H])c5N([H])[H])C4([H])[H])c([H])c(C([H])([H])C([H])([H])[H])c3C([H])([H])[H])c([H])c([H])c2C1([H])[H]

$$$$
8:0:0
     RDKit          3D

 91 99  0  0  1  0  0  0  0  0999 V2000
  -28.7840  -21.3170   19.4310 C   0  0  0  0  0  3  0  0  0  0  0  0
  -29.0400  -19.8910   19.2940 C   0  0  0  0  0  3  0  0  0  0  0  0
  -30.0580  -19.8430   21.4120 C   0  0  0  0  0  3  0  0  0  0  0  0
  -29.1850  -22.1090   20.5580 C   0  0  0  0  0  0  0  0  0  0  0  0
  -29.7330  -19.0740   20.2570 C   0  0  0  0  0  0  0  0  0  0  0  0
  -29.8040  -21.2650   21.5670 C   0  0  0  0  0  0  0  0  0  0  0  0
  -30.2790  -21.8630   22.8830 C   0  0  0  0  0  1  0  0  0  0  0  0
  -29.1550  -23.7310   20.6440 C   0  0  0  0  0  0  0  0  0  0  0  0
  -30.0760  -24.2880   21.2540 O   0  0  0  0  0  0  0  0  0  0  0  0
  -28.0650  -24.7860   20.0420 C   0  0  0  0  0  2  0  0  0  0  0  0
  -28.2870  -26.3010   20.2610 O   0  0  0  0  0  0  0  0  0  0  0  0
  -24.6160  -31.9000   23.2330 C   0  0  0  0  0  0  0  0  0  0  0  0
  -27.2100  -27.2430   20.1830 C   0  0  0  0  0  0  0  0  0  0  0  0
  -23.4150  -30.5040   21.5940 C   0  0  0  0  0  3  0  0  0  0  0  0
  -24.8660  -28.9450   20.1590 C   0  0  0  0  0  0  0  0  0  0  0  0
  -25.9640  -30.7940   21.4160 C   0  0  0  0  0  2  0  0  0  0  0  0
  -26.0420  -29.4070   20.7620 C   0  0  0  0  0  0  0  0  0  0  0  0
  -27.2150  -28.5710   20.7590 C   0  0  0  0  0  3  0  0  0  0  0  0
  -26.0090  -26.8700   19.5400 C   0  0  0  0  0  3  0  0  0  0  0  0
  -24.8590  -27.6880   19.5320 C   0  0  0  0  0  3  0  0  0  0  0  0
  -23.6330  -29.8320   20.2120 C   0  0  0  0  0  2  0  0  0  0  0  0
  -24.6860  -31.0860   22.1360 N   0  0  0  0  0  0  0  0  0  0  0  0
  -23.5320  -32.1780   23.7670 O   0  0  0  0  0  0  0  0  0  0  0  0
  -22.7480  -29.4900   22.5550 C   0  0  0  0  0  0  0  0  0  0  0  0
  -21.4210  -29.3090   22.4300 N   0  0  0  0  0  0  0  0  0  0  0  0
  -23.4250  -28.8670   23.3770 O   0  0  0  0  0  0  0  0  0  0  0  0
  -20.9310  -29.8630   21.7410 H   0  0  0  0  0  0  0  0  0  0  0  0
  -18.0490  -28.0850   22.9240 C   0  0  0  0  0  0  0  0  0  0  0  0
  -20.6060  -28.3690   23.2010 C   0  0  0  0  0  3  0  0  0  0  0  0
  -20.7210  -26.9350   22.6320 C   0  0  0  0  0  2  0  0  0  0  0  0
  -19.6250  -26.5990   21.6160 C   0  0  0  0  0  2  0  0  0  0  0  0
  -18.2400  -26.7340   22.2530 C   0  0  0  0  0  2  0  0  0  0  0  0
  -19.1600  -28.8580   23.3560 C   0  0  0  0  0  0  0  0  0  0  0  0
  -18.9270  -30.1210   23.9430 C   0  0  0  0  0  3  0  0  0  0  0  0
  -17.6160  -30.6080   24.1070 C   0  0  0  0  0  3  0  0  0  0  0  0
  -16.5200  -29.8320   23.6900 C   0  0  0  0  0  3  0  0  0  0  0  0
  -16.7380  -28.5720   23.1050 C   0  0  0  0  0  3  0  0  0  0  0  0
  -25.8940  -32.5400   23.8570 C   0  0  0  0  0  3  0  0  0  0  0  0
  -26.4050  -31.7760   25.1420 C   0  0  1  0  0  0  0  0  0  0  0  0
  -25.3080  -31.5480   26.2080 C   0  0  0  0  0  1  0  0  0  0  0  0
  -26.9880  -30.3940   24.7640 C   0  0  0  0  0  1  0  0  0  0  0  0
  -27.5540  -32.5740   25.8020 C   0  0  0  0  0  1  0  0  0  0  0  0
  -25.5820  -33.9390   24.1830 N   0  0  0  0  0  0  0  0  0  0  0  0
  -25.9130  -34.9940   23.4240 C   0  0  0  0  0  0  0  0  0  0  0  0
  -26.5800  -34.8880   22.3910 O   0  0  0  0  0  0  0  0  0  0  0  0
  -24.9900  -34.0950   24.9850 H   0  0  0  0  0  0  0  0  0  0  0  0
  -24.1860  -36.7900   23.0730 C   0  0  0  0  0  1  0  0  0  0  0  0
  -25.4270  -36.3830   23.8820 C   0  0  0  0  0  3  0  0  0  0  0  0
  -27.5620  -37.2700   24.7120 C   0  0  0  0  0  1  0  0  0  0  0  0
  -26.4610  -37.4350   23.7670 N   0  0  0  0  0  0  0  0  0  0  0  0
  -26.0550  -38.3560   23.9100 H   0  0  0  0  0  0  0  0  0  0  0  0
  -30.6990  -17.5320   18.4220 C   0  0  0  0  0  1  0  0  0  0  0  0
  -30.3930  -17.5960   19.9350 C   0  0  0  0  0  0  0  0  0  0  0  0
  -30.6560  -14.9550   20.2840 C   0  0  0  0  0  0  0  0  0  0  0  0
  -30.4600  -12.6450   19.3130 C   0  0  0  0  0  2  0  0  0  0  0  0
  -29.5220  -12.6590   18.0860 C   0  0  0  0  0  2  0  0  0  0  0  0
  -28.0590  -12.4640   18.5240 C   0  0  0  0  0  2  0  0  0  0  0  0
  -27.6740  -13.3680   19.7240 C   0  0  0  0  0  3  0  0  0  0  0  0
  -28.7360  -13.3460   20.8430 C   0  0  0  0  0  2  0  0  0  0  0  0
  -30.0140  -13.7270   20.2310 N   0  0  0  0  0  0  0  0  0  0  0  0
  -31.8590  -14.9790   20.0070 O   0  0  0  0  0  0  0  0  0  0  0  0
  -29.9340  -16.1680   20.3820 N   0  0  0  0  0  4  0  0  0  0  0  0
  -28.9570  -16.0760   20.6170 H   0  0  0  0  0  0  0  0  0  0  0  0
  -25.2940  -13.9370   20.4730 C   0  0  0  0  0  0  0  0  0  0  0  0
  -24.2340  -13.1560   20.8480 C   0  0  0  0  0  0  0  0  0  0  0  0
  -24.7070  -11.8080   20.8190 C   0  0  0  0  0  0  0  0  0  0  0  0
  -26.3400  -13.0630   20.2300 N   0  0  0  0  0  0  0  0  0  0  0  0
  -25.9960  -11.7790   20.5040 N   0  0  0  0  0  0  0  0  0  0  0  0
  -23.9870  -10.5410   21.0110 C   0  0  0  0  0  0  0  0  0  0  0  0
  -24.4230   -9.5790   21.9480 C   0  0  0  0  0  3  0  0  0  0  0  0
  -23.7020   -8.3800   22.1310 C   0  0  0  0  0  3  0  0  0  0  0  0
  -22.5320   -8.1340   21.3760 C   0  0  0  0  0  0  0  0  0  0  0  0
  -22.1140   -9.0850   20.4290 C   0  0  0  0  0  3  0  0  0  0  0  0
  -22.8350  -10.2770   20.2450 C   0  0  0  0  0  3  0  0  0  0  0  0
  -21.7810   -6.9860   21.4670 O   0  0  0  0  0  0  0  0  0  0  0  0
  -21.7270   -6.2530   22.6260 C   0  0  0  0  0  0  0  0  0  0  0  0
  -21.2790   -6.8120   23.8430 C   0  0  0  0  0  3  0  0  0  0  0  0
  -21.1740   -6.0040   24.9920 C   0  0  0  0  0  3  0  0  0  0  0  0
  -21.5030   -4.6370   24.9260 C   0  0  0  0  0  0  0  0  0  0  0  0
  -21.9430   -4.0770   23.7140 C   0  0  0  0  0  3  0  0  0  0  0  0
  -22.0510   -4.8820   22.5660 C   0  0  0  0  0  0  0  0  0  0  0  0
  -22.4550   -4.3330   21.3960 F   0  0  0  0  0  0  0  0  0  0  0  0
  -21.3950   -3.8590   26.0280 F   0  0  0  0  0  0  0  0  0  0  0  0
  -22.8360  -13.6270   21.1210 C   0  0  0  0  0  0  0  0  0  0  0  0
  -22.1130  -12.9300   21.9900 N   0  0  0  0  0  0  0  0  0  0  0  0
  -22.3940  -14.6490   20.5980 O   0  0  0  0  0  0  0  0  0  0  0  0
  -22.4870  -12.1040   22.4340 H   0  0  0  0  0  0  0  0  0  0  0  0
  -21.1750  -13.2280   22.2140 H   0  0  0  0  0  0  0  0  0  0  0  0
  -25.4490  -15.3070   20.2920 N   0  0  0  0  0  0  0  0  0  0  0  0
  -24.6770  -15.9560   20.4040 H   0  0  0  0  0  0  0  0  0  0  0  0
  -26.2850  -15.7470   19.9300 H   0  0  0  0  0  0  0  0  0  0  0  0
  1  4  1  0
  2  1  2  0
  2  5  1  0
  3  6  1  0
  4  8  1  0
  4  6  2  0
  5  3  2  0
  6  7  1  0
  8  9  2  0
 10 11  1  0
 10  8  1  0
 12 23  2  0
 13 11  1  0
 13 18  1  0
 14 22  1  0
 14 24  1  0
 15 21  1  0
 15 17  1  0
 16 22  1  0
 17 16  1  0
 18 17  2  0
 19 13  2  0
 20 19  1  0
 20 15  2  0
 21 14  1  0
 22 12  1  0
 24 26  2  0
 25 24  1  0
 27 25  1  0
 28 37  2  0
 28 33  1  0
 29 25  1  0
 29 33  1  0
 30 29  1  0
 31 32  1  0
 31 30  1  0
 32 28  1  0
 33 34  2  0
 34 35  1  0
 36 35  2  0
 37 36  1  0
 38 12  1  0
 38 43  1  0
 38 39  1  0
 39 42  1  1
 39 40  1  0
 41 39  1  0
 43 46  1  0
 44 48  1  0
 44 43  1  0
 45 44  2  0
 48 47  1  0
 50 48  1  0
 50 51  1  0
 50 49  1  0
 52 53  1  0
 53  5  1  0
 53 62  2  0
 54 62  1  0
 55 60  1  0
 56 57  1  0
 56 55  1  0
 58 57  1  0
 58 67  1  0
 58 59  1  0
 60 54  1  0
 60 59  1  0
 61 54  2  0
 62 63  1  0
 64 65  2  0
 65 84  1  0
 66 65  1  0
 66 69  1  0
 67 64  1  0
 67 68  1  0
 68 66  2  0
 69 70  1  0
 70 71  2  0
 72 75  1  0
 72 71  1  0
 73 72  2  0
 74 73  1  0
 74 69  2  0
 75 76  1  0
 76 77  1  0
 77 78  2  0
 79 78  1  0
 79 83  1  0
 80 79  2  0
 81 76  2  0
 81 80  1  0
 82 81  1  0
 84 85  1  0
 85 88  1  0
 85 87  1  0
 86 84  2  0
 89 90  1  0
 89 64  1  0
 91 89  1  0
M  ISO  4  10 101  11 101  54 100  62 100
M  END
>  <TORSDO>  (9) 
F 19

>  <SCORE>  (9) 
-14.428

>  <name>  (9) 
8

>  <ligand_id>  (9) 
8

>  <original_smiles>  (9) 
[H]c1c([H])c([H])c2c(c1[H])C([H])([H])C([H])([H])C([H])([H])C2([H])N([H])C(=O)C1([H])N(C(=O)C([H])(N([H])C(=O)C([H])(N([H])C([H])([H])[H])C([H])([H])[H])C(C([H])([H])[H])(C([H])([H])[H])C([H])([H])[H])C([H])([H])c2c([H])c(OC([H])([H])C(=O)c3c([H])c([H])c(C([H])(N([H])C(=O)N4C([H])([H])C([H])([H])C([H])([H])C([H])(n5nc(-c6c([H])c([H])c(Oc7c([H])c([H])c(F)c([H])c7F)c([H])c6[H])c(C(=O)N([H])[H])c5N([H])[H])C4([H])[H])C([H])([H])[H])c([H])c3C([H])([H])[H])c([H])c([H])c2C1([H])[H]

>  <smiles>  (9) 
[H]c1c([H])c([H])c2c(c1[H])C([H])([H])C([H])([H])C([H])([H])C2([H])N([H])C(=O)C1([H])N(C(=O)C([H])(N([H])C(=O)C([H])(N([H])C([H])([H])[H])C([H])([H])[H])C(C([H])([H])[H])(C([H])([H])[H])C([H])([H])[H])C([H])([H])c2c([H])c(OC([H])([H])C(=O)c3c([H])c([H])c(C([H])(N([H])C(=O)N4C([H])([H])C([H])([H])C([H])([H])C([H])(n5nc(-c6c([H])c([H])c(Oc7c([H])c([H])c(F)c([H])c7F)c([H])c6[H])c(C(=O)N([H])[H])c5N([H])[H])C4([H])[H])C([H])([H])[H])c([H])c3C([H])([H])[H])c([H])c([H])c2C1([H])[H]

$$$$
9:0:0
     RDKit          3D

 94102  0  0  1  0  0  0  0  0999 V2000
  -28.8900  -21.5720   21.2900 C   0  0  0  0  0  3  0  0  0  0  0  0
  -28.5440  -23.0620   21.3390 C   0  0  0  0  0  3  0  0  0  0  0  0
  -29.1560  -20.6710   20.1350 C   0  0  0  0  0  0  0  0  0  0  0  0
  -28.3460  -24.0690   20.2600 C   0  0  0  0  0  0  0  0  0  0  0  0
  -28.6110  -23.1680   19.1130 C   0  0  0  0  0  0  0  0  0  0  0  0
  -28.9620  -21.6870   19.0600 C   0  0  0  0  0  0  0  0  0  0  0  0
  -29.1480  -21.2310   17.7960 F   0  0  0  0  0  0  0  0  0  0  0  0
  -29.7870  -18.9760   19.8940 C   0  0  0  0  0  0  0  0  0  0  0  0
  -30.5860  -18.9490   18.9550 O   0  0  0  0  0  0  0  0  0  0  0  0
  -28.1130  -17.0640   20.6390 C   0  0  0  0  0  1  0  0  0  0  0  0
  -29.6370  -17.2710   20.5560 C   0  0  1  0  0  0  0  0  0  0  0  0
  -30.3720  -15.6140   20.1170 C   0  0  0  0  0  0  0  0  0  0  0  0
  -30.4440  -13.0940   19.2370 C   0  0  0  0  0  2  0  0  0  0  0  0
  -29.5090  -12.7710   18.0340 C   0  0  0  0  0  2  0  0  0  0  0  0
  -28.0860  -12.4280   18.5080 C   0  0  0  0  0  2  0  0  0  0  0  0
  -27.6210  -13.3930   19.6220 C   0  0  0  0  0  3  0  0  0  0  0  0
  -28.6910  -13.6080   20.7180 C   0  0  0  0  0  2  0  0  0  0  0  0
  -29.8690  -14.2400   20.0750 N   0  0  0  0  0  0  0  0  0  0  0  0
  -31.5790  -15.5560   19.8100 O   0  0  0  0  0  0  0  0  0  0  0  0
  -25.2630  -13.9050   20.4300 C   0  0  0  0  0  0  0  0  0  0  0  0
  -24.2210  -13.1180   20.8230 C   0  0  0  0  0  0  0  0  0  0  0  0
  -24.7030  -11.7730   20.7760 C   0  0  0  0  0  0  0  0  0  0  0  0
  -26.3130  -13.0470   20.1620 N   0  0  0  0  0  0  0  0  0  0  0  0
  -25.9900  -11.7550   20.4370 N   0  0  0  0  0  0  0  0  0  0  0  0
  -23.9900  -10.5050   20.9740 C   0  0  0  0  0  0  0  0  0  0  0  0
  -24.4330   -9.5440   21.9080 C   0  0  0  0  0  3  0  0  0  0  0  0
  -23.7150   -8.3440   22.0950 C   0  0  0  0  0  3  0  0  0  0  0  0
  -22.5370   -8.0970   21.3500 C   0  0  0  0  0  0  0  0  0  0  0  0
  -22.1120   -9.0490   20.4050 C   0  0  0  0  0  3  0  0  0  0  0  0
  -22.8320  -10.2390   20.2150 C   0  0  0  0  0  3  0  0  0  0  0  0
  -21.7890   -6.9480   21.4470 O   0  0  0  0  0  0  0  0  0  0  0  0
  -21.7370   -6.2200   22.6080 C   0  0  0  0  0  0  0  0  0  0  0  0
  -21.2940   -6.7850   23.8230 C   0  0  0  0  0  3  0  0  0  0  0  0
  -21.1920   -5.9830   24.9780 C   0  0  0  0  0  3  0  0  0  0  0  0
  -21.5210   -4.6160   24.9170 C   0  0  0  0  0  0  0  0  0  0  0  0
  -21.9580   -4.0500   23.7060 C   0  0  0  0  0  3  0  0  0  0  0  0
  -22.0620   -4.8490   22.5540 C   0  0  0  0  0  0  0  0  0  0  0  0
  -22.4630   -4.2940   21.3850 F   0  0  0  0  0  0  0  0  0  0  0  0
  -21.4160   -3.8420   26.0220 F   0  0  0  0  0  0  0  0  0  0  0  0
  -22.8260  -13.5850   21.1200 C   0  0  0  0  0  0  0  0  0  0  0  0
  -22.1190  -12.8830   21.9970 N   0  0  0  0  0  0  0  0  0  0  0  0
  -22.3740  -14.6100   20.6100 O   0  0  0  0  0  0  0  0  0  0  0  0
  -22.5000  -12.0540   22.4300 H   0  0  0  0  0  0  0  0  0  0  0  0
  -21.1830  -13.1760   22.2390 H   0  0  0  0  0  0  0  0  0  0  0  0
  -25.3930  -15.2760   20.2420 N   0  0  0  0  0  0  0  0  0  0  0  0
  -24.5990  -15.8990   20.3400 H   0  0  0  0  0  0  0  0  0  0  0  0
  -26.1920  -15.7180   19.8120 H   0  0  0  0  0  0  0  0  0  0  0  0
  -30.1820  -17.4650   21.9100 N   0  0  0  0  0  4  0  0  0  0  0  0
  -30.0650  -16.6370   22.4630 H   0  0  0  0  0  0  0  0  0  0  0  0
  -29.7480  -18.2420   22.3730 H   0  0  0  0  0  0  0  0  0  0  0  0
  -31.1680  -17.6470   21.8350 H   0  0  0  0  0  0  0  0  0  0  0  0
  -28.5760  -23.7670   17.8860 O   0  0  0  0  0  0  0  0  0  0  0  0
  -28.7590  -23.1070   17.2230 H   0  0  0  0  0  0  0  0  0  0  0  0
  -28.2590  -25.6710   20.3110 O   0  0  0  0  0  0  0  0  0  0  0  0
  -24.6270  -31.8470   23.1720 C   0  0  0  0  0  0  0  0  0  0  0  0
  -27.2170  -26.8000   20.2660 C   0  0  0  0  0  0  0  0  0  0  0  0
  -23.4560  -30.4200   21.5460 C   0  0  0  0  0  3  0  0  0  0  0  0
  -24.9210  -28.7700   20.1630 C   0  0  0  0  0  0  0  0  0  0  0  0
  -26.0280  -30.5950   21.4320 C   0  0  0  0  0  2  0  0  0  0  0  0
  -26.1050  -29.1580   20.8010 C   0  0  0  0  0  0  0  0  0  0  0  0
  -27.2360  -28.1980   20.8230 C   0  0  0  0  0  3  0  0  0  0  0  0
  -26.0010  -26.6030   19.5660 C   0  0  0  0  0  3  0  0  0  0  0  0
  -24.9030  -27.5160   19.5240 C   0  0  0  0  0  3  0  0  0  0  0  0
  -23.7040  -29.7070   20.1850 C   0  0  0  0  0  2  0  0  0  0  0  0
  -24.7270  -30.9870   22.1020 N   0  0  0  0  0  0  0  0  0  0  0  0
  -23.5300  -32.1450   23.6740 O   0  0  0  0  0  0  0  0  0  0  0  0
  -22.7450  -29.4480   22.5250 C   0  0  0  0  0  0  0  0  0  0  0  0
  -21.4120  -29.2960   22.4030 N   0  0  0  0  0  0  0  0  0  0  0  0
  -23.4030  -28.8290   23.3650 O   0  0  0  0  0  0  0  0  0  0  0  0
  -20.9330  -29.8450   21.7040 H   0  0  0  0  0  0  0  0  0  0  0  0
  -18.0210  -28.1120   22.9410 C   0  0  0  0  0  0  0  0  0  0  0  0
  -20.5840  -28.3690   23.1840 C   0  0  0  0  0  3  0  0  0  0  0  0
  -20.6740  -26.9330   22.6150 C   0  0  0  0  0  2  0  0  0  0  0  0
  -19.5630  -26.6130   21.6090 C   0  0  0  0  0  2  0  0  0  0  0  0
  -18.1870  -26.7630   22.2630 C   0  0  0  0  0  2  0  0  0  0  0  0
  -19.1440  -28.8720   23.3600 C   0  0  0  0  0  0  0  0  0  0  0  0
  -18.9310  -30.1330   23.9600 C   0  0  0  0  0  3  0  0  0  0  0  0
  -17.6280  -30.6340   24.1430 C   0  0  0  0  0  3  0  0  0  0  0  0
  -16.5200  -29.8700   23.7370 C   0  0  0  0  0  3  0  0  0  0  0  0
  -16.7160  -28.6120   23.1430 C   0  0  0  0  0  3  0  0  0  0  0  0
  -25.8850  -32.5110   23.8110 C   0  0  0  0  0  3  0  0  0  0  0  0
  -26.3870  -31.7600   25.1070 C   0  0  1  0  0  0  0  0  0  0  0  0
  -25.2810  -31.5280   26.1630 C   0  0  0  0  0  1  0  0  0  0  0  0
  -26.9870  -30.3810   24.7520 C   0  0  0  0  0  1  0  0  0  0  0  0
  -27.5230  -32.5720   25.7740 C   0  0  0  0  0  1  0  0  0  0  0  0
  -25.5480  -33.9090   24.1420 N   0  0  0  0  0  0  0  0  0  0  0  0
  -25.8760  -34.9780   23.4030 C   0  0  0  0  0  0  0  0  0  0  0  0
  -26.5530  -34.8910   22.3760 O   0  0  0  0  0  0  0  0  0  0  0  0
  -24.9440  -34.0470   24.9390 H   0  0  0  0  0  0  0  0  0  0  0  0
  -24.1380  -36.7710   23.0660 C   0  0  0  0  0  1  0  0  0  0  0  0
  -25.3790  -36.3610   23.8760 C   0  0  0  0  0  3  0  0  0  0  0  0
  -27.5040  -37.2560   24.7240 C   0  0  0  0  0  1  0  0  0  0  0  0
  -26.4050  -37.4230   23.7770 N   0  0  0  0  0  0  0  0  0  0  0  0
  -25.9910  -38.3390   23.9290 H   0  0  0  0  0  0  0  0  0  0  0  0
  1  2  1  0
  3  1  2  0
  4 54  1  0
  4  2  2  0
  5  4  1  0
  6  5  2  0
  6  3  1  0
  7  6  1  0
  8  3  1  0
  8 11  1  0
  9  8  2  0
 11 10  1  1
 11 48  1  0
 12 11  1  0
 13 18  1  0
 14 15  1  0
 14 13  1  0
 16 15  1  0
 16 23  1  0
 16 17  1  0
 18 12  1  0
 18 17  1  0
 19 12  2  0
 20 21  2  0
 21 40  1  0
 22 21  1  0
 22 25  1  0
 23 20  1  0
 23 24  1  0
 24 22  2  0
 25 26  1  0
 26 27  2  0
 28 31  1  0
 28 27  1  0
 29 28  2  0
 30 29  1  0
 30 25  2  0
 31 32  1  0
 32 33  1  0
 33 34  2  0
 35 34  1  0
 35 39  1  0
 36 35  2  0
 37 32  2  0
 37 36  1  0
 38 37  1  0
 40 41  1  0
 41 44  1  0
 41 43  1  0
 42 40  2  0
 45 46  1  0
 45 20  1  0
 47 45  1  0
 48 50  1  0
 48 49  1  0
 51 48  1  0
 52  5  1  0
 53 52  1  0
 55 66  2  0
 56 54  1  0
 56 61  1  0
 57 65  1  0
 57 67  1  0
 58 64  1  0
 58 60  1  0
 59 65  1  0
 60 61  2  0
 60 59  1  0
 62 56  2  0
 63 62  1  0
 63 58  2  0
 64 57  1  0
 65 55  1  0
 67 69  2  0
 68 67  1  0
 70 68  1  0
 71 80  2  0
 71 76  1  0
 72 68  1  0
 72 76  1  0
 73 72  1  0
 74 75  1  0
 74 73  1  0
 75 71  1  0
 76 77  2  0
 77 78  1  0
 79 78  2  0
 80 79  1  0
 81 55  1  0
 81 86  1  0
 81 82  1  0
 82 85  1  1
 82 83  1  0
 84 82  1  0
 86 89  1  0
 87 91  1  0
 87 86  1  0
 88 87  2  0
 91 90  1  0
 93 91  1  0
 93 94  1  0
 93 92  1  0
M  ISO  4   4 101  11 100  12 100  54 101
M  END
>  <TORSDO>  (10) 
F 20

>  <SCORE>  (10) 
-15.787

>  <name>  (10) 
9

>  <ligand_id>  (10) 
9

>  <original_smiles>  (10) 
[H]Oc1c(F)c(C(=O)C(C(=O)N2C([H])([H])C([H])([H])C([H])([H])C([H])(n3nc(-c4c([H])c([H])c(Oc5c([H])c([H])c(F)c([H])c5F)c([H])c4[H])c(C(=O)N([H])[H])c3N([H])[H])C2([H])[H])(C([H])([H])[H])[N+]([H])([H])[H])c([H])c([H])c1Oc1c([H])c([H])c2c(c1[H])C([H])([H])N(C(=O)C([H])(N([H])C(=O)C([H])(N([H])C([H])([H])[H])C([H])([H])[H])C(C([H])([H])[H])(C([H])([H])[H])C([H])([H])[H])C([H])(C(=O)N([H])C1([H])c3c([H])c([H])c([H])c([H])c3C([H])([H])C([H])([H])C1([H])[H])C2([H])[H]

>  <smiles>  (10) 
[H]Oc1c(F)c(C(=O)C(C(=O)N2C([H])([H])C([H])([H])C([H])([H])C([H])(n3nc(-c4c([H])c([H])c(Oc5c([H])c([H])c(F)c([H])c5F)c([H])c4[H])c(C(=O)N([H])[H])c3N([H])[H])C2([H])[H])(C([H])([H])[H])[N+]([H])([H])[H])c([H])c([H])c1Oc1c([H])c([H])c2c(c1[H])C([H])([H])N(C(=O)C([H])(N([H])C(=O)C([H])(N([H])C([H])([H])[H])C([H])([H])[H])C(C([H])([H])[H])(C([H])([H])[H])C([H])([H])[H])C([H])(C(=O)N([H])C1([H])c3c([H])c([H])c([H])c([H])c3C([H])([H])C([H])([H])C1([H])[H])C2([H])[H]

$$$$
10:0:0
     RDKit          3D

 88 94  0  0  1  0  0  0  0  0999 V2000
  -28.2260  -19.7910   20.6410 C   0  0  0  0  0  3  0  0  0  0  0  0
  -27.8680  -21.4180   20.6730 C   0  0  0  0  0  3  0  0  0  0  0  0
  -29.3390  -18.7810   20.0800 C   0  0  0  0  0  3  0  0  0  0  0  0
  -29.9160  -20.1890   19.5870 C   0  0  0  0  0  0  0  0  0  0  0  0
  -28.4250  -22.8340   20.1610 C   0  0  0  0  0  3  0  0  0  0  0  0
  -29.5600  -21.8240   19.6080 C   0  0  0  0  0  0  0  0  0  0  0  0
  -29.9640  -16.8080   20.0310 C   0  0  0  0  0  2  0  0  0  0  0  0
  -30.3410  -14.0190   19.2930 C   0  0  0  0  0  2  0  0  0  0  0  0
  -29.5710  -13.1820   18.1840 C   0  0  0  0  0  2  0  0  0  0  0  0
  -28.2560  -12.5960   18.6990 C   0  0  0  0  0  2  0  0  0  0  0  0
  -27.6090  -13.6250   19.6340 C   0  0  0  0  0  3  0  0  0  0  0  0
  -28.5620  -14.3380   20.6640 C   0  0  0  0  0  2  0  0  0  0  0  0
  -29.5640  -15.2620   19.9640 N   0  0  0  0  0  0  0  0  0  0  0  0
  -31.2030  -16.5570   19.8820 O   0  0  0  0  0  1  0  0  0  0  0  0
  -25.2730  -14.0100   20.4850 C   0  0  0  0  0  0  0  0  0  0  0  0
  -24.2440  -13.1950   20.8560 C   0  0  0  0  0  0  0  0  0  0  0  0
  -24.7440  -11.8580   20.7750 C   0  0  0  0  0  0  0  0  0  0  0  0
  -26.3360  -13.1820   20.1990 N   0  0  0  0  0  0  0  0  0  0  0  0
  -26.0350  -11.8710   20.4260 N   0  0  0  0  0  0  0  0  0  0  0  0
  -24.0330  -10.5780   20.9530 C   0  0  0  0  0  0  0  0  0  0  0  0
  -24.4490   -9.6200   21.9050 C   0  0  0  0  0  3  0  0  0  0  0  0
  -23.7270   -8.4190   22.0780 C   0  0  0  0  0  3  0  0  0  0  0  0
  -22.5720   -8.1630   21.2990 C   0  0  0  0  0  0  0  0  0  0  0  0
  -22.1740   -9.1090   20.3400 C   0  0  0  0  0  3  0  0  0  0  0  0
  -22.8970  -10.3030   20.1650 C   0  0  0  0  0  3  0  0  0  0  0  0
  -21.8260   -7.0110   21.3780 O   0  0  0  0  0  0  0  0  0  0  0  0
  -21.7000   -6.3120   22.5530 C   0  0  0  0  0  0  0  0  0  0  0  0
  -21.1080   -6.8830   23.7000 C   0  0  0  0  0  3  0  0  0  0  0  0
  -20.9350   -6.1080   24.8650 C   0  0  0  0  0  3  0  0  0  0  0  0
  -21.3460   -4.7620   24.8810 C   0  0  0  0  0  0  0  0  0  0  0  0
  -21.9300   -4.1890   23.7380 C   0  0  0  0  0  3  0  0  0  0  0  0
  -22.1030   -4.9610   22.5770 C   0  0  0  0  0  0  0  0  0  0  0  0
  -22.6470   -4.3980   21.4710 F   0  0  0  0  0  0  0  0  0  0  0  0
  -21.1750   -4.0140   25.9970 F   0  0  0  0  0  0  0  0  0  0  0  0
  -22.8460  -13.6420   21.1610 C   0  0  0  0  0  0  0  0  0  0  0  0
  -22.1530  -12.9270   22.0380 N   0  0  0  0  0  0  0  0  0  0  0  0
  -22.3820  -14.6660   20.6610 O   0  0  0  0  0  0  0  0  0  0  0  0
  -22.5440  -12.0990   22.4610 H   0  0  0  0  0  0  0  0  0  0  0  0
  -21.2160  -13.2090   22.2900 H   0  0  0  0  0  0  0  0  0  0  0  0
  -25.3890  -15.3880   20.3280 N   0  0  0  0  0  0  0  0  0  0  0  0
  -24.6010  -16.0120   20.4660 H   0  0  0  0  0  0  0  0  0  0  0  0
  -26.2140  -15.8600   19.9810 H   0  0  0  0  0  0  0  0  0  0  0  0
  -31.1980  -19.8620   18.9180 C   0  0  0  0  0  0  0  0  0  0  0  0
  -31.1060  -19.4430   17.4560 C   0  0  0  0  0  1  0  0  0  0  0  0
  -32.2940  -19.8990   19.4820 O   0  0  0  0  0  0  0  0  0  0  0  0
  -30.5280  -23.8680   18.6810 C   0  0  0  0  0  1  0  0  0  0  0  0
  -30.5830  -22.4710   18.9320 O   0  0  0  0  0  0  0  0  0  0  0  0
  -28.1970  -24.7000   20.2430 O   0  0  0  0  0  1  0  0  0  0  0  0
  -24.7700  -31.8440   23.1930 C   0  0  0  0  0  0  0  0  0  0  0  0
  -27.2600  -26.1900   20.2590 C   0  0  0  0  0  0  0  0  0  0  0  0
  -23.6060  -30.4300   21.5650 C   0  0  0  0  0  3  0  0  0  0  0  0
  -25.0530  -28.6420   20.1950 C   0  0  0  0  0  0  0  0  0  0  0  0
  -26.2060  -30.3730   21.5220 C   0  0  0  0  0  2  0  0  0  0  0  0
  -26.2580  -28.8670   20.8680 C   0  0  0  0  0  0  0  0  0  0  0  0
  -27.3040  -27.6940   20.8530 C   0  0  0  0  0  3  0  0  0  0  0  0
  -26.0220  -26.3540   19.5180 C   0  0  0  0  0  3  0  0  0  0  0  0
  -25.0130  -27.4140   19.4940 C   0  0  0  0  0  3  0  0  0  0  0  0
  -23.8770  -29.6760   20.2180 C   0  0  0  0  0  2  0  0  0  0  0  0
  -24.8940  -30.9320   22.1440 N   0  0  0  0  0  0  0  0  0  0  0  0
  -23.6640  -32.1740   23.6670 O   0  0  0  0  0  0  0  0  0  0  0  0
  -22.8260  -29.5150   22.5550 C   0  0  0  0  0  0  0  0  0  0  0  0
  -21.4880  -29.3920   22.4260 N   0  0  0  0  0  0  0  0  0  0  0  0
  -23.4510  -28.9040   23.4230 O   0  0  0  0  0  0  0  0  0  0  0  0
  -21.0230  -29.9350   21.7100 H   0  0  0  0  0  0  0  0  0  0  0  0
  -18.0820  -28.2030   22.9710 C   0  0  0  0  0  0  0  0  0  0  0  0
  -20.6480  -28.4650   23.2010 C   0  0  0  0  0  3  0  0  0  0  0  0
  -20.7320  -27.0310   22.6230 C   0  0  0  0  0  2  0  0  0  0  0  0
  -19.6210  -26.7230   21.6140 C   0  0  0  0  0  2  0  0  0  0  0  0
  -18.2460  -26.8640   22.2710 C   0  0  0  0  0  2  0  0  0  0  0  0
  -19.2070  -28.9620   23.3910 C   0  0  0  0  0  0  0  0  0  0  0  0
  -18.9930  -30.2100   24.0160 C   0  0  0  0  0  3  0  0  0  0  0  0
  -17.6880  -30.7020   24.2170 C   0  0  0  0  0  3  0  0  0  0  0  0
  -16.5780  -29.9420   23.8050 C   0  0  0  0  0  3  0  0  0  0  0  0
  -16.7760  -28.6940   23.1890 C   0  0  0  0  0  3  0  0  0  0  0  0
  -26.0030  -32.5300   23.8630 C   0  0  0  0  0  3  0  0  0  0  0  0
  -25.6640  -33.9400   24.1790 N   0  0  0  0  0  0  0  0  0  0  0  0
  -25.9830  -35.0130   23.4380 C   0  0  0  0  0  0  0  0  0  0  0  0
  -26.6340  -34.9200   22.3960 O   0  0  0  0  0  0  0  0  0  0  0  0
  -25.0750  -34.0840   24.9870 H   0  0  0  0  0  0  0  0  0  0  0  0
  -24.2420  -36.8240   23.1720 C   0  0  0  0  0  1  0  0  0  0  0  0
  -25.5170  -36.4070   23.9230 C   0  0  0  0  0  3  0  0  0  0  0  0
  -27.6740  -37.3220   24.6750 C   0  0  0  0  0  1  0  0  0  0  0  0
  -26.5410  -37.4660   23.7650 N   0  0  0  0  0  0  0  0  0  0  0  0
  -26.1340  -38.3870   23.9080 H   0  0  0  0  0  0  0  0  0  0  0  0
  -26.4600  -31.8070   25.1920 C   0  0  1  0  0  0  0  0  0  0  0  0
  -25.3220  -31.6060   26.2210 C   0  0  0  0  0  1  0  0  0  0  0  0
  -27.0600  -30.4150   24.8960 C   0  0  0  0  0  1  0  0  0  0  0  0
  -27.5830  -32.6240   25.8760 C   0  0  0  0  0  1  0  0  0  0  0  0
  1  2  1  0
  3  1  2  0
  4  6  2  0
  4  3  1  0
  5  2  2  0
  6  5  1  0
  8 13  1  0
  9 10  1  0
  9  8  1  0
 11 10  1  0
 11 18  1  0
 11 12  1  0
 13  7  1  0
 13 12  1  0
 14  7  1  0
 15 16  2  0
 16 35  1  0
 17 16  1  0
 17 20  1  0
 18 19  1  0
 18 15  1  0
 19 17  2  0
 20 21  1  0
 21 22  2  0
 23 26  1  0
 23 22  1  0
 24 23  2  0
 25 24  1  0
 25 20  2  0
 26 27  1  0
 27 32  2  0
 27 28  1  0
 28 29  2  0
 29 30  1  0
 30 34  1  0
 31 30  2  0
 32 31  1  0
 33 32  1  0
 35 36  1  0
 36 39  1  0
 36 38  1  0
 37 35  2  0
 40 41  1  0
 40 15  1  0
 42 40  1  0
 43 45  2  0
 43  4  1  0
 44 43  1  0
 46 47  1  0
 47  6  1  0
 48 50  1  0
 49 60  2  0
 50 55  1  0
 51 59  1  0
 51 61  1  0
 52 58  1  0
 52 54  1  0
 53 59  1  0
 54 53  1  0
 55 54  2  0
 56 50  2  0
 57 56  1  0
 57 52  2  0
 58 51  1  0
 59 49  1  0
 61 63  2  0
 62 61  1  0
 64 62  1  0
 65 74  2  0
 65 70  1  0
 66 62  1  0
 66 70  1  0
 67 66  1  0
 68 69  1  0
 68 67  1  0
 69 65  1  0
 70 71  2  0
 71 72  1  0
 73 72  2  0
 74 73  1  0
 75 49  1  0
 75 76  1  0
 75 85  1  0
 76 79  1  0
 77 81  1  0
 77 76  1  0
 78 77  2  0
 81 80  1  0
 83 84  1  0
 83 81  1  0
 83 82  1  0
 85 88  1  1
 85 86  1  0
 87 85  1  0
M  ISO  4   3 100   5 101   7 100  48 101
M  END
>  <TORSDO>  (11) 
F 18

>  <SCORE>  (11) 
-15.383

>  <name>  (11) 
10

>  <ligand_id>  (11) 
10

>  <original_smiles>  (11) 
[H]c1c([H])c([H])c2c(c1[H])C([H])([H])C([H])([H])C([H])([H])C2([H])N([H])C(=O)C1([H])N(C(=O)C([H])(N([H])C(=O)C([H])(N([H])C([H])([H])[H])C([H])([H])[H])C(C([H])([H])[H])(C([H])([H])[H])C([H])([H])[H])C([H])([H])c2c([H])c(Oc3c([H])c([H])c(C(=O)N4C([H])([H])C([H])([H])C([H])([H])C([H])(n5nc(-c6c([H])c([H])c(Oc7c([H])c([H])c(F)c([H])c7F)c([H])c6[H])c(C(=O)N([H])[H])c5N([H])[H])C4([H])[H])c(C(=O)C([H])([H])[H])c3OC([H])([H])[H])c([H])c([H])c2C1([H])[H]

>  <smiles>  (11) 
[H]c1c([H])c([H])c2c(c1[H])C([H])([H])C([H])([H])C([H])([H])C2([H])N([H])C(=O)C1([H])N(C(=O)C([H])(N([H])C(=O)C([H])(N([H])C([H])([H])[H])C([H])([H])[H])C(C([H])([H])[H])(C([H])([H])[H])C([H])([H])[H])C([H])([H])c2c([H])c(Oc3c([H])c([H])c(C(=O)N4C([H])([H])C([H])([H])C([H])([H])C([H])(n5nc(-c6c([H])c([H])c(Oc7c([H])c([H])c(F)c([H])c7F)c([H])c6[H])c(C(=O)N([H])[H])c5N([H])[H])C4([H])[H])c(C(=O)C([H])([H])[H])c3OC([H])([H])[H])c([H])c([H])c2C1([H])[H]

$$$$
11:0:0
     RDKit          3D

 88 96  0  0  1  0  0  0  0  0999 V2000
  -30.6710  -18.3850   20.7130 C   0  0  0  0  0  3  0  0  0  0  0  0
  -30.3710  -19.8590   20.7120 C   0  0  0  0  0  3  0  0  0  0  0  0
  -29.8360  -17.2280   20.3460 C   0  0  0  0  0  0  0  0  0  0  0  0
  -29.1600  -20.6130   20.3360 C   0  0  0  0  0  0  0  0  0  0  0  0
  -28.2960  -19.4580   19.9500 C   0  0  0  0  0  0  0  0  0  0  0  0
  -28.5980  -17.9500   19.9440 C   0  0  0  0  0  0  0  0  0  0  0  0
  -27.5840  -17.1700   19.4930 F   0  0  0  0  0  0  0  0  0  0  0  0
  -30.3990  -15.5750   20.2490 C   0  0  0  0  0  0  0  0  0  0  0  0
  -30.4180  -13.0500   19.4850 C   0  0  0  0  0  2  0  0  0  0  0  0
  -29.5380  -12.7120   18.2520 C   0  0  0  0  0  2  0  0  0  0  0  0
  -28.1020  -12.3860   18.6870 C   0  0  0  0  0  2  0  0  0  0  0  0
  -27.5940  -13.3880   19.7500 C   0  0  0  0  0  3  0  0  0  0  0  0
  -28.6130  -13.6880   20.8710 C   0  0  0  0  0  2  0  0  0  0  0  0
  -29.8250  -14.2430   20.2370 N   0  0  0  0  0  0  0  0  0  0  0  0
  -31.6250  -15.4490   20.0740 O   0  0  0  0  0  0  0  0  0  0  0  0
  -25.2290  -13.9030   20.5210 C   0  0  0  0  0  0  0  0  0  0  0  0
  -24.1750  -13.1140   20.8800 C   0  0  0  0  0  0  0  0  0  0  0  0
  -24.6550  -11.7680   20.8410 C   0  0  0  0  0  0  0  0  0  0  0  0
  -26.2790  -13.0410   20.2680 N   0  0  0  0  0  0  0  0  0  0  0  0
  -25.9480  -11.7480   20.5300 N   0  0  0  0  0  0  0  0  0  0  0  0
  -23.9350  -10.4980   21.0190 C   0  0  0  0  0  0  0  0  0  0  0  0
  -24.3590   -9.5310   21.9580 C   0  0  0  0  0  3  0  0  0  0  0  0
  -23.6340   -8.3310   22.1270 C   0  0  0  0  0  3  0  0  0  0  0  0
  -22.4720   -8.0880   21.3580 C   0  0  0  0  0  0  0  0  0  0  0  0
  -22.0660   -9.0440   20.4090 C   0  0  0  0  0  3  0  0  0  0  0  0
  -22.7920  -10.2360   20.2380 C   0  0  0  0  0  3  0  0  0  0  0  0
  -21.7200   -6.9400   21.4360 O   0  0  0  0  0  0  0  0  0  0  0  0
  -21.6440   -6.2060   22.5930 C   0  0  0  0  0  0  0  0  0  0  0  0
  -21.1500   -6.7600   23.7940 C   0  0  0  0  0  3  0  0  0  0  0  0
  -21.0220   -5.9520   24.9420 C   0  0  0  0  0  3  0  0  0  0  0  0
  -21.3800   -4.5900   24.8880 C   0  0  0  0  0  0  0  0  0  0  0  0
  -21.8660   -4.0360   23.6910 C   0  0  0  0  0  3  0  0  0  0  0  0
  -21.9950   -4.8420   22.5460 C   0  0  0  0  0  0  0  0  0  0  0  0
  -22.4450   -4.2980   21.3890 F   0  0  0  0  0  0  0  0  0  0  0  0
  -21.2510   -3.8120   25.9880 F   0  0  0  0  0  0  0  0  0  0  0  0
  -22.7740  -13.5780   21.1440 C   0  0  0  0  0  0  0  0  0  0  0  0
  -22.0470  -12.8760   22.0070 N   0  0  0  0  0  0  0  0  0  0  0  0
  -22.3330  -14.6010   20.6230 O   0  0  0  0  0  0  0  0  0  0  0  0
  -22.4190  -12.0510   22.4540 H   0  0  0  0  0  0  0  0  0  0  0  0
  -21.1060  -13.1690   22.2240 H   0  0  0  0  0  0  0  0  0  0  0  0
  -25.3790  -15.2770   20.3550 N   0  0  0  0  0  0  0  0  0  0  0  0
  -26.2250  -15.7390   20.0400 H   0  0  0  0  0  0  0  0  0  0  0  0
  -24.6020  -15.9160   20.4760 H   0  0  0  0  0  0  0  0  0  0  0  0
  -27.0450  -19.7850   19.5220 O   0  0  0  0  0  0  0  0  0  0  0  0
  -26.5770  -18.9860   19.2920 H   0  0  0  0  0  0  0  0  0  0  0  0
  -29.0590  -22.4480   20.4220 C   0  0  0  0  0  3  0  0  0  0  0  0
  -28.0080  -23.9910   20.1500 C   0  0  0  0  0  3  0  0  0  0  0  0
  -28.1840  -25.6970   20.3350 O   0  0  0  0  0  0  0  0  0  0  0  0
  -24.6470  -31.8660   23.2520 C   0  0  0  0  0  0  0  0  0  0  0  0
  -27.1990  -26.8660   20.2640 C   0  0  0  0  0  0  0  0  0  0  0  0
  -23.4690  -30.4780   21.5970 C   0  0  0  0  0  3  0  0  0  0  0  0
  -24.9270  -28.8470   20.1900 C   0  0  0  0  0  0  0  0  0  0  0  0
  -26.0460  -30.6400   21.4940 C   0  0  0  0  0  2  0  0  0  0  0  0
  -26.1140  -29.2180   20.8330 C   0  0  0  0  0  0  0  0  0  0  0  0
  -27.2400  -28.2540   20.8390 C   0  0  0  0  0  3  0  0  0  0  0  0
  -25.9800  -26.6820   19.5690 C   0  0  0  0  0  3  0  0  0  0  0  0
  -24.8930  -27.6040   19.5360 C   0  0  0  0  0  3  0  0  0  0  0  0
  -23.7180  -29.7900   20.2240 C   0  0  0  0  0  2  0  0  0  0  0  0
  -24.7430  -31.0250   22.1670 N   0  0  0  0  0  0  0  0  0  0  0  0
  -23.5500  -32.1630   23.7560 O   0  0  0  0  0  0  0  0  0  0  0  0
  -22.7500  -29.4910   22.5550 C   0  0  0  0  0  0  0  0  0  0  0  0
  -21.4180  -29.3400   22.4190 N   0  0  0  0  0  0  0  0  0  0  0  0
  -23.3980  -28.8600   23.3930 O   0  0  0  0  0  0  0  0  0  0  0  0
  -20.9450  -29.9000   21.7220 H   0  0  0  0  0  0  0  0  0  0  0  0
  -18.0200  -28.1560   22.9080 C   0  0  0  0  0  0  0  0  0  0  0  0
  -20.5810  -28.4040   23.1790 C   0  0  0  0  0  3  0  0  0  0  0  0
  -20.6740  -26.9760   22.5940 C   0  0  0  0  0  2  0  0  0  0  0  0
  -19.5730  -26.6690   21.5730 C   0  0  0  0  0  2  0  0  0  0  0  0
  -18.1900  -26.8150   22.2150 C   0  0  0  0  0  2  0  0  0  0  0  0
  -19.1420  -28.9100   23.3460 C   0  0  0  0  0  0  0  0  0  0  0  0
  -18.9260  -30.1620   23.9590 C   0  0  0  0  0  3  0  0  0  0  0  0
  -17.6220  -30.6630   24.1340 C   0  0  0  0  0  3  0  0  0  0  0  0
  -16.5150  -29.9090   23.7090 C   0  0  0  0  0  3  0  0  0  0  0  0
  -16.7150  -28.6560   23.1020 C   0  0  0  0  0  3  0  0  0  0  0  0
  -25.9080  -32.5070   23.9050 C   0  0  0  0  0  3  0  0  0  0  0  0
  -26.3750  -31.7570   25.2150 C   0  0  1  0  0  0  0  0  0  0  0  0
  -25.2460  -31.5560   26.2550 C   0  0  0  0  0  1  0  0  0  0  0  0
  -26.9530  -30.3640   24.8800 C   0  0  0  0  0  1  0  0  0  0  0  0
  -27.5140  -32.5510   25.8960 C   0  0  0  0  0  1  0  0  0  0  0  0
  -25.5950  -33.9150   24.2180 N   0  0  0  0  0  0  0  0  0  0  0  0
  -25.9310  -34.9670   23.4590 C   0  0  0  0  0  0  0  0  0  0  0  0
  -26.5940  -34.8520   22.4260 O   0  0  0  0  0  0  0  0  0  0  0  0
  -25.0030  -34.0750   25.0200 H   0  0  0  0  0  0  0  0  0  0  0  0
  -24.2050  -36.7710   23.1250 C   0  0  0  0  0  1  0  0  0  0  0  0
  -25.4600  -36.3640   23.9140 C   0  0  0  0  0  3  0  0  0  0  0  0
  -27.6070  -37.2610   24.7030 C   0  0  0  0  0  1  0  0  0  0  0  0
  -26.4950  -37.4120   23.7680 N   0  0  0  0  0  0  0  0  0  0  0  0
  -26.0930  -38.3370   23.8980 H   0  0  0  0  0  0  0  0  0  0  0  0
  2  1  1  0
  3  1  2  0
  4 46  1  0
  4  2  2  0
  5  4  1  0
  6  5  2  0
  6  3  1  0
  7  6  1  0
  8  3  1  0
  9 14  1  0
 10 11  1  0
 10  9  1  0
 12 11  1  0
 12 19  1  0
 12 13  1  0
 14  8  1  0
 14 13  1  0
 15  8  2  0
 16 17  2  0
 17 36  1  0
 18 17  1  0
 18 21  1  0
 19 16  1  0
 19 20  1  0
 20 18  2  0
 21 22  1  0
 22 23  2  0
 24 27  1  0
 24 23  1  0
 25 24  2  0
 26 25  1  0
 26 21  2  0
 27 28  1  0
 28 29  1  0
 29 30  2  0
 31 30  1  0
 31 35  1  0
 32 31  2  0
 33 28  2  0
 33 32  1  0
 34 33  1  0
 36 37  1  0
 37 40  1  0
 37 39  1  0
 38 36  2  0
 41 43  1  0
 41 16  1  0
 42 41  1  0
 44  5  1  0
 45 44  1  0
 47 48  1  0
 47 46  2  0
 49 60  2  0
 50 48  1  0
 50 55  1  0
 51 59  1  0
 51 61  1  0
 52 58  1  0
 52 54  1  0
 53 59  1  0
 54 55  2  0
 54 53  1  0
 56 50  2  0
 57 56  1  0
 57 52  2  0
 58 51  1  0
 59 49  1  0
 61 63  2  0
 62 61  1  0
 64 62  1  0
 65 74  2  0
 65 70  1  0
 66 62  1  0
 66 70  1  0
 67 66  1  0
 68 69  1  0
 68 67  1  0
 69 65  1  0
 70 71  2  0
 71 72  1  0
 73 72  2  0
 74 73  1  0
 75 49  1  0
 75 80  1  0
 75 76  1  0
 76 79  1  1
 76 77  1  0
 78 76  1  0
 80 83  1  0
 81 85  1  0
 81 80  1  0
 82 81  2  0
 85 84  1  0
 87 88  1  0
 87 85  1  0
 87 86  1  0
M  ISO  4   3 100   8 100  47 101  48 101
M  END
>  <TORSDO>  (12) 
F 19

>  <SCORE>  (12) 
-16.806

>  <name>  (12) 
11

>  <ligand_id>  (12) 
11

>  <original_smiles>  (12) 
[H]Oc1c(F)c(C(=O)N2C([H])([H])C([H])([H])C([H])([H])C([H])(n3nc(-c4c([H])c([H])c(Oc5c([H])c([H])c(F)c([H])c5F)c([H])c4[H])c(C(=O)N([H])[H])c3N([H])[H])C2([H])[H])c([H])c([H])c1C([H])([H])C([H])([H])Oc1c([H])c([H])c2c(c1[H])C([H])([H])N(C(=O)C([H])(N([H])C(=O)C([H])(N([H])C([H])([H])[H])C([H])([H])[H])C(C([H])([H])[H])(C([H])([H])[H])C([H])([H])[H])C([H])(C(=O)N([H])C1([H])c3c([H])c([H])c([H])c([H])c3C([H])([H])C([H])([H])C1([H])[H])C2([H])[H]

>  <smiles>  (12) 
[H]Oc1c(F)c(C(=O)N2C([H])([H])C([H])([H])C([H])([H])C([H])(n3nc(-c4c([H])c([H])c(Oc5c([H])c([H])c(F)c([H])c5F)c([H])c4[H])c(C(=O)N([H])[H])c3N([H])[H])C2([H])[H])c([H])c([H])c1C([H])([H])C([H])([H])Oc1c([H])c([H])c2c(c1[H])C([H])([H])N(C(=O)C([H])(N([H])C(=O)C([H])(N([H])C([H])([H])[H])C([H])([H])[H])C(C([H])([H])[H])(C([H])([H])[H])C([H])([H])[H])C([H])(C(=O)N([H])C1([H])c3c([H])c([H])c([H])c([H])c3C([H])([H])C([H])([H])C1([H])[H])C2([H])[H]

$$$$
12:0:0
     RDKit          3D

 93101  0  0  1  0  0  0  0  0999 V2000
  -30.2440  -20.9690   20.5890 C   0  0  0  0  0  3  0  0  0  0  0  0
  -29.8320  -22.4000   20.5520 C   0  0  0  0  0  3  0  0  0  0  0  0
  -28.3050  -20.3290   19.5560 C   0  0  0  0  0  3  0  0  0  0  0  0
  -29.5390  -19.7850   20.0860 C   0  0  0  0  0  0  0  0  0  0  0  0
  -28.6040  -22.9340   19.9910 C   0  0  0  0  0  0  0  0  0  0  0  0
  -27.8780  -21.7530   19.5050 C   0  0  0  0  0  0  0  0  0  0  0  0
  -26.5320  -22.0040   18.8470 C   0  0  0  0  0  1  0  0  0  0  0  0
  -30.1610  -18.2130   20.0450 C   0  0  0  0  0  0  0  0  0  0  0  0
  -29.7480  -16.8180   20.2440 C   0  0  0  0  0  0  0  0  0  0  0  0
  -30.5630  -15.4140   20.0770 C   0  0  0  0  0  0  0  0  0  0  0  0
  -30.5560  -12.9460   19.2920 C   0  0  0  0  0  2  0  0  0  0  0  0
  -29.6250  -12.7140   18.0730 C   0  0  0  0  0  2  0  0  0  0  0  0
  -28.1810  -12.4400   18.5280 C   0  0  0  0  0  2  0  0  0  0  0  0
  -27.7360  -13.4210   19.6390 C   0  0  0  0  0  3  0  0  0  0  0  0
  -28.7940  -13.5760   20.7520 C   0  0  0  0  0  2  0  0  0  0  0  0
  -30.0170  -14.0960   20.1130 N   0  0  0  0  0  0  0  0  0  0  0  0
  -31.7680  -15.3820   19.7840 O   0  0  0  0  0  0  0  0  0  0  0  0
  -25.3900  -13.9890   20.4560 C   0  0  0  0  0  0  0  0  0  0  0  0
  -24.3350  -13.2150   20.8560 C   0  0  0  0  0  0  0  0  0  0  0  0
  -24.7940  -11.8620   20.7950 C   0  0  0  0  0  0  0  0  0  0  0  0
  -26.4170  -13.1090   20.1690 N   0  0  0  0  0  0  0  0  0  0  0  0
  -26.0750  -11.8250   20.4440 N   0  0  0  0  0  0  0  0  0  0  0  0
  -24.0690  -10.6000   20.9880 C   0  0  0  0  0  0  0  0  0  0  0  0
  -24.4820   -9.6490   21.9480 C   0  0  0  0  0  3  0  0  0  0  0  0
  -23.7570   -8.4530   22.1290 C   0  0  0  0  0  3  0  0  0  0  0  0
  -22.6030   -8.1970   21.3500 C   0  0  0  0  0  0  0  0  0  0  0  0
  -22.2090   -9.1350   20.3810 C   0  0  0  0  0  3  0  0  0  0  0  0
  -22.9350  -10.3240   20.1980 C   0  0  0  0  0  3  0  0  0  0  0  0
  -21.8510   -7.0500   21.4400 O   0  0  0  0  0  0  0  0  0  0  0  0
  -21.7290   -6.3600   22.6190 C   0  0  0  0  0  0  0  0  0  0  0  0
  -21.1520   -6.9430   23.7690 C   0  0  0  0  0  3  0  0  0  0  0  0
  -20.9830   -6.1750   24.9370 C   0  0  0  0  0  3  0  0  0  0  0  0
  -21.3810   -4.8260   24.9580 C   0  0  0  0  0  0  0  0  0  0  0  0
  -21.9500   -4.2420   23.8130 C   0  0  0  0  0  3  0  0  0  0  0  0
  -22.1200   -5.0070   22.6460 C   0  0  0  0  0  0  0  0  0  0  0  0
  -22.6500   -4.4330   21.5390 F   0  0  0  0  0  0  0  0  0  0  0  0
  -21.2100   -4.0850   26.0780 F   0  0  0  0  0  0  0  0  0  0  0  0
  -22.9470  -13.6940   21.1590 C   0  0  0  0  0  0  0  0  0  0  0  0
  -22.2340  -12.9970   22.0360 N   0  0  0  0  0  0  0  0  0  0  0  0
  -22.5060  -14.7240   20.6500 O   0  0  0  0  0  0  0  0  0  0  0  0
  -22.6040  -12.1650   22.4690 H   0  0  0  0  0  0  0  0  0  0  0  0
  -21.3020  -13.3020   22.2790 H   0  0  0  0  0  0  0  0  0  0  0  0
  -25.5660  -15.3600   20.2630 N   0  0  0  0  0  0  0  0  0  0  0  0
  -24.6870  -15.8450   20.4210 H   0  0  0  0  0  0  0  0  0  0  0  0
  -25.8360  -15.5240   19.3010 H   0  0  0  0  0  0  0  0  0  0  0  0
  -28.3470  -16.7420   20.7050 N   0  0  0  0  0  4  0  0  0  0  0  0
  -28.1100  -17.5660   21.2260 H   0  0  0  0  0  0  0  0  0  0  0  0
  -28.2120  -15.9600   21.3200 H   0  0  0  0  0  0  0  0  0  0  0  0
  -27.7020  -16.6610   19.9400 H   0  0  0  0  0  0  0  0  0  0  0  0
  -31.4300  -18.3490   19.6440 O   0  0  0  0  0  0  0  0  0  0  0  0
  -31.5720  -19.2710   19.4660 H   0  0  0  0  0  0  0  0  0  0  0  0
  -27.9620  -24.5440   19.8070 C   0  0  0  0  0  2  0  0  0  0  0  0
  -28.3400  -26.0740   20.1900 O   0  0  0  0  0  0  0  0  0  0  0  0
  -24.7220  -31.8880   23.3030 C   0  0  0  0  0  0  0  0  0  0  0  0
  -27.3440  -27.1760   20.1360 C   0  0  0  0  0  0  0  0  0  0  0  0
  -23.5550  -30.5510   21.5980 C   0  0  0  0  0  3  0  0  0  0  0  0
  -25.0330  -29.0220   20.1310 C   0  0  0  0  0  0  0  0  0  0  0  0
  -26.1220  -30.7920   21.4910 C   0  0  0  0  0  2  0  0  0  0  0  0
  -26.2090  -29.4140   20.7820 C   0  0  0  0  0  0  0  0  0  0  0  0
  -27.3620  -28.5110   20.7640 C   0  0  0  0  0  3  0  0  0  0  0  0
  -26.1390  -26.9370   19.4350 C   0  0  0  0  0  3  0  0  0  0  0  0
  -25.0200  -27.8050   19.4370 C   0  0  0  0  0  3  0  0  0  0  0  0
  -23.8060  -29.9270   20.1990 C   0  0  0  0  0  2  0  0  0  0  0  0
  -24.8200  -31.1000   22.1850 N   0  0  0  0  0  0  0  0  0  0  0  0
  -23.6260  -32.1510   23.8220 O   0  0  0  0  0  0  0  0  0  0  0  0
  -22.8590  -29.5100   22.5140 C   0  0  0  0  0  0  0  0  0  0  0  0
  -21.5320  -29.3390   22.3620 N   0  0  0  0  0  0  0  0  0  0  0  0
  -23.5180  -28.8600   23.3290 O   0  0  0  0  0  0  0  0  0  0  0  0
  -21.0540  -29.9130   21.6820 H   0  0  0  0  0  0  0  0  0  0  0  0
  -18.1440  -28.1230   22.8130 C   0  0  0  0  0  0  0  0  0  0  0  0
  -20.7050  -28.3680   23.0870 C   0  0  0  0  0  3  0  0  0  0  0  0
  -20.8020  -26.9650   22.4440 C   0  0  0  0  0  2  0  0  0  0  0  0
  -19.6990  -26.6950   21.4160 C   0  0  0  0  0  2  0  0  0  0  0  0
  -18.3180  -26.8100   22.0670 C   0  0  0  0  0  2  0  0  0  0  0  0
  -19.2650  -28.8620   23.2770 C   0  0  0  0  0  0  0  0  0  0  0  0
  -19.0470  -30.0910   23.9370 C   0  0  0  0  0  3  0  0  0  0  0  0
  -17.7430  -30.5820   24.1340 C   0  0  0  0  0  3  0  0  0  0  0  0
  -16.6370  -29.8410   23.6830 C   0  0  0  0  0  3  0  0  0  0  0  0
  -16.8380  -28.6120   23.0280 C   0  0  0  0  0  3  0  0  0  0  0  0
  -25.9830  -32.5110   23.9750 C   0  0  0  0  0  3  0  0  0  0  0  0
  -26.4170  -31.7590   25.2940 C   0  0  1  0  0  0  0  0  0  0  0  0
  -25.2660  -31.5700   26.3100 C   0  0  0  0  0  1  0  0  0  0  0  0
  -26.9890  -30.3600   24.9720 C   0  0  0  0  0  1  0  0  0  0  0  0
  -27.5500  -32.5460   25.9950 C   0  0  0  0  0  1  0  0  0  0  0  0
  -25.6870  -33.9230   24.2680 N   0  0  0  0  0  0  0  0  0  0  0  0
  -26.0230  -34.9580   23.4850 C   0  0  0  0  0  0  0  0  0  0  0  0
  -26.6780  -34.8210   22.4480 O   0  0  0  0  0  0  0  0  0  0  0  0
  -25.1030  -34.1030   25.0720 H   0  0  0  0  0  0  0  0  0  0  0  0
  -24.2890  -36.7520   23.1480 C   0  0  0  0  0  1  0  0  0  0  0  0
  -25.5630  -36.3650   23.9170 C   0  0  0  0  0  3  0  0  0  0  0  0
  -27.7240  -37.2820   24.6410 C   0  0  0  0  0  1  0  0  0  0  0  0
  -26.5950  -37.4060   23.7230 N   0  0  0  0  0  0  0  0  0  0  0  0
  -26.1960  -38.3350   23.8330 H   0  0  0  0  0  0  0  0  0  0  0  0
  2  1  1  0
  3  4  1  0
  4  1  2  0
  5  2  2  0
  6  3  2  0
  6  5  1  0
  7  6  1  0
  8  4  1  0
  8  9  2  0
  9 46  1  0
 10 16  1  0
 10  9  1  0
 11 16  1  0
 12 13  1  0
 12 11  1  0
 14 13  1  0
 14 21  1  0
 14 15  1  0
 16 15  1  0
 17 10  2  0
 18 19  2  0
 19 38  1  0
 20 19  1  0
 20 23  1  0
 21 22  1  0
 21 18  1  0
 22 20  2  0
 23 24  1  0
 24 25  2  0
 26 29  1  0
 26 25  1  0
 27 26  2  0
 28 27  1  0
 28 23  2  0
 29 30  1  0
 30 35  2  0
 30 31  1  0
 31 32  2  0
 32 33  1  0
 33 37  1  0
 34 33  2  0
 35 34  1  0
 36 35  1  0
 38 39  1  0
 39 42  1  0
 39 41  1  0
 40 38  2  0
 43 44  1  0
 43 18  1  0
 45 43  1  0
 46 47  1  0
 46 48  1  0
 49 46  1  0
 50  8  1  0
 51 50  1  0
 52  5  1  0
 52 53  1  0
 54 65  2  0
 55 53  1  0
 55 60  1  0
 56 64  1  0
 56 66  1  0
 57 63  1  0
 57 59  1  0
 58 64  1  0
 59 58  1  0
 60 59  2  0
 61 62  1  0
 61 55  2  0
 62 57  2  0
 63 56  1  0
 64 54  1  0
 66 68  2  0
 67 66  1  0
 69 67  1  0
 70 79  2  0
 70 75  1  0
 71 67  1  0
 71 75  1  0
 72 71  1  0
 73 74  1  0
 73 72  1  0
 74 70  1  0
 75 76  2  0
 76 77  1  0
 78 77  2  0
 79 78  1  0
 80 54  1  0
 80 85  1  0
 80 81  1  0
 81 84  1  1
 81 82  1  0
 83 81  1  0
 85 88  1  0
 86 90  1  0
 86 85  1  0
 87 86  2  0
 90 89  1  0
 92 93  1  0
 92 90  1  0
 92 91  1  0
M  ISO  4   9 100  10 100  52 101  53 101
M  END
>  <TORSDO>  (13) 
F 20

>  <SCORE>  (13) 
-14.795

>  <name>  (13) 
12

>  <ligand_id>  (13) 
12

>  <original_smiles>  (13) 
[H]OC(=C(C(=O)N1C([H])([H])C([H])([H])C([H])([H])C([H])(n2nc(-c3c([H])c([H])c(Oc4c([H])c([H])c(F)c([H])c4F)c([H])c3[H])c(C(=O)N([H])[H])c2N([H])[H])C1([H])[H])[N+]([H])([H])[H])c1c([H])c([H])c(C([H])([H])Oc2c([H])c([H])c3c(c2[H])C([H])([H])N(C(=O)C([H])(N([H])C(=O)C([H])(N([H])C([H])([H])[H])C([H])([H])[H])C(C([H])([H])[H])(C([H])([H])[H])C([H])([H])[H])C([H])(C(=O)N([H])C2([H])c4c([H])c([H])c([H])c([H])c4C([H])([H])C([H])([H])C2([H])[H])C3([H])[H])c(C([H])([H])[H])c1[H]

>  <smiles>  (13) 
[H]OC(=C(C(=O)N1C([H])([H])C([H])([H])C([H])([H])C([H])(n2nc(-c3c([H])c([H])c(Oc4c([H])c([H])c(F)c([H])c4F)c([H])c3[H])c(C(=O)N([H])[H])c2N([H])[H])C1([H])[H])[N+]([H])([H])[H])c1c([H])c([H])c(C([H])([H])Oc2c([H])c([H])c3c(c2[H])C([H])([H])N(C(=O)C([H])(N([H])C(=O)C([H])(N([H])C([H])([H])[H])C([H])([H])[H])C(C([H])([H])[H])(C([H])([H])[H])C([H])([H])[H])C([H])(C(=O)N([H])C2([H])c4c([H])c([H])c([H])c([H])c4C([H])([H])C([H])([H])C2([H])[H])C3([H])[H])c(C([H])([H])[H])c1[H]

$$$$
13:0:0
     RDKit          3D

 91100  0  0  1  0  0  0  0  0999 V2000
  -28.9070  -17.6550   20.1190 C   0  0  0  0  0  3  0  0  0  0  0  0
  -30.9820  -17.8080   21.1610 C   0  0  0  0  0  3  0  0  0  0  0  0
  -28.7560  -19.1640   20.1630 C   0  0  0  0  0  0  0  0  0  0  0  0
  -30.0480  -16.8460   20.6240 C   0  0  0  0  0  0  0  0  0  0  0  0
  -29.7410  -20.0330   20.7190 C   0  0  0  0  0  0  0  0  0  0  0  0
  -30.8630  -19.2690   21.2120 C   0  0  0  0  0  0  0  0  0  0  0  0
  -27.5560  -19.9780   19.6760 C   0  0  0  0  0  0  0  0  0  0  0  0
  -29.6350  -21.7030   20.7700 C   0  0  0  0  0  2  0  0  0  0  0  0
  -27.6560  -21.5560   19.3670 C   0  0  0  0  0  2  0  0  0  0  0  0
  -28.2900  -22.6330   20.3770 C   0  0  1  0  0  0  0  0  0  0  0  0
  -32.0340  -20.0320   21.8170 C   0  0  0  0  0  1  0  0  0  0  0  0
  -27.3610  -22.6840   21.6100 C   0  0  0  0  0  1  0  0  0  0  0  0
  -26.4750  -19.4240   19.4620 O   0  0  0  0  0  0  0  0  0  0  0  0
  -30.5380  -15.2420   20.4490 C   0  0  0  0  0  0  0  0  0  0  0  0
  -30.4480  -12.7810   19.6620 C   0  0  0  0  0  2  0  0  0  0  0  0
  -29.5890  -12.5600   18.3910 C   0  0  0  0  0  2  0  0  0  0  0  0
  -28.1220  -12.3180   18.7710 C   0  0  0  0  0  2  0  0  0  0  0  0
  -27.6300  -13.3190   19.8460 C   0  0  0  0  0  3  0  0  0  0  0  0
  -28.6280  -13.5210   21.0080 C   0  0  0  0  0  2  0  0  0  0  0  0
  -29.9010  -13.9690   20.4270 N   0  0  0  0  0  0  0  0  0  0  0  0
  -31.7550  -15.1200   20.2370 O   0  0  0  0  0  0  0  0  0  0  0  0
  -25.2410  -13.8880   20.5110 C   0  0  0  0  0  0  0  0  0  0  0  0
  -24.1650  -13.1190   20.8530 C   0  0  0  0  0  0  0  0  0  0  0  0
  -24.6290  -11.7660   20.8580 C   0  0  0  0  0  0  0  0  0  0  0  0
  -26.2870  -13.0100   20.3130 N   0  0  0  0  0  0  0  0  0  0  0  0
  -25.9310  -11.7280   20.5920 N   0  0  0  0  0  0  0  0  0  0  0  0
  -23.8920  -10.5080   21.0360 C   0  0  0  0  0  0  0  0  0  0  0  0
  -24.2930   -9.5410   21.9830 C   0  0  0  0  0  3  0  0  0  0  0  0
  -23.5520   -8.3510   22.1520 C   0  0  0  0  0  3  0  0  0  0  0  0
  -22.3930   -8.1190   21.3720 C   0  0  0  0  0  0  0  0  0  0  0  0
  -22.0110   -9.0750   20.4130 C   0  0  0  0  0  3  0  0  0  0  0  0
  -22.7550  -10.2550   20.2440 C   0  0  0  0  0  3  0  0  0  0  0  0
  -21.6250   -6.9830   21.4500 O   0  0  0  0  0  0  0  0  0  0  0  0
  -21.5530   -6.2420   22.6010 C   0  0  0  0  0  0  0  0  0  0  0  0
  -21.1190   -6.8020   23.8230 C   0  0  0  0  0  3  0  0  0  0  0  0
  -20.9930   -5.9860   24.9650 C   0  0  0  0  0  3  0  0  0  0  0  0
  -21.2900   -4.6120   24.8870 C   0  0  0  0  0  0  0  0  0  0  0  0
  -21.7150   -4.0510   23.6690 C   0  0  0  0  0  3  0  0  0  0  0  0
  -21.8420   -4.8640   22.5290 C   0  0  0  0  0  0  0  0  0  0  0  0
  -22.2320   -4.3150   21.3530 F   0  0  0  0  0  0  0  0  0  0  0  0
  -21.1620   -3.8260   25.9810 F   0  0  0  0  0  0  0  0  0  0  0  0
  -22.7610  -13.6010   21.0650 C   0  0  0  0  0  0  0  0  0  0  0  0
  -22.0010  -12.9240   21.9180 N   0  0  0  0  0  0  0  0  0  0  0  0
  -22.3440  -14.6180   20.5070 O   0  0  0  0  0  0  0  0  0  0  0  0
  -22.3480  -12.1030   22.3900 H   0  0  0  0  0  0  0  0  0  0  0  0
  -21.0570  -13.2310   22.1040 H   0  0  0  0  0  0  0  0  0  0  0  0
  -25.4180  -15.2550   20.3220 N   0  0  0  0  0  0  0  0  0  0  0  0
  -24.6590  -15.9230   20.4130 H   0  0  0  0  0  0  0  0  0  0  0  0
  -26.2900  -15.6820   20.0370 H   0  0  0  0  0  0  0  0  0  0  0  0
  -28.2510  -24.3080   19.7120 C   0  0  0  0  0  2  0  0  0  0  0  0
  -28.2780  -25.8810   20.1740 O   0  0  0  0  0  0  0  0  0  0  0  0
  -24.5550  -31.7270   23.0320 C   0  0  0  0  0  0  0  0  0  0  0  0
  -27.2650  -26.9580   20.0200 C   0  0  0  0  0  0  0  0  0  0  0  0
  -23.4270  -30.3240   21.3560 C   0  0  0  0  0  3  0  0  0  0  0  0
  -24.9380  -28.7860   19.9300 C   0  0  0  0  0  0  0  0  0  0  0  0
  -25.9880  -30.6010   21.2610 C   0  0  0  0  0  2  0  0  0  0  0  0
  -26.0990  -29.2040   20.5890 C   0  0  0  0  0  0  0  0  0  0  0  0
  -27.2540  -28.3090   20.6140 C   0  0  0  0  0  3  0  0  0  0  0  0
  -26.0800  -26.6960   19.2940 C   0  0  0  0  0  3  0  0  0  0  0  0
  -24.9520  -27.5550   19.2600 C   0  0  0  0  0  3  0  0  0  0  0  0
  -23.6970  -29.6760   19.9690 C   0  0  0  0  0  2  0  0  0  0  0  0
  -24.6780  -30.9090   21.9380 N   0  0  0  0  0  0  0  0  0  0  0  0
  -23.4490  -31.9870   23.5340 O   0  0  0  0  0  0  0  0  0  0  0  0
  -22.7430  -29.2900   22.2880 C   0  0  0  0  0  0  0  0  0  0  0  0
  -21.4120  -29.1300   22.1660 N   0  0  0  0  0  0  0  0  0  0  0  0
  -23.4150  -28.6420   23.0940 O   0  0  0  0  0  0  0  0  0  0  0  0
  -20.9250  -29.7110   21.5000 H   0  0  0  0  0  0  0  0  0  0  0  0
  -18.0260  -27.9450   22.7020 C   0  0  0  0  0  0  0  0  0  0  0  0
  -20.5950  -28.1700   22.9130 C   0  0  0  0  0  3  0  0  0  0  0  0
  -20.6610  -26.7640   22.2710 C   0  0  0  0  0  2  0  0  0  0  0  0
  -19.5320  -26.5000   21.2720 C   0  0  0  0  0  2  0  0  0  0  0  0
  -18.1690  -26.6300   21.9570 C   0  0  0  0  0  2  0  0  0  0  0  0
  -19.1640  -28.6770   23.1380 C   0  0  0  0  0  0  0  0  0  0  0  0
  -18.9740  -29.9080   23.8000 C   0  0  0  0  0  3  0  0  0  0  0  0
  -17.6800  -30.4110   24.0290 C   0  0  0  0  0  3  0  0  0  0  0  0
  -16.5560  -29.6770   23.6070 C   0  0  0  0  0  3  0  0  0  0  0  0
  -16.7310  -28.4450   22.9510 C   0  0  0  0  0  3  0  0  0  0  0  0
  -25.8020  -32.3870   23.6990 C   0  0  0  0  0  3  0  0  0  0  0  0
  -25.4320  -33.7620   24.0800 N   0  0  0  0  0  0  0  0  0  0  0  0
  -25.7330  -34.8600   23.3760 C   0  0  0  0  0  0  0  0  0  0  0  0
  -26.4160  -34.8270   22.3490 O   0  0  0  0  0  0  0  0  0  0  0  0
  -24.8390  -33.8610   24.8890 H   0  0  0  0  0  0  0  0  0  0  0  0
  -23.9480  -36.6090   23.0860 C   0  0  0  0  0  1  0  0  0  0  0  0
  -25.1940  -36.2120   23.8920 C   0  0  0  0  0  3  0  0  0  0  0  0
  -27.2840  -37.1280   24.7900 C   0  0  0  0  0  1  0  0  0  0  0  0
  -26.1880  -37.3030   23.8420 N   0  0  0  0  0  0  0  0  0  0  0  0
  -25.7500  -38.1990   24.0300 H   0  0  0  0  0  0  0  0  0  0  0  0
  -26.3250  -31.5960   24.9630 C   0  0  1  0  0  0  0  0  0  0  0  0
  -25.2230  -31.2940   26.0070 C   0  0  0  0  0  1  0  0  0  0  0  0
  -26.9530  -30.2450   24.5470 C   0  0  0  0  0  1  0  0  0  0  0  0
  -27.4450  -32.4050   25.6590 C   0  0  0  0  0  1  0  0  0  0  0  0
  1  3  2  0
  1  4  1  0
  2  6  1  0
  3  5  1  0
  4  2  2  0
  5  8  1  0
  5  6  2  0
  6 11  1  0
  7  3  1  0
  9  7  1  0
  9 10  1  0
 10  8  1  0
 10 12  1  1
 13  7  2  0
 14  4  1  0
 15 20  1  0
 16 17  1  0
 16 15  1  0
 18 17  1  0
 18 25  1  0
 18 19  1  0
 20 14  1  0
 20 19  1  0
 21 14  2  0
 22 23  2  0
 23 24  1  0
 23 42  1  0
 24 27  1  0
 25 22  1  0
 25 26  1  0
 26 24  2  0
 27 28  1  0
 28 29  2  0
 30 33  1  0
 30 29  1  0
 31 30  2  0
 32 31  1  0
 32 27  2  0
 33 34  1  0
 34 35  1  0
 35 36  2  0
 37 36  1  0
 37 41  1  0
 38 37  2  0
 39 34  2  0
 39 38  1  0
 40 39  1  0
 42 43  1  0
 43 46  1  0
 43 45  1  0
 44 42  2  0
 47 48  1  0
 47 22  1  0
 49 47  1  0
 50 51  1  0
 50 10  1  0
 52 63  2  0
 53 51  1  0
 53 58  1  0
 54 62  1  0
 54 64  1  0
 55 61  1  0
 55 57  1  0
 56 62  1  0
 57 58  2  0
 57 56  1  0
 59 53  2  0
 60 59  1  0
 60 55  2  0
 61 54  1  0
 62 52  1  0
 64 66  2  0
 65 64  1  0
 67 65  1  0
 68 77  2  0
 68 73  1  0
 69 65  1  0
 69 73  1  0
 70 69  1  0
 71 72  1  0
 71 70  1  0
 72 68  1  0
 73 74  2  0
 74 75  1  0
 76 75  2  0
 77 76  1  0
 78 52  1  0
 78 79  1  0
 78 88  1  0
 79 82  1  0
 80 84  1  0
 80 79  1  0
 81 80  2  0
 84 83  1  0
 86 84  1  0
 86 87  1  0
 86 85  1  0
 88 91  1  1
 88 89  1  0
 90 88  1  0
M  ISO  4   4 100  14 100  50 101  51 101
M  END
>  <TORSDO>  (14) 
F 17

>  <SCORE>  (14) 
-15.538

>  <name>  (14) 
13

>  <ligand_id>  (14) 
13

>  <original_smiles>  (14) 
[H]c1c([H])c([H])c2c(c1[H])C([H])([H])C([H])([H])C([H])([H])C2([H])N([H])C(=O)C1([H])N(C(=O)C([H])(N([H])C(=O)C([H])(N([H])C([H])([H])[H])C([H])([H])[H])C(C([H])([H])[H])(C([H])([H])[H])C([H])([H])[H])C([H])([H])c2c([H])c(OC([H])([H])C3(C([H])([H])[H])C([H])([H])C(=O)c4c([H])c(C(=O)N5C([H])([H])C([H])([H])C([H])([H])C([H])(n6nc(-c7c([H])c([H])c(Oc8c([H])c([H])c(F)c([H])c8F)c([H])c7[H])c(C(=O)N([H])[H])c6N([H])[H])C5([H])[H])c([H])c(C([H])([H])[H])c4C3([H])[H])c([H])c([H])c2C1([H])[H]

>  <smiles>  (14) 
[H]c1c([H])c([H])c2c(c1[H])C([H])([H])C([H])([H])C([H])([H])C2([H])N([H])C(=O)C1([H])N(C(=O)C([H])(N([H])C(=O)C([H])(N([H])C([H])([H])[H])C([H])([H])[H])C(C([H])([H])[H])(C([H])([H])[H])C([H])([H])[H])C([H])([H])c2c([H])c(OC([H])([H])C3(C([H])([H])[H])C([H])([H])C(=O)c4c([H])c(C(=O)N5C([H])([H])C([H])([H])C([H])([H])C([H])(n6nc(-c7c([H])c([H])c(Oc8c([H])c([H])c(F)c([H])c8F)c([H])c7[H])c(C(=O)N([H])[H])c6N([H])[H])C5([H])[H])c([H])c(C([H])([H])[H])c4C3([H])[H])c([H])c([H])c2C1([H])[H]

$$$$
14:0:0
     RDKit          3D

 97106  0  0  1  0  0  0  0  0999 V2000
  -31.2710  -20.8920   19.3970 C   0  0  0  0  0  3  0  0  0  0  0  0
  -31.2940  -19.4920   19.3290 C   0  0  0  0  0  3  0  0  0  0  0  0
  -28.8340  -20.8330   19.4620 C   0  0  0  0  0  3  0  0  0  0  0  0
  -30.0400  -21.5630   19.4730 C   0  0  0  0  0  0  0  0  0  0  0  0
  -30.0870  -18.7540   19.3340 C   0  0  0  0  0  0  0  0  0  0  0  0
  -28.8390  -19.4230   19.3790 C   0  0  0  0  0  0  0  0  0  0  0  0
  -29.1810  -23.7100   18.4620 C   0  0  0  0  0  2  0  0  0  0  0  0
  -29.4610  -23.4960   20.9660 C   0  0  0  0  0  2  0  0  0  0  0  0
  -29.0650  -25.2190   18.6740 C   0  0  0  0  0  2  0  0  0  0  0  0
  -29.3170  -25.0190   21.0480 C   0  0  0  0  0  2  0  0  0  0  0  0
  -30.0040  -23.0700   19.5930 C   0  0  0  0  0  3  0  0  0  0  0  0
  -28.4440  -25.4790   19.9730 N   0  0  0  0  0  0  0  0  0  0  0  0
  -28.4830  -26.8980   20.0840 O   0  0  0  0  0  0  0  0  0  0  0  0
  -24.5740  -31.8840   23.2340 C   0  0  0  0  0  0  0  0  0  0  0  0
  -27.2460  -27.4860   20.1550 C   0  0  0  0  0  0  0  0  0  0  0  0
  -23.3670  -30.4710   21.5970 C   0  0  0  0  0  3  0  0  0  0  0  0
  -24.8230  -28.9270   20.1870 C   0  0  0  0  0  0  0  0  0  0  0  0
  -25.8850  -30.8460   21.3930 C   0  0  0  0  0  2  0  0  0  0  0  0
  -25.9720  -29.4710   20.7720 C   0  0  0  0  0  0  0  0  0  0  0  0
  -27.1800  -28.7510   20.7660 C   0  0  0  0  0  3  0  0  0  0  0  0
  -26.0800  -26.9370   19.5710 C   0  0  0  0  0  3  0  0  0  0  0  0
  -24.8660  -27.6520   19.5930 C   0  0  0  0  0  3  0  0  0  0  0  0
  -23.5760  -29.7780   20.2220 C   0  0  0  0  0  2  0  0  0  0  0  0
  -24.6250  -31.0820   22.1330 N   0  0  0  0  0  0  0  0  0  0  0  0
  -23.4940  -32.1570   23.7740 O   0  0  0  0  0  0  0  0  0  0  0  0
  -22.7220  -29.4520   22.5620 C   0  0  0  0  0  0  0  0  0  0  0  0
  -21.3980  -29.2720   22.4400 N   0  0  0  0  0  0  0  0  0  0  0  0
  -23.4100  -28.8270   23.3750 O   0  0  0  0  0  0  0  0  0  0  0  0
  -20.9060  -29.8300   21.7550 H   0  0  0  0  0  0  0  0  0  0  0  0
  -18.0220  -28.0990   22.9520 C   0  0  0  0  0  0  0  0  0  0  0  0
  -20.5820  -28.3380   23.2140 C   0  0  0  0  0  3  0  0  0  0  0  0
  -20.6740  -26.9080   22.6340 C   0  0  0  0  0  2  0  0  0  0  0  0
  -19.5660  -26.5940   21.6240 C   0  0  0  0  0  2  0  0  0  0  0  0
  -18.1880  -26.7480   22.2740 C   0  0  0  0  0  2  0  0  0  0  0  0
  -19.1480  -28.8520   23.3780 C   0  0  0  0  0  0  0  0  0  0  0  0
  -18.9410  -30.1180   23.9690 C   0  0  0  0  0  3  0  0  0  0  0  0
  -17.6420  -30.6290   24.1390 C   0  0  0  0  0  3  0  0  0  0  0  0
  -16.5300  -29.8710   23.7310 C   0  0  0  0  0  3  0  0  0  0  0  0
  -16.7220  -28.6090   23.1440 C   0  0  0  0  0  3  0  0  0  0  0  0
  -25.8630  -32.5160   23.8480 C   0  0  0  0  0  3  0  0  0  0  0  0
  -25.5580  -33.9140   24.1750 N   0  0  0  0  0  0  0  0  0  0  0  0
  -25.8970  -34.9630   23.4120 C   0  0  0  0  0  0  0  0  0  0  0  0
  -26.5740  -34.8560   22.3860 O   0  0  0  0  0  0  0  0  0  0  0  0
  -24.9590  -34.0730   24.9720 H   0  0  0  0  0  0  0  0  0  0  0  0
  -24.1770  -36.7570   23.0340 C   0  0  0  0  0  1  0  0  0  0  0  0
  -25.4070  -36.3520   23.8610 C   0  0  0  0  0  3  0  0  0  0  0  0
  -27.5330  -37.2310   24.7180 C   0  0  0  0  0  1  0  0  0  0  0  0
  -26.4440  -37.4030   23.7620 N   0  0  0  0  0  0  0  0  0  0  0  0
  -26.0380  -38.3250   23.9060 H   0  0  0  0  0  0  0  0  0  0  0  0
  -26.3870  -31.7460   25.1220 C   0  0  1  0  0  0  0  0  0  0  0  0
  -25.3000  -31.5070   26.1930 C   0  0  0  0  0  1  0  0  0  0  0  0
  -26.9710  -30.3700   24.7250 C   0  0  0  0  0  1  0  0  0  0  0  0
  -27.5410  -32.5420   25.7780 C   0  0  0  0  0  1  0  0  0  0  0  0
  -30.9140  -16.7270   18.0830 C   0  0  0  0  0  1  0  0  0  0  0  0
  -30.1510  -17.2380   19.3240 C   0  0  0  0  0  3  0  0  0  0  0  0
  -30.7290  -16.8050   20.6200 N   0  0  0  0  0  4  0  0  0  0  0  0
  -31.7200  -16.6530   20.5060 H   0  0  0  0  0  0  0  0  0  0  0  0
  -30.5910  -17.5530   21.2800 H   0  0  0  0  0  0  0  0  0  0  0  0
  -30.1750  -15.5690   21.2090 C   0  0  0  0  0  2  0  0  0  0  0  0
  -30.8060  -14.3680   20.5130 C   0  0  0  0  0  0  0  0  0  0  0  0
  -30.4640  -12.2570   19.3090 C   0  0  0  0  0  2  0  0  0  0  0  0
  -29.5460  -12.5160   18.0970 C   0  0  0  0  0  2  0  0  0  0  0  0
  -28.0590  -12.4190   18.5010 C   0  0  0  0  0  2  0  0  0  0  0  0
  -27.7230  -13.2420   19.7740 C   0  0  0  0  0  3  0  0  0  0  0  0
  -28.7570  -12.9700   20.8910 C   0  0  0  0  0  2  0  0  0  0  0  0
  -30.0980  -13.2260   20.3480 N   0  0  0  0  0  0  0  0  0  0  0  0
  -31.9300  -14.5350   20.0290 O   0  0  0  0  0  0  0  0  0  0  0  0
  -25.3110  -13.8760   20.4270 C   0  0  0  0  0  0  0  0  0  0  0  0
  -24.2350  -13.1140   20.7920 C   0  0  0  0  0  0  0  0  0  0  0  0
  -24.6920  -11.7610   20.7960 C   0  0  0  0  0  0  0  0  0  0  0  0
  -26.3580  -12.9870   20.2330 N   0  0  0  0  0  0  0  0  0  0  0  0
  -25.9860  -11.7110   20.5100 N   0  0  0  0  0  0  0  0  0  0  0  0
  -23.9590  -10.5040   20.9970 C   0  0  0  0  0  0  0  0  0  0  0  0
  -24.3830   -9.5450   21.9430 C   0  0  0  0  0  3  0  0  0  0  0  0
  -23.6520   -8.3520   22.1290 C   0  0  0  0  0  3  0  0  0  0  0  0
  -22.4810   -8.1110   21.3720 C   0  0  0  0  0  0  0  0  0  0  0  0
  -22.0770   -9.0600   20.4150 C   0  0  0  0  0  3  0  0  0  0  0  0
  -22.8100  -10.2430   20.2260 C   0  0  0  0  0  3  0  0  0  0  0  0
  -21.7200   -6.9710   21.4680 O   0  0  0  0  0  0  0  0  0  0  0  0
  -21.6720   -6.2340   22.6240 C   0  0  0  0  0  0  0  0  0  0  0  0
  -21.2700   -6.8010   23.8540 C   0  0  0  0  0  3  0  0  0  0  0  0
  -21.1670   -5.9910   25.0010 C   0  0  0  0  0  3  0  0  0  0  0  0
  -21.4570   -4.6160   24.9220 C   0  0  0  0  0  0  0  0  0  0  0  0
  -21.8550   -4.0480   23.6980 C   0  0  0  0  0  3  0  0  0  0  0  0
  -21.9590   -4.8560   22.5520 C   0  0  0  0  0  0  0  0  0  0  0  0
  -22.3210   -4.3010   21.3700 F   0  0  0  0  0  0  0  0  0  0  0  0
  -21.3520   -3.8350   26.0230 F   0  0  0  0  0  0  0  0  0  0  0  0
  -22.8350  -13.5990   21.0340 C   0  0  0  0  0  0  0  0  0  0  0  0
  -22.0920  -12.9230   21.9030 N   0  0  0  0  0  0  0  0  0  0  0  0
  -22.4080  -14.6160   20.4870 O   0  0  0  0  0  0  0  0  0  0  0  0
  -22.4490  -12.1010   22.3670 H   0  0  0  0  0  0  0  0  0  0  0  0
  -21.1540  -13.2330   22.1100 H   0  0  0  0  0  0  0  0  0  0  0  0
  -25.4830  -15.2430   20.2260 N   0  0  0  0  0  0  0  0  0  0  0  0
  -24.7090  -15.8930   20.3100 H   0  0  0  0  0  0  0  0  0  0  0  0
  -26.3300  -15.6810   19.8900 H   0  0  0  0  0  0  0  0  0  0  0  0
  -26.4500  -19.3390   19.1030 C   0  0  0  0  0  1  0  0  0  0  0  0
  -27.6830  -18.6710   19.3520 O   0  0  0  0  0  0  0  0  0  0  0  0
  1  4  1  0
  2  5  1  0
  2  1  2  0
  3  4  2  0
  5  6  2  0
  6  3  1  0
  7  9  1  0
  7 11  1  0
  8 10  1  0
  9 12  1  0
 11  4  1  0
 11  8  1  0
 12 13  1  0
 12 10  1  0
 13 15  1  0
 14 25  2  0
 15 20  1  0
 16 24  1  0
 16 26  1  0
 17 23  1  0
 17 19  1  0
 18 24  1  0
 19 18  1  0
 20 19  2  0
 21 22  1  0
 21 15  2  0
 22 17  2  0
 23 16  1  0
 24 14  1  0
 26 28  2  0
 27 26  1  0
 29 27  1  0
 30 39  2  0
 30 35  1  0
 31 27  1  0
 31 35  1  0
 32 31  1  0
 33 34  1  0
 33 32  1  0
 34 30  1  0
 35 36  2  0
 36 37  1  0
 38 37  2  0
 39 38  1  0
 40 14  1  0
 40 41  1  0
 40 50  1  0
 41 44  1  0
 42 46  1  0
 42 41  1  0
 43 42  2  0
 46 45  1  0
 48 46  1  0
 48 49  1  0
 48 47  1  0
 50 53  1  1
 50 51  1  0
 52 50  1  0
 55 54  1  0
 55  5  1  0
 55 56  1  0
 56 59  1  0
 56 58  1  0
 57 56  1  0
 60 59  1  0
 61 66  1  0
 62 63  1  0
 62 61  1  0
 64 63  1  0
 64 71  1  0
 64 65  1  0
 66 60  1  0
 66 65  1  0
 67 60  2  0
 68 69  2  0
 69 70  1  0
 69 88  1  0
 70 73  1  0
 71 68  1  0
 71 72  1  0
 72 70  2  0
 73 74  1  0
 74 75  2  0
 76 79  1  0
 76 75  1  0
 77 76  2  0
 78 77  1  0
 78 73  2  0
 79 80  1  0
 80 81  1  0
 81 82  2  0
 83 82  1  0
 83 87  1  0
 84 83  2  0
 85 80  2  0
 85 84  1  0
 86 85  1  0
 88 89  1  0
 89 92  1  0
 89 91  1  0
 90 88  2  0
 93 94  1  0
 93 68  1  0
 95 93  1  0
 96 97  1  0
 97  6  1  0
M  ISO  4  12 101  13 101  59 100  60 100
M  END
>  <TORSDO>  (15) 
F 21

>  <SCORE>  (15) 
-13.301

>  <name>  (15) 
14

>  <ligand_id>  (15) 
14

>  <original_smiles>  (15) 
[H]c1c([H])c([H])c2c(c1[H])C([H])([H])C([H])([H])C([H])([H])C2([H])N([H])C(=O)C1([H])N(C(=O)C([H])(N([H])C(=O)C([H])(N([H])C([H])([H])[H])C([H])([H])[H])C(C([H])([H])[H])(C([H])([H])[H])C([H])([H])[H])C([H])([H])c2c([H])c(ON3C([H])([H])C([H])([H])C([H])(c4c([H])c([H])c(C([H])(C([H])([H])[H])[N+]([H])([H])C([H])([H])C(=O)N5C([H])([H])C([H])([H])C([H])([H])C([H])(n6nc(-c7c([H])c([H])c(Oc8c([H])c([H])c(F)c([H])c8F)c([H])c7[H])c(C(=O)N([H])[H])c6N([H])[H])C5([H])[H])c(OC([H])([H])[H])c4[H])C([H])([H])C3([H])[H])c([H])c([H])c2C1([H])[H]

>  <smiles>  (15) 
[H]c1c([H])c([H])c2c(c1[H])C([H])([H])C([H])([H])C([H])([H])C2([H])N([H])C(=O)C1([H])N(C(=O)C([H])(N([H])C(=O)C([H])(N([H])C([H])([H])[H])C([H])([H])[H])C(C([H])([H])[H])(C([H])([H])[H])C([H])([H])[H])C([H])([H])c2c([H])c(ON3C([H])([H])C([H])([H])C([H])(c4c([H])c([H])c(C([H])(C([H])([H])[H])[N+]([H])([H])C([H])([H])C(=O)N5C([H])([H])C([H])([H])C([H])([H])C([H])(n6nc(-c7c([H])c([H])c(Oc8c([H])c([H])c(F)c([H])c8F)c([H])c7[H])c(C(=O)N([H])[H])c6N([H])[H])C5([H])[H])c(OC([H])([H])[H])c4[H])C([H])([H])C3([H])[H])c([H])c([H])c2C1([H])[H]

$$$$
15:0:0
     RDKit          3D

 95104  0  0  1  0  0  0  0  0999 V2000
  -29.8780  -21.1800   17.3510 C   0  0  0  0  0  3  0  0  0  0  0  0
  -28.5600  -21.6760   17.3280 C   0  0  0  0  0  3  0  0  0  0  0  0
  -30.3950  -20.6210   18.5420 C   0  0  0  0  0  0  0  0  0  0  0  0
  -29.5760  -20.6070   19.7070 C   0  0  0  0  0  3  0  0  0  0  0  0
  -28.6520  -21.8010   19.7170 C   0  0  0  0  0  3  0  0  0  0  0  0
  -27.8750  -21.8880   18.5400 C   0  0  0  0  0  0  0  0  0  0  0  0
  -31.6600  -19.7880   18.4230 C   0  0  0  0  0  1  0  0  0  0  0  0
  -25.7750  -22.0740   19.5940 C   0  0  0  0  0  1  0  0  0  0  0  0
  -26.6190  -22.4400   18.5070 O   0  0  0  0  0  0  0  0  0  0  0  0
  -29.1410  -19.0300   20.0170 C   0  0  0  0  0  2  0  0  0  0  0  0
  -31.3970  -17.4030   22.3490 C   0  0  0  0  0  2  0  0  0  0  0  0
  -29.9180  -17.7350   22.1970 C   0  0  0  0  0  2  0  0  0  0  0  0
  -31.5660  -17.9990   20.9520 C   0  0  0  0  0  2  0  0  0  0  0  0
  -30.0610  -17.7540   20.6510 C   0  0  2  0  0  0  0  0  0  0  0  0
  -30.5360  -15.0470   19.9840 C   0  0  0  0  0  0  0  0  0  0  0  0
  -30.3410  -12.7370   18.9460 C   0  0  0  0  0  2  0  0  0  0  0  0
  -29.3240  -12.7290   17.7830 C   0  0  0  0  0  2  0  0  0  0  0  0
  -27.8970  -12.4940   18.3120 C   0  0  0  0  0  2  0  0  0  0  0  0
  -27.5680  -13.3810   19.5400 C   0  0  0  0  0  3  0  0  0  0  0  0
  -28.6980  -13.3610   20.5900 C   0  0  0  0  0  2  0  0  0  0  0  0
  -29.9190  -13.7990   19.9030 N   0  0  0  0  0  0  0  0  0  0  0  0
  -31.7270  -15.0950   19.6630 O   0  0  0  0  0  0  0  0  0  0  0  0
  -29.7760  -16.2310   20.2410 N   0  0  0  0  0  0  0  0  0  0  0  0
  -28.7940  -16.0040   20.3170 H   0  0  0  0  0  0  0  0  0  0  0  0
  -25.2340  -13.9230   20.4390 C   0  0  0  0  0  0  0  0  0  0  0  0
  -24.2030  -13.1310   20.8610 C   0  0  0  0  0  0  0  0  0  0  0  0
  -24.6770  -11.7860   20.7770 C   0  0  0  0  0  0  0  0  0  0  0  0
  -26.2680  -13.0600   20.1190 N   0  0  0  0  0  0  0  0  0  0  0  0
  -25.9470  -11.7670   20.3880 N   0  0  0  0  0  0  0  0  0  0  0  0
  -23.9740  -10.5130   20.9860 C   0  0  0  0  0  0  0  0  0  0  0  0
  -24.4320   -9.5600   21.9240 C   0  0  0  0  0  3  0  0  0  0  0  0
  -23.7250   -8.3540   22.1220 C   0  0  0  0  0  3  0  0  0  0  0  0
  -22.5480   -8.0910   21.3810 C   0  0  0  0  0  0  0  0  0  0  0  0
  -22.1110   -9.0310   20.4320 C   0  0  0  0  0  3  0  0  0  0  0  0
  -22.8180  -10.2290   20.2320 C   0  0  0  0  0  3  0  0  0  0  0  0
  -21.8130   -6.9350   21.4880 O   0  0  0  0  0  0  0  0  0  0  0  0
  -21.7550   -6.2220   22.6590 C   0  0  0  0  0  0  0  0  0  0  0  0
  -21.2590   -6.7900   23.8530 C   0  0  0  0  0  3  0  0  0  0  0  0
  -21.1550   -6.0020   25.0160 C   0  0  0  0  0  3  0  0  0  0  0  0
  -21.5390   -4.6480   24.9870 C   0  0  0  0  0  0  0  0  0  0  0  0
  -22.0280   -4.0800   23.7980 C   0  0  0  0  0  3  0  0  0  0  0  0
  -22.1340   -4.8650   22.6360 C   0  0  0  0  0  0  0  0  0  0  0  0
  -22.5870   -4.3080   21.4870 F   0  0  0  0  0  0  0  0  0  0  0  0
  -21.4310   -3.8880   26.1020 F   0  0  0  0  0  0  0  0  0  0  0  0
  -22.8200  -13.5880   21.2230 C   0  0  0  0  0  0  0  0  0  0  0  0
  -22.1460  -12.8650   22.1100 N   0  0  0  0  0  0  0  0  0  0  0  0
  -22.3470  -14.6210   20.7520 O   0  0  0  0  0  0  0  0  0  0  0  0
  -22.5410  -12.0270   22.5100 H   0  0  0  0  0  0  0  0  0  0  0  0
  -21.2220  -13.1540   22.3950 H   0  0  0  0  0  0  0  0  0  0  0  0
  -25.3720  -15.2980   20.2730 N   0  0  0  0  0  0  0  0  0  0  0  0
  -24.6000  -15.9370   20.4280 H   0  0  0  0  0  0  0  0  0  0  0  0
  -26.1760  -15.7480   19.8590 H   0  0  0  0  0  0  0  0  0  0  0  0
  -28.9720  -23.3520   20.2210 C   0  0  0  0  0  3  0  0  0  0  0  0
  -28.0580  -24.7310   19.8110 C   0  0  0  0  0  3  0  0  0  0  0  0
  -28.2940  -26.2450   20.1260 O   0  0  0  0  0  0  0  0  0  0  0  0
  -24.6490  -31.8920   23.1740 C   0  0  0  0  0  0  0  0  0  0  0  0
  -27.2360  -27.2290   20.0620 C   0  0  0  0  0  0  0  0  0  0  0  0
  -23.4480  -30.5130   21.5210 C   0  0  0  0  0  3  0  0  0  0  0  0
  -24.8980  -28.9660   20.0660 C   0  0  0  0  0  0  0  0  0  0  0  0
  -25.9990  -30.7900   21.3510 C   0  0  0  0  0  2  0  0  0  0  0  0
  -26.0780  -29.4080   20.6770 C   0  0  0  0  0  0  0  0  0  0  0  0
  -27.2460  -28.5550   20.6620 C   0  0  0  0  0  3  0  0  0  0  0  0
  -26.0270  -26.8940   19.4070 C   0  0  0  0  0  3  0  0  0  0  0  0
  -24.8850  -27.7230   19.4170 C   0  0  0  0  0  3  0  0  0  0  0  0
  -23.6680  -29.8580   20.1310 C   0  0  0  0  0  2  0  0  0  0  0  0
  -24.7190  -31.0870   22.0700 N   0  0  0  0  0  0  0  0  0  0  0  0
  -23.5640  -32.1670   23.7090 O   0  0  0  0  0  0  0  0  0  0  0  0
  -22.7750  -29.4920   22.4710 C   0  0  0  0  0  0  0  0  0  0  0  0
  -21.4480  -29.3170   22.3450 N   0  0  0  0  0  0  0  0  0  0  0  0
  -23.4520  -28.8610   23.2880 O   0  0  0  0  0  0  0  0  0  0  0  0
  -20.9600  -29.8760   21.6600 H   0  0  0  0  0  0  0  0  0  0  0  0
  -18.0720  -28.1020   22.8470 C   0  0  0  0  0  0  0  0  0  0  0  0
  -20.6320  -28.3670   23.1070 C   0  0  0  0  0  3  0  0  0  0  0  0
  -20.7360  -26.9430   22.5130 C   0  0  0  0  0  2  0  0  0  0  0  0
  -19.6300  -26.6320   21.4990 C   0  0  0  0  0  2  0  0  0  0  0  0
  -18.2500  -26.7630   22.1500 C   0  0  0  0  0  2  0  0  0  0  0  0
  -19.1900  -28.8610   23.2820 C   0  0  0  0  0  0  0  0  0  0  0  0
  -18.9710  -30.1130   23.8960 C   0  0  0  0  0  3  0  0  0  0  0  0
  -17.6650  -30.6070   24.0780 C   0  0  0  0  0  3  0  0  0  0  0  0
  -16.5610  -29.8440   23.6600 C   0  0  0  0  0  3  0  0  0  0  0  0
  -16.7660  -28.5930   23.0510 C   0  0  0  0  0  3  0  0  0  0  0  0
  -25.9280  -32.5240   23.8040 C   0  0  0  0  0  3  0  0  0  0  0  0
  -25.6100  -33.9160   24.1590 N   0  0  0  0  0  0  0  0  0  0  0  0
  -25.9260  -34.9850   23.4170 C   0  0  0  0  0  0  0  0  0  0  0  0
  -26.5810  -34.9040   22.3750 O   0  0  0  0  0  0  0  0  0  0  0  0
  -25.0210  -34.0520   24.9660 H   0  0  0  0  0  0  0  0  0  0  0  0
  -24.1830  -36.7790   23.1260 C   0  0  0  0  0  1  0  0  0  0  0  0
  -25.4390  -36.3630   23.9080 C   0  0  0  0  0  3  0  0  0  0  0  0
  -27.5750  -37.2510   24.7300 C   0  0  0  0  0  1  0  0  0  0  0  0
  -26.4640  -37.4240   23.7990 N   0  0  0  0  0  0  0  0  0  0  0  0
  -26.0540  -38.3390   23.9660 H   0  0  0  0  0  0  0  0  0  0  0  0
  -26.4470  -31.7380   25.0700 C   0  0  1  0  0  0  0  0  0  0  0  0
  -25.3530  -31.4800   26.1320 C   0  0  0  0  0  1  0  0  0  0  0  0
  -27.0390  -30.3690   24.6650 C   0  0  0  0  0  1  0  0  0  0  0  0
  -27.5940  -32.5290   25.7420 C   0  0  0  0  0  1  0  0  0  0  0  0
  1  3  2  0
  2  1  1  0
  2  6  2  0
  3  4  1  0
  4  5  1  0
  4 10  1  0
  5 53  1  0
  6  5  1  0
  7  3  1  0
  9  6  1  0
  9  8  1  0
 14 10  1  6
 12 11  1  0
 13 11  1  0
 14 13  1  0
 14 12  1  0
 15 23  1  0
 16 21  1  0
 17 18  1  0
 17 16  1  0
 19 18  1  0
 19 28  1  0
 19 20  1  0
 21 15  1  0
 21 20  1  0
 22 15  2  0
 23 24  1  0
 23 14  1  0
 25 26  2  0
 26 45  1  0
 27 26  1  0
 27 30  1  0
 28 29  1  0
 28 25  1  0
 29 27  2  0
 30 31  1  0
 31 32  2  0
 33 36  1  0
 33 32  1  0
 34 33  2  0
 35 34  1  0
 35 30  2  0
 36 37  1  0
 37 38  1  0
 38 39  2  0
 40 39  1  0
 40 44  1  0
 41 40  2  0
 42 37  2  0
 42 41  1  0
 43 42  1  0
 45 46  1  0
 46 49  1  0
 46 48  1  0
 47 45  2  0
 50 51  1  0
 50 25  1  0
 52 50  1  0
 54 55  1  0
 54 53  2  0
 56 67  2  0
 57 55  1  0
 57 62  1  0
 58 66  1  0
 58 68  1  0
 59 65  1  0
 59 61  1  0
 60 66  1  0
 61 60  1  0
 62 61  2  0
 63 64  1  0
 63 57  2  0
 64 59  2  0
 65 58  1  0
 66 56  1  0
 68 70  2  0
 69 68  1  0
 71 69  1  0
 72 81  2  0
 72 77  1  0
 73 69  1  0
 73 77  1  0
 74 73  1  0
 75 76  1  0
 75 74  1  0
 76 72  1  0
 77 78  2  0
 78 79  1  0
 80 79  2  0
 81 80  1  0
 82 56  1  0
 82 83  1  0
 82 92  1  0
 83 86  1  0
 84 88  1  0
 84 83  1  0
 85 84  2  0
 88 87  1  0
 90 88  1  0
 90 91  1  0
 90 89  1  0
 92 95  1  1
 92 93  1  0
 94 92  1  0
M  ISO  4  15 100  23 100  54 101  55 101
M  END
>  <TORSDO>  (16) 
F 21

>  <SCORE>  (16) 
-13.883

>  <name>  (16) 
15

>  <ligand_id>  (16) 
15

>  <original_smiles>  (16) 
[H]c1c([H])c([H])c2c(c1[H])C([H])([H])C([H])([H])C([H])([H])C2([H])N([H])C(=O)C1([H])N(C(=O)C([H])(N([H])C(=O)C([H])(N([H])C([H])([H])[H])C([H])([H])[H])C(C([H])([H])[H])(C([H])([H])[H])C([H])([H])[H])C([H])([H])c2c([H])c(OC([H])([H])C([H])([H])c3c(OC([H])([H])[H])c([H])c([H])c(C([H])([H])[H])c3C([H])([H])C3(N([H])C(=O)N4C([H])([H])C([H])([H])C([H])([H])C([H])(n5nc(-c6c([H])c([H])c(Oc7c([H])c([H])c(F)c([H])c7F)c([H])c6[H])c(C(=O)N([H])[H])c5N([H])[H])C4([H])[H])C([H])([H])C([H])([H])C3([H])[H])c([H])c([H])c2C1([H])[H]

>  <smiles>  (16) 
[H]c1c([H])c([H])c2c(c1[H])C([H])([H])C([H])([H])C([H])([H])C2([H])N([H])C(=O)C1([H])N(C(=O)C([H])(N([H])C(=O)C([H])(N([H])C([H])([H])[H])C([H])([H])[H])C(C([H])([H])[H])(C([H])([H])[H])C([H])([H])[H])C([H])([H])c2c([H])c(OC([H])([H])C([H])([H])c3c(OC([H])([H])[H])c([H])c([H])c(C([H])([H])[H])c3C([H])([H])C3(N([H])C(=O)N4C([H])([H])C([H])([H])C([H])([H])C([H])(n5nc(-c6c([H])c([H])c(Oc7c([H])c([H])c(F)c([H])c7F)c([H])c6[H])c(C(=O)N([H])[H])c5N([H])[H])C4([H])[H])C([H])([H])C([H])([H])C3([H])[H])c([H])c([H])c2C1([H])[H]

$$$$
16:0:0
     RDKit          3D

 92100  0  0  1  0  0  0  0  0999 V2000
  -30.1760  -21.6420   18.9060 C   0  0  0  0  0  3  0  0  0  0  0  0
  -30.4570  -20.2350   18.7790 C   0  0  0  0  0  3  0  0  0  0  0  0
  -29.2530  -22.1920   19.8410 C   0  0  0  0  0  0  0  0  0  0  0  0
  -29.8480  -19.1840   19.5420 C   0  0  0  0  0  0  0  0  0  0  0  0
  -28.6210  -21.1520   20.6190 C   0  0  0  0  0  0  0  0  0  0  0  0
  -28.8930  -19.7190   20.4730 C   0  0  0  0  0  0  0  0  0  0  0  0
  -28.2250  -18.8490   21.2690 F   0  0  0  0  0  0  0  0  0  0  0  0
  -29.7640  -17.3180   17.7890 C   0  0  0  0  0  1  0  0  0  0  0  0
  -30.2840  -17.6300   19.2090 C   0  0  0  0  0  3  0  0  0  0  0  0
  -30.8430  -15.1130   19.8620 C   0  0  0  0  0  0  0  0  0  0  0  0
  -30.6330  -12.7740   18.9660 C   0  0  0  0  0  2  0  0  0  0  0  0
  -29.6500  -12.7770   17.7720 C   0  0  0  0  0  2  0  0  0  0  0  0
  -28.2050  -12.5890   18.2710 C   0  0  0  0  0  2  0  0  0  0  0  0
  -27.8670  -13.5080   19.4760 C   0  0  0  0  0  3  0  0  0  0  0  0
  -28.9750  -13.5030   20.5520 C   0  0  0  0  0  2  0  0  0  0  0  0
  -30.2290  -13.8700   19.8880 N   0  0  0  0  0  0  0  0  0  0  0  0
  -32.0130  -15.1670   19.4720 O   0  0  0  0  0  0  0  0  0  0  0  0
  -30.0900  -16.2990   19.9990 N   0  0  0  0  0  0  0  0  0  0  0  0
  -29.1700  -16.1720   20.3930 H   0  0  0  0  0  0  0  0  0  0  0  0
  -25.5460  -14.0880   20.3880 C   0  0  0  0  0  0  0  0  0  0  0  0
  -24.4900  -13.3130   20.7820 C   0  0  0  0  0  0  0  0  0  0  0  0
  -24.9230  -11.9570   20.6510 C   0  0  0  0  0  0  0  0  0  0  0  0
  -26.5540  -13.2070   20.0370 N   0  0  0  0  0  0  0  0  0  0  0  0
  -26.1920  -11.9160   20.2590 N   0  0  0  0  0  0  0  0  0  0  0  0
  -24.1830  -10.7000   20.8170 C   0  0  0  0  0  0  0  0  0  0  0  0
  -24.5880   -9.7210   21.7520 C   0  0  0  0  0  3  0  0  0  0  0  0
  -23.8460   -8.5300   21.9070 C   0  0  0  0  0  3  0  0  0  0  0  0
  -22.6860   -8.3090   21.1280 C   0  0  0  0  0  0  0  0  0  0  0  0
  -22.3010   -9.2750   20.1820 C   0  0  0  0  0  3  0  0  0  0  0  0
  -23.0420  -10.4580   20.0260 C   0  0  0  0  0  3  0  0  0  0  0  0
  -21.9180   -7.1710   21.1930 O   0  0  0  0  0  0  0  0  0  0  0  0
  -21.7770   -6.4640   22.3600 C   0  0  0  0  0  0  0  0  0  0  0  0
  -21.2080   -7.0400   23.5170 C   0  0  0  0  0  3  0  0  0  0  0  0
  -21.0170   -6.2580   24.6730 C   0  0  0  0  0  3  0  0  0  0  0  0
  -21.3880   -4.8990   24.6730 C   0  0  0  0  0  0  0  0  0  0  0  0
  -21.9500   -4.3220   23.5210 C   0  0  0  0  0  3  0  0  0  0  0  0
  -22.1410   -5.1020   22.3680 C   0  0  0  0  0  0  0  0  0  0  0  0
  -22.6640   -4.5360   21.2530 F   0  0  0  0  0  0  0  0  0  0  0  0
  -21.1980   -4.1440   25.7810 F   0  0  0  0  0  0  0  0  0  0  0  0
  -23.1230  -13.8000   21.1660 C   0  0  0  0  0  0  0  0  0  0  0  0
  -22.4430  -13.0790   22.0510 N   0  0  0  0  0  0  0  0  0  0  0  0
  -22.6710  -14.8510   20.7160 O   0  0  0  0  0  0  0  0  0  0  0  0
  -22.8250  -12.2280   22.4340 H   0  0  0  0  0  0  0  0  0  0  0  0
  -21.5290  -13.3860   22.3520 H   0  0  0  0  0  0  0  0  0  0  0  0
  -25.7250  -15.4640   20.2740 N   0  0  0  0  0  0  0  0  0  0  0  0
  -24.9720  -16.1180   20.4620 H   0  0  0  0  0  0  0  0  0  0  0  0
  -26.5490  -15.9100   19.8940 H   0  0  0  0  0  0  0  0  0  0  0  0
  -27.7350  -21.5320   21.5870 O   0  0  0  0  0  0  0  0  0  0  0  0
  -27.6190  -22.4740   21.6300 H   0  0  0  0  0  0  0  0  0  0  0  0
  -29.2050  -23.8050   20.1370 C   0  0  0  0  0  3  0  0  0  0  0  0
  -28.1730  -24.9570   19.5490 C   0  0  0  0  0  3  0  0  0  0  0  0
  -28.3510  -26.4630   19.8150 O   0  0  0  0  0  0  0  0  0  0  0  0
  -24.6100  -31.8560   23.0520 C   0  0  0  0  0  0  0  0  0  0  0  0
  -27.2500  -27.3780   19.7900 C   0  0  0  0  0  0  0  0  0  0  0  0
  -23.4100  -30.4930   21.3840 C   0  0  0  0  0  3  0  0  0  0  0  0
  -24.8690  -29.0190   19.8690 C   0  0  0  0  0  0  0  0  0  0  0  0
  -25.9460  -30.8510   21.1700 C   0  0  0  0  0  2  0  0  0  0  0  0
  -26.0440  -29.4880   20.4690 C   0  0  0  0  0  0  0  0  0  0  0  0
  -27.2350  -28.6820   20.4160 C   0  0  0  0  0  3  0  0  0  0  0  0
  -26.0500  -27.0000   19.1520 C   0  0  0  0  0  3  0  0  0  0  0  0
  -24.8800  -27.7890   19.1960 C   0  0  0  0  0  3  0  0  0  0  0  0
  -23.6170  -29.8730   19.9750 C   0  0  0  0  0  2  0  0  0  0  0  0
  -24.6760  -31.0860   21.9250 N   0  0  0  0  0  0  0  0  0  0  0  0
  -23.5300  -32.0890   23.6160 O   0  0  0  0  0  0  0  0  0  0  0  0
  -22.7830  -29.4300   22.3200 C   0  0  0  0  0  0  0  0  0  0  0  0
  -21.4550  -29.2400   22.2270 N   0  0  0  0  0  0  0  0  0  0  0  0
  -23.4930  -28.7790   23.0920 O   0  0  0  0  0  0  0  0  0  0  0  0
  -20.9390  -29.8160   21.5780 H   0  0  0  0  0  0  0  0  0  0  0  0
  -18.1070  -27.9900   22.8090 C   0  0  0  0  0  0  0  0  0  0  0  0
  -20.6740  -28.2560   22.9800 C   0  0  0  0  0  3  0  0  0  0  0  0
  -20.7570  -26.8590   22.3230 C   0  0  0  0  0  2  0  0  0  0  0  0
  -19.6140  -26.5840   21.3410 C   0  0  0  0  0  2  0  0  0  0  0  0
  -18.2610  -26.6820   22.0520 C   0  0  0  0  0  2  0  0  0  0  0  0
  -19.2400  -28.7370   23.2320 C   0  0  0  0  0  0  0  0  0  0  0  0
  -19.0400  -29.9620   23.9030 C   0  0  0  0  0  3  0  0  0  0  0  0
  -17.7410  -30.4420   24.1550 C   0  0  0  0  0  3  0  0  0  0  0  0
  -16.6240  -29.6930   23.7470 C   0  0  0  0  0  3  0  0  0  0  0  0
  -16.8080  -28.4690   23.0810 C   0  0  0  0  0  3  0  0  0  0  0  0
  -25.8870  -32.5010   23.6740 C   0  0  0  0  0  3  0  0  0  0  0  0
  -26.4340  -31.7070   24.9230 C   0  0  1  0  0  0  0  0  0  0  0  0
  -25.3580  -31.4150   25.9960 C   0  0  0  0  0  1  0  0  0  0  0  0
  -27.0460  -30.3540   24.4900 C   0  0  0  0  0  1  0  0  0  0  0  0
  -27.5740  -32.5090   25.5950 C   0  0  0  0  0  1  0  0  0  0  0  0
  -25.5520  -33.8830   24.0500 N   0  0  0  0  0  0  0  0  0  0  0  0
  -25.8620  -34.9670   23.3270 C   0  0  0  0  0  0  0  0  0  0  0  0
  -26.5280  -34.9100   22.2910 O   0  0  0  0  0  0  0  0  0  0  0  0
  -24.9580  -33.9990   24.8590 H   0  0  0  0  0  0  0  0  0  0  0  0
  -24.1190  -36.7570   23.0260 C   0  0  0  0  0  1  0  0  0  0  0  0
  -25.3560  -36.3320   23.8350 C   0  0  0  0  0  3  0  0  0  0  0  0
  -27.4610  -37.2180   24.7350 C   0  0  0  0  0  1  0  0  0  0  0  0
  -26.3770  -37.4010   23.7740 N   0  0  0  0  0  0  0  0  0  0  0  0
  -25.9570  -38.3110   23.9390 H   0  0  0  0  0  0  0  0  0  0  0  0
  1  3  1  0
  2  1  2  0
  2  4  1  0
  3 50  1  0
  3  5  2  0
  4  6  2  0
  5 48  1  0
  6  5  1  0
  6  7  1  0
  9  8  1  0
  9  4  1  0
  9 18  1  0
 10 16  1  0
 10 18  1  0
 11 16  1  0
 12 13  1  0
 12 11  1  0
 14 13  1  0
 14 23  1  0
 14 15  1  0
 16 15  1  0
 17 10  2  0
 18 19  1  0
 20 21  2  0
 21 40  1  0
 22 21  1  0
 22 25  1  0
 23 24  1  0
 23 20  1  0
 24 22  2  0
 25 26  1  0
 26 27  2  0
 28 31  1  0
 28 27  1  0
 29 28  2  0
 30 29  1  0
 30 25  2  0
 31 32  1  0
 32 37  2  0
 32 33  1  0
 33 34  2  0
 35 34  1  0
 35 39  1  0
 36 35  2  0
 37 36  1  0
 38 37  1  0
 40 41  1  0
 41 44  1  0
 41 43  1  0
 42 40  2  0
 45 20  1  0
 45 46  1  0
 47 45  1  0
 48 49  1  0
 51 52  1  0
 51 50  2  0
 53 64  2  0
 54 52  1  0
 54 59  1  0
 55 63  1  0
 55 65  1  0
 56 62  1  0
 56 58  1  0
 57 63  1  0
 58 57  1  0
 59 58  2  0
 60 61  1  0
 60 54  2  0
 61 56  2  0
 62 55  1  0
 63 53  1  0
 65 67  2  0
 66 65  1  0
 68 66  1  0
 69 78  2  0
 69 74  1  0
 70 66  1  0
 70 74  1  0
 71 70  1  0
 72 73  1  0
 72 71  1  0
 73 69  1  0
 74 75  2  0
 75 76  1  0
 77 76  2  0
 78 77  1  0
 79 53  1  0
 79 84  1  0
 79 80  1  0
 80 83  1  1
 80 81  1  0
 82 80  1  0
 84 87  1  0
 85 89  1  0
 85 84  1  0
 86 85  2  0
 89 88  1  0
 91 89  1  0
 91 92  1  0
 91 90  1  0
M  ISO  4  10 100  18 100  51 101  52 101
M  END
>  <TORSDO>  (17) 
F 20

>  <SCORE>  (17) 
-12.964

>  <name>  (17) 
16

>  <ligand_id>  (17) 
16

>  <original_smiles>  (17) 
[H]Oc1c(F)c(C([H])(N([H])C(=O)N2C([H])([H])C([H])([H])C([H])([H])C([H])(n3nc(-c4c([H])c([H])c(Oc5c([H])c([H])c(F)c([H])c5F)c([H])c4[H])c(C(=O)N([H])[H])c3N([H])[H])C2([H])[H])C([H])([H])[H])c([H])c([H])c1C([H])([H])C([H])([H])Oc1c([H])c([H])c2c(c1[H])C([H])([H])N(C(=O)C([H])(N([H])C(=O)C([H])(N([H])C([H])([H])[H])C([H])([H])[H])C(C([H])([H])[H])(C([H])([H])[H])C([H])([H])[H])C([H])(C(=O)N([H])C1([H])c3c([H])c([H])c([H])c([H])c3C([H])([H])C([H])([H])C1([H])[H])C2([H])[H]

>  <smiles>  (17) 
[H]Oc1c(F)c(C([H])(N([H])C(=O)N2C([H])([H])C([H])([H])C([H])([H])C([H])(n3nc(-c4c([H])c([H])c(Oc5c([H])c([H])c(F)c([H])c5F)c([H])c4[H])c(C(=O)N([H])[H])c3N([H])[H])C2([H])[H])C([H])([H])[H])c([H])c([H])c1C([H])([H])C([H])([H])Oc1c([H])c([H])c2c(c1[H])C([H])([H])N(C(=O)C([H])(N([H])C(=O)C([H])(N([H])C([H])([H])[H])C([H])([H])[H])C(C([H])([H])[H])(C([H])([H])[H])C([H])([H])[H])C([H])(C(=O)N([H])C1([H])c3c([H])c([H])c([H])c([H])c3C([H])([H])C([H])([H])C1([H])[H])C2([H])[H]

$$$$
17:0:0
     RDKit          3D

 95104  0  0  1  0  0  0  0  0999 V2000
  -28.9530  -22.0490   20.5570 C   0  0  0  0  0  3  0  0  0  0  0  0
  -26.8860  -21.4670   18.8580 C   0  0  0  0  0  3  0  0  0  0  0  0
  -28.8250  -20.6270   20.1100 C   0  0  0  0  0  0  0  0  0  0  0  0
  -28.0720  -23.2010   20.2030 C   0  0  0  0  0  0  0  0  0  0  0  0
  -26.9880  -22.7820   19.3770 C   0  0  0  0  0  0  0  0  0  0  0  0
  -27.7630  -20.4180   19.2040 C   0  0  0  0  0  0  0  0  0  0  0  0
  -27.5410  -19.1930   18.6670 F   0  0  0  0  0  0  0  0  0  0  0  0
  -25.9100  -23.6160   19.1060 N   0  0  0  0  0  0  0  0  0  0  0  0
  -25.0420  -23.1530   18.8560 H   0  0  0  0  0  0  0  0  0  0  0  0
  -25.7410  -24.3630   19.7700 H   0  0  0  0  0  0  0  0  0  0  0  0
  -29.7420  -19.3660   20.5240 C   0  0  0  0  0  0  0  0  0  0  0  0
  -30.7110  -19.6370   21.2340 O   0  0  0  0  0  0  0  0  0  0  0  0
  -29.5680  -17.7590   20.0890 C   0  0  0  0  0  2  0  0  0  0  0  0
  -30.9240  -16.9680   22.8160 C   0  0  0  0  0  2  0  0  0  0  0  0
  -29.8580  -16.0550   22.2270 C   0  0  0  0  0  2  0  0  0  0  0  0
  -31.6700  -16.7620   21.5020 C   0  0  0  0  0  2  0  0  0  0  0  0
  -30.3280  -16.4060   20.7850 C   0  0  2  0  0  0  0  0  0  0  0  0
  -30.7030  -15.0030   19.9420 C   0  0  0  0  0  0  0  0  0  0  0  0
  -30.3860  -12.7130   18.8740 C   0  0  0  0  0  2  0  0  0  0  0  0
  -29.3770  -12.7670   17.7020 C   0  0  0  0  0  2  0  0  0  0  0  0
  -27.9370  -12.5800   18.2100 C   0  0  0  0  0  2  0  0  0  0  0  0
  -27.6510  -13.4430   19.4640 C   0  0  0  0  0  3  0  0  0  0  0  0
  -28.7750  -13.3600   20.5130 C   0  0  0  0  0  2  0  0  0  0  0  0
  -30.0330  -13.7730   19.8700 N   0  0  0  0  0  0  0  0  0  0  0  0
  -31.7770  -15.0400   19.3290 O   0  0  0  0  0  0  0  0  0  0  0  0
  -25.3530  -14.0450   20.4030 C   0  0  0  0  0  0  0  0  0  0  0  0
  -24.3010  -13.2770   20.8250 C   0  0  0  0  0  0  0  0  0  0  0  0
  -24.7280  -11.9210   20.7100 C   0  0  0  0  0  0  0  0  0  0  0  0
  -26.3490  -13.1530   20.0470 N   0  0  0  0  0  0  0  0  0  0  0  0
  -25.9890  -11.8660   20.2970 N   0  0  0  0  0  0  0  0  0  0  0  0
  -23.9860  -10.6690   20.9110 C   0  0  0  0  0  0  0  0  0  0  0  0
  -24.4550   -9.6590   21.7780 C   0  0  0  0  0  3  0  0  0  0  0  0
  -23.7110   -8.4770   21.9680 C   0  0  0  0  0  3  0  0  0  0  0  0
  -22.4800   -8.2960   21.2930 C   0  0  0  0  0  0  0  0  0  0  0  0
  -22.0270   -9.2950   20.4140 C   0  0  0  0  0  3  0  0  0  0  0  0
  -22.7740  -10.4680   20.2200 C   0  0  0  0  0  3  0  0  0  0  0  0
  -21.7010   -7.1710   21.3990 O   0  0  0  0  0  0  0  0  0  0  0  0
  -21.7070   -6.3910   22.5280 C   0  0  0  0  0  0  0  0  0  0  0  0
  -21.4050   -6.9240   23.8000 C   0  0  0  0  0  3  0  0  0  0  0  0
  -21.3580   -6.0780   24.9250 C   0  0  0  0  0  3  0  0  0  0  0  0
  -21.5980   -4.6990   24.7810 C   0  0  0  0  0  0  0  0  0  0  0  0
  -21.8950   -4.1640   23.5140 C   0  0  0  0  0  3  0  0  0  0  0  0
  -21.9460   -5.0080   22.3900 C   0  0  0  0  0  0  0  0  0  0  0  0
  -22.2090   -4.4860   21.1700 F   0  0  0  0  0  0  0  0  0  0  0  0
  -21.5420   -3.8840   25.8590 F   0  0  0  0  0  0  0  0  0  0  0  0
  -22.9420  -13.7780   21.2180 C   0  0  0  0  0  0  0  0  0  0  0  0
  -22.2700  -13.0710   22.1210 N   0  0  0  0  0  0  0  0  0  0  0  0
  -22.4890  -14.8260   20.7660 O   0  0  0  0  0  0  0  0  0  0  0  0
  -22.6530  -12.2230   22.5120 H   0  0  0  0  0  0  0  0  0  0  0  0
  -21.3630  -13.3910   22.4290 H   0  0  0  0  0  0  0  0  0  0  0  0
  -25.5410  -15.4180   20.2670 N   0  0  0  0  0  0  0  0  0  0  0  0
  -24.8070  -16.0910   20.4580 H   0  0  0  0  0  0  0  0  0  0  0  0
  -26.3870  -15.8470   19.9160 H   0  0  0  0  0  0  0  0  0  0  0  0
  -28.0850  -24.7290   20.8830 C   0  0  0  0  0  2  0  0  0  0  0  0
  -28.2240  -26.1500   20.2410 O   0  0  0  0  0  0  0  0  0  0  0  0
  -24.6210  -31.9130   23.2180 C   0  0  0  0  0  0  0  0  0  0  0  0
  -27.1840  -27.1490   20.2630 C   0  0  0  0  0  0  0  0  0  0  0  0
  -23.4220  -30.4970   21.6000 C   0  0  0  0  0  3  0  0  0  0  0  0
  -24.8680  -28.9040   20.2010 C   0  0  0  0  0  0  0  0  0  0  0  0
  -25.9760  -30.7570   21.4330 C   0  0  0  0  0  2  0  0  0  0  0  0
  -26.0480  -29.3510   20.8120 C   0  0  0  0  0  0  0  0  0  0  0  0
  -27.2100  -28.4870   20.8320 C   0  0  0  0  0  3  0  0  0  0  0  0
  -25.9970  -26.8330   19.5800 C   0  0  0  0  0  3  0  0  0  0  0  0
  -24.8550  -27.6560   19.5670 C   0  0  0  0  0  3  0  0  0  0  0  0
  -23.6440  -29.8050   20.2290 C   0  0  0  0  0  2  0  0  0  0  0  0
  -24.6940  -31.0770   22.1390 N   0  0  0  0  0  0  0  0  0  0  0  0
  -23.5360  -32.2010   23.7450 O   0  0  0  0  0  0  0  0  0  0  0  0
  -22.7460  -29.4960   22.5720 C   0  0  0  0  0  0  0  0  0  0  0  0
  -21.4180  -29.3220   22.4520 N   0  0  0  0  0  0  0  0  0  0  0  0
  -23.4210  -28.8810   23.4020 O   0  0  0  0  0  0  0  0  0  0  0  0
  -20.9310  -29.8710   21.7570 H   0  0  0  0  0  0  0  0  0  0  0  0
  -18.0430  -28.1190   22.9770 C   0  0  0  0  0  0  0  0  0  0  0  0
  -20.6010  -28.3940   23.2390 C   0  0  0  0  0  3  0  0  0  0  0  0
  -20.7060  -26.9520   22.6870 C   0  0  0  0  0  2  0  0  0  0  0  0
  -19.6050  -26.6110   21.6780 C   0  0  0  0  0  2  0  0  0  0  0  0
  -18.2230  -26.7590   22.3220 C   0  0  0  0  0  2  0  0  0  0  0  0
  -19.1590  -28.8910   23.3950 C   0  0  0  0  0  0  0  0  0  0  0  0
  -18.9360  -30.1600   23.9710 C   0  0  0  0  0  3  0  0  0  0  0  0
  -17.6290  -30.6570   24.1350 C   0  0  0  0  0  3  0  0  0  0  0  0
  -16.5270  -29.8840   23.7300 C   0  0  0  0  0  3  0  0  0  0  0  0
  -16.7350  -28.6170   23.1560 C   0  0  0  0  0  3  0  0  0  0  0  0
  -25.8970  -32.5610   23.8320 C   0  0  0  0  0  3  0  0  0  0  0  0
  -25.5810  -33.9640   24.1410 N   0  0  0  0  0  0  0  0  0  0  0  0
  -25.9090  -35.0100   23.3700 C   0  0  0  0  0  0  0  0  0  0  0  0
  -26.5770  -34.8950   22.3390 O   0  0  0  0  0  0  0  0  0  0  0  0
  -24.9820  -34.1260   24.9360 H   0  0  0  0  0  0  0  0  0  0  0  0
  -24.1760  -36.8000   22.9970 C   0  0  0  0  0  1  0  0  0  0  0  0
  -25.4210  -36.4060   23.8090 C   0  0  0  0  0  3  0  0  0  0  0  0
  -27.5600  -37.3040   24.6160 C   0  0  0  0  0  1  0  0  0  0  0  0
  -26.4510  -37.4590   23.6760 N   0  0  0  0  0  0  0  0  0  0  0  0
  -26.0470  -38.3820   23.8130 H   0  0  0  0  0  0  0  0  0  0  0  0
  -26.4050  -31.8140   25.1250 C   0  0  1  0  0  0  0  0  0  0  0  0
  -25.3060  -31.5970   26.1920 C   0  0  0  0  0  1  0  0  0  0  0  0
  -26.9880  -30.4260   24.7700 C   0  0  0  0  0  1  0  0  0  0  0  0
  -27.5520  -32.6200   25.7760 C   0  0  0  0  0  1  0  0  0  0  0  0
  2  6  2  0
  2  5  1  0
  3 11  1  0
  3  1  2  0
  4  1  1  0
  4 54  1  0
  5  4  2  0
  6  3  1  0
  7  6  1  0
  8  5  1  0
  8 10  1  0
  9  8  1  0
 11 12  2  0
 13 11  1  0
 17 13  1  6
 15 14  1  0
 16 14  1  0
 17 16  1  0
 17 15  1  0
 18 17  1  0
 19 24  1  0
 20 21  1  0
 20 19  1  0
 22 21  1  0
 22 29  1  0
 22 23  1  0
 24 18  1  0
 24 23  1  0
 25 18  2  0
 26 27  2  0
 27 46  1  0
 28 27  1  0
 28 31  1  0
 29 30  1  0
 29 26  1  0
 30 28  2  0
 31 32  1  0
 32 33  2  0
 34 37  1  0
 34 33  1  0
 35 34  2  0
 36 35  1  0
 36 31  2  0
 37 38  1  0
 38 39  1  0
 39 40  2  0
 41 40  1  0
 41 45  1  0
 42 41  2  0
 43 38  2  0
 43 42  1  0
 44 43  1  0
 46 47  1  0
 47 50  1  0
 47 49  1  0
 48 46  2  0
 51 26  1  0
 51 52  1  0
 53 51  1  0
 55 57  1  0
 55 54  1  0
 56 67  2  0
 57 62  1  0
 58 66  1  0
 58 68  1  0
 59 65  1  0
 59 61  1  0
 60 66  1  0
 61 62  2  0
 61 60  1  0
 63 57  2  0
 64 63  1  0
 64 59  2  0
 65 58  1  0
 66 56  1  0
 68 70  2  0
 69 68  1  0
 71 69  1  0
 72 81  2  0
 72 77  1  0
 73 69  1  0
 73 77  1  0
 74 73  1  0
 75 76  1  0
 75 74  1  0
 76 72  1  0
 77 78  2  0
 78 79  1  0
 80 79  2  0
 81 80  1  0
 82 56  1  0
 82 83  1  0
 82 92  1  0
 83 86  1  0
 84 88  1  0
 84 83  1  0
 85 84  2  0
 88 87  1  0
 90 88  1  0
 90 91  1  0
 90 89  1  0
 92 95  1  1
 92 93  1  0
 94 92  1  0
M  ISO  4  17 100  18 100  54 101  55 101
M  END
>  <TORSDO>  (18) 
F 21

>  <SCORE>  (18) 
-13.242

>  <name>  (18) 
17

>  <ligand_id>  (18) 
17

>  <original_smiles>  (18) 
[H]c1c([H])c([H])c2c(c1[H])C([H])([H])C([H])([H])C([H])([H])C2([H])N([H])C(=O)C1([H])N(C(=O)C([H])(N([H])C(=O)C([H])(N([H])C([H])([H])[H])C([H])([H])[H])C(C([H])([H])[H])(C([H])([H])[H])C([H])([H])[H])C([H])([H])c2c([H])c(OC([H])([H])c3c([H])c(C(=O)C([H])([H])C4(C(=O)N5C([H])([H])C([H])([H])C([H])([H])C([H])(n6nc(-c7c([H])c([H])c(Oc8c([H])c([H])c(F)c([H])c8F)c([H])c7[H])c(C(=O)N([H])[H])c6N([H])[H])C5([H])[H])C([H])([H])C([H])([H])C4([H])[H])c(F)c([H])c3N([H])[H])c([H])c([H])c2C1([H])[H]

>  <smiles>  (18) 
[H]c1c([H])c([H])c2c(c1[H])C([H])([H])C([H])([H])C([H])([H])C2([H])N([H])C(=O)C1([H])N(C(=O)C([H])(N([H])C(=O)C([H])(N([H])C([H])([H])[H])C([H])([H])[H])C(C([H])([H])[H])(C([H])([H])[H])C([H])([H])[H])C([H])([H])c2c([H])c(OC([H])([H])c3c([H])c(C(=O)C([H])([H])C4(C(=O)N5C([H])([H])C([H])([H])C([H])([H])C([H])(n6nc(-c7c([H])c([H])c(Oc8c([H])c([H])c(F)c([H])c8F)c([H])c7[H])c(C(=O)N([H])[H])c6N([H])[H])C5([H])[H])C([H])([H])C([H])([H])C4([H])[H])c(F)c([H])c3N([H])[H])c([H])c([H])c2C1([H])[H]

$$$$
18:0:0
     RDKit          3D

 92100  0  0  1  0  0  0  0  0999 V2000
  -27.7940  -19.6400   19.9940 C   0  0  0  0  0  3  0  0  0  0  0  0
  -26.8890  -20.6990   20.1860 C   0  0  0  0  0  3  0  0  0  0  0  0
  -29.5880  -21.2690   19.9440 C   0  0  0  0  0  3  0  0  0  0  0  0
  -28.6750  -22.4060   20.0280 C   0  0  0  0  0  0  0  0  0  0  0  0
  -29.1830  -19.8700   19.9400 C   0  0  0  0  0  0  0  0  0  0  0  0
  -27.3020  -22.0500   20.2540 C   0  0  0  0  0  0  0  0  0  0  0  0
  -26.2030  -23.0340   20.6440 C   0  0  0  0  0  1  0  0  0  0  0  0
  -29.1860  -23.9010   19.9750 C   0  0  0  0  0  0  0  0  0  0  0  0
  -30.3330  -24.1790   20.3400 O   0  0  0  0  0  0  0  0  0  0  0  0
  -28.3060  -25.0950   19.3710 C   0  0  0  0  0  2  0  0  0  0  0  0
  -28.5620  -26.5280   19.7600 O   0  0  0  0  0  0  0  0  0  0  0  0
  -24.5560  -31.6010   23.0520 C   0  0  0  0  0  0  0  0  0  0  0  0
  -27.4450  -27.3950   19.7180 C   0  0  0  0  0  0  0  0  0  0  0  0
  -23.4520  -30.2390   21.3180 C   0  0  0  0  0  3  0  0  0  0  0  0
  -25.0010  -28.9030   19.7860 C   0  0  0  0  0  0  0  0  0  0  0  0
  -25.9730  -30.7230   21.1790 C   0  0  0  0  0  2  0  0  0  0  0  0
  -26.1410  -29.4010   20.4370 C   0  0  0  0  0  0  0  0  0  0  0  0
  -27.3620  -28.6540   20.4060 C   0  0  0  0  0  3  0  0  0  0  0  0
  -26.2910  -27.0010   18.9990 C   0  0  0  0  0  3  0  0  0  0  0  0
  -25.0840  -27.7120   19.0570 C   0  0  0  0  0  3  0  0  0  0  0  0
  -23.7090  -29.6880   19.8950 C   0  0  0  0  0  2  0  0  0  0  0  0
  -24.6780  -30.8700   21.9050 N   0  0  0  0  0  0  0  0  0  0  0  0
  -23.4570  -31.7690   23.5980 O   0  0  0  0  0  0  0  0  0  0  0  0
  -22.8580  -29.1140   22.2010 C   0  0  0  0  0  0  0  0  0  0  0  0
  -21.5470  -28.8560   22.0530 N   0  0  0  0  0  0  0  0  0  0  0  0
  -23.5740  -28.4810   22.9810 O   0  0  0  0  0  0  0  0  0  0  0  0
  -21.0220  -29.4240   21.4030 H   0  0  0  0  0  0  0  0  0  0  0  0
  -18.2600  -27.3970   22.4490 C   0  0  0  0  0  0  0  0  0  0  0  0
  -20.7940  -27.8160   22.7560 C   0  0  0  0  0  3  0  0  0  0  0  0
  -21.0000  -26.4360   22.0930 C   0  0  0  0  0  2  0  0  0  0  0  0
  -19.9280  -26.1030   21.0490 C   0  0  0  0  0  2  0  0  0  0  0  0
  -18.5360  -26.1080   21.6900 C   0  0  0  0  0  2  0  0  0  0  0  0
  -19.3220  -28.2040   22.9360 C   0  0  0  0  0  0  0  0  0  0  0  0
  -19.0160  -29.4080   23.6070 C   0  0  0  0  0  3  0  0  0  0  0  0
  -17.6800  -29.8080   23.7920 C   0  0  0  0  0  3  0  0  0  0  0  0
  -16.6320  -28.9940   23.3280 C   0  0  0  0  0  3  0  0  0  0  0  0
  -16.9220  -27.7910   22.6610 C   0  0  0  0  0  3  0  0  0  0  0  0
  -25.7920  -32.2790   23.7200 C   0  0  0  0  0  3  0  0  0  0  0  0
  -26.2980  -31.5130   25.0040 C   0  0  1  0  0  0  0  0  0  0  0  0
  -25.1860  -31.2310   26.0400 C   0  0  0  0  0  1  0  0  0  0  0  0
  -26.9420  -30.1600   24.6240 C   0  0  0  0  0  1  0  0  0  0  0  0
  -27.3970  -32.3440   25.7070 C   0  0  0  0  0  1  0  0  0  0  0  0
  -25.4140  -33.6580   24.0580 N   0  0  0  0  0  0  0  0  0  0  0  0
  -25.7100  -34.7360   23.3190 C   0  0  0  0  0  0  0  0  0  0  0  0
  -26.4030  -34.6740   22.2980 O   0  0  0  0  0  0  0  0  0  0  0  0
  -24.8020  -33.7750   24.8520 H   0  0  0  0  0  0  0  0  0  0  0  0
  -23.8970  -36.4480   22.9690 C   0  0  0  0  0  1  0  0  0  0  0  0
  -25.1510  -36.0960   23.7840 C   0  0  0  0  0  3  0  0  0  0  0  0
  -27.2260  -37.0860   24.6480 C   0  0  0  0  0  1  0  0  0  0  0  0
  -26.1310  -37.2000   23.6890 N   0  0  0  0  0  0  0  0  0  0  0  0
  -25.6760  -38.0980   23.8300 H   0  0  0  0  0  0  0  0  0  0  0  0
  -30.1910  -18.6370   19.8520 C   0  0  0  0  0  2  0  0  0  0  0  0
  -28.7250  -16.9320   21.1570 C   0  0  0  0  0  1  0  0  0  0  0  0
  -29.7260  -17.0760   19.9920 C   0  0  0  0  0  3  0  0  0  0  0  0
  -31.2260  -14.8690   19.6590 C   0  0  0  0  0  0  0  0  0  0  0  0
  -30.8680  -12.5210   18.8980 C   0  0  0  0  0  2  0  0  0  0  0  0
  -29.8670  -12.4540   17.7260 C   0  0  0  0  0  2  0  0  0  0  0  0
  -28.4280  -12.3520   18.2600 C   0  0  0  0  0  2  0  0  0  0  0  0
  -28.1310  -13.3880   19.3740 C   0  0  0  0  0  3  0  0  0  0  0  0
  -29.2500  -13.4390   20.4380 C   0  0  0  0  0  2  0  0  0  0  0  0
  -30.5170  -13.6900   19.7430 N   0  0  0  0  0  0  0  0  0  0  0  0
  -32.3320  -14.8670   19.1170 O   0  0  0  0  0  0  0  0  0  0  0  0
  -30.8260  -16.0560   20.2380 N   0  0  0  0  0  0  0  0  0  0  0  0
  -31.6780  -16.5650   20.4380 H   0  0  0  0  0  0  0  0  0  0  0  0
  -25.8690  -14.0980   20.3500 C   0  0  0  0  0  0  0  0  0  0  0  0
  -24.7870  -13.3810   20.7770 C   0  0  0  0  0  0  0  0  0  0  0  0
  -25.1340  -12.0050   20.6150 C   0  0  0  0  0  0  0  0  0  0  0  0
  -26.8190  -13.1660   19.9710 N   0  0  0  0  0  0  0  0  0  0  0  0
  -26.3870  -11.8950   20.1890 N   0  0  0  0  0  0  0  0  0  0  0  0
  -24.3260  -10.7910   20.7830 C   0  0  0  0  0  0  0  0  0  0  0  0
  -24.6990   -9.7760   21.6920 C   0  0  0  0  0  3  0  0  0  0  0  0
  -23.8890   -8.6290   21.8540 C   0  0  0  0  0  3  0  0  0  0  0  0
  -22.6940   -8.4910   21.1070 C   0  0  0  0  0  0  0  0  0  0  0  0
  -22.3430   -9.4940   20.1840 C   0  0  0  0  0  3  0  0  0  0  0  0
  -23.1520  -10.6310   20.0200 C   0  0  0  0  0  3  0  0  0  0  0  0
  -21.8580   -7.4030   21.1860 O   0  0  0  0  0  0  0  0  0  0  0  0
  -21.6900   -6.7040   22.3540 C   0  0  0  0  0  0  0  0  0  0  0  0
  -21.1980   -7.3190   23.5250 C   0  0  0  0  0  3  0  0  0  0  0  0
  -20.9760   -6.5520   24.6850 C   0  0  0  0  0  3  0  0  0  0  0  0
  -21.2350   -5.1670   24.6740 C   0  0  0  0  0  0  0  0  0  0  0  0
  -21.7210   -4.5510   23.5070 C   0  0  0  0  0  3  0  0  0  0  0  0
  -21.9430   -5.3170   22.3470 C   0  0  0  0  0  0  0  0  0  0  0  0
  -22.3920   -4.7140   21.2220 F   0  0  0  0  0  0  0  0  0  0  0  0
  -21.0130   -4.4270   25.7860 F   0  0  0  0  0  0  0  0  0  0  0  0
  -23.4610  -13.9410   21.2010 C   0  0  0  0  0  0  0  0  0  0  0  0
  -22.7620  -13.2570   22.0980 N   0  0  0  0  0  0  0  0  0  0  0  0
  -23.0630  -15.0240   20.7710 O   0  0  0  0  0  0  0  0  0  0  0  0
  -23.1050  -12.3870   22.4760 H   0  0  0  0  0  0  0  0  0  0  0  0
  -21.8610  -13.5990   22.4040 H   0  0  0  0  0  0  0  0  0  0  0  0
  -26.1080  -15.4640   20.2220 N   0  0  0  0  0  0  0  0  0  0  0  0
  -25.3700  -16.1380   20.3930 H   0  0  0  0  0  0  0  0  0  0  0  0
  -26.9210  -15.8620   19.7760 H   0  0  0  0  0  0  0  0  0  0  0  0
  1  2  1  0
  2  6  2  0
  3  4  2  0
  4  6  1  0
  5  3  1  0
  5  1  2  0
  6  7  1  0
  8  4  1  0
  8  9  2  0
 10 11  1  0
 10  8  1  0
 12 23  2  0
 13 11  1  0
 13 18  1  0
 14 22  1  0
 14 24  1  0
 15 21  1  0
 15 17  1  0
 16 22  1  0
 17 16  1  0
 18 17  2  0
 19 20  1  0
 19 13  2  0
 20 15  2  0
 21 14  1  0
 22 12  1  0
 24 26  2  0
 25 24  1  0
 27 25  1  0
 28 37  2  0
 28 33  1  0
 29 25  1  0
 29 33  1  0
 30 29  1  0
 31 32  1  0
 31 30  1  0
 32 28  1  0
 33 34  2  0
 34 35  1  0
 36 35  2  0
 37 36  1  0
 38 12  1  0
 38 43  1  0
 38 39  1  0
 39 42  1  1
 39 40  1  0
 41 39  1  0
 43 46  1  0
 44 48  1  0
 44 43  1  0
 45 44  2  0
 48 47  1  0
 50 48  1  0
 50 51  1  0
 50 49  1  0
 52  5  1  0
 52 54  1  0
 54 63  1  0
 54 53  1  0
 55 61  1  0
 55 63  1  0
 56 61  1  0
 57 58  1  0
 57 56  1  0
 59 58  1  0
 59 68  1  0
 59 60  1  0
 61 60  1  0
 62 55  2  0
 63 64  1  0
 65 66  2  0
 66 85  1  0
 67 66  1  0
 67 70  1  0
 68 69  1  0
 68 65  1  0
 69 67  2  0
 70 71  1  0
 71 72  2  0
 73 76  1  0
 73 72  1  0
 74 73  2  0
 75 74  1  0
 75 70  2  0
 76 77  1  0
 77 78  1  0
 78 79  2  0
 80 79  1  0
 80 84  1  0
 81 80  2  0
 82 77  2  0
 82 81  1  0
 83 82  1  0
 85 86  1  0
 86 89  1  0
 86 88  1  0
 87 85  2  0
 90 65  1  0
 90 91  1  0
 92 90  1  0
M  ISO  4  10 101  11 101  55 100  63 100
M  END
>  <TORSDO>  (19) 
F 20

>  <SCORE>  (19) 
-11.508

>  <name>  (19) 
18

>  <ligand_id>  (19) 
18

>  <original_smiles>  (19) 
[H]c1c([H])c([H])c2c(c1[H])C([H])([H])C([H])([H])C([H])([H])C2([H])N([H])C(=O)C1([H])N(C(=O)C([H])(N([H])C(=O)C([H])(N([H])C([H])([H])[H])C([H])([H])[H])C(C([H])([H])[H])(C([H])([H])[H])C([H])([H])[H])C([H])([H])c2c([H])c(OC([H])([H])C(=O)c3c([H])c(C([H])([H])C([H])(N([H])C(=O)N4C([H])([H])C([H])([H])C([H])([H])C([H])(n5nc(-c6c([H])c([H])c(Oc7c([H])c([H])c(F)c([H])c7F)c([H])c6[H])c(C(=O)N([H])[H])c5N([H])[H])C4([H])[H])C([H])([H])[H])c([H])c([H])c3C([H])([H])[H])c([H])c([H])c2C1([H])[H]

>  <smiles>  (19) 
[H]c1c([H])c([H])c2c(c1[H])C([H])([H])C([H])([H])C([H])([H])C2([H])N([H])C(=O)C1([H])N(C(=O)C([H])(N([H])C(=O)C([H])(N([H])C([H])([H])[H])C([H])([H])[H])C(C([H])([H])[H])(C([H])([H])[H])C([H])([H])[H])C([H])([H])c2c([H])c(OC([H])([H])C(=O)c3c([H])c(C([H])([H])C([H])(N([H])C(=O)N4C([H])([H])C([H])([H])C([H])([H])C([H])(n5nc(-c6c([H])c([H])c(Oc7c([H])c([H])c(F)c([H])c7F)c([H])c6[H])c(C(=O)N([H])[H])c5N([H])[H])C4([H])[H])C([H])([H])[H])c([H])c([H])c3C([H])([H])[H])c([H])c([H])c2C1([H])[H]

$$$$
19:0:0
     RDKit          3D

 91 99  0  0  1  0  0  0  0  0999 V2000
  -30.2950  -19.5730   21.2430 C   0  0  0  0  0  3  0  0  0  0  0  0
  -30.4710  -20.9550   21.4810 C   0  0  0  0  0  3  0  0  0  0  0  0
  -28.3340  -20.1400   19.9610 C   0  0  0  0  0  3  0  0  0  0  0  0
  -29.2640  -19.0570   20.4310 C   0  0  0  0  0  0  0  0  0  0  0  0
  -28.4500  -21.6160   20.2380 C   0  0  0  0  0  0  0  0  0  0  0  0
  -29.6040  -21.9610   20.9790 C   0  0  0  0  0  0  0  0  0  0  0  0
  -29.7910  -16.3200   20.8380 C   0  0  0  0  0  2  0  0  0  0  0  0
  -29.4730  -17.4860   20.0630 C   0  0  0  0  0  3  0  0  0  0  0  0
  -30.4660  -14.9590   20.4340 C   0  0  0  0  0  0  0  0  0  0  0  0
  -30.4000  -12.5350   19.6640 C   0  0  0  0  0  2  0  0  0  0  0  0
  -29.5240  -12.4030   18.3980 C   0  0  0  0  0  2  0  0  0  0  0  0
  -28.0590  -12.1600   18.7970 C   0  0  0  0  0  2  0  0  0  0  0  0
  -27.5880  -13.1280   19.9140 C   0  0  0  0  0  3  0  0  0  0  0  0
  -28.6050  -13.2650   21.0680 C   0  0  0  0  0  2  0  0  0  0  0  0
  -29.8830  -13.6820   20.4810 N   0  0  0  0  0  0  0  0  0  0  0  0
  -31.6410  -14.9610   20.0480 O   0  0  0  0  0  0  0  0  0  0  0  0
  -25.1960  -13.6500   20.6480 C   0  0  0  0  0  0  0  0  0  0  0  0
  -24.1430  -12.8520   21.0010 C   0  0  0  0  0  0  0  0  0  0  0  0
  -24.6310  -11.5100   20.9610 C   0  0  0  0  0  0  0  0  0  0  0  0
  -26.2550  -12.7930   20.4010 N   0  0  0  0  0  0  0  0  0  0  0  0
  -25.9250  -11.5000   20.6570 N   0  0  0  0  0  0  0  0  0  0  0  0
  -23.9230  -10.2330   21.1370 C   0  0  0  0  0  0  0  0  0  0  0  0
  -24.3300   -9.2860   22.1020 C   0  0  0  0  0  3  0  0  0  0  0  0
  -23.6180   -8.0770   22.2630 C   0  0  0  0  0  3  0  0  0  0  0  0
  -22.4850   -7.8080   21.4580 C   0  0  0  0  0  0  0  0  0  0  0  0
  -22.0980   -8.7460   20.4850 C   0  0  0  0  0  3  0  0  0  0  0  0
  -22.8110   -9.9450   20.3210 C   0  0  0  0  0  3  0  0  0  0  0  0
  -21.7470   -6.6500   21.5280 O   0  0  0  0  0  0  0  0  0  0  0  0
  -21.6280   -5.9420   22.6960 C   0  0  0  0  0  0  0  0  0  0  0  0
  -20.9770   -6.4760   23.8300 C   0  0  0  0  0  3  0  0  0  0  0  0
  -20.8150   -5.6880   24.9860 C   0  0  0  0  0  3  0  0  0  0  0  0
  -21.2950   -4.3650   25.0100 C   0  0  0  0  0  0  0  0  0  0  0  0
  -21.9400   -3.8300   23.8810 C   0  0  0  0  0  3  0  0  0  0  0  0
  -22.1040   -4.6160   22.7270 C   0  0  0  0  0  0  0  0  0  0  0  0
  -22.7050   -4.0880   21.6350 F   0  0  0  0  0  0  0  0  0  0  0  0
  -21.1350   -3.6040   26.1180 F   0  0  0  0  0  0  0  0  0  0  0  0
  -22.7370  -13.3050   21.2650 C   0  0  0  0  0  0  0  0  0  0  0  0
  -22.0070  -12.5850   22.1090 N   0  0  0  0  0  0  0  0  0  0  0  0
  -22.2950  -14.3370   20.7600 O   0  0  0  0  0  0  0  0  0  0  0  0
  -22.3760  -11.7510   22.5400 H   0  0  0  0  0  0  0  0  0  0  0  0
  -21.0640  -12.8740   22.3260 H   0  0  0  0  0  0  0  0  0  0  0  0
  -25.3370  -15.0260   20.4890 N   0  0  0  0  0  0  0  0  0  0  0  0
  -24.5620  -15.6670   20.6220 H   0  0  0  0  0  0  0  0  0  0  0  0
  -26.1900  -15.4880   20.1980 H   0  0  0  0  0  0  0  0  0  0  0  0
  -29.5030  -17.3600   18.7320 O   0  0  0  0  0  0  0  0  0  0  0  0
  -29.3790  -18.2280   18.3640 H   0  0  0  0  0  0  0  0  0  0  0  0
  -31.1560  -23.7700   21.2570 C   0  0  0  0  0  1  0  0  0  0  0  0
  -29.8110  -23.3020   21.2190 O   0  0  0  0  0  0  0  0  0  0  0  0
  -27.3720  -22.8690   19.9800 C   0  0  0  0  0  2  0  0  0  0  0  0
  -27.5960  -24.3950   19.2510 C   0  0  0  0  0  2  0  0  0  0  0  0
  -27.6190  -25.8750   19.7780 O   0  0  0  0  0  0  0  0  0  0  0  0
  -24.4980  -31.6400   23.1120 C   0  0  0  0  0  0  0  0  0  0  0  0
  -26.6160  -26.9130   19.7360 C   0  0  0  0  0  0  0  0  0  0  0  0
  -23.1410  -30.4200   21.4510 C   0  0  0  0  0  3  0  0  0  0  0  0
  -24.4170  -28.8200   19.8850 C   0  0  0  0  0  0  0  0  0  0  0  0
  -25.6980  -30.5100   21.1990 C   0  0  0  0  0  2  0  0  0  0  0  0
  -25.6450  -29.1530   20.4700 C   0  0  0  0  0  0  0  0  0  0  0  0
  -26.7390  -28.2140   20.3800 C   0  0  0  0  0  3  0  0  0  0  0  0
  -25.3710  -26.6830   19.1140 C   0  0  0  0  0  3  0  0  0  0  0  0
  -24.2950  -27.6010   19.1920 C   0  0  0  0  0  3  0  0  0  0  0  0
  -23.2620  -29.7980   20.0320 C   0  0  0  0  0  2  0  0  0  0  0  0
  -24.4700  -30.8750   21.9770 N   0  0  0  0  0  0  0  0  0  0  0  0
  -23.4570  -31.9710   23.6980 O   0  0  0  0  0  0  0  0  0  0  0  0
  -22.4280  -29.4160   22.3920 C   0  0  0  0  0  0  0  0  0  0  0  0
  -21.0870  -29.3390   22.3040 N   0  0  0  0  0  0  0  0  0  0  0  0
  -23.0810  -28.7100   23.1630 O   0  0  0  0  0  0  0  0  0  0  0  0
  -20.6180  -29.9590   21.6570 H   0  0  0  0  0  0  0  0  0  0  0  0
  -17.6530  -28.3340   22.8690 C   0  0  0  0  0  0  0  0  0  0  0  0
  -20.2310  -28.4190   23.0580 C   0  0  0  0  0  3  0  0  0  0  0  0
  -20.2190  -27.0130   22.4170 C   0  0  0  0  0  2  0  0  0  0  0  0
  -19.0680  -26.8110   21.4260 C   0  0  0  0  0  2  0  0  0  0  0  0
  -17.7190  -27.0120   22.1230 C   0  0  0  0  0  2  0  0  0  0  0  0
  -18.8320  -29.0030   23.2940 C   0  0  0  0  0  0  0  0  0  0  0  0
  -18.7120  -30.2450   23.9550 C   0  0  0  0  0  3  0  0  0  0  0  0
  -17.4480  -30.8170   24.1920 C   0  0  0  0  0  3  0  0  0  0  0  0
  -16.2850  -30.1450   23.7800 C   0  0  0  0  0  3  0  0  0  0  0  0
  -16.3880  -28.9040   23.1250 C   0  0  0  0  0  3  0  0  0  0  0  0
  -25.8420  -32.1520   23.7170 C   0  0  0  0  0  3  0  0  0  0  0  0
  -25.6410  -33.5460   24.1450 N   0  0  0  0  0  0  0  0  0  0  0  0
  -26.0840  -34.6210   23.4800 C   0  0  0  0  0  0  0  0  0  0  0  0
  -26.7710  -34.5380   22.4590 O   0  0  0  0  0  0  0  0  0  0  0  0
  -25.0370  -33.6910   24.9410 H   0  0  0  0  0  0  0  0  0  0  0  0
  -24.5930  -36.6270   23.1780 C   0  0  0  0  0  1  0  0  0  0  0  0
  -25.7100  -36.0090   24.0360 C   0  0  0  0  0  3  0  0  0  0  0  0
  -27.8290  -36.5900   25.1340 C   0  0  0  0  0  1  0  0  0  0  0  0
  -26.8530  -36.9450   24.1070 N   0  0  0  0  0  0  0  0  0  0  0  0
  -26.5310  -37.8920   24.2900 H   0  0  0  0  0  0  0  0  0  0  0  0
  -26.3490  -31.2770   24.9310 C   0  0  1  0  0  0  0  0  0  0  0  0
  -25.2810  -31.0570   26.0290 C   0  0  0  0  0  1  0  0  0  0  0  0
  -26.8180  -29.8850   24.4500 C   0  0  0  0  0  1  0  0  0  0  0  0
  -27.5750  -31.9540   25.5900 C   0  0  0  0  0  1  0  0  0  0  0  0
  1  2  1  0
  3  5  2  0
  3  4  1  0
  4  1  2  0
  5  6  1  0
  6 48  1  0
  6  2  2  0
  8  4  1  0
  8  7  1  0
  9 15  1  0
  9  7  1  0
 10 15  1  0
 11 12  1  0
 11 10  1  0
 13 12  1  0
 13 20  1  0
 13 14  1  0
 15 14  1  0
 16  9  2  0
 17 18  2  0
 18 37  1  0
 19 18  1  0
 19 22  1  0
 20 17  1  0
 20 21  1  0
 21 19  2  0
 22 23  1  0
 23 24  2  0
 25 28  1  0
 25 24  1  0
 26 25  2  0
 27 26  1  0
 27 22  2  0
 28 29  1  0
 29 34  2  0
 29 30  1  0
 30 31  2  0
 31 32  1  0
 32 36  1  0
 33 32  2  0
 34 33  1  0
 35 34  1  0
 37 38  1  0
 38 41  1  0
 38 40  1  0
 39 37  2  0
 42 43  1  0
 42 17  1  0
 44 42  1  0
 45  8  1  0
 46 45  1  0
 48 47  1  0
 49  5  1  0
 50 51  1  0
 50 49  1  0
 52 63  2  0
 53 51  1  0
 53 58  1  0
 54 62  1  0
 54 64  1  0
 55 61  1  0
 55 57  1  0
 56 62  1  0
 57 56  1  0
 58 57  2  0
 59 60  1  0
 59 53  2  0
 60 55  2  0
 61 54  1  0
 62 52  1  0
 64 66  2  0
 65 64  1  0
 67 65  1  0
 68 77  2  0
 68 73  1  0
 69 65  1  0
 69 73  1  0
 70 69  1  0
 71 72  1  0
 71 70  1  0
 72 68  1  0
 73 74  2  0
 74 75  1  0
 76 75  2  0
 77 76  1  0
 78 52  1  0
 78 79  1  0
 78 88  1  0
 79 82  1  0
 80 84  1  0
 80 79  1  0
 81 80  2  0
 84 83  1  0
 84 86  1  0
 86 87  1  0
 86 85  1  0
 88 91  1  1
 88 89  1  0
 90 88  1  0
M  ISO  4   7 100   9 100  50 101  51 101
M  END
>  <TORSDO>  (20) 
F 21

>  <SCORE>  (20) 
-13.604

>  <name>  (20) 
19

>  <ligand_id>  (20) 
19

>  <original_smiles>  (20) 
[H]OC(=C([H])C(=O)N1C([H])([H])C([H])([H])C([H])([H])C([H])(n2nc(-c3c([H])c([H])c(Oc4c([H])c([H])c(F)c([H])c4F)c([H])c3[H])c(C(=O)N([H])[H])c2N([H])[H])C1([H])[H])c1c([H])c([H])c(OC([H])([H])[H])c(C([H])([H])C([H])([H])Oc2c([H])c([H])c3c(c2[H])C([H])([H])N(C(=O)C([H])(N([H])C(=O)C([H])(N([H])C([H])([H])[H])C([H])([H])[H])C(C([H])([H])[H])(C([H])([H])[H])C([H])([H])[H])C([H])(C(=O)N([H])C2([H])c4c([H])c([H])c([H])c([H])c4C([H])([H])C([H])([H])C2([H])[H])C3([H])[H])c1[H]

>  <smiles>  (20) 
[H]OC(=C([H])C(=O)N1C([H])([H])C([H])([H])C([H])([H])C([H])(n2nc(-c3c([H])c([H])c(Oc4c([H])c([H])c(F)c([H])c4F)c([H])c3[H])c(C(=O)N([H])[H])c2N([H])[H])C1([H])[H])c1c([H])c([H])c(OC([H])([H])[H])c(C([H])([H])C([H])([H])Oc2c([H])c([H])c3c(c2[H])C([H])([H])N(C(=O)C([H])(N([H])C(=O)C([H])(N([H])C([H])([H])[H])C([H])([H])[H])C(C([H])([H])[H])(C([H])([H])[H])C([H])([H])[H])C([H])(C(=O)N([H])C2([H])c4c([H])c([H])c([H])c([H])c4C([H])([H])C([H])([H])C2([H])[H])C3([H])[H])c1[H]

$$$$
20:0:0
     RDKit          3D

 91 99  0  0  1  0  0  0  0  0999 V2000
  -28.0300  -22.2400   21.1940 C   0  0  0  0  0  3  0  0  0  0  0  0
  -29.3530  -22.3550   19.3100 C   0  0  0  0  0  3  0  0  0  0  0  0
  -27.8170  -23.7010   21.1710 C   0  0  0  0  0  3  0  0  0  0  0  0
  -29.1380  -23.8250   19.2840 C   0  0  0  0  0  3  0  0  0  0  0  0
  -28.8190  -21.4170   20.2830 C   0  0  0  0  0  0  0  0  0  0  0  0
  -28.3460  -24.6350   20.2030 C   0  0  0  0  0  0  0  0  0  0  0  0
  -28.8840  -19.7280   20.4370 C   0  0  0  0  0  0  0  0  0  0  0  0
  -27.9570  -19.2990   21.1310 O   0  0  0  0  0  0  0  0  0  0  0  0
  -29.9090  -18.4110   19.8930 C   0  0  0  0  0  3  0  0  0  0  0  0
  -29.9490  -18.5560   18.4260 N   0  0  0  0  0  4  0  0  0  0  0  0
  -29.0500  -18.3620   18.0220 H   0  0  0  0  0  0  0  0  0  0  0  0
  -30.6290  -17.9330   18.0300 H   0  0  0  0  0  0  0  0  0  0  0  0
  -30.2070  -19.4920   18.1760 H   0  0  0  0  0  0  0  0  0  0  0  0
  -29.6550  -16.7130   20.3000 C   0  0  0  0  0  2  0  0  0  0  0  0
  -30.4950  -15.2620   19.9150 C   0  0  0  0  0  0  0  0  0  0  0  0
  -30.4220  -12.8710   18.9600 C   0  0  0  0  0  2  0  0  0  0  0  0
  -29.4130  -12.7860   17.7850 C   0  0  0  0  0  2  0  0  0  0  0  0
  -27.9840  -12.5290   18.2990 C   0  0  0  0  0  2  0  0  0  0  0  0
  -27.6310  -13.4300   19.5080 C   0  0  0  0  0  3  0  0  0  0  0  0
  -28.7540  -13.4720   20.5670 C   0  0  0  0  0  2  0  0  0  0  0  0
  -29.9690  -13.9530   19.8960 N   0  0  0  0  0  0  0  0  0  0  0  0
  -31.6680  -15.3290   19.5200 O   0  0  0  0  0  0  0  0  0  0  0  0
  -25.3160  -13.9650   20.4490 C   0  0  0  0  0  0  0  0  0  0  0  0
  -24.2770  -13.1730   20.8500 C   0  0  0  0  0  0  0  0  0  0  0  0
  -24.7380  -11.8240   20.7310 C   0  0  0  0  0  0  0  0  0  0  0  0
  -26.3360  -13.1000   20.0910 N   0  0  0  0  0  0  0  0  0  0  0  0
  -26.0030  -11.8050   20.3290 N   0  0  0  0  0  0  0  0  0  0  0  0
  -24.0250  -10.5550   20.9230 C   0  0  0  0  0  0  0  0  0  0  0  0
  -24.4690   -9.5860   21.8490 C   0  0  0  0  0  3  0  0  0  0  0  0
  -23.7520   -8.3840   22.0280 C   0  0  0  0  0  3  0  0  0  0  0  0
  -22.5750   -8.1400   21.2810 C   0  0  0  0  0  0  0  0  0  0  0  0
  -22.1480   -9.0970   20.3430 C   0  0  0  0  0  3  0  0  0  0  0  0
  -22.8660  -10.2910   20.1630 C   0  0  0  0  0  3  0  0  0  0  0  0
  -21.8290   -6.9890   21.3690 O   0  0  0  0  0  0  0  0  0  0  0  0
  -21.7280   -6.2850   22.5410 C   0  0  0  0  0  0  0  0  0  0  0  0
  -21.2120   -6.8680   23.7190 C   0  0  0  0  0  3  0  0  0  0  0  0
  -21.0620   -6.0890   24.8830 C   0  0  0  0  0  3  0  0  0  0  0  0
  -21.4180   -4.7280   24.8710 C   0  0  0  0  0  0  0  0  0  0  0  0
  -21.9270   -4.1430   23.6980 C   0  0  0  0  0  3  0  0  0  0  0  0
  -22.0790   -4.9190   22.5350 C   0  0  0  0  0  0  0  0  0  0  0  0
  -22.5500   -4.3460   21.4020 F   0  0  0  0  0  0  0  0  0  0  0  0
  -21.2660   -3.9780   25.9870 F   0  0  0  0  0  0  0  0  0  0  0  0
  -22.9040  -13.6360   21.2360 C   0  0  0  0  0  0  0  0  0  0  0  0
  -22.2360  -12.9080   22.1230 N   0  0  0  0  0  0  0  0  0  0  0  0
  -22.4340  -14.6820   20.7850 O   0  0  0  0  0  0  0  0  0  0  0  0
  -22.6330  -12.0650   22.5110 H   0  0  0  0  0  0  0  0  0  0  0  0
  -21.3190  -13.2010   22.4280 H   0  0  0  0  0  0  0  0  0  0  0  0
  -25.4750  -15.3430   20.3390 N   0  0  0  0  0  0  0  0  0  0  0  0
  -24.7460  -15.9880   20.6210 H   0  0  0  0  0  0  0  0  0  0  0  0
  -26.3390  -15.8020   20.0880 H   0  0  0  0  0  0  0  0  0  0  0  0
  -28.3130  -26.1470   20.2380 O   0  0  0  0  0  0  0  0  0  0  0  0
  -24.6550  -31.9300   23.2700 C   0  0  0  0  0  0  0  0  0  0  0  0
  -27.2230  -27.1310   20.2470 C   0  0  0  0  0  0  0  0  0  0  0  0
  -23.4520  -30.5320   21.6350 C   0  0  0  0  0  3  0  0  0  0  0  0
  -24.8960  -28.9330   20.2120 C   0  0  0  0  0  0  0  0  0  0  0  0
  -26.0090  -30.7730   21.4670 C   0  0  0  0  0  2  0  0  0  0  0  0
  -26.0800  -29.3670   20.8220 C   0  0  0  0  0  0  0  0  0  0  0  0
  -27.2370  -28.4840   20.8180 C   0  0  0  0  0  3  0  0  0  0  0  0
  -26.0110  -26.8170   19.5960 C   0  0  0  0  0  3  0  0  0  0  0  0
  -24.8800  -27.6750   19.5810 C   0  0  0  0  0  3  0  0  0  0  0  0
  -23.6740  -29.8430   20.2580 C   0  0  0  0  0  2  0  0  0  0  0  0
  -24.7260  -31.1050   22.1790 N   0  0  0  0  0  0  0  0  0  0  0  0
  -23.5700  -32.2180   23.7990 O   0  0  0  0  0  0  0  0  0  0  0  0
  -22.7690  -29.5350   22.6050 C   0  0  0  0  0  0  0  0  0  0  0  0
  -21.4430  -29.3530   22.4720 N   0  0  0  0  0  0  0  0  0  0  0  0
  -23.4380  -28.9240   23.4430 O   0  0  0  0  0  0  0  0  0  0  0  0
  -20.9570  -29.9010   21.7770 H   0  0  0  0  0  0  0  0  0  0  0  0
  -18.0720  -28.1100   22.9650 C   0  0  0  0  0  0  0  0  0  0  0  0
  -20.6260  -28.4120   23.2460 C   0  0  0  0  0  3  0  0  0  0  0  0
  -20.7490  -26.9750   22.6830 C   0  0  0  0  0  2  0  0  0  0  0  0
  -19.6590  -26.6290   21.6640 C   0  0  0  0  0  2  0  0  0  0  0  0
  -18.2720  -26.7600   22.2990 C   0  0  0  0  0  2  0  0  0  0  0  0
  -19.1770  -28.8920   23.3950 C   0  0  0  0  0  0  0  0  0  0  0  0
  -18.9350  -30.1540   23.9800 C   0  0  0  0  0  3  0  0  0  0  0  0
  -17.6210  -30.6340   24.1390 C   0  0  0  0  0  3  0  0  0  0  0  0
  -16.5300  -29.8510   23.7220 C   0  0  0  0  0  3  0  0  0  0  0  0
  -16.7570  -28.5910   23.1410 C   0  0  0  0  0  3  0  0  0  0  0  0
  -25.9320  -32.5710   23.8960 C   0  0  0  0  0  3  0  0  0  0  0  0
  -26.4390  -31.8090   25.1820 C   0  0  1  0  0  0  0  0  0  0  0  0
  -25.3410  -31.5790   26.2470 C   0  0  0  0  0  1  0  0  0  0  0  0
  -27.0280  -30.4290   24.8100 C   0  0  0  0  0  1  0  0  0  0  0  0
  -27.5870  -32.6080   25.8460 C   0  0  0  0  0  1  0  0  0  0  0  0
  -25.6190  -33.9720   24.2260 N   0  0  0  0  0  0  0  0  0  0  0  0
  -25.9290  -35.0280   23.4620 C   0  0  0  0  0  0  0  0  0  0  0  0
  -26.5730  -34.9270   22.4150 O   0  0  0  0  0  0  0  0  0  0  0  0
  -25.0410  -34.1220   25.0400 H   0  0  0  0  0  0  0  0  0  0  0  0
  -24.1760  -36.8130   23.1730 C   0  0  0  0  0  1  0  0  0  0  0  0
  -25.4510  -36.4160   23.9340 C   0  0  0  0  0  3  0  0  0  0  0  0
  -27.6040  -37.3280   24.6790 C   0  0  0  0  0  1  0  0  0  0  0  0
  -26.4690  -37.4770   23.7730 N   0  0  0  0  0  0  0  0  0  0  0  0
  -26.0610  -38.3960   23.9230 H   0  0  0  0  0  0  0  0  0  0  0  0
  2  5  1  0
  3  1  1  0
  4  2  2  0
  4  6  1  0
  5  7  1  0
  5  1  2  0
  6 51  1  0
  6  3  2  0
  7  8  2  0
  9 14  1  0
  9  7  1  0
 10  9  1  0
 11 10  1  0
 12 10  1  0
 13 10  1  0
 15 14  1  0
 16 21  1  0
 17 18  1  0
 17 16  1  0
 19 18  1  0
 19 26  1  0
 19 20  1  0
 21 15  1  0
 21 20  1  0
 22 15  2  0
 23 24  2  0
 24 43  1  0
 25 24  1  0
 25 28  1  0
 26 27  1  0
 26 23  1  0
 27 25  2  0
 28 29  1  0
 29 30  2  0
 31 34  1  0
 31 30  1  0
 32 31  2  0
 33 32  1  0
 33 28  2  0
 34 35  1  0
 35 36  1  0
 36 37  2  0
 38 37  1  0
 38 42  1  0
 39 38  2  0
 40 35  2  0
 40 39  1  0
 41 40  1  0
 43 44  1  0
 44 47  1  0
 44 46  1  0
 45 43  2  0
 48 23  1  0
 48 49  1  0
 50 48  1  0
 51 53  1  0
 52 63  2  0
 53 58  1  0
 54 62  1  0
 54 64  1  0
 55 61  1  0
 55 57  1  0
 56 62  1  0
 57 56  1  0
 58 57  2  0
 59 53  2  0
 60 59  1  0
 60 55  2  0
 61 54  1  0
 62 52  1  0
 64 66  2  0
 65 64  1  0
 67 65  1  0
 68 77  2  0
 68 73  1  0
 69 65  1  0
 69 73  1  0
 70 69  1  0
 71 72  1  0
 71 70  1  0
 72 68  1  0
 73 74  2  0
 74 75  1  0
 76 75  2  0
 77 76  1  0
 78 52  1  0
 78 83  1  0
 78 79  1  0
 79 82  1  1
 79 80  1  0
 81 79  1  0
 83 86  1  0
 84 88  1  0
 84 83  1  0
 85 84  2  0
 88 87  1  0
 90 91  1  0
 90 88  1  0
 90 89  1  0
M  ISO  4   6 101  14 100  15 100  51 101
M  END
>  <TORSDO>  (21) 
F 20

>  <SCORE>  (21) 
-15.432

>  <name>  (21) 
20

>  <ligand_id>  (21) 
20

>  <original_smiles>  (21) 
[H]c1c([H])c([H])c2c(c1[H])C([H])([H])C([H])([H])C([H])([H])C2([H])N([H])C(=O)C1([H])N(C(=O)C([H])(N([H])C(=O)C([H])(N([H])C([H])([H])[H])C([H])([H])[H])C(C([H])([H])[H])(C([H])([H])[H])C([H])([H])[H])C([H])([H])c2c([H])c(Oc3c([H])c([H])c(C(=O)C([H])(C([H])([H])C(=O)N4C([H])([H])C([H])([H])C([H])([H])C([H])(n5nc(-c6c([H])c([H])c(Oc7c([H])c([H])c(F)c([H])c7F)c([H])c6[H])c(C(=O)N([H])[H])c5N([H])[H])C4([H])[H])[N+]([H])([H])[H])c([H])c3[H])c([H])c([H])c2C1([H])[H]

>  <smiles>  (21) 
[H]c1c([H])c([H])c2c(c1[H])C([H])([H])C([H])([H])C([H])([H])C2([H])N([H])C(=O)C1([H])N(C(=O)C([H])(N([H])C(=O)C([H])(N([H])C([H])([H])[H])C([H])([H])[H])C(C([H])([H])[H])(C([H])([H])[H])C([H])([H])[H])C([H])([H])c2c([H])c(Oc3c([H])c([H])c(C(=O)C([H])(C([H])([H])C(=O)N4C([H])([H])C([H])([H])C([H])([H])C([H])(n5nc(-c6c([H])c([H])c(Oc7c([H])c([H])c(F)c([H])c7F)c([H])c6[H])c(C(=O)N([H])[H])c5N([H])[H])C4([H])[H])[N+]([H])([H])[H])c([H])c3[H])c([H])c([H])c2C1([H])[H]

$$$$
21:0:0
     RDKit          3D

 89 97  0  0  1  0  0  0  0  0999 V2000
  -27.8970  -21.8870   20.6590 C   0  0  0  0  0  3  0  0  0  0  0  0
  -29.8980  -22.3610   19.6790 C   0  0  0  0  0  3  0  0  0  0  0  0
  -27.5630  -23.3570   20.6700 C   0  0  0  0  0  3  0  0  0  0  0  0
  -29.5700  -23.8070   19.6860 C   0  0  0  0  0  3  0  0  0  0  0  0
  -29.1180  -21.2260   20.1650 C   0  0  0  0  0  0  0  0  0  0  0  0
  -28.3740  -24.4780   20.1750 C   0  0  0  0  0  0  0  0  0  0  0  0
  -29.7150  -19.5930   20.0780 C   0  0  0  0  0  0  0  0  0  0  0  0
  -30.8680  -19.5320   19.6470 O   0  0  0  0  0  0  0  0  0  0  0  0
  -29.3650  -16.6250   20.4150 C   0  0  0  0  0  3  0  0  0  0  0  0
  -29.0870  -18.0910   20.4400 C   0  0  0  0  0  0  0  0  0  0  0  0
  -30.3480  -15.3750   20.0930 C   0  0  0  0  0  0  0  0  0  0  0  0
  -30.3980  -12.9290   19.1980 C   0  0  0  0  0  2  0  0  0  0  0  0
  -29.4280  -12.7420   18.0000 C   0  0  0  0  0  2  0  0  0  0  0  0
  -27.9920  -12.4530   18.4810 C   0  0  0  0  0  2  0  0  0  0  0  0
  -27.5800  -13.3840   19.6460 C   0  0  0  0  0  3  0  0  0  0  0  0
  -28.6680  -13.4750   20.7340 C   0  0  0  0  0  2  0  0  0  0  0  0
  -29.8750  -14.0270   20.0900 N   0  0  0  0  0  0  0  0  0  0  0  0
  -31.5390  -15.4530   19.7520 O   0  0  0  0  0  0  0  0  0  0  0  0
  -25.2370  -13.9190   20.5060 C   0  0  0  0  0  0  0  0  0  0  0  0
  -24.1910  -13.1300   20.8950 C   0  0  0  0  0  0  0  0  0  0  0  0
  -24.6580  -11.7830   20.8090 C   0  0  0  0  0  0  0  0  0  0  0  0
  -26.2700  -13.0530   20.1950 N   0  0  0  0  0  0  0  0  0  0  0  0
  -25.9370  -11.7600   20.4430 N   0  0  0  0  0  0  0  0  0  0  0  0
  -23.9420  -10.5130   20.9930 C   0  0  0  0  0  0  0  0  0  0  0  0
  -24.3770   -9.5460   21.9260 C   0  0  0  0  0  3  0  0  0  0  0  0
  -23.6580   -8.3440   22.0990 C   0  0  0  0  0  3  0  0  0  0  0  0
  -22.4880   -8.1000   21.3400 C   0  0  0  0  0  0  0  0  0  0  0  0
  -22.0720   -9.0570   20.3970 C   0  0  0  0  0  3  0  0  0  0  0  0
  -22.7920  -10.2500   20.2210 C   0  0  0  0  0  3  0  0  0  0  0  0
  -21.7400   -6.9500   21.4220 O   0  0  0  0  0  0  0  0  0  0  0  0
  -21.6410   -6.2390   22.5910 C   0  0  0  0  0  0  0  0  0  0  0  0
  -21.1110   -6.8090   23.7680 C   0  0  0  0  0  3  0  0  0  0  0  0
  -20.9630   -6.0210   24.9280 C   0  0  0  0  0  3  0  0  0  0  0  0
  -21.3340   -4.6640   24.9100 C   0  0  0  0  0  0  0  0  0  0  0  0
  -21.8570   -4.0930   23.7350 C   0  0  0  0  0  3  0  0  0  0  0  0
  -22.0070   -4.8780   22.5790 C   0  0  0  0  0  0  0  0  0  0  0  0
  -22.4910   -4.3160   21.4450 F   0  0  0  0  0  0  0  0  0  0  0  0
  -21.1850   -3.9050   26.0200 F   0  0  0  0  0  0  0  0  0  0  0  0
  -22.8060  -13.5960   21.2340 C   0  0  0  0  0  0  0  0  0  0  0  0
  -22.1130  -12.8750   22.1090 N   0  0  0  0  0  0  0  0  0  0  0  0
  -22.3480  -14.6350   20.7600 O   0  0  0  0  0  0  0  0  0  0  0  0
  -22.4970  -12.0340   22.5140 H   0  0  0  0  0  0  0  0  0  0  0  0
  -21.1840  -13.1690   22.3780 H   0  0  0  0  0  0  0  0  0  0  0  0
  -25.3900  -15.2960   20.3640 N   0  0  0  0  0  0  0  0  0  0  0  0
  -24.6290  -15.9430   20.5420 H   0  0  0  0  0  0  0  0  0  0  0  0
  -26.2280  -15.7560   20.0330 H   0  0  0  0  0  0  0  0  0  0  0  0
  -27.8580  -18.3310   20.9280 O   0  0  0  0  0  0  0  0  0  0  0  0
  -27.7320  -19.2720   20.9150 H   0  0  0  0  0  0  0  0  0  0  0  0
  -28.2540  -26.0150   20.2270 O   0  0  0  0  0  0  0  0  0  0  0  0
  -24.6340  -31.9100   23.2460 C   0  0  0  0  0  0  0  0  0  0  0  0
  -27.1730  -27.0360   20.2210 C   0  0  0  0  0  0  0  0  0  0  0  0
  -23.4260  -30.5120   21.6170 C   0  0  0  0  0  3  0  0  0  0  0  0
  -24.8620  -28.8990   20.1880 C   0  0  0  0  0  0  0  0  0  0  0  0
  -25.9880  -30.7260   21.4490 C   0  0  0  0  0  2  0  0  0  0  0  0
  -26.0500  -29.3140   20.8000 C   0  0  0  0  0  0  0  0  0  0  0  0
  -27.1950  -28.4010   20.7920 C   0  0  0  0  0  3  0  0  0  0  0  0
  -25.9540  -26.7660   19.5610 C   0  0  0  0  0  3  0  0  0  0  0  0
  -24.8360  -27.6450   19.5500 C   0  0  0  0  0  3  0  0  0  0  0  0
  -23.6430  -29.8210   20.2410 C   0  0  0  0  0  2  0  0  0  0  0  0
  -24.7040  -31.0770   22.1570 N   0  0  0  0  0  0  0  0  0  0  0  0
  -23.5500  -32.2010   23.7770 O   0  0  0  0  0  0  0  0  0  0  0  0
  -22.7400  -29.5190   22.5910 C   0  0  0  0  0  0  0  0  0  0  0  0
  -21.4120  -29.3420   22.4650 N   0  0  0  0  0  0  0  0  0  0  0  0
  -23.4100  -28.9070   23.4270 O   0  0  0  0  0  0  0  0  0  0  0  0
  -20.9240  -29.8860   21.7680 H   0  0  0  0  0  0  0  0  0  0  0  0
  -18.0420  -28.0980   22.9700 C   0  0  0  0  0  0  0  0  0  0  0  0
  -20.5970  -28.4020   23.2420 C   0  0  0  0  0  3  0  0  0  0  0  0
  -20.7190  -26.9650   22.6830 C   0  0  0  0  0  2  0  0  0  0  0  0
  -19.6270  -26.6180   21.6660 C   0  0  0  0  0  2  0  0  0  0  0  0
  -18.2410  -26.7470   22.3030 C   0  0  0  0  0  2  0  0  0  0  0  0
  -19.1480  -28.8820   23.3960 C   0  0  0  0  0  0  0  0  0  0  0  0
  -18.9050  -30.1430   23.9810 C   0  0  0  0  0  3  0  0  0  0  0  0
  -17.5910  -30.6230   24.1430 C   0  0  0  0  0  3  0  0  0  0  0  0
  -16.5010  -29.8380   23.7310 C   0  0  0  0  0  3  0  0  0  0  0  0
  -16.7270  -28.5770   23.1500 C   0  0  0  0  0  3  0  0  0  0  0  0
  -25.9110  -32.5520   23.8700 C   0  0  0  0  0  3  0  0  0  0  0  0
  -26.4280  -31.7860   25.1510 C   0  0  1  0  0  0  0  0  0  0  0  0
  -25.3360  -31.5520   26.2210 C   0  0  0  0  0  1  0  0  0  0  0  0
  -27.0130  -30.4060   24.7710 C   0  0  0  0  0  1  0  0  0  0  0  0
  -27.5780  -32.5840   25.8100 C   0  0  0  0  0  1  0  0  0  0  0  0
  -25.5950  -33.9510   24.2100 N   0  0  0  0  0  0  0  0  0  0  0  0
  -25.8990  -35.0130   23.4520 C   0  0  0  0  0  0  0  0  0  0  0  0
  -26.5340  -34.9180   22.3990 O   0  0  0  0  0  0  0  0  0  0  0  0
  -25.0250  -34.0960   25.0300 H   0  0  0  0  0  0  0  0  0  0  0  0
  -24.1450  -36.8010   23.1800 C   0  0  0  0  0  1  0  0  0  0  0  0
  -25.4230  -36.3990   23.9350 C   0  0  0  0  0  3  0  0  0  0  0  0
  -27.5800  -37.3070   24.6840 C   0  0  0  0  0  1  0  0  0  0  0  0
  -26.4430  -37.4600   23.7800 N   0  0  0  0  0  0  0  0  0  0  0  0
  -26.0360  -38.3770   23.9350 H   0  0  0  0  0  0  0  0  0  0  0  0
  1  3  1  0
  2  4  2  0
  2  5  1  0
  4  6  1  0
  5  1  2  0
  6 49  1  0
  6  3  2  0
  7  5  1  0
  7 10  1  0
  8  7  2  0
  9 10  2  0
 10 47  1  0
 11  9  1  0
 12 17  1  0
 13 14  1  0
 13 12  1  0
 15 14  1  0
 15 22  1  0
 15 16  1  0
 17 11  1  0
 17 16  1  0
 18 11  2  0
 19 20  2  0
 20 39  1  0
 21 20  1  0
 21 24  1  0
 22 23  1  0
 22 19  1  0
 23 21  2  0
 24 25  1  0
 25 26  2  0
 27 30  1  0
 27 26  1  0
 28 27  2  0
 29 28  1  0
 29 24  2  0
 30 31  1  0
 31 32  1  0
 32 33  2  0
 34 33  1  0
 34 38  1  0
 35 34  2  0
 36 31  2  0
 36 35  1  0
 37 36  1  0
 39 40  1  0
 40 43  1  0
 40 42  1  0
 41 39  2  0
 44 19  1  0
 44 45  1  0
 46 44  1  0
 48 47  1  0
 50 61  2  0
 51 49  1  0
 51 56  1  0
 52 60  1  0
 52 62  1  0
 53 59  1  0
 53 55  1  0
 54 60  1  0
 55 54  1  0
 56 55  2  0
 57 51  2  0
 58 57  1  0
 58 53  2  0
 59 52  1  0
 60 50  1  0
 62 64  2  0
 63 62  1  0
 65 63  1  0
 66 75  2  0
 66 71  1  0
 67 63  1  0
 67 71  1  0
 68 67  1  0
 69 70  1  0
 69 68  1  0
 70 66  1  0
 71 72  2  0
 72 73  1  0
 74 73  2  0
 75 74  1  0
 76 50  1  0
 76 81  1  0
 76 77  1  0
 77 80  1  1
 77 78  1  0
 79 77  1  0
 81 84  1  0
 82 86  1  0
 82 81  1  0
 83 82  2  0
 86 85  1  0
 88 89  1  0
 88 86  1  0
 88 87  1  0
M  ISO  4   6 101   9 100  11 100  49 101
M  END
>  <TORSDO>  (22) 
F 19

>  <SCORE>  (22) 
-14.965

>  <name>  (22) 
21

>  <ligand_id>  (22) 
21

>  <original_smiles>  (22) 
[H]OC(C(=O)c1c([H])c([H])c(Oc2c([H])c([H])c3c(c2[H])C([H])([H])N(C(=O)C([H])(N([H])C(=O)C([H])(N([H])C([H])([H])[H])C([H])([H])[H])C(C([H])([H])[H])(C([H])([H])[H])C([H])([H])[H])C([H])(C(=O)N([H])C2([H])c4c([H])c([H])c([H])c([H])c4C([H])([H])C([H])([H])C2([H])[H])C3([H])[H])c([H])c1[H])=C([H])C(=O)N1C([H])([H])C([H])([H])C([H])([H])C([H])(n2nc(-c3c([H])c([H])c(Oc4c([H])c([H])c(F)c([H])c4F)c([H])c3[H])c(C(=O)N([H])[H])c2N([H])[H])C1([H])[H]

>  <smiles>  (22) 
[H]OC(C(=O)c1c([H])c([H])c(Oc2c([H])c([H])c3c(c2[H])C([H])([H])N(C(=O)C([H])(N([H])C(=O)C([H])(N([H])C([H])([H])[H])C([H])([H])[H])C(C([H])([H])[H])(C([H])([H])[H])C([H])([H])[H])C([H])(C(=O)N([H])C2([H])c4c([H])c([H])c([H])c([H])c4C([H])([H])C([H])([H])C2([H])[H])C3([H])[H])c([H])c1[H])=C([H])C(=O)N1C([H])([H])C([H])([H])C([H])([H])C([H])(n2nc(-c3c([H])c([H])c(Oc4c([H])c([H])c(F)c([H])c4F)c([H])c3[H])c(C(=O)N([H])[H])c2N([H])[H])C1([H])[H]

$$$$
22:0:0
     RDKit          3D

 92100  0  0  1  0  0  0  0  0999 V2000
  -28.0810  -22.9610   21.1840 C   0  0  0  0  0  3  0  0  0  0  0  0
  -27.9830  -24.3860   21.2400 C   0  0  0  0  0  3  0  0  0  0  0  0
  -28.9710  -23.1200   18.9490 C   0  0  0  0  0  3  0  0  0  0  0  0
  -28.5820  -22.2920   20.0340 C   0  0  0  0  0  0  0  0  0  0  0  0
  -28.3780  -25.2090   20.1520 C   0  0  0  0  0  0  0  0  0  0  0  0
  -28.8930  -24.5390   19.0140 C   0  0  0  0  0  0  0  0  0  0  0  0
  -28.5090  -20.7760   19.8400 C   0  0  0  0  0  0  0  0  0  0  0  0
  -27.7060  -20.3100   19.0270 O   0  0  0  0  0  0  0  0  0  0  0  0
  -29.4580  -19.7700   20.5840 C   0  0  0  0  0  2  0  0  0  0  0  0
  -29.1830  -18.2160   20.3290 C   0  0  0  0  0  3  0  0  0  0  0  0
  -30.2380  -17.1620   20.8590 C   0  0  0  0  0  3  0  0  0  0  0  0
  -30.6210  -14.6430   20.4000 C   0  0  0  0  0  0  0  0  0  0  0  0
  -30.3850  -12.4250   19.3120 C   0  0  0  0  0  2  0  0  0  0  0  0
  -29.4370  -12.5730   18.1020 C   0  0  0  0  0  2  0  0  0  0  0  0
  -27.9670  -12.4100   18.5400 C   0  0  0  0  0  2  0  0  0  0  0  0
  -27.6180  -13.2670   19.7870 C   0  0  0  0  0  3  0  0  0  0  0  0
  -28.6800  -13.1030   20.8960 C   0  0  0  0  0  2  0  0  0  0  0  0
  -29.9860  -13.4370   20.3090 N   0  0  0  0  0  0  0  0  0  0  0  0
  -31.7830  -14.7940   20.0110 O   0  0  0  0  0  0  0  0  0  0  0  0
  -29.8520  -15.7140   20.7590 N   0  0  0  0  0  0  0  0  0  0  0  0
  -28.9040  -15.4870   21.0220 H   0  0  0  0  0  0  0  0  0  0  0  0
  -25.2300  -13.8650   20.5210 C   0  0  0  0  0  0  0  0  0  0  0  0
  -24.1650  -13.0910   20.8930 C   0  0  0  0  0  0  0  0  0  0  0  0
  -24.6270  -11.7390   20.8540 C   0  0  0  0  0  0  0  0  0  0  0  0
  -26.2720  -12.9850   20.2770 N   0  0  0  0  0  0  0  0  0  0  0  0
  -25.9160  -11.7020   20.5390 N   0  0  0  0  0  0  0  0  0  0  0  0
  -23.9020  -10.4760   21.0440 C   0  0  0  0  0  0  0  0  0  0  0  0
  -24.3460   -9.5020   21.9650 C   0  0  0  0  0  3  0  0  0  0  0  0
  -23.6220   -8.3030   22.1420 C   0  0  0  0  0  3  0  0  0  0  0  0
  -22.4420   -8.0700   21.3980 C   0  0  0  0  0  0  0  0  0  0  0  0
  -22.0180   -9.0330   20.4650 C   0  0  0  0  0  3  0  0  0  0  0  0
  -22.7420  -10.2230   20.2850 C   0  0  0  0  0  3  0  0  0  0  0  0
  -21.6900   -6.9240   21.4840 O   0  0  0  0  0  0  0  0  0  0  0  0
  -21.6510   -6.1720   22.6300 C   0  0  0  0  0  0  0  0  0  0  0  0
  -21.2310   -6.7160   23.8640 C   0  0  0  0  0  3  0  0  0  0  0  0
  -21.1430   -5.8910   25.0030 C   0  0  0  0  0  3  0  0  0  0  0  0
  -21.4630   -4.5230   24.9100 C   0  0  0  0  0  0  0  0  0  0  0  0
  -21.8770   -3.9800   23.6810 C   0  0  0  0  0  3  0  0  0  0  0  0
  -21.9670   -4.8020   22.5440 C   0  0  0  0  0  0  0  0  0  0  0  0
  -22.3470   -4.2680   21.3580 F   0  0  0  0  0  0  0  0  0  0  0  0
  -21.3700   -3.7290   26.0020 F   0  0  0  0  0  0  0  0  0  0  0  0
  -22.7690  -13.5670   21.1750 C   0  0  0  0  0  0  0  0  0  0  0  0
  -22.0470  -12.8610   22.0390 N   0  0  0  0  0  0  0  0  0  0  0  0
  -22.3280  -14.5960   20.6650 O   0  0  0  0  0  0  0  0  0  0  0  0
  -22.4180  -12.0280   22.4710 H   0  0  0  0  0  0  0  0  0  0  0  0
  -21.1110  -13.1590   22.2750 H   0  0  0  0  0  0  0  0  0  0  0  0
  -25.3930  -15.2370   20.3460 N   0  0  0  0  0  0  0  0  0  0  0  0
  -24.6210  -15.8850   20.4520 H   0  0  0  0  0  0  0  0  0  0  0  0
  -26.2320  -15.6760   19.9900 H   0  0  0  0  0  0  0  0  0  0  0  0
  -29.3240  -25.2810   17.9550 O   0  0  0  0  0  0  0  0  0  0  0  0
  -29.2510  -26.2110   18.1490 H   0  0  0  0  0  0  0  0  0  0  0  0
  -28.3760  -26.6160   20.2010 O   0  0  0  0  0  0  0  0  0  0  0  0
  -24.5930  -31.9180   23.2500 C   0  0  0  0  0  0  0  0  0  0  0  0
  -27.2120  -27.3830   20.2050 C   0  0  0  0  0  0  0  0  0  0  0  0
  -23.3850  -30.5140   21.6140 C   0  0  0  0  0  3  0  0  0  0  0  0
  -24.8320  -28.9520   20.1970 C   0  0  0  0  0  0  0  0  0  0  0  0
  -25.9170  -30.8410   21.4210 C   0  0  0  0  0  2  0  0  0  0  0  0
  -25.9960  -29.4600   20.7880 C   0  0  0  0  0  0  0  0  0  0  0  0
  -27.1860  -28.6830   20.7880 C   0  0  0  0  0  3  0  0  0  0  0  0
  -26.0300  -26.9110   19.5960 C   0  0  0  0  0  3  0  0  0  0  0  0
  -24.8480  -27.6810   19.5950 C   0  0  0  0  0  3  0  0  0  0  0  0
  -23.5940  -29.8250   20.2370 C   0  0  0  0  0  2  0  0  0  0  0  0
  -24.6500  -31.1090   22.1510 N   0  0  0  0  0  0  0  0  0  0  0  0
  -23.5110  -32.1980   23.7870 O   0  0  0  0  0  0  0  0  0  0  0  0
  -22.7260  -29.5020   22.5800 C   0  0  0  0  0  0  0  0  0  0  0  0
  -21.4000  -29.3240   22.4540 N   0  0  0  0  0  0  0  0  0  0  0  0
  -23.4060  -28.8790   23.4000 O   0  0  0  0  0  0  0  0  0  0  0  0
  -20.9120  -29.8780   21.7630 H   0  0  0  0  0  0  0  0  0  0  0  0
  -18.0220  -28.1420   22.9620 C   0  0  0  0  0  0  0  0  0  0  0  0
  -20.5810  -28.3900   23.2270 C   0  0  0  0  0  3  0  0  0  0  0  0
  -20.6750  -26.9580   22.6510 C   0  0  0  0  0  2  0  0  0  0  0  0
  -19.5700  -26.6400   21.6400 C   0  0  0  0  0  2  0  0  0  0  0  0
  -18.1900  -26.7920   22.2870 C   0  0  0  0  0  2  0  0  0  0  0  0
  -19.1440  -28.9000   23.3890 C   0  0  0  0  0  0  0  0  0  0  0  0
  -18.9320  -30.1650   23.9790 C   0  0  0  0  0  3  0  0  0  0  0  0
  -17.6300  -30.6730   24.1470 C   0  0  0  0  0  3  0  0  0  0  0  0
  -16.5210  -29.9110   23.7360 C   0  0  0  0  0  3  0  0  0  0  0  0
  -16.7180  -28.6480   23.1500 C   0  0  0  0  0  3  0  0  0  0  0  0
  -25.8790  -32.5490   23.8680 C   0  0  0  0  0  3  0  0  0  0  0  0
  -25.5740  -33.9490   24.1950 N   0  0  0  0  0  0  0  0  0  0  0  0
  -25.9080  -34.9990   23.4330 C   0  0  0  0  0  0  0  0  0  0  0  0
  -26.5760  -34.8900   22.4010 O   0  0  0  0  0  0  0  0  0  0  0  0
  -24.9800  -34.1070   24.9960 H   0  0  0  0  0  0  0  0  0  0  0  0
  -24.1870  -36.7970   23.0730 C   0  0  0  0  0  1  0  0  0  0  0  0
  -25.4260  -36.3900   23.8870 C   0  0  0  0  0  3  0  0  0  0  0  0
  -27.5610  -37.2700   24.7210 C   0  0  0  0  0  1  0  0  0  0  0  0
  -26.4630  -37.4390   23.7730 N   0  0  0  0  0  0  0  0  0  0  0  0
  -26.0610  -38.3620   23.9140 H   0  0  0  0  0  0  0  0  0  0  0  0
  -26.3960  -31.7800   25.1460 C   0  0  1  0  0  0  0  0  0  0  0  0
  -25.3030  -31.5440   26.2140 C   0  0  0  0  0  1  0  0  0  0  0  0
  -26.9770  -30.4020   24.7550 C   0  0  0  0  0  1  0  0  0  0  0  0
  -27.5480  -32.5730   25.8040 C   0  0  0  0  0  1  0  0  0  0  0  0
  1  2  1  0
  3  6  2  0
  3  4  1  0
  4  1  2  0
  5 52  1  0
  5  2  2  0
  6  5  1  0
  7  4  1  0
  7  9  1  0
  8  7  2  0
 10  9  1  0
 10 11  2  0
 12 20  1  0
 13 18  1  0
 14 15  1  0
 14 13  1  0
 16 15  1  0
 16 25  1  0
 16 17  1  0
 18 12  1  0
 18 17  1  0
 19 12  2  0
 20 11  1  0
 20 21  1  0
 22 23  2  0
 23 42  1  0
 24 23  1  0
 24 27  1  0
 25 22  1  0
 25 26  1  0
 26 24  2  0
 27 28  1  0
 28 29  2  0
 30 33  1  0
 30 29  1  0
 31 30  2  0
 32 31  1  0
 32 27  2  0
 33 34  1  0
 34 35  1  0
 35 36  2  0
 37 36  1  0
 37 41  1  0
 38 37  2  0
 39 34  2  0
 39 38  1  0
 40 39  1  0
 42 43  1  0
 43 46  1  0
 43 45  1  0
 44 42  2  0
 47 48  1  0
 47 22  1  0
 49 47  1  0
 50 51  1  0
 50  6  1  0
 52 54  1  0
 53 64  2  0
 54 59  1  0
 55 63  1  0
 55 65  1  0
 56 62  1  0
 56 58  1  0
 57 63  1  0
 58 57  1  0
 59 58  2  0
 60 54  2  0
 61 60  1  0
 61 56  2  0
 62 55  1  0
 63 53  1  0
 65 67  2  0
 66 65  1  0
 68 66  1  0
 69 78  2  0
 69 74  1  0
 70 66  1  0
 70 74  1  0
 71 70  1  0
 72 73  1  0
 72 71  1  0
 73 69  1  0
 74 75  2  0
 75 76  1  0
 77 76  2  0
 78 77  1  0
 79 53  1  0
 79 80  1  0
 79 89  1  0
 80 83  1  0
 81 85  1  0
 81 80  1  0
 82 81  2  0
 85 84  1  0
 87 85  1  0
 87 88  1  0
 87 86  1  0
 89 92  1  1
 89 90  1  0
 91 89  1  0
M  ISO  4   5 101  12 100  20 100  52 101
M  END
>  <TORSDO>  (23) 
F 21

>  <SCORE>  (23) 
-13.788

>  <name>  (23) 
22

>  <ligand_id>  (23) 
22

>  <original_smiles>  (23) 
[H]Oc1c([H])c(C(=O)C([H])([H])C([H])([H])C([H])([H])N([H])C(=O)N2C([H])([H])C([H])([H])C([H])([H])C([H])(n3nc(-c4c([H])c([H])c(Oc5c([H])c([H])c(F)c([H])c5F)c([H])c4[H])c(C(=O)N([H])[H])c3N([H])[H])C2([H])[H])c([H])c([H])c1Oc1c([H])c([H])c2c(c1[H])C([H])([H])N(C(=O)C([H])(N([H])C(=O)C([H])(N([H])C([H])([H])[H])C([H])([H])[H])C(C([H])([H])[H])(C([H])([H])[H])C([H])([H])[H])C([H])(C(=O)N([H])C1([H])c3c([H])c([H])c([H])c([H])c3C([H])([H])C([H])([H])C1([H])[H])C2([H])[H]

>  <smiles>  (23) 
[H]Oc1c([H])c(C(=O)C([H])([H])C([H])([H])C([H])([H])N([H])C(=O)N2C([H])([H])C([H])([H])C([H])([H])C([H])(n3nc(-c4c([H])c([H])c(Oc5c([H])c([H])c(F)c([H])c5F)c([H])c4[H])c(C(=O)N([H])[H])c3N([H])[H])C2([H])[H])c([H])c([H])c1Oc1c([H])c([H])c2c(c1[H])C([H])([H])N(C(=O)C([H])(N([H])C(=O)C([H])(N([H])C([H])([H])[H])C([H])([H])[H])C(C([H])([H])[H])(C([H])([H])[H])C([H])([H])[H])C([H])(C(=O)N([H])C1([H])c3c([H])c([H])c([H])c([H])c3C([H])([H])C([H])([H])C1([H])[H])C2([H])[H]

$$$$
23:0:0
     RDKit          3D

 88 96  0  0  1  0  0  0  0  0999 V2000
  -27.7140  -21.5850   19.8820 C   0  0  0  0  0  3  0  0  0  0  0  0
  -29.7780  -22.3140   20.5920 C   0  0  0  0  0  3  0  0  0  0  0  0
  -28.1500  -20.1670   19.9250 C   0  0  0  0  0  3  0  0  0  0  0  0
  -30.2150  -20.8930   20.6380 C   0  0  0  0  0  3  0  0  0  0  0  0
  -28.4700  -22.8000   20.1930 C   0  0  0  0  0  0  0  0  0  0  0  0
  -29.4600  -19.6810   20.3080 C   0  0  0  0  0  0  0  0  0  0  0  0
  -30.8600  -18.1630   18.7770 C   0  0  0  0  0  1  0  0  0  0  0  0
  -30.1890  -18.1100   20.1600 C   0  0  0  0  0  0  0  0  0  0  0  0
  -30.4700  -15.2510   20.2790 C   0  0  0  0  0  0  0  0  0  0  0  0
  -30.3860  -12.8410   19.3650 C   0  0  0  0  0  2  0  0  0  0  0  0
  -29.4530  -12.6870   18.1390 C   0  0  0  0  0  2  0  0  0  0  0  0
  -28.0050  -12.4280   18.5900 C   0  0  0  0  0  2  0  0  0  0  0  0
  -27.5750  -13.3700   19.7420 C   0  0  0  0  0  3  0  0  0  0  0  0
  -28.6370  -13.4850   20.8570 C   0  0  0  0  0  2  0  0  0  0  0  0
  -29.8690  -13.9690   20.2180 N   0  0  0  0  0  0  0  0  0  0  0  0
  -31.6870  -15.2280   20.0490 O   0  0  0  0  0  0  0  0  0  0  0  0
  -29.7520  -16.5350   20.3760 N   0  0  0  0  0  4  0  0  0  0  0  0
  -28.7650  -16.4160   20.5490 H   0  0  0  0  0  0  0  0  0  0  0  0
  -25.2070  -13.9140   20.5180 C   0  0  0  0  0  0  0  0  0  0  0  0
  -24.1520  -13.1290   20.8910 C   0  0  0  0  0  0  0  0  0  0  0  0
  -24.6270  -11.7810   20.8490 C   0  0  0  0  0  0  0  0  0  0  0  0
  -26.2530  -13.0450   20.2620 N   0  0  0  0  0  0  0  0  0  0  0  0
  -25.9160  -11.7560   20.5290 N   0  0  0  0  0  0  0  0  0  0  0  0
  -23.9070  -10.5130   21.0360 C   0  0  0  0  0  0  0  0  0  0  0  0
  -24.3450   -9.5450   21.9650 C   0  0  0  0  0  3  0  0  0  0  0  0
  -23.6230   -8.3440   22.1410 C   0  0  0  0  0  3  0  0  0  0  0  0
  -22.4490   -8.1040   21.3880 C   0  0  0  0  0  0  0  0  0  0  0  0
  -22.0310   -9.0630   20.4470 C   0  0  0  0  0  3  0  0  0  0  0  0
  -22.7530  -10.2540   20.2690 C   0  0  0  0  0  3  0  0  0  0  0  0
  -21.6980   -6.9570   21.4730 O   0  0  0  0  0  0  0  0  0  0  0  0
  -21.6440   -6.2170   22.6270 C   0  0  0  0  0  0  0  0  0  0  0  0
  -21.1900   -6.7680   23.8450 C   0  0  0  0  0  3  0  0  0  0  0  0
  -21.0830   -5.9530   24.9910 C   0  0  0  0  0  3  0  0  0  0  0  0
  -21.4210   -4.5890   24.9180 C   0  0  0  0  0  0  0  0  0  0  0  0
  -21.8690   -4.0370   23.7040 C   0  0  0  0  0  3  0  0  0  0  0  0
  -21.9760   -4.8490   22.5610 C   0  0  0  0  0  0  0  0  0  0  0  0
  -22.3870   -4.3070   21.3900 F   0  0  0  0  0  0  0  0  0  0  0  0
  -21.3130   -3.8040   26.0160 F   0  0  0  0  0  0  0  0  0  0  0  0
  -22.7540  -13.5970   21.1690 C   0  0  0  0  0  0  0  0  0  0  0  0
  -22.0360  -12.8990   22.0410 N   0  0  0  0  0  0  0  0  0  0  0  0
  -22.3070  -14.6180   20.6480 O   0  0  0  0  0  0  0  0  0  0  0  0
  -22.4120  -12.0730   22.4840 H   0  0  0  0  0  0  0  0  0  0  0  0
  -21.0970  -13.1940   22.2700 H   0  0  0  0  0  0  0  0  0  0  0  0
  -25.3590  -15.2870   20.3470 N   0  0  0  0  0  0  0  0  0  0  0  0
  -24.5840  -15.9320   20.4640 H   0  0  0  0  0  0  0  0  0  0  0  0
  -26.1910  -15.7300   19.9840 H   0  0  0  0  0  0  0  0  0  0  0  0
  -27.7710  -24.3790   20.0110 C   0  0  0  0  0  2  0  0  0  0  0  0
  -28.1660  -25.9310   20.2790 O   0  0  0  0  0  0  0  0  0  0  0  0
  -24.6310  -31.8740   23.2410 C   0  0  0  0  0  0  0  0  0  0  0  0
  -27.1760  -27.0350   20.2040 C   0  0  0  0  0  0  0  0  0  0  0  0
  -23.4310  -30.4840   21.6020 C   0  0  0  0  0  3  0  0  0  0  0  0
  -24.8770  -28.8940   20.1700 C   0  0  0  0  0  0  0  0  0  0  0  0
  -25.9970  -30.7040   21.4490 C   0  0  0  0  0  2  0  0  0  0  0  0
  -26.0660  -29.3000   20.7890 C   0  0  0  0  0  0  0  0  0  0  0  0
  -27.2110  -28.3900   20.7850 C   0  0  0  0  0  3  0  0  0  0  0  0
  -25.9580  -26.7780   19.5310 C   0  0  0  0  0  3  0  0  0  0  0  0
  -24.8460  -27.6530   19.5210 C   0  0  0  0  0  3  0  0  0  0  0  0
  -23.6560  -29.8090   20.2230 C   0  0  0  0  0  2  0  0  0  0  0  0
  -24.7080  -31.0460   22.1510 N   0  0  0  0  0  0  0  0  0  0  0  0
  -23.5430  -32.1620   23.7660 O   0  0  0  0  0  0  0  0  0  0  0  0
  -22.7420  -29.4810   22.5650 C   0  0  0  0  0  0  0  0  0  0  0  0
  -21.4130  -29.3120   22.4400 N   0  0  0  0  0  0  0  0  0  0  0  0
  -23.4100  -28.8580   23.3950 O   0  0  0  0  0  0  0  0  0  0  0  0
  -20.9280  -29.8670   21.7480 H   0  0  0  0  0  0  0  0  0  0  0  0
  -18.0330  -28.0960   22.9440 C   0  0  0  0  0  0  0  0  0  0  0  0
  -20.5910  -28.3730   23.2110 C   0  0  0  0  0  3  0  0  0  0  0  0
  -20.7000  -26.9410   22.6410 C   0  0  0  0  0  2  0  0  0  0  0  0
  -19.6000  -26.6100   21.6260 C   0  0  0  0  0  2  0  0  0  0  0  0
  -18.2170  -26.7480   22.2670 C   0  0  0  0  0  2  0  0  0  0  0  0
  -19.1470  -28.8660   23.3730 C   0  0  0  0  0  0  0  0  0  0  0  0
  -18.9180  -30.1250   23.9690 C   0  0  0  0  0  3  0  0  0  0  0  0
  -17.6090  -30.6160   24.1370 C   0  0  0  0  0  3  0  0  0  0  0  0
  -16.5110  -29.8440   23.7220 C   0  0  0  0  0  3  0  0  0  0  0  0
  -16.7230  -28.5860   23.1320 C   0  0  0  0  0  3  0  0  0  0  0  0
  -25.9050  -32.5140   23.8700 C   0  0  0  0  0  3  0  0  0  0  0  0
  -25.5920  -33.9150   24.2000 N   0  0  0  0  0  0  0  0  0  0  0  0
  -25.9100  -34.9710   23.4410 C   0  0  0  0  0  0  0  0  0  0  0  0
  -26.5630  -34.8690   22.4000 O   0  0  0  0  0  0  0  0  0  0  0  0
  -25.0090  -34.0670   25.0110 H   0  0  0  0  0  0  0  0  0  0  0  0
  -24.1720  -36.7660   23.1310 C   0  0  0  0  0  1  0  0  0  0  0  0
  -25.4340  -36.3610   23.9100 C   0  0  0  0  0  3  0  0  0  0  0  0
  -27.5820  -37.2600   24.6920 C   0  0  0  0  0  1  0  0  0  0  0  0
  -26.4620  -37.4150   23.7670 N   0  0  0  0  0  0  0  0  0  0  0  0
  -26.0580  -38.3370   23.9090 H   0  0  0  0  0  0  0  0  0  0  0  0
  -26.4080  -31.7510   25.1580 C   0  0  1  0  0  0  0  0  0  0  0  0
  -25.3060  -31.5280   26.2210 C   0  0  0  0  0  1  0  0  0  0  0  0
  -26.9880  -30.3670   24.7910 C   0  0  0  0  0  1  0  0  0  0  0  0
  -27.5570  -32.5460   25.8210 C   0  0  0  0  0  1  0  0  0  0  0  0
  1  3  2  0
  1  5  1  0
  2  4  1  0
  3  6  1  0
  5  2  2  0
  6  4  2  0
  7  8  1  0
  8  6  1  0
  8 17  2  0
  9 17  1  0
 10 15  1  0
 11 12  1  0
 11 10  1  0
 13 12  1  0
 13 22  1  0
 13 14  1  0
 15  9  1  0
 15 14  1  0
 16  9  2  0
 17 18  1  0
 19 20  2  0
 20 39  1  0
 21 20  1  0
 21 24  1  0
 22 19  1  0
 22 23  1  0
 23 21  2  0
 24 25  1  0
 25 26  2  0
 27 30  1  0
 27 26  1  0
 28 27  2  0
 29 28  1  0
 29 24  2  0
 30 31  1  0
 31 32  1  0
 32 33  2  0
 34 33  1  0
 34 38  1  0
 35 34  2  0
 36 31  2  0
 36 35  1  0
 37 36  1  0
 39 40  1  0
 40 43  1  0
 40 42  1  0
 41 39  2  0
 44 45  1  0
 44 19  1  0
 46 44  1  0
 47  5  1  0
 47 48  1  0
 49 60  2  0
 50 48  1  0
 50 55  1  0
 51 59  1  0
 51 61  1  0
 52 58  1  0
 52 54  1  0
 53 59  1  0
 54 53  1  0
 55 54  2  0
 56 50  2  0
 57 56  1  0
 57 52  2  0
 58 51  1  0
 59 49  1  0
 61 63  2  0
 62 61  1  0
 64 62  1  0
 65 74  2  0
 65 70  1  0
 66 62  1  0
 66 70  1  0
 67 66  1  0
 68 69  1  0
 68 67  1  0
 69 65  1  0
 70 71  2  0
 71 72  1  0
 73 72  2  0
 74 73  1  0
 75 49  1  0
 75 76  1  0
 75 85  1  0
 76 79  1  0
 77 81  1  0
 77 76  1  0
 78 77  2  0
 81 80  1  0
 83 84  1  0
 83 81  1  0
 83 82  1  0
 85 88  1  1
 85 86  1  0
 87 85  1  0
M  ISO  4   9 100  17 100  47 101  48 101
M  END
>  <TORSDO>  (24) 
F 18

>  <SCORE>  (24) 
-15.673

>  <name>  (24) 
23

>  <ligand_id>  (24) 
23

>  <original_smiles>  (24) 
[H]c1c([H])c([H])c2c(c1[H])C([H])([H])C([H])([H])C([H])([H])C2([H])N([H])C(=O)C1([H])N(C(=O)C([H])(N([H])C(=O)C([H])(N([H])C([H])([H])[H])C([H])([H])[H])C(C([H])([H])[H])(C([H])([H])[H])C([H])([H])[H])C([H])([H])c2c([H])c(OC([H])([H])c3c([H])c([H])c(C([H])(N([H])C(=O)N4C([H])([H])C([H])([H])C([H])([H])C([H])(n5nc(-c6c([H])c([H])c(Oc7c([H])c([H])c(F)c([H])c7F)c([H])c6[H])c(C(=O)N([H])[H])c5N([H])[H])C4([H])[H])C([H])([H])[H])c([H])c3[H])c([H])c([H])c2C1([H])[H]

>  <smiles>  (24) 
[H]c1c([H])c([H])c2c(c1[H])C([H])([H])C([H])([H])C([H])([H])C2([H])N([H])C(=O)C1([H])N(C(=O)C([H])(N([H])C(=O)C([H])(N([H])C([H])([H])[H])C([H])([H])[H])C(C([H])([H])[H])(C([H])([H])[H])C([H])([H])[H])C([H])([H])c2c([H])c(OC([H])([H])c3c([H])c([H])c(C([H])(N([H])C(=O)N4C([H])([H])C([H])([H])C([H])([H])C([H])(n5nc(-c6c([H])c([H])c(Oc7c([H])c([H])c(F)c([H])c7F)c([H])c6[H])c(C(=O)N([H])[H])c5N([H])[H])C4([H])[H])C([H])([H])[H])c([H])c3[H])c([H])c([H])c2C1([H])[H]

$$$$
24:0:0
     RDKit          3D

 89 97  0  0  1  0  0  0  0  0999 V2000
  -29.8330  -22.7230   19.3930 C   0  0  0  0  0  3  0  0  0  0  0  0
  -29.6400  -24.1890   19.2840 C   0  0  0  0  0  3  0  0  0  0  0  0
  -27.8070  -24.0900   20.6780 C   0  0  0  0  0  3  0  0  0  0  0  0
  -29.0330  -21.7980   20.1710 C   0  0  0  0  0  0  0  0  0  0  0  0
  -28.6120  -25.0130   19.9070 C   0  0  0  0  0  0  0  0  0  0  0  0
  -27.9890  -22.6190   20.7960 C   0  0  0  0  0  0  0  0  0  0  0  0
  -29.0670  -20.0980   20.2660 C   0  0  0  0  0  0  0  0  0  0  0  0
  -27.9620  -19.5750   20.4290 O   0  0  0  0  0  0  0  0  0  0  0  0
  -30.2440  -18.8670   20.1960 C   0  0  0  0  0  3  0  0  0  0  0  0
  -29.9470  -17.1480   20.4490 C   0  0  0  0  0  3  0  0  0  0  0  0
  -30.8950  -15.7190   20.2880 C   0  0  0  0  0  0  0  0  0  0  0  0
  -30.9620  -13.2920   19.4280 C   0  0  0  0  0  2  0  0  0  0  0  0
  -30.0590  -13.1380   18.1790 C   0  0  0  0  0  2  0  0  0  0  0  0
  -28.5930  -12.8760   18.5790 C   0  0  0  0  0  2  0  0  0  0  0  0
  -28.1240  -13.8120   19.7200 C   0  0  0  0  0  3  0  0  0  0  0  0
  -29.1510  -13.9110   20.8640 C   0  0  0  0  0  2  0  0  0  0  0  0
  -30.4090  -14.3940   20.2800 N   0  0  0  0  0  0  0  0  0  0  0  0
  -32.1050  -15.8060   20.0370 O   0  0  0  0  0  0  0  0  0  0  0  0
  -25.7370  -14.3450   20.4530 C   0  0  0  0  0  0  0  0  0  0  0  0
  -24.6750  -13.5520   20.7930 C   0  0  0  0  0  0  0  0  0  0  0  0
  -25.1550  -12.2060   20.7460 C   0  0  0  0  0  0  0  0  0  0  0  0
  -26.7890  -13.4820   20.2040 N   0  0  0  0  0  0  0  0  0  0  0  0
  -26.4520  -12.1890   20.4500 N   0  0  0  0  0  0  0  0  0  0  0  0
  -24.4370  -10.9340   20.9040 C   0  0  0  0  0  0  0  0  0  0  0  0
  -24.8340   -9.9770   21.8630 C   0  0  0  0  0  3  0  0  0  0  0  0
  -24.1160   -8.7710   22.0130 C   0  0  0  0  0  3  0  0  0  0  0  0
  -22.9850   -8.5140   21.2000 C   0  0  0  0  0  0  0  0  0  0  0  0
  -22.6080   -9.4600   20.2300 C   0  0  0  0  0  3  0  0  0  0  0  0
  -23.3280  -10.6570   20.0810 C   0  0  0  0  0  3  0  0  0  0  0  0
  -22.2430   -7.3600   21.2550 O   0  0  0  0  0  0  0  0  0  0  0  0
  -22.1140   -6.6400   22.4160 C   0  0  0  0  0  0  0  0  0  0  0  0
  -21.5560   -7.2050   23.5840 C   0  0  0  0  0  3  0  0  0  0  0  0
  -21.3790   -6.4110   24.7350 C   0  0  0  0  0  3  0  0  0  0  0  0
  -21.7500   -5.0530   24.7170 C   0  0  0  0  0  0  0  0  0  0  0  0
  -22.2980   -4.4860   23.5530 C   0  0  0  0  0  3  0  0  0  0  0  0
  -22.4770   -5.2780   22.4050 C   0  0  0  0  0  0  0  0  0  0  0  0
  -22.9880   -4.7230   21.2800 F   0  0  0  0  0  0  0  0  0  0  0  0
  -21.5710   -4.2880   25.8190 F   0  0  0  0  0  0  0  0  0  0  0  0
  -23.2700  -14.0090   21.0490 C   0  0  0  0  0  0  0  0  0  0  0  0
  -22.5320  -13.2880   21.8840 N   0  0  0  0  0  0  0  0  0  0  0  0
  -22.8340  -15.0460   20.5460 O   0  0  0  0  0  0  0  0  0  0  0  0
  -22.8990  -12.4510   22.3150 H   0  0  0  0  0  0  0  0  0  0  0  0
  -21.5860  -13.5720   22.0950 H   0  0  0  0  0  0  0  0  0  0  0  0
  -25.8880  -15.7210   20.3060 N   0  0  0  0  0  0  0  0  0  0  0  0
  -25.1130  -16.3640   20.4340 H   0  0  0  0  0  0  0  0  0  0  0  0
  -26.7440  -16.1820   20.0250 H   0  0  0  0  0  0  0  0  0  0  0  0
  -25.7740  -22.3710   21.6230 C   0  0  0  0  0  1  0  0  0  0  0  0
  -27.1290  -21.9440   21.6330 O   0  0  0  0  0  0  0  0  0  0  0  0
  -28.5740  -26.5280   19.8510 O   0  0  0  0  0  0  0  0  0  0  0  0
  -24.9100  -32.0030   23.4220 C   0  0  0  0  0  0  0  0  0  0  0  0
  -27.4960  -27.5200   19.9480 C   0  0  0  0  0  0  0  0  0  0  0  0
  -23.7210  -30.7670   21.6530 C   0  0  0  0  0  3  0  0  0  0  0  0
  -25.1750  -29.3220   20.0830 C   0  0  0  0  0  0  0  0  0  0  0  0
  -26.2810  -31.0250   21.5260 C   0  0  0  0  0  2  0  0  0  0  0  0
  -26.3540  -29.6910   20.7410 C   0  0  0  0  0  0  0  0  0  0  0  0
  -27.5120  -28.8100   20.6530 C   0  0  0  0  0  3  0  0  0  0  0  0
  -26.2890  -27.2810   19.2590 C   0  0  0  0  0  3  0  0  0  0  0  0
  -25.1600  -28.1360   19.3280 C   0  0  0  0  0  3  0  0  0  0  0  0
  -23.9490  -30.2190   20.2160 C   0  0  0  0  0  2  0  0  0  0  0  0
  -24.9910  -31.2870   22.2560 N   0  0  0  0  0  0  0  0  0  0  0  0
  -23.8210  -32.2350   23.9700 O   0  0  0  0  0  0  0  0  0  0  0  0
  -23.0380  -29.6760   22.5160 C   0  0  0  0  0  0  0  0  0  0  0  0
  -21.7150  -29.4970   22.3470 N   0  0  0  0  0  0  0  0  0  0  0  0
  -23.7040  -28.9960   23.3000 O   0  0  0  0  0  0  0  0  0  0  0  0
  -21.2350  -30.0960   21.6900 H   0  0  0  0  0  0  0  0  0  0  0  0
  -18.3440  -28.2050   22.6970 C   0  0  0  0  0  0  0  0  0  0  0  0
  -20.8950  -28.4810   23.0180 C   0  0  0  0  0  3  0  0  0  0  0  0
  -21.0260  -27.1090   22.3140 C   0  0  0  0  0  2  0  0  0  0  0  0
  -19.9410  -26.8660   21.2600 C   0  0  0  0  0  2  0  0  0  0  0  0
  -18.5510  -26.9290   21.8980 C   0  0  0  0  0  2  0  0  0  0  0  0
  -19.4460  -28.9410   23.2090 C   0  0  0  0  0  0  0  0  0  0  0  0
  -19.1980  -30.1370   23.9170 C   0  0  0  0  0  3  0  0  0  0  0  0
  -17.8820  -30.5970   24.1170 C   0  0  0  0  0  3  0  0  0  0  0  0
  -16.7960  -29.8560   23.6200 C   0  0  0  0  0  3  0  0  0  0  0  0
  -17.0270  -28.6620   22.9160 C   0  0  0  0  0  3  0  0  0  0  0  0
  -26.1810  -32.5820   24.1140 C   0  0  0  0  0  3  0  0  0  0  0  0
  -26.6890  -31.6960   25.3190 C   0  0  1  0  0  0  0  0  0  0  0  0
  -25.5890  -31.3570   26.3520 C   0  0  0  0  0  1  0  0  0  0  0  0
  -27.2810  -30.3600   24.8130 C   0  0  0  0  0  1  0  0  0  0  0  0
  -27.8300  -32.4290   26.0640 C   0  0  0  0  0  1  0  0  0  0  0  0
  -25.8600  -33.9410   24.5840 N   0  0  0  0  0  0  0  0  0  0  0  0
  -26.1620  -35.0720   23.9290 C   0  0  0  0  0  0  0  0  0  0  0  0
  -26.8070  -35.0800   22.8780 O   0  0  0  0  0  0  0  0  0  0  0  0
  -25.2800  -34.0070   25.4080 H   0  0  0  0  0  0  0  0  0  0  0  0
  -24.3920  -36.8590   23.8210 C   0  0  0  0  0  1  0  0  0  0  0  0
  -25.6750  -36.4040   24.5360 C   0  0  0  0  0  3  0  0  0  0  0  0
  -27.8240  -37.2550   25.3650 C   0  0  0  0  0  1  0  0  0  0  0  0
  -26.6870  -37.4810   24.4770 N   0  0  0  0  0  0  0  0  0  0  0  0
  -26.2730  -38.3780   24.7140 H   0  0  0  0  0  0  0  0  0  0  0  0
  1  4  1  0
  2  1  2  0
  2  5  1  0
  3  6  1  0
  4  7  1  0
  4  6  2  0
  5  3  2  0
  6 48  1  0
  7  8  2  0
  9  7  1  0
  9 10  2  0
 11 10  1  0
 12 17  1  0
 13 14  1  0
 13 12  1  0
 15 14  1  0
 15 22  1  0
 15 16  1  0
 17 11  1  0
 17 16  1  0
 18 11  2  0
 19 20  2  0
 20 39  1  0
 21 20  1  0
 21 24  1  0
 22 23  1  0
 22 19  1  0
 23 21  2  0
 24 25  1  0
 25 26  2  0
 27 30  1  0
 27 26  1  0
 28 27  2  0
 29 28  1  0
 29 24  2  0
 30 31  1  0
 31 32  1  0
 32 33  2  0
 34 33  1  0
 34 38  1  0
 35 34  2  0
 36 31  2  0
 36 35  1  0
 37 36  1  0
 39 40  1  0
 40 43  1  0
 40 42  1  0
 41 39  2  0
 44 45  1  0
 44 19  1  0
 46 44  1  0
 47 48  1  0
 49  5  1  0
 49 51  1  0
 50 61  2  0
 51 56  1  0
 52 60  1  0
 52 62  1  0
 53 59  1  0
 53 55  1  0
 54 60  1  0
 55 54  1  0
 56 55  2  0
 57 58  1  0
 57 51  2  0
 58 53  2  0
 59 52  1  0
 60 50  1  0
 62 64  2  0
 63 62  1  0
 65 63  1  0
 66 75  2  0
 66 71  1  0
 67 63  1  0
 67 71  1  0
 68 67  1  0
 69 70  1  0
 69 68  1  0
 70 66  1  0
 71 72  2  0
 72 73  1  0
 74 73  2  0
 75 74  1  0
 76 50  1  0
 76 81  1  0
 76 77  1  0
 77 80  1  1
 77 78  1  0
 79 77  1  0
 81 84  1  0
 82 86  1  0
 82 81  1  0
 83 82  2  0
 86 85  1  0
 88 86  1  0
 88 89  1  0
 88 87  1  0
M  ISO  4   5 101  10 100  11 100  49 101
M  END
>  <TORSDO>  (25) 
F 20

>  <SCORE>  (25) 
-12.249

>  <name>  (25) 
24

>  <ligand_id>  (25) 
24

>  <original_smiles>  (25) 
[H]c1c([H])c([H])c2c(c1[H])C([H])([H])C([H])([H])C([H])([H])C2([H])N([H])C(=O)C1([H])N(C(=O)C([H])(N([H])C(=O)C([H])(N([H])C([H])([H])[H])C([H])([H])[H])C(C([H])([H])[H])(C([H])([H])[H])C([H])([H])[H])C([H])([H])c2c([H])c(Oc3c([H])c([H])c(C(=O)C([H])([H])C([H])([H])C(=O)N4C([H])([H])C([H])([H])C([H])([H])C([H])(n5nc(-c6c([H])c([H])c(Oc7c([H])c([H])c(F)c([H])c7F)c([H])c6[H])c(C(=O)N([H])[H])c5N([H])[H])C4([H])[H])c(OC([H])([H])[H])c3[H])c([H])c([H])c2C1([H])[H]

>  <smiles>  (25) 
[H]c1c([H])c([H])c2c(c1[H])C([H])([H])C([H])([H])C([H])([H])C2([H])N([H])C(=O)C1([H])N(C(=O)C([H])(N([H])C(=O)C([H])(N([H])C([H])([H])[H])C([H])([H])[H])C(C([H])([H])[H])(C([H])([H])[H])C([H])([H])[H])C([H])([H])c2c([H])c(Oc3c([H])c([H])c(C(=O)C([H])([H])C([H])([H])C(=O)N4C([H])([H])C([H])([H])C([H])([H])C([H])(n5nc(-c6c([H])c([H])c(Oc7c([H])c([H])c(F)c([H])c7F)c([H])c6[H])c(C(=O)N([H])[H])c5N([H])[H])C4([H])[H])c(OC([H])([H])[H])c3[H])c([H])c([H])c2C1([H])[H]

$$$$
25:0:0
     RDKit          3D

 90 98  0  0  1  0  0  0  0  0999 V2000
  -26.6340  -21.4800   19.8130 C   0  0  0  0  0  3  0  0  0  0  0  0
  -27.5750  -20.4200   19.8720 C   0  0  0  0  0  3  0  0  0  0  0  0
  -26.9800  -22.8380   20.0150 C   0  0  0  0  0  3  0  0  0  0  0  0
  -28.9500  -20.6420   20.1060 C   0  0  0  0  0  0  0  0  0  0  0  0
  -28.2980  -23.2490   20.3070 C   0  0  0  0  0  0  0  0  0  0  0  0
  -29.2700  -22.0970   20.3330 C   0  0  0  0  0  0  0  0  0  0  0  0
  -30.5610  -22.4060   20.6020 F   0  0  0  0  0  0  0  0  0  0  0  0
  -29.9280  -19.3410   19.8630 C   0  0  0  0  0  0  0  0  0  0  0  0
  -30.8040  -19.5220   19.0080 O   0  0  0  0  0  0  0  0  0  0  0  0
  -30.0220  -17.7470   20.5840 C   0  0  0  0  0  0  0  0  0  0  0  0
  -30.3060  -17.8350   21.7860 O   0  0  0  0  0  0  0  0  0  0  0  0
  -29.8590  -16.4080   20.0510 N   0  0  0  0  0  2  0  0  0  0  0  0
  -30.6590  -15.1990   20.0460 C   0  0  0  0  0  0  0  0  0  0  0  0
  -30.5900  -12.8070   19.1360 C   0  0  0  0  0  2  0  0  0  0  0  0
  -29.6300  -12.7430   17.9210 C   0  0  0  0  0  2  0  0  0  0  0  0
  -28.1740  -12.5210   18.3780 C   0  0  0  0  0  2  0  0  0  0  0  0
  -27.7830  -13.4480   19.5580 C   0  0  0  0  0  3  0  0  0  0  0  0
  -28.8590  -13.4760   20.6560 C   0  0  0  0  0  2  0  0  0  0  0  0
  -30.1200  -13.9050   20.0370 N   0  0  0  0  0  0  0  0  0  0  0  0
  -31.8810  -15.2030   19.8470 O   0  0  0  0  0  0  0  0  0  0  0  0
  -25.4240  -14.0190   20.3630 C   0  0  0  0  0  0  0  0  0  0  0  0
  -24.3680  -13.2430   20.7540 C   0  0  0  0  0  0  0  0  0  0  0  0
  -24.8330  -11.8930   20.7120 C   0  0  0  0  0  0  0  0  0  0  0  0
  -26.4600  -13.1420   20.0920 N   0  0  0  0  0  0  0  0  0  0  0  0
  -26.1170  -11.8560   20.3710 N   0  0  0  0  0  0  0  0  0  0  0  0
  -24.1100  -10.6290   20.9160 C   0  0  0  0  0  0  0  0  0  0  0  0
  -24.5340   -9.6800   21.8720 C   0  0  0  0  0  3  0  0  0  0  0  0
  -23.8100   -8.4820   22.0620 C   0  0  0  0  0  3  0  0  0  0  0  0
  -22.6480   -8.2260   21.2970 C   0  0  0  0  0  0  0  0  0  0  0  0
  -22.2420   -9.1650   20.3310 C   0  0  0  0  0  3  0  0  0  0  0  0
  -22.9670  -10.3520   20.1380 C   0  0  0  0  0  3  0  0  0  0  0  0
  -21.8960   -7.0800   21.3960 O   0  0  0  0  0  0  0  0  0  0  0  0
  -21.8060   -6.3770   22.5700 C   0  0  0  0  0  0  0  0  0  0  0  0
  -21.3070   -6.9640   23.7540 C   0  0  0  0  0  3  0  0  0  0  0  0
  -21.1670   -6.1860   24.9200 C   0  0  0  0  0  3  0  0  0  0  0  0
  -21.5160   -4.8230   24.9030 C   0  0  0  0  0  0  0  0  0  0  0  0
  -22.0080   -4.2350   23.7240 C   0  0  0  0  0  3  0  0  0  0  0  0
  -22.1490   -5.0110   22.5600 C   0  0  0  0  0  0  0  0  0  0  0  0
  -22.6040   -4.4350   21.4200 F   0  0  0  0  0  0  0  0  0  0  0  0
  -21.3730   -4.0710   26.0210 F   0  0  0  0  0  0  0  0  0  0  0  0
  -22.9760  -13.7190   21.0550 C   0  0  0  0  0  0  0  0  0  0  0  0
  -22.2650  -13.0210   21.9320 N   0  0  0  0  0  0  0  0  0  0  0  0
  -22.5290  -14.7460   20.5450 O   0  0  0  0  0  0  0  0  0  0  0  0
  -22.6400  -12.1900   22.3650 H   0  0  0  0  0  0  0  0  0  0  0  0
  -21.3300  -13.3210   22.1730 H   0  0  0  0  0  0  0  0  0  0  0  0
  -25.5860  -15.3890   20.1890 N   0  0  0  0  0  0  0  0  0  0  0  0
  -24.8330  -16.0540   20.3340 H   0  0  0  0  0  0  0  0  0  0  0  0
  -26.4540  -15.8240   19.8970 H   0  0  0  0  0  0  0  0  0  0  0  0
  -28.4710  -24.8280   20.8440 C   0  0  0  0  0  2  0  0  0  0  0  0
  -28.3280  -26.2270   20.1330 O   0  0  0  0  0  0  0  0  0  0  0  0
  -24.5930  -31.9030   23.2230 C   0  0  0  0  0  0  0  0  0  0  0  0
  -27.2400  -27.1790   20.2270 C   0  0  0  0  0  0  0  0  0  0  0  0
  -23.4240  -30.4990   21.5690 C   0  0  0  0  0  3  0  0  0  0  0  0
  -24.8990  -28.9250   20.1670 C   0  0  0  0  0  0  0  0  0  0  0  0
  -25.9780  -30.7800   21.4310 C   0  0  0  0  0  2  0  0  0  0  0  0
  -26.0720  -29.3800   20.7880 C   0  0  0  0  0  0  0  0  0  0  0  0
  -27.2460  -28.5270   20.7910 C   0  0  0  0  0  3  0  0  0  0  0  0
  -26.0380  -26.8300   19.5790 C   0  0  0  0  0  3  0  0  0  0  0  0
  -24.8970  -27.6660   19.5490 C   0  0  0  0  0  3  0  0  0  0  0  0
  -23.6680  -29.8210   20.1940 C   0  0  0  0  0  2  0  0  0  0  0  0
  -24.6850  -31.0850   22.1290 N   0  0  0  0  0  0  0  0  0  0  0  0
  -23.4990  -32.1770   23.7400 O   0  0  0  0  0  0  0  0  0  0  0  0
  -22.7420  -29.4880   22.5230 C   0  0  0  0  0  0  0  0  0  0  0  0
  -21.4110  -29.3240   22.4000 N   0  0  0  0  0  0  0  0  0  0  0  0
  -23.4120  -28.8490   23.3390 O   0  0  0  0  0  0  0  0  0  0  0  0
  -20.9250  -29.8890   21.7170 H   0  0  0  0  0  0  0  0  0  0  0  0
  -18.0260  -28.1410   22.9160 C   0  0  0  0  0  0  0  0  0  0  0  0
  -20.5890  -28.3800   23.1620 C   0  0  0  0  0  3  0  0  0  0  0  0
  -20.6740  -26.9570   22.5620 C   0  0  0  0  0  2  0  0  0  0  0  0
  -19.5600  -26.6610   21.5530 C   0  0  0  0  0  2  0  0  0  0  0  0
  -18.1850  -26.8040   22.2130 C   0  0  0  0  0  2  0  0  0  0  0  0
  -19.1530  -28.8890   23.3470 C   0  0  0  0  0  0  0  0  0  0  0  0
  -18.9480  -30.1410   23.9670 C   0  0  0  0  0  3  0  0  0  0  0  0
  -17.6480  -30.6460   24.1560 C   0  0  0  0  0  3  0  0  0  0  0  0
  -16.5350  -29.8960   23.7390 C   0  0  0  0  0  3  0  0  0  0  0  0
  -16.7240  -28.6450   23.1250 C   0  0  0  0  0  3  0  0  0  0  0  0
  -25.8570  -32.5510   23.8660 C   0  0  0  0  0  3  0  0  0  0  0  0
  -26.3510  -31.7920   25.1610 C   0  0  1  0  0  0  0  0  0  0  0  0
  -25.2380  -31.5610   26.2090 C   0  0  0  0  0  1  0  0  0  0  0  0
  -26.9450  -30.4120   24.7970 C   0  0  0  0  0  1  0  0  0  0  0  0
  -27.4860  -32.5940   25.8370 C   0  0  0  0  0  1  0  0  0  0  0  0
  -25.5330  -33.9490   24.1870 N   0  0  0  0  0  0  0  0  0  0  0  0
  -25.8680  -35.0050   23.4340 C   0  0  0  0  0  0  0  0  0  0  0  0
  -26.5470  -34.9040   22.4090 O   0  0  0  0  0  0  0  0  0  0  0  0
  -24.9310  -34.1000   24.9830 H   0  0  0  0  0  0  0  0  0  0  0  0
  -24.1390  -36.7970   23.0580 C   0  0  0  0  0  1  0  0  0  0  0  0
  -25.3700  -36.3930   23.8860 C   0  0  0  0  0  3  0  0  0  0  0  0
  -27.4860  -37.2890   24.7520 C   0  0  0  0  0  1  0  0  0  0  0  0
  -26.4010  -37.4500   23.7880 N   0  0  0  0  0  0  0  0  0  0  0  0
  -25.9890  -38.3700   23.9240 H   0  0  0  0  0  0  0  0  0  0  0  0
  1  2  2  0
  1  3  1  0
  2  4  1  0
  3  5  2  0
  4  6  2  0
  5  6  1  0
  5 49  1  0
  6  7  1  0
  8  4  1  0
  8 10  1  0
  9  8  2  0
 10 11  2  0
 12 10  1  0
 13 12  1  0
 14 19  1  0
 15 16  1  0
 15 14  1  0
 17 16  1  0
 17 24  1  0
 17 18  1  0
 19 13  1  0
 19 18  1  0
 20 13  2  0
 21 22  2  0
 22 41  1  0
 23 22  1  0
 23 26  1  0
 24 21  1  0
 24 25  1  0
 25 23  2  0
 26 27  1  0
 27 28  2  0
 29 32  1  0
 29 28  1  0
 30 29  2  0
 31 30  1  0
 31 26  2  0
 32 33  1  0
 33 34  1  0
 34 35  2  0
 36 35  1  0
 36 40  1  0
 37 36  2  0
 38 33  2  0
 38 37  1  0
 39 38  1  0
 41 42  1  0
 42 45  1  0
 42 44  1  0
 43 41  2  0
 46 47  1  0
 46 21  1  0
 48 46  1  0
 50 52  1  0
 50 49  1  0
 51 62  2  0
 52 57  1  0
 53 61  1  0
 53 63  1  0
 54 60  1  0
 54 56  1  0
 55 61  1  0
 56 57  2  0
 56 55  1  0
 58 52  2  0
 59 58  1  0
 59 54  2  0
 60 53  1  0
 61 51  1  0
 63 65  2  0
 64 63  1  0
 66 64  1  0
 67 76  2  0
 67 72  1  0
 68 64  1  0
 68 72  1  0
 69 68  1  0
 70 71  1  0
 70 69  1  0
 71 67  1  0
 72 73  2  0
 73 74  1  0
 75 74  2  0
 76 75  1  0
 77 51  1  0
 77 82  1  0
 77 78  1  0
 78 81  1  1
 78 79  1  0
 80 78  1  0
 82 85  1  0
 83 87  1  0
 83 82  1  0
 84 83  2  0
 87 86  1  0
 89 87  1  0
 89 90  1  0
 89 88  1  0
M  ISO  4  12 100  13 100  49 101  50 101
M  END
>  <TORSDO>  (26) 
F 20

>  <SCORE>  (26) 
-13.600

>  <name>  (26) 
25

>  <ligand_id>  (26) 
25

>  <original_smiles>  (26) 
[H]c1c([H])c(C(=O)C(=O)[N-]C(=O)N2C([H])([H])C([H])([H])C([H])([H])C([H])(n3nc(-c4c([H])c([H])c(Oc5c([H])c([H])c(F)c([H])c5F)c([H])c4[H])c(C(=O)N([H])[H])c3N([H])[H])C2([H])[H])c(F)c(C([H])([H])Oc2c([H])c([H])c3c(c2[H])C([H])([H])N(C(=O)C([H])(N([H])C(=O)C([H])(N([H])C([H])([H])[H])C([H])([H])[H])C(C([H])([H])[H])(C([H])([H])[H])C([H])([H])[H])C([H])(C(=O)N([H])C2([H])c4c([H])c([H])c([H])c([H])c4C([H])([H])C([H])([H])C2([H])[H])C3([H])[H])c1[H]

>  <smiles>  (26) 
[H]c1c([H])c(C(=O)C(=O)[N-]C(=O)N2C([H])([H])C([H])([H])C([H])([H])C([H])(n3nc(-c4c([H])c([H])c(Oc5c([H])c([H])c(F)c([H])c5F)c([H])c4[H])c(C(=O)N([H])[H])c3N([H])[H])C2([H])[H])c(F)c(C([H])([H])Oc2c([H])c([H])c3c(c2[H])C([H])([H])N(C(=O)C([H])(N([H])C(=O)C([H])(N([H])C([H])([H])[H])C([H])([H])[H])C(C([H])([H])[H])(C([H])([H])[H])C([H])([H])[H])C([H])(C(=O)N([H])C2([H])c4c([H])c([H])c([H])c([H])c4C([H])([H])C([H])([H])C2([H])[H])C3([H])[H])c1[H]

$$$$
26:0:0
     RDKit          3D

 91 99  0  0  1  0  0  0  0  0999 V2000
  -27.7220  -21.6020   19.8990 C   0  0  0  0  0  3  0  0  0  0  0  0
  -28.1550  -20.1850   19.9450 C   0  0  0  0  0  3  0  0  0  0  0  0
  -28.4750  -22.8110   20.2250 C   0  0  0  0  0  0  0  0  0  0  0  0
  -29.4560  -19.6980   20.3480 C   0  0  0  0  0  0  0  0  0  0  0  0
  -29.7790  -22.3300   20.6480 C   0  0  0  0  0  0  0  0  0  0  0  0
  -30.2180  -20.9040   20.6980 C   0  0  0  0  0  0  0  0  0  0  0  0
  -31.5020  -20.6950   21.0810 F   0  0  0  0  0  0  0  0  0  0  0  0
  -30.8510  -18.1690   18.8150 C   0  0  0  0  0  1  0  0  0  0  0  0
  -30.1790  -18.1230   20.1990 C   0  0  0  0  0  0  0  0  0  0  0  0
  -30.4540  -15.2620   20.3100 C   0  0  0  0  0  0  0  0  0  0  0  0
  -30.3650  -12.8570   19.3810 C   0  0  0  0  0  2  0  0  0  0  0  0
  -29.4340  -12.7140   18.1530 C   0  0  0  0  0  2  0  0  0  0  0  0
  -27.9850  -12.4560   18.5990 C   0  0  0  0  0  2  0  0  0  0  0  0
  -27.5550  -13.3920   19.7570 C   0  0  0  0  0  3  0  0  0  0  0  0
  -28.6160  -13.4970   20.8750 C   0  0  0  0  0  2  0  0  0  0  0  0
  -29.8500  -13.9810   20.2410 N   0  0  0  0  0  0  0  0  0  0  0  0
  -31.6710  -15.2370   20.0800 O   0  0  0  0  0  0  0  0  0  0  0  0
  -29.7380  -16.5470   20.4140 N   0  0  0  0  0  4  0  0  0  0  0  0
  -28.7520  -16.4280   20.5860 H   0  0  0  0  0  0  0  0  0  0  0  0
  -25.1860  -13.9390   20.5260 C   0  0  0  0  0  0  0  0  0  0  0  0
  -24.1290  -13.1550   20.8940 C   0  0  0  0  0  0  0  0  0  0  0  0
  -24.6010  -11.8070   20.8510 C   0  0  0  0  0  0  0  0  0  0  0  0
  -26.2310  -13.0690   20.2710 N   0  0  0  0  0  0  0  0  0  0  0  0
  -25.8910  -11.7800   20.5360 N   0  0  0  0  0  0  0  0  0  0  0  0
  -23.8790  -10.5400   21.0340 C   0  0  0  0  0  0  0  0  0  0  0  0
  -24.3050   -9.5740   21.9710 C   0  0  0  0  0  3  0  0  0  0  0  0
  -23.5810   -8.3750   22.1430 C   0  0  0  0  0  3  0  0  0  0  0  0
  -22.4160   -8.1320   21.3770 C   0  0  0  0  0  0  0  0  0  0  0  0
  -22.0100   -9.0870   20.4280 C   0  0  0  0  0  3  0  0  0  0  0  0
  -22.7340  -10.2770   20.2540 C   0  0  0  0  0  3  0  0  0  0  0  0
  -21.6640   -6.9850   21.4580 O   0  0  0  0  0  0  0  0  0  0  0  0
  -21.5870   -6.2550   22.6170 C   0  0  0  0  0  0  0  0  0  0  0  0
  -21.0970   -6.8130   23.8170 C   0  0  0  0  0  3  0  0  0  0  0  0
  -20.9690   -6.0080   24.9670 C   0  0  0  0  0  3  0  0  0  0  0  0
  -21.3210   -4.6470   24.9170 C   0  0  0  0  0  0  0  0  0  0  0  0
  -21.8050   -4.0880   23.7200 C   0  0  0  0  0  3  0  0  0  0  0  0
  -21.9340   -4.8900   22.5730 C   0  0  0  0  0  0  0  0  0  0  0  0
  -22.3800   -4.3410   21.4180 F   0  0  0  0  0  0  0  0  0  0  0  0
  -21.1920   -3.8710   26.0190 F   0  0  0  0  0  0  0  0  0  0  0  0
  -22.7310  -13.6240   21.1690 C   0  0  0  0  0  0  0  0  0  0  0  0
  -22.0080  -12.9250   22.0350 N   0  0  0  0  0  0  0  0  0  0  0  0
  -22.2880  -14.6480   20.6500 O   0  0  0  0  0  0  0  0  0  0  0  0
  -22.3810  -12.0970   22.4780 H   0  0  0  0  0  0  0  0  0  0  0  0
  -21.0690  -13.2210   22.2620 H   0  0  0  0  0  0  0  0  0  0  0  0
  -25.3400  -15.3110   20.3570 N   0  0  0  0  0  0  0  0  0  0  0  0
  -24.5670  -15.9570   20.4720 H   0  0  0  0  0  0  0  0  0  0  0  0
  -26.1740  -15.7540   19.9930 H   0  0  0  0  0  0  0  0  0  0  0  0
  -30.6950  -23.2770   21.0150 O   0  0  0  0  0  0  0  0  0  0  0  0
  -30.3470  -24.1610   20.9530 H   0  0  0  0  0  0  0  0  0  0  0  0
  -27.7720  -24.3900   20.0330 C   0  0  0  0  0  2  0  0  0  0  0  0
  -28.1660  -25.9420   20.3030 O   0  0  0  0  0  0  0  0  0  0  0  0
  -24.6210  -31.8850   23.2560 C   0  0  0  0  0  0  0  0  0  0  0  0
  -27.1740  -27.0460   20.2260 C   0  0  0  0  0  0  0  0  0  0  0  0
  -23.4250  -30.4930   21.6170 C   0  0  0  0  0  3  0  0  0  0  0  0
  -24.8740  -28.9050   20.1870 C   0  0  0  0  0  0  0  0  0  0  0  0
  -25.9900  -30.7150   21.4670 C   0  0  0  0  0  2  0  0  0  0  0  0
  -26.0620  -29.3120   20.8080 C   0  0  0  0  0  0  0  0  0  0  0  0
  -27.2080  -28.4020   20.8080 C   0  0  0  0  0  3  0  0  0  0  0  0
  -25.9580  -26.7890   19.5510 C   0  0  0  0  0  3  0  0  0  0  0  0
  -24.8450  -27.6630   19.5380 C   0  0  0  0  0  3  0  0  0  0  0  0
  -23.6530  -29.8190   20.2370 C   0  0  0  0  0  2  0  0  0  0  0  0
  -24.7000  -31.0570   22.1670 N   0  0  0  0  0  0  0  0  0  0  0  0
  -23.5320  -32.1730   23.7790 O   0  0  0  0  0  0  0  0  0  0  0  0
  -22.7350  -29.4910   22.5790 C   0  0  0  0  0  0  0  0  0  0  0  0
  -21.4070  -29.3210   22.4490 N   0  0  0  0  0  0  0  0  0  0  0  0
  -23.4010  -28.8690   23.4100 O   0  0  0  0  0  0  0  0  0  0  0  0
  -20.9230  -29.8730   21.7550 H   0  0  0  0  0  0  0  0  0  0  0  0
  -18.0250  -28.1070   22.9510 C   0  0  0  0  0  0  0  0  0  0  0  0
  -20.5830  -28.3820   23.2190 C   0  0  0  0  0  3  0  0  0  0  0  0
  -20.6910  -26.9490   22.6460 C   0  0  0  0  0  2  0  0  0  0  0  0
  -19.5910  -26.6220   21.6300 C   0  0  0  0  0  2  0  0  0  0  0  0
  -18.2080  -26.7590   22.2730 C   0  0  0  0  0  2  0  0  0  0  0  0
  -19.1400  -28.8750   23.3810 C   0  0  0  0  0  0  0  0  0  0  0  0
  -18.9120  -30.1330   23.9780 C   0  0  0  0  0  3  0  0  0  0  0  0
  -17.6030  -30.6250   24.1480 C   0  0  0  0  0  3  0  0  0  0  0  0
  -16.5050  -29.8550   23.7320 C   0  0  0  0  0  3  0  0  0  0  0  0
  -16.7150  -28.5970   23.1390 C   0  0  0  0  0  3  0  0  0  0  0  0
  -25.8930  -32.5260   23.8880 C   0  0  0  0  0  3  0  0  0  0  0  0
  -26.3910  -31.7670   25.1810 C   0  0  1  0  0  0  0  0  0  0  0  0
  -25.2840  -31.5490   26.2390 C   0  0  0  0  0  1  0  0  0  0  0  0
  -26.9720  -30.3820   24.8200 C   0  0  0  0  0  1  0  0  0  0  0  0
  -27.5370  -32.5650   25.8470 C   0  0  0  0  0  1  0  0  0  0  0  0
  -25.5810  -33.9290   24.2120 N   0  0  0  0  0  0  0  0  0  0  0  0
  -25.9020  -34.9820   23.4490 C   0  0  0  0  0  0  0  0  0  0  0  0
  -26.5570  -34.8750   22.4090 O   0  0  0  0  0  0  0  0  0  0  0  0
  -24.9960  -34.0850   25.0200 H   0  0  0  0  0  0  0  0  0  0  0  0
  -24.1660  -36.7780   23.1270 C   0  0  0  0  0  1  0  0  0  0  0  0
  -25.4250  -36.3740   23.9110 C   0  0  0  0  0  3  0  0  0  0  0  0
  -27.5720  -37.2730   24.6970 C   0  0  0  0  0  1  0  0  0  0  0  0
  -26.4550  -37.4280   23.7680 N   0  0  0  0  0  0  0  0  0  0  0  0
  -26.0500  -38.3490   23.9090 H   0  0  0  0  0  0  0  0  0  0  0  0
  1  2  2  0
  1  3  1  0
  2  4  1  0
  3  5  2  0
  4  6  2  0
  5  6  1  0
  5 48  1  0
  6  7  1  0
  8  9  1  0
  9  4  1  0
  9 18  2  0
 10 18  1  0
 11 16  1  0
 12 13  1  0
 12 11  1  0
 14 13  1  0
 14 23  1  0
 14 15  1  0
 16 10  1  0
 16 15  1  0
 17 10  2  0
 18 19  1  0
 20 21  2  0
 21 40  1  0
 22 21  1  0
 22 25  1  0
 23 20  1  0
 23 24  1  0
 24 22  2  0
 25 26  1  0
 26 27  2  0
 28 31  1  0
 28 27  1  0
 29 28  2  0
 30 29  1  0
 30 25  2  0
 31 32  1  0
 32 33  1  0
 33 34  2  0
 35 34  1  0
 35 39  1  0
 36 35  2  0
 37 32  2  0
 37 36  1  0
 38 37  1  0
 40 41  1  0
 41 44  1  0
 41 43  1  0
 42 40  2  0
 45 46  1  0
 45 20  1  0
 47 45  1  0
 49 48  1  0
 50  3  1  0
 50 51  1  0
 52 63  2  0
 53 51  1  0
 53 58  1  0
 54 62  1  0
 54 64  1  0
 55 61  1  0
 55 57  1  0
 56 62  1  0
 57 58  2  0
 57 56  1  0
 59 53  2  0
 60 59  1  0
 60 55  2  0
 61 54  1  0
 62 52  1  0
 64 66  2  0
 65 64  1  0
 67 65  1  0
 68 77  2  0
 68 73  1  0
 69 65  1  0
 69 73  1  0
 70 69  1  0
 71 72  1  0
 71 70  1  0
 72 68  1  0
 73 74  2  0
 74 75  1  0
 76 75  2  0
 77 76  1  0
 78 52  1  0
 78 83  1  0
 78 79  1  0
 79 82  1  1
 79 80  1  0
 81 79  1  0
 83 86  1  0
 84 88  1  0
 84 83  1  0
 85 84  2  0
 88 87  1  0
 90 91  1  0
 90 88  1  0
 90 89  1  0
M  ISO  4  10 100  18 100  50 101  51 101
M  END
>  <TORSDO>  (27) 
F 19

>  <SCORE>  (27) 
-15.604

>  <name>  (27) 
26

>  <ligand_id>  (27) 
26

>  <original_smiles>  (27) 
[H]Oc1c(F)c(C([H])(N([H])C(=O)N2C([H])([H])C([H])([H])C([H])([H])C([H])(n3nc(-c4c([H])c([H])c(Oc5c([H])c([H])c(F)c([H])c5F)c([H])c4[H])c(C(=O)N([H])[H])c3N([H])[H])C2([H])[H])C([H])([H])[H])c([H])c([H])c1C([H])([H])Oc1c([H])c([H])c2c(c1[H])C([H])([H])N(C(=O)C([H])(N([H])C(=O)C([H])(N([H])C([H])([H])[H])C([H])([H])[H])C(C([H])([H])[H])(C([H])([H])[H])C([H])([H])[H])C([H])(C(=O)N([H])C1([H])c3c([H])c([H])c([H])c([H])c3C([H])([H])C([H])([H])C1([H])[H])C2([H])[H]

>  <smiles>  (27) 
[H]Oc1c(F)c(C([H])(N([H])C(=O)N2C([H])([H])C([H])([H])C([H])([H])C([H])(n3nc(-c4c([H])c([H])c(Oc5c([H])c([H])c(F)c([H])c5F)c([H])c4[H])c(C(=O)N([H])[H])c3N([H])[H])C2([H])[H])C([H])([H])[H])c([H])c([H])c1C([H])([H])Oc1c([H])c([H])c2c(c1[H])C([H])([H])N(C(=O)C([H])(N([H])C(=O)C([H])(N([H])C([H])([H])[H])C([H])([H])[H])C(C([H])([H])[H])(C([H])([H])[H])C([H])([H])[H])C([H])(C(=O)N([H])C1([H])c3c([H])c([H])c([H])c([H])c3C([H])([H])C([H])([H])C1([H])[H])C2([H])[H]

$$$$
27:0:0
     RDKit          3D

 90 98  0  0  1  0  0  0  0  0999 V2000
  -29.5070  -20.3280   21.4730 C   0  0  0  0  0  3  0  0  0  0  0  0
  -28.7680  -20.5980   19.2040 C   0  0  0  0  0  3  0  0  0  0  0  0
  -29.3210  -21.7280   21.6780 C   0  0  0  0  0  3  0  0  0  0  0  0
  -28.5850  -21.9960   19.4070 C   0  0  0  0  0  3  0  0  0  0  0  0
  -29.2280  -19.7110   20.2240 C   0  0  0  0  0  0  0  0  0  0  0  0
  -28.8500  -22.6000   20.6590 C   0  0  0  0  0  0  0  0  0  0  0  0
  -29.3280  -18.1940   19.9230 C   0  0  0  0  0  0  0  0  0  0  0  0
  -28.7530  -17.7630   18.9150 O   0  0  0  0  0  0  0  0  0  0  0  0
  -30.1530  -17.1020   20.7870 C   0  0  0  0  0  0  0  0  0  0  0  0
  -31.1120  -17.5350   21.4420 O   0  0  0  0  0  0  0  0  0  0  0  0
  -29.8040  -15.7610   20.7960 N   0  0  0  0  0  2  0  0  0  0  0  0
  -30.5750  -14.6830   20.4130 C   0  0  0  0  0  0  0  0  0  0  0  0
  -30.3710  -12.4410   19.3330 C   0  0  0  0  0  2  0  0  0  0  0  0
  -29.4330  -12.6080   18.1150 C   0  0  0  0  0  2  0  0  0  0  0  0
  -27.9560  -12.4600   18.5320 C   0  0  0  0  0  2  0  0  0  0  0  0
  -27.6040  -13.3010   19.7890 C   0  0  0  0  0  3  0  0  0  0  0  0
  -28.6590  -13.1140   20.8990 C   0  0  0  0  0  2  0  0  0  0  0  0
  -29.9790  -13.4500   20.3400 N   0  0  0  0  0  0  0  0  0  0  0  0
  -31.7390  -14.7740   20.0110 O   0  0  0  0  0  0  0  0  0  0  0  0
  -25.2080  -13.9020   20.4980 C   0  0  0  0  0  0  0  0  0  0  0  0
  -24.1380  -13.1300   20.8610 C   0  0  0  0  0  0  0  0  0  0  0  0
  -24.6010  -11.7780   20.8370 C   0  0  0  0  0  0  0  0  0  0  0  0
  -26.2530  -13.0210   20.2690 N   0  0  0  0  0  0  0  0  0  0  0  0
  -25.8920  -11.7370   20.5330 N   0  0  0  0  0  0  0  0  0  0  0  0
  -23.8730  -10.5170   21.0270 C   0  0  0  0  0  0  0  0  0  0  0  0
  -24.3050   -9.5500   21.9630 C   0  0  0  0  0  3  0  0  0  0  0  0
  -23.5780   -8.3520   22.1420 C   0  0  0  0  0  3  0  0  0  0  0  0
  -22.4080   -8.1130   21.3840 C   0  0  0  0  0  0  0  0  0  0  0  0
  -21.9960   -9.0680   20.4370 C   0  0  0  0  0  3  0  0  0  0  0  0
  -22.7220  -10.2570   20.2570 C   0  0  0  0  0  3  0  0  0  0  0  0
  -21.6530   -6.9680   21.4710 O   0  0  0  0  0  0  0  0  0  0  0  0
  -21.6020   -6.2250   22.6230 C   0  0  0  0  0  0  0  0  0  0  0  0
  -21.1770   -6.7810   23.8500 C   0  0  0  0  0  3  0  0  0  0  0  0
  -21.0750   -5.9650   24.9940 C   0  0  0  0  0  3  0  0  0  0  0  0
  -21.3860   -4.5950   24.9130 C   0  0  0  0  0  0  0  0  0  0  0  0
  -21.8050   -4.0390   23.6910 C   0  0  0  0  0  3  0  0  0  0  0  0
  -21.9090   -4.8520   22.5480 C   0  0  0  0  0  0  0  0  0  0  0  0
  -22.2920   -4.3080   21.3680 F   0  0  0  0  0  0  0  0  0  0  0  0
  -21.2800   -3.8080   26.0080 F   0  0  0  0  0  0  0  0  0  0  0  0
  -22.7390  -13.6070   21.1270 C   0  0  0  0  0  0  0  0  0  0  0  0
  -22.0090  -12.9100   21.9910 N   0  0  0  0  0  0  0  0  0  0  0  0
  -22.3020  -14.6310   20.6040 O   0  0  0  0  0  0  0  0  0  0  0  0
  -22.3760  -12.0810   22.4340 H   0  0  0  0  0  0  0  0  0  0  0  0
  -21.0700  -13.2100   22.2140 H   0  0  0  0  0  0  0  0  0  0  0  0
  -25.3800  -15.2720   20.3240 N   0  0  0  0  0  0  0  0  0  0  0  0
  -24.6310  -15.9470   20.4340 H   0  0  0  0  0  0  0  0  0  0  0  0
  -26.2680  -15.6950   20.0810 H   0  0  0  0  0  0  0  0  0  0  0  0
  -28.5930  -24.1200   20.9710 C   0  0  0  0  0  3  0  0  0  0  0  0
  -28.4820  -25.1900   19.8120 C   0  0  0  0  0  3  0  0  0  0  0  0
  -28.4040  -26.6070   20.2240 O   0  0  0  0  0  0  0  0  0  0  0  0
  -24.6050  -31.9110   23.2420 C   0  0  0  0  0  0  0  0  0  0  0  0
  -27.2320  -27.3730   20.1830 C   0  0  0  0  0  0  0  0  0  0  0  0
  -23.4000  -30.5050   21.6070 C   0  0  0  0  0  3  0  0  0  0  0  0
  -24.8500  -28.9550   20.1830 C   0  0  0  0  0  0  0  0  0  0  0  0
  -25.9340  -30.8390   21.4110 C   0  0  0  0  0  2  0  0  0  0  0  0
  -26.0160  -29.4590   20.7720 C   0  0  0  0  0  0  0  0  0  0  0  0
  -27.2040  -28.6760   20.7630 C   0  0  0  0  0  3  0  0  0  0  0  0
  -26.0370  -26.9110   19.5830 C   0  0  0  0  0  3  0  0  0  0  0  0
  -24.8610  -27.6870   19.5830 C   0  0  0  0  0  3  0  0  0  0  0  0
  -23.6100  -29.8240   20.2290 C   0  0  0  0  0  2  0  0  0  0  0  0
  -24.6660  -31.1030   22.1430 N   0  0  0  0  0  0  0  0  0  0  0  0
  -23.5220  -32.1850   23.7800 O   0  0  0  0  0  0  0  0  0  0  0  0
  -22.7460  -29.4880   22.5710 C   0  0  0  0  0  0  0  0  0  0  0  0
  -21.4200  -29.3070   22.4490 N   0  0  0  0  0  0  0  0  0  0  0  0
  -23.4300  -28.8640   23.3870 O   0  0  0  0  0  0  0  0  0  0  0  0
  -20.9280  -29.8640   21.7640 H   0  0  0  0  0  0  0  0  0  0  0  0
  -18.0460  -28.1120   22.9590 C   0  0  0  0  0  0  0  0  0  0  0  0
  -20.6050  -28.3700   23.2220 C   0  0  0  0  0  3  0  0  0  0  0  0
  -20.7050  -26.9390   22.6470 C   0  0  0  0  0  2  0  0  0  0  0  0
  -19.6000  -26.6150   21.6370 C   0  0  0  0  0  2  0  0  0  0  0  0
  -18.2200  -26.7610   22.2850 C   0  0  0  0  0  2  0  0  0  0  0  0
  -19.1660  -28.8740   23.3850 C   0  0  0  0  0  0  0  0  0  0  0  0
  -18.9490  -30.1380   23.9750 C   0  0  0  0  0  3  0  0  0  0  0  0
  -17.6450  -30.6400   24.1440 C   0  0  0  0  0  3  0  0  0  0  0  0
  -16.5390  -29.8750   23.7340 C   0  0  0  0  0  3  0  0  0  0  0  0
  -16.7410  -28.6130   23.1480 C   0  0  0  0  0  3  0  0  0  0  0  0
  -25.8870  -32.5480   23.8590 C   0  0  0  0  0  3  0  0  0  0  0  0
  -25.5770  -33.9490   24.1800 N   0  0  0  0  0  0  0  0  0  0  0  0
  -25.9150  -34.9970   23.4170 C   0  0  0  0  0  0  0  0  0  0  0  0
  -26.5890  -34.8870   22.3880 O   0  0  0  0  0  0  0  0  0  0  0  0
  -24.9750  -34.1060   24.9740 H   0  0  0  0  0  0  0  0  0  0  0  0
  -24.1910  -36.7910   23.0440 C   0  0  0  0  0  1  0  0  0  0  0  0
  -25.4270  -36.3890   23.8640 C   0  0  0  0  0  3  0  0  0  0  0  0
  -27.5600  -37.2750   24.7010 C   0  0  0  0  0  1  0  0  0  0  0  0
  -26.4630  -37.4390   23.7490 N   0  0  0  0  0  0  0  0  0  0  0  0
  -26.0590  -38.3610   23.8880 H   0  0  0  0  0  0  0  0  0  0  0  0
  -26.4030  -31.7850   25.1420 C   0  0  1  0  0  0  0  0  0  0  0  0
  -25.3100  -31.5550   26.2110 C   0  0  0  0  0  1  0  0  0  0  0  0
  -26.9860  -30.4050   24.7600 C   0  0  0  0  0  1  0  0  0  0  0  0
  -27.5550  -32.5840   25.7970 C   0  0  0  0  0  1  0  0  0  0  0  0
  1  3  1  0
  2  4  2  0
  2  5  1  0
  4  6  1  0
  5  1  2  0
  6 48  1  0
  6  3  2  0
  7  5  1  0
  7  9  1  0
  8  7  2  0
  9 11  1  0
  9 10  2  0
 12 11  1  0
 13 18  1  0
 14 15  1  0
 14 13  1  0
 16 15  1  0
 16 23  1  0
 16 17  1  0
 18 12  1  0
 18 17  1  0
 19 12  2  0
 20 21  2  0
 21 40  1  0
 22 21  1  0
 22 25  1  0
 23 20  1  0
 23 24  1  0
 24 22  2  0
 25 26  1  0
 26 27  2  0
 28 31  1  0
 28 27  1  0
 29 28  2  0
 30 29  1  0
 30 25  2  0
 31 32  1  0
 32 33  1  0
 33 34  2  0
 35 34  1  0
 35 39  1  0
 36 35  2  0
 37 32  2  0
 37 36  1  0
 38 37  1  0
 40 41  1  0
 41 44  1  0
 41 43  1  0
 42 40  2  0
 45 46  1  0
 45 20  1  0
 47 45  1  0
 49 50  1  0
 49 48  2  0
 51 62  2  0
 52 50  1  0
 52 57  1  0
 53 61  1  0
 53 63  1  0
 54 60  1  0
 54 56  1  0
 55 61  1  0
 56 55  1  0
 57 56  2  0
 58 59  1  0
 58 52  2  0
 59 54  2  0
 60 53  1  0
 61 51  1  0
 63 65  2  0
 64 63  1  0
 66 64  1  0
 67 76  2  0
 67 72  1  0
 68 64  1  0
 68 72  1  0
 69 68  1  0
 70 71  1  0
 70 69  1  0
 71 67  1  0
 72 73  2  0
 73 74  1  0
 75 74  2  0
 76 75  1  0
 77 51  1  0
 77 78  1  0
 77 87  1  0
 78 81  1  0
 79 83  1  0
 79 78  1  0
 80 79  2  0
 83 82  1  0
 85 83  1  0
 85 86  1  0
 85 84  1  0
 87 90  1  1
 87 88  1  0
 89 87  1  0
M  ISO  4  11 100  12 100  49 101  50 101
M  END
>  <TORSDO>  (28) 
F 21

>  <SCORE>  (28) 
-13.628

>  <name>  (28) 
27

>  <ligand_id>  (28) 
27

>  <original_smiles>  (28) 
[H]c1c([H])c([H])c2c(c1[H])C([H])([H])C([H])([H])C([H])([H])C2([H])N([H])C(=O)C1([H])N(C(=O)C([H])(N([H])C(=O)C([H])(N([H])C([H])([H])[H])C([H])([H])[H])C(C([H])([H])[H])(C([H])([H])[H])C([H])([H])[H])C([H])([H])c2c([H])c(OC([H])([H])C([H])([H])c3c([H])c([H])c(C(=O)C(=O)[N-]C(=O)N4C([H])([H])C([H])([H])C([H])([H])C([H])(n5nc(-c6c([H])c([H])c(Oc7c([H])c([H])c(F)c([H])c7F)c([H])c6[H])c(C(=O)N([H])[H])c5N([H])[H])C4([H])[H])c([H])c3[H])c([H])c([H])c2C1([H])[H]

>  <smiles>  (28) 
[H]c1c([H])c([H])c2c(c1[H])C([H])([H])C([H])([H])C([H])([H])C2([H])N([H])C(=O)C1([H])N(C(=O)C([H])(N([H])C(=O)C([H])(N([H])C([H])([H])[H])C([H])([H])[H])C(C([H])([H])[H])(C([H])([H])[H])C([H])([H])[H])C([H])([H])c2c([H])c(OC([H])([H])C([H])([H])c3c([H])c([H])c(C(=O)C(=O)[N-]C(=O)N4C([H])([H])C([H])([H])C([H])([H])C([H])(n5nc(-c6c([H])c([H])c(Oc7c([H])c([H])c(F)c([H])c7F)c([H])c6[H])c(C(=O)N([H])[H])c5N([H])[H])C4([H])[H])c([H])c3[H])c([H])c([H])c2C1([H])[H]

$$$$
28:0:0
     RDKit          3D

 90 98  0  0  1  0  0  0  0  0999 V2000
  -30.8670  -21.0440   20.4490 C   0  0  0  0  0  3  0  0  0  0  0  0
  -31.2620  -22.3980   20.5920 C   0  0  0  0  0  3  0  0  0  0  0  0
  -28.6300  -21.8620   20.0560 C   0  0  0  0  0  3  0  0  0  0  0  0
  -29.5350  -20.6740   20.1710 C   0  0  0  0  0  0  0  0  0  0  0  0
  -30.3730  -23.5000   20.4680 C   0  0  0  0  0  0  0  0  0  0  0  0
  -28.9930  -23.3080   20.1960 C   0  0  0  0  0  0  0  0  0  0  0  0
  -30.9430  -24.8980   20.6240 C   0  0  0  0  0  1  0  0  0  0  0  0
  -29.1940  -19.0820   20.0310 C   0  0  0  0  0  0  0  0  0  0  0  0
  -28.0110  -18.7720   19.8710 O   0  0  0  0  0  0  0  0  0  0  0  0
  -30.2630  -17.7910   20.0370 C   0  0  0  0  0  2  0  0  0  0  0  0
  -30.5790  -15.0510   19.9930 C   0  0  0  0  0  0  0  0  0  0  0  0
  -30.3970  -12.7310   18.9360 C   0  0  0  0  0  2  0  0  0  0  0  0
  -29.3770  -12.7120   17.7710 C   0  0  0  0  0  2  0  0  0  0  0  0
  -27.9430  -12.4790   18.2880 C   0  0  0  0  0  2  0  0  0  0  0  0
  -27.6250  -13.3400   19.5380 C   0  0  0  0  0  3  0  0  0  0  0  0
  -28.7590  -13.2560   20.5780 C   0  0  0  0  0  2  0  0  0  0  0  0
  -29.9730  -13.7800   19.9200 N   0  0  0  0  0  0  0  0  0  0  0  0
  -31.7210  -15.1170   19.5240 O   0  0  0  0  0  0  0  0  0  0  0  0
  -29.0560  -16.2300   21.5630 C   0  0  0  0  0  1  0  0  0  0  0  0
  -29.8830  -16.2670   20.3520 N   0  0  0  0  0  0  0  0  0  0  0  0
  -25.3000  -13.8910   20.4550 C   0  0  0  0  0  0  0  0  0  0  0  0
  -24.2630  -13.1020   20.8700 C   0  0  0  0  0  0  0  0  0  0  0  0
  -24.7230  -11.7540   20.7580 C   0  0  0  0  0  0  0  0  0  0  0  0
  -26.3230  -13.0230   20.1130 N   0  0  0  0  0  0  0  0  0  0  0  0
  -25.9890  -11.7300   20.3580 N   0  0  0  0  0  0  0  0  0  0  0  0
  -24.0080  -10.4860   20.9520 C   0  0  0  0  0  0  0  0  0  0  0  0
  -24.4600   -9.5150   21.8730 C   0  0  0  0  0  3  0  0  0  0  0  0
  -23.7430   -8.3130   22.0560 C   0  0  0  0  0  3  0  0  0  0  0  0
  -22.5590   -8.0740   21.3180 C   0  0  0  0  0  0  0  0  0  0  0  0
  -22.1260   -9.0330   20.3870 C   0  0  0  0  0  3  0  0  0  0  0  0
  -22.8440  -10.2270   20.2020 C   0  0  0  0  0  3  0  0  0  0  0  0
  -21.8130   -6.9240   21.4120 O   0  0  0  0  0  0  0  0  0  0  0  0
  -21.7290   -6.2130   22.5810 C   0  0  0  0  0  0  0  0  0  0  0  0
  -21.2510   -6.7950   23.7750 C   0  0  0  0  0  3  0  0  0  0  0  0
  -21.1170   -6.0100   24.9370 C   0  0  0  0  0  3  0  0  0  0  0  0
  -21.4500   -4.6420   24.9050 C   0  0  0  0  0  0  0  0  0  0  0  0
  -21.9200   -4.0580   23.7150 C   0  0  0  0  0  3  0  0  0  0  0  0
  -22.0560   -4.8420   22.5550 C   0  0  0  0  0  0  0  0  0  0  0  0
  -22.4890   -4.2700   21.4060 F   0  0  0  0  0  0  0  0  0  0  0  0
  -21.3130   -3.8840   26.0180 F   0  0  0  0  0  0  0  0  0  0  0  0
  -22.8890  -13.5690   21.2520 C   0  0  0  0  0  0  0  0  0  0  0  0
  -22.2260  -12.8510   22.1520 N   0  0  0  0  0  0  0  0  0  0  0  0
  -22.4140  -14.6060   20.7910 O   0  0  0  0  0  0  0  0  0  0  0  0
  -22.6230  -12.0120   22.5460 H   0  0  0  0  0  0  0  0  0  0  0  0
  -21.3060  -13.1440   22.4480 H   0  0  0  0  0  0  0  0  0  0  0  0
  -25.4490  -15.2680   20.3150 N   0  0  0  0  0  0  0  0  0  0  0  0
  -24.6930  -15.9140   20.5130 H   0  0  0  0  0  0  0  0  0  0  0  0
  -26.2760  -15.7270   19.9530 H   0  0  0  0  0  0  0  0  0  0  0  0
  -27.9740  -24.6160   20.0110 C   0  0  0  0  0  2  0  0  0  0  0  0
  -28.2650  -26.1440   20.2450 O   0  0  0  0  0  0  0  0  0  0  0  0
  -24.6300  -31.8550   23.2470 C   0  0  0  0  0  0  0  0  0  0  0  0
  -27.2160  -27.1450   20.1850 C   0  0  0  0  0  0  0  0  0  0  0  0
  -23.4350  -30.4740   21.5940 C   0  0  0  0  0  3  0  0  0  0  0  0
  -24.8870  -28.9070   20.1620 C   0  0  0  0  0  0  0  0  0  0  0  0
  -25.9920  -30.7320   21.4420 C   0  0  0  0  0  2  0  0  0  0  0  0
  -26.0670  -29.3440   20.7770 C   0  0  0  0  0  0  0  0  0  0  0  0
  -27.2320  -28.4800   20.7690 C   0  0  0  0  0  3  0  0  0  0  0  0
  -26.0050  -26.8180   19.5330 C   0  0  0  0  0  3  0  0  0  0  0  0
  -24.8700  -27.6590   19.5240 C   0  0  0  0  0  3  0  0  0  0  0  0
  -23.6600  -29.8060   20.2120 C   0  0  0  0  0  2  0  0  0  0  0  0
  -24.7060  -31.0430   22.1490 N   0  0  0  0  0  0  0  0  0  0  0  0
  -23.5410  -32.1370   23.7730 O   0  0  0  0  0  0  0  0  0  0  0  0
  -22.7500  -29.4610   22.5460 C   0  0  0  0  0  0  0  0  0  0  0  0
  -21.4200  -29.2980   22.4160 N   0  0  0  0  0  0  0  0  0  0  0  0
  -23.4160  -28.8250   23.3660 O   0  0  0  0  0  0  0  0  0  0  0  0
  -20.9370  -29.8610   21.7310 H   0  0  0  0  0  0  0  0  0  0  0  0
  -18.0320  -28.1130   22.9160 C   0  0  0  0  0  0  0  0  0  0  0  0
  -20.5930  -28.3560   23.1780 C   0  0  0  0  0  3  0  0  0  0  0  0
  -20.6840  -26.9300   22.5870 C   0  0  0  0  0  2  0  0  0  0  0  0
  -19.5770  -26.6270   21.5720 C   0  0  0  0  0  2  0  0  0  0  0  0
  -18.1980  -26.7710   22.2210 C   0  0  0  0  0  2  0  0  0  0  0  0
  -19.1560  -28.8640   23.3500 C   0  0  0  0  0  0  0  0  0  0  0  0
  -18.9450  -30.1190   23.9620 C   0  0  0  0  0  3  0  0  0  0  0  0
  -17.6430  -30.6230   24.1400 C   0  0  0  0  0  3  0  0  0  0  0  0
  -16.5340  -29.8700   23.7200 C   0  0  0  0  0  3  0  0  0  0  0  0
  -16.7290  -28.6160   23.1150 C   0  0  0  0  0  3  0  0  0  0  0  0
  -25.9040  -32.4860   23.8850 C   0  0  0  0  0  3  0  0  0  0  0  0
  -26.4020  -31.7130   25.1690 C   0  0  1  0  0  0  0  0  0  0  0  0
  -25.2960  -31.4810   26.2250 C   0  0  0  0  0  1  0  0  0  0  0  0
  -26.9840  -30.3320   24.7910 C   0  0  0  0  0  1  0  0  0  0  0  0
  -27.5490  -32.5030   25.8430 C   0  0  0  0  0  1  0  0  0  0  0  0
  -25.5950  -33.8860   24.2190 N   0  0  0  0  0  0  0  0  0  0  0  0
  -25.9150  -34.9420   23.4590 C   0  0  0  0  0  0  0  0  0  0  0  0
  -26.5680  -34.8400   22.4170 O   0  0  0  0  0  0  0  0  0  0  0  0
  -25.0140  -34.0380   25.0300 H   0  0  0  0  0  0  0  0  0  0  0  0
  -24.1670  -36.7280   23.1570 C   0  0  0  0  0  1  0  0  0  0  0  0
  -25.4360  -36.3310   23.9290 C   0  0  0  0  0  3  0  0  0  0  0  0
  -27.5910  -37.2320   24.6890 C   0  0  0  0  0  1  0  0  0  0  0  0
  -26.4600  -37.3880   23.7780 N   0  0  0  0  0  0  0  0  0  0  0  0
  -26.0530  -38.3080   23.9330 H   0  0  0  0  0  0  0  0  0  0  0  0
  1  2  1  0
  3  4  1  0
  3  6  2  0
  4  1  2  0
  5  2  2  0
  5  7  1  0
  6  5  1  0
  8 10  1  0
  8  4  1  0
  9  8  2  0
 10 20  1  0
 11 20  1  0
 12 17  1  0
 13 14  1  0
 13 12  1  0
 15 14  1  0
 15 24  1  0
 15 16  1  0
 17 11  1  0
 17 16  1  0
 18 11  2  0
 20 19  1  0
 21 22  2  0
 22 41  1  0
 23 22  1  0
 23 26  1  0
 24 25  1  0
 24 21  1  0
 25 23  2  0
 26 27  1  0
 27 28  2  0
 29 32  1  0
 29 28  1  0
 30 29  2  0
 31 30  1  0
 31 26  2  0
 32 33  1  0
 33 34  1  0
 34 35  2  0
 36 35  1  0
 36 40  1  0
 37 36  2  0
 38 33  2  0
 38 37  1  0
 39 38  1  0
 41 42  1  0
 42 45  1  0
 42 44  1  0
 43 41  2  0
 46 21  1  0
 46 47  1  0
 48 46  1  0
 49  6  1  0
 49 50  1  0
 51 62  2  0
 52 50  1  0
 52 57  1  0
 53 61  1  0
 53 63  1  0
 54 60  1  0
 54 56  1  0
 55 61  1  0
 56 55  1  0
 57 56  2  0
 58 52  2  0
 59 58  1  0
 59 54  2  0
 60 53  1  0
 61 51  1  0
 63 65  2  0
 64 63  1  0
 66 64  1  0
 67 76  2  0
 67 72  1  0
 68 64  1  0
 68 72  1  0
 69 68  1  0
 70 71  1  0
 70 69  1  0
 71 67  1  0
 72 73  2  0
 73 74  1  0
 75 74  2  0
 76 75  1  0
 77 51  1  0
 77 82  1  0
 77 78  1  0
 78 81  1  1
 78 79  1  0
 80 78  1  0
 82 85  1  0
 83 87  1  0
 83 82  1  0
 84 83  2  0
 87 86  1  0
 89 87  1  0
 89 90  1  0
 89 88  1  0
M  ISO  4  11 100  20 100  49 101  50 101
M  END
>  <TORSDO>  (29) 
F 19

>  <SCORE>  (29) 
-13.783

>  <name>  (29) 
28

>  <ligand_id>  (29) 
28

>  <original_smiles>  (29) 
[H]c1c([H])c([H])c2c(c1[H])C([H])([H])C([H])([H])C([H])([H])C2([H])N([H])C(=O)C1([H])N(C(=O)C([H])(N([H])C(=O)C([H])(N([H])C([H])([H])[H])C([H])([H])[H])C(C([H])([H])[H])(C([H])([H])[H])C([H])([H])[H])C([H])([H])c2c([H])c(OC([H])([H])c3c([H])c(C(=O)C([H])([H])N(C(=O)N4C([H])([H])C([H])([H])C([H])([H])C([H])(n5nc(-c6c([H])c([H])c(Oc7c([H])c([H])c(F)c([H])c7F)c([H])c6[H])c(C(=O)N([H])[H])c5N([H])[H])C4([H])[H])C([H])([H])[H])c([H])c([H])c3C([H])([H])[H])c([H])c([H])c2C1([H])[H]

>  <smiles>  (29) 
[H]c1c([H])c([H])c2c(c1[H])C([H])([H])C([H])([H])C([H])([H])C2([H])N([H])C(=O)C1([H])N(C(=O)C([H])(N([H])C(=O)C([H])(N([H])C([H])([H])[H])C([H])([H])[H])C(C([H])([H])[H])(C([H])([H])[H])C([H])([H])[H])C([H])([H])c2c([H])c(OC([H])([H])c3c([H])c(C(=O)C([H])([H])N(C(=O)N4C([H])([H])C([H])([H])C([H])([H])C([H])(n5nc(-c6c([H])c([H])c(Oc7c([H])c([H])c(F)c([H])c7F)c([H])c6[H])c(C(=O)N([H])[H])c5N([H])[H])C4([H])[H])C([H])([H])[H])c([H])c([H])c3C([H])([H])[H])c([H])c([H])c2C1([H])[H]

$$$$
29:0:0
     RDKit          3D

 89 97  0  0  1  0  0  0  0  0999 V2000
  -29.7360  -22.4390   19.6260 C   0  0  0  0  0  3  0  0  0  0  0  0
  -27.5000  -23.7080   20.6230 C   0  0  0  0  0  3  0  0  0  0  0  0
  -28.8080  -21.4560   20.1550 C   0  0  0  0  0  0  0  0  0  0  0  0
  -28.4250  -24.6840   20.0980 C   0  0  0  0  0  0  0  0  0  0  0  0
  -29.5650  -23.9130   19.6060 C   0  0  0  0  0  0  0  0  0  0  0  0
  -27.6710  -22.2400   20.6480 C   0  0  0  0  0  0  0  0  0  0  0  0
  -30.5910  -24.6250   19.0820 F   0  0  0  0  0  0  0  0  0  0  0  0
  -26.6380  -21.5680   21.2100 F   0  0  0  0  0  0  0  0  0  0  0  0
  -28.8500  -19.7570   20.2160 C   0  0  0  0  0  0  0  0  0  0  0  0
  -27.7740  -19.2340   20.5170 O   0  0  0  0  0  0  0  0  0  0  0  0
  -29.9950  -18.5140   19.9710 C   0  0  0  0  0  3  0  0  0  0  0  0
  -29.7230  -16.7930   20.2630 C   0  0  0  0  0  3  0  0  0  0  0  0
  -30.5890  -15.3500   19.8960 C   0  0  0  0  0  0  0  0  0  0  0  0
  -30.5330  -12.9500   18.9470 C   0  0  0  0  0  2  0  0  0  0  0  0
  -29.5260  -12.8470   17.7730 C   0  0  0  0  0  2  0  0  0  0  0  0
  -28.1000  -12.5820   18.2890 C   0  0  0  0  0  2  0  0  0  0  0  0
  -27.7400  -13.4890   19.4940 C   0  0  0  0  0  3  0  0  0  0  0  0
  -28.8610  -13.5450   20.5500 C   0  0  0  0  0  2  0  0  0  0  0  0
  -30.0720  -14.0340   19.8780 N   0  0  0  0  0  0  0  0  0  0  0  0
  -31.7670  -15.4230   19.5160 O   0  0  0  0  0  0  0  0  0  0  0  0
  -25.4240  -14.0210   20.4300 C   0  0  0  0  0  0  0  0  0  0  0  0
  -24.3890  -13.2280   20.8430 C   0  0  0  0  0  0  0  0  0  0  0  0
  -24.8510  -11.8810   20.7260 C   0  0  0  0  0  0  0  0  0  0  0  0
  -26.4460  -13.1570   20.0780 N   0  0  0  0  0  0  0  0  0  0  0  0
  -26.1180  -11.8610   20.3230 N   0  0  0  0  0  0  0  0  0  0  0  0
  -24.1390  -10.6100   20.9180 C   0  0  0  0  0  0  0  0  0  0  0  0
  -24.5780   -9.6500   21.8550 C   0  0  0  0  0  3  0  0  0  0  0  0
  -23.8630   -8.4460   22.0350 C   0  0  0  0  0  3  0  0  0  0  0  0
  -22.6930   -8.1950   21.2790 C   0  0  0  0  0  0  0  0  0  0  0  0
  -22.2710   -9.1450   20.3330 C   0  0  0  0  0  3  0  0  0  0  0  0
  -22.9880  -10.3390   20.1500 C   0  0  0  0  0  3  0  0  0  0  0  0
  -21.9500   -7.0420   21.3690 O   0  0  0  0  0  0  0  0  0  0  0  0
  -21.8410   -6.3450   22.5450 C   0  0  0  0  0  0  0  0  0  0  0  0
  -21.2880   -6.9260   23.7080 C   0  0  0  0  0  3  0  0  0  0  0  0
  -21.1310   -6.1530   24.8750 C   0  0  0  0  0  3  0  0  0  0  0  0
  -21.5160   -4.7990   24.8800 C   0  0  0  0  0  0  0  0  0  0  0  0
  -22.0600   -4.2160   23.7220 C   0  0  0  0  0  3  0  0  0  0  0  0
  -22.2180   -4.9880   22.5570 C   0  0  0  0  0  0  0  0  0  0  0  0
  -22.7240   -4.4160   21.4380 F   0  0  0  0  0  0  0  0  0  0  0  0
  -21.3570   -4.0540   25.9990 F   0  0  0  0  0  0  0  0  0  0  0  0
  -23.0140  -13.6920   21.2250 C   0  0  0  0  0  0  0  0  0  0  0  0
  -22.3500  -12.9690   22.1200 N   0  0  0  0  0  0  0  0  0  0  0  0
  -22.5380  -14.7290   20.7660 O   0  0  0  0  0  0  0  0  0  0  0  0
  -22.7500  -12.1290   22.5130 H   0  0  0  0  0  0  0  0  0  0  0  0
  -21.4300  -13.2580   22.4170 H   0  0  0  0  0  0  0  0  0  0  0  0
  -25.5740  -15.3980   20.2990 N   0  0  0  0  0  0  0  0  0  0  0  0
  -24.8210  -16.0450   20.5040 H   0  0  0  0  0  0  0  0  0  0  0  0
  -26.4050  -15.8580   19.9480 H   0  0  0  0  0  0  0  0  0  0  0  0
  -28.3740  -26.1990   20.1450 O   0  0  0  0  0  0  0  0  0  0  0  0
  -24.6800  -31.9140   23.2650 C   0  0  0  0  0  0  0  0  0  0  0  0
  -27.2830  -27.1820   20.1610 C   0  0  0  0  0  0  0  0  0  0  0  0
  -23.4940  -30.5460   21.5940 C   0  0  0  0  0  3  0  0  0  0  0  0
  -24.9540  -28.9810   20.1470 C   0  0  0  0  0  0  0  0  0  0  0  0
  -26.0510  -30.7970   21.4500 C   0  0  0  0  0  2  0  0  0  0  0  0
  -26.1310  -29.4050   20.7760 C   0  0  0  0  0  0  0  0  0  0  0  0
  -27.2890  -28.5220   20.7620 C   0  0  0  0  0  3  0  0  0  0  0  0
  -26.0780  -26.8830   19.4910 C   0  0  0  0  0  3  0  0  0  0  0  0
  -24.9460  -27.7380   19.4900 C   0  0  0  0  0  3  0  0  0  0  0  0
  -23.7260  -29.8850   20.2050 C   0  0  0  0  0  2  0  0  0  0  0  0
  -24.7630  -31.1110   22.1570 N   0  0  0  0  0  0  0  0  0  0  0  0
  -23.5890  -32.1870   23.7920 O   0  0  0  0  0  0  0  0  0  0  0  0
  -22.8100  -29.5250   22.5380 C   0  0  0  0  0  0  0  0  0  0  0  0
  -21.4850  -29.3380   22.3910 N   0  0  0  0  0  0  0  0  0  0  0  0
  -23.4760  -28.9020   23.3680 O   0  0  0  0  0  0  0  0  0  0  0  0
  -21.0050  -29.8920   21.6950 H   0  0  0  0  0  0  0  0  0  0  0  0
  -18.1150  -28.0790   22.8400 C   0  0  0  0  0  0  0  0  0  0  0  0
  -20.6670  -28.3780   23.1380 C   0  0  0  0  0  3  0  0  0  0  0  0
  -20.7960  -26.9560   22.5430 C   0  0  0  0  0  2  0  0  0  0  0  0
  -19.7110  -26.6330   21.5120 C   0  0  0  0  0  2  0  0  0  0  0  0
  -18.3200  -26.7440   22.1430 C   0  0  0  0  0  2  0  0  0  0  0  0
  -19.2170  -28.8530   23.2930 C   0  0  0  0  0  0  0  0  0  0  0  0
  -18.9700  -30.1000   23.9080 C   0  0  0  0  0  3  0  0  0  0  0  0
  -17.6550  -30.5740   24.0700 C   0  0  0  0  0  3  0  0  0  0  0  0
  -16.5680  -29.7980   23.6320 C   0  0  0  0  0  3  0  0  0  0  0  0
  -16.7990  -28.5520   23.0230 C   0  0  0  0  0  3  0  0  0  0  0  0
  -25.9500  -32.5470   23.9120 C   0  0  0  0  0  3  0  0  0  0  0  0
  -26.4340  -31.7790   25.2050 C   0  0  1  0  0  0  0  0  0  0  0  0
  -25.3170  -31.5540   26.2510 C   0  0  0  0  0  1  0  0  0  0  0  0
  -27.0160  -30.3950   24.8380 C   0  0  0  0  0  1  0  0  0  0  0  0
  -27.5750  -32.5690   25.8880 C   0  0  0  0  0  1  0  0  0  0  0  0
  -25.6380  -33.9480   24.2410 N   0  0  0  0  0  0  0  0  0  0  0  0
  -25.9400  -35.0030   23.4710 C   0  0  0  0  0  0  0  0  0  0  0  0
  -26.5750  -34.8990   22.4190 O   0  0  0  0  0  0  0  0  0  0  0  0
  -25.0660  -34.1010   25.0590 H   0  0  0  0  0  0  0  0  0  0  0  0
  -24.1690  -36.7730   23.2090 C   0  0  0  0  0  1  0  0  0  0  0  0
  -25.4660  -36.3940   23.9410 C   0  0  0  0  0  3  0  0  0  0  0  0
  -27.6290  -37.3320   24.6320 C   0  0  0  0  0  1  0  0  0  0  0  0
  -26.4770  -37.4560   23.7410 N   0  0  0  0  0  0  0  0  0  0  0  0
  -26.0680  -38.3770   23.8750 H   0  0  0  0  0  0  0  0  0  0  0  0
  1  3  1  0
  2  6  1  0
  3  9  1  0
  3  6  2  0
  4 49  1  0
  4  2  2  0
  5  1  2  0
  5  4  1  0
  6  8  1  0
  7  5  1  0
  9 10  2  0
 11  9  1  0
 11 12  2  0
 13 12  1  0
 14 19  1  0
 15 16  1  0
 15 14  1  0
 17 16  1  0
 17 24  1  0
 17 18  1  0
 19 13  1  0
 19 18  1  0
 20 13  2  0
 21 22  2  0
 22 41  1  0
 23 22  1  0
 23 26  1  0
 24 25  1  0
 24 21  1  0
 25 23  2  0
 26 27  1  0
 27 28  2  0
 29 32  1  0
 29 28  1  0
 30 29  2  0
 31 30  1  0
 31 26  2  0
 32 33  1  0
 33 38  2  0
 33 34  1  0
 34 35  2  0
 35 36  1  0
 36 40  1  0
 37 36  2  0
 38 37  1  0
 39 38  1  0
 41 42  1  0
 42 45  1  0
 42 44  1  0
 43 41  2  0
 46 21  1  0
 46 47  1  0
 48 46  1  0
 49 51  1  0
 50 61  2  0
 51 56  1  0
 52 60  1  0
 52 62  1  0
 53 59  1  0
 53 55  1  0
 54 60  1  0
 55 54  1  0
 56 55  2  0
 57 51  2  0
 58 57  1  0
 58 53  2  0
 59 52  1  0
 60 50  1  0
 62 64  2  0
 63 62  1  0
 65 63  1  0
 66 75  2  0
 66 71  1  0
 67 63  1  0
 67 71  1  0
 68 67  1  0
 69 70  1  0
 69 68  1  0
 70 66  1  0
 71 72  2  0
 72 73  1  0
 74 73  2  0
 75 74  1  0
 76 50  1  0
 76 81  1  0
 76 77  1  0
 77 80  1  1
 77 78  1  0
 79 77  1  0
 81 84  1  0
 82 86  1  0
 82 81  1  0
 83 82  2  0
 86 85  1  0
 88 89  1  0
 88 86  1  0
 88 87  1  0
M  ISO  4   4 101  12 100  13 100  49 101
M  END
>  <TORSDO>  (30) 
F 19

>  <SCORE>  (30) 
-15.010

>  <name>  (30) 
29

>  <ligand_id>  (30) 
29

>  <original_smiles>  (30) 
[H]c1c([H])c([H])c2c(c1[H])C([H])([H])C([H])([H])C([H])([H])C2([H])N([H])C(=O)C1([H])N(C(=O)C([H])(N([H])C(=O)C([H])(N([H])C([H])([H])[H])C([H])([H])[H])C(C([H])([H])[H])(C([H])([H])[H])C([H])([H])[H])C([H])([H])c2c([H])c(Oc3c([H])c(F)c(C(=O)C([H])([H])C([H])([H])C(=O)N4C([H])([H])C([H])([H])C([H])([H])C([H])(n5nc(-c6c([H])c([H])c(Oc7c([H])c([H])c(F)c([H])c7F)c([H])c6[H])c(C(=O)N([H])[H])c5N([H])[H])C4([H])[H])c([H])c3F)c([H])c([H])c2C1([H])[H]

>  <smiles>  (30) 
[H]c1c([H])c([H])c2c(c1[H])C([H])([H])C([H])([H])C([H])([H])C2([H])N([H])C(=O)C1([H])N(C(=O)C([H])(N([H])C(=O)C([H])(N([H])C([H])([H])[H])C([H])([H])[H])C(C([H])([H])[H])(C([H])([H])[H])C([H])([H])[H])C([H])([H])c2c([H])c(Oc3c([H])c(F)c(C(=O)C([H])([H])C([H])([H])C(=O)N4C([H])([H])C([H])([H])C([H])([H])C([H])(n5nc(-c6c([H])c([H])c(Oc7c([H])c([H])c(F)c([H])c7F)c([H])c6[H])c(C(=O)N([H])[H])c5N([H])[H])C4([H])[H])c([H])c3F)c([H])c([H])c2C1([H])[H]

$$$$
30:0:0
     RDKit          3D

 89 97  0  0  1  0  0  0  0  0999 V2000
  -28.2250  -20.3320   20.5690 C   0  0  0  0  0  3  0  0  0  0  0  0
  -27.7540  -21.7330   20.5580 C   0  0  0  0  0  3  0  0  0  0  0  0
  -29.8810  -22.5010   20.1110 C   0  0  0  0  0  3  0  0  0  0  0  0
  -29.5770  -19.8760   20.3220 C   0  0  0  0  0  0  0  0  0  0  0  0
  -28.5270  -22.9460   20.3220 C   0  0  0  0  0  0  0  0  0  0  0  0
  -30.3670  -21.0970   20.0940 C   0  0  0  0  0  0  0  0  0  0  0  0
  -30.1980  -18.3040   20.1310 C   0  0  0  0  0  0  0  0  0  0  0  0
  -31.2150  -18.2460   19.4370 O   0  0  0  0  0  0  0  0  0  0  0  0
  -29.7550  -16.7430   20.6560 C   0  0  0  0  0  2  0  0  0  0  0  0
  -30.5670  -15.2580   20.3220 C   0  0  0  0  0  0  0  0  0  0  0  0
  -30.5070  -12.8590   19.3770 C   0  0  0  0  0  2  0  0  0  0  0  0
  -29.5670  -12.7620   18.1480 C   0  0  0  0  0  2  0  0  0  0  0  0
  -28.1140  -12.5130   18.5900 C   0  0  0  0  0  2  0  0  0  0  0  0
  -27.6950  -13.4350   19.7640 C   0  0  0  0  0  3  0  0  0  0  0  0
  -28.7580  -13.4940   20.8820 C   0  0  0  0  0  2  0  0  0  0  0  0
  -30.0120  -13.9590   20.2740 N   0  0  0  0  0  0  0  0  0  0  0  0
  -31.7650  -15.2760   20.0070 O   0  0  0  0  0  0  0  0  0  0  0  0
  -25.3270  -13.9850   20.5460 C   0  0  0  0  0  0  0  0  0  0  0  0
  -24.2690  -13.2010   20.9120 C   0  0  0  0  0  0  0  0  0  0  0  0
  -24.7370  -11.8510   20.8560 C   0  0  0  0  0  0  0  0  0  0  0  0
  -26.3690  -13.1150   20.2770 N   0  0  0  0  0  0  0  0  0  0  0  0
  -26.0260  -11.8240   20.5320 N   0  0  0  0  0  0  0  0  0  0  0  0
  -24.0130  -10.5850   21.0330 C   0  0  0  0  0  0  0  0  0  0  0  0
  -24.4390   -9.6120   21.9640 C   0  0  0  0  0  3  0  0  0  0  0  0
  -23.7110   -8.4130   22.1290 C   0  0  0  0  0  3  0  0  0  0  0  0
  -22.5450   -8.1790   21.3640 C   0  0  0  0  0  0  0  0  0  0  0  0
  -22.1380   -9.1410   20.4230 C   0  0  0  0  0  3  0  0  0  0  0  0
  -22.8660  -10.3310   20.2550 C   0  0  0  0  0  3  0  0  0  0  0  0
  -21.7910   -7.0320   21.4380 O   0  0  0  0  0  0  0  0  0  0  0  0
  -21.7110   -6.2980   22.5940 C   0  0  0  0  0  0  0  0  0  0  0  0
  -21.2150   -6.8490   23.7960 C   0  0  0  0  0  3  0  0  0  0  0  0
  -21.0850   -6.0390   24.9410 C   0  0  0  0  0  3  0  0  0  0  0  0
  -21.4410   -4.6780   24.8870 C   0  0  0  0  0  0  0  0  0  0  0  0
  -21.9300   -4.1260   23.6900 C   0  0  0  0  0  3  0  0  0  0  0  0
  -22.0610   -4.9330   22.5460 C   0  0  0  0  0  0  0  0  0  0  0  0
  -22.5120   -4.3900   21.3890 F   0  0  0  0  0  0  0  0  0  0  0  0
  -21.3090   -3.8970   25.9850 F   0  0  0  0  0  0  0  0  0  0  0  0
  -22.8720  -13.6710   21.1990 C   0  0  0  0  0  0  0  0  0  0  0  0
  -22.1490  -12.9580   22.0540 N   0  0  0  0  0  0  0  0  0  0  0  0
  -22.4340  -14.7090   20.7030 O   0  0  0  0  0  0  0  0  0  0  0  0
  -22.5190  -12.1190   22.4760 H   0  0  0  0  0  0  0  0  0  0  0  0
  -21.2140  -13.2570   22.2900 H   0  0  0  0  0  0  0  0  0  0  0  0
  -25.4850  -15.3580   20.3910 N   0  0  0  0  0  0  0  0  0  0  0  0
  -24.7170  -16.0070   20.5300 H   0  0  0  0  0  0  0  0  0  0  0  0
  -26.3270  -15.8080   20.0530 H   0  0  0  0  0  0  0  0  0  0  0  0
  -32.2880  -21.7130   18.8220 C   0  0  0  0  0  1  0  0  0  0  0  0
  -31.7020  -20.8960   19.8290 O   0  0  0  0  0  0  0  0  0  0  0  0
  -27.8000  -24.4870   20.0990 C   0  0  0  0  0  2  0  0  0  0  0  0
  -28.2010  -26.0250   20.3370 O   0  0  0  0  0  0  0  0  0  0  0  0
  -24.6060  -31.9030   23.2520 C   0  0  0  0  0  0  0  0  0  0  0  0
  -27.2040  -27.1090   20.2410 C   0  0  0  0  0  0  0  0  0  0  0  0
  -23.4260  -30.5070   21.6040 C   0  0  0  0  0  3  0  0  0  0  0  0
  -24.8910  -28.9330   20.1800 C   0  0  0  0  0  0  0  0  0  0  0  0
  -25.9890  -30.7530   21.4670 C   0  0  0  0  0  2  0  0  0  0  0  0
  -26.0710  -29.3520   20.8100 C   0  0  0  0  0  0  0  0  0  0  0  0
  -27.2250  -28.4590   20.8220 C   0  0  0  0  0  3  0  0  0  0  0  0
  -26.0000  -26.8340   19.5510 C   0  0  0  0  0  3  0  0  0  0  0  0
  -24.8790  -27.6930   19.5290 C   0  0  0  0  0  3  0  0  0  0  0  0
  -23.6620  -29.8340   20.2240 C   0  0  0  0  0  2  0  0  0  0  0  0
  -24.6940  -31.0790   22.1610 N   0  0  0  0  0  0  0  0  0  0  0  0
  -23.5130  -32.1840   23.7700 O   0  0  0  0  0  0  0  0  0  0  0  0
  -22.7390  -29.4980   22.5610 C   0  0  0  0  0  0  0  0  0  0  0  0
  -21.4120  -29.3200   22.4250 N   0  0  0  0  0  0  0  0  0  0  0  0
  -23.4060  -28.8800   23.3940 O   0  0  0  0  0  0  0  0  0  0  0  0
  -20.9280  -29.8720   21.7320 H   0  0  0  0  0  0  0  0  0  0  0  0
  -18.0330  -28.0990   22.9160 C   0  0  0  0  0  0  0  0  0  0  0  0
  -20.5900  -28.3760   23.1900 C   0  0  0  0  0  3  0  0  0  0  0  0
  -20.7010  -26.9460   22.6120 C   0  0  0  0  0  2  0  0  0  0  0  0
  -19.6040  -26.6210   21.5930 C   0  0  0  0  0  2  0  0  0  0  0  0
  -18.2190  -26.7560   22.2330 C   0  0  0  0  0  2  0  0  0  0  0  0
  -19.1450  -28.8680   23.3500 C   0  0  0  0  0  0  0  0  0  0  0  0
  -18.9150  -30.1260   23.9500 C   0  0  0  0  0  3  0  0  0  0  0  0
  -17.6060  -30.6150   24.1160 C   0  0  0  0  0  3  0  0  0  0  0  0
  -16.5080  -29.8450   23.6950 C   0  0  0  0  0  3  0  0  0  0  0  0
  -16.7220  -28.5890   23.1010 C   0  0  0  0  0  3  0  0  0  0  0  0
  -25.8730  -32.5480   23.8890 C   0  0  0  0  0  3  0  0  0  0  0  0
  -26.3590  -31.8010   25.1920 C   0  0  1  0  0  0  0  0  0  0  0  0
  -25.2430  -31.5880   26.2410 C   0  0  0  0  0  1  0  0  0  0  0  0
  -26.9470  -30.4130   24.8460 C   0  0  0  0  0  1  0  0  0  0  0  0
  -27.4970  -32.6060   25.8640 C   0  0  0  0  0  1  0  0  0  0  0  0
  -25.5590  -33.9530   24.1970 N   0  0  0  0  0  0  0  0  0  0  0  0
  -25.8980  -35.0000   23.4330 C   0  0  0  0  0  0  0  0  0  0  0  0
  -26.5730  -34.8850   22.4070 O   0  0  0  0  0  0  0  0  0  0  0  0
  -24.9610  -34.1180   24.9930 H   0  0  0  0  0  0  0  0  0  0  0  0
  -24.1820  -36.8030   23.0510 C   0  0  0  0  0  1  0  0  0  0  0  0
  -25.4120  -36.3950   23.8770 C   0  0  0  0  0  3  0  0  0  0  0  0
  -27.5350  -37.2870   24.7290 C   0  0  0  0  0  1  0  0  0  0  0  0
  -26.4510  -37.4440   23.7650 N   0  0  0  0  0  0  0  0  0  0  0  0
  -26.0440  -38.3670   23.8930 H   0  0  0  0  0  0  0  0  0  0  0  0
  2  1  1  0
  3  5  1  0
  4  1  2  0
  5  2  2  0
  6  3  2  0
  6  4  1  0
  7  4  1  0
  7  9  1  0
  8  7  2  0
 10  9  1  0
 11 16  1  0
 12 13  1  0
 12 11  1  0
 14 13  1  0
 14 21  1  0
 14 15  1  0
 16 10  1  0
 16 15  1  0
 17 10  2  0
 18 19  2  0
 19 38  1  0
 20 19  1  0
 20 23  1  0
 21 22  1  0
 21 18  1  0
 22 20  2  0
 23 24  1  0
 24 25  2  0
 26 29  1  0
 26 25  1  0
 27 26  2  0
 28 27  1  0
 28 23  2  0
 29 30  1  0
 30 31  1  0
 31 32  2  0
 33 32  1  0
 33 37  1  0
 34 33  2  0
 35 30  2  0
 35 34  1  0
 36 35  1  0
 38 39  1  0
 39 42  1  0
 39 41  1  0
 40 38  2  0
 43 44  1  0
 43 18  1  0
 45 43  1  0
 46 47  1  0
 47  6  1  0
 48  5  1  0
 48 49  1  0
 50 61  2  0
 51 49  1  0
 51 56  1  0
 52 60  1  0
 52 62  1  0
 53 59  1  0
 53 55  1  0
 54 60  1  0
 55 56  2  0
 55 54  1  0
 57 51  2  0
 58 57  1  0
 58 53  2  0
 59 52  1  0
 60 50  1  0
 62 64  2  0
 63 62  1  0
 65 63  1  0
 66 75  2  0
 66 71  1  0
 67 63  1  0
 67 71  1  0
 68 67  1  0
 69 70  1  0
 69 68  1  0
 70 66  1  0
 71 72  2  0
 72 73  1  0
 74 73  2  0
 75 74  1  0
 76 50  1  0
 76 81  1  0
 76 77  1  0
 77 80  1  1
 77 78  1  0
 79 77  1  0
 81 84  1  0
 82 86  1  0
 82 81  1  0
 83 82  2  0
 86 85  1  0
 88 86  1  0
 88 89  1  0
 88 87  1  0
M  ISO  4   9 100  10 100  48 101  49 101
M  END
>  <TORSDO>  (31) 
F 20

>  <SCORE>  (31) 
-15.740

>  <name>  (31) 
30

>  <ligand_id>  (31) 
30

>  <original_smiles>  (31) 
[H]c1c([H])c([H])c2c(c1[H])C([H])([H])C([H])([H])C([H])([H])C2([H])N([H])C(=O)C1([H])N(C(=O)C([H])(N([H])C(=O)C([H])(N([H])C([H])([H])[H])C([H])([H])[H])C(C([H])([H])[H])(C([H])([H])[H])C([H])([H])[H])C([H])([H])c2c([H])c(OC([H])([H])c3c([H])c([H])c(C(=O)C([H])([H])C(=O)N4C([H])([H])C([H])([H])C([H])([H])C([H])(n5nc(-c6c([H])c([H])c(Oc7c([H])c([H])c(F)c([H])c7F)c([H])c6[H])c(C(=O)N([H])[H])c5N([H])[H])C4([H])[H])c(OC([H])([H])[H])c3[H])c([H])c([H])c2C1([H])[H]

>  <smiles>  (31) 
[H]c1c([H])c([H])c2c(c1[H])C([H])([H])C([H])([H])C([H])([H])C2([H])N([H])C(=O)C1([H])N(C(=O)C([H])(N([H])C(=O)C([H])(N([H])C([H])([H])[H])C([H])([H])[H])C(C([H])([H])[H])(C([H])([H])[H])C([H])([H])[H])C([H])([H])c2c([H])c(OC([H])([H])c3c([H])c([H])c(C(=O)C([H])([H])C(=O)N4C([H])([H])C([H])([H])C([H])([H])C([H])(n5nc(-c6c([H])c([H])c(Oc7c([H])c([H])c(F)c([H])c7F)c([H])c6[H])c(C(=O)N([H])[H])c5N([H])[H])C4([H])[H])c(OC([H])([H])[H])c3[H])c([H])c([H])c2C1([H])[H]

$$$$
31:0:0
     RDKit          3D

 90 98  0  0  1  0  0  0  0  0999 V2000
  -31.0760  -22.3840   20.8250 C   0  0  0  0  0  3  0  0  0  0  0  0
  -30.6880  -21.0210   20.7360 C   0  0  0  0  0  3  0  0  0  0  0  0
  -30.1880  -23.4670   20.6190 C   0  0  0  0  0  3  0  0  0  0  0  0
  -28.4670  -21.8100   20.2210 C   0  0  0  0  0  3  0  0  0  0  0  0
  -29.3650  -20.6260   20.4200 C   0  0  0  0  0  0  0  0  0  0  0  0
  -28.8300  -23.2620   20.3120 C   0  0  0  0  0  0  0  0  0  0  0  0
  -28.9930  -19.0260   20.3640 C   0  0  0  0  0  0  0  0  0  0  0  0
  -27.7850  -18.7760   20.3830 O   0  0  0  0  0  0  0  0  0  0  0  0
  -29.6330  -16.3450   20.4460 C   0  0  0  0  0  3  0  0  0  0  0  0
  -29.9690  -17.7290   20.2710 C   0  0  0  0  0  0  0  0  0  0  0  0
  -30.4880  -15.0370   20.2970 C   0  0  0  0  0  0  0  0  0  0  0  0
  -30.3980  -12.6530   19.4140 C   0  0  0  0  0  2  0  0  0  0  0  0
  -29.4800  -12.5810   18.1690 C   0  0  0  0  0  2  0  0  0  0  0  0
  -28.0140  -12.3610   18.5880 C   0  0  0  0  0  2  0  0  0  0  0  0
  -27.5880  -13.2980   19.7480 C   0  0  0  0  0  3  0  0  0  0  0  0
  -28.6320  -13.3410   20.8810 C   0  0  0  0  0  2  0  0  0  0  0  0
  -29.9070  -13.7620   20.2880 N   0  0  0  0  0  0  0  0  0  0  0  0
  -31.6950  -15.0560   20.0260 O   0  0  0  0  0  0  0  0  0  0  0  0
  -25.2040  -13.8610   20.4850 C   0  0  0  0  0  0  0  0  0  0  0  0
  -24.1430  -13.0800   20.8510 C   0  0  0  0  0  0  0  0  0  0  0  0
  -24.6150  -11.7320   20.8230 C   0  0  0  0  0  0  0  0  0  0  0  0
  -26.2510  -12.9890   20.2440 N   0  0  0  0  0  0  0  0  0  0  0  0
  -25.9070  -11.7020   20.5160 N   0  0  0  0  0  0  0  0  0  0  0  0
  -23.8940  -10.4650   21.0090 C   0  0  0  0  0  0  0  0  0  0  0  0
  -24.3120   -9.5080   21.9600 C   0  0  0  0  0  3  0  0  0  0  0  0
  -23.5880   -8.3090   22.1350 C   0  0  0  0  0  3  0  0  0  0  0  0
  -22.4310   -8.0580   21.3590 C   0  0  0  0  0  0  0  0  0  0  0  0
  -22.0320   -9.0030   20.3990 C   0  0  0  0  0  3  0  0  0  0  0  0
  -22.7570  -10.1940   20.2230 C   0  0  0  0  0  3  0  0  0  0  0  0
  -21.6800   -6.9100   21.4420 O   0  0  0  0  0  0  0  0  0  0  0  0
  -21.5940   -6.1890   22.6060 C   0  0  0  0  0  0  0  0  0  0  0  0
  -21.1110   -6.7610   23.8030 C   0  0  0  0  0  3  0  0  0  0  0  0
  -20.9750   -5.9650   24.9580 C   0  0  0  0  0  3  0  0  0  0  0  0
  -21.3110   -4.5990   24.9160 C   0  0  0  0  0  0  0  0  0  0  0  0
  -21.7860   -4.0260   23.7240 C   0  0  0  0  0  3  0  0  0  0  0  0
  -21.9250   -4.8190   22.5710 C   0  0  0  0  0  0  0  0  0  0  0  0
  -22.3640   -4.2570   21.4190 F   0  0  0  0  0  0  0  0  0  0  0  0
  -21.1720   -3.8320   26.0240 F   0  0  0  0  0  0  0  0  0  0  0  0
  -22.7420  -13.5510   21.1140 C   0  0  0  0  0  0  0  0  0  0  0  0
  -22.0140  -12.8530   21.9790 N   0  0  0  0  0  0  0  0  0  0  0  0
  -22.3030  -14.5730   20.5890 O   0  0  0  0  0  0  0  0  0  0  0  0
  -22.3820  -12.0270   22.4240 H   0  0  0  0  0  0  0  0  0  0  0  0
  -21.0730  -13.1520   22.1980 H   0  0  0  0  0  0  0  0  0  0  0  0
  -25.3620  -15.2330   20.3100 N   0  0  0  0  0  0  0  0  0  0  0  0
  -24.5890  -15.8810   20.4240 H   0  0  0  0  0  0  0  0  0  0  0  0
  -26.2040  -15.6810   19.9750 H   0  0  0  0  0  0  0  0  0  0  0  0
  -31.2320  -18.0380   19.9410 O   0  0  0  0  0  0  0  0  0  0  0  0
  -31.2490  -18.9670   19.7460 H   0  0  0  0  0  0  0  0  0  0  0  0
  -27.8580  -24.5920   20.0720 C   0  0  0  0  0  2  0  0  0  0  0  0
  -28.2040  -26.1140   20.2850 O   0  0  0  0  0  0  0  0  0  0  0  0
  -24.6430  -31.8810   23.2750 C   0  0  0  0  0  0  0  0  0  0  0  0
  -27.1770  -27.1390   20.2160 C   0  0  0  0  0  0  0  0  0  0  0  0
  -23.4320  -30.5010   21.6320 C   0  0  0  0  0  3  0  0  0  0  0  0
  -24.8670  -28.9250   20.1940 C   0  0  0  0  0  0  0  0  0  0  0  0
  -25.9890  -30.7440   21.4650 C   0  0  0  0  0  2  0  0  0  0  0  0
  -26.0530  -29.3530   20.8040 C   0  0  0  0  0  0  0  0  0  0  0  0
  -27.2080  -28.4770   20.7960 C   0  0  0  0  0  3  0  0  0  0  0  0
  -25.9630  -26.8280   19.5620 C   0  0  0  0  0  3  0  0  0  0  0  0
  -24.8380  -27.6780   19.5560 C   0  0  0  0  0  3  0  0  0  0  0  0
  -23.6460  -29.8320   20.2490 C   0  0  0  0  0  2  0  0  0  0  0  0
  -24.7080  -31.0650   22.1790 N   0  0  0  0  0  0  0  0  0  0  0  0
  -23.5590  -32.1700   23.8060 O   0  0  0  0  0  0  0  0  0  0  0  0
  -22.7480  -29.4940   22.5920 C   0  0  0  0  0  0  0  0  0  0  0  0
  -21.4180  -29.3270   22.4640 N   0  0  0  0  0  0  0  0  0  0  0  0
  -23.4160  -28.8640   23.4160 O   0  0  0  0  0  0  0  0  0  0  0  0
  -20.9350  -29.8870   21.7740 H   0  0  0  0  0  0  0  0  0  0  0  0
  -18.0350  -28.1260   22.9570 C   0  0  0  0  0  0  0  0  0  0  0  0
  -20.5940  -28.3900   23.2320 C   0  0  0  0  0  3  0  0  0  0  0  0
  -20.6970  -26.9570   22.6610 C   0  0  0  0  0  2  0  0  0  0  0  0
  -19.6000  -26.6330   21.6420 C   0  0  0  0  0  2  0  0  0  0  0  0
  -18.2160  -26.7770   22.2800 C   0  0  0  0  0  2  0  0  0  0  0  0
  -19.1520  -28.8900   23.3900 C   0  0  0  0  0  0  0  0  0  0  0  0
  -18.9290  -30.1520   23.9830 C   0  0  0  0  0  3  0  0  0  0  0  0
  -17.6220  -30.6500   24.1460 C   0  0  0  0  0  3  0  0  0  0  0  0
  -16.5200  -29.8830   23.7280 C   0  0  0  0  0  3  0  0  0  0  0  0
  -16.7280  -28.6230   23.1400 C   0  0  0  0  0  3  0  0  0  0  0  0
  -25.9250  -32.5080   23.9020 C   0  0  0  0  0  3  0  0  0  0  0  0
  -26.4290  -31.7350   25.1820 C   0  0  1  0  0  0  0  0  0  0  0  0
  -25.3310  -31.5100   26.2480 C   0  0  0  0  0  1  0  0  0  0  0  0
  -27.0010  -30.3510   24.8000 C   0  0  0  0  0  1  0  0  0  0  0  0
  -27.5850  -32.5200   25.8460 C   0  0  0  0  0  1  0  0  0  0  0  0
  -25.6220  -33.9090   24.2370 N   0  0  0  0  0  0  0  0  0  0  0  0
  -25.9300  -34.9640   23.4710 C   0  0  0  0  0  0  0  0  0  0  0  0
  -26.5670  -34.8590   22.4190 O   0  0  0  0  0  0  0  0  0  0  0  0
  -25.0530  -34.0640   25.0570 H   0  0  0  0  0  0  0  0  0  0  0  0
  -24.1770  -36.7470   23.1960 C   0  0  0  0  0  1  0  0  0  0  0  0
  -25.4610  -36.3540   23.9440 C   0  0  0  0  0  3  0  0  0  0  0  0
  -27.6280  -37.2580   24.6600 C   0  0  0  0  0  1  0  0  0  0  0  0
  -26.4800  -37.4120   23.7700 N   0  0  0  0  0  0  0  0  0  0  0  0
  -26.0770  -38.3310   23.9280 H   0  0  0  0  0  0  0  0  0  0  0  0
  2  1  1  0
  3  1  2  0
  4  6  2  0
  4  5  1  0
  5  2  2  0
  6  3  1  0
  7  8  2  0
  7  5  1  0
 10  7  1  0
 10  9  2  0
 11  9  1  0
 12 17  1  0
 13 14  1  0
 13 12  1  0
 15 14  1  0
 15 22  1  0
 15 16  1  0
 17 11  1  0
 17 16  1  0
 18 11  2  0
 19 20  2  0
 20 39  1  0
 21 20  1  0
 21 24  1  0
 22 19  1  0
 22 23  1  0
 23 21  2  0
 24 25  1  0
 25 26  2  0
 27 30  1  0
 27 26  1  0
 28 27  2  0
 29 28  1  0
 29 24  2  0
 30 31  1  0
 31 32  1  0
 32 33  2  0
 34 33  1  0
 34 38  1  0
 35 34  2  0
 36 31  2  0
 36 35  1  0
 37 36  1  0
 39 40  1  0
 40 43  1  0
 40 42  1  0
 41 39  2  0
 44 45  1  0
 44 19  1  0
 46 44  1  0
 47 10  1  0
 48 47  1  0
 49 50  1  0
 49  6  1  0
 51 62  2  0
 52 50  1  0
 52 57  1  0
 53 61  1  0
 53 63  1  0
 54 60  1  0
 54 56  1  0
 55 61  1  0
 56 55  1  0
 57 56  2  0
 58 52  2  0
 59 58  1  0
 59 54  2  0
 60 53  1  0
 61 51  1  0
 63 65  2  0
 64 63  1  0
 66 64  1  0
 67 76  2  0
 67 72  1  0
 68 64  1  0
 68 72  1  0
 69 68  1  0
 70 71  1  0
 70 69  1  0
 71 67  1  0
 72 73  2  0
 73 74  1  0
 75 74  2  0
 76 75  1  0
 77 51  1  0
 77 82  1  0
 77 78  1  0
 78 81  1  1
 78 79  1  0
 80 78  1  0
 82 85  1  0
 83 87  1  0
 83 82  1  0
 84 83  2  0
 87 86  1  0
 89 90  1  0
 89 87  1  0
 89 88  1  0
M  ISO  4   9 100  11 100  49 101  50 101
M  END
>  <TORSDO>  (32) 
F 20

>  <SCORE>  (32) 
-14.127

>  <name>  (32) 
31

>  <ligand_id>  (32) 
31

>  <original_smiles>  (32) 
[H]OC(C(=O)c1c([H])c([H])c([H])c(C([H])([H])Oc2c([H])c([H])c3c(c2[H])C([H])([H])N(C(=O)C([H])(N([H])C(=O)C([H])(N([H])C([H])([H])[H])C([H])([H])[H])C(C([H])([H])[H])(C([H])([H])[H])C([H])([H])[H])C([H])(C(=O)N([H])C2([H])c4c([H])c([H])c([H])c([H])c4C([H])([H])C([H])([H])C2([H])[H])C3([H])[H])c1[H])=C([H])C(=O)N1C([H])([H])C([H])([H])C([H])([H])C([H])(n2nc(-c3c([H])c([H])c(Oc4c([H])c([H])c(F)c([H])c4F)c([H])c3[H])c(C(=O)N([H])[H])c2N([H])[H])C1([H])[H]

>  <smiles>  (32) 
[H]OC(C(=O)c1c([H])c([H])c([H])c(C([H])([H])Oc2c([H])c([H])c3c(c2[H])C([H])([H])N(C(=O)C([H])(N([H])C(=O)C([H])(N([H])C([H])([H])[H])C([H])([H])[H])C(C([H])([H])[H])(C([H])([H])[H])C([H])([H])[H])C([H])(C(=O)N([H])C2([H])c4c([H])c([H])c([H])c([H])c4C([H])([H])C([H])([H])C2([H])[H])C3([H])[H])c1[H])=C([H])C(=O)N1C([H])([H])C([H])([H])C([H])([H])C([H])(n2nc(-c3c([H])c([H])c(Oc4c([H])c([H])c(F)c([H])c4F)c([H])c3[H])c(C(=O)N([H])[H])c2N([H])[H])C1([H])[H]

$$$$
32:0:0
     RDKit          3D

 92100  0  0  1  0  0  0  0  0999 V2000
  -27.6190  -21.9840   20.8000 C   0  0  0  0  0  3  0  0  0  0  0  0
  -29.6040  -22.2060   19.6860 C   0  0  0  0  0  3  0  0  0  0  0  0
  -28.7300  -21.1930   20.2610 C   0  0  0  0  0  0  0  0  0  0  0  0
  -27.4040  -23.4590   20.8090 C   0  0  0  0  0  0  0  0  0  0  0  0
  -29.4020  -23.6850   19.6720 C   0  0  0  0  0  0  0  0  0  0  0  0
  -28.2820  -24.4630   20.2210 C   0  0  0  0  0  0  0  0  0  0  0  0
  -26.1600  -23.9550   21.5190 C   0  0  0  0  0  1  0  0  0  0  0  0
  -30.4080  -24.4360   19.0680 N   0  0  0  0  0  0  0  0  0  0  0  0
  -30.9880  -23.9880   18.3660 H   0  0  0  0  0  0  0  0  0  0  0  0
  -30.1790  -25.3980   18.8350 H   0  0  0  0  0  0  0  0  0  0  0  0
  -28.7710  -19.4730   20.3290 C   0  0  0  0  0  0  0  0  0  0  0  0
  -27.6880  -18.9740   20.6520 O   0  0  0  0  0  0  0  0  0  0  0  0
  -29.9240  -18.2060   20.0900 C   0  0  0  0  0  2  0  0  0  0  0  0
  -30.4400  -15.3190   20.0690 C   0  0  0  0  0  0  0  0  0  0  0  0
  -30.3950  -12.8940   19.1640 C   0  0  0  0  0  2  0  0  0  0  0  0
  -29.4260  -12.7150   17.9690 C   0  0  0  0  0  2  0  0  0  0  0  0
  -27.9960  -12.4350   18.4630 C   0  0  0  0  0  2  0  0  0  0  0  0
  -27.5890  -13.3730   19.6270 C   0  0  0  0  0  3  0  0  0  0  0  0
  -28.6820  -13.5000   20.7100 C   0  0  0  0  0  2  0  0  0  0  0  0
  -29.8840  -14.0130   20.0360 N   0  0  0  0  0  0  0  0  0  0  0  0
  -31.6430  -15.3460   19.7710 O   0  0  0  0  0  0  0  0  0  0  0  0
  -29.6700  -16.5660   20.2330 N   0  0  0  0  0  0  0  0  0  0  0  0
  -28.7040  -16.3770   20.4550 H   0  0  0  0  0  0  0  0  0  0  0  0
  -25.2520  -13.8990   20.5000 C   0  0  0  0  0  0  0  0  0  0  0  0
  -24.2120  -13.1050   20.8970 C   0  0  0  0  0  0  0  0  0  0  0  0
  -24.6840  -11.7600   20.8080 C   0  0  0  0  0  0  0  0  0  0  0  0
  -26.2860  -13.0370   20.1860 N   0  0  0  0  0  0  0  0  0  0  0  0
  -25.9610  -11.7420   20.4380 N   0  0  0  0  0  0  0  0  0  0  0  0
  -23.9730  -10.4880   20.9940 C   0  0  0  0  0  0  0  0  0  0  0  0
  -24.4160   -9.5210   21.9220 C   0  0  0  0  0  3  0  0  0  0  0  0
  -23.7010   -8.3160   22.0980 C   0  0  0  0  0  3  0  0  0  0  0  0
  -22.5270   -8.0710   21.3460 C   0  0  0  0  0  0  0  0  0  0  0  0
  -22.1020   -9.0270   20.4070 C   0  0  0  0  0  3  0  0  0  0  0  0
  -22.8190  -10.2230   20.2290 C   0  0  0  0  0  3  0  0  0  0  0  0
  -21.7820   -6.9190   21.4320 O   0  0  0  0  0  0  0  0  0  0  0  0
  -21.7010   -6.2010   22.5980 C   0  0  0  0  0  0  0  0  0  0  0  0
  -21.1930   -6.7660   23.7880 C   0  0  0  0  0  3  0  0  0  0  0  0
  -21.0610   -5.9720   24.9440 C   0  0  0  0  0  3  0  0  0  0  0  0
  -21.4270   -4.6120   24.9110 C   0  0  0  0  0  0  0  0  0  0  0  0
  -21.9280   -4.0470   23.7260 C   0  0  0  0  0  3  0  0  0  0  0  0
  -22.0610   -4.8380   22.5720 C   0  0  0  0  0  0  0  0  0  0  0  0
  -22.5240   -4.2820   21.4260 F   0  0  0  0  0  0  0  0  0  0  0  0
  -21.2930   -3.8480   26.0200 F   0  0  0  0  0  0  0  0  0  0  0  0
  -22.8260  -13.5670   21.2390 C   0  0  0  0  0  0  0  0  0  0  0  0
  -22.1390  -12.8460   22.1180 N   0  0  0  0  0  0  0  0  0  0  0  0
  -22.3620  -14.6020   20.7620 O   0  0  0  0  0  0  0  0  0  0  0  0
  -22.5300  -12.0100   22.5260 H   0  0  0  0  0  0  0  0  0  0  0  0
  -21.2100  -13.1370   22.3890 H   0  0  0  0  0  0  0  0  0  0  0  0
  -25.3970  -15.2760   20.3530 N   0  0  0  0  0  0  0  0  0  0  0  0
  -24.6290  -15.9180   20.5170 H   0  0  0  0  0  0  0  0  0  0  0  0
  -26.2160  -15.7300   19.9710 H   0  0  0  0  0  0  0  0  0  0  0  0
  -28.2380  -26.0010   20.2480 O   0  0  0  0  0  0  0  0  0  0  0  0
  -24.6380  -31.9080   23.2420 C   0  0  0  0  0  0  0  0  0  0  0  0
  -27.1760  -27.0380   20.2310 C   0  0  0  0  0  0  0  0  0  0  0  0
  -23.4370  -30.5180   21.6010 C   0  0  0  0  0  3  0  0  0  0  0  0
  -24.8770  -28.9040   20.1810 C   0  0  0  0  0  0  0  0  0  0  0  0
  -26.0010  -30.7230   21.4550 C   0  0  0  0  0  2  0  0  0  0  0  0
  -26.0620  -29.3120   20.8050 C   0  0  0  0  0  0  0  0  0  0  0  0
  -27.2030  -28.3960   20.8080 C   0  0  0  0  0  3  0  0  0  0  0  0
  -25.9670  -26.7750   19.5510 C   0  0  0  0  0  3  0  0  0  0  0  0
  -24.8520  -27.6560   19.5360 C   0  0  0  0  0  3  0  0  0  0  0  0
  -23.6620  -29.8290   20.2250 C   0  0  0  0  0  2  0  0  0  0  0  0
  -24.7140  -31.0760   22.1530 N   0  0  0  0  0  0  0  0  0  0  0  0
  -23.5510  -32.2030   23.7630 O   0  0  0  0  0  0  0  0  0  0  0  0
  -22.7400  -29.5250   22.5660 C   0  0  0  0  0  0  0  0  0  0  0  0
  -21.4110  -29.3640   22.4390 N   0  0  0  0  0  0  0  0  0  0  0  0
  -23.4030  -28.8980   23.3980 O   0  0  0  0  0  0  0  0  0  0  0  0
  -20.9300  -29.9180   21.7430 H   0  0  0  0  0  0  0  0  0  0  0  0
  -18.0230  -28.1720   22.9450 C   0  0  0  0  0  0  0  0  0  0  0  0
  -20.5840  -28.4290   23.2090 C   0  0  0  0  0  3  0  0  0  0  0  0
  -20.6800  -26.9970   22.6330 C   0  0  0  0  0  2  0  0  0  0  0  0
  -19.5770  -26.6790   21.6180 C   0  0  0  0  0  2  0  0  0  0  0  0
  -18.1960  -26.8240   22.2630 C   0  0  0  0  0  2  0  0  0  0  0  0
  -19.1430  -28.9320   23.3740 C   0  0  0  0  0  0  0  0  0  0  0  0
  -18.9240  -30.1900   23.9760 C   0  0  0  0  0  3  0  0  0  0  0  0
  -17.6200  -30.6900   24.1490 C   0  0  0  0  0  3  0  0  0  0  0  0
  -16.5150  -29.9280   23.7320 C   0  0  0  0  0  3  0  0  0  0  0  0
  -16.7170  -28.6700   23.1370 C   0  0  0  0  0  3  0  0  0  0  0  0
  -25.9140  -32.5430   23.8740 C   0  0  0  0  0  3  0  0  0  0  0  0
  -26.4140  -31.7760   25.1620 C   0  0  1  0  0  0  0  0  0  0  0  0
  -25.3080  -31.5510   26.2220 C   0  0  0  0  0  1  0  0  0  0  0  0
  -26.9940  -30.3930   24.7910 C   0  0  0  0  0  1  0  0  0  0  0  0
  -27.5610  -32.5690   25.8320 C   0  0  0  0  0  1  0  0  0  0  0  0
  -25.6040  -33.9440   24.2080 N   0  0  0  0  0  0  0  0  0  0  0  0
  -25.9160  -35.0020   23.4470 C   0  0  0  0  0  0  0  0  0  0  0  0
  -26.5570  -34.9010   22.3990 O   0  0  0  0  0  0  0  0  0  0  0  0
  -25.0300  -34.0970   25.0250 H   0  0  0  0  0  0  0  0  0  0  0  0
  -24.1640  -36.7910   23.1670 C   0  0  0  0  0  1  0  0  0  0  0  0
  -25.4430  -36.3920   23.9220 C   0  0  0  0  0  3  0  0  0  0  0  0
  -27.6050  -37.2980   24.6580 C   0  0  0  0  0  1  0  0  0  0  0  0
  -26.4640  -37.4510   23.7580 N   0  0  0  0  0  0  0  0  0  0  0  0
  -26.0590  -38.3690   23.9130 H   0  0  0  0  0  0  0  0  0  0  0  0
  1  4  1  0
  2  3  1  0
  3 11  1  0
  3  1  2  0
  4  7  1  0
  5  2  2  0
  5  6  1  0
  6 52  1  0
  6  4  2  0
  8  5  1  0
  9  8  1  0
 10  8  1  0
 11 12  2  0
 13 22  1  0
 13 11  1  0
 14 22  1  0
 15 20  1  0
 16 17  1  0
 16 15  1  0
 18 17  1  0
 18 27  1  0
 18 19  1  0
 20 14  1  0
 20 19  1  0
 21 14  2  0
 22 23  1  0
 24 25  2  0
 25 44  1  0
 26 25  1  0
 26 29  1  0
 27 28  1  0
 27 24  1  0
 28 26  2  0
 29 30  1  0
 30 31  2  0
 32 35  1  0
 32 31  1  0
 33 32  2  0
 34 33  1  0
 34 29  2  0
 35 36  1  0
 36 37  1  0
 37 38  2  0
 39 38  1  0
 39 43  1  0
 40 39  2  0
 41 36  2  0
 41 40  1  0
 42 41  1  0
 44 45  1  0
 45 48  1  0
 45 47  1  0
 46 44  2  0
 49 24  1  0
 49 50  1  0
 51 49  1  0
 53 64  2  0
 54 52  1  0
 54 59  1  0
 55 63  1  0
 55 65  1  0
 56 62  1  0
 56 58  1  0
 57 63  1  0
 58 59  2  0
 58 57  1  0
 60 54  2  0
 61 60  1  0
 61 56  2  0
 62 55  1  0
 63 53  1  0
 65 67  2  0
 66 65  1  0
 68 66  1  0
 69 78  2  0
 69 74  1  0
 70 66  1  0
 70 74  1  0
 71 70  1  0
 72 73  1  0
 72 71  1  0
 73 69  1  0
 74 75  2  0
 75 76  1  0
 77 76  2  0
 78 77  1  0
 79 53  1  0
 79 84  1  0
 79 80  1  0
 80 83  1  1
 80 81  1  0
 82 80  1  0
 84 87  1  0
 85 89  1  0
 85 84  1  0
 86 85  2  0
 89 88  1  0
 91 92  1  0
 91 89  1  0
 91 90  1  0
M  ISO  4   6 101  14 100  22 100  52 101
M  END
>  <TORSDO>  (33) 
F 19

>  <SCORE>  (33) 
-15.514

>  <name>  (33) 
32

>  <ligand_id>  (33) 
32

>  <original_smiles>  (33) 
[H]c1c([H])c([H])c2c(c1[H])C([H])([H])C([H])([H])C([H])([H])C2([H])N([H])C(=O)C1([H])N(C(=O)C([H])(N([H])C(=O)C([H])(N([H])C([H])([H])[H])C([H])([H])[H])C(C([H])([H])[H])(C([H])([H])[H])C([H])([H])[H])C([H])([H])c2c([H])c(Oc3c(N([H])[H])c([H])c(C(=O)C([H])([H])N([H])C(=O)N4C([H])([H])C([H])([H])C([H])([H])C([H])(n5nc(-c6c([H])c([H])c(Oc7c([H])c([H])c(F)c([H])c7F)c([H])c6[H])c(C(=O)N([H])[H])c5N([H])[H])C4([H])[H])c([H])c3C([H])([H])[H])c([H])c([H])c2C1([H])[H]

>  <smiles>  (33) 
[H]c1c([H])c([H])c2c(c1[H])C([H])([H])C([H])([H])C([H])([H])C2([H])N([H])C(=O)C1([H])N(C(=O)C([H])(N([H])C(=O)C([H])(N([H])C([H])([H])[H])C([H])([H])[H])C(C([H])([H])[H])(C([H])([H])[H])C([H])([H])[H])C([H])([H])c2c([H])c(Oc3c(N([H])[H])c([H])c(C(=O)C([H])([H])N([H])C(=O)N4C([H])([H])C([H])([H])C([H])([H])C([H])(n5nc(-c6c([H])c([H])c(Oc7c([H])c([H])c(F)c([H])c7F)c([H])c6[H])c(C(=O)N([H])[H])c5N([H])[H])C4([H])[H])c([H])c3C([H])([H])[H])c([H])c([H])c2C1([H])[H]

$$$$
33:0:0
     RDKit          3D

 92100  0  0  1  0  0  0  0  0999 V2000
  -30.4350  -20.8020   20.7470 C   0  0  0  0  0  3  0  0  0  0  0  0
  -30.6730  -19.3550   20.7800 C   0  0  0  0  0  3  0  0  0  0  0  0
  -29.2740  -21.5170   20.2540 C   0  0  0  0  0  0  0  0  0  0  0  0
  -29.8050  -18.3010   20.2960 C   0  0  0  0  0  0  0  0  0  0  0  0
  -28.6580  -19.0070   19.6960 C   0  0  0  0  0  0  0  0  0  0  0  0
  -28.4040  -20.4860   19.7030 C   0  0  0  0  0  0  0  0  0  0  0  0
  -27.6080  -18.1410   19.0130 C   0  0  0  0  0  1  0  0  0  0  0  0
  -28.6270  -16.3460   21.5310 C   0  0  0  0  0  1  0  0  0  0  0  0
  -30.9800  -16.6730   21.9280 C   0  0  0  0  0  1  0  0  0  0  0  0
  -29.9420  -16.6310   20.7750 C   0  0  2  0  0  0  0  0  0  0  0  0
  -30.4800  -15.1720   19.9780 C   0  0  0  0  0  0  0  0  0  0  0  0
  -30.3470  -12.8080   18.9190 C   0  0  0  0  0  2  0  0  0  0  0  0
  -29.3240  -12.7340   17.7550 C   0  0  0  0  0  2  0  0  0  0  0  0
  -27.8980  -12.4680   18.2770 C   0  0  0  0  0  2  0  0  0  0  0  0
  -27.5700  -13.3460   19.5100 C   0  0  0  0  0  3  0  0  0  0  0  0
  -28.7070  -13.3000   20.5490 C   0  0  0  0  0  2  0  0  0  0  0  0
  -29.9090  -13.8670   19.9030 N   0  0  0  0  0  0  0  0  0  0  0  0
  -31.5930  -15.2170   19.4320 O   0  0  0  0  0  0  0  0  0  0  0  0
  -25.2430  -13.8990   20.4200 C   0  0  0  0  0  0  0  0  0  0  0  0
  -24.2120  -13.1160   20.8530 C   0  0  0  0  0  0  0  0  0  0  0  0
  -24.6720  -11.7680   20.7570 C   0  0  0  0  0  0  0  0  0  0  0  0
  -26.2700  -13.0300   20.0900 N   0  0  0  0  0  0  0  0  0  0  0  0
  -25.9390  -11.7400   20.3560 N   0  0  0  0  0  0  0  0  0  0  0  0
  -23.9580  -10.5030   20.9660 C   0  0  0  0  0  0  0  0  0  0  0  0
  -24.4270   -9.5290   21.8730 C   0  0  0  0  0  3  0  0  0  0  0  0
  -23.7060   -8.3320   22.0720 C   0  0  0  0  0  3  0  0  0  0  0  0
  -22.5030   -8.1000   21.3650 C   0  0  0  0  0  0  0  0  0  0  0  0
  -22.0530   -9.0630   20.4430 C   0  0  0  0  0  3  0  0  0  0  0  0
  -22.7740  -10.2510   20.2410 C   0  0  0  0  0  3  0  0  0  0  0  0
  -21.7530   -6.9530   21.4750 O   0  0  0  0  0  0  0  0  0  0  0  0
  -21.7140   -6.2270   22.6390 C   0  0  0  0  0  0  0  0  0  0  0  0
  -21.3010   -6.8010   23.8610 C   0  0  0  0  0  3  0  0  0  0  0  0
  -21.2060   -6.0020   25.0180 C   0  0  0  0  0  3  0  0  0  0  0  0
  -21.5170   -4.6310   24.9550 C   0  0  0  0  0  0  0  0  0  0  0  0
  -21.9250   -4.0570   23.7390 C   0  0  0  0  0  3  0  0  0  0  0  0
  -22.0180   -4.8520   22.5830 C   0  0  0  0  0  0  0  0  0  0  0  0
  -22.3880   -4.2890   21.4070 F   0  0  0  0  0  0  0  0  0  0  0  0
  -21.4200   -3.8620   26.0640 F   0  0  0  0  0  0  0  0  0  0  0  0
  -22.8410  -13.5890   21.2370 C   0  0  0  0  0  0  0  0  0  0  0  0
  -22.1770  -12.8790   22.1430 N   0  0  0  0  0  0  0  0  0  0  0  0
  -22.3690  -14.6250   20.7700 O   0  0  0  0  0  0  0  0  0  0  0  0
  -22.5690  -12.0390   22.5420 H   0  0  0  0  0  0  0  0  0  0  0  0
  -21.2630  -13.1850   22.4460 H   0  0  0  0  0  0  0  0  0  0  0  0
  -25.3810  -15.2720   20.2520 N   0  0  0  0  0  0  0  0  0  0  0  0
  -24.6150  -15.9160   20.4180 H   0  0  0  0  0  0  0  0  0  0  0  0
  -26.1920  -15.7130   19.8410 H   0  0  0  0  0  0  0  0  0  0  0  0
  -29.2040  -23.2090   20.3540 C   0  0  0  0  0  0  0  0  0  0  0  0
  -30.2680  -23.7340   20.7030 O   0  0  0  0  0  0  0  0  0  0  0  0
  -28.0120  -24.3990   20.1000 C   0  0  0  0  0  2  0  0  0  0  0  0
  -28.2570  -25.9880   20.2810 O   0  0  0  0  0  0  0  0  0  0  0  0
  -24.6290  -31.8380   23.2060 C   0  0  0  0  0  0  0  0  0  0  0  0
  -27.2220  -27.0290   20.2080 C   0  0  0  0  0  0  0  0  0  0  0  0
  -23.4420  -30.4360   21.5630 C   0  0  0  0  0  3  0  0  0  0  0  0
  -24.9010  -28.8400   20.1510 C   0  0  0  0  0  0  0  0  0  0  0  0
  -26.0030  -30.6760   21.4180 C   0  0  0  0  0  2  0  0  0  0  0  0
  -26.0810  -29.2730   20.7680 C   0  0  0  0  0  0  0  0  0  0  0  0
  -27.2380  -28.3840   20.7760 C   0  0  0  0  0  3  0  0  0  0  0  0
  -26.0110  -26.7260   19.5480 C   0  0  0  0  0  3  0  0  0  0  0  0
  -24.8840  -27.5840   19.5260 C   0  0  0  0  0  3  0  0  0  0  0  0
  -23.6760  -29.7480   20.1900 C   0  0  0  0  0  2  0  0  0  0  0  0
  -24.7120  -31.0070   22.1180 N   0  0  0  0  0  0  0  0  0  0  0  0
  -23.5380  -32.1260   23.7240 O   0  0  0  0  0  0  0  0  0  0  0  0
  -22.7510  -29.4390   22.5280 C   0  0  0  0  0  0  0  0  0  0  0  0
  -21.4210  -29.2780   22.4030 N   0  0  0  0  0  0  0  0  0  0  0  0
  -23.4150  -28.8090   23.3550 O   0  0  0  0  0  0  0  0  0  0  0  0
  -20.9380  -29.8400   21.7160 H   0  0  0  0  0  0  0  0  0  0  0  0
  -18.0320  -28.0930   22.9200 C   0  0  0  0  0  0  0  0  0  0  0  0
  -20.5950  -28.3410   23.1720 C   0  0  0  0  0  3  0  0  0  0  0  0
  -20.6830  -26.9100   22.5900 C   0  0  0  0  0  2  0  0  0  0  0  0
  -19.5740  -26.6000   21.5800 C   0  0  0  0  0  2  0  0  0  0  0  0
  -18.1970  -26.7470   22.2340 C   0  0  0  0  0  2  0  0  0  0  0  0
  -19.1580  -28.8480   23.3460 C   0  0  0  0  0  0  0  0  0  0  0  0
  -18.9480  -30.1040   23.9540 C   0  0  0  0  0  3  0  0  0  0  0  0
  -17.6480  -30.6090   24.1350 C   0  0  0  0  0  3  0  0  0  0  0  0
  -16.5370  -29.8520   23.7230 C   0  0  0  0  0  3  0  0  0  0  0  0
  -16.7300  -28.5960   23.1220 C   0  0  0  0  0  3  0  0  0  0  0  0
  -25.8980  -32.4810   23.8430 C   0  0  0  0  0  3  0  0  0  0  0  0
  -26.4050  -31.7130   25.1260 C   0  0  1  0  0  0  0  0  0  0  0  0
  -25.3030  -31.4750   26.1860 C   0  0  0  0  0  1  0  0  0  0  0  0
  -26.9970  -30.3350   24.7490 C   0  0  0  0  0  1  0  0  0  0  0  0
  -27.5490  -32.5120   25.7970 C   0  0  0  0  0  1  0  0  0  0  0  0
  -25.5770  -33.8780   24.1800 N   0  0  0  0  0  0  0  0  0  0  0  0
  -25.8890  -34.9400   23.4270 C   0  0  0  0  0  0  0  0  0  0  0  0
  -26.5440  -34.8490   22.3850 O   0  0  0  0  0  0  0  0  0  0  0  0
  -24.9920  -34.0230   24.9890 H   0  0  0  0  0  0  0  0  0  0  0  0
  -24.1340  -36.7220   23.1260 C   0  0  0  0  0  1  0  0  0  0  0  0
  -25.4000  -36.3240   23.9020 C   0  0  0  0  0  3  0  0  0  0  0  0
  -27.5450  -37.2330   24.6790 C   0  0  0  0  0  1  0  0  0  0  0  0
  -26.4180  -37.3890   23.7640 N   0  0  0  0  0  0  0  0  0  0  0  0
  -26.0060  -38.3050   23.9220 H   0  0  0  0  0  0  0  0  0  0  0  0
  -27.2350  -20.9290   19.1530 O   0  0  0  0  0  0  0  0  0  0  0  0
  -26.6640  -20.2140   18.8940 H   0  0  0  0  0  0  0  0  0  0  0  0
  1  2  1  0
  3 47  1  0
  3  1  2  0
  4 10  1  0
  4  2  2  0
  5  6  2  0
  5  4  1  0
  6  3  1  0
  7  5  1  0
 10  8  1  1
 10  9  1  0
 11 10  1  0
 12 17  1  0
 13 14  1  0
 13 12  1  0
 15 14  1  0
 15 22  1  0
 15 16  1  0
 17 11  1  0
 17 16  1  0
 18 11  2  0
 19 20  2  0
 20 39  1  0
 21 20  1  0
 21 24  1  0
 22 23  1  0
 22 19  1  0
 23 21  2  0
 24 25  1  0
 25 26  2  0
 27 30  1  0
 27 26  1  0
 28 27  2  0
 29 28  1  0
 29 24  2  0
 30 31  1  0
 31 32  1  0
 32 33  2  0
 34 33  1  0
 34 38  1  0
 35 34  2  0
 36 31  2  0
 36 35  1  0
 37 36  1  0
 39 40  1  0
 40 43  1  0
 40 42  1  0
 41 39  2  0
 44 45  1  0
 44 19  1  0
 46 44  1  0
 47 48  2  0
 49 50  1  0
 49 47  1  0
 51 62  2  0
 52 50  1  0
 52 57  1  0
 53 61  1  0
 53 63  1  0
 54 60  1  0
 54 56  1  0
 55 61  1  0
 56 57  2  0
 56 55  1  0
 58 52  2  0
 59 58  1  0
 59 54  2  0
 60 53  1  0
 61 51  1  0
 63 65  2  0
 64 63  1  0
 66 64  1  0
 67 76  2  0
 67 72  1  0
 68 64  1  0
 68 72  1  0
 69 68  1  0
 70 71  1  0
 70 69  1  0
 71 67  1  0
 72 73  2  0
 73 74  1  0
 75 74  2  0
 76 75  1  0
 77 51  1  0
 77 82  1  0
 77 78  1  0
 78 81  1  1
 78 79  1  0
 80 78  1  0
 82 85  1  0
 83 87  1  0
 83 82  1  0
 84 83  2  0
 87 86  1  0
 89 87  1  0
 89 90  1  0
 89 88  1  0
 91  6  1  0
 92 91  1  0
M  ISO  4  10 100  11 100  49 101  50 101
M  END
>  <TORSDO>  (34) 
F 20

>  <SCORE>  (34) 
-15.535

>  <name>  (34) 
33

>  <ligand_id>  (34) 
33

>  <original_smiles>  (34) 
[H]Oc1c(C(=O)C([H])([H])Oc2c([H])c([H])c3c(c2[H])C([H])([H])N(C(=O)C([H])(N([H])C(=O)C([H])(N([H])C([H])([H])[H])C([H])([H])[H])C(C([H])([H])[H])(C([H])([H])[H])C([H])([H])[H])C([H])(C(=O)N([H])C2([H])c4c([H])c([H])c([H])c([H])c4C([H])([H])C([H])([H])C2([H])[H])C3([H])[H])c([H])c([H])c(C(C(=O)N2C([H])([H])C([H])([H])C([H])([H])C([H])(n3nc(-c4c([H])c([H])c(Oc5c([H])c([H])c(F)c([H])c5F)c([H])c4[H])c(C(=O)N([H])[H])c3N([H])[H])C2([H])[H])(C([H])([H])[H])C([H])([H])[H])c1C([H])([H])[H]

>  <smiles>  (34) 
[H]Oc1c(C(=O)C([H])([H])Oc2c([H])c([H])c3c(c2[H])C([H])([H])N(C(=O)C([H])(N([H])C(=O)C([H])(N([H])C([H])([H])[H])C([H])([H])[H])C(C([H])([H])[H])(C([H])([H])[H])C([H])([H])[H])C([H])(C(=O)N([H])C2([H])c4c([H])c([H])c([H])c([H])c4C([H])([H])C([H])([H])C2([H])[H])C3([H])[H])c([H])c([H])c(C(C(=O)N2C([H])([H])C([H])([H])C([H])([H])C([H])(n3nc(-c4c([H])c([H])c(Oc5c([H])c([H])c(F)c([H])c5F)c([H])c4[H])c(C(=O)N([H])[H])c3N([H])[H])C2([H])[H])(C([H])([H])[H])C([H])([H])[H])c1C([H])([H])[H]

$$$$
34:0:0
     RDKit          3D

 89 97  0  0  1  0  0  0  0  0999 V2000
  -28.1560  -20.5520   20.1140 C   0  0  0  0  0  3  0  0  0  0  0  0
  -28.3030  -19.0880   20.0920 C   0  0  0  0  0  3  0  0  0  0  0  0
  -30.3480  -20.6850   20.8660 C   0  0  0  0  0  3  0  0  0  0  0  0
  -29.1830  -21.4870   20.4970 C   0  0  0  0  0  0  0  0  0  0  0  0
  -29.4740  -18.2820   20.4210 C   0  0  0  0  0  0  0  0  0  0  0  0
  -30.5030  -19.2100   20.8340 C   0  0  0  0  0  0  0  0  0  0  0  0
  -29.1640  -16.4850   18.6540 C   0  0  0  0  0  1  0  0  0  0  0  0
  -29.4520  -16.5850   20.1720 C   0  0  0  0  0  3  0  0  0  0  0  0
  -30.4400  -15.2070   20.4650 C   0  0  0  0  0  0  0  0  0  0  0  0
  -30.4890  -12.7620   19.6800 C   0  0  0  0  0  2  0  0  0  0  0  0
  -29.6140  -12.5880   18.4080 C   0  0  0  0  0  2  0  0  0  0  0  0
  -28.1230  -12.3970   18.7670 C   0  0  0  0  0  2  0  0  0  0  0  0
  -27.6470  -13.3450   19.8980 C   0  0  0  0  0  3  0  0  0  0  0  0
  -28.6560  -13.4380   21.0580 C   0  0  0  0  0  2  0  0  0  0  0  0
  -29.9380  -13.8880   20.4990 N   0  0  0  0  0  0  0  0  0  0  0  0
  -31.6680  -15.2810   20.3240 O   0  0  0  0  0  0  0  0  0  0  0  0
  -25.2520  -13.9140   20.5820 C   0  0  0  0  0  0  0  0  0  0  0  0
  -24.1800  -13.1390   20.9240 C   0  0  0  0  0  0  0  0  0  0  0  0
  -24.6490  -11.7880   20.9140 C   0  0  0  0  0  0  0  0  0  0  0  0
  -26.3020  -13.0370   20.3660 N   0  0  0  0  0  0  0  0  0  0  0  0
  -25.9500  -11.7540   20.6370 N   0  0  0  0  0  0  0  0  0  0  0  0
  -23.9210  -10.5250   21.0910 C   0  0  0  0  0  0  0  0  0  0  0  0
  -24.3320   -9.5600   22.0360 C   0  0  0  0  0  3  0  0  0  0  0  0
  -23.6040   -8.3620   22.2010 C   0  0  0  0  0  3  0  0  0  0  0  0
  -22.4500   -8.1190   21.4180 C   0  0  0  0  0  0  0  0  0  0  0  0
  -22.0580   -9.0730   20.4610 C   0  0  0  0  0  3  0  0  0  0  0  0
  -22.7870  -10.2630   20.2970 C   0  0  0  0  0  3  0  0  0  0  0  0
  -21.6960   -6.9710   21.4880 O   0  0  0  0  0  0  0  0  0  0  0  0
  -21.6190   -6.2310   22.6410 C   0  0  0  0  0  0  0  0  0  0  0  0
  -21.1370   -6.7800   23.8500 C   0  0  0  0  0  3  0  0  0  0  0  0
  -21.0110   -5.9650   24.9920 C   0  0  0  0  0  3  0  0  0  0  0  0
  -21.3530   -4.6010   24.9260 C   0  0  0  0  0  0  0  0  0  0  0  0
  -21.8270   -4.0510   23.7220 C   0  0  0  0  0  3  0  0  0  0  0  0
  -21.9580   -4.8650   22.5820 C   0  0  0  0  0  0  0  0  0  0  0  0
  -22.3940   -4.3250   21.4190 F   0  0  0  0  0  0  0  0  0  0  0  0
  -21.2230   -3.8150   26.0220 F   0  0  0  0  0  0  0  0  0  0  0  0
  -22.7740  -13.6110   21.1480 C   0  0  0  0  0  0  0  0  0  0  0  0
  -22.0220  -12.9190   21.9960 N   0  0  0  0  0  0  0  0  0  0  0  0
  -22.3480  -14.6310   20.6060 O   0  0  0  0  0  0  0  0  0  0  0  0
  -22.3800  -12.0940   22.4570 H   0  0  0  0  0  0  0  0  0  0  0  0
  -21.0770  -13.2160   22.1890 H   0  0  0  0  0  0  0  0  0  0  0  0
  -25.4230  -15.2850   20.4090 N   0  0  0  0  0  0  0  0  0  0  0  0
  -24.6590  -15.9450   20.5030 H   0  0  0  0  0  0  0  0  0  0  0  0
  -26.2850  -15.7210   20.1160 H   0  0  0  0  0  0  0  0  0  0  0  0
  -31.7070  -18.6800   21.2050 O   0  0  0  0  0  0  0  0  0  0  0  0
  -32.3530  -19.3290   21.4700 H   0  0  0  0  0  0  0  0  0  0  0  0
  -29.1760  -23.2020   20.5420 C   0  0  0  0  0  3  0  0  0  0  0  0
  -28.0400  -24.4880   20.2270 C   0  0  0  0  0  3  0  0  0  0  0  0
  -28.2450  -26.0820   20.3390 O   0  0  0  0  0  0  0  0  0  0  0  0
  -24.6030  -31.9070   23.2560 C   0  0  0  0  0  0  0  0  0  0  0  0
  -27.1980  -27.1090   20.2580 C   0  0  0  0  0  0  0  0  0  0  0  0
  -23.4170  -30.5110   21.6080 C   0  0  0  0  0  3  0  0  0  0  0  0
  -24.8760  -28.9150   20.1970 C   0  0  0  0  0  0  0  0  0  0  0  0
  -25.9780  -30.7500   21.4670 C   0  0  0  0  0  2  0  0  0  0  0  0
  -26.0550  -29.3470   20.8170 C   0  0  0  0  0  0  0  0  0  0  0  0
  -27.2120  -28.4630   20.8260 C   0  0  0  0  0  3  0  0  0  0  0  0
  -25.9900  -26.8020   19.5930 C   0  0  0  0  0  3  0  0  0  0  0  0
  -24.8630  -27.6610   19.5660 C   0  0  0  0  0  3  0  0  0  0  0  0
  -23.6510  -29.8220   20.2350 C   0  0  0  0  0  2  0  0  0  0  0  0
  -24.6870  -31.0810   22.1650 N   0  0  0  0  0  0  0  0  0  0  0  0
  -23.5130  -32.1950   23.7750 O   0  0  0  0  0  0  0  0  0  0  0  0
  -22.7230  -29.5130   22.5690 C   0  0  0  0  0  0  0  0  0  0  0  0
  -21.3950  -29.3380   22.4320 N   0  0  0  0  0  0  0  0  0  0  0  0
  -23.3830  -28.8930   23.4050 O   0  0  0  0  0  0  0  0  0  0  0  0
  -20.9160  -29.8910   21.7370 H   0  0  0  0  0  0  0  0  0  0  0  0
  -18.0130  -28.1230   22.9090 C   0  0  0  0  0  0  0  0  0  0  0  0
  -20.5700  -28.4000   23.1960 C   0  0  0  0  0  3  0  0  0  0  0  0
  -20.6800  -26.9670   22.6270 C   0  0  0  0  0  2  0  0  0  0  0  0
  -19.5890  -26.6360   21.6030 C   0  0  0  0  0  2  0  0  0  0  0  0
  -18.2020  -26.7750   22.2350 C   0  0  0  0  0  2  0  0  0  0  0  0
  -19.1240  -28.8930   23.3460 C   0  0  0  0  0  0  0  0  0  0  0  0
  -18.8910  -30.1520   23.9420 C   0  0  0  0  0  3  0  0  0  0  0  0
  -17.5810  -30.6440   24.0960 C   0  0  0  0  0  3  0  0  0  0  0  0
  -16.4850  -29.8730   23.6730 C   0  0  0  0  0  3  0  0  0  0  0  0
  -16.7010  -28.6120   23.0890 C   0  0  0  0  0  3  0  0  0  0  0  0
  -25.8750  -32.5480   23.8960 C   0  0  0  0  0  3  0  0  0  0  0  0
  -26.3620  -31.7920   25.1940 C   0  0  1  0  0  0  0  0  0  0  0  0
  -25.2490  -31.5760   26.2470 C   0  0  0  0  0  1  0  0  0  0  0  0
  -26.9430  -30.4050   24.8380 C   0  0  0  0  0  1  0  0  0  0  0  0
  -27.5070  -32.5870   25.8640 C   0  0  0  0  0  1  0  0  0  0  0  0
  -25.5630  -33.9530   24.2100 N   0  0  0  0  0  0  0  0  0  0  0  0
  -25.9120  -35.0020   23.4540 C   0  0  0  0  0  0  0  0  0  0  0  0
  -26.5930  -34.8890   22.4310 O   0  0  0  0  0  0  0  0  0  0  0  0
  -24.9610  -34.1130   25.0030 H   0  0  0  0  0  0  0  0  0  0  0  0
  -24.2100  -36.8180   23.0680 C   0  0  0  0  0  1  0  0  0  0  0  0
  -25.4330  -36.3980   23.9010 C   0  0  0  0  0  3  0  0  0  0  0  0
  -27.5590  -37.2700   24.7700 C   0  0  0  0  0  1  0  0  0  0  0  0
  -26.4790  -37.4410   23.8020 N   0  0  0  0  0  0  0  0  0  0  0  0
  -26.0810  -38.3670   23.9350 H   0  0  0  0  0  0  0  0  0  0  0  0
  1  4  1  0
  2  1  2  0
  2  5  1  0
  4 47  1  0
  4  3  2  0
  5  6  2  0
  6  3  1  0
  6 45  1  0
  8  7  1  0
  8  5  1  0
  8  9  1  0
  9 15  1  0
 10 15  1  0
 11 12  1  0
 11 10  1  0
 13 12  1  0
 13 20  1  0
 13 14  1  0
 15 14  1  0
 16  9  2  0
 17 18  2  0
 18 37  1  0
 19 18  1  0
 19 22  1  0
 20 17  1  0
 20 21  1  0
 21 19  2  0
 22 23  1  0
 23 24  2  0
 25 28  1  0
 25 24  1  0
 26 25  2  0
 27 26  1  0
 27 22  2  0
 28 29  1  0
 29 30  1  0
 30 31  2  0
 32 31  1  0
 32 36  1  0
 33 32  2  0
 34 29  2  0
 34 33  1  0
 35 34  1  0
 37 38  1  0
 38 41  1  0
 38 40  1  0
 39 37  2  0
 42 43  1  0
 42 17  1  0
 44 42  1  0
 45 46  1  0
 48 49  1  0
 48 47  2  0
 50 61  2  0
 51 49  1  0
 51 56  1  0
 52 60  1  0
 52 62  1  0
 53 59  1  0
 53 55  1  0
 54 60  1  0
 55 56  2  0
 55 54  1  0
 57 51  2  0
 58 57  1  0
 58 53  2  0
 59 52  1  0
 60 50  1  0
 62 64  2  0
 63 62  1  0
 65 63  1  0
 66 75  2  0
 66 71  1  0
 67 63  1  0
 67 71  1  0
 68 67  1  0
 69 70  1  0
 69 68  1  0
 70 66  1  0
 71 72  2  0
 72 73  1  0
 74 73  2  0
 75 74  1  0
 76 50  1  0
 76 81  1  0
 76 77  1  0
 77 80  1  1
 77 78  1  0
 79 77  1  0
 81 84  1  0
 82 86  1  0
 82 81  1  0
 83 82  2  0
 86 85  1  0
 88 86  1  0
 88 89  1  0
 88 87  1  0
M  ISO  4   8 100   9 100  48 101  49 101
M  END
>  <TORSDO>  (35) 
F 20

>  <SCORE>  (35) 
-15.848

>  <name>  (35) 
34

>  <ligand_id>  (35) 
34

>  <original_smiles>  (35) 
[H]Oc1c([H])c(C([H])([H])C([H])([H])Oc2c([H])c([H])c3c(c2[H])C([H])([H])N(C(=O)C([H])(N([H])C(=O)C([H])(N([H])C([H])([H])[H])C([H])([H])[H])C(C([H])([H])[H])(C([H])([H])[H])C([H])([H])[H])C([H])(C(=O)N([H])C2([H])c4c([H])c([H])c([H])c([H])c4C([H])([H])C([H])([H])C2([H])[H])C3([H])[H])c([H])c([H])c1C([H])(C(=O)N1C([H])([H])C([H])([H])C([H])([H])C([H])(n2nc(-c3c([H])c([H])c(Oc4c([H])c([H])c(F)c([H])c4F)c([H])c3[H])c(C(=O)N([H])[H])c2N([H])[H])C1([H])[H])C([H])([H])[H]

>  <smiles>  (35) 
[H]Oc1c([H])c(C([H])([H])C([H])([H])Oc2c([H])c([H])c3c(c2[H])C([H])([H])N(C(=O)C([H])(N([H])C(=O)C([H])(N([H])C([H])([H])[H])C([H])([H])[H])C(C([H])([H])[H])(C([H])([H])[H])C([H])([H])[H])C([H])(C(=O)N([H])C2([H])c4c([H])c([H])c([H])c([H])c4C([H])([H])C([H])([H])C2([H])[H])C3([H])[H])c([H])c([H])c1C([H])(C(=O)N1C([H])([H])C([H])([H])C([H])([H])C([H])(n2nc(-c3c([H])c([H])c(Oc4c([H])c([H])c(F)c([H])c4F)c([H])c3[H])c(C(=O)N([H])[H])c2N([H])[H])C1([H])[H])C([H])([H])[H]

$$$$
36:0:0
     RDKit          3D

 92100  0  0  1  0  0  0  0  0999 V2000
  -31.0670  -19.5940   20.3920 C   0  0  0  0  0  3  0  0  0  0  0  0
  -31.4980  -20.9430   20.3880 C   0  0  0  0  0  3  0  0  0  0  0  0
  -28.8110  -20.4420   20.4180 C   0  0  0  0  0  3  0  0  0  0  0  0
  -29.2130  -21.8930   20.4110 C   0  0  0  0  0  0  0  0  0  0  0  0
  -29.7080  -19.2350   20.3670 C   0  0  0  0  0  0  0  0  0  0  0  0
  -30.6220  -22.0700   20.3650 C   0  0  0  0  0  0  0  0  0  0  0  0
  -28.2850  -23.2420   20.5790 C   0  0  0  0  0  0  0  0  0  0  0  0
  -27.3230  -23.1560   21.3480 O   0  0  0  0  0  0  0  0  0  0  0  0
  -28.3840  -24.7110   19.7670 C   0  0  0  0  0  2  0  0  0  0  0  0
  -28.2780  -26.1560   20.4010 O   0  0  0  0  0  0  0  0  0  0  0  0
  -24.6160  -31.8970   23.2650 C   0  0  0  0  0  0  0  0  0  0  0  0
  -27.2190  -27.1430   20.2650 C   0  0  0  0  0  0  0  0  0  0  0  0
  -23.4220  -30.4890   21.6310 C   0  0  0  0  0  3  0  0  0  0  0  0
  -24.8830  -28.9030   20.2150 C   0  0  0  0  0  0  0  0  0  0  0  0
  -25.9760  -30.7520   21.4730 C   0  0  0  0  0  2  0  0  0  0  0  0
  -26.0580  -29.3500   20.8300 C   0  0  0  0  0  0  0  0  0  0  0  0
  -27.2180  -28.4820   20.8480 C   0  0  0  0  0  3  0  0  0  0  0  0
  -26.0190  -26.8070   19.6000 C   0  0  0  0  0  3  0  0  0  0  0  0
  -24.8800  -27.6480   19.5830 C   0  0  0  0  0  3  0  0  0  0  0  0
  -23.6490  -29.7970   20.2560 C   0  0  0  0  0  2  0  0  0  0  0  0
  -24.6910  -31.0690   22.1760 N   0  0  0  0  0  0  0  0  0  0  0  0
  -23.5310  -32.1820   23.7930 O   0  0  0  0  0  0  0  0  0  0  0  0
  -22.7450  -29.4870   22.6010 C   0  0  0  0  0  0  0  0  0  0  0  0
  -21.4180  -29.3080   22.4720 N   0  0  0  0  0  0  0  0  0  0  0  0
  -23.4180  -28.8730   23.4330 O   0  0  0  0  0  0  0  0  0  0  0  0
  -20.9330  -29.8540   21.7740 H   0  0  0  0  0  0  0  0  0  0  0  0
  -18.0430  -28.0830   22.9590 C   0  0  0  0  0  0  0  0  0  0  0  0
  -20.5980  -28.3730   23.2480 C   0  0  0  0  0  3  0  0  0  0  0  0
  -20.7160  -26.9340   22.6940 C   0  0  0  0  0  2  0  0  0  0  0  0
  -19.6270  -26.5910   21.6720 C   0  0  0  0  0  2  0  0  0  0  0  0
  -18.2380  -26.7280   22.3000 C   0  0  0  0  0  2  0  0  0  0  0  0
  -19.1490  -28.8630   23.3890 C   0  0  0  0  0  0  0  0  0  0  0  0
  -18.9110  -30.1310   23.9640 C   0  0  0  0  0  3  0  0  0  0  0  0
  -17.5980  -30.6170   24.1140 C   0  0  0  0  0  3  0  0  0  0  0  0
  -16.5070  -29.8340   23.7000 C   0  0  0  0  0  3  0  0  0  0  0  0
  -16.7300  -28.5700   23.1260 C   0  0  0  0  0  3  0  0  0  0  0  0
  -25.8930  -32.5420   23.8880 C   0  0  0  0  0  3  0  0  0  0  0  0
  -26.4000  -31.7850   25.1770 C   0  0  1  0  0  0  0  0  0  0  0  0
  -25.3020  -31.5600   26.2430 C   0  0  0  0  0  1  0  0  0  0  0  0
  -26.9800  -30.4010   24.8080 C   0  0  0  0  0  1  0  0  0  0  0  0
  -27.5550  -32.5800   25.8330 C   0  0  0  0  0  1  0  0  0  0  0  0
  -25.5800  -33.9440   24.2070 N   0  0  0  0  0  0  0  0  0  0  0  0
  -25.9160  -34.9940   23.4460 C   0  0  0  0  0  0  0  0  0  0  0  0
  -26.5890  -34.8850   22.4160 O   0  0  0  0  0  0  0  0  0  0  0  0
  -24.9830  -34.1010   25.0050 H   0  0  0  0  0  0  0  0  0  0  0  0
  -24.1920  -36.7890   23.0790 C   0  0  0  0  0  1  0  0  0  0  0  0
  -25.4320  -36.3880   23.8950 C   0  0  0  0  0  3  0  0  0  0  0  0
  -27.5670  -37.2750   24.7240 C   0  0  0  0  0  1  0  0  0  0  0  0
  -26.4660  -37.4400   23.7770 N   0  0  0  0  0  0  0  0  0  0  0  0
  -26.0610  -38.3610   23.9200 H   0  0  0  0  0  0  0  0  0  0  0  0
  -27.8840  -17.5590   19.6050 C   0  0  0  0  0  1  0  0  0  0  0  0
  -29.3660  -17.6360   19.9850 C   0  0  0  0  0  0  0  0  0  0  0  0
  -30.4620  -15.0560   20.3110 C   0  0  0  0  0  0  0  0  0  0  0  0
  -30.3610  -12.6910   19.3760 C   0  0  0  0  0  2  0  0  0  0  0  0
  -29.4220  -12.6500   18.1470 C   0  0  0  0  0  2  0  0  0  0  0  0
  -27.9670  -12.4120   18.5820 C   0  0  0  0  0  2  0  0  0  0  0  0
  -27.5620  -13.3230   19.7680 C   0  0  0  0  0  3  0  0  0  0  0  0
  -28.6210  -13.3370   20.8950 C   0  0  0  0  0  2  0  0  0  0  0  0
  -29.8930  -13.7730   20.3000 N   0  0  0  0  0  0  0  0  0  0  0  0
  -31.6150  -15.1390   19.8730 O   0  0  0  0  0  0  0  0  0  0  0  0
  -29.7130  -16.2260   20.6710 N   0  0  0  0  0  4  0  0  0  0  0  0
  -28.9490  -15.9470   21.2680 H   0  0  0  0  0  0  0  0  0  0  0  0
  -25.1780  -13.8880   20.5060 C   0  0  0  0  0  0  0  0  0  0  0  0
  -24.1180  -13.1080   20.8800 C   0  0  0  0  0  0  0  0  0  0  0  0
  -24.5900  -11.7600   20.8500 C   0  0  0  0  0  0  0  0  0  0  0  0
  -26.2250  -13.0140   20.2650 N   0  0  0  0  0  0  0  0  0  0  0  0
  -25.8800  -11.7300   20.5350 N   0  0  0  0  0  0  0  0  0  0  0  0
  -23.8700  -10.4930   21.0420 C   0  0  0  0  0  0  0  0  0  0  0  0
  -24.3060   -9.5270   21.9750 C   0  0  0  0  0  3  0  0  0  0  0  0
  -23.5800   -8.3300   22.1560 C   0  0  0  0  0  3  0  0  0  0  0  0
  -22.4080   -8.0890   21.4010 C   0  0  0  0  0  0  0  0  0  0  0  0
  -21.9900   -9.0440   20.4580 C   0  0  0  0  0  3  0  0  0  0  0  0
  -22.7160  -10.2330   20.2760 C   0  0  0  0  0  3  0  0  0  0  0  0
  -21.6550   -6.9420   21.4920 O   0  0  0  0  0  0  0  0  0  0  0  0
  -21.6090   -6.2010   22.6450 C   0  0  0  0  0  0  0  0  0  0  0  0
  -21.1870   -6.7560   23.8730 C   0  0  0  0  0  3  0  0  0  0  0  0
  -21.0890   -5.9420   25.0180 C   0  0  0  0  0  3  0  0  0  0  0  0
  -21.4050   -4.5720   24.9380 C   0  0  0  0  0  0  0  0  0  0  0  0
  -21.8250   -4.0160   23.7170 C   0  0  0  0  0  3  0  0  0  0  0  0
  -21.9230   -4.8290   22.5730 C   0  0  0  0  0  0  0  0  0  0  0  0
  -22.3060   -4.2840   21.3930 F   0  0  0  0  0  0  0  0  0  0  0  0
  -21.3030   -3.7860   26.0370 F   0  0  0  0  0  0  0  0  0  0  0  0
  -22.7200  -13.5820   21.1500 C   0  0  0  0  0  0  0  0  0  0  0  0
  -21.9960  -12.8830   22.0180 N   0  0  0  0  0  0  0  0  0  0  0  0
  -22.2800  -14.6050   20.6280 O   0  0  0  0  0  0  0  0  0  0  0  0
  -22.3620  -12.0500   22.4550 H   0  0  0  0  0  0  0  0  0  0  0  0
  -21.0610  -13.1880   22.2500 H   0  0  0  0  0  0  0  0  0  0  0  0
  -25.3300  -15.2570   20.3320 N   0  0  0  0  0  0  0  0  0  0  0  0
  -24.5660  -15.9050   20.4950 H   0  0  0  0  0  0  0  0  0  0  0  0
  -26.1670  -15.7070   19.9790 H   0  0  0  0  0  0  0  0  0  0  0  0
  -32.4110  -23.5730   19.8000 C   0  0  0  0  0  1  0  0  0  0  0  0
  -31.1090  -23.3610   20.3350 O   0  0  0  0  0  0  0  0  0  0  0  0
  2  1  1  0
  4  3  2  0
  4  7  1  0
  5  1  2  0
  5  3  1  0
  6  2  2  0
  6  4  1  0
  7  8  2  0
  9 10  1  0
  9  7  1  0
 11 22  2  0
 12 10  1  0
 12 17  1  0
 13 21  1  0
 13 23  1  0
 14 20  1  0
 14 16  1  0
 15 21  1  0
 16 17  2  0
 16 15  1  0
 18 12  2  0
 19 18  1  0
 19 14  2  0
 20 13  1  0
 21 11  1  0
 23 25  2  0
 24 23  1  0
 26 24  1  0
 27 36  2  0
 27 32  1  0
 28 24  1  0
 28 32  1  0
 29 28  1  0
 30 31  1  0
 30 29  1  0
 31 27  1  0
 32 33  2  0
 33 34  1  0
 35 34  2  0
 36 35  1  0
 37 11  1  0
 37 42  1  0
 37 38  1  0
 38 41  1  1
 38 39  1  0
 40 38  1  0
 42 45  1  0
 43 47  1  0
 43 42  1  0
 44 43  2  0
 47 46  1  0
 49 47  1  0
 49 50  1  0
 49 48  1  0
 51 52  1  0
 52  5  1  0
 52 61  2  3
 53 61  1  0
 54 59  1  0
 55 56  1  0
 55 54  1  0
 57 56  1  0
 57 66  1  0
 57 58  1  0
 59 53  1  0
 59 58  1  0
 60 53  2  0
 61 62  1  0
 63 64  2  0
 64 83  1  0
 65 64  1  0
 65 68  1  0
 66 63  1  0
 66 67  1  0
 67 65  2  0
 68 69  1  0
 69 70  2  0
 71 74  1  0
 71 70  1  0
 72 71  2  0
 73 72  1  0
 73 68  2  0
 74 75  1  0
 75 76  1  0
 76 77  2  0
 78 77  1  0
 78 82  1  0
 79 78  2  0
 80 75  2  0
 80 79  1  0
 81 80  1  0
 83 84  1  0
 84 87  1  0
 84 86  1  0
 85 83  2  0
 88 89  1  0
 88 63  1  0
 90 88  1  0
 91 92  1  0
 92  6  1  0
M  ISO  4   9 101  10 101  53 100  61 100
M  END
>  <TORSDO>  (36) 
F 20

>  <SCORE>  (36) 
-14.158

>  <name>  (36) 
36

>  <ligand_id>  (36) 
36

>  <original_smiles>  (36) 
[H]c1c([H])c([H])c2c(c1[H])C([H])([H])C([H])([H])C([H])([H])C2([H])N([H])C(=O)C1([H])N(C(=O)C([H])(N([H])C(=O)C([H])(N([H])C([H])([H])[H])C([H])([H])[H])C(C([H])([H])[H])(C([H])([H])[H])C([H])([H])[H])C([H])([H])c2c([H])c(OC([H])([H])C(=O)c3c([H])c(C([H])(N([H])C(=O)N4C([H])([H])C([H])([H])C([H])([H])C([H])(n5nc(-c6c([H])c([H])c(Oc7c([H])c([H])c(F)c([H])c7F)c([H])c6[H])c(C(=O)N([H])[H])c5N([H])[H])C4([H])[H])C([H])([H])[H])c([H])c([H])c3OC([H])([H])[H])c([H])c([H])c2C1([H])[H]

>  <smiles>  (36) 
[H]c1c([H])c([H])c2c(c1[H])C([H])([H])C([H])([H])C([H])([H])C2([H])N([H])C(=O)C1([H])N(C(=O)C([H])(N([H])C(=O)C([H])(N([H])C([H])([H])[H])C([H])([H])[H])C(C([H])([H])[H])(C([H])([H])[H])C([H])([H])[H])C([H])([H])c2c([H])c(OC([H])([H])C(=O)c3c([H])c(C([H])(N([H])C(=O)N4C([H])([H])C([H])([H])C([H])([H])C([H])(n5nc(-c6c([H])c([H])c(Oc7c([H])c([H])c(F)c([H])c7F)c([H])c6[H])c(C(=O)N([H])[H])c5N([H])[H])C4([H])[H])C([H])([H])[H])c([H])c([H])c3OC([H])([H])[H])c([H])c([H])c2C1([H])[H]

$$$$
37:0:0
     RDKit          3D

 90 98  0  0  1  0  0  0  0  0999 V2000
  -27.4940  -19.1100   17.6870 C   0  0  0  0  0  3  0  0  0  0  0  0
  -27.6400  -20.4340   17.3230 C   0  0  0  0  0  3  0  0  0  0  0  0
  -28.1250  -18.6670   18.8400 C   0  0  0  0  0  3  0  0  0  0  0  0
  -28.2410  -21.3660   18.1820 C   0  0  0  0  0  0  0  0  0  0  0  0
  -28.8620  -19.4820   19.7390 C   0  0  0  0  0  0  0  0  0  0  0  0
  -28.6810  -21.0700   19.5270 C   0  0  0  0  0  0  0  0  0  0  0  0
  -28.4390  -22.7040   17.4770 C   0  0  0  0  0  1  0  0  0  0  0  0
  -31.1880  -18.6840   20.7300 C   0  0  0  0  0  1  0  0  0  0  0  0
  -29.7200  -18.2650   20.6350 C   0  0  0  0  0  0  0  0  0  0  0  0
  -30.4340  -15.3210   20.4160 C   0  0  0  0  0  0  0  0  0  0  0  0
  -30.4700  -12.8680   19.5460 C   0  0  0  0  0  2  0  0  0  0  0  0
  -29.5720  -12.6260   18.3070 C   0  0  0  0  0  2  0  0  0  0  0  0
  -28.1160  -12.3490   18.7260 C   0  0  0  0  0  2  0  0  0  0  0  0
  -27.6370  -13.3040   19.8490 C   0  0  0  0  0  3  0  0  0  0  0  0
  -28.6710  -13.4690   20.9820 C   0  0  0  0  0  2  0  0  0  0  0  0
  -29.8910  -14.0040   20.3520 N   0  0  0  0  0  0  0  0  0  0  0  0
  -31.6620  -15.3280   20.2440 O   0  0  0  0  0  0  0  0  0  0  0  0
  -29.6320  -16.5760   20.4820 N   0  0  0  0  0  4  0  0  0  0  0  0
  -28.6600  -16.3090   20.5190 H   0  0  0  0  0  0  0  0  0  0  0  0
  -25.2530  -13.8310   20.5790 C   0  0  0  0  0  0  0  0  0  0  0  0
  -24.1950  -13.0430   20.9350 C   0  0  0  0  0  0  0  0  0  0  0  0
  -24.6790  -11.6990   20.9100 C   0  0  0  0  0  0  0  0  0  0  0  0
  -26.3080  -12.9690   20.3440 N   0  0  0  0  0  0  0  0  0  0  0  0
  -25.9750  -11.6790   20.6110 N   0  0  0  0  0  0  0  0  0  0  0  0
  -23.9610  -10.4280   21.0890 C   0  0  0  0  0  0  0  0  0  0  0  0
  -24.3910   -9.4630   22.0240 C   0  0  0  0  0  3  0  0  0  0  0  0
  -23.6720   -8.2590   22.1930 C   0  0  0  0  0  3  0  0  0  0  0  0
  -22.5080   -8.0130   21.4260 C   0  0  0  0  0  0  0  0  0  0  0  0
  -22.0970   -8.9700   20.4800 C   0  0  0  0  0  3  0  0  0  0  0  0
  -22.8160  -10.1640   20.3100 C   0  0  0  0  0  3  0  0  0  0  0  0
  -21.7610   -6.8640   21.5050 O   0  0  0  0  0  0  0  0  0  0  0  0
  -21.7070   -6.1180   22.6550 C   0  0  0  0  0  0  0  0  0  0  0  0
  -21.2600   -6.6640   23.8780 C   0  0  0  0  0  3  0  0  0  0  0  0
  -21.1530   -5.8440   25.0180 C   0  0  0  0  0  3  0  0  0  0  0  0
  -21.4840   -4.4790   24.9380 C   0  0  0  0  0  0  0  0  0  0  0  0
  -21.9240   -3.9310   23.7200 C   0  0  0  0  0  3  0  0  0  0  0  0
  -22.0310   -4.7480   22.5810 C   0  0  0  0  0  0  0  0  0  0  0  0
  -22.4360   -4.2110   21.4050 F   0  0  0  0  0  0  0  0  0  0  0  0
  -21.3750   -3.6880   26.0320 F   0  0  0  0  0  0  0  0  0  0  0  0
  -22.7890  -13.5080   21.1810 C   0  0  0  0  0  0  0  0  0  0  0  0
  -22.0500  -12.8090   22.0340 N   0  0  0  0  0  0  0  0  0  0  0  0
  -22.3540  -14.5300   20.6520 O   0  0  0  0  0  0  0  0  0  0  0  0
  -22.4120  -11.9860   22.4920 H   0  0  0  0  0  0  0  0  0  0  0  0
  -21.1070  -13.1080   22.2370 H   0  0  0  0  0  0  0  0  0  0  0  0
  -25.3970  -15.2040   20.4030 N   0  0  0  0  0  0  0  0  0  0  0  0
  -24.6080  -15.8340   20.5020 H   0  0  0  0  0  0  0  0  0  0  0  0
  -26.2190  -15.6540   20.0230 H   0  0  0  0  0  0  0  0  0  0  0  0
  -28.8900  -22.6200   20.3290 C   0  0  0  0  0  2  0  0  0  0  0  0
  -27.9460  -24.1960   20.1940 C   0  0  0  0  0  2  0  0  0  0  0  0
  -28.2030  -25.8280   20.3560 O   0  0  0  0  0  0  0  0  0  0  0  0
  -24.6240  -31.8560   23.2130 C   0  0  0  0  0  0  0  0  0  0  0  0
  -27.1940  -26.9320   20.2720 C   0  0  0  0  0  0  0  0  0  0  0  0
  -23.4380  -30.4390   21.5850 C   0  0  0  0  0  3  0  0  0  0  0  0
  -24.8950  -28.8170   20.1900 C   0  0  0  0  0  0  0  0  0  0  0  0
  -26.0060  -30.6480   21.4480 C   0  0  0  0  0  2  0  0  0  0  0  0
  -26.0810  -29.2280   20.8120 C   0  0  0  0  0  0  0  0  0  0  0  0
  -27.2240  -28.3070   20.8280 C   0  0  0  0  0  3  0  0  0  0  0  0
  -25.9770  -26.6740   19.6050 C   0  0  0  0  0  3  0  0  0  0  0  0
  -24.8690  -27.5600   19.5650 C   0  0  0  0  0  3  0  0  0  0  0  0
  -23.6760  -29.7370   20.2200 C   0  0  0  0  0  2  0  0  0  0  0  0
  -24.7110  -31.0110   22.1350 N   0  0  0  0  0  0  0  0  0  0  0  0
  -23.5320  -32.1520   23.7270 O   0  0  0  0  0  0  0  0  0  0  0  0
  -22.7380  -29.4560   22.5610 C   0  0  0  0  0  0  0  0  0  0  0  0
  -21.4080  -29.2950   22.4390 N   0  0  0  0  0  0  0  0  0  0  0  0
  -23.4010  -28.8380   23.3990 O   0  0  0  0  0  0  0  0  0  0  0  0
  -20.9240  -29.8480   21.7430 H   0  0  0  0  0  0  0  0  0  0  0  0
  -18.0200  -28.1020   22.9650 C   0  0  0  0  0  0  0  0  0  0  0  0
  -20.5830  -28.3680   23.2200 C   0  0  0  0  0  3  0  0  0  0  0  0
  -20.6790  -26.9290   22.6610 C   0  0  0  0  0  2  0  0  0  0  0  0
  -19.5750  -26.5980   21.6510 C   0  0  0  0  0  2  0  0  0  0  0  0
  -18.1950  -26.7490   22.2970 C   0  0  0  0  0  2  0  0  0  0  0  0
  -19.1430  -28.8690   23.3840 C   0  0  0  0  0  0  0  0  0  0  0  0
  -18.9210  -30.1330   23.9730 C   0  0  0  0  0  3  0  0  0  0  0  0
  -17.6170  -30.6330   24.1440 C   0  0  0  0  0  3  0  0  0  0  0  0
  -16.5120  -29.8640   23.7380 C   0  0  0  0  0  3  0  0  0  0  0  0
  -16.7150  -28.6020   23.1560 C   0  0  0  0  0  3  0  0  0  0  0  0
  -25.8920  -32.5080   23.8440 C   0  0  0  0  0  3  0  0  0  0  0  0
  -26.3920  -31.7610   25.1430 C   0  0  1  0  0  0  0  0  0  0  0  0
  -25.2880  -31.5460   26.2040 C   0  0  0  0  0  1  0  0  0  0  0  0
  -26.9760  -30.3740   24.7910 C   0  0  0  0  0  1  0  0  0  0  0  0
  -27.5370  -32.5680   25.8020 C   0  0  0  0  0  1  0  0  0  0  0  0
  -25.5710  -33.9110   24.1610 N   0  0  0  0  0  0  0  0  0  0  0  0
  -25.9070  -34.9650   23.4070 C   0  0  0  0  0  0  0  0  0  0  0  0
  -26.5810  -34.8610   22.3790 O   0  0  0  0  0  0  0  0  0  0  0  0
  -24.9760  -34.0670   24.9630 H   0  0  0  0  0  0  0  0  0  0  0  0
  -24.1840  -36.7680   23.0460 C   0  0  0  0  0  1  0  0  0  0  0  0
  -25.4220  -36.3580   23.8610 C   0  0  0  0  0  3  0  0  0  0  0  0
  -27.5540  -37.2450   24.7010 C   0  0  0  0  0  1  0  0  0  0  0  0
  -26.4570  -37.4100   23.7500 N   0  0  0  0  0  0  0  0  0  0  0  0
  -26.0510  -38.3310   23.8910 H   0  0  0  0  0  0  0  0  0  0  0  0
  1  3  1  0
  2  1  2  0
  2  4  1  0
  3  5  2  0
  4  6  2  0
  5  9  1  0
  6  5  1  0
  6 48  1  0
  7  4  1  0
  9  8  1  0
 10 18  1  0
 11 16  1  0
 12 13  1  0
 12 11  1  0
 14 13  1  0
 14 23  1  0
 14 15  1  0
 16 10  1  0
 16 15  1  0
 17 10  2  0
 18 19  1  0
 18  9  2  0
 20 21  2  0
 21 40  1  0
 22 21  1  0
 22 25  1  0
 23 20  1  0
 23 24  1  0
 24 22  2  0
 25 26  1  0
 26 27  2  0
 28 31  1  0
 28 27  1  0
 29 28  2  0
 30 29  1  0
 30 25  2  0
 31 32  1  0
 32 33  1  0
 33 34  2  0
 35 34  1  0
 35 39  1  0
 36 35  2  0
 37 32  2  0
 37 36  1  0
 38 37  1  0
 40 41  1  0
 41 44  1  0
 41 43  1  0
 42 40  2  0
 45 46  1  0
 45 20  1  0
 47 45  1  0
 49 48  1  0
 49 50  1  0
 51 62  2  0
 52 50  1  0
 52 57  1  0
 53 61  1  0
 53 63  1  0
 54 60  1  0
 54 56  1  0
 55 61  1  0
 56 57  2  0
 56 55  1  0
 58 52  2  0
 59 58  1  0
 59 54  2  0
 60 53  1  0
 61 51  1  0
 63 65  2  0
 64 63  1  0
 66 64  1  0
 67 76  2  0
 67 72  1  0
 68 64  1  0
 68 72  1  0
 69 68  1  0
 70 71  1  0
 70 69  1  0
 71 67  1  0
 72 73  2  0
 73 74  1  0
 75 74  2  0
 76 75  1  0
 77 51  1  0
 77 82  1  0
 77 78  1  0
 78 81  1  1
 78 79  1  0
 80 78  1  0
 82 85  1  0
 83 87  1  0
 83 82  1  0
 84 83  2  0
 87 86  1  0
 89 87  1  0
 89 90  1  0
 89 88  1  0
M  ISO  4  10 100  18 100  49 101  50 101
M  END
>  <TORSDO>  (37) 
F 19

>  <SCORE>  (37) 
-16.713

>  <name>  (37) 
37

>  <ligand_id>  (37) 
37

>  <original_smiles>  (37) 
[H]c1c([H])c([H])c2c(c1[H])C([H])([H])C([H])([H])C([H])([H])C2([H])N([H])C(=O)C1([H])N(C(=O)C([H])(N([H])C(=O)C([H])(N([H])C([H])([H])[H])C([H])([H])[H])C(C([H])([H])[H])(C([H])([H])[H])C([H])([H])[H])C([H])([H])c2c([H])c(OC([H])([H])C([H])([H])c3c(C([H])([H])[H])c([H])c([H])c([H])c3C([H])(N([H])C(=O)N3C([H])([H])C([H])([H])C([H])([H])C([H])(n4nc(-c5c([H])c([H])c(Oc6c([H])c([H])c(F)c([H])c6F)c([H])c5[H])c(C(=O)N([H])[H])c4N([H])[H])C3([H])[H])C([H])([H])[H])c([H])c([H])c2C1([H])[H]

>  <smiles>  (37) 
[H]c1c([H])c([H])c2c(c1[H])C([H])([H])C([H])([H])C([H])([H])C2([H])N([H])C(=O)C1([H])N(C(=O)C([H])(N([H])C(=O)C([H])(N([H])C([H])([H])[H])C([H])([H])[H])C(C([H])([H])[H])(C([H])([H])[H])C([H])([H])[H])C([H])([H])c2c([H])c(OC([H])([H])C([H])([H])c3c(C([H])([H])[H])c([H])c([H])c([H])c3C([H])(N([H])C(=O)N3C([H])([H])C([H])([H])C([H])([H])C([H])(n4nc(-c5c([H])c([H])c(Oc6c([H])c([H])c(F)c([H])c6F)c([H])c5[H])c(C(=O)N([H])[H])c4N([H])[H])C3([H])[H])C([H])([H])[H])c([H])c([H])c2C1([H])[H]

$$$$
38:0:0
     RDKit          3D

 93101  0  0  1  0  0  0  0  0999 V2000
  -29.7490  -21.7790   19.2230 C   0  0  0  0  0  3  0  0  0  0  0  0
  -28.1790  -19.9850   18.9470 C   0  0  0  0  0  3  0  0  0  0  0  0
  -29.5310  -20.2370   19.2410 C   0  0  0  0  0  0  0  0  0  0  0  0
  -28.7600  -22.9620   18.9840 C   0  0  0  0  0  0  0  0  0  0  0  0
  -27.1890  -20.9950   18.7230 C   0  0  0  0  0  0  0  0  0  0  0  0
  -27.4560  -22.4180   18.7530 C   0  0  0  0  0  0  0  0  0  0  0  0
  -26.2910  -23.3860   18.5420 C   0  0  0  0  0  1  0  0  0  0  0  0
  -25.7660  -20.4860   18.4290 C   0  0  1  0  0  0  0  0  0  0  0  0
  -24.8760  -21.0060   19.2750 F   0  0  0  0  0  0  0  0  0  0  0  0
  -25.4200  -20.8000   17.1800 F   0  0  0  0  0  0  0  0  0  0  0  0
  -25.6660  -19.1600   18.5460 F   0  0  0  0  0  0  0  0  0  0  0  0
  -31.7610  -18.8330   18.6590 C   0  0  0  0  0  1  0  0  0  0  0  0
  -30.5410  -18.8190   19.6070 C   0  0  0  0  0  0  0  0  0  0  0  0
  -30.9740  -15.8890   20.0870 C   0  0  0  0  0  0  0  0  0  0  0  0
  -30.9980  -13.3490   19.4970 C   0  0  0  0  0  2  0  0  0  0  0  0
  -30.1490  -12.9710   18.2580 C   0  0  0  0  0  2  0  0  0  0  0  0
  -28.6820  -12.7330   18.6520 C   0  0  0  0  0  2  0  0  0  0  0  0
  -28.1640  -13.8240   19.6200 C   0  0  0  0  0  3  0  0  0  0  0  0
  -29.1460  -14.1260   20.7700 C   0  0  0  0  0  2  0  0  0  0  0  0
  -30.4020  -14.5810   20.1480 N   0  0  0  0  0  0  0  0  0  0  0  0
  -32.2070  -15.8380   19.9590 O   0  0  0  0  0  0  0  0  0  0  0  0
  -30.2300  -17.1890   19.9680 N   0  0  0  0  0  4  0  0  0  0  0  0
  -29.2410  -17.0260   20.0860 H   0  0  0  0  0  0  0  0  0  0  0  0
  -25.8060  -14.4670   20.3380 C   0  0  0  0  0  0  0  0  0  0  0  0
  -24.7030  -13.7310   20.6590 C   0  0  0  0  0  0  0  0  0  0  0  0
  -25.1120  -12.3610   20.6090 C   0  0  0  0  0  0  0  0  0  0  0  0
  -26.8150  -13.5540   20.0970 N   0  0  0  0  0  0  0  0  0  0  0  0
  -26.4090  -12.2780   20.3320 N   0  0  0  0  0  0  0  0  0  0  0  0
  -24.3270  -11.1290   20.7460 C   0  0  0  0  0  0  0  0  0  0  0  0
  -24.7330  -10.0800   21.6020 C   0  0  0  0  0  3  0  0  0  0  0  0
  -23.9460   -8.9160   21.7320 C   0  0  0  0  0  3  0  0  0  0  0  0
  -22.7360   -8.7920   21.0070 C   0  0  0  0  0  0  0  0  0  0  0  0
  -22.3500   -9.8260   20.1370 C   0  0  0  0  0  3  0  0  0  0  0  0
  -23.1380  -10.9810   20.0040 C   0  0  0  0  0  3  0  0  0  0  0  0
  -21.9210   -7.6860   21.0520 O   0  0  0  0  0  0  0  0  0  0  0  0
  -21.9420   -6.8210   22.1160 C   0  0  0  0  0  0  0  0  0  0  0  0
  -21.7080   -7.2580   23.4380 C   0  0  0  0  0  3  0  0  0  0  0  0
  -21.6670   -6.3230   24.4920 C   0  0  0  0  0  3  0  0  0  0  0  0
  -21.8510   -4.9530   24.2260 C   0  0  0  0  0  0  0  0  0  0  0  0
  -22.0810   -4.5160   22.9100 C   0  0  0  0  0  3  0  0  0  0  0  0
  -22.1220   -5.4470   21.8580 C   0  0  0  0  0  0  0  0  0  0  0  0
  -22.3200   -5.0180   20.5870 F   0  0  0  0  0  0  0  0  0  0  0  0
  -21.8060   -4.0540   25.2370 F   0  0  0  0  0  0  0  0  0  0  0  0
  -23.3200  -14.2610   20.8970 C   0  0  0  0  0  0  0  0  0  0  0  0
  -22.5500  -13.5980   21.7510 N   0  0  0  0  0  0  0  0  0  0  0  0
  -22.9360  -15.3010   20.3610 O   0  0  0  0  0  0  0  0  0  0  0  0
  -22.8760  -12.7550   22.2010 H   0  0  0  0  0  0  0  0  0  0  0  0
  -21.6200  -13.9330   21.9580 H   0  0  0  0  0  0  0  0  0  0  0  0
  -26.0330  -15.8350   20.2000 N   0  0  0  0  0  0  0  0  0  0  0  0
  -25.2920  -16.5180   20.3140 H   0  0  0  0  0  0  0  0  0  0  0  0
  -26.9000  -16.2440   19.8780 H   0  0  0  0  0  0  0  0  0  0  0  0
  -29.0010  -24.7070   18.7090 C   0  0  0  0  0  2  0  0  0  0  0  0
  -28.7090  -26.1450   19.5220 O   0  0  0  0  0  0  0  0  0  0  0  0
  -24.6130  -31.5580   22.8840 C   0  0  0  0  0  0  0  0  0  0  0  0
  -27.6120  -27.1760   19.4710 C   0  0  0  0  0  0  0  0  0  0  0  0
  -23.5450  -30.1750   21.1490 C   0  0  0  0  0  3  0  0  0  0  0  0
  -25.1340  -28.8420   19.5850 C   0  0  0  0  0  0  0  0  0  0  0  0
  -26.0790  -30.6470   21.0120 C   0  0  0  0  0  2  0  0  0  0  0  0
  -26.2810  -29.3040   20.2390 C   0  0  0  0  0  0  0  0  0  0  0  0
  -27.5050  -28.4880   20.1680 C   0  0  0  0  0  3  0  0  0  0  0  0
  -26.4220  -26.8870   18.7670 C   0  0  0  0  0  3  0  0  0  0  0  0
  -25.2300  -27.6610   18.8300 C   0  0  0  0  0  3  0  0  0  0  0  0
  -23.8230  -29.6240   19.7210 C   0  0  0  0  0  2  0  0  0  0  0  0
  -24.7620  -30.8220   21.7340 N   0  0  0  0  0  0  0  0  0  0  0  0
  -23.5080  -31.6890   23.4380 O   0  0  0  0  0  0  0  0  0  0  0  0
  -22.9720  -29.0420   22.0420 C   0  0  0  0  0  0  0  0  0  0  0  0
  -21.6710  -28.7290   21.8970 N   0  0  0  0  0  0  0  0  0  0  0  0
  -23.7080  -28.4460   22.8310 O   0  0  0  0  0  0  0  0  0  0  0  0
  -21.1230  -29.2630   21.2360 H   0  0  0  0  0  0  0  0  0  0  0  0
  -18.4690  -27.0670   22.2760 C   0  0  0  0  0  0  0  0  0  0  0  0
  -20.9680  -27.6540   22.6030 C   0  0  0  0  0  3  0  0  0  0  0  0
  -21.2670  -26.2810   21.9580 C   0  0  0  0  0  2  0  0  0  0  0  0
  -20.2280  -25.8690   20.9080 C   0  0  0  0  0  2  0  0  0  0  0  0
  -18.8330  -25.7940   21.5310 C   0  0  0  0  0  2  0  0  0  0  0  0
  -19.4700  -27.9470   22.7660 C   0  0  0  0  0  0  0  0  0  0  0  0
  -19.0760  -29.1320   23.4270 C   0  0  0  0  0  3  0  0  0  0  0  0
  -17.7140  -29.4370   23.6040 C   0  0  0  0  0  3  0  0  0  0  0  0
  -16.7280  -28.5550   23.1280 C   0  0  0  0  0  3  0  0  0  0  0  0
  -17.1060  -27.3730   22.4690 C   0  0  0  0  0  3  0  0  0  0  0  0
  -25.8220  -32.2830   23.5520 C   0  0  0  0  0  3  0  0  0  0  0  0
  -26.3690  -31.5290   24.8280 C   0  0  1  0  0  0  0  0  0  0  0  0
  -25.2800  -31.2020   25.8760 C   0  0  0  0  0  1  0  0  0  0  0  0
  -27.0570  -30.2000   24.4450 C   0  0  0  0  0  1  0  0  0  0  0  0
  -27.4450  -32.3960   25.5250 C   0  0  0  0  0  1  0  0  0  0  0  0
  -25.3880  -33.6430   23.9170 N   0  0  0  0  0  0  0  0  0  0  0  0
  -25.7320  -34.7620   23.2670 C   0  0  0  0  0  0  0  0  0  0  0  0
  -26.5080  -34.7610   22.3070 O   0  0  0  0  0  0  0  0  0  0  0  0
  -24.7050  -33.7120   24.6590 H   0  0  0  0  0  0  0  0  0  0  0  0
  -23.9410  -36.4840   22.8530 C   0  0  0  0  0  1  0  0  0  0  0  0
  -25.1230  -36.0930   23.7550 C   0  0  0  0  0  3  0  0  0  0  0  0
  -27.1160  -37.0400   24.8340 C   0  0  0  0  0  1  0  0  0  0  0  0
  -26.0950  -37.2070   23.8030 N   0  0  0  0  0  0  0  0  0  0  0  0
  -25.6230  -38.0910   23.9670 H   0  0  0  0  0  0  0  0  0  0  0  0
  1  3  1  0
  2  3  2  0
  3 13  1  0
  4  1  2  0
  5  6  2  0
  5  2  1  0
  6  4  1  0
  7  6  1  0
  8 11  1  6
  8  5  1  0
  8  9  1  0
 10  8  1  0
 12 13  1  0
 13 22  2  0
 14 20  1  0
 15 20  1  0
 16 17  1  0
 16 15  1  0
 18 17  1  0
 18 27  1  0
 18 19  1  0
 20 19  1  0
 21 14  2  0
 22 23  1  0
 22 14  1  0
 24 25  2  0
 25 44  1  0
 26 25  1  0
 26 29  1  0
 27 28  1  0
 27 24  1  0
 28 26  2  0
 29 30  1  0
 30 31  2  0
 32 35  1  0
 32 31  1  0
 33 32  2  0
 34 33  1  0
 34 29  2  0
 35 36  1  0
 36 37  1  0
 37 38  2  0
 39 38  1  0
 39 43  1  0
 40 39  2  0
 41 36  2  0
 41 40  1  0
 42 41  1  0
 44 45  1  0
 45 48  1  0
 45 47  1  0
 46 44  2  0
 49 50  1  0
 49 24  1  0
 51 49  1  0
 52  4  1  0
 52 53  1  0
 54 65  2  0
 55 53  1  0
 55 60  1  0
 56 64  1  0
 56 66  1  0
 57 63  1  0
 57 59  1  0
 58 64  1  0
 59 58  1  0
 60 59  2  0
 61 62  1  0
 61 55  2  0
 62 57  2  0
 63 56  1  0
 64 54  1  0
 66 68  2  0
 67 66  1  0
 69 67  1  0
 70 79  2  0
 70 75  1  0
 71 67  1  0
 71 75  1  0
 72 71  1  0
 73 74  1  0
 73 72  1  0
 74 70  1  0
 75 76  2  0
 76 77  1  0
 78 77  2  0
 79 78  1  0
 80 54  1  0
 80 85  1  0
 80 81  1  0
 81 84  1  1
 81 82  1  0
 83 81  1  0
 85 88  1  0
 86 90  1  0
 86 85  1  0
 87 86  2  0
 90 89  1  0
 90 92  1  0
 92 93  1  0
 92 91  1  0
M  ISO  4  14 100  22 100  52 101  53 101
M  END
>  <TORSDO>  (38) 
F 19

>  <SCORE>  (38) 
-13.547

>  <name>  (38) 
38

>  <ligand_id>  (38) 
38

>  <original_smiles>  (38) 
[H]c1c([H])c([H])c2c(c1[H])C([H])([H])C([H])([H])C([H])([H])C2([H])N([H])C(=O)C1([H])N(C(=O)C([H])(N([H])C(=O)C([H])(N([H])C([H])([H])[H])C([H])([H])[H])C(C([H])([H])[H])(C([H])([H])[H])C([H])([H])[H])C([H])([H])c2c([H])c(OC([H])([H])c3c([H])c(C([H])(N([H])C(=O)N4C([H])([H])C([H])([H])C([H])([H])C([H])(n5nc(-c6c([H])c([H])c(Oc7c([H])c([H])c(F)c([H])c7F)c([H])c6[H])c(C(=O)N([H])[H])c5N([H])[H])C4([H])[H])C([H])([H])[H])c([H])c(C(F)(F)F)c3C([H])([H])[H])c([H])c([H])c2C1([H])[H]

>  <smiles>  (38) 
[H]c1c([H])c([H])c2c(c1[H])C([H])([H])C([H])([H])C([H])([H])C2([H])N([H])C(=O)C1([H])N(C(=O)C([H])(N([H])C(=O)C([H])(N([H])C([H])([H])[H])C([H])([H])[H])C(C([H])([H])[H])(C([H])([H])[H])C([H])([H])[H])C([H])([H])c2c([H])c(OC([H])([H])c3c([H])c(C([H])(N([H])C(=O)N4C([H])([H])C([H])([H])C([H])([H])C([H])(n5nc(-c6c([H])c([H])c(Oc7c([H])c([H])c(F)c([H])c7F)c([H])c6[H])c(C(=O)N([H])[H])c5N([H])[H])C4([H])[H])C([H])([H])[H])c([H])c(C(F)(F)F)c3C([H])([H])[H])c([H])c([H])c2C1([H])[H]

$$$$
39:0:0
     RDKit          3D

 89 97  0  0  1  0  0  0  0  0999 V2000
  -29.1140  -20.2040   21.5030 C   0  0  0  0  0  3  0  0  0  0  0  0
  -28.7280  -21.4450   22.0740 C   0  0  0  0  0  3  0  0  0  0  0  0
  -29.2620  -21.4120   19.4330 C   0  0  0  0  0  3  0  0  0  0  0  0
  -29.4560  -20.0330   20.1440 C   0  0  0  0  0  0  0  0  0  0  0  0
  -28.5960  -22.6860   21.3780 C   0  0  0  0  0  0  0  0  0  0  0  0
  -28.8180  -22.8100   19.9800 C   0  0  0  0  0  0  0  0  0  0  0  0
  -28.1750  -23.9040   22.1810 C   0  0  0  0  0  1  0  0  0  0  0  0
  -29.8850  -17.0470   20.2120 C   0  0  0  0  0  3  0  0  0  0  0  0
  -30.0540  -18.4590   19.7580 C   0  0  0  0  0  0  0  0  0  0  0  0
  -30.6390  -15.6000   19.9480 C   0  0  0  0  0  0  0  0  0  0  0  0
  -30.6000  -13.0870   19.2180 C   0  0  0  0  0  2  0  0  0  0  0  0
  -29.6800  -12.8220   17.9970 C   0  0  0  0  0  2  0  0  0  0  0  0
  -28.2360  -12.5610   18.4550 C   0  0  0  0  0  2  0  0  0  0  0  0
  -27.7880  -13.5740   19.5360 C   0  0  0  0  0  3  0  0  0  0  0  0
  -28.8410  -13.7980   20.6450 C   0  0  0  0  0  2  0  0  0  0  0  0
  -30.0730  -14.2800   19.9970 N   0  0  0  0  0  0  0  0  0  0  0  0
  -31.8360  -15.5280   19.6260 O   0  0  0  0  0  0  0  0  0  0  0  0
  -25.4420  -14.1640   20.3290 C   0  0  0  0  0  0  0  0  0  0  0  0
  -24.3760  -13.4050   20.7190 C   0  0  0  0  0  0  0  0  0  0  0  0
  -24.8240  -12.0480   20.6880 C   0  0  0  0  0  0  0  0  0  0  0  0
  -26.4670  -13.2740   20.0710 N   0  0  0  0  0  0  0  0  0  0  0  0
  -26.1090  -11.9940   20.3550 N   0  0  0  0  0  0  0  0  0  0  0  0
  -24.0790  -10.7990   20.9010 C   0  0  0  0  0  0  0  0  0  0  0  0
  -24.5050   -9.8330   21.8400 C   0  0  0  0  0  3  0  0  0  0  0  0
  -23.7580   -8.6520   22.0420 C   0  0  0  0  0  3  0  0  0  0  0  0
  -22.5720   -8.4270   21.3050 C   0  0  0  0  0  0  0  0  0  0  0  0
  -22.1630   -9.3810   20.3550 C   0  0  0  0  0  3  0  0  0  0  0  0
  -22.9110  -10.5520   20.1520 C   0  0  0  0  0  3  0  0  0  0  0  0
  -21.7970   -7.2980   21.4130 O   0  0  0  0  0  0  0  0  0  0  0  0
  -21.7580   -6.5610   22.5700 C   0  0  0  0  0  0  0  0  0  0  0  0
  -21.3380   -7.1200   23.7950 C   0  0  0  0  0  3  0  0  0  0  0  0
  -21.2440   -6.3090   24.9430 C   0  0  0  0  0  3  0  0  0  0  0  0
  -21.5640   -4.9400   24.8670 C   0  0  0  0  0  0  0  0  0  0  0  0
  -21.9780   -4.3810   23.6450 C   0  0  0  0  0  3  0  0  0  0  0  0
  -22.0720   -5.1880   22.4990 C   0  0  0  0  0  0  0  0  0  0  0  0
  -22.4510   -4.6390   21.3200 F   0  0  0  0  0  0  0  0  0  0  0  0
  -21.4670   -4.1590   25.9670 F   0  0  0  0  0  0  0  0  0  0  0  0
  -22.9910  -13.9060   21.0070 C   0  0  0  0  0  0  0  0  0  0  0  0
  -22.2680  -13.2350   21.8960 N   0  0  0  0  0  0  0  0  0  0  0  0
  -22.5620  -14.9310   20.4790 O   0  0  0  0  0  0  0  0  0  0  0  0
  -22.6310  -12.4090   22.3460 H   0  0  0  0  0  0  0  0  0  0  0  0
  -21.3420  -13.5590   22.1380 H   0  0  0  0  0  0  0  0  0  0  0  0
  -25.6200  -15.5330   20.1470 N   0  0  0  0  0  0  0  0  0  0  0  0
  -24.8580  -16.1900   20.2820 H   0  0  0  0  0  0  0  0  0  0  0  0
  -26.4680  -15.9720   19.8110 H   0  0  0  0  0  0  0  0  0  0  0  0
  -31.0260  -18.6280   18.8540 O   0  0  0  0  0  0  0  0  0  0  0  0
  -31.1780  -19.5610   18.7660 H   0  0  0  0  0  0  0  0  0  0  0  0
  -28.3580  -24.3550   19.2190 C   0  0  0  0  0  2  0  0  0  0  0  0
  -28.4220  -25.9820   19.6350 O   0  0  0  0  0  0  0  0  0  0  0  0
  -24.7280  -31.7300   22.9170 C   0  0  0  0  0  0  0  0  0  0  0  0
  -27.3820  -27.0760   19.5840 C   0  0  0  0  0  0  0  0  0  0  0  0
  -23.5400  -30.3630   21.2510 C   0  0  0  0  0  3  0  0  0  0  0  0
  -25.0100  -28.8920   19.6970 C   0  0  0  0  0  0  0  0  0  0  0  0
  -26.0900  -30.6810   21.0340 C   0  0  0  0  0  2  0  0  0  0  0  0
  -26.1990  -29.3040   20.3070 C   0  0  0  0  0  0  0  0  0  0  0  0
  -27.3700  -28.4160   20.2340 C   0  0  0  0  0  3  0  0  0  0  0  0
  -26.1590  -26.8400   18.9130 C   0  0  0  0  0  3  0  0  0  0  0  0
  -25.0180  -27.6860   18.9760 C   0  0  0  0  0  3  0  0  0  0  0  0
  -23.7540  -29.7560   19.8350 C   0  0  0  0  0  2  0  0  0  0  0  0
  -24.8080  -30.9520   21.7890 N   0  0  0  0  0  0  0  0  0  0  0  0
  -23.6450  -31.9440   23.4890 O   0  0  0  0  0  0  0  0  0  0  0  0
  -22.9210  -29.2940   22.1890 C   0  0  0  0  0  0  0  0  0  0  0  0
  -21.5990  -29.0590   22.0850 N   0  0  0  0  0  0  0  0  0  0  0  0
  -23.6370  -28.6780   22.9830 O   0  0  0  0  0  0  0  0  0  0  0  0
  -21.0700  -29.6110   21.4230 H   0  0  0  0  0  0  0  0  0  0  0  0
  -18.3100  -27.6100   22.5940 C   0  0  0  0  0  0  0  0  0  0  0  0
  -20.8500  -28.0430   22.8330 C   0  0  0  0  0  3  0  0  0  0  0  0
  -21.0370  -26.6400   22.2080 C   0  0  0  0  0  2  0  0  0  0  0  0
  -19.9450  -26.2790   21.1970 C   0  0  0  0  0  2  0  0  0  0  0  0
  -18.5680  -26.3030   21.8650 C   0  0  0  0  0  2  0  0  0  0  0  0
  -19.3800  -28.4340   23.0350 C   0  0  0  0  0  0  0  0  0  0  0  0
  -19.0810  -29.6530   23.6850 C   0  0  0  0  0  3  0  0  0  0  0  0
  -17.7470  -30.0510   23.8920 C   0  0  0  0  0  3  0  0  0  0  0  0
  -16.6930  -29.2270   23.4620 C   0  0  0  0  0  3  0  0  0  0  0  0
  -16.9740  -28.0080   22.8210 C   0  0  0  0  0  3  0  0  0  0  0  0
  -25.9880  -32.4020   23.5430 C   0  0  0  0  0  3  0  0  0  0  0  0
  -26.5750  -31.5930   24.7660 C   0  0  1  0  0  0  0  0  0  0  0  0
  -25.5290  -31.2610   25.8570 C   0  0  0  0  0  1  0  0  0  0  0  0
  -27.2000  -30.2610   24.2970 C   0  0  0  0  0  1  0  0  0  0  0  0
  -27.7160  -32.4020   25.4270 C   0  0  0  0  0  1  0  0  0  0  0  0
  -25.6140  -33.7620   23.9720 N   0  0  0  0  0  0  0  0  0  0  0  0
  -25.9040  -34.8870   23.3030 C   0  0  0  0  0  0  0  0  0  0  0  0
  -26.5730  -34.8870   22.2660 O   0  0  0  0  0  0  0  0  0  0  0  0
  -25.0120  -33.8290   24.7790 H   0  0  0  0  0  0  0  0  0  0  0  0
  -24.1100  -36.6450   23.0990 C   0  0  0  0  0  1  0  0  0  0  0  0
  -25.3710  -36.2200   23.8690 C   0  0  0  0  0  3  0  0  0  0  0  0
  -27.4720  -37.1280   24.7630 C   0  0  0  0  0  1  0  0  0  0  0  0
  -26.3640  -37.3170   23.8300 N   0  0  0  0  0  0  0  0  0  0  0  0
  -25.9240  -38.2100   24.0350 H   0  0  0  0  0  0  0  0  0  0  0  0
  1  2  1  0
  3  6  2  0
  3  4  1  0
  4  1  2  0
  5  2  2  0
  5  7  1  0
  6  5  1  0
  9  4  1  0
  9  8  2  0
 10 16  1  0
 10  8  1  0
 11 16  1  0
 12 13  1  0
 12 11  1  0
 14 13  1  0
 14 21  1  0
 14 15  1  0
 16 15  1  0
 17 10  2  0
 18 19  2  0
 19 38  1  0
 20 19  1  0
 20 23  1  0
 21 18  1  0
 21 22  1  0
 22 20  2  0
 23 24  1  0
 24 25  2  0
 26 29  1  0
 26 25  1  0
 27 26  2  0
 28 27  1  0
 28 23  2  0
 29 30  1  0
 30 31  1  0
 31 32  2  0
 33 32  1  0
 33 37  1  0
 34 33  2  0
 35 30  2  0
 35 34  1  0
 36 35  1  0
 38 39  1  0
 39 42  1  0
 39 41  1  0
 40 38  2  0
 43 44  1  0
 43 18  1  0
 45 43  1  0
 46  9  1  0
 47 46  1  0
 48 49  1  0
 48  6  1  0
 50 61  2  0
 51 49  1  0
 51 56  1  0
 52 60  1  0
 52 62  1  0
 53 59  1  0
 53 55  1  0
 54 60  1  0
 55 54  1  0
 56 55  2  0
 57 58  1  0
 57 51  2  0
 58 53  2  0
 59 52  1  0
 60 50  1  0
 62 64  2  0
 63 62  1  0
 65 63  1  0
 66 75  2  0
 66 71  1  0
 67 63  1  0
 67 71  1  0
 68 67  1  0
 69 70  1  0
 69 68  1  0
 70 66  1  0
 71 72  2  0
 72 73  1  0
 74 73  2  0
 75 74  1  0
 76 50  1  0
 76 81  1  0
 76 77  1  0
 77 80  1  1
 77 78  1  0
 79 77  1  0
 81 84  1  0
 82 86  1  0
 82 81  1  0
 83 82  2  0
 86 85  1  0
 88 86  1  0
 88 89  1  0
 88 87  1  0
M  ISO  4   8 100  10 100  48 101  49 101
M  END
>  <TORSDO>  (39) 
F 19

>  <SCORE>  (39) 
-14.380

>  <name>  (39) 
39

>  <ligand_id>  (39) 
39

>  <original_smiles>  (39) 
[H]OC(=C([H])C(=O)N1C([H])([H])C([H])([H])C([H])([H])C([H])(n2nc(-c3c([H])c([H])c(Oc4c([H])c([H])c(F)c([H])c4F)c([H])c3[H])c(C(=O)N([H])[H])c2N([H])[H])C1([H])[H])c1c([H])c([H])c(C([H])([H])[H])c(C([H])([H])Oc2c([H])c([H])c3c(c2[H])C([H])([H])N(C(=O)C([H])(N([H])C(=O)C([H])(N([H])C([H])([H])[H])C([H])([H])[H])C(C([H])([H])[H])(C([H])([H])[H])C([H])([H])[H])C([H])(C(=O)N([H])C2([H])c4c([H])c([H])c([H])c([H])c4C([H])([H])C([H])([H])C2([H])[H])C3([H])[H])c1[H]

>  <smiles>  (39) 
[H]OC(=C([H])C(=O)N1C([H])([H])C([H])([H])C([H])([H])C([H])(n2nc(-c3c([H])c([H])c(Oc4c([H])c([H])c(F)c([H])c4F)c([H])c3[H])c(C(=O)N([H])[H])c2N([H])[H])C1([H])[H])c1c([H])c([H])c(C([H])([H])[H])c(C([H])([H])Oc2c([H])c([H])c3c(c2[H])C([H])([H])N(C(=O)C([H])(N([H])C(=O)C([H])(N([H])C([H])([H])[H])C([H])([H])[H])C(C([H])([H])[H])(C([H])([H])[H])C([H])([H])[H])C([H])(C(=O)N([H])C2([H])c4c([H])c([H])c([H])c([H])c4C([H])([H])C([H])([H])C2([H])[H])C3([H])[H])c1[H]

$$$$
40:0:0
     RDKit          3D

 95104  0  0  1  0  0  0  0  0999 V2000
  -28.3040  -23.1150   21.1030 C   0  0  0  0  0  3  0  0  0  0  0  0
  -29.0230  -23.4150   18.8170 C   0  0  0  0  0  3  0  0  0  0  0  0
  -28.6750  -22.5340   19.8670 C   0  0  0  0  0  0  0  0  0  0  0  0
  -28.2610  -24.5280   21.2820 C   0  0  0  0  0  0  0  0  0  0  0  0
  -28.9780  -24.8260   18.9830 C   0  0  0  0  0  0  0  0  0  0  0  0
  -28.5810  -25.4090   20.2130 C   0  0  0  0  0  0  0  0  0  0  0  0
  -27.8500  -25.0880   22.6310 C   0  0  0  0  0  1  0  0  0  0  0  0
  -29.3440  -25.7250   17.8170 C   0  0  0  0  0  1  0  0  0  0  0  0
  -28.5860  -26.7990   20.3630 O   0  0  0  0  0  0  0  0  0  0  0  0
  -24.6250  -31.9580   23.3530 C   0  0  0  0  0  0  0  0  0  0  0  0
  -27.4120  -27.5420   20.3270 C   0  0  0  0  0  0  0  0  0  0  0  0
  -23.4920  -30.5660   21.6520 C   0  0  0  0  0  3  0  0  0  0  0  0
  -25.0100  -29.0580   20.2570 C   0  0  0  0  0  0  0  0  0  0  0  0
  -26.0200  -30.9460   21.5460 C   0  0  0  0  0  2  0  0  0  0  0  0
  -26.1420  -29.5770   20.8970 C   0  0  0  0  0  0  0  0  0  0  0  0
  -27.3450  -28.8260   20.9290 C   0  0  0  0  0  3  0  0  0  0  0  0
  -26.2630  -27.0510   19.6690 C   0  0  0  0  0  3  0  0  0  0  0  0
  -25.0690  -27.7970   19.6360 C   0  0  0  0  0  3  0  0  0  0  0  0
  -23.7570  -29.9060   20.2710 C   0  0  0  0  0  2  0  0  0  0  0  0
  -24.7300  -31.1710   22.2440 N   0  0  0  0  0  0  0  0  0  0  0  0
  -23.5220  -32.2110   23.8600 O   0  0  0  0  0  0  0  0  0  0  0  0
  -22.8170  -29.5270   22.5780 C   0  0  0  0  0  0  0  0  0  0  0  0
  -21.5040  -29.3160   22.3890 N   0  0  0  0  0  0  0  0  0  0  0  0
  -23.4750  -28.9130   23.4220 O   0  0  0  0  0  0  0  0  0  0  0  0
  -21.0330  -29.8630   21.6830 H   0  0  0  0  0  0  0  0  0  0  0  0
  -18.1430  -28.0280   22.7100 C   0  0  0  0  0  0  0  0  0  0  0  0
  -20.6750  -28.3550   23.1170 C   0  0  0  0  0  3  0  0  0  0  0  0
  -20.8460  -26.9280   22.5460 C   0  0  0  0  0  2  0  0  0  0  0  0
  -19.8090  -26.5790   21.4750 C   0  0  0  0  0  2  0  0  0  0  0  0
  -18.3920  -26.6850   22.0450 C   0  0  0  0  0  2  0  0  0  0  0  0
  -19.2160  -28.8190   23.1990 C   0  0  0  0  0  0  0  0  0  0  0  0
  -18.9330  -30.0750   23.7790 C   0  0  0  0  0  3  0  0  0  0  0  0
  -17.6080  -30.5400   23.8760 C   0  0  0  0  0  3  0  0  0  0  0  0
  -16.5480  -29.7460   23.4030 C   0  0  0  0  0  3  0  0  0  0  0  0
  -16.8160  -28.4920   22.8270 C   0  0  0  0  0  3  0  0  0  0  0  0
  -25.8810  -32.5950   24.0240 C   0  0  0  0  0  3  0  0  0  0  0  0
  -26.3170  -31.8580   25.3490 C   0  0  1  0  0  0  0  0  0  0  0  0
  -25.1610  -31.6550   26.3560 C   0  0  0  0  0  1  0  0  0  0  0  0
  -26.9150  -30.4680   25.0270 C   0  0  0  0  0  1  0  0  0  0  0  0
  -27.4300  -32.6650   26.0560 C   0  0  0  0  0  1  0  0  0  0  0  0
  -25.5710  -34.0060   24.2940 N   0  0  0  0  0  0  0  0  0  0  0  0
  -25.9530  -35.0300   23.5180 C   0  0  0  0  0  0  0  0  0  0  0  0
  -26.6720  -34.8850   22.5260 O   0  0  0  0  0  0  0  0  0  0  0  0
  -24.9400  -34.1920   25.0590 H   0  0  0  0  0  0  0  0  0  0  0  0
  -24.2690  -36.8270   23.0110 C   0  0  0  0  0  1  0  0  0  0  0  0
  -25.4590  -36.4380   23.9030 C   0  0  0  0  0  3  0  0  0  0  0  0
  -27.5570  -37.3260   24.8200 C   0  0  0  0  0  1  0  0  0  0  0  0
  -26.5080  -37.4760   23.8140 N   0  0  0  0  0  0  0  0  0  0  0  0
  -26.1060  -38.4040   23.9130 H   0  0  0  0  0  0  0  0  0  0  0  0
  -28.5270  -21.0090   19.6060 C   0  0  0  0  0  2  0  0  0  0  0  0
  -29.6510  -20.0100   20.0760 C   0  0  0  0  0  2  0  0  0  0  0  0
  -31.1320  -14.6780   19.8670 C   0  0  0  0  0  0  0  0  0  0  0  0
  -30.8170  -12.3910   18.9830 C   0  0  0  0  0  2  0  0  0  0  0  0
  -29.8530  -12.4430   17.7820 C   0  0  0  0  0  2  0  0  0  0  0  0
  -28.3920  -12.3280   18.2590 C   0  0  0  0  0  2  0  0  0  0  0  0
  -28.0640  -13.2920   19.4300 C   0  0  0  0  0  3  0  0  0  0  0  0
  -29.1500  -13.2450   20.5280 C   0  0  0  0  0  2  0  0  0  0  0  0
  -30.4480  -13.4950   19.8870 N   0  0  0  0  0  0  0  0  0  0  0  0
  -32.2900  -14.7490   19.4440 O   0  0  0  0  0  0  0  0  0  0  0  0
  -30.1040  -17.8730   21.5960 C   0  0  0  0  0  2  0  0  0  0  0  0
  -28.7560  -17.5690   19.4700 C   0  0  0  0  0  2  0  0  0  0  0  0
  -31.1020  -16.8370   21.0100 C   0  0  0  0  0  2  0  0  0  0  0  0
  -29.8700  -16.5820   19.0230 C   0  0  0  0  0  2  0  0  0  0  0  0
  -29.1620  -18.5860   20.5750 C   0  0  2  0  0  0  0  0  0  0  0  0
  -30.4430  -15.8260   20.1580 N   0  0  0  0  0  0  0  0  0  0  0  0
  -25.7210  -13.9580   20.2460 C   0  0  0  0  0  0  0  0  0  0  0  0
  -24.6490  -13.2170   20.6580 C   0  0  0  0  0  0  0  0  0  0  0  0
  -25.0680  -11.8530   20.6040 C   0  0  0  0  0  0  0  0  0  0  0  0
  -26.7300  -13.0490   19.9700 N   0  0  0  0  0  0  0  0  0  0  0  0
  -26.3440  -11.7770   20.2430 N   0  0  0  0  0  0  0  0  0  0  0  0
  -24.3120  -10.6130   20.8160 C   0  0  0  0  0  0  0  0  0  0  0  0
  -24.6870   -9.6800   21.8080 C   0  0  0  0  0  3  0  0  0  0  0  0
  -23.9320   -8.5050   22.0050 C   0  0  0  0  0  3  0  0  0  0  0  0
  -22.7880   -8.2530   21.2110 C   0  0  0  0  0  0  0  0  0  0  0  0
  -22.4330   -9.1740   20.2090 C   0  0  0  0  0  3  0  0  0  0  0  0
  -23.1890  -10.3420   20.0100 C   0  0  0  0  0  3  0  0  0  0  0  0
  -22.0080   -7.1270   21.3150 O   0  0  0  0  0  0  0  0  0  0  0  0
  -21.8160   -6.4950   22.5170 C   0  0  0  0  0  0  0  0  0  0  0  0
  -21.2590   -7.1640   23.6290 C   0  0  0  0  0  3  0  0  0  0  0  0
  -21.0150   -6.4570   24.8250 C   0  0  0  0  0  3  0  0  0  0  0  0
  -21.3160   -5.0840   24.9070 C   0  0  0  0  0  0  0  0  0  0  0  0
  -21.8670   -4.4170   23.7990 C   0  0  0  0  0  3  0  0  0  0  0  0
  -22.1130   -5.1200   22.6060 C   0  0  0  0  0  0  0  0  0  0  0  0
  -22.6240   -4.4680   21.5340 F   0  0  0  0  0  0  0  0  0  0  0  0
  -21.0740   -4.4040   26.0510 F   0  0  0  0  0  0  0  0  0  0  0  0
  -23.2790  -13.7360   20.9870 C   0  0  0  0  0  0  0  0  0  0  0  0
  -22.5700  -13.0680   21.8890 N   0  0  0  0  0  0  0  0  0  0  0  0
  -22.8480  -14.7710   20.4770 O   0  0  0  0  0  0  0  0  0  0  0  0
  -22.9300  -12.2310   22.3220 H   0  0  0  0  0  0  0  0  0  0  0  0
  -21.6520  -13.4000   22.1510 H   0  0  0  0  0  0  0  0  0  0  0  0
  -25.9120  -15.3220   20.0580 N   0  0  0  0  0  0  0  0  0  0  0  0
  -25.1580  -15.9910   20.1700 H   0  0  0  0  0  0  0  0  0  0  0  0
  -26.7400  -15.7230   19.6400 H   0  0  0  0  0  0  0  0  0  0  0  0
  -27.9910  -18.8660   21.3250 O   0  0  0  0  0  0  0  0  0  0  0  0
  -27.6440  -18.0420   21.6500 H   0  0  0  0  0  0  0  0  0  0  0  0
  1  4  1  0
  2  5  2  0
  2  3  1  0
  3  1  2  0
  4  7  1  0
  5  6  1  0
  6  9  1  0
  6  4  2  0
  8  5  1  0
 10 21  2  0
 11  9  1  0
 11 16  1  0
 12 20  1  0
 12 22  1  0
 13 19  1  0
 13 15  1  0
 14 20  1  0
 15 16  2  0
 15 14  1  0
 17 11  2  0
 18 17  1  0
 18 13  2  0
 19 12  1  0
 20 10  1  0
 22 24  2  0
 23 22  1  0
 25 23  1  0
 26 35  2  0
 26 31  1  0
 27 23  1  0
 27 31  1  0
 28 27  1  0
 29 30  1  0
 29 28  1  0
 30 26  1  0
 31 32  2  0
 32 33  1  0
 34 33  2  0
 35 34  1  0
 36 10  1  0
 36 41  1  0
 36 37  1  0
 37 40  1  1
 37 38  1  0
 39 37  1  0
 41 44  1  0
 42 46  1  0
 42 41  1  0
 43 42  2  0
 46 45  1  0
 48 46  1  0
 48 49  1  0
 48 47  1  0
 50  3  1  0
 50 51  1  0
 52 58  1  0
 52 65  1  0
 53 58  1  0
 54 55  1  0
 54 53  1  0
 56 55  1  0
 56 69  1  0
 56 57  1  0
 58 57  1  0
 59 52  2  0
 61 64  1  0
 62 60  1  0
 63 61  1  0
 63 65  1  0
 64 51  1  6
 64 94  1  0
 64 60  1  0
 65 62  1  0
 66 67  2  0
 67 86  1  0
 68 67  1  0
 68 71  1  0
 69 70  1  0
 69 66  1  0
 70 68  2  0
 71 72  1  0
 72 73  2  0
 74 77  1  0
 74 73  1  0
 75 74  2  0
 76 75  1  0
 76 71  2  0
 77 78  1  0
 78 83  2  0
 78 79  1  0
 79 80  2  0
 80 81  1  0
 81 85  1  0
 82 81  2  0
 83 82  1  0
 84 83  1  0
 86 87  1  0
 87 90  1  0
 87 89  1  0
 88 86  2  0
 91 92  1  0
 91 66  1  0
 93 91  1  0
 94 95  1  0
M  ISO  4   6 101   9 101  52 100  65 100
M  END
>  <TORSDO>  (40) 
F 19

>  <SCORE>  (40) 
-13.670

>  <name>  (40) 
40

>  <ligand_id>  (40) 
40

>  <original_smiles>  (40) 
[H]OC1(C([H])([H])C([H])([H])c2c([H])c(C([H])([H])[H])c(Oc3c([H])c([H])c4c(c3[H])C([H])([H])N(C(=O)C([H])(N([H])C(=O)C([H])(N([H])C([H])([H])[H])C([H])([H])[H])C(C([H])([H])[H])(C([H])([H])[H])C([H])([H])[H])C([H])(C(=O)N([H])C3([H])c5c([H])c([H])c([H])c([H])c5C([H])([H])C([H])([H])C3([H])[H])C4([H])[H])c(C([H])([H])[H])c2[H])C([H])([H])C([H])([H])N(C(=O)N2C([H])([H])C([H])([H])C([H])([H])C([H])(n3nc(-c4c([H])c([H])c(Oc5c([H])c([H])c(F)c([H])c5F)c([H])c4[H])c(C(=O)N([H])[H])c3N([H])[H])C2([H])[H])C([H])([H])C1([H])[H]

>  <smiles>  (40) 
[H]OC1(C([H])([H])C([H])([H])c2c([H])c(C([H])([H])[H])c(Oc3c([H])c([H])c4c(c3[H])C([H])([H])N(C(=O)C([H])(N([H])C(=O)C([H])(N([H])C([H])([H])[H])C([H])([H])[H])C(C([H])([H])[H])(C([H])([H])[H])C([H])([H])[H])C([H])(C(=O)N([H])C3([H])c5c([H])c([H])c([H])c([H])c5C([H])([H])C([H])([H])C3([H])[H])C4([H])[H])c(C([H])([H])[H])c2[H])C([H])([H])C([H])([H])N(C(=O)N2C([H])([H])C([H])([H])C([H])([H])C([H])(n3nc(-c4c([H])c([H])c(Oc5c([H])c([H])c(F)c([H])c5F)c([H])c4[H])c(C(=O)N([H])[H])c3N([H])[H])C2([H])[H])C([H])([H])C1([H])[H]

$$$$
41:0:0
     RDKit          3D

 93101  0  0  1  0  0  0  0  0999 V2000
  -28.7240  -22.7470   21.2580 C   0  0  0  0  0  3  0  0  0  0  0  0
  -28.9920  -21.3370   21.4700 C   0  0  0  0  0  3  0  0  0  0  0  0
  -28.7900  -23.3920   19.9800 C   0  0  0  0  0  0  0  0  0  0  0  0
  -29.3340  -20.3940   20.4300 C   0  0  0  0  0  0  0  0  0  0  0  0
  -29.2290  -22.4720   18.9550 C   0  0  0  0  0  0  0  0  0  0  0  0
  -29.4820  -21.0570   19.1710 C   0  0  0  0  0  0  0  0  0  0  0  0
  -29.7930  -20.3080   18.0830 F   0  0  0  0  0  0  0  0  0  0  0  0
  -29.2860  -18.3620   22.1230 C   0  0  0  0  0  1  0  0  0  0  0  0
  -29.3060  -18.7530   20.6250 C   0  0  0  0  0  3  0  0  0  0  0  0
  -31.7370  -18.0350   20.1060 C   0  0  0  0  0  1  0  0  0  0  0  0
  -30.2690  -17.6560   19.8440 C   0  0  0  0  0  3  0  0  0  0  0  0
  -30.7420  -14.9590   19.6600 C   0  0  0  0  0  0  0  0  0  0  0  0
  -30.4830  -12.6370   18.6880 C   0  0  0  0  0  2  0  0  0  0  0  0
  -29.4290  -12.6360   17.5550 C   0  0  0  0  0  2  0  0  0  0  0  0
  -28.0130  -12.4470   18.1270 C   0  0  0  0  0  2  0  0  0  0  0  0
  -27.7440  -13.3450   19.3640 C   0  0  0  0  0  3  0  0  0  0  0  0
  -28.9100  -13.3160   20.3760 C   0  0  0  0  0  2  0  0  0  0  0  0
  -30.1270  -13.7130   19.6570 N   0  0  0  0  0  0  0  0  0  0  0  0
  -31.8710  -15.0450   19.1680 O   0  0  0  0  0  0  0  0  0  0  0  0
  -30.0230  -16.1130   20.0310 N   0  0  0  0  0  0  0  0  0  0  0  0
  -29.1070  -15.8960   20.3930 H   0  0  0  0  0  0  0  0  0  0  0  0
  -25.4710  -13.8980   20.4120 C   0  0  0  0  0  0  0  0  0  0  0  0
  -24.4440  -13.1110   20.8520 C   0  0  0  0  0  0  0  0  0  0  0  0
  -24.8760  -11.7590   20.6750 C   0  0  0  0  0  0  0  0  0  0  0  0
  -26.4650  -13.0280   19.9930 N   0  0  0  0  0  0  0  0  0  0  0  0
  -26.1210  -11.7320   20.2140 N   0  0  0  0  0  0  0  0  0  0  0  0
  -24.1520  -10.4950   20.8620 C   0  0  0  0  0  0  0  0  0  0  0  0
  -24.5810   -9.5280   21.7980 C   0  0  0  0  0  3  0  0  0  0  0  0
  -23.8540   -8.3310   21.9760 C   0  0  0  0  0  3  0  0  0  0  0  0
  -22.6840   -8.0920   21.2170 C   0  0  0  0  0  0  0  0  0  0  0  0
  -22.2730   -9.0470   20.2690 C   0  0  0  0  0  3  0  0  0  0  0  0
  -23.0020  -10.2350   20.0890 C   0  0  0  0  0  3  0  0  0  0  0  0
  -21.9280   -6.9490   21.3020 O   0  0  0  0  0  0  0  0  0  0  0  0
  -21.7510   -6.2900   22.4930 C   0  0  0  0  0  0  0  0  0  0  0  0
  -21.1580   -6.9160   23.6100 C   0  0  0  0  0  3  0  0  0  0  0  0
  -20.9320   -6.1820   24.7910 C   0  0  0  0  0  3  0  0  0  0  0  0
  -21.2910   -4.8210   24.8560 C   0  0  0  0  0  0  0  0  0  0  0  0
  -21.8820   -4.1970   23.7420 C   0  0  0  0  0  3  0  0  0  0  0  0
  -22.1090   -4.9280   22.5650 C   0  0  0  0  0  0  0  0  0  0  0  0
  -22.6560   -4.3140   21.4880 F   0  0  0  0  0  0  0  0  0  0  0  0
  -21.0690   -4.1150   25.9880 F   0  0  0  0  0  0  0  0  0  0  0  0
  -23.0950  -13.5820   21.3130 C   0  0  0  0  0  0  0  0  0  0  0  0
  -22.4770  -12.8510   22.2340 N   0  0  0  0  0  0  0  0  0  0  0  0
  -22.6050  -14.6300   20.8930 O   0  0  0  0  0  0  0  0  0  0  0  0
  -22.8930  -12.0030   22.5870 H   0  0  0  0  0  0  0  0  0  0  0  0
  -21.5760  -13.1380   22.5840 H   0  0  0  0  0  0  0  0  0  0  0  0
  -25.6430  -15.2760   20.3130 N   0  0  0  0  0  0  0  0  0  0  0  0
  -24.9220  -15.9320   20.5930 H   0  0  0  0  0  0  0  0  0  0  0  0
  -26.4390  -15.7260   19.8790 H   0  0  0  0  0  0  0  0  0  0  0  0
  -29.3480  -22.9030   17.6630 O   0  0  0  0  0  0  0  0  0  0  0  0
  -29.5880  -22.1720   17.1000 H   0  0  0  0  0  0  0  0  0  0  0  0
  -28.0490  -24.8160   19.6380 C   0  0  0  0  0  2  0  0  0  0  0  0
  -28.3260  -26.2570   20.0980 O   0  0  0  0  0  0  0  0  0  0  0  0
  -24.5700  -31.7230   23.2060 C   0  0  0  0  0  0  0  0  0  0  0  0
  -27.2570  -27.2220   20.0160 C   0  0  0  0  0  0  0  0  0  0  0  0
  -23.3910  -30.3500   21.5310 C   0  0  0  0  0  3  0  0  0  0  0  0
  -24.8750  -28.8800   20.0380 C   0  0  0  0  0  0  0  0  0  0  0  0
  -25.9310  -30.7090   21.3460 C   0  0  0  0  0  2  0  0  0  0  0  0
  -26.0380  -29.3400   20.6640 C   0  0  0  0  0  0  0  0  0  0  0  0
  -27.2300  -28.5240   20.6490 C   0  0  0  0  0  3  0  0  0  0  0  0
  -26.0700  -26.8770   19.3220 C   0  0  0  0  0  3  0  0  0  0  0  0
  -24.8990  -27.6590   19.3530 C   0  0  0  0  0  3  0  0  0  0  0  0
  -23.6160  -29.7280   20.1250 C   0  0  0  0  0  2  0  0  0  0  0  0
  -24.6500  -30.9490   22.0840 N   0  0  0  0  0  0  0  0  0  0  0  0
  -23.4830  -31.9570   23.7540 O   0  0  0  0  0  0  0  0  0  0  0  0
  -22.7580  -29.2900   22.4640 C   0  0  0  0  0  0  0  0  0  0  0  0
  -21.4420  -29.0590   22.3240 N   0  0  0  0  0  0  0  0  0  0  0  0
  -23.4570  -28.6750   23.2760 O   0  0  0  0  0  0  0  0  0  0  0  0
  -20.9360  -29.6010   21.6380 H   0  0  0  0  0  0  0  0  0  0  0  0
  -18.1190  -27.6900   22.7610 C   0  0  0  0  0  0  0  0  0  0  0  0
  -20.6590  -28.0700   23.0650 C   0  0  0  0  0  3  0  0  0  0  0  0
  -20.8380  -26.6550   22.4630 C   0  0  0  0  0  2  0  0  0  0  0  0
  -19.7620  -26.3000   21.4310 C   0  0  0  0  0  2  0  0  0  0  0  0
  -18.3680  -26.3660   22.0590 C   0  0  0  0  0  2  0  0  0  0  0  0
  -19.1950  -28.4980   23.2190 C   0  0  0  0  0  0  0  0  0  0  0  0
  -18.9060  -29.7360   23.8310 C   0  0  0  0  0  3  0  0  0  0  0  0
  -17.5760  -30.1680   23.9920 C   0  0  0  0  0  3  0  0  0  0  0  0
  -16.5160  -29.3590   23.5460 C   0  0  0  0  0  3  0  0  0  0  0  0
  -16.7880  -28.1220   22.9370 C   0  0  0  0  0  3  0  0  0  0  0  0
  -25.8410  -32.3680   23.8440 C   0  0  0  0  0  3  0  0  0  0  0  0
  -26.3650  -31.5820   25.1080 C   0  0  1  0  0  0  0  0  0  0  0  0
  -25.2700  -31.2960   26.1620 C   0  0  0  0  0  1  0  0  0  0  0  0
  -26.9800  -30.2280   24.6890 C   0  0  0  0  0  1  0  0  0  0  0  0
  -27.4980  -32.3850   25.7900 C   0  0  0  0  0  1  0  0  0  0  0  0
  -25.5090  -33.7580   24.1970 N   0  0  0  0  0  0  0  0  0  0  0  0
  -25.7880  -34.8280   23.4420 C   0  0  0  0  0  0  0  0  0  0  0  0
  -26.4260  -34.7520   22.3880 O   0  0  0  0  0  0  0  0  0  0  0  0
  -24.9520  -33.8920   25.0280 H   0  0  0  0  0  0  0  0  0  0  0  0
  -23.9980  -36.5730   23.1680 C   0  0  0  0  0  1  0  0  0  0  0  0
  -25.2810  -36.2010   23.9290 C   0  0  0  0  0  3  0  0  0  0  0  0
  -27.4130  -37.1460   24.6900 C   0  0  0  0  0  1  0  0  0  0  0  0
  -26.2750  -37.2840   23.7840 N   0  0  0  0  0  0  0  0  0  0  0  0
  -25.8460  -38.1910   23.9420 H   0  0  0  0  0  0  0  0  0  0  0  0
  1  2  1  0
  3  1  2  0
  4  9  1  0
  4  2  2  0
  5  6  2  0
  5  3  1  0
  6  4  1  0
  7  6  1  0
  9  8  1  0
 11 20  1  0
 11 10  1  0
 11  9  1  0
 12 20  1  0
 13 18  1  0
 14 15  1  0
 14 13  1  0
 16 15  1  0
 16 25  1  0
 16 17  1  0
 18 12  1  0
 18 17  1  0
 19 12  2  0
 20 21  1  0
 22 23  2  0
 23 42  1  0
 24 23  1  0
 24 27  1  0
 25 26  1  0
 25 22  1  0
 26 24  2  0
 27 28  1  0
 28 29  2  0
 30 33  1  0
 30 29  1  0
 31 30  2  0
 32 31  1  0
 32 27  2  0
 33 34  1  0
 34 39  2  0
 34 35  1  0
 35 36  2  0
 36 37  1  0
 37 41  1  0
 38 37  2  0
 39 38  1  0
 40 39  1  0
 42 43  1  0
 43 46  1  0
 43 45  1  0
 44 42  2  0
 47 22  1  0
 47 48  1  0
 49 47  1  0
 50  5  1  0
 51 50  1  0
 52  3  1  0
 52 53  1  0
 54 65  2  0
 55 53  1  0
 55 60  1  0
 56 64  1  0
 56 66  1  0
 57 63  1  0
 57 59  1  0
 58 64  1  0
 59 58  1  0
 60 59  2  0
 61 62  1  0
 61 55  2  0
 62 57  2  0
 63 56  1  0
 64 54  1  0
 66 68  2  0
 67 66  1  0
 69 67  1  0
 70 79  2  0
 70 75  1  0
 71 67  1  0
 71 75  1  0
 72 71  1  0
 73 74  1  0
 73 72  1  0
 74 70  1  0
 75 76  2  0
 76 77  1  0
 78 77  2  0
 79 78  1  0
 80 54  1  0
 80 85  1  0
 80 81  1  0
 81 84  1  1
 81 82  1  0
 83 81  1  0
 85 88  1  0
 86 90  1  0
 86 85  1  0
 87 86  2  0
 90 89  1  0
 92 90  1  0
 92 93  1  0
 92 91  1  0
M  ISO  4  12 100  20 100  52 101  53 101
M  END
>  <TORSDO>  (41) 
F 20

>  <SCORE>  (41) 
-11.958

>  <name>  (41) 
41

>  <ligand_id>  (41) 
41

>  <original_smiles>  (41) 
[H]Oc1c(F)c(C([H])(C([H])([H])[H])C([H])(N([H])C(=O)N2C([H])([H])C([H])([H])C([H])([H])C([H])(n3nc(-c4c([H])c([H])c(Oc5c([H])c([H])c(F)c([H])c5F)c([H])c4[H])c(C(=O)N([H])[H])c3N([H])[H])C2([H])[H])C([H])([H])[H])c([H])c([H])c1C([H])([H])Oc1c([H])c([H])c2c(c1[H])C([H])([H])N(C(=O)C([H])(N([H])C(=O)C([H])(N([H])C([H])([H])[H])C([H])([H])[H])C(C([H])([H])[H])(C([H])([H])[H])C([H])([H])[H])C([H])(C(=O)N([H])C1([H])c3c([H])c([H])c([H])c([H])c3C([H])([H])C([H])([H])C1([H])[H])C2([H])[H]

>  <smiles>  (41) 
[H]Oc1c(F)c(C([H])(C([H])([H])[H])C([H])(N([H])C(=O)N2C([H])([H])C([H])([H])C([H])([H])C([H])(n3nc(-c4c([H])c([H])c(Oc5c([H])c([H])c(F)c([H])c5F)c([H])c4[H])c(C(=O)N([H])[H])c3N([H])[H])C2([H])[H])C([H])([H])[H])c([H])c([H])c1C([H])([H])Oc1c([H])c([H])c2c(c1[H])C([H])([H])N(C(=O)C([H])(N([H])C(=O)C([H])(N([H])C([H])([H])[H])C([H])([H])[H])C(C([H])([H])[H])(C([H])([H])[H])C([H])([H])[H])C([H])(C(=O)N([H])C1([H])c3c([H])c([H])c([H])c([H])c3C([H])([H])C([H])([H])C1([H])[H])C2([H])[H]

$$$$
42:0:0
     RDKit          3D

 96102  0  0  1  0  0  0  0  0999 V2000
  -24.4450  -17.9510   17.4710 C   0  0  0  0  0  1  0  0  0  0  0  0
  -25.2550  -17.4510   18.6820 C   0  0  0  0  0  3  0  0  0  0  0  0
  -25.6750  -18.9060   19.5570 N   0  0  0  0  0  4  0  0  0  0  0  0
  -24.8730  -19.0830   20.1370 H   0  0  0  0  0  0  0  0  0  0  0  0
  -26.3810  -18.5690   20.1930 H   0  0  0  0  0  0  0  0  0  0  0  0
  -26.2220  -20.5080   19.1060 C   0  0  0  0  0  3  0  0  0  0  0  0
  -26.6820  -22.1460   19.9970 C   0  0  0  0  0  3  0  0  0  0  0  0
  -27.2950  -23.9120   19.5650 C   0  0  0  0  0  2  0  0  0  0  0  0
  -27.8620  -25.4610   20.1820 O   0  0  0  0  0  0  0  0  0  0  0  0
  -24.8570  -31.7860   23.3610 C   0  0  0  0  0  0  0  0  0  0  0  0
  -27.2380  -26.8340   20.1630 C   0  0  0  0  0  0  0  0  0  0  0  0
  -23.7450  -30.4490   21.6500 C   0  0  0  0  0  3  0  0  0  0  0  0
  -25.2070  -28.9510   20.1640 C   0  0  0  0  0  0  0  0  0  0  0  0
  -26.3290  -30.5920   21.6280 C   0  0  0  0  0  2  0  0  0  0  0  0
  -26.3780  -29.2090   20.8830 C   0  0  0  0  0  0  0  0  0  0  0  0
  -27.4180  -28.1520   20.8770 C   0  0  0  0  0  3  0  0  0  0  0  0
  -26.1240  -26.8420   19.3430 C   0  0  0  0  0  3  0  0  0  0  0  0
  -25.1230  -27.8100   19.3730 C   0  0  0  0  0  3  0  0  0  0  0  0
  -24.0210  -29.8940   20.2370 C   0  0  0  0  0  2  0  0  0  0  0  0
  -25.0040  -30.9760   22.2640 N   0  0  0  0  0  0  0  0  0  0  0  0
  -23.7390  -32.0440   23.8410 O   0  0  0  0  0  0  0  0  0  0  0  0
  -23.0510  -29.3750   22.5310 C   0  0  0  0  0  0  0  0  0  0  0  0
  -21.7460  -29.1320   22.3060 N   0  0  0  0  0  0  0  0  0  0  0  0
  -23.6910  -28.7740   23.3980 O   0  0  0  0  0  0  0  0  0  0  0  0
  -21.2790  -29.6740   21.5930 H   0  0  0  0  0  0  0  0  0  0  0  0
  -18.4250  -27.6890   22.5220 C   0  0  0  0  0  0  0  0  0  0  0  0
  -20.9260  -28.1390   23.0090 C   0  0  0  0  0  3  0  0  0  0  0  0
  -21.1800  -26.7160   22.4570 C   0  0  0  0  0  2  0  0  0  0  0  0
  -20.1970  -26.3130   21.3520 C   0  0  0  0  0  2  0  0  0  0  0  0
  -18.7580  -26.3560   21.8710 C   0  0  0  0  0  2  0  0  0  0  0  0
  -19.4430  -28.5310   23.0420 C   0  0  0  0  0  0  0  0  0  0  0  0
  -19.0790  -29.7720   23.6100 C   0  0  0  0  0  3  0  0  0  0  0  0
  -17.7310  -30.1730   23.6620 C   0  0  0  0  0  3  0  0  0  0  0  0
  -16.7260  -29.3290   23.1560 C   0  0  0  0  0  3  0  0  0  0  0  0
  -17.0730  -28.0890   22.5930 C   0  0  0  0  0  3  0  0  0  0  0  0
  -26.0810  -32.4440   24.0590 C   0  0  0  0  0  3  0  0  0  0  0  0
  -25.7120  -33.8320   24.4020 N   0  0  0  0  0  0  0  0  0  0  0  0
  -26.0470  -34.9180   23.6930 C   0  0  0  0  0  0  0  0  0  0  0  0
  -26.7650  -34.8620   22.6920 O   0  0  0  0  0  0  0  0  0  0  0  0
  -25.0760  -33.9470   25.1770 H   0  0  0  0  0  0  0  0  0  0  0  0
  -24.2850  -36.6840   23.3260 C   0  0  0  0  0  1  0  0  0  0  0  0
  -25.5060  -36.2830   24.1700 C   0  0  0  0  0  3  0  0  0  0  0  0
  -27.5790  -37.2090   25.1080 C   0  0  0  0  0  1  0  0  0  0  0  0
  -26.5130  -37.3670   24.1250 N   0  0  0  0  0  0  0  0  0  0  0  0
  -26.0750  -38.2720   24.2740 H   0  0  0  0  0  0  0  0  0  0  0  0
  -26.5330  -31.6750   25.3620 C   0  0  1  0  0  0  0  0  0  0  0  0
  -25.3800  -31.3950   26.3570 C   0  0  0  0  0  1  0  0  0  0  0  0
  -27.1800  -30.3160   25.0120 C   0  0  0  0  0  1  0  0  0  0  0  0
  -27.6150  -32.4950   26.1030 C   0  0  0  0  0  1  0  0  0  0  0  0
  -24.4450  -15.7660   19.1730 C   0  0  0  0  0  1  0  0  0  0  0  0
  -24.0840  -13.8370   18.8610 C   0  0  0  0  0  1  0  0  0  0  0  0
  -25.7870  -12.0660   18.4450 C   0  0  0  0  0  2  0  0  0  0  0  0
  -28.0940  -11.4020   20.5210 C   0  0  0  0  0  2  0  0  0  0  0  0
  -27.4040  -11.6640   18.9500 C   0  0  0  0  0  3  0  0  0  0  0  0
  -24.3480  -12.0250   19.4830 C   0  0  0  0  0  2  0  0  0  0  0  0
  -26.7010  -10.8090   21.7020 C   0  0  1  0  0  0  0  0  0  0  0  0
  -24.7430  -11.1140   21.3480 C   0  0  0  0  0  2  0  0  0  0  0  0
  -28.1390  -11.0920   17.7510 C   0  0  0  0  0  1  0  0  0  0  0  0
  -27.0890  -10.3140   23.0820 C   0  0  0  0  0  1  0  0  0  0  0  0
  -23.7990  -10.3080   22.2630 C   0  0  0  0  0  1  0  0  0  0  0  0
  -29.8210  -12.4720   21.0010 C   0  0  2  0  0  0  0  0  0  0  0  0
  -30.7750  -11.8610   19.8530 C   0  0  0  0  0  1  0  0  0  0  0  0
  -30.1100  -13.1450   18.7240 C   0  0  0  0  0  1  0  0  0  0  0  0
  -28.7870  -14.1100   19.3200 C   0  0  0  0  0  2  0  0  0  0  0  0
  -28.3010  -14.1750   21.0420 C   0  0  0  0  0  2  0  0  0  0  0  0
  -29.2090  -12.8490   22.2280 C   0  0  0  0  0  1  0  0  0  0  0  0
  -30.4500  -11.8980   21.5310 N   0  0  0  0  0  1  0  0  0  0  0  0
  -30.7230  -13.7280   21.0050 O   0  0  0  0  0  1  0  0  0  0  0  0
  -25.8350  -14.5650   21.5750 C   0  0  1  0  0  0  0  0  0  0  0  0
  -25.0370  -13.5730   21.9880 C   0  0  0  0  0  3  0  0  0  0  0  0
  -26.1200  -12.5970   21.5690 C   0  0  2  0  0  0  0  0  0  0  0  0
  -26.9550  -13.9320   21.1870 N   0  0  1  0  0  4  0  0  0  0  0  0
  -26.7680  -13.3640   22.2490 N   0  0  0  0  0  0  0  0  0  0  0  0
  -25.9700   -9.7620   21.3550 C   0  0  2  0  0  0  0  0  0  0  0  0
  -25.7110   -8.7520   22.4600 C   0  0  0  0  0  3  0  0  0  0  0  0
  -24.6770   -7.7590   22.6540 C   0  0  0  0  0  3  0  0  0  0  0  0
  -23.7610   -7.4380   21.6400 C   0  0  0  0  0  0  0  0  0  0  0  0
  -23.9560   -8.1640   20.4780 C   0  0  0  0  0  3  0  0  0  0  0  0
  -25.0670   -9.0510   20.3490 C   0  0  0  0  0  2  0  0  0  0  0  0
  -22.8920   -6.3590   21.5870 O   0  0  0  0  0  0  0  0  0  0  0  0
  -22.3080   -5.7920   22.6970 C   0  0  0  0  0  0  0  0  0  0  0  0
  -21.2560   -6.4610   23.3530 C   0  0  0  0  0  3  0  0  0  0  0  0
  -20.5750   -5.8420   24.4220 C   0  0  0  0  0  3  0  0  0  0  0  0
  -20.9390   -4.5490   24.8370 C   0  0  0  0  0  0  0  0  0  0  0  0
  -21.9810   -3.8680   24.1810 C   0  0  0  0  0  3  0  0  0  0  0  0
  -22.6580   -4.4820   23.1090 C   0  0  0  0  0  0  0  0  0  0  0  0
  -23.6320   -3.7960   22.4640 F   0  0  0  0  0  0  0  0  0  0  0  0
  -20.2860   -3.9590   25.8670 F   0  0  0  0  0  0  0  0  0  0  0  0
  -23.4490  -13.5580   22.2660 C   0  0  0  0  0  0  0  0  0  0  0  0
  -22.7250  -12.6540   22.9240 N   0  0  0  0  0  0  0  0  0  0  0  0
  -22.7020  -14.3210   21.7060 O   0  0  0  0  0  0  0  0  0  0  0  0
  -23.2110  -11.8620   23.3230 H   0  0  0  0  0  0  0  0  0  0  0  0
  -21.7210  -12.7220   22.9600 H   0  0  0  0  0  0  0  0  0  0  0  0
  -25.7990  -15.9010   21.6320 N   0  0  0  0  0  0  0  0  0  0  0  0
  -25.1620  -16.2100   22.3550 H   0  0  0  0  0  0  0  0  0  0  0  0
  -26.7210  -16.2920   21.7760 H   0  0  0  0  0  0  0  0  0  0  0  0
  1  2  1  0
  2 50  1  0
  2  3  1  0
  3  4  1  0
  3  5  1  0
  6  3  1  0
  6  7  2  0
  8  7  1  0
  8  9  1  0
 10 21  2  0
 11  9  1  0
 11 16  1  0
 12 20  1  0
 12 22  1  0
 13 19  1  0
 13 15  1  0
 14 20  1  0
 15 14  1  0
 16 15  2  0
 17 18  1  0
 17 11  2  0
 18 13  2  0
 19 12  1  0
 20 10  1  0
 22 24  2  0
 23 22  1  0
 25 23  1  0
 26 35  2  0
 26 31  1  0
 27 23  1  0
 27 31  1  0
 28 27  1  0
 29 30  1  0
 29 28  1  0
 30 26  1  0
 31 32  2  0
 32 33  1  0
 34 33  2  0
 35 34  1  0
 36 10  1  0
 36 37  1  0
 36 46  1  0
 37 40  1  0
 38 42  1  0
 38 37  1  0
 39 38  2  0
 42 41  1  0
 44 42  1  0
 44 45  1  0
 44 43  1  0
 46 49  1  1
 46 47  1  0
 48 46  1  0
 51 55  1  0
 52 54  1  0
 52 55  1  0
 53 56  1  0
 54 58  1  0
 54 53  1  0
 56 59  1  1
 74 57  1  1
 57 60  1  0
 61 68  1  0
 61 67  1  0
 61 66  1  6
 62 61  1  0
 63 64  1  0
 64 65  1  0
 69 94  1  1
 69 70  1  0
 69 73  1  0
 70 89  1  0
 71 56  1  0
 71 70  1  1
 71 73  1  0
 72 65  1  1
 72 71  1  0
 72 69  1  0
 72 73  1  0
 74 56  1  0
 74 75  1  0
 75 76  2  0
 77 76  1  0
 78 77  2  0
 79 78  1  0
 79 74  1  0
 80 77  1  0
 80 81  1  0
 81 86  2  0
 81 82  1  0
 82 83  2  0
 83 84  1  0
 84 88  1  0
 85 84  2  0
 86 85  1  0
 87 86  1  0
 89 90  1  0
 90 93  1  0
 90 92  1  0
 91 89  2  0
 94 96  1  0
 94 95  1  0
M  ISO  4   8 101   9 101  53 100  61 100
M  END
>  <TORSDO>  (42) 
F 23

>  <SCORE>  (42) 
9.826

>  <name>  (42) 
42

>  <ligand_id>  (42) 
42

>  <original_smiles>  (42) 
[H]c1c([H])c([H])c2c(c1[H])C([H])([H])C([H])([H])C([H])([H])C2([H])N([H])C(=O)C1([H])N(C(=O)C([H])(N([H])C(=O)C([H])(N([H])C([H])([H])[H])C([H])([H])[H])C(C([H])([H])[H])(C([H])([H])[H])C([H])([H])[H])C([H])([H])c2c([H])c(OC([H])([H])C([H])([H])C([H])([H])[N+]([H])([H])C([H])(C([H])([H])[H])C([H])([H])C([H])([H])c3c([H])c(C([H])([H])[H])c(C(=O)N4C([H])([H])C([H])([H])C([H])([H])C([H])(n5nc(-c6c([H])c([H])c(Oc7c([H])c([H])c(F)c([H])c7F)c([H])c6[H])c(C(=O)N([H])[H])c5N([H])[H])C4([H])[H])c(C([H])([H])[H])c3C([H])([H])[H])c([H])c([H])c2C1([H])[H]

>  <smiles>  (42) 
[H]c1c([H])c([H])c2c(c1[H])C([H])([H])C([H])([H])C([H])([H])C2([H])N([H])C(=O)C1([H])N(C(=O)C([H])(N([H])C(=O)C([H])(N([H])C([H])([H])[H])C([H])([H])[H])C(C([H])([H])[H])(C([H])([H])[H])C([H])([H])[H])C([H])([H])c2c([H])c(OC([H])([H])C([H])([H])C([H])([H])[N+]([H])([H])C([H])(C([H])([H])[H])C([H])([H])C([H])([H])c3c([H])c(C([H])([H])[H])c(C(=O)N4C([H])([H])C([H])([H])C([H])([H])C([H])(n5nc(-c6c([H])c([H])c(Oc7c([H])c([H])c(F)c([H])c7F)c([H])c6[H])c(C(=O)N([H])[H])c5N([H])[H])C4([H])[H])c(C([H])([H])[H])c3C([H])([H])[H])c([H])c([H])c2C1([H])[H]

$$$$
43:0:0
     RDKit          3D

 91 99  0  0  1  0  0  0  0  0999 V2000
  -29.4920  -19.4420   21.3910 C   0  0  0  0  0  3  0  0  0  0  0  0
  -29.3370  -20.6870   22.0570 C   0  0  0  0  0  3  0  0  0  0  0  0
  -29.3670  -20.6840   19.3170 C   0  0  0  0  0  3  0  0  0  0  0  0
  -29.5590  -19.3570   19.9830 C   0  0  0  0  0  0  0  0  0  0  0  0
  -29.1510  -22.0120   19.9690 C   0  0  0  0  0  0  0  0  0  0  0  0
  -29.2170  -21.9330   21.3820 C   0  0  0  0  0  0  0  0  0  0  0  0
  -28.8850  -17.7930   18.0490 C   0  0  0  0  0  1  0  0  0  0  0  0
  -29.8340  -17.8820   19.2550 C   0  0  0  0  0  3  0  0  0  0  0  0
  -30.5980  -15.2650   19.6770 C   0  0  0  0  0  0  0  0  0  0  0  0
  -30.5300  -12.8400   18.9300 C   0  0  0  0  0  2  0  0  0  0  0  0
  -29.5320  -12.6570   17.7610 C   0  0  0  0  0  2  0  0  0  0  0  0
  -28.1090  -12.4140   18.3030 C   0  0  0  0  0  2  0  0  0  0  0  0
  -27.7280  -13.4070   19.4330 C   0  0  0  0  0  3  0  0  0  0  0  0
  -28.8450  -13.5650   20.4870 C   0  0  0  0  0  2  0  0  0  0  0  0
  -30.0630  -13.9790   19.7780 N   0  0  0  0  0  0  0  0  0  0  0  0
  -31.7330  -15.3520   19.2020 O   0  0  0  0  0  0  0  0  0  0  0  0
  -29.8060  -16.4340   19.9080 N   0  0  0  0  0  0  0  0  0  0  0  0
  -28.9510  -16.2370   20.4090 H   0  0  0  0  0  0  0  0  0  0  0  0
  -25.4390  -13.9520   20.4390 C   0  0  0  0  0  0  0  0  0  0  0  0
  -24.4110  -13.1630   20.8760 C   0  0  0  0  0  0  0  0  0  0  0  0
  -24.8570  -11.8150   20.7300 C   0  0  0  0  0  0  0  0  0  0  0  0
  -26.4420  -13.0850   20.0420 N   0  0  0  0  0  0  0  0  0  0  0  0
  -26.1080  -11.7910   20.2810 N   0  0  0  0  0  0  0  0  0  0  0  0
  -24.1420  -10.5480   20.9310 C   0  0  0  0  0  0  0  0  0  0  0  0
  -24.6000   -9.5750   21.8470 C   0  0  0  0  0  3  0  0  0  0  0  0
  -23.8780   -8.3750   22.0340 C   0  0  0  0  0  3  0  0  0  0  0  0
  -22.6860   -8.1410   21.3080 C   0  0  0  0  0  0  0  0  0  0  0  0
  -22.2490   -9.1020   20.3820 C   0  0  0  0  0  3  0  0  0  0  0  0
  -22.9710  -10.2920   20.1890 C   0  0  0  0  0  3  0  0  0  0  0  0
  -21.9370   -6.9920   21.4040 O   0  0  0  0  0  0  0  0  0  0  0  0
  -21.8620   -6.2800   22.5740 C   0  0  0  0  0  0  0  0  0  0  0  0
  -21.3500   -6.8450   23.7620 C   0  0  0  0  0  3  0  0  0  0  0  0
  -21.2220   -6.0540   24.9210 C   0  0  0  0  0  3  0  0  0  0  0  0
  -21.6040   -4.7000   24.8930 C   0  0  0  0  0  0  0  0  0  0  0  0
  -22.1150   -4.1360   23.7120 C   0  0  0  0  0  3  0  0  0  0  0  0
  -22.2390   -4.9230   22.5560 C   0  0  0  0  0  0  0  0  0  0  0  0
  -22.7120   -4.3690   21.4110 F   0  0  0  0  0  0  0  0  0  0  0  0
  -21.4790   -3.9360   26.0060 F   0  0  0  0  0  0  0  0  0  0  0  0
  -23.0540  -13.6350   21.3100 C   0  0  0  0  0  0  0  0  0  0  0  0
  -22.4070  -12.9050   22.2110 N   0  0  0  0  0  0  0  0  0  0  0  0
  -22.5800  -14.6900   20.8880 O   0  0  0  0  0  0  0  0  0  0  0  0
  -22.8100  -12.0550   22.5820 H   0  0  0  0  0  0  0  0  0  0  0  0
  -21.5030  -13.2090   22.5420 H   0  0  0  0  0  0  0  0  0  0  0  0
  -25.5890  -15.3290   20.3220 N   0  0  0  0  0  0  0  0  0  0  0  0
  -24.8160  -15.9580   20.5140 H   0  0  0  0  0  0  0  0  0  0  0  0
  -26.3740  -15.7990   19.8880 H   0  0  0  0  0  0  0  0  0  0  0  0
  -30.5090  -23.5060   22.5310 C   0  0  0  0  0  1  0  0  0  0  0  0
  -29.2040  -23.0820   22.1310 O   0  0  0  0  0  0  0  0  0  0  0  0
  -28.9850  -23.4980   19.2220 C   0  0  0  0  0  3  0  0  0  0  0  0
  -28.1470  -24.8840   19.7600 C   0  0  0  0  0  3  0  0  0  0  0  0
  -28.1720  -26.3530   19.2050 O   0  0  0  0  0  0  0  0  0  0  0  0
  -24.4870  -31.5650   22.9340 C   0  0  0  0  0  0  0  0  0  0  0  0
  -27.0580  -27.2700   19.3310 C   0  0  0  0  0  0  0  0  0  0  0  0
  -23.2410  -30.2890   21.2250 C   0  0  0  0  0  3  0  0  0  0  0  0
  -24.6620  -28.9130   19.5800 C   0  0  0  0  0  0  0  0  0  0  0  0
  -25.7680  -30.6730   20.9500 C   0  0  0  0  0  2  0  0  0  0  0  0
  -25.8570  -29.3500   20.1690 C   0  0  0  0  0  0  0  0  0  0  0  0
  -27.0510  -28.5450   20.0280 C   0  0  0  0  0  3  0  0  0  0  0  0
  -25.8320  -26.9350   18.7150 C   0  0  0  0  0  3  0  0  0  0  0  0
  -24.6620  -27.7190   18.8400 C   0  0  0  0  0  3  0  0  0  0  0  0
  -23.4080  -29.7520   19.7770 C   0  0  0  0  0  2  0  0  0  0  0  0
  -24.5210  -30.8600   21.7620 N   0  0  0  0  0  0  0  0  0  0  0  0
  -23.4240  -31.7510   23.5480 O   0  0  0  0  0  0  0  0  0  0  0  0
  -22.6570  -29.1660   22.1220 C   0  0  0  0  0  0  0  0  0  0  0  0
  -21.3320  -28.9450   22.0450 N   0  0  0  0  0  0  0  0  0  0  0  0
  -23.3970  -28.5030   22.8520 O   0  0  0  0  0  0  0  0  0  0  0  0
  -20.7850  -29.5420   21.4410 H   0  0  0  0  0  0  0  0  0  0  0  0
  -18.0430  -27.5390   22.5900 C   0  0  0  0  0  0  0  0  0  0  0  0
  -20.5970  -27.8980   22.7590 C   0  0  0  0  0  3  0  0  0  0  0  0
  -20.7320  -26.5330   22.0430 C   0  0  0  0  0  2  0  0  0  0  0  0
  -19.5960  -26.2590   21.0530 C   0  0  0  0  0  2  0  0  0  0  0  0
  -18.2440  -26.2730   21.7720 C   0  0  0  0  0  2  0  0  0  0  0  0
  -19.1490  -28.3090   23.0390 C   0  0  0  0  0  0  0  0  0  0  0  0
  -18.9090  -29.4920   23.7710 C   0  0  0  0  0  3  0  0  0  0  0  0
  -17.5950  -29.9120   24.0500 C   0  0  0  0  0  3  0  0  0  0  0  0
  -16.5040  -29.1370   23.6170 C   0  0  0  0  0  3  0  0  0  0  0  0
  -16.7290  -27.9490   22.8970 C   0  0  0  0  0  3  0  0  0  0  0  0
  -25.7790  -32.1870   23.5480 C   0  0  0  0  0  3  0  0  0  0  0  0
  -26.3770  -31.3340   24.7350 C   0  0  1  0  0  0  0  0  0  0  0  0
  -25.3480  -30.9920   25.8370 C   0  0  0  0  0  1  0  0  0  0  0  0
  -26.9630  -30.0020   24.2130 C   0  0  0  0  0  1  0  0  0  0  0  0
  -27.5420  -32.0970   25.4050 C   0  0  0  0  0  1  0  0  0  0  0  0
  -25.4450  -33.5450   24.0140 N   0  0  0  0  0  0  0  0  0  0  0  0
  -25.7050  -34.6710   23.3360 C   0  0  0  0  0  0  0  0  0  0  0  0
  -26.3160  -34.6820   22.2670 O   0  0  0  0  0  0  0  0  0  0  0  0
  -24.8940  -33.6020   24.8560 H   0  0  0  0  0  0  0  0  0  0  0  0
  -23.8980  -36.4230   23.2570 C   0  0  0  0  0  1  0  0  0  0  0  0
  -25.2070  -36.0000   23.9430 C   0  0  0  0  0  3  0  0  0  0  0  0
  -27.3640  -36.9060   24.6960 C   0  0  0  0  0  1  0  0  0  0  0  0
  -26.1910  -37.1020   23.8450 N   0  0  0  0  0  0  0  0  0  0  0  0
  -25.7630  -37.9870   24.0970 H   0  0  0  0  0  0  0  0  0  0  0  0
  1  2  1  0
  3  5  2  0
  3  4  1  0
  4  1  2  0
  5  6  1  0
  6  2  2  0
  6 48  1  0
  8  7  1  0
  8 17  1  0
  8  4  1  0
  9 15  1  0
  9 17  1  0
 10 15  1  0
 11 12  1  0
 11 10  1  0
 13 12  1  0
 13 22  1  0
 13 14  1  0
 15 14  1  0
 16  9  2  0
 17 18  1  0
 19 20  2  0
 20 39  1  0
 21 20  1  0
 21 24  1  0
 22 23  1  0
 22 19  1  0
 23 21  2  0
 24 25  1  0
 25 26  2  0
 27 30  1  0
 27 26  1  0
 28 27  2  0
 29 28  1  0
 29 24  2  0
 30 31  1  0
 31 32  1  0
 32 33  2  0
 34 33  1  0
 34 38  1  0
 35 34  2  0
 36 31  2  0
 36 35  1  0
 37 36  1  0
 39 40  1  0
 40 43  1  0
 40 42  1  0
 41 39  2  0
 44 19  1  0
 44 45  1  0
 46 44  1  0
 48 47  1  0
 49 50  2  0
 49  5  1  0
 51 53  1  0
 51 50  1  0
 52 63  2  0
 53 58  1  0
 54 62  1  0
 54 64  1  0
 55 61  1  0
 55 57  1  0
 56 62  1  0
 57 56  1  0
 58 57  2  0
 59 60  1  0
 59 53  2  0
 60 55  2  0
 61 54  1  0
 62 52  1  0
 64 66  2  0
 65 64  1  0
 67 65  1  0
 68 77  2  0
 68 73  1  0
 69 65  1  0
 69 73  1  0
 70 69  1  0
 71 72  1  0
 71 70  1  0
 72 68  1  0
 73 74  2  0
 74 75  1  0
 76 75  2  0
 77 76  1  0
 78 52  1  0
 78 83  1  0
 78 79  1  0
 79 82  1  1
 79 80  1  0
 81 79  1  0
 83 86  1  0
 84 88  1  0
 84 83  1  0
 85 84  2  0
 88 87  1  0
 90 88  1  0
 90 91  1  0
 90 89  1  0
M  ISO  4   9 100  17 100  50 101  51 101
M  END
>  <TORSDO>  (43) 
F 20

>  <SCORE>  (43) 
-12.481

>  <name>  (43) 
43

>  <ligand_id>  (43) 
43

>  <original_smiles>  (43) 
[H]c1c([H])c([H])c2c(c1[H])C([H])([H])C([H])([H])C([H])([H])C2([H])N([H])C(=O)C1([H])N(C(=O)C([H])(N([H])C(=O)C([H])(N([H])C([H])([H])[H])C([H])([H])[H])C(C([H])([H])[H])(C([H])([H])[H])C([H])([H])[H])C([H])([H])c2c([H])c(OC([H])([H])C([H])([H])c3c([H])c(C([H])(N([H])C(=O)N4C([H])([H])C([H])([H])C([H])([H])C([H])(n5nc(-c6c([H])c([H])c(Oc7c([H])c([H])c(F)c([H])c7F)c([H])c6[H])c(C(=O)N([H])[H])c5N([H])[H])C4([H])[H])C([H])([H])[H])c([H])c([H])c3OC([H])([H])[H])c([H])c([H])c2C1([H])[H]

>  <smiles>  (43) 
[H]c1c([H])c([H])c2c(c1[H])C([H])([H])C([H])([H])C([H])([H])C2([H])N([H])C(=O)C1([H])N(C(=O)C([H])(N([H])C(=O)C([H])(N([H])C([H])([H])[H])C([H])([H])[H])C(C([H])([H])[H])(C([H])([H])[H])C([H])([H])[H])C([H])([H])c2c([H])c(OC([H])([H])C([H])([H])c3c([H])c(C([H])(N([H])C(=O)N4C([H])([H])C([H])([H])C([H])([H])C([H])(n5nc(-c6c([H])c([H])c(Oc7c([H])c([H])c(F)c([H])c7F)c([H])c6[H])c(C(=O)N([H])[H])c5N([H])[H])C4([H])[H])C([H])([H])[H])c([H])c([H])c3OC([H])([H])[H])c([H])c([H])c2C1([H])[H]

$$$$
44:0:0
     RDKit          3D

 94102  0  0  1  0  0  0  0  0999 V2000
  -29.0170  -23.0210   19.2890 C   0  0  0  0  0  3  0  0  0  0  0  0
  -28.9400  -24.4360   19.1410 C   0  0  0  0  0  3  0  0  0  0  0  0
  -28.6420  -22.3850   20.5000 C   0  0  0  0  0  0  0  0  0  0  0  0
  -28.1500  -24.6460   21.4150 C   0  0  0  0  0  0  0  0  0  0  0  0
  -28.4940  -25.2770   20.1910 C   0  0  0  0  0  0  0  0  0  0  0  0
  -28.2130  -23.2330   21.5590 C   0  0  0  0  0  0  0  0  0  0  0  0
  -27.8680  -22.7080   22.7630 F   0  0  0  0  0  0  0  0  0  0  0  0
  -27.7600  -25.4120   22.5140 N   0  0  0  0  0  0  0  0  0  0  0  0
  -28.0350  -26.3870   22.5310 H   0  0  0  0  0  0  0  0  0  0  0  0
  -27.7740  -24.9600   23.4210 H   0  0  0  0  0  0  0  0  0  0  0  0
  -28.5710  -20.8710   20.6620 C   0  0  0  0  0  0  0  0  0  0  0  0
  -27.6880  -20.3520   21.3520 O   0  0  0  0  0  0  0  0  0  0  0  0
  -29.5920  -19.9090   19.9760 C   0  0  0  0  0  2  0  0  0  0  0  0
  -29.2500  -18.3670   20.1340 C   0  0  0  0  0  2  0  0  0  0  0  0
  -30.4170  -17.3350   20.1690 C   0  0  0  0  0  0  0  0  0  0  0  0
  -31.5400  -17.6750   19.7890 O   0  0  0  0  0  0  0  0  0  0  0  0
  -30.1190  -15.9100   20.7620 C   0  0  0  0  0  2  0  0  0  0  0  0
  -30.8480  -14.6510   20.1490 C   0  0  0  0  0  0  0  0  0  0  0  0
  -30.5470  -12.4550   19.0230 C   0  0  0  0  0  2  0  0  0  0  0  0
  -29.5850  -12.6450   17.8300 C   0  0  0  0  0  2  0  0  0  0  0  0
  -28.1140  -12.5200   18.2800 C   0  0  0  0  0  2  0  0  0  0  0  0
  -27.8050  -13.3690   19.5410 C   0  0  0  0  0  3  0  0  0  0  0  0
  -28.8770  -13.1480   20.6330 C   0  0  0  0  0  2  0  0  0  0  0  0
  -30.1880  -13.4550   20.0440 N   0  0  0  0  0  0  0  0  0  0  0  0
  -31.9900  -14.7660   19.6920 O   0  0  0  0  0  0  0  0  0  0  0  0
  -25.4320  -14.0240   20.2840 C   0  0  0  0  0  0  0  0  0  0  0  0
  -24.3560  -13.2770   20.6770 C   0  0  0  0  0  0  0  0  0  0  0  0
  -24.7930  -11.9160   20.6560 C   0  0  0  0  0  0  0  0  0  0  0  0
  -26.4570  -13.1210   20.0470 N   0  0  0  0  0  0  0  0  0  0  0  0
  -26.0780  -11.8500   20.3310 N   0  0  0  0  0  0  0  0  0  0  0  0
  -24.0460  -10.6700   20.8720 C   0  0  0  0  0  0  0  0  0  0  0  0
  -24.4520   -9.7240   21.8380 C   0  0  0  0  0  3  0  0  0  0  0  0
  -23.7070   -8.5430   22.0400 C   0  0  0  0  0  3  0  0  0  0  0  0
  -22.5420   -8.2980   21.2750 C   0  0  0  0  0  0  0  0  0  0  0  0
  -22.1550   -9.2330   20.2970 C   0  0  0  0  0  3  0  0  0  0  0  0
  -22.9000  -10.4070   20.0940 C   0  0  0  0  0  3  0  0  0  0  0  0
  -21.7700   -7.1670   21.3840 O   0  0  0  0  0  0  0  0  0  0  0  0
  -21.6680   -6.4780   22.5660 C   0  0  0  0  0  0  0  0  0  0  0  0
  -21.1880   -7.0880   23.7460 C   0  0  0  0  0  3  0  0  0  0  0  0
  -21.0320   -6.3230   24.9190 C   0  0  0  0  0  3  0  0  0  0  0  0
  -21.3450   -4.9510   24.9140 C   0  0  0  0  0  0  0  0  0  0  0  0
  -21.8180   -4.3420   23.7390 C   0  0  0  0  0  3  0  0  0  0  0  0
  -21.9760   -5.1030   22.5680 C   0  0  0  0  0  0  0  0  0  0  0  0
  -22.4110   -4.5050   21.4320 F   0  0  0  0  0  0  0  0  0  0  0  0
  -21.1880   -4.2150   26.0400 F   0  0  0  0  0  0  0  0  0  0  0  0
  -22.9700  -13.7830   20.9580 C   0  0  0  0  0  0  0  0  0  0  0  0
  -22.2410  -13.1130   21.8440 N   0  0  0  0  0  0  0  0  0  0  0  0
  -22.5430  -14.8060   20.4250 O   0  0  0  0  0  0  0  0  0  0  0  0
  -22.6000  -12.2860   22.2980 H   0  0  0  0  0  0  0  0  0  0  0  0
  -21.3110  -13.4320   22.0700 H   0  0  0  0  0  0  0  0  0  0  0  0
  -25.6200  -15.3890   20.0860 N   0  0  0  0  0  0  0  0  0  0  0  0
  -24.8630  -16.0570   20.1890 H   0  0  0  0  0  0  0  0  0  0  0  0
  -26.4690  -15.8070   19.7300 H   0  0  0  0  0  0  0  0  0  0  0  0
  -28.4920  -26.6690   20.0320 O   0  0  0  0  0  0  0  0  0  0  0  0
  -24.5610  -31.7870   23.1580 C   0  0  0  0  0  0  0  0  0  0  0  0
  -27.3140  -27.4050   20.0400 C   0  0  0  0  0  0  0  0  0  0  0  0
  -23.4030  -30.4010   21.4690 C   0  0  0  0  0  3  0  0  0  0  0  0
  -24.9020  -28.9050   20.0400 C   0  0  0  0  0  0  0  0  0  0  0  0
  -25.9280  -30.7900   21.3190 C   0  0  0  0  0  2  0  0  0  0  0  0
  -26.0440  -29.4280   20.6580 C   0  0  0  0  0  0  0  0  0  0  0  0
  -27.2520  -28.6850   20.6540 C   0  0  0  0  0  3  0  0  0  0  0  0
  -26.1540  -26.9100   19.4070 C   0  0  0  0  0  3  0  0  0  0  0  0
  -24.9530  -27.6470   19.4120 C   0  0  0  0  0  3  0  0  0  0  0  0
  -23.6460  -29.7480   20.0810 C   0  0  0  0  0  2  0  0  0  0  0  0
  -24.6480  -31.0090   22.0410 N   0  0  0  0  0  0  0  0  0  0  0  0
  -23.4670  -32.0320   23.6860 O   0  0  0  0  0  0  0  0  0  0  0  0
  -22.7490  -29.3540   22.4030 C   0  0  0  0  0  0  0  0  0  0  0  0
  -21.4280  -29.1610   22.2570 N   0  0  0  0  0  0  0  0  0  0  0  0
  -23.4290  -28.7220   23.2150 O   0  0  0  0  0  0  0  0  0  0  0  0
  -20.9380  -29.7270   21.5790 H   0  0  0  0  0  0  0  0  0  0  0  0
  -18.0600  -27.9250   22.7020 C   0  0  0  0  0  0  0  0  0  0  0  0
  -20.6150  -28.1960   22.9970 C   0  0  0  0  0  3  0  0  0  0  0  0
  -20.7290  -26.7800   22.3840 C   0  0  0  0  0  2  0  0  0  0  0  0
  -19.6370  -26.4780   21.3540 C   0  0  0  0  0  2  0  0  0  0  0  0
  -18.2510  -26.5960   21.9920 C   0  0  0  0  0  2  0  0  0  0  0  0
  -19.1700  -28.6830   23.1600 C   0  0  0  0  0  0  0  0  0  0  0  0
  -18.9360  -29.9290   23.7840 C   0  0  0  0  0  3  0  0  0  0  0  0
  -17.6260  -30.4140   23.9550 C   0  0  0  0  0  3  0  0  0  0  0  0
  -16.5310  -29.6520   23.5130 C   0  0  0  0  0  3  0  0  0  0  0  0
  -16.7490  -28.4090   22.8910 C   0  0  0  0  0  3  0  0  0  0  0  0
  -25.8260  -32.4270   23.8100 C   0  0  0  0  0  3  0  0  0  0  0  0
  -25.4970  -33.8200   24.1460 N   0  0  0  0  0  0  0  0  0  0  0  0
  -25.8240  -34.8810   23.3960 C   0  0  0  0  0  0  0  0  0  0  0  0
  -26.5040  -34.7900   22.3710 O   0  0  0  0  0  0  0  0  0  0  0  0
  -24.8960  -33.9630   24.9450 H   0  0  0  0  0  0  0  0  0  0  0  0
  -24.0710  -36.6480   23.0430 C   0  0  0  0  0  1  0  0  0  0  0  0
  -25.3150  -36.2600   23.8580 C   0  0  0  0  0  3  0  0  0  0  0  0
  -27.4340  -37.1740   24.6980 C   0  0  0  0  0  1  0  0  0  0  0  0
  -26.3320  -37.3280   23.7510 N   0  0  0  0  0  0  0  0  0  0  0  0
  -25.9110  -38.2420   23.9010 H   0  0  0  0  0  0  0  0  0  0  0  0
  -26.3260  -31.6520   25.0920 C   0  0  1  0  0  0  0  0  0  0  0  0
  -25.2150  -31.3970   26.1380 C   0  0  0  0  0  1  0  0  0  0  0  0
  -26.9270  -30.2820   24.6970 C   0  0  0  0  0  1  0  0  0  0  0  0
  -27.4550  -32.4510   25.7830 C   0  0  0  0  0  1  0  0  0  0  0  0
  1  3  1  0
  2  1  2  0
  2  5  1  0
  3 11  1  0
  3  6  2  0
  4  6  1  0
  4  8  1  0
  5  4  2  0
  6  7  1  0
  8  9  1  0
  8 10  1  0
 11 12  2  0
 13 14  1  0
 13 11  1  0
 14 15  1  0
 15 17  1  0
 16 15  2  0
 18 17  1  0
 19 24  1  0
 20 21  1  0
 20 19  1  0
 22 21  1  0
 22 29  1  0
 22 23  1  0
 24 18  1  0
 24 23  1  0
 25 18  2  0
 26 27  2  0
 27 46  1  0
 28 27  1  0
 28 31  1  0
 29 26  1  0
 29 30  1  0
 30 28  2  0
 31 32  1  0
 32 33  2  0
 34 37  1  0
 34 33  1  0
 35 34  2  0
 36 35  1  0
 36 31  2  0
 37 38  1  0
 38 43  2  0
 38 39  1  0
 39 40  2  0
 41 40  1  0
 41 45  1  0
 42 41  2  0
 43 42  1  0
 44 43  1  0
 46 47  1  0
 47 50  1  0
 47 49  1  0
 48 46  2  0
 51 52  1  0
 51 26  1  0
 53 51  1  0
 54 56  1  0
 54  5  1  0
 55 66  2  0
 56 61  1  0
 57 65  1  0
 57 67  1  0
 58 64  1  0
 58 60  1  0
 59 65  1  0
 60 59  1  0
 61 60  2  0
 62 63  1  0
 62 56  2  0
 63 58  2  0
 64 57  1  0
 65 55  1  0
 67 69  2  0
 68 67  1  0
 70 68  1  0
 71 80  2  0
 71 76  1  0
 72 68  1  0
 72 76  1  0
 73 72  1  0
 74 75  1  0
 74 73  1  0
 75 71  1  0
 76 77  2  0
 77 78  1  0
 79 78  2  0
 80 79  1  0
 81 55  1  0
 81 82  1  0
 81 91  1  0
 82 85  1  0
 83 87  1  0
 83 82  1  0
 84 83  2  0
 87 86  1  0
 89 87  1  0
 89 90  1  0
 89 88  1  0
 91 94  1  1
 91 92  1  0
 93 91  1  0
M  ISO  4   5 101  17 100  18 100  54 101
M  END
>  <TORSDO>  (44) 
F 22

>  <SCORE>  (44) 
-12.350

>  <name>  (44) 
44

>  <ligand_id>  (44) 
44

>  <original_smiles>  (44) 
[H]c1c([H])c([H])c2c(c1[H])C([H])([H])C([H])([H])C([H])([H])C2([H])N([H])C(=O)C1([H])N(C(=O)C([H])(N([H])C(=O)C([H])(N([H])C([H])([H])[H])C([H])([H])[H])C(C([H])([H])[H])(C([H])([H])[H])C([H])([H])[H])C([H])([H])c2c([H])c(Oc3c([H])c([H])c(C(=O)C([H])([H])C([H])([H])C(=O)C([H])([H])C(=O)N4C([H])([H])C([H])([H])C([H])([H])C([H])(n5nc(-c6c([H])c([H])c(Oc7c([H])c([H])c(F)c([H])c7F)c([H])c6[H])c(C(=O)N([H])[H])c5N([H])[H])C4([H])[H])c(F)c3N([H])[H])c([H])c([H])c2C1([H])[H]

>  <smiles>  (44) 
[H]c1c([H])c([H])c2c(c1[H])C([H])([H])C([H])([H])C([H])([H])C2([H])N([H])C(=O)C1([H])N(C(=O)C([H])(N([H])C(=O)C([H])(N([H])C([H])([H])[H])C([H])([H])[H])C(C([H])([H])[H])(C([H])([H])[H])C([H])([H])[H])C([H])([H])c2c([H])c(Oc3c([H])c([H])c(C(=O)C([H])([H])C([H])([H])C(=O)C([H])([H])C(=O)N4C([H])([H])C([H])([H])C([H])([H])C([H])(n5nc(-c6c([H])c([H])c(Oc7c([H])c([H])c(F)c([H])c7F)c([H])c6[H])c(C(=O)N([H])[H])c5N([H])[H])C4([H])[H])c(F)c3N([H])[H])c([H])c([H])c2C1([H])[H]

$$$$
45:0:0
     RDKit          3D

 94102  0  0  1  0  0  0  0  0999 V2000
  -29.1030  -19.5090   18.6290 C   0  0  0  0  0  3  0  0  0  0  0  0
  -30.9760  -21.0880   18.6300 C   0  0  0  0  0  3  0  0  0  0  0  0
  -29.1310  -19.6370   20.0290 C   0  0  0  0  0  3  0  0  0  0  0  0
  -30.1300  -20.1910   17.9250 C   0  0  0  0  0  0  0  0  0  0  0  0
  -29.3240  -21.1640   20.3670 C   0  0  0  0  0  3  0  0  0  0  0  0
  -30.6080  -21.5300   19.9220 C   0  0  0  0  0  0  0  0  0  0  0  0
  -29.1510  -19.9730   15.6010 C   0  0  0  0  0  1  0  0  0  0  0  0
  -31.0940  -18.4970   16.3180 C   0  0  0  0  0  1  0  0  0  0  0  0
  -30.4180  -19.8680   16.4650 C   0  0  0  0  0  3  0  0  0  0  0  0
  -29.6250  -16.7190   20.2210 C   0  0  0  0  0  3  0  0  0  0  0  0
  -29.8280  -18.1560   20.5220 C   0  0  0  0  0  0  0  0  0  0  0  0
  -30.4460  -15.3150   20.4140 C   0  0  0  0  0  0  0  0  0  0  0  0
  -30.4620  -12.8420   19.6050 C   0  0  0  0  0  2  0  0  0  0  0  0
  -29.5870  -12.5960   18.3490 C   0  0  0  0  0  2  0  0  0  0  0  0
  -28.1260  -12.3200   18.7480 C   0  0  0  0  0  2  0  0  0  0  0  0
  -27.6270  -13.3080   19.8310 C   0  0  0  0  0  3  0  0  0  0  0  0
  -28.6360  -13.5100   20.9780 C   0  0  0  0  0  2  0  0  0  0  0  0
  -29.8840  -14.0050   20.3760 N   0  0  0  0  0  0  0  0  0  0  0  0
  -31.6830  -15.2640   20.3290 O   0  0  0  0  0  0  0  0  0  0  0  0
  -25.2400  -13.8580   20.5300 C   0  0  0  0  0  0  0  0  0  0  0  0
  -24.1720  -13.0800   20.8770 C   0  0  0  0  0  0  0  0  0  0  0  0
  -24.6470  -11.7320   20.8710 C   0  0  0  0  0  0  0  0  0  0  0  0
  -26.2910  -12.9860   20.3170 N   0  0  0  0  0  0  0  0  0  0  0  0
  -25.9470  -11.7010   20.5950 N   0  0  0  0  0  0  0  0  0  0  0  0
  -23.9190  -10.4670   21.0530 C   0  0  0  0  0  0  0  0  0  0  0  0
  -24.3210   -9.5130   22.0130 C   0  0  0  0  0  3  0  0  0  0  0  0
  -23.5910   -8.3170   22.1810 C   0  0  0  0  0  3  0  0  0  0  0  0
  -22.4450   -8.0650   21.3890 C   0  0  0  0  0  0  0  0  0  0  0  0
  -22.0630   -9.0080   20.4200 C   0  0  0  0  0  3  0  0  0  0  0  0
  -22.7930  -10.1960   20.2490 C   0  0  0  0  0  3  0  0  0  0  0  0
  -21.6900   -6.9200   21.4660 O   0  0  0  0  0  0  0  0  0  0  0  0
  -21.5940   -6.1970   22.6280 C   0  0  0  0  0  0  0  0  0  0  0  0
  -21.0950   -6.7650   23.8200 C   0  0  0  0  0  3  0  0  0  0  0  0
  -20.9480   -5.9670   24.9720 C   0  0  0  0  0  3  0  0  0  0  0  0
  -21.2920   -4.6020   24.9330 C   0  0  0  0  0  0  0  0  0  0  0  0
  -21.7830   -4.0340   23.7450 C   0  0  0  0  0  3  0  0  0  0  0  0
  -21.9310   -4.8290   22.5950 C   0  0  0  0  0  0  0  0  0  0  0  0
  -22.3850   -4.2710   21.4470 F   0  0  0  0  0  0  0  0  0  0  0  0
  -21.1440   -3.8330   26.0370 F   0  0  0  0  0  0  0  0  0  0  0  0
  -22.7660  -13.5530   21.0990 C   0  0  0  0  0  0  0  0  0  0  0  0
  -22.0090  -12.8570   21.9390 N   0  0  0  0  0  0  0  0  0  0  0  0
  -22.3460  -14.5780   20.5630 O   0  0  0  0  0  0  0  0  0  0  0  0
  -22.3620  -12.0290   22.3960 H   0  0  0  0  0  0  0  0  0  0  0  0
  -21.0630  -13.1570   22.1280 H   0  0  0  0  0  0  0  0  0  0  0  0
  -25.4020  -15.2290   20.3500 N   0  0  0  0  0  0  0  0  0  0  0  0
  -24.6330  -15.8830   20.4510 H   0  0  0  0  0  0  0  0  0  0  0  0
  -26.2640  -15.6750   20.0630 H   0  0  0  0  0  0  0  0  0  0  0  0
  -30.8880  -18.4400   21.2900 O   0  0  0  0  0  0  0  0  0  0  0  0
  -30.9540  -19.3870   21.3350 H   0  0  0  0  0  0  0  0  0  0  0  0
  -31.2900  -22.5510   20.5160 O   0  0  0  0  0  0  0  0  0  0  0  0
  -32.1010  -22.7690   20.0670 H   0  0  0  0  0  0  0  0  0  0  0  0
  -28.3700  -22.6030   20.0340 C   0  0  0  0  0  2  0  0  0  0  0  0
  -28.3050  -24.2910   20.6940 C   0  0  0  0  0  2  0  0  0  0  0  0
  -28.2570  -25.8760   20.2000 O   0  0  0  0  0  0  0  0  0  0  0  0
  -24.5960  -31.8320   23.1730 C   0  0  0  0  0  0  0  0  0  0  0  0
  -27.2020  -26.9290   20.2430 C   0  0  0  0  0  0  0  0  0  0  0  0
  -23.4290  -30.4230   21.5280 C   0  0  0  0  0  3  0  0  0  0  0  0
  -24.8980  -28.8030   20.1470 C   0  0  0  0  0  0  0  0  0  0  0  0
  -25.9960  -30.6380   21.4150 C   0  0  0  0  0  2  0  0  0  0  0  0
  -26.0790  -29.2200   20.7770 C   0  0  0  0  0  0  0  0  0  0  0  0
  -27.2290  -28.3080   20.7900 C   0  0  0  0  0  3  0  0  0  0  0  0
  -25.9880  -26.6590   19.5760 C   0  0  0  0  0  3  0  0  0  0  0  0
  -24.8770  -27.5430   19.5270 C   0  0  0  0  0  3  0  0  0  0  0  0
  -23.6800  -29.7270   20.1620 C   0  0  0  0  0  2  0  0  0  0  0  0
  -24.6950  -30.9930   22.0920 N   0  0  0  0  0  0  0  0  0  0  0  0
  -23.4990  -32.1240   23.6770 O   0  0  0  0  0  0  0  0  0  0  0  0
  -22.7220  -29.4340   22.4900 C   0  0  0  0  0  0  0  0  0  0  0  0
  -21.3890  -29.2850   22.3630 N   0  0  0  0  0  0  0  0  0  0  0  0
  -23.3790  -28.8000   23.3190 O   0  0  0  0  0  0  0  0  0  0  0  0
  -20.9120  -29.8470   21.6720 H   0  0  0  0  0  0  0  0  0  0  0  0
  -17.9880  -28.1400   22.8950 C   0  0  0  0  0  0  0  0  0  0  0  0
  -20.5560  -28.3530   23.1300 C   0  0  0  0  0  3  0  0  0  0  0  0
  -20.6220  -26.9270   22.5340 C   0  0  0  0  0  2  0  0  0  0  0  0
  -19.5010  -26.6410   21.5290 C   0  0  0  0  0  2  0  0  0  0  0  0
  -18.1310  -26.8000   22.1930 C   0  0  0  0  0  2  0  0  0  0  0  0
  -19.1260  -28.8760   23.3210 C   0  0  0  0  0  0  0  0  0  0  0  0
  -18.9350  -30.1300   23.9420 C   0  0  0  0  0  3  0  0  0  0  0  0
  -17.6410  -30.6480   24.1390 C   0  0  0  0  0  3  0  0  0  0  0  0
  -16.5190  -29.9090   23.7250 C   0  0  0  0  0  3  0  0  0  0  0  0
  -16.6930  -28.6570   23.1100 C   0  0  0  0  0  3  0  0  0  0  0  0
  -25.8550  -32.4820   23.8220 C   0  0  0  0  0  3  0  0  0  0  0  0
  -25.5310  -33.8850   24.1410 N   0  0  0  0  0  0  0  0  0  0  0  0
  -25.8820  -34.9420   23.3980 C   0  0  0  0  0  0  0  0  0  0  0  0
  -26.5770  -34.8420   22.3840 O   0  0  0  0  0  0  0  0  0  0  0  0
  -24.9150  -34.0360   24.9270 H   0  0  0  0  0  0  0  0  0  0  0  0
  -24.1790  -36.7570   23.0030 C   0  0  0  0  0  1  0  0  0  0  0  0
  -25.3900  -36.3330   23.8520 C   0  0  0  0  0  3  0  0  0  0  0  0
  -27.4980  -37.2050   24.7630 C   0  0  0  0  0  1  0  0  0  0  0  0
  -26.4320  -37.3810   23.7810 N   0  0  0  0  0  0  0  0  0  0  0  0
  -26.0260  -38.3030   23.9150 H   0  0  0  0  0  0  0  0  0  0  0  0
  -26.3400  -31.7300   25.1230 C   0  0  1  0  0  0  0  0  0  0  0  0
  -25.2220  -31.5070   26.1680 C   0  0  0  0  0  1  0  0  0  0  0  0
  -26.9330  -30.3460   24.7720 C   0  0  0  0  0  1  0  0  0  0  0  0
  -27.4740  -32.5340   25.8020 C   0  0  0  0  0  1  0  0  0  0  0  0
  1  3  1  0
  2  6  2  0
  3  5  1  0
  3 11  1  0
  4  1  2  0
  4  2  1  0
  5 52  1  0
  6  5  1  0
  6 50  1  0
  7  9  1  0
  8  9  1  0
  9  4  1  0
 10 12  1  0
 10 11  2  0
 11 48  1  0
 13 18  1  0
 14 15  1  0
 14 13  1  0
 16 15  1  0
 16 23  1  0
 16 17  1  0
 18 12  1  0
 18 17  1  0
 19 12  2  0
 20 21  2  0
 21 40  1  0
 22 21  1  0
 22 25  1  0
 23 20  1  0
 23 24  1  0
 24 22  2  0
 25 26  1  0
 26 27  2  0
 28 31  1  0
 28 27  1  0
 29 28  2  0
 30 29  1  0
 30 25  2  0
 31 32  1  0
 32 33  1  0
 33 34  2  0
 35 34  1  0
 35 39  1  0
 36 35  2  0
 37 32  2  0
 37 36  1  0
 38 37  1  0
 40 41  1  0
 41 44  1  0
 41 43  1  0
 42 40  2  0
 45 46  1  0
 45 20  1  0
 47 45  1  0
 48 49  1  0
 51 50  1  0
 52 53  1  0
 54 56  1  0
 54 53  1  0
 55 66  2  0
 56 61  1  0
 57 65  1  0
 57 67  1  0
 58 64  1  0
 58 60  1  0
 59 65  1  0
 60 61  2  0
 60 59  1  0
 62 56  2  0
 63 62  1  0
 63 58  2  0
 64 57  1  0
 65 55  1  0
 67 69  2  0
 68 67  1  0
 70 68  1  0
 71 80  2  0
 71 76  1  0
 72 68  1  0
 72 76  1  0
 73 72  1  0
 74 75  1  0
 74 73  1  0
 75 71  1  0
 76 77  2  0
 77 78  1  0
 79 78  2  0
 80 79  1  0
 81 55  1  0
 81 82  1  0
 81 91  1  0
 82 85  1  0
 83 87  1  0
 83 82  1  0
 84 83  2  0
 87 86  1  0
 89 87  1  0
 89 90  1  0
 89 88  1  0
 91 94  1  1
 91 92  1  0
 93 91  1  0
M  ISO  4  10 100  12 100  53 101  54 101
M  END
>  <TORSDO>  (45) 
F 22

>  <SCORE>  (45) 
-15.319

>  <name>  (45) 
45

>  <ligand_id>  (45) 
45

>  <original_smiles>  (45) 
[H]OC(=C([H])C(=O)N1C([H])([H])C([H])([H])C([H])([H])C([H])(n2nc(-c3c([H])c([H])c(Oc4c([H])c([H])c(F)c([H])c4F)c([H])c3[H])c(C(=O)N([H])[H])c2N([H])[H])C1([H])[H])c1c([H])c(C([H])(C([H])([H])[H])C([H])([H])[H])c([H])c(O[H])c1C([H])([H])C([H])([H])Oc1c([H])c([H])c2c(c1[H])C([H])([H])N(C(=O)C([H])(N([H])C(=O)C([H])(N([H])C([H])([H])[H])C([H])([H])[H])C(C([H])([H])[H])(C([H])([H])[H])C([H])([H])[H])C([H])(C(=O)N([H])C1([H])c3c([H])c([H])c([H])c([H])c3C([H])([H])C([H])([H])C1([H])[H])C2([H])[H]

>  <smiles>  (45) 
[H]OC(=C([H])C(=O)N1C([H])([H])C([H])([H])C([H])([H])C([H])(n2nc(-c3c([H])c([H])c(Oc4c([H])c([H])c(F)c([H])c4F)c([H])c3[H])c(C(=O)N([H])[H])c2N([H])[H])C1([H])[H])c1c([H])c(C([H])(C([H])([H])[H])C([H])([H])[H])c([H])c(O[H])c1C([H])([H])C([H])([H])Oc1c([H])c([H])c2c(c1[H])C([H])([H])N(C(=O)C([H])(N([H])C(=O)C([H])(N([H])C([H])([H])[H])C([H])([H])[H])C(C([H])([H])[H])(C([H])([H])[H])C([H])([H])[H])C([H])(C(=O)N([H])C1([H])c3c([H])c([H])c([H])c([H])c3C([H])([H])C([H])([H])C1([H])[H])C2([H])[H]

$$$$
46:0:0
     RDKit          3D

 92100  0  0  1  0  0  0  0  0999 V2000
  -28.4590  -22.6030   19.2390 C   0  0  0  0  0  3  0  0  0  0  0  0
  -28.1170  -24.0110   19.2380 C   0  0  0  0  0  3  0  0  0  0  0  0
  -29.3690  -22.8300   21.3990 C   0  0  0  0  0  3  0  0  0  0  0  0
  -29.1390  -21.9320   20.3060 C   0  0  0  0  0  0  0  0  0  0  0  0
  -28.4010  -24.9230   20.3070 C   0  0  0  0  0  0  0  0  0  0  0  0
  -29.0370  -24.2450   21.4190 C   0  0  0  0  0  0  0  0  0  0  0  0
  -31.3740  -20.6650   20.4190 C   0  0  0  0  0  1  0  0  0  0  0  0
  -29.8710  -20.4700   20.1230 C   0  0  0  0  0  3  0  0  0  0  0  0
  -29.3990  -19.0920   20.7000 N   0  0  0  0  0  4  0  0  0  0  0  0
  -29.3940  -19.1790   21.7040 H   0  0  0  0  0  0  0  0  0  0  0  0
  -28.4370  -18.9810   20.4230 H   0  0  0  0  0  0  0  0  0  0  0  0
  -30.1710  -17.7640   20.3340 C   0  0  0  0  0  3  0  0  0  0  0  0
  -29.7060  -16.2490   20.8260 C   0  0  0  0  0  3  0  0  0  0  0  0
  -30.5250  -14.8830   20.4330 C   0  0  0  0  0  0  0  0  0  0  0  0
  -30.3990  -12.5780   19.4070 C   0  0  0  0  0  2  0  0  0  0  0  0
  -29.4790  -12.6440   18.1640 C   0  0  0  0  0  2  0  0  0  0  0  0
  -28.0020  -12.4520   18.5650 C   0  0  0  0  0  2  0  0  0  0  0  0
  -27.6050  -13.3240   19.7840 C   0  0  0  0  0  3  0  0  0  0  0  0
  -28.6470  -13.2360   20.9190 C   0  0  0  0  0  2  0  0  0  0  0  0
  -29.9460  -13.6250   20.3600 N   0  0  0  0  0  0  0  0  0  0  0  0
  -31.7050  -14.9850   20.0770 O   0  0  0  0  0  0  0  0  0  0  0  0
  -25.2050  -13.9070   20.4720 C   0  0  0  0  0  0  0  0  0  0  0  0
  -24.1390  -13.1310   20.8350 C   0  0  0  0  0  0  0  0  0  0  0  0
  -24.6080  -11.7820   20.8240 C   0  0  0  0  0  0  0  0  0  0  0  0
  -26.2550  -13.0300   20.2570 N   0  0  0  0  0  0  0  0  0  0  0  0
  -25.9030  -11.7480   20.5320 N   0  0  0  0  0  0  0  0  0  0  0  0
  -23.8810  -10.5200   21.0170 C   0  0  0  0  0  0  0  0  0  0  0  0
  -24.3060   -9.5610   21.9640 C   0  0  0  0  0  3  0  0  0  0  0  0
  -23.5810   -8.3630   22.1430 C   0  0  0  0  0  3  0  0  0  0  0  0
  -22.4180   -8.1160   21.3750 C   0  0  0  0  0  0  0  0  0  0  0  0
  -22.0130   -9.0630   20.4180 C   0  0  0  0  0  3  0  0  0  0  0  0
  -22.7380  -10.2530   20.2370 C   0  0  0  0  0  3  0  0  0  0  0  0
  -21.6640   -6.9700   21.4630 O   0  0  0  0  0  0  0  0  0  0  0  0
  -21.6050   -6.2350   22.6200 C   0  0  0  0  0  0  0  0  0  0  0  0
  -21.1680   -6.7990   23.8390 C   0  0  0  0  0  3  0  0  0  0  0  0
  -21.0560   -5.9900   24.9860 C   0  0  0  0  0  3  0  0  0  0  0  0
  -21.3690   -4.6200   24.9180 C   0  0  0  0  0  0  0  0  0  0  0  0
  -21.7980   -4.0550   23.7020 C   0  0  0  0  0  3  0  0  0  0  0  0
  -21.9120   -4.8610   22.5560 C   0  0  0  0  0  0  0  0  0  0  0  0
  -22.3060   -4.3090   21.3830 F   0  0  0  0  0  0  0  0  0  0  0  0
  -21.2540   -3.8400   26.0190 F   0  0  0  0  0  0  0  0  0  0  0  0
  -22.7360  -13.6050   21.0820 C   0  0  0  0  0  0  0  0  0  0  0  0
  -21.9980  -12.9170   21.9440 N   0  0  0  0  0  0  0  0  0  0  0  0
  -22.3020  -14.6220   20.5420 O   0  0  0  0  0  0  0  0  0  0  0  0
  -22.3660  -12.0950   22.4020 H   0  0  0  0  0  0  0  0  0  0  0  0
  -21.0540  -13.2130   22.1510 H   0  0  0  0  0  0  0  0  0  0  0  0
  -25.3680  -15.2760   20.2860 N   0  0  0  0  0  0  0  0  0  0  0  0
  -24.5930  -15.9270   20.3710 H   0  0  0  0  0  0  0  0  0  0  0  0
  -26.2140  -15.7100   19.9400 H   0  0  0  0  0  0  0  0  0  0  0  0
  -29.2030  -26.2560   22.7810 C   0  0  0  0  0  1  0  0  0  0  0  0
  -29.4620  -24.8740   22.5740 O   0  0  0  0  0  0  0  0  0  0  0  0
  -28.3140  -26.3710   20.1650 O   0  0  0  0  0  0  0  0  0  0  0  0
  -24.5690  -31.8750   23.2150 C   0  0  0  0  0  0  0  0  0  0  0  0
  -27.1690  -27.2200   20.1810 C   0  0  0  0  0  0  0  0  0  0  0  0
  -23.3610  -30.4660   21.5870 C   0  0  0  0  0  3  0  0  0  0  0  0
  -24.8060  -28.8890   20.1650 C   0  0  0  0  0  0  0  0  0  0  0  0
  -25.9050  -30.7610   21.3980 C   0  0  0  0  0  2  0  0  0  0  0  0
  -25.9800  -29.3680   20.7580 C   0  0  0  0  0  0  0  0  0  0  0  0
  -27.1590  -28.5480   20.7500 C   0  0  0  0  0  3  0  0  0  0  0  0
  -25.9680  -26.8120   19.5640 C   0  0  0  0  0  3  0  0  0  0  0  0
  -24.8070  -27.6210   19.5570 C   0  0  0  0  0  3  0  0  0  0  0  0
  -23.5730  -29.7760   20.2110 C   0  0  0  0  0  2  0  0  0  0  0  0
  -24.6320  -31.0550   22.1210 N   0  0  0  0  0  0  0  0  0  0  0  0
  -23.4860  -32.1550   23.7500 O   0  0  0  0  0  0  0  0  0  0  0  0
  -22.6960  -29.4600   22.5580 C   0  0  0  0  0  0  0  0  0  0  0  0
  -21.3680  -29.2850   22.4390 N   0  0  0  0  0  0  0  0  0  0  0  0
  -23.3770  -28.8390   23.3770 O   0  0  0  0  0  0  0  0  0  0  0  0
  -20.8760  -29.8380   21.7510 H   0  0  0  0  0  0  0  0  0  0  0  0
  -17.9940  -28.0810   22.9630 C   0  0  0  0  0  0  0  0  0  0  0  0
  -20.5550  -28.3490   23.2190 C   0  0  0  0  0  3  0  0  0  0  0  0
  -20.6580  -26.9150   22.6510 C   0  0  0  0  0  2  0  0  0  0  0  0
  -19.5520  -26.5840   21.6430 C   0  0  0  0  0  2  0  0  0  0  0  0
  -18.1720  -26.7290   22.2910 C   0  0  0  0  0  2  0  0  0  0  0  0
  -19.1130  -28.8480   23.3840 C   0  0  0  0  0  0  0  0  0  0  0  0
  -18.8930  -30.1130   23.9720 C   0  0  0  0  0  3  0  0  0  0  0  0
  -17.5860  -30.6100   24.1430 C   0  0  0  0  0  3  0  0  0  0  0  0
  -16.4820  -29.8400   23.7380 C   0  0  0  0  0  3  0  0  0  0  0  0
  -16.6880  -28.5780   23.1520 C   0  0  0  0  0  3  0  0  0  0  0  0
  -25.8510  -32.5140   23.8300 C   0  0  0  0  0  3  0  0  0  0  0  0
  -25.5370  -33.9100   24.1710 N   0  0  0  0  0  0  0  0  0  0  0  0
  -25.8550  -34.9700   23.4160 C   0  0  0  0  0  0  0  0  0  0  0  0
  -26.5140  -34.8770   22.3760 O   0  0  0  0  0  0  0  0  0  0  0  0
  -24.9510  -34.0560   24.9800 H   0  0  0  0  0  0  0  0  0  0  0  0
  -24.1120  -36.7580   23.0970 C   0  0  0  0  0  1  0  0  0  0  0  0
  -25.3670  -36.3550   23.8890 C   0  0  0  0  0  3  0  0  0  0  0  0
  -27.5080  -37.2450   24.6950 C   0  0  0  0  0  1  0  0  0  0  0  0
  -26.3930  -37.4140   23.7680 N   0  0  0  0  0  0  0  0  0  0  0  0
  -25.9840  -38.3310   23.9260 H   0  0  0  0  0  0  0  0  0  0  0  0
  -26.3800  -31.7410   25.1020 C   0  0  1  0  0  0  0  0  0  0  0  0
  -25.2960  -31.4970   26.1790 C   0  0  0  0  0  1  0  0  0  0  0  0
  -26.9640  -30.3650   24.7050 C   0  0  0  0  0  1  0  0  0  0  0  0
  -27.5330  -32.5380   25.7580 C   0  0  0  0  0  1  0  0  0  0  0  0
  1  4  1  0
  2  1  2  0
  2  5  1  0
  3  6  1  0
  4  3  2  0
  5  6  2  0
  6 51  1  0
  8  4  1  0
  8  7  1  0
  8  9  1  0
  9 10  1  0
 11  9  1  0
 12  9  1  0
 12 13  2  0
 14 13  1  0
 15 20  1  0
 16 17  1  0
 16 15  1  0
 18 17  1  0
 18 25  1  0
 18 19  1  0
 20 14  1  0
 20 19  1  0
 21 14  2  0
 22 23  2  0
 23 42  1  0
 24 23  1  0
 24 27  1  0
 25 22  1  0
 25 26  1  0
 26 24  2  0
 27 28  1  0
 28 29  2  0
 30 33  1  0
 30 29  1  0
 31 30  2  0
 32 31  1  0
 32 27  2  0
 33 34  1  0
 34 35  1  0
 35 36  2  0
 37 36  1  0
 37 41  1  0
 38 37  2  0
 39 34  2  0
 39 38  1  0
 40 39  1  0
 42 43  1  0
 43 46  1  0
 43 45  1  0
 44 42  2  0
 47 48  1  0
 47 22  1  0
 49 47  1  0
 51 50  1  0
 52 54  1  0
 52  5  1  0
 53 64  2  0
 54 59  1  0
 55 63  1  0
 55 65  1  0
 56 62  1  0
 56 58  1  0
 57 63  1  0
 58 57  1  0
 59 58  2  0
 60 54  2  0
 61 60  1  0
 61 56  2  0
 62 55  1  0
 63 53  1  0
 65 67  2  0
 66 65  1  0
 68 66  1  0
 69 78  2  0
 69 74  1  0
 70 66  1  0
 70 74  1  0
 71 70  1  0
 72 73  1  0
 72 71  1  0
 73 69  1  0
 74 75  2  0
 75 76  1  0
 77 76  2  0
 78 77  1  0
 79 53  1  0
 79 80  1  0
 79 89  1  0
 80 83  1  0
 81 85  1  0
 81 80  1  0
 82 81  2  0
 85 84  1  0
 87 85  1  0
 87 88  1  0
 87 86  1  0
 89 92  1  1
 89 90  1  0
 91 89  1  0
M  ISO  4   5 101  13 100  14 100  52 101
M  END
>  <TORSDO>  (46) 
F 21

>  <SCORE>  (46) 
-13.624

>  <name>  (46) 
46

>  <ligand_id>  (46) 
46

>  <original_smiles>  (46) 
[H]c1c([H])c([H])c2c(c1[H])C([H])([H])C([H])([H])C([H])([H])C2([H])N([H])C(=O)C1([H])N(C(=O)C([H])(N([H])C(=O)C([H])(N([H])C([H])([H])[H])C([H])([H])[H])C(C([H])([H])[H])(C([H])([H])[H])C([H])([H])[H])C([H])([H])c2c([H])c(Oc3c([H])c([H])c(C([H])(C([H])([H])[H])[N+]([H])([H])C([H])([H])C([H])([H])C(=O)N4C([H])([H])C([H])([H])C([H])([H])C([H])(n5nc(-c6c([H])c([H])c(Oc7c([H])c([H])c(F)c([H])c7F)c([H])c6[H])c(C(=O)N([H])[H])c5N([H])[H])C4([H])[H])c([H])c3OC([H])([H])[H])c([H])c([H])c2C1([H])[H]

>  <smiles>  (46) 
[H]c1c([H])c([H])c2c(c1[H])C([H])([H])C([H])([H])C([H])([H])C2([H])N([H])C(=O)C1([H])N(C(=O)C([H])(N([H])C(=O)C([H])(N([H])C([H])([H])[H])C([H])([H])[H])C(C([H])([H])[H])(C([H])([H])[H])C([H])([H])[H])C([H])([H])c2c([H])c(Oc3c([H])c([H])c(C([H])(C([H])([H])[H])[N+]([H])([H])C([H])([H])C([H])([H])C(=O)N4C([H])([H])C([H])([H])C([H])([H])C([H])(n5nc(-c6c([H])c([H])c(Oc7c([H])c([H])c(F)c([H])c7F)c([H])c6[H])c(C(=O)N([H])[H])c5N([H])[H])C4([H])[H])c([H])c3OC([H])([H])[H])c([H])c([H])c2C1([H])[H]

$$$$
47:0:0
     RDKit          3D

 90 98  0  0  1  0  0  0  0  0999 V2000
  -28.1840  -21.3590   19.4160 C   0  0  0  0  0  3  0  0  0  0  0  0
  -27.8420  -22.8600   19.4190 C   0  0  0  0  0  3  0  0  0  0  0  0
  -29.0460  -20.5270   20.3140 C   0  0  0  0  0  0  0  0  0  0  0  0
  -28.2620  -23.9740   20.3250 C   0  0  0  0  0  0  0  0  0  0  0  0
  -29.1270  -23.1410   21.2090 C   0  0  0  0  0  0  0  0  0  0  0  0
  -29.4660  -21.6430   21.2120 C   0  0  0  0  0  0  0  0  0  0  0  0
  -30.3560  -21.2690   22.1650 F   0  0  0  0  0  0  0  0  0  0  0  0
  -30.5630  -18.9150   18.8330 C   0  0  0  0  0  1  0  0  0  0  0  0
  -29.8010  -18.8130   20.1620 C   0  0  0  0  0  0  0  0  0  0  0  0
  -30.2560  -15.6870   20.2050 C   0  0  0  0  0  0  0  0  0  0  0  0
  -30.3190  -13.1630   19.3380 C   0  0  0  0  0  2  0  0  0  0  0  0
  -29.3970  -12.7860   18.1430 C   0  0  0  0  0  2  0  0  0  0  0  0
  -27.9870  -12.4250   18.6320 C   0  0  0  0  0  2  0  0  0  0  0  0
  -27.5070  -13.4060   19.7250 C   0  0  0  0  0  3  0  0  0  0  0  0
  -28.5650  -13.6990   20.8150 C   0  0  0  0  0  2  0  0  0  0  0  0
  -29.7200  -14.3280   20.1350 N   0  0  0  0  0  0  0  0  0  0  0  0
  -31.4820  -15.6150   19.9880 O   0  0  0  0  0  0  0  0  0  0  0  0
  -29.5230  -17.0620   20.3160 N   0  0  0  0  0  4  0  0  0  0  0  0
  -28.5420  -16.8900   20.4810 H   0  0  0  0  0  0  0  0  0  0  0  0
  -25.1630  -13.9100   20.5580 C   0  0  0  0  0  0  0  0  0  0  0  0
  -24.1190  -13.1170   20.9410 C   0  0  0  0  0  0  0  0  0  0  0  0
  -24.5990  -11.7720   20.8810 C   0  0  0  0  0  0  0  0  0  0  0  0
  -26.2060  -13.0510   20.2760 N   0  0  0  0  0  0  0  0  0  0  0  0
  -25.8840  -11.7570   20.5370 N   0  0  0  0  0  0  0  0  0  0  0  0
  -23.8870  -10.5010   21.0690 C   0  0  0  0  0  0  0  0  0  0  0  0
  -24.3440   -9.5220   21.9780 C   0  0  0  0  0  3  0  0  0  0  0  0
  -23.6250   -8.3200   22.1590 C   0  0  0  0  0  3  0  0  0  0  0  0
  -22.4360   -8.0890   21.4290 C   0  0  0  0  0  0  0  0  0  0  0  0
  -21.9960   -9.0550   20.5080 C   0  0  0  0  0  3  0  0  0  0  0  0
  -22.7160  -10.2480   20.3260 C   0  0  0  0  0  3  0  0  0  0  0  0
  -21.6870   -6.9400   21.5210 O   0  0  0  0  0  0  0  0  0  0  0  0
  -21.6730   -6.1770   22.6620 C   0  0  0  0  0  0  0  0  0  0  0  0
  -21.2460   -6.7010   23.9020 C   0  0  0  0  0  3  0  0  0  0  0  0
  -21.1820   -5.8630   25.0340 C   0  0  0  0  0  3  0  0  0  0  0  0
  -21.5350   -4.5050   24.9270 C   0  0  0  0  0  0  0  0  0  0  0  0
  -21.9560   -3.9810   23.6920 C   0  0  0  0  0  3  0  0  0  0  0  0
  -22.0210   -4.8150   22.5620 C   0  0  0  0  0  0  0  0  0  0  0  0
  -22.4070   -4.3000   21.3690 F   0  0  0  0  0  0  0  0  0  0  0  0
  -21.4660   -3.6980   26.0130 F   0  0  0  0  0  0  0  0  0  0  0  0
  -22.7240  -13.5780   21.2430 C   0  0  0  0  0  0  0  0  0  0  0  0
  -22.0210  -12.8720   22.1200 N   0  0  0  0  0  0  0  0  0  0  0  0
  -22.2680  -14.6030   20.7360 O   0  0  0  0  0  0  0  0  0  0  0  0
  -22.4060  -12.0440   22.5510 H   0  0  0  0  0  0  0  0  0  0  0  0
  -21.0860  -13.1630   22.3660 H   0  0  0  0  0  0  0  0  0  0  0  0
  -25.3060  -15.2850   20.3940 N   0  0  0  0  0  0  0  0  0  0  0  0
  -24.5340  -15.9270   20.5300 H   0  0  0  0  0  0  0  0  0  0  0  0
  -26.1320  -15.7320   20.0190 H   0  0  0  0  0  0  0  0  0  0  0  0
  -29.7660  -23.8830   22.1610 O   0  0  0  0  0  0  0  0  0  0  0  0
  -29.5530  -24.8050   22.0610 H   0  0  0  0  0  0  0  0  0  0  0  0
  -28.1690  -25.5960   20.2950 O   0  0  0  0  0  0  0  0  0  0  0  0
  -24.6190  -31.8870   23.1740 C   0  0  0  0  0  0  0  0  0  0  0  0
  -27.1480  -26.7630   20.2710 C   0  0  0  0  0  0  0  0  0  0  0  0
  -23.4310  -30.4650   21.5560 C   0  0  0  0  0  3  0  0  0  0  0  0
  -24.8770  -28.7880   20.1770 C   0  0  0  0  0  0  0  0  0  0  0  0
  -26.0080  -30.6030   21.4380 C   0  0  0  0  0  2  0  0  0  0  0  0
  -26.0700  -29.1570   20.8110 C   0  0  0  0  0  0  0  0  0  0  0  0
  -27.1870  -28.1690   20.8270 C   0  0  0  0  0  3  0  0  0  0  0  0
  -25.9220  -26.6010   19.5750 C   0  0  0  0  0  3  0  0  0  0  0  0
  -24.8410  -27.5350   19.5380 C   0  0  0  0  0  3  0  0  0  0  0  0
  -23.6730  -29.7420   20.1980 C   0  0  0  0  0  2  0  0  0  0  0  0
  -24.7100  -31.0200   22.1070 N   0  0  0  0  0  0  0  0  0  0  0  0
  -23.5260  -32.1960   23.6780 O   0  0  0  0  0  0  0  0  0  0  0  0
  -22.7140  -29.5040   22.5420 C   0  0  0  0  0  0  0  0  0  0  0  0
  -21.3790  -29.3570   22.4240 N   0  0  0  0  0  0  0  0  0  0  0  0
  -23.3690  -28.8860   23.3840 O   0  0  0  0  0  0  0  0  0  0  0  0
  -20.9010  -29.9070   21.7240 H   0  0  0  0  0  0  0  0  0  0  0  0
  -17.9850  -28.1840   22.9720 C   0  0  0  0  0  0  0  0  0  0  0  0
  -20.5510  -28.4360   23.2100 C   0  0  0  0  0  3  0  0  0  0  0  0
  -20.6340  -26.9960   22.6490 C   0  0  0  0  0  2  0  0  0  0  0  0
  -19.5230  -26.6750   21.6450 C   0  0  0  0  0  2  0  0  0  0  0  0
  -18.1470  -26.8310   22.2990 C   0  0  0  0  0  2  0  0  0  0  0  0
  -19.1130  -28.9440   23.3850 C   0  0  0  0  0  0  0  0  0  0  0  0
  -18.9030  -30.2070   23.9800 C   0  0  0  0  0  3  0  0  0  0  0  0
  -17.6010  -30.7120   24.1590 C   0  0  0  0  0  3  0  0  0  0  0  0
  -16.4890  -29.9510   23.7580 C   0  0  0  0  0  3  0  0  0  0  0  0
  -16.6830  -28.6880   23.1720 C   0  0  0  0  0  3  0  0  0  0  0  0
  -25.8820  -32.5450   23.8080 C   0  0  0  0  0  3  0  0  0  0  0  0
  -25.5490  -33.9410   24.1550 N   0  0  0  0  0  0  0  0  0  0  0  0
  -25.8520  -35.0150   23.4110 C   0  0  0  0  0  0  0  0  0  0  0  0
  -26.4970  -34.9350   22.3640 O   0  0  0  0  0  0  0  0  0  0  0  0
  -24.9710  -34.0740   24.9710 H   0  0  0  0  0  0  0  0  0  0  0  0
  -24.0900  -36.7970   23.1470 C   0  0  0  0  0  1  0  0  0  0  0  0
  -25.3650  -36.3950   23.9060 C   0  0  0  0  0  3  0  0  0  0  0  0
  -27.5130  -37.3100   24.6730 C   0  0  0  0  0  1  0  0  0  0  0  0
  -26.3790  -37.4640   23.7650 N   0  0  0  0  0  0  0  0  0  0  0  0
  -25.9650  -38.3780   23.9280 H   0  0  0  0  0  0  0  0  0  0  0  0
  -26.3960  -31.7840   25.0930 C   0  0  1  0  0  0  0  0  0  0  0  0
  -25.2990  -31.5450   26.1580 C   0  0  0  0  0  1  0  0  0  0  0  0
  -26.9900  -30.4070   24.7220 C   0  0  0  0  0  1  0  0  0  0  0  0
  -27.5390  -32.5880   25.7570 C   0  0  0  0  0  1  0  0  0  0  0  0
  1  2  2  0
  1  3  1  0
  2  4  1  0
  3  6  2  0
  4  5  2  0
  5  6  1  0
  5 48  1  0
  6  7  1  0
  8  9  1  0
  9  3  1  0
  9 18  2  0
 10 18  1  0
 11 16  1  0
 12 13  1  0
 12 11  1  0
 14 13  1  0
 14 23  1  0
 14 15  1  0
 16 10  1  0
 16 15  1  0
 17 10  2  0
 18 19  1  0
 20 21  2  0
 21 40  1  0
 22 21  1  0
 22 25  1  0
 23 24  1  0
 23 20  1  0
 24 22  2  0
 25 26  1  0
 26 27  2  0
 28 31  1  0
 28 27  1  0
 29 28  2  0
 30 29  1  0
 30 25  2  0
 31 32  1  0
 32 33  1  0
 33 34  2  0
 35 34  1  0
 35 39  1  0
 36 35  2  0
 37 32  2  0
 37 36  1  0
 38 37  1  0
 40 41  1  0
 41 44  1  0
 41 43  1  0
 42 40  2  0
 45 46  1  0
 45 20  1  0
 47 45  1  0
 49 48  1  0
 50  4  1  0
 51 62  2  0
 52 50  1  0
 52 57  1  0
 53 61  1  0
 53 63  1  0
 54 60  1  0
 54 56  1  0
 55 61  1  0
 56 57  2  0
 56 55  1  0
 58 52  2  0
 59 58  1  0
 59 54  2  0
 60 53  1  0
 61 51  1  0
 63 65  2  0
 64 63  1  0
 66 64  1  0
 67 76  2  0
 67 72  1  0
 68 64  1  0
 68 72  1  0
 69 68  1  0
 70 71  1  0
 70 69  1  0
 71 67  1  0
 72 73  2  0
 73 74  1  0
 75 74  2  0
 76 75  1  0
 77 51  1  0
 77 78  1  0
 77 87  1  0
 78 81  1  0
 79 83  1  0
 79 78  1  0
 80 79  2  0
 83 82  1  0
 85 83  1  0
 85 86  1  0
 85 84  1  0
 87 90  1  1
 87 88  1  0
 89 87  1  0
M  ISO  4   4 101  10 100  18 100  50 101
M  END
>  <TORSDO>  (47) 
F 18

>  <SCORE>  (47) 
-15.808

>  <name>  (47) 
47

>  <ligand_id>  (47) 
47

>  <original_smiles>  (47) 
[H]Oc1c(F)c(C([H])(N([H])C(=O)N2C([H])([H])C([H])([H])C([H])([H])C([H])(n3nc(-c4c([H])c([H])c(Oc5c([H])c([H])c(F)c([H])c5F)c([H])c4[H])c(C(=O)N([H])[H])c3N([H])[H])C2([H])[H])C([H])([H])[H])c([H])c([H])c1Oc1c([H])c([H])c2c(c1[H])C([H])([H])N(C(=O)C([H])(N([H])C(=O)C([H])(N([H])C([H])([H])[H])C([H])([H])[H])C(C([H])([H])[H])(C([H])([H])[H])C([H])([H])[H])C([H])(C(=O)N([H])C1([H])c3c([H])c([H])c([H])c([H])c3C([H])([H])C([H])([H])C1([H])[H])C2([H])[H]

>  <smiles>  (47) 
[H]Oc1c(F)c(C([H])(N([H])C(=O)N2C([H])([H])C([H])([H])C([H])([H])C([H])(n3nc(-c4c([H])c([H])c(Oc5c([H])c([H])c(F)c([H])c5F)c([H])c4[H])c(C(=O)N([H])[H])c3N([H])[H])C2([H])[H])C([H])([H])[H])c([H])c([H])c1Oc1c([H])c([H])c2c(c1[H])C([H])([H])N(C(=O)C([H])(N([H])C(=O)C([H])(N([H])C([H])([H])[H])C([H])([H])[H])C(C([H])([H])[H])(C([H])([H])[H])C([H])([H])[H])C([H])(C(=O)N([H])C1([H])c3c([H])c([H])c([H])c([H])c3C([H])([H])C([H])([H])C1([H])[H])C2([H])[H]

$$$$
48:0:0
     RDKit          3D

 91 99  0  0  1  0  0  0  0  0999 V2000
  -28.8730  -20.8450   19.2180 C   0  0  0  0  0  3  0  0  0  0  0  0
  -29.0630  -19.3880   19.1040 C   0  0  0  0  0  3  0  0  0  0  0  0
  -30.1130  -19.3060   21.1520 C   0  0  0  0  0  3  0  0  0  0  0  0
  -29.2810  -21.6780   20.3230 C   0  0  0  0  0  0  0  0  0  0  0  0
  -29.6860  -18.4640   20.0560 C   0  0  0  0  0  0  0  0  0  0  0  0
  -29.9500  -20.7710   21.2660 C   0  0  0  0  0  0  0  0  0  0  0  0
  -28.3750  -16.6470   21.0990 C   0  0  0  0  0  1  0  0  0  0  0  0
  -28.8890  -16.5250   18.6020 C   0  0  0  0  0  1  0  0  0  0  0  0
  -29.4750  -16.7450   20.0240 C   0  0  1  0  0  0  0  0  0  0  0  0
  -30.4700  -15.3020   20.1740 C   0  0  0  0  0  0  0  0  0  0  0  0
  -30.5300  -12.8580   19.3430 C   0  0  0  0  0  2  0  0  0  0  0  0
  -29.5680  -12.6610   18.1400 C   0  0  0  0  0  2  0  0  0  0  0  0
  -28.1160  -12.4060   18.5970 C   0  0  0  0  0  2  0  0  0  0  0  0
  -27.6890  -13.3350   19.7620 C   0  0  0  0  0  3  0  0  0  0  0  0
  -28.7850  -13.3920   20.8500 C   0  0  0  0  0  2  0  0  0  0  0  0
  -29.9970  -13.9580   20.2170 N   0  0  0  0  0  0  0  0  0  0  0  0
  -31.6910  -15.3730   19.9740 O   0  0  0  0  0  0  0  0  0  0  0  0
  -25.3180  -13.9210   20.5220 C   0  0  0  0  0  0  0  0  0  0  0  0
  -24.2570  -13.1480   20.8950 C   0  0  0  0  0  0  0  0  0  0  0  0
  -24.7160  -11.7980   20.8380 C   0  0  0  0  0  0  0  0  0  0  0  0
  -26.3600  -13.0390   20.2730 N   0  0  0  0  0  0  0  0  0  0  0  0
  -26.0060  -11.7550   20.5210 N   0  0  0  0  0  0  0  0  0  0  0  0
  -23.9850  -10.5390   21.0110 C   0  0  0  0  0  0  0  0  0  0  0  0
  -24.4060   -9.5690   21.9440 C   0  0  0  0  0  3  0  0  0  0  0  0
  -23.6740   -8.3730   22.1070 C   0  0  0  0  0  3  0  0  0  0  0  0
  -22.5100   -8.1430   21.3360 C   0  0  0  0  0  0  0  0  0  0  0  0
  -22.1110   -9.1050   20.3900 C   0  0  0  0  0  3  0  0  0  0  0  0
  -22.8420  -10.2910   20.2250 C   0  0  0  0  0  3  0  0  0  0  0  0
  -21.7500   -7.0020   21.4110 O   0  0  0  0  0  0  0  0  0  0  0  0
  -21.6550   -6.2790   22.5720 C   0  0  0  0  0  0  0  0  0  0  0  0
  -21.1400   -6.8400   23.7620 C   0  0  0  0  0  3  0  0  0  0  0  0
  -20.9960   -6.0410   24.9130 C   0  0  0  0  0  3  0  0  0  0  0  0
  -21.3560   -4.6800   24.8750 C   0  0  0  0  0  0  0  0  0  0  0  0
  -21.8650   -4.1180   23.6910 C   0  0  0  0  0  3  0  0  0  0  0  0
  -22.0110   -4.9150   22.5420 C   0  0  0  0  0  0  0  0  0  0  0  0
  -22.4830   -4.3630   21.3980 F   0  0  0  0  0  0  0  0  0  0  0  0
  -21.2110   -3.9100   25.9780 F   0  0  0  0  0  0  0  0  0  0  0  0
  -22.8660  -13.6320   21.1860 C   0  0  0  0  0  0  0  0  0  0  0  0
  -22.1440  -12.9320   22.0530 N   0  0  0  0  0  0  0  0  0  0  0  0
  -22.4300  -14.6660   20.6820 O   0  0  0  0  0  0  0  0  0  0  0  0
  -22.5100  -12.0940   22.4810 H   0  0  0  0  0  0  0  0  0  0  0  0
  -21.2110  -13.2370   22.2940 H   0  0  0  0  0  0  0  0  0  0  0  0
  -25.4600  -15.2940   20.3470 N   0  0  0  0  0  0  0  0  0  0  0  0
  -24.6850  -15.9330   20.4810 H   0  0  0  0  0  0  0  0  0  0  0  0
  -26.3040  -15.7560   20.0340 H   0  0  0  0  0  0  0  0  0  0  0  0
  -29.1740  -23.3540   20.5120 C   0  0  0  0  0  0  0  0  0  0  0  0
  -30.0020  -23.8250   21.3000 O   0  0  0  0  0  0  0  0  0  0  0  0
  -28.1420  -24.5630   19.9130 C   0  0  0  0  0  2  0  0  0  0  0  0
  -28.2970  -26.1240   20.2590 O   0  0  0  0  0  0  0  0  0  0  0  0
  -24.6080  -31.8910   23.2220 C   0  0  0  0  0  0  0  0  0  0  0  0
  -27.2390  -27.1380   20.1830 C   0  0  0  0  0  0  0  0  0  0  0  0
  -23.4270  -30.4930   21.5720 C   0  0  0  0  0  3  0  0  0  0  0  0
  -24.8960  -28.9200   20.1460 C   0  0  0  0  0  0  0  0  0  0  0  0
  -25.9850  -30.7540   21.4260 C   0  0  0  0  0  2  0  0  0  0  0  0
  -26.0730  -29.3580   20.7660 C   0  0  0  0  0  0  0  0  0  0  0  0
  -27.2380  -28.4860   20.7640 C   0  0  0  0  0  3  0  0  0  0  0  0
  -26.0310  -26.8230   19.5210 C   0  0  0  0  0  3  0  0  0  0  0  0
  -24.8940  -27.6690   19.5050 C   0  0  0  0  0  3  0  0  0  0  0  0
  -23.6610  -29.8150   20.1940 C   0  0  0  0  0  2  0  0  0  0  0  0
  -24.6930  -31.0690   22.1290 N   0  0  0  0  0  0  0  0  0  0  0  0
  -23.5150  -32.1680   23.7440 O   0  0  0  0  0  0  0  0  0  0  0  0
  -22.7420  -29.4840   22.5300 C   0  0  0  0  0  0  0  0  0  0  0  0
  -21.4150  -29.3090   22.3960 N   0  0  0  0  0  0  0  0  0  0  0  0
  -23.4090  -28.8600   23.3580 O   0  0  0  0  0  0  0  0  0  0  0  0
  -20.9310  -29.8590   21.6980 H   0  0  0  0  0  0  0  0  0  0  0  0
  -18.0370  -28.0930   22.8950 C   0  0  0  0  0  0  0  0  0  0  0  0
  -20.5950  -28.3620   23.1580 C   0  0  0  0  0  3  0  0  0  0  0  0
  -20.7000  -26.9360   22.5700 C   0  0  0  0  0  2  0  0  0  0  0  0
  -19.5980  -26.6190   21.5550 C   0  0  0  0  0  2  0  0  0  0  0  0
  -18.2180  -26.7520   22.2030 C   0  0  0  0  0  2  0  0  0  0  0  0
  -19.1540  -28.8560   23.3290 C   0  0  0  0  0  0  0  0  0  0  0  0
  -18.9310  -30.1090   23.9380 C   0  0  0  0  0  3  0  0  0  0  0  0
  -17.6250  -30.6020   24.1150 C   0  0  0  0  0  3  0  0  0  0  0  0
  -16.5220  -29.8370   23.6940 C   0  0  0  0  0  3  0  0  0  0  0  0
  -16.7300  -28.5840   23.0920 C   0  0  0  0  0  3  0  0  0  0  0  0
  -25.8750  -32.5350   23.8600 C   0  0  0  0  0  3  0  0  0  0  0  0
  -26.3790  -31.7690   25.1460 C   0  0  1  0  0  0  0  0  0  0  0  0
  -25.2720  -31.5230   26.1990 C   0  0  0  0  0  1  0  0  0  0  0  0
  -26.9780  -30.3940   24.7680 C   0  0  0  0  0  1  0  0  0  0  0  0
  -27.5160  -32.5710   25.8230 C   0  0  0  0  0  1  0  0  0  0  0  0
  -25.5500  -33.9320   24.1970 N   0  0  0  0  0  0  0  0  0  0  0  0
  -25.8510  -34.9930   23.4360 C   0  0  0  0  0  0  0  0  0  0  0  0
  -26.4960  -34.9000   22.3880 O   0  0  0  0  0  0  0  0  0  0  0  0
  -24.9730  -34.0760   25.0110 H   0  0  0  0  0  0  0  0  0  0  0  0
  -24.0820  -36.7620   23.1530 C   0  0  0  0  0  1  0  0  0  0  0  0
  -25.3620  -36.3760   23.9100 C   0  0  0  0  0  3  0  0  0  0  0  0
  -27.5090  -37.3090   24.6580 C   0  0  0  0  0  1  0  0  0  0  0  0
  -26.3730  -37.4460   23.7510 N   0  0  0  0  0  0  0  0  0  0  0  0
  -25.9560  -38.3610   23.9010 H   0  0  0  0  0  0  0  0  0  0  0  0
  -30.4730  -21.3050   22.4100 O   0  0  0  0  0  0  0  0  0  0  0  0
  -30.4590  -22.2620   22.3880 H   0  0  0  0  0  0  0  0  0  0  0  0
  1  4  1  0
  2  1  2  0
  2  5  1  0
  3  6  1  0
  4 46  1  0
  4  6  2  0
  5  3  2  0
  6 90  1  0
  9  8  1  6
  9  5  1  0
  9 10  1  0
  9  7  1  0
 10 16  1  0
 11 16  1  0
 12 13  1  0
 12 11  1  0
 14 13  1  0
 14 21  1  0
 14 15  1  0
 16 15  1  0
 17 10  2  0
 18 19  2  0
 19 38  1  0
 20 19  1  0
 20 23  1  0
 21 22  1  0
 21 18  1  0
 22 20  2  0
 23 24  1  0
 24 25  2  0
 26 29  1  0
 26 25  1  0
 27 26  2  0
 28 27  1  0
 28 23  2  0
 29 30  1  0
 30 31  1  0
 31 32  2  0
 33 32  1  0
 33 37  1  0
 34 33  2  0
 35 30  2  0
 35 34  1  0
 36 35  1  0
 38 39  1  0
 39 42  1  0
 39 41  1  0
 40 38  2  0
 43 44  1  0
 43 18  1  0
 45 43  1  0
 46 47  2  0
 48 49  1  0
 48 46  1  0
 50 61  2  0
 51 49  1  0
 51 56  1  0
 52 60  1  0
 52 62  1  0
 53 59  1  0
 53 55  1  0
 54 60  1  0
 55 54  1  0
 56 55  2  0
 57 51  2  0
 58 57  1  0
 58 53  2  0
 59 52  1  0
 60 50  1  0
 62 64  2  0
 63 62  1  0
 65 63  1  0
 66 75  2  0
 66 71  1  0
 67 63  1  0
 67 71  1  0
 68 67  1  0
 69 70  1  0
 69 68  1  0
 70 66  1  0
 71 72  2  0
 72 73  1  0
 74 73  2  0
 75 74  1  0
 76 50  1  0
 76 81  1  0
 76 77  1  0
 77 80  1  1
 77 78  1  0
 79 77  1  0
 81 84  1  0
 82 86  1  0
 82 81  1  0
 83 82  2  0
 86 85  1  0
 88 89  1  0
 88 86  1  0
 88 87  1  0
 91 90  1  0
M  ISO  4   9 100  10 100  48 101  49 101
M  END
>  <TORSDO>  (48) 
F 20

>  <SCORE>  (48) 
-15.094

>  <name>  (48) 
48

>  <ligand_id>  (48) 
48

>  <original_smiles>  (48) 
[H]Oc1c([H])c(C(C(=O)N2C([H])([H])C([H])([H])C([H])([H])C([H])(n3nc(-c4c([H])c([H])c(Oc5c([H])c([H])c(F)c([H])c5F)c([H])c4[H])c(C(=O)N([H])[H])c3N([H])[H])C2([H])[H])(C([H])([H])[H])C([H])([H])[H])c([H])c([H])c1C(=O)C([H])([H])Oc1c([H])c([H])c2c(c1[H])C([H])([H])N(C(=O)C([H])(N([H])C(=O)C([H])(N([H])C([H])([H])[H])C([H])([H])[H])C(C([H])([H])[H])(C([H])([H])[H])C([H])([H])[H])C([H])(C(=O)N([H])C1([H])c3c([H])c([H])c([H])c([H])c3C([H])([H])C([H])([H])C1([H])[H])C2([H])[H]

>  <smiles>  (48) 
[H]Oc1c([H])c(C(C(=O)N2C([H])([H])C([H])([H])C([H])([H])C([H])(n3nc(-c4c([H])c([H])c(Oc5c([H])c([H])c(F)c([H])c5F)c([H])c4[H])c(C(=O)N([H])[H])c3N([H])[H])C2([H])[H])(C([H])([H])[H])C([H])([H])[H])c([H])c([H])c1C(=O)C([H])([H])Oc1c([H])c([H])c2c(c1[H])C([H])([H])N(C(=O)C([H])(N([H])C(=O)C([H])(N([H])C([H])([H])[H])C([H])([H])[H])C(C([H])([H])[H])(C([H])([H])[H])C([H])([H])[H])C([H])(C(=O)N([H])C1([H])c3c([H])c([H])c([H])c([H])c3C([H])([H])C([H])([H])C1([H])[H])C2([H])[H]

$$$$
49:0:0
     RDKit          3D

 94102  0  0  1  0  0  0  0  0999 V2000
  -29.0590  -23.0340   21.2250 C   0  0  0  0  0  3  0  0  0  0  0  0
  -28.8160  -24.4420   21.2900 C   0  0  0  0  0  3  0  0  0  0  0  0
  -28.9470  -22.3190   19.9990 C   0  0  0  0  0  0  0  0  0  0  0  0
  -28.4740  -25.2110   20.1430 C   0  0  0  0  0  0  0  0  0  0  0  0
  -28.3750  -24.4950   18.9240 C   0  0  0  0  0  0  0  0  0  0  0  0
  -28.5670  -23.0850   18.8660 C   0  0  0  0  0  0  0  0  0  0  0  0
  -28.4450  -22.4640   17.6670 F   0  0  0  0  0  0  0  0  0  0  0  0
  -30.6940  -20.7160   19.0960 C   0  0  0  0  0  1  0  0  0  0  0  0
  -29.3180  -20.8070   19.7790 C   0  0  0  0  0  3  0  0  0  0  0  0
  -29.2620  -19.8600   20.9490 N   0  0  0  0  0  4  0  0  0  0  0  0
  -30.0770  -19.9570   21.5290 H   0  0  0  0  0  0  0  0  0  0  0  0
  -28.4830  -20.1850   21.5000 H   0  0  0  0  0  0  0  0  0  0  0  0
  -28.9610  -18.3910   20.7090 C   0  0  0  0  0  2  0  0  0  0  0  0
  -30.1430  -17.3470   20.4950 C   0  0  0  0  0  2  0  0  0  0  0  0
  -29.8010  -15.8560   20.9330 C   0  0  0  0  0  2  0  0  0  0  0  0
  -30.6160  -14.6350   20.3500 C   0  0  0  0  0  0  0  0  0  0  0  0
  -30.4200  -12.4260   19.2080 C   0  0  0  0  0  2  0  0  0  0  0  0
  -29.4710  -12.6060   18.0010 C   0  0  0  0  0  2  0  0  0  0  0  0
  -27.9970  -12.4380   18.4220 C   0  0  0  0  0  2  0  0  0  0  0  0
  -27.6500  -13.2680   19.6840 C   0  0  0  0  0  3  0  0  0  0  0  0
  -28.7060  -13.0620   20.7940 C   0  0  0  0  0  2  0  0  0  0  0  0
  -30.0180  -13.4070   20.2330 N   0  0  0  0  0  0  0  0  0  0  0  0
  -31.7560  -14.8260   19.9110 O   0  0  0  0  0  0  0  0  0  0  0  0
  -25.2570  -13.8860   20.3850 C   0  0  0  0  0  0  0  0  0  0  0  0
  -24.1890  -13.1210   20.7640 C   0  0  0  0  0  0  0  0  0  0  0  0
  -24.6500  -11.7680   20.7530 C   0  0  0  0  0  0  0  0  0  0  0  0
  -26.3000  -13.0000   20.1660 N   0  0  0  0  0  0  0  0  0  0  0  0
  -25.9400  -11.7220   20.4480 N   0  0  0  0  0  0  0  0  0  0  0  0
  -23.9230  -10.5110   20.9610 C   0  0  0  0  0  0  0  0  0  0  0  0
  -24.3520   -9.5580   21.9120 C   0  0  0  0  0  3  0  0  0  0  0  0
  -23.6250   -8.3620   22.1040 C   0  0  0  0  0  3  0  0  0  0  0  0
  -22.4550   -8.1120   21.3470 C   0  0  0  0  0  0  0  0  0  0  0  0
  -22.0460   -9.0540   20.3870 C   0  0  0  0  0  3  0  0  0  0  0  0
  -22.7730  -10.2410   20.1920 C   0  0  0  0  0  3  0  0  0  0  0  0
  -21.7010   -6.9670   21.4480 O   0  0  0  0  0  0  0  0  0  0  0  0
  -21.6480   -6.2430   22.6110 C   0  0  0  0  0  0  0  0  0  0  0  0
  -21.2120   -6.8130   23.8270 C   0  0  0  0  0  3  0  0  0  0  0  0
  -21.1050   -6.0120   24.9810 C   0  0  0  0  0  3  0  0  0  0  0  0
  -21.4260   -4.6420   24.9220 C   0  0  0  0  0  0  0  0  0  0  0  0
  -21.8540   -4.0720   23.7110 C   0  0  0  0  0  3  0  0  0  0  0  0
  -21.9620   -4.8690   22.5580 C   0  0  0  0  0  0  0  0  0  0  0  0
  -22.3560   -4.3100   21.3880 F   0  0  0  0  0  0  0  0  0  0  0  0
  -21.3160   -3.8710   26.0290 F   0  0  0  0  0  0  0  0  0  0  0  0
  -22.7900  -13.6020   21.0230 C   0  0  0  0  0  0  0  0  0  0  0  0
  -22.0600  -12.9180   21.8980 N   0  0  0  0  0  0  0  0  0  0  0  0
  -22.3520  -14.6190   20.4870 O   0  0  0  0  0  0  0  0  0  0  0  0
  -22.4260  -12.0960   22.3530 H   0  0  0  0  0  0  0  0  0  0  0  0
  -21.1220  -13.2210   22.1140 H   0  0  0  0  0  0  0  0  0  0  0  0
  -25.4260  -15.2550   20.1870 N   0  0  0  0  0  0  0  0  0  0  0  0
  -24.6590  -15.9130   20.2720 H   0  0  0  0  0  0  0  0  0  0  0  0
  -26.2740  -15.6790   19.8360 H   0  0  0  0  0  0  0  0  0  0  0  0
  -28.1460  -25.1810   17.7620 O   0  0  0  0  0  0  0  0  0  0  0  0
  -28.1290  -26.1170   17.9220 H   0  0  0  0  0  0  0  0  0  0  0  0
  -28.4250  -26.6190   20.1770 O   0  0  0  0  0  0  0  0  0  0  0  0
  -24.5860  -31.8840   23.2170 C   0  0  0  0  0  0  0  0  0  0  0  0
  -27.2470  -27.3700   20.1810 C   0  0  0  0  0  0  0  0  0  0  0  0
  -23.3960  -30.4790   21.5670 C   0  0  0  0  0  3  0  0  0  0  0  0
  -24.8610  -28.9370   20.1530 C   0  0  0  0  0  0  0  0  0  0  0  0
  -25.9280  -30.8250   21.3900 C   0  0  0  0  0  2  0  0  0  0  0  0
  -26.0190  -29.4460   20.7530 C   0  0  0  0  0  0  0  0  0  0  0  0
  -27.2130  -28.6730   20.7580 C   0  0  0  0  0  3  0  0  0  0  0  0
  -26.0620  -26.8940   19.5790 C   0  0  0  0  0  3  0  0  0  0  0  0
  -24.8820  -27.6650   19.5570 C   0  0  0  0  0  3  0  0  0  0  0  0
  -23.6170  -29.8010   20.1890 C   0  0  0  0  0  2  0  0  0  0  0  0
  -24.6550  -31.0800   22.1150 N   0  0  0  0  0  0  0  0  0  0  0  0
  -23.4990  -32.1530   23.7490 O   0  0  0  0  0  0  0  0  0  0  0  0
  -22.7380  -29.4560   22.5240 C   0  0  0  0  0  0  0  0  0  0  0  0
  -21.4120  -29.2790   22.3970 N   0  0  0  0  0  0  0  0  0  0  0  0
  -23.4190  -28.8260   23.3370 O   0  0  0  0  0  0  0  0  0  0  0  0
  -20.9210  -29.8440   21.7180 H   0  0  0  0  0  0  0  0  0  0  0  0
  -18.0350  -28.0910   22.8950 C   0  0  0  0  0  0  0  0  0  0  0  0
  -20.5940  -28.3360   23.1610 C   0  0  0  0  0  3  0  0  0  0  0  0
  -20.6880  -26.9080   22.5740 C   0  0  0  0  0  2  0  0  0  0  0  0
  -19.5830  -26.5980   21.5600 C   0  0  0  0  0  2  0  0  0  0  0  0
  -18.2030  -26.7460   22.2090 C   0  0  0  0  0  2  0  0  0  0  0  0
  -19.1570  -28.8450   23.3280 C   0  0  0  0  0  0  0  0  0  0  0  0
  -18.9440  -30.1070   23.9250 C   0  0  0  0  0  3  0  0  0  0  0  0
  -17.6420  -30.6100   24.1010 C   0  0  0  0  0  3  0  0  0  0  0  0
  -16.5340  -29.8510   23.6850 C   0  0  0  0  0  3  0  0  0  0  0  0
  -16.7320  -28.5950   23.0860 C   0  0  0  0  0  3  0  0  0  0  0  0
  -25.8630  -32.5210   23.8450 C   0  0  0  0  0  3  0  0  0  0  0  0
  -25.5480  -33.9180   24.1760 N   0  0  0  0  0  0  0  0  0  0  0  0
  -25.8810  -34.9730   23.4190 C   0  0  0  0  0  0  0  0  0  0  0  0
  -26.5540  -34.8740   22.3910 O   0  0  0  0  0  0  0  0  0  0  0  0
  -24.9590  -34.0690   24.9820 H   0  0  0  0  0  0  0  0  0  0  0  0
  -24.1480  -36.7620   23.0580 C   0  0  0  0  0  1  0  0  0  0  0  0
  -25.3860  -36.3590   23.8760 C   0  0  0  0  0  3  0  0  0  0  0  0
  -27.5140  -37.2510   24.7200 C   0  0  0  0  0  1  0  0  0  0  0  0
  -26.4160  -37.4160   23.7710 N   0  0  0  0  0  0  0  0  0  0  0  0
  -26.0050  -38.3340   23.9210 H   0  0  0  0  0  0  0  0  0  0  0  0
  -26.3790  -31.7500   25.1240 C   0  0  1  0  0  0  0  0  0  0  0  0
  -25.2840  -31.5060   26.1890 C   0  0  0  0  0  1  0  0  0  0  0  0
  -26.9710  -30.3780   24.7280 C   0  0  0  0  0  1  0  0  0  0  0  0
  -27.5230  -32.5510   25.7940 C   0  0  0  0  0  1  0  0  0  0  0  0
  1  2  1  0
  3  1  2  0
  4 54  1  0
  4  2  2  0
  5  4  1  0
  6  5  2  0
  6  3  1  0
  7  6  1  0
  9  8  1  0
  9  3  1  0
  9 10  1  0
 10 12  1  0
 10 11  1  0
 13 10  1  0
 14 13  1  0
 14 15  1  0
 16 15  1  0
 17 22  1  0
 18 19  1  0
 18 17  1  0
 20 19  1  0
 20 27  1  0
 20 21  1  0
 22 16  1  0
 22 21  1  0
 23 16  2  0
 24 25  2  0
 25 44  1  0
 26 25  1  0
 26 29  1  0
 27 24  1  0
 27 28  1  0
 28 26  2  0
 29 30  1  0
 30 31  2  0
 32 35  1  0
 32 31  1  0
 33 32  2  0
 34 33  1  0
 34 29  2  0
 35 36  1  0
 36 37  1  0
 37 38  2  0
 39 38  1  0
 39 43  1  0
 40 39  2  0
 41 36  2  0
 41 40  1  0
 42 41  1  0
 44 45  1  0
 45 48  1  0
 45 47  1  0
 46 44  2  0
 49 50  1  0
 49 24  1  0
 51 49  1  0
 52 53  1  0
 52  5  1  0
 54 56  1  0
 55 66  2  0
 56 61  1  0
 57 65  1  0
 57 67  1  0
 58 64  1  0
 58 60  1  0
 59 65  1  0
 60 61  2  0
 60 59  1  0
 62 56  2  0
 63 62  1  0
 63 58  2  0
 64 57  1  0
 65 55  1  0
 67 69  2  0
 68 67  1  0
 70 68  1  0
 71 80  2  0
 71 76  1  0
 72 68  1  0
 72 76  1  0
 73 72  1  0
 74 75  1  0
 74 73  1  0
 75 71  1  0
 76 77  2  0
 77 78  1  0
 79 78  2  0
 80 79  1  0
 81 55  1  0
 81 82  1  0
 81 91  1  0
 82 85  1  0
 83 87  1  0
 83 82  1  0
 84 83  2  0
 87 86  1  0
 89 87  1  0
 89 90  1  0
 89 88  1  0
 91 94  1  1
 91 92  1  0
 93 91  1  0
M  ISO  4   4 101  15 100  16 100  54 101
M  END
>  <TORSDO>  (49) 
F 22

>  <SCORE>  (49) 
-13.412

>  <name>  (49) 
49

>  <ligand_id>  (49) 
49

>  <original_smiles>  (49) 
[H]Oc1c(F)c(C([H])(C([H])([H])[H])[N+]([H])([H])C([H])([H])C([H])([H])C([H])([H])C(=O)N2C([H])([H])C([H])([H])C([H])([H])C([H])(n3nc(-c4c([H])c([H])c(Oc5c([H])c([H])c(F)c([H])c5F)c([H])c4[H])c(C(=O)N([H])[H])c3N([H])[H])C2([H])[H])c([H])c([H])c1Oc1c([H])c([H])c2c(c1[H])C([H])([H])N(C(=O)C([H])(N([H])C(=O)C([H])(N([H])C([H])([H])[H])C([H])([H])[H])C(C([H])([H])[H])(C([H])([H])[H])C([H])([H])[H])C([H])(C(=O)N([H])C1([H])c3c([H])c([H])c([H])c([H])c3C([H])([H])C([H])([H])C1([H])[H])C2([H])[H]

>  <smiles>  (49) 
[H]Oc1c(F)c(C([H])(C([H])([H])[H])[N+]([H])([H])C([H])([H])C([H])([H])C([H])([H])C(=O)N2C([H])([H])C([H])([H])C([H])([H])C([H])(n3nc(-c4c([H])c([H])c(Oc5c([H])c([H])c(F)c([H])c5F)c([H])c4[H])c(C(=O)N([H])[H])c3N([H])[H])C2([H])[H])c([H])c([H])c1Oc1c([H])c([H])c2c(c1[H])C([H])([H])N(C(=O)C([H])(N([H])C(=O)C([H])(N([H])C([H])([H])[H])C([H])([H])[H])C(C([H])([H])[H])(C([H])([H])[H])C([H])([H])[H])C([H])(C(=O)N([H])C1([H])c3c([H])c([H])c([H])c([H])c3C([H])([H])C([H])([H])C1([H])[H])C2([H])[H]

$$$$
50:0:0
     RDKit          3D

 95104  0  0  1  0  0  0  0  0999 V2000
  -28.4090  -24.4790   20.0620 C   0  0  0  0  0  3  0  0  0  0  0  0
  -28.8600  -23.1730   22.0670 C   0  0  0  0  0  3  0  0  0  0  0  0
  -28.5120  -23.2270   20.7020 C   0  0  0  0  0  0  0  0  0  0  0  0
  -29.0430  -25.6110   22.1330 C   0  0  0  0  0  0  0  0  0  0  0  0
  -28.6790  -25.6720   20.7640 C   0  0  0  0  0  0  0  0  0  0  0  0
  -29.1230  -24.3570   22.7770 C   0  0  0  0  0  0  0  0  0  0  0  0
  -29.3430  -26.8750   22.9190 C   0  0  0  0  0  1  0  0  0  0  0  0
  -29.4530  -24.2840   24.0900 F   0  0  0  0  0  0  0  0  0  0  0  0
  -28.2110  -21.9860   19.9500 C   0  0  0  0  0  0  0  0  0  0  0  0
  -27.2850  -21.8940   19.1390 O   0  0  0  0  0  0  0  0  0  0  0  0
  -29.1790  -20.8160   20.1340 C   0  0  0  0  0  2  0  0  0  0  0  0
  -28.5580  -19.5480   20.7600 C   0  0  0  0  0  2  0  0  0  0  0  0
  -30.9600  -14.4350   19.6390 C   0  0  0  0  0  0  0  0  0  0  0  0
  -30.5350  -12.2370   18.6270 C   0  0  0  0  0  2  0  0  0  0  0  0
  -29.4810  -12.4090   17.5140 C   0  0  0  0  0  2  0  0  0  0  0  0
  -28.0570  -12.2950   18.0940 C   0  0  0  0  0  2  0  0  0  0  0  0
  -27.8460  -13.1780   19.3540 C   0  0  0  0  0  3  0  0  0  0  0  0
  -29.0080  -13.0050   20.3560 C   0  0  0  0  0  2  0  0  0  0  0  0
  -30.2650  -13.2680   19.6400 N   0  0  0  0  0  0  0  0  0  0  0  0
  -32.0550  -14.5580   19.0790 O   0  0  0  0  0  0  0  0  0  0  0  0
  -29.2030  -17.6850   19.1450 C   0  0  0  0  0  2  0  0  0  0  0  0
  -29.3210  -17.2100   21.5730 C   0  0  0  0  0  2  0  0  0  0  0  0
  -30.2190  -16.5690   18.8810 C   0  0  0  0  0  2  0  0  0  0  0  0
  -30.3410  -16.0800   21.3030 C   0  0  0  0  0  2  0  0  0  0  0  0
  -29.4550  -18.3180   20.5180 C   0  0  0  0  0  3  0  0  0  0  0  0
  -30.2370  -15.5370   19.9380 N   0  0  0  0  0  0  0  0  0  0  0  0
  -25.5740  -13.8130   20.3830 C   0  0  0  0  0  0  0  0  0  0  0  0
  -24.5310  -13.0520   20.8390 C   0  0  0  0  0  0  0  0  0  0  0  0
  -24.9380  -11.6920   20.6830 C   0  0  0  0  0  0  0  0  0  0  0  0
  -26.5530  -12.9160   19.9810 N   0  0  0  0  0  0  0  0  0  0  0  0
  -26.1800  -11.6320   20.2170 N   0  0  0  0  0  0  0  0  0  0  0  0
  -24.1980  -10.4420   20.8970 C   0  0  0  0  0  0  0  0  0  0  0  0
  -24.6200   -9.4850   21.8470 C   0  0  0  0  0  3  0  0  0  0  0  0
  -23.8820   -8.3000   22.0470 C   0  0  0  0  0  3  0  0  0  0  0  0
  -22.7060   -8.0610   21.2960 C   0  0  0  0  0  0  0  0  0  0  0  0
  -22.3020   -9.0050   20.3360 C   0  0  0  0  0  3  0  0  0  0  0  0
  -23.0410  -10.1820   20.1350 C   0  0  0  0  0  3  0  0  0  0  0  0
  -21.9400   -6.9250   21.4040 O   0  0  0  0  0  0  0  0  0  0  0  0
  -21.7710   -6.2820   22.6040 C   0  0  0  0  0  0  0  0  0  0  0  0
  -21.2200   -6.9350   23.7280 C   0  0  0  0  0  3  0  0  0  0  0  0
  -20.9990   -6.2190   24.9210 C   0  0  0  0  0  3  0  0  0  0  0  0
  -21.3170   -4.8490   24.9890 C   0  0  0  0  0  0  0  0  0  0  0  0
  -21.8600   -4.1950   23.8690 C   0  0  0  0  0  3  0  0  0  0  0  0
  -22.0830   -4.9100   22.6780 C   0  0  0  0  0  0  0  0  0  0  0  0
  -22.5860   -4.2710   21.5950 F   0  0  0  0  0  0  0  0  0  0  0  0
  -21.0970   -4.1580   26.1320 F   0  0  0  0  0  0  0  0  0  0  0  0
  -23.1950  -13.5520   21.3070 C   0  0  0  0  0  0  0  0  0  0  0  0
  -22.5700  -12.8470   22.2430 N   0  0  0  0  0  0  0  0  0  0  0  0
  -22.7200  -14.6010   20.8750 O   0  0  0  0  0  0  0  0  0  0  0  0
  -22.9700  -11.9970   22.6110 H   0  0  0  0  0  0  0  0  0  0  0  0
  -21.6770  -13.1620   22.5960 H   0  0  0  0  0  0  0  0  0  0  0  0
  -25.7650  -15.1860   20.2590 N   0  0  0  0  0  0  0  0  0  0  0  0
  -25.0460  -15.8570   20.5010 H   0  0  0  0  0  0  0  0  0  0  0  0
  -26.6040  -15.6150   19.8910 H   0  0  0  0  0  0  0  0  0  0  0  0
  -28.6220  -26.8700   20.0930 O   0  0  0  0  0  0  0  0  0  0  0  0
  -24.5560  -31.7800   23.2130 C   0  0  0  0  0  0  0  0  0  0  0  0
  -27.4220  -27.5340   20.1020 C   0  0  0  0  0  0  0  0  0  0  0  0
  -23.4280  -30.3590   21.5280 C   0  0  0  0  0  3  0  0  0  0  0  0
  -24.9610  -28.9060   20.1010 C   0  0  0  0  0  0  0  0  0  0  0  0
  -25.9340  -30.8350   21.3650 C   0  0  0  0  0  2  0  0  0  0  0  0
  -26.0840  -29.4800   20.7110 C   0  0  0  0  0  0  0  0  0  0  0  0
  -27.3200  -28.8030   20.7060 C   0  0  0  0  0  3  0  0  0  0  0  0
  -26.2890  -26.9630   19.4870 C   0  0  0  0  0  3  0  0  0  0  0  0
  -25.0570  -27.6450   19.4850 C   0  0  0  0  0  3  0  0  0  0  0  0
  -23.6810  -29.7090   20.1400 C   0  0  0  0  0  2  0  0  0  0  0  0
  -24.6560  -31.0050   22.0940 N   0  0  0  0  0  0  0  0  0  0  0  0
  -23.4600  -31.9960   23.7450 O   0  0  0  0  0  0  0  0  0  0  0  0
  -22.8090  -29.2960   22.4630 C   0  0  0  0  0  0  0  0  0  0  0  0
  -21.4980  -29.0550   22.3090 N   0  0  0  0  0  0  0  0  0  0  0  0
  -23.5070  -28.6890   23.2810 O   0  0  0  0  0  0  0  0  0  0  0  0
  -20.9960  -29.5980   21.6200 H   0  0  0  0  0  0  0  0  0  0  0  0
  -18.1770  -27.6920   22.7030 C   0  0  0  0  0  0  0  0  0  0  0  0
  -20.7100  -28.0720   23.0490 C   0  0  0  0  0  3  0  0  0  0  0  0
  -20.9000  -26.6530   22.4630 C   0  0  0  0  0  2  0  0  0  0  0  0
  -19.8430  -26.2870   21.4170 C   0  0  0  0  0  2  0  0  0  0  0  0
  -18.4390  -26.3580   22.0230 C   0  0  0  0  0  2  0  0  0  0  0  0
  -19.2440  -28.5040   23.1700 C   0  0  0  0  0  0  0  0  0  0  0  0
  -18.9480  -29.7510   23.7620 C   0  0  0  0  0  3  0  0  0  0  0  0
  -17.6160  -30.1870   23.8940 C   0  0  0  0  0  3  0  0  0  0  0  0
  -16.5620  -29.3720   23.4440 C   0  0  0  0  0  3  0  0  0  0  0  0
  -16.8440  -28.1270   22.8540 C   0  0  0  0  0  3  0  0  0  0  0  0
  -25.8100  -32.4480   23.8610 C   0  0  0  0  0  3  0  0  0  0  0  0
  -26.2930  -31.7210   25.1750 C   0  0  1  0  0  0  0  0  0  0  0  0
  -25.1660  -31.4910   26.2090 C   0  0  0  0  0  1  0  0  0  0  0  0
  -26.9150  -30.3460   24.8370 C   0  0  0  0  0  1  0  0  0  0  0  0
  -27.4030  -32.5540   25.8570 C   0  0  0  0  0  1  0  0  0  0  0  0
  -25.4720  -33.8500   24.1360 N   0  0  0  0  0  0  0  0  0  0  0  0
  -25.8100  -34.8800   23.3500 C   0  0  0  0  0  0  0  0  0  0  0  0
  -26.5130  -34.7540   22.3440 O   0  0  0  0  0  0  0  0  0  0  0  0
  -24.8520  -34.0210   24.9150 H   0  0  0  0  0  0  0  0  0  0  0  0
  -24.0620  -36.6260   22.8820 C   0  0  0  0  0  1  0  0  0  0  0  0
  -25.2850  -36.2740   23.7440 C   0  0  0  0  0  3  0  0  0  0  0  0
  -27.3760  -37.2280   24.6080 C   0  0  0  0  0  1  0  0  0  0  0  0
  -26.3020  -37.3410   23.6240 N   0  0  0  0  0  0  0  0  0  0  0  0
  -25.8760  -38.2590   23.7250 H   0  0  0  0  0  0  0  0  0  0  0  0
  1  3  2  0
  1  5  1  0
  2  6  2  0
  3  2  1  0
  4  6  1  0
  4  7  1  0
  5  4  2  0
  6  8  1  0
  9 11  1  0
  9  3  1  0
 10  9  2  0
 11 12  1  0
 13 19  1  0
 13 26  1  0
 14 19  1  0
 15 16  1  0
 15 14  1  0
 17 16  1  0
 17 30  1  0
 17 18  1  0
 19 18  1  0
 20 13  2  0
 21 25  1  0
 23 21  1  0
 23 26  1  0
 24 22  1  0
 25 12  1  0
 25 22  1  0
 26 24  1  0
 27 28  2  0
 28 47  1  0
 29 28  1  0
 29 32  1  0
 30 31  1  0
 30 27  1  0
 31 29  2  0
 32 33  1  0
 33 34  2  0
 35 38  1  0
 35 34  1  0
 36 35  2  0
 37 36  1  0
 37 32  2  0
 38 39  1  0
 39 44  2  0
 39 40  1  0
 40 41  2  0
 41 42  1  0
 42 46  1  0
 43 42  2  0
 44 43  1  0
 45 44  1  0
 47 48  1  0
 48 51  1  0
 48 50  1  0
 49 47  2  0
 52 27  1  0
 52 53  1  0
 54 52  1  0
 55 57  1  0
 55  5  1  0
 56 67  2  0
 57 62  1  0
 58 66  1  0
 58 68  1  0
 59 65  1  0
 59 61  1  0
 60 66  1  0
 61 60  1  0
 62 61  2  0
 63 57  2  0
 64 63  1  0
 64 59  2  0
 65 58  1  0
 66 56  1  0
 68 70  2  0
 69 68  1  0
 71 69  1  0
 72 81  2  0
 72 77  1  0
 73 69  1  0
 73 77  1  0
 74 73  1  0
 75 76  1  0
 75 74  1  0
 76 72  1  0
 77 78  2  0
 78 79  1  0
 80 79  2  0
 81 80  1  0
 82 56  1  0
 82 87  1  0
 82 83  1  0
 83 86  1  1
 83 84  1  0
 85 83  1  0
 87 90  1  0
 88 92  1  0
 88 87  1  0
 89 88  2  0
 92 91  1  0
 94 95  1  0
 94 92  1  0
 94 93  1  0
M  ISO  4   5 101  13 100  26 100  55 101
M  END
>  <TORSDO>  (50) 
F 19

>  <SCORE>  (50) 
-13.377

>  <name>  (50) 
50

>  <ligand_id>  (50) 
50

>  <original_smiles>  (50) 
[H]c1c([H])c([H])c2c(c1[H])C([H])([H])C([H])([H])C([H])([H])C2([H])N([H])C(=O)C1([H])N(C(=O)C([H])(N([H])C(=O)C([H])(N([H])C([H])([H])[H])C([H])([H])[H])C(C([H])([H])[H])(C([H])([H])[H])C([H])([H])[H])C([H])([H])c2c([H])c(Oc3c([H])c(C(=O)C([H])([H])C([H])([H])C4([H])C([H])([H])C([H])([H])N(C(=O)N5C([H])([H])C([H])([H])C([H])([H])C([H])(n6nc(-c7c([H])c([H])c(Oc8c([H])c([H])c(F)c([H])c8F)c([H])c7[H])c(C(=O)N([H])[H])c6N([H])[H])C5([H])[H])C([H])([H])C4([H])[H])c([H])c(F)c3C([H])([H])[H])c([H])c([H])c2C1([H])[H]

>  <smiles>  (50) 
[H]c1c([H])c([H])c2c(c1[H])C([H])([H])C([H])([H])C([H])([H])C2([H])N([H])C(=O)C1([H])N(C(=O)C([H])(N([H])C(=O)C([H])(N([H])C([H])([H])[H])C([H])([H])[H])C(C([H])([H])[H])(C([H])([H])[H])C([H])([H])[H])C([H])([H])c2c([H])c(Oc3c([H])c(C(=O)C([H])([H])C([H])([H])C4([H])C([H])([H])C([H])([H])N(C(=O)N5C([H])([H])C([H])([H])C([H])([H])C([H])(n6nc(-c7c([H])c([H])c(Oc8c([H])c([H])c(F)c([H])c8F)c([H])c7[H])c(C(=O)N([H])[H])c6N([H])[H])C5([H])[H])C([H])([H])C4([H])[H])c([H])c(F)c3C([H])([H])[H])c([H])c([H])c2C1([H])[H]

$$$$
51:0:0
     RDKit          3D

 95103  0  0  1  0  0  0  0  0999 V2000
  -29.9750  -20.2590   20.6000 C   0  0  0  0  0  3  0  0  0  0  0  0
  -29.8030  -21.6630   20.6790 C   0  0  0  0  0  3  0  0  0  0  0  0
  -27.7510  -20.0470   19.6630 C   0  0  0  0  0  3  0  0  0  0  0  0
  -28.9490  -19.4230   20.0880 C   0  0  0  0  0  0  0  0  0  0  0  0
  -28.5950  -22.2760   20.2580 C   0  0  0  0  0  0  0  0  0  0  0  0
  -27.5760  -21.4430   19.7470 C   0  0  0  0  0  0  0  0  0  0  0  0
  -26.4100  -21.9910   19.3310 F   0  0  0  0  0  0  0  0  0  0  0  0
  -29.0750  -17.9270   19.9380 C   0  0  0  0  0  0  0  0  0  0  0  0
  -28.1360  -17.2610   19.4860 O   0  0  0  0  0  0  0  0  0  0  0  0
  -30.4120  -17.2150   20.2670 C   0  0  0  0  0  3  0  0  0  0  0  0
  -31.1670  -17.2450   18.9940 N   0  0  0  0  0  4  0  0  0  0  0  0
  -30.5630  -16.9920   18.2320 H   0  0  0  0  0  0  0  0  0  0  0  0
  -31.9240  -16.5780   19.0430 H   0  0  0  0  0  0  0  0  0  0  0  0
  -31.5400  -18.1590   18.8100 H   0  0  0  0  0  0  0  0  0  0  0  0
  -30.1970  -15.7770   20.9020 C   0  0  0  0  0  2  0  0  0  0  0  0
  -30.8170  -14.5530   20.1750 C   0  0  0  0  0  0  0  0  0  0  0  0
  -30.4590  -12.4080   19.0050 C   0  0  0  0  0  2  0  0  0  0  0  0
  -29.4590  -12.6340   17.8500 C   0  0  0  0  0  2  0  0  0  0  0  0
  -28.0050  -12.5070   18.3470 C   0  0  0  0  0  2  0  0  0  0  0  0
  -27.7390  -13.3300   19.6370 C   0  0  0  0  0  3  0  0  0  0  0  0
  -28.8430  -13.0670   20.6850 C   0  0  0  0  0  2  0  0  0  0  0  0
  -30.1380  -13.3790   20.0640 N   0  0  0  0  0  0  0  0  0  0  0  0
  -31.9070  -14.7230   19.6190 O   0  0  0  0  0  0  0  0  0  0  0  0
  -25.3880  -13.9600   20.4750 C   0  0  0  0  0  0  0  0  0  0  0  0
  -24.3260  -13.1950   20.8770 C   0  0  0  0  0  0  0  0  0  0  0  0
  -24.7610  -11.8370   20.7900 C   0  0  0  0  0  0  0  0  0  0  0  0
  -26.4060  -13.0670   20.1730 N   0  0  0  0  0  0  0  0  0  0  0  0
  -26.0340  -11.7850   20.4160 N   0  0  0  0  0  0  0  0  0  0  0  0
  -24.0240  -10.5810   20.9840 C   0  0  0  0  0  0  0  0  0  0  0  0
  -24.4710   -9.5960   21.8920 C   0  0  0  0  0  3  0  0  0  0  0  0
  -23.7350   -8.4050   22.0760 C   0  0  0  0  0  3  0  0  0  0  0  0
  -22.5390   -8.1910   21.3500 C   0  0  0  0  0  0  0  0  0  0  0  0
  -22.1110   -9.1660   20.4320 C   0  0  0  0  0  3  0  0  0  0  0  0
  -22.8460  -10.3480   20.2470 C   0  0  0  0  0  3  0  0  0  0  0  0
  -21.7730   -7.0540   21.4440 O   0  0  0  0  0  0  0  0  0  0  0  0
  -21.7380   -6.3030   22.5920 C   0  0  0  0  0  0  0  0  0  0  0  0
  -21.3070   -6.8430   23.8230 C   0  0  0  0  0  3  0  0  0  0  0  0
  -21.2200   -6.0190   24.9630 C   0  0  0  0  0  3  0  0  0  0  0  0
  -21.5520   -4.6530   24.8710 C   0  0  0  0  0  0  0  0  0  0  0  0
  -21.9760   -4.1120   23.6440 C   0  0  0  0  0  3  0  0  0  0  0  0
  -22.0650   -4.9340   22.5080 C   0  0  0  0  0  0  0  0  0  0  0  0
  -22.4530   -4.4030   21.3240 F   0  0  0  0  0  0  0  0  0  0  0  0
  -21.4610   -3.8580   25.9620 F   0  0  0  0  0  0  0  0  0  0  0  0
  -22.9520  -13.6860   21.2330 C   0  0  0  0  0  0  0  0  0  0  0  0
  -22.2570  -12.9780   22.1160 N   0  0  0  0  0  0  0  0  0  0  0  0
  -22.5050  -14.7310   20.7640 O   0  0  0  0  0  0  0  0  0  0  0  0
  -22.6320  -12.1300   22.5170 H   0  0  0  0  0  0  0  0  0  0  0  0
  -21.3380  -13.2870   22.3970 H   0  0  0  0  0  0  0  0  0  0  0  0
  -25.5680  -15.3320   20.3260 N   0  0  0  0  0  0  0  0  0  0  0  0
  -24.8160  -15.9920   20.4910 H   0  0  0  0  0  0  0  0  0  0  0  0
  -26.4160  -15.7800   19.9920 H   0  0  0  0  0  0  0  0  0  0  0  0
  -28.3370  -23.6390   20.3100 O   0  0  0  0  0  0  0  0  0  0  0  0
  -29.2920  -24.5150   20.9140 C   0  0  0  0  0  2  0  0  0  0  0  0
  -28.6400  -25.8630   21.3020 C   0  0  0  0  0  2  0  0  0  0  0  0
  -28.5610  -26.7900   20.2140 O   0  0  0  0  0  0  0  0  0  0  0  0
  -24.5890  -31.8890   23.2370 C   0  0  0  0  0  0  0  0  0  0  0  0
  -27.4030  -27.5290   20.2050 C   0  0  0  0  0  0  0  0  0  0  0  0
  -23.4590  -30.4830   21.5440 C   0  0  0  0  0  3  0  0  0  0  0  0
  -24.9850  -28.9820   20.1540 C   0  0  0  0  0  0  0  0  0  0  0  0
  -25.9830  -30.8880   21.4300 C   0  0  0  0  0  2  0  0  0  0  0  0
  -26.1140  -29.5240   20.7850 C   0  0  0  0  0  0  0  0  0  0  0  0
  -27.3290  -28.8020   20.8120 C   0  0  0  0  0  3  0  0  0  0  0  0
  -26.2650  -26.9960   19.5700 C   0  0  0  0  0  3  0  0  0  0  0  0
  -25.0550  -27.7160   19.5450 C   0  0  0  0  0  3  0  0  0  0  0  0
  -23.7250  -29.8180   20.1660 C   0  0  0  0  0  2  0  0  0  0  0  0
  -24.6930  -31.1010   22.1300 N   0  0  0  0  0  0  0  0  0  0  0  0
  -23.4870  -32.1390   23.7450 O   0  0  0  0  0  0  0  0  0  0  0  0
  -22.7950  -29.4440   22.4740 C   0  0  0  0  0  0  0  0  0  0  0  0
  -21.4700  -29.2750   22.3310 N   0  0  0  0  0  0  0  0  0  0  0  0
  -23.4670  -28.7920   23.2770 O   0  0  0  0  0  0  0  0  0  0  0  0
  -20.9890  -29.8520   21.6560 H   0  0  0  0  0  0  0  0  0  0  0  0
  -18.0720  -28.1530   22.8320 C   0  0  0  0  0  0  0  0  0  0  0  0
  -20.6400  -28.3240   23.0710 C   0  0  0  0  0  3  0  0  0  0  0  0
  -20.6910  -26.9200   22.4240 C   0  0  0  0  0  2  0  0  0  0  0  0
  -19.5630  -26.6790   21.4150 C   0  0  0  0  0  2  0  0  0  0  0  0
  -18.1970  -26.8330   22.0900 C   0  0  0  0  0  2  0  0  0  0  0  0
  -19.2190  -28.8610   23.2790 C   0  0  0  0  0  0  0  0  0  0  0  0
  -19.0480  -30.1010   23.9320 C   0  0  0  0  0  3  0  0  0  0  0  0
  -17.7620  -30.6320   24.1430 C   0  0  0  0  0  3  0  0  0  0  0  0
  -16.6280  -29.9190   23.7140 C   0  0  0  0  0  3  0  0  0  0  0  0
  -16.7840  -28.6820   23.0640 C   0  0  0  0  0  3  0  0  0  0  0  0
  -25.8450  -32.5330   23.9040 C   0  0  0  0  0  3  0  0  0  0  0  0
  -25.5180  -33.9340   24.1990 N   0  0  0  0  0  0  0  0  0  0  0  0
  -25.8800  -34.9760   23.4370 C   0  0  0  0  0  0  0  0  0  0  0  0
  -26.5930  -34.8590   22.4380 O   0  0  0  0  0  0  0  0  0  0  0  0
  -24.8900  -34.0990   24.9710 H   0  0  0  0  0  0  0  0  0  0  0  0
  -24.1700  -36.7590   22.9720 C   0  0  0  0  0  1  0  0  0  0  0  0
  -25.3680  -36.3680   23.8510 C   0  0  0  0  0  3  0  0  0  0  0  0
  -27.4520  -37.2720   24.7820 C   0  0  0  0  0  1  0  0  0  0  0  0
  -26.4030  -37.4220   23.7770 N   0  0  0  0  0  0  0  0  0  0  0  0
  -25.9880  -38.3430   23.8870 H   0  0  0  0  0  0  0  0  0  0  0  0
  -26.3110  -31.7810   25.2100 C   0  0  1  0  0  0  0  0  0  0  0  0
  -25.1730  -31.5460   26.2320 C   0  0  0  0  0  1  0  0  0  0  0  0
  -26.9210  -30.4030   24.8580 C   0  0  0  0  0  1  0  0  0  0  0  0
  -27.4260  -32.5910   25.9130 C   0  0  0  0  0  1  0  0  0  0  0  0
  1  2  1  0
  3  6  2  0
  3  4  1  0
  4  1  2  0
  5 52  1  0
  5  2  2  0
  6  5  1  0
  7  6  1  0
  8  4  1  0
  8 10  1  0
  9  8  2  0
 10 15  1  0
 11 13  1  0
 11 10  1  0
 12 11  1  0
 14 11  1  0
 16 15  1  0
 17 22  1  0
 18 19  1  0
 18 17  1  0
 20 19  1  0
 20 27  1  0
 20 21  1  0
 22 16  1  0
 22 21  1  0
 23 16  2  0
 24 25  2  0
 25 44  1  0
 26 25  1  0
 26 29  1  0
 27 28  1  0
 27 24  1  0
 28 26  2  0
 29 30  1  0
 30 31  2  0
 32 35  1  0
 32 31  1  0
 33 32  2  0
 34 33  1  0
 34 29  2  0
 35 36  1  0
 36 37  1  0
 37 38  2  0
 39 38  1  0
 39 43  1  0
 40 39  2  0
 41 36  2  0
 41 40  1  0
 42 41  1  0
 44 45  1  0
 45 48  1  0
 45 47  1  0
 46 44  2  0
 49 24  1  0
 49 50  1  0
 51 49  1  0
 52 53  1  0
 53 54  1  0
 55 54  1  0
 56 67  2  0
 57 55  1  0
 57 62  1  0
 58 66  1  0
 58 68  1  0
 59 65  1  0
 59 61  1  0
 60 66  1  0
 61 62  2  0
 61 60  1  0
 63 57  2  0
 64 63  1  0
 64 59  2  0
 65 58  1  0
 66 56  1  0
 68 70  2  0
 69 68  1  0
 71 69  1  0
 72 81  2  0
 72 77  1  0
 73 69  1  0
 73 77  1  0
 74 73  1  0
 75 76  1  0
 75 74  1  0
 76 72  1  0
 77 78  2  0
 78 79  1  0
 80 79  2  0
 81 80  1  0
 82 56  1  0
 82 83  1  0
 82 92  1  0
 83 86  1  0
 84 88  1  0
 84 83  1  0
 85 84  2  0
 88 87  1  0
 90 88  1  0
 90 91  1  0
 90 89  1  0
 92 95  1  1
 92 93  1  0
 94 92  1  0
M  ISO  4  15 100  16 100  54 101  55 101
M  END
>  <TORSDO>  (51) 
F 23

>  <SCORE>  (51) 
-13.100

>  <name>  (51) 
51

>  <ligand_id>  (51) 
51

>  <original_smiles>  (51) 
[H]c1c([H])c([H])c2c(c1[H])C([H])([H])C([H])([H])C([H])([H])C2([H])N([H])C(=O)C1([H])N(C(=O)C([H])(N([H])C(=O)C([H])(N([H])C([H])([H])[H])C([H])([H])[H])C(C([H])([H])[H])(C([H])([H])[H])C([H])([H])[H])C([H])([H])c2c([H])c(OC([H])([H])C([H])([H])Oc3c([H])c([H])c(C(=O)C([H])(C([H])([H])C(=O)N4C([H])([H])C([H])([H])C([H])([H])C([H])(n5nc(-c6c([H])c([H])c(Oc7c([H])c([H])c(F)c([H])c7F)c([H])c6[H])c(C(=O)N([H])[H])c5N([H])[H])C4([H])[H])[N+]([H])([H])[H])c([H])c3F)c([H])c([H])c2C1([H])[H]

>  <smiles>  (51) 
[H]c1c([H])c([H])c2c(c1[H])C([H])([H])C([H])([H])C([H])([H])C2([H])N([H])C(=O)C1([H])N(C(=O)C([H])(N([H])C(=O)C([H])(N([H])C([H])([H])[H])C([H])([H])[H])C(C([H])([H])[H])(C([H])([H])[H])C([H])([H])[H])C([H])([H])c2c([H])c(OC([H])([H])C([H])([H])Oc3c([H])c([H])c(C(=O)C([H])(C([H])([H])C(=O)N4C([H])([H])C([H])([H])C([H])([H])C([H])(n5nc(-c6c([H])c([H])c(Oc7c([H])c([H])c(F)c([H])c7F)c([H])c6[H])c(C(=O)N([H])[H])c5N([H])[H])C4([H])[H])[N+]([H])([H])[H])c([H])c3F)c([H])c([H])c2C1([H])[H]

$$$$
52:0:0
     RDKit          3D

 93101  0  0  1  0  0  0  0  0999 V2000
  -28.2370  -21.4490   19.3290 C   0  0  0  0  0  3  0  0  0  0  0  0
  -27.8660  -22.9370   19.2610 C   0  0  0  0  0  3  0  0  0  0  0  0
  -29.6760  -21.8720   20.9740 C   0  0  0  0  0  0  0  0  0  0  0  0
  -29.2010  -20.6900   20.1840 C   0  0  0  0  0  0  0  0  0  0  0  0
  -28.3430  -24.1210   20.0340 C   0  0  0  0  0  0  0  0  0  0  0  0
  -29.3110  -23.3720   20.9020 C   0  0  0  0  0  0  0  0  0  0  0  0
  -30.7730  -21.5290   21.9160 C   0  0  0  0  0  0  0  0  0  0  0  0
  -31.8910  -21.1550   21.5480 O   0  0  0  0  0  0  0  0  0  0  0  0
  -31.2960  -20.7230   24.2970 C   0  0  0  0  0  1  0  0  0  0  0  0
  -30.4450  -21.6470   23.4080 C   0  0  0  0  0  2  0  0  0  0  0  0
  -30.5250  -19.0240   18.5960 C   0  0  0  0  0  1  0  0  0  0  0  0
  -29.9410  -18.9680   20.0150 C   0  0  0  0  0  0  0  0  0  0  0  0
  -30.4240  -15.8540   20.2130 C   0  0  0  0  0  0  0  0  0  0  0  0
  -30.5350  -13.2990   19.4420 C   0  0  0  0  0  2  0  0  0  0  0  0
  -29.6620  -12.8770   18.2260 C   0  0  0  0  0  2  0  0  0  0  0  0
  -28.2340  -12.5280   18.6690 C   0  0  0  0  0  2  0  0  0  0  0  0
  -27.7090  -13.5350   19.7170 C   0  0  0  0  0  3  0  0  0  0  0  0
  -28.7250  -13.8710   20.8340 C   0  0  0  0  0  2  0  0  0  0  0  0
  -29.9010  -14.4870   20.1770 N   0  0  0  0  0  0  0  0  0  0  0  0
  -31.6540  -15.7870   20.0260 O   0  0  0  0  0  0  0  0  0  0  0  0
  -29.6790  -17.2280   20.2630 N   0  0  0  0  0  4  0  0  0  0  0  0
  -28.7000  -17.0550   20.4370 H   0  0  0  0  0  0  0  0  0  0  0  0
  -25.3410  -14.0500   20.4730 C   0  0  0  0  0  0  0  0  0  0  0  0
  -24.2850  -13.2630   20.8330 C   0  0  0  0  0  0  0  0  0  0  0  0
  -24.7640  -11.9160   20.7970 C   0  0  0  0  0  0  0  0  0  0  0  0
  -26.3910  -13.1870   20.2280 N   0  0  0  0  0  0  0  0  0  0  0  0
  -26.0580  -11.8940   20.4910 N   0  0  0  0  0  0  0  0  0  0  0  0
  -24.0410  -10.6480   20.9770 C   0  0  0  0  0  0  0  0  0  0  0  0
  -24.4400   -9.7000   21.9440 C   0  0  0  0  0  3  0  0  0  0  0  0
  -23.7130   -8.5010   22.1140 C   0  0  0  0  0  3  0  0  0  0  0  0
  -22.5730   -8.2430   21.3160 C   0  0  0  0  0  0  0  0  0  0  0  0
  -22.1920   -9.1810   20.3400 C   0  0  0  0  0  3  0  0  0  0  0  0
  -22.9210  -10.3700   20.1680 C   0  0  0  0  0  3  0  0  0  0  0  0
  -21.8220   -7.0940   21.3920 O   0  0  0  0  0  0  0  0  0  0  0  0
  -21.6810   -6.4030   22.5690 C   0  0  0  0  0  0  0  0  0  0  0  0
  -21.1320   -7.0020   23.7240 C   0  0  0  0  0  3  0  0  0  0  0  0
  -20.9410   -6.2360   24.8910 C   0  0  0  0  0  3  0  0  0  0  0  0
  -21.2890   -4.8720   24.9040 C   0  0  0  0  0  0  0  0  0  0  0  0
  -21.8300   -4.2720   23.7530 C   0  0  0  0  0  3  0  0  0  0  0  0
  -22.0230   -5.0360   22.5880 C   0  0  0  0  0  0  0  0  0  0  0  0
  -22.5260   -4.4480   21.4760 F   0  0  0  0  0  0  0  0  0  0  0  0
  -21.0980   -4.1340   26.0230 F   0  0  0  0  0  0  0  0  0  0  0  0
  -22.8830  -13.7300   21.0910 C   0  0  0  0  0  0  0  0  0  0  0  0
  -22.1560  -13.0380   21.9580 N   0  0  0  0  0  0  0  0  0  0  0  0
  -22.4410  -14.7480   20.5570 O   0  0  0  0  0  0  0  0  0  0  0  0
  -22.5270  -12.2150   22.4130 H   0  0  0  0  0  0  0  0  0  0  0  0
  -21.2140  -13.3340   22.1750 H   0  0  0  0  0  0  0  0  0  0  0  0
  -25.4900  -15.4240   20.3010 N   0  0  0  0  0  0  0  0  0  0  0  0
  -24.7090  -16.0630   20.4030 H   0  0  0  0  0  0  0  0  0  0  0  0
  -26.3200  -15.8700   19.9360 H   0  0  0  0  0  0  0  0  0  0  0  0
  -30.8010  -25.2010   21.2000 C   0  0  0  0  0  1  0  0  0  0  0  0
  -30.0150  -24.1660   21.7810 O   0  0  0  0  0  0  0  0  0  0  0  0
  -28.1910  -25.7290   19.8580 O   0  0  0  0  0  0  0  0  0  0  0  0
  -24.6560  -31.8770   23.0300 C   0  0  0  0  0  0  0  0  0  0  0  0
  -27.1440  -26.8730   19.9010 C   0  0  0  0  0  0  0  0  0  0  0  0
  -23.4250  -30.4750   21.4280 C   0  0  0  0  0  3  0  0  0  0  0  0
  -24.8370  -28.8600   19.9460 C   0  0  0  0  0  0  0  0  0  0  0  0
  -25.9910  -30.6620   21.2040 C   0  0  0  0  0  2  0  0  0  0  0  0
  -26.0490  -29.2350   20.5390 C   0  0  0  0  0  0  0  0  0  0  0  0
  -27.1810  -28.2680   20.4860 C   0  0  0  0  0  3  0  0  0  0  0  0
  -25.8950  -26.7050   19.2520 C   0  0  0  0  0  3  0  0  0  0  0  0
  -24.7960  -27.6210   19.2810 C   0  0  0  0  0  3  0  0  0  0  0  0
  -23.6180  -29.7910   20.0440 C   0  0  0  0  0  2  0  0  0  0  0  0
  -24.7150  -31.0390   21.9380 N   0  0  0  0  0  0  0  0  0  0  0  0
  -23.5800  -32.1540   23.5880 O   0  0  0  0  0  0  0  0  0  0  0  0
  -22.7650  -29.4770   22.4190 C   0  0  0  0  0  0  0  0  0  0  0  0
  -21.4350  -29.2900   22.3370 N   0  0  0  0  0  0  0  0  0  0  0  0
  -23.4640  -28.8700   23.2340 O   0  0  0  0  0  0  0  0  0  0  0  0
  -20.9190  -29.8310   21.6560 H   0  0  0  0  0  0  0  0  0  0  0  0
  -18.0990  -27.9770   22.9400 C   0  0  0  0  0  0  0  0  0  0  0  0
  -20.6570  -28.3310   23.1320 C   0  0  0  0  0  3  0  0  0  0  0  0
  -20.7880  -26.9010   22.5600 C   0  0  0  0  0  2  0  0  0  0  0  0
  -19.6720  -26.5380   21.5760 C   0  0  0  0  0  2  0  0  0  0  0  0
  -18.3040  -26.6360   22.2570 C   0  0  0  0  0  2  0  0  0  0  0  0
  -19.2030  -28.7810   23.3370 C   0  0  0  0  0  0  0  0  0  0  0  0
  -18.9550  -30.0310   23.9440 C   0  0  0  0  0  3  0  0  0  0  0  0
  -17.6370  -30.4800   24.1530 C   0  0  0  0  0  3  0  0  0  0  0  0
  -16.5500  -29.6780   23.7680 C   0  0  0  0  0  3  0  0  0  0  0  0
  -16.7830  -28.4270   23.1680 C   0  0  0  0  0  3  0  0  0  0  0  0
  -25.9340  -32.5420   23.6240 C   0  0  0  0  0  3  0  0  0  0  0  0
  -26.5220  -31.7530   24.8610 C   0  0  1  0  0  0  0  0  0  0  0  0
  -25.4830  -31.4650   25.9700 C   0  0  0  0  0  1  0  0  0  0  0  0
  -27.1180  -30.3980   24.4220 C   0  0  0  0  0  1  0  0  0  0  0  0
  -27.6840  -32.5580   25.4900 C   0  0  0  0  0  1  0  0  0  0  0  0
  -25.5900  -33.9190   24.0290 N   0  0  0  0  0  0  0  0  0  0  0  0
  -25.8800  -35.0260   23.3300 C   0  0  0  0  0  0  0  0  0  0  0  0
  -26.5210  -34.9950   22.2770 O   0  0  0  0  0  0  0  0  0  0  0  0
  -25.0090  -34.0140   24.8500 H   0  0  0  0  0  0  0  0  0  0  0  0
  -24.1170  -36.8170   23.1290 C   0  0  0  0  0  1  0  0  0  0  0  0
  -25.3840  -36.3790   23.8820 C   0  0  0  0  0  3  0  0  0  0  0  0
  -27.5210  -37.2590   24.7170 C   0  0  0  0  0  1  0  0  0  0  0  0
  -26.3970  -37.4560   23.8060 N   0  0  0  0  0  0  0  0  0  0  0  0
  -25.9790  -38.3600   24.0090 H   0  0  0  0  0  0  0  0  0  0  0  0
  1  4  1  0
  2  1  2  0
  2  5  1  0
  3  7  1  0
  4  3  2  0
  5  6  2  0
  6  3  1  0
  6 52  1  0
  7 10  1  0
  8  7  2  0
 10  9  1  0
 11 12  1  0
 12  4  1  0
 12 21  2  0
 13 21  1  0
 14 19  1  0
 15 16  1  0
 15 14  1  0
 17 16  1  0
 17 26  1  0
 17 18  1  0
 19 13  1  0
 19 18  1  0
 20 13  2  0
 21 22  1  0
 23 24  2  0
 24 43  1  0
 25 24  1  0
 25 28  1  0
 26 23  1  0
 26 27  1  0
 27 25  2  0
 28 29  1  0
 29 30  2  0
 31 34  1  0
 31 30  1  0
 32 31  2  0
 33 32  1  0
 33 28  2  0
 34 35  1  0
 35 40  2  0
 35 36  1  0
 36 37  2  0
 37 38  1  0
 38 42  1  0
 39 38  2  0
 40 39  1  0
 41 40  1  0
 43 44  1  0
 44 47  1  0
 44 46  1  0
 45 43  2  0
 48 49  1  0
 48 23  1  0
 50 48  1  0
 51 52  1  0
 53 55  1  0
 53  5  1  0
 54 65  2  0
 55 60  1  0
 56 64  1  0
 56 66  1  0
 57 63  1  0
 57 59  1  0
 58 64  1  0
 59 58  1  0
 60 59  2  0
 61 62  1  0
 61 55  2  0
 62 57  2  0
 63 56  1  0
 64 54  1  0
 66 68  2  0
 67 66  1  0
 69 67  1  0
 70 79  2  0
 70 75  1  0
 71 67  1  0
 71 75  1  0
 72 71  1  0
 73 74  1  0
 73 72  1  0
 74 70  1  0
 75 76  2  0
 76 77  1  0
 78 77  2  0
 79 78  1  0
 80 54  1  0
 80 85  1  0
 80 81  1  0
 81 84  1  1
 81 82  1  0
 83 81  1  0
 85 88  1  0
 86 90  1  0
 86 85  1  0
 87 86  2  0
 90 89  1  0
 92 90  1  0
 92 93  1  0
 92 91  1  0
M  ISO  4   5 101  13 100  21 100  53 101
M  END
>  <TORSDO>  (52) 
F 20

>  <SCORE>  (52) 
-15.111

>  <name>  (52) 
52

>  <ligand_id>  (52) 
52

>  <original_smiles>  (52) 
[H]c1c([H])c([H])c2c(c1[H])C([H])([H])C([H])([H])C([H])([H])C2([H])N([H])C(=O)C1([H])N(C(=O)C([H])(N([H])C(=O)C([H])(N([H])C([H])([H])[H])C([H])([H])[H])C(C([H])([H])[H])(C([H])([H])[H])C([H])([H])[H])C([H])([H])c2c([H])c(Oc3c([H])c([H])c(C([H])(N([H])C(=O)N4C([H])([H])C([H])([H])C([H])([H])C([H])(n5nc(-c6c([H])c([H])c(Oc7c([H])c([H])c(F)c([H])c7F)c([H])c6[H])c(C(=O)N([H])[H])c5N([H])[H])C4([H])[H])C([H])([H])[H])c(C(=O)C([H])([H])C([H])([H])[H])c3OC([H])([H])[H])c([H])c([H])c2C1([H])[H]

>  <smiles>  (52) 
[H]c1c([H])c([H])c2c(c1[H])C([H])([H])C([H])([H])C([H])([H])C2([H])N([H])C(=O)C1([H])N(C(=O)C([H])(N([H])C(=O)C([H])(N([H])C([H])([H])[H])C([H])([H])[H])C(C([H])([H])[H])(C([H])([H])[H])C([H])([H])[H])C([H])([H])c2c([H])c(Oc3c([H])c([H])c(C([H])(N([H])C(=O)N4C([H])([H])C([H])([H])C([H])([H])C([H])(n5nc(-c6c([H])c([H])c(Oc7c([H])c([H])c(F)c([H])c7F)c([H])c6[H])c(C(=O)N([H])[H])c5N([H])[H])C4([H])[H])C([H])([H])[H])c(C(=O)C([H])([H])C([H])([H])[H])c3OC([H])([H])[H])c([H])c([H])c2C1([H])[H]

$$$$
53:0:0
     RDKit          3D

 90 98  0  0  1  0  0  0  0  0999 V2000
  -27.9360  -21.3170   19.7110 C   0  0  0  0  0  3  0  0  0  0  0  0
  -27.5940  -22.8200   19.7180 C   0  0  0  0  0  3  0  0  0  0  0  0
  -29.0970  -20.5560   20.2760 C   0  0  0  0  0  0  0  0  0  0  0  0
  -28.3110  -24.0000   20.2990 C   0  0  0  0  0  0  0  0  0  0  0  0
  -29.8100  -21.7380   20.8390 C   0  0  0  0  0  0  0  0  0  0  0  0
  -29.4570  -23.2350   20.8630 C   0  0  0  0  0  0  0  0  0  0  0  0
  -30.3530  -24.0280   21.4990 F   0  0  0  0  0  0  0  0  0  0  0  0
  -30.5700  -18.9430   18.7560 C   0  0  0  0  0  1  0  0  0  0  0  0
  -29.8150  -18.8280   20.0880 C   0  0  0  0  0  0  0  0  0  0  0  0
  -30.2610  -15.7020   20.0880 C   0  0  0  0  0  0  0  0  0  0  0  0
  -30.3100  -13.1830   19.2000 C   0  0  0  0  0  2  0  0  0  0  0  0
  -29.3690  -12.8190   18.0160 C   0  0  0  0  0  2  0  0  0  0  0  0
  -27.9650  -12.4580   18.5210 C   0  0  0  0  0  2  0  0  0  0  0  0
  -27.5040  -13.4280   19.6320 C   0  0  0  0  0  3  0  0  0  0  0  0
  -28.5790  -13.7080   20.7090 C   0  0  0  0  0  2  0  0  0  0  0  0
  -29.7250  -14.3430   20.0170 N   0  0  0  0  0  0  0  0  0  0  0  0
  -31.4810  -15.6330   19.8440 O   0  0  0  0  0  0  0  0  0  0  0  0
  -29.5310  -17.0770   20.2300 N   0  0  0  0  0  4  0  0  0  0  0  0
  -28.5560  -16.9070   20.4330 H   0  0  0  0  0  0  0  0  0  0  0  0
  -25.1770  -13.9300   20.5150 C   0  0  0  0  0  0  0  0  0  0  0  0
  -24.1360  -13.1360   20.9030 C   0  0  0  0  0  0  0  0  0  0  0  0
  -24.6070  -11.7900   20.8090 C   0  0  0  0  0  0  0  0  0  0  0  0
  -26.2110  -13.0700   20.1980 N   0  0  0  0  0  0  0  0  0  0  0  0
  -25.8860  -11.7730   20.4420 N   0  0  0  0  0  0  0  0  0  0  0  0
  -23.8910  -10.5190   20.9890 C   0  0  0  0  0  0  0  0  0  0  0  0
  -24.3380   -9.5380   21.9020 C   0  0  0  0  0  3  0  0  0  0  0  0
  -23.6150   -8.3380   22.0730 C   0  0  0  0  0  3  0  0  0  0  0  0
  -22.4320   -8.1090   21.3320 C   0  0  0  0  0  0  0  0  0  0  0  0
  -22.0040   -9.0770   20.4070 C   0  0  0  0  0  3  0  0  0  0  0  0
  -22.7270  -10.2700   20.2340 C   0  0  0  0  0  3  0  0  0  0  0  0
  -21.6800   -6.9610   21.4140 O   0  0  0  0  0  0  0  0  0  0  0  0
  -21.6150   -6.2230   22.5690 C   0  0  0  0  0  0  0  0  0  0  0  0
  -21.1190   -6.7680   23.7740 C   0  0  0  0  0  3  0  0  0  0  0  0
  -21.0050   -5.9550   24.9200 C   0  0  0  0  0  3  0  0  0  0  0  0
  -21.3770   -4.5990   24.8620 C   0  0  0  0  0  0  0  0  0  0  0  0
  -21.8660   -4.0530   23.6620 C   0  0  0  0  0  3  0  0  0  0  0  0
  -21.9810   -4.8640   22.5190 C   0  0  0  0  0  0  0  0  0  0  0  0
  -22.4330   -4.3270   21.3590 F   0  0  0  0  0  0  0  0  0  0  0  0
  -21.2610   -3.8150   25.9590 F   0  0  0  0  0  0  0  0  0  0  0  0
  -22.7510  -13.6000   21.2390 C   0  0  0  0  0  0  0  0  0  0  0  0
  -22.0610  -12.8810   22.1160 N   0  0  0  0  0  0  0  0  0  0  0  0
  -22.2920  -14.6380   20.7630 O   0  0  0  0  0  0  0  0  0  0  0  0
  -22.4470  -12.0420   22.5240 H   0  0  0  0  0  0  0  0  0  0  0  0
  -21.1310  -13.1720   22.3840 H   0  0  0  0  0  0  0  0  0  0  0  0
  -25.3250  -15.3060   20.3740 N   0  0  0  0  0  0  0  0  0  0  0  0
  -24.5560  -15.9480   20.5370 H   0  0  0  0  0  0  0  0  0  0  0  0
  -26.1450  -15.7590   19.9930 H   0  0  0  0  0  0  0  0  0  0  0  0
  -32.1710  -21.8990   20.7640 C   0  0  0  0  0  1  0  0  0  0  0  0
  -31.0120  -21.3770   21.4020 O   0  0  0  0  0  0  0  0  0  0  0  0
  -28.1850  -25.6200   20.2620 O   0  0  0  0  0  0  0  0  0  0  0  0
  -24.6450  -31.8750   23.2050 C   0  0  0  0  0  0  0  0  0  0  0  0
  -27.1560  -26.7790   20.2490 C   0  0  0  0  0  0  0  0  0  0  0  0
  -23.4470  -30.4650   21.5870 C   0  0  0  0  0  3  0  0  0  0  0  0
  -24.8840  -28.8030   20.1820 C   0  0  0  0  0  0  0  0  0  0  0  0
  -26.0220  -30.6080   21.4480 C   0  0  0  0  0  2  0  0  0  0  0  0
  -26.0790  -29.1680   20.8100 C   0  0  0  0  0  0  0  0  0  0  0  0
  -27.1970  -28.1830   20.8100 C   0  0  0  0  0  3  0  0  0  0  0  0
  -25.9280  -26.6210   19.5590 C   0  0  0  0  0  3  0  0  0  0  0  0
  -24.8450  -27.5540   19.5330 C   0  0  0  0  0  3  0  0  0  0  0  0
  -23.6770  -29.7540   20.2210 C   0  0  0  0  0  2  0  0  0  0  0  0
  -24.7300  -31.0170   22.1310 N   0  0  0  0  0  0  0  0  0  0  0  0
  -23.5550  -32.1790   23.7200 O   0  0  0  0  0  0  0  0  0  0  0  0
  -22.7380  -29.4940   22.5680 C   0  0  0  0  0  0  0  0  0  0  0  0
  -21.4060  -29.3320   22.4460 N   0  0  0  0  0  0  0  0  0  0  0  0
  -23.3980  -28.8840   23.4150 O   0  0  0  0  0  0  0  0  0  0  0  0
  -20.9230  -29.8750   21.7440 H   0  0  0  0  0  0  0  0  0  0  0  0
  -18.0260  -28.1080   22.9720 C   0  0  0  0  0  0  0  0  0  0  0  0
  -20.5840  -28.4000   23.2290 C   0  0  0  0  0  3  0  0  0  0  0  0
  -20.6950  -26.9600   22.6760 C   0  0  0  0  0  2  0  0  0  0  0  0
  -19.5980  -26.6160   21.6650 C   0  0  0  0  0  2  0  0  0  0  0  0
  -18.2150  -26.7540   22.3080 C   0  0  0  0  0  2  0  0  0  0  0  0
  -19.1380  -28.8880   23.3910 C   0  0  0  0  0  0  0  0  0  0  0  0
  -18.9040  -30.1490   23.9770 C   0  0  0  0  0  3  0  0  0  0  0  0
  -17.5930  -30.6350   24.1470 C   0  0  0  0  0  3  0  0  0  0  0  0
  -16.4970  -29.8550   23.7400 C   0  0  0  0  0  3  0  0  0  0  0  0
  -16.7140  -28.5920   23.1600 C   0  0  0  0  0  3  0  0  0  0  0  0
  -25.9130  -32.5290   23.8340 C   0  0  0  0  0  3  0  0  0  0  0  0
  -25.5920  -33.9330   24.1620 N   0  0  0  0  0  0  0  0  0  0  0  0
  -25.9040  -34.9930   23.4040 C   0  0  0  0  0  0  0  0  0  0  0  0
  -26.5510  -34.8930   22.3580 O   0  0  0  0  0  0  0  0  0  0  0  0
  -25.0110  -34.0820   24.9730 H   0  0  0  0  0  0  0  0  0  0  0  0
  -24.1620  -36.7920   23.1110 C   0  0  0  0  0  1  0  0  0  0  0  0
  -25.4320  -36.3850   23.8770 C   0  0  0  0  0  3  0  0  0  0  0  0
  -27.5810  -37.2960   24.6490 C   0  0  0  0  0  1  0  0  0  0  0  0
  -26.4590  -37.4390   23.7240 N   0  0  0  0  0  0  0  0  0  0  0  0
  -26.0530  -38.3620   23.8540 H   0  0  0  0  0  0  0  0  0  0  0  0
  -26.4160  -31.7800   25.1310 C   0  0  1  0  0  0  0  0  0  0  0  0
  -25.3140  -31.5650   26.1960 C   0  0  0  0  0  1  0  0  0  0  0  0
  -27.0010  -30.3930   24.7810 C   0  0  0  0  0  1  0  0  0  0  0  0
  -27.5630  -32.5850   25.7900 C   0  0  0  0  0  1  0  0  0  0  0  0
  1  2  2  0
  1  3  1  0
  2  4  1  0
  3  5  2  0
  4  6  2  0
  5  6  1  0
  5 49  1  0
  6  7  1  0
  8  9  1  0
  9 18  2  0
  9  3  1  0
 10 18  1  0
 11 16  1  0
 12 13  1  0
 12 11  1  0
 14 13  1  0
 14 23  1  0
 14 15  1  0
 16 10  1  0
 16 15  1  0
 17 10  2  0
 18 19  1  0
 20 21  2  0
 21 40  1  0
 22 21  1  0
 22 25  1  0
 23 24  1  0
 23 20  1  0
 24 22  2  0
 25 26  1  0
 26 27  2  0
 28 31  1  0
 28 27  1  0
 29 28  2  0
 30 29  1  0
 30 25  2  0
 31 32  1  0
 32 33  1  0
 33 34  2  0
 35 34  1  0
 35 39  1  0
 36 35  2  0
 37 32  2  0
 37 36  1  0
 38 37  1  0
 40 41  1  0
 41 44  1  0
 41 43  1  0
 42 40  2  0
 45 20  1  0
 45 46  1  0
 47 45  1  0
 48 49  1  0
 50  4  1  0
 51 62  2  0
 52 50  1  0
 52 57  1  0
 53 61  1  0
 53 63  1  0
 54 60  1  0
 54 56  1  0
 55 61  1  0
 56 55  1  0
 57 56  2  0
 58 52  2  0
 59 58  1  0
 59 54  2  0
 60 53  1  0
 61 51  1  0
 63 65  2  0
 64 63  1  0
 66 64  1  0
 67 76  2  0
 67 72  1  0
 68 64  1  0
 68 72  1  0
 69 68  1  0
 70 71  1  0
 70 69  1  0
 71 67  1  0
 72 73  2  0
 73 74  1  0
 75 74  2  0
 76 75  1  0
 77 51  1  0
 77 78  1  0
 77 87  1  0
 78 81  1  0
 79 83  1  0
 79 78  1  0
 80 79  2  0
 83 82  1  0
 85 86  1  0
 85 83  1  0
 85 84  1  0
 87 90  1  1
 87 88  1  0
 89 87  1  0
M  ISO  4   4 101  10 100  18 100  50 101
M  END
>  <TORSDO>  (53) 
F 18

>  <SCORE>  (53) 
-15.567

>  <name>  (53) 
53

>  <ligand_id>  (53) 
53

>  <original_smiles>  (53) 
[H]c1c([H])c([H])c2c(c1[H])C([H])([H])C([H])([H])C([H])([H])C2([H])N([H])C(=O)C1([H])N(C(=O)C([H])(N([H])C(=O)C([H])(N([H])C([H])([H])[H])C([H])([H])[H])C(C([H])([H])[H])(C([H])([H])[H])C([H])([H])[H])C([H])([H])c2c([H])c(Oc3c([H])c([H])c(C([H])(N([H])C(=O)N4C([H])([H])C([H])([H])C([H])([H])C([H])(n5nc(-c6c([H])c([H])c(Oc7c([H])c([H])c(F)c([H])c7F)c([H])c6[H])c(C(=O)N([H])[H])c5N([H])[H])C4([H])[H])C([H])([H])[H])c(OC([H])([H])[H])c3F)c([H])c([H])c2C1([H])[H]

>  <smiles>  (53) 
[H]c1c([H])c([H])c2c(c1[H])C([H])([H])C([H])([H])C([H])([H])C2([H])N([H])C(=O)C1([H])N(C(=O)C([H])(N([H])C(=O)C([H])(N([H])C([H])([H])[H])C([H])([H])[H])C(C([H])([H])[H])(C([H])([H])[H])C([H])([H])[H])C([H])([H])c2c([H])c(Oc3c([H])c([H])c(C([H])(N([H])C(=O)N4C([H])([H])C([H])([H])C([H])([H])C([H])(n5nc(-c6c([H])c([H])c(Oc7c([H])c([H])c(F)c([H])c7F)c([H])c6[H])c(C(=O)N([H])[H])c5N([H])[H])C4([H])[H])C([H])([H])[H])c(OC([H])([H])[H])c3F)c([H])c([H])c2C1([H])[H]

$$$$
54:0:0
     RDKit          3D

 94102  0  0  1  0  0  0  0  0999 V2000
  -28.8700  -23.4460   21.5980 C   0  0  0  0  0  3  0  0  0  0  0  0
  -28.4510  -24.6300   19.0880 C   0  0  0  0  0  3  0  0  0  0  0  0
  -28.6600  -22.6190   20.4740 C   0  0  0  0  0  0  0  0  0  0  0  0
  -28.8730  -24.8530   21.4770 C   0  0  0  0  0  0  0  0  0  0  0  0
  -28.4620  -23.2180   19.2000 C   0  0  0  0  0  0  0  0  0  0  0  0
  -28.6050  -25.4580   20.2270 C   0  0  0  0  0  0  0  0  0  0  0  0
  -29.2130  -25.6990   22.6910 C   0  0  0  0  0  1  0  0  0  0  0  0
  -28.6420  -21.1430   20.6940 C   0  0  0  0  0  0  0  0  0  0  0  0
  -27.6550  -20.5340   21.1160 O   0  0  0  0  0  0  0  0  0  0  0  0
  -29.9630  -20.3960   20.4460 C   0  0  0  0  0  2  0  0  0  0  0  0
  -29.8320  -19.1670   19.5150 C   0  0  0  0  0  2  0  0  0  0  0  0
  -29.4400  -17.8220   20.1790 C   0  0  0  0  0  2  0  0  0  0  0  0
  -30.6250  -17.0310   20.7830 C   0  0  0  0  0  2  0  0  0  0  0  0
  -30.9830  -14.5740   20.4840 C   0  0  0  0  0  0  0  0  0  0  0  0
  -30.6900  -12.4080   19.3610 C   0  0  0  0  0  2  0  0  0  0  0  0
  -29.7810  -12.6100   18.1320 C   0  0  0  0  0  2  0  0  0  0  0  0
  -28.2930  -12.5060   18.5220 C   0  0  0  0  0  2  0  0  0  0  0  0
  -27.9350  -13.3550   19.7690 C   0  0  0  0  0  3  0  0  0  0  0  0
  -28.9590  -13.1330   20.9080 C   0  0  0  0  0  2  0  0  0  0  0  0
  -30.3030  -13.4040   20.3700 N   0  0  0  0  0  0  0  0  0  0  0  0
  -32.1160  -14.7400   20.0270 O   0  0  0  0  0  0  0  0  0  0  0  0
  -30.2760  -15.6130   20.9690 N   0  0  0  0  0  0  0  0  0  0  0  0
  -29.3700  -15.4000   21.3590 H   0  0  0  0  0  0  0  0  0  0  0  0
  -25.5200  -13.9880   20.3860 C   0  0  0  0  0  0  0  0  0  0  0  0
  -24.4380  -13.2270   20.7400 C   0  0  0  0  0  0  0  0  0  0  0  0
  -24.8910  -11.8710   20.7490 C   0  0  0  0  0  0  0  0  0  0  0  0
  -26.5660  -13.0960   20.2060 N   0  0  0  0  0  0  0  0  0  0  0  0
  -26.1890  -11.8200   20.4820 N   0  0  0  0  0  0  0  0  0  0  0  0
  -24.1530  -10.6180   20.9440 C   0  0  0  0  0  0  0  0  0  0  0  0
  -24.5560   -9.6630   21.9030 C   0  0  0  0  0  3  0  0  0  0  0  0
  -23.8180   -8.4730   22.0810 C   0  0  0  0  0  3  0  0  0  0  0  0
  -22.6630   -8.2290   21.3000 C   0  0  0  0  0  0  0  0  0  0  0  0
  -22.2780   -9.1740   20.3310 C   0  0  0  0  0  3  0  0  0  0  0  0
  -23.0170  -10.3550   20.1520 C   0  0  0  0  0  3  0  0  0  0  0  0
  -21.9000   -7.0880   21.3880 O   0  0  0  0  0  0  0  0  0  0  0  0
  -21.8200   -6.3650   22.5520 C   0  0  0  0  0  0  0  0  0  0  0  0
  -21.3630   -6.9420   23.7570 C   0  0  0  0  0  3  0  0  0  0  0  0
  -21.2270   -6.1450   24.9120 C   0  0  0  0  0  3  0  0  0  0  0  0
  -21.5370   -4.7740   24.8620 C   0  0  0  0  0  0  0  0  0  0  0  0
  -21.9880   -4.1960   23.6610 C   0  0  0  0  0  3  0  0  0  0  0  0
  -22.1240   -4.9900   22.5090 C   0  0  0  0  0  0  0  0  0  0  0  0
  -22.5380   -4.4240   21.3500 F   0  0  0  0  0  0  0  0  0  0  0  0
  -21.4010   -4.0070   25.9690 F   0  0  0  0  0  0  0  0  0  0  0  0
  -23.0380  -13.7160   20.9670 C   0  0  0  0  0  0  0  0  0  0  0  0
  -22.2830  -13.0450   21.8310 N   0  0  0  0  0  0  0  0  0  0  0  0
  -22.6160  -14.7310   20.4150 O   0  0  0  0  0  0  0  0  0  0  0  0
  -22.6300  -12.2220   22.3020 H   0  0  0  0  0  0  0  0  0  0  0  0
  -21.3420  -13.3600   22.0280 H   0  0  0  0  0  0  0  0  0  0  0  0
  -25.6990  -15.3530   20.1860 N   0  0  0  0  0  0  0  0  0  0  0  0
  -24.9400  -16.0190   20.2760 H   0  0  0  0  0  0  0  0  0  0  0  0
  -26.5630  -15.7710   19.8660 H   0  0  0  0  0  0  0  0  0  0  0  0
  -28.2800  -22.4560   18.0750 O   0  0  0  0  0  0  0  0  0  0  0  0
  -28.2160  -22.9540   17.2650 H   0  0  0  0  0  0  0  0  0  0  0  0
  -28.5720  -26.8400   20.1110 O   0  0  0  0  0  0  0  0  0  0  0  0
  -24.6290  -31.9240   23.2600 C   0  0  0  0  0  0  0  0  0  0  0  0
  -27.3710  -27.5230   20.1760 C   0  0  0  0  0  0  0  0  0  0  0  0
  -23.4560  -30.5110   21.6010 C   0  0  0  0  0  3  0  0  0  0  0  0
  -24.9460  -28.9880   20.1950 C   0  0  0  0  0  0  0  0  0  0  0  0
  -25.9770  -30.9040   21.4220 C   0  0  0  0  0  2  0  0  0  0  0  0
  -26.0900  -29.5270   20.7970 C   0  0  0  0  0  0  0  0  0  0  0  0
  -27.3010  -28.7930   20.7990 C   0  0  0  0  0  3  0  0  0  0  0  0
  -26.2050  -27.0080   19.5640 C   0  0  0  0  0  3  0  0  0  0  0  0
  -24.9940  -27.7240   19.5860 C   0  0  0  0  0  3  0  0  0  0  0  0
  -23.6890  -29.8310   20.2250 C   0  0  0  0  0  2  0  0  0  0  0  0
  -24.7050  -31.1290   22.1550 N   0  0  0  0  0  0  0  0  0  0  0  0
  -23.5390  -32.1770   23.7950 O   0  0  0  0  0  0  0  0  0  0  0  0
  -22.8080  -29.4790   22.5540 C   0  0  0  0  0  0  0  0  0  0  0  0
  -21.4870  -29.2800   22.4150 N   0  0  0  0  0  0  0  0  0  0  0  0
  -23.4930  -28.8570   23.3680 O   0  0  0  0  0  0  0  0  0  0  0  0
  -20.9920  -29.8430   21.7360 H   0  0  0  0  0  0  0  0  0  0  0  0
  -18.1250  -28.0340   22.8700 C   0  0  0  0  0  0  0  0  0  0  0  0
  -20.6760  -28.3260   23.1720 C   0  0  0  0  0  3  0  0  0  0  0  0
  -20.8050  -26.8980   22.5900 C   0  0  0  0  0  2  0  0  0  0  0  0
  -19.7180  -26.5640   21.5640 C   0  0  0  0  0  2  0  0  0  0  0  0
  -18.3280  -26.6880   22.1940 C   0  0  0  0  0  2  0  0  0  0  0  0
  -19.2280  -28.8090   23.3170 C   0  0  0  0  0  0  0  0  0  0  0  0
  -18.9870  -30.0700   23.9060 C   0  0  0  0  0  3  0  0  0  0  0  0
  -17.6760  -30.5540   24.0580 C   0  0  0  0  0  3  0  0  0  0  0  0
  -16.5850  -29.7750   23.6320 C   0  0  0  0  0  3  0  0  0  0  0  0
  -16.8100  -28.5180   23.0440 C   0  0  0  0  0  3  0  0  0  0  0  0
  -25.8990  -32.5740   23.8940 C   0  0  0  0  0  3  0  0  0  0  0  0
  -25.5790  -33.9740   24.1990 N   0  0  0  0  0  0  0  0  0  0  0  0
  -25.9190  -35.0180   23.4330 C   0  0  0  0  0  0  0  0  0  0  0  0
  -26.6080  -34.9030   22.4140 O   0  0  0  0  0  0  0  0  0  0  0  0
  -24.9780  -34.1370   24.9940 H   0  0  0  0  0  0  0  0  0  0  0  0
  -24.1950  -36.8040   23.0160 C   0  0  0  0  0  1  0  0  0  0  0  0
  -25.4150  -36.4080   23.8630 C   0  0  0  0  0  3  0  0  0  0  0  0
  -27.5240  -37.3130   24.7360 C   0  0  0  0  0  1  0  0  0  0  0  0
  -26.4430  -37.4640   23.7670 N   0  0  0  0  0  0  0  0  0  0  0  0
  -26.0260  -38.3820   23.9010 H   0  0  0  0  0  0  0  0  0  0  0  0
  -26.4030  -31.8210   25.1860 C   0  0  1  0  0  0  0  0  0  0  0  0
  -25.3040  -31.5930   26.2490 C   0  0  0  0  0  1  0  0  0  0  0  0
  -27.0000  -30.4430   24.8140 C   0  0  0  0  0  1  0  0  0  0  0  0
  -27.5310  -32.6330   25.8650 C   0  0  0  0  0  1  0  0  0  0  0  0
  2  5  2  0
  2  6  1  0
  3  8  1  0
  3  1  2  0
  4  1  1  0
  4  7  1  0
  5  3  1  0
  6  4  2  0
  8  9  2  0
 10  8  1  0
 11 12  1  0
 11 10  1  0
 12 13  1  0
 13 22  1  0
 14 22  1  0
 15 20  1  0
 16 17  1  0
 16 15  1  0
 18 17  1  0
 18 27  1  0
 18 19  1  0
 20 14  1  0
 20 19  1  0
 21 14  2  0
 22 23  1  0
 24 25  2  0
 25 26  1  0
 25 44  1  0
 26 29  1  0
 27 24  1  0
 27 28  1  0
 28 26  2  0
 29 30  1  0
 30 31  2  0
 32 35  1  0
 32 31  1  0
 33 32  2  0
 34 33  1  0
 34 29  2  0
 35 36  1  0
 36 37  1  0
 37 38  2  0
 39 38  1  0
 39 43  1  0
 40 39  2  0
 41 36  2  0
 41 40  1  0
 42 41  1  0
 44 45  1  0
 45 48  1  0
 45 47  1  0
 46 44  2  0
 49 50  1  0
 49 24  1  0
 51 49  1  0
 52  5  1  0
 53 52  1  0
 54 56  1  0
 54  6  1  0
 55 66  2  0
 56 61  1  0
 57 65  1  0
 57 67  1  0
 58 64  1  0
 58 60  1  0
 59 65  1  0
 60 61  2  0
 60 59  1  0
 62 63  1  0
 62 56  2  0
 63 58  2  0
 64 57  1  0
 65 55  1  0
 67 69  2  0
 68 67  1  0
 70 68  1  0
 71 80  2  0
 71 76  1  0
 72 68  1  0
 72 76  1  0
 73 72  1  0
 74 75  1  0
 74 73  1  0
 75 71  1  0
 76 77  2  0
 77 78  1  0
 79 78  2  0
 80 79  1  0
 81 55  1  0
 81 82  1  0
 81 91  1  0
 82 85  1  0
 83 87  1  0
 83 82  1  0
 84 83  2  0
 87 86  1  0
 89 87  1  0
 89 90  1  0
 89 88  1  0
 91 94  1  1
 91 92  1  0
 93 91  1  0
M  ISO  4   6 101  14 100  22 100  54 101
M  END
>  <TORSDO>  (54) 
F 22

>  <SCORE>  (54) 
-13.078

>  <name>  (54) 
54

>  <ligand_id>  (54) 
54

>  <original_smiles>  (54) 
[H]Oc1c([H])c(Oc2c([H])c([H])c3c(c2[H])C([H])([H])N(C(=O)C([H])(N([H])C(=O)C([H])(N([H])C([H])([H])[H])C([H])([H])[H])C(C([H])([H])[H])(C([H])([H])[H])C([H])([H])[H])C([H])(C(=O)N([H])C2([H])c4c([H])c([H])c([H])c([H])c4C([H])([H])C([H])([H])C2([H])[H])C3([H])[H])c(C([H])([H])[H])c([H])c1C(=O)C([H])([H])C([H])([H])C([H])([H])C([H])([H])N([H])C(=O)N1C([H])([H])C([H])([H])C([H])([H])C([H])(n2nc(-c3c([H])c([H])c(Oc4c([H])c([H])c(F)c([H])c4F)c([H])c3[H])c(C(=O)N([H])[H])c2N([H])[H])C1([H])[H]

>  <smiles>  (54) 
[H]Oc1c([H])c(Oc2c([H])c([H])c3c(c2[H])C([H])([H])N(C(=O)C([H])(N([H])C(=O)C([H])(N([H])C([H])([H])[H])C([H])([H])[H])C(C([H])([H])[H])(C([H])([H])[H])C([H])([H])[H])C([H])(C(=O)N([H])C2([H])c4c([H])c([H])c([H])c([H])c4C([H])([H])C([H])([H])C2([H])[H])C3([H])[H])c(C([H])([H])[H])c([H])c1C(=O)C([H])([H])C([H])([H])C([H])([H])C([H])([H])N([H])C(=O)N1C([H])([H])C([H])([H])C([H])([H])C([H])(n2nc(-c3c([H])c([H])c(Oc4c([H])c([H])c(F)c([H])c4F)c([H])c3[H])c(C(=O)N([H])[H])c2N([H])[H])C1([H])[H]

$$$$
55:0:0
     RDKit          3D

 90 98  0  0  1  0  0  0  0  0999 V2000
  -29.3280  -22.2790   21.1430 C   0  0  0  0  0  3  0  0  0  0  0  0
  -29.1360  -23.7490   21.1590 C   0  0  0  0  0  3  0  0  0  0  0  0
  -27.7170  -23.6080   19.3530 C   0  0  0  0  0  3  0  0  0  0  0  0
  -28.7290  -21.3240   20.2270 C   0  0  0  0  0  0  0  0  0  0  0  0
  -27.8930  -22.1370   19.3330 C   0  0  0  0  0  0  0  0  0  0  0  0
  -28.2970  -24.5550   20.2820 C   0  0  0  0  0  0  0  0  0  0  0  0
  -27.1710  -21.4890   18.3260 N   0  0  0  0  0  0  0  0  0  0  0  0
  -26.4200  -21.9980   17.8710 H   0  0  0  0  0  0  0  0  0  0  0  0
  -26.9370  -20.5100   18.4700 H   0  0  0  0  0  0  0  0  0  0  0  0
  -28.7090  -19.6270   20.3170 C   0  0  0  0  0  0  0  0  0  0  0  0
  -27.5720  -19.1470   20.3570 O   0  0  0  0  0  0  0  0  0  0  0  0
  -29.8580  -18.3640   20.3220 C   0  0  0  0  0  3  0  0  0  0  0  0
  -29.5120  -16.6460   20.5120 C   0  0  0  0  0  3  0  0  0  0  0  0
  -30.4130  -15.2020   20.2600 C   0  0  0  0  0  0  0  0  0  0  0  0
  -30.3970  -12.7970   19.3330 C   0  0  0  0  0  2  0  0  0  0  0  0
  -29.4460  -12.6940   18.1150 C   0  0  0  0  0  2  0  0  0  0  0  0
  -27.9940  -12.4390   18.5650 C   0  0  0  0  0  2  0  0  0  0  0  0
  -27.5830  -13.3550   19.7450 C   0  0  0  0  0  3  0  0  0  0  0  0
  -28.6530  -13.4100   20.8520 C   0  0  0  0  0  2  0  0  0  0  0  0
  -29.8990  -13.8880   20.2340 N   0  0  0  0  0  0  0  0  0  0  0  0
  -31.6110  -15.2730   19.9510 O   0  0  0  0  0  0  0  0  0  0  0  0
  -25.2220  -13.9020   20.5520 C   0  0  0  0  0  0  0  0  0  0  0  0
  -24.1690  -13.1160   20.9290 C   0  0  0  0  0  0  0  0  0  0  0  0
  -24.6380  -11.7680   20.8670 C   0  0  0  0  0  0  0  0  0  0  0  0
  -26.2610  -13.0330   20.2700 N   0  0  0  0  0  0  0  0  0  0  0  0
  -25.9220  -11.7430   20.5260 N   0  0  0  0  0  0  0  0  0  0  0  0
  -23.9170  -10.5010   21.0500 C   0  0  0  0  0  0  0  0  0  0  0  0
  -24.3580   -9.5270   21.9730 C   0  0  0  0  0  3  0  0  0  0  0  0
  -23.6360   -8.3260   22.1470 C   0  0  0  0  0  3  0  0  0  0  0  0
  -22.4600   -8.0900   21.3950 C   0  0  0  0  0  0  0  0  0  0  0  0
  -22.0390   -9.0520   20.4610 C   0  0  0  0  0  3  0  0  0  0  0  0
  -22.7610  -10.2450   20.2870 C   0  0  0  0  0  3  0  0  0  0  0  0
  -21.7090   -6.9420   21.4780 O   0  0  0  0  0  0  0  0  0  0  0  0
  -21.6500   -6.2010   22.6320 C   0  0  0  0  0  0  0  0  0  0  0  0
  -21.1780   -6.7480   23.8450 C   0  0  0  0  0  3  0  0  0  0  0  0
  -21.0680   -5.9320   24.9880 C   0  0  0  0  0  3  0  0  0  0  0  0
  -21.4210   -4.5710   24.9200 C   0  0  0  0  0  0  0  0  0  0  0  0
  -21.8860   -4.0240   23.7110 C   0  0  0  0  0  3  0  0  0  0  0  0
  -21.9970   -4.8360   22.5700 C   0  0  0  0  0  0  0  0  0  0  0  0
  -22.4250   -4.2980   21.4020 F   0  0  0  0  0  0  0  0  0  0  0  0
  -21.3090   -3.7860   26.0170 F   0  0  0  0  0  0  0  0  0  0  0  0
  -22.7760  -13.5840   21.2340 C   0  0  0  0  0  0  0  0  0  0  0  0
  -22.0680  -12.8750   22.1060 N   0  0  0  0  0  0  0  0  0  0  0  0
  -22.3240  -14.6150   20.7340 O   0  0  0  0  0  0  0  0  0  0  0  0
  -22.4480  -12.0440   22.5330 H   0  0  0  0  0  0  0  0  0  0  0  0
  -21.1330  -13.1690   22.3510 H   0  0  0  0  0  0  0  0  0  0  0  0
  -25.3790  -15.2770   20.3990 N   0  0  0  0  0  0  0  0  0  0  0  0
  -24.6180  -15.9300   20.5490 H   0  0  0  0  0  0  0  0  0  0  0  0
  -26.2270  -15.7280   20.0810 H   0  0  0  0  0  0  0  0  0  0  0  0
  -28.2600  -26.0720   20.2640 O   0  0  0  0  0  0  0  0  0  0  0  0
  -24.6260  -31.8910   23.2500 C   0  0  0  0  0  0  0  0  0  0  0  0
  -27.1780  -27.0660   20.2430 C   0  0  0  0  0  0  0  0  0  0  0  0
  -23.4210  -30.4920   21.6200 C   0  0  0  0  0  3  0  0  0  0  0  0
  -24.8610  -28.8860   20.2010 C   0  0  0  0  0  0  0  0  0  0  0  0
  -25.9800  -30.7210   21.4560 C   0  0  0  0  0  2  0  0  0  0  0  0
  -26.0450  -29.3150   20.8110 C   0  0  0  0  0  0  0  0  0  0  0  0
  -27.1980  -28.4220   20.8100 C   0  0  0  0  0  3  0  0  0  0  0  0
  -25.9630  -26.7650   19.5890 C   0  0  0  0  0  3  0  0  0  0  0  0
  -24.8380  -27.6290   19.5720 C   0  0  0  0  0  3  0  0  0  0  0  0
  -23.6410  -29.8000   20.2460 C   0  0  0  0  0  2  0  0  0  0  0  0
  -24.6970  -31.0610   22.1630 N   0  0  0  0  0  0  0  0  0  0  0  0
  -23.5410  -32.1840   23.7780 O   0  0  0  0  0  0  0  0  0  0  0  0
  -22.7350  -29.4980   22.5920 C   0  0  0  0  0  0  0  0  0  0  0  0
  -21.4060  -29.3270   22.4650 N   0  0  0  0  0  0  0  0  0  0  0  0
  -23.4030  -28.8810   23.4250 O   0  0  0  0  0  0  0  0  0  0  0  0
  -20.9210  -29.8740   21.7680 H   0  0  0  0  0  0  0  0  0  0  0  0
  -18.0280  -28.1100   22.9720 C   0  0  0  0  0  0  0  0  0  0  0  0
  -20.5850  -28.3930   23.2420 C   0  0  0  0  0  3  0  0  0  0  0  0
  -20.6960  -26.9560   22.6820 C   0  0  0  0  0  2  0  0  0  0  0  0
  -19.5990  -26.6160   21.6670 C   0  0  0  0  0  2  0  0  0  0  0  0
  -18.2160  -26.7580   22.3050 C   0  0  0  0  0  2  0  0  0  0  0  0
  -19.1400  -28.8850   23.3970 C   0  0  0  0  0  0  0  0  0  0  0  0
  -18.9090  -30.1480   23.9830 C   0  0  0  0  0  3  0  0  0  0  0  0
  -17.6000  -30.6380   24.1450 C   0  0  0  0  0  3  0  0  0  0  0  0
  -16.5030  -29.8620   23.7330 C   0  0  0  0  0  3  0  0  0  0  0  0
  -16.7170  -28.6000   23.1540 C   0  0  0  0  0  3  0  0  0  0  0  0
  -25.9040  -32.5320   23.8740 C   0  0  0  0  0  3  0  0  0  0  0  0
  -26.4120  -31.7710   25.1610 C   0  0  1  0  0  0  0  0  0  0  0  0
  -25.3140  -31.5460   26.2280 C   0  0  0  0  0  1  0  0  0  0  0  0
  -26.9910  -30.3860   24.7900 C   0  0  0  0  0  1  0  0  0  0  0  0
  -27.5630  -32.5660   25.8210 C   0  0  0  0  0  1  0  0  0  0  0  0
  -25.5930  -33.9330   24.2030 N   0  0  0  0  0  0  0  0  0  0  0  0
  -25.9080  -34.9890   23.4400 C   0  0  0  0  0  0  0  0  0  0  0  0
  -26.5550  -34.8840   22.3950 O   0  0  0  0  0  0  0  0  0  0  0  0
  -25.0130  -34.0870   25.0160 H   0  0  0  0  0  0  0  0  0  0  0  0
  -24.1650  -36.7800   23.1360 C   0  0  0  0  0  1  0  0  0  0  0  0
  -25.4330  -36.3800   23.9080 C   0  0  0  0  0  3  0  0  0  0  0  0
  -27.5870  -37.2800   24.6690 C   0  0  0  0  0  1  0  0  0  0  0  0
  -26.4580  -37.4360   23.7550 N   0  0  0  0  0  0  0  0  0  0  0  0
  -26.0540  -38.3550   23.9050 H   0  0  0  0  0  0  0  0  0  0  0  0
  1  2  1  0
  3  6  1  0
  4 10  1  0
  4  1  2  0
  5  3  2  0
  5  4  1  0
  6  2  2  0
  7  9  1  0
  7  5  1  0
  8  7  1  0
 10 12  1  0
 10 11  2  0
 12 13  2  0
 14 13  1  0
 15 20  1  0
 16 17  1  0
 16 15  1  0
 18 17  1  0
 18 25  1  0
 18 19  1  0
 20 14  1  0
 20 19  1  0
 21 14  2  0
 22 23  2  0
 23 42  1  0
 24 23  1  0
 24 27  1  0
 25 26  1  0
 25 22  1  0
 26 24  2  0
 27 28  1  0
 28 29  2  0
 30 33  1  0
 30 29  1  0
 31 30  2  0
 32 31  1  0
 32 27  2  0
 33 34  1  0
 34 35  1  0
 35 36  2  0
 37 36  1  0
 37 41  1  0
 38 37  2  0
 39 34  2  0
 39 38  1  0
 40 39  1  0
 42 43  1  0
 43 46  1  0
 43 45  1  0
 44 42  2  0
 47 48  1  0
 47 22  1  0
 49 47  1  0
 50  6  1  0
 51 62  2  0
 52 50  1  0
 52 57  1  0
 53 61  1  0
 53 63  1  0
 54 60  1  0
 54 56  1  0
 55 61  1  0
 56 55  1  0
 57 56  2  0
 58 52  2  0
 59 58  1  0
 59 54  2  0
 60 53  1  0
 61 51  1  0
 63 65  2  0
 64 63  1  0
 66 64  1  0
 67 76  2  0
 67 72  1  0
 68 64  1  0
 68 72  1  0
 69 68  1  0
 70 71  1  0
 70 69  1  0
 71 67  1  0
 72 73  2  0
 73 74  1  0
 75 74  2  0
 76 75  1  0
 77 51  1  0
 77 82  1  0
 77 78  1  0
 78 81  1  1
 78 79  1  0
 80 78  1  0
 82 85  1  0
 83 87  1  0
 83 82  1  0
 84 83  2  0
 87 86  1  0
 89 90  1  0
 89 87  1  0
 89 88  1  0
M  ISO  4   6 101  13 100  14 100  50 101
M  END
>  <TORSDO>  (55) 
F 20

>  <SCORE>  (55) 
-15.792

>  <name>  (55) 
55

>  <ligand_id>  (55) 
55

>  <original_smiles>  (55) 
[H]c1c([H])c([H])c2c(c1[H])C([H])([H])C([H])([H])C([H])([H])C2([H])N([H])C(=O)C1([H])N(C(=O)C([H])(N([H])C(=O)C([H])(N([H])C([H])([H])[H])C([H])([H])[H])C(C([H])([H])[H])(C([H])([H])[H])C([H])([H])[H])C([H])([H])c2c([H])c(Oc3c([H])c([H])c(C(=O)C([H])([H])C([H])([H])C(=O)N4C([H])([H])C([H])([H])C([H])([H])C([H])(n5nc(-c6c([H])c([H])c(Oc7c([H])c([H])c(F)c([H])c7F)c([H])c6[H])c(C(=O)N([H])[H])c5N([H])[H])C4([H])[H])c(N([H])[H])c3[H])c([H])c([H])c2C1([H])[H]

>  <smiles>  (55) 
[H]c1c([H])c([H])c2c(c1[H])C([H])([H])C([H])([H])C([H])([H])C2([H])N([H])C(=O)C1([H])N(C(=O)C([H])(N([H])C(=O)C([H])(N([H])C([H])([H])[H])C([H])([H])[H])C(C([H])([H])[H])(C([H])([H])[H])C([H])([H])[H])C([H])([H])c2c([H])c(Oc3c([H])c([H])c(C(=O)C([H])([H])C([H])([H])C(=O)N4C([H])([H])C([H])([H])C([H])([H])C([H])(n5nc(-c6c([H])c([H])c(Oc7c([H])c([H])c(F)c([H])c7F)c([H])c6[H])c(C(=O)N([H])[H])c5N([H])[H])C4([H])[H])c(N([H])[H])c3[H])c([H])c([H])c2C1([H])[H]

$$$$
56:0:0
     RDKit          3D

 90 98  0  0  1  0  0  0  0  0999 V2000
  -29.2840  -19.9840   18.6110 C   0  0  0  0  0  3  0  0  0  0  0  0
  -28.9210  -21.2360   18.0340 C   0  0  0  0  0  3  0  0  0  0  0  0
  -29.3110  -21.1700   20.7000 C   0  0  0  0  0  3  0  0  0  0  0  0
  -29.5330  -19.8030   19.9850 C   0  0  0  0  0  0  0  0  0  0  0  0
  -28.9070  -22.5690   20.1420 C   0  0  0  0  0  0  0  0  0  0  0  0
  -28.7400  -22.4750   18.7380 C   0  0  0  0  0  0  0  0  0  0  0  0
  -30.2500  -18.2450   22.0070 C   0  0  0  0  0  1  0  0  0  0  0  0
  -30.1650  -18.2180   20.4750 C   0  0  0  0  0  0  0  0  0  0  0  0
  -30.6070  -15.2830   19.9550 C   0  0  0  0  0  0  0  0  0  0  0  0
  -30.4860  -12.8480   19.0070 C   0  0  0  0  0  2  0  0  0  0  0  0
  -29.4880  -12.6420   17.8380 C   0  0  0  0  0  2  0  0  0  0  0  0
  -28.0680  -12.3820   18.3680 C   0  0  0  0  0  2  0  0  0  0  0  0
  -27.6980  -13.3420   19.5260 C   0  0  0  0  0  3  0  0  0  0  0  0
  -28.8170  -13.4740   20.5800 C   0  0  0  0  0  2  0  0  0  0  0  0
  -29.9980  -13.9920   19.8680 N   0  0  0  0  0  0  0  0  0  0  0  0
  -31.8300  -15.2280   19.7470 O   0  0  0  0  0  0  0  0  0  0  0  0
  -29.8850  -16.5950   20.0760 N   0  0  0  0  0  4  0  0  0  0  0  0
  -28.8930  -16.4210   20.0380 H   0  0  0  0  0  0  0  0  0  0  0  0
  -25.3960  -13.9370   20.4380 C   0  0  0  0  0  0  0  0  0  0  0  0
  -24.3380  -13.1770   20.8510 C   0  0  0  0  0  0  0  0  0  0  0  0
  -24.7700  -11.8180   20.7660 C   0  0  0  0  0  0  0  0  0  0  0  0
  -26.4000  -13.0430   20.1140 N   0  0  0  0  0  0  0  0  0  0  0  0
  -26.0400  -11.7600   20.3800 N   0  0  0  0  0  0  0  0  0  0  0  0
  -24.0220  -10.5690   20.9700 C   0  0  0  0  0  0  0  0  0  0  0  0
  -24.4710   -9.5770   21.8700 C   0  0  0  0  0  3  0  0  0  0  0  0
  -23.7210   -8.3970   22.0650 C   0  0  0  0  0  3  0  0  0  0  0  0
  -22.5090   -8.2000   21.3610 C   0  0  0  0  0  0  0  0  0  0  0  0
  -22.0800   -9.1800   20.4490 C   0  0  0  0  0  3  0  0  0  0  0  0
  -22.8290  -10.3520   20.2520 C   0  0  0  0  0  3  0  0  0  0  0  0
  -21.7290   -7.0730   21.4670 O   0  0  0  0  0  0  0  0  0  0  0  0
  -21.7080   -6.3190   22.6130 C   0  0  0  0  0  0  0  0  0  0  0  0
  -21.3220   -6.8630   23.8570 C   0  0  0  0  0  3  0  0  0  0  0  0
  -21.2470   -6.0350   24.9950 C   0  0  0  0  0  3  0  0  0  0  0  0
  -21.5480   -4.6650   24.8910 C   0  0  0  0  0  0  0  0  0  0  0  0
  -21.9290   -4.1200   23.6510 C   0  0  0  0  0  3  0  0  0  0  0  0
  -22.0050   -4.9450   22.5150 C   0  0  0  0  0  0  0  0  0  0  0  0
  -22.3510   -4.4100   21.3190 F   0  0  0  0  0  0  0  0  0  0  0  0
  -21.4700   -3.8670   25.9810 F   0  0  0  0  0  0  0  0  0  0  0  0
  -22.9710  -13.6820   21.2050 C   0  0  0  0  0  0  0  0  0  0  0  0
  -22.2720  -12.9880   22.0950 N   0  0  0  0  0  0  0  0  0  0  0  0
  -22.5340  -14.7290   20.7260 O   0  0  0  0  0  0  0  0  0  0  0  0
  -22.6400  -12.1410   22.5030 H   0  0  0  0  0  0  0  0  0  0  0  0
  -21.3570  -13.3090   22.3750 H   0  0  0  0  0  0  0  0  0  0  0  0
  -25.5790  -15.3080   20.2770 N   0  0  0  0  0  0  0  0  0  0  0  0
  -24.8290  -15.9710   20.4430 H   0  0  0  0  0  0  0  0  0  0  0  0
  -26.4010  -15.7360   19.8740 H   0  0  0  0  0  0  0  0  0  0  0  0
  -28.3120  -23.6710   16.6840 C   0  0  0  0  0  1  0  0  0  0  0  0
  -28.3610  -23.6410   18.1050 O   0  0  0  0  0  0  0  0  0  0  0  0
  -28.4270  -24.1090   20.8860 C   0  0  0  0  0  2  0  0  0  0  0  0
  -28.6360  -25.7350   20.5560 O   0  0  0  0  0  0  0  0  0  0  0  0
  -24.8110  -31.7520   23.2750 C   0  0  0  0  0  0  0  0  0  0  0  0
  -27.6040  -26.8290   20.5070 C   0  0  0  0  0  0  0  0  0  0  0  0
  -23.7330  -30.3070   21.6010 C   0  0  0  0  0  3  0  0  0  0  0  0
  -25.2830  -28.6940   20.2970 C   0  0  0  0  0  0  0  0  0  0  0  0
  -26.3020  -30.5500   21.5930 C   0  0  0  0  0  2  0  0  0  0  0  0
  -26.4330  -29.1250   20.9720 C   0  0  0  0  0  0  0  0  0  0  0  0
  -27.5910  -28.2170   21.0440 C   0  0  0  0  0  3  0  0  0  0  0  0
  -26.4200  -26.5570   19.7850 C   0  0  0  0  0  3  0  0  0  0  0  0
  -25.3060  -27.4300   19.6830 C   0  0  0  0  0  3  0  0  0  0  0  0
  -24.0520  -29.6000   20.2540 C   0  0  0  0  0  2  0  0  0  0  0  0
  -24.9680  -30.8990   22.2100 N   0  0  0  0  0  0  0  0  0  0  0  0
  -23.6890  -32.0320   23.7290 O   0  0  0  0  0  0  0  0  0  0  0  0
  -23.0000  -29.3180   22.5460 C   0  0  0  0  0  0  0  0  0  0  0  0
  -21.6780  -29.1410   22.3610 N   0  0  0  0  0  0  0  0  0  0  0  0
  -23.6300  -28.7110   23.4150 O   0  0  0  0  0  0  0  0  0  0  0  0
  -21.2230  -29.6810   21.6390 H   0  0  0  0  0  0  0  0  0  0  0  0
  -18.2870  -27.9020   22.7290 C   0  0  0  0  0  0  0  0  0  0  0  0
  -20.8290  -28.2030   23.1050 C   0  0  0  0  0  3  0  0  0  0  0  0
  -20.9720  -26.7650   22.5530 C   0  0  0  0  0  2  0  0  0  0  0  0
  -19.9220  -26.4180   21.4930 C   0  0  0  0  0  2  0  0  0  0  0  0
  -18.5110  -26.5490   22.0730 C   0  0  0  0  0  2  0  0  0  0  0  0
  -19.3750  -28.6850   23.1990 C   0  0  0  0  0  0  0  0  0  0  0  0
  -19.1110  -29.9470   23.7740 C   0  0  0  0  0  3  0  0  0  0  0  0
  -17.7920  -30.4280   23.8820 C   0  0  0  0  0  3  0  0  0  0  0  0
  -16.7180  -29.6440   23.4260 C   0  0  0  0  0  3  0  0  0  0  0  0
  -16.9660  -28.3820   22.8560 C   0  0  0  0  0  3  0  0  0  0  0  0
  -26.0320  -32.4310   23.9660 C   0  0  0  0  0  3  0  0  0  0  0  0
  -26.4650  -31.7090   25.3030 C   0  0  1  0  0  0  0  0  0  0  0  0
  -25.3010  -31.4890   26.2990 C   0  0  0  0  0  1  0  0  0  0  0  0
  -27.0940  -30.3290   25.0090 C   0  0  0  0  0  1  0  0  0  0  0  0
  -27.5540  -32.5430   26.0180 C   0  0  0  0  0  1  0  0  0  0  0  0
  -25.6760  -33.8340   24.2440 N   0  0  0  0  0  0  0  0  0  0  0  0
  -26.0220  -34.8800   23.4810 C   0  0  0  0  0  0  0  0  0  0  0  0
  -26.7340  -34.7660   22.4810 O   0  0  0  0  0  0  0  0  0  0  0  0
  -25.0450  -33.9940   25.0150 H   0  0  0  0  0  0  0  0  0  0  0  0
  -24.2690  -36.6340   23.0400 C   0  0  0  0  0  1  0  0  0  0  0  0
  -25.4980  -36.2720   23.8910 C   0  0  0  0  0  3  0  0  0  0  0  0
  -27.5870  -37.2300   24.7560 C   0  0  0  0  0  1  0  0  0  0  0  0
  -26.5120  -37.3440   23.7740 N   0  0  0  0  0  0  0  0  0  0  0  0
  -26.0830  -38.2590   23.8770 H   0  0  0  0  0  0  0  0  0  0  0  0
  1  4  1  0
  2  1  2  0
  2  6  1  0
  4  8  1  0
  4  3  2  0
  5  3  1  0
  5 49  1  0
  6  5  2  0
  8  7  1  0
  9 17  1  0
 10 15  1  0
 11 12  1  0
 11 10  1  0
 13 12  1  0
 13 22  1  0
 13 14  1  0
 15  9  1  0
 15 14  1  0
 16  9  2  0
 17  8  2  0
 18 17  1  0
 19 20  2  0
 20 39  1  0
 21 20  1  0
 21 24  1  0
 22 23  1  0
 22 19  1  0
 23 21  2  0
 24 25  1  0
 25 26  2  0
 27 30  1  0
 27 26  1  0
 28 27  2  0
 29 28  1  0
 29 24  2  0
 30 31  1  0
 31 32  1  0
 32 33  2  0
 34 33  1  0
 34 38  1  0
 35 34  2  0
 36 31  2  0
 36 35  1  0
 37 36  1  0
 39 40  1  0
 40 43  1  0
 40 42  1  0
 41 39  2  0
 44 19  1  0
 44 45  1  0
 46 44  1  0
 47 48  1  0
 48  6  1  0
 50 49  1  0
 51 62  2  0
 52 50  1  0
 52 57  1  0
 53 61  1  0
 53 63  1  0
 54 56  1  0
 55 61  1  0
 56 57  2  0
 56 55  1  0
 58 52  2  0
 59 58  1  0
 59 54  2  0
 60 54  1  0
 60 53  1  0
 61 51  1  0
 63 65  2  0
 64 63  1  0
 66 64  1  0
 67 76  2  0
 67 72  1  0
 68 64  1  0
 68 72  1  0
 69 68  1  0
 70 71  1  0
 70 69  1  0
 71 67  1  0
 72 73  2  0
 73 74  1  0
 75 74  2  0
 76 75  1  0
 77 51  1  0
 77 82  1  0
 77 78  1  0
 78 81  1  1
 78 79  1  0
 80 78  1  0
 82 85  1  0
 83 87  1  0
 83 82  1  0
 84 83  2  0
 87 86  1  0
 89 90  1  0
 89 87  1  0
 89 88  1  0
M  ISO  4   9 100  17 100  49 101  50 101
M  END
>  <TORSDO>  (56) 
F 19

>  <SCORE>  (56) 
-15.164

>  <name>  (56) 
56

>  <ligand_id>  (56) 
56

>  <original_smiles>  (56) 
[H]c1c([H])c([H])c2c(c1[H])C([H])([H])C([H])([H])C([H])([H])C2([H])N([H])C(=O)C1([H])N(C(=O)C([H])(N([H])C(=O)C([H])(N([H])C([H])([H])[H])C([H])([H])[H])C(C([H])([H])[H])(C([H])([H])[H])C([H])([H])[H])C([H])([H])c2c([H])c(OC([H])([H])c3c([H])c(C([H])(N([H])C(=O)N4C([H])([H])C([H])([H])C([H])([H])C([H])(n5nc(-c6c([H])c([H])c(Oc7c([H])c([H])c(F)c([H])c7F)c([H])c6[H])c(C(=O)N([H])[H])c5N([H])[H])C4([H])[H])C([H])([H])[H])c([H])c([H])c3OC([H])([H])[H])c([H])c([H])c2C1([H])[H]

>  <smiles>  (56) 
[H]c1c([H])c([H])c2c(c1[H])C([H])([H])C([H])([H])C([H])([H])C2([H])N([H])C(=O)C1([H])N(C(=O)C([H])(N([H])C(=O)C([H])(N([H])C([H])([H])[H])C([H])([H])[H])C(C([H])([H])[H])(C([H])([H])[H])C([H])([H])[H])C([H])([H])c2c([H])c(OC([H])([H])c3c([H])c(C([H])(N([H])C(=O)N4C([H])([H])C([H])([H])C([H])([H])C([H])(n5nc(-c6c([H])c([H])c(Oc7c([H])c([H])c(F)c([H])c7F)c([H])c6[H])c(C(=O)N([H])[H])c5N([H])[H])C4([H])[H])C([H])([H])[H])c([H])c([H])c3OC([H])([H])[H])c([H])c([H])c2C1([H])[H]

$$$$
57:0:0
     RDKit          3D

 91 99  0  0  1  0  0  0  0  0999 V2000
  -29.7120  -20.2710   21.5990 C   0  0  0  0  0  3  0  0  0  0  0  0
  -29.1000  -22.7180   21.5420 C   0  0  0  0  0  3  0  0  0  0  0  0
  -29.4810  -20.0050   20.2310 C   0  0  0  0  0  0  0  0  0  0  0  0
  -29.5380  -21.5420   22.2200 C   0  0  0  0  0  0  0  0  0  0  0  0
  -28.7360  -22.7460   20.1770 C   0  0  0  0  0  0  0  0  0  0  0  0
  -28.9350  -21.3190   19.5690 C   0  0  0  0  0  0  0  0  0  0  0  0
  -29.8430  -21.6430   23.7040 C   0  0  0  0  0  1  0  0  0  0  0  0
  -29.9230  -17.0090   20.2490 C   0  0  0  0  0  3  0  0  0  0  0  0
  -29.9800  -18.4160   19.7480 C   0  0  0  0  0  0  0  0  0  0  0  0
  -30.6190  -15.5620   19.8550 C   0  0  0  0  0  0  0  0  0  0  0  0
  -30.4810  -13.1060   18.9640 C   0  0  0  0  0  2  0  0  0  0  0  0
  -29.4950  -12.9390   17.7800 C   0  0  0  0  0  2  0  0  0  0  0  0
  -28.0690  -12.6780   18.2930 C   0  0  0  0  0  2  0  0  0  0  0  0
  -27.7030  -13.6230   19.4640 C   0  0  0  0  0  3  0  0  0  0  0  0
  -28.8170  -13.7520   20.5280 C   0  0  0  0  0  2  0  0  0  0  0  0
  -30.0260  -14.2530   19.8500 N   0  0  0  0  0  0  0  0  0  0  0  0
  -31.7990  -15.4860   19.4690 O   0  0  0  0  0  0  0  0  0  0  0  0
  -25.4000  -14.2030   20.3780 C   0  0  0  0  0  0  0  0  0  0  0  0
  -24.3460  -13.4400   20.7950 C   0  0  0  0  0  0  0  0  0  0  0  0
  -24.7790  -12.0810   20.7050 C   0  0  0  0  0  0  0  0  0  0  0  0
  -26.4050  -13.3130   20.0490 N   0  0  0  0  0  0  0  0  0  0  0  0
  -26.0490  -12.0280   20.3120 N   0  0  0  0  0  0  0  0  0  0  0  0
  -24.0330  -10.8320   20.9130 C   0  0  0  0  0  0  0  0  0  0  0  0
  -24.4700   -9.8540   21.8340 C   0  0  0  0  0  3  0  0  0  0  0  0
  -23.7240   -8.6720   22.0320 C   0  0  0  0  0  3  0  0  0  0  0  0
  -22.5240   -8.4600   21.3120 C   0  0  0  0  0  0  0  0  0  0  0  0
  -22.1060   -9.4250   20.3800 C   0  0  0  0  0  3  0  0  0  0  0  0
  -22.8520  -10.5990   20.1810 C   0  0  0  0  0  3  0  0  0  0  0  0
  -21.7480   -7.3310   21.4210 O   0  0  0  0  0  0  0  0  0  0  0  0
  -21.7110   -6.5910   22.5750 C   0  0  0  0  0  0  0  0  0  0  0  0
  -21.2940   -7.1450   23.8040 C   0  0  0  0  0  3  0  0  0  0  0  0
  -21.2070   -6.3300   24.9500 C   0  0  0  0  0  3  0  0  0  0  0  0
  -21.5250   -4.9620   24.8680 C   0  0  0  0  0  0  0  0  0  0  0  0
  -21.9350   -4.4060   23.6420 C   0  0  0  0  0  3  0  0  0  0  0  0
  -22.0250   -5.2190   22.4990 C   0  0  0  0  0  0  0  0  0  0  0  0
  -22.4010   -4.6740   21.3160 F   0  0  0  0  0  0  0  0  0  0  0  0
  -21.4320   -4.1760   25.9670 F   0  0  0  0  0  0  0  0  0  0  0  0
  -22.9800  -13.9430   21.1570 C   0  0  0  0  0  0  0  0  0  0  0  0
  -22.2880  -13.2460   22.0510 N   0  0  0  0  0  0  0  0  0  0  0  0
  -22.5380  -14.9890   20.6820 O   0  0  0  0  0  0  0  0  0  0  0  0
  -22.6590  -12.4000   22.4570 H   0  0  0  0  0  0  0  0  0  0  0  0
  -21.3730  -13.5650   22.3360 H   0  0  0  0  0  0  0  0  0  0  0  0
  -25.5810  -15.5740   20.2260 N   0  0  0  0  0  0  0  0  0  0  0  0
  -24.8330  -16.2370   20.3960 H   0  0  0  0  0  0  0  0  0  0  0  0
  -26.4210  -16.0080   19.8650 H   0  0  0  0  0  0  0  0  0  0  0  0
  -30.7450  -18.5670   18.6600 O   0  0  0  0  0  0  0  0  0  0  0  0
  -30.8320  -19.5010   18.4970 H   0  0  0  0  0  0  0  0  0  0  0  0
  -27.7090  -20.1450   17.9080 C   0  0  0  0  0  1  0  0  0  0  0  0
  -28.5350  -21.2530   18.2530 O   0  0  0  0  0  0  0  0  0  0  0  0
  -27.9640  -24.2450   19.6110 C   0  0  0  0  0  2  0  0  0  0  0  0
  -28.1350  -25.8840   19.9190 O   0  0  0  0  0  0  0  0  0  0  0  0
  -24.5740  -31.7980   23.0520 C   0  0  0  0  0  0  0  0  0  0  0  0
  -27.1270  -27.0050   19.8480 C   0  0  0  0  0  0  0  0  0  0  0  0
  -23.3580  -30.4160   21.4170 C   0  0  0  0  0  3  0  0  0  0  0  0
  -24.7950  -28.8740   19.9040 C   0  0  0  0  0  0  0  0  0  0  0  0
  -25.9150  -30.6730   21.2000 C   0  0  0  0  0  2  0  0  0  0  0  0
  -25.9930  -29.2770   20.5080 C   0  0  0  0  0  0  0  0  0  0  0  0
  -27.1470  -28.3630   20.4590 C   0  0  0  0  0  3  0  0  0  0  0  0
  -25.9000  -26.7770   19.1820 C   0  0  0  0  0  3  0  0  0  0  0  0
  -24.7770  -27.6480   19.2180 C   0  0  0  0  0  3  0  0  0  0  0  0
  -23.5590  -29.7710   20.0170 C   0  0  0  0  0  2  0  0  0  0  0  0
  -24.6390  -30.9910   21.9430 N   0  0  0  0  0  0  0  0  0  0  0  0
  -23.4970  -32.0520   23.6150 O   0  0  0  0  0  0  0  0  0  0  0  0
  -22.7140  -29.3860   22.3830 C   0  0  0  0  0  0  0  0  0  0  0  0
  -21.3930  -29.1580   22.2650 N   0  0  0  0  0  0  0  0  0  0  0  0
  -23.4120  -28.7910   23.2090 O   0  0  0  0  0  0  0  0  0  0  0  0
  -20.8790  -29.6920   21.5780 H   0  0  0  0  0  0  0  0  0  0  0  0
  -18.0840  -27.7480   22.7530 C   0  0  0  0  0  0  0  0  0  0  0  0
  -20.6210  -28.1780   23.0370 C   0  0  0  0  0  3  0  0  0  0  0  0
  -20.8160  -26.7500   22.4760 C   0  0  0  0  0  2  0  0  0  0  0  0
  -19.7460  -26.3530   21.4540 C   0  0  0  0  0  2  0  0  0  0  0  0
  -18.3520  -26.4110   22.0830 C   0  0  0  0  0  2  0  0  0  0  0  0
  -19.1480  -28.5840   23.1860 C   0  0  0  0  0  0  0  0  0  0  0  0
  -18.8390  -29.8300   23.7760 C   0  0  0  0  0  3  0  0  0  0  0  0
  -17.5010  -30.2410   23.9340 C   0  0  0  0  0  3  0  0  0  0  0  0
  -16.4540  -29.4040   23.5130 C   0  0  0  0  0  3  0  0  0  0  0  0
  -16.7450  -28.1590   22.9290 C   0  0  0  0  0  3  0  0  0  0  0  0
  -25.8500  -32.4550   23.6600 C   0  0  0  0  0  3  0  0  0  0  0  0
  -26.4060  -31.6780   24.9170 C   0  0  1  0  0  0  0  0  0  0  0  0
  -25.3420  -31.4130   26.0090 C   0  0  0  0  0  1  0  0  0  0  0  0
  -27.0030  -30.3140   24.5050 C   0  0  0  0  0  1  0  0  0  0  0  0
  -27.5580  -32.4830   25.5640 C   0  0  0  0  0  1  0  0  0  0  0  0
  -25.5140  -33.8420   24.0350 N   0  0  0  0  0  0  0  0  0  0  0  0
  -25.8300  -34.9300   23.3190 C   0  0  0  0  0  0  0  0  0  0  0  0
  -26.4970  -34.8720   22.2830 O   0  0  0  0  0  0  0  0  0  0  0  0
  -24.9200  -33.9560   24.8430 H   0  0  0  0  0  0  0  0  0  0  0  0
  -24.0710  -36.7120   23.0550 C   0  0  0  0  0  1  0  0  0  0  0  0
  -25.3300  -36.2960   23.8330 C   0  0  0  0  0  3  0  0  0  0  0  0
  -27.4570  -37.1950   24.6690 C   0  0  0  0  0  1  0  0  0  0  0  0
  -26.3440  -37.3690   23.7400 N   0  0  0  0  0  0  0  0  0  0  0  0
  -25.9230  -38.2790   23.9140 H   0  0  0  0  0  0  0  0  0  0  0  0
  1  4  1  0
  2  4  2  0
  3  1  2  0
  4  7  1  0
  5  2  1  0
  6  5  2  0
  6  3  1  0
  9  3  1  0
  9  8  2  0
 10  8  1  0
 11 16  1  0
 12 13  1  0
 12 11  1  0
 14 13  1  0
 14 21  1  0
 14 15  1  0
 16 10  1  0
 16 15  1  0
 17 10  2  0
 18 19  2  0
 19 38  1  0
 20 19  1  0
 20 23  1  0
 21 22  1  0
 21 18  1  0
 22 20  2  0
 23 24  1  0
 24 25  2  0
 26 29  1  0
 26 25  1  0
 27 26  2  0
 28 27  1  0
 28 23  2  0
 29 30  1  0
 30 31  1  0
 31 32  2  0
 33 32  1  0
 33 37  1  0
 34 33  2  0
 35 30  2  0
 35 34  1  0
 36 35  1  0
 38 39  1  0
 39 42  1  0
 39 41  1  0
 40 38  2  0
 43 18  1  0
 43 44  1  0
 45 43  1  0
 46  9  1  0
 47 46  1  0
 48 49  1  0
 49  6  1  0
 50 51  1  0
 50  5  1  0
 52 63  2  0
 53 51  1  0
 53 58  1  0
 54 62  1  0
 54 64  1  0
 55 61  1  0
 55 57  1  0
 56 62  1  0
 57 56  1  0
 58 57  2  0
 59 60  1  0
 59 53  2  0
 60 55  2  0
 61 54  1  0
 62 52  1  0
 64 66  2  0
 65 64  1  0
 67 65  1  0
 68 77  2  0
 68 73  1  0
 69 65  1  0
 69 73  1  0
 70 69  1  0
 71 72  1  0
 71 70  1  0
 72 68  1  0
 73 74  2  0
 74 75  1  0
 76 75  2  0
 77 76  1  0
 78 52  1  0
 78 83  1  0
 78 79  1  0
 79 82  1  1
 79 80  1  0
 81 79  1  0
 83 86  1  0
 84 88  1  0
 84 83  1  0
 85 84  2  0
 88 87  1  0
 90 88  1  0
 90 91  1  0
 90 89  1  0
M  ISO  4   8 100  10 100  50 101  51 101
M  END
>  <TORSDO>  (57) 
F 20

>  <SCORE>  (57) 
-15.152

>  <name>  (57) 
57

>  <ligand_id>  (57) 
57

>  <original_smiles>  (57) 
[H]OC(=C([H])C(=O)N1C([H])([H])C([H])([H])C([H])([H])C([H])(n2nc(-c3c([H])c([H])c(Oc4c([H])c([H])c(F)c([H])c4F)c([H])c3[H])c(C(=O)N([H])[H])c2N([H])[H])C1([H])[H])c1c([H])c(C([H])([H])[H])c([H])c(C([H])([H])Oc2c([H])c([H])c3c(c2[H])C([H])([H])N(C(=O)C([H])(N([H])C(=O)C([H])(N([H])C([H])([H])[H])C([H])([H])[H])C(C([H])([H])[H])(C([H])([H])[H])C([H])([H])[H])C([H])(C(=O)N([H])C2([H])c4c([H])c([H])c([H])c([H])c4C([H])([H])C([H])([H])C2([H])[H])C3([H])[H])c1OC([H])([H])[H]

>  <smiles>  (57) 
[H]OC(=C([H])C(=O)N1C([H])([H])C([H])([H])C([H])([H])C([H])(n2nc(-c3c([H])c([H])c(Oc4c([H])c([H])c(F)c([H])c4F)c([H])c3[H])c(C(=O)N([H])[H])c2N([H])[H])C1([H])[H])c1c([H])c(C([H])([H])[H])c([H])c(C([H])([H])Oc2c([H])c([H])c3c(c2[H])C([H])([H])N(C(=O)C([H])(N([H])C(=O)C([H])(N([H])C([H])([H])[H])C([H])([H])[H])C(C([H])([H])[H])(C([H])([H])[H])C([H])([H])[H])C([H])(C(=O)N([H])C2([H])c4c([H])c([H])c([H])c([H])c4C([H])([H])C([H])([H])C2([H])[H])C3([H])[H])c1OC([H])([H])[H]

$$$$
58:0:0
     RDKit          3D

 97105  0  0  1  0  0  0  0  0999 V2000
  -30.8970  -21.1190   19.2490 C   0  0  0  0  0  3  0  0  0  0  0  0
  -28.7610  -21.8870   20.0100 C   0  0  0  0  0  3  0  0  0  0  0  0
  -31.2000  -22.4460   18.8400 C   0  0  0  0  0  0  0  0  0  0  0  0
  -29.6560  -20.7110   19.7830 C   0  0  0  0  0  0  0  0  0  0  0  0
  -29.0340  -23.3190   19.6710 C   0  0  0  0  0  0  0  0  0  0  0  0
  -30.2690  -23.5230   18.9970 C   0  0  0  0  0  0  0  0  0  0  0  0
  -30.5610  -24.9030   18.4020 C   0  0  0  0  0  1  0  0  0  0  0  0
  -32.5500  -22.6270   18.2190 C   0  0  0  0  0  0  0  0  0  0  0  0
  -32.8900  -22.0240   17.1930 O   0  0  0  0  0  0  0  0  0  0  0  0
  -33.5810  -23.5470   18.9200 C   0  0  0  0  0  0  0  0  0  0  0  0
  -33.7630  -23.3860   20.4240 C   0  0  0  0  0  1  0  0  0  0  0  0
  -34.2570  -24.3630   18.2820 O   0  0  0  0  0  0  0  0  0  0  0  0
  -27.9630  -18.8140   20.4270 C   0  0  0  0  0  1  0  0  0  0  0  0
  -29.4590  -19.0960   20.2080 C   0  0  0  0  0  3  0  0  0  0  0  0
  -31.6660  -18.0210   19.1480 C   0  0  0  0  0  1  0  0  0  0  0  0
  -29.4890  -17.5240   18.1450 C   0  0  0  0  0  1  0  0  0  0  0  0
  -30.1990  -17.7060   19.5040 C   0  0  2  0  0  0  0  0  0  0  0  0
  -30.8780  -15.0110   19.9840 C   0  0  0  0  0  0  0  0  0  0  0  0
  -30.6860  -12.6470   19.0990 C   0  0  0  0  0  2  0  0  0  0  0  0
  -29.7090  -12.6160   17.9000 C   0  0  0  0  0  2  0  0  0  0  0  0
  -28.2650  -12.4170   18.3880 C   0  0  0  0  0  2  0  0  0  0  0  0
  -27.9120  -13.3480   19.5780 C   0  0  0  0  0  3  0  0  0  0  0  0
  -29.0110  -13.3650   20.6630 C   0  0  0  0  0  2  0  0  0  0  0  0
  -30.2610  -13.7590   20.0030 N   0  0  0  0  0  0  0  0  0  0  0  0
  -32.0630  -15.0190   19.6400 O   0  0  0  0  0  0  0  0  0  0  0  0
  -30.1290  -16.2280   20.1290 N   0  0  0  0  0  0  0  0  0  0  0  0
  -29.2220  -16.0380   20.5310 H   0  0  0  0  0  0  0  0  0  0  0  0
  -25.5820  -13.9460   20.4420 C   0  0  0  0  0  0  0  0  0  0  0  0
  -24.5200  -13.1800   20.8380 C   0  0  0  0  0  0  0  0  0  0  0  0
  -24.9560  -11.8220   20.7490 C   0  0  0  0  0  0  0  0  0  0  0  0
  -26.5950  -13.0560   20.1300 N   0  0  0  0  0  0  0  0  0  0  0  0
  -26.2310  -11.7720   20.3810 N   0  0  0  0  0  0  0  0  0  0  0  0
  -24.2120  -10.5690   20.9370 C   0  0  0  0  0  0  0  0  0  0  0  0
  -24.6020   -9.6140   21.9030 C   0  0  0  0  0  3  0  0  0  0  0  0
  -23.8570   -8.4280   22.0770 C   0  0  0  0  0  3  0  0  0  0  0  0
  -22.7090   -8.1870   21.2840 C   0  0  0  0  0  0  0  0  0  0  0  0
  -22.3400   -9.1290   20.3070 C   0  0  0  0  0  3  0  0  0  0  0  0
  -23.0850  -10.3080   20.1320 C   0  0  0  0  0  3  0  0  0  0  0  0
  -21.9380   -7.0530   21.3670 O   0  0  0  0  0  0  0  0  0  0  0  0
  -21.7760   -6.3780   22.5500 C   0  0  0  0  0  0  0  0  0  0  0  0
  -21.1560   -6.9750   23.6690 C   0  0  0  0  0  3  0  0  0  0  0  0
  -20.9470   -6.2240   24.8440 C   0  0  0  0  0  3  0  0  0  0  0  0
  -21.3460   -4.8740   24.8970 C   0  0  0  0  0  0  0  0  0  0  0  0
  -21.9580   -4.2760   23.7810 C   0  0  0  0  0  3  0  0  0  0  0  0
  -22.1690   -5.0260   22.6100 C   0  0  0  0  0  0  0  0  0  0  0  0
  -22.7400   -4.4380   21.5310 F   0  0  0  0  0  0  0  0  0  0  0  0
  -21.1400   -4.1490   26.0210 F   0  0  0  0  0  0  0  0  0  0  0  0
  -23.1460  -13.6760   21.1840 C   0  0  0  0  0  0  0  0  0  0  0  0
  -22.4390  -12.9630   22.0530 N   0  0  0  0  0  0  0  0  0  0  0  0
  -22.7120  -14.7300   20.7210 O   0  0  0  0  0  0  0  0  0  0  0  0
  -22.8070  -12.1100   22.4450 H   0  0  0  0  0  0  0  0  0  0  0  0
  -21.5170  -13.2750   22.3250 H   0  0  0  0  0  0  0  0  0  0  0  0
  -25.7640  -15.3180   20.2940 N   0  0  0  0  0  0  0  0  0  0  0  0
  -25.0100  -15.9810   20.4500 H   0  0  0  0  0  0  0  0  0  0  0  0
  -26.5950  -15.7500   19.9130 H   0  0  0  0  0  0  0  0  0  0  0  0
  -27.9890  -24.5990   19.8550 C   0  0  0  0  0  2  0  0  0  0  0  0
  -28.3240  -26.1330   19.9460 O   0  0  0  0  0  0  0  0  0  0  0  0
  -24.7180  -31.7150   23.2310 C   0  0  0  0  0  0  0  0  0  0  0  0
  -27.2810  -27.1380   19.9540 C   0  0  0  0  0  0  0  0  0  0  0  0
  -23.5210  -30.4150   21.5160 C   0  0  0  0  0  3  0  0  0  0  0  0
  -24.9670  -28.9120   20.0170 C   0  0  0  0  0  0  0  0  0  0  0  0
  -26.0810  -30.6690   21.3800 C   0  0  0  0  0  2  0  0  0  0  0  0
  -26.1500  -29.3130   20.6500 C   0  0  0  0  0  0  0  0  0  0  0  0
  -27.3100  -28.4450   20.5980 C   0  0  0  0  0  3  0  0  0  0  0  0
  -26.0680  -26.8520   19.2900 C   0  0  0  0  0  3  0  0  0  0  0  0
  -24.9400  -27.6970   19.3230 C   0  0  0  0  0  3  0  0  0  0  0  0
  -23.7460  -29.8140   20.1060 C   0  0  0  0  0  2  0  0  0  0  0  0
  -24.7940  -30.9520   22.0990 N   0  0  0  0  0  0  0  0  0  0  0  0
  -23.6300  -31.9780   23.7650 O   0  0  0  0  0  0  0  0  0  0  0  0
  -22.8310  -29.3600   22.4180 C   0  0  0  0  0  0  0  0  0  0  0  0
  -21.5060  -29.1900   22.2610 N   0  0  0  0  0  0  0  0  0  0  0  0
  -23.4920  -28.6990   23.2240 O   0  0  0  0  0  0  0  0  0  0  0  0
  -21.0300  -29.7770   21.5910 H   0  0  0  0  0  0  0  0  0  0  0  0
  -18.1200  -27.9610   22.6640 C   0  0  0  0  0  0  0  0  0  0  0  0
  -20.6760  -28.2150   22.9750 C   0  0  0  0  0  3  0  0  0  0  0  0
  -20.7860  -26.8120   22.3330 C   0  0  0  0  0  2  0  0  0  0  0  0
  -19.6970  -26.5380   21.2900 C   0  0  0  0  0  2  0  0  0  0  0  0
  -18.3070  -26.6480   21.9230 C   0  0  0  0  0  2  0  0  0  0  0  0
  -19.2320  -28.7050   23.1430 C   0  0  0  0  0  0  0  0  0  0  0  0
  -19.0000  -29.9350   23.7940 C   0  0  0  0  0  3  0  0  0  0  0  0
  -17.6920  -30.4230   23.9710 C   0  0  0  0  0  3  0  0  0  0  0  0
  -16.5950  -29.6770   23.5060 C   0  0  0  0  0  3  0  0  0  0  0  0
  -16.8110  -28.4470   22.8600 C   0  0  0  0  0  3  0  0  0  0  0  0
  -25.9950  -32.3100   23.8990 C   0  0  0  0  0  3  0  0  0  0  0  0
  -25.6840  -33.6910   24.3080 N   0  0  0  0  0  0  0  0  0  0  0  0
  -26.0050  -34.7850   23.6070 C   0  0  0  0  0  0  0  0  0  0  0  0
  -26.6600  -34.7410   22.5620 O   0  0  0  0  0  0  0  0  0  0  0  0
  -25.1010  -33.7990   25.1240 H   0  0  0  0  0  0  0  0  0  0  0  0
  -24.2800  -36.6030   23.3760 C   0  0  0  0  0  1  0  0  0  0  0  0
  -25.5260  -36.1470   24.1500 C   0  0  0  0  0  3  0  0  0  0  0  0
  -27.6560  -36.9880   25.0350 C   0  0  0  0  0  1  0  0  0  0  0  0
  -26.5610  -37.2030   24.0940 N   0  0  0  0  0  0  0  0  0  0  0  0
  -26.1560  -38.1160   24.2840 H   0  0  0  0  0  0  0  0  0  0  0  0
  -26.4960  -31.4700   25.1380 C   0  0  1  0  0  0  0  0  0  0  0  0
  -25.3910  -31.1720   26.1790 C   0  0  0  0  0  1  0  0  0  0  0  0
  -27.0860  -30.1150   24.6810 C   0  0  0  0  0  1  0  0  0  0  0  0
  -27.6400  -32.2270   25.8540 C   0  0  0  0  0  1  0  0  0  0  0  0
  1  4  1  0
  3  6  1  0
  3  1  2  0
  4  2  2  0
  4 14  1  0
  5 56  1  0
  5  2  1  0
  6  5  2  0
  7  6  1  0
  8  3  1  0
  8 10  1  0
  9  8  2  0
 10 11  1  0
 12 10  2  0
 14 13  1  0
 17 15  1  6
 16 17  1  0
 17 26  1  0
 17 14  1  0
 18 24  1  0
 18 26  1  0
 19 24  1  0
 20 21  1  0
 20 19  1  0
 22 21  1  0
 22 31  1  0
 22 23  1  0
 24 23  1  0
 25 18  2  0
 26 27  1  0
 28 29  2  0
 29 48  1  0
 30 29  1  0
 30 33  1  0
 31 32  1  0
 31 28  1  0
 32 30  2  0
 33 34  1  0
 34 35  2  0
 36 39  1  0
 36 35  1  0
 37 36  2  0
 38 37  1  0
 38 33  2  0
 39 40  1  0
 40 45  2  0
 40 41  1  0
 41 42  2  0
 42 43  1  0
 43 47  1  0
 44 43  2  0
 45 44  1  0
 46 45  1  0
 48 49  1  0
 49 52  1  0
 49 51  1  0
 50 48  2  0
 53 28  1  0
 53 54  1  0
 55 53  1  0
 56 57  1  0
 57 59  1  0
 58 69  2  0
 59 64  1  0
 60 68  1  0
 60 70  1  0
 61 67  1  0
 61 63  1  0
 62 68  1  0
 63 62  1  0
 64 63  2  0
 65 66  1  0
 65 59  2  0
 66 61  2  0
 67 60  1  0
 68 58  1  0
 70 72  2  0
 71 70  1  0
 73 71  1  0
 74 83  2  0
 74 79  1  0
 75 71  1  0
 75 79  1  0
 76 75  1  0
 77 78  1  0
 77 76  1  0
 78 74  1  0
 79 80  2  0
 80 81  1  0
 82 81  2  0
 83 82  1  0
 84 58  1  0
 84 85  1  0
 84 94  1  0
 85 88  1  0
 86 90  1  0
 86 85  1  0
 87 86  2  0
 90 89  1  0
 92 90  1  0
 92 93  1  0
 92 91  1  0
 94 97  1  1
 94 95  1  0
 96 94  1  0
M  ISO  4  18 100  26 100  56 101  57 101
M  END
>  <TORSDO>  (58) 
F 21

>  <SCORE>  (58) 
-12.926

>  <name>  (58) 
58

>  <ligand_id>  (58) 
58

>  <original_smiles>  (58) 
[H]c1c([H])c([H])c2c(c1[H])C([H])([H])C([H])([H])C([H])([H])C2([H])N([H])C(=O)C1([H])N(C(=O)C([H])(N([H])C(=O)C([H])(N([H])C([H])([H])[H])C([H])([H])[H])C(C([H])([H])[H])(C([H])([H])[H])C([H])([H])[H])C([H])([H])c2c([H])c(OC([H])([H])c3c([H])c(C([H])(C([H])([H])[H])C(N([H])C(=O)N4C([H])([H])C([H])([H])C([H])([H])C([H])(n5nc(-c6c([H])c([H])c(Oc7c([H])c([H])c(F)c([H])c7F)c([H])c6[H])c(C(=O)N([H])[H])c5N([H])[H])C4([H])[H])(C([H])([H])[H])C([H])([H])[H])c([H])c(C(=O)C(=O)C([H])([H])[H])c3C([H])([H])[H])c([H])c([H])c2C1([H])[H]

>  <smiles>  (58) 
[H]c1c([H])c([H])c2c(c1[H])C([H])([H])C([H])([H])C([H])([H])C2([H])N([H])C(=O)C1([H])N(C(=O)C([H])(N([H])C(=O)C([H])(N([H])C([H])([H])[H])C([H])([H])[H])C(C([H])([H])[H])(C([H])([H])[H])C([H])([H])[H])C([H])([H])c2c([H])c(OC([H])([H])c3c([H])c(C([H])(C([H])([H])[H])C(N([H])C(=O)N4C([H])([H])C([H])([H])C([H])([H])C([H])(n5nc(-c6c([H])c([H])c(Oc7c([H])c([H])c(F)c([H])c7F)c([H])c6[H])c(C(=O)N([H])[H])c5N([H])[H])C4([H])[H])(C([H])([H])[H])C([H])([H])[H])c([H])c(C(=O)C(=O)C([H])([H])[H])c3C([H])([H])[H])c([H])c([H])c2C1([H])[H]

$$$$
59:0:0
     RDKit          3D

 91 99  0  0  1  0  0  0  0  0999 V2000
  -29.3590  -22.1280   21.0640 C   0  0  0  0  0  3  0  0  0  0  0  0
  -29.1420  -23.6050   21.1060 C   0  0  0  0  0  3  0  0  0  0  0  0
  -28.7360  -21.1610   20.1660 C   0  0  0  0  0  0  0  0  0  0  0  0
  -28.2670  -24.4370   20.2750 C   0  0  0  0  0  0  0  0  0  0  0  0
  -27.8550  -21.9960   19.3330 C   0  0  0  0  0  0  0  0  0  0  0  0
  -27.6650  -23.4760   19.3590 C   0  0  0  0  0  0  0  0  0  0  0  0
  -26.8590  -23.9810   18.3940 F   0  0  0  0  0  0  0  0  0  0  0  0
  -28.7850  -19.4380   20.0910 C   0  0  0  0  0  0  0  0  0  0  0  0
  -27.7400  -18.9410   19.6580 O   0  0  0  0  0  0  0  0  0  0  0  0
  -29.9170  -18.1700   20.3960 C   0  0  0  0  0  2  0  0  0  0  0  0
  -30.4120  -15.2820   20.2260 C   0  0  0  0  0  0  0  0  0  0  0  0
  -30.3830  -12.8550   19.3260 C   0  0  0  0  0  2  0  0  0  0  0  0
  -29.4470  -12.6640   18.1080 C   0  0  0  0  0  2  0  0  0  0  0  0
  -28.0030  -12.3920   18.5660 C   0  0  0  0  0  2  0  0  0  0  0  0
  -27.5640  -13.3440   19.7060 C   0  0  0  0  0  3  0  0  0  0  0  0
  -28.6270  -13.4790   20.8170 C   0  0  0  0  0  2  0  0  0  0  0  0
  -29.8480  -13.9820   20.1680 N   0  0  0  0  0  0  0  0  0  0  0  0
  -31.6300  -15.3000   20.0020 O   0  0  0  0  0  0  0  0  0  0  0  0
  -29.6380  -16.5320   20.3360 N   0  0  0  0  0  0  0  0  0  0  0  0
  -28.6510  -16.3400   20.4180 H   0  0  0  0  0  0  0  0  0  0  0  0
  -25.1980  -13.8830   20.4900 C   0  0  0  0  0  0  0  0  0  0  0  0
  -24.1470  -13.0960   20.8700 C   0  0  0  0  0  0  0  0  0  0  0  0
  -24.6250  -11.7500   20.8290 C   0  0  0  0  0  0  0  0  0  0  0  0
  -26.2450  -13.0170   20.2310 N   0  0  0  0  0  0  0  0  0  0  0  0
  -25.9140  -11.7290   20.5040 N   0  0  0  0  0  0  0  0  0  0  0  0
  -23.9120  -10.4810   21.0230 C   0  0  0  0  0  0  0  0  0  0  0  0
  -24.3600   -9.5130   21.9470 C   0  0  0  0  0  3  0  0  0  0  0  0
  -23.6430   -8.3100   22.1290 C   0  0  0  0  0  3  0  0  0  0  0  0
  -22.4620   -8.0680   21.3890 C   0  0  0  0  0  0  0  0  0  0  0  0
  -22.0320   -9.0260   20.4530 C   0  0  0  0  0  3  0  0  0  0  0  0
  -22.7500  -10.2190   20.2690 C   0  0  0  0  0  3  0  0  0  0  0  0
  -21.7150   -6.9190   21.4810 O   0  0  0  0  0  0  0  0  0  0  0  0
  -21.6840   -6.1720   22.6320 C   0  0  0  0  0  0  0  0  0  0  0  0
  -21.2560   -6.7160   23.8620 C   0  0  0  0  0  3  0  0  0  0  0  0
  -21.1720   -5.8940   25.0050 C   0  0  0  0  0  3  0  0  0  0  0  0
  -21.5070   -4.5300   24.9170 C   0  0  0  0  0  0  0  0  0  0  0  0
  -21.9290   -3.9860   23.6920 C   0  0  0  0  0  3  0  0  0  0  0  0
  -22.0140   -4.8040   22.5510 C   0  0  0  0  0  0  0  0  0  0  0  0
  -22.4000   -4.2690   21.3680 F   0  0  0  0  0  0  0  0  0  0  0  0
  -21.4210   -3.7390   26.0120 F   0  0  0  0  0  0  0  0  0  0  0  0
  -22.7480  -13.5600   21.1510 C   0  0  0  0  0  0  0  0  0  0  0  0
  -22.0350  -12.8610   22.0260 N   0  0  0  0  0  0  0  0  0  0  0  0
  -22.2970  -14.5800   20.6300 O   0  0  0  0  0  0  0  0  0  0  0  0
  -22.4140  -12.0370   22.4690 H   0  0  0  0  0  0  0  0  0  0  0  0
  -21.0970  -13.1550   22.2580 H   0  0  0  0  0  0  0  0  0  0  0  0
  -25.3430  -15.2570   20.3120 N   0  0  0  0  0  0  0  0  0  0  0  0
  -24.5640  -15.8960   20.4280 H   0  0  0  0  0  0  0  0  0  0  0  0
  -26.1660  -15.7050   19.9330 H   0  0  0  0  0  0  0  0  0  0  0  0
  -27.1040  -21.3490   18.3860 O   0  0  0  0  0  0  0  0  0  0  0  0
  -27.1000  -20.4040   18.5230 H   0  0  0  0  0  0  0  0  0  0  0  0
  -28.2310  -25.9760   20.2860 O   0  0  0  0  0  0  0  0  0  0  0  0
  -24.6390  -31.9060   23.2540 C   0  0  0  0  0  0  0  0  0  0  0  0
  -27.1690  -27.0150   20.2650 C   0  0  0  0  0  0  0  0  0  0  0  0
  -23.4350  -30.5090   21.6230 C   0  0  0  0  0  3  0  0  0  0  0  0
  -24.8720  -28.8900   20.2120 C   0  0  0  0  0  0  0  0  0  0  0  0
  -26.0010  -30.7100   21.4740 C   0  0  0  0  0  2  0  0  0  0  0  0
  -26.0610  -29.2970   20.8300 C   0  0  0  0  0  0  0  0  0  0  0  0
  -27.2010  -28.3790   20.8330 C   0  0  0  0  0  3  0  0  0  0  0  0
  -25.9480  -26.7530   19.6050 C   0  0  0  0  0  3  0  0  0  0  0  0
  -24.8390  -27.6360   19.5820 C   0  0  0  0  0  3  0  0  0  0  0  0
  -23.6600  -29.8160   20.2500 C   0  0  0  0  0  2  0  0  0  0  0  0
  -24.7130  -31.0690   22.1700 N   0  0  0  0  0  0  0  0  0  0  0  0
  -23.5510  -32.2050   23.7740 O   0  0  0  0  0  0  0  0  0  0  0  0
  -22.7390  -29.5210   22.5930 C   0  0  0  0  0  0  0  0  0  0  0  0
  -21.4080  -29.3590   22.4670 N   0  0  0  0  0  0  0  0  0  0  0  0
  -23.4010  -28.8990   23.4270 O   0  0  0  0  0  0  0  0  0  0  0  0
  -20.9270  -29.9120   21.7700 H   0  0  0  0  0  0  0  0  0  0  0  0
  -18.0220  -28.1590   22.9670 C   0  0  0  0  0  0  0  0  0  0  0  0
  -20.5800  -28.4310   23.2430 C   0  0  0  0  0  3  0  0  0  0  0  0
  -20.6870  -26.9920   22.6840 C   0  0  0  0  0  2  0  0  0  0  0  0
  -19.5910  -26.6570   21.6670 C   0  0  0  0  0  2  0  0  0  0  0  0
  -18.2050  -26.8040   22.3020 C   0  0  0  0  0  2  0  0  0  0  0  0
  -19.1370  -28.9290   23.3940 C   0  0  0  0  0  0  0  0  0  0  0  0
  -18.9100  -30.1940   23.9770 C   0  0  0  0  0  3  0  0  0  0  0  0
  -17.6010  -30.6900   24.1360 C   0  0  0  0  0  3  0  0  0  0  0  0
  -16.5020  -29.9170   23.7230 C   0  0  0  0  0  3  0  0  0  0  0  0
  -16.7130  -28.6540   23.1440 C   0  0  0  0  0  3  0  0  0  0  0  0
  -25.9140  -32.5440   23.8820 C   0  0  0  0  0  3  0  0  0  0  0  0
  -26.4160  -31.7830   25.1720 C   0  0  1  0  0  0  0  0  0  0  0  0
  -25.3130  -31.5650   26.2360 C   0  0  0  0  0  1  0  0  0  0  0  0
  -26.9920  -30.3970   24.8070 C   0  0  0  0  0  1  0  0  0  0  0  0
  -27.5670  -32.5770   25.8340 C   0  0  0  0  0  1  0  0  0  0  0  0
  -25.6030  -33.9460   24.2110 N   0  0  0  0  0  0  0  0  0  0  0  0
  -25.9230  -35.0030   23.4490 C   0  0  0  0  0  0  0  0  0  0  0  0
  -26.5720  -34.8980   22.4060 O   0  0  0  0  0  0  0  0  0  0  0  0
  -25.0240  -34.1010   25.0220 H   0  0  0  0  0  0  0  0  0  0  0  0
  -24.1790  -36.7960   23.1510 C   0  0  0  0  0  1  0  0  0  0  0  0
  -25.4490  -36.3940   23.9190 C   0  0  0  0  0  3  0  0  0  0  0  0
  -27.6070  -37.2930   24.6740 C   0  0  0  0  0  1  0  0  0  0  0  0
  -26.4750  -37.4490   23.7640 N   0  0  0  0  0  0  0  0  0  0  0  0
  -26.0710  -38.3700   23.9160 H   0  0  0  0  0  0  0  0  0  0  0  0
  1  2  1  0
  3  1  2  0
  4 51  1  0
  4  2  2  0
  5  6  2  0
  5  3  1  0
  6  4  1  0
  7  6  1  0
  8  3  1  0
  8 10  1  0
  9  8  2  0
 11 19  1  0
 12 17  1  0
 13 14  1  0
 13 12  1  0
 15 14  1  0
 15 24  1  0
 15 16  1  0
 17 11  1  0
 17 16  1  0
 18 11  2  0
 19 10  1  0
 19 20  1  0
 21 22  2  0
 22 41  1  0
 23 22  1  0
 23 26  1  0
 24 21  1  0
 24 25  1  0
 25 23  2  0
 26 27  1  0
 27 28  2  0
 29 32  1  0
 29 28  1  0
 30 29  2  0
 31 30  1  0
 31 26  2  0
 32 33  1  0
 33 34  1  0
 34 35  2  0
 36 35  1  0
 36 40  1  0
 37 36  2  0
 38 33  2  0
 38 37  1  0
 39 38  1  0
 41 42  1  0
 42 45  1  0
 42 44  1  0
 43 41  2  0
 46 47  1  0
 46 21  1  0
 48 46  1  0
 49 50  1  0
 49  5  1  0
 52 63  2  0
 53 51  1  0
 53 58  1  0
 54 62  1  0
 54 64  1  0
 55 61  1  0
 55 57  1  0
 56 62  1  0
 57 58  2  0
 57 56  1  0
 59 53  2  0
 60 59  1  0
 60 55  2  0
 61 54  1  0
 62 52  1  0
 64 66  2  0
 65 64  1  0
 67 65  1  0
 68 77  2  0
 68 73  1  0
 69 65  1  0
 69 73  1  0
 70 69  1  0
 71 72  1  0
 71 70  1  0
 72 68  1  0
 73 74  2  0
 74 75  1  0
 76 75  2  0
 77 76  1  0
 78 52  1  0
 78 83  1  0
 78 79  1  0
 79 82  1  1
 79 80  1  0
 81 79  1  0
 83 86  1  0
 84 88  1  0
 84 83  1  0
 85 84  2  0
 88 87  1  0
 90 91  1  0
 90 88  1  0
 90 89  1  0
M  ISO  4   4 101  11 100  19 100  51 101
M  END
>  <TORSDO>  (59) 
F 19

>  <SCORE>  (59) 
-15.642

>  <name>  (59) 
59

>  <ligand_id>  (59) 
59

>  <original_smiles>  (59) 
[H]Oc1c(F)c(Oc2c([H])c([H])c3c(c2[H])C([H])([H])N(C(=O)C([H])(N([H])C(=O)C([H])(N([H])C([H])([H])[H])C([H])([H])[H])C(C([H])([H])[H])(C([H])([H])[H])C([H])([H])[H])C([H])(C(=O)N([H])C2([H])c4c([H])c([H])c([H])c([H])c4C([H])([H])C([H])([H])C2([H])[H])C3([H])[H])c([H])c([H])c1C(=O)C([H])([H])N([H])C(=O)N1C([H])([H])C([H])([H])C([H])([H])C([H])(n2nc(-c3c([H])c([H])c(Oc4c([H])c([H])c(F)c([H])c4F)c([H])c3[H])c(C(=O)N([H])[H])c2N([H])[H])C1([H])[H]

>  <smiles>  (59) 
[H]Oc1c(F)c(Oc2c([H])c([H])c3c(c2[H])C([H])([H])N(C(=O)C([H])(N([H])C(=O)C([H])(N([H])C([H])([H])[H])C([H])([H])[H])C(C([H])([H])[H])(C([H])([H])[H])C([H])([H])[H])C([H])(C(=O)N([H])C2([H])c4c([H])c([H])c([H])c([H])c4C([H])([H])C([H])([H])C2([H])[H])C3([H])[H])c([H])c([H])c1C(=O)C([H])([H])N([H])C(=O)N1C([H])([H])C([H])([H])C([H])([H])C([H])(n2nc(-c3c([H])c([H])c(Oc4c([H])c([H])c(F)c([H])c4F)c([H])c3[H])c(C(=O)N([H])[H])c2N([H])[H])C1([H])[H]

$$$$
60:0:0
     RDKit          3D

 88 96  0  0  1  0  0  0  0  0999 V2000
  -30.3030  -20.4670   19.3870 C   0  0  0  0  0  3  0  0  0  0  0  0
  -30.4840  -18.9920   19.4300 C   0  0  0  0  0  3  0  0  0  0  0  0
  -28.1600  -20.2630   20.1960 C   0  0  0  0  0  3  0  0  0  0  0  0
  -29.1280  -21.2530   19.7620 C   0  0  0  0  0  0  0  0  0  0  0  0
  -28.3260  -18.7860   20.2400 C   0  0  0  0  0  0  0  0  0  0  0  0
  -29.5100  -18.0080   19.8680 C   0  0  0  0  0  0  0  0  0  0  0  0
  -27.1370  -17.9970   20.7600 C   0  0  0  0  0  1  0  0  0  0  0  0
  -30.3510  -15.2150   19.5770 C   0  0  0  0  0  0  0  0  0  0  0  0
  -30.2210  -12.8050   18.6510 C   0  0  0  0  0  2  0  0  0  0  0  0
  -29.1670  -12.6810   17.5200 C   0  0  0  0  0  2  0  0  0  0  0  0
  -27.7640  -12.4290   18.1010 C   0  0  0  0  0  2  0  0  0  0  0  0
  -27.4600  -13.3570   19.3040 C   0  0  0  0  0  3  0  0  0  0  0  0
  -28.6240  -13.4210   20.3170 C   0  0  0  0  0  2  0  0  0  0  0  0
  -29.8020  -13.9090   19.5820 N   0  0  0  0  0  0  0  0  0  0  0  0
  -31.5160  -15.2740   19.1550 O   0  0  0  0  0  0  0  0  0  0  0  0
  -29.5530  -16.4010   19.9050 N   0  0  0  0  0  0  0  0  0  0  0  0
  -28.6930  -16.0520   20.3010 H   0  0  0  0  0  0  0  0  0  0  0  0
  -25.1960  -13.9280   20.3360 C   0  0  0  0  0  0  0  0  0  0  0  0
  -24.1650  -13.1550   20.7920 C   0  0  0  0  0  0  0  0  0  0  0  0
  -24.5930  -11.7990   20.6460 C   0  0  0  0  0  0  0  0  0  0  0  0
  -26.1850  -13.0460   19.9390 N   0  0  0  0  0  0  0  0  0  0  0  0
  -25.8410  -11.7570   20.1900 N   0  0  0  0  0  0  0  0  0  0  0  0
  -23.8610  -10.5440   20.8580 C   0  0  0  0  0  0  0  0  0  0  0  0
  -24.3270   -9.5580   21.7570 C   0  0  0  0  0  3  0  0  0  0  0  0
  -23.5930   -8.3690   21.9590 C   0  0  0  0  0  3  0  0  0  0  0  0
  -22.3790   -8.1570   21.2620 C   0  0  0  0  0  0  0  0  0  0  0  0
  -21.9320   -9.1300   20.3510 C   0  0  0  0  0  3  0  0  0  0  0  0
  -22.6670  -10.3100   20.1470 C   0  0  0  0  0  3  0  0  0  0  0  0
  -21.6150   -7.0210   21.3740 O   0  0  0  0  0  0  0  0  0  0  0  0
  -21.5550   -6.3070   22.5440 C   0  0  0  0  0  0  0  0  0  0  0  0
  -21.1150   -6.8910   23.7520 C   0  0  0  0  0  3  0  0  0  0  0  0
  -21.0040   -6.1030   24.9150 C   0  0  0  0  0  3  0  0  0  0  0  0
  -21.3190   -4.7330   24.8700 C   0  0  0  0  0  0  0  0  0  0  0  0
  -21.7520   -4.1480   23.6670 C   0  0  0  0  0  3  0  0  0  0  0  0
  -21.8650   -4.9320   22.5070 C   0  0  0  0  0  0  0  0  0  0  0  0
  -22.2610   -4.3600   21.3450 F   0  0  0  0  0  0  0  0  0  0  0  0
  -21.2050   -3.9730   25.9860 F   0  0  0  0  0  0  0  0  0  0  0  0
  -22.8180  -13.6450   21.2360 C   0  0  0  0  0  0  0  0  0  0  0  0
  -22.1800  -12.9320   22.1560 N   0  0  0  0  0  0  0  0  0  0  0  0
  -22.3460  -14.6950   20.8030 O   0  0  0  0  0  0  0  0  0  0  0  0
  -22.5780  -12.0820   22.5270 H   0  0  0  0  0  0  0  0  0  0  0  0
  -21.2800  -13.2410   22.4970 H   0  0  0  0  0  0  0  0  0  0  0  0
  -25.3630  -15.3010   20.1950 N   0  0  0  0  0  0  0  0  0  0  0  0
  -24.6060  -15.9480   20.3900 H   0  0  0  0  0  0  0  0  0  0  0  0
  -26.1260  -15.7300   19.6880 H   0  0  0  0  0  0  0  0  0  0  0  0
  -29.0900  -22.9830   19.9480 C   0  0  0  0  0  3  0  0  0  0  0  0
  -28.0530  -24.3510   19.5030 C   0  0  0  0  0  3  0  0  0  0  0  0
  -28.2200  -25.9530   19.7590 O   0  0  0  0  0  0  0  0  0  0  0  0
  -24.5220  -31.6240   22.9940 C   0  0  0  0  0  0  0  0  0  0  0  0
  -27.1630  -26.9880   19.7430 C   0  0  0  0  0  0  0  0  0  0  0  0
  -23.3400  -30.2700   21.3090 C   0  0  0  0  0  3  0  0  0  0  0  0
  -24.8090  -28.7710   19.8020 C   0  0  0  0  0  0  0  0  0  0  0  0
  -25.8940  -30.5670   21.1380 C   0  0  0  0  0  2  0  0  0  0  0  0
  -25.9910  -29.1930   20.4230 C   0  0  0  0  0  0  0  0  0  0  0  0
  -27.1630  -28.3220   20.3690 C   0  0  0  0  0  3  0  0  0  0  0  0
  -25.9480  -26.7030   19.0830 C   0  0  0  0  0  3  0  0  0  0  0  0
  -24.8080  -27.5480   19.1130 C   0  0  0  0  0  3  0  0  0  0  0  0
  -23.5660  -29.6530   19.9030 C   0  0  0  0  0  2  0  0  0  0  0  0
  -24.6060  -30.8440   21.8690 N   0  0  0  0  0  0  0  0  0  0  0  0
  -23.4330  -31.8630   23.5410 O   0  0  0  0  0  0  0  0  0  0  0  0
  -22.6850  -29.2150   22.2390 C   0  0  0  0  0  0  0  0  0  0  0  0
  -21.3560  -29.0350   22.1340 N   0  0  0  0  0  0  0  0  0  0  0  0
  -23.3790  -28.5610   23.0220 O   0  0  0  0  0  0  0  0  0  0  0  0
  -20.8480  -29.6170   21.4820 H   0  0  0  0  0  0  0  0  0  0  0  0
  -17.9980  -27.7760   22.6800 C   0  0  0  0  0  0  0  0  0  0  0  0
  -20.5640  -28.0490   22.8760 C   0  0  0  0  0  3  0  0  0  0  0  0
  -20.6560  -26.6520   22.2180 C   0  0  0  0  0  2  0  0  0  0  0  0
  -19.5240  -26.3780   21.2220 C   0  0  0  0  0  2  0  0  0  0  0  0
  -18.1620  -26.4720   21.9180 C   0  0  0  0  0  2  0  0  0  0  0  0
  -19.1250  -28.5240   23.1150 C   0  0  0  0  0  0  0  0  0  0  0  0
  -18.9140  -29.7440   23.7940 C   0  0  0  0  0  3  0  0  0  0  0  0
  -17.6100  -30.2170   24.0380 C   0  0  0  0  0  3  0  0  0  0  0  0
  -16.5000  -29.4660   23.6140 C   0  0  0  0  0  3  0  0  0  0  0  0
  -16.6950  -28.2480   22.9410 C   0  0  0  0  0  3  0  0  0  0  0  0
  -25.7860  -32.2680   23.6390 C   0  0  0  0  0  3  0  0  0  0  0  0
  -25.4390  -33.6420   24.0420 N   0  0  0  0  0  0  0  0  0  0  0  0
  -25.7360  -34.7450   23.3420 C   0  0  0  0  0  0  0  0  0  0  0  0
  -26.3950  -34.7150   22.3000 O   0  0  0  0  0  0  0  0  0  0  0  0
  -24.8480  -33.7370   24.8560 H   0  0  0  0  0  0  0  0  0  0  0  0
  -23.9560  -36.5130   23.1200 C   0  0  0  0  0  1  0  0  0  0  0  0
  -25.2250  -36.0970   23.8820 C   0  0  0  0  0  3  0  0  0  0  0  0
  -27.3480  -37.0010   24.7230 C   0  0  0  0  0  1  0  0  0  0  0  0
  -26.2270  -37.1820   23.8040 N   0  0  0  0  0  0  0  0  0  0  0  0
  -25.8000  -38.0830   23.9970 H   0  0  0  0  0  0  0  0  0  0  0  0
  -26.3290  -31.4580   24.8810 C   0  0  1  0  0  0  0  0  0  0  0  0
  -25.2500  -31.1560   25.9480 C   0  0  0  0  0  1  0  0  0  0  0  0
  -26.9370  -30.1080   24.4370 C   0  0  0  0  0  1  0  0  0  0  0  0
  -27.4690  -32.2500   25.5650 C   0  0  0  0  0  1  0  0  0  0  0  0
  1  2  2  0
  1  4  1  0
  2  6  1  0
  3  5  1  0
  4 46  1  0
  4  3  2  0
  5  7  1  0
  6 16  1  0
  6  5  2  0
  8 14  1  0
  8 16  1  0
  9 14  1  0
 10 11  1  0
 10  9  1  0
 12 11  1  0
 12 21  1  0
 12 13  1  0
 14 13  1  0
 15  8  2  0
 16 17  1  0
 18 19  2  0
 19 38  1  0
 20 19  1  0
 20 23  1  0
 21 22  1  0
 21 18  1  0
 22 20  2  0
 23 24  1  0
 24 25  2  0
 26 29  1  0
 26 25  1  0
 27 26  2  0
 28 27  1  0
 28 23  2  0
 29 30  1  0
 30 31  1  0
 31 32  2  0
 33 32  1  0
 33 37  1  0
 34 33  2  0
 35 30  2  0
 35 34  1  0
 36 35  1  0
 38 39  1  0
 39 42  1  0
 39 41  1  0
 40 38  2  0
 43 18  1  0
 43 44  1  0
 45 43  1  0
 47 48  1  0
 47 46  2  0
 49 60  2  0
 50 48  1  0
 50 55  1  0
 51 59  1  0
 51 61  1  0
 52 58  1  0
 52 54  1  0
 53 59  1  0
 54 53  1  0
 55 54  2  0
 56 57  1  0
 56 50  2  0
 57 52  2  0
 58 51  1  0
 59 49  1  0
 61 63  2  0
 62 61  1  0
 64 62  1  0
 65 74  2  0
 65 70  1  0
 66 62  1  0
 66 70  1  0
 67 66  1  0
 68 69  1  0
 68 67  1  0
 69 65  1  0
 70 71  2  0
 71 72  1  0
 73 72  2  0
 74 73  1  0
 75 49  1  0
 75 76  1  0
 75 85  1  0
 76 79  1  0
 77 81  1  0
 77 76  1  0
 78 77  2  0
 81 80  1  0
 83 81  1  0
 83 84  1  0
 83 82  1  0
 85 88  1  1
 85 86  1  0
 87 85  1  0
M  ISO  4   8 100  16 100  47 101  48 101
M  END
>  <TORSDO>  (60) 
F 18

>  <SCORE>  (60) 
-14.016

>  <name>  (60) 
60

>  <ligand_id>  (60) 
60

>  <original_smiles>  (60) 
[H]c1c([H])c([H])c2c(c1[H])C([H])([H])C([H])([H])C([H])([H])C2([H])N([H])C(=O)C1([H])N(C(=O)C([H])(N([H])C(=O)C([H])(N([H])C([H])([H])[H])C([H])([H])[H])C(C([H])([H])[H])(C([H])([H])[H])C([H])([H])[H])C([H])([H])c2c([H])c(OC([H])([H])C([H])([H])c3c([H])c([H])c(N([H])C(=O)N4C([H])([H])C([H])([H])C([H])([H])C([H])(n5nc(-c6c([H])c([H])c(Oc7c([H])c([H])c(F)c([H])c7F)c([H])c6[H])c(C(=O)N([H])[H])c5N([H])[H])C4([H])[H])c(C([H])([H])[H])c3[H])c([H])c([H])c2C1([H])[H]

>  <smiles>  (60) 
[H]c1c([H])c([H])c2c(c1[H])C([H])([H])C([H])([H])C([H])([H])C2([H])N([H])C(=O)C1([H])N(C(=O)C([H])(N([H])C(=O)C([H])(N([H])C([H])([H])[H])C([H])([H])[H])C(C([H])([H])[H])(C([H])([H])[H])C([H])([H])[H])C([H])([H])c2c([H])c(OC([H])([H])C([H])([H])c3c([H])c([H])c(N([H])C(=O)N4C([H])([H])C([H])([H])C([H])([H])C([H])(n5nc(-c6c([H])c([H])c(Oc7c([H])c([H])c(F)c([H])c7F)c([H])c6[H])c(C(=O)N([H])[H])c5N([H])[H])C4([H])[H])c(C([H])([H])[H])c3[H])c([H])c([H])c2C1([H])[H]

$$$$
61:0:0
     RDKit          3D

 97106  0  0  1  0  0  0  0  0999 V2000
  -28.1330  -20.4370   17.6290 C   0  0  0  0  0  1  0  0  0  0  0  0
  -29.4750  -21.0870   18.0080 C   0  0  0  0  0  3  0  0  0  0  0  0
  -30.8430  -19.0140   21.6380 C   0  0  0  0  0  3  0  0  0  0  0  0
  -29.8250  -19.9780   21.7260 C   0  0  0  0  0  3  0  0  0  0  0  0
  -31.0200  -19.4370   19.2560 C   0  0  0  0  0  3  0  0  0  0  0  0
  -31.4280  -18.6920   20.4010 C   0  0  0  0  0  0  0  0  0  0  0  0
  -30.0000  -20.4410   19.3250 C   0  0  0  0  0  0  0  0  0  0  0  0
  -29.3520  -20.6560   20.5720 C   0  0  0  0  0  0  0  0  0  0  0  0
  -33.8900  -18.1760   20.6590 C   0  0  0  0  0  1  0  0  0  0  0  0
  -32.4980  -17.5750   20.3770 C   0  0  0  0  0  3  0  0  0  0  0  0
  -33.0570  -15.5510   18.9540 C   0  0  0  0  0  0  0  0  0  0  0  0
  -32.4020  -13.2980   18.1630 C   0  0  0  0  0  2  0  0  0  0  0  0
  -31.3000  -13.4120   17.0870 C   0  0  0  0  0  2  0  0  0  0  0  0
  -29.9050  -13.4850   17.7390 C   0  0  0  0  0  2  0  0  0  0  0  0
  -29.8330  -14.5130   18.9030 C   0  0  0  0  0  3  0  0  0  0  0  0
  -31.0300  -14.3450   19.8660 C   0  0  0  0  0  2  0  0  0  0  0  0
  -32.2630  -14.4480   19.0760 N   0  0  0  0  0  0  0  0  0  0  0  0
  -34.1230  -15.5180   18.3390 O   0  0  0  0  0  0  0  0  0  0  0  0
  -32.4740  -16.7530   19.1510 N   0  0  0  0  0  0  0  0  0  0  0  0
  -32.7090  -17.3570   18.3790 H   0  0  0  0  0  0  0  0  0  0  0  0
  -27.8120  -15.4480   20.1950 C   0  0  0  0  0  0  0  0  0  0  0  0
  -26.6640  -14.8590   20.6520 C   0  0  0  0  0  0  0  0  0  0  0  0
  -26.7680  -13.4760   20.3060 C   0  0  0  0  0  0  0  0  0  0  0  0
  -28.5560  -14.4340   19.6100 N   0  0  0  0  0  0  0  0  0  0  0  0
  -27.9390  -13.2280   19.7330 N   0  0  0  0  0  0  0  0  0  0  0  0
  -25.7950  -12.3840   20.4430 C   0  0  0  0  0  0  0  0  0  0  0  0
  -26.0840  -11.2250   21.1970 C   0  0  0  0  0  3  0  0  0  0  0  0
  -25.1240  -10.1970   21.3250 C   0  0  0  0  0  3  0  0  0  0  0  0
  -23.8610  -10.3230   20.7030 C   0  0  0  0  0  0  0  0  0  0  0  0
  -23.5880  -11.4670   19.9360 C   0  0  0  0  0  3  0  0  0  0  0  0
  -24.5440  -12.4880   19.8030 C   0  0  0  0  0  3  0  0  0  0  0  0
  -22.8780   -9.3650   20.7560 O   0  0  0  0  0  0  0  0  0  0  0  0
  -22.6660   -8.6080   21.8810 C   0  0  0  0  0  0  0  0  0  0  0  0
  -22.4780   -9.1960   23.1500 C   0  0  0  0  0  3  0  0  0  0  0  0
  -22.1930   -8.3840   24.2650 C   0  0  0  0  0  3  0  0  0  0  0  0
  -22.0900   -6.9890   24.1130 C   0  0  0  0  0  0  0  0  0  0  0  0
  -22.2720   -6.4030   22.8490 C   0  0  0  0  0  3  0  0  0  0  0  0
  -22.5570   -7.2100   21.7350 C   0  0  0  0  0  0  0  0  0  0  0  0
  -22.7090   -6.6410   20.5140 F   0  0  0  0  0  0  0  0  0  0  0  0
  -21.8080   -6.2090   25.1840 F   0  0  0  0  0  0  0  0  0  0  0  0
  -25.4910  -15.5520   21.2830 C   0  0  0  0  0  0  0  0  0  0  0  0
  -24.8580  -14.9200   22.2670 N   0  0  0  0  0  0  0  0  0  0  0  0
  -25.1590  -16.6860   20.9390 O   0  0  0  0  0  0  0  0  0  0  0  0
  -25.1490  -14.0060   22.5740 H   0  0  0  0  0  0  0  0  0  0  0  0
  -24.0710  -15.3580   22.7250 H   0  0  0  0  0  0  0  0  0  0  0  0
  -28.2710  -16.7640   20.2100 N   0  0  0  0  0  0  0  0  0  0  0  0
  -27.7250  -17.5200   20.6060 H   0  0  0  0  0  0  0  0  0  0  0  0
  -29.1530  -17.0740   19.8230 H   0  0  0  0  0  0  0  0  0  0  0  0
  -27.9840  -22.2400   21.7750 C   0  0  0  0  0  1  0  0  0  0  0  0
  -28.2400  -21.4700   20.6050 O   0  0  0  0  0  0  0  0  0  0  0  0
  -29.2970  -23.0650   16.4120 C   0  0  0  0  0  3  0  0  0  0  0  0
  -29.2680  -23.6400   18.7530 C   0  0  0  0  0  3  0  0  0  0  0  0
  -29.0080  -24.4070   16.0690 C   0  0  0  0  0  3  0  0  0  0  0  0
  -28.9670  -24.9890   18.4130 C   0  0  0  0  0  3  0  0  0  0  0  0
  -29.3910  -22.6310   17.7590 C   0  0  0  0  0  0  0  0  0  0  0  0
  -28.7920  -25.3860   17.0620 C   0  0  0  0  0  0  0  0  0  0  0  0
  -28.4830  -26.6840   16.6640 O   0  0  0  0  0  0  0  0  0  0  0  0
  -24.6050  -30.0190   21.6490 C   0  0  0  0  0  0  0  0  0  0  0  0
  -27.2770  -27.2860   16.9880 C   0  0  0  0  0  0  0  0  0  0  0  0
  -23.3740  -29.2970   19.6260 C   0  0  0  0  0  3  0  0  0  0  0  0
  -24.8180  -28.5350   17.6630 C   0  0  0  0  0  0  0  0  0  0  0  0
  -25.8710  -29.8550   19.5080 C   0  0  0  0  0  2  0  0  0  0  0  0
  -25.9820  -28.8510   18.3750 C   0  0  0  0  0  0  0  0  0  0  0  0
  -27.2100  -28.2340   18.0370 C   0  0  0  0  0  3  0  0  0  0  0  0
  -26.0970  -26.9990   16.2640 C   0  0  0  0  0  3  0  0  0  0  0  0
  -24.8710  -27.6070   16.6060 C   0  0  0  0  0  3  0  0  0  0  0  0
  -23.5400  -29.2280   18.0850 C   0  0  0  0  0  2  0  0  0  0  0  0
  -24.6340  -29.7220   20.3190 N   0  0  0  0  0  0  0  0  0  0  0  0
  -23.5440  -29.9850   22.2890 O   0  0  0  0  0  0  0  0  0  0  0  0
  -22.8250  -27.9430   20.1270 C   0  0  0  0  0  0  0  0  0  0  0  0
  -21.5390  -27.6740   19.8400 N   0  0  0  0  0  0  0  0  0  0  0  0
  -23.5510  -27.1540   20.7360 O   0  0  0  0  0  0  0  0  0  0  0  0
  -21.0050  -28.3790   19.3530 H   0  0  0  0  0  0  0  0  0  0  0  0
  -18.4360  -25.8870   19.3600 C   0  0  0  0  0  0  0  0  0  0  0  0
  -20.8240  -26.4440   20.1790 C   0  0  0  0  0  3  0  0  0  0  0  0
  -21.2920  -25.2660   19.2920 C   0  0  0  0  0  2  0  0  0  0  0  0
  -20.4360  -25.0730   18.0370 C   0  0  0  0  0  2  0  0  0  0  0  0
  -18.9730  -24.8220   18.4180 C   0  0  0  0  0  2  0  0  0  0  0  0
  -19.3050  -26.6540   20.1770 C   0  0  0  0  0  0  0  0  0  0  0  0
  -18.7600  -27.6530   21.0130 C   0  0  0  0  0  3  0  0  0  0  0  0
  -17.3720  -27.8850   21.0430 C   0  0  0  0  0  3  0  0  0  0  0  0
  -16.5150  -27.1120   20.2410 C   0  0  0  0  0  3  0  0  0  0  0  0
  -17.0460  -26.1130   19.4040 C   0  0  0  0  0  3  0  0  0  0  0  0
  -25.8900  -30.4360   22.4230 C   0  0  0  0  0  3  0  0  0  0  0  0
  -26.5640  -29.2370   23.1980 C   0  0  1  0  0  0  0  0  0  0  0  0
  -25.5910  -28.4600   24.1120 C   0  0  0  0  0  1  0  0  0  0  0  0
  -27.1950  -28.2280   22.2080 C   0  0  0  0  0  1  0  0  0  0  0  0
  -27.7170  -29.7750   24.0770 C   0  0  0  0  0  1  0  0  0  0  0  0
  -25.5180  -31.5120   23.3520 N   0  0  0  0  0  0  0  0  0  0  0  0
  -25.9080  -32.7890   23.2310 C   0  0  0  0  0  0  0  0  0  0  0  0
  -26.6880  -33.1710   22.3550 O   0  0  0  0  0  0  0  0  0  0  0  0
  -24.8390  -31.2830   24.0610 H   0  0  0  0  0  0  0  0  0  0  0  0
  -24.2660  -34.6640   23.5700 C   0  0  0  0  0  1  0  0  0  0  0  0
  -25.3450  -33.8020   24.2460 C   0  0  0  0  0  3  0  0  0  0  0  0
  -27.2860  -33.9700   25.7400 C   0  0  0  0  0  1  0  0  0  0  0  0
  -26.3790  -34.6770   24.8390 N   0  0  0  0  0  0  0  0  0  0  0  0
  -25.9530  -35.4440   25.3530 H   0  0  0  0  0  0  0  0  0  0  0  0
  2  1  1  0
  2  7  1  0
  3  4  1  0
  5  7  2  0
  5  6  1  0
  6  3  2  0
  7  8  1  0
  8 50  1  0
  8  4  2  0
 10  6  1  0
 10  9  1  0
 11 17  1  0
 11 19  1  0
 12 17  1  0
 13 14  1  0
 13 12  1  0
 15 14  1  0
 15 24  1  0
 15 16  1  0
 17 16  1  0
 18 11  2  0
 19 10  1  0
 20 19  1  0
 21 46  1  0
 21 22  2  0
 22 41  1  0
 23 26  1  0
 23 22  1  0
 24 25  1  0
 24 21  1  0
 25 23  2  0
 26 27  1  0
 27 28  2  0
 29 32  1  0
 29 28  1  0
 30 29  2  0
 31 30  1  0
 31 26  2  0
 32 33  1  0
 33 34  1  0
 34 35  2  0
 36 35  1  0
 36 40  1  0
 37 36  2  0
 38 33  2  0
 38 37  1  0
 39 38  1  0
 41 42  1  0
 42 44  1  0
 42 45  1  0
 43 41  2  0
 46 47  1  0
 48 46  1  0
 50 49  1  0
 51 55  1  0
 53 51  2  0
 53 56  1  0
 54 52  1  0
 55  2  1  0
 55 52  2  0
 56 54  2  0
 57 59  1  0
 57 56  1  0
 58 69  2  0
 59 64  1  0
 60 70  1  0
 60 68  1  0
 61 67  1  0
 61 63  1  0
 62 68  1  0
 63 62  1  0
 64 63  2  0
 65 66  1  0
 65 59  2  0
 66 61  2  0
 67 60  1  0
 68 58  1  0
 70 72  2  0
 71 70  1  0
 73 71  1  0
 74 83  2  0
 74 79  1  0
 75 71  1  0
 76 75  1  0
 77 78  1  0
 77 76  1  0
 78 74  1  0
 79 75  1  0
 79 80  2  0
 80 81  1  0
 82 81  2  0
 83 82  1  0
 84 58  1  0
 84 85  1  0
 84 89  1  0
 85 88  1  1
 85 86  1  0
 87 85  1  0
 89 92  1  0
 90 89  1  0
 90 94  1  0
 91 90  2  0
 94 93  1  0
 94 96  1  0
 96 97  1  0
 96 95  1  0
M  ISO  4  11 100  19 100  56 101  57 101
M  END
>  <TORSDO>  (61) 
F 20

>  <SCORE>  (61) 
-2.468

>  <name>  (61) 
61

>  <ligand_id>  (61) 
61

>  <original_smiles>  (61) 
[H]c1c([H])c([H])c2c(c1[H])C([H])([H])C([H])([H])C([H])([H])C2([H])N([H])C(=O)C1([H])N(C(=O)C([H])(N([H])C(=O)C([H])(N([H])C([H])([H])[H])C([H])([H])[H])C(C([H])([H])[H])(C([H])([H])[H])C([H])([H])[H])C([H])([H])c2c([H])c(Oc3c([H])c([H])c(C([H])(c4c([H])c(C([H])(N([H])C(=O)N5C([H])([H])C([H])([H])C([H])([H])C([H])(n6nc(-c7c([H])c([H])c(Oc8c([H])c([H])c(F)c([H])c8F)c([H])c7[H])c(C(=O)N([H])[H])c6N([H])[H])C5([H])[H])C([H])([H])[H])c([H])c([H])c4OC([H])([H])[H])C([H])([H])[H])c([H])c3[H])c([H])c([H])c2C1([H])[H]

>  <smiles>  (61) 
[H]c1c([H])c([H])c2c(c1[H])C([H])([H])C([H])([H])C([H])([H])C2([H])N([H])C(=O)C1([H])N(C(=O)C([H])(N([H])C(=O)C([H])(N([H])C([H])([H])[H])C([H])([H])[H])C(C([H])([H])[H])(C([H])([H])[H])C([H])([H])[H])C([H])([H])c2c([H])c(Oc3c([H])c([H])c(C([H])(c4c([H])c(C([H])(N([H])C(=O)N5C([H])([H])C([H])([H])C([H])([H])C([H])(n6nc(-c7c([H])c([H])c(Oc8c([H])c([H])c(F)c([H])c8F)c([H])c7[H])c(C(=O)N([H])[H])c6N([H])[H])C5([H])[H])C([H])([H])[H])c([H])c([H])c4OC([H])([H])[H])C([H])([H])[H])c([H])c3[H])c([H])c([H])c2C1([H])[H]

$$$$
62:0:0
     RDKit          3D

 97105  0  0  1  0  0  0  0  0999 V2000
  -29.0970  -20.2130   18.7280 C   0  0  0  0  0  2  0  0  0  0  0  0
  -29.5170  -17.4110   21.4650 C   0  0  0  0  0  3  0  0  0  0  0  0
  -30.3480  -16.2080   19.4640 C   0  0  0  0  0  0  0  0  0  0  0  0
  -30.1720  -16.3010   20.8860 C   0  0  0  0  0  0  0  0  0  0  0  0
  -29.1430  -18.5740   20.7680 C   0  0  0  0  0  0  0  0  0  0  0  0
  -30.0760  -17.5200   18.7690 C   0  0  0  0  0  0  0  0  0  0  0  0
  -29.5140  -18.7600   19.4120 C   0  0  0  0  0  0  0  0  0  0  0  0
  -28.3140  -19.5900   21.5510 C   0  0  0  0  0  1  0  0  0  0  0  0
  -30.9180  -14.8270   18.8250 C   0  0  0  0  0  0  0  0  0  0  0  0
  -30.5490  -12.4720   17.9190 C   0  0  0  0  0  2  0  0  0  0  0  0
  -29.3780  -12.4550   16.9090 C   0  0  0  0  0  2  0  0  0  0  0  0
  -28.0420  -12.2560   17.6450 C   0  0  0  0  0  2  0  0  0  0  0  0
  -27.9110  -13.1860   18.8750 C   0  0  0  0  0  3  0  0  0  0  0  0
  -29.1740  -13.1730   19.7480 C   0  0  0  0  0  2  0  0  0  0  0  0
  -30.3120  -13.5680   18.9080 N   0  0  0  0  0  0  0  0  0  0  0  0
  -31.9640  -14.8780   18.1560 O   0  0  0  0  0  0  0  0  0  0  0  0
  -25.8520  -13.8150   20.2580 C   0  0  0  0  0  0  0  0  0  0  0  0
  -24.8460  -13.0680   20.8060 C   0  0  0  0  0  0  0  0  0  0  0  0
  -25.1670  -11.7030   20.5240 C   0  0  0  0  0  0  0  0  0  0  0  0
  -26.7130  -12.9090   19.6620 N   0  0  0  0  0  0  0  0  0  0  0  0
  -26.3310  -11.6260   19.8890 N   0  0  0  0  0  0  0  0  0  0  0  0
  -24.4000  -10.4740   20.7730 C   0  0  0  0  0  0  0  0  0  0  0  0
  -24.8150   -9.5240   21.7320 C   0  0  0  0  0  3  0  0  0  0  0  0
  -24.0510   -8.3610   21.9660 C   0  0  0  0  0  3  0  0  0  0  0  0
  -22.8580   -8.1380   21.2430 C   0  0  0  0  0  0  0  0  0  0  0  0
  -22.4580   -9.0790   20.2790 C   0  0  0  0  0  3  0  0  0  0  0  0
  -23.2210  -10.2330   20.0430 C   0  0  0  0  0  3  0  0  0  0  0  0
  -22.0660   -7.0230   21.3840 O   0  0  0  0  0  0  0  0  0  0  0  0
  -21.8430   -6.4520   22.6100 C   0  0  0  0  0  0  0  0  0  0  0  0
  -21.2480   -7.1690   23.6700 C   0  0  0  0  0  3  0  0  0  0  0  0
  -20.9680   -6.5200   24.8890 C   0  0  0  0  0  3  0  0  0  0  0  0
  -21.2770   -5.1560   25.0500 C   0  0  0  0  0  0  0  0  0  0  0  0
  -21.8680   -4.4400   23.9930 C   0  0  0  0  0  3  0  0  0  0  0  0
  -22.1470   -5.0850   22.7770 C   0  0  0  0  0  0  0  0  0  0  0  0
  -22.6950   -4.3830   21.7560 F   0  0  0  0  0  0  0  0  0  0  0  0
  -21.0030   -4.5310   26.2190 F   0  0  0  0  0  0  0  0  0  0  0  0
  -23.6080  -13.5940   21.4730 C   0  0  0  0  0  0  0  0  0  0  0  0
  -23.1340  -12.9180   22.5130 N   0  0  0  0  0  0  0  0  0  0  0  0
  -23.0800  -14.6420   21.1040 O   0  0  0  0  0  0  0  0  0  0  0  0
  -23.5820  -12.0730   22.8320 H   0  0  0  0  0  0  0  0  0  0  0  0
  -22.3190  -13.2570   23.0020 H   0  0  0  0  0  0  0  0  0  0  0  0
  -26.0960  -15.1800   20.1920 N   0  0  0  0  0  0  0  0  0  0  0  0
  -25.4720  -15.8680   20.5960 H   0  0  0  0  0  0  0  0  0  0  0  0
  -26.9100  -15.5970   19.7550 H   0  0  0  0  0  0  0  0  0  0  0  0
  -31.6650  -18.3410   16.9420 C   0  0  0  0  0  1  0  0  0  0  0  0
  -30.3510  -17.6180   17.2710 C   0  0  0  0  0  2  0  0  0  0  0  0
  -30.6980  -15.2680   21.9010 C   0  0  0  0  0  2  0  0  0  0  0  0
  -31.7420  -15.0450   24.2830 C   0  0  0  0  0  1  0  0  0  0  0  0
  -31.5630  -15.9040   23.0200 C   0  0  0  0  0  2  0  0  0  0  0  0
  -29.3560  -21.7640   19.3570 C   0  0  0  0  0  2  0  0  0  0  0  0
  -28.3110  -23.1120   19.3840 C   0  0  0  0  0  3  0  0  0  0  0  0
  -27.7270  -23.2640   20.7370 N   0  0  0  0  0  4  0  0  0  0  0  0
  -27.1790  -24.1080   20.7850 H   0  0  0  0  0  0  0  0  0  0  0  0
  -28.4380  -23.3340   21.4440 H   0  0  0  0  0  0  0  0  0  0  0  0
  -27.1140  -22.4960   20.9560 H   0  0  0  0  0  0  0  0  0  0  0  0
  -28.6200  -24.6580   18.7960 C   0  0  0  0  0  2  0  0  0  0  0  0
  -28.4650  -26.0690   19.4370 O   0  0  0  0  0  0  0  0  0  0  0  0
  -24.6700  -31.3840   22.7330 C   0  0  0  0  0  0  0  0  0  0  0  0
  -27.3540  -26.9730   19.3790 C   0  0  0  0  0  0  0  0  0  0  0  0
  -23.4820  -30.0400   21.0390 C   0  0  0  0  0  3  0  0  0  0  0  0
  -24.9610  -28.6110   19.4850 C   0  0  0  0  0  0  0  0  0  0  0  0
  -26.0170  -30.4230   20.8340 C   0  0  0  0  0  2  0  0  0  0  0  0
  -26.1290  -29.0720   20.1000 C   0  0  0  0  0  0  0  0  0  0  0  0
  -27.3200  -28.2660   20.0400 C   0  0  0  0  0  3  0  0  0  0  0  0
  -26.1590  -26.6040   18.7250 C   0  0  0  0  0  3  0  0  0  0  0  0
  -24.9890  -27.3950   18.7810 C   0  0  0  0  0  3  0  0  0  0  0  0
  -23.6980  -29.4500   19.6150 C   0  0  0  0  0  2  0  0  0  0  0  0
  -24.7430  -30.6340   21.5900 N   0  0  0  0  0  0  0  0  0  0  0  0
  -23.5900  -31.5930   23.3030 O   0  0  0  0  0  0  0  0  0  0  0  0
  -22.8750  -28.9460   21.9560 C   0  0  0  0  0  0  0  0  0  0  0  0
  -21.5430  -28.7840   21.9110 N   0  0  0  0  0  0  0  0  0  0  0  0
  -23.6030  -28.2540   22.6710 O   0  0  0  0  0  0  0  0  0  0  0  0
  -21.0160  -29.4020   21.3120 H   0  0  0  0  0  0  0  0  0  0  0  0
  -18.1880  -27.6190   22.6210 C   0  0  0  0  0  0  0  0  0  0  0  0
  -20.7700  -27.7840   22.6500 C   0  0  0  0  0  3  0  0  0  0  0  0
  -20.7590  -26.4280   21.9060 C   0  0  0  0  0  2  0  0  0  0  0  0
  -19.5490  -26.2540   20.9830 C   0  0  0  0  0  2  0  0  0  0  0  0
  -18.2450  -26.3550   21.7810 C   0  0  0  0  0  2  0  0  0  0  0  0
  -19.3710  -28.2990   23.0160 C   0  0  0  0  0  0  0  0  0  0  0  0
  -19.2580  -29.4890   23.7690 C   0  0  0  0  0  3  0  0  0  0  0  0
  -17.9960  -29.9960   24.1270 C   0  0  0  0  0  3  0  0  0  0  0  0
  -16.8290  -29.3100   23.7480 C   0  0  0  0  0  3  0  0  0  0  0  0
  -16.9260  -28.1220   23.0020 C   0  0  0  0  0  3  0  0  0  0  0  0
  -25.9370  -32.0370   23.3660 C   0  0  0  0  0  3  0  0  0  0  0  0
  -26.5610  -31.1730   24.5330 C   0  0  1  0  0  0  0  0  0  0  0  0
  -25.5350  -30.7540   25.6110 C   0  0  0  0  0  1  0  0  0  0  0  0
  -27.2080  -29.8850   23.9730 C   0  0  0  0  0  1  0  0  0  0  0  0
  -27.6880  -31.9680   25.2340 C   0  0  0  0  0  1  0  0  0  0  0  0
  -25.5550  -33.3670   23.8660 N   0  0  0  0  0  0  0  0  0  0  0  0
  -25.7840  -34.5210   23.2210 C   0  0  0  0  0  0  0  0  0  0  0  0
  -26.4050  -34.5770   22.1590 O   0  0  0  0  0  0  0  0  0  0  0  0
  -24.9950  -33.3890   24.7050 H   0  0  0  0  0  0  0  0  0  0  0  0
  -23.9370  -36.2290   23.1490 C   0  0  0  0  0  1  0  0  0  0  0  0
  -25.2360  -35.8140   23.8580 C   0  0  0  0  0  3  0  0  0  0  0  0
  -27.3390  -36.7420   24.7200 C   0  0  0  0  0  1  0  0  0  0  0  0
  -26.1950  -36.9370   23.8330 N   0  0  0  0  0  0  0  0  0  0  0  0
  -25.7400  -37.8090   24.0890 H   0  0  0  0  0  0  0  0  0  0  0  0
  1 50  1  0
  1  7  1  0
  3  4  2  0
  4  2  1  0
  4 47  1  0
  5  2  2  0
  5  8  1  0
  6  7  2  0
  6  3  1  0
  7  5  1  0
  9 15  1  0
  9  3  1  0
 10 15  1  0
 11 12  1  0
 11 10  1  0
 13 12  1  0
 13 20  1  0
 13 14  1  0
 15 14  1  0
 16  9  2  0
 17 18  2  0
 18 37  1  0
 19 22  1  0
 19 18  1  0
 20 21  1  0
 20 17  1  0
 21 19  2  0
 22 23  1  0
 23 24  2  0
 25 28  1  0
 25 24  1  0
 26 25  2  0
 27 26  1  0
 27 22  2  0
 28 29  1  0
 29 34  2  0
 29 30  1  0
 30 31  2  0
 31 32  1  0
 32 36  1  0
 33 32  2  0
 34 33  1  0
 35 34  1  0
 37 38  1  0
 38 40  1  0
 38 41  1  0
 39 37  2  0
 42 17  1  0
 42 43  1  0
 44 42  1  0
 45 46  1  0
 46  6  1  0
 47 49  1  0
 49 48  1  0
 50 51  1  0
 51 56  1  0
 51 52  1  0
 52 53  1  0
 52 55  1  0
 52 54  1  0
 56 57  1  0
 58 69  2  0
 59 57  1  0
 59 64  1  0
 60 68  1  0
 60 70  1  0
 61 67  1  0
 61 63  1  0
 62 68  1  0
 63 62  1  0
 64 63  2  0
 65 66  1  0
 65 59  2  0
 66 61  2  0
 67 60  1  0
 68 58  1  0
 70 72  2  0
 71 70  1  0
 73 71  1  0
 74 83  2  0
 74 79  1  0
 75 71  1  0
 75 79  1  0
 76 75  1  0
 77 78  1  0
 77 76  1  0
 78 74  1  0
 79 80  2  0
 80 81  1  0
 82 81  2  0
 83 82  1  0
 84 58  1  0
 84 89  1  0
 84 85  1  0
 85 88  1  1
 85 86  1  0
 87 85  1  0
 89 92  1  0
 90 94  1  0
 90 89  1  0
 91 90  2  0
 94 93  1  0
 96 94  1  0
 96 97  1  0
 96 95  1  0
M  ISO  4   3 100   9 100  56 101  57 101
M  END
>  <TORSDO>  (62) 
F 24

>  <SCORE>  (62) 
-1.357

>  <name>  (62) 
62

>  <ligand_id>  (62) 
62

>  <original_smiles>  (62) 
[H]c1c([H])c([H])c2c(c1[H])C([H])([H])C([H])([H])C([H])([H])C2([H])N([H])C(=O)C1([H])N(C(=O)C([H])(N([H])C(=O)C([H])(N([H])C([H])([H])[H])C([H])([H])[H])C(C([H])([H])[H])(C([H])([H])[H])C([H])([H])[H])C([H])([H])c2c([H])c(OC([H])([H])C([H])(C([H])([H])C([H])([H])c3c(C([H])([H])[H])c([H])c(C([H])([H])C([H])([H])C([H])([H])[H])c(C(=O)N4C([H])([H])C([H])([H])C([H])([H])C([H])(n5nc(-c6c([H])c([H])c(Oc7c([H])c([H])c(F)c([H])c7F)c([H])c6[H])c(C(=O)N([H])[H])c5N([H])[H])C4([H])[H])c3C([H])([H])C([H])([H])[H])[N+]([H])([H])[H])c([H])c([H])c2C1([H])[H]

>  <smiles>  (62) 
[H]c1c([H])c([H])c2c(c1[H])C([H])([H])C([H])([H])C([H])([H])C2([H])N([H])C(=O)C1([H])N(C(=O)C([H])(N([H])C(=O)C([H])(N([H])C([H])([H])[H])C([H])([H])[H])C(C([H])([H])[H])(C([H])([H])[H])C([H])([H])[H])C([H])([H])c2c([H])c(OC([H])([H])C([H])(C([H])([H])C([H])([H])c3c(C([H])([H])[H])c([H])c(C([H])([H])C([H])([H])C([H])([H])[H])c(C(=O)N4C([H])([H])C([H])([H])C([H])([H])C([H])(n5nc(-c6c([H])c([H])c(Oc7c([H])c([H])c(F)c([H])c7F)c([H])c6[H])c(C(=O)N([H])[H])c5N([H])[H])C4([H])[H])c3C([H])([H])C([H])([H])[H])[N+]([H])([H])[H])c([H])c([H])c2C1([H])[H]

$$$$
63:0:0
     RDKit          3D

 88 96  0  0  1  0  0  0  0  0999 V2000
  -30.4200  -19.9620   20.0920 C   0  0  0  0  0  3  0  0  0  0  0  0
  -30.7200  -18.4810   20.0690 C   0  0  0  0  0  3  0  0  0  0  0  0
  -28.2430  -19.5380   20.2610 C   0  0  0  0  0  3  0  0  0  0  0  0
  -29.1520  -20.7210   20.1820 C   0  0  0  0  0  0  0  0  0  0  0  0
  -29.8350  -17.3000   20.1420 C   0  0  0  0  0  0  0  0  0  0  0  0
  -28.5320  -18.0250   20.2470 C   0  0  0  0  0  0  0  0  0  0  0  0
  -30.3830  -15.6230   20.0920 C   0  0  0  0  0  0  0  0  0  0  0  0
  -30.3770  -13.0920   19.3100 C   0  0  0  0  0  2  0  0  0  0  0  0
  -29.4600  -12.7350   18.1100 C   0  0  0  0  0  2  0  0  0  0  0  0
  -28.0430  -12.3990   18.5960 C   0  0  0  0  0  2  0  0  0  0  0  0
  -27.5630  -13.4010   19.6720 C   0  0  0  0  0  3  0  0  0  0  0  0
  -28.6200  -13.7170   20.7550 C   0  0  0  0  0  2  0  0  0  0  0  0
  -29.8020  -14.2880   20.0750 N   0  0  0  0  0  0  0  0  0  0  0  0
  -31.6030  -15.4830   19.8840 O   0  0  0  0  0  0  0  0  0  0  0  0
  -25.2240  -13.9010   20.5270 C   0  0  0  0  0  0  0  0  0  0  0  0
  -24.1820  -13.1090   20.9140 C   0  0  0  0  0  0  0  0  0  0  0  0
  -24.6610  -11.7650   20.8450 C   0  0  0  0  0  0  0  0  0  0  0  0
  -26.2680  -13.0450   20.2350 N   0  0  0  0  0  0  0  0  0  0  0  0
  -25.9450  -11.7490   20.4940 N   0  0  0  0  0  0  0  0  0  0  0  0
  -23.9450  -10.4970   21.0340 C   0  0  0  0  0  0  0  0  0  0  0  0
  -24.3940   -9.5230   21.9530 C   0  0  0  0  0  3  0  0  0  0  0  0
  -23.6700   -8.3230   22.1330 C   0  0  0  0  0  3  0  0  0  0  0  0
  -22.4860   -8.0900   21.3960 C   0  0  0  0  0  0  0  0  0  0  0  0
  -22.0570   -9.0530   20.4650 C   0  0  0  0  0  3  0  0  0  0  0  0
  -22.7800  -10.2430   20.2830 C   0  0  0  0  0  3  0  0  0  0  0  0
  -21.7340   -6.9430   21.4860 O   0  0  0  0  0  0  0  0  0  0  0  0
  -21.6860   -6.2030   22.6400 C   0  0  0  0  0  0  0  0  0  0  0  0
  -21.2270   -6.7510   23.8580 C   0  0  0  0  0  3  0  0  0  0  0  0
  -21.1290   -5.9360   25.0040 C   0  0  0  0  0  3  0  0  0  0  0  0
  -21.4770   -4.5750   24.9320 C   0  0  0  0  0  0  0  0  0  0  0  0
  -21.9290   -4.0260   23.7190 C   0  0  0  0  0  3  0  0  0  0  0  0
  -22.0290   -4.8380   22.5750 C   0  0  0  0  0  0  0  0  0  0  0  0
  -22.4450   -4.2990   21.4030 F   0  0  0  0  0  0  0  0  0  0  0  0
  -21.3760   -3.7900   26.0300 F   0  0  0  0  0  0  0  0  0  0  0  0
  -22.7930  -13.5760   21.2320 C   0  0  0  0  0  0  0  0  0  0  0  0
  -22.0990  -12.8720   22.1190 N   0  0  0  0  0  0  0  0  0  0  0  0
  -22.3340  -14.6030   20.7330 O   0  0  0  0  0  0  0  0  0  0  0  0
  -22.4860  -12.0430   22.5440 H   0  0  0  0  0  0  0  0  0  0  0  0
  -21.1690  -13.1690   22.3770 H   0  0  0  0  0  0  0  0  0  0  0  0
  -25.3610  -15.2730   20.3720 N   0  0  0  0  0  0  0  0  0  0  0  0
  -24.5950  -15.9110   20.5520 H   0  0  0  0  0  0  0  0  0  0  0  0
  -26.2460  -15.7460   20.1990 H   0  0  0  0  0  0  0  0  0  0  0  0
  -29.0680  -22.5380   20.2470 C   0  0  0  0  0  0  0  0  0  0  0  0
  -30.2070  -22.9960   20.3860 O   0  0  0  0  0  0  0  0  0  0  0  0
  -27.9200  -23.9590   20.1540 C   0  0  0  0  0  2  0  0  0  0  0  0
  -28.1720  -25.6690   20.2800 O   0  0  0  0  0  0  0  0  0  0  0  0
  -24.6630  -31.8580   23.2560 C   0  0  0  0  0  0  0  0  0  0  0  0
  -27.1960  -26.8550   20.2330 C   0  0  0  0  0  0  0  0  0  0  0  0
  -23.4790  -30.4840   21.5960 C   0  0  0  0  0  3  0  0  0  0  0  0
  -24.9290  -28.8540   20.1780 C   0  0  0  0  0  0  0  0  0  0  0  0
  -26.0560  -30.6350   21.4880 C   0  0  0  0  0  2  0  0  0  0  0  0
  -26.1200  -29.2150   20.8190 C   0  0  0  0  0  0  0  0  0  0  0  0
  -27.2420  -28.2430   20.8130 C   0  0  0  0  0  3  0  0  0  0  0  0
  -25.9720  -26.6870   19.5410 C   0  0  0  0  0  3  0  0  0  0  0  0
  -24.8890  -27.6150   19.5160 C   0  0  0  0  0  3  0  0  0  0  0  0
  -23.7220  -29.8020   20.2200 C   0  0  0  0  0  2  0  0  0  0  0  0
  -24.7560  -31.0230   22.1660 N   0  0  0  0  0  0  0  0  0  0  0  0
  -23.5690  -32.1570   23.7640 O   0  0  0  0  0  0  0  0  0  0  0  0
  -22.7560  -29.4960   22.5520 C   0  0  0  0  0  0  0  0  0  0  0  0
  -21.4230  -29.3500   22.4170 N   0  0  0  0  0  0  0  0  0  0  0  0
  -23.4050  -28.8590   23.3840 O   0  0  0  0  0  0  0  0  0  0  0  0
  -20.9520  -29.9150   21.7250 H   0  0  0  0  0  0  0  0  0  0  0  0
  -18.0230  -28.1710   22.9080 C   0  0  0  0  0  0  0  0  0  0  0  0
  -20.5850  -28.4120   23.1750 C   0  0  0  0  0  3  0  0  0  0  0  0
  -20.6730  -26.9860   22.5820 C   0  0  0  0  0  2  0  0  0  0  0  0
  -19.5700  -26.6890   21.5620 C   0  0  0  0  0  2  0  0  0  0  0  0
  -18.1890  -26.8330   22.2070 C   0  0  0  0  0  2  0  0  0  0  0  0
  -19.1480  -28.9190   23.3470 C   0  0  0  0  0  0  0  0  0  0  0  0
  -18.9360  -30.1700   23.9670 C   0  0  0  0  0  3  0  0  0  0  0  0
  -17.6330  -30.6720   24.1490 C   0  0  0  0  0  3  0  0  0  0  0  0
  -16.5240  -29.9220   23.7220 C   0  0  0  0  0  3  0  0  0  0  0  0
  -16.7190  -28.6720   23.1080 C   0  0  0  0  0  3  0  0  0  0  0  0
  -25.9260  -32.4940   23.9110 C   0  0  0  0  0  3  0  0  0  0  0  0
  -26.3990  -31.7300   25.2100 C   0  0  1  0  0  0  0  0  0  0  0  0
  -25.2770  -31.5190   26.2540 C   0  0  0  0  0  1  0  0  0  0  0  0
  -26.9740  -30.3400   24.8570 C   0  0  0  0  0  1  0  0  0  0  0  0
  -27.5440  -32.5170   25.8920 C   0  0  0  0  0  1  0  0  0  0  0  0
  -25.6140  -33.8980   24.2420 N   0  0  0  0  0  0  0  0  0  0  0  0
  -25.9450  -34.9590   23.4920 C   0  0  0  0  0  0  0  0  0  0  0  0
  -26.6020  -34.8580   22.4530 O   0  0  0  0  0  0  0  0  0  0  0  0
  -25.0280  -34.0490   25.0490 H   0  0  0  0  0  0  0  0  0  0  0  0
  -24.2100  -36.7640   23.1970 C   0  0  0  0  0  1  0  0  0  0  0  0
  -25.4760  -36.3510   23.9670 C   0  0  0  0  0  3  0  0  0  0  0  0
  -27.6320  -37.2430   24.7390 C   0  0  0  0  0  1  0  0  0  0  0  0
  -26.5060  -37.4030   23.8200 N   0  0  0  0  0  0  0  0  0  0  0  0
  -26.1050  -38.3250   23.9670 H   0  0  0  0  0  0  0  0  0  0  0  0
  -27.4290  -17.2370   20.3510 O   0  0  0  0  0  0  0  0  0  0  0  0
  -26.6380  -17.7440   20.5110 H   0  0  0  0  0  0  0  0  0  0  0  0
  1  4  1  0
  2  1  2  0
  2  5  1  0
  4 43  1  0
  4  3  2  0
  5  6  2  0
  6  3  1  0
  6 87  1  0
  7  5  1  0
  8 13  1  0
  9 10  1  0
  9  8  1  0
 11 10  1  0
 11 18  1  0
 11 12  1  0
 13  7  1  0
 13 12  1  0
 14  7  2  0
 15 16  2  0
 16 35  1  0
 17 16  1  0
 17 20  1  0
 18 19  1  0
 18 15  1  0
 19 17  2  0
 20 21  1  0
 21 22  2  0
 23 26  1  0
 23 22  1  0
 24 23  2  0
 25 24  1  0
 25 20  2  0
 26 27  1  0
 27 28  1  0
 28 29  2  0
 30 29  1  0
 30 34  1  0
 31 30  2  0
 32 27  2  0
 32 31  1  0
 33 32  1  0
 35 36  1  0
 36 39  1  0
 36 38  1  0
 37 35  2  0
 40 15  1  0
 40 41  1  0
 42 40  1  0
 43 44  2  0
 45 43  1  0
 45 46  1  0
 47 58  2  0
 48 46  1  0
 48 53  1  0
 49 57  1  0
 49 59  1  0
 50 56  1  0
 50 52  1  0
 51 57  1  0
 52 51  1  0
 53 52  2  0
 54 48  2  0
 55 54  1  0
 55 50  2  0
 56 49  1  0
 57 47  1  0
 59 61  2  0
 60 59  1  0
 62 60  1  0
 63 72  2  0
 63 68  1  0
 64 60  1  0
 64 68  1  0
 65 64  1  0
 66 67  1  0
 66 65  1  0
 67 63  1  0
 68 69  2  0
 69 70  1  0
 71 70  2  0
 72 71  1  0
 73 47  1  0
 73 78  1  0
 73 74  1  0
 74 77  1  1
 74 75  1  0
 76 74  1  0
 78 81  1  0
 79 83  1  0
 79 78  1  0
 80 79  2  0
 83 82  1  0
 85 86  1  0
 85 83  1  0
 85 84  1  0
 87 88  1  0
M  ISO  4   5 100   7 100  45 101  46 101
M  END
>  <TORSDO>  (63) 
F 19

>  <SCORE>  (63) 
-16.588

>  <name>  (63) 
63

>  <ligand_id>  (63) 
63

>  <original_smiles>  (63) 
[H]Oc1c([H])c(C(=O)C([H])([H])Oc2c([H])c([H])c3c(c2[H])C([H])([H])N(C(=O)C([H])(N([H])C(=O)C([H])(N([H])C([H])([H])[H])C([H])([H])[H])C(C([H])([H])[H])(C([H])([H])[H])C([H])([H])[H])C([H])(C(=O)N([H])C2([H])c4c([H])c([H])c([H])c([H])c4C([H])([H])C([H])([H])C2([H])[H])C3([H])[H])c([H])c([H])c1C(=O)N1C([H])([H])C([H])([H])C([H])([H])C([H])(n2nc(-c3c([H])c([H])c(Oc4c([H])c([H])c(F)c([H])c4F)c([H])c3[H])c(C(=O)N([H])[H])c2N([H])[H])C1([H])[H]

>  <smiles>  (63) 
[H]Oc1c([H])c(C(=O)C([H])([H])Oc2c([H])c([H])c3c(c2[H])C([H])([H])N(C(=O)C([H])(N([H])C(=O)C([H])(N([H])C([H])([H])[H])C([H])([H])[H])C(C([H])([H])[H])(C([H])([H])[H])C([H])([H])[H])C([H])(C(=O)N([H])C2([H])c4c([H])c([H])c([H])c([H])c4C([H])([H])C([H])([H])C2([H])[H])C3([H])[H])c([H])c([H])c1C(=O)N1C([H])([H])C([H])([H])C([H])([H])C([H])(n2nc(-c3c([H])c([H])c(Oc4c([H])c([H])c(F)c([H])c4F)c([H])c3[H])c(C(=O)N([H])[H])c2N([H])[H])C1([H])[H]

$$$$
64:0:0
     RDKit          3D

 88 96  0  0  1  0  0  0  0  0999 V2000
  -27.8780  -22.6560   18.0150 C   0  0  0  0  0  3  0  0  0  0  0  0
  -28.4500  -21.5110   18.6390 C   0  0  0  0  0  3  0  0  0  0  0  0
  -27.8430  -23.9690   18.5660 C   0  0  0  0  0  3  0  0  0  0  0  0
  -28.9590  -23.0080   20.4620 C   0  0  0  0  0  3  0  0  0  0  0  0
  -29.0510  -21.5400   19.9160 C   0  0  0  0  0  0  0  0  0  0  0  0
  -28.3590  -24.3140   19.8380 C   0  0  0  0  0  0  0  0  0  0  0  0
  -29.5890  -19.9820   20.5150 C   0  0  0  0  0  0  0  0  0  0  0  0
  -29.7390  -19.9370   21.7400 O   0  0  0  0  0  0  0  0  0  0  0  0
  -30.0230  -18.4290   19.7540 C   0  0  0  0  0  2  0  0  0  0  0  0
  -30.6750  -15.4970   20.0620 C   0  0  0  0  0  0  0  0  0  0  0  0
  -30.6560  -13.0140   19.2350 C   0  0  0  0  0  2  0  0  0  0  0  0
  -29.7360  -12.7780   18.0080 C   0  0  0  0  0  2  0  0  0  0  0  0
  -28.2940  -12.4910   18.4570 C   0  0  0  0  0  2  0  0  0  0  0  0
  -27.8430  -13.4630   19.5750 C   0  0  0  0  0  3  0  0  0  0  0  0
  -28.8960  -13.6540   20.6920 C   0  0  0  0  0  2  0  0  0  0  0  0
  -30.1170  -14.1740   20.0530 N   0  0  0  0  0  0  0  0  0  0  0  0
  -31.8740  -15.4820   19.7460 O   0  0  0  0  0  0  0  0  0  0  0  0
  -29.9320  -16.7930   20.2310 N   0  0  0  0  0  0  0  0  0  0  0  0
  -29.0140  -16.6020   20.6060 H   0  0  0  0  0  0  0  0  0  0  0  0
  -25.4830  -14.0230   20.3470 C   0  0  0  0  0  0  0  0  0  0  0  0
  -24.4250  -13.2490   20.7340 C   0  0  0  0  0  0  0  0  0  0  0  0
  -24.8910  -11.8980   20.7080 C   0  0  0  0  0  0  0  0  0  0  0  0
  -26.5230  -13.1450   20.0990 N   0  0  0  0  0  0  0  0  0  0  0  0
  -26.1810  -11.8610   20.3830 N   0  0  0  0  0  0  0  0  0  0  0  0
  -24.1630  -10.6370   20.9120 C   0  0  0  0  0  0  0  0  0  0  0  0
  -24.5820   -9.6860   21.8680 C   0  0  0  0  0  3  0  0  0  0  0  0
  -23.8510   -8.4940   22.0610 C   0  0  0  0  0  3  0  0  0  0  0  0
  -22.6840   -8.2460   21.2990 C   0  0  0  0  0  0  0  0  0  0  0  0
  -22.2840   -9.1850   20.3320 C   0  0  0  0  0  3  0  0  0  0  0  0
  -23.0170  -10.3670   20.1370 C   0  0  0  0  0  3  0  0  0  0  0  0
  -21.9250   -7.1060   21.4010 O   0  0  0  0  0  0  0  0  0  0  0  0
  -21.8370   -6.4010   22.5750 C   0  0  0  0  0  0  0  0  0  0  0  0
  -21.3650   -6.9940   23.7670 C   0  0  0  0  0  3  0  0  0  0  0  0
  -21.2240   -6.2160   24.9320 C   0  0  0  0  0  3  0  0  0  0  0  0
  -21.5460   -4.8450   24.9080 C   0  0  0  0  0  0  0  0  0  0  0  0
  -22.0120   -4.2520   23.7220 C   0  0  0  0  0  3  0  0  0  0  0  0
  -22.1540   -5.0280   22.5580 C   0  0  0  0  0  0  0  0  0  0  0  0
  -22.5820   -4.4460   21.4110 F   0  0  0  0  0  0  0  0  0  0  0  0
  -21.4050   -4.0950   26.0250 F   0  0  0  0  0  0  0  0  0  0  0  0
  -23.0310  -13.7300   21.0070 C   0  0  0  0  0  0  0  0  0  0  0  0
  -22.3110  -13.0510   21.8920 N   0  0  0  0  0  0  0  0  0  0  0  0
  -22.5900  -14.7450   20.4720 O   0  0  0  0  0  0  0  0  0  0  0  0
  -22.6810  -12.2320   22.3490 H   0  0  0  0  0  0  0  0  0  0  0  0
  -21.3750  -13.3580   22.1180 H   0  0  0  0  0  0  0  0  0  0  0  0
  -25.6430  -15.3920   20.1570 N   0  0  0  0  0  0  0  0  0  0  0  0
  -24.8720  -16.0420   20.2630 H   0  0  0  0  0  0  0  0  0  0  0  0
  -26.4770  -15.8250   19.7810 H   0  0  0  0  0  0  0  0  0  0  0  0
  -28.3430  -25.8350   20.1960 O   0  0  0  0  0  0  0  0  0  0  0  0
  -24.6970  -31.8530   23.0740 C   0  0  0  0  0  0  0  0  0  0  0  0
  -27.3270  -26.9510   20.0770 C   0  0  0  0  0  0  0  0  0  0  0  0
  -23.5350  -30.4480   21.4230 C   0  0  0  0  0  3  0  0  0  0  0  0
  -25.0130  -28.8530   20.0100 C   0  0  0  0  0  0  0  0  0  0  0  0
  -26.1020  -30.6680   21.3070 C   0  0  0  0  0  2  0  0  0  0  0  0
  -26.1920  -29.2540   20.6470 C   0  0  0  0  0  0  0  0  0  0  0  0
  -27.3360  -28.3250   20.6590 C   0  0  0  0  0  3  0  0  0  0  0  0
  -26.1120  -26.7180   19.3900 C   0  0  0  0  0  3  0  0  0  0  0  0
  -25.0020  -27.6070   19.3610 C   0  0  0  0  0  3  0  0  0  0  0  0
  -23.7870  -29.7670   20.0490 C   0  0  0  0  0  2  0  0  0  0  0  0
  -24.8000  -31.0180   21.9890 N   0  0  0  0  0  0  0  0  0  0  0  0
  -23.5990  -32.1330   23.5830 O   0  0  0  0  0  0  0  0  0  0  0  0
  -22.8360  -29.4470   22.3810 C   0  0  0  0  0  0  0  0  0  0  0  0
  -21.5030  -29.2950   22.2660 N   0  0  0  0  0  0  0  0  0  0  0  0
  -23.5010  -28.8070   23.2000 O   0  0  0  0  0  0  0  0  0  0  0  0
  -21.0180  -29.8620   21.5840 H   0  0  0  0  0  0  0  0  0  0  0  0
  -18.1130  -28.1120   22.7990 C   0  0  0  0  0  0  0  0  0  0  0  0
  -20.6790  -28.3530   23.0320 C   0  0  0  0  0  3  0  0  0  0  0  0
  -20.7600  -26.9310   22.4300 C   0  0  0  0  0  2  0  0  0  0  0  0
  -19.6420  -26.6370   21.4250 C   0  0  0  0  0  2  0  0  0  0  0  0
  -18.2700  -26.7770   22.0910 C   0  0  0  0  0  2  0  0  0  0  0  0
  -19.2440  -28.8580   23.2270 C   0  0  0  0  0  0  0  0  0  0  0  0
  -19.0400  -30.1070   23.8550 C   0  0  0  0  0  3  0  0  0  0  0  0
  -17.7400  -30.6100   24.0550 C   0  0  0  0  0  3  0  0  0  0  0  0
  -16.6260  -29.8610   23.6420 C   0  0  0  0  0  3  0  0  0  0  0  0
  -16.8120  -28.6120   23.0210 C   0  0  0  0  0  3  0  0  0  0  0  0
  -25.9520  -32.5100   23.7230 C   0  0  0  0  0  3  0  0  0  0  0  0
  -25.6110  -33.9010   24.0750 N   0  0  0  0  0  0  0  0  0  0  0  0
  -25.9420  -34.9800   23.3520 C   0  0  0  0  0  0  0  0  0  0  0  0
  -26.6270  -34.9100   22.3290 O   0  0  0  0  0  0  0  0  0  0  0  0
  -25.0010  -34.0270   24.8680 H   0  0  0  0  0  0  0  0  0  0  0  0
  -24.2050  -36.7740   23.0190 C   0  0  0  0  0  1  0  0  0  0  0  0
  -25.4340  -36.3530   23.8410 C   0  0  0  0  0  3  0  0  0  0  0  0
  -27.5420  -37.2400   24.7360 C   0  0  0  0  0  1  0  0  0  0  0  0
  -26.4580  -37.4200   23.7750 N   0  0  0  0  0  0  0  0  0  0  0  0
  -26.0410  -38.3320   23.9360 H   0  0  0  0  0  0  0  0  0  0  0  0
  -26.4620  -31.7400   25.0040 C   0  0  1  0  0  0  0  0  0  0  0  0
  -25.3580  -31.4840   26.0570 C   0  0  0  0  0  1  0  0  0  0  0  0
  -27.0660  -30.3690   24.6210 C   0  0  0  0  0  1  0  0  0  0  0  0
  -27.5960  -32.5420   25.6840 C   0  0  0  0  0  1  0  0  0  0  0  0
  1  3  2  0
  1  2  1  0
  2  5  2  0
  3  6  1  0
  5  4  1  0
  5  7  1  0
  6 48  1  0
  6  4  2  0
  7  8  2  0
  9 18  1  0
  9  7  1  0
 10 18  1  0
 11 16  1  0
 12 13  1  0
 12 11  1  0
 14 13  1  0
 14 23  1  0
 14 15  1  0
 16 10  1  0
 16 15  1  0
 17 10  2  0
 18 19  1  0
 20 21  2  0
 21 40  1  0
 22 21  1  0
 22 25  1  0
 23 20  1  0
 23 24  1  0
 24 22  2  0
 25 26  1  0
 26 27  2  0
 28 31  1  0
 28 27  1  0
 29 28  2  0
 30 29  1  0
 30 25  2  0
 31 32  1  0
 32 33  1  0
 33 34  2  0
 35 34  1  0
 35 39  1  0
 36 35  2  0
 37 32  2  0
 37 36  1  0
 38 37  1  0
 40 41  1  0
 41 44  1  0
 41 43  1  0
 42 40  2  0
 45 46  1  0
 45 20  1  0
 47 45  1  0
 49 60  2  0
 50 48  1  0
 50 55  1  0
 51 59  1  0
 51 61  1  0
 52 58  1  0
 52 54  1  0
 53 59  1  0
 54 55  2  0
 54 53  1  0
 56 50  2  0
 57 56  1  0
 57 52  2  0
 58 51  1  0
 59 49  1  0
 61 63  2  0
 62 61  1  0
 64 62  1  0
 65 74  2  0
 65 70  1  0
 66 62  1  0
 66 70  1  0
 67 66  1  0
 68 69  1  0
 68 67  1  0
 69 65  1  0
 70 71  2  0
 71 72  1  0
 73 72  2  0
 74 73  1  0
 75 49  1  0
 75 76  1  0
 75 85  1  0
 76 79  1  0
 77 81  1  0
 77 76  1  0
 78 77  2  0
 81 80  1  0
 83 81  1  0
 83 84  1  0
 83 82  1  0
 85 88  1  1
 85 86  1  0
 87 85  1  0
M  ISO  4   6 101  10 100  18 100  48 101
M  END
>  <TORSDO>  (64) 
F 18

>  <SCORE>  (64) 
-15.450

>  <name>  (64) 
64

>  <ligand_id>  (64) 
64

>  <original_smiles>  (64) 
[H]c1c([H])c(Oc2c([H])c([H])c3c(c2[H])C([H])([H])N(C(=O)C([H])(N([H])C(=O)C([H])(N([H])C([H])([H])[H])C([H])([H])[H])C(C([H])([H])[H])(C([H])([H])[H])C([H])([H])[H])C([H])(C(=O)N([H])C2([H])c4c([H])c([H])c([H])c([H])c4C([H])([H])C([H])([H])C2([H])[H])C3([H])[H])c([H])c(C(=O)C([H])([H])N([H])C(=O)N2C([H])([H])C([H])([H])C([H])([H])C([H])(n3nc(-c4c([H])c([H])c(Oc5c([H])c([H])c(F)c([H])c5F)c([H])c4[H])c(C(=O)N([H])[H])c3N([H])[H])C2([H])[H])c1[H]

>  <smiles>  (64) 
[H]c1c([H])c(Oc2c([H])c([H])c3c(c2[H])C([H])([H])N(C(=O)C([H])(N([H])C(=O)C([H])(N([H])C([H])([H])[H])C([H])([H])[H])C(C([H])([H])[H])(C([H])([H])[H])C([H])([H])[H])C([H])(C(=O)N([H])C2([H])c4c([H])c([H])c([H])c([H])c4C([H])([H])C([H])([H])C2([H])[H])C3([H])[H])c([H])c(C(=O)C([H])([H])N([H])C(=O)N2C([H])([H])C([H])([H])C([H])([H])C([H])(n3nc(-c4c([H])c([H])c(Oc5c([H])c([H])c(F)c([H])c5F)c([H])c4[H])c(C(=O)N([H])[H])c3N([H])[H])C2([H])[H])c1[H]

$$$$
65:0:0
     RDKit          3D

 93101  0  0  1  0  0  0  0  0999 V2000
  -29.5200  -20.5300   20.1030 N   0  0  0  0  0  0  0  0  0  0  0  0
  -30.4400  -17.9750   20.4960 C   0  0  0  0  0  3  0  0  0  0  0  0
  -31.0570  -19.3670   18.5970 C   0  0  0  0  0  3  0  0  0  0  0  0
  -31.1890  -16.7730   20.0010 C   0  0  0  0  0  0  0  0  0  0  0  0
  -30.3330  -19.3070   19.8000 C   0  0  0  0  0  0  0  0  0  0  0  0
  -31.7650  -18.2590   18.0900 C   0  0  0  0  0  0  0  0  0  0  0  0
  -31.8290  -17.0170   18.7590 C   0  0  0  0  0  0  0  0  0  0  0  0
  -32.4300  -18.4030   16.9190 F   0  0  0  0  0  0  0  0  0  0  0  0
  -32.6050  -16.0580   18.2000 F   0  0  0  0  0  0  0  0  0  0  0  0
  -31.6610  -15.4020   20.7280 C   0  0  0  0  0  0  0  0  0  0  0  0
  -31.5170  -12.9370   20.1330 C   0  0  0  0  0  2  0  0  0  0  0  0
  -30.7570  -12.6840   18.8120 C   0  0  0  0  0  2  0  0  0  0  0  0
  -29.2450  -12.5770   19.0650 C   0  0  0  0  0  2  0  0  0  0  0  0
  -28.7230  -13.7000   19.9970 C   0  0  0  0  0  3  0  0  0  0  0  0
  -29.6160  -13.9190   21.2300 C   0  0  0  0  0  2  0  0  0  0  0  0
  -30.9710  -14.1870   20.7390 N   0  0  0  0  0  0  0  0  0  0  0  0
  -32.8840  -15.3060   20.8710 O   0  0  0  0  0  0  0  0  0  0  0  0
  -26.3360  -14.4690   20.4770 C   0  0  0  0  0  0  0  0  0  0  0  0
  -25.1780  -13.7830   20.7170 C   0  0  0  0  0  0  0  0  0  0  0  0
  -25.5350  -12.4000   20.7480 C   0  0  0  0  0  0  0  0  0  0  0  0
  -27.3250  -13.5100   20.3560 N   0  0  0  0  0  0  0  0  0  0  0  0
  -26.8470  -12.2600   20.5930 N   0  0  0  0  0  0  0  0  0  0  0  0
  -24.6940  -11.2000   20.8520 C   0  0  0  0  0  0  0  0  0  0  0  0
  -24.9810  -10.1740   21.7780 C   0  0  0  0  0  3  0  0  0  0  0  0
  -24.1460   -9.0390   21.8740 C   0  0  0  0  0  3  0  0  0  0  0  0
  -23.0090   -8.9240   21.0390 C   0  0  0  0  0  0  0  0  0  0  0  0
  -22.7420   -9.9370   20.1010 C   0  0  0  0  0  3  0  0  0  0  0  0
  -23.5770  -11.0620   20.0040 C   0  0  0  0  0  3  0  0  0  0  0  0
  -22.1540   -7.8480   21.0430 O   0  0  0  0  0  0  0  0  0  0  0  0
  -21.9800   -7.0710   22.1610 C   0  0  0  0  0  0  0  0  0  0  0  0
  -21.5410   -7.6170   23.3860 C   0  0  0  0  0  3  0  0  0  0  0  0
  -21.3080   -6.7730   24.4910 C   0  0  0  0  0  3  0  0  0  0  0  0
  -21.5040   -5.3830   24.3690 C   0  0  0  0  0  0  0  0  0  0  0  0
  -21.9360   -4.8380   23.1470 C   0  0  0  0  0  3  0  0  0  0  0  0
  -22.1690   -5.6800   22.0460 C   0  0  0  0  0  0  0  0  0  0  0  0
  -22.5640   -5.1450   20.8640 F   0  0  0  0  0  0  0  0  0  0  0  0
  -21.2730   -4.5700   25.4260 F   0  0  0  0  0  0  0  0  0  0  0  0
  -23.8010  -14.3690   20.8130 C   0  0  0  0  0  0  0  0  0  0  0  0
  -22.9300  -13.7560   21.6060 N   0  0  0  0  0  0  0  0  0  0  0  0
  -23.5030  -15.4040   20.2180 O   0  0  0  0  0  0  0  0  0  0  0  0
  -23.1800  -12.9170   22.1060 H   0  0  0  0  0  0  0  0  0  0  0  0
  -21.9980  -14.1330   21.7150 H   0  0  0  0  0  0  0  0  0  0  0  0
  -26.6300  -15.8200   20.3220 N   0  0  0  0  0  0  0  0  0  0  0  0
  -25.9110  -16.5370   20.3330 H   0  0  0  0  0  0  0  0  0  0  0  0
  -27.5510  -16.1870   20.1240 H   0  0  0  0  0  0  0  0  0  0  0  0
  -29.9360  -22.0380   20.3100 C   0  0  0  0  0  2  0  0  0  0  0  0
  -29.2430  -23.4550   19.6600 C   0  0  0  0  0  2  0  0  0  0  0  0
  -28.6690  -24.8440   20.4610 C   0  0  0  0  0  2  0  0  0  0  0  0
  -28.7390  -26.3680   20.1000 O   0  0  0  0  0  0  0  0  0  0  0  0
  -24.6240  -31.7260   23.1460 C   0  0  0  0  0  0  0  0  0  0  0  0
  -27.6140  -27.2710   20.1020 C   0  0  0  0  0  0  0  0  0  0  0  0
  -23.5920  -30.3350   21.3950 C   0  0  0  0  0  3  0  0  0  0  0  0
  -25.1980  -28.8890   19.9990 C   0  0  0  0  0  0  0  0  0  0  0  0
  -26.1320  -30.7440   21.3730 C   0  0  0  0  0  2  0  0  0  0  0  0
  -26.3190  -29.3800   20.6830 C   0  0  0  0  0  0  0  0  0  0  0  0
  -27.5320  -28.5910   20.7080 C   0  0  0  0  0  3  0  0  0  0  0  0
  -26.4600  -26.8740   19.3960 C   0  0  0  0  0  3  0  0  0  0  0  0
  -25.2810  -27.6510   19.3410 C   0  0  0  0  0  3  0  0  0  0  0  0
  -23.9210  -29.7190   20.0090 C   0  0  0  0  0  2  0  0  0  0  0  0
  -24.7990  -30.9560   22.0290 N   0  0  0  0  0  0  0  0  0  0  0  0
  -23.4970  -31.9300   23.6250 O   0  0  0  0  0  0  0  0  0  0  0  0
  -22.9220  -29.2570   22.2820 C   0  0  0  0  0  0  0  0  0  0  0  0
  -21.6080  -29.0400   22.0980 N   0  0  0  0  0  0  0  0  0  0  0  0
  -23.5900  -28.6170   23.1000 O   0  0  0  0  0  0  0  0  0  0  0  0
  -21.1240  -29.6110   21.4200 H   0  0  0  0  0  0  0  0  0  0  0  0
  -18.2510  -27.7290   22.4690 C   0  0  0  0  0  0  0  0  0  0  0  0
  -20.8000  -28.0330   22.7920 C   0  0  0  0  0  3  0  0  0  0  0  0
  -20.9440  -26.6460   22.1210 C   0  0  0  0  0  2  0  0  0  0  0  0
  -19.8620  -26.3700   21.0710 C   0  0  0  0  0  2  0  0  0  0  0  0
  -18.4690  -26.4340   21.7030 C   0  0  0  0  0  2  0  0  0  0  0  0
  -19.3450  -28.4860   22.9670 C   0  0  0  0  0  0  0  0  0  0  0  0
  -19.0860  -29.6980   23.6450 C   0  0  0  0  0  3  0  0  0  0  0  0
  -17.7680  -30.1540   23.8280 C   0  0  0  0  0  3  0  0  0  0  0  0
  -16.6890  -29.3930   23.3460 C   0  0  0  0  0  3  0  0  0  0  0  0
  -16.9310  -28.1820   22.6740 C   0  0  0  0  0  3  0  0  0  0  0  0
  -25.8280  -32.4070   23.8660 C   0  0  0  0  0  3  0  0  0  0  0  0
  -25.4570  -33.8040   24.1390 N   0  0  0  0  0  0  0  0  0  0  0  0
  -25.8560  -34.8570   23.4140 C   0  0  0  0  0  0  0  0  0  0  0  0
  -26.6420  -34.7550   22.4680 O   0  0  0  0  0  0  0  0  0  0  0  0
  -24.7710  -33.9550   24.8640 H   0  0  0  0  0  0  0  0  0  0  0  0
  -24.1630  -36.6280   22.8410 C   0  0  0  0  0  1  0  0  0  0  0  0
  -25.3020  -36.2420   23.7990 C   0  0  0  0  0  3  0  0  0  0  0  0
  -27.3090  -37.1640   24.8720 C   0  0  0  0  0  1  0  0  0  0  0  0
  -26.3280  -37.3080   23.8020 N   0  0  0  0  0  0  0  0  0  0  0  0
  -25.8940  -38.2240   23.8890 H   0  0  0  0  0  0  0  0  0  0  0  0
  -26.2410  -31.6780   25.2050 C   0  0  1  0  0  0  0  0  0  0  0  0
  -25.0590  -31.4420   26.1760 C   0  0  0  0  0  1  0  0  0  0  0  0
  -26.8850  -30.3050   24.9080 C   0  0  0  0  0  1  0  0  0  0  0  0
  -27.3090  -32.5150   25.9480 C   0  0  0  0  0  1  0  0  0  0  0  0
  -28.1200  -20.2230   20.3900 C   0  0  0  0  0  2  0  0  0  0  0  0
  -27.1950  -20.5810   19.2110 C   0  0  0  0  0  2  0  0  0  0  0  0
  -25.9440  -19.9440   19.3680 O   0  0  0  0  0  0  0  0  0  0  0  0
  -25.4170  -20.1420   18.5980 H   0  0  0  0  0  0  0  0  0  0  0  0
  1 46  1  0
  1 90  1  0
  3  5  1  0
  4  2  1  0
  4 10  1  0
  5  1  1  0
  5  2  2  0
  6  3  2  0
  6  7  1  0
  7  4  2  0
  8  6  1  0
  9  7  1  0
 10 16  1  0
 10 17  2  0
 11 16  1  0
 12 13  1  0
 12 11  1  0
 14 13  1  0
 14 21  1  0
 14 15  1  0
 16 15  1  0
 18 19  2  0
 19 20  1  0
 19 38  1  0
 20 23  1  0
 21 18  1  0
 21 22  1  0
 22 20  2  0
 23 24  1  0
 24 25  2  0
 26 29  1  0
 26 25  1  0
 27 26  2  0
 28 27  1  0
 28 23  2  0
 29 30  1  0
 30 31  1  0
 31 32  2  0
 33 32  1  0
 33 37  1  0
 34 33  2  0
 35 30  2  0
 35 34  1  0
 36 35  1  0
 38 39  1  0
 39 42  1  0
 39 41  1  0
 40 38  2  0
 43 44  1  0
 43 18  1  0
 45 43  1  0
 47 46  1  0
 47 48  1  0
 49 51  1  0
 49 48  1  0
 50 61  2  0
 51 56  1  0
 52 60  1  0
 52 62  1  0
 53 59  1  0
 53 55  1  0
 54 60  1  0
 55 56  2  0
 55 54  1  0
 57 51  2  0
 58 57  1  0
 58 53  2  0
 59 52  1  0
 60 50  1  0
 62 64  2  0
 63 62  1  0
 65 63  1  0
 66 75  2  0
 66 71  1  0
 67 63  1  0
 67 71  1  0
 68 67  1  0
 69 70  1  0
 69 68  1  0
 70 66  1  0
 71 72  2  0
 72 73  1  0
 74 73  2  0
 75 74  1  0
 76 50  1  0
 76 77  1  0
 76 86  1  0
 77 80  1  0
 78 82  1  0
 78 77  1  0
 79 78  2  0
 82 81  1  0
 82 84  1  0
 84 85  1  0
 84 83  1  0
 86 89  1  1
 86 87  1  0
 88 86  1  0
 91 92  1  0
 91 90  1  0
 93 92  1  0
M  ISO  4   4 100  10 100  48 101  49 101
M  END
>  <TORSDO>  (65) 
F 23

>  <SCORE>  (65) 
-11.563

>  <name>  (65) 
65

>  <ligand_id>  (65) 
65

>  <original_smiles>  (65) 
[H]OC([H])([H])C([H])([H])N(c1c([H])c(F)c(F)c(C(=O)N2C([H])([H])C([H])([H])C([H])([H])C([H])(n3nc(-c4c([H])c([H])c(Oc5c([H])c([H])c(F)c([H])c5F)c([H])c4[H])c(C(=O)N([H])[H])c3N([H])[H])C2([H])[H])c1[H])C([H])([H])C([H])([H])C([H])([H])Oc1c([H])c([H])c2c(c1[H])C([H])([H])N(C(=O)C([H])(N([H])C(=O)C([H])(N([H])C([H])([H])[H])C([H])([H])[H])C(C([H])([H])[H])(C([H])([H])[H])C([H])([H])[H])C([H])(C(=O)N([H])C1([H])c3c([H])c([H])c([H])c([H])c3C([H])([H])C([H])([H])C1([H])[H])C2([H])[H]

>  <smiles>  (65) 
[H]OC([H])([H])C([H])([H])N(c1c([H])c(F)c(F)c(C(=O)N2C([H])([H])C([H])([H])C([H])([H])C([H])(n3nc(-c4c([H])c([H])c(Oc5c([H])c([H])c(F)c([H])c5F)c([H])c4[H])c(C(=O)N([H])[H])c3N([H])[H])C2([H])[H])c1[H])C([H])([H])C([H])([H])C([H])([H])Oc1c([H])c([H])c2c(c1[H])C([H])([H])N(C(=O)C([H])(N([H])C(=O)C([H])(N([H])C([H])([H])[H])C([H])([H])[H])C(C([H])([H])[H])(C([H])([H])[H])C([H])([H])[H])C([H])(C(=O)N([H])C1([H])c3c([H])c([H])c([H])c([H])c3C([H])([H])C([H])([H])C1([H])[H])C2([H])[H]

$$$$
66:0:0
     RDKit          3D

 91 99  0  0  1  0  0  0  0  0999 V2000
  -27.5150  -21.9950   20.5240 C   0  0  0  0  0  3  0  0  0  0  0  0
  -29.5350  -23.7020   20.0050 C   0  0  0  0  0  3  0  0  0  0  0  0
  -28.7330  -21.2120   20.2890 C   0  0  0  0  0  0  0  0  0  0  0  0
  -28.3160  -24.4780   20.2450 C   0  0  0  0  0  0  0  0  0  0  0  0
  -27.3070  -23.4670   20.5170 C   0  0  0  0  0  0  0  0  0  0  0  0
  -29.7420  -22.2250   20.0190 C   0  0  0  0  0  0  0  0  0  0  0  0
  -26.0570  -23.9030   20.8020 F   0  0  0  0  0  0  0  0  0  0  0  0
  -30.9950  -21.7840   19.7500 F   0  0  0  0  0  0  0  0  0  0  0  0
  -28.7620  -19.4960   20.3250 C   0  0  0  0  0  0  0  0  0  0  0  0
  -27.6290  -19.0150   20.4240 O   0  0  0  0  0  0  0  0  0  0  0  0
  -31.0430  -18.5360   21.3300 C   0  0  0  0  0  1  0  0  0  0  0  0
  -29.9710  -18.1890   20.2860 C   0  0  0  0  0  3  0  0  0  0  0  0
  -30.4550  -15.2990   20.2370 C   0  0  0  0  0  0  0  0  0  0  0  0
  -30.4220  -12.8660   19.3590 C   0  0  0  0  0  2  0  0  0  0  0  0
  -29.4860  -12.6810   18.1390 C   0  0  0  0  0  2  0  0  0  0  0  0
  -28.0420  -12.4100   18.5980 C   0  0  0  0  0  2  0  0  0  0  0  0
  -27.6070  -13.3610   19.7420 C   0  0  0  0  0  3  0  0  0  0  0  0
  -28.6710  -13.4950   20.8510 C   0  0  0  0  0  2  0  0  0  0  0  0
  -29.8930  -13.9960   20.2040 N   0  0  0  0  0  0  0  0  0  0  0  0
  -31.6630  -15.3150   19.9630 O   0  0  0  0  0  0  0  0  0  0  0  0
  -29.6920  -16.5520   20.3930 N   0  0  0  0  0  0  0  0  0  0  0  0
  -28.7170  -16.3670   20.5790 H   0  0  0  0  0  0  0  0  0  0  0  0
  -25.2510  -13.9010   20.5520 C   0  0  0  0  0  0  0  0  0  0  0  0
  -24.1980  -13.1140   20.9270 C   0  0  0  0  0  0  0  0  0  0  0  0
  -24.6680  -11.7660   20.8600 C   0  0  0  0  0  0  0  0  0  0  0  0
  -26.2900  -13.0330   20.2690 N   0  0  0  0  0  0  0  0  0  0  0  0
  -25.9530  -11.7410   20.5220 N   0  0  0  0  0  0  0  0  0  0  0  0
  -23.9460  -10.4970   21.0380 C   0  0  0  0  0  0  0  0  0  0  0  0
  -24.3720   -9.5290   21.9720 C   0  0  0  0  0  3  0  0  0  0  0  0
  -23.6480   -8.3290   22.1390 C   0  0  0  0  0  3  0  0  0  0  0  0
  -22.4830   -8.0890   21.3710 C   0  0  0  0  0  0  0  0  0  0  0  0
  -22.0770   -9.0470   20.4260 C   0  0  0  0  0  3  0  0  0  0  0  0
  -22.8030  -10.2380   20.2560 C   0  0  0  0  0  3  0  0  0  0  0  0
  -21.7310   -6.9410   21.4470 O   0  0  0  0  0  0  0  0  0  0  0  0
  -21.6360   -6.2190   22.6100 C   0  0  0  0  0  0  0  0  0  0  0  0
  -21.1250   -6.7840   23.7990 C   0  0  0  0  0  3  0  0  0  0  0  0
  -20.9790   -5.9860   24.9510 C   0  0  0  0  0  3  0  0  0  0  0  0
  -21.3350   -4.6250   24.9160 C   0  0  0  0  0  0  0  0  0  0  0  0
  -21.8390   -4.0590   23.7320 C   0  0  0  0  0  3  0  0  0  0  0  0
  -21.9860   -4.8540   22.5810 C   0  0  0  0  0  0  0  0  0  0  0  0
  -22.4520   -4.2980   21.4360 F   0  0  0  0  0  0  0  0  0  0  0  0
  -21.1880   -3.8570   26.0210 F   0  0  0  0  0  0  0  0  0  0  0  0
  -22.8060  -13.5820   21.2300 C   0  0  0  0  0  0  0  0  0  0  0  0
  -22.0950  -12.8730   22.1010 N   0  0  0  0  0  0  0  0  0  0  0  0
  -22.3570  -14.6130   20.7320 O   0  0  0  0  0  0  0  0  0  0  0  0
  -22.4720  -12.0400   22.5270 H   0  0  0  0  0  0  0  0  0  0  0  0
  -21.1610  -13.1680   22.3440 H   0  0  0  0  0  0  0  0  0  0  0  0
  -25.4020  -15.2750   20.3980 N   0  0  0  0  0  0  0  0  0  0  0  0
  -24.6300  -15.9170   20.5360 H   0  0  0  0  0  0  0  0  0  0  0  0
  -26.2280  -15.7280   20.0280 H   0  0  0  0  0  0  0  0  0  0  0  0
  -28.2640  -26.0120   20.2530 O   0  0  0  0  0  0  0  0  0  0  0  0
  -24.6520  -31.9000   23.2490 C   0  0  0  0  0  0  0  0  0  0  0  0
  -27.1960  -27.0390   20.2400 C   0  0  0  0  0  0  0  0  0  0  0  0
  -23.4530  -30.5090   21.6070 C   0  0  0  0  0  3  0  0  0  0  0  0
  -24.8950  -28.8980   20.1880 C   0  0  0  0  0  0  0  0  0  0  0  0
  -26.0160  -30.7190   21.4620 C   0  0  0  0  0  2  0  0  0  0  0  0
  -26.0790  -29.3090   20.8120 C   0  0  0  0  0  0  0  0  0  0  0  0
  -27.2220  -28.3980   20.8150 C   0  0  0  0  0  3  0  0  0  0  0  0
  -25.9850  -26.7700   19.5640 C   0  0  0  0  0  3  0  0  0  0  0  0
  -24.8700  -27.6480   19.5470 C   0  0  0  0  0  3  0  0  0  0  0  0
  -23.6800  -29.8220   20.2310 C   0  0  0  0  0  2  0  0  0  0  0  0
  -24.7280  -31.0690   22.1600 N   0  0  0  0  0  0  0  0  0  0  0  0
  -23.5640  -32.1940   23.7700 O   0  0  0  0  0  0  0  0  0  0  0  0
  -22.7550  -29.5160   22.5720 C   0  0  0  0  0  0  0  0  0  0  0  0
  -21.4270  -29.3510   22.4400 N   0  0  0  0  0  0  0  0  0  0  0  0
  -23.4170  -28.8930   23.4060 O   0  0  0  0  0  0  0  0  0  0  0  0
  -20.9470  -29.9020   21.7410 H   0  0  0  0  0  0  0  0  0  0  0  0
  -18.0410  -28.1500   22.9370 C   0  0  0  0  0  0  0  0  0  0  0  0
  -20.6000  -28.4150   23.2090 C   0  0  0  0  0  3  0  0  0  0  0  0
  -20.7030  -26.9830   22.6360 C   0  0  0  0  0  2  0  0  0  0  0  0
  -19.6040  -26.6590   21.6170 C   0  0  0  0  0  2  0  0  0  0  0  0
  -18.2200  -26.8030   22.2580 C   0  0  0  0  0  2  0  0  0  0  0  0
  -19.1580  -28.9140   23.3680 C   0  0  0  0  0  0  0  0  0  0  0  0
  -18.9350  -30.1740   23.9670 C   0  0  0  0  0  3  0  0  0  0  0  0
  -17.6280  -30.6690   24.1350 C   0  0  0  0  0  3  0  0  0  0  0  0
  -16.5260  -29.9040   23.7160 C   0  0  0  0  0  3  0  0  0  0  0  0
  -16.7340  -28.6450   23.1240 C   0  0  0  0  0  3  0  0  0  0  0  0
  -25.9270  -32.5360   23.8830 C   0  0  0  0  0  3  0  0  0  0  0  0
  -25.6150  -33.9370   24.2180 N   0  0  0  0  0  0  0  0  0  0  0  0
  -25.9250  -34.9950   23.4580 C   0  0  0  0  0  0  0  0  0  0  0  0
  -26.5660  -34.8960   22.4090 O   0  0  0  0  0  0  0  0  0  0  0  0
  -25.0390  -34.0860   25.0340 H   0  0  0  0  0  0  0  0  0  0  0  0
  -24.1720  -36.7820   23.1800 C   0  0  0  0  0  1  0  0  0  0  0  0
  -25.4510  -36.3840   23.9350 C   0  0  0  0  0  3  0  0  0  0  0  0
  -27.6110  -37.2930   24.6720 C   0  0  0  0  0  1  0  0  0  0  0  0
  -26.4720  -37.4430   23.7710 N   0  0  0  0  0  0  0  0  0  0  0  0
  -26.0660  -38.3620   23.9250 H   0  0  0  0  0  0  0  0  0  0  0  0
  -26.4260  -31.7680   25.1690 C   0  0  1  0  0  0  0  0  0  0  0  0
  -25.3210  -31.5410   26.2290 C   0  0  0  0  0  1  0  0  0  0  0  0
  -27.0080  -30.3860   24.7980 C   0  0  0  0  0  1  0  0  0  0  0  0
  -27.5740  -32.5600   25.8400 C   0  0  0  0  0  1  0  0  0  0  0  0
  2  6  2  0
  2  4  1  0
  3  9  1  0
  3  1  2  0
  4 51  1  0
  4  5  2  0
  5  1  1  0
  5  7  1  0
  6  3  1  0
  8  6  1  0
  9 10  2  0
 12  9  1  0
 12 21  1  0
 12 11  1  0
 13 21  1  0
 14 19  1  0
 15 16  1  0
 15 14  1  0
 17 16  1  0
 17 26  1  0
 17 18  1  0
 19 13  1  0
 19 18  1  0
 20 13  2  0
 21 22  1  0
 23 24  2  0
 24 43  1  0
 25 24  1  0
 25 28  1  0
 26 27  1  0
 26 23  1  0
 27 25  2  0
 28 29  1  0
 29 30  2  0
 31 34  1  0
 31 30  1  0
 32 31  2  0
 33 32  1  0
 33 28  2  0
 34 35  1  0
 35 36  1  0
 36 37  2  0
 38 37  1  0
 38 42  1  0
 39 38  2  0
 40 35  2  0
 40 39  1  0
 41 40  1  0
 43 44  1  0
 44 47  1  0
 44 46  1  0
 45 43  2  0
 48 49  1  0
 48 23  1  0
 50 48  1  0
 52 63  2  0
 53 51  1  0
 53 58  1  0
 54 62  1  0
 54 64  1  0
 55 61  1  0
 55 57  1  0
 56 62  1  0
 57 58  2  0
 57 56  1  0
 59 53  2  0
 60 59  1  0
 60 55  2  0
 61 54  1  0
 62 52  1  0
 64 66  2  0
 65 64  1  0
 67 65  1  0
 68 77  2  0
 68 73  1  0
 69 65  1  0
 69 73  1  0
 70 69  1  0
 71 72  1  0
 71 70  1  0
 72 68  1  0
 73 74  2  0
 74 75  1  0
 76 75  2  0
 77 76  1  0
 78 52  1  0
 78 79  1  0
 78 88  1  0
 79 82  1  0
 80 84  1  0
 80 79  1  0
 81 80  2  0
 84 83  1  0
 86 87  1  0
 86 84  1  0
 86 85  1  0
 88 91  1  1
 88 89  1  0
 90 88  1  0
M  ISO  4   4 101  13 100  21 100  51 101
M  END
>  <TORSDO>  (66) 
F 18

>  <SCORE>  (66) 
-15.638

>  <name>  (66) 
66

>  <ligand_id>  (66) 
66

>  <original_smiles>  (66) 
[H]c1c([H])c([H])c2c(c1[H])C([H])([H])C([H])([H])C([H])([H])C2([H])N([H])C(=O)C1([H])N(C(=O)C([H])(N([H])C(=O)C([H])(N([H])C([H])([H])[H])C([H])([H])[H])C(C([H])([H])[H])(C([H])([H])[H])C([H])([H])[H])C([H])([H])c2c([H])c(Oc3c([H])c(F)c(C(=O)C([H])(N([H])C(=O)N4C([H])([H])C([H])([H])C([H])([H])C([H])(n5nc(-c6c([H])c([H])c(Oc7c([H])c([H])c(F)c([H])c7F)c([H])c6[H])c(C(=O)N([H])[H])c5N([H])[H])C4([H])[H])C([H])([H])[H])c([H])c3F)c([H])c([H])c2C1([H])[H]

>  <smiles>  (66) 
[H]c1c([H])c([H])c2c(c1[H])C([H])([H])C([H])([H])C([H])([H])C2([H])N([H])C(=O)C1([H])N(C(=O)C([H])(N([H])C(=O)C([H])(N([H])C([H])([H])[H])C([H])([H])[H])C(C([H])([H])[H])(C([H])([H])[H])C([H])([H])[H])C([H])([H])c2c([H])c(Oc3c([H])c(F)c(C(=O)C([H])(N([H])C(=O)N4C([H])([H])C([H])([H])C([H])([H])C([H])(n5nc(-c6c([H])c([H])c(Oc7c([H])c([H])c(F)c([H])c7F)c([H])c6[H])c(C(=O)N([H])[H])c5N([H])[H])C4([H])[H])C([H])([H])[H])c([H])c3F)c([H])c([H])c2C1([H])[H]

$$$$
67:0:0
     RDKit          3D

 90 98  0  0  1  0  0  0  0  0999 V2000
  -29.9730  -20.8190   19.3640 C   0  0  0  0  0  3  0  0  0  0  0  0
  -29.5560  -22.2420   19.2930 C   0  0  0  0  0  3  0  0  0  0  0  0
  -28.5490  -20.4490   21.1160 C   0  0  0  0  0  3  0  0  0  0  0  0
  -29.5140  -19.7620   20.2660 C   0  0  0  0  0  0  0  0  0  0  0  0
  -28.5940  -22.9240   20.1410 C   0  0  0  0  0  0  0  0  0  0  0  0
  -28.1290  -21.8790   21.0650 C   0  0  0  0  0  0  0  0  0  0  0  0
  -29.7440  -16.7920   20.5300 C   0  0  0  0  0  3  0  0  0  0  0  0
  -30.1280  -18.1840   20.2640 C   0  0  0  0  0  0  0  0  0  0  0  0
  -30.5550  -15.3910   20.4330 C   0  0  0  0  0  0  0  0  0  0  0  0
  -30.5310  -12.9260   19.6460 C   0  0  0  0  0  2  0  0  0  0  0  0
  -29.6710  -12.7400   18.3710 C   0  0  0  0  0  2  0  0  0  0  0  0
  -28.2020  -12.4820   18.7460 C   0  0  0  0  0  2  0  0  0  0  0  0
  -27.7080  -13.4670   19.8370 C   0  0  0  0  0  3  0  0  0  0  0  0
  -28.7040  -13.6310   21.0040 C   0  0  0  0  0  2  0  0  0  0  0  0
  -29.9800  -14.0910   20.4340 N   0  0  0  0  0  0  0  0  0  0  0  0
  -31.7750  -15.3460   20.2150 O   0  0  0  0  0  0  0  0  0  0  0  0
  -25.3110  -14.0290   20.5060 C   0  0  0  0  0  0  0  0  0  0  0  0
  -24.2400  -13.2540   20.8490 C   0  0  0  0  0  0  0  0  0  0  0  0
  -24.7080  -11.9040   20.8490 C   0  0  0  0  0  0  0  0  0  0  0  0
  -26.3610  -13.1540   20.3040 N   0  0  0  0  0  0  0  0  0  0  0  0
  -26.0090  -11.8700   20.5790 N   0  0  0  0  0  0  0  0  0  0  0  0
  -23.9750  -10.6440   21.0310 C   0  0  0  0  0  0  0  0  0  0  0  0
  -24.3710   -9.6910   21.9950 C   0  0  0  0  0  3  0  0  0  0  0  0
  -23.6350   -8.4970   22.1650 C   0  0  0  0  0  3  0  0  0  0  0  0
  -22.4920   -8.2480   21.3690 C   0  0  0  0  0  0  0  0  0  0  0  0
  -22.1150   -9.1910   20.3970 C   0  0  0  0  0  3  0  0  0  0  0  0
  -22.8510  -10.3750   20.2250 C   0  0  0  0  0  3  0  0  0  0  0  0
  -21.7320   -7.1040   21.4460 O   0  0  0  0  0  0  0  0  0  0  0  0
  -21.6380   -6.3800   22.6070 C   0  0  0  0  0  0  0  0  0  0  0  0
  -21.1390   -6.9470   23.8000 C   0  0  0  0  0  3  0  0  0  0  0  0
  -20.9890   -6.1500   24.9520 C   0  0  0  0  0  3  0  0  0  0  0  0
  -21.3310   -4.7830   24.9120 C   0  0  0  0  0  0  0  0  0  0  0  0
  -21.8240   -4.2160   23.7240 C   0  0  0  0  0  3  0  0  0  0  0  0
  -21.9740   -5.0120   22.5750 C   0  0  0  0  0  0  0  0  0  0  0  0
  -22.4290   -4.4540   21.4270 F   0  0  0  0  0  0  0  0  0  0  0  0
  -21.1810   -4.0150   26.0150 F   0  0  0  0  0  0  0  0  0  0  0  0
  -22.8340  -13.7350   21.0610 C   0  0  0  0  0  0  0  0  0  0  0  0
  -22.0790  -13.0600   21.9200 N   0  0  0  0  0  0  0  0  0  0  0  0
  -22.4130  -14.7490   20.5030 O   0  0  0  0  0  0  0  0  0  0  0  0
  -22.4320  -12.2410   22.3950 H   0  0  0  0  0  0  0  0  0  0  0  0
  -21.1340  -13.3680   22.1080 H   0  0  0  0  0  0  0  0  0  0  0  0
  -25.4780  -15.3990   20.3220 N   0  0  0  0  0  0  0  0  0  0  0  0
  -24.7020  -16.0480   20.4010 H   0  0  0  0  0  0  0  0  0  0  0  0
  -26.3330  -15.8410   20.0100 H   0  0  0  0  0  0  0  0  0  0  0  0
  -31.4170  -18.3180   19.9310 O   0  0  0  0  0  0  0  0  0  0  0  0
  -31.5940  -19.2480   19.8580 H   0  0  0  0  0  0  0  0  0  0  0  0
  -27.1790  -22.2480   21.9740 O   0  0  0  0  0  0  0  0  0  0  0  0
  -26.9560  -21.5560   22.5910 H   0  0  0  0  0  0  0  0  0  0  0  0
  -27.8370  -24.4730   19.8950 C   0  0  0  0  0  2  0  0  0  0  0  0
  -28.2330  -26.0460   20.0270 O   0  0  0  0  0  0  0  0  0  0  0  0
  -24.6360  -31.8720   23.1390 C   0  0  0  0  0  0  0  0  0  0  0  0
  -27.2280  -27.1400   19.9810 C   0  0  0  0  0  0  0  0  0  0  0  0
  -23.4480  -30.5110   21.4680 C   0  0  0  0  0  3  0  0  0  0  0  0
  -24.9070  -28.9760   19.9910 C   0  0  0  0  0  0  0  0  0  0  0  0
  -26.0090  -30.7670   21.3110 C   0  0  0  0  0  2  0  0  0  0  0  0
  -26.0930  -29.3800   20.6180 C   0  0  0  0  0  0  0  0  0  0  0  0
  -27.2480  -28.4840   20.5920 C   0  0  0  0  0  3  0  0  0  0  0  0
  -26.0150  -26.8880   19.2990 C   0  0  0  0  0  3  0  0  0  0  0  0
  -24.8910  -27.7500   19.3100 C   0  0  0  0  0  3  0  0  0  0  0  0
  -23.6760  -29.8750   20.0700 C   0  0  0  0  0  2  0  0  0  0  0  0
  -24.7190  -31.0740   22.0270 N   0  0  0  0  0  0  0  0  0  0  0  0
  -23.5460  -32.1340   23.6740 O   0  0  0  0  0  0  0  0  0  0  0  0
  -22.7730  -29.4760   22.4080 C   0  0  0  0  0  0  0  0  0  0  0  0
  -21.4440  -29.3020   22.2870 N   0  0  0  0  0  0  0  0  0  0  0  0
  -23.4520  -28.8320   23.2120 O   0  0  0  0  0  0  0  0  0  0  0  0
  -20.9510  -29.8710   21.6140 H   0  0  0  0  0  0  0  0  0  0  0  0
  -18.0740  -28.0650   22.8090 C   0  0  0  0  0  0  0  0  0  0  0  0
  -20.6370  -28.3360   23.0390 C   0  0  0  0  0  3  0  0  0  0  0  0
  -20.7350  -26.9250   22.4150 C   0  0  0  0  0  2  0  0  0  0  0  0
  -19.6180  -26.6310   21.4080 C   0  0  0  0  0  2  0  0  0  0  0  0
  -18.2460  -26.7430   22.0790 C   0  0  0  0  0  2  0  0  0  0  0  0
  -19.1960  -28.8200   23.2460 C   0  0  0  0  0  0  0  0  0  0  0  0
  -18.9790  -30.0550   23.8940 C   0  0  0  0  0  3  0  0  0  0  0  0
  -17.6730  -30.5390   24.1040 C   0  0  0  0  0  3  0  0  0  0  0  0
  -16.5660  -29.7840   23.6790 C   0  0  0  0  0  3  0  0  0  0  0  0
  -16.7680  -28.5480   23.0390 C   0  0  0  0  0  3  0  0  0  0  0  0
  -25.9040  -32.5100   23.7810 C   0  0  0  0  0  3  0  0  0  0  0  0
  -26.4170  -31.7250   25.0520 C   0  0  1  0  0  0  0  0  0  0  0  0
  -25.3170  -31.4660   26.1100 C   0  0  0  0  0  1  0  0  0  0  0  0
  -27.0080  -30.3540   24.6500 C   0  0  0  0  0  1  0  0  0  0  0  0
  -27.5620  -32.5130   25.7290 C   0  0  0  0  0  1  0  0  0  0  0  0
  -25.5770  -33.9010   24.1420 N   0  0  0  0  0  0  0  0  0  0  0  0
  -25.8750  -34.9760   23.3990 C   0  0  0  0  0  0  0  0  0  0  0  0
  -26.5170  -34.9010   22.3480 O   0  0  0  0  0  0  0  0  0  0  0  0
  -25.0000  -34.0310   24.9600 H   0  0  0  0  0  0  0  0  0  0  0  0
  -24.1060  -36.7500   23.1490 C   0  0  0  0  0  1  0  0  0  0  0  0
  -25.3870  -36.3520   23.8990 C   0  0  0  0  0  3  0  0  0  0  0  0
  -27.5330  -37.2680   24.6610 C   0  0  0  0  0  1  0  0  0  0  0  0
  -26.3980  -37.4220   23.7550 N   0  0  0  0  0  0  0  0  0  0  0  0
  -25.9830  -38.3360   23.9180 H   0  0  0  0  0  0  0  0  0  0  0  0
  1  4  1  0
  2  1  2  0
  2  5  1  0
  4  3  2  0
  5  6  2  0
  6  3  1  0
  6 47  1  0
  8  4  1  0
  8  7  2  0
  9 15  1  0
  9  7  1  0
 10 15  1  0
 11 12  1  0
 11 10  1  0
 13 12  1  0
 13 20  1  0
 13 14  1  0
 15 14  1  0
 16  9  2  0
 17 18  2  0
 18 19  1  0
 18 37  1  0
 19 22  1  0
 20 17  1  0
 20 21  1  0
 21 19  2  0
 22 23  1  0
 23 24  2  0
 25 28  1  0
 25 24  1  0
 26 25  2  0
 27 26  1  0
 27 22  2  0
 28 29  1  0
 29 30  1  0
 30 31  2  0
 32 31  1  0
 32 36  1  0
 33 32  2  0
 34 29  2  0
 34 33  1  0
 35 34  1  0
 37 38  1  0
 38 41  1  0
 38 40  1  0
 39 37  2  0
 42 43  1  0
 42 17  1  0
 44 42  1  0
 45  8  1  0
 46 45  1  0
 47 48  1  0
 49 50  1  0
 49  5  1  0
 51 62  2  0
 52 50  1  0
 52 57  1  0
 53 61  1  0
 53 63  1  0
 54 60  1  0
 54 56  1  0
 55 61  1  0
 56 55  1  0
 57 56  2  0
 58 59  1  0
 58 52  2  0
 59 54  2  0
 60 53  1  0
 61 51  1  0
 63 65  2  0
 64 63  1  0
 66 64  1  0
 67 76  2  0
 67 72  1  0
 68 64  1  0
 68 72  1  0
 69 68  1  0
 70 71  1  0
 70 69  1  0
 71 67  1  0
 72 73  2  0
 73 74  1  0
 75 74  2  0
 76 75  1  0
 77 51  1  0
 77 82  1  0
 77 78  1  0
 78 81  1  1
 78 79  1  0
 80 78  1  0
 82 85  1  0
 83 87  1  0
 83 82  1  0
 84 83  2  0
 87 86  1  0
 89 87  1  0
 89 90  1  0
 89 88  1  0
M  ISO  4   7 100   9 100  49 101  50 101
M  END
>  <TORSDO>  (67) 
F 20

>  <SCORE>  (67) 
-14.767

>  <name>  (67) 
67

>  <ligand_id>  (67) 
67

>  <original_smiles>  (67) 
[H]OC(=C([H])C(=O)N1C([H])([H])C([H])([H])C([H])([H])C([H])(n2nc(-c3c([H])c([H])c(Oc4c([H])c([H])c(F)c([H])c4F)c([H])c3[H])c(C(=O)N([H])[H])c2N([H])[H])C1([H])[H])c1c([H])c([H])c(C([H])([H])Oc2c([H])c([H])c3c(c2[H])C([H])([H])N(C(=O)C([H])(N([H])C(=O)C([H])(N([H])C([H])([H])[H])C([H])([H])[H])C(C([H])([H])[H])(C([H])([H])[H])C([H])([H])[H])C([H])(C(=O)N([H])C2([H])c4c([H])c([H])c([H])c([H])c4C([H])([H])C([H])([H])C2([H])[H])C3([H])[H])c(O[H])c1[H]

>  <smiles>  (67) 
[H]OC(=C([H])C(=O)N1C([H])([H])C([H])([H])C([H])([H])C([H])(n2nc(-c3c([H])c([H])c(Oc4c([H])c([H])c(F)c([H])c4F)c([H])c3[H])c(C(=O)N([H])[H])c2N([H])[H])C1([H])[H])c1c([H])c([H])c(C([H])([H])Oc2c([H])c([H])c3c(c2[H])C([H])([H])N(C(=O)C([H])(N([H])C(=O)C([H])(N([H])C([H])([H])[H])C([H])([H])[H])C(C([H])([H])[H])(C([H])([H])[H])C([H])([H])[H])C([H])(C(=O)N([H])C2([H])c4c([H])c([H])c([H])c([H])c4C([H])([H])C([H])([H])C2([H])[H])C3([H])[H])c(O[H])c1[H]

$$$$
68:0:0
     RDKit          3D

 94102  0  0  1  0  0  0  0  0999 V2000
  -28.2930  -24.6570   16.5970 C   0  0  0  0  0  3  0  0  0  0  0  0
  -27.7880  -23.3480   16.6550 C   0  0  0  0  0  3  0  0  0  0  0  0
  -28.5400  -25.3630   17.7860 C   0  0  0  0  0  3  0  0  0  0  0  0
  -27.5570  -22.7260   17.8990 C   0  0  0  0  0  0  0  0  0  0  0  0
  -28.2610  -24.7840   19.0440 C   0  0  0  0  0  0  0  0  0  0  0  0
  -27.7770  -23.4440   19.1100 C   0  0  0  0  0  0  0  0  0  0  0  0
  -27.5030  -22.7540   20.4510 C   0  0  0  0  0  1  0  0  0  0  0  0
  -27.1020  -21.3120   17.8790 C   0  0  0  0  0  0  0  0  0  0  0  0
  -25.9370  -20.9640   17.6740 O   0  0  0  0  0  0  0  0  0  0  0  0
  -28.2040  -20.2730   18.0860 C   0  0  0  0  0  2  0  0  0  0  0  0
  -27.9030  -19.2500   19.1970 C   0  0  0  0  0  2  0  0  0  0  0  0
  -29.2010  -18.6430   19.7540 C   0  0  0  0  0  2  0  0  0  0  0  0
  -28.9720  -17.3690   20.5740 C   0  0  0  0  0  2  0  0  0  0  0  0
  -30.2810  -16.7780   21.1330 C   0  0  0  0  0  2  0  0  0  0  0  0
  -30.7840  -14.4350   20.5080 C   0  0  0  0  0  0  0  0  0  0  0  0
  -30.4220  -12.4140   19.1550 C   0  0  0  0  0  2  0  0  0  0  0  0
  -29.4580  -12.7550   17.9990 C   0  0  0  0  0  2  0  0  0  0  0  0
  -27.9890  -12.6180   18.4440 C   0  0  0  0  0  2  0  0  0  0  0  0
  -27.6980  -13.3450   19.7830 C   0  0  0  0  0  3  0  0  0  0  0  0
  -28.7640  -12.9720   20.8410 C   0  0  0  0  0  2  0  0  0  0  0  0
  -30.0940  -13.2860   20.2900 N   0  0  0  0  0  0  0  0  0  0  0  0
  -31.8520  -14.7060   19.9490 O   0  0  0  0  0  0  0  0  0  0  0  0
  -30.1370  -15.3310   21.2600 N   0  0  0  0  0  0  0  0  0  0  0  0
  -29.3070  -14.9960   21.7260 H   0  0  0  0  0  0  0  0  0  0  0  0
  -25.2880  -13.9360   20.4790 C   0  0  0  0  0  0  0  0  0  0  0  0
  -24.2290  -13.1530   20.8520 C   0  0  0  0  0  0  0  0  0  0  0  0
  -24.7030  -11.8060   20.8250 C   0  0  0  0  0  0  0  0  0  0  0  0
  -26.3450  -13.0660   20.2570 N   0  0  0  0  0  0  0  0  0  0  0  0
  -25.9930  -11.7800   20.5170 N   0  0  0  0  0  0  0  0  0  0  0  0
  -23.9910  -10.5370   21.0190 C   0  0  0  0  0  0  0  0  0  0  0  0
  -24.4290   -9.5800   21.9590 C   0  0  0  0  0  3  0  0  0  0  0  0
  -23.7200   -8.3730   22.1370 C   0  0  0  0  0  3  0  0  0  0  0  0
  -22.5540   -8.1170   21.3760 C   0  0  0  0  0  0  0  0  0  0  0  0
  -22.1340   -9.0620   20.4250 C   0  0  0  0  0  3  0  0  0  0  0  0
  -22.8460  -10.2610   20.2460 C   0  0  0  0  0  3  0  0  0  0  0  0
  -21.8160   -6.9610   21.4630 O   0  0  0  0  0  0  0  0  0  0  0  0
  -21.7600   -6.2300   22.6210 C   0  0  0  0  0  0  0  0  0  0  0  0
  -21.2870   -6.7820   23.8310 C   0  0  0  0  0  3  0  0  0  0  0  0
  -21.1800   -5.9730   24.9810 C   0  0  0  0  0  3  0  0  0  0  0  0
  -21.5400   -4.6130   24.9210 C   0  0  0  0  0  0  0  0  0  0  0  0
  -22.0050   -4.0610   23.7150 C   0  0  0  0  0  3  0  0  0  0  0  0
  -22.1120   -4.8670   22.5690 C   0  0  0  0  0  0  0  0  0  0  0  0
  -22.5420   -4.3240   21.4030 F   0  0  0  0  0  0  0  0  0  0  0  0
  -21.4310   -3.8320   26.0210 F   0  0  0  0  0  0  0  0  0  0  0  0
  -22.8280  -13.6160   21.1280 C   0  0  0  0  0  0  0  0  0  0  0  0
  -22.1090  -12.9150   21.9970 N   0  0  0  0  0  0  0  0  0  0  0  0
  -22.3770  -14.6340   20.6010 O   0  0  0  0  0  0  0  0  0  0  0  0
  -22.4820  -12.0920   22.4450 H   0  0  0  0  0  0  0  0  0  0  0  0
  -21.1670  -13.2070   22.2190 H   0  0  0  0  0  0  0  0  0  0  0  0
  -25.4330  -15.3080   20.2950 N   0  0  0  0  0  0  0  0  0  0  0  0
  -24.6470  -15.9430   20.3740 H   0  0  0  0  0  0  0  0  0  0  0  0
  -26.2730  -15.7570   19.9520 H   0  0  0  0  0  0  0  0  0  0  0  0
  -28.5260  -25.6150   20.3040 C   0  0  0  0  0  2  0  0  0  0  0  0
  -28.5350  -27.0310   20.1190 O   0  0  0  0  0  0  0  0  0  0  0  0
  -24.5990  -32.0130   23.3160 C   0  0  0  0  0  0  0  0  0  0  0  0
  -27.3210  -27.6870   20.1460 C   0  0  0  0  0  0  0  0  0  0  0  0
  -23.4110  -30.6120   21.6590 C   0  0  0  0  0  3  0  0  0  0  0  0
  -24.8870  -29.1260   20.2070 C   0  0  0  0  0  0  0  0  0  0  0  0
  -25.9300  -31.0270   21.4550 C   0  0  0  0  0  2  0  0  0  0  0  0
  -26.0380  -29.6720   20.7900 C   0  0  0  0  0  0  0  0  0  0  0  0
  -27.2570  -28.9610   20.7500 C   0  0  0  0  0  3  0  0  0  0  0  0
  -26.1470  -27.1470   19.5720 C   0  0  0  0  0  3  0  0  0  0  0  0
  -24.9350  -27.8620   19.5980 C   0  0  0  0  0  3  0  0  0  0  0  0
  -23.6240  -29.9530   20.2710 C   0  0  0  0  0  2  0  0  0  0  0  0
  -24.6650  -31.2310   22.2010 N   0  0  0  0  0  0  0  0  0  0  0  0
  -23.5150  -32.2560   23.8630 O   0  0  0  0  0  0  0  0  0  0  0  0
  -22.7840  -29.5640   22.6040 C   0  0  0  0  0  0  0  0  0  0  0  0
  -21.4710  -29.3270   22.4440 N   0  0  0  0  0  0  0  0  0  0  0  0
  -23.4740  -28.9670   23.4330 O   0  0  0  0  0  0  0  0  0  0  0  0
  -20.9750  -29.8620   21.7450 H   0  0  0  0  0  0  0  0  0  0  0  0
  -18.1460  -27.9710   22.8270 C   0  0  0  0  0  0  0  0  0  0  0  0
  -20.6750  -28.3580   23.1950 C   0  0  0  0  0  3  0  0  0  0  0  0
  -20.8710  -26.9270   22.6410 C   0  0  0  0  0  2  0  0  0  0  0  0
  -19.8260  -26.5400   21.5890 C   0  0  0  0  0  2  0  0  0  0  0  0
  -18.4150  -26.6240   22.1770 C   0  0  0  0  0  2  0  0  0  0  0  0
  -19.2080  -28.7930   23.2900 C   0  0  0  0  0  0  0  0  0  0  0  0
  -18.9050  -30.0520   23.8500 C   0  0  0  0  0  3  0  0  0  0  0  0
  -17.5720  -30.4910   23.9560 C   0  0  0  0  0  3  0  0  0  0  0  0
  -16.5230  -29.6670   23.5130 C   0  0  0  0  0  3  0  0  0  0  0  0
  -16.8110  -28.4090   22.9540 C   0  0  0  0  0  3  0  0  0  0  0  0
  -25.8750  -32.6560   23.9400 C   0  0  0  0  0  3  0  0  0  0  0  0
  -25.5550  -34.0530   24.2610 N   0  0  0  0  0  0  0  0  0  0  0  0
  -25.8990  -35.1040   23.5050 C   0  0  0  0  0  0  0  0  0  0  0  0
  -26.5920  -35.0000   22.4880 O   0  0  0  0  0  0  0  0  0  0  0  0
  -24.9420  -34.2070   25.0480 H   0  0  0  0  0  0  0  0  0  0  0  0
  -24.1790  -36.8920   23.0950 C   0  0  0  0  0  1  0  0  0  0  0  0
  -25.3940  -36.4910   23.9470 C   0  0  0  0  0  3  0  0  0  0  0  0
  -27.4950  -37.3790   24.8530 C   0  0  0  0  0  1  0  0  0  0  0  0
  -26.4270  -37.5460   23.8710 N   0  0  0  0  0  0  0  0  0  0  0  0
  -26.0140  -38.4660   24.0050 H   0  0  0  0  0  0  0  0  0  0  0  0
  -26.3930  -31.8910   25.2190 C   0  0  1  0  0  0  0  0  0  0  0  0
  -25.2970  -31.6370   26.2810 C   0  0  0  0  0  1  0  0  0  0  0  0
  -26.9960  -30.5210   24.8280 C   0  0  0  0  0  1  0  0  0  0  0  0
  -27.5300  -32.7010   25.8880 C   0  0  0  0  0  1  0  0  0  0  0  0
  1  2  2  0
  1  3  1  0
  2  4  1  0
  3  5  2  0
  4  6  2  0
  5  6  1  0
  5 53  1  0
  6  7  1  0
  8  4  1  0
  8 10  1  0
  9  8  2  0
 10 11  1  0
 11 12  1  0
 12 13  1  0
 13 14  1  0
 14 23  1  0
 15 23  1  0
 16 21  1  0
 17 18  1  0
 17 16  1  0
 19 18  1  0
 19 28  1  0
 19 20  1  0
 21 15  1  0
 21 20  1  0
 22 15  2  0
 23 24  1  0
 25 26  2  0
 26 45  1  0
 27 26  1  0
 27 30  1  0
 28 25  1  0
 28 29  1  0
 29 27  2  0
 30 31  1  0
 31 32  2  0
 33 36  1  0
 33 32  1  0
 34 33  2  0
 35 34  1  0
 35 30  2  0
 36 37  1  0
 37 38  1  0
 38 39  2  0
 40 39  1  0
 40 44  1  0
 41 40  2  0
 42 37  2  0
 42 41  1  0
 43 42  1  0
 45 46  1  0
 46 49  1  0
 46 48  1  0
 47 45  2  0
 50 51  1  0
 50 25  1  0
 52 50  1  0
 54 56  1  0
 54 53  1  0
 55 66  2  0
 56 61  1  0
 57 65  1  0
 57 67  1  0
 58 64  1  0
 58 60  1  0
 59 65  1  0
 60 59  1  0
 61 60  2  0
 62 63  1  0
 62 56  2  0
 63 58  2  0
 64 57  1  0
 65 55  1  0
 67 69  2  0
 68 67  1  0
 70 68  1  0
 71 80  2  0
 71 76  1  0
 72 68  1  0
 72 76  1  0
 73 72  1  0
 74 75  1  0
 74 73  1  0
 75 71  1  0
 76 77  2  0
 77 78  1  0
 79 78  2  0
 80 79  1  0
 81 55  1  0
 81 82  1  0
 81 91  1  0
 82 85  1  0
 83 87  1  0
 83 82  1  0
 84 83  2  0
 87 86  1  0
 89 87  1  0
 89 90  1  0
 89 88  1  0
 91 94  1  1
 91 92  1  0
 93 91  1  0
M  ISO  4  15 100  23 100  53 101  54 101
M  END
>  <TORSDO>  (68) 
F 23

>  <SCORE>  (68) 
-12.408

>  <name>  (68) 
68

>  <ligand_id>  (68) 
68

>  <original_smiles>  (68) 
[H]c1c([H])c(C(=O)C([H])([H])C([H])([H])C([H])([H])C([H])([H])C([H])([H])N([H])C(=O)N2C([H])([H])C([H])([H])C([H])([H])C([H])(n3nc(-c4c([H])c([H])c(Oc5c([H])c([H])c(F)c([H])c5F)c([H])c4[H])c(C(=O)N([H])[H])c3N([H])[H])C2([H])[H])c(C([H])([H])[H])c(C([H])([H])Oc2c([H])c([H])c3c(c2[H])C([H])([H])N(C(=O)C([H])(N([H])C(=O)C([H])(N([H])C([H])([H])[H])C([H])([H])[H])C(C([H])([H])[H])(C([H])([H])[H])C([H])([H])[H])C([H])(C(=O)N([H])C2([H])c4c([H])c([H])c([H])c([H])c4C([H])([H])C([H])([H])C2([H])[H])C3([H])[H])c1[H]

>  <smiles>  (68) 
[H]c1c([H])c(C(=O)C([H])([H])C([H])([H])C([H])([H])C([H])([H])C([H])([H])N([H])C(=O)N2C([H])([H])C([H])([H])C([H])([H])C([H])(n3nc(-c4c([H])c([H])c(Oc5c([H])c([H])c(F)c([H])c5F)c([H])c4[H])c(C(=O)N([H])[H])c3N([H])[H])C2([H])[H])c(C([H])([H])[H])c(C([H])([H])Oc2c([H])c([H])c3c(c2[H])C([H])([H])N(C(=O)C([H])(N([H])C(=O)C([H])(N([H])C([H])([H])[H])C([H])([H])[H])C(C([H])([H])[H])(C([H])([H])[H])C([H])([H])[H])C([H])(C(=O)N([H])C2([H])c4c([H])c([H])c([H])c([H])c4C([H])([H])C([H])([H])C2([H])[H])C3([H])[H])c1[H]

$$$$
69:0:0
     RDKit          3D

 92 98  0  0  1  0  0  0  0  0999 V2000
  -29.7160  -20.1270   21.8250 C   0  0  0  0  0  2  0  0  0  0  0  0
  -28.3860  -21.2650   21.2750 C   0  0  0  0  0  2  0  0  0  0  0  0
  -31.1130  -19.7190   20.6260 C   0  0  0  0  0  3  0  0  0  0  0  0
  -28.3010  -22.5080   19.9890 C   0  0  0  0  0  2  0  0  0  0  0  0
  -30.6500  -20.4230   18.9410 C   0  0  0  0  0  3  0  0  0  0  0  0
  -29.2030  -21.5320   18.7960 C   0  0  0  0  0  3  0  0  0  0  0  0
  -31.4600  -20.2320   17.8740 F   0  0  0  0  0  0  0  0  0  0  0  0
  -29.0930  -22.0350   17.5430 F   0  0  0  0  0  0  0  0  0  0  0  0
  -32.5000  -19.5480   20.9950 C   0  0  0  0  0  0  0  0  0  0  0  0
  -33.0670  -18.5960   21.5350 O   0  0  0  0  0  0  0  0  0  0  0  0
  -33.0820  -20.9360   20.8580 C   0  0  0  0  0  2  0  0  0  0  0  0
  -31.9730  -21.9290   21.3190 C   0  0  0  0  0  2  0  0  0  0  0  0
  -30.5210  -21.7990   20.6070 C   0  0  0  0  0  1  0  0  0  0  0  0
  -29.8440  -17.1800   19.8280 C   0  0  0  0  0  0  0  0  0  0  0  0
  -30.3200  -14.3060   19.1630 C   0  0  0  0  0  2  0  0  0  0  0  0
  -29.6450  -13.2660   18.1510 C   0  0  0  0  0  2  0  0  0  0  0  0
  -28.3840  -12.6100   18.7120 C   0  0  0  0  0  2  0  0  0  0  0  0
  -27.6730  -13.6600   19.5690 C   0  0  0  0  0  3  0  0  0  0  0  0
  -28.5750  -14.5650   20.5230 C   0  0  0  0  0  2  0  0  0  0  0  0
  -29.4630  -15.5810   19.7350 N   0  0  0  0  0  0  0  0  0  0  0  0
  -31.0870  -16.8590   19.8170 O   0  0  0  0  0  0  0  0  0  0  0  0
  -29.2070  -18.9740   19.8030 N   0  0  0  0  0  2  0  0  0  0  0  0
  -28.2080  -19.0250   19.6600 H   0  0  0  0  0  0  0  0  0  0  0  0
  -25.3320  -14.0070   20.4100 C   0  0  0  0  0  0  0  0  0  0  0  0
  -24.3100  -13.1860   20.7850 C   0  0  0  0  0  0  0  0  0  0  0  0
  -24.8210  -11.8520   20.7180 C   0  0  0  0  0  0  0  0  0  0  0  0
  -26.4100  -13.1920   20.1450 N   0  0  0  0  0  0  0  0  0  0  0  0
  -26.1160  -11.8760   20.3730 N   0  0  0  0  0  0  0  0  0  0  0  0
  -24.1130  -10.5690   20.9090 C   0  0  0  0  0  0  0  0  0  0  0  0
  -24.4930   -9.6490   21.9110 C   0  0  0  0  0  3  0  0  0  0  0  0
  -23.7720   -8.4490   22.0980 C   0  0  0  0  0  3  0  0  0  0  0  0
  -22.6540   -8.1540   21.2830 C   0  0  0  0  0  0  0  0  0  0  0  0
  -22.2880   -9.0630   20.2740 C   0  0  0  0  0  3  0  0  0  0  0  0
  -23.0110  -10.2550   20.0870 C   0  0  0  0  0  3  0  0  0  0  0  0
  -21.9120   -7.0000   21.3740 O   0  0  0  0  0  0  0  0  0  0  0  0
  -21.7170   -6.3570   22.5710 C   0  0  0  0  0  0  0  0  0  0  0  0
  -21.0540   -6.9800   23.6500 C   0  0  0  0  0  3  0  0  0  0  0  0
  -20.8100   -6.2620   24.8380 C   0  0  0  0  0  3  0  0  0  0  0  0
  -21.2220   -4.9200   24.9470 C   0  0  0  0  0  0  0  0  0  0  0  0
  -21.8770   -4.2950   23.8710 C   0  0  0  0  0  3  0  0  0  0  0  0
  -22.1200   -5.0100   22.6850 C   0  0  0  0  0  0  0  0  0  0  0  0
  -22.7330   -4.3960   21.6450 F   0  0  0  0  0  0  0  0  0  0  0  0
  -20.9840   -4.2270   26.0860 F   0  0  0  0  0  0  0  0  0  0  0  0
  -22.9080  -13.6260   21.0820 C   0  0  0  0  0  0  0  0  0  0  0  0
  -22.2110  -12.9020   21.9480 N   0  0  0  0  0  0  0  0  0  0  0  0
  -22.4460  -14.6540   20.5880 O   0  0  0  0  0  0  0  0  0  0  0  0
  -22.6010  -12.0700   22.3650 H   0  0  0  0  0  0  0  0  0  0  0  0
  -21.2720  -13.1790   22.1970 H   0  0  0  0  0  0  0  0  0  0  0  0
  -25.4340  -15.3840   20.2320 N   0  0  0  0  0  0  0  0  0  0  0  0
  -24.6460  -16.0100   20.3540 H   0  0  0  0  0  0  0  0  0  0  0  0
  -26.2650  -15.8520   19.8940 H   0  0  0  0  0  0  0  0  0  0  0  0
  -28.0130  -24.4560   20.0070 O   0  0  0  0  0  1  0  0  0  0  0  0
  -24.6070  -31.8510   23.0480 C   0  0  0  0  0  0  0  0  0  0  0  0
  -27.0770  -26.0280   20.0740 C   0  0  0  0  0  0  0  0  0  0  0  0
  -23.4210  -30.4030   21.4640 C   0  0  0  0  0  3  0  0  0  0  0  0
  -24.8520  -28.5820   20.0720 C   0  0  0  0  0  0  0  0  0  0  0  0
  -26.0230  -30.3180   21.3680 C   0  0  0  0  0  2  0  0  0  0  0  0
  -26.0740  -28.7860   20.7170 C   0  0  0  0  0  0  0  0  0  0  0  0
  -27.1160  -27.5720   20.6670 C   0  0  0  0  0  3  0  0  0  0  0  0
  -25.8120  -26.2690   19.3630 C   0  0  0  0  0  3  0  0  0  0  0  0
  -24.8110  -27.3550   19.3640 C   0  0  0  0  0  3  0  0  0  0  0  0
  -23.6710  -29.6230   20.1220 C   0  0  0  0  0  2  0  0  0  0  0  0
  -24.7220  -30.9140   22.0110 N   0  0  0  0  0  0  0  0  0  0  0  0
  -23.5060  -32.1760   23.5420 O   0  0  0  0  0  0  0  0  0  0  0  0
  -22.6640  -29.5070   22.4890 C   0  0  0  0  0  0  0  0  0  0  0  0
  -21.3270  -29.3480   22.3810 N   0  0  0  0  0  0  0  0  0  0  0  0
  -23.3100  -28.9370   23.3700 O   0  0  0  0  0  0  0  0  0  0  0  0
  -20.8410  -29.8560   21.6550 H   0  0  0  0  0  0  0  0  0  0  0  0
  -17.9810  -27.9860   22.9410 C   0  0  0  0  0  0  0  0  0  0  0  0
  -20.5250  -28.4090   23.1880 C   0  0  0  0  0  3  0  0  0  0  0  0
  -20.6990  -26.9590   22.6770 C   0  0  0  0  0  2  0  0  0  0  0  0
  -19.6240  -26.5420   21.6690 C   0  0  0  0  0  2  0  0  0  0  0  0
  -18.2330  -26.6310   22.3030 C   0  0  0  0  0  2  0  0  0  0  0  0
  -19.0550  -28.8290   23.3410 C   0  0  0  0  0  0  0  0  0  0  0  0
  -18.7580  -30.0860   23.9110 C   0  0  0  0  0  3  0  0  0  0  0  0
  -17.4240  -30.5070   24.0750 C   0  0  0  0  0  3  0  0  0  0  0  0
  -16.3680  -29.6660   23.6850 C   0  0  0  0  0  3  0  0  0  0  0  0
  -16.6470  -28.4070   23.1260 C   0  0  0  0  0  3  0  0  0  0  0  0
  -25.8390  -32.5710   23.6860 C   0  0  0  0  0  3  0  0  0  0  0  0
  -26.3440  -31.8640   25.0050 C   0  0  1  0  0  0  0  0  0  0  0  0
  -25.2380  -31.6440   26.0650 C   0  0  0  0  0  1  0  0  0  0  0  0
  -26.9630  -30.4840   24.7020 C   0  0  0  0  0  1  0  0  0  0  0  0
  -27.4710  -32.7030   25.6530 C   0  0  0  0  0  1  0  0  0  0  0  0
  -25.4790  -33.9770   24.0130 N   0  0  0  0  0  0  0  0  0  0  0  0
  -25.8460  -35.0710   23.3250 C   0  0  0  0  0  0  0  0  0  0  0  0
  -26.5550  -35.0030   22.3200 O   0  0  0  0  0  0  0  0  0  0  0  0
  -24.8460  -34.1020   24.7880 H   0  0  0  0  0  0  0  0  0  0  0  0
  -24.1500  -36.9150   22.9810 C   0  0  0  0  0  1  0  0  0  0  0  0
  -25.3550  -36.4550   23.8190 C   0  0  0  0  0  3  0  0  0  0  0  0
  -27.4610  -37.3090   24.7660 C   0  0  0  0  0  1  0  0  0  0  0  0
  -26.3960  -37.5110   23.7870 N   0  0  0  0  0  0  0  0  0  0  0  0
  -25.9840  -38.4240   23.9560 H   0  0  0  0  0  0  0  0  0  0  0  0
  2  1  1  0
  3  9  1  0
  3  1  1  0
  4  2  1  0
  5  7  1  0
  5  3  1  0
  6  8  1  0
  6  5  1  0
  6  4  1  0
  9 10  2  0
 11  9  1  0
 11 12  1  0
 13 12  1  0
 15 20  1  0
 16 17  1  0
 16 15  1  0
 18 17  1  0
 18 27  1  0
 18 19  1  0
 20 14  1  0
 20 19  1  0
 21 14  2  0
 22 14  1  0
 23 22  1  0
 24 25  2  0
 25 44  1  0
 26 25  1  0
 26 29  1  0
 27 28  1  0
 27 24  1  0
 28 26  2  0
 29 30  1  0
 30 31  2  0
 32 35  1  0
 32 31  1  0
 33 32  2  0
 34 33  1  0
 34 29  2  0
 35 36  1  0
 36 41  2  0
 36 37  1  0
 37 38  2  0
 38 39  1  0
 39 43  1  0
 40 39  2  0
 41 40  1  0
 42 41  1  0
 44 45  1  0
 45 48  1  0
 45 47  1  0
 46 44  2  0
 49 50  1  0
 49 24  1  0
 51 49  1  0
 52 54  1  0
 53 64  2  0
 54 59  1  0
 55 63  1  0
 55 65  1  0
 56 62  1  0
 56 58  1  0
 57 63  1  0
 58 57  1  0
 59 58  2  0
 60 61  1  0
 60 54  2  0
 61 56  2  0
 62 55  1  0
 63 53  1  0
 65 67  2  0
 66 65  1  0
 68 66  1  0
 69 78  2  0
 69 74  1  0
 70 66  1  0
 70 74  1  0
 71 70  1  0
 72 73  1  0
 72 71  1  0
 73 69  1  0
 74 75  2  0
 75 76  1  0
 77 76  2  0
 78 77  1  0
 79 53  1  0
 79 84  1  0
 79 80  1  0
 80 83  1  1
 80 81  1  0
 82 80  1  0
 84 87  1  0
 85 89  1  0
 85 84  1  0
 86 85  2  0
 89 88  1  0
 91 89  1  0
 91 92  1  0
 91 90  1  0
M  ISO  4   4 101  14 100  22 100  52 101
M  END
>  <TORSDO>  (69) 
F 20

>  <SCORE>  (69) 
-14.638

>  <name>  (69) 
69

>  <ligand_id>  (69) 
69

>  <original_smiles>  (69) 
[H]c1c([H])c([H])c2c(c1[H])C([H])([H])C([H])([H])C([H])([H])C2([H])N([H])C(=O)C1([H])N(C(=O)C([H])(N([H])C(=O)C([H])(N([H])C([H])([H])[H])C([H])([H])[H])C(C([H])([H])[H])(C([H])([H])[H])C([H])([H])[H])C([H])([H])c2c([H])c(Oc3c([H])c([H])c(C(=O)C([H])([H])C([H])([H])C([H])([H])N([H])C(=O)N4C([H])([H])C([H])([H])C([H])([H])C([H])(n5nc(-c6c([H])c([H])c(Oc7c([H])c([H])c(F)c([H])c7F)c([H])c6[H])c(C(=O)N([H])[H])c5N([H])[H])C4([H])[H])c(F)c3F)c([H])c([H])c2C1([H])[H]

>  <smiles>  (69) 
[H]c1c([H])c([H])c2c(c1[H])C([H])([H])C([H])([H])C([H])([H])C2([H])N([H])C(=O)C1([H])N(C(=O)C([H])(N([H])C(=O)C([H])(N([H])C([H])([H])[H])C([H])([H])[H])C(C([H])([H])[H])(C([H])([H])[H])C([H])([H])[H])C([H])([H])c2c([H])c(Oc3c([H])c([H])c(C(=O)C([H])([H])C([H])([H])C([H])([H])N([H])C(=O)N4C([H])([H])C([H])([H])C([H])([H])C([H])(n5nc(-c6c([H])c([H])c(Oc7c([H])c([H])c(F)c([H])c7F)c([H])c6[H])c(C(=O)N([H])[H])c5N([H])[H])C4([H])[H])c(F)c3F)c([H])c([H])c2C1([H])[H]

$$$$
70:0:0
     RDKit          3D

 91 99  0  0  1  0  0  0  0  0999 V2000
  -29.8860  -20.9810   18.7810 C   0  0  0  0  0  3  0  0  0  0  0  0
  -29.4640  -22.3930   18.7870 C   0  0  0  0  0  3  0  0  0  0  0  0
  -28.8800  -22.1740   21.0080 C   0  0  0  0  0  3  0  0  0  0  0  0
  -29.8340  -20.0100   19.8640 C   0  0  0  0  0  0  0  0  0  0  0  0
  -28.9110  -23.1230   19.9010 C   0  0  0  0  0  0  0  0  0  0  0  0
  -29.3070  -20.7490   21.0080 C   0  0  0  0  0  0  0  0  0  0  0  0
  -30.3240  -18.4030   19.6020 C   0  0  0  0  0  0  0  0  0  0  0  0
  -30.9140  -18.2380   18.5310 O   0  0  0  0  0  0  0  0  0  0  0  0
  -30.9450  -17.1940   21.7840 C   0  0  0  0  0  1  0  0  0  0  0  0
  -28.6840  -16.8190   20.8070 C   0  0  0  0  0  1  0  0  0  0  0  0
  -30.1790  -16.9320   20.4640 C   0  0  1  0  0  0  0  0  0  0  0  0
  -30.7980  -15.3870   19.9340 C   0  0  0  0  0  0  0  0  0  0  0  0
  -30.6940  -12.9700   19.0110 C   0  0  0  0  0  2  0  0  0  0  0  0
  -29.7020  -12.8140   17.8300 C   0  0  0  0  0  2  0  0  0  0  0  0
  -28.2740  -12.5470   18.3390 C   0  0  0  0  0  2  0  0  0  0  0  0
  -27.8950  -13.4900   19.5060 C   0  0  0  0  0  3  0  0  0  0  0  0
  -29.0100  -13.5680   20.5740 C   0  0  0  0  0  2  0  0  0  0  0  0
  -30.2220  -14.0860   19.9110 N   0  0  0  0  0  0  0  0  0  0  0  0
  -31.9600  -15.3750   19.5030 O   0  0  0  0  0  0  0  0  0  0  0  0
  -25.5760  -14.0540   20.4340 C   0  0  0  0  0  0  0  0  0  0  0  0
  -24.5290  -13.2750   20.8390 C   0  0  0  0  0  0  0  0  0  0  0  0
  -24.9710  -11.9220   20.7080 C   0  0  0  0  0  0  0  0  0  0  0  0
  -26.5900  -13.1790   20.0800 N   0  0  0  0  0  0  0  0  0  0  0  0
  -26.2390  -11.8870   20.3110 N   0  0  0  0  0  0  0  0  0  0  0  0
  -24.2360  -10.6640   20.8800 C   0  0  0  0  0  0  0  0  0  0  0  0
  -24.6430   -9.6920   21.8200 C   0  0  0  0  0  3  0  0  0  0  0  0
  -23.9040   -8.5000   21.9830 C   0  0  0  0  0  3  0  0  0  0  0  0
  -22.7440   -8.2720   21.2040 C   0  0  0  0  0  0  0  0  0  0  0  0
  -22.3560   -9.2330   20.2550 C   0  0  0  0  0  3  0  0  0  0  0  0
  -23.0950  -10.4170   20.0910 C   0  0  0  0  0  3  0  0  0  0  0  0
  -21.9800   -7.1330   21.2740 O   0  0  0  0  0  0  0  0  0  0  0  0
  -21.8210   -6.4440   22.4510 C   0  0  0  0  0  0  0  0  0  0  0  0
  -21.2190   -7.0340   23.5830 C   0  0  0  0  0  3  0  0  0  0  0  0
  -21.0120   -6.2710   24.7490 C   0  0  0  0  0  3  0  0  0  0  0  0
  -21.3970   -4.9170   24.7820 C   0  0  0  0  0  0  0  0  0  0  0  0
  -21.9930   -4.3260   23.6540 C   0  0  0  0  0  3  0  0  0  0  0  0
  -22.2010   -5.0880   22.4910 C   0  0  0  0  0  0  0  0  0  0  0  0
  -22.7560   -4.5070   21.3990 F   0  0  0  0  0  0  0  0  0  0  0  0
  -21.1920   -4.1800   25.9000 F   0  0  0  0  0  0  0  0  0  0  0  0
  -23.1620  -13.7590   21.2220 C   0  0  0  0  0  0  0  0  0  0  0  0
  -22.4850  -13.0430   22.1130 N   0  0  0  0  0  0  0  0  0  0  0  0
  -22.7050  -14.8080   20.7710 O   0  0  0  0  0  0  0  0  0  0  0  0
  -22.8680  -12.1940   22.5010 H   0  0  0  0  0  0  0  0  0  0  0  0
  -21.5700  -13.3490   22.4110 H   0  0  0  0  0  0  0  0  0  0  0  0
  -25.7280  -15.4300   20.3100 N   0  0  0  0  0  0  0  0  0  0  0  0
  -24.9720  -16.0710   20.5250 H   0  0  0  0  0  0  0  0  0  0  0  0
  -26.5480  -15.8940   19.9450 H   0  0  0  0  0  0  0  0  0  0  0  0
  -29.1610  -20.0810   22.1880 O   0  0  0  0  0  0  0  0  0  0  0  0
  -28.8160  -20.6210   22.8930 H   0  0  0  0  0  0  0  0  0  0  0  0
  -28.0590  -24.6070   19.8030 C   0  0  0  0  0  2  0  0  0  0  0  0
  -28.4120  -26.1620   19.9790 O   0  0  0  0  0  0  0  0  0  0  0  0
  -24.6860  -31.8340   23.1180 C   0  0  0  0  0  0  0  0  0  0  0  0
  -27.3710  -27.2050   19.9360 C   0  0  0  0  0  0  0  0  0  0  0  0
  -23.5220  -30.4640   21.4350 C   0  0  0  0  0  3  0  0  0  0  0  0
  -25.0100  -28.9680   19.9550 C   0  0  0  0  0  0  0  0  0  0  0  0
  -26.0750  -30.7760   21.2840 C   0  0  0  0  0  2  0  0  0  0  0  0
  -26.1840  -29.4000   20.5850 C   0  0  0  0  0  0  0  0  0  0  0  0
  -27.3610  -28.5370   20.5570 C   0  0  0  0  0  3  0  0  0  0  0  0
  -26.1630  -26.9120   19.2600 C   0  0  0  0  0  3  0  0  0  0  0  0
  -25.0180  -27.7430   19.2750 C   0  0  0  0  0  3  0  0  0  0  0  0
  -23.7630  -29.8410   20.0350 C   0  0  0  0  0  2  0  0  0  0  0  0
  -24.7820  -31.0480   22.0020 N   0  0  0  0  0  0  0  0  0  0  0  0
  -23.5920  -32.0740   23.6560 O   0  0  0  0  0  0  0  0  0  0  0  0
  -22.8650  -29.4130   22.3660 C   0  0  0  0  0  0  0  0  0  0  0  0
  -21.5350  -29.2340   22.2560 N   0  0  0  0  0  0  0  0  0  0  0  0
  -23.5540  -28.7630   23.1550 O   0  0  0  0  0  0  0  0  0  0  0  0
  -21.0300  -29.8140   21.6010 H   0  0  0  0  0  0  0  0  0  0  0  0
  -18.1720  -27.9930   22.7990 C   0  0  0  0  0  0  0  0  0  0  0  0
  -20.7380  -28.2530   23.0010 C   0  0  0  0  0  3  0  0  0  0  0  0
  -20.8250  -26.8540   22.3470 C   0  0  0  0  0  2  0  0  0  0  0  0
  -19.6940  -26.5820   21.3510 C   0  0  0  0  0  2  0  0  0  0  0  0
  -18.3320  -26.6850   22.0440 C   0  0  0  0  0  2  0  0  0  0  0  0
  -19.3010  -28.7360   23.2350 C   0  0  0  0  0  0  0  0  0  0  0  0
  -19.0950  -29.9610   23.9050 C   0  0  0  0  0  3  0  0  0  0  0  0
  -17.7930  -30.4430   24.1440 C   0  0  0  0  0  3  0  0  0  0  0  0
  -16.6800  -29.6960   23.7210 C   0  0  0  0  0  3  0  0  0  0  0  0
  -16.8700  -28.4730   23.0560 C   0  0  0  0  0  3  0  0  0  0  0  0
  -25.9450  -32.4860   23.7680 C   0  0  0  0  0  3  0  0  0  0  0  0
  -26.4860  -31.6800   25.0140 C   0  0  1  0  0  0  0  0  0  0  0  0
  -25.4030  -31.3650   26.0710 C   0  0  0  0  0  1  0  0  0  0  0  0
  -27.1110  -30.3370   24.5710 C   0  0  0  0  0  1  0  0  0  0  0  0
  -27.6120  -32.4830   25.7080 C   0  0  0  0  0  1  0  0  0  0  0  0
  -25.5920  -33.8600   24.1650 N   0  0  0  0  0  0  0  0  0  0  0  0
  -25.8680  -34.9590   23.4530 C   0  0  0  0  0  0  0  0  0  0  0  0
  -26.5140  -34.9270   22.4020 O   0  0  0  0  0  0  0  0  0  0  0  0
  -25.0170  -33.9570   24.9900 H   0  0  0  0  0  0  0  0  0  0  0  0
  -24.0720  -36.7080   23.2310 C   0  0  0  0  0  1  0  0  0  0  0  0
  -25.3480  -36.3090   23.9890 C   0  0  0  0  0  3  0  0  0  0  0  0
  -27.4650  -37.2410   24.8140 C   0  0  0  0  0  1  0  0  0  0  0  0
  -26.3400  -37.4020   23.8970 N   0  0  0  0  0  0  0  0  0  0  0  0
  -25.9030  -38.3000   24.0860 H   0  0  0  0  0  0  0  0  0  0  0  0
  1  2  2  0
  1  4  1  0
  2  5  1  0
  3  6  1  0
  4  6  2  0
  5  3  2  0
  6 48  1  0
  7  4  1  0
  7 11  1  0
  8  7  2  0
 11 10  1  1
 11  9  1  0
 12 11  1  0
 13 18  1  0
 14 15  1  0
 14 13  1  0
 16 15  1  0
 16 23  1  0
 16 17  1  0
 18 12  1  0
 18 17  1  0
 19 12  2  0
 20 21  2  0
 21 40  1  0
 22 21  1  0
 22 25  1  0
 23 24  1  0
 23 20  1  0
 24 22  2  0
 25 26  1  0
 26 27  2  0
 28 31  1  0
 28 27  1  0
 29 28  2  0
 30 29  1  0
 30 25  2  0
 31 32  1  0
 32 37  2  0
 32 33  1  0
 33 34  2  0
 34 35  1  0
 35 39  1  0
 36 35  2  0
 37 36  1  0
 38 37  1  0
 40 41  1  0
 41 44  1  0
 41 43  1  0
 42 40  2  0
 45 20  1  0
 45 46  1  0
 47 45  1  0
 48 49  1  0
 50  5  1  0
 50 51  1  0
 52 63  2  0
 53 51  1  0
 53 58  1  0
 54 62  1  0
 54 64  1  0
 55 61  1  0
 55 57  1  0
 56 62  1  0
 57 56  1  0
 58 57  2  0
 59 60  1  0
 59 53  2  0
 60 55  2  0
 61 54  1  0
 62 52  1  0
 64 66  2  0
 65 64  1  0
 67 65  1  0
 68 77  2  0
 68 73  1  0
 69 65  1  0
 69 73  1  0
 70 69  1  0
 71 72  1  0
 71 70  1  0
 72 68  1  0
 73 74  2  0
 74 75  1  0
 76 75  2  0
 77 76  1  0
 78 52  1  0
 78 83  1  0
 78 79  1  0
 79 82  1  1
 79 80  1  0
 81 79  1  0
 83 86  1  0
 84 88  1  0
 84 83  1  0
 85 84  2  0
 88 87  1  0
 90 88  1  0
 90 91  1  0
 90 89  1  0
M  ISO  4  11 100  12 100  50 101  51 101
M  END
>  <TORSDO>  (70) 
F 20

>  <SCORE>  (70) 
-15.119

>  <name>  (70) 
70

>  <ligand_id>  (70) 
70

>  <original_smiles>  (70) 
[H]Oc1c([H])c(C([H])([H])Oc2c([H])c([H])c3c(c2[H])C([H])([H])N(C(=O)C([H])(N([H])C(=O)C([H])(N([H])C([H])([H])[H])C([H])([H])[H])C(C([H])([H])[H])(C([H])([H])[H])C([H])([H])[H])C([H])(C(=O)N([H])C2([H])c4c([H])c([H])c([H])c([H])c4C([H])([H])C([H])([H])C2([H])[H])C3([H])[H])c([H])c([H])c1C(=O)C(C(=O)N1C([H])([H])C([H])([H])C([H])([H])C([H])(n2nc(-c3c([H])c([H])c(Oc4c([H])c([H])c(F)c([H])c4F)c([H])c3[H])c(C(=O)N([H])[H])c2N([H])[H])C1([H])[H])(C([H])([H])[H])C([H])([H])[H]

>  <smiles>  (70) 
[H]Oc1c([H])c(C([H])([H])Oc2c([H])c([H])c3c(c2[H])C([H])([H])N(C(=O)C([H])(N([H])C(=O)C([H])(N([H])C([H])([H])[H])C([H])([H])[H])C(C([H])([H])[H])(C([H])([H])[H])C([H])([H])[H])C([H])(C(=O)N([H])C2([H])c4c([H])c([H])c([H])c([H])c4C([H])([H])C([H])([H])C2([H])[H])C3([H])[H])c([H])c([H])c1C(=O)C(C(=O)N1C([H])([H])C([H])([H])C([H])([H])C([H])(n2nc(-c3c([H])c([H])c(Oc4c([H])c([H])c(F)c([H])c4F)c([H])c3[H])c(C(=O)N([H])[H])c2N([H])[H])C1([H])[H])(C([H])([H])[H])C([H])([H])[H]

$$$$
71:0:0
     RDKit          3D

 92100  0  0  1  0  0  0  0  0999 V2000
  -26.9340  -20.6070   19.9200 C   0  0  0  0  0  1  0  0  0  0  0  0
  -28.4540  -20.7590   19.7250 C   0  0  0  0  0  3  0  0  0  0  0  0
  -29.2900  -16.9460   20.9690 C   0  0  0  0  0  3  0  0  0  0  0  0
  -28.8670  -18.3400   20.9770 C   0  0  0  0  0  3  0  0  0  0  0  0
  -29.8740  -18.6640   18.8680 C   0  0  0  0  0  3  0  0  0  0  0  0
  -30.0210  -16.3330   19.8970 C   0  0  0  0  0  0  0  0  0  0  0  0
  -29.1370  -19.2800   19.9220 C   0  0  0  0  0  0  0  0  0  0  0  0
  -30.2900  -17.2820   18.8440 C   0  0  0  0  0  0  0  0  0  0  0  0
  -30.6580  -14.8640   19.8890 C   0  0  0  0  0  0  0  0  0  0  0  0
  -30.3720  -12.5500   18.9740 C   0  0  0  0  0  2  0  0  0  0  0  0
  -29.3880  -12.5860   17.7850 C   0  0  0  0  0  2  0  0  0  0  0  0
  -27.9450  -12.3970   18.2880 C   0  0  0  0  0  2  0  0  0  0  0  0
  -27.6190  -13.3060   19.5030 C   0  0  0  0  0  3  0  0  0  0  0  0
  -28.7310  -13.3000   20.5700 C   0  0  0  0  0  2  0  0  0  0  0  0
  -29.9870  -13.6500   19.9040 N   0  0  0  0  0  0  0  0  0  0  0  0
  -31.8620  -14.8160   19.6150 O   0  0  0  0  0  0  0  0  0  0  0  0
  -25.2930  -13.8690   20.4040 C   0  0  0  0  0  0  0  0  0  0  0  0
  -24.2490  -13.0880   20.8170 C   0  0  0  0  0  0  0  0  0  0  0  0
  -24.7070  -11.7360   20.7290 C   0  0  0  0  0  0  0  0  0  0  0  0
  -26.3150  -12.9950   20.0790 N   0  0  0  0  0  0  0  0  0  0  0  0
  -25.9770  -11.7050   20.3430 N   0  0  0  0  0  0  0  0  0  0  0  0
  -23.9880  -10.4710   20.9340 C   0  0  0  0  0  0  0  0  0  0  0  0
  -24.4410   -9.5030   21.8580 C   0  0  0  0  0  3  0  0  0  0  0  0
  -23.7190   -8.3060   22.0520 C   0  0  0  0  0  3  0  0  0  0  0  0
  -22.5310   -8.0660   21.3210 C   0  0  0  0  0  0  0  0  0  0  0  0
  -22.0970   -9.0220   20.3860 C   0  0  0  0  0  3  0  0  0  0  0  0
  -22.8190  -10.2120   20.1910 C   0  0  0  0  0  3  0  0  0  0  0  0
  -21.7800   -6.9210   21.4240 O   0  0  0  0  0  0  0  0  0  0  0  0
  -21.7180   -6.2020   22.5920 C   0  0  0  0  0  0  0  0  0  0  0  0
  -21.2800   -6.7830   23.8020 C   0  0  0  0  0  3  0  0  0  0  0  0
  -21.1660   -5.9910   24.9620 C   0  0  0  0  0  3  0  0  0  0  0  0
  -21.4790   -4.6190   24.9120 C   0  0  0  0  0  0  0  0  0  0  0  0
  -21.9100   -4.0380   23.7070 C   0  0  0  0  0  3  0  0  0  0  0  0
  -22.0260   -4.8270   22.5490 C   0  0  0  0  0  0  0  0  0  0  0  0
  -22.4220   -4.2580   21.3850 F   0  0  0  0  0  0  0  0  0  0  0  0
  -21.3620   -3.8560   26.0240 F   0  0  0  0  0  0  0  0  0  0  0  0
  -22.8730  -13.5610   21.1770 C   0  0  0  0  0  0  0  0  0  0  0  0
  -22.1960  -12.8500   22.0710 N   0  0  0  0  0  0  0  0  0  0  0  0
  -22.4080  -14.5980   20.7030 O   0  0  0  0  0  0  0  0  0  0  0  0
  -22.5840  -12.0100   22.4740 H   0  0  0  0  0  0  0  0  0  0  0  0
  -21.2740  -13.1490   22.3570 H   0  0  0  0  0  0  0  0  0  0  0  0
  -25.4550  -15.2430   20.2560 N   0  0  0  0  0  0  0  0  0  0  0  0
  -24.7130  -15.9030   20.4600 H   0  0  0  0  0  0  0  0  0  0  0  0
  -26.3060  -15.6910   19.9370 H   0  0  0  0  0  0  0  0  0  0  0  0
  -30.9530  -16.8840   17.7160 O   0  0  0  0  0  0  0  0  0  0  0  0
  -31.0770  -17.5810   17.0810 H   0  0  0  0  0  0  0  0  0  0  0  0
  -28.9100  -22.1000   20.3800 N   0  0  0  0  0  4  0  0  0  0  0  0
  -28.5530  -22.0980   21.3210 H   0  0  0  0  0  0  0  0  0  0  0  0
  -29.9120  -22.0540   20.4670 H   0  0  0  0  0  0  0  0  0  0  0  0
  -28.5700  -23.4890   19.7130 C   0  0  0  0  0  2  0  0  0  0  0  0
  -28.2500  -24.8520   20.5950 C   0  0  0  0  0  2  0  0  0  0  0  0
  -28.3740  -26.3030   20.1130 O   0  0  0  0  0  0  0  0  0  0  0  0
  -24.5480  -31.7670   23.1480 C   0  0  0  0  0  0  0  0  0  0  0  0
  -27.2670  -27.1960   20.1110 C   0  0  0  0  0  0  0  0  0  0  0  0
  -23.3970  -30.3640   21.4770 C   0  0  0  0  0  3  0  0  0  0  0  0
  -24.8940  -28.8360   20.0620 C   0  0  0  0  0  0  0  0  0  0  0  0
  -25.9390  -30.7050   21.3400 C   0  0  0  0  0  2  0  0  0  0  0  0
  -26.0520  -29.3240   20.6810 C   0  0  0  0  0  0  0  0  0  0  0  0
  -27.2440  -28.5210   20.6850 C   0  0  0  0  0  3  0  0  0  0  0  0
  -26.0840  -26.7830   19.4660 C   0  0  0  0  0  3  0  0  0  0  0  0
  -24.9180  -27.5780   19.4390 C   0  0  0  0  0  3  0  0  0  0  0  0
  -23.6470  -29.7020   20.0960 C   0  0  0  0  0  2  0  0  0  0  0  0
  -24.6460  -30.9660   22.0450 N   0  0  0  0  0  0  0  0  0  0  0  0
  -23.4510  -32.0210   23.6680 O   0  0  0  0  0  0  0  0  0  0  0  0
  -22.7310  -29.3310   22.4210 C   0  0  0  0  0  0  0  0  0  0  0  0
  -21.4090  -29.1360   22.2760 N   0  0  0  0  0  0  0  0  0  0  0  0
  -23.4070  -28.7070   23.2430 O   0  0  0  0  0  0  0  0  0  0  0  0
  -20.9220  -29.6900   21.5860 H   0  0  0  0  0  0  0  0  0  0  0  0
  -18.0490  -27.8630   22.7140 C   0  0  0  0  0  0  0  0  0  0  0  0
  -20.5960  -28.1740   23.0250 C   0  0  0  0  0  3  0  0  0  0  0  0
  -20.7370  -26.7500   22.4400 C   0  0  0  0  0  2  0  0  0  0  0  0
  -19.6580  -26.4120   21.4060 C   0  0  0  0  0  2  0  0  0  0  0  0
  -18.2640  -26.5240   22.0290 C   0  0  0  0  0  2  0  0  0  0  0  0
  -19.1440  -28.6450   23.1670 C   0  0  0  0  0  0  0  0  0  0  0  0
  -18.8890  -29.8970   23.7690 C   0  0  0  0  0  3  0  0  0  0  0  0
  -17.5710  -30.3680   23.9200 C   0  0  0  0  0  3  0  0  0  0  0  0
  -16.4910  -29.5840   23.4820 C   0  0  0  0  0  3  0  0  0  0  0  0
  -16.7290  -28.3330   22.8850 C   0  0  0  0  0  3  0  0  0  0  0  0
  -25.8070  -32.4200   23.7970 C   0  0  0  0  0  3  0  0  0  0  0  0
  -25.4620  -33.8070   24.1440 N   0  0  0  0  0  0  0  0  0  0  0  0
  -25.7770  -34.8790   23.4040 C   0  0  0  0  0  0  0  0  0  0  0  0
  -26.4550  -34.8040   22.3770 O   0  0  0  0  0  0  0  0  0  0  0  0
  -24.8570  -33.9360   24.9420 H   0  0  0  0  0  0  0  0  0  0  0  0
  -24.0060  -36.6360   23.0740 C   0  0  0  0  0  1  0  0  0  0  0  0
  -25.2570  -36.2500   23.8790 C   0  0  0  0  0  3  0  0  0  0  0  0
  -27.3720  -37.1760   24.7180 C   0  0  0  0  0  1  0  0  0  0  0  0
  -26.2650  -37.3290   23.7770 N   0  0  0  0  0  0  0  0  0  0  0  0
  -25.8380  -38.2380   23.9340 H   0  0  0  0  0  0  0  0  0  0  0  0
  -26.3190  -31.6440   25.0740 C   0  0  1  0  0  0  0  0  0  0  0  0
  -25.2140  -31.3750   26.1230 C   0  0  0  0  0  1  0  0  0  0  0  0
  -26.9320  -30.2810   24.6780 C   0  0  0  0  0  1  0  0  0  0  0  0
  -27.4450  -32.4510   25.7600 C   0  0  0  0  0  1  0  0  0  0  0  0
  2  1  1  0
  2  7  1  0
  2 47  1  0
  3  4  1  0
  5  7  1  0
  6  3  2  0
  7  4  2  0
  8  5  2  0
  8  6  1  0
  9  6  1  0
  9 15  1  0
 10 15  1  0
 11 12  1  0
 11 10  1  0
 13 12  1  0
 13 20  1  0
 13 14  1  0
 15 14  1  0
 16  9  2  0
 17 18  2  0
 18 37  1  0
 19 18  1  0
 19 22  1  0
 20 21  1  0
 20 17  1  0
 21 19  2  0
 22 23  1  0
 23 24  2  0
 25 28  1  0
 25 24  1  0
 26 25  2  0
 27 26  1  0
 27 22  2  0
 28 29  1  0
 29 30  1  0
 30 31  2  0
 32 31  1  0
 32 36  1  0
 33 32  2  0
 34 29  2  0
 34 33  1  0
 35 34  1  0
 37 38  1  0
 38 41  1  0
 38 40  1  0
 39 37  2  0
 42 17  1  0
 42 43  1  0
 44 42  1  0
 45  8  1  0
 46 45  1  0
 47 49  1  0
 47 48  1  0
 50 47  1  0
 50 51  1  0
 52 51  1  0
 53 64  2  0
 54 52  1  0
 54 59  1  0
 55 63  1  0
 55 65  1  0
 56 62  1  0
 56 58  1  0
 57 63  1  0
 58 59  2  0
 58 57  1  0
 60 54  2  0
 61 60  1  0
 61 56  2  0
 62 55  1  0
 63 53  1  0
 65 67  2  0
 66 65  1  0
 68 66  1  0
 69 78  2  0
 69 74  1  0
 70 66  1  0
 70 74  1  0
 71 70  1  0
 72 73  1  0
 72 71  1  0
 73 69  1  0
 74 75  2  0
 75 76  1  0
 77 76  2  0
 78 77  1  0
 79 53  1  0
 79 80  1  0
 79 89  1  0
 80 83  1  0
 81 85  1  0
 81 80  1  0
 82 81  2  0
 85 84  1  0
 87 85  1  0
 87 88  1  0
 87 86  1  0
 89 92  1  1
 89 90  1  0
 91 89  1  0
M  ISO  4   6 100   9 100  51 101  52 101
M  END
>  <TORSDO>  (71) 
F 21

>  <SCORE>  (71) 
-12.871

>  <name>  (71) 
71

>  <ligand_id>  (71) 
71

>  <original_smiles>  (71) 
[H]Oc1c([H])c(C([H])(C([H])([H])[H])[N+]([H])([H])C([H])([H])C([H])([H])Oc2c([H])c([H])c3c(c2[H])C([H])([H])N(C(=O)C([H])(N([H])C(=O)C([H])(N([H])C([H])([H])[H])C([H])([H])[H])C(C([H])([H])[H])(C([H])([H])[H])C([H])([H])[H])C([H])(C(=O)N([H])C2([H])c4c([H])c([H])c([H])c([H])c4C([H])([H])C([H])([H])C2([H])[H])C3([H])[H])c([H])c([H])c1C(=O)N1C([H])([H])C([H])([H])C([H])([H])C([H])(n2nc(-c3c([H])c([H])c(Oc4c([H])c([H])c(F)c([H])c4F)c([H])c3[H])c(C(=O)N([H])[H])c2N([H])[H])C1([H])[H]

>  <smiles>  (71) 
[H]Oc1c([H])c(C([H])(C([H])([H])[H])[N+]([H])([H])C([H])([H])C([H])([H])Oc2c([H])c([H])c3c(c2[H])C([H])([H])N(C(=O)C([H])(N([H])C(=O)C([H])(N([H])C([H])([H])[H])C([H])([H])[H])C(C([H])([H])[H])(C([H])([H])[H])C([H])([H])[H])C([H])(C(=O)N([H])C2([H])c4c([H])c([H])c([H])c([H])c4C([H])([H])C([H])([H])C2([H])[H])C3([H])[H])c([H])c([H])c1C(=O)N1C([H])([H])C([H])([H])C([H])([H])C([H])(n2nc(-c3c([H])c([H])c(Oc4c([H])c([H])c(F)c([H])c4F)c([H])c3[H])c(C(=O)N([H])[H])c2N([H])[H])C1([H])[H]

$$$$
72:0:0
     RDKit          3D

 93101  0  0  1  0  0  0  0  0999 V2000
  -29.0070  -16.4120   18.9900 C   0  0  0  0  0  3  0  0  0  0  0  0
  -29.8090  -16.4240   20.1470 C   0  0  0  0  0  0  0  0  0  0  0  0
  -29.9640  -17.7940   20.7310 C   0  0  0  0  0  0  0  0  0  0  0  0
  -29.3040  -19.0380   20.2160 C   0  0  0  0  0  0  0  0  0  0  0  0
  -28.4620  -18.8130   19.0920 C   0  0  0  0  0  0  0  0  0  0  0  0
  -28.3400  -17.5410   18.4970 C   0  0  0  0  0  0  0  0  0  0  0  0
  -30.8790  -17.9600   21.9320 C   0  0  0  0  0  1  0  0  0  0  0  0
  -27.5730  -17.4040   17.3860 F   0  0  0  0  0  0  0  0  0  0  0  0
  -30.5770  -15.0420   20.4470 C   0  0  0  0  0  0  0  0  0  0  0  0
  -30.4590  -12.6850   19.5490 C   0  0  0  0  0  2  0  0  0  0  0  0
  -29.5580  -12.6310   18.2930 C   0  0  0  0  0  2  0  0  0  0  0  0
  -28.0790  -12.4340   18.6850 C   0  0  0  0  0  2  0  0  0  0  0  0
  -27.6340  -13.3510   19.8550 C   0  0  0  0  0  3  0  0  0  0  0  0
  -28.6710  -13.4060   20.9950 C   0  0  0  0  0  2  0  0  0  0  0  0
  -29.9650  -13.7890   20.4140 N   0  0  0  0  0  0  0  0  0  0  0  0
  -31.8070  -15.0640   20.3580 O   0  0  0  0  0  0  0  0  0  0  0  0
  -25.2370  -13.9230   20.5290 C   0  0  0  0  0  0  0  0  0  0  0  0
  -24.1680  -13.1440   20.8720 C   0  0  0  0  0  0  0  0  0  0  0  0
  -24.6470  -11.7970   20.8720 C   0  0  0  0  0  0  0  0  0  0  0  0
  -26.2920  -13.0480   20.3290 N   0  0  0  0  0  0  0  0  0  0  0  0
  -25.9470  -11.7670   20.6040 N   0  0  0  0  0  0  0  0  0  0  0  0
  -23.9290  -10.5310   21.0520 C   0  0  0  0  0  0  0  0  0  0  0  0
  -24.3490   -9.5740   22.0020 C   0  0  0  0  0  3  0  0  0  0  0  0
  -23.6280   -8.3710   22.1710 C   0  0  0  0  0  3  0  0  0  0  0  0
  -22.4770   -8.1190   21.3900 C   0  0  0  0  0  0  0  0  0  0  0  0
  -22.0760   -9.0650   20.4300 C   0  0  0  0  0  3  0  0  0  0  0  0
  -22.7970  -10.2580   20.2580 C   0  0  0  0  0  3  0  0  0  0  0  0
  -21.7300   -6.9680   21.4680 O   0  0  0  0  0  0  0  0  0  0  0  0
  -21.6650   -6.2300   22.6230 C   0  0  0  0  0  0  0  0  0  0  0  0
  -21.2080   -6.7850   23.8380 C   0  0  0  0  0  3  0  0  0  0  0  0
  -21.0920   -5.9730   24.9830 C   0  0  0  0  0  3  0  0  0  0  0  0
  -21.4210   -4.6060   24.9140 C   0  0  0  0  0  0  0  0  0  0  0  0
  -21.8700   -4.0500   23.7040 C   0  0  0  0  0  3  0  0  0  0  0  0
  -21.9890   -4.8600   22.5600 C   0  0  0  0  0  0  0  0  0  0  0  0
  -22.4020   -4.3150   21.3910 F   0  0  0  0  0  0  0  0  0  0  0  0
  -21.3010   -3.8240   26.0120 F   0  0  0  0  0  0  0  0  0  0  0  0
  -22.7590  -13.6110   21.0910 C   0  0  0  0  0  0  0  0  0  0  0  0
  -22.0110  -12.9210   21.9430 N   0  0  0  0  0  0  0  0  0  0  0  0
  -22.3290  -14.6240   20.5410 O   0  0  0  0  0  0  0  0  0  0  0  0
  -22.3710  -12.1020   22.4110 H   0  0  0  0  0  0  0  0  0  0  0  0
  -21.0640  -13.2150   22.1310 H   0  0  0  0  0  0  0  0  0  0  0  0
  -25.3940  -15.2950   20.3440 N   0  0  0  0  0  0  0  0  0  0  0  0
  -24.6210  -15.9430   20.4350 H   0  0  0  0  0  0  0  0  0  0  0  0
  -26.2560  -15.7440   20.0630 H   0  0  0  0  0  0  0  0  0  0  0  0
  -27.7350  -19.8320   18.4830 N   0  0  0  0  0  0  0  0  0  0  0  0
  -28.1030  -20.7700   18.5590 H   0  0  0  0  0  0  0  0  0  0  0  0
  -27.3920  -19.6160   17.5530 H   0  0  0  0  0  0  0  0  0  0  0  0
  -29.4820  -20.5850   20.7930 C   0  0  0  0  0  3  0  0  0  0  0  0
  -28.7120  -21.9790   20.2250 C   0  0  0  0  0  3  0  0  0  0  0  0
  -28.9210  -23.5330   20.7360 C   0  0  0  0  0  0  0  0  0  0  0  0
  -29.8470  -23.7680   21.5180 O   0  0  0  0  0  0  0  0  0  0  0  0
  -27.9600  -24.7830   20.2520 C   0  0  0  0  0  2  0  0  0  0  0  0
  -28.2510  -26.2740   20.5660 O   0  0  0  0  0  0  0  0  0  0  0  0
  -24.6070  -32.0190   23.3490 C   0  0  0  0  0  0  0  0  0  0  0  0
  -27.2070  -27.2570   20.4440 C   0  0  0  0  0  0  0  0  0  0  0  0
  -23.4250  -30.6060   21.7110 C   0  0  0  0  0  3  0  0  0  0  0  0
  -24.8880  -29.0030   20.3370 C   0  0  0  0  0  0  0  0  0  0  0  0
  -25.9820  -30.8560   21.5870 C   0  0  0  0  0  2  0  0  0  0  0  0
  -26.0570  -29.4550   20.9600 C   0  0  0  0  0  0  0  0  0  0  0  0
  -27.2180  -28.5970   20.9990 C   0  0  0  0  0  3  0  0  0  0  0  0
  -26.0140  -26.9060   19.7710 C   0  0  0  0  0  3  0  0  0  0  0  0
  -24.8780  -27.7410   19.7270 C   0  0  0  0  0  3  0  0  0  0  0  0
  -23.6650  -29.9060   20.3470 C   0  0  0  0  0  2  0  0  0  0  0  0
  -24.6900  -31.1820   22.2710 N   0  0  0  0  0  0  0  0  0  0  0  0
  -23.5140  -32.3210   23.8530 O   0  0  0  0  0  0  0  0  0  0  0  0
  -22.7230  -29.6190   22.6770 C   0  0  0  0  0  0  0  0  0  0  0  0
  -21.3970  -29.4550   22.5290 N   0  0  0  0  0  0  0  0  0  0  0  0
  -23.3750  -29.0020   23.5240 O   0  0  0  0  0  0  0  0  0  0  0  0
  -20.9290  -30.0030   21.8210 H   0  0  0  0  0  0  0  0  0  0  0  0
  -17.9960  -28.2960   22.9940 C   0  0  0  0  0  0  0  0  0  0  0  0
  -20.5530  -28.5390   23.3010 C   0  0  0  0  0  3  0  0  0  0  0  0
  -20.6510  -27.0970   22.7520 C   0  0  0  0  0  2  0  0  0  0  0  0
  -19.5630  -26.7660   21.7250 C   0  0  0  0  0  2  0  0  0  0  0  0
  -18.1710  -26.9350   22.3420 C   0  0  0  0  0  2  0  0  0  0  0  0
  -19.1140  -29.0560   23.4300 C   0  0  0  0  0  0  0  0  0  0  0  0
  -18.8960  -30.3290   24.0000 C   0  0  0  0  0  3  0  0  0  0  0  0
  -17.5920  -30.8420   24.1370 C   0  0  0  0  0  3  0  0  0  0  0  0
  -16.4880  -30.0800   23.7170 C   0  0  0  0  0  3  0  0  0  0  0  0
  -16.6910  -28.8080   23.1510 C   0  0  0  0  0  3  0  0  0  0  0  0
  -25.8800  -32.6560   23.9880 C   0  0  0  0  0  3  0  0  0  0  0  0
  -25.5750  -34.0630   24.2870 N   0  0  0  0  0  0  0  0  0  0  0  0
  -25.9100  -35.1000   23.5080 C   0  0  0  0  0  0  0  0  0  0  0  0
  -26.5770  -34.9720   22.4770 O   0  0  0  0  0  0  0  0  0  0  0  0
  -24.9820  -34.2360   25.0860 H   0  0  0  0  0  0  0  0  0  0  0  0
  -24.1770  -36.8880   23.1420 C   0  0  0  0  0  1  0  0  0  0  0  0
  -25.4330  -36.5010   23.9390 C   0  0  0  0  0  3  0  0  0  0  0  0
  -27.5840  -37.4050   24.7070 C   0  0  0  0  0  1  0  0  0  0  0  0
  -26.4640  -37.5510   23.7810 N   0  0  0  0  0  0  0  0  0  0  0  0
  -26.0600  -38.4740   23.9150 H   0  0  0  0  0  0  0  0  0  0  0  0
  -26.3580  -31.9060   25.2930 C   0  0  1  0  0  0  0  0  0  0  0  0
  -25.2380  -31.6990   26.3390 C   0  0  0  0  0  1  0  0  0  0  0  0
  -26.9400  -30.5150   24.9480 C   0  0  0  0  0  1  0  0  0  0  0  0
  -27.4990  -32.7050   25.9650 C   0  0  0  0  0  1  0  0  0  0  0  0
  1  2  1  0
  2  9  1  0
  2  3  2  0
  3  7  1  0
  4  3  1  0
  4 48  1  0
  5  4  2  0
  6  1  2  0
  6  5  1  0
  8  6  1  0
 10 15  1  0
 11 12  1  0
 11 10  1  0
 13 12  1  0
 13 20  1  0
 13 14  1  0
 15  9  1  0
 15 14  1  0
 16  9  2  0
 17 18  2  0
 18 37  1  0
 19 18  1  0
 19 22  1  0
 20 17  1  0
 20 21  1  0
 21 19  2  0
 22 23  1  0
 23 24  2  0
 25 28  1  0
 25 24  1  0
 26 25  2  0
 27 26  1  0
 27 22  2  0
 28 29  1  0
 29 30  1  0
 30 31  2  0
 32 31  1  0
 32 36  1  0
 33 32  2  0
 34 29  2  0
 34 33  1  0
 35 34  1  0
 37 38  1  0
 38 41  1  0
 38 40  1  0
 39 37  2  0
 42 43  1  0
 42 17  1  0
 44 42  1  0
 45 46  1  0
 45  5  1  0
 47 45  1  0
 49 50  1  0
 49 48  2  0
 50 51  2  0
 52 53  1  0
 52 50  1  0
 54 65  2  0
 55 53  1  0
 55 60  1  0
 56 64  1  0
 56 66  1  0
 57 63  1  0
 57 59  1  0
 58 64  1  0
 59 60  2  0
 59 58  1  0
 61 55  2  0
 62 61  1  0
 62 57  2  0
 63 56  1  0
 64 54  1  0
 66 68  2  0
 67 66  1  0
 69 67  1  0
 70 79  2  0
 70 75  1  0
 71 67  1  0
 71 75  1  0
 72 71  1  0
 73 74  1  0
 73 72  1  0
 74 70  1  0
 75 76  2  0
 76 77  1  0
 78 77  2  0
 79 78  1  0
 80 54  1  0
 80 81  1  0
 80 90  1  0
 81 84  1  0
 82 86  1  0
 82 81  1  0
 83 82  2  0
 86 85  1  0
 88 89  1  0
 88 86  1  0
 88 87  1  0
 90 93  1  1
 90 91  1  0
 92 90  1  0
M  ISO  4   2 100   9 100  52 101  53 101
M  END
>  <TORSDO>  (72) 
F 21

>  <SCORE>  (72) 
-13.447

>  <name>  (72) 
72

>  <ligand_id>  (72) 
72

>  <original_smiles>  (72) 
[H]c1c([H])c([H])c2c(c1[H])C([H])([H])C([H])([H])C([H])([H])C2([H])N([H])C(=O)C1([H])N(C(=O)C([H])(N([H])C(=O)C([H])(N([H])C([H])([H])[H])C([H])([H])[H])C(C([H])([H])[H])(C([H])([H])[H])C([H])([H])[H])C([H])([H])c2c([H])c(OC([H])([H])C(=O)C([H])([H])C([H])([H])c3c(N([H])[H])c(F)c([H])c(C(=O)N4C([H])([H])C([H])([H])C([H])([H])C([H])(n5nc(-c6c([H])c([H])c(Oc7c([H])c([H])c(F)c([H])c7F)c([H])c6[H])c(C(=O)N([H])[H])c5N([H])[H])C4([H])[H])c3C([H])([H])[H])c([H])c([H])c2C1([H])[H]

>  <smiles>  (72) 
[H]c1c([H])c([H])c2c(c1[H])C([H])([H])C([H])([H])C([H])([H])C2([H])N([H])C(=O)C1([H])N(C(=O)C([H])(N([H])C(=O)C([H])(N([H])C([H])([H])[H])C([H])([H])[H])C(C([H])([H])[H])(C([H])([H])[H])C([H])([H])[H])C([H])([H])c2c([H])c(OC([H])([H])C(=O)C([H])([H])C([H])([H])c3c(N([H])[H])c(F)c([H])c(C(=O)N4C([H])([H])C([H])([H])C([H])([H])C([H])(n5nc(-c6c([H])c([H])c(Oc7c([H])c([H])c(F)c([H])c7F)c([H])c6[H])c(C(=O)N([H])[H])c5N([H])[H])C4([H])[H])c3C([H])([H])[H])c([H])c([H])c2C1([H])[H]

$$$$
73:0:0
     RDKit          3D

 90 98  0  0  1  0  0  0  0  0999 V2000
  -29.7170  -22.1420   19.6460 C   0  0  0  0  0  3  0  0  0  0  0  0
  -27.7340  -21.9170   20.7700 C   0  0  0  0  0  3  0  0  0  0  0  0
  -28.8450  -21.1310   20.2210 C   0  0  0  0  0  0  0  0  0  0  0  0
  -29.5100  -23.6240   19.6270 C   0  0  0  0  0  0  0  0  0  0  0  0
  -28.3820  -24.3920   20.1790 C   0  0  0  0  0  0  0  0  0  0  0  0
  -27.5120  -23.3860   20.7690 C   0  0  0  0  0  0  0  0  0  0  0  0
  -30.6130  -24.4250   18.9590 C   0  0  0  0  0  1  0  0  0  0  0  0
  -26.3960  -23.8300   21.3980 F   0  0  0  0  0  0  0  0  0  0  0  0
  -28.8740  -19.4170   20.2730 C   0  0  0  0  0  0  0  0  0  0  0  0
  -27.7830  -18.9630   20.6240 O   0  0  0  0  0  0  0  0  0  0  0  0
  -29.9970  -18.1180   19.9660 C   0  0  0  0  0  2  0  0  0  0  0  0
  -30.5220  -15.2300   19.9320 C   0  0  0  0  0  0  0  0  0  0  0  0
  -30.4180  -12.8290   18.9380 C   0  0  0  0  0  2  0  0  0  0  0  0
  -29.4090  -12.7210   17.7660 C   0  0  0  0  0  2  0  0  0  0  0  0
  -27.9890  -12.4270   18.2890 C   0  0  0  0  0  2  0  0  0  0  0  0
  -27.6370  -13.3190   19.5070 C   0  0  0  0  0  3  0  0  0  0  0  0
  -28.7700  -13.3440   20.5520 C   0  0  0  0  0  2  0  0  0  0  0  0
  -29.9550  -13.9180   19.8810 N   0  0  0  0  0  0  0  0  0  0  0  0
  -31.6680  -15.2640   19.4600 O   0  0  0  0  0  0  0  0  0  0  0  0
  -29.1160  -16.3810   21.5910 C   0  0  0  0  0  1  0  0  0  0  0  0
  -29.8130  -16.4870   20.3060 N   0  0  0  0  0  0  0  0  0  0  0  0
  -25.3340  -13.8540   20.4670 C   0  0  0  0  0  0  0  0  0  0  0  0
  -24.3010  -13.0650   20.8880 C   0  0  0  0  0  0  0  0  0  0  0  0
  -24.7540  -11.7170   20.7610 C   0  0  0  0  0  0  0  0  0  0  0  0
  -26.3470  -12.9860   20.0990 N   0  0  0  0  0  0  0  0  0  0  0  0
  -26.0160  -11.6920   20.3400 N   0  0  0  0  0  0  0  0  0  0  0  0
  -24.0350  -10.4490   20.9520 C   0  0  0  0  0  0  0  0  0  0  0  0
  -24.4870   -9.4730   21.8660 C   0  0  0  0  0  3  0  0  0  0  0  0
  -23.7660   -8.2730   22.0470 C   0  0  0  0  0  3  0  0  0  0  0  0
  -22.5780   -8.0410   21.3150 C   0  0  0  0  0  0  0  0  0  0  0  0
  -22.1430   -9.0070   20.3900 C   0  0  0  0  0  3  0  0  0  0  0  0
  -22.8650  -10.1970   20.2060 C   0  0  0  0  0  3  0  0  0  0  0  0
  -21.8270   -6.8940   21.4070 O   0  0  0  0  0  0  0  0  0  0  0  0
  -21.7420   -6.1800   22.5740 C   0  0  0  0  0  0  0  0  0  0  0  0
  -21.2720   -6.7630   23.7720 C   0  0  0  0  0  3  0  0  0  0  0  0
  -21.1390   -5.9740   24.9320 C   0  0  0  0  0  3  0  0  0  0  0  0
  -21.4620   -4.6050   24.8950 C   0  0  0  0  0  0  0  0  0  0  0  0
  -21.9220   -4.0210   23.7020 C   0  0  0  0  0  3  0  0  0  0  0  0
  -22.0580   -4.8070   22.5450 C   0  0  0  0  0  0  0  0  0  0  0  0
  -22.4830   -4.2350   21.3920 F   0  0  0  0  0  0  0  0  0  0  0  0
  -21.3250   -3.8460   26.0070 F   0  0  0  0  0  0  0  0  0  0  0  0
  -22.9320  -13.5360   21.2890 C   0  0  0  0  0  0  0  0  0  0  0  0
  -22.2730  -12.8190   22.1910 N   0  0  0  0  0  0  0  0  0  0  0  0
  -22.4590  -14.5790   20.8360 O   0  0  0  0  0  0  0  0  0  0  0  0
  -22.6690  -11.9740   22.5750 H   0  0  0  0  0  0  0  0  0  0  0  0
  -21.3570  -13.1160   22.4940 H   0  0  0  0  0  0  0  0  0  0  0  0
  -25.4890  -15.2310   20.3410 N   0  0  0  0  0  0  0  0  0  0  0  0
  -24.7390  -15.8800   20.5540 H   0  0  0  0  0  0  0  0  0  0  0  0
  -26.3160  -15.6870   19.9770 H   0  0  0  0  0  0  0  0  0  0  0  0
  -28.3090  -25.9290   20.2250 O   0  0  0  0  0  0  0  0  0  0  0  0
  -24.6250  -31.8050   23.1740 C   0  0  0  0  0  0  0  0  0  0  0  0
  -27.2280  -26.9460   20.2060 C   0  0  0  0  0  0  0  0  0  0  0  0
  -23.4470  -30.3950   21.5330 C   0  0  0  0  0  3  0  0  0  0  0  0
  -24.9110  -28.7890   20.1280 C   0  0  0  0  0  0  0  0  0  0  0  0
  -26.0090  -30.6260   21.3990 C   0  0  0  0  0  2  0  0  0  0  0  0
  -26.0890  -29.2120   20.7570 C   0  0  0  0  0  0  0  0  0  0  0  0
  -27.2410  -28.3120   20.7680 C   0  0  0  0  0  3  0  0  0  0  0  0
  -26.0210  -26.6610   19.5290 C   0  0  0  0  0  3  0  0  0  0  0  0
  -24.9010  -27.5330   19.4930 C   0  0  0  0  0  3  0  0  0  0  0  0
  -23.6850  -29.7020   20.1620 C   0  0  0  0  0  2  0  0  0  0  0  0
  -24.7150  -30.9700   22.0890 N   0  0  0  0  0  0  0  0  0  0  0  0
  -23.5310  -32.0920   23.6880 O   0  0  0  0  0  0  0  0  0  0  0  0
  -22.7490  -29.4020   22.5000 C   0  0  0  0  0  0  0  0  0  0  0  0
  -21.4170  -29.2470   22.3760 N   0  0  0  0  0  0  0  0  0  0  0  0
  -23.4150  -28.7720   23.3250 O   0  0  0  0  0  0  0  0  0  0  0  0
  -20.9370  -29.8060   21.6860 H   0  0  0  0  0  0  0  0  0  0  0  0
  -18.0230  -28.0800   22.9060 C   0  0  0  0  0  0  0  0  0  0  0  0
  -20.5890  -28.3110   23.1450 C   0  0  0  0  0  3  0  0  0  0  0  0
  -20.6640  -26.8840   22.5520 C   0  0  0  0  0  2  0  0  0  0  0  0
  -19.5480  -26.5870   21.5470 C   0  0  0  0  0  2  0  0  0  0  0  0
  -18.1750  -26.7390   22.2070 C   0  0  0  0  0  2  0  0  0  0  0  0
  -19.1550  -28.8260   23.3310 C   0  0  0  0  0  0  0  0  0  0  0  0
  -18.9550  -30.0800   23.9460 C   0  0  0  0  0  3  0  0  0  0  0  0
  -17.6560  -30.5900   24.1370 C   0  0  0  0  0  3  0  0  0  0  0  0
  -16.5390  -29.8400   23.7290 C   0  0  0  0  0  3  0  0  0  0  0  0
  -16.7240  -28.5860   23.1180 C   0  0  0  0  0  3  0  0  0  0  0  0
  -25.8900  -32.4530   23.8160 C   0  0  0  0  0  3  0  0  0  0  0  0
  -25.5650  -33.8490   24.1530 N   0  0  0  0  0  0  0  0  0  0  0  0
  -25.8890  -34.9140   23.4080 C   0  0  0  0  0  0  0  0  0  0  0  0
  -26.5560  -34.8250   22.3750 O   0  0  0  0  0  0  0  0  0  0  0  0
  -24.9750  -33.9920   24.9610 H   0  0  0  0  0  0  0  0  0  0  0  0
  -24.1470  -36.7010   23.0860 C   0  0  0  0  0  1  0  0  0  0  0  0
  -25.3980  -36.2980   23.8830 C   0  0  0  0  0  3  0  0  0  0  0  0
  -27.5340  -37.1920   24.7050 C   0  0  0  0  0  1  0  0  0  0  0  0
  -26.4240  -37.3600   23.7710 N   0  0  0  0  0  0  0  0  0  0  0  0
  -26.0130  -38.2770   23.9280 H   0  0  0  0  0  0  0  0  0  0  0  0
  -26.3940  -31.6850   25.1020 C   0  0  1  0  0  0  0  0  0  0  0  0
  -25.2890  -31.4470   26.1560 C   0  0  0  0  0  1  0  0  0  0  0  0
  -26.9860  -30.3080   24.7260 C   0  0  0  0  0  1  0  0  0  0  0  0
  -27.5370  -32.4840   25.7720 C   0  0  0  0  0  1  0  0  0  0  0  0
  1  3  1  0
  3  9  1  0
  3  2  2  0
  4  1  2  0
  4  5  1  0
  5 50  1  0
  5  6  2  0
  6  2  1  0
  6  8  1  0
  7  4  1  0
  9 10  2  0
 11  9  1  0
 11 21  1  0
 12 21  1  0
 13 18  1  0
 14 15  1  0
 14 13  1  0
 16 15  1  0
 16 25  1  0
 16 17  1  0
 18 12  1  0
 18 17  1  0
 19 12  2  0
 21 20  1  0
 22 23  2  0
 23 42  1  0
 24 23  1  0
 24 27  1  0
 25 26  1  0
 25 22  1  0
 26 24  2  0
 27 28  1  0
 28 29  2  0
 30 33  1  0
 30 29  1  0
 31 30  2  0
 32 31  1  0
 32 27  2  0
 33 34  1  0
 34 35  1  0
 35 36  2  0
 37 36  1  0
 37 41  1  0
 38 37  2  0
 39 34  2  0
 39 38  1  0
 40 39  1  0
 42 43  1  0
 43 46  1  0
 43 45  1  0
 44 42  2  0
 47 22  1  0
 47 48  1  0
 49 47  1  0
 51 62  2  0
 52 50  1  0
 52 57  1  0
 53 61  1  0
 53 63  1  0
 54 60  1  0
 54 56  1  0
 55 61  1  0
 56 57  2  0
 56 55  1  0
 58 52  2  0
 59 58  1  0
 59 54  2  0
 60 53  1  0
 61 51  1  0
 63 65  2  0
 64 63  1  0
 66 64  1  0
 67 76  2  0
 67 72  1  0
 68 64  1  0
 68 72  1  0
 69 68  1  0
 70 71  1  0
 70 69  1  0
 71 67  1  0
 72 73  2  0
 73 74  1  0
 75 74  2  0
 76 75  1  0
 77 51  1  0
 77 78  1  0
 77 87  1  0
 78 81  1  0
 79 83  1  0
 79 78  1  0
 80 79  2  0
 83 82  1  0
 85 83  1  0
 85 86  1  0
 85 84  1  0
 87 90  1  1
 87 88  1  0
 89 87  1  0
M  ISO  4   5 101  12 100  21 100  50 101
M  END
>  <TORSDO>  (73) 
F 18

>  <SCORE>  (73) 
-15.323

>  <name>  (73) 
73

>  <ligand_id>  (73) 
73

>  <original_smiles>  (73) 
[H]c1c([H])c([H])c2c(c1[H])C([H])([H])C([H])([H])C([H])([H])C2([H])N([H])C(=O)C1([H])N(C(=O)C([H])(N([H])C(=O)C([H])(N([H])C([H])([H])[H])C([H])([H])[H])C(C([H])([H])[H])(C([H])([H])[H])C([H])([H])[H])C([H])([H])c2c([H])c(Oc3c(F)c([H])c(C(=O)C([H])([H])N(C(=O)N4C([H])([H])C([H])([H])C([H])([H])C([H])(n5nc(-c6c([H])c([H])c(Oc7c([H])c([H])c(F)c([H])c7F)c([H])c6[H])c(C(=O)N([H])[H])c5N([H])[H])C4([H])[H])C([H])([H])[H])c([H])c3C([H])([H])[H])c([H])c([H])c2C1([H])[H]

>  <smiles>  (73) 
[H]c1c([H])c([H])c2c(c1[H])C([H])([H])C([H])([H])C([H])([H])C2([H])N([H])C(=O)C1([H])N(C(=O)C([H])(N([H])C(=O)C([H])(N([H])C([H])([H])[H])C([H])([H])[H])C(C([H])([H])[H])(C([H])([H])[H])C([H])([H])[H])C([H])([H])c2c([H])c(Oc3c(F)c([H])c(C(=O)C([H])([H])N(C(=O)N4C([H])([H])C([H])([H])C([H])([H])C([H])(n5nc(-c6c([H])c([H])c(Oc7c([H])c([H])c(F)c([H])c7F)c([H])c6[H])c(C(=O)N([H])[H])c5N([H])[H])C4([H])[H])C([H])([H])[H])c([H])c3C([H])([H])[H])c([H])c([H])c2C1([H])[H]

$$$$
74:0:0
     RDKit          3D

 99108  0  0  1  0  0  0  0  0999 V2000
  -28.4550  -22.3020   19.3380 C   0  0  0  0  0  0  0  0  0  0  0  0
  -29.0430  -23.4520   21.8960 C   0  0  0  0  0  2  0  0  0  0  0  0
  -28.4580  -22.0250   21.8970 C   0  0  0  0  0  2  0  0  0  0  0  0
  -28.3680  -24.3430   20.8310 C   0  0  0  0  0  3  0  0  0  0  0  0
  -28.5250  -21.2810   20.5250 C   0  0  1  0  0  0  0  0  0  0  0  0
  -28.4440  -23.6420   19.5430 N   0  0  0  0  0  0  0  0  0  0  0  0
  -28.3820  -21.8640   18.1870 O   0  0  0  0  0  0  0  0  0  0  0  0
  -28.4140  -24.2280   18.7200 H   0  0  0  0  0  0  0  0  0  0  0  0
  -27.3290  -20.4320   20.3570 N   0  0  0  0  0  4  0  0  0  0  0  0
  -26.5020  -21.0020   20.3430 H   0  0  0  0  0  0  0  0  0  0  0  0
  -27.2510  -19.7490   21.0890 H   0  0  0  0  0  0  0  0  0  0  0  0
  -27.3810  -19.9800   19.4600 H   0  0  0  0  0  0  0  0  0  0  0  0
  -29.8420  -20.4050   20.4010 C   0  0  0  0  0  2  0  0  0  0  0  0
  -30.8490  -16.8600   21.6340 C   0  0  0  0  0  3  0  0  0  0  0  0
  -30.6100  -18.2610   21.6370 C   0  0  0  0  0  3  0  0  0  0  0  0
  -29.2280  -18.0180   19.6750 C   0  0  0  0  0  3  0  0  0  0  0  0
  -30.3380  -16.0150   20.6160 C   0  0  0  0  0  0  0  0  0  0  0  0
  -29.8270  -18.8690   20.6250 C   0  0  0  0  0  0  0  0  0  0  0  0
  -29.4910  -16.6260   19.6470 C   0  0  0  0  0  0  0  0  0  0  0  0
  -30.9890  -14.6510   20.3850 C   0  0  0  0  0  0  0  0  0  0  0  0
  -30.6530  -12.4440   19.3360 C   0  0  0  0  0  2  0  0  0  0  0  0
  -29.7450  -12.6360   18.1060 C   0  0  0  0  0  2  0  0  0  0  0  0
  -28.2590  -12.5400   18.5090 C   0  0  0  0  0  2  0  0  0  0  0  0
  -27.9070  -13.3690   19.7760 C   0  0  0  0  0  3  0  0  0  0  0  0
  -28.9600  -13.2230   20.8900 C   0  0  0  0  0  2  0  0  0  0  0  0
  -30.2790  -13.4880   20.3090 N   0  0  0  0  0  0  0  0  0  0  0  0
  -32.1790  -14.6930   20.0650 O   0  0  0  0  0  0  0  0  0  0  0  0
  -25.5220  -13.9740   20.4890 C   0  0  0  0  0  0  0  0  0  0  0  0
  -24.4530  -13.2080   20.8590 C   0  0  0  0  0  0  0  0  0  0  0  0
  -24.9090  -11.8560   20.8220 C   0  0  0  0  0  0  0  0  0  0  0  0
  -26.5610  -13.0880   20.2560 N   0  0  0  0  0  0  0  0  0  0  0  0
  -26.1990  -11.8080   20.5160 N   0  0  0  0  0  0  0  0  0  0  0  0
  -24.1760  -10.5970   20.9970 C   0  0  0  0  0  0  0  0  0  0  0  0
  -24.5770   -9.6390   21.9550 C   0  0  0  0  0  3  0  0  0  0  0  0
  -23.8440   -8.4450   22.1190 C   0  0  0  0  0  3  0  0  0  0  0  0
  -22.6940   -8.2030   21.3280 C   0  0  0  0  0  0  0  0  0  0  0  0
  -22.3130   -9.1490   20.3600 C   0  0  0  0  0  3  0  0  0  0  0  0
  -23.0490  -10.3350   20.1930 C   0  0  0  0  0  3  0  0  0  0  0  0
  -21.9340   -7.0620   21.4070 O   0  0  0  0  0  0  0  0  0  0  0  0
  -21.8080   -6.3600   22.5770 C   0  0  0  0  0  0  0  0  0  0  0  0
  -21.2700   -6.9450   23.7450 C   0  0  0  0  0  3  0  0  0  0  0  0
  -21.1030   -6.1680   24.9080 C   0  0  0  0  0  3  0  0  0  0  0  0
  -21.4550   -4.8040   24.9020 C   0  0  0  0  0  0  0  0  0  0  0  0
  -21.9800   -4.2190   23.7370 C   0  0  0  0  0  3  0  0  0  0  0  0
  -22.1550   -4.9940   22.5780 C   0  0  0  0  0  0  0  0  0  0  0  0
  -22.6470   -4.4210   21.4540 F   0  0  0  0  0  0  0  0  0  0  0  0
  -21.2820   -4.0530   26.0150 F   0  0  0  0  0  0  0  0  0  0  0  0
  -23.0590  -13.6940   21.1250 C   0  0  0  0  0  0  0  0  0  0  0  0
  -22.3230  -12.9950   21.9820 N   0  0  0  0  0  0  0  0  0  0  0  0
  -22.6310  -14.7280   20.6110 O   0  0  0  0  0  0  0  0  0  0  0  0
  -22.6830  -12.1570   22.4160 H   0  0  0  0  0  0  0  0  0  0  0  0
  -21.3840  -13.2910   22.2030 H   0  0  0  0  0  0  0  0  0  0  0  0
  -25.6940  -15.3410   20.3050 N   0  0  0  0  0  0  0  0  0  0  0  0
  -24.9180  -15.9930   20.3650 H   0  0  0  0  0  0  0  0  0  0  0  0
  -26.5220  -15.7310   19.8750 H   0  0  0  0  0  0  0  0  0  0  0  0
  -28.9890  -15.9450   18.5790 O   0  0  0  0  0  0  0  0  0  0  0  0
  -28.3630  -16.4560   18.0750 H   0  0  0  0  0  0  0  0  0  0  0  0
  -28.9800  -25.7900   20.8390 C   0  0  0  0  0  2  0  0  0  0  0  0
  -28.5970  -26.7210   19.8110 O   0  0  0  0  0  0  0  0  0  0  0  0
  -24.7100  -31.8090   23.1210 C   0  0  0  0  0  0  0  0  0  0  0  0
  -27.4240  -27.4360   19.9670 C   0  0  0  0  0  0  0  0  0  0  0  0
  -23.5300  -30.4150   21.4520 C   0  0  0  0  0  3  0  0  0  0  0  0
  -25.0120  -28.9200   20.0110 C   0  0  0  0  0  0  0  0  0  0  0  0
  -26.0510  -30.8120   21.2660 C   0  0  0  0  0  2  0  0  0  0  0  0
  -26.1670  -29.4480   20.6090 C   0  0  0  0  0  0  0  0  0  0  0  0
  -27.3790  -28.7140   20.5830 C   0  0  0  0  0  3  0  0  0  0  0  0
  -26.2520  -26.9200   19.3790 C   0  0  0  0  0  3  0  0  0  0  0  0
  -25.0510  -27.6520   19.4020 C   0  0  0  0  0  3  0  0  0  0  0  0
  -23.7590  -29.7660   20.0640 C   0  0  0  0  0  2  0  0  0  0  0  0
  -24.7810  -31.0310   22.0030 N   0  0  0  0  0  0  0  0  0  0  0  0
  -23.6230  -32.0560   23.6640 O   0  0  0  0  0  0  0  0  0  0  0  0
  -22.8950  -29.3670   22.3950 C   0  0  0  0  0  0  0  0  0  0  0  0
  -21.5680  -29.1870   22.2840 N   0  0  0  0  0  0  0  0  0  0  0  0
  -23.5920  -28.7150   23.1740 O   0  0  0  0  0  0  0  0  0  0  0  0
  -21.0660  -29.7680   21.6280 H   0  0  0  0  0  0  0  0  0  0  0  0
  -18.2020  -27.9950   22.8360 C   0  0  0  0  0  0  0  0  0  0  0  0
  -20.7670  -28.2240   23.0420 C   0  0  0  0  0  3  0  0  0  0  0  0
  -20.8420  -26.8140   22.4100 C   0  0  0  0  0  2  0  0  0  0  0  0
  -19.7100  -26.5400   21.4140 C   0  0  0  0  0  2  0  0  0  0  0  0
  -18.3480  -26.6720   22.1040 C   0  0  0  0  0  2  0  0  0  0  0  0
  -19.3390  -28.7300   23.2620 C   0  0  0  0  0  0  0  0  0  0  0  0
  -19.1500  -29.9720   23.9080 C   0  0  0  0  0  3  0  0  0  0  0  0
  -17.8570  -30.4730   24.1350 C   0  0  0  0  0  3  0  0  0  0  0  0
  -16.7330  -29.7330   23.7250 C   0  0  0  0  0  3  0  0  0  0  0  0
  -16.9080  -28.4970   23.0810 C   0  0  0  0  0  3  0  0  0  0  0  0
  -25.9840  -32.4540   23.7500 C   0  0  0  0  0  3  0  0  0  0  0  0
  -25.6460  -33.8350   24.1110 N   0  0  0  0  0  0  0  0  0  0  0  0
  -25.9460  -34.9100   23.3710 C   0  0  0  0  0  0  0  0  0  0  0  0
  -26.6080  -34.8440   22.3310 O   0  0  0  0  0  0  0  0  0  0  0  0
  -25.0560  -33.9570   24.9210 H   0  0  0  0  0  0  0  0  0  0  0  0
  -24.1770  -36.6730   23.0720 C   0  0  0  0  0  1  0  0  0  0  0  0
  -25.4300  -36.2750   23.8670 C   0  0  0  0  0  3  0  0  0  0  0  0
  -27.5430  -37.1910   24.7170 C   0  0  0  0  0  1  0  0  0  0  0  0
  -26.4380  -37.3540   23.7770 N   0  0  0  0  0  0  0  0  0  0  0  0
  -26.0120  -38.2620   23.9460 H   0  0  0  0  0  0  0  0  0  0  0  0
  -26.5240  -31.6660   25.0060 C   0  0  1  0  0  0  0  0  0  0  0  0
  -25.4420  -31.3820   26.0740 C   0  0  0  0  0  1  0  0  0  0  0  0
  -27.1370  -30.3120   24.5810 C   0  0  0  0  0  1  0  0  0  0  0  0
  -27.6560  -32.4710   25.6840 C   0  0  0  0  0  1  0  0  0  0  0  0
  1  6  1  0
  1  5  1  0
  2  3  1  0
  4 58  1  0
  4  2  1  0
  5 13  1  1
  5  3  1  0
  6  4  1  0
  7  1  2  0
  8  6  1  0
  9  5  1  0
  9 11  1  0
 10  9  1  0
 12  9  1  0
 13 18  1  0
 14 15  1  0
 16 18  1  0
 17 14  2  0
 18 15  2  0
 19 16  2  0
 19 17  1  0
 20 17  1  0
 21 26  1  0
 22 23  1  0
 22 21  1  0
 24 23  1  0
 24 31  1  0
 24 25  1  0
 26 20  1  0
 26 25  1  0
 27 20  2  0
 28 29  2  0
 29 48  1  0
 30 29  1  0
 30 33  1  0
 31 28  1  0
 31 32  1  0
 32 30  2  0
 33 34  1  0
 34 35  2  0
 36 39  1  0
 36 35  1  0
 37 36  2  0
 38 37  1  0
 38 33  2  0
 39 40  1  0
 40 45  2  0
 40 41  1  0
 41 42  2  0
 43 42  1  0
 43 47  1  0
 44 43  2  0
 45 44  1  0
 46 45  1  0
 48 49  1  0
 49 52  1  0
 49 51  1  0
 50 48  2  0
 53 54  1  0
 53 28  1  0
 55 53  1  0
 56 19  1  0
 57 56  1  0
 59 61  1  0
 59 58  1  0
 60 71  2  0
 61 66  1  0
 62 70  1  0
 62 72  1  0
 63 69  1  0
 63 65  1  0
 64 70  1  0
 65 64  1  0
 66 65  2  0
 67 68  1  0
 67 61  2  0
 68 63  2  0
 69 62  1  0
 70 60  1  0
 72 74  2  0
 73 72  1  0
 75 73  1  0
 76 85  2  0
 76 81  1  0
 77 73  1  0
 77 81  1  0
 78 77  1  0
 79 80  1  0
 79 78  1  0
 80 76  1  0
 81 82  2  0
 82 83  1  0
 84 83  2  0
 85 84  1  0
 86 60  1  0
 86 87  1  0
 86 96  1  0
 87 90  1  0
 88 92  1  0
 88 87  1  0
 89 88  2  0
 92 91  1  0
 94 92  1  0
 94 95  1  0
 94 93  1  0
 96 99  1  1
 96 97  1  0
 98 96  1  0
M  ISO  4  17 100  20 100  58 101  59 101
M  END
>  <TORSDO>  (74) 
F 21

>  <SCORE>  (74) 
-14.029

>  <name>  (74) 
74

>  <ligand_id>  (74) 
74

>  <original_smiles>  (74) 
[H]Oc1c([H])c(C([H])([H])C2([N+]([H])([H])[H])C(=O)N([H])C([H])(C([H])([H])Oc3c([H])c([H])c4c(c3[H])C([H])([H])N(C(=O)C([H])(N([H])C(=O)C([H])(N([H])C([H])([H])[H])C([H])([H])[H])C(C([H])([H])[H])(C([H])([H])[H])C([H])([H])[H])C([H])(C(=O)N([H])C3([H])c5c([H])c([H])c([H])c([H])c5C([H])([H])C([H])([H])C3([H])[H])C4([H])[H])C([H])([H])C2([H])[H])c([H])c([H])c1C(=O)N1C([H])([H])C([H])([H])C([H])([H])C([H])(n2nc(-c3c([H])c([H])c(Oc4c([H])c([H])c(F)c([H])c4F)c([H])c3[H])c(C(=O)N([H])[H])c2N([H])[H])C1([H])[H]

>  <smiles>  (74) 
[H]Oc1c([H])c(C([H])([H])C2([N+]([H])([H])[H])C(=O)N([H])C([H])(C([H])([H])Oc3c([H])c([H])c4c(c3[H])C([H])([H])N(C(=O)C([H])(N([H])C(=O)C([H])(N([H])C([H])([H])[H])C([H])([H])[H])C(C([H])([H])[H])(C([H])([H])[H])C([H])([H])[H])C([H])(C(=O)N([H])C3([H])c5c([H])c([H])c([H])c([H])c5C([H])([H])C([H])([H])C3([H])[H])C4([H])[H])C([H])([H])C2([H])[H])c([H])c([H])c1C(=O)N1C([H])([H])C([H])([H])C([H])([H])C([H])(n2nc(-c3c([H])c([H])c(Oc4c([H])c([H])c(F)c([H])c4F)c([H])c3[H])c(C(=O)N([H])[H])c2N([H])[H])C1([H])[H]

$$$$
75:0:0
     RDKit          3D

 91100  0  0  1  0  0  0  0  0999 V2000
  -29.4600  -20.1860   17.9620 C   0  0  0  0  0  3  0  0  0  0  0  0
  -29.7600  -18.9550   18.6390 C   0  0  0  0  0  3  0  0  0  0  0  0
  -29.1180  -21.4510   18.5600 C   0  0  0  0  0  0  0  0  0  0  0  0
  -29.3950  -20.1950   20.6500 C   0  0  0  0  0  0  0  0  0  0  0  0
  -29.1110  -21.5930   19.9590 C   0  0  0  0  0  0  0  0  0  0  0  0
  -29.7270  -18.7730   20.0430 C   0  0  0  0  0  0  0  0  0  0  0  0
  -28.7500  -22.6380   17.6890 C   0  0  0  0  0  0  0  0  0  0  0  0
  -28.4960  -24.0300   18.2490 C   0  0  0  0  0  0  0  0  0  0  0  0
  -28.4690  -24.3110   19.5800 C   0  0  0  0  0  0  0  0  0  0  0  0
  -29.3080  -20.2110   22.1610 C   0  0  0  0  0  1  0  0  0  0  0  0
  -28.3570  -25.1070   17.1750 C   0  0  0  0  0  1  0  0  0  0  0  0
  -28.6540  -22.4580   16.4690 O   0  0  0  0  0  0  0  0  0  0  0  0
  -28.8210  -23.0540   20.4180 O   0  0  0  0  0  0  0  0  0  0  0  0
  -28.4040  -25.8420   20.0090 O   0  0  0  0  0  0  0  0  0  0  0  0
  -24.7870  -31.8680   23.0450 C   0  0  0  0  0  0  0  0  0  0  0  0
  -27.4030  -26.9980   19.8840 C   0  0  0  0  0  0  0  0  0  0  0  0
  -23.6000  -30.4660   21.4080 C   0  0  0  0  0  3  0  0  0  0  0  0
  -25.0630  -28.9060   19.9200 C   0  0  0  0  0  0  0  0  0  0  0  0
  -26.1640  -30.7100   21.2250 C   0  0  0  0  0  2  0  0  0  0  0  0
  -26.2550  -29.3030   20.5360 C   0  0  0  0  0  0  0  0  0  0  0  0
  -27.4060  -28.3690   20.4980 C   0  0  0  0  0  3  0  0  0  0  0  0
  -26.1750  -26.7930   19.2090 C   0  0  0  0  0  3  0  0  0  0  0  0
  -25.0550  -27.6780   19.2340 C   0  0  0  0  0  3  0  0  0  0  0  0
  -23.8230  -29.8050   20.0170 C   0  0  0  0  0  2  0  0  0  0  0  0
  -24.8730  -31.0460   21.9460 N   0  0  0  0  0  0  0  0  0  0  0  0
  -23.6990  -32.1240   23.5900 O   0  0  0  0  0  0  0  0  0  0  0  0
  -22.9420  -29.4450   22.3760 C   0  0  0  0  0  0  0  0  0  0  0  0
  -21.6140  -29.2430   22.2710 N   0  0  0  0  0  0  0  0  0  0  0  0
  -23.6360  -28.8350   23.1920 O   0  0  0  0  0  0  0  0  0  0  0  0
  -21.1030  -29.7880   21.5910 H   0  0  0  0  0  0  0  0  0  0  0  0
  -18.2880  -27.8850   22.8030 C   0  0  0  0  0  0  0  0  0  0  0  0
  -20.8360  -28.2680   23.0450 C   0  0  0  0  0  3  0  0  0  0  0  0
  -20.9960  -26.8440   22.4660 C   0  0  0  0  0  2  0  0  0  0  0  0
  -19.9030  -26.4760   21.4570 C   0  0  0  0  0  2  0  0  0  0  0  0
  -18.5220  -26.5510   22.1130 C   0  0  0  0  0  2  0  0  0  0  0  0
  -19.3730  -28.6990   23.2260 C   0  0  0  0  0  0  0  0  0  0  0  0
  -19.0980  -29.9420   23.8370 C   0  0  0  0  0  3  0  0  0  0  0  0
  -17.7720  -30.3740   24.0240 C   0  0  0  0  0  3  0  0  0  0  0  0
  -16.7020  -29.5600   23.6140 C   0  0  0  0  0  3  0  0  0  0  0  0
  -16.9610  -28.3180   23.0080 C   0  0  0  0  0  3  0  0  0  0  0  0
  -26.0490  -32.5420   23.6660 C   0  0  0  0  0  3  0  0  0  0  0  0
  -25.6870  -33.9170   24.0590 N   0  0  0  0  0  0  0  0  0  0  0  0
  -25.9670  -35.0200   23.3510 C   0  0  0  0  0  0  0  0  0  0  0  0
  -26.6140  -34.9870   22.3020 O   0  0  0  0  0  0  0  0  0  0  0  0
  -25.1010  -34.0120   24.8750 H   0  0  0  0  0  0  0  0  0  0  0  0
  -24.1740  -36.7790   23.1360 C   0  0  0  0  0  1  0  0  0  0  0  0
  -25.4510  -36.3730   23.8890 C   0  0  0  0  0  3  0  0  0  0  0  0
  -27.5750  -37.2970   24.7080 C   0  0  0  0  0  1  0  0  0  0  0  0
  -26.4480  -37.4620   23.7940 N   0  0  0  0  0  0  0  0  0  0  0  0
  -26.0160  -38.3640   23.9830 H   0  0  0  0  0  0  0  0  0  0  0  0
  -26.6160  -31.7580   24.9160 C   0  0  1  0  0  0  0  0  0  0  0  0
  -25.5550  -31.4630   26.0030 C   0  0  0  0  0  1  0  0  0  0  0  0
  -27.2340  -30.4070   24.4920 C   0  0  0  0  0  1  0  0  0  0  0  0
  -27.7560  -32.5720   25.5710 C   0  0  0  0  0  1  0  0  0  0  0  0
  -29.8460  -17.2880   20.5900 O   0  0  0  0  0  0  0  0  0  0  0  0
  -30.7470  -15.7740   20.2950 C   0  0  0  0  0  0  0  0  0  0  0  0
  -30.7610  -13.2230   19.5200 C   0  0  0  0  0  2  0  0  0  0  0  0
  -29.8940  -12.9470   18.2590 C   0  0  0  0  0  2  0  0  0  0  0  0
  -28.4420  -12.6420   18.6580 C   0  0  0  0  0  2  0  0  0  0  0  0
  -27.9310  -13.6300   19.7360 C   0  0  0  0  0  3  0  0  0  0  0  0
  -28.9230  -13.8730   20.8920 C   0  0  0  0  0  2  0  0  0  0  0  0
  -30.1700  -14.3860   20.3040 N   0  0  0  0  0  0  0  0  0  0  0  0
  -31.9500  -15.7610   19.9900 O   0  0  0  0  0  0  0  0  0  0  0  0
  -25.5520  -14.1700   20.4400 C   0  0  0  0  0  0  0  0  0  0  0  0
  -24.4860  -13.3910   20.7870 C   0  0  0  0  0  0  0  0  0  0  0  0
  -24.9560  -12.0410   20.7720 C   0  0  0  0  0  0  0  0  0  0  0  0
  -26.5990  -13.2970   20.2180 N   0  0  0  0  0  0  0  0  0  0  0  0
  -26.2560  -12.0100   20.4900 N   0  0  0  0  0  0  0  0  0  0  0  0
  -24.2260  -10.7790   20.9520 C   0  0  0  0  0  0  0  0  0  0  0  0
  -24.6170   -9.8260   21.9180 C   0  0  0  0  0  3  0  0  0  0  0  0
  -23.8820   -8.6330   22.0860 C   0  0  0  0  0  3  0  0  0  0  0  0
  -22.7410   -8.3820   21.2870 C   0  0  0  0  0  0  0  0  0  0  0  0
  -22.3690   -9.3230   20.3110 C   0  0  0  0  0  3  0  0  0  0  0  0
  -23.1040  -10.5090   20.1410 C   0  0  0  0  0  3  0  0  0  0  0  0
  -21.9820   -7.2400   21.3620 O   0  0  0  0  0  0  0  0  0  0  0  0
  -21.8590   -6.5330   22.5310 C   0  0  0  0  0  0  0  0  0  0  0  0
  -21.3410   -7.1190   23.7060 C   0  0  0  0  0  3  0  0  0  0  0  0
  -21.1670   -6.3370   24.8650 C   0  0  0  0  0  3  0  0  0  0  0  0
  -21.5000   -4.9700   24.8490 C   0  0  0  0  0  0  0  0  0  0  0  0
  -22.0100   -4.3820   23.6780 C   0  0  0  0  0  3  0  0  0  0  0  0
  -22.1850   -5.1610   22.5220 C   0  0  0  0  0  0  0  0  0  0  0  0
  -22.6570   -4.5860   21.3900 F   0  0  0  0  0  0  0  0  0  0  0  0
  -21.3260   -4.2160   25.9600 F   0  0  0  0  0  0  0  0  0  0  0  0
  -23.0820  -13.8680   21.0180 C   0  0  0  0  0  0  0  0  0  0  0  0
  -22.3380  -13.1850   21.8780 N   0  0  0  0  0  0  0  0  0  0  0  0
  -22.6570  -14.8840   20.4690 O   0  0  0  0  0  0  0  0  0  0  0  0
  -22.6970  -12.3650   22.3440 H   0  0  0  0  0  0  0  0  0  0  0  0
  -21.3940  -13.4880   22.0770 H   0  0  0  0  0  0  0  0  0  0  0  0
  -25.7170  -15.5400   20.2650 N   0  0  0  0  0  0  0  0  0  0  0  0
  -24.9520  -16.1970   20.3710 H   0  0  0  0  0  0  0  0  0  0  0  0
  -26.5810  -15.9830   19.9770 H   0  0  0  0  0  0  0  0  0  0  0  0
  1  3  2  0
  1  2  1  0
  2  6  2  0
  3  5  1  0
  4 10  1  0
  5 13  1  0
  5  4  2  0
  6 55  1  0
  6  4  1  0
  7  8  1  0
  7  3  1  0
  8  9  2  0
  9 14  1  0
  9 13  1  0
 11  8  1  0
 12  7  2  0
 15 26  2  0
 16 14  1  0
 16 21  1  0
 17 25  1  0
 17 27  1  0
 18 24  1  0
 18 20  1  0
 19 25  1  0
 20 19  1  0
 21 20  2  0
 22 23  1  0
 22 16  2  0
 23 18  2  0
 24 17  1  0
 25 15  1  0
 27 29  2  0
 28 27  1  0
 30 28  1  0
 31 40  2  0
 31 36  1  0
 32 28  1  0
 32 36  1  0
 33 32  1  0
 34 35  1  0
 34 33  1  0
 35 31  1  0
 36 37  2  0
 37 38  1  0
 39 38  2  0
 40 39  1  0
 41 15  1  0
 41 42  1  0
 41 51  1  0
 42 45  1  0
 43 47  1  0
 43 42  1  0
 44 43  2  0
 47 46  1  0
 49 47  1  0
 49 50  1  0
 49 48  1  0
 51 54  1  1
 51 52  1  0
 53 51  1  0
 56 62  1  0
 56 55  1  0
 57 62  1  0
 58 59  1  0
 58 57  1  0
 60 59  1  0
 60 67  1  0
 60 61  1  0
 62 61  1  0
 63 56  2  0
 64 65  2  0
 65 84  1  0
 66 65  1  0
 66 69  1  0
 67 64  1  0
 67 68  1  0
 68 66  2  0
 69 70  1  0
 70 71  2  0
 72 75  1  0
 72 71  1  0
 73 72  2  0
 74 73  1  0
 74 69  2  0
 75 76  1  0
 76 77  1  0
 77 78  2  0
 79 78  1  0
 79 83  1  0
 80 79  2  0
 81 76  2  0
 81 80  1  0
 82 81  1  0
 84 85  1  0
 85 88  1  0
 85 87  1  0
 86 84  2  0
 89 90  1  0
 89 64  1  0
 91 89  1  0
M  ISO  4   9 101  14 101  55 100  56 100
M  END
>  <TORSDO>  (75) 
F 17

>  <SCORE>  (75) 
-14.333

>  <name>  (75) 
75

>  <ligand_id>  (75) 
75

>  <original_smiles>  (75) 
[H]c1c([H])c([H])c2c(c1[H])C([H])([H])C([H])([H])C([H])([H])C2([H])N([H])C(=O)C1([H])N(C(=O)C([H])(N([H])C(=O)C([H])(N([H])C([H])([H])[H])C([H])([H])[H])C(C([H])([H])[H])(C([H])([H])[H])C([H])([H])[H])C([H])([H])c2c([H])c(Oc3oc4c(C([H])([H])[H])c(OC(=O)N5C([H])([H])C([H])([H])C([H])([H])C([H])(n6nc(-c7c([H])c([H])c(Oc8c([H])c([H])c(F)c([H])c8F)c([H])c7[H])c(C(=O)N([H])[H])c6N([H])[H])C5([H])[H])c([H])c([H])c4c(=O)c3C([H])([H])[H])c([H])c([H])c2C1([H])[H]

>  <smiles>  (75) 
[H]c1c([H])c([H])c2c(c1[H])C([H])([H])C([H])([H])C([H])([H])C2([H])N([H])C(=O)C1([H])N(C(=O)C([H])(N([H])C(=O)C([H])(N([H])C([H])([H])[H])C([H])([H])[H])C(C([H])([H])[H])(C([H])([H])[H])C([H])([H])[H])C([H])([H])c2c([H])c(Oc3oc4c(C([H])([H])[H])c(OC(=O)N5C([H])([H])C([H])([H])C([H])([H])C([H])(n6nc(-c7c([H])c([H])c(Oc8c([H])c([H])c(F)c([H])c8F)c([H])c7[H])c(C(=O)N([H])[H])c6N([H])[H])C5([H])[H])c([H])c([H])c4c(=O)c3C([H])([H])[H])c([H])c([H])c2C1([H])[H]

$$$$
76:0:0
     RDKit          3D

 96104  0  0  1  0  0  0  0  0999 V2000
  -28.5760  -18.9780   19.1150 C   0  0  0  0  0  3  0  0  0  0  0  0
  -29.4890  -19.1390   20.1720 C   0  0  0  0  0  0  0  0  0  0  0  0
  -27.8980  -20.0760   18.5260 C   0  0  0  0  0  0  0  0  0  0  0  0
  -29.6050  -20.5560   20.6540 C   0  0  0  0  0  0  0  0  0  0  0  0
  -28.9140  -21.7460   20.0680 C   0  0  0  0  0  0  0  0  0  0  0  0
  -28.1040  -21.4210   18.9520 C   0  0  0  0  0  0  0  0  0  0  0  0
  -30.5100  -20.8540   21.8380 C   0  0  0  0  0  1  0  0  0  0  0  0
  -28.3140  -22.9240   17.1820 C   0  0  0  0  0  1  0  0  0  0  0  0
  -27.5080  -22.4300   18.2440 O   0  0  0  0  0  0  0  0  0  0  0  0
  -31.8160  -18.0550   20.1400 C   0  0  0  0  0  1  0  0  0  0  0  0
  -30.3740  -17.7990   20.6210 C   0  0  0  0  0  3  0  0  0  0  0  0
  -30.7260  -15.0210   20.3310 C   0  0  0  0  0  0  0  0  0  0  0  0
  -30.5830  -12.6330   19.4660 C   0  0  0  0  0  2  0  0  0  0  0  0
  -29.6810  -12.5410   18.2140 C   0  0  0  0  0  2  0  0  0  0  0  0
  -28.2110  -12.3420   18.6230 C   0  0  0  0  0  2  0  0  0  0  0  0
  -27.7800  -13.3070   19.7610 C   0  0  0  0  0  3  0  0  0  0  0  0
  -28.8170  -13.3800   20.9040 C   0  0  0  0  0  2  0  0  0  0  0  0
  -30.0940  -13.7740   20.2950 N   0  0  0  0  0  0  0  0  0  0  0  0
  -31.9400  -15.0110   20.1030 O   0  0  0  0  0  0  0  0  0  0  0  0
  -29.9980  -16.2520   20.4320 N   0  0  0  0  0  0  0  0  0  0  0  0
  -29.0090  -16.0880   20.5490 H   0  0  0  0  0  0  0  0  0  0  0  0
  -25.3960  -13.9050   20.4680 C   0  0  0  0  0  0  0  0  0  0  0  0
  -24.3200  -13.1400   20.8260 C   0  0  0  0  0  0  0  0  0  0  0  0
  -24.7730  -11.7840   20.8070 C   0  0  0  0  0  0  0  0  0  0  0  0
  -26.4350  -13.0180   20.2480 N   0  0  0  0  0  0  0  0  0  0  0  0
  -26.0680  -11.7370   20.5180 N   0  0  0  0  0  0  0  0  0  0  0  0
  -24.0310  -10.5300   20.9950 C   0  0  0  0  0  0  0  0  0  0  0  0
  -24.4320   -9.5700   21.9520 C   0  0  0  0  0  3  0  0  0  0  0  0
  -23.6880   -8.3830   22.1270 C   0  0  0  0  0  3  0  0  0  0  0  0
  -22.5300   -8.1480   21.3490 C   0  0  0  0  0  0  0  0  0  0  0  0
  -22.1500   -9.0960   20.3830 C   0  0  0  0  0  3  0  0  0  0  0  0
  -22.8930  -10.2750   20.2050 C   0  0  0  0  0  3  0  0  0  0  0  0
  -21.7650   -7.0090   21.4300 O   0  0  0  0  0  0  0  0  0  0  0  0
  -21.6620   -6.2910   22.5940 C   0  0  0  0  0  0  0  0  0  0  0  0
  -21.2030   -6.8800   23.7920 C   0  0  0  0  0  3  0  0  0  0  0  0
  -21.0460   -6.0910   24.9500 C   0  0  0  0  0  3  0  0  0  0  0  0
  -21.3400   -4.7140   24.9110 C   0  0  0  0  0  0  0  0  0  0  0  0
  -21.7880   -4.1250   23.7150 C   0  0  0  0  0  3  0  0  0  0  0  0
  -21.9470   -4.9120   22.5610 C   0  0  0  0  0  0  0  0  0  0  0  0
  -22.3630   -4.3340   21.4060 F   0  0  0  0  0  0  0  0  0  0  0  0
  -21.1820   -3.9530   26.0190 F   0  0  0  0  0  0  0  0  0  0  0  0
  -22.9230  -13.6320   21.0680 C   0  0  0  0  0  0  0  0  0  0  0  0
  -22.1790  -12.9510   21.9320 N   0  0  0  0  0  0  0  0  0  0  0  0
  -22.4990  -14.6520   20.5260 O   0  0  0  0  0  0  0  0  0  0  0  0
  -22.5340  -12.1260   22.3920 H   0  0  0  0  0  0  0  0  0  0  0  0
  -21.2390  -13.2610   22.1330 H   0  0  0  0  0  0  0  0  0  0  0  0
  -25.5680  -15.2740   20.2790 N   0  0  0  0  0  0  0  0  0  0  0  0
  -24.8040  -15.9340   20.3680 H   0  0  0  0  0  0  0  0  0  0  0  0
  -26.4170  -15.7000   19.9330 H   0  0  0  0  0  0  0  0  0  0  0  0
  -26.9690  -19.8040   17.3480 C   0  0  0  0  0  2  0  0  0  0  0  0
  -25.4890  -20.1400   17.6370 C   0  0  0  0  0  2  0  0  0  0  0  0
  -23.5180  -21.6200   16.9700 C   0  0  0  0  0  1  0  0  0  0  0  0
  -24.8600  -21.0180   16.5400 C   0  0  0  0  0  2  0  0  0  0  0  0
  -29.0920  -23.3530   20.4940 C   0  0  0  0  0  3  0  0  0  0  0  0
  -28.0890  -24.6710   20.1240 C   0  0  0  0  0  3  0  0  0  0  0  0
  -28.3170  -26.1880   20.4200 O   0  0  0  0  0  0  0  0  0  0  0  0
  -24.7050  -31.9040   23.3550 C   0  0  0  0  0  0  0  0  0  0  0  0
  -27.2690  -27.1790   20.3230 C   0  0  0  0  0  0  0  0  0  0  0  0
  -23.5120  -30.5290   21.6950 C   0  0  0  0  0  3  0  0  0  0  0  0
  -24.9570  -28.9440   20.2790 C   0  0  0  0  0  0  0  0  0  0  0  0
  -26.0680  -30.7670   21.5610 C   0  0  0  0  0  2  0  0  0  0  0  0
  -26.1330  -29.3780   20.9010 C   0  0  0  0  0  0  0  0  0  0  0  0
  -27.2890  -28.5090   20.9080 C   0  0  0  0  0  3  0  0  0  0  0  0
  -26.0710  -26.8520   19.6520 C   0  0  0  0  0  3  0  0  0  0  0  0
  -24.9380  -27.6940   19.6440 C   0  0  0  0  0  3  0  0  0  0  0  0
  -23.7390  -29.8540   20.3160 C   0  0  0  0  0  2  0  0  0  0  0  0
  -24.7820  -31.0880   22.2590 N   0  0  0  0  0  0  0  0  0  0  0  0
  -23.6150  -32.1990   23.8690 O   0  0  0  0  0  0  0  0  0  0  0  0
  -22.8080  -29.5270   22.6450 C   0  0  0  0  0  0  0  0  0  0  0  0
  -21.4800  -29.3740   22.5010 N   0  0  0  0  0  0  0  0  0  0  0  0
  -23.4620  -28.8880   23.4730 O   0  0  0  0  0  0  0  0  0  0  0  0
  -21.0100  -29.9450   21.8130 H   0  0  0  0  0  0  0  0  0  0  0  0
  -18.0780  -28.2140   22.9530 C   0  0  0  0  0  0  0  0  0  0  0  0
  -20.6360  -28.4430   23.2560 C   0  0  0  0  0  3  0  0  0  0  0  0
  -20.7260  -27.0110   22.6750 C   0  0  0  0  0  2  0  0  0  0  0  0
  -19.6350  -26.7080   21.6440 C   0  0  0  0  0  2  0  0  0  0  0  0
  -18.2460  -26.8670   22.2700 C   0  0  0  0  0  2  0  0  0  0  0  0
  -19.2010  -28.9620   23.3990 C   0  0  0  0  0  0  0  0  0  0  0  0
  -18.9860  -30.2230   23.9960 C   0  0  0  0  0  3  0  0  0  0  0  0
  -17.6840  -30.7360   24.1510 C   0  0  0  0  0  3  0  0  0  0  0  0
  -16.5770  -29.9860   23.7170 C   0  0  0  0  0  3  0  0  0  0  0  0
  -16.7750  -28.7270   23.1230 C   0  0  0  0  0  3  0  0  0  0  0  0
  -25.9830  -32.5220   24.0030 C   0  0  0  0  0  3  0  0  0  0  0  0
  -25.6790  -33.9190   24.3490 N   0  0  0  0  0  0  0  0  0  0  0  0
  -26.0170  -34.9810   23.6060 C   0  0  0  0  0  0  0  0  0  0  0  0
  -26.6810  -34.8880   22.5710 O   0  0  0  0  0  0  0  0  0  0  0  0
  -25.0860  -34.0660   25.1530 H   0  0  0  0  0  0  0  0  0  0  0  0
  -24.2900  -36.7860   23.3010 C   0  0  0  0  0  1  0  0  0  0  0  0
  -25.5440  -36.3680   24.0870 C   0  0  0  0  0  3  0  0  0  0  0  0
  -27.6980  -37.2360   24.8870 C   0  0  0  0  0  1  0  0  0  0  0  0
  -26.5790  -37.4180   23.9660 N   0  0  0  0  0  0  0  0  0  0  0  0
  -26.1820  -38.3390   24.1270 H   0  0  0  0  0  0  0  0  0  0  0  0
  -26.4700  -31.7340   25.2810 C   0  0  1  0  0  0  0  0  0  0  0  0
  -25.3570  -31.5010   26.3320 C   0  0  0  0  0  1  0  0  0  0  0  0
  -27.0420  -30.3530   24.8900 C   0  0  0  0  0  1  0  0  0  0  0  0
  -27.6200  -32.5080   25.9660 C   0  0  0  0  0  1  0  0  0  0  0  0
  1  2  1  0
  2 11  1  0
  2  4  2  0
  3  6  1  0
  3  1  2  0
  4  7  1  0
  5 54  1  0
  5  4  1  0
  6  5  2  0
  8  9  1  0
  9  6  1  0
 11 10  1  0
 12 20  1  0
 13 18  1  0
 14 15  1  0
 14 13  1  0
 16 15  1  0
 16 25  1  0
 16 17  1  0
 18 12  1  0
 18 17  1  0
 19 12  2  0
 20 21  1  0
 20 11  1  0
 22 23  2  0
 23 42  1  0
 24 23  1  0
 24 27  1  0
 25 22  1  0
 25 26  1  0
 26 24  2  0
 27 28  1  0
 28 29  2  0
 30 33  1  0
 30 29  1  0
 31 30  2  0
 32 31  1  0
 32 27  2  0
 33 34  1  0
 34 35  1  0
 35 36  2  0
 37 36  1  0
 37 41  1  0
 38 37  2  0
 39 34  2  0
 39 38  1  0
 40 39  1  0
 42 43  1  0
 43 46  1  0
 43 45  1  0
 44 42  2  0
 47 48  1  0
 47 22  1  0
 49 47  1  0
 50 51  1  0
 50  3  1  0
 53 52  1  0
 53 51  1  0
 55 56  1  0
 55 54  2  0
 57 68  2  0
 58 56  1  0
 58 63  1  0
 59 67  1  0
 59 69  1  0
 60 66  1  0
 60 62  1  0
 61 67  1  0
 62 63  2  0
 62 61  1  0
 64 58  2  0
 65 64  1  0
 65 60  2  0
 66 59  1  0
 67 57  1  0
 69 71  2  0
 70 69  1  0
 72 70  1  0
 73 82  2  0
 73 78  1  0
 74 70  1  0
 74 78  1  0
 75 74  1  0
 76 77  1  0
 76 75  1  0
 77 73  1  0
 78 79  2  0
 79 80  1  0
 81 80  2  0
 82 81  1  0
 83 57  1  0
 83 84  1  0
 83 93  1  0
 84 87  1  0
 85 89  1  0
 85 84  1  0
 86 85  2  0
 89 88  1  0
 91 89  1  0
 91 92  1  0
 91 90  1  0
 93 96  1  1
 93 94  1  0
 95 93  1  0
M  ISO  4  12 100  20 100  55 101  56 101
M  END
>  <TORSDO>  (76) 
F 23

>  <SCORE>  (76) 
-12.832

>  <name>  (76) 
76

>  <ligand_id>  (76) 
76

>  <original_smiles>  (76) 
[H]c1c([H])c([H])c2c(c1[H])C([H])([H])C([H])([H])C([H])([H])C2([H])N([H])C(=O)C1([H])N(C(=O)C([H])(N([H])C(=O)C([H])(N([H])C([H])([H])[H])C([H])([H])[H])C(C([H])([H])[H])(C([H])([H])[H])C([H])([H])[H])C([H])([H])c2c([H])c(OC([H])([H])C([H])([H])c3c(OC([H])([H])[H])c(C([H])([H])C([H])([H])C([H])([H])C([H])([H])[H])c([H])c(C([H])(N([H])C(=O)N4C([H])([H])C([H])([H])C([H])([H])C([H])(n5nc(-c6c([H])c([H])c(Oc7c([H])c([H])c(F)c([H])c7F)c([H])c6[H])c(C(=O)N([H])[H])c5N([H])[H])C4([H])[H])C([H])([H])[H])c3C([H])([H])[H])c([H])c([H])c2C1([H])[H]

>  <smiles>  (76) 
[H]c1c([H])c([H])c2c(c1[H])C([H])([H])C([H])([H])C([H])([H])C2([H])N([H])C(=O)C1([H])N(C(=O)C([H])(N([H])C(=O)C([H])(N([H])C([H])([H])[H])C([H])([H])[H])C(C([H])([H])[H])(C([H])([H])[H])C([H])([H])[H])C([H])([H])c2c([H])c(OC([H])([H])C([H])([H])c3c(OC([H])([H])[H])c(C([H])([H])C([H])([H])C([H])([H])C([H])([H])[H])c([H])c(C([H])(N([H])C(=O)N4C([H])([H])C([H])([H])C([H])([H])C([H])(n5nc(-c6c([H])c([H])c(Oc7c([H])c([H])c(F)c([H])c7F)c([H])c6[H])c(C(=O)N([H])[H])c5N([H])[H])C4([H])[H])C([H])([H])[H])c3C([H])([H])[H])c([H])c([H])c2C1([H])[H]

$$$$
77:0:0
     RDKit          3D

 92100  0  0  1  0  0  0  0  0999 V2000
  -30.7740  -21.0900   20.4160 C   0  0  0  0  0  3  0  0  0  0  0  0
  -31.1820  -22.4470   20.4180 C   0  0  0  0  0  3  0  0  0  0  0  0
  -28.5050  -21.8820   20.3100 C   0  0  0  0  0  3  0  0  0  0  0  0
  -29.4190  -20.6990   20.3820 C   0  0  0  0  0  0  0  0  0  0  0  0
  -28.8840  -23.3310   20.2980 C   0  0  0  0  0  0  0  0  0  0  0  0
  -30.2810  -23.5520   20.3640 C   0  0  0  0  0  0  0  0  0  0  0  0
  -29.0770  -19.0970   20.3860 C   0  0  0  0  0  0  0  0  0  0  0  0
  -27.8910  -18.7860   20.2470 O   0  0  0  0  0  0  0  0  0  0  0  0
  -30.8920  -17.9370   21.9360 C   0  0  0  0  0  1  0  0  0  0  0  0
  -30.1550  -17.7870   20.5910 C   0  0  0  0  0  3  0  0  0  0  0  0
  -30.5020  -15.0520   20.2770 C   0  0  0  0  0  0  0  0  0  0  0  0
  -30.3750  -12.7050   19.3110 C   0  0  0  0  0  2  0  0  0  0  0  0
  -29.4250  -12.6490   18.0930 C   0  0  0  0  0  2  0  0  0  0  0  0
  -27.9720  -12.4210   18.5480 C   0  0  0  0  0  2  0  0  0  0  0  0
  -27.5720  -13.3360   19.7340 C   0  0  0  0  0  3  0  0  0  0  0  0
  -28.6450  -13.3620   20.8440 C   0  0  0  0  0  2  0  0  0  0  0  0
  -29.8980  -13.7940   20.2120 N   0  0  0  0  0  0  0  0  0  0  0  0
  -31.7040  -15.1040   19.9990 O   0  0  0  0  0  0  0  0  0  0  0  0
  -29.7480  -16.2500   20.4710 N   0  0  0  0  0  0  0  0  0  0  0  0
  -28.7580  -16.0950   20.5850 H   0  0  0  0  0  0  0  0  0  0  0  0
  -25.2020  -13.8870   20.5200 C   0  0  0  0  0  0  0  0  0  0  0  0
  -24.1490  -13.1000   20.8950 C   0  0  0  0  0  0  0  0  0  0  0  0
  -24.6220  -11.7530   20.8420 C   0  0  0  0  0  0  0  0  0  0  0  0
  -26.2470  -13.0200   20.2530 N   0  0  0  0  0  0  0  0  0  0  0  0
  -25.9100  -11.7300   20.5130 N   0  0  0  0  0  0  0  0  0  0  0  0
  -23.9070  -10.4830   21.0250 C   0  0  0  0  0  0  0  0  0  0  0  0
  -24.3470   -9.5140   21.9540 C   0  0  0  0  0  3  0  0  0  0  0  0
  -23.6290   -8.3100   22.1260 C   0  0  0  0  0  3  0  0  0  0  0  0
  -22.4570   -8.0680   21.3700 C   0  0  0  0  0  0  0  0  0  0  0  0
  -22.0370   -9.0270   20.4310 C   0  0  0  0  0  3  0  0  0  0  0  0
  -22.7550  -10.2200   20.2570 C   0  0  0  0  0  3  0  0  0  0  0  0
  -21.7100   -6.9170   21.4530 O   0  0  0  0  0  0  0  0  0  0  0  0
  -21.6520   -6.1790   22.6070 C   0  0  0  0  0  0  0  0  0  0  0  0
  -21.1700   -6.7240   23.8170 C   0  0  0  0  0  3  0  0  0  0  0  0
  -21.0630   -5.9100   24.9620 C   0  0  0  0  0  3  0  0  0  0  0  0
  -21.4240   -4.5510   24.8990 C   0  0  0  0  0  0  0  0  0  0  0  0
  -21.8980   -4.0050   23.6930 C   0  0  0  0  0  3  0  0  0  0  0  0
  -22.0080   -4.8170   22.5490 C   0  0  0  0  0  0  0  0  0  0  0  0
  -22.4450   -4.2800   21.3840 F   0  0  0  0  0  0  0  0  0  0  0  0
  -21.3140   -3.7660   25.9960 F   0  0  0  0  0  0  0  0  0  0  0  0
  -22.7520  -13.5640   21.1890 C   0  0  0  0  0  0  0  0  0  0  0  0
  -22.0430  -12.8570   22.0610 N   0  0  0  0  0  0  0  0  0  0  0  0
  -22.3000  -14.5890   20.6800 O   0  0  0  0  0  0  0  0  0  0  0  0
  -22.4210  -12.0290   22.4940 H   0  0  0  0  0  0  0  0  0  0  0  0
  -21.1050  -13.1500   22.3000 H   0  0  0  0  0  0  0  0  0  0  0  0
  -25.3500  -15.2610   20.3550 N   0  0  0  0  0  0  0  0  0  0  0  0
  -24.5750  -15.9020   20.4840 H   0  0  0  0  0  0  0  0  0  0  0  0
  -26.1780  -15.7150   19.9890 H   0  0  0  0  0  0  0  0  0  0  0  0
  -32.1020  -25.1340   20.4090 C   0  0  0  0  0  1  0  0  0  0  0  0
  -30.7060  -24.8640   20.3570 O   0  0  0  0  0  0  0  0  0  0  0  0
  -27.8630  -24.6380   20.1590 C   0  0  0  0  0  2  0  0  0  0  0  0
  -28.1980  -26.1690   20.2890 O   0  0  0  0  0  0  0  0  0  0  0  0
  -24.6180  -31.9230   23.2700 C   0  0  0  0  0  0  0  0  0  0  0  0
  -27.1620  -27.1830   20.2250 C   0  0  0  0  0  0  0  0  0  0  0  0
  -23.4120  -30.5440   21.6230 C   0  0  0  0  0  3  0  0  0  0  0  0
  -24.8520  -28.9660   20.1920 C   0  0  0  0  0  0  0  0  0  0  0  0
  -25.9700  -30.7850   21.4670 C   0  0  0  0  0  2  0  0  0  0  0  0
  -26.0360  -29.3940   20.8070 C   0  0  0  0  0  0  0  0  0  0  0  0
  -27.1910  -28.5210   20.8040 C   0  0  0  0  0  3  0  0  0  0  0  0
  -25.9500  -26.8660   19.5700 C   0  0  0  0  0  3  0  0  0  0  0  0
  -24.8240  -27.7160   19.5580 C   0  0  0  0  0  3  0  0  0  0  0  0
  -23.6330  -29.8740   20.2410 C   0  0  0  0  0  2  0  0  0  0  0  0
  -24.6870  -31.1060   22.1750 N   0  0  0  0  0  0  0  0  0  0  0  0
  -23.5320  -32.2120   23.7960 O   0  0  0  0  0  0  0  0  0  0  0  0
  -22.7230  -29.5380   22.5780 C   0  0  0  0  0  0  0  0  0  0  0  0
  -21.3980  -29.3510   22.4230 N   0  0  0  0  0  0  0  0  0  0  0  0
  -23.3820  -28.9270   23.4230 O   0  0  0  0  0  0  0  0  0  0  0  0
  -20.9230  -29.8960   21.7170 H   0  0  0  0  0  0  0  0  0  0  0  0
  -18.0190  -28.1220   22.8680 C   0  0  0  0  0  0  0  0  0  0  0  0
  -20.5690  -28.4130   23.1850 C   0  0  0  0  0  3  0  0  0  0  0  0
  -20.6960  -26.9770   22.6240 C   0  0  0  0  0  2  0  0  0  0  0  0
  -19.6180  -26.6350   21.5900 C   0  0  0  0  0  2  0  0  0  0  0  0
  -18.2230  -26.7710   22.2050 C   0  0  0  0  0  2  0  0  0  0  0  0
  -19.1210  -28.9000   23.3130 C   0  0  0  0  0  0  0  0  0  0  0  0
  -18.8760  -30.1630   23.8940 C   0  0  0  0  0  3  0  0  0  0  0  0
  -17.5620  -30.6490   24.0330 C   0  0  0  0  0  3  0  0  0  0  0  0
  -16.4750  -29.8710   23.6020 C   0  0  0  0  0  3  0  0  0  0  0  0
  -16.7040  -28.6080   23.0250 C   0  0  0  0  0  3  0  0  0  0  0  0
  -25.8980  -32.5460   23.9040 C   0  0  0  0  0  3  0  0  0  0  0  0
  -26.3900  -31.7760   25.1920 C   0  0  1  0  0  0  0  0  0  0  0  0
  -25.2820  -31.5560   26.2480 C   0  0  0  0  0  1  0  0  0  0  0  0
  -26.9640  -30.3900   24.8180 C   0  0  0  0  0  1  0  0  0  0  0  0
  -27.5420  -32.5620   25.8630 C   0  0  0  0  0  1  0  0  0  0  0  0
  -25.5980  -33.9500   24.2320 N   0  0  0  0  0  0  0  0  0  0  0  0
  -25.9180  -35.0000   23.4640 C   0  0  0  0  0  0  0  0  0  0  0  0
  -26.5650  -34.8890   22.4180 O   0  0  0  0  0  0  0  0  0  0  0  0
  -25.0220  -34.1090   25.0450 H   0  0  0  0  0  0  0  0  0  0  0  0
  -24.1790  -36.7950   23.1620 C   0  0  0  0  0  1  0  0  0  0  0  0
  -25.4510  -36.3930   23.9280 C   0  0  0  0  0  3  0  0  0  0  0  0
  -27.6120  -37.2900   24.6750 C   0  0  0  0  0  1  0  0  0  0  0  0
  -26.4780  -37.4450   23.7660 N   0  0  0  0  0  0  0  0  0  0  0  0
  -26.0780  -38.3680   23.9130 H   0  0  0  0  0  0  0  0  0  0  0  0
  1  2  1  0
  3  4  1  0
  4  7  1  0
  4  1  2  0
  5  3  2  0
  5  6  1  0
  6  2  2  0
  7 10  1  0
  8  7  2  0
 10  9  1  0
 11 19  1  0
 12 17  1  0
 13 14  1  0
 13 12  1  0
 15 14  1  0
 15 24  1  0
 15 16  1  0
 17 11  1  0
 17 16  1  0
 18 11  2  0
 19 20  1  0
 19 10  1  0
 21 22  2  0
 22 41  1  0
 23 22  1  0
 23 26  1  0
 24 25  1  0
 24 21  1  0
 25 23  2  0
 26 27  1  0
 27 28  2  0
 29 32  1  0
 29 28  1  0
 30 29  2  0
 31 30  1  0
 31 26  2  0
 32 33  1  0
 33 34  1  0
 34 35  2  0
 36 35  1  0
 36 40  1  0
 37 36  2  0
 38 33  2  0
 38 37  1  0
 39 38  1  0
 41 42  1  0
 42 45  1  0
 42 44  1  0
 43 41  2  0
 46 47  1  0
 46 21  1  0
 48 46  1  0
 50  6  1  0
 50 49  1  0
 51 52  1  0
 51  5  1  0
 53 64  2  0
 54 52  1  0
 54 59  1  0
 55 63  1  0
 55 65  1  0
 56 62  1  0
 56 58  1  0
 57 63  1  0
 58 57  1  0
 59 58  2  0
 60 54  2  0
 61 60  1  0
 61 56  2  0
 62 55  1  0
 63 53  1  0
 65 67  2  0
 66 65  1  0
 68 66  1  0
 69 78  2  0
 69 74  1  0
 70 66  1  0
 70 74  1  0
 71 70  1  0
 72 73  1  0
 72 71  1  0
 73 69  1  0
 74 75  2  0
 75 76  1  0
 77 76  2  0
 78 77  1  0
 79 53  1  0
 79 84  1  0
 79 80  1  0
 80 83  1  1
 80 81  1  0
 82 80  1  0
 84 87  1  0
 85 89  1  0
 85 84  1  0
 86 85  2  0
 89 88  1  0
 91 92  1  0
 91 89  1  0
 91 90  1  0
M  ISO  4  11 100  19 100  51 101  52 101
M  END
>  <TORSDO>  (77) 
F 20

>  <SCORE>  (77) 
-14.503

>  <name>  (77) 
77

>  <ligand_id>  (77) 
77

>  <original_smiles>  (77) 
[H]c1c([H])c([H])c2c(c1[H])C([H])([H])C([H])([H])C([H])([H])C2([H])N([H])C(=O)C1([H])N(C(=O)C([H])(N([H])C(=O)C([H])(N([H])C([H])([H])[H])C([H])([H])[H])C(C([H])([H])[H])(C([H])([H])[H])C([H])([H])[H])C([H])([H])c2c([H])c(OC([H])([H])c3c([H])c(C(=O)C([H])(N([H])C(=O)N4C([H])([H])C([H])([H])C([H])([H])C([H])(n5nc(-c6c([H])c([H])c(Oc7c([H])c([H])c(F)c([H])c7F)c([H])c6[H])c(C(=O)N([H])[H])c5N([H])[H])C4([H])[H])C([H])([H])[H])c([H])c([H])c3OC([H])([H])[H])c([H])c([H])c2C1([H])[H]

>  <smiles>  (77) 
[H]c1c([H])c([H])c2c(c1[H])C([H])([H])C([H])([H])C([H])([H])C2([H])N([H])C(=O)C1([H])N(C(=O)C([H])(N([H])C(=O)C([H])(N([H])C([H])([H])[H])C([H])([H])[H])C(C([H])([H])[H])(C([H])([H])[H])C([H])([H])[H])C([H])([H])c2c([H])c(OC([H])([H])c3c([H])c(C(=O)C([H])(N([H])C(=O)N4C([H])([H])C([H])([H])C([H])([H])C([H])(n5nc(-c6c([H])c([H])c(Oc7c([H])c([H])c(F)c([H])c7F)c([H])c6[H])c(C(=O)N([H])[H])c5N([H])[H])C4([H])[H])C([H])([H])[H])c([H])c([H])c3OC([H])([H])[H])c([H])c([H])c2C1([H])[H]

$$$$
78:0:0
     RDKit          3D

 92100  0  0  1  0  0  0  0  0999 V2000
  -30.1890  -21.7120   19.8720 C   0  0  0  0  0  0  0  0  0  0  0  0
  -29.2190  -22.6130   20.2110 N   0  0  0  0  0  0  0  0  0  0  0  0
  -31.2490  -22.1110   19.3830 O   0  0  0  0  0  0  0  0  0  0  0  0
  -28.3750  -22.2420   20.6230 H   0  0  0  0  0  0  0  0  0  0  0  0
  -31.2020  -19.4320   20.5110 C   0  0  0  0  0  3  0  0  0  0  0  0
  -31.1480  -18.0310   20.7530 C   0  0  0  0  0  3  0  0  0  0  0  0
  -28.8500  -19.4730   20.0350 C   0  0  0  0  0  3  0  0  0  0  0  0
  -30.0580  -20.2010   20.1590 C   0  0  0  0  0  0  0  0  0  0  0  0
  -29.9370  -17.3040   20.6520 C   0  0  0  0  0  0  0  0  0  0  0  0
  -28.7760  -18.0610   20.2890 C   0  0  0  0  0  0  0  0  0  0  0  0
  -26.3840  -18.1060   19.9800 C   0  0  0  0  0  1  0  0  0  0  0  0
  -27.5810  -17.3740   20.2230 O   0  0  0  0  0  0  0  0  0  0  0  0
  -29.8080  -15.7890   21.0960 C   0  0  0  0  0  2  0  0  0  0  0  0
  -30.5280  -14.5850   20.3560 C   0  0  0  0  0  0  0  0  0  0  0  0
  -30.3320  -12.3430   19.2650 C   0  0  0  0  0  2  0  0  0  0  0  0
  -29.3610  -12.4480   18.0680 C   0  0  0  0  0  2  0  0  0  0  0  0
  -27.8930  -12.2900   18.5200 C   0  0  0  0  0  2  0  0  0  0  0  0
  -27.5560  -13.1580   19.7610 C   0  0  0  0  0  3  0  0  0  0  0  0
  -28.6330  -12.9780   20.8550 C   0  0  0  0  0  2  0  0  0  0  0  0
  -29.9270  -13.3530   20.2640 N   0  0  0  0  0  0  0  0  0  0  0  0
  -31.6370  -14.7710   19.8400 O   0  0  0  0  0  0  0  0  0  0  0  0
  -25.1780  -13.7730   20.5220 C   0  0  0  0  0  0  0  0  0  0  0  0
  -24.1080  -13.0070   20.8990 C   0  0  0  0  0  0  0  0  0  0  0  0
  -24.5560  -11.6510   20.8420 C   0  0  0  0  0  0  0  0  0  0  0  0
  -26.2120  -12.8850   20.2630 N   0  0  0  0  0  0  0  0  0  0  0  0
  -25.8410  -11.6030   20.5100 N   0  0  0  0  0  0  0  0  0  0  0  0
  -23.8210  -10.3940   21.0270 C   0  0  0  0  0  0  0  0  0  0  0  0
  -24.2530   -9.4150   21.9480 C   0  0  0  0  0  3  0  0  0  0  0  0
  -23.5180   -8.2220   22.1220 C   0  0  0  0  0  3  0  0  0  0  0  0
  -22.3370   -8.0010   21.3760 C   0  0  0  0  0  0  0  0  0  0  0  0
  -21.9240   -8.9690   20.4440 C   0  0  0  0  0  3  0  0  0  0  0  0
  -22.6590  -10.1540   20.2680 C   0  0  0  0  0  3  0  0  0  0  0  0
  -21.5730   -6.8610   21.4590 O   0  0  0  0  0  0  0  0  0  0  0  0
  -21.5150   -6.1180   22.6110 C   0  0  0  0  0  0  0  0  0  0  0  0
  -21.1000   -6.6770   23.8390 C   0  0  0  0  0  3  0  0  0  0  0  0
  -20.9880   -5.8610   24.9830 C   0  0  0  0  0  3  0  0  0  0  0  0
  -21.2800   -4.4860   24.8980 C   0  0  0  0  0  0  0  0  0  0  0  0
  -21.6880   -3.9270   23.6750 C   0  0  0  0  0  3  0  0  0  0  0  0
  -21.8020   -4.7400   22.5330 C   0  0  0  0  0  0  0  0  0  0  0  0
  -22.1760   -4.1920   21.3520 F   0  0  0  0  0  0  0  0  0  0  0  0
  -21.1650   -3.7000   25.9940 F   0  0  0  0  0  0  0  0  0  0  0  0
  -22.7220  -13.4940   21.2070 C   0  0  0  0  0  0  0  0  0  0  0  0
  -22.0080  -12.8000   22.0850 N   0  0  0  0  0  0  0  0  0  0  0  0
  -22.2820  -14.5280   20.7040 O   0  0  0  0  0  0  0  0  0  0  0  0
  -22.3780  -11.9650   22.5150 H   0  0  0  0  0  0  0  0  0  0  0  0
  -21.0790  -13.1080   22.3330 H   0  0  0  0  0  0  0  0  0  0  0  0
  -25.3510  -15.1430   20.3620 N   0  0  0  0  0  0  0  0  0  0  0  0
  -24.5920  -15.7980   20.5080 H   0  0  0  0  0  0  0  0  0  0  0  0
  -26.2230  -15.5950   20.1120 H   0  0  0  0  0  0  0  0  0  0  0  0
  -29.3860  -24.1160   20.2350 C   0  0  0  0  0  3  0  0  0  0  0  0
  -28.1530  -25.0180   19.8270 C   0  0  0  0  0  3  0  0  0  0  0  0
  -28.3070  -26.4790   19.9830 O   0  0  0  0  0  0  0  0  0  0  0  0
  -24.4960  -31.7450   23.0890 C   0  0  0  0  0  0  0  0  0  0  0  0
  -27.1570  -27.2820   19.9560 C   0  0  0  0  0  0  0  0  0  0  0  0
  -23.3000  -30.3560   21.4360 C   0  0  0  0  0  3  0  0  0  0  0  0
  -24.7620  -28.8440   19.9830 C   0  0  0  0  0  0  0  0  0  0  0  0
  -25.8320  -30.7150   21.2390 C   0  0  0  0  0  2  0  0  0  0  0  0
  -25.9270  -29.3480   20.5760 C   0  0  0  0  0  0  0  0  0  0  0  0
  -27.1270  -28.5790   20.5500 C   0  0  0  0  0  3  0  0  0  0  0  0
  -25.9650  -26.8230   19.3470 C   0  0  0  0  0  3  0  0  0  0  0  0
  -24.7830  -27.5860   19.3610 C   0  0  0  0  0  3  0  0  0  0  0  0
  -23.5140  -29.6980   20.0460 C   0  0  0  0  0  2  0  0  0  0  0  0
  -24.5620  -30.9550   21.9780 N   0  0  0  0  0  0  0  0  0  0  0  0
  -23.4130  -32.0020   23.6340 O   0  0  0  0  0  0  0  0  0  0  0  0
  -22.6550  -29.3170   22.3850 C   0  0  0  0  0  0  0  0  0  0  0  0
  -21.3280  -29.1410   22.2730 N   0  0  0  0  0  0  0  0  0  0  0  0
  -23.3480  -28.6750   23.1790 O   0  0  0  0  0  0  0  0  0  0  0  0
  -20.8290  -29.7100   21.6040 H   0  0  0  0  0  0  0  0  0  0  0  0
  -17.9550  -27.9540   22.8180 C   0  0  0  0  0  0  0  0  0  0  0  0
  -20.5210  -28.1870   23.0360 C   0  0  0  0  0  3  0  0  0  0  0  0
  -20.5990  -26.7720   22.4180 C   0  0  0  0  0  2  0  0  0  0  0  0
  -19.4720  -26.4850   21.4210 C   0  0  0  0  0  2  0  0  0  0  0  0
  -18.1060  -26.6220   22.1020 C   0  0  0  0  0  2  0  0  0  0  0  0
  -19.0900  -28.6960   23.2430 C   0  0  0  0  0  0  0  0  0  0  0  0
  -18.8940  -29.9440   23.8740 C   0  0  0  0  0  3  0  0  0  0  0  0
  -17.5970  -30.4490   24.0840 C   0  0  0  0  0  3  0  0  0  0  0  0
  -16.4780  -29.7030   23.6740 C   0  0  0  0  0  3  0  0  0  0  0  0
  -16.6580  -28.4580   23.0470 C   0  0  0  0  0  3  0  0  0  0  0  0
  -25.7750  -32.3830   23.7140 C   0  0  0  0  0  3  0  0  0  0  0  0
  -25.4490  -33.7690   24.0770 N   0  0  0  0  0  0  0  0  0  0  0  0
  -25.7560  -34.8420   23.3370 C   0  0  0  0  0  0  0  0  0  0  0  0
  -26.4150  -34.7710   22.2960 O   0  0  0  0  0  0  0  0  0  0  0  0
  -24.8630  -33.8980   24.8890 H   0  0  0  0  0  0  0  0  0  0  0  0
  -23.9930  -36.6110   23.0450 C   0  0  0  0  0  1  0  0  0  0  0  0
  -25.2530  -36.2130   23.8280 C   0  0  0  0  0  3  0  0  0  0  0  0
  -27.3870  -37.1170   24.6420 C   0  0  0  0  0  1  0  0  0  0  0  0
  -26.2660  -37.2850   23.7190 N   0  0  0  0  0  0  0  0  0  0  0  0
  -25.8470  -38.1960   23.8910 H   0  0  0  0  0  0  0  0  0  0  0  0
  -26.3130  -31.5920   24.9700 C   0  0  1  0  0  0  0  0  0  0  0  0
  -25.2320  -31.3190   26.0420 C   0  0  0  0  0  1  0  0  0  0  0  0
  -26.9100  -30.2310   24.5440 C   0  0  0  0  0  1  0  0  0  0  0  0
  -27.4580  -32.3880   25.6400 C   0  0  0  0  0  1  0  0  0  0  0  0
  1  8  1  0
  1  2  1  0
  2 50  1  0
  2  4  1  0
  3  1  2  0
  5  6  1  0
  7  8  1  0
  7 10  2  0
  8  5  2  0
  9  6  2  0
  9 13  1  0
 10  9  1  0
 11 12  1  0
 12 10  1  0
 14 13  1  0
 15 20  1  0
 16 17  1  0
 16 15  1  0
 18 17  1  0
 18 25  1  0
 18 19  1  0
 20 14  1  0
 20 19  1  0
 21 14  2  0
 22 23  2  0
 23 42  1  0
 24 23  1  0
 24 27  1  0
 25 26  1  0
 25 22  1  0
 26 24  2  0
 27 28  1  0
 28 29  2  0
 30 33  1  0
 30 29  1  0
 31 30  2  0
 32 31  1  0
 32 27  2  0
 33 34  1  0
 34 35  1  0
 35 36  2  0
 37 36  1  0
 37 41  1  0
 38 37  2  0
 39 34  2  0
 39 38  1  0
 40 39  1  0
 42 43  1  0
 43 46  1  0
 43 45  1  0
 44 42  2  0
 47 48  1  0
 47 22  1  0
 49 47  1  0
 51 52  1  0
 51 50  2  0
 53 64  2  0
 54 52  1  0
 54 59  1  0
 55 63  1  0
 55 65  1  0
 56 62  1  0
 56 58  1  0
 57 63  1  0
 58 57  1  0
 59 58  2  0
 60 61  1  0
 60 54  2  0
 61 56  2  0
 62 55  1  0
 63 53  1  0
 65 67  2  0
 66 65  1  0
 68 66  1  0
 69 78  2  0
 69 74  1  0
 70 66  1  0
 70 74  1  0
 71 70  1  0
 72 73  1  0
 72 71  1  0
 73 69  1  0
 74 75  2  0
 75 76  1  0
 77 76  2  0
 78 77  1  0
 79 53  1  0
 79 80  1  0
 79 89  1  0
 80 83  1  0
 81 85  1  0
 81 80  1  0
 82 81  2  0
 85 84  1  0
 87 85  1  0
 87 88  1  0
 87 86  1  0
 89 92  1  1
 89 90  1  0
 91 89  1  0
M  ISO  4  13 100  14 100  51 101  52 101
M  END
>  <TORSDO>  (78) 
F 21

>  <SCORE>  (78) 
-13.444

>  <name>  (78) 
78

>  <ligand_id>  (78) 
78

>  <original_smiles>  (78) 
[H]c1c([H])c([H])c2c(c1[H])C([H])([H])C([H])([H])C([H])([H])C2([H])N([H])C(=O)C1([H])N(C(=O)C([H])(N([H])C(=O)C([H])(N([H])C([H])([H])[H])C([H])([H])[H])C(C([H])([H])[H])(C([H])([H])[H])C([H])([H])[H])C([H])([H])c2c([H])c(OC([H])([H])C([H])([H])N([H])C(=O)c3c([H])c([H])c(C([H])([H])C(=O)N4C([H])([H])C([H])([H])C([H])([H])C([H])(n5nc(-c6c([H])c([H])c(Oc7c([H])c([H])c(F)c([H])c7F)c([H])c6[H])c(C(=O)N([H])[H])c5N([H])[H])C4([H])[H])c(OC([H])([H])[H])c3[H])c([H])c([H])c2C1([H])[H]

>  <smiles>  (78) 
[H]c1c([H])c([H])c2c(c1[H])C([H])([H])C([H])([H])C([H])([H])C2([H])N([H])C(=O)C1([H])N(C(=O)C([H])(N([H])C(=O)C([H])(N([H])C([H])([H])[H])C([H])([H])[H])C(C([H])([H])[H])(C([H])([H])[H])C([H])([H])[H])C([H])([H])c2c([H])c(OC([H])([H])C([H])([H])N([H])C(=O)c3c([H])c([H])c(C([H])([H])C(=O)N4C([H])([H])C([H])([H])C([H])([H])C([H])(n5nc(-c6c([H])c([H])c(Oc7c([H])c([H])c(F)c([H])c7F)c([H])c6[H])c(C(=O)N([H])[H])c5N([H])[H])C4([H])[H])c(OC([H])([H])[H])c3[H])c([H])c([H])c2C1([H])[H]

$$$$
79:0:0
     RDKit          3D

 91 99  0  0  1  0  0  0  0  0999 V2000
  -29.1600  -20.2030   21.4900 C   0  0  0  0  0  3  0  0  0  0  0  0
  -28.7950  -21.4450   22.0860 C   0  0  0  0  0  3  0  0  0  0  0  0
  -29.2400  -21.4280   19.4280 C   0  0  0  0  0  3  0  0  0  0  0  0
  -29.4530  -20.0430   20.1210 C   0  0  0  0  0  0  0  0  0  0  0  0
  -28.8220  -22.8230   19.9990 C   0  0  0  0  0  0  0  0  0  0  0  0
  -28.6390  -22.6850   21.3990 C   0  0  0  0  0  0  0  0  0  0  0  0
  -28.2620  -23.7950   22.1550 N   0  0  0  0  0  0  0  0  0  0  0  0
  -27.9840  -23.7190   23.1290 H   0  0  0  0  0  0  0  0  0  0  0  0
  -28.1170  -24.7050   21.7300 H   0  0  0  0  0  0  0  0  0  0  0  0
  -29.8910  -17.0540   20.1620 C   0  0  0  0  0  3  0  0  0  0  0  0
  -30.0330  -18.4680   19.7000 C   0  0  0  0  0  0  0  0  0  0  0  0
  -30.6400  -15.6110   19.8710 C   0  0  0  0  0  0  0  0  0  0  0  0
  -30.6010  -13.1050   19.1200 C   0  0  0  0  0  2  0  0  0  0  0  0
  -29.6690  -12.8440   17.9070 C   0  0  0  0  0  2  0  0  0  0  0  0
  -28.2320  -12.5720   18.3820 C   0  0  0  0  0  2  0  0  0  0  0  0
  -27.7920  -13.5770   19.4740 C   0  0  0  0  0  3  0  0  0  0  0  0
  -28.8550  -13.7930   20.5740 C   0  0  0  0  0  2  0  0  0  0  0  0
  -30.0800  -14.2880   19.9190 N   0  0  0  0  0  0  0  0  0  0  0  0
  -31.8340  -15.5470   19.5340 O   0  0  0  0  0  0  0  0  0  0  0  0
  -25.4570  -14.1560   20.3140 C   0  0  0  0  0  0  0  0  0  0  0  0
  -24.3950  -13.3910   20.7070 C   0  0  0  0  0  0  0  0  0  0  0  0
  -24.8410  -12.0350   20.6470 C   0  0  0  0  0  0  0  0  0  0  0  0
  -26.4770  -13.2700   20.0230 N   0  0  0  0  0  0  0  0  0  0  0  0
  -26.1210  -11.9850   20.2920 N   0  0  0  0  0  0  0  0  0  0  0  0
  -24.0990  -10.7810   20.8490 C   0  0  0  0  0  0  0  0  0  0  0  0
  -24.5350   -9.8040   21.7720 C   0  0  0  0  0  3  0  0  0  0  0  0
  -23.7910   -8.6190   21.9630 C   0  0  0  0  0  3  0  0  0  0  0  0
  -22.5960   -8.4030   21.2340 C   0  0  0  0  0  0  0  0  0  0  0  0
  -22.1810   -9.3700   20.3020 C   0  0  0  0  0  3  0  0  0  0  0  0
  -22.9260  -10.5450   20.1070 C   0  0  0  0  0  3  0  0  0  0  0  0
  -21.8270   -7.2700   21.3330 O   0  0  0  0  0  0  0  0  0  0  0  0
  -21.7970   -6.5180   22.4800 C   0  0  0  0  0  0  0  0  0  0  0  0
  -21.3750   -7.0590   23.7140 C   0  0  0  0  0  3  0  0  0  0  0  0
  -21.2920   -6.2340   24.8540 C   0  0  0  0  0  3  0  0  0  0  0  0
  -21.6210   -4.8680   24.7600 C   0  0  0  0  0  0  0  0  0  0  0  0
  -22.0370   -4.3260   23.5320 C   0  0  0  0  0  3  0  0  0  0  0  0
  -22.1210   -5.1490   22.3940 C   0  0  0  0  0  0  0  0  0  0  0  0
  -22.5010   -4.6180   21.2070 F   0  0  0  0  0  0  0  0  0  0  0  0
  -21.5360   -4.0730   25.8530 F   0  0  0  0  0  0  0  0  0  0  0  0
  -23.0150  -13.8870   21.0230 C   0  0  0  0  0  0  0  0  0  0  0  0
  -22.3050  -13.2020   21.9110 N   0  0  0  0  0  0  0  0  0  0  0  0
  -22.5780  -14.9190   20.5150 O   0  0  0  0  0  0  0  0  0  0  0  0
  -22.6720  -12.3680   22.3450 H   0  0  0  0  0  0  0  0  0  0  0  0
  -21.3810  -13.5210   22.1650 H   0  0  0  0  0  0  0  0  0  0  0  0
  -25.6350  -15.5280   20.1490 N   0  0  0  0  0  0  0  0  0  0  0  0
  -24.8820  -16.1890   20.3020 H   0  0  0  0  0  0  0  0  0  0  0  0
  -26.4800  -15.9640   19.8050 H   0  0  0  0  0  0  0  0  0  0  0  0
  -30.9510  -18.6480   18.7440 O   0  0  0  0  0  0  0  0  0  0  0  0
  -31.0630  -19.5850   18.6330 H   0  0  0  0  0  0  0  0  0  0  0  0
  -28.3690  -24.3840   19.2670 C   0  0  0  0  0  2  0  0  0  0  0  0
  -28.4120  -25.9980   19.7290 O   0  0  0  0  0  0  0  0  0  0  0  0
  -24.7160  -31.7590   23.0020 C   0  0  0  0  0  0  0  0  0  0  0  0
  -27.3720  -27.0910   19.6820 C   0  0  0  0  0  0  0  0  0  0  0  0
  -23.5270  -30.3830   21.3430 C   0  0  0  0  0  3  0  0  0  0  0  0
  -24.9940  -28.9030   19.7930 C   0  0  0  0  0  0  0  0  0  0  0  0
  -26.0770  -30.7000   21.1240 C   0  0  0  0  0  2  0  0  0  0  0  0
  -26.1840  -29.3210   20.4000 C   0  0  0  0  0  0  0  0  0  0  0  0
  -27.3580  -28.4340   20.3250 C   0  0  0  0  0  3  0  0  0  0  0  0
  -26.1460  -26.8500   19.0160 C   0  0  0  0  0  3  0  0  0  0  0  0
  -25.0010  -27.6930   19.0790 C   0  0  0  0  0  3  0  0  0  0  0  0
  -23.7380  -29.7690   19.9290 C   0  0  0  0  0  2  0  0  0  0  0  0
  -24.7960  -30.9760   21.8760 N   0  0  0  0  0  0  0  0  0  0  0  0
  -23.6350  -31.9780   23.5720 O   0  0  0  0  0  0  0  0  0  0  0  0
  -22.9090  -29.3190   22.2890 C   0  0  0  0  0  0  0  0  0  0  0  0
  -21.5880  -29.0790   22.1840 N   0  0  0  0  0  0  0  0  0  0  0  0
  -23.6260  -28.7110   23.0870 O   0  0  0  0  0  0  0  0  0  0  0  0
  -21.0570  -29.6230   21.5190 H   0  0  0  0  0  0  0  0  0  0  0  0
  -18.3010  -27.6290   22.7010 C   0  0  0  0  0  0  0  0  0  0  0  0
  -20.8400  -28.0670   22.9400 C   0  0  0  0  0  3  0  0  0  0  0  0
  -21.0320  -26.6600   22.3250 C   0  0  0  0  0  2  0  0  0  0  0  0
  -19.9400  -26.2890   21.3150 C   0  0  0  0  0  2  0  0  0  0  0  0
  -18.5620  -26.3160   21.9820 C   0  0  0  0  0  2  0  0  0  0  0  0
  -19.3700  -28.4570   23.1370 C   0  0  0  0  0  0  0  0  0  0  0  0
  -19.0690  -29.6790   23.7760 C   0  0  0  0  0  3  0  0  0  0  0  0
  -17.7330  -30.0780   23.9790 C   0  0  0  0  0  3  0  0  0  0  0  0
  -16.6800  -29.2470   23.5560 C   0  0  0  0  0  3  0  0  0  0  0  0
  -16.9660  -28.0240   22.9230 C   0  0  0  0  0  3  0  0  0  0  0  0
  -25.9790  -32.4330   23.6190 C   0  0  0  0  0  3  0  0  0  0  0  0
  -26.5480  -31.6530   24.8690 C   0  0  1  0  0  0  0  0  0  0  0  0
  -25.4880  -31.3610   25.9580 C   0  0  0  0  0  1  0  0  0  0  0  0
  -27.1650  -30.3010   24.4450 C   0  0  0  0  0  1  0  0  0  0  0  0
  -27.6890  -32.4690   25.5210 C   0  0  0  0  0  1  0  0  0  0  0  0
  -25.6170  -33.8090   24.0070 N   0  0  0  0  0  0  0  0  0  0  0  0
  -25.9180  -34.9100   23.3050 C   0  0  0  0  0  0  0  0  0  0  0  0
  -26.5910  -34.8760   22.2720 O   0  0  0  0  0  0  0  0  0  0  0  0
  -25.0120  -33.9050   24.8090 H   0  0  0  0  0  0  0  0  0  0  0  0
  -24.1410  -36.6770   23.0440 C   0  0  0  0  0  1  0  0  0  0  0  0
  -25.3940  -36.2630   23.8310 C   0  0  0  0  0  3  0  0  0  0  0  0
  -27.4970  -37.1790   24.7120 C   0  0  0  0  0  1  0  0  0  0  0  0
  -26.3960  -37.3500   23.7680 N   0  0  0  0  0  0  0  0  0  0  0  0
  -25.9630  -38.2520   23.9450 H   0  0  0  0  0  0  0  0  0  0  0  0
  1  2  1  0
  3  5  2  0
  3  4  1  0
  4  1  2  0
  5  6  1  0
  6  2  2  0
  6  7  1  0
  7  8  1  0
  9  7  1  0
 11  4  1  0
 11 10  2  0
 12 18  1  0
 12 10  1  0
 13 18  1  0
 14 15  1  0
 14 13  1  0
 16 15  1  0
 16 23  1  0
 16 17  1  0
 18 17  1  0
 19 12  2  0
 20 21  2  0
 21 40  1  0
 22 21  1  0
 22 25  1  0
 23 24  1  0
 23 20  1  0
 24 22  2  0
 25 26  1  0
 26 27  2  0
 28 31  1  0
 28 27  1  0
 29 28  2  0
 30 29  1  0
 30 25  2  0
 31 32  1  0
 32 33  1  0
 33 34  2  0
 35 34  1  0
 35 39  1  0
 36 35  2  0
 37 32  2  0
 37 36  1  0
 38 37  1  0
 40 41  1  0
 41 44  1  0
 41 43  1  0
 42 40  2  0
 45 46  1  0
 45 20  1  0
 47 45  1  0
 48 11  1  0
 49 48  1  0
 50 51  1  0
 50  5  1  0
 52 63  2  0
 53 51  1  0
 53 58  1  0
 54 62  1  0
 54 64  1  0
 55 61  1  0
 55 57  1  0
 56 62  1  0
 57 56  1  0
 58 57  2  0
 59 60  1  0
 59 53  2  0
 60 55  2  0
 61 54  1  0
 62 52  1  0
 64 66  2  0
 65 64  1  0
 67 65  1  0
 68 77  2  0
 68 73  1  0
 69 65  1  0
 69 73  1  0
 70 69  1  0
 71 72  1  0
 71 70  1  0
 72 68  1  0
 73 74  2  0
 74 75  1  0
 76 75  2  0
 77 76  1  0
 78 52  1  0
 78 83  1  0
 78 79  1  0
 79 82  1  1
 79 80  1  0
 81 79  1  0
 83 86  1  0
 84 88  1  0
 84 83  1  0
 85 84  2  0
 88 87  1  0
 90 88  1  0
 90 91  1  0
 90 89  1  0
M  ISO  4  10 100  12 100  50 101  51 101
M  END
>  <TORSDO>  (79) 
F 20

>  <SCORE>  (79) 
-14.628

>  <name>  (79) 
79

>  <ligand_id>  (79) 
79

>  <original_smiles>  (79) 
[H]OC(=C([H])C(=O)N1C([H])([H])C([H])([H])C([H])([H])C([H])(n2nc(-c3c([H])c([H])c(Oc4c([H])c([H])c(F)c([H])c4F)c([H])c3[H])c(C(=O)N([H])[H])c2N([H])[H])C1([H])[H])c1c([H])c([H])c(N([H])[H])c(C([H])([H])Oc2c([H])c([H])c3c(c2[H])C([H])([H])N(C(=O)C([H])(N([H])C(=O)C([H])(N([H])C([H])([H])[H])C([H])([H])[H])C(C([H])([H])[H])(C([H])([H])[H])C([H])([H])[H])C([H])(C(=O)N([H])C2([H])c4c([H])c([H])c([H])c([H])c4C([H])([H])C([H])([H])C2([H])[H])C3([H])[H])c1[H]

>  <smiles>  (79) 
[H]OC(=C([H])C(=O)N1C([H])([H])C([H])([H])C([H])([H])C([H])(n2nc(-c3c([H])c([H])c(Oc4c([H])c([H])c(F)c([H])c4F)c([H])c3[H])c(C(=O)N([H])[H])c2N([H])[H])C1([H])[H])c1c([H])c([H])c(N([H])[H])c(C([H])([H])Oc2c([H])c([H])c3c(c2[H])C([H])([H])N(C(=O)C([H])(N([H])C(=O)C([H])(N([H])C([H])([H])[H])C([H])([H])[H])C(C([H])([H])[H])(C([H])([H])[H])C([H])([H])[H])C([H])(C(=O)N([H])C2([H])c4c([H])c([H])c([H])c([H])c4C([H])([H])C([H])([H])C2([H])[H])C3([H])[H])c1[H]

$$$$
80:0:0
     RDKit          3D

 92100  0  0  1  0  0  0  0  0999 V2000
  -29.5290  -22.4540   21.5700 C   0  0  0  0  0  3  0  0  0  0  0  0
  -29.1850  -23.7760   21.1630 C   0  0  0  0  0  3  0  0  0  0  0  0
  -29.3310  -21.6710   19.3030 C   0  0  0  0  0  3  0  0  0  0  0  0
  -29.6050  -21.3660   20.6580 C   0  0  0  0  0  0  0  0  0  0  0  0
  -28.9240  -24.0810   19.8070 C   0  0  0  0  0  0  0  0  0  0  0  0
  -29.0150  -22.9950   18.8840 C   0  0  0  0  0  0  0  0  0  0  0  0
  -28.8170  -23.2040   17.5190 N   0  0  0  0  0  0  0  0  0  0  0  0
  -28.8510  -24.1470   17.1480 H   0  0  0  0  0  0  0  0  0  0  0  0
  -29.1220  -22.5010   16.8530 H   0  0  0  0  0  0  0  0  0  0  0  0
  -30.0390  -19.9820   21.1520 C   0  0  0  0  0  0  0  0  0  0  0  0
  -30.5810  -19.8630   22.2550 O   0  0  0  0  0  0  0  0  0  0  0  0
  -29.7820  -18.6730   20.3220 C   0  0  0  0  0  2  0  0  0  0  0  0
  -30.5790  -17.3520   20.7290 C   0  0  0  0  0  2  0  0  0  0  0  0
  -29.8180  -15.9570   20.7100 C   0  0  0  0  0  2  0  0  0  0  0  0
  -30.6280  -14.6510   20.3540 C   0  0  0  0  0  0  0  0  0  0  0  0
  -30.3830  -12.4350   19.2620 C   0  0  0  0  0  2  0  0  0  0  0  0
  -29.4350  -12.6020   18.0530 C   0  0  0  0  0  2  0  0  0  0  0  0
  -27.9590  -12.4570   18.4810 C   0  0  0  0  0  2  0  0  0  0  0  0
  -27.6170  -13.3000   19.7380 C   0  0  0  0  0  3  0  0  0  0  0  0
  -28.6820  -13.1220   20.8440 C   0  0  0  0  0  2  0  0  0  0  0  0
  -29.9970  -13.4380   20.2720 N   0  0  0  0  0  0  0  0  0  0  0  0
  -31.7930  -14.7770   19.9670 O   0  0  0  0  0  0  0  0  0  0  0  0
  -25.2300  -13.9130   20.4690 C   0  0  0  0  0  0  0  0  0  0  0  0
  -24.1610  -13.1450   20.8440 C   0  0  0  0  0  0  0  0  0  0  0  0
  -24.6200  -11.7930   20.8140 C   0  0  0  0  0  0  0  0  0  0  0  0
  -26.2710  -13.0280   20.2320 N   0  0  0  0  0  0  0  0  0  0  0  0
  -25.9080  -11.7490   20.4980 N   0  0  0  0  0  0  0  0  0  0  0  0
  -23.8930  -10.5330   21.0120 C   0  0  0  0  0  0  0  0  0  0  0  0
  -24.3340   -9.5620   21.9380 C   0  0  0  0  0  3  0  0  0  0  0  0
  -23.6050   -8.3680   22.1240 C   0  0  0  0  0  3  0  0  0  0  0  0
  -22.4220   -8.1360   21.3830 C   0  0  0  0  0  0  0  0  0  0  0  0
  -22.0010   -9.0960   20.4450 C   0  0  0  0  0  3  0  0  0  0  0  0
  -22.7300  -10.2820   20.2580 C   0  0  0  0  0  3  0  0  0  0  0  0
  -21.6630   -6.9940   21.4780 O   0  0  0  0  0  0  0  0  0  0  0  0
  -21.6310   -6.2420   22.6270 C   0  0  0  0  0  0  0  0  0  0  0  0
  -21.2360   -6.7930   23.8650 C   0  0  0  0  0  3  0  0  0  0  0  0
  -21.1510   -5.9680   25.0060 C   0  0  0  0  0  3  0  0  0  0  0  0
  -21.4510   -4.5970   24.9080 C   0  0  0  0  0  0  0  0  0  0  0  0
  -21.8410   -4.0470   23.6740 C   0  0  0  0  0  3  0  0  0  0  0  0
  -21.9280   -4.8670   22.5360 C   0  0  0  0  0  0  0  0  0  0  0  0
  -22.2820   -4.3270   21.3440 F   0  0  0  0  0  0  0  0  0  0  0  0
  -21.3630   -3.8030   26.0010 F   0  0  0  0  0  0  0  0  0  0  0  0
  -22.7690  -13.6260   21.1280 C   0  0  0  0  0  0  0  0  0  0  0  0
  -22.0480  -12.9280   21.9990 N   0  0  0  0  0  0  0  0  0  0  0  0
  -22.3290  -14.6540   20.6130 O   0  0  0  0  0  0  0  0  0  0  0  0
  -22.4200  -12.0940   22.4310 H   0  0  0  0  0  0  0  0  0  0  0  0
  -21.1110  -13.2250   22.2360 H   0  0  0  0  0  0  0  0  0  0  0  0
  -25.3960  -15.2820   20.2870 N   0  0  0  0  0  0  0  0  0  0  0  0
  -24.6280  -15.9360   20.3960 H   0  0  0  0  0  0  0  0  0  0  0  0
  -26.2470  -15.7240   19.9670 H   0  0  0  0  0  0  0  0  0  0  0  0
  -28.6240  -25.5330   19.2960 C   0  0  0  0  0  2  0  0  0  0  0  0
  -28.3870  -26.6220   20.2420 O   0  0  0  0  0  0  0  0  0  0  0  0
  -24.6010  -31.9050   23.2620 C   0  0  0  0  0  0  0  0  0  0  0  0
  -27.2260  -27.3990   20.1780 C   0  0  0  0  0  0  0  0  0  0  0  0
  -23.3880  -30.5040   21.6290 C   0  0  0  0  0  3  0  0  0  0  0  0
  -24.8340  -28.9600   20.1940 C   0  0  0  0  0  0  0  0  0  0  0  0
  -25.9180  -30.8450   21.4200 C   0  0  0  0  0  2  0  0  0  0  0  0
  -26.0010  -29.4680   20.7780 C   0  0  0  0  0  0  0  0  0  0  0  0
  -27.1950  -28.6960   20.7670 C   0  0  0  0  0  3  0  0  0  0  0  0
  -26.0250  -26.9220   19.5980 C   0  0  0  0  0  3  0  0  0  0  0  0
  -24.8460  -27.6910   19.5990 C   0  0  0  0  0  3  0  0  0  0  0  0
  -23.5920  -29.8250   20.2490 C   0  0  0  0  0  2  0  0  0  0  0  0
  -24.6540  -31.0990   22.1620 N   0  0  0  0  0  0  0  0  0  0  0  0
  -23.5220  -32.1800   23.8070 O   0  0  0  0  0  0  0  0  0  0  0  0
  -22.7400  -29.4840   22.5940 C   0  0  0  0  0  0  0  0  0  0  0  0
  -21.4160  -29.2990   22.4710 N   0  0  0  0  0  0  0  0  0  0  0  0
  -23.4260  -28.8620   23.4100 O   0  0  0  0  0  0  0  0  0  0  0  0
  -20.9210  -29.8710   21.7990 H   0  0  0  0  0  0  0  0  0  0  0  0
  -18.0540  -28.0570   22.9490 C   0  0  0  0  0  0  0  0  0  0  0  0
  -20.6060  -28.3520   23.2350 C   0  0  0  0  0  3  0  0  0  0  0  0
  -20.7320  -26.9220   22.6670 C   0  0  0  0  0  2  0  0  0  0  0  0
  -19.6390  -26.5790   21.6490 C   0  0  0  0  0  2  0  0  0  0  0  0
  -18.2530  -26.7030   22.2910 C   0  0  0  0  0  2  0  0  0  0  0  0
  -19.1590  -28.8370   23.3780 C   0  0  0  0  0  0  0  0  0  0  0  0
  -18.9190  -30.1040   23.9560 C   0  0  0  0  0  3  0  0  0  0  0  0
  -17.6080  -30.5900   24.1060 C   0  0  0  0  0  3  0  0  0  0  0  0
  -16.5170  -29.8070   23.6930 C   0  0  0  0  0  3  0  0  0  0  0  0
  -16.7400  -28.5440   23.1180 C   0  0  0  0  0  3  0  0  0  0  0  0
  -25.8890  -32.5390   23.8730 C   0  0  0  0  0  3  0  0  0  0  0  0
  -25.5830  -33.9380   24.1970 N   0  0  0  0  0  0  0  0  0  0  0  0
  -25.9150  -34.9880   23.4340 C   0  0  0  0  0  0  0  0  0  0  0  0
  -26.5840  -34.8800   22.4020 O   0  0  0  0  0  0  0  0  0  0  0  0
  -24.9870  -34.0980   24.9960 H   0  0  0  0  0  0  0  0  0  0  0  0
  -24.1890  -36.7830   23.0740 C   0  0  0  0  0  1  0  0  0  0  0  0
  -25.4300  -36.3770   23.8870 C   0  0  0  0  0  3  0  0  0  0  0  0
  -27.5650  -37.2630   24.7170 C   0  0  0  0  0  1  0  0  0  0  0  0
  -26.4630  -37.4290   23.7710 N   0  0  0  0  0  0  0  0  0  0  0  0
  -26.0580  -38.3490   23.9160 H   0  0  0  0  0  0  0  0  0  0  0  0
  -26.4120  -31.7710   25.1490 C   0  0  1  0  0  0  0  0  0  0  0  0
  -25.3250  -31.5410   26.2240 C   0  0  0  0  0  1  0  0  0  0  0  0
  -26.9910  -30.3920   24.7580 C   0  0  0  0  0  1  0  0  0  0  0  0
  -27.5650  -32.5690   25.8060 C   0  0  0  0  0  1  0  0  0  0  0  0
  2  1  1  0
  3  4  1  0
  4 10  1  0
  4  1  2  0
  5  2  2  0
  6  3  2  0
  6  5  1  0
  7  6  1  0
  8  7  1  0
  9  7  1  0
 10 11  2  0
 12 13  1  0
 12 10  1  0
 14 13  1  0
 15 14  1  0
 16 21  1  0
 17 18  1  0
 17 16  1  0
 19 18  1  0
 19 26  1  0
 19 20  1  0
 21 15  1  0
 21 20  1  0
 22 15  2  0
 23 24  2  0
 24 43  1  0
 25 24  1  0
 25 28  1  0
 26 23  1  0
 26 27  1  0
 27 25  2  0
 28 29  1  0
 29 30  2  0
 31 34  1  0
 31 30  1  0
 32 31  2  0
 33 32  1  0
 33 28  2  0
 34 35  1  0
 35 36  1  0
 36 37  2  0
 38 37  1  0
 38 42  1  0
 39 38  2  0
 40 35  2  0
 40 39  1  0
 41 40  1  0
 43 44  1  0
 44 47  1  0
 44 46  1  0
 45 43  2  0
 48 49  1  0
 48 23  1  0
 50 48  1  0
 51  5  1  0
 51 52  1  0
 53 64  2  0
 54 52  1  0
 54 59  1  0
 55 63  1  0
 55 65  1  0
 56 62  1  0
 56 58  1  0
 57 63  1  0
 58 57  1  0
 59 58  2  0
 60 61  1  0
 60 54  2  0
 61 56  2  0
 62 55  1  0
 63 53  1  0
 65 67  2  0
 66 65  1  0
 68 66  1  0
 69 78  2  0
 69 74  1  0
 70 66  1  0
 70 74  1  0
 71 70  1  0
 72 73  1  0
 72 71  1  0
 73 69  1  0
 74 75  2  0
 75 76  1  0
 77 76  2  0
 78 77  1  0
 79 53  1  0
 79 80  1  0
 79 89  1  0
 80 83  1  0
 81 85  1  0
 81 80  1  0
 82 81  2  0
 85 84  1  0
 87 85  1  0
 87 88  1  0
 87 86  1  0
 89 92  1  1
 89 90  1  0
 91 89  1  0
M  ISO  4  14 100  15 100  51 101  52 101
M  END
>  <TORSDO>  (80) 
F 22

>  <SCORE>  (80) 
-13.281

>  <name>  (80) 
80

>  <ligand_id>  (80) 
80

>  <original_smiles>  (80) 
[H]c1c([H])c([H])c2c(c1[H])C([H])([H])C([H])([H])C([H])([H])C2([H])N([H])C(=O)C1([H])N(C(=O)C([H])(N([H])C(=O)C([H])(N([H])C([H])([H])[H])C([H])([H])[H])C(C([H])([H])[H])(C([H])([H])[H])C([H])([H])[H])C([H])([H])c2c([H])c(OC([H])([H])c3c([H])c([H])c(C(=O)C([H])([H])C([H])([H])C([H])([H])C(=O)N4C([H])([H])C([H])([H])C([H])([H])C([H])(n5nc(-c6c([H])c([H])c(Oc7c([H])c([H])c(F)c([H])c7F)c([H])c6[H])c(C(=O)N([H])[H])c5N([H])[H])C4([H])[H])c([H])c3N([H])[H])c([H])c([H])c2C1([H])[H]

>  <smiles>  (80) 
[H]c1c([H])c([H])c2c(c1[H])C([H])([H])C([H])([H])C([H])([H])C2([H])N([H])C(=O)C1([H])N(C(=O)C([H])(N([H])C(=O)C([H])(N([H])C([H])([H])[H])C([H])([H])[H])C(C([H])([H])[H])(C([H])([H])[H])C([H])([H])[H])C([H])([H])c2c([H])c(OC([H])([H])c3c([H])c([H])c(C(=O)C([H])([H])C([H])([H])C([H])([H])C(=O)N4C([H])([H])C([H])([H])C([H])([H])C([H])(n5nc(-c6c([H])c([H])c(Oc7c([H])c([H])c(F)c([H])c7F)c([H])c6[H])c(C(=O)N([H])[H])c5N([H])[H])C4([H])[H])c([H])c3N([H])[H])c([H])c([H])c2C1([H])[H]

$$$$
81:0:0
     RDKit          3D

 92100  0  0  1  0  0  0  0  0999 V2000
  -27.9760  -22.6220   21.2360 C   0  0  0  0  0  3  0  0  0  0  0  0
  -27.6920  -24.0410   21.1050 C   0  0  0  0  0  3  0  0  0  0  0  0
  -29.5920  -22.7780   19.5210 C   0  0  0  0  0  3  0  0  0  0  0  0
  -28.9650  -21.9120   20.4760 C   0  0  0  0  0  0  0  0  0  0  0  0
  -28.3820  -24.9190   20.2090 C   0  0  0  0  0  0  0  0  0  0  0  0
  -29.3480  -24.2130   19.4110 C   0  0  0  0  0  0  0  0  0  0  0  0
  -31.3330  -24.5190   18.0950 C   0  0  0  0  0  1  0  0  0  0  0  0
  -30.0810  -25.0100   18.5570 O   0  0  0  0  0  0  0  0  0  0  0  0
  -28.3320  -26.3780   20.2090 O   0  0  0  0  0  0  0  0  0  0  0  0
  -24.5850  -31.9280   23.2050 C   0  0  0  0  0  0  0  0  0  0  0  0
  -27.2040  -27.2480   20.2100 C   0  0  0  0  0  0  0  0  0  0  0  0
  -23.3980  -30.5230   21.5580 C   0  0  0  0  0  3  0  0  0  0  0  0
  -24.8590  -28.9370   20.1610 C   0  0  0  0  0  0  0  0  0  0  0  0
  -25.9480  -30.8030   21.4110 C   0  0  0  0  0  2  0  0  0  0  0  0
  -26.0270  -29.4070   20.7740 C   0  0  0  0  0  0  0  0  0  0  0  0
  -27.1980  -28.5770   20.7810 C   0  0  0  0  0  3  0  0  0  0  0  0
  -26.0140  -26.8540   19.5680 C   0  0  0  0  0  3  0  0  0  0  0  0
  -24.8600  -27.6710   19.5490 C   0  0  0  0  0  3  0  0  0  0  0  0
  -23.6300  -29.8310   20.1870 C   0  0  0  0  0  2  0  0  0  0  0  0
  -24.6620  -31.1070   22.1130 N   0  0  0  0  0  0  0  0  0  0  0  0
  -23.4940  -32.2130   23.7230 O   0  0  0  0  0  0  0  0  0  0  0  0
  -22.7140  -29.5230   22.5210 C   0  0  0  0  0  0  0  0  0  0  0  0
  -21.3850  -29.3620   22.3890 N   0  0  0  0  0  0  0  0  0  0  0  0
  -23.3790  -28.8920   23.3450 O   0  0  0  0  0  0  0  0  0  0  0  0
  -20.9070  -29.9240   21.6980 H   0  0  0  0  0  0  0  0  0  0  0  0
  -17.9880  -28.2220   22.9100 C   0  0  0  0  0  0  0  0  0  0  0  0
  -20.5530  -28.4300   23.1550 C   0  0  0  0  0  3  0  0  0  0  0  0
  -20.6210  -27.0040   22.5610 C   0  0  0  0  0  2  0  0  0  0  0  0
  -19.5020  -26.7160   21.5550 C   0  0  0  0  0  2  0  0  0  0  0  0
  -18.1300  -26.8780   22.2150 C   0  0  0  0  0  2  0  0  0  0  0  0
  -19.1240  -28.9560   23.3380 C   0  0  0  0  0  0  0  0  0  0  0  0
  -18.9350  -30.2140   23.9530 C   0  0  0  0  0  3  0  0  0  0  0  0
  -17.6410  -30.7370   24.1390 C   0  0  0  0  0  3  0  0  0  0  0  0
  -16.5180  -29.9980   23.7260 C   0  0  0  0  0  3  0  0  0  0  0  0
  -16.6930  -28.7420   23.1190 C   0  0  0  0  0  3  0  0  0  0  0  0
  -25.8570  -32.5620   23.8430 C   0  0  0  0  0  3  0  0  0  0  0  0
  -25.5460  -33.9630   24.1670 N   0  0  0  0  0  0  0  0  0  0  0  0
  -25.8960  -35.0160   23.4170 C   0  0  0  0  0  0  0  0  0  0  0  0
  -26.5820  -34.9100   22.3970 O   0  0  0  0  0  0  0  0  0  0  0  0
  -24.9340  -34.1190   24.9540 H   0  0  0  0  0  0  0  0  0  0  0  0
  -24.1940  -36.8310   23.0250 C   0  0  0  0  0  1  0  0  0  0  0  0
  -25.4090  -36.4080   23.8680 C   0  0  0  0  0  3  0  0  0  0  0  0
  -27.5240  -37.2740   24.7670 C   0  0  0  0  0  1  0  0  0  0  0  0
  -26.4530  -37.4540   23.7910 N   0  0  0  0  0  0  0  0  0  0  0  0
  -26.0500  -38.3760   23.9280 H   0  0  0  0  0  0  0  0  0  0  0  0
  -26.3540  -31.7980   25.1340 C   0  0  1  0  0  0  0  0  0  0  0  0
  -25.2450  -31.5650   26.1860 C   0  0  0  0  0  1  0  0  0  0  0  0
  -26.9420  -30.4160   24.7610 C   0  0  0  0  0  1  0  0  0  0  0  0
  -27.4960  -32.5950   25.8080 C   0  0  0  0  0  1  0  0  0  0  0  0
  -29.5460  -20.4290   20.9030 C   0  0  0  0  0  3  0  0  0  0  0  0
  -31.0490  -20.5730   21.1690 C   0  0  0  0  0  3  0  0  0  0  0  0
  -31.8800  -20.3920   20.2740 O   0  0  0  0  0  0  0  0  0  0  0  0
  -29.2530  -18.9190   20.2520 C   0  0  0  0  0  3  0  0  0  0  0  0
  -30.1270  -17.5760   20.7480 C   0  0  0  0  0  3  0  0  0  0  0  0
  -30.5360  -14.9240   20.3650 C   0  0  0  0  0  0  0  0  0  0  0  0
  -30.4010  -12.6120   19.3710 C   0  0  0  0  0  2  0  0  0  0  0  0
  -29.4690  -12.6320   18.1380 C   0  0  0  0  0  2  0  0  0  0  0  0
  -27.9990  -12.4370   18.5590 C   0  0  0  0  0  2  0  0  0  0  0  0
  -27.6050  -13.3220   19.7730 C   0  0  0  0  0  3  0  0  0  0  0  0
  -28.6590  -13.2780   20.8960 C   0  0  0  0  0  2  0  0  0  0  0  0
  -29.9350  -13.6790   20.2910 N   0  0  0  0  0  0  0  0  0  0  0  0
  -31.7430  -15.0110   20.1140 O   0  0  0  0  0  0  0  0  0  0  0  0
  -29.7440  -16.0790   20.5230 N   0  0  0  0  0  0  0  0  0  0  0  0
  -28.7600  -15.8800   20.6140 H   0  0  0  0  0  0  0  0  0  0  0  0
  -25.2170  -13.8920   20.5020 C   0  0  0  0  0  0  0  0  0  0  0  0
  -24.1590  -13.1090   20.8700 C   0  0  0  0  0  0  0  0  0  0  0  0
  -24.6320  -11.7610   20.8400 C   0  0  0  0  0  0  0  0  0  0  0  0
  -26.2670  -13.0190   20.2650 N   0  0  0  0  0  0  0  0  0  0  0  0
  -25.9240  -11.7330   20.5350 N   0  0  0  0  0  0  0  0  0  0  0  0
  -23.9120  -10.4950   21.0260 C   0  0  0  0  0  0  0  0  0  0  0  0
  -24.3370   -9.5360   21.9720 C   0  0  0  0  0  3  0  0  0  0  0  0
  -23.6160   -8.3350   22.1460 C   0  0  0  0  0  3  0  0  0  0  0  0
  -22.4570   -8.0840   21.3740 C   0  0  0  0  0  0  0  0  0  0  0  0
  -22.0520   -9.0310   20.4170 C   0  0  0  0  0  3  0  0  0  0  0  0
  -22.7730  -10.2240   20.2410 C   0  0  0  0  0  3  0  0  0  0  0  0
  -21.7080   -6.9350   21.4580 O   0  0  0  0  0  0  0  0  0  0  0  0
  -21.6320   -6.2090   22.6190 C   0  0  0  0  0  0  0  0  0  0  0  0
  -21.1350   -6.7670   23.8170 C   0  0  0  0  0  3  0  0  0  0  0  0
  -21.0110   -5.9650   24.9680 C   0  0  0  0  0  3  0  0  0  0  0  0
  -21.3680   -4.6040   24.9220 C   0  0  0  0  0  0  0  0  0  0  0  0
  -21.8560   -4.0450   23.7280 C   0  0  0  0  0  3  0  0  0  0  0  0
  -21.9860   -4.8450   22.5790 C   0  0  0  0  0  0  0  0  0  0  0  0
  -22.4350   -4.2960   21.4260 F   0  0  0  0  0  0  0  0  0  0  0  0
  -21.2420   -3.8310   26.0250 F   0  0  0  0  0  0  0  0  0  0  0  0
  -22.7570  -13.5750   21.1340 C   0  0  0  0  0  0  0  0  0  0  0  0
  -22.0250  -12.8710   21.9870 N   0  0  0  0  0  0  0  0  0  0  0  0
  -22.3200  -14.6040   20.6160 O   0  0  0  0  0  0  0  0  0  0  0  0
  -22.3910  -12.0400   22.4280 H   0  0  0  0  0  0  0  0  0  0  0  0
  -21.0830  -13.1650   22.2040 H   0  0  0  0  0  0  0  0  0  0  0  0
  -25.3680  -15.2640   20.3230 N   0  0  0  0  0  0  0  0  0  0  0  0
  -24.5850  -15.9000   20.4220 H   0  0  0  0  0  0  0  0  0  0  0  0
  -26.1990  -15.7150   19.9630 H   0  0  0  0  0  0  0  0  0  0  0  0
  2  1  1  0
  3  4  1  0
  4 50  1  0
  4  1  2  0
  5  2  2  0
  6  3  2  0
  6  5  1  0
  7  8  1  0
  8  6  1  0
  9  5  1  0
  9 11  1  0
 10 21  2  0
 11 16  1  0
 12 20  1  0
 12 22  1  0
 13 19  1  0
 13 15  1  0
 14 20  1  0
 15 16  2  0
 15 14  1  0
 17 11  2  0
 18 17  1  0
 18 13  2  0
 19 12  1  0
 20 10  1  0
 22 24  2  0
 23 22  1  0
 25 23  1  0
 26 35  2  0
 26 31  1  0
 27 23  1  0
 27 31  1  0
 28 27  1  0
 29 30  1  0
 29 28  1  0
 30 26  1  0
 31 32  2  0
 32 33  1  0
 34 33  2  0
 35 34  1  0
 36 10  1  0
 36 37  1  0
 36 46  1  0
 37 40  1  0
 38 42  1  0
 38 37  1  0
 39 38  2  0
 42 41  1  0
 44 42  1  0
 44 45  1  0
 44 43  1  0
 46 49  1  1
 46 47  1  0
 48 46  1  0
 50 53  1  0
 50 51  1  0
 52 51  2  0
 53 54  2  0
 55 63  1  0
 56 61  1  0
 57 58  1  0
 57 56  1  0
 59 58  1  0
 59 68  1  0
 59 60  1  0
 61 55  1  0
 61 60  1  0
 62 55  2  0
 63 64  1  0
 63 54  1  0
 65 66  2  0
 66 85  1  0
 67 66  1  0
 67 70  1  0
 68 65  1  0
 68 69  1  0
 69 67  2  0
 70 71  1  0
 71 72  2  0
 73 76  1  0
 73 72  1  0
 74 73  2  0
 75 74  1  0
 75 70  2  0
 76 77  1  0
 77 78  1  0
 78 79  2  0
 80 79  1  0
 80 84  1  0
 81 80  2  0
 82 77  2  0
 82 81  1  0
 83 82  1  0
 85 86  1  0
 86 89  1  0
 86 88  1  0
 87 85  2  0
 90 91  1  0
 90 65  1  0
 92 90  1  0
M  ISO  4   5 101   9 101  55 100  63 100
M  END
>  <TORSDO>  (81) 
F 21

>  <SCORE>  (81) 
-13.649

>  <name>  (81) 
81

>  <ligand_id>  (81) 
81

>  <original_smiles>  (81) 
[H]C(=O)C([H])(c1c([H])c([H])c(Oc2c([H])c([H])c3c(c2[H])C([H])([H])N(C(=O)C([H])(N([H])C(=O)C([H])(N([H])C([H])([H])[H])C([H])([H])[H])C(C([H])([H])[H])(C([H])([H])[H])C([H])([H])[H])C([H])(C(=O)N([H])C2([H])c4c([H])c([H])c([H])c([H])c4C([H])([H])C([H])([H])C2([H])[H])C3([H])[H])c(OC([H])([H])[H])c1[H])C([H])([H])C([H])([H])N([H])C(=O)N1C([H])([H])C([H])([H])C([H])([H])C([H])(n2nc(-c3c([H])c([H])c(Oc4c([H])c([H])c(F)c([H])c4F)c([H])c3[H])c(C(=O)N([H])[H])c2N([H])[H])C1([H])[H]

>  <smiles>  (81) 
[H]C(=O)C([H])(c1c([H])c([H])c(Oc2c([H])c([H])c3c(c2[H])C([H])([H])N(C(=O)C([H])(N([H])C(=O)C([H])(N([H])C([H])([H])[H])C([H])([H])[H])C(C([H])([H])[H])(C([H])([H])[H])C([H])([H])[H])C([H])(C(=O)N([H])C2([H])c4c([H])c([H])c([H])c([H])c4C([H])([H])C([H])([H])C2([H])[H])C3([H])[H])c(OC([H])([H])[H])c1[H])C([H])([H])C([H])([H])N([H])C(=O)N1C([H])([H])C([H])([H])C([H])([H])C([H])(n2nc(-c3c([H])c([H])c(Oc4c([H])c([H])c(F)c([H])c4F)c([H])c3[H])c(C(=O)N([H])[H])c2N([H])[H])C1([H])[H]

$$$$
82:0:0
     RDKit          3D

 90 98  0  0  1  0  0  0  0  0999 V2000
  -29.5800  -21.5110   19.0540 C   0  0  0  0  0  3  0  0  0  0  0  0
  -29.8650  -20.0980   19.0110 C   0  0  0  0  0  3  0  0  0  0  0  0
  -29.4840  -22.2590   20.2650 C   0  0  0  0  0  0  0  0  0  0  0  0
  -30.0870  -19.2800   20.1650 C   0  0  0  0  0  0  0  0  0  0  0  0
  -29.6290  -21.4270   21.4270 C   0  0  0  0  0  0  0  0  0  0  0  0
  -29.9210  -20.0080   21.3820 C   0  0  0  0  0  0  0  0  0  0  0  0
  -30.1130  -19.3620   22.5580 F   0  0  0  0  0  0  0  0  0  0  0  0
  -29.5640  -22.0000   22.6630 O   0  0  0  0  0  0  0  0  0  0  0  0
  -29.7080  -21.3300   23.3270 H   0  0  0  0  0  0  0  0  0  0  0  0
  -29.5180  -23.8840   20.3040 C   0  0  0  0  0  3  0  0  0  0  0  0
  -28.3050  -24.9280   19.9670 C   0  0  0  0  0  3  0  0  0  0  0  0
  -28.4880  -26.4340   20.1320 O   0  0  0  0  0  0  0  0  0  0  0  0
  -24.6490  -31.8240   23.2010 C   0  0  0  0  0  0  0  0  0  0  0  0
  -27.3760  -27.3220   20.0750 C   0  0  0  0  0  0  0  0  0  0  0  0
  -23.4920  -30.4340   21.5230 C   0  0  0  0  0  3  0  0  0  0  0  0
  -24.9870  -28.9420   20.0710 C   0  0  0  0  0  0  0  0  0  0  0  0
  -26.0310  -30.7940   21.3720 C   0  0  0  0  0  2  0  0  0  0  0  0
  -26.1460  -29.4260   20.6910 C   0  0  0  0  0  0  0  0  0  0  0  0
  -27.3420  -28.6300   20.6790 C   0  0  0  0  0  3  0  0  0  0  0  0
  -26.1910  -26.9150   19.4230 C   0  0  0  0  0  3  0  0  0  0  0  0
  -25.0180  -27.6960   19.4240 C   0  0  0  0  0  3  0  0  0  0  0  0
  -23.7330  -29.7940   20.1300 C   0  0  0  0  0  2  0  0  0  0  0  0
  -24.7420  -31.0350   22.0890 N   0  0  0  0  0  0  0  0  0  0  0  0
  -23.5540  -32.0660   23.7320 O   0  0  0  0  0  0  0  0  0  0  0  0
  -22.8410  -29.3840   22.4580 C   0  0  0  0  0  0  0  0  0  0  0  0
  -21.5240  -29.1630   22.3010 N   0  0  0  0  0  0  0  0  0  0  0  0
  -23.5230  -28.7720   23.2840 O   0  0  0  0  0  0  0  0  0  0  0  0
  -21.0310  -29.7110   21.6100 H   0  0  0  0  0  0  0  0  0  0  0  0
  -18.1850  -27.8280   22.7080 C   0  0  0  0  0  0  0  0  0  0  0  0
  -20.7230  -28.1870   23.0430 C   0  0  0  0  0  3  0  0  0  0  0  0
  -20.8950  -26.7660   22.4570 C   0  0  0  0  0  2  0  0  0  0  0  0
  -19.8320  -26.4110   21.4130 C   0  0  0  0  0  2  0  0  0  0  0  0
  -18.4310  -26.4940   22.0240 C   0  0  0  0  0  2  0  0  0  0  0  0
  -19.2610  -28.6300   23.1720 C   0  0  0  0  0  0  0  0  0  0  0  0
  -18.9770  -29.8770   23.7720 C   0  0  0  0  0  3  0  0  0  0  0  0
  -17.6500  -30.3220   23.9120 C   0  0  0  0  0  3  0  0  0  0  0  0
  -16.5870  -29.5190   23.4650 C   0  0  0  0  0  3  0  0  0  0  0  0
  -16.8550  -28.2730   22.8680 C   0  0  0  0  0  3  0  0  0  0  0  0
  -25.9090  -32.4740   23.8490 C   0  0  0  0  0  3  0  0  0  0  0  0
  -25.5700  -33.8630   24.1870 N   0  0  0  0  0  0  0  0  0  0  0  0
  -25.8700  -34.9290   23.4320 C   0  0  0  0  0  0  0  0  0  0  0  0
  -26.5290  -34.8450   22.3920 O   0  0  0  0  0  0  0  0  0  0  0  0
  -24.9790  -34.0000   24.9940 H   0  0  0  0  0  0  0  0  0  0  0  0
  -24.0870  -36.6770   23.1210 C   0  0  0  0  0  1  0  0  0  0  0  0
  -25.3570  -36.3040   23.9020 C   0  0  0  0  0  3  0  0  0  0  0  0
  -27.4830  -37.2490   24.6880 C   0  0  0  0  0  1  0  0  0  0  0  0
  -26.3590  -37.3840   23.7660 N   0  0  0  0  0  0  0  0  0  0  0  0
  -25.9310  -38.2940   23.9190 H   0  0  0  0  0  0  0  0  0  0  0  0
  -26.4180  -31.7030   25.1290 C   0  0  1  0  0  0  0  0  0  0  0  0
  -25.3110  -31.4410   26.1780 C   0  0  0  0  0  1  0  0  0  0  0  0
  -27.0300  -30.3370   24.7410 C   0  0  0  0  0  1  0  0  0  0  0  0
  -27.5440  -32.5120   25.8140 C   0  0  0  0  0  1  0  0  0  0  0  0
  -30.7110  -17.7870   20.0120 C   0  0  0  0  0  3  0  0  0  0  0  0
  -30.1900  -16.3700   20.6490 C   0  0  0  0  0  3  0  0  0  0  0  0
  -30.9360  -14.9780   20.2430 C   0  0  0  0  0  0  0  0  0  0  0  0
  -30.6800  -12.7270   19.1550 C   0  0  0  0  0  2  0  0  0  0  0  0
  -29.7100  -12.8620   17.9590 C   0  0  0  0  0  2  0  0  0  0  0  0
  -28.2500  -12.6930   18.4200 C   0  0  0  0  0  2  0  0  0  0  0  0
  -27.9260  -13.5400   19.6780 C   0  0  0  0  0  3  0  0  0  0  0  0
  -29.0120  -13.4010   20.7650 C   0  0  0  0  0  2  0  0  0  0  0  0
  -30.3020  -13.7520   20.1600 N   0  0  0  0  0  0  0  0  0  0  0  0
  -32.1080  -15.0470   19.8600 O   0  0  0  0  0  0  0  0  0  0  0  0
  -25.5700  -14.1480   20.4890 C   0  0  0  0  0  0  0  0  0  0  0  0
  -24.5020  -13.3830   20.8670 C   0  0  0  0  0  0  0  0  0  0  0  0
  -24.9420  -12.0250   20.7920 C   0  0  0  0  0  0  0  0  0  0  0  0
  -26.5920  -13.2590   20.2010 N   0  0  0  0  0  0  0  0  0  0  0  0
  -26.2240  -11.9750   20.4490 N   0  0  0  0  0  0  0  0  0  0  0  0
  -24.2000  -10.7700   20.9710 C   0  0  0  0  0  0  0  0  0  0  0  0
  -24.6050   -9.7990   21.9140 C   0  0  0  0  0  3  0  0  0  0  0  0
  -23.8620   -8.6110   22.0800 C   0  0  0  0  0  3  0  0  0  0  0  0
  -22.7000   -8.3840   21.3030 C   0  0  0  0  0  0  0  0  0  0  0  0
  -22.3150   -9.3430   20.3520 C   0  0  0  0  0  3  0  0  0  0  0  0
  -23.0580  -10.5240   20.1830 C   0  0  0  0  0  3  0  0  0  0  0  0
  -21.9320   -7.2470   21.3790 O   0  0  0  0  0  0  0  0  0  0  0  0
  -21.7990   -6.5450   22.5500 C   0  0  0  0  0  0  0  0  0  0  0  0
  -21.2750   -7.1370   23.7190 C   0  0  0  0  0  3  0  0  0  0  0  0
  -21.0910   -6.3590   24.8800 C   0  0  0  0  0  3  0  0  0  0  0  0
  -21.4200   -4.9900   24.8720 C   0  0  0  0  0  0  0  0  0  0  0  0
  -21.9380   -4.3980   23.7060 C   0  0  0  0  0  3  0  0  0  0  0  0
  -22.1230   -5.1720   22.5470 C   0  0  0  0  0  0  0  0  0  0  0  0
  -22.6020   -4.5920   21.4210 F   0  0  0  0  0  0  0  0  0  0  0  0
  -21.2370   -4.2420   25.9840 F   0  0  0  0  0  0  0  0  0  0  0  0
  -23.1200  -13.8750   21.1840 C   0  0  0  0  0  0  0  0  0  0  0  0
  -22.4090  -13.1810   22.0670 N   0  0  0  0  0  0  0  0  0  0  0  0
  -22.6810  -14.9100   20.6850 O   0  0  0  0  0  0  0  0  0  0  0  0
  -22.7790  -12.3450   22.4910 H   0  0  0  0  0  0  0  0  0  0  0  0
  -21.4830  -13.4930   22.3210 H   0  0  0  0  0  0  0  0  0  0  0  0
  -25.7540  -15.5200   20.3420 N   0  0  0  0  0  0  0  0  0  0  0  0
  -25.0030  -16.1850   20.4950 H   0  0  0  0  0  0  0  0  0  0  0  0
  -26.6060  -15.9560   20.0140 H   0  0  0  0  0  0  0  0  0  0  0  0
  1  3  1  0
  2  1  2  0
  2  4  1  0
  3 10  1  0
  3  5  2  0
  4  6  2  0
  5  8  1  0
  6  5  1  0
  6  7  1  0
  8  9  1  0
 11 12  1  0
 11 10  2  0
 13 24  2  0
 14 12  1  0
 14 19  1  0
 15 23  1  0
 15 25  1  0
 16 22  1  0
 16 18  1  0
 17 23  1  0
 18 17  1  0
 19 18  2  0
 20 21  1  0
 20 14  2  0
 21 16  2  0
 22 15  1  0
 23 13  1  0
 25 27  2  0
 26 25  1  0
 28 26  1  0
 29 38  2  0
 29 34  1  0
 30 26  1  0
 30 34  1  0
 31 30  1  0
 32 33  1  0
 32 31  1  0
 33 29  1  0
 34 35  2  0
 35 36  1  0
 37 36  2  0
 38 37  1  0
 39 13  1  0
 39 40  1  0
 39 49  1  0
 40 43  1  0
 41 45  1  0
 41 40  1  0
 42 41  2  0
 45 44  1  0
 47 45  1  0
 47 48  1  0
 47 46  1  0
 49 52  1  1
 49 50  1  0
 51 49  1  0
 53  4  1  0
 53 54  2  0
 55 54  1  0
 56 61  1  0
 57 58  1  0
 57 56  1  0
 59 58  1  0
 59 66  1  0
 59 60  1  0
 61 55  1  0
 61 60  1  0
 62 55  2  0
 63 64  2  0
 64 83  1  0
 65 64  1  0
 65 68  1  0
 66 67  1  0
 66 63  1  0
 67 65  2  0
 68 69  1  0
 69 70  2  0
 71 74  1  0
 71 70  1  0
 72 71  2  0
 73 72  1  0
 73 68  2  0
 74 75  1  0
 75 76  1  0
 76 77  2  0
 78 77  1  0
 78 82  1  0
 79 78  2  0
 80 75  2  0
 80 79  1  0
 81 80  1  0
 83 84  1  0
 84 87  1  0
 84 86  1  0
 85 83  2  0
 88 63  1  0
 88 89  1  0
 90 88  1  0
M  ISO  4  11 101  12 101  54 100  55 100
M  END
>  <TORSDO>  (82) 
F 21

>  <SCORE>  (82) 
-13.055

>  <name>  (82) 
82

>  <ligand_id>  (82) 
82

>  <original_smiles>  (82) 
[H]Oc1c(F)c(C([H])([H])C([H])([H])C(=O)N2C([H])([H])C([H])([H])C([H])([H])C([H])(n3nc(-c4c([H])c([H])c(Oc5c([H])c([H])c(F)c([H])c5F)c([H])c4[H])c(C(=O)N([H])[H])c3N([H])[H])C2([H])[H])c([H])c([H])c1C([H])([H])C([H])([H])Oc1c([H])c([H])c2c(c1[H])C([H])([H])N(C(=O)C([H])(N([H])C(=O)C([H])(N([H])C([H])([H])[H])C([H])([H])[H])C(C([H])([H])[H])(C([H])([H])[H])C([H])([H])[H])C([H])(C(=O)N([H])C1([H])c3c([H])c([H])c([H])c([H])c3C([H])([H])C([H])([H])C1([H])[H])C2([H])[H]

>  <smiles>  (82) 
[H]Oc1c(F)c(C([H])([H])C([H])([H])C(=O)N2C([H])([H])C([H])([H])C([H])([H])C([H])(n3nc(-c4c([H])c([H])c(Oc5c([H])c([H])c(F)c([H])c5F)c([H])c4[H])c(C(=O)N([H])[H])c3N([H])[H])C2([H])[H])c([H])c([H])c1C([H])([H])C([H])([H])Oc1c([H])c([H])c2c(c1[H])C([H])([H])N(C(=O)C([H])(N([H])C(=O)C([H])(N([H])C([H])([H])[H])C([H])([H])[H])C(C([H])([H])[H])(C([H])([H])[H])C([H])([H])[H])C([H])(C(=O)N([H])C1([H])c3c([H])c([H])c([H])c([H])c3C([H])([H])C([H])([H])C1([H])[H])C2([H])[H]

$$$$
83:0:0
     RDKit          3D

 92100  0  0  1  0  0  0  0  0999 V2000
  -29.1230  -22.2980   21.3980 C   0  0  0  0  0  0  0  0  0  0  0  0
  -29.4630  -23.1390   20.4110 N   0  0  0  0  0  0  0  0  0  0  0  0
  -28.7550  -22.6760   22.5120 O   0  0  0  0  0  0  0  0  0  0  0  0
  -29.7690  -22.7140   19.5470 H   0  0  0  0  0  0  0  0  0  0  0  0
  -29.9600  -19.9860   22.0230 C   0  0  0  0  0  3  0  0  0  0  0  0
  -30.2260  -18.6380   21.7000 C   0  0  0  0  0  3  0  0  0  0  0  0
  -28.8680  -20.2870   19.8740 C   0  0  0  0  0  3  0  0  0  0  0  0
  -29.3210  -20.8360   21.0930 C   0  0  0  0  0  0  0  0  0  0  0  0
  -29.8710  -18.1200   20.4350 C   0  0  0  0  0  0  0  0  0  0  0  0
  -29.1370  -18.9420   19.5410 C   0  0  0  0  0  0  0  0  0  0  0  0
  -28.6520  -18.4170   18.2000 C   0  0  0  0  0  1  0  0  0  0  0  0
  -30.3050  -16.7730   20.0180 C   0  0  0  0  0  3  0  0  0  0  0  0
  -30.4000  -15.6390   20.7490 C   0  0  0  0  0  3  0  0  0  0  0  0
  -31.0290  -14.4960   20.0970 C   0  0  0  0  0  0  0  0  0  0  0  0
  -30.5730  -12.3970   18.9110 C   0  0  0  0  0  2  0  0  0  0  0  0
  -29.5750  -12.6950   17.7740 C   0  0  0  0  0  2  0  0  0  0  0  0
  -28.1270  -12.5730   18.2860 C   0  0  0  0  0  2  0  0  0  0  0  0
  -27.8880  -13.3530   19.6060 C   0  0  0  0  0  3  0  0  0  0  0  0
  -29.0060  -13.0710   20.6360 C   0  0  0  0  0  2  0  0  0  0  0  0
  -30.3020  -13.3500   20.0000 N   0  0  0  0  0  0  0  0  0  0  0  0
  -32.1210  -14.6240   19.5370 O   0  0  0  0  0  0  0  0  0  0  0  0
  -25.5520  -13.9570   20.5030 C   0  0  0  0  0  0  0  0  0  0  0  0
  -24.4960  -13.1830   20.9030 C   0  0  0  0  0  0  0  0  0  0  0  0
  -24.9280  -11.8280   20.7730 C   0  0  0  0  0  0  0  0  0  0  0  0
  -26.5640  -13.0740   20.1590 N   0  0  0  0  0  0  0  0  0  0  0  0
  -26.1940  -11.7840   20.3780 N   0  0  0  0  0  0  0  0  0  0  0  0
  -24.1930  -10.5680   20.9510 C   0  0  0  0  0  0  0  0  0  0  0  0
  -24.6060   -9.5960   21.8870 C   0  0  0  0  0  3  0  0  0  0  0  0
  -23.8730   -8.4010   22.0500 C   0  0  0  0  0  3  0  0  0  0  0  0
  -22.7090   -8.1710   21.2770 C   0  0  0  0  0  0  0  0  0  0  0  0
  -22.3150   -9.1330   20.3290 C   0  0  0  0  0  3  0  0  0  0  0  0
  -23.0500  -10.3180   20.1630 C   0  0  0  0  0  3  0  0  0  0  0  0
  -21.9480   -7.0300   21.3490 O   0  0  0  0  0  0  0  0  0  0  0  0
  -21.7890   -6.3440   22.5270 C   0  0  0  0  0  0  0  0  0  0  0  0
  -21.2130   -6.9450   23.6670 C   0  0  0  0  0  3  0  0  0  0  0  0
  -21.0040   -6.1840   24.8350 C   0  0  0  0  0  3  0  0  0  0  0  0
  -21.3600   -4.8230   24.8610 C   0  0  0  0  0  0  0  0  0  0  0  0
  -21.9270   -4.2200   23.7240 C   0  0  0  0  0  3  0  0  0  0  0  0
  -22.1370   -4.9790   22.5590 C   0  0  0  0  0  0  0  0  0  0  0  0
  -22.6650   -4.3880   21.4600 F   0  0  0  0  0  0  0  0  0  0  0  0
  -21.1520   -4.0890   25.9800 F   0  0  0  0  0  0  0  0  0  0  0  0
  -23.1300  -13.6670   21.2960 C   0  0  0  0  0  0  0  0  0  0  0  0
  -22.4550  -12.9490   22.1870 N   0  0  0  0  0  0  0  0  0  0  0  0
  -22.6700  -14.7170   20.8480 O   0  0  0  0  0  0  0  0  0  0  0  0
  -22.8380  -12.0990   22.5730 H   0  0  0  0  0  0  0  0  0  0  0  0
  -21.5410  -13.2550   22.4890 H   0  0  0  0  0  0  0  0  0  0  0  0
  -25.7320  -15.3320   20.3860 N   0  0  0  0  0  0  0  0  0  0  0  0
  -24.9930  -15.9960   20.5940 H   0  0  0  0  0  0  0  0  0  0  0  0
  -26.5850  -15.7740   20.0640 H   0  0  0  0  0  0  0  0  0  0  0  0
  -29.5170  -24.6010   20.4850 C   0  0  0  0  0  2  0  0  0  0  0  0
  -28.2790  -25.2580   19.8530 C   0  0  0  0  0  2  0  0  0  0  0  0
  -28.3830  -26.6880   19.9030 O   0  0  0  0  0  0  0  0  0  0  0  0
  -24.5600  -31.7360   23.1130 C   0  0  0  0  0  0  0  0  0  0  0  0
  -27.1980  -27.3960   19.8980 C   0  0  0  0  0  0  0  0  0  0  0  0
  -23.3370  -30.3370   21.4820 C   0  0  0  0  0  3  0  0  0  0  0  0
  -24.7790  -28.8560   19.9910 C   0  0  0  0  0  0  0  0  0  0  0  0
  -25.8480  -30.7510   21.2200 C   0  0  0  0  0  2  0  0  0  0  0  0
  -25.9410  -29.3940   20.5550 C   0  0  0  0  0  0  0  0  0  0  0  0
  -27.1550  -28.6720   20.5010 C   0  0  0  0  0  3  0  0  0  0  0  0
  -26.0170  -26.8790   19.3150 C   0  0  0  0  0  3  0  0  0  0  0  0
  -24.8110  -27.6000   19.3650 C   0  0  0  0  0  3  0  0  0  0  0  0
  -23.5210  -29.6880   20.0840 C   0  0  0  0  0  2  0  0  0  0  0  0
  -24.6010  -30.9560   21.9970 N   0  0  0  0  0  0  0  0  0  0  0  0
  -23.4890  -31.9770   23.6860 O   0  0  0  0  0  0  0  0  0  0  0  0
  -22.7350  -29.2850   22.4430 C   0  0  0  0  0  0  0  0  0  0  0  0
  -21.4130  -29.0700   22.3430 N   0  0  0  0  0  0  0  0  0  0  0  0
  -23.4530  -28.6660   23.2320 O   0  0  0  0  0  0  0  0  0  0  0  0
  -20.8940  -29.6270   21.6770 H   0  0  0  0  0  0  0  0  0  0  0  0
  -18.0850  -27.7660   22.8720 C   0  0  0  0  0  0  0  0  0  0  0  0
  -20.6360  -28.1040   23.1170 C   0  0  0  0  0  3  0  0  0  0  0  0
  -20.7760  -26.6790   22.5330 C   0  0  0  0  0  2  0  0  0  0  0  0
  -19.6740  -26.3260   21.5300 C   0  0  0  0  0  2  0  0  0  0  0  0
  -18.2960  -26.4250   22.1900 C   0  0  0  0  0  2  0  0  0  0  0  0
  -19.1840  -28.5610   23.2930 C   0  0  0  0  0  0  0  0  0  0  0  0
  -18.9310  -29.8160   23.8900 C   0  0  0  0  0  3  0  0  0  0  0  0
  -17.6140  -30.2760   24.0710 C   0  0  0  0  0  3  0  0  0  0  0  0
  -16.5300  -29.4780   23.6660 C   0  0  0  0  0  3  0  0  0  0  0  0
  -16.7660  -28.2250   23.0730 C   0  0  0  0  0  3  0  0  0  0  0  0
  -25.8500  -32.3840   23.7070 C   0  0  0  0  0  3  0  0  0  0  0  0
  -26.4480  -31.5750   24.9210 C   0  0  1  0  0  0  0  0  0  0  0  0
  -25.4140  -31.2440   26.0210 C   0  0  0  0  0  1  0  0  0  0  0  0
  -27.0630  -30.2410   24.4360 C   0  0  0  0  0  1  0  0  0  0  0  0
  -27.5960  -32.3810   25.5740 C   0  0  0  0  0  1  0  0  0  0  0  0
  -25.5080  -33.7550   24.1110 N   0  0  0  0  0  0  0  0  0  0  0  0
  -25.7680  -34.8490   23.3840 C   0  0  0  0  0  0  0  0  0  0  0  0
  -26.3930  -34.8140   22.3200 O   0  0  0  0  0  0  0  0  0  0  0  0
  -24.9450  -33.8520   24.9430 H   0  0  0  0  0  0  0  0  0  0  0  0
  -23.9670  -36.5940   23.1790 C   0  0  0  0  0  1  0  0  0  0  0  0
  -25.2520  -36.1980   23.9220 C   0  0  0  0  0  3  0  0  0  0  0  0
  -27.3860  -37.1250   24.7120 C   0  0  0  0  0  1  0  0  0  0  0  0
  -26.2440  -37.2910   23.8170 N   0  0  0  0  0  0  0  0  0  0  0  0
  -25.8110  -38.1890   24.0180 H   0  0  0  0  0  0  0  0  0  0  0  0
  1  3  2  0
  2 50  1  0
  2  1  1  0
  4  2  1  0
  6  5  1  0
  7  8  1  0
  8  1  1  0
  8  5  2  0
  9  6  2  0
 10  7  2  0
 10  9  1  0
 11 10  1  0
 12  9  1  0
 12 13  2  0
 14 13  1  0
 15 20  1  0
 16 17  1  0
 16 15  1  0
 18 17  1  0
 18 25  1  0
 18 19  1  0
 20 14  1  0
 20 19  1  0
 21 14  2  0
 22 23  2  0
 23 42  1  0
 24 23  1  0
 24 27  1  0
 25 26  1  0
 25 22  1  0
 26 24  2  0
 27 28  1  0
 28 29  2  0
 30 33  1  0
 30 29  1  0
 31 30  2  0
 32 31  1  0
 32 27  2  0
 33 34  1  0
 34 39  2  0
 34 35  1  0
 35 36  2  0
 36 37  1  0
 37 41  1  0
 38 37  2  0
 39 38  1  0
 40 39  1  0
 42 43  1  0
 43 46  1  0
 43 45  1  0
 44 42  2  0
 47 22  1  0
 47 48  1  0
 49 47  1  0
 51 52  1  0
 51 50  1  0
 53 64  2  0
 54 52  1  0
 54 59  1  0
 55 63  1  0
 55 65  1  0
 56 62  1  0
 56 58  1  0
 57 63  1  0
 58 57  1  0
 59 58  2  0
 60 61  1  0
 60 54  2  0
 61 56  2  0
 62 55  1  0
 63 53  1  0
 65 67  2  0
 66 65  1  0
 68 66  1  0
 69 78  2  0
 69 74  1  0
 70 66  1  0
 70 74  1  0
 71 70  1  0
 72 73  1  0
 72 71  1  0
 73 69  1  0
 74 75  2  0
 75 76  1  0
 77 76  2  0
 78 77  1  0
 79 53  1  0
 79 84  1  0
 79 80  1  0
 80 83  1  1
 80 81  1  0
 82 80  1  0
 84 87  1  0
 85 89  1  0
 85 84  1  0
 86 85  2  0
 89 88  1  0
 91 89  1  0
 91 92  1  0
 91 90  1  0
M  ISO  4  13 100  14 100  51 101  52 101
M  END
>  <TORSDO>  (83) 
F 20

>  <SCORE>  (83) 
-12.963

>  <name>  (83) 
83

>  <ligand_id>  (83) 
83

>  <original_smiles>  (83) 
[H]C(C(=O)N1C([H])([H])C([H])([H])C([H])([H])C([H])(n2nc(-c3c([H])c([H])c(Oc4c([H])c([H])c(F)c([H])c4F)c([H])c3[H])c(C(=O)N([H])[H])c2N([H])[H])C1([H])[H])=C([H])c1c([H])c([H])c(C(=O)N([H])C([H])([H])C([H])([H])Oc2c([H])c([H])c3c(c2[H])C([H])([H])N(C(=O)C([H])(N([H])C(=O)C([H])(N([H])C([H])([H])[H])C([H])([H])[H])C(C([H])([H])[H])(C([H])([H])[H])C([H])([H])[H])C([H])(C(=O)N([H])C2([H])c4c([H])c([H])c([H])c([H])c4C([H])([H])C([H])([H])C2([H])[H])C3([H])[H])c([H])c1C([H])([H])[H]

>  <smiles>  (83) 
[H]C(C(=O)N1C([H])([H])C([H])([H])C([H])([H])C([H])(n2nc(-c3c([H])c([H])c(Oc4c([H])c([H])c(F)c([H])c4F)c([H])c3[H])c(C(=O)N([H])[H])c2N([H])[H])C1([H])[H])=C([H])c1c([H])c([H])c(C(=O)N([H])C([H])([H])C([H])([H])Oc2c([H])c([H])c3c(c2[H])C([H])([H])N(C(=O)C([H])(N([H])C(=O)C([H])(N([H])C([H])([H])[H])C([H])([H])[H])C(C([H])([H])[H])(C([H])([H])[H])C([H])([H])[H])C([H])(C(=O)N([H])C2([H])c4c([H])c([H])c([H])c([H])c4C([H])([H])C([H])([H])C2([H])[H])C3([H])[H])c([H])c1C([H])([H])[H]

$$$$
84:0:0
     RDKit          3D

 91 99  0  0  1  0  0  0  0  0999 V2000
  -29.8150  -19.9130   21.5320 C   0  0  0  0  0  3  0  0  0  0  0  0
  -29.5780  -21.3400   21.5380 C   0  0  0  0  0  3  0  0  0  0  0  0
  -28.7830  -21.2230   19.3160 C   0  0  0  0  0  3  0  0  0  0  0  0
  -29.5780  -19.0530   20.4130 C   0  0  0  0  0  0  0  0  0  0  0  0
  -29.0890  -22.0880   20.4190 C   0  0  0  0  0  0  0  0  0  0  0  0
  -29.0170  -19.7870   19.3090 C   0  0  0  0  0  0  0  0  0  0  0  0
  -28.7710  -19.1170   18.1580 F   0  0  0  0  0  0  0  0  0  0  0  0
  -29.7390  -16.2760   20.4660 C   0  0  0  0  0  3  0  0  0  0  0  0
  -30.2140  -17.6010   20.3210 C   0  0  0  0  0  0  0  0  0  0  0  0
  -30.5340  -14.9570   20.2860 C   0  0  0  0  0  0  0  0  0  0  0  0
  -30.3440  -12.6290   19.3450 C   0  0  0  0  0  2  0  0  0  0  0  0
  -29.4050  -12.6430   18.1170 C   0  0  0  0  0  2  0  0  0  0  0  0
  -27.9430  -12.4430   18.5570 C   0  0  0  0  0  2  0  0  0  0  0  0
  -27.5570  -13.3520   19.7530 C   0  0  0  0  0  3  0  0  0  0  0  0
  -28.6220  -13.3380   20.8680 C   0  0  0  0  0  2  0  0  0  0  0  0
  -29.9030  -13.7180   20.2620 N   0  0  0  0  0  0  0  0  0  0  0  0
  -31.7340  -14.9480   19.9910 O   0  0  0  0  0  0  0  0  0  0  0  0
  -25.1850  -13.9180   20.5310 C   0  0  0  0  0  0  0  0  0  0  0  0
  -24.1270  -13.1370   20.9060 C   0  0  0  0  0  0  0  0  0  0  0  0
  -24.5930  -11.7880   20.8540 C   0  0  0  0  0  0  0  0  0  0  0  0
  -26.2260  -13.0460   20.2650 N   0  0  0  0  0  0  0  0  0  0  0  0
  -25.8810  -11.7580   20.5270 N   0  0  0  0  0  0  0  0  0  0  0  0
  -23.8720  -10.5200   21.0380 C   0  0  0  0  0  0  0  0  0  0  0  0
  -24.3020   -9.5540   21.9740 C   0  0  0  0  0  3  0  0  0  0  0  0
  -23.5800   -8.3530   22.1460 C   0  0  0  0  0  3  0  0  0  0  0  0
  -22.4130   -8.1110   21.3820 C   0  0  0  0  0  0  0  0  0  0  0  0
  -22.0010   -9.0660   20.4370 C   0  0  0  0  0  3  0  0  0  0  0  0
  -22.7260  -10.2580   20.2630 C   0  0  0  0  0  3  0  0  0  0  0  0
  -21.6630   -6.9620   21.4640 O   0  0  0  0  0  0  0  0  0  0  0  0
  -21.5840   -6.2350   22.6240 C   0  0  0  0  0  0  0  0  0  0  0  0
  -21.0860   -6.7930   23.8210 C   0  0  0  0  0  3  0  0  0  0  0  0
  -20.9580   -5.9900   24.9710 C   0  0  0  0  0  3  0  0  0  0  0  0
  -21.3160   -4.6300   24.9260 C   0  0  0  0  0  0  0  0  0  0  0  0
  -21.8080   -4.0710   23.7330 C   0  0  0  0  0  3  0  0  0  0  0  0
  -21.9380   -4.8700   22.5850 C   0  0  0  0  0  0  0  0  0  0  0  0
  -22.3920   -4.3220   21.4320 F   0  0  0  0  0  0  0  0  0  0  0  0
  -21.1860   -3.8560   26.0280 F   0  0  0  0  0  0  0  0  0  0  0  0
  -22.7330  -13.6080   21.1980 C   0  0  0  0  0  0  0  0  0  0  0  0
  -22.0130  -12.9020   22.0630 N   0  0  0  0  0  0  0  0  0  0  0  0
  -22.2890  -14.6390   20.6950 O   0  0  0  0  0  0  0  0  0  0  0  0
  -22.3830  -12.0690   22.4940 H   0  0  0  0  0  0  0  0  0  0  0  0
  -21.0780  -13.2020   22.3010 H   0  0  0  0  0  0  0  0  0  0  0  0
  -25.3450  -15.2920   20.3680 N   0  0  0  0  0  0  0  0  0  0  0  0
  -24.5810  -15.9460   20.4970 H   0  0  0  0  0  0  0  0  0  0  0  0
  -26.1880  -15.7300   20.0200 H   0  0  0  0  0  0  0  0  0  0  0  0
  -31.5130  -17.7680   20.0300 O   0  0  0  0  0  0  0  0  0  0  0  0
  -31.6790  -18.7020   19.9890 H   0  0  0  0  0  0  0  0  0  0  0  0
  -30.3330  -24.0670   19.3760 C   0  0  0  0  0  1  0  0  0  0  0  0
  -29.2080  -23.7240   20.3650 C   0  0  0  0  0  3  0  0  0  0  0  0
  -28.0030  -24.8280   20.1360 C   0  0  0  0  0  2  0  0  0  0  0  0
  -28.2410  -26.3430   20.2620 O   0  0  0  0  0  0  0  0  0  0  0  0
  -24.6100  -31.9530   23.2600 C   0  0  0  0  0  0  0  0  0  0  0  0
  -27.1620  -27.2790   20.2090 C   0  0  0  0  0  0  0  0  0  0  0  0
  -23.3960  -30.5650   21.6240 C   0  0  0  0  0  3  0  0  0  0  0  0
  -24.8300  -28.9910   20.1930 C   0  0  0  0  0  0  0  0  0  0  0  0
  -25.9460  -30.8370   21.4410 C   0  0  0  0  0  2  0  0  0  0  0  0
  -26.0120  -29.4490   20.7900 C   0  0  0  0  0  0  0  0  0  0  0  0
  -27.1800  -28.6080   20.7800 C   0  0  0  0  0  3  0  0  0  0  0  0
  -25.9520  -26.9050   19.5840 C   0  0  0  0  0  3  0  0  0  0  0  0
  -24.8090  -27.7310   19.5770 C   0  0  0  0  0  3  0  0  0  0  0  0
  -23.6060  -29.8880   20.2440 C   0  0  0  0  0  2  0  0  0  0  0  0
  -24.6700  -31.1380   22.1630 N   0  0  0  0  0  0  0  0  0  0  0  0
  -23.5280  -32.2400   23.7940 O   0  0  0  0  0  0  0  0  0  0  0  0
  -22.7210  -29.5570   22.5870 C   0  0  0  0  0  0  0  0  0  0  0  0
  -21.3950  -29.3820   22.4560 N   0  0  0  0  0  0  0  0  0  0  0  0
  -23.3920  -28.9360   23.4150 O   0  0  0  0  0  0  0  0  0  0  0  0
  -20.9110  -29.9330   21.7610 H   0  0  0  0  0  0  0  0  0  0  0  0
  -18.0110  -28.1910   22.9590 C   0  0  0  0  0  0  0  0  0  0  0  0
  -20.5710  -28.4480   23.2280 C   0  0  0  0  0  3  0  0  0  0  0  0
  -20.6700  -27.0150   22.6550 C   0  0  0  0  0  2  0  0  0  0  0  0
  -19.5670  -26.6930   21.6410 C   0  0  0  0  0  2  0  0  0  0  0  0
  -18.1850  -26.8410   22.2840 C   0  0  0  0  0  2  0  0  0  0  0  0
  -19.1310  -28.9520   23.3880 C   0  0  0  0  0  0  0  0  0  0  0  0
  -18.9140  -30.2150   23.9810 C   0  0  0  0  0  3  0  0  0  0  0  0
  -17.6100  -30.7170   24.1470 C   0  0  0  0  0  3  0  0  0  0  0  0
  -16.5050  -29.9540   23.7330 C   0  0  0  0  0  3  0  0  0  0  0  0
  -16.7060  -28.6920   23.1460 C   0  0  0  0  0  3  0  0  0  0  0  0
  -25.8950  -32.5810   23.8810 C   0  0  0  0  0  3  0  0  0  0  0  0
  -26.4090  -31.8080   25.1580 C   0  0  1  0  0  0  0  0  0  0  0  0
  -25.3130  -31.5740   26.2250 C   0  0  0  0  0  1  0  0  0  0  0  0
  -26.9870  -30.4270   24.7690 C   0  0  0  0  0  1  0  0  0  0  0  0
  -27.5630  -32.5970   25.8200 C   0  0  0  0  0  1  0  0  0  0  0  0
  -25.5920  -33.9800   24.2160 N   0  0  0  0  0  0  0  0  0  0  0  0
  -25.9070  -35.0340   23.4510 C   0  0  0  0  0  0  0  0  0  0  0  0
  -26.5510  -34.9300   22.4040 O   0  0  0  0  0  0  0  0  0  0  0  0
  -25.0160  -34.1340   25.0310 H   0  0  0  0  0  0  0  0  0  0  0  0
  -24.1660  -36.8260   23.1510 C   0  0  0  0  0  1  0  0  0  0  0  0
  -25.4330  -36.4240   23.9220 C   0  0  0  0  0  3  0  0  0  0  0  0
  -27.5890  -37.3170   24.6860 C   0  0  0  0  0  1  0  0  0  0  0  0
  -26.4610  -37.4780   23.7730 N   0  0  0  0  0  0  0  0  0  0  0  0
  -26.0580  -38.3980   23.9270 H   0  0  0  0  0  0  0  0  0  0  0  0
  1  2  1  0
  3  5  1  0
  4  1  2  0
  5  2  2  0
  6  3  2  0
  6  4  1  0
  7  6  1  0
  9  4  1  0
  9  8  2  0
 10  8  1  0
 11 16  1  0
 12 13  1  0
 12 11  1  0
 14 13  1  0
 14 21  1  0
 14 15  1  0
 16 10  1  0
 16 15  1  0
 17 10  2  0
 18 19  2  0
 19 38  1  0
 20 19  1  0
 20 23  1  0
 21 22  1  0
 21 18  1  0
 22 20  2  0
 23 24  1  0
 24 25  2  0
 26 29  1  0
 26 25  1  0
 27 26  2  0
 28 27  1  0
 28 23  2  0
 29 30  1  0
 30 31  1  0
 31 32  2  0
 33 32  1  0
 33 37  1  0
 34 33  2  0
 35 30  2  0
 35 34  1  0
 36 35  1  0
 38 39  1  0
 39 42  1  0
 39 41  1  0
 40 38  2  0
 43 44  1  0
 43 18  1  0
 45 43  1  0
 46  9  1  0
 47 46  1  0
 49 48  1  0
 49  5  1  0
 50 51  1  0
 50 49  1  0
 52 63  2  0
 53 51  1  0
 53 58  1  0
 54 62  1  0
 54 64  1  0
 55 61  1  0
 55 57  1  0
 56 62  1  0
 57 56  1  0
 58 57  2  0
 59 53  2  0
 60 59  1  0
 60 55  2  0
 61 54  1  0
 62 52  1  0
 64 66  2  0
 65 64  1  0
 67 65  1  0
 68 77  2  0
 68 73  1  0
 69 65  1  0
 69 73  1  0
 70 69  1  0
 71 72  1  0
 71 70  1  0
 72 68  1  0
 73 74  2  0
 74 75  1  0
 76 75  2  0
 77 76  1  0
 78 52  1  0
 78 83  1  0
 78 79  1  0
 79 82  1  1
 79 80  1  0
 81 79  1  0
 83 86  1  0
 84 88  1  0
 84 83  1  0
 85 84  2  0
 88 87  1  0
 90 88  1  0
 90 91  1  0
 90 89  1  0
M  ISO  4   8 100  10 100  50 101  51 101
M  END
>  <TORSDO>  (84) 
F 20

>  <SCORE>  (84) 
-13.993

>  <name>  (84) 
84

>  <ligand_id>  (84) 
84

>  <original_smiles>  (84) 
[H]OC(=C([H])C(=O)N1C([H])([H])C([H])([H])C([H])([H])C([H])(n2nc(-c3c([H])c([H])c(Oc4c([H])c([H])c(F)c([H])c4F)c([H])c3[H])c(C(=O)N([H])[H])c2N([H])[H])C1([H])[H])c1c([H])c([H])c(C([H])(C([H])([H])[H])C([H])([H])Oc2c([H])c([H])c3c(c2[H])C([H])([H])N(C(=O)C([H])(N([H])C(=O)C([H])(N([H])C([H])([H])[H])C([H])([H])[H])C(C([H])([H])[H])(C([H])([H])[H])C([H])([H])[H])C([H])(C(=O)N([H])C2([H])c4c([H])c([H])c([H])c([H])c4C([H])([H])C([H])([H])C2([H])[H])C3([H])[H])c([H])c1F

>  <smiles>  (84) 
[H]OC(=C([H])C(=O)N1C([H])([H])C([H])([H])C([H])([H])C([H])(n2nc(-c3c([H])c([H])c(Oc4c([H])c([H])c(F)c([H])c4F)c([H])c3[H])c(C(=O)N([H])[H])c2N([H])[H])C1([H])[H])c1c([H])c([H])c(C([H])(C([H])([H])[H])C([H])([H])Oc2c([H])c([H])c3c(c2[H])C([H])([H])N(C(=O)C([H])(N([H])C(=O)C([H])(N([H])C([H])([H])[H])C([H])([H])[H])C(C([H])([H])[H])(C([H])([H])[H])C([H])([H])[H])C([H])(C(=O)N([H])C2([H])c4c([H])c([H])c([H])c([H])c4C([H])([H])C([H])([H])C2([H])[H])C3([H])[H])c([H])c1F

$$$$
85:0:0
     RDKit          3D

 96105  0  0  1  0  0  0  0  0999 V2000
  -28.3000  -23.3580   21.9930 C   0  0  0  0  0  3  0  0  0  0  0  0
  -27.4260  -23.7830   20.9910 C   0  0  0  0  0  3  0  0  0  0  0  0
  -28.9680  -21.5150   20.6030 C   0  0  0  0  0  3  0  0  0  0  0  0
  -29.0970  -22.2320   21.8020 C   0  0  0  0  0  0  0  0  0  0  0  0
  -27.2230  -23.1630   19.7230 C   0  0  0  0  0  0  0  0  0  0  0  0
  -28.1200  -21.8390   19.5070 C   0  0  0  0  0  0  0  0  0  0  0  0
  -30.0510  -21.8240   22.8730 C   0  0  0  0  0  0  0  0  0  0  0  0
  -29.6790  -21.4060   23.9740 O   0  0  0  0  0  0  0  0  0  0  0  0
  -31.5510  -22.0010   22.5810 C   0  0  0  0  0  2  0  0  0  0  0  0
  -33.1780  -20.2010   23.4680 C   0  0  0  0  0  1  0  0  0  0  0  0
  -32.4930  -21.5520   23.7190 C   0  0  0  0  0  2  0  0  0  0  0  0
  -28.6730  -20.6270   18.3750 C   0  0  0  0  0  2  0  0  0  0  0  0
  -27.1800  -18.6430   16.6970 C   0  0  0  0  0  2  0  0  0  0  0  0
  -28.6560  -18.2990   16.8940 C   0  0  0  0  0  2  0  0  0  0  0  0
  -27.0490  -18.3890   18.1950 C   0  0  0  0  0  2  0  0  0  0  0  0
  -28.5340  -18.7990   18.3550 C   0  0  2  0  0  0  0  0  0  0  0  0
  -30.1080  -16.3710   19.2480 C   0  0  0  0  0  0  0  0  0  0  0  0
  -30.4840  -13.8100   18.9440 C   0  0  0  0  0  2  0  0  0  0  0  0
  -29.5990  -13.2100   17.8180 C   0  0  0  0  0  2  0  0  0  0  0  0
  -28.2210  -12.8090   18.3690 C   0  0  0  0  0  2  0  0  0  0  0  0
  -27.6350  -13.9040   19.2940 C   0  0  0  0  0  3  0  0  0  0  0  0
  -28.6550  -14.4550   20.3190 C   0  0  0  0  0  2  0  0  0  0  0  0
  -29.7870  -15.0100   19.5560 N   0  0  0  0  0  0  0  0  0  0  0  0
  -31.2640  -16.4830   18.8130 O   0  0  0  0  0  0  0  0  0  0  0  0
  -29.1770  -17.5420   19.2960 N   0  0  0  0  0  0  0  0  0  0  0  0
  -28.4780  -17.3020   19.9850 H   0  0  0  0  0  0  0  0  0  0  0  0
  -25.3250  -14.2990   20.2920 C   0  0  0  0  0  0  0  0  0  0  0  0
  -24.3480  -13.4530   20.7360 C   0  0  0  0  0  0  0  0  0  0  0  0
  -24.8820  -12.1330   20.6110 C   0  0  0  0  0  0  0  0  0  0  0  0
  -26.3840  -13.4930   19.9160 N   0  0  0  0  0  0  0  0  0  0  0  0
  -26.1370  -12.1820   20.1740 N   0  0  0  0  0  0  0  0  0  0  0  0
  -24.2450  -10.8260   20.8280 C   0  0  0  0  0  0  0  0  0  0  0  0
  -24.8040   -9.8650   21.6970 C   0  0  0  0  0  3  0  0  0  0  0  0
  -24.1600   -8.6260   21.9070 C   0  0  0  0  0  3  0  0  0  0  0  0
  -22.9400   -8.3410   21.2480 C   0  0  0  0  0  0  0  0  0  0  0  0
  -22.3990   -9.2930   20.3650 C   0  0  0  0  0  3  0  0  0  0  0  0
  -23.0440  -10.5220   20.1540 C   0  0  0  0  0  3  0  0  0  0  0  0
  -22.2560   -7.1550   21.3700 O   0  0  0  0  0  0  0  0  0  0  0  0
  -22.0930   -6.5400   22.5850 C   0  0  0  0  0  0  0  0  0  0  0  0
  -21.4570   -7.1870   23.6670 C   0  0  0  0  0  3  0  0  0  0  0  0
  -21.2480   -6.4930   24.8760 C   0  0  0  0  0  3  0  0  0  0  0  0
  -21.6650   -5.1550   25.0030 C   0  0  0  0  0  0  0  0  0  0  0  0
  -22.2950   -4.5080   23.9240 C   0  0  0  0  0  3  0  0  0  0  0  0
  -22.5050   -5.1990   22.7180 C   0  0  0  0  0  0  0  0  0  0  0  0
  -23.0920   -4.5650   21.6750 F   0  0  0  0  0  0  0  0  0  0  0  0
  -21.4590   -4.4860   26.1610 F   0  0  0  0  0  0  0  0  0  0  0  0
  -22.9620  -13.8430   21.1550 C   0  0  0  0  0  0  0  0  0  0  0  0
  -22.3870  -13.1250   22.1130 N   0  0  0  0  0  0  0  0  0  0  0  0
  -22.3990  -14.8230   20.6680 O   0  0  0  0  0  0  0  0  0  0  0  0
  -22.8580  -12.3330   22.5250 H   0  0  0  0  0  0  0  0  0  0  0  0
  -21.4620  -13.3690   22.4380 H   0  0  0  0  0  0  0  0  0  0  0  0
  -25.3920  -15.6810   20.1490 N   0  0  0  0  0  0  0  0  0  0  0  0
  -24.5980  -16.2800   20.3510 H   0  0  0  0  0  0  0  0  0  0  0  0
  -26.1690  -16.1740   19.7340 H   0  0  0  0  0  0  0  0  0  0  0  0
  -25.9940  -24.2030   19.0230 C   0  0  0  0  0  2  0  0  0  0  0  0
  -25.8660  -25.7980   18.5120 O   0  0  0  0  0  0  0  0  0  0  0  0
  -25.4200  -31.2050   23.7610 C   0  0  0  0  0  0  0  0  0  0  0  0
  -25.2720  -27.0850   19.0050 C   0  0  0  0  0  0  0  0  0  0  0  0
  -23.4540  -30.8130   22.3280 C   0  0  0  0  0  3  0  0  0  0  0  0
  -23.8500  -29.4360   20.1660 C   0  0  0  0  0  0  0  0  0  0  0  0
  -25.8110  -30.3530   21.3930 C   0  0  0  0  0  2  0  0  0  0  0  0
  -25.2130  -29.2740   20.4400 C   0  0  0  0  0  0  0  0  0  0  0  0
  -25.9130  -28.1280   19.8460 C   0  0  0  0  0  3  0  0  0  0  0  0
  -23.9270  -27.4190   18.7230 C   0  0  0  0  0  3  0  0  0  0  0  0
  -23.2360  -28.5270   19.2860 C   0  0  0  0  0  3  0  0  0  0  0  0
  -23.0910  -30.5840   20.8320 C   0  0  0  0  0  2  0  0  0  0  0  0
  -24.9370  -30.7920   22.5420 N   0  0  0  0  0  0  0  0  0  0  0  0
  -24.6620  -31.5890   24.6670 O   0  0  0  0  0  0  0  0  0  0  0  0
  -22.6990  -29.7830   23.2100 C   0  0  0  0  0  0  0  0  0  0  0  0
  -21.3660  -29.6820   23.0500 N   0  0  0  0  0  0  0  0  0  0  0  0
  -23.3210  -29.0770   24.0070 O   0  0  0  0  0  0  0  0  0  0  0  0
  -20.9180  -30.3050   22.3920 H   0  0  0  0  0  0  0  0  0  0  0  0
  -18.0720  -28.1640   23.0130 C   0  0  0  0  0  0  0  0  0  0  0  0
  -20.4920  -28.7250   23.7370 C   0  0  0  0  0  3  0  0  0  0  0  0
  -20.8350  -27.2710   23.3340 C   0  0  0  0  0  2  0  0  0  0  0  0
  -19.9940  -26.7550   22.1630 C   0  0  0  0  0  2  0  0  0  0  0  0
  -18.5030  -26.7960   22.5130 C   0  0  0  0  0  2  0  0  0  0  0  0
  -19.0070  -29.0740   23.5730 C   0  0  0  0  0  0  0  0  0  0  0  0
  -18.5550  -30.3450   23.9940 C   0  0  0  0  0  3  0  0  0  0  0  0
  -17.2010  -30.7060   23.8660 C   0  0  0  0  0  3  0  0  0  0  0  0
  -16.2780  -29.7960   23.3220 C   0  0  0  0  0  3  0  0  0  0  0  0
  -16.7130  -28.5270   22.9010 C   0  0  0  0  0  3  0  0  0  0  0  0
  -26.9470  -31.2320   24.0700 C   0  0  0  0  0  3  0  0  0  0  0  0
  -27.2300  -32.4360   24.8730 N   0  0  0  0  0  0  0  0  0  0  0  0
  -27.9620  -33.4800   24.4620 C   0  0  0  0  0  0  0  0  0  0  0  0
  -28.5280  -33.5050   23.3660 O   0  0  0  0  0  0  0  0  0  0  0  0
  -26.7530  -32.5070   25.7590 H   0  0  0  0  0  0  0  0  0  0  0  0
  -27.2010  -35.8380   24.9150 C   0  0  0  0  0  1  0  0  0  0  0  0
  -28.0890  -34.6870   25.4140 C   0  0  0  0  0  3  0  0  0  0  0  0
  -30.3350  -34.2410   26.3090 C   0  0  0  0  0  1  0  0  0  0  0  0
  -29.4800  -35.1690   25.5730 N   0  0  0  0  0  0  0  0  0  0  0  0
  -29.4970  -36.0640   26.0550 H   0  0  0  0  0  0  0  0  0  0  0  0
  -27.4460  -29.9440   24.8350 C   0  0  1  0  0  0  0  0  0  0  0  0
  -26.6180  -29.6080   26.0980 C   0  0  0  0  0  1  0  0  0  0  0  0
  -27.4100  -28.7050   23.9110 C   0  0  0  0  0  1  0  0  0  0  0  0
  -28.9210  -30.1280   25.2660 C   0  0  0  0  0  1  0  0  0  0  0  0
  2  1  2  0
  3  4  2  0
  4  1  1  0
  4  7  1  0
  5  2  1  0
  6  5  2  0
  6  3  1  0
  7  8  2  0
  9  7  1  0
  9 11  1  0
 10 11  1  0
 12  6  1  0
 13 14  1  0
 13 15  1  0
 14 16  1  0
 15 16  1  0
 16 12  1  6
 16 25  1  0
 17 25  1  0
 17 23  1  0
 18 23  1  0
 19 20  1  0
 19 18  1  0
 21 20  1  0
 21 30  1  0
 21 22  1  0
 23 22  1  0
 24 17  2  0
 25 26  1  0
 27 28  2  0
 28 47  1  0
 29 28  1  0
 29 32  1  0
 30 31  1  0
 30 27  1  0
 31 29  2  0
 32 33  1  0
 33 34  2  0
 35 38  1  0
 35 34  1  0
 36 35  2  0
 37 36  1  0
 37 32  2  0
 38 39  1  0
 39 44  2  0
 39 40  1  0
 40 41  2  0
 41 42  1  0
 42 46  1  0
 43 42  2  0
 44 43  1  0
 45 44  1  0
 47 48  1  0
 48 51  1  0
 48 50  1  0
 49 47  2  0
 52 27  1  0
 52 53  1  0
 54 52  1  0
 55  5  1  0
 56 58  1  0
 56 55  1  0
 57 68  2  0
 58 63  1  0
 59 67  1  0
 59 69  1  0
 60 62  1  0
 60 66  1  0
 61 67  1  0
 62 61  1  0
 63 62  2  0
 64 58  2  0
 64 65  1  0
 65 60  2  0
 66 59  1  0
 67 57  1  0
 69 71  2  0
 70 69  1  0
 72 70  1  0
 73 78  1  0
 74 70  1  0
 75 74  1  0
 76 77  1  0
 76 75  1  0
 77 73  1  0
 78 74  1  0
 78 79  2  0
 80 79  1  0
 81 80  2  0
 82 73  2  0
 82 81  1  0
 83 57  1  0
 83 93  1  0
 83 84  1  0
 84 87  1  0
 85 84  1  0
 85 89  1  0
 86 85  2  0
 89 88  1  0
 89 91  1  0
 91 92  1  0
 91 90  1  0
 93 96  1  1
 93 94  1  0
 95 93  1  0
M  ISO  4  17 100  25 100  55 101  56 101
M  END
>  <TORSDO>  (85) 
F 22

>  <SCORE>  (85) 
-10.931

>  <name>  (85) 
85

>  <ligand_id>  (85) 
85

>  <original_smiles>  (85) 
[H]c1c([H])c([H])c2c(c1[H])C([H])([H])C([H])([H])C([H])([H])C2([H])N([H])C(=O)C1([H])N(C(=O)C([H])(N([H])C(=O)C([H])(N([H])C([H])([H])[H])C([H])([H])[H])C(C([H])([H])[H])(C([H])([H])[H])C([H])([H])[H])C([H])([H])c2c([H])c(OC([H])([H])c3c([H])c([H])c(C(=O)C([H])([H])C([H])([H])C([H])([H])[H])c([H])c3C([H])([H])C3(N([H])C(=O)N4C([H])([H])C([H])([H])C([H])([H])C([H])(n5nc(-c6c([H])c([H])c(Oc7c([H])c([H])c(F)c([H])c7F)c([H])c6[H])c(C(=O)N([H])[H])c5N([H])[H])C4([H])[H])C([H])([H])C([H])([H])C3([H])[H])c([H])c([H])c2C1([H])[H]

>  <smiles>  (85) 
[H]c1c([H])c([H])c2c(c1[H])C([H])([H])C([H])([H])C([H])([H])C2([H])N([H])C(=O)C1([H])N(C(=O)C([H])(N([H])C(=O)C([H])(N([H])C([H])([H])[H])C([H])([H])[H])C(C([H])([H])[H])(C([H])([H])[H])C([H])([H])[H])C([H])([H])c2c([H])c(OC([H])([H])c3c([H])c([H])c(C(=O)C([H])([H])C([H])([H])C([H])([H])[H])c([H])c3C([H])([H])C3(N([H])C(=O)N4C([H])([H])C([H])([H])C([H])([H])C([H])(n5nc(-c6c([H])c([H])c(Oc7c([H])c([H])c(F)c([H])c7F)c([H])c6[H])c(C(=O)N([H])[H])c5N([H])[H])C4([H])[H])C([H])([H])C([H])([H])C3([H])[H])c([H])c([H])c2C1([H])[H]

$$$$
86:0:0
     RDKit          3D

 96105  0  0  1  0  0  0  0  0999 V2000
  -31.1580  -23.0580   19.4710 C   0  0  0  0  0  2  0  0  0  0  0  0
  -30.7310  -23.8550   21.8210 C   0  0  0  0  0  2  0  0  0  0  0  0
  -31.2710  -24.5220   19.0230 C   0  0  0  0  0  2  0  0  0  0  0  0
  -30.8640  -25.3030   21.3190 C   0  0  0  0  0  2  0  0  0  0  0  0
  -31.5560  -22.8900   20.9460 C   0  0  0  0  0  3  0  0  0  0  0  0
  -30.4580  -25.4110   19.8910 N   0  0  1  0  0  4  0  0  0  0  0  0
  -29.5030  -25.0820   19.8220 H   0  0  0  0  0  0  0  0  0  0  0  0
  -32.3710  -19.1570   21.1870 C   0  0  0  0  0  3  0  0  0  0  0  0
  -30.2770  -19.5440   22.3720 C   0  0  0  0  0  3  0  0  0  0  0  0
  -32.4700  -20.5350   20.9170 C   0  0  0  0  0  3  0  0  0  0  0  0
  -30.3700  -20.9200   22.0910 C   0  0  0  0  0  3  0  0  0  0  0  0
  -31.2570  -18.6480   21.8910 C   0  0  0  0  0  0  0  0  0  0  0  0
  -31.4640  -21.4240   21.3520 C   0  0  0  0  0  0  0  0  0  0  0  0
  -31.1050  -17.1950   22.1560 C   0  0  0  0  0  0  0  0  0  0  0  0
  -30.6370  -16.7430   23.2060 O   0  0  0  0  0  0  0  0  0  0  0  0
  -31.4600  -16.2390   21.0180 C   0  0  0  0  0  2  0  0  0  0  0  0
  -30.3710  -15.1630   20.8300 C   0  0  0  0  0  2  0  0  0  0  0  0
  -30.5750  -14.2840   19.5900 C   0  0  0  0  0  0  0  0  0  0  0  0
  -30.0790  -12.1590   18.4290 C   0  0  0  0  0  2  0  0  0  0  0  0
  -28.9890  -12.2960   17.3550 C   0  0  0  0  0  2  0  0  0  0  0  0
  -27.5890  -12.1490   17.9780 C   0  0  0  0  0  2  0  0  0  0  0  0
  -27.3980  -13.0540   19.2230 C   0  0  0  0  0  3  0  0  0  0  0  0
  -28.5790  -12.8900   20.2060 C   0  0  0  0  0  2  0  0  0  0  0  0
  -29.8310  -13.1570   19.4750 N   0  0  0  0  0  0  0  0  0  0  0  0
  -31.4490  -14.5890   18.7720 O   0  0  0  0  0  0  0  0  0  0  0  0
  -25.1240  -13.6960   20.2530 C   0  0  0  0  0  0  0  0  0  0  0  0
  -24.1000  -12.9340   20.7500 C   0  0  0  0  0  0  0  0  0  0  0  0
  -24.5260  -11.5760   20.6360 C   0  0  0  0  0  0  0  0  0  0  0  0
  -26.1140  -12.8000   19.8730 N   0  0  0  0  0  0  0  0  0  0  0  0
  -25.7620  -11.5190   20.1560 N   0  0  0  0  0  0  0  0  0  0  0  0
  -23.8090  -10.3230   20.9040 C   0  0  0  0  0  0  0  0  0  0  0  0
  -24.2600   -9.4090   21.8820 C   0  0  0  0  0  3  0  0  0  0  0  0
  -23.5450   -8.2180   22.1340 C   0  0  0  0  0  3  0  0  0  0  0  0
  -22.3640   -7.9340   21.4070 C   0  0  0  0  0  0  0  0  0  0  0  0
  -21.9320   -8.8360   20.4180 C   0  0  0  0  0  3  0  0  0  0  0  0
  -22.6490  -10.0170   20.1650 C   0  0  0  0  0  3  0  0  0  0  0  0
  -21.6180   -6.7900   21.5640 O   0  0  0  0  0  0  0  0  0  0  0  0
  -21.5070   -6.1650   22.7800 C   0  0  0  0  0  0  0  0  0  0  0  0
  -20.9640   -6.8190   23.9070 C   0  0  0  0  0  3  0  0  0  0  0  0
  -20.8050   -6.1180   25.1200 C   0  0  0  0  0  3  0  0  0  0  0  0
  -21.1790   -4.7640   25.2040 C   0  0  0  0  0  0  0  0  0  0  0  0
  -21.7140   -4.1080   24.0810 C   0  0  0  0  0  3  0  0  0  0  0  0
  -21.8750   -4.8080   22.8710 C   0  0  0  0  0  0  0  0  0  0  0  0
  -22.3730   -4.1670   21.7860 F   0  0  0  0  0  0  0  0  0  0  0  0
  -21.0180   -4.0860   26.3650 F   0  0  0  0  0  0  0  0  0  0  0  0
  -22.7620  -13.4290   21.2180 C   0  0  0  0  0  0  0  0  0  0  0  0
  -22.1620  -12.7490   22.1900 N   0  0  0  0  0  0  0  0  0  0  0  0
  -22.2610  -14.4540   20.7570 O   0  0  0  0  0  0  0  0  0  0  0  0
  -22.5830  -11.9200   22.5820 H   0  0  0  0  0  0  0  0  0  0  0  0
  -21.2700  -13.0630   22.5460 H   0  0  0  0  0  0  0  0  0  0  0  0
  -25.2900  -15.0650   20.0760 N   0  0  0  0  0  0  0  0  0  0  0  0
  -24.5600  -15.7340   20.2970 H   0  0  0  0  0  0  0  0  0  0  0  0
  -26.1060  -15.4940   19.6570 H   0  0  0  0  0  0  0  0  0  0  0  0
  -30.4180  -26.8050   19.3870 C   0  0  0  0  0  2  0  0  0  0  0  0
  -29.2800  -27.6070   20.0270 C   0  0  0  0  0  2  0  0  0  0  0  0
  -28.0400  -26.9710   19.7090 O   0  0  0  0  0  0  0  0  0  0  0  0
  -24.3840  -32.0050   23.2260 C   0  0  0  0  0  0  0  0  0  0  0  0
  -26.8920  -27.7150   19.8700 C   0  0  0  0  0  0  0  0  0  0  0  0
  -23.0970  -30.6790   21.5740 C   0  0  0  0  0  3  0  0  0  0  0  0
  -24.4820  -29.1830   20.0420 C   0  0  0  0  0  0  0  0  0  0  0  0
  -25.6060  -31.0410   21.2880 C   0  0  0  0  0  2  0  0  0  0  0  0
  -25.6570  -29.6940   20.6040 C   0  0  0  0  0  0  0  0  0  0  0  0
  -26.8580  -28.9660   20.5290 C   0  0  0  0  0  3  0  0  0  0  0  0
  -25.6970  -27.1990   19.3270 C   0  0  0  0  0  3  0  0  0  0  0  0
  -24.4910  -27.9280   19.4070 C   0  0  0  0  0  3  0  0  0  0  0  0
  -23.2450  -30.0430   20.1650 C   0  0  0  0  0  2  0  0  0  0  0  0
  -24.3820  -31.2530   22.0900 N   0  0  0  0  0  0  0  0  0  0  0  0
  -23.3290  -32.2650   23.8210 O   0  0  0  0  0  0  0  0  0  0  0  0
  -22.4740  -29.6280   22.5210 C   0  0  0  0  0  0  0  0  0  0  0  0
  -21.1470  -29.4540   22.4240 N   0  0  0  0  0  0  0  0  0  0  0  0
  -23.1810  -28.9740   23.2920 O   0  0  0  0  0  0  0  0  0  0  0  0
  -20.6400  -30.0350   21.7720 H   0  0  0  0  0  0  0  0  0  0  0  0
  -17.7800  -28.2850   22.9960 C   0  0  0  0  0  0  0  0  0  0  0  0
  -20.3490  -28.4940   23.1840 C   0  0  0  0  0  3  0  0  0  0  0  0
  -20.4090  -27.0890   22.5410 C   0  0  0  0  0  2  0  0  0  0  0  0
  -19.2650  -26.8280   21.5560 C   0  0  0  0  0  2  0  0  0  0  0  0
  -17.9100  -26.9640   22.2580 C   0  0  0  0  0  2  0  0  0  0  0  0
  -18.9260  -29.0110   23.4180 C   0  0  0  0  0  0  0  0  0  0  0  0
  -18.7490  -30.2510   24.0680 C   0  0  0  0  0  3  0  0  0  0  0  0
  -17.4600  -30.7650   24.3030 C   0  0  0  0  0  3  0  0  0  0  0  0
  -16.3290  -30.0330   23.9000 C   0  0  0  0  0  3  0  0  0  0  0  0
  -16.4900  -28.7960   23.2520 C   0  0  0  0  0  3  0  0  0  0  0  0
  -25.7040  -32.5940   23.8200 C   0  0  0  0  0  3  0  0  0  0  0  0
  -25.4310  -33.9810   24.2120 N   0  0  0  0  0  0  0  0  0  0  0  0
  -25.7850  -35.0570   23.4940 C   0  0  0  0  0  0  0  0  0  0  0  0
  -26.4480  -34.9810   22.4560 O   0  0  0  0  0  0  0  0  0  0  0  0
  -24.8450  -34.1170   25.0230 H   0  0  0  0  0  0  0  0  0  0  0  0
  -24.1060  -36.9060   23.2120 C   0  0  0  0  0  1  0  0  0  0  0  0
  -25.3310  -36.4350   24.0110 C   0  0  0  0  0  3  0  0  0  0  0  0
  -27.4820  -37.2230   24.8930 C   0  0  0  0  0  1  0  0  0  0  0  0
  -26.3910  -37.4630   23.9520 N   0  0  0  0  0  0  0  0  0  0  0  0
  -26.0090  -38.3870   24.1400 H   0  0  0  0  0  0  0  0  0  0  0  0
  -26.2620  -31.7640   25.0420 C   0  0  1  0  0  0  0  0  0  0  0  0
  -25.1960  -31.4520   26.1180 C   0  0  0  0  0  1  0  0  0  0  0  0
  -26.8570  -30.4220   24.5610 C   0  0  0  0  0  1  0  0  0  0  0  0
  -27.4130  -32.5430   25.7220 C   0  0  0  0  0  1  0  0  0  0  0  0
  1  5  1  0
  3  1  1  0
  3  6  1  0
  4  2  1  0
  5 13  1  0
  5  2  1  0
  6  4  1  0
  6  7  1  1
  8 12  1  0
 10  8  2  0
 10 13  1  0
 11  9  1  0
 12 14  1  0
 12  9  2  0
 13 11  2  0
 14 15  2  0
 16 14  1  0
 17 16  1  0
 18 17  1  0
 19 24  1  0
 20 21  1  0
 20 19  1  0
 22 21  1  0
 22 29  1  0
 22 23  1  0
 24 18  1  0
 24 23  1  0
 25 18  2  0
 26 27  2  0
 27 46  1  0
 28 27  1  0
 28 31  1  0
 29 30  1  0
 29 26  1  0
 30 28  2  0
 31 32  1  0
 32 33  2  0
 34 37  1  0
 34 33  1  0
 35 34  2  0
 36 35  1  0
 36 31  2  0
 37 38  1  0
 38 43  2  0
 38 39  1  0
 39 40  2  0
 40 41  1  0
 41 45  1  0
 42 41  2  0
 43 42  1  0
 44 43  1  0
 46 47  1  0
 47 50  1  0
 47 49  1  0
 48 46  2  0
 51 26  1  0
 51 52  1  0
 53 51  1  0
 54  6  1  0
 54 55  1  0
 56 58  1  0
 56 55  1  0
 57 68  2  0
 58 63  1  0
 59 67  1  0
 59 69  1  0
 60 66  1  0
 60 62  1  0
 61 67  1  0
 62 61  1  0
 63 62  2  0
 64 65  1  0
 64 58  2  0
 65 60  2  0
 66 59  1  0
 67 57  1  0
 69 71  2  0
 70 69  1  0
 72 70  1  0
 73 82  2  0
 73 78  1  0
 74 70  1  0
 74 78  1  0
 75 74  1  0
 76 77  1  0
 76 75  1  0
 77 73  1  0
 78 79  2  0
 79 80  1  0
 81 80  2  0
 82 81  1  0
 83 57  1  0
 83 84  1  0
 83 93  1  0
 84 87  1  0
 85 89  1  0
 85 84  1  0
 86 85  2  0
 89 88  1  0
 91 89  1  0
 91 92  1  0
 91 90  1  0
 93 96  1  1
 93 94  1  0
 95 93  1  0
M  ISO  4  17 100  18 100  55 101  56 101
M  END
>  <TORSDO>  (86) 
F 22

>  <SCORE>  (86) 
-11.191

>  <name>  (86) 
86

>  <ligand_id>  (86) 
86

>  <original_smiles>  (86) 
[H]c1c([H])c([H])c2c(c1[H])C([H])([H])C([H])([H])C([H])([H])C2([H])N([H])C(=O)C1([H])N(C(=O)C([H])(N([H])C(=O)C([H])(N([H])C([H])([H])[H])C([H])([H])[H])C(C([H])([H])[H])(C([H])([H])[H])C([H])([H])[H])C([H])([H])c2c([H])c(OC([H])([H])C([H])([H])[N+]3([H])C([H])([H])C([H])([H])C([H])(c4c([H])c([H])c(C(=O)C([H])([H])C([H])([H])C(=O)N5C([H])([H])C([H])([H])C([H])([H])C([H])(n6nc(-c7c([H])c([H])c(Oc8c([H])c([H])c(F)c([H])c8F)c([H])c7[H])c(C(=O)N([H])[H])c6N([H])[H])C5([H])[H])c([H])c4[H])C([H])([H])C3([H])[H])c([H])c([H])c2C1([H])[H]

>  <smiles>  (86) 
[H]c1c([H])c([H])c2c(c1[H])C([H])([H])C([H])([H])C([H])([H])C2([H])N([H])C(=O)C1([H])N(C(=O)C([H])(N([H])C(=O)C([H])(N([H])C([H])([H])[H])C([H])([H])[H])C(C([H])([H])[H])(C([H])([H])[H])C([H])([H])[H])C([H])([H])c2c([H])c(OC([H])([H])C([H])([H])[N+]3([H])C([H])([H])C([H])([H])C([H])(c4c([H])c([H])c(C(=O)C([H])([H])C([H])([H])C(=O)N5C([H])([H])C([H])([H])C([H])([H])C([H])(n6nc(-c7c([H])c([H])c(Oc8c([H])c([H])c(F)c([H])c8F)c([H])c7[H])c(C(=O)N([H])[H])c6N([H])[H])C5([H])[H])c([H])c4[H])C([H])([H])C3([H])[H])c([H])c([H])c2C1([H])[H]

$$$$
87:0:0
     RDKit          3D

 95103  0  0  1  0  0  0  0  0999 V2000
  -29.3160  -20.7470   20.2100 C   0  0  0  0  0  2  0  0  0  0  0  0
  -28.5790  -22.0500   19.8280 C   0  0  0  0  0  0  0  0  0  0  0  0
  -29.2590  -23.2020   19.9410 N   0  0  0  0  0  0  0  0  0  0  0  0
  -27.4160  -22.0100   19.4230 O   0  0  0  0  0  0  0  0  0  0  0  0
  -30.2190  -23.1200   20.2510 H   0  0  0  0  0  0  0  0  0  0  0  0
  -28.8060  -24.5450   19.5420 C   0  0  0  0  0  2  0  0  0  0  0  0
  -28.5050  -25.4730   20.7420 C   0  0  0  0  0  2  0  0  0  0  0  0
  -28.5170  -26.8530   20.3550 O   0  0  0  0  0  0  0  0  0  0  0  0
  -24.5390  -31.9220   23.3370 C   0  0  0  0  0  0  0  0  0  0  0  0
  -27.3160  -27.5290   20.3280 C   0  0  0  0  0  0  0  0  0  0  0  0
  -23.3920  -30.5140   21.6560 C   0  0  0  0  0  3  0  0  0  0  0  0
  -24.8980  -28.9950   20.2710 C   0  0  0  0  0  0  0  0  0  0  0  0
  -25.9150  -30.9060   21.5260 C   0  0  0  0  0  2  0  0  0  0  0  0
  -26.0330  -29.5410   20.8830 C   0  0  0  0  0  0  0  0  0  0  0  0
  -27.2460  -28.8170   20.9040 C   0  0  0  0  0  3  0  0  0  0  0  0
  -26.1640  -26.9930   19.7120 C   0  0  0  0  0  3  0  0  0  0  0  0
  -24.9580  -27.7210   19.6770 C   0  0  0  0  0  3  0  0  0  0  0  0
  -23.6420  -29.8430   20.2800 C   0  0  0  0  0  2  0  0  0  0  0  0
  -24.6320  -31.1280   22.2310 N   0  0  0  0  0  0  0  0  0  0  0  0
  -23.4400  -32.1800   23.8500 O   0  0  0  0  0  0  0  0  0  0  0  0
  -22.7240  -29.4820   22.5930 C   0  0  0  0  0  0  0  0  0  0  0  0
  -21.4030  -29.2920   22.4320 N   0  0  0  0  0  0  0  0  0  0  0  0
  -23.3900  -28.8580   23.4220 O   0  0  0  0  0  0  0  0  0  0  0  0
  -20.9280  -29.8400   21.7290 H   0  0  0  0  0  0  0  0  0  0  0  0
  -18.0190  -28.1120   22.8560 C   0  0  0  0  0  0  0  0  0  0  0  0
  -20.5730  -28.3490   23.1760 C   0  0  0  0  0  3  0  0  0  0  0  0
  -20.6820  -26.9280   22.5780 C   0  0  0  0  0  2  0  0  0  0  0  0
  -19.5940  -26.6240   21.5420 C   0  0  0  0  0  2  0  0  0  0  0  0
  -18.2010  -26.7700   22.1660 C   0  0  0  0  0  2  0  0  0  0  0  0
  -19.1350  -28.8610   23.3150 C   0  0  0  0  0  0  0  0  0  0  0  0
  -18.9130  -30.1180   23.9170 C   0  0  0  0  0  3  0  0  0  0  0  0
  -17.6080  -30.6240   24.0720 C   0  0  0  0  0  3  0  0  0  0  0  0
  -16.5070  -29.8690   23.6320 C   0  0  0  0  0  3  0  0  0  0  0  0
  -16.7130  -28.6180   23.0260 C   0  0  0  0  0  3  0  0  0  0  0  0
  -25.8010  -32.5620   23.9950 C   0  0  0  0  0  3  0  0  0  0  0  0
  -25.4900  -33.9730   24.2700 N   0  0  0  0  0  0  0  0  0  0  0  0
  -25.8700  -34.9980   23.4970 C   0  0  0  0  0  0  0  0  0  0  0  0
  -26.5900  -34.8590   22.5030 O   0  0  0  0  0  0  0  0  0  0  0  0
  -24.8590  -34.1570   25.0380 H   0  0  0  0  0  0  0  0  0  0  0  0
  -24.1890  -36.7970   22.9910 C   0  0  0  0  0  1  0  0  0  0  0  0
  -25.3730  -36.4010   23.8870 C   0  0  0  0  0  3  0  0  0  0  0  0
  -27.4590  -37.2860   24.8320 C   0  0  0  0  0  1  0  0  0  0  0  0
  -26.4220  -37.4400   23.8130 N   0  0  0  0  0  0  0  0  0  0  0  0
  -26.0190  -38.3670   23.9100 H   0  0  0  0  0  0  0  0  0  0  0  0
  -26.2610  -31.8230   25.3110 C   0  0  1  0  0  0  0  0  0  0  0  0
  -25.1220  -31.6160   26.3340 C   0  0  0  0  0  1  0  0  0  0  0  0
  -26.8580  -30.4340   24.9770 C   0  0  0  0  0  1  0  0  0  0  0  0
  -27.3870  -32.6290   25.9990 C   0  0  0  0  0  1  0  0  0  0  0  0
  -28.9370  -19.5390   19.3090 C   0  0  0  0  0  2  0  0  0  0  0  0
  -32.0220  -17.5520   18.2130 C   0  0  0  0  0  3  0  0  0  0  0  0
  -30.7030  -15.9880   19.6090 C   0  0  0  0  0  0  0  0  0  0  0  0
  -31.8210  -16.2710   18.7480 C   0  0  0  0  0  0  0  0  0  0  0  0
  -31.1440  -18.6070   18.4500 C   0  0  0  0  0  0  0  0  0  0  0  0
  -29.7340  -17.0520   19.7310 C   0  0  0  0  0  0  0  0  0  0  0  0
  -29.9710  -18.3830   19.2150 C   0  0  0  0  0  0  0  0  0  0  0  0
  -32.8800  -15.2510   18.3180 C   0  0  0  0  0  1  0  0  0  0  0  0
  -31.4910  -19.9320   17.7780 C   0  0  0  0  0  1  0  0  0  0  0  0
  -30.7630  -14.6770   20.4550 C   0  0  0  0  0  0  0  0  0  0  0  0
  -30.3920  -12.4370   19.5520 C   0  0  0  0  0  2  0  0  0  0  0  0
  -29.4570  -12.4020   18.3370 C   0  0  0  0  0  2  0  0  0  0  0  0
  -28.0000  -12.2030   18.8070 C   0  0  0  0  0  2  0  0  0  0  0  0
  -27.5960  -13.1590   19.9620 C   0  0  0  0  0  3  0  0  0  0  0  0
  -28.6920  -13.2470   21.0530 C   0  0  0  0  0  2  0  0  0  0  0  0
  -29.9470  -13.5840   20.3500 N   0  0  0  0  0  0  0  0  0  0  0  0
  -31.8880  -14.5090   20.8830 O   0  0  0  0  0  0  0  0  0  0  0  0
  -25.2000  -13.7630   20.7200 C   0  0  0  0  0  0  0  0  0  0  0  0
  -24.1260  -12.9880   21.0520 C   0  0  0  0  0  0  0  0  0  0  0  0
  -24.5980  -11.6410   21.0100 C   0  0  0  0  0  0  0  0  0  0  0  0
  -26.2520  -12.8890   20.4730 N   0  0  0  0  0  0  0  0  0  0  0  0
  -25.8900  -11.6060   20.7130 N   0  0  0  0  0  0  0  0  0  0  0  0
  -23.8820  -10.3760   21.1820 C   0  0  0  0  0  0  0  0  0  0  0  0
  -24.3130   -9.4020   22.1110 C   0  0  0  0  0  3  0  0  0  0  0  0
  -23.5920   -8.1990   22.2670 C   0  0  0  0  0  3  0  0  0  0  0  0
  -22.4290   -7.9650   21.4980 C   0  0  0  0  0  0  0  0  0  0  0  0
  -22.0180   -8.9310   20.5620 C   0  0  0  0  0  3  0  0  0  0  0  0
  -22.7380  -10.1230   20.4020 C   0  0  0  0  0  3  0  0  0  0  0  0
  -21.6840   -6.8130   21.5690 O   0  0  0  0  0  0  0  0  0  0  0  0
  -21.6440   -6.0510   22.7090 C   0  0  0  0  0  0  0  0  0  0  0  0
  -21.1670   -6.5680   23.9340 C   0  0  0  0  0  3  0  0  0  0  0  0
  -21.0730   -5.7300   25.0630 C   0  0  0  0  0  3  0  0  0  0  0  0
  -21.4490   -4.3770   24.9680 C   0  0  0  0  0  0  0  0  0  0  0  0
  -21.9170   -3.8590   23.7480 C   0  0  0  0  0  3  0  0  0  0  0  0
  -22.0110   -4.6930   22.6210 C   0  0  0  0  0  0  0  0  0  0  0  0
  -22.4480   -4.1850   21.4430 F   0  0  0  0  0  0  0  0  0  0  0  0
  -21.3490   -3.5690   26.0500 F   0  0  0  0  0  0  0  0  0  0  0  0
  -22.7200  -13.4670   21.3000 C   0  0  0  0  0  0  0  0  0  0  0  0
  -21.9690  -12.7680   22.1440 N   0  0  0  0  0  0  0  0  0  0  0  0
  -22.2960  -14.4990   20.7830 O   0  0  0  0  0  0  0  0  0  0  0  0
  -22.3270  -11.9450   22.6020 H   0  0  0  0  0  0  0  0  0  0  0  0
  -21.0270  -13.0740   22.3510 H   0  0  0  0  0  0  0  0  0  0  0  0
  -25.3450  -15.1330   20.6000 N   0  0  0  0  0  0  0  0  0  0  0  0
  -24.5640  -15.7750   20.6800 H   0  0  0  0  0  0  0  0  0  0  0  0
  -26.2040  -15.5780   20.3030 H   0  0  0  0  0  0  0  0  0  0  0  0
  -27.4830  -16.6290   18.8610 C   0  0  0  0  0  1  0  0  0  0  0  0
  -28.3220  -16.7500   20.1620 C   0  0  0  0  0  2  0  0  0  0  0  0
  2  3  1  0
  2  1  1  0
  3  5  1  0
  4  2  2  0
  6  3  1  0
  6  7  1  0
  8  7  1  0
  9 20  2  0
 10  8  1  0
 10 15  1  0
 11 19  1  0
 11 21  1  0
 12 18  1  0
 12 14  1  0
 13 19  1  0
 14 15  2  0
 14 13  1  0
 16 10  2  0
 17 16  1  0
 17 12  2  0
 18 11  1  0
 19  9  1  0
 21 23  2  0
 22 21  1  0
 24 22  1  0
 25 34  2  0
 25 30  1  0
 26 22  1  0
 26 30  1  0
 27 26  1  0
 28 29  1  0
 28 27  1  0
 29 25  1  0
 30 31  2  0
 31 32  1  0
 33 32  2  0
 34 33  1  0
 35  9  1  0
 35 36  1  0
 35 45  1  0
 36 39  1  0
 37 41  1  0
 37 36  1  0
 38 37  2  0
 41 40  1  0
 43 41  1  0
 43 44  1  0
 43 42  1  0
 45 48  1  1
 45 46  1  0
 47 45  1  0
 49  1  1  0
 50 53  2  0
 50 52  1  0
 51 54  1  0
 51 58  1  0
 52 51  2  0
 53 55  1  0
 54 95  1  0
 55 49  1  0
 55 54  2  0
 56 52  1  0
 57 53  1  0
 58 65  2  0
 59 64  1  0
 60 61  1  0
 60 59  1  0
 62 61  1  0
 62 69  1  0
 62 63  1  0
 64 58  1  0
 64 63  1  0
 66 67  2  0
 67 86  1  0
 68 67  1  0
 68 71  1  0
 69 70  1  0
 69 66  1  0
 70 68  2  0
 71 72  1  0
 72 73  2  0
 74 77  1  0
 74 73  1  0
 75 74  2  0
 76 75  1  0
 76 71  2  0
 77 78  1  0
 78 79  1  0
 79 80  2  0
 81 80  1  0
 81 85  1  0
 82 81  2  0
 83 78  2  0
 83 82  1  0
 84 83  1  0
 86 87  1  0
 87 90  1  0
 87 89  1  0
 88 86  2  0
 91 92  1  0
 91 66  1  0
 93 91  1  0
 94 95  1  0
M  ISO  4   7 101   8 101  51 100  58 100
M  END
>  <TORSDO>  (87) 
F 22

>  <SCORE>  (87) 
-13.274

>  <name>  (87) 
87

>  <ligand_id>  (87) 
87

>  <original_smiles>  (87) 
[H]c1c([H])c([H])c2c(c1[H])C([H])([H])C([H])([H])C([H])([H])C2([H])N([H])C(=O)C1([H])N(C(=O)C([H])(N([H])C(=O)C([H])(N([H])C([H])([H])[H])C([H])([H])[H])C(C([H])([H])[H])(C([H])([H])[H])C([H])([H])[H])C([H])([H])c2c([H])c(OC([H])([H])C([H])([H])N([H])C(=O)C([H])([H])C([H])([H])c3c(C([H])([H])[H])c([H])c(C([H])([H])[H])c(C(=O)N4C([H])([H])C([H])([H])C([H])([H])C([H])(n5nc(-c6c([H])c([H])c(Oc7c([H])c([H])c(F)c([H])c7F)c([H])c6[H])c(C(=O)N([H])[H])c5N([H])[H])C4([H])[H])c3C([H])([H])C([H])([H])[H])c([H])c([H])c2C1([H])[H]

>  <smiles>  (87) 
[H]c1c([H])c([H])c2c(c1[H])C([H])([H])C([H])([H])C([H])([H])C2([H])N([H])C(=O)C1([H])N(C(=O)C([H])(N([H])C(=O)C([H])(N([H])C([H])([H])[H])C([H])([H])[H])C(C([H])([H])[H])(C([H])([H])[H])C([H])([H])[H])C([H])([H])c2c([H])c(OC([H])([H])C([H])([H])N([H])C(=O)C([H])([H])C([H])([H])c3c(C([H])([H])[H])c([H])c(C([H])([H])[H])c(C(=O)N4C([H])([H])C([H])([H])C([H])([H])C([H])(n5nc(-c6c([H])c([H])c(Oc7c([H])c([H])c(F)c([H])c7F)c([H])c6[H])c(C(=O)N([H])[H])c5N([H])[H])C4([H])[H])c3C([H])([H])C([H])([H])[H])c([H])c([H])c2C1([H])[H]

$$$$
88:0:0
     RDKit          3D

 97105  0  0  1  0  0  0  0  0999 V2000
  -28.4310  -18.6540   21.9480 C   0  0  0  0  0  3  0  0  0  0  0  0
  -29.8010  -17.5520   20.3010 C   0  0  0  0  0  3  0  0  0  0  0  0
  -28.4500  -17.4600   22.7120 C   0  0  0  0  0  0  0  0  0  0  0  0
  -29.8110  -16.2490   21.0150 C   0  0  0  0  0  0  0  0  0  0  0  0
  -29.1600  -18.8070   20.7610 C   0  0  0  0  0  0  0  0  0  0  0  0
  -29.2240  -16.3120   22.3230 C   0  0  0  0  0  0  0  0  0  0  0  0
  -30.5310  -14.9030   20.5000 C   0  0  0  0  0  0  0  0  0  0  0  0
  -30.4230  -12.5570   19.5200 C   0  0  0  0  0  2  0  0  0  0  0  0
  -29.5350  -12.5200   18.2550 C   0  0  0  0  0  2  0  0  0  0  0  0
  -28.0570  -12.2960   18.6310 C   0  0  0  0  0  2  0  0  0  0  0  0
  -27.6100  -13.2240   19.7810 C   0  0  0  0  0  3  0  0  0  0  0  0
  -28.6130  -13.2330   20.9350 C   0  0  0  0  0  2  0  0  0  0  0  0
  -29.9290  -13.6420   20.4170 N   0  0  0  0  0  0  0  0  0  0  0  0
  -31.6880  -14.9930   20.0740 O   0  0  0  0  0  0  0  0  0  0  0  0
  -25.2410  -13.8120   20.5450 C   0  0  0  0  0  0  0  0  0  0  0  0
  -24.1770  -13.0390   20.9170 C   0  0  0  0  0  0  0  0  0  0  0  0
  -24.6330  -11.6860   20.8670 C   0  0  0  0  0  0  0  0  0  0  0  0
  -26.2730  -12.9300   20.2740 N   0  0  0  0  0  0  0  0  0  0  0  0
  -25.9240  -11.6470   20.5510 N   0  0  0  0  0  0  0  0  0  0  0  0
  -23.9030  -10.4280   21.0380 C   0  0  0  0  0  0  0  0  0  0  0  0
  -24.3620   -9.4210   21.9160 C   0  0  0  0  0  3  0  0  0  0  0  0
  -23.6290   -8.2240   22.0780 C   0  0  0  0  0  3  0  0  0  0  0  0
  -22.4260   -8.0270   21.3580 C   0  0  0  0  0  0  0  0  0  0  0  0
  -21.9890   -9.0230   20.4680 C   0  0  0  0  0  3  0  0  0  0  0  0
  -22.7200  -10.2110   20.3040 C   0  0  0  0  0  3  0  0  0  0  0  0
  -21.6650   -6.8850   21.4240 O   0  0  0  0  0  0  0  0  0  0  0  0
  -21.6840   -6.0710   22.5280 C   0  0  0  0  0  0  0  0  0  0  0  0
  -21.3990   -6.5630   23.8200 C   0  0  0  0  0  3  0  0  0  0  0  0
  -21.3660   -5.6790   24.9170 C   0  0  0  0  0  3  0  0  0  0  0  0
  -21.6060   -4.3050   24.7220 C   0  0  0  0  0  0  0  0  0  0  0  0
  -21.8800   -3.8140   23.4350 C   0  0  0  0  0  3  0  0  0  0  0  0
  -21.9170   -4.6940   22.3400 C   0  0  0  0  0  0  0  0  0  0  0  0
  -22.1630   -4.2140   21.0970 F   0  0  0  0  0  0  0  0  0  0  0  0
  -21.5680   -3.4530   25.7740 F   0  0  0  0  0  0  0  0  0  0  0  0
  -22.7840  -13.5240   21.1900 C   0  0  0  0  0  0  0  0  0  0  0  0
  -22.0510  -12.8240   22.0480 N   0  0  0  0  0  0  0  0  0  0  0  0
  -22.3550  -14.5570   20.6770 O   0  0  0  0  0  0  0  0  0  0  0  0
  -22.4190  -11.9930   22.4900 H   0  0  0  0  0  0  0  0  0  0  0  0
  -21.1150  -13.1300   22.2730 H   0  0  0  0  0  0  0  0  0  0  0  0
  -25.4130  -15.1840   20.3840 N   0  0  0  0  0  0  0  0  0  0  0  0
  -24.6630  -15.8490   20.5290 H   0  0  0  0  0  0  0  0  0  0  0  0
  -26.2800  -15.6140   20.0840 H   0  0  0  0  0  0  0  0  0  0  0  0
  -27.5480  -17.4530   23.9080 C   0  0  0  0  0  0  0  0  0  0  0  0
  -26.3280  -17.2730   23.7780 O   0  0  0  0  0  0  0  0  0  0  0  0
  -28.1530  -17.7270   25.3350 C   0  0  0  0  0  0  0  0  0  0  0  0
  -28.9300  -18.6980   25.4780 O   0  0  0  0  0  0  0  0  0  0  0  0
  -27.7590  -16.9920   26.2740 O   0  0  0  0  0  1  0  0  0  0  0  0
  -29.1810  -20.2920   20.0470 C   0  0  0  0  0  3  0  0  0  0  0  0
  -28.5310  -21.7270   20.6600 C   0  0  0  0  0  3  0  0  0  0  0  0
  -27.9010  -23.1390   18.5940 C   0  0  0  0  0  1  0  0  0  0  0  0
  -30.1170  -23.5230   19.7070 C   0  0  0  0  0  1  0  0  0  0  0  0
  -28.6220  -23.2640   19.9450 C   0  0  2  0  0  0  0  0  0  0  0  0
  -27.9880  -24.6740   20.6290 C   0  0  0  0  0  2  0  0  0  0  0  0
  -28.2470  -26.1510   20.2030 O   0  0  0  0  0  0  0  0  0  0  0  0
  -24.6400  -31.8460   23.1860 C   0  0  0  0  0  0  0  0  0  0  0  0
  -27.2040  -27.1360   20.1720 C   0  0  0  0  0  0  0  0  0  0  0  0
  -23.4460  -30.4620   21.5310 C   0  0  0  0  0  3  0  0  0  0  0  0
  -24.8940  -28.8820   20.1180 C   0  0  0  0  0  0  0  0  0  0  0  0
  -26.0000  -30.7210   21.3840 C   0  0  0  0  0  2  0  0  0  0  0  0
  -26.0710  -29.3270   20.7330 C   0  0  0  0  0  0  0  0  0  0  0  0
  -27.2330  -28.4730   20.7370 C   0  0  0  0  0  3  0  0  0  0  0  0
  -26.0060  -26.7870   19.5200 C   0  0  0  0  0  3  0  0  0  0  0  0
  -24.8710  -27.6230   19.4950 C   0  0  0  0  0  3  0  0  0  0  0  0
  -23.6730  -29.7860   20.1530 C   0  0  0  0  0  2  0  0  0  0  0  0
  -24.7150  -31.0330   22.0870 N   0  0  0  0  0  0  0  0  0  0  0  0
  -23.5520  -32.1360   23.7060 O   0  0  0  0  0  0  0  0  0  0  0  0
  -22.7580  -29.4550   22.4840 C   0  0  0  0  0  0  0  0  0  0  0  0
  -21.4250  -29.3090   22.3620 N   0  0  0  0  0  0  0  0  0  0  0  0
  -23.4210  -28.8100   23.2990 O   0  0  0  0  0  0  0  0  0  0  0  0
  -20.9470  -29.8840   21.6820 H   0  0  0  0  0  0  0  0  0  0  0  0
  -18.0330  -28.1360   22.8460 C   0  0  0  0  0  0  0  0  0  0  0  0
  -20.5930  -28.3690   23.1200 C   0  0  0  0  0  3  0  0  0  0  0  0
  -20.6820  -26.9460   22.5230 C   0  0  0  0  0  2  0  0  0  0  0  0
  -19.5780  -26.6580   21.5020 C   0  0  0  0  0  2  0  0  0  0  0  0
  -18.2020  -26.7910   22.1590 C   0  0  0  0  0  2  0  0  0  0  0  0
  -19.1590  -28.8830   23.2850 C   0  0  0  0  0  0  0  0  0  0  0  0
  -18.9530  -30.1410   23.8920 C   0  0  0  0  0  3  0  0  0  0  0  0
  -17.6540  -30.6560   24.0600 C   0  0  0  0  0  3  0  0  0  0  0  0
  -16.5420  -29.9090   23.6340 C   0  0  0  0  0  3  0  0  0  0  0  0
  -16.7320  -28.6480   23.0390 C   0  0  0  0  0  3  0  0  0  0  0  0
  -25.9210  -32.4690   23.8260 C   0  0  0  0  0  3  0  0  0  0  0  0
  -25.5980  -33.8490   24.2180 N   0  0  0  0  0  0  0  0  0  0  0  0
  -25.9080  -34.9390   23.5040 C   0  0  0  0  0  0  0  0  0  0  0  0
  -26.5670  -34.8880   22.4620 O   0  0  0  0  0  0  0  0  0  0  0  0
  -25.0130  -33.9600   25.0330 H   0  0  0  0  0  0  0  0  0  0  0  0
  -24.1520  -36.7250   23.2630 C   0  0  0  0  0  1  0  0  0  0  0  0
  -25.4130  -36.3000   24.0320 C   0  0  0  0  0  3  0  0  0  0  0  0
  -27.5580  -37.1770   24.8450 C   0  0  0  0  0  1  0  0  0  0  0  0
  -26.4300  -37.3730   23.9390 N   0  0  0  0  0  0  0  0  0  0  0  0
  -26.0150  -38.2800   24.1370 H   0  0  0  0  0  0  0  0  0  0  0  0
  -26.4540  -31.6540   25.0690 C   0  0  1  0  0  0  0  0  0  0  0  0
  -25.3740  -31.3760   26.1400 C   0  0  0  0  0  1  0  0  0  0  0  0
  -27.0410  -30.2930   24.6300 C   0  0  0  0  0  1  0  0  0  0  0  0
  -27.6070  -32.4290   25.7500 C   0  0  0  0  0  1  0  0  0  0  0  0
  -29.4750  -15.2020   23.3660 C   0  0  0  0  0  2  0  0  0  0  0  0
  -30.7950  -14.4170   25.3800 C   0  0  0  0  0  1  0  0  0  0  0  0
  -30.6560  -15.4960   24.2960 C   0  0  0  0  0  2  0  0  0  0  0  0
  1  3  1  0
  2  5  1  0
  2  4  2  0
  3 43  1  0
  4  6  1  0
  5  1  2  0
  6  3  2  0
  6 95  1  0
  7  4  1  0
  8 13  1  0
  9 10  1  0
  9  8  1  0
 11 10  1  0
 11 18  1  0
 11 12  1  0
 13  7  1  0
 13 12  1  0
 14  7  2  0
 15 16  2  0
 16 35  1  0
 17 16  1  0
 17 20  1  0
 18 15  1  0
 18 19  1  0
 19 17  2  0
 20 21  1  0
 21 22  2  0
 23 26  1  0
 23 22  1  0
 24 23  2  0
 25 24  1  0
 25 20  2  0
 26 27  1  0
 27 28  1  0
 28 29  2  0
 30 29  1  0
 30 34  1  0
 31 30  2  0
 32 27  2  0
 32 31  1  0
 33 32  1  0
 35 36  1  0
 36 39  1  0
 36 38  1  0
 37 35  2  0
 40 41  1  0
 40 15  1  0
 42 40  1  0
 43 45  1  0
 44 43  2  0
 45 46  2  0
 45 47  1  0
 48 49  2  0
 48  5  1  0
 52 50  1  6
 51 52  1  0
 52 53  1  0
 52 49  1  0
 54 53  1  0
 55 66  2  0
 56 54  1  0
 56 61  1  0
 57 65  1  0
 57 67  1  0
 58 64  1  0
 58 60  1  0
 59 65  1  0
 60 61  2  0
 60 59  1  0
 62 56  2  0
 63 62  1  0
 63 58  2  0
 64 57  1  0
 65 55  1  0
 67 69  2  0
 68 67  1  0
 70 68  1  0
 71 80  2  0
 71 76  1  0
 72 68  1  0
 72 76  1  0
 73 72  1  0
 74 75  1  0
 74 73  1  0
 75 71  1  0
 76 77  2  0
 77 78  1  0
 79 78  2  0
 80 79  1  0
 81 55  1  0
 81 82  1  0
 81 91  1  0
 82 85  1  0
 83 87  1  0
 83 82  1  0
 84 83  2  0
 87 86  1  0
 89 87  1  0
 89 90  1  0
 89 88  1  0
 91 94  1  1
 91 92  1  0
 93 91  1  0
 95 97  1  0
 97 96  1  0
M  ISO  4   4 100   7 100  53 101  54 101
M  END
>  <TORSDO>  (88) 
F 24

>  <SCORE>  (88) 
43.578

>  <name>  (88) 
88

>  <ligand_id>  (88) 
88

>  <original_smiles>  (88) 
[H]c1c([H])c([H])c2c(c1[H])C([H])([H])C([H])([H])C([H])([H])C2([H])N([H])C(=O)C1([H])N(C(=O)C([H])(N([H])C(=O)C([H])(N([H])C([H])([H])[H])C([H])([H])[H])C(C([H])([H])[H])(C([H])([H])[H])C([H])([H])[H])C([H])([H])c2c([H])c(OC([H])([H])C(C([H])([H])[H])(C([H])([H])[H])C([H])([H])C([H])([H])c3c([H])c(C(=O)C(=O)[O-])c(C([H])([H])C([H])([H])C([H])([H])[H])c(C(=O)N4C([H])([H])C([H])([H])C([H])([H])C([H])(n5nc(-c6c([H])c([H])c(Oc7c([H])c([H])c(F)c([H])c7F)c([H])c6[H])c(C(=O)N([H])[H])c5N([H])[H])C4([H])[H])c3[H])c([H])c([H])c2C1([H])[H]

>  <smiles>  (88) 
[H]c1c([H])c([H])c2c(c1[H])C([H])([H])C([H])([H])C([H])([H])C2([H])N([H])C(=O)C1([H])N(C(=O)C([H])(N([H])C(=O)C([H])(N([H])C([H])([H])[H])C([H])([H])[H])C(C([H])([H])[H])(C([H])([H])[H])C([H])([H])[H])C([H])([H])c2c([H])c(OC([H])([H])C(C([H])([H])[H])(C([H])([H])[H])C([H])([H])C([H])([H])c3c([H])c(C(=O)C(=O)[O-])c(C([H])([H])C([H])([H])C([H])([H])[H])c(C(=O)N4C([H])([H])C([H])([H])C([H])([H])C([H])(n5nc(-c6c([H])c([H])c(Oc7c([H])c([H])c(F)c([H])c7F)c([H])c6[H])c(C(=O)N([H])[H])c5N([H])[H])C4([H])[H])c3[H])c([H])c([H])c2C1([H])[H]

$$$$
89:0:0
     RDKit          3D

 93101  0  0  1  0  0  0  0  0999 V2000
  -28.0930  -19.8660   20.7420 C   0  0  0  0  0  3  0  0  0  0  0  0
  -27.2060  -20.9520   20.7760 C   0  0  0  0  0  3  0  0  0  0  0  0
  -29.8980  -21.4280   20.3000 C   0  0  0  0  0  3  0  0  0  0  0  0
  -29.0030  -22.5850   20.2990 C   0  0  0  0  0  0  0  0  0  0  0  0
  -29.4670  -20.0570   20.5270 C   0  0  0  0  0  0  0  0  0  0  0  0
  -27.6380  -22.2860   20.6120 C   0  0  0  0  0  0  0  0  0  0  0  0
  -26.5730  -23.3380   20.8930 C   0  0  0  0  0  1  0  0  0  0  0  0
  -29.5210  -24.0630   20.1350 C   0  0  0  0  0  0  0  0  0  0  0  0
  -30.6510  -24.3670   20.5330 O   0  0  0  0  0  0  0  0  0  0  0  0
  -28.6800  -25.2070   19.3920 C   0  0  0  0  0  2  0  0  0  0  0  0
  -28.7910  -26.6370   19.8470 O   0  0  0  0  0  0  0  0  0  0  0  0
  -24.5890  -31.5800   23.0680 C   0  0  0  0  0  0  0  0  0  0  0  0
  -27.6330  -27.4490   19.7820 C   0  0  0  0  0  0  0  0  0  0  0  0
  -23.5440  -30.2150   21.2980 C   0  0  0  0  0  3  0  0  0  0  0  0
  -25.1520  -28.8990   19.8050 C   0  0  0  0  0  0  0  0  0  0  0  0
  -26.0570  -30.7390   21.2200 C   0  0  0  0  0  2  0  0  0  0  0  0
  -26.2640  -29.4210   20.4770 C   0  0  0  0  0  0  0  0  0  0  0  0
  -27.5050  -28.7070   20.4600 C   0  0  0  0  0  3  0  0  0  0  0  0
  -26.4970  -27.0130   19.0590 C   0  0  0  0  0  3  0  0  0  0  0  0
  -25.2740  -27.7040   19.0840 C   0  0  0  0  0  3  0  0  0  0  0  0
  -23.8470  -29.6660   19.8790 C   0  0  0  0  0  2  0  0  0  0  0  0
  -24.7460  -30.8600   21.9190 N   0  0  0  0  0  0  0  0  0  0  0  0
  -23.4730  -31.7310   23.5870 O   0  0  0  0  0  0  0  0  0  0  0  0
  -22.9420  -29.0810   22.1620 C   0  0  0  0  0  0  0  0  0  0  0  0
  -21.6340  -28.8220   21.9970 N   0  0  0  0  0  0  0  0  0  0  0  0
  -23.6530  -28.4420   22.9410 O   0  0  0  0  0  0  0  0  0  0  0  0
  -21.1130  -29.3950   21.3470 H   0  0  0  0  0  0  0  0  0  0  0  0
  -18.3380  -27.3840   22.3770 C   0  0  0  0  0  0  0  0  0  0  0  0
  -20.8760  -27.7700   22.6770 C   0  0  0  0  0  3  0  0  0  0  0  0
  -21.0620  -26.4060   21.9730 C   0  0  0  0  0  2  0  0  0  0  0  0
  -19.9770  -26.1130   20.9310 C   0  0  0  0  0  2  0  0  0  0  0  0
  -18.5920  -26.1150   21.5820 C   0  0  0  0  0  2  0  0  0  0  0  0
  -19.4100  -28.1690   22.8790 C   0  0  0  0  0  0  0  0  0  0  0  0
  -19.1180  -29.3570   23.5830 C   0  0  0  0  0  3  0  0  0  0  0  0
  -17.7860  -29.7610   23.7890 C   0  0  0  0  0  3  0  0  0  0  0  0
  -16.7290  -28.9720   23.3040 C   0  0  0  0  0  3  0  0  0  0  0  0
  -17.0050  -27.7850   22.6040 C   0  0  0  0  0  3  0  0  0  0  0  0
  -25.8000  -32.2660   23.7710 C   0  0  0  0  0  3  0  0  0  0  0  0
  -25.3970  -33.6390   24.1090 N   0  0  0  0  0  0  0  0  0  0  0  0
  -25.6920  -34.7200   23.3770 C   0  0  0  0  0  0  0  0  0  0  0  0
  -26.4000  -34.6720   22.3670 O   0  0  0  0  0  0  0  0  0  0  0  0
  -24.7660  -33.7450   24.8890 H   0  0  0  0  0  0  0  0  0  0  0  0
  -23.8600  -36.4060   23.0070 C   0  0  0  0  0  1  0  0  0  0  0  0
  -25.1100  -36.0710   23.8370 C   0  0  0  0  0  3  0  0  0  0  0  0
  -27.1640  -37.0870   24.7200 C   0  0  0  0  0  1  0  0  0  0  0  0
  -26.0760  -37.1880   23.7500 N   0  0  0  0  0  0  0  0  0  0  0  0
  -25.6090  -38.0810   23.8890 H   0  0  0  0  0  0  0  0  0  0  0  0
  -26.2840  -31.4970   25.0630 C   0  0  1  0  0  0  0  0  0  0  0  0
  -25.1460  -31.1880   26.0630 C   0  0  0  0  0  1  0  0  0  0  0  0
  -26.9550  -30.1550   24.6840 C   0  0  0  0  0  1  0  0  0  0  0  0
  -27.3560  -32.3340   25.7980 C   0  0  0  0  0  1  0  0  0  0  0  0
  -30.3880  -18.7910   20.7960 C   0  0  0  0  0  2  0  0  0  0  0  0
  -30.5530  -17.5190   19.8080 C   0  0  0  0  0  0  0  0  0  0  0  0
  -31.0410  -14.9500   20.0740 C   0  0  0  0  0  0  0  0  0  0  0  0
  -30.7600  -12.6760   19.0950 C   0  0  0  0  0  2  0  0  0  0  0  0
  -29.7890  -12.7620   17.8950 C   0  0  0  0  0  2  0  0  0  0  0  0
  -28.3290  -12.6230   18.3680 C   0  0  0  0  0  2  0  0  0  0  0  0
  -28.0100  -13.5230   19.5910 C   0  0  0  0  0  3  0  0  0  0  0  0
  -29.0970  -13.4230   20.6830 C   0  0  0  0  0  2  0  0  0  0  0  0
  -30.3860  -13.7400   20.0550 N   0  0  0  0  0  0  0  0  0  0  0  0
  -32.2010  -15.0270   19.6620 O   0  0  0  0  0  0  0  0  0  0  0  0
  -30.3060  -16.0960   20.3230 N   0  0  0  0  0  4  0  0  0  0  0  0
  -29.3850  -15.9290   20.7010 H   0  0  0  0  0  0  0  0  0  0  0  0
  -25.6640  -14.1740   20.4090 C   0  0  0  0  0  0  0  0  0  0  0  0
  -24.5840  -13.4260   20.7890 C   0  0  0  0  0  0  0  0  0  0  0  0
  -25.0010  -12.0630   20.7050 C   0  0  0  0  0  0  0  0  0  0  0  0
  -26.6720  -13.2690   20.1150 N   0  0  0  0  0  0  0  0  0  0  0  0
  -26.2800  -11.9910   20.3530 N   0  0  0  0  0  0  0  0  0  0  0  0
  -24.2400  -10.8190   20.8820 C   0  0  0  0  0  0  0  0  0  0  0  0
  -24.6440   -9.8340   21.8100 C   0  0  0  0  0  3  0  0  0  0  0  0
  -23.8840   -8.6550   21.9750 C   0  0  0  0  0  3  0  0  0  0  0  0
  -22.7090   -8.4550   21.2140 C   0  0  0  0  0  0  0  0  0  0  0  0
  -22.3250   -9.4290   20.2760 C   0  0  0  0  0  3  0  0  0  0  0  0
  -23.0840  -10.5990   20.1080 C   0  0  0  0  0  3  0  0  0  0  0  0
  -21.9230   -7.3300   21.2890 O   0  0  0  0  0  0  0  0  0  0  0  0
  -21.8180   -6.6030   22.4480 C   0  0  0  0  0  0  0  0  0  0  0  0
  -21.3330   -7.1760   23.6450 C   0  0  0  0  0  3  0  0  0  0  0  0
  -21.1750   -6.3760   24.7930 C   0  0  0  0  0  3  0  0  0  0  0  0
  -21.4900   -5.0050   24.7470 C   0  0  0  0  0  0  0  0  0  0  0  0
  -21.9670   -4.4320   23.5550 C   0  0  0  0  0  3  0  0  0  0  0  0
  -22.1260   -5.2290   22.4080 C   0  0  0  0  0  0  0  0  0  0  0  0
  -22.5670   -4.6670   21.2560 F   0  0  0  0  0  0  0  0  0  0  0  0
  -21.3310   -4.2340   25.8490 F   0  0  0  0  0  0  0  0  0  0  0  0
  -23.2140  -13.9400   21.1210 C   0  0  0  0  0  0  0  0  0  0  0  0
  -22.4940  -13.2440   21.9950 N   0  0  0  0  0  0  0  0  0  0  0  0
  -22.7910  -14.9910   20.6410 O   0  0  0  0  0  0  0  0  0  0  0  0
  -22.8510  -12.3930   22.4040 H   0  0  0  0  0  0  0  0  0  0  0  0
  -21.5740  -13.5650   22.2570 H   0  0  0  0  0  0  0  0  0  0  0  0
  -25.8640  -15.5430   20.2680 N   0  0  0  0  0  0  0  0  0  0  0  0
  -25.1180  -16.2140   20.4220 H   0  0  0  0  0  0  0  0  0  0  0  0
  -26.7080  -15.9670   19.9080 H   0  0  0  0  0  0  0  0  0  0  0  0
  -28.4470  -17.4890   18.2410 C   0  0  0  0  0  1  0  0  0  0  0  0
  -29.9590  -17.7110   18.3940 C   0  0  0  0  0  2  0  0  0  0  0  0
  1  2  1  0
  3  5  1  0
  4  3  2  0
  4  6  1  0
  5  1  2  0
  5 52  1  0
  6  2  2  0
  6  7  1  0
  8  4  1  0
  8  9  2  0
 10 11  1  0
 10  8  1  0
 12 23  2  0
 13 11  1  0
 13 18  1  0
 14 22  1  0
 14 24  1  0
 15 21  1  0
 15 17  1  0
 16 22  1  0
 17 16  1  0
 18 17  2  0
 19 20  1  0
 19 13  2  0
 20 15  2  0
 21 14  1  0
 22 12  1  0
 24 26  2  0
 25 24  1  0
 27 25  1  0
 28 37  2  0
 28 33  1  0
 29 25  1  0
 29 33  1  0
 30 29  1  0
 31 32  1  0
 31 30  1  0
 32 28  1  0
 33 34  2  0
 34 35  1  0
 36 35  2  0
 37 36  1  0
 38 12  1  0
 38 39  1  0
 38 48  1  0
 39 42  1  0
 40 44  1  0
 40 39  1  0
 41 40  2  0
 44 43  1  0
 46 44  1  0
 46 47  1  0
 46 45  1  0
 48 51  1  1
 48 49  1  0
 50 48  1  0
 53 62  2  3
 53 52  1  0
 54 62  1  0
 55 60  1  0
 56 57  1  0
 56 55  1  0
 58 57  1  0
 58 67  1  0
 58 59  1  0
 60 54  1  0
 60 59  1  0
 61 54  2  0
 62 63  1  0
 64 65  2  0
 65 84  1  0
 66 65  1  0
 66 69  1  0
 67 68  1  0
 67 64  1  0
 68 66  2  0
 69 70  1  0
 70 71  2  0
 72 75  1  0
 72 71  1  0
 73 72  2  0
 74 73  1  0
 74 69  2  0
 75 76  1  0
 76 77  1  0
 77 78  2  0
 79 78  1  0
 79 83  1  0
 80 79  2  0
 81 76  2  0
 81 80  1  0
 82 81  1  0
 84 85  1  0
 85 88  1  0
 85 87  1  0
 86 84  2  0
 89 64  1  0
 89 90  1  0
 91 89  1  0
 92 93  1  0
 93 53  1  0
M  ISO  4  10 101  11 101  54 100  62 100
M  END
>  <TORSDO>  (89) 
F 21

>  <SCORE>  (89) 
-11.692

>  <name>  (89) 
89

>  <ligand_id>  (89) 
89

>  <original_smiles>  (89) 
[H]c1c([H])c([H])c2c(c1[H])C([H])([H])C([H])([H])C([H])([H])C2([H])N([H])C(=O)C1([H])N(C(=O)C([H])(N([H])C(=O)C([H])(N([H])C([H])([H])[H])C([H])([H])[H])C(C([H])([H])[H])(C([H])([H])[H])C([H])([H])[H])C([H])([H])c2c([H])c(OC([H])([H])C(=O)c3c([H])c(C([H])([H])C([H])(N([H])C(=O)N4C([H])([H])C([H])([H])C([H])([H])C([H])(n5nc(-c6c([H])c([H])c(Oc7c([H])c([H])c(F)c([H])c7F)c([H])c6[H])c(C(=O)N([H])[H])c5N([H])[H])C4([H])[H])C([H])([H])C([H])([H])[H])c([H])c([H])c3C([H])([H])[H])c([H])c([H])c2C1([H])[H]

>  <smiles>  (89) 
[H]c1c([H])c([H])c2c(c1[H])C([H])([H])C([H])([H])C([H])([H])C2([H])N([H])C(=O)C1([H])N(C(=O)C([H])(N([H])C(=O)C([H])(N([H])C([H])([H])[H])C([H])([H])[H])C(C([H])([H])[H])(C([H])([H])[H])C([H])([H])[H])C([H])([H])c2c([H])c(OC([H])([H])C(=O)c3c([H])c(C([H])([H])C([H])(N([H])C(=O)N4C([H])([H])C([H])([H])C([H])([H])C([H])(n5nc(-c6c([H])c([H])c(Oc7c([H])c([H])c(F)c([H])c7F)c([H])c6[H])c(C(=O)N([H])[H])c5N([H])[H])C4([H])[H])C([H])([H])C([H])([H])[H])c([H])c([H])c3C([H])([H])[H])c([H])c([H])c2C1([H])[H]

$$$$
90:0:0
     RDKit          3D

 93101  0  0  1  0  0  0  0  0999 V2000
  -29.1300  -22.8000   18.9880 C   0  0  0  0  0  3  0  0  0  0  0  0
  -28.7830  -24.1970   18.9420 C   0  0  0  0  0  3  0  0  0  0  0  0
  -28.9170  -24.3000   21.3070 C   0  0  0  0  0  3  0  0  0  0  0  0
  -29.4300  -22.0850   20.1890 C   0  0  0  0  0  0  0  0  0  0  0  0
  -28.6930  -25.0290   20.0950 C   0  0  0  0  0  0  0  0  0  0  0  0
  -29.2670  -22.8840   21.3690 C   0  0  0  0  0  0  0  0  0  0  0  0
  -29.3840  -22.9680   23.7680 C   0  0  0  0  0  1  0  0  0  0  0  0
  -29.5340  -22.2370   22.5570 O   0  0  0  0  0  0  0  0  0  0  0  0
  -28.6430  -26.4710   20.0010 O   0  0  0  0  0  0  0  0  0  0  0  0
  -24.8290  -31.7770   23.2340 C   0  0  0  0  0  0  0  0  0  0  0  0
  -27.5010  -27.3120   20.0190 C   0  0  0  0  0  0  0  0  0  0  0  0
  -23.6600  -30.4570   21.5050 C   0  0  0  0  0  3  0  0  0  0  0  0
  -25.1400  -28.9630   20.0330 C   0  0  0  0  0  0  0  0  0  0  0  0
  -26.2050  -30.7710   21.3890 C   0  0  0  0  0  2  0  0  0  0  0  0
  -26.2970  -29.4150   20.6800 C   0  0  0  0  0  0  0  0  0  0  0  0
  -27.4770  -28.6030   20.6600 C   0  0  0  0  0  3  0  0  0  0  0  0
  -26.3230  -26.9260   19.3500 C   0  0  0  0  0  3  0  0  0  0  0  0
  -25.1580  -27.7290   19.3580 C   0  0  0  0  0  3  0  0  0  0  0  0
  -23.9030  -29.8420   20.0990 C   0  0  0  0  0  2  0  0  0  0  0  0
  -24.9160  -31.0190   22.1000 N   0  0  0  0  0  0  0  0  0  0  0  0
  -23.7350  -32.0280   23.7610 O   0  0  0  0  0  0  0  0  0  0  0  0
  -22.9780  -29.4000   22.4060 C   0  0  0  0  0  0  0  0  0  0  0  0
  -21.6540  -29.2310   22.2520 N   0  0  0  0  0  0  0  0  0  0  0  0
  -23.6420  -28.7340   23.2050 O   0  0  0  0  0  0  0  0  0  0  0  0
  -21.1760  -29.8220   21.5860 H   0  0  0  0  0  0  0  0  0  0  0  0
  -18.2690  -28.0060   22.6380 C   0  0  0  0  0  0  0  0  0  0  0  0
  -20.8230  -28.2550   22.9610 C   0  0  0  0  0  3  0  0  0  0  0  0
  -20.9360  -26.8540   22.3160 C   0  0  0  0  0  2  0  0  0  0  0  0
  -19.8500  -26.5830   21.2680 C   0  0  0  0  0  2  0  0  0  0  0  0
  -18.4590  -26.6940   21.8960 C   0  0  0  0  0  2  0  0  0  0  0  0
  -19.3800  -28.7470   23.1240 C   0  0  0  0  0  0  0  0  0  0  0  0
  -19.1490  -29.9770   23.7780 C   0  0  0  0  0  3  0  0  0  0  0  0
  -17.8410  -30.4670   23.9490 C   0  0  0  0  0  3  0  0  0  0  0  0
  -16.7450  -29.7230   23.4790 C   0  0  0  0  0  3  0  0  0  0  0  0
  -16.9600  -28.4940   22.8300 C   0  0  0  0  0  3  0  0  0  0  0  0
  -26.0970  -32.3810   23.9120 C   0  0  0  0  0  3  0  0  0  0  0  0
  -25.7760  -33.7600   24.3110 N   0  0  0  0  0  0  0  0  0  0  0  0
  -26.0870  -34.8530   23.6020 C   0  0  0  0  0  0  0  0  0  0  0  0
  -26.7440  -34.8070   22.5590 O   0  0  0  0  0  0  0  0  0  0  0  0
  -25.1890  -33.8680   25.1270 H   0  0  0  0  0  0  0  0  0  0  0  0
  -24.3230  -36.6340   23.3790 C   0  0  0  0  0  1  0  0  0  0  0  0
  -25.5930  -36.2130   24.1350 C   0  0  0  0  0  3  0  0  0  0  0  0
  -27.7330  -37.1000   24.9480 C   0  0  0  0  0  1  0  0  0  0  0  0
  -26.6070  -37.2860   24.0390 N   0  0  0  0  0  0  0  0  0  0  0  0
  -26.1900  -38.1930   24.2330 H   0  0  0  0  0  0  0  0  0  0  0  0
  -26.5940  -31.5470   25.1570 C   0  0  1  0  0  0  0  0  0  0  0  0
  -25.4850  -31.2600   26.1960 C   0  0  0  0  0  1  0  0  0  0  0  0
  -27.1800  -30.1890   24.7080 C   0  0  0  0  0  1  0  0  0  0  0  0
  -27.7350  -32.3050   25.8750 C   0  0  0  0  0  1  0  0  0  0  0  0
  -30.1760  -20.6410   20.1280 C   0  0  0  0  0  3  0  0  0  0  0  0
  -29.6670  -19.1580   20.6230 C   0  0  0  0  0  3  0  0  0  0  0  0
  -30.6090  -17.8140   20.3590 C   0  0  0  0  0  3  0  0  0  0  0  0
  -31.9400  -18.0290   20.9650 N   0  0  0  0  0  4  0  0  0  0  0  0
  -31.8790  -18.0960   21.9650 H   0  0  0  0  0  0  0  0  0  0  0  0
  -32.3650  -18.8690   20.6140 H   0  0  0  0  0  0  0  0  0  0  0  0
  -32.5530  -17.2660   20.7350 H   0  0  0  0  0  0  0  0  0  0  0  0
  -30.1020  -16.2820   20.7170 C   0  0  0  0  0  2  0  0  0  0  0  0
  -30.9360  -14.9290   20.3460 C   0  0  0  0  0  0  0  0  0  0  0  0
  -30.7770  -12.6520   19.2860 C   0  0  0  0  0  2  0  0  0  0  0  0
  -29.8370  -12.7470   18.0600 C   0  0  0  0  0  2  0  0  0  0  0  0
  -28.3650  -12.5630   18.4810 C   0  0  0  0  0  2  0  0  0  0  0  0
  -27.9920  -13.4260   19.7140 C   0  0  0  0  0  3  0  0  0  0  0  0
  -29.0460  -13.3100   20.8340 C   0  0  0  0  0  2  0  0  0  0  0  0
  -30.3460  -13.6810   20.2650 N   0  0  0  0  0  0  0  0  0  0  0  0
  -32.1170  -15.0410   19.9980 O   0  0  0  0  0  0  0  0  0  0  0  0
  -25.6100  -14.0270   20.4480 C   0  0  0  0  0  0  0  0  0  0  0  0
  -24.5390  -13.2570   20.8140 C   0  0  0  0  0  0  0  0  0  0  0  0
  -24.9950  -11.9040   20.7760 C   0  0  0  0  0  0  0  0  0  0  0  0
  -26.6470  -13.1420   20.2020 N   0  0  0  0  0  0  0  0  0  0  0  0
  -26.2850  -11.8600   20.4660 N   0  0  0  0  0  0  0  0  0  0  0  0
  -24.2610  -10.6450   20.9590 C   0  0  0  0  0  0  0  0  0  0  0  0
  -24.6490   -9.6980   21.9300 C   0  0  0  0  0  3  0  0  0  0  0  0
  -23.9150   -8.5030   22.0990 C   0  0  0  0  0  3  0  0  0  0  0  0
  -22.7800   -8.2480   21.2940 C   0  0  0  0  0  0  0  0  0  0  0  0
  -22.4120   -9.1830   20.3120 C   0  0  0  0  0  3  0  0  0  0  0  0
  -23.1460  -10.3690   20.1410 C   0  0  0  0  0  3  0  0  0  0  0  0
  -22.0220   -7.1040   21.3700 O   0  0  0  0  0  0  0  0  0  0  0  0
  -21.8520   -6.4310   22.5530 C   0  0  0  0  0  0  0  0  0  0  0  0
  -21.2930   -7.0520   23.6920 C   0  0  0  0  0  3  0  0  0  0  0  0
  -21.0710   -6.3040   24.8640 C   0  0  0  0  0  3  0  0  0  0  0  0
  -21.3990   -4.9350   24.9000 C   0  0  0  0  0  0  0  0  0  0  0  0
  -21.9520   -4.3140   23.7660 C   0  0  0  0  0  3  0  0  0  0  0  0
  -22.1750   -5.0600   22.5960 C   0  0  0  0  0  0  0  0  0  0  0  0
  -22.6880   -4.4510   21.4990 F   0  0  0  0  0  0  0  0  0  0  0  0
  -21.1800   -4.2130   26.0240 F   0  0  0  0  0  0  0  0  0  0  0  0
  -23.1440  -13.7420   21.0830 C   0  0  0  0  0  0  0  0  0  0  0  0
  -22.4140  -13.0550   21.9550 N   0  0  0  0  0  0  0  0  0  0  0  0
  -22.7100  -14.7640   20.5550 O   0  0  0  0  0  0  0  0  0  0  0  0
  -22.7780  -12.2290   22.4060 H   0  0  0  0  0  0  0  0  0  0  0  0
  -21.4770  -13.3600   22.1750 H   0  0  0  0  0  0  0  0  0  0  0  0
  -25.7810  -15.3970   20.2800 N   0  0  0  0  0  0  0  0  0  0  0  0
  -25.0150  -16.0530   20.3970 H   0  0  0  0  0  0  0  0  0  0  0  0
  -26.6320  -15.8380   19.9540 H   0  0  0  0  0  0  0  0  0  0  0  0
  1  4  1  0
  2  1  2  0
  2  5  1  0
  3  6  1  0
  4  6  2  0
  5  3  2  0
  6  8  1  0
  8  7  1  0
  9 11  1  0
  9  5  1  0
 10 21  2  0
 11 16  1  0
 12 20  1  0
 12 22  1  0
 13 19  1  0
 13 15  1  0
 14 20  1  0
 15 14  1  0
 16 15  2  0
 17 18  1  0
 17 11  2  0
 18 13  2  0
 19 12  1  0
 20 10  1  0
 22 24  2  0
 23 22  1  0
 25 23  1  0
 26 35  2  0
 26 31  1  0
 27 23  1  0
 27 31  1  0
 28 27  1  0
 29 30  1  0
 29 28  1  0
 30 26  1  0
 31 32  2  0
 32 33  1  0
 34 33  2  0
 35 34  1  0
 36 10  1  0
 36 37  1  0
 36 46  1  0
 37 40  1  0
 38 42  1  0
 38 37  1  0
 39 38  2  0
 42 41  1  0
 44 42  1  0
 44 45  1  0
 44 43  1  0
 46 49  1  1
 46 47  1  0
 48 46  1  0
 50  4  1  0
 50 51  2  0
 52 51  1  0
 52 57  1  0
 52 53  1  0
 53 54  1  0
 55 53  1  0
 56 53  1  0
 58 57  1  0
 59 64  1  0
 60 61  1  0
 60 59  1  0
 62 61  1  0
 62 69  1  0
 62 63  1  0
 64 58  1  0
 64 63  1  0
 65 58  2  0
 66 67  2  0
 67 86  1  0
 68 67  1  0
 68 71  1  0
 69 66  1  0
 69 70  1  0
 70 68  2  0
 71 72  1  0
 72 73  2  0
 74 77  1  0
 74 73  1  0
 75 74  2  0
 76 75  1  0
 76 71  2  0
 77 78  1  0
 78 83  2  0
 78 79  1  0
 79 80  2  0
 80 81  1  0
 81 85  1  0
 82 81  2  0
 83 82  1  0
 84 83  1  0
 86 87  1  0
 87 90  1  0
 87 89  1  0
 88 86  2  0
 91 92  1  0
 91 66  1  0
 93 91  1  0
M  ISO  4   5 101   9 101  57 100  58 100
M  END
>  <TORSDO>  (90) 
F 22

>  <SCORE>  (90) 
-12.539

>  <name>  (90) 
90

>  <ligand_id>  (90) 
90

>  <original_smiles>  (90) 
[H]c1c([H])c([H])c2c(c1[H])C([H])([H])C([H])([H])C([H])([H])C2([H])N([H])C(=O)C1([H])N(C(=O)C([H])(N([H])C(=O)C([H])(N([H])C([H])([H])[H])C([H])([H])[H])C(C([H])([H])[H])(C([H])([H])[H])C([H])([H])[H])C([H])([H])c2c([H])c(Oc3c([H])c([H])c(C([H])([H])C([H])([H])C([H])(C([H])([H])C(=O)N4C([H])([H])C([H])([H])C([H])([H])C([H])(n5nc(-c6c([H])c([H])c(Oc7c([H])c([H])c(F)c([H])c7F)c([H])c6[H])c(C(=O)N([H])[H])c5N([H])[H])C4([H])[H])[N+]([H])([H])[H])c(OC([H])([H])[H])c3[H])c([H])c([H])c2C1([H])[H]

>  <smiles>  (90) 
[H]c1c([H])c([H])c2c(c1[H])C([H])([H])C([H])([H])C([H])([H])C2([H])N([H])C(=O)C1([H])N(C(=O)C([H])(N([H])C(=O)C([H])(N([H])C([H])([H])[H])C([H])([H])[H])C(C([H])([H])[H])(C([H])([H])[H])C([H])([H])[H])C([H])([H])c2c([H])c(Oc3c([H])c([H])c(C([H])([H])C([H])([H])C([H])(C([H])([H])C(=O)N4C([H])([H])C([H])([H])C([H])([H])C([H])(n5nc(-c6c([H])c([H])c(Oc7c([H])c([H])c(F)c([H])c7F)c([H])c6[H])c(C(=O)N([H])[H])c5N([H])[H])C4([H])[H])[N+]([H])([H])[H])c(OC([H])([H])[H])c3[H])c([H])c([H])c2C1([H])[H]

$$$$
91:0:0
     RDKit          3D

 92100  0  0  1  0  0  0  0  0999 V2000
  -27.0340  -20.2290   19.9200 C   0  0  0  0  0  3  0  0  0  0  0  0
  -27.4440  -21.5820   19.9860 C   0  0  0  0  0  3  0  0  0  0  0  0
  -27.9360  -19.1470   20.0560 C   0  0  0  0  0  3  0  0  0  0  0  0
  -29.7050  -20.7780   20.3270 C   0  0  0  0  0  3  0  0  0  0  0  0
  -28.7910  -21.9410   20.1960 C   0  0  0  0  0  0  0  0  0  0  0  0
  -29.3170  -19.3440   20.2650 C   0  0  0  0  0  0  0  0  0  0  0  0
  -29.1650  -23.5410   20.2980 C   0  0  0  0  0  3  0  0  0  0  0  0
  -28.1080  -24.8140   20.0180 C   0  0  0  0  0  3  0  0  0  0  0  0
  -28.3600  -26.3290   20.2460 O   0  0  0  0  0  0  0  0  0  0  0  0
  -24.6450  -31.9010   23.2940 C   0  0  0  0  0  0  0  0  0  0  0  0
  -27.2890  -27.2890   20.1890 C   0  0  0  0  0  0  0  0  0  0  0  0
  -23.4720  -30.5350   21.6100 C   0  0  0  0  0  3  0  0  0  0  0  0
  -24.9460  -29.0040   20.1680 C   0  0  0  0  0  0  0  0  0  0  0  0
  -26.0250  -30.8250   21.4800 C   0  0  0  0  0  2  0  0  0  0  0  0
  -26.1150  -29.4500   20.7990 C   0  0  0  0  0  0  0  0  0  0  0  0
  -27.2880  -28.6080   20.7920 C   0  0  0  0  0  3  0  0  0  0  0  0
  -26.0930  -26.9380   19.5250 C   0  0  0  0  0  3  0  0  0  0  0  0
  -24.9460  -27.7610   19.5180 C   0  0  0  0  0  3  0  0  0  0  0  0
  -23.7120  -29.8900   20.2200 C   0  0  0  0  0  2  0  0  0  0  0  0
  -24.7330  -31.1070   22.1830 N   0  0  0  0  0  0  0  0  0  0  0  0
  -23.5520  -32.1680   23.8150 O   0  0  0  0  0  0  0  0  0  0  0  0
  -22.7890  -29.5020   22.5420 C   0  0  0  0  0  0  0  0  0  0  0  0
  -21.4650  -29.3200   22.3880 N   0  0  0  0  0  0  0  0  0  0  0  0
  -23.4530  -28.8690   23.3670 O   0  0  0  0  0  0  0  0  0  0  0  0
  -20.9860  -29.8830   21.6990 H   0  0  0  0  0  0  0  0  0  0  0  0
  -18.0830  -28.1030   22.8330 C   0  0  0  0  0  0  0  0  0  0  0  0
  -20.6390  -28.3620   23.1270 C   0  0  0  0  0  3  0  0  0  0  0  0
  -20.7480  -26.9450   22.5170 C   0  0  0  0  0  2  0  0  0  0  0  0
  -19.6540  -26.6470   21.4860 C   0  0  0  0  0  2  0  0  0  0  0  0
  -18.2670  -26.7720   22.1220 C   0  0  0  0  0  2  0  0  0  0  0  0
  -19.1970  -28.8560   23.2910 C   0  0  0  0  0  0  0  0  0  0  0  0
  -18.9700  -30.1010   23.9170 C   0  0  0  0  0  3  0  0  0  0  0  0
  -17.6620  -30.5930   24.0880 C   0  0  0  0  0  3  0  0  0  0  0  0
  -16.5620  -29.8370   23.6450 C   0  0  0  0  0  3  0  0  0  0  0  0
  -16.7730  -28.5930   23.0240 C   0  0  0  0  0  3  0  0  0  0  0  0
  -25.9130  -32.5290   23.9490 C   0  0  0  0  0  3  0  0  0  0  0  0
  -25.6040  -33.9330   24.2650 N   0  0  0  0  0  0  0  0  0  0  0  0
  -25.9160  -34.9780   23.4880 C   0  0  0  0  0  0  0  0  0  0  0  0
  -26.5620  -34.8620   22.4430 O   0  0  0  0  0  0  0  0  0  0  0  0
  -25.0270  -34.0950   25.0770 H   0  0  0  0  0  0  0  0  0  0  0  0
  -24.1600  -36.7550   23.1770 C   0  0  0  0  0  1  0  0  0  0  0  0
  -25.4390  -36.3730   23.9400 C   0  0  0  0  0  3  0  0  0  0  0  0
  -27.5910  -37.3030   24.6730 C   0  0  0  0  0  1  0  0  0  0  0  0
  -26.4580  -37.4310   23.7610 N   0  0  0  0  0  0  0  0  0  0  0  0
  -26.0480  -38.3520   23.8930 H   0  0  0  0  0  0  0  0  0  0  0  0
  -26.3840  -31.7630   25.2470 C   0  0  1  0  0  0  0  0  0  0  0  0
  -25.2550  -31.5360   26.2800 C   0  0  0  0  0  1  0  0  0  0  0  0
  -26.9730  -30.3800   24.8860 C   0  0  0  0  0  1  0  0  0  0  0  0
  -27.5160  -32.5560   25.9410 C   0  0  0  0  0  1  0  0  0  0  0  0
  -30.2820  -18.0050   20.3530 C   0  0  0  0  0  3  0  0  0  0  0  0
  -31.3170  -18.2120   21.4700 C   0  0  0  0  0  0  0  0  0  0  0  0
  -32.4860  -18.7550   21.1470 N   0  0  0  0  0  0  0  0  0  0  0  0
  -31.0720  -17.8830   22.6290 O   0  0  0  0  0  0  0  0  0  0  0  0
  -32.6820  -19.0170   20.1910 H   0  0  0  0  0  0  0  0  0  0  0  0
  -33.1930  -18.9020   21.8530 H   0  0  0  0  0  0  0  0  0  0  0  0
  -29.7170  -16.4300   20.4700 C   0  0  0  0  0  2  0  0  0  0  0  0
  -30.5890  -15.0520   20.1940 C   0  0  0  0  0  0  0  0  0  0  0  0
  -30.4420  -12.7440   19.1640 C   0  0  0  0  0  2  0  0  0  0  0  0
  -29.4590  -12.7970   17.9710 C   0  0  0  0  0  2  0  0  0  0  0  0
  -28.0070  -12.5840   18.4440 C   0  0  0  0  0  2  0  0  0  0  0  0
  -27.6590  -13.4460   19.6860 C   0  0  0  0  0  3  0  0  0  0  0  0
  -28.7580  -13.3730   20.7660 C   0  0  0  0  0  2  0  0  0  0  0  0
  -30.0230  -13.7830   20.1460 N   0  0  0  0  0  0  0  0  0  0  0  0
  -31.7700  -15.1510   19.8420 O   0  0  0  0  0  0  0  0  0  0  0  0
  -25.3070  -14.0080   20.5280 C   0  0  0  0  0  0  0  0  0  0  0  0
  -24.2560  -13.2250   20.9170 C   0  0  0  0  0  0  0  0  0  0  0  0
  -24.7160  -11.8750   20.8320 C   0  0  0  0  0  0  0  0  0  0  0  0
  -26.3380  -13.1370   20.2230 N   0  0  0  0  0  0  0  0  0  0  0  0
  -25.9950  -11.8470   20.4720 N   0  0  0  0  0  0  0  0  0  0  0  0
  -23.9960  -10.6090   21.0150 C   0  0  0  0  0  0  0  0  0  0  0  0
  -24.4280   -9.6400   21.9470 C   0  0  0  0  0  3  0  0  0  0  0  0
  -23.7060   -8.4390   22.1200 C   0  0  0  0  0  3  0  0  0  0  0  0
  -22.5390   -8.1970   21.3570 C   0  0  0  0  0  0  0  0  0  0  0  0
  -22.1260   -9.1540   20.4130 C   0  0  0  0  0  3  0  0  0  0  0  0
  -22.8490  -10.3460   20.2400 C   0  0  0  0  0  3  0  0  0  0  0  0
  -21.7900   -7.0480   21.4370 O   0  0  0  0  0  0  0  0  0  0  0  0
  -21.6890   -6.3340   22.6040 C   0  0  0  0  0  0  0  0  0  0  0  0
  -21.1260   -6.8920   23.7720 C   0  0  0  0  0  3  0  0  0  0  0  0
  -20.9770   -6.1010   24.9290 C   0  0  0  0  0  3  0  0  0  0  0  0
  -21.3830   -4.7530   24.9180 C   0  0  0  0  0  0  0  0  0  0  0  0
  -21.9390   -4.1940   23.7540 C   0  0  0  0  0  3  0  0  0  0  0  0
  -22.0880   -4.9820   22.5990 C   0  0  0  0  0  0  0  0  0  0  0  0
  -22.6050   -4.4330   21.4740 F   0  0  0  0  0  0  0  0  0  0  0  0
  -21.2330   -3.9910   26.0260 F   0  0  0  0  0  0  0  0  0  0  0  0
  -22.8700  -13.6950   21.2520 C   0  0  0  0  0  0  0  0  0  0  0  0
  -22.1760  -12.9820   22.1330 N   0  0  0  0  0  0  0  0  0  0  0  0
  -22.4110  -14.7290   20.7670 O   0  0  0  0  0  0  0  0  0  0  0  0
  -22.5600  -12.1450   22.5460 H   0  0  0  0  0  0  0  0  0  0  0  0
  -21.2460  -13.2780   22.3970 H   0  0  0  0  0  0  0  0  0  0  0  0
  -25.4660  -15.3840   20.3840 N   0  0  0  0  0  0  0  0  0  0  0  0
  -24.7060  -16.0350   20.5460 H   0  0  0  0  0  0  0  0  0  0  0  0
  -26.3030  -15.8310   20.0340 H   0  0  0  0  0  0  0  0  0  0  0  0
  1  2  2  0
  1  3  1  0
  2  5  1  0
  3  6  2  0
  5  7  1  0
  5  4  2  0
  6  4  1  0
  6 50  1  0
  8  9  1  0
  8  7  2  0
 10 21  2  0
 11  9  1  0
 11 16  1  0
 12 20  1  0
 12 22  1  0
 13 19  1  0
 13 15  1  0
 14 20  1  0
 15 14  1  0
 16 15  2  0
 17 11  2  0
 18 17  1  0
 18 13  2  0
 19 12  1  0
 20 10  1  0
 22 24  2  0
 23 22  1  0
 25 23  1  0
 26 35  2  0
 26 31  1  0
 27 23  1  0
 27 31  1  0
 28 27  1  0
 29 30  1  0
 29 28  1  0
 30 26  1  0
 31 32  2  0
 32 33  1  0
 34 33  2  0
 35 34  1  0
 36 10  1  0
 36 37  1  0
 36 46  1  0
 37 40  1  0
 38 42  1  0
 38 37  1  0
 39 38  2  0
 42 41  1  0
 44 45  1  0
 44 42  1  0
 44 43  1  0
 46 49  1  1
 46 47  1  0
 48 46  1  0
 50 56  1  0
 50 51  1  0
 51 53  2  0
 52 51  1  0
 52 55  1  0
 54 52  1  0
 57 56  1  0
 58 63  1  0
 59 60  1  0
 59 58  1  0
 61 60  1  0
 61 68  1  0
 61 62  1  0
 63 57  1  0
 63 62  1  0
 64 57  2  0
 65 66  2  0
 66 85  1  0
 67 66  1  0
 67 70  1  0
 68 69  1  0
 68 65  1  0
 69 67  2  0
 70 71  1  0
 71 72  2  0
 73 76  1  0
 73 72  1  0
 74 73  2  0
 75 74  1  0
 75 70  2  0
 76 77  1  0
 77 78  1  0
 78 79  2  0
 80 79  1  0
 80 84  1  0
 81 80  2  0
 82 77  2  0
 82 81  1  0
 83 82  1  0
 85 86  1  0
 86 89  1  0
 86 88  1  0
 87 85  2  0
 90 65  1  0
 90 91  1  0
 92 90  1  0
M  ISO  4   8 101   9 101  56 100  57 100
M  END
>  <TORSDO>  (91) 
F 21

>  <SCORE>  (91) 
-13.017

>  <name>  (91) 
91

>  <ligand_id>  (91) 
91

>  <original_smiles>  (91) 
[H]c1c([H])c([H])c2c(c1[H])C([H])([H])C([H])([H])C([H])([H])C2([H])N([H])C(=O)C1([H])N(C(=O)C([H])(N([H])C(=O)C([H])(N([H])C([H])([H])[H])C([H])([H])[H])C(C([H])([H])[H])(C([H])([H])[H])C([H])([H])[H])C([H])([H])c2c([H])c(OC([H])([H])C([H])([H])c3c([H])c([H])c([H])c(C([H])(C(=O)N([H])[H])C([H])([H])C(=O)N4C([H])([H])C([H])([H])C([H])([H])C([H])(n5nc(-c6c([H])c([H])c(Oc7c([H])c([H])c(F)c([H])c7F)c([H])c6[H])c(C(=O)N([H])[H])c5N([H])[H])C4([H])[H])c3[H])c([H])c([H])c2C1([H])[H]

>  <smiles>  (91) 
[H]c1c([H])c([H])c2c(c1[H])C([H])([H])C([H])([H])C([H])([H])C2([H])N([H])C(=O)C1([H])N(C(=O)C([H])(N([H])C(=O)C([H])(N([H])C([H])([H])[H])C([H])([H])[H])C(C([H])([H])[H])(C([H])([H])[H])C([H])([H])[H])C([H])([H])c2c([H])c(OC([H])([H])C([H])([H])c3c([H])c([H])c([H])c(C([H])(C(=O)N([H])[H])C([H])([H])C(=O)N4C([H])([H])C([H])([H])C([H])([H])C([H])(n5nc(-c6c([H])c([H])c(Oc7c([H])c([H])c(F)c([H])c7F)c([H])c6[H])c(C(=O)N([H])[H])c5N([H])[H])C4([H])[H])c3[H])c([H])c([H])c2C1([H])[H]

$$$$
92:0:0
     RDKit          3D

 95103  0  0  1  0  0  0  0  0999 V2000
  -28.7990  -22.3010   18.9610 C   0  0  0  0  0  3  0  0  0  0  0  0
  -28.4720  -23.7370   19.0240 C   0  0  0  0  0  3  0  0  0  0  0  0
  -29.1010  -22.2250   21.2490 C   0  0  0  0  0  3  0  0  0  0  0  0
  -29.1610  -21.4080   20.0500 C   0  0  0  0  0  0  0  0  0  0  0  0
  -28.7530  -23.6680   21.3170 C   0  0  0  0  0  0  0  0  0  0  0  0
  -28.4130  -24.5560   20.2120 C   0  0  0  0  0  0  0  0  0  0  0  0
  -28.7860  -24.2610   22.5740 N   0  0  0  0  0  0  0  0  0  0  0  0
  -28.6240  -23.6350   23.3550 H   0  0  0  0  0  0  0  0  0  0  0  0
  -28.2460  -25.1170   22.6410 H   0  0  0  0  0  0  0  0  0  0  0  0
  -28.3330  -26.0660   20.2640 O   0  0  0  0  0  0  0  0  0  0  0  0
  -24.6260  -31.8480   23.2110 C   0  0  0  0  0  0  0  0  0  0  0  0
  -27.2270  -27.0320   20.2360 C   0  0  0  0  0  0  0  0  0  0  0  0
  -23.4340  -30.4350   21.5780 C   0  0  0  0  0  3  0  0  0  0  0  0
  -24.8890  -28.8240   20.1780 C   0  0  0  0  0  0  0  0  0  0  0  0
  -25.9910  -30.6760   21.4260 C   0  0  0  0  0  2  0  0  0  0  0  0
  -26.0670  -29.2650   20.7930 C   0  0  0  0  0  0  0  0  0  0  0  0
  -27.2270  -28.3900   20.8010 C   0  0  0  0  0  3  0  0  0  0  0  0
  -26.0170  -26.7100   19.5810 C   0  0  0  0  0  3  0  0  0  0  0  0
  -24.8810  -27.5630   19.5530 C   0  0  0  0  0  3  0  0  0  0  0  0
  -23.6650  -29.7350   20.2110 C   0  0  0  0  0  2  0  0  0  0  0  0
  -24.7050  -31.0140   22.1250 N   0  0  0  0  0  0  0  0  0  0  0  0
  -23.5370  -32.1380   23.7290 O   0  0  0  0  0  0  0  0  0  0  0  0
  -22.7450  -29.4480   22.5550 C   0  0  0  0  0  0  0  0  0  0  0  0
  -21.4150  -29.2850   22.4320 N   0  0  0  0  0  0  0  0  0  0  0  0
  -23.4130  -28.8270   23.3850 O   0  0  0  0  0  0  0  0  0  0  0  0
  -20.9280  -29.8370   21.7410 H   0  0  0  0  0  0  0  0  0  0  0  0
  -18.0310  -28.0960   22.9510 C   0  0  0  0  0  0  0  0  0  0  0  0
  -20.5920  -28.3550   23.2100 C   0  0  0  0  0  3  0  0  0  0  0  0
  -20.6870  -26.9190   22.6410 C   0  0  0  0  0  2  0  0  0  0  0  0
  -19.5820  -26.5970   21.6300 C   0  0  0  0  0  2  0  0  0  0  0  0
  -18.2020  -26.7470   22.2760 C   0  0  0  0  0  2  0  0  0  0  0  0
  -19.1520  -28.8590   23.3740 C   0  0  0  0  0  0  0  0  0  0  0  0
  -18.9350  -30.1250   23.9630 C   0  0  0  0  0  3  0  0  0  0  0  0
  -17.6300  -30.6260   24.1330 C   0  0  0  0  0  3  0  0  0  0  0  0
  -16.5250  -29.8630   23.7210 C   0  0  0  0  0  3  0  0  0  0  0  0
  -16.7250  -28.5980   23.1370 C   0  0  0  0  0  3  0  0  0  0  0  0
  -25.8980  -32.4910   23.8420 C   0  0  0  0  0  3  0  0  0  0  0  0
  -25.5830  -33.8920   24.1720 N   0  0  0  0  0  0  0  0  0  0  0  0
  -25.9140  -34.9490   23.4200 C   0  0  0  0  0  0  0  0  0  0  0  0
  -26.5850  -34.8490   22.3890 O   0  0  0  0  0  0  0  0  0  0  0  0
  -24.9890  -34.0440   24.9750 H   0  0  0  0  0  0  0  0  0  0  0  0
  -24.1850  -36.7460   23.0770 C   0  0  0  0  0  1  0  0  0  0  0  0
  -25.4290  -36.3380   23.8840 C   0  0  0  0  0  3  0  0  0  0  0  0
  -27.5650  -37.2250   24.7130 C   0  0  0  0  0  1  0  0  0  0  0  0
  -26.4590  -37.3940   23.7710 N   0  0  0  0  0  0  0  0  0  0  0  0
  -26.0510  -38.3120   23.9220 H   0  0  0  0  0  0  0  0  0  0  0  0
  -26.4060  -31.7310   25.1300 C   0  0  1  0  0  0  0  0  0  0  0  0
  -25.3060  -31.5050   26.1950 C   0  0  0  0  0  1  0  0  0  0  0  0
  -26.9890  -30.3500   24.7570 C   0  0  0  0  0  1  0  0  0  0  0  0
  -27.5540  -32.5290   25.7920 C   0  0  0  0  0  1  0  0  0  0  0  0
  -29.7330  -19.8000   19.7670 C   0  0  0  0  0  3  0  0  0  0  0  0
  -31.2440  -19.9230   19.4150 C   0  0  0  0  0  2  0  0  0  0  0  0
  -31.6090  -20.5940   18.0860 C   0  0  0  0  0  0  0  0  0  0  0  0
  -32.5640  -21.5160   18.1050 N   0  0  0  0  0  0  0  0  0  0  0  0
  -31.0680  -20.2610   17.0310 O   0  0  0  0  0  0  0  0  0  0  0  0
  -32.9990  -21.7800   18.9800 H   0  0  0  0  0  0  0  0  0  0  0  0
  -32.8780  -21.9620   17.2540 H   0  0  0  0  0  0  0  0  0  0  0  0
  -29.6850  -18.2770   20.6320 C   0  0  0  0  0  2  0  0  0  0  0  0
  -29.5650  -16.6250   20.0290 C   0  0  0  0  0  2  0  0  0  0  0  0
  -30.4410  -15.1480   20.1670 C   0  0  0  0  0  0  0  0  0  0  0  0
  -30.3890  -12.7340   19.2800 C   0  0  0  0  0  2  0  0  0  0  0  0
  -29.4340  -12.6120   18.0650 C   0  0  0  0  0  2  0  0  0  0  0  0
  -27.9860  -12.3650   18.5250 C   0  0  0  0  0  2  0  0  0  0  0  0
  -27.5720  -13.3080   19.6830 C   0  0  0  0  0  3  0  0  0  0  0  0
  -28.6450  -13.3860   20.7880 C   0  0  0  0  0  2  0  0  0  0  0  0
  -29.8950  -13.8430   20.1620 N   0  0  0  0  0  0  0  0  0  0  0  0
  -31.6620  -15.1740   19.9720 O   0  0  0  0  0  0  0  0  0  0  0  0
  -25.2100  -13.8670   20.4820 C   0  0  0  0  0  0  0  0  0  0  0  0
  -24.1550  -13.0870   20.8680 C   0  0  0  0  0  0  0  0  0  0  0  0
  -24.6250  -11.7380   20.8250 C   0  0  0  0  0  0  0  0  0  0  0  0
  -26.2500  -12.9950   20.2150 N   0  0  0  0  0  0  0  0  0  0  0  0
  -25.9110  -11.7080   20.4910 N   0  0  0  0  0  0  0  0  0  0  0  0
  -23.9040  -10.4720   21.0250 C   0  0  0  0  0  0  0  0  0  0  0  0
  -24.3520   -9.5020   21.9480 C   0  0  0  0  0  3  0  0  0  0  0  0
  -23.6280   -8.3040   22.1360 C   0  0  0  0  0  3  0  0  0  0  0  0
  -22.4420   -8.0680   21.4000 C   0  0  0  0  0  0  0  0  0  0  0  0
  -22.0120   -9.0280   20.4660 C   0  0  0  0  0  3  0  0  0  0  0  0
  -22.7370  -10.2160   20.2760 C   0  0  0  0  0  3  0  0  0  0  0  0
  -21.6890   -6.9230   21.4970 O   0  0  0  0  0  0  0  0  0  0  0  0
  -21.6620   -6.1740   22.6460 C   0  0  0  0  0  0  0  0  0  0  0  0
  -21.2560   -6.7230   23.8830 C   0  0  0  0  0  3  0  0  0  0  0  0
  -21.1740   -5.9020   25.0250 C   0  0  0  0  0  3  0  0  0  0  0  0
  -21.4920   -4.5340   24.9330 C   0  0  0  0  0  0  0  0  0  0  0  0
  -21.8910   -3.9830   23.7020 C   0  0  0  0  0  3  0  0  0  0  0  0
  -21.9720   -4.8010   22.5610 C   0  0  0  0  0  0  0  0  0  0  0  0
  -22.3370   -4.2640   21.3730 F   0  0  0  0  0  0  0  0  0  0  0  0
  -21.4070   -3.7410   26.0270 F   0  0  0  0  0  0  0  0  0  0  0  0
  -22.7620  -13.5590   21.1630 C   0  0  0  0  0  0  0  0  0  0  0  0
  -22.0470  -12.8570   22.0360 N   0  0  0  0  0  0  0  0  0  0  0  0
  -22.3140  -14.5850   20.6510 O   0  0  0  0  0  0  0  0  0  0  0  0
  -22.4230  -12.0280   22.4710 H   0  0  0  0  0  0  0  0  0  0  0  0
  -21.1120  -13.1560   22.2750 H   0  0  0  0  0  0  0  0  0  0  0  0
  -25.3660  -15.2400   20.3070 N   0  0  0  0  0  0  0  0  0  0  0  0
  -24.6010  -15.8910   20.4400 H   0  0  0  0  0  0  0  0  0  0  0  0
  -26.2130  -15.6830   19.9730 H   0  0  0  0  0  0  0  0  0  0  0  0
  1  2  2  0
  1  4  1  0
  2  6  1  0
  3  5  1  0
  4  3  2  0
  5  7  1  0
  6 10  1  0
  6  5  2  0
  7  9  1  0
  7  8  1  0
 11 22  2  0
 12 10  1  0
 12 17  1  0
 13 21  1  0
 13 23  1  0
 14 20  1  0
 14 16  1  0
 15 21  1  0
 16 17  2  0
 16 15  1  0
 18 12  2  0
 19 18  1  0
 19 14  2  0
 20 13  1  0
 21 11  1  0
 23 25  2  0
 24 23  1  0
 26 24  1  0
 27 36  2  0
 27 32  1  0
 28 24  1  0
 28 32  1  0
 29 28  1  0
 30 31  1  0
 30 29  1  0
 31 27  1  0
 32 33  2  0
 33 34  1  0
 35 34  2  0
 36 35  1  0
 37 11  1  0
 37 38  1  0
 37 47  1  0
 38 41  1  0
 39 43  1  0
 39 38  1  0
 40 39  2  0
 43 42  1  0
 45 43  1  0
 45 46  1  0
 45 44  1  0
 47 50  1  1
 47 48  1  0
 49 47  1  0
 51 52  1  0
 51  4  1  0
 51 58  1  0
 53 54  1  0
 53 52  1  0
 54 56  1  0
 55 53  2  0
 57 54  1  0
 59 60  1  0
 59 58  1  0
 61 66  1  0
 62 63  1  0
 62 61  1  0
 64 63  1  0
 64 71  1  0
 64 65  1  0
 66 60  1  0
 66 65  1  0
 67 60  2  0
 68 69  2  0
 69 88  1  0
 70 69  1  0
 70 73  1  0
 71 68  1  0
 71 72  1  0
 72 70  2  0
 73 74  1  0
 74 75  2  0
 76 79  1  0
 76 75  1  0
 77 76  2  0
 78 77  1  0
 78 73  2  0
 79 80  1  0
 80 81  1  0
 81 82  2  0
 83 82  1  0
 83 87  1  0
 84 83  2  0
 85 80  2  0
 85 84  1  0
 86 85  1  0
 88 89  1  0
 89 92  1  0
 89 91  1  0
 90 88  2  0
 93 94  1  0
 93 68  1  0
 95 93  1  0
M  ISO  4   6 101  10 101  59 100  60 100
M  END
>  <TORSDO>  (92) 
F 22

>  <SCORE>  (92) 
-15.192

>  <name>  (92) 
92

>  <ligand_id>  (92) 
92

>  <original_smiles>  (92) 
[H]c1c([H])c([H])c2c(c1[H])C([H])([H])C([H])([H])C([H])([H])C2([H])N([H])C(=O)C1([H])N(C(=O)C([H])(N([H])C(=O)C([H])(N([H])C([H])([H])[H])C([H])([H])[H])C(C([H])([H])[H])(C([H])([H])[H])C([H])([H])[H])C([H])([H])c2c([H])c(Oc3c([H])c([H])c(C([H])(C([H])([H])C(=O)N([H])[H])C([H])([H])C([H])([H])C(=O)N4C([H])([H])C([H])([H])C([H])([H])C([H])(n5nc(-c6c([H])c([H])c(Oc7c([H])c([H])c(F)c([H])c7F)c([H])c6[H])c(C(=O)N([H])[H])c5N([H])[H])C4([H])[H])c([H])c3N([H])[H])c([H])c([H])c2C1([H])[H]

>  <smiles>  (92) 
[H]c1c([H])c([H])c2c(c1[H])C([H])([H])C([H])([H])C([H])([H])C2([H])N([H])C(=O)C1([H])N(C(=O)C([H])(N([H])C(=O)C([H])(N([H])C([H])([H])[H])C([H])([H])[H])C(C([H])([H])[H])(C([H])([H])[H])C([H])([H])[H])C([H])([H])c2c([H])c(Oc3c([H])c([H])c(C([H])(C([H])([H])C(=O)N([H])[H])C([H])([H])C([H])([H])C(=O)N4C([H])([H])C([H])([H])C([H])([H])C([H])(n5nc(-c6c([H])c([H])c(Oc7c([H])c([H])c(F)c([H])c7F)c([H])c6[H])c(C(=O)N([H])[H])c5N([H])[H])C4([H])[H])c([H])c3N([H])[H])c([H])c([H])c2C1([H])[H]

$$$$
93:0:0
     RDKit          3D

 95104  0  0  1  0  0  0  0  0999 V2000
  -30.3140  -23.6590   20.8280 C   0  0  0  0  0  3  0  0  0  0  0  0
  -28.6740  -24.2620   22.5100 C   0  0  0  0  0  3  0  0  0  0  0  0
  -29.6290  -23.3500   22.0250 C   0  0  0  0  0  0  0  0  0  0  0  0
  -30.0400  -24.8560   20.1200 C   0  0  0  0  0  0  0  0  0  0  0  0
  -29.0180  -25.7410   20.5790 C   0  0  0  0  0  0  0  0  0  0  0  0
  -28.3580  -25.4350   21.8040 C   0  0  0  0  0  0  0  0  0  0  0  0
  -30.8990  -25.1560   18.8930 C   0  0  0  0  0  1  0  0  0  0  0  0
  -27.4290  -26.2580   22.3440 F   0  0  0  0  0  0  0  0  0  0  0  0
  -29.9380  -22.1450   22.8450 C   0  0  0  0  0  0  0  0  0  0  0  0
  -29.6630  -22.0910   24.0500 O   0  0  0  0  0  0  0  0  0  0  0  0
  -30.5580  -20.9230   22.1530 C   0  0  0  0  0  2  0  0  0  0  0  0
  -30.3590  -19.6110   22.9640 C   0  0  0  0  0  2  0  0  0  0  0  0
  -31.1480  -14.6870   20.0690 C   0  0  0  0  0  0  0  0  0  0  0  0
  -30.6640  -12.6350   18.7870 C   0  0  0  0  0  2  0  0  0  0  0  0
  -29.6510  -12.9230   17.6630 C   0  0  0  0  0  2  0  0  0  0  0  0
  -28.2060  -12.8080   18.1870 C   0  0  0  0  0  2  0  0  0  0  0  0
  -27.9820  -13.5870   19.5120 C   0  0  0  0  0  3  0  0  0  0  0  0
  -29.0990  -13.2820   20.5320 C   0  0  0  0  0  2  0  0  0  0  0  0
  -30.3920  -13.5670   19.8930 N   0  0  0  0  0  0  0  0  0  0  0  0
  -32.2020  -14.8710   19.4490 O   0  0  0  0  0  0  0  0  0  0  0  0
  -29.8730  -18.1100   20.9450 C   0  0  0  0  0  2  0  0  0  0  0  0
  -30.6130  -17.0340   23.0050 C   0  0  0  0  0  2  0  0  0  0  0  0
  -30.4700  -16.9760   20.1000 C   0  0  0  0  0  2  0  0  0  0  0  0
  -31.1140  -15.7990   22.2070 C   0  0  0  0  0  2  0  0  0  0  0  0
  -30.7340  -18.3290   22.1890 C   0  0  0  0  0  3  0  0  0  0  0  0
  -30.6130  -15.6900   20.8160 N   0  0  0  0  0  0  0  0  0  0  0  0
  -25.6620  -14.2250   20.4240 C   0  0  0  0  0  0  0  0  0  0  0  0
  -24.5940  -13.4670   20.8190 C   0  0  0  0  0  0  0  0  0  0  0  0
  -24.9990  -12.1050   20.6740 C   0  0  0  0  0  0  0  0  0  0  0  0
  -26.6560  -13.3260   20.0680 N   0  0  0  0  0  0  0  0  0  0  0  0
  -26.2630  -12.0410   20.2730 N   0  0  0  0  0  0  0  0  0  0  0  0
  -24.2410  -10.8590   20.8460 C   0  0  0  0  0  0  0  0  0  0  0  0
  -24.6570   -9.8590   21.7510 C   0  0  0  0  0  3  0  0  0  0  0  0
  -23.9020   -8.6770   21.9140 C   0  0  0  0  0  3  0  0  0  0  0  0
  -22.7150   -8.4860   21.1670 C   0  0  0  0  0  0  0  0  0  0  0  0
  -22.3150   -9.4750   20.2500 C   0  0  0  0  0  3  0  0  0  0  0  0
  -23.0700  -10.6480   20.0870 C   0  0  0  0  0  3  0  0  0  0  0  0
  -21.9310   -7.3590   21.2390 O   0  0  0  0  0  0  0  0  0  0  0  0
  -21.8070   -6.6410   22.4000 C   0  0  0  0  0  0  0  0  0  0  0  0
  -21.3490   -7.2330   23.5960 C   0  0  0  0  0  3  0  0  0  0  0  0
  -21.1660   -6.4410   24.7490 C   0  0  0  0  0  3  0  0  0  0  0  0
  -21.4370   -5.0620   24.7070 C   0  0  0  0  0  0  0  0  0  0  0  0
  -21.8900   -4.4680   23.5150 C   0  0  0  0  0  3  0  0  0  0  0  0
  -22.0740   -5.2560   22.3650 C   0  0  0  0  0  0  0  0  0  0  0  0
  -22.4900   -4.6770   21.2130 F   0  0  0  0  0  0  0  0  0  0  0  0
  -21.2550   -4.2990   25.8110 F   0  0  0  0  0  0  0  0  0  0  0  0
  -23.2380  -13.9730   21.2220 C   0  0  0  0  0  0  0  0  0  0  0  0
  -22.5640  -13.2720   22.1270 N   0  0  0  0  0  0  0  0  0  0  0  0
  -22.7860  -15.0230   20.7670 O   0  0  0  0  0  0  0  0  0  0  0  0
  -22.9430  -12.4240   22.5210 H   0  0  0  0  0  0  0  0  0  0  0  0
  -21.6550  -13.5900   22.4310 H   0  0  0  0  0  0  0  0  0  0  0  0
  -25.8610  -15.5980   20.3170 N   0  0  0  0  0  0  0  0  0  0  0  0
  -25.1290  -16.2670   20.5330 H   0  0  0  0  0  0  0  0  0  0  0  0
  -26.7140  -16.0340   19.9870 H   0  0  0  0  0  0  0  0  0  0  0  0
  -28.7320  -26.8840   19.8440 O   0  0  0  0  0  0  0  0  0  0  0  0
  -24.7230  -31.7380   23.2180 C   0  0  0  0  0  0  0  0  0  0  0  0
  -27.5170  -27.5310   19.9400 C   0  0  0  0  0  0  0  0  0  0  0  0
  -23.5480  -30.3570   21.5340 C   0  0  0  0  0  3  0  0  0  0  0  0
  -25.0450  -28.9170   20.0460 C   0  0  0  0  0  0  0  0  0  0  0  0
  -26.0560  -30.8170   21.3250 C   0  0  0  0  0  2  0  0  0  0  0  0
  -26.1870  -29.4730   20.6360 C   0  0  0  0  0  0  0  0  0  0  0  0
  -27.4240  -28.7890   20.5800 C   0  0  0  0  0  3  0  0  0  0  0  0
  -26.3590  -26.9770   19.3530 C   0  0  0  0  0  3  0  0  0  0  0  0
  -25.1250  -27.6630   19.4070 C   0  0  0  0  0  3  0  0  0  0  0  0
  -23.7690  -29.7280   20.1310 C   0  0  0  0  0  2  0  0  0  0  0  0
  -24.7930  -30.9830   22.0870 N   0  0  0  0  0  0  0  0  0  0  0  0
  -23.6370  -31.9570   23.7770 O   0  0  0  0  0  0  0  0  0  0  0  0
  -22.9390  -29.2830   22.4620 C   0  0  0  0  0  0  0  0  0  0  0  0
  -21.6250  -29.0470   22.3160 N   0  0  0  0  0  0  0  0  0  0  0  0
  -23.6430  -28.6630   23.2640 O   0  0  0  0  0  0  0  0  0  0  0  0
  -21.1140  -29.6000   21.6410 H   0  0  0  0  0  0  0  0  0  0  0  0
  -18.3150  -27.6460   22.7060 C   0  0  0  0  0  0  0  0  0  0  0  0
  -20.8460  -28.0540   23.0550 C   0  0  0  0  0  3  0  0  0  0  0  0
  -21.0490  -26.6380   22.4630 C   0  0  0  0  0  2  0  0  0  0  0  0
  -19.9980  -26.2660   21.4130 C   0  0  0  0  0  2  0  0  0  0  0  0
  -18.5930  -26.3170   22.0200 C   0  0  0  0  0  2  0  0  0  0  0  0
  -19.3750  -28.4680   23.1760 C   0  0  0  0  0  0  0  0  0  0  0  0
  -19.0630  -29.7080   23.7730 C   0  0  0  0  0  3  0  0  0  0  0  0
  -17.7260  -30.1250   23.9120 C   0  0  0  0  0  3  0  0  0  0  0  0
  -16.6820  -29.3030   23.4530 C   0  0  0  0  0  3  0  0  0  0  0  0
  -16.9780  -28.0660   22.8560 C   0  0  0  0  0  3  0  0  0  0  0  0
  -25.9970  -32.3830   23.8520 C   0  0  0  0  0  3  0  0  0  0  0  0
  -26.5530  -31.5760   25.0890 C   0  0  1  0  0  0  0  0  0  0  0  0
  -25.4800  -31.2610   26.1600 C   0  0  0  0  0  1  0  0  0  0  0  0
  -27.1720  -30.2340   24.6280 C   0  0  0  0  0  1  0  0  0  0  0  0
  -27.6840  -32.3810   25.7730 C   0  0  0  0  0  1  0  0  0  0  0  0
  -25.6500  -33.7560   24.2410 N   0  0  0  0  0  0  0  0  0  0  0  0
  -25.9590  -34.8470   23.5290 C   0  0  0  0  0  0  0  0  0  0  0  0
  -26.6360  -34.8040   22.4970 O   0  0  0  0  0  0  0  0  0  0  0  0
  -25.0440  -33.8600   25.0420 H   0  0  0  0  0  0  0  0  0  0  0  0
  -24.1850  -36.6060   23.2260 C   0  0  0  0  0  1  0  0  0  0  0  0
  -25.4280  -36.2000   24.0360 C   0  0  0  0  0  3  0  0  0  0  0  0
  -27.5330  -37.1020   24.9220 C   0  0  0  0  0  1  0  0  0  0  0  0
  -26.4290  -37.2880   23.9850 N   0  0  0  0  0  0  0  0  0  0  0  0
  -25.9940  -38.1870   24.1720 H   0  0  0  0  0  0  0  0  0  0  0  0
  1  3  1  0
  3  2  2  0
  3  9  1  0
  4  5  1  0
  4  1  2  0
  5  6  2  0
  6  8  1  0
  6  2  1  0
  7  4  1  0
  9 10  2  0
 11  9  1  0
 11 12  1  0
 13 26  1  0
 14 19  1  0
 15 16  1  0
 15 14  1  0
 17 16  1  0
 17 30  1  0
 17 18  1  0
 19 13  1  0
 19 18  1  0
 20 13  2  0
 21 25  1  0
 23 26  1  0
 23 21  1  0
 24 22  1  0
 25 12  1  0
 25 22  1  0
 26 24  1  0
 27 28  2  0
 28 47  1  0
 29 28  1  0
 29 32  1  0
 30 31  1  0
 30 27  1  0
 31 29  2  0
 32 33  1  0
 33 34  2  0
 35 38  1  0
 35 34  1  0
 36 35  2  0
 37 36  1  0
 37 32  2  0
 38 39  1  0
 39 40  1  0
 40 41  2  0
 42 41  1  0
 42 46  1  0
 43 42  2  0
 44 39  2  0
 44 43  1  0
 45 44  1  0
 47 48  1  0
 48 51  1  0
 48 50  1  0
 49 47  2  0
 52 27  1  0
 52 53  1  0
 54 52  1  0
 55 57  1  0
 55  5  1  0
 56 67  2  0
 57 62  1  0
 58 66  1  0
 58 68  1  0
 59 65  1  0
 59 61  1  0
 60 66  1  0
 61 60  1  0
 62 61  2  0
 63 64  1  0
 63 57  2  0
 64 59  2  0
 65 58  1  0
 66 56  1  0
 68 70  2  0
 69 68  1  0
 71 69  1  0
 72 81  2  0
 72 77  1  0
 73 69  1  0
 73 77  1  0
 74 73  1  0
 75 76  1  0
 75 74  1  0
 76 72  1  0
 77 78  2  0
 78 79  1  0
 80 79  2  0
 81 80  1  0
 82 56  1  0
 82 87  1  0
 82 83  1  0
 83 86  1  1
 83 84  1  0
 85 83  1  0
 87 90  1  0
 88 92  1  0
 88 87  1  0
 89 88  2  0
 92 91  1  0
 94 92  1  0
 94 95  1  0
 94 93  1  0
M  ISO  4   5 101  13 100  26 100  55 101
M  END
>  <TORSDO>  (93) 
F 19

>  <SCORE>  (93) 
-12.237

>  <name>  (93) 
93

>  <ligand_id>  (93) 
93

>  <original_smiles>  (93) 
[H]c1c([H])c([H])c2c(c1[H])C([H])([H])C([H])([H])C([H])([H])C2([H])N([H])C(=O)C1([H])N(C(=O)C([H])(N([H])C(=O)C([H])(N([H])C([H])([H])[H])C([H])([H])[H])C(C([H])([H])[H])(C([H])([H])[H])C([H])([H])[H])C([H])([H])c2c([H])c(Oc3c(F)c([H])c(C(=O)C([H])([H])C([H])([H])C4([H])C([H])([H])C([H])([H])N(C(=O)N5C([H])([H])C([H])([H])C([H])([H])C([H])(n6nc(-c7c([H])c([H])c(Oc8c([H])c([H])c(F)c([H])c8F)c([H])c7[H])c(C(=O)N([H])[H])c6N([H])[H])C5([H])[H])C([H])([H])C4([H])[H])c([H])c3C([H])([H])[H])c([H])c([H])c2C1([H])[H]

>  <smiles>  (93) 
[H]c1c([H])c([H])c2c(c1[H])C([H])([H])C([H])([H])C([H])([H])C2([H])N([H])C(=O)C1([H])N(C(=O)C([H])(N([H])C(=O)C([H])(N([H])C([H])([H])[H])C([H])([H])[H])C(C([H])([H])[H])(C([H])([H])[H])C([H])([H])[H])C([H])([H])c2c([H])c(Oc3c(F)c([H])c(C(=O)C([H])([H])C([H])([H])C4([H])C([H])([H])C([H])([H])N(C(=O)N5C([H])([H])C([H])([H])C([H])([H])C([H])(n6nc(-c7c([H])c([H])c(Oc8c([H])c([H])c(F)c([H])c8F)c([H])c7[H])c(C(=O)N([H])[H])c6N([H])[H])C5([H])[H])C([H])([H])C4([H])[H])c([H])c3C([H])([H])[H])c([H])c([H])c2C1([H])[H]

$$$$
94:0:0
     RDKit          3D

104113  0  0  1  0  0  0  0  0999 V2000
  -29.7190  -22.3660   23.7410 C   0  0  0  0  0  2  0  0  0  0  0  0
  -31.6260  -22.8890   22.0880 C   0  0  0  0  0  2  0  0  0  0  0  0
  -29.1900  -21.3650   22.6870 C   0  0  0  0  0  2  0  0  0  0  0  0
  -31.0210  -21.8210   21.1390 C   0  0  0  0  0  2  0  0  0  0  0  0
  -30.6780  -23.4510   23.1830 C   0  0  0  0  0  3  0  0  0  0  0  0
  -30.2920  -20.7610   21.8880 N   0  0  2  0  0  4  0  0  0  0  0  0
  -30.9400  -20.4110   22.5790 H   0  0  0  0  0  0  0  0  0  0  0  0
  -30.0000  -24.7190   22.7780 N   0  0  0  0  0  4  0  0  0  0  0  0
  -29.0000  -24.6240   22.8780 H   0  0  0  0  0  0  0  0  0  0  0  0
  -30.1860  -24.8790   21.7980 H   0  0  0  0  0  0  0  0  0  0  0  0
  -30.4550  -25.9380   23.5130 C   0  0  0  0  0  2  0  0  0  0  0  0
  -29.6180  -27.1970   23.1900 C   0  0  0  0  0  2  0  0  0  0  0  0
  -30.3170  -28.3790   23.6250 O   0  0  0  0  0  0  0  0  0  0  0  0
  -31.0840  -33.4200   28.5590 C   0  0  0  0  0  0  0  0  0  0  0  0
  -29.6600  -29.2630   24.4560 C   0  0  0  0  0  0  0  0  0  0  0  0
  -28.7800  -32.5710   28.2480 C   0  0  0  0  0  3  0  0  0  0  0  0
  -28.4050  -31.1120   26.1900 C   0  0  0  0  0  0  0  0  0  0  0  0
  -30.4540  -32.5430   26.3110 C   0  0  0  0  0  2  0  0  0  0  0  0
  -29.7290  -31.3200   25.7850 C   0  0  0  0  0  0  0  0  0  0  0  0
  -30.3570  -30.4050   24.9150 C   0  0  0  0  0  3  0  0  0  0  0  0
  -28.3180  -29.0770   24.8580 C   0  0  0  0  0  3  0  0  0  0  0  0
  -27.6930  -29.9910   25.7280 C   0  0  0  0  0  3  0  0  0  0  0  0
  -27.8010  -32.1380   27.1230 C   0  0  0  0  0  2  0  0  0  0  0  0
  -30.1610  -32.8460   27.7350 N   0  0  0  0  0  0  0  0  0  0  0  0
  -30.7890  -33.7580   29.7130 O   0  0  0  0  0  0  0  0  0  0  0  0
  -28.7440  -31.5070   29.3710 C   0  0  0  0  0  0  0  0  0  0  0  0
  -27.6830  -31.5430   30.1920 N   0  0  0  0  0  0  0  0  0  0  0  0
  -29.6360  -30.6610   29.4710 O   0  0  0  0  0  0  0  0  0  0  0  0
  -27.0020  -32.2770   30.0530 H   0  0  0  0  0  0  0  0  0  0  0  0
  -25.3020  -30.7130   32.7830 C   0  0  0  0  0  0  0  0  0  0  0  0
  -27.4110  -30.6160   31.2910 C   0  0  0  0  0  3  0  0  0  0  0  0
  -26.8530  -29.2740   30.7650 C   0  0  0  0  0  2  0  0  0  0  0  0
  -25.3220  -29.2280   30.7350 C   0  0  0  0  0  2  0  0  0  0  0  0
  -24.7500  -29.4540   32.1380 C   0  0  0  0  0  2  0  0  0  0  0  0
  -26.5440  -31.2690   32.3730 C   0  0  0  0  0  0  0  0  0  0  0  0
  -26.9940  -32.4610   32.9800 C   0  0  0  0  0  3  0  0  0  0  0  0
  -26.2320  -33.0930   33.9800 C   0  0  0  0  0  3  0  0  0  0  0  0
  -25.0120  -32.5300   34.3940 C   0  0  0  0  0  3  0  0  0  0  0  0
  -24.5520  -31.3420   33.7970 C   0  0  0  0  0  3  0  0  0  0  0  0
  -32.5460  -33.6980   28.0850 C   0  0  0  0  0  3  0  0  0  0  0  0
  -33.5940  -32.6740   28.6700 C   0  0  1  0  0  0  0  0  0  0  0  0
  -33.5100  -32.5030   30.2040 C   0  0  0  0  0  1  0  0  0  0  0  0
  -33.4110  -31.2820   28.0220 C   0  0  0  0  0  1  0  0  0  0  0  0
  -35.0300  -33.1340   28.3240 C   0  0  0  0  0  1  0  0  0  0  0  0
  -32.8810  -35.0730   28.4800 N   0  0  0  0  0  0  0  0  0  0  0  0
  -32.8300  -36.1320   27.6620 C   0  0  0  0  0  0  0  0  0  0  0  0
  -32.5610  -36.0390   26.4610 O   0  0  0  0  0  0  0  0  0  0  0  0
  -33.0540  -35.2320   29.4630 H   0  0  0  0  0  0  0  0  0  0  0  0
  -31.8110  -38.2590   28.5340 C   0  0  0  0  0  1  0  0  0  0  0  0
  -33.1290  -37.5140   28.2720 C   0  0  0  0  0  3  0  0  0  0  0  0
  -35.3770  -37.8390   27.3400 C   0  0  0  0  0  1  0  0  0  0  0  0
  -34.0120  -38.3510   27.4300 N   0  0  0  0  0  0  0  0  0  0  0  0
  -34.0530  -39.3020   27.7860 H   0  0  0  0  0  0  0  0  0  0  0  0
  -30.6190  -18.3240   21.8630 C   0  0  0  0  0  1  0  0  0  0  0  0
  -29.9590  -19.5030   21.1220 C   0  0  0  0  0  3  0  0  0  0  0  0
  -31.6080  -19.7160   17.1330 C   0  0  0  0  0  3  0  0  0  0  0  0
  -30.6340  -18.3780   18.8700 C   0  0  0  0  0  3  0  0  0  0  0  0
  -31.1740  -18.4480   17.5630 C   0  0  0  0  0  0  0  0  0  0  0  0
  -31.2200  -20.9170   17.7770 C   0  0  0  0  0  0  0  0  0  0  0  0
  -30.3100  -19.5620   19.6030 C   0  0  0  0  0  0  0  0  0  0  0  0
  -30.3680  -20.8120   18.9170 C   0  0  0  0  0  0  0  0  0  0  0  0
  -29.4470  -21.9580   19.3530 C   0  0  0  0  0  1  0  0  0  0  0  0
  -31.4580  -17.2160   16.7100 C   0  0  0  0  0  0  0  0  0  0  0  0
  -31.9540  -16.4520   14.4010 C   0  0  0  0  0  2  0  0  0  0  0  0
  -33.0470  -17.3360   13.7670 C   0  0  0  0  0  2  0  0  0  0  0  0
  -32.4200  -18.5700   13.0910 C   0  0  0  0  0  2  0  0  0  0  0  0
  -31.4320  -19.3110   14.0230 C   0  0  0  0  0  3  0  0  0  0  0  0
  -30.4410  -18.3370   14.6990 C   0  0  0  0  0  2  0  0  0  0  0  0
  -31.2120  -17.2790   15.3700 N   0  0  0  0  0  0  0  0  0  0  0  0
  -32.0570  -16.2680   17.2260 O   0  0  0  0  0  0  0  0  0  0  0  0
  -30.5860  -21.7210   13.7350 C   0  0  0  0  0  0  0  0  0  0  0  0
  -29.9340  -22.3460   12.7140 C   0  0  0  0  0  0  0  0  0  0  0  0
  -29.7400  -21.3490   11.7120 C   0  0  0  0  0  0  0  0  0  0  0  0
  -30.7470  -20.4020   13.3420 N   0  0  0  0  0  0  0  0  0  0  0  0
  -30.1800  -20.1720   12.1330 N   0  0  0  0  0  0  0  0  0  0  0  0
  -29.2140  -21.4610   10.3500 C   0  0  0  0  0  0  0  0  0  0  0  0
  -28.1820  -20.6160    9.8880 C   0  0  0  0  0  3  0  0  0  0  0  0
  -27.6810  -20.7510    8.5770 C   0  0  0  0  0  3  0  0  0  0  0  0
  -28.2080  -21.7410    7.7140 C   0  0  0  0  0  0  0  0  0  0  0  0
  -29.2530  -22.5650    8.1710 C   0  0  0  0  0  3  0  0  0  0  0  0
  -29.7540  -22.4260    9.4750 C   0  0  0  0  0  3  0  0  0  0  0  0
  -27.7980  -21.9310    6.4180 O   0  0  0  0  0  0  0  0  0  0  0  0
  -26.5350  -21.5910    6.0070 C   0  0  0  0  0  0  0  0  0  0  0  0
  -25.3830  -22.0970    6.6460 C   0  0  0  0  0  3  0  0  0  0  0  0
  -24.1050  -21.7780    6.1470 C   0  0  0  0  0  3  0  0  0  0  0  0
  -23.9760  -20.9640    5.0060 C   0  0  0  0  0  0  0  0  0  0  0  0
  -25.1240  -20.4640    4.3660 C   0  0  0  0  0  3  0  0  0  0  0  0
  -26.3990  -20.7790    4.8630 C   0  0  0  0  0  0  0  0  0  0  0  0
  -27.5040  -20.3130    4.2310 F   0  0  0  0  0  0  0  0  0  0  0  0
  -22.7480  -20.6610    4.5210 F   0  0  0  0  0  0  0  0  0  0  0  0
  -29.6060  -23.8070   12.6240 C   0  0  0  0  0  0  0  0  0  0  0  0
  -28.5330  -24.1500   11.9220 N   0  0  0  0  0  0  0  0  0  0  0  0
  -30.2780  -24.6500   13.2200 O   0  0  0  0  0  0  0  0  0  0  0  0
  -27.9760  -23.4520   11.4500 H   0  0  0  0  0  0  0  0  0  0  0  0
  -28.2630  -25.1200   11.8540 H   0  0  0  0  0  0  0  0  0  0  0  0
  -31.0900  -22.1770   14.9430 N   0  0  0  0  0  0  0  0  0  0  0  0
  -31.1590  -23.1800   15.0700 H   0  0  0  0  0  0  0  0  0  0  0  0
  -31.8480  -21.6670   15.3700 H   0  0  0  0  0  0  0  0  0  0  0  0
  -31.8580  -22.1750   17.2340 C   0  0  0  0  0  0  0  0  0  0  0  0
  -32.8030  -22.1250   16.4410 O   0  0  0  0  0  0  0  0  0  0  0  0
  -31.3560  -23.5750   17.6020 C   0  0  0  0  0  2  0  0  0  0  0  0
  -32.2000  -24.2710   18.6930 C   0  0  0  0  0  2  0  0  0  0  0  0
  -31.9180  -25.7370   20.7750 C   0  0  0  0  0  1  0  0  0  0  0  0
  -31.4450  -25.4450   19.3420 C   0  0  0  0  0  2  0  0  0  0  0  0
  2  5  1  0
  3  1  1  0
  4  6  1  0
  4  2  1  0
  5  8  1  0
  5  1  1  0
  6  7  1  1
  6  3  1  0
  8  9  1  0
  8 11  1  0
 10  8  1  0
 12 11  1  0
 12 13  1  0
 13 15  1  0
 14 25  2  0
 15 21  2  0
 15 20  1  0
 16 26  1  0
 17 23  1  0
 18 24  1  0
 19 17  1  0
 19 18  1  0
 20 19  2  0
 21 22  1  0
 22 17  2  0
 23 16  1  0
 24 16  1  0
 24 14  1  0
 26 28  2  0
 26 27  1  0
 29 27  1  0
 30 39  1  0
 31 27  1  0
 31 35  1  0
 32 31  1  0
 33 32  1  0
 33 34  1  0
 34 30  1  0
 35 30  2  0
 35 36  1  0
 36 37  2  0
 37 38  1  0
 39 38  2  0
 40 45  1  0
 40 14  1  0
 40 41  1  0
 41 42  1  1
 43 41  1  0
 44 41  1  0
 45 48  1  0
 46 50  1  0
 46 45  1  0
 47 46  2  0
 50 49  1  0
 51 52  1  0
 52 53  1  0
 52 50  1  0
 55 54  1  0
 55  6  1  0
 56 58  2  0
 56 59  1  0
 57 60  2  0
 58 57  1  0
 59 61  2  0
 60 55  1  0
 61 62  1  0
 61 60  1  0
 63 70  2  0
 63 58  1  0
 64 69  1  0
 65 64  1  0
 66 65  1  0
 67 66  1  0
 67 68  1  0
 68 69  1  0
 69 63  1  0
 71 96  1  0
 72 71  2  0
 73 75  2  0
 73 72  1  0
 74 71  1  0
 74 67  1  0
 75 74  1  0
 76 73  1  0
 77 76  1  0
 78 77  2  0
 79 80  2  0
 79 78  1  0
 80 81  1  0
 81 76  2  0
 82 79  1  0
 83 82  1  0
 83 84  1  0
 85 84  2  0
 86 85  1  0
 87 88  1  0
 87 86  2  0
 88 83  2  0
 89 88  1  0
 90 86  1  0
 91 72  1  0
 91 93  2  0
 92 91  1  0
 94 92  1  0
 95 92  1  0
 96 97  1  0
 96 98  1  0
 99101  1  0
 99 59  1  0
100 99  2  0
101102  1  0
102104  1  0
104103  1  0
M  ISO  4  12 101  13 101  58 100  63 100
M  END
>  <TORSDO>  (94) 
F 25

>  <SCORE>  (94) 
1.746

>  <name>  (94) 
94

>  <ligand_id>  (94) 
94

>  <original_smiles>  (94) 
[H]c1c([H])c([H])c2c(c1[H])C([H])([H])C([H])([H])C([H])([H])C2([H])N([H])C(=O)C1([H])N(C(=O)C([H])(N([H])C(=O)C([H])(N([H])C([H])([H])[H])C([H])([H])[H])C(C([H])([H])[H])(C([H])([H])[H])C([H])([H])[H])C([H])([H])c2c([H])c(OC([H])([H])C([H])([H])[N+]([H])([H])C3([H])C([H])([H])C([H])([H])[N+]([H])(C([H])(c4c([H])c(C(=O)N5C([H])([H])C([H])([H])C([H])([H])C([H])(n6nc(-c7c([H])c([H])c(Oc8c([H])c([H])c(F)c([H])c8F)c([H])c7[H])c(C(=O)N([H])[H])c6N([H])[H])C5([H])[H])c([H])c(C(=O)C([H])([H])C([H])([H])C([H])([H])C([H])([H])[H])c4C([H])([H])[H])C([H])([H])[H])C([H])([H])C3([H])[H])c([H])c([H])c2C1([H])[H]

>  <smiles>  (94) 
[H]c1c([H])c([H])c2c(c1[H])C([H])([H])C([H])([H])C([H])([H])C2([H])N([H])C(=O)C1([H])N(C(=O)C([H])(N([H])C(=O)C([H])(N([H])C([H])([H])[H])C([H])([H])[H])C(C([H])([H])[H])(C([H])([H])[H])C([H])([H])[H])C([H])([H])c2c([H])c(OC([H])([H])C([H])([H])[N+]([H])([H])C3([H])C([H])([H])C([H])([H])[N+]([H])(C([H])(c4c([H])c(C(=O)N5C([H])([H])C([H])([H])C([H])([H])C([H])(n6nc(-c7c([H])c([H])c(Oc8c([H])c([H])c(F)c([H])c8F)c([H])c7[H])c(C(=O)N([H])[H])c6N([H])[H])C5([H])[H])c([H])c(C(=O)C([H])([H])C([H])([H])C([H])([H])C([H])([H])[H])c4C([H])([H])[H])C([H])([H])[H])C([H])([H])C3([H])[H])c([H])c([H])c2C1([H])[H]

$$$$
95:0:0
     RDKit          3D

 92100  0  0  1  0  0  0  0  0999 V2000
  -27.6400  -22.1030   19.6600 C   0  0  0  0  0  3  0  0  0  0  0  0
  -27.4480  -23.5650   19.6410 C   0  0  0  0  0  3  0  0  0  0  0  0
  -29.6110  -22.3330   20.8340 C   0  0  0  0  0  3  0  0  0  0  0  0
  -28.7380  -21.3380   20.2380 C   0  0  0  0  0  0  0  0  0  0  0  0
  -29.4140  -23.8070   20.8380 C   0  0  0  0  0  0  0  0  0  0  0  0
  -28.3130  -24.5590   20.2380 C   0  0  0  0  0  0  0  0  0  0  0  0
  -30.4670  -24.6370   21.5500 C   0  0  0  0  0  1  0  0  0  0  0  0
  -28.7310  -19.6450   20.2660 C   0  0  0  0  0  0  0  0  0  0  0  0
  -27.5850  -19.1930   20.1980 O   0  0  0  0  0  0  0  0  0  0  0  0
  -29.9110  -18.3500   20.2790 C   0  0  0  0  0  3  0  0  0  0  0  0
  -30.6280  -18.5380   19.0060 N   0  0  0  0  0  4  0  0  0  0  0  0
  -30.0170  -18.3530   18.2290 H   0  0  0  0  0  0  0  0  0  0  0  0
  -31.4250  -17.9310   18.9490 H   0  0  0  0  0  0  0  0  0  0  0  0
  -30.9480  -19.4860   18.9310 H   0  0  0  0  0  0  0  0  0  0  0  0
  -29.5110  -16.6440   20.4670 C   0  0  0  0  0  2  0  0  0  0  0  0
  -30.4060  -15.1880   20.2790 C   0  0  0  0  0  0  0  0  0  0  0  0
  -30.3880  -12.7810   19.3630 C   0  0  0  0  0  2  0  0  0  0  0  0
  -29.4510  -12.6740   18.1320 C   0  0  0  0  0  2  0  0  0  0  0  0
  -27.9930  -12.4240   18.5670 C   0  0  0  0  0  2  0  0  0  0  0  0
  -27.5680  -13.3500   19.7350 C   0  0  0  0  0  3  0  0  0  0  0  0
  -28.6250  -13.4090   20.8550 C   0  0  0  0  0  2  0  0  0  0  0  0
  -29.8810  -13.8780   20.2520 N   0  0  0  0  0  0  0  0  0  0  0  0
  -31.6090  -15.2500   19.9900 O   0  0  0  0  0  0  0  0  0  0  0  0
  -25.1950  -13.9000   20.5030 C   0  0  0  0  0  0  0  0  0  0  0  0
  -24.1390  -13.1160   20.8760 C   0  0  0  0  0  0  0  0  0  0  0  0
  -24.6120  -11.7680   20.8340 C   0  0  0  0  0  0  0  0  0  0  0  0
  -26.2400  -13.0300   20.2460 N   0  0  0  0  0  0  0  0  0  0  0  0
  -25.9010  -11.7420   20.5140 N   0  0  0  0  0  0  0  0  0  0  0  0
  -23.8920  -10.5010   21.0230 C   0  0  0  0  0  0  0  0  0  0  0  0
  -24.3260   -9.5370   21.9580 C   0  0  0  0  0  3  0  0  0  0  0  0
  -23.6050   -8.3360   22.1350 C   0  0  0  0  0  3  0  0  0  0  0  0
  -22.4350   -8.0920   21.3770 C   0  0  0  0  0  0  0  0  0  0  0  0
  -22.0200   -9.0450   20.4310 C   0  0  0  0  0  3  0  0  0  0  0  0
  -22.7420  -10.2370   20.2520 C   0  0  0  0  0  3  0  0  0  0  0  0
  -21.6860   -6.9430   21.4630 O   0  0  0  0  0  0  0  0  0  0  0  0
  -21.6240   -6.2090   22.6210 C   0  0  0  0  0  0  0  0  0  0  0  0
  -21.1610   -6.7680   23.8330 C   0  0  0  0  0  3  0  0  0  0  0  0
  -21.0460   -5.9590   24.9810 C   0  0  0  0  0  3  0  0  0  0  0  0
  -21.3860   -4.5940   24.9190 C   0  0  0  0  0  0  0  0  0  0  0  0
  -21.8410   -4.0350   23.7130 C   0  0  0  0  0  3  0  0  0  0  0  0
  -21.9580   -4.8410   22.5660 C   0  0  0  0  0  0  0  0  0  0  0  0
  -22.3760   -4.2930   21.4000 F   0  0  0  0  0  0  0  0  0  0  0  0
  -21.2690   -3.8160   26.0210 F   0  0  0  0  0  0  0  0  0  0  0  0
  -22.7400  -13.5850   21.1550 C   0  0  0  0  0  0  0  0  0  0  0  0
  -22.0230  -12.8870   22.0280 N   0  0  0  0  0  0  0  0  0  0  0  0
  -22.2920  -14.6060   20.6350 O   0  0  0  0  0  0  0  0  0  0  0  0
  -22.3990  -12.0620   22.4720 H   0  0  0  0  0  0  0  0  0  0  0  0
  -21.0840  -13.1820   22.2570 H   0  0  0  0  0  0  0  0  0  0  0  0
  -25.3480  -15.2730   20.3360 N   0  0  0  0  0  0  0  0  0  0  0  0
  -24.5760  -15.9200   20.4630 H   0  0  0  0  0  0  0  0  0  0  0  0
  -26.1910  -15.7270   20.0080 H   0  0  0  0  0  0  0  0  0  0  0  0
  -28.2610  -26.0750   20.1890 O   0  0  0  0  0  0  0  0  0  0  0  0
  -24.6720  -31.8950   23.2230 C   0  0  0  0  0  0  0  0  0  0  0  0
  -27.1810  -27.0720   20.1810 C   0  0  0  0  0  0  0  0  0  0  0  0
  -23.4490  -30.5040   21.5970 C   0  0  0  0  0  3  0  0  0  0  0  0
  -24.8720  -28.9010   20.1620 C   0  0  0  0  0  0  0  0  0  0  0  0
  -26.0070  -30.7240   21.4160 C   0  0  0  0  0  2  0  0  0  0  0  0
  -26.0620  -29.3190   20.7690 C   0  0  0  0  0  0  0  0  0  0  0  0
  -27.2080  -28.4210   20.7610 C   0  0  0  0  0  3  0  0  0  0  0  0
  -25.9680  -26.7890   19.5170 C   0  0  0  0  0  3  0  0  0  0  0  0
  -24.8440  -27.6520   19.5190 C   0  0  0  0  0  3  0  0  0  0  0  0
  -23.6560  -29.8190   20.2190 C   0  0  0  0  0  2  0  0  0  0  0  0
  -24.7310  -31.0670   22.1320 N   0  0  0  0  0  0  0  0  0  0  0  0
  -23.5920  -32.1880   23.7600 O   0  0  0  0  0  0  0  0  0  0  0  0
  -22.7690  -29.5070   22.5700 C   0  0  0  0  0  0  0  0  0  0  0  0
  -21.4390  -29.3380   22.4520 N   0  0  0  0  0  0  0  0  0  0  0  0
  -23.4410  -28.8870   23.3980 O   0  0  0  0  0  0  0  0  0  0  0  0
  -20.9500  -29.8900   21.7610 H   0  0  0  0  0  0  0  0  0  0  0  0
  -18.0640  -28.1220   22.9720 C   0  0  0  0  0  0  0  0  0  0  0  0
  -20.6220  -28.4040   23.2310 C   0  0  0  0  0  3  0  0  0  0  0  0
  -20.7290  -26.9670   22.6710 C   0  0  0  0  0  2  0  0  0  0  0  0
  -19.6290  -26.6290   21.6590 C   0  0  0  0  0  2  0  0  0  0  0  0
  -18.2480  -26.7690   22.3050 C   0  0  0  0  0  2  0  0  0  0  0  0
  -19.1780  -28.8960   23.3920 C   0  0  0  0  0  0  0  0  0  0  0  0
  -18.9500  -30.1590   23.9810 C   0  0  0  0  0  3  0  0  0  0  0  0
  -17.6410  -30.6510   24.1450 C   0  0  0  0  0  3  0  0  0  0  0  0
  -16.5420  -29.8750   23.7370 C   0  0  0  0  0  3  0  0  0  0  0  0
  -16.7550  -28.6110   23.1580 C   0  0  0  0  0  3  0  0  0  0  0  0
  -25.9580  -32.5270   23.8390 C   0  0  0  0  0  3  0  0  0  0  0  0
  -26.4810  -31.7530   25.1110 C   0  0  1  0  0  0  0  0  0  0  0  0
  -25.3970  -31.5180   26.1900 C   0  0  0  0  0  1  0  0  0  0  0  0
  -27.0540  -30.3720   24.7180 C   0  0  0  0  0  1  0  0  0  0  0  0
  -27.6420  -32.5390   25.7640 C   0  0  0  0  0  1  0  0  0  0  0  0
  -25.6520  -33.9250   24.1860 N   0  0  0  0  0  0  0  0  0  0  0  0
  -25.9530  -34.9870   23.4260 C   0  0  0  0  0  0  0  0  0  0  0  0
  -26.5840  -34.8930   22.3720 O   0  0  0  0  0  0  0  0  0  0  0  0
  -25.0860  -34.0710   25.0100 H   0  0  0  0  0  0  0  0  0  0  0  0
  -24.2010  -36.7750   23.1650 C   0  0  0  0  0  1  0  0  0  0  0  0
  -25.4820  -36.3740   23.9130 C   0  0  0  0  0  3  0  0  0  0  0  0
  -27.6480  -37.2700   24.6480 C   0  0  0  0  0  1  0  0  0  0  0  0
  -26.5040  -37.4330   23.7540 N   0  0  0  0  0  0  0  0  0  0  0  0
  -26.1000  -38.3510   23.9200 H   0  0  0  0  0  0  0  0  0  0  0  0
  1  4  1  0
  2  1  2  0
  2  6  1  0
  3  5  1  0
  4  8  1  0
  4  3  2  0
  5  7  1  0
  6  5  2  0
  8 10  1  0
  9  8  2  0
 10 15  1  0
 11 10  1  0
 12 11  1  0
 13 11  1  0
 14 11  1  0
 16 15  1  0
 17 22  1  0
 18 19  1  0
 18 17  1  0
 20 19  1  0
 20 27  1  0
 20 21  1  0
 22 16  1  0
 22 21  1  0
 23 16  2  0
 24 25  2  0
 25 44  1  0
 26 25  1  0
 26 29  1  0
 27 24  1  0
 27 28  1  0
 28 26  2  0
 29 30  1  0
 30 31  2  0
 32 35  1  0
 32 31  1  0
 33 32  2  0
 34 33  1  0
 34 29  2  0
 35 36  1  0
 36 37  1  0
 37 38  2  0
 39 38  1  0
 39 43  1  0
 40 39  2  0
 41 36  2  0
 41 40  1  0
 42 41  1  0
 44 45  1  0
 45 48  1  0
 45 47  1  0
 46 44  2  0
 49 50  1  0
 49 24  1  0
 51 49  1  0
 52  6  1  0
 53 64  2  0
 54 52  1  0
 54 59  1  0
 55 63  1  0
 55 65  1  0
 56 62  1  0
 56 58  1  0
 57 63  1  0
 58 57  1  0
 59 58  2  0
 60 61  1  0
 60 54  2  0
 61 56  2  0
 62 55  1  0
 63 53  1  0
 65 67  2  0
 66 65  1  0
 68 66  1  0
 69 78  2  0
 69 74  1  0
 70 66  1  0
 70 74  1  0
 71 70  1  0
 72 73  1  0
 72 71  1  0
 73 69  1  0
 74 75  2  0
 75 76  1  0
 77 76  2  0
 78 77  1  0
 79 53  1  0
 79 84  1  0
 79 80  1  0
 80 83  1  1
 80 81  1  0
 82 80  1  0
 84 87  1  0
 85 89  1  0
 85 84  1  0
 86 85  2  0
 89 88  1  0
 91 89  1  0
 91 92  1  0
 91 90  1  0
M  ISO  4   6 101  15 100  16 100  52 101
M  END
>  <TORSDO>  (95) 
F 20

>  <SCORE>  (95) 
-15.596

>  <name>  (95) 
95

>  <ligand_id>  (95) 
95

>  <original_smiles>  (95) 
[H]c1c([H])c([H])c2c(c1[H])C([H])([H])C([H])([H])C([H])([H])C2([H])N([H])C(=O)C1([H])N(C(=O)C([H])(N([H])C(=O)C([H])(N([H])C([H])([H])[H])C([H])([H])[H])C(C([H])([H])[H])(C([H])([H])[H])C([H])([H])[H])C([H])([H])c2c([H])c(Oc3c([H])c([H])c(C(=O)C([H])(C([H])([H])C(=O)N4C([H])([H])C([H])([H])C([H])([H])C([H])(n5nc(-c6c([H])c([H])c(Oc7c([H])c([H])c(F)c([H])c7F)c([H])c6[H])c(C(=O)N([H])[H])c5N([H])[H])C4([H])[H])[N+]([H])([H])[H])c([H])c3C([H])([H])[H])c([H])c([H])c2C1([H])[H]

>  <smiles>  (95) 
[H]c1c([H])c([H])c2c(c1[H])C([H])([H])C([H])([H])C([H])([H])C2([H])N([H])C(=O)C1([H])N(C(=O)C([H])(N([H])C(=O)C([H])(N([H])C([H])([H])[H])C([H])([H])[H])C(C([H])([H])[H])(C([H])([H])[H])C([H])([H])[H])C([H])([H])c2c([H])c(Oc3c([H])c([H])c(C(=O)C([H])(C([H])([H])C(=O)N4C([H])([H])C([H])([H])C([H])([H])C([H])(n5nc(-c6c([H])c([H])c(Oc7c([H])c([H])c(F)c([H])c7F)c([H])c6[H])c(C(=O)N([H])[H])c5N([H])[H])C4([H])[H])[N+]([H])([H])[H])c([H])c3C([H])([H])[H])c([H])c([H])c2C1([H])[H]

$$$$
