0:0:0
     RDKit          3D

 93101  0  0  1  0  0  0  0  0999 V2000
  -29.4410  -24.3370   22.5460 C   0  0  0  0  0  3  0  0  0  0  0  0
  -28.9440  -24.5370   19.8040 C   0  0  0  0  0  3  0  0  0  0  0  0
  -29.8070  -23.2610   21.7100 C   0  0  0  0  0  0  0  0  0  0  0  0
  -28.9330  -25.5410   22.0180 C   0  0  0  0  0  0  0  0  0  0  0  0
  -29.5040  -23.3450   20.3230 C   0  0  0  0  0  0  0  0  0  0  0  0
  -28.6970  -25.6530   20.6270 C   0  0  0  0  0  0  0  0  0  0  0  0
  -28.7300  -26.7200   22.9500 C   0  0  0  0  0  1  0  0  0  0  0  0
  -29.7830  -22.2180   19.3360 C   0  0  0  0  0  1  0  0  0  0  0  0
  -30.4820  -22.1050   22.3840 C   0  0  0  0  0  0  0  0  0  0  0  0
  -30.0270  -21.5810   23.4040 O   0  0  0  0  0  0  0  0  0  0  0  0
  -31.8720  -21.6810   21.8730 C   0  0  0  0  0  2  0  0  0  0  0  0
  -32.2190  -20.1790   22.0390 C   0  0  0  0  0  2  0  0  0  0  0  0
  -31.1670  -19.2340   21.4220 C   0  0  0  0  0  2  0  0  0  0  0  0
  -31.5280  -17.7400   21.4060 C   0  0  0  0  0  2  0  0  0  0  0  0
  -30.2830  -16.9120   21.0190 C   0  0  0  0  0  2  0  0  0  0  0  0
  -30.2690  -15.4460   21.4970 C   0  0  0  0  0  2  0  0  0  0  0  0
  -30.6880  -14.4360   20.4100 C   0  0  0  0  0  0  0  0  0  0  0  0
  -30.3020  -12.3810   19.0900 C   0  0  0  0  0  2  0  0  0  0  0  0
  -29.3050  -12.6110   17.9370 C   0  0  0  0  0  2  0  0  0  0  0  0
  -27.8490  -12.4790   18.4200 C   0  0  0  0  0  2  0  0  0  0  0  0
  -27.5720  -13.2810   19.7180 C   0  0  0  0  0  3  0  0  0  0  0  0
  -28.6560  -12.9620   20.7720 C   0  0  0  0  0  2  0  0  0  0  0  0
  -29.9670  -13.3010   20.1880 N   0  0  0  0  0  0  0  0  0  0  0  0
  -31.7000  -14.7050   19.7530 O   0  0  0  0  0  0  0  0  0  0  0  0
  -25.1850  -13.9010   20.4690 C   0  0  0  0  0  0  0  0  0  0  0  0
  -24.1250  -13.1310   20.8640 C   0  0  0  0  0  0  0  0  0  0  0  0
  -24.5810  -11.7770   20.8200 C   0  0  0  0  0  0  0  0  0  0  0  0
  -26.2240  -13.0170   20.2210 N   0  0  0  0  0  0  0  0  0  0  0  0
  -25.8640  -11.7350   20.4850 N   0  0  0  0  0  0  0  0  0  0  0  0
  -23.8600  -10.5150   21.0230 C   0  0  0  0  0  0  0  0  0  0  0  0
  -24.3270   -9.5330   21.9230 C   0  0  0  0  0  3  0  0  0  0  0  0
  -23.6070   -8.3340   22.1140 C   0  0  0  0  0  3  0  0  0  0  0  0
  -22.4040   -8.1100   21.4040 C   0  0  0  0  0  0  0  0  0  0  0  0
  -21.9560   -9.0790   20.4890 C   0  0  0  0  0  3  0  0  0  0  0  0
  -22.6780  -10.2700   20.2980 C   0  0  0  0  0  3  0  0  0  0  0  0
  -21.6530   -6.9650   21.5070 O   0  0  0  0  0  0  0  0  0  0  0  0
  -21.6600   -6.1990   22.6460 C   0  0  0  0  0  0  0  0  0  0  0  0
  -21.3250   -6.7360   23.9080 C   0  0  0  0  0  3  0  0  0  0  0  0
  -21.2800   -5.8980   25.0400 C   0  0  0  0  0  3  0  0  0  0  0  0
  -21.5570   -4.5240   24.9110 C   0  0  0  0  0  0  0  0  0  0  0  0
  -21.8850   -3.9860   23.6540 C   0  0  0  0  0  3  0  0  0  0  0  0
  -21.9310   -4.8220   22.5240 C   0  0  0  0  0  0  0  0  0  0  0  0
  -22.2270   -4.2950   21.3120 F   0  0  0  0  0  0  0  0  0  0  0  0
  -21.5050   -3.7160   25.9960 F   0  0  0  0  0  0  0  0  0  0  0  0
  -22.7350  -13.6070   21.1750 C   0  0  0  0  0  0  0  0  0  0  0  0
  -22.0310  -12.9070   22.0580 N   0  0  0  0  0  0  0  0  0  0  0  0
  -22.2840  -14.6350   20.6710 O   0  0  0  0  0  0  0  0  0  0  0  0
  -22.4050  -12.0700   22.4830 H   0  0  0  0  0  0  0  0  0  0  0  0
  -21.1050  -13.2150   22.3180 H   0  0  0  0  0  0  0  0  0  0  0  0
  -25.3520  -15.2710   20.2880 N   0  0  0  0  0  0  0  0  0  0  0  0
  -24.5960  -15.9360   20.4170 H   0  0  0  0  0  0  0  0  0  0  0  0
  -26.2080  -15.7050   19.9640 H   0  0  0  0  0  0  0  0  0  0  0  0
  -28.4210  -26.8540   20.0180 O   0  0  0  0  0  0  0  0  0  0  0  0
  -24.5550  -31.9010   23.2280 C   0  0  0  0  0  0  0  0  0  0  0  0
  -27.2060  -27.4830   20.1370 C   0  0  0  0  0  0  0  0  0  0  0  0
  -23.3410  -30.4880   21.5980 C   0  0  0  0  0  3  0  0  0  0  0  0
  -24.7910  -28.9450   20.1740 C   0  0  0  0  0  0  0  0  0  0  0  0
  -25.8660  -30.8500   21.3980 C   0  0  0  0  0  2  0  0  0  0  0  0
  -25.9480  -29.4860   20.7470 C   0  0  0  0  0  0  0  0  0  0  0  0
  -27.1560  -28.7660   20.7170 C   0  0  0  0  0  3  0  0  0  0  0  0
  -26.0360  -26.9360   19.5700 C   0  0  0  0  0  3  0  0  0  0  0  0
  -24.8300  -27.6660   19.5820 C   0  0  0  0  0  3  0  0  0  0  0  0
  -23.5510  -29.8070   20.2180 C   0  0  0  0  0  2  0  0  0  0  0  0
  -24.6030  -31.0960   22.1290 N   0  0  0  0  0  0  0  0  0  0  0  0
  -23.4780  -32.1700   23.7790 O   0  0  0  0  0  0  0  0  0  0  0  0
  -22.7050  -29.4650   22.5660 C   0  0  0  0  0  0  0  0  0  0  0  0
  -21.3810  -29.2720   22.4510 N   0  0  0  0  0  0  0  0  0  0  0  0
  -23.4000  -28.8460   23.3750 O   0  0  0  0  0  0  0  0  0  0  0  0
  -20.8800  -29.8210   21.7670 H   0  0  0  0  0  0  0  0  0  0  0  0
  -18.0220  -28.0480   22.9700 C   0  0  0  0  0  0  0  0  0  0  0  0
  -20.5780  -28.3350   23.2350 C   0  0  0  0  0  3  0  0  0  0  0  0
  -20.6940  -26.8980   22.6770 C   0  0  0  0  0  2  0  0  0  0  0  0
  -19.5940  -26.5520   21.6680 C   0  0  0  0  0  2  0  0  0  0  0  0
  -18.2130  -26.6930   22.3120 C   0  0  0  0  0  2  0  0  0  0  0  0
  -19.1330  -28.8250   23.3910 C   0  0  0  0  0  0  0  0  0  0  0  0
  -18.9020  -30.0960   23.9640 C   0  0  0  0  0  3  0  0  0  0  0  0
  -17.5920  -30.5820   24.1280 C   0  0  0  0  0  3  0  0  0  0  0  0
  -16.4940  -29.7990   23.7290 C   0  0  0  0  0  3  0  0  0  0  0  0
  -16.7120  -28.5370   23.1510 C   0  0  0  0  0  3  0  0  0  0  0  0
  -25.8490  -32.5370   23.8280 C   0  0  0  0  0  3  0  0  0  0  0  0
  -25.5400  -33.9320   24.1690 N   0  0  0  0  0  0  0  0  0  0  0  0
  -25.8460  -34.9890   23.4060 C   0  0  0  0  0  0  0  0  0  0  0  0
  -26.4940  -34.8930   22.3600 O   0  0  0  0  0  0  0  0  0  0  0  0
  -24.9710  -34.0760   24.9910 H   0  0  0  0  0  0  0  0  0  0  0  0
  -24.0970  -36.7670   23.0810 C   0  0  0  0  0  1  0  0  0  0  0  0
  -25.3520  -36.3690   23.8760 C   0  0  0  0  0  3  0  0  0  0  0  0
  -27.4920  -37.2710   24.6730 C   0  0  0  0  0  1  0  0  0  0  0  0
  -26.3720  -37.4330   23.7520 N   0  0  0  0  0  0  0  0  0  0  0  0
  -25.9580  -38.3480   23.9150 H   0  0  0  0  0  0  0  0  0  0  0  0
  -26.3980  -31.7680   25.0920 C   0  0  1  0  0  0  0  0  0  0  0  0
  -25.3290  -31.5290   26.1820 C   0  0  0  0  0  1  0  0  0  0  0  0
  -26.9860  -30.3950   24.6970 C   0  0  0  0  0  1  0  0  0  0  0  0
  -27.5570  -32.5730   25.7280 C   0  0  0  0  0  1  0  0  0  0  0  0
  2  5  2  0
  2  6  1  0
  3  9  1  0
  3  1  2  0
  4  1  1  0
  4  7  1  0
  5  3  1  0
  6  4  2  0
  8  5  1  0
  9 10  2  0
 11 12  1  0
 11  9  1  0
 13 12  1  0
 14 13  1  0
 15 14  1  0
 15 16  1  0
 17 16  1  0
 18 23  1  0
 19 20  1  0
 19 18  1  0
 21 20  1  0
 21 28  1  0
 21 22  1  0
 23 17  1  0
 23 22  1  0
 24 17  2  0
 25 26  2  0
 26 45  1  0
 27 26  1  0
 27 30  1  0
 28 25  1  0
 28 29  1  0
 29 27  2  0
 30 31  1  0
 31 32  2  0
 33 36  1  0
 33 32  1  0
 34 33  2  0
 35 34  1  0
 35 30  2  0
 36 37  1  0
 37 38  1  0
 38 39  2  0
 40 39  1  0
 40 44  1  0
 41 40  2  0
 42 37  2  0
 42 41  1  0
 43 42  1  0
 45 46  1  0
 46 49  1  0
 46 48  1  0
 47 45  2  0
 50 51  1  0
 50 25  1  0
 52 50  1  0
 53 55  1  0
 53  6  1  0
 54 65  2  0
 55 60  1  0
 56 64  1  0
 56 66  1  0
 57 63  1  0
 57 59  1  0
 58 64  1  0
 59 58  1  0
 60 59  2  0
 61 62  1  0
 61 55  2  0
 62 57  2  0
 63 56  1  0
 64 54  1  0
 66 68  2  0
 67 66  1  0
 69 67  1  0
 70 79  2  0
 70 75  1  0
 71 67  1  0
 71 75  1  0
 72 71  1  0
 73 74  1  0
 73 72  1  0
 74 70  1  0
 75 76  2  0
 76 77  1  0
 78 77  2  0
 79 78  1  0
 80 54  1  0
 80 81  1  0
 80 90  1  0
 81 84  1  0
 82 86  1  0
 82 81  1  0
 83 82  2  0
 86 85  1  0
 88 86  1  0
 88 89  1  0
 88 87  1  0
 90 93  1  1
 90 91  1  0
 92 90  1  0
M  ISO  4   6 101  16 100  17 100  53 101
M  END
>  <TORSDO>  (1) 
F 23

>  <SCORE>  (1) 
-13.139

>  <name>  (1) 
0

>  <ligand_id>  (1) 
0

>  <original_smiles>  (1) 
[H]c1c([H])c([H])c2c(c1[H])C([H])([H])C([H])([H])C([H])([H])C2([H])N([H])C(=O)C1([H])N(C(=O)C([H])(N([H])C(=O)C([H])(N([H])C([H])([H])[H])C([H])([H])[H])C(C([H])([H])[H])(C([H])([H])[H])C([H])([H])[H])C([H])([H])c2c([H])c(Oc3c([H])c(C([H])([H])[H])c(C(=O)C([H])([H])C([H])([H])C([H])([H])C([H])([H])C([H])([H])C([H])([H])C(=O)N4C([H])([H])C([H])([H])C([H])([H])C([H])(n5nc(-c6c([H])c([H])c(Oc7c([H])c([H])c(F)c([H])c7F)c([H])c6[H])c(C(=O)N([H])[H])c5N([H])[H])C4([H])[H])c([H])c3C([H])([H])[H])c([H])c([H])c2C1([H])[H]

>  <smiles>  (1) 
[H]c1c([H])c([H])c2c(c1[H])C([H])([H])C([H])([H])C([H])([H])C2([H])N([H])C(=O)C1([H])N(C(=O)C([H])(N([H])C(=O)C([H])(N([H])C([H])([H])[H])C([H])([H])[H])C(C([H])([H])[H])(C([H])([H])[H])C([H])([H])[H])C([H])([H])c2c([H])c(Oc3c([H])c(C([H])([H])[H])c(C(=O)C([H])([H])C([H])([H])C([H])([H])C([H])([H])C([H])([H])C([H])([H])C(=O)N4C([H])([H])C([H])([H])C([H])([H])C([H])(n5nc(-c6c([H])c([H])c(Oc7c([H])c([H])c(F)c([H])c7F)c([H])c6[H])c(C(=O)N([H])[H])c5N([H])[H])C4([H])[H])c([H])c3C([H])([H])[H])c([H])c([H])c2C1([H])[H]

$$$$
1:0:0
     RDKit          3D

 91 99  0  0  1  0  0  0  0  0999 V2000
  -28.1880  -20.8250   17.0680 C   0  0  0  0  0  3  0  0  0  0  0  0
  -28.4190  -19.7070   17.8920 C   0  0  0  0  0  3  0  0  0  0  0  0
  -27.9950  -22.0940   17.6430 C   0  0  0  0  0  3  0  0  0  0  0  0
  -28.2780  -21.1320   19.8670 C   0  0  0  0  0  3  0  0  0  0  0  0
  -28.4770  -19.8560   19.2930 C   0  0  0  0  0  0  0  0  0  0  0  0
  -28.0250  -22.2530   19.0440 C   0  0  0  0  0  0  0  0  0  0  0  0
  -28.7470  -18.6350   20.1640 C   0  0  0  0  0  2  0  0  0  0  0  0
  -30.1210  -17.9930   19.8690 C   0  0  0  0  0  2  0  0  0  0  0  0
  -30.0600  -16.5140   19.4090 C   0  0  0  0  0  2  0  0  0  0  0  0
  -30.9150  -14.3560   20.1480 C   0  0  0  0  0  0  0  0  0  0  0  0
  -30.4760  -12.2600   18.9370 C   0  0  0  0  0  2  0  0  0  0  0  0
  -29.4890  -12.5600   17.7900 C   0  0  0  0  0  2  0  0  0  0  0  0
  -28.0300  -12.4600   18.2820 C   0  0  0  0  0  2  0  0  0  0  0  0
  -27.7850  -13.2420   19.6000 C   0  0  0  0  0  3  0  0  0  0  0  0
  -28.8850  -12.9290   20.6400 C   0  0  0  0  0  2  0  0  0  0  0  0
  -30.1900  -13.2120   20.0190 N   0  0  0  0  0  0  0  0  0  0  0  0
  -32.0440  -14.4840   19.6600 O   0  0  0  0  0  0  0  0  0  0  0  0
  -29.9610  -15.8410   21.8450 C   0  0  0  0  0  1  0  0  0  0  0  0
  -30.1910  -15.4610   20.4450 N   0  0  0  0  0  0  0  0  0  0  0  0
  -25.4350  -13.8950   20.4200 C   0  0  0  0  0  0  0  0  0  0  0  0
  -24.3670  -13.1430   20.8310 C   0  0  0  0  0  0  0  0  0  0  0  0
  -24.7980  -11.7820   20.7690 C   0  0  0  0  0  0  0  0  0  0  0  0
  -26.4500  -12.9930   20.1360 N   0  0  0  0  0  0  0  0  0  0  0  0
  -26.0710  -11.7170   20.4000 N   0  0  0  0  0  0  0  0  0  0  0  0
  -24.0550  -10.5340   20.9820 C   0  0  0  0  0  0  0  0  0  0  0  0
  -24.5050   -9.5530   21.8950 C   0  0  0  0  0  3  0  0  0  0  0  0
  -23.7640   -8.3690   22.0950 C   0  0  0  0  0  3  0  0  0  0  0  0
  -22.5590   -8.1560   21.3830 C   0  0  0  0  0  0  0  0  0  0  0  0
  -22.1290   -9.1230   20.4580 C   0  0  0  0  0  3  0  0  0  0  0  0
  -22.8710  -10.3000   20.2560 C   0  0  0  0  0  3  0  0  0  0  0  0
  -21.7890   -7.0250   21.4940 O   0  0  0  0  0  0  0  0  0  0  0  0
  -21.7550   -6.2860   22.6490 C   0  0  0  0  0  0  0  0  0  0  0  0
  -21.3830   -6.8540   23.8880 C   0  0  0  0  0  3  0  0  0  0  0  0
  -21.2960   -6.0430   25.0360 C   0  0  0  0  0  3  0  0  0  0  0  0
  -21.5710   -4.6650   24.9480 C   0  0  0  0  0  0  0  0  0  0  0  0
  -21.9360   -4.0970   23.7150 C   0  0  0  0  0  3  0  0  0  0  0  0
  -22.0250   -4.9050   22.5680 C   0  0  0  0  0  0  0  0  0  0  0  0
  -22.3560   -4.3480   21.3780 F   0  0  0  0  0  0  0  0  0  0  0  0
  -21.4800   -3.8840   26.0490 F   0  0  0  0  0  0  0  0  0  0  0  0
  -22.9950  -13.6460   21.1720 C   0  0  0  0  0  0  0  0  0  0  0  0
  -22.2910  -12.9610   22.0670 N   0  0  0  0  0  0  0  0  0  0  0  0
  -22.5550  -14.6840   20.6770 O   0  0  0  0  0  0  0  0  0  0  0  0
  -22.6590  -12.1250   22.4950 H   0  0  0  0  0  0  0  0  0  0  0  0
  -21.3720  -13.2850   22.3330 H   0  0  0  0  0  0  0  0  0  0  0  0
  -25.6210  -15.2630   20.2460 N   0  0  0  0  0  0  0  0  0  0  0  0
  -24.8740  -15.9310   20.3990 H   0  0  0  0  0  0  0  0  0  0  0  0
  -26.4710  -15.6890   19.9000 H   0  0  0  0  0  0  0  0  0  0  0  0
  -27.7180  -23.6130   19.6540 C   0  0  0  0  0  2  0  0  0  0  0  0
  -28.8840  -24.2540   20.4260 C   0  0  0  0  0  2  0  0  0  0  0  0
  -28.5010  -25.5840   21.1050 C   0  0  0  0  0  2  0  0  0  0  0  0
  -28.4220  -26.6540   20.1640 O   0  0  0  0  0  0  0  0  0  0  0  0
  -24.5730  -31.8160   23.2250 C   0  0  0  0  0  0  0  0  0  0  0  0
  -27.2510  -27.3720   20.2000 C   0  0  0  0  0  0  0  0  0  0  0  0
  -23.3830  -30.4040   21.5790 C   0  0  0  0  0  3  0  0  0  0  0  0
  -24.8520  -28.8550   20.1870 C   0  0  0  0  0  0  0  0  0  0  0  0
  -25.9090  -30.7640   21.4040 C   0  0  0  0  0  2  0  0  0  0  0  0
  -26.0030  -29.3890   20.7810 C   0  0  0  0  0  0  0  0  0  0  0  0
  -27.2090  -28.6540   20.7860 C   0  0  0  0  0  3  0  0  0  0  0  0
  -26.0850  -26.8410   19.6110 C   0  0  0  0  0  3  0  0  0  0  0  0
  -24.8860  -27.5770   19.6030 C   0  0  0  0  0  3  0  0  0  0  0  0
  -23.6080  -29.7120   20.2080 C   0  0  0  0  0  2  0  0  0  0  0  0
  -24.6410  -31.0100   22.1280 N   0  0  0  0  0  0  0  0  0  0  0  0
  -23.4860  -32.0940   23.7500 O   0  0  0  0  0  0  0  0  0  0  0  0
  -22.7210  -29.3910   22.5380 C   0  0  0  0  0  0  0  0  0  0  0  0
  -21.3940  -29.2240   22.4070 N   0  0  0  0  0  0  0  0  0  0  0  0
  -23.3950  -28.7560   23.3520 O   0  0  0  0  0  0  0  0  0  0  0  0
  -20.9130  -29.7900   21.7220 H   0  0  0  0  0  0  0  0  0  0  0  0
  -18.0030  -28.0860   22.9050 C   0  0  0  0  0  0  0  0  0  0  0  0
  -20.5650  -28.2970   23.1740 C   0  0  0  0  0  3  0  0  0  0  0  0
  -20.6420  -26.8680   22.5910 C   0  0  0  0  0  2  0  0  0  0  0  0
  -19.5320  -26.5690   21.5770 C   0  0  0  0  0  2  0  0  0  0  0  0
  -18.1550  -26.7360   22.2240 C   0  0  0  0  0  2  0  0  0  0  0  0
  -19.1360  -28.8260   23.3370 C   0  0  0  0  0  0  0  0  0  0  0  0
  -18.9410  -30.0910   23.9320 C   0  0  0  0  0  3  0  0  0  0  0  0
  -17.6450  -30.6160   24.1010 C   0  0  0  0  0  3  0  0  0  0  0  0
  -16.5270  -29.8720   23.6850 C   0  0  0  0  0  3  0  0  0  0  0  0
  -16.7070  -28.6090   23.0940 C   0  0  0  0  0  3  0  0  0  0  0  0
  -25.8530  -32.4470   23.8560 C   0  0  0  0  0  3  0  0  0  0  0  0
  -25.5400  -33.8410   24.1910 N   0  0  0  0  0  0  0  0  0  0  0  0
  -25.8690  -34.8960   23.4340 C   0  0  0  0  0  0  0  0  0  0  0  0
  -26.5410  -34.7990   22.4040 O   0  0  0  0  0  0  0  0  0  0  0  0
  -24.9420  -33.9910   24.9910 H   0  0  0  0  0  0  0  0  0  0  0  0
  -24.1290  -36.6790   23.0830 C   0  0  0  0  0  1  0  0  0  0  0  0
  -25.3730  -36.2810   23.8940 C   0  0  0  0  0  3  0  0  0  0  0  0
  -27.5050  -37.1750   24.7220 C   0  0  0  0  0  1  0  0  0  0  0  0
  -26.3990  -37.3390   23.7820 N   0  0  0  0  0  0  0  0  0  0  0  0
  -25.9890  -38.2570   23.9300 H   0  0  0  0  0  0  0  0  0  0  0  0
  -26.3690  -31.6680   25.1280 C   0  0  1  0  0  0  0  0  0  0  0  0
  -25.2730  -31.4200   26.1910 C   0  0  0  0  0  1  0  0  0  0  0  0
  -26.9570  -30.2950   24.7240 C   0  0  0  0  0  1  0  0  0  0  0  0
  -27.5150  -32.4600   25.7990 C   0  0  0  0  0  1  0  0  0  0  0  0
  1  3  2  0
  1  2  1  0
  2  5  2  0
  3  6  1  0
  5  4  1  0
  5  7  1  0
  6 48  1  0
  6  4  2  0
  8  7  1  0
  9  8  1  0
  9 19  1  0
 10 19  1  0
 11 16  1  0
 12 13  1  0
 12 11  1  0
 14 13  1  0
 14 23  1  0
 14 15  1  0
 16 10  1  0
 16 15  1  0
 17 10  2  0
 19 18  1  0
 20 21  2  0
 21 40  1  0
 22 21  1  0
 22 25  1  0
 23 24  1  0
 23 20  1  0
 24 22  2  0
 25 26  1  0
 26 27  2  0
 28 31  1  0
 28 27  1  0
 29 28  2  0
 30 29  1  0
 30 25  2  0
 31 32  1  0
 32 33  1  0
 33 34  2  0
 35 34  1  0
 35 39  1  0
 36 35  2  0
 37 32  2  0
 37 36  1  0
 38 37  1  0
 40 41  1  0
 41 44  1  0
 41 43  1  0
 42 40  2  0
 45 46  1  0
 45 20  1  0
 47 45  1  0
 48 49  1  0
 49 50  1  0
 51 53  1  0
 51 50  1  0
 52 63  2  0
 53 58  1  0
 54 62  1  0
 54 64  1  0
 55 61  1  0
 55 57  1  0
 56 62  1  0
 57 58  2  0
 57 56  1  0
 59 53  2  0
 60 59  1  0
 60 55  2  0
 61 54  1  0
 62 52  1  0
 64 66  2  0
 65 64  1  0
 67 65  1  0
 68 77  2  0
 68 73  1  0
 69 65  1  0
 69 73  1  0
 70 69  1  0
 71 72  1  0
 71 70  1  0
 72 68  1  0
 73 74  2  0
 74 75  1  0
 76 75  2  0
 77 76  1  0
 78 52  1  0
 78 79  1  0
 78 88  1  0
 79 82  1  0
 80 84  1  0
 80 79  1  0
 81 80  2  0
 84 83  1  0
 86 84  1  0
 86 87  1  0
 86 85  1  0
 88 91  1  1
 88 89  1  0
 90 88  1  0
M  ISO  4  10 100  19 100  50 101  51 101
M  END
>  <TORSDO>  (2) 
F 22

>  <SCORE>  (2) 
-12.795

>  <name>  (2) 
1

>  <ligand_id>  (2) 
1

>  <original_smiles>  (2) 
[H]c1c([H])c(C([H])([H])C([H])([H])C([H])([H])Oc2c([H])c([H])c3c(c2[H])C([H])([H])N(C(=O)C([H])(N([H])C(=O)C([H])(N([H])C([H])([H])[H])C([H])([H])[H])C(C([H])([H])[H])(C([H])([H])[H])C([H])([H])[H])C([H])(C(=O)N([H])C2([H])c4c([H])c([H])c([H])c([H])c4C([H])([H])C([H])([H])C2([H])[H])C3([H])[H])c([H])c(C([H])([H])C([H])([H])C([H])([H])N(C(=O)N2C([H])([H])C([H])([H])C([H])([H])C([H])(n3nc(-c4c([H])c([H])c(Oc5c([H])c([H])c(F)c([H])c5F)c([H])c4[H])c(C(=O)N([H])[H])c3N([H])[H])C2([H])[H])C([H])([H])[H])c1[H]

>  <smiles>  (2) 
[H]c1c([H])c(C([H])([H])C([H])([H])C([H])([H])Oc2c([H])c([H])c3c(c2[H])C([H])([H])N(C(=O)C([H])(N([H])C(=O)C([H])(N([H])C([H])([H])[H])C([H])([H])[H])C(C([H])([H])[H])(C([H])([H])[H])C([H])([H])[H])C([H])(C(=O)N([H])C2([H])c4c([H])c([H])c([H])c([H])c4C([H])([H])C([H])([H])C2([H])[H])C3([H])[H])c([H])c(C([H])([H])C([H])([H])C([H])([H])N(C(=O)N2C([H])([H])C([H])([H])C([H])([H])C([H])(n3nc(-c4c([H])c([H])c(Oc5c([H])c([H])c(F)c([H])c5F)c([H])c4[H])c(C(=O)N([H])[H])c3N([H])[H])C2([H])[H])C([H])([H])[H])c1[H]

$$$$
2:0:0
     RDKit          3D

 92100  0  0  1  0  0  0  0  0999 V2000
  -26.5070  -22.9430   20.1360 C   0  0  0  0  0  3  0  0  0  0  0  0
  -25.9410  -21.7900   19.5760 C   0  0  0  0  0  3  0  0  0  0  0  0
  -28.5880  -21.7180   20.4730 C   0  0  0  0  0  3  0  0  0  0  0  0
  -27.8480  -22.9370   20.5690 C   0  0  0  0  0  0  0  0  0  0  0  0
  -26.6800  -20.5870   19.4250 C   0  0  0  0  0  0  0  0  0  0  0  0
  -28.0290  -20.5340   19.9010 C   0  0  0  0  0  0  0  0  0  0  0  0
  -24.7070  -19.7100   17.9250 C   0  0  0  0  0  1  0  0  0  0  0  0
  -26.0120  -19.4050   18.7050 C   0  0  0  0  0  2  0  0  0  0  0  0
  -28.3960  -24.1860   21.2140 C   0  0  0  0  0  0  0  0  0  0  0  0
  -28.6280  -24.2390   22.4270 O   0  0  0  0  0  0  0  0  0  0  0  0
  -28.7410  -25.4150   20.3200 C   0  0  0  0  0  2  0  0  0  0  0  0
  -28.5950  -26.7070   20.9900 O   0  0  0  0  0  0  0  0  0  0  0  0
  -24.5800  -32.0580   23.5340 C   0  0  0  0  0  0  0  0  0  0  0  0
  -27.4380  -27.4580   20.8400 C   0  0  0  0  0  0  0  0  0  0  0  0
  -23.5000  -30.5890   21.8660 C   0  0  0  0  0  3  0  0  0  0  0  0
  -25.0560  -29.0060   20.6140 C   0  0  0  0  0  0  0  0  0  0  0  0
  -26.0330  -30.9300   21.8540 C   0  0  0  0  0  2  0  0  0  0  0  0
  -26.1680  -29.5350   21.2680 C   0  0  0  0  0  0  0  0  0  0  0  0
  -27.3630  -28.7690   21.3840 C   0  0  0  0  0  3  0  0  0  0  0  0
  -26.2960  -26.9660   20.1620 C   0  0  0  0  0  3  0  0  0  0  0  0
  -25.1170  -27.7210   20.0600 C   0  0  0  0  0  3  0  0  0  0  0  0
  -23.8140  -29.8640   20.5310 C   0  0  0  0  0  2  0  0  0  0  0  0
  -24.7160  -31.2150   22.4740 N   0  0  0  0  0  0  0  0  0  0  0  0
  -23.4580  -32.3430   23.9820 O   0  0  0  0  0  0  0  0  0  0  0  0
  -22.7910  -29.5910   22.8070 C   0  0  0  0  0  0  0  0  0  0  0  0
  -21.4920  -29.3510   22.5700 N   0  0  0  0  0  0  0  0  0  0  0  0
  -23.4100  -29.0340   23.7210 O   0  0  0  0  0  0  0  0  0  0  0  0
  -21.0550  -29.7940   21.7740 H   0  0  0  0  0  0  0  0  0  0  0  0
  -18.1010  -28.1340   22.8830 C   0  0  0  0  0  0  0  0  0  0  0  0
  -20.6350  -28.4400   23.3270 C   0  0  0  0  0  3  0  0  0  0  0  0
  -20.8110  -26.9890   22.8180 C   0  0  0  0  0  2  0  0  0  0  0  0
  -19.7700  -26.5880   21.7560 C   0  0  0  0  0  2  0  0  0  0  0  0
  -18.3350  -26.7600   22.2810 C   0  0  0  0  0  2  0  0  0  0  0  0
  -19.1840  -28.9320   23.3540 C   0  0  0  0  0  0  0  0  0  0  0  0
  -18.9230  -30.2260   23.8460 C   0  0  0  0  0  3  0  0  0  0  0  0
  -17.6080  -30.7340   23.8810 C   0  0  0  0  0  3  0  0  0  0  0  0
  -16.5330  -29.9460   23.4170 C   0  0  0  0  0  3  0  0  0  0  0  0
  -16.7770  -28.6430   22.9360 C   0  0  0  0  0  3  0  0  0  0  0  0
  -25.8140  -32.7210   24.2180 C   0  0  0  0  0  3  0  0  0  0  0  0
  -25.4940  -34.1420   24.4260 N   0  0  0  0  0  0  0  0  0  0  0  0
  -25.8950  -35.1350   23.6220 C   0  0  0  0  0  0  0  0  0  0  0  0
  -26.6400  -34.9570   22.6550 O   0  0  0  0  0  0  0  0  0  0  0  0
  -24.8260  -34.3540   25.1520 H   0  0  0  0  0  0  0  0  0  0  0  0
  -24.2000  -36.8990   23.0180 C   0  0  0  0  0  1  0  0  0  0  0  0
  -25.3790  -36.5520   23.9400 C   0  0  0  0  0  3  0  0  0  0  0  0
  -27.4560  -37.4920   24.8530 C   0  0  0  0  0  1  0  0  0  0  0  0
  -26.4210  -37.5960   23.8280 N   0  0  0  0  0  0  0  0  0  0  0  0
  -26.0070  -38.5230   23.8810 H   0  0  0  0  0  0  0  0  0  0  0  0
  -26.2170  -32.0340   25.5820 C   0  0  1  0  0  0  0  0  0  0  0  0
  -25.0290  -31.8330   26.5540 C   0  0  0  0  0  1  0  0  0  0  0  0
  -26.8540  -30.6450   25.3280 C   0  0  0  0  0  1  0  0  0  0  0  0
  -27.2830  -32.8910   26.3040 C   0  0  0  0  0  1  0  0  0  0  0  0
  -28.9460  -19.2890   19.6760 C   0  0  0  0  0  2  0  0  0  0  0  0
  -29.3250  -18.3370   20.8650 C   0  0  0  0  0  2  0  0  0  0  0  0
  -30.1960  -17.0990   20.4030 C   0  0  0  0  0  3  0  0  0  0  0  0
  -30.4190  -15.8910   21.3830 C   0  0  0  0  0  3  0  0  0  0  0  0
  -31.1390  -14.6430   20.7540 C   0  0  0  0  0  0  0  0  0  0  0  0
  -30.9490  -12.4370   19.6280 C   0  0  0  0  0  2  0  0  0  0  0  0
  -30.0800  -12.6120   18.3620 C   0  0  0  0  0  2  0  0  0  0  0  0
  -28.5770  -12.5350   18.6850 C   0  0  0  0  0  2  0  0  0  0  0  0
  -28.1830  -13.3790   19.9260 C   0  0  0  0  0  3  0  0  0  0  0  0
  -29.1530  -13.1170   21.0990 C   0  0  0  0  0  2  0  0  0  0  0  0
  -30.5050  -13.4380   20.6220 N   0  0  0  0  0  0  0  0  0  0  0  0
  -32.2860  -14.8000   20.3130 O   0  0  0  0  0  0  0  0  0  0  0  0
  -25.7710  -14.0810   20.4720 C   0  0  0  0  0  0  0  0  0  0  0  0
  -24.6570  -13.3480   20.7900 C   0  0  0  0  0  0  0  0  0  0  0  0
  -25.0760  -11.9810   20.8110 C   0  0  0  0  0  0  0  0  0  0  0  0
  -26.7980  -13.1600   20.3190 N   0  0  0  0  0  0  0  0  0  0  0  0
  -26.3780  -11.8950   20.5740 N   0  0  0  0  0  0  0  0  0  0  0  0
  -24.2990  -10.7480   20.9830 C   0  0  0  0  0  0  0  0  0  0  0  0
  -24.6150   -9.8090   21.9890 C   0  0  0  0  0  3  0  0  0  0  0  0
  -23.8440   -8.6360   22.1430 C   0  0  0  0  0  3  0  0  0  0  0  0
  -22.7420   -8.3950   21.2880 C   0  0  0  0  0  0  0  0  0  0  0  0
  -22.4490   -9.3200   20.2700 C   0  0  0  0  0  3  0  0  0  0  0  0
  -23.2200  -10.4820   20.1160 C   0  0  0  0  0  3  0  0  0  0  0  0
  -21.9500   -7.2720   21.3490 O   0  0  0  0  0  0  0  0  0  0  0  0
  -21.7160   -6.6180   22.5320 C   0  0  0  0  0  0  0  0  0  0  0  0
  -21.1470   -7.2740   23.6460 C   0  0  0  0  0  3  0  0  0  0  0  0
  -20.8630   -6.5490   24.8210 C   0  0  0  0  0  3  0  0  0  0  0  0
  -21.1330   -5.1680   24.8800 C   0  0  0  0  0  0  0  0  0  0  0  0
  -21.6950   -4.5120   23.7700 C   0  0  0  0  0  3  0  0  0  0  0  0
  -21.9830   -5.2360   22.5990 C   0  0  0  0  0  0  0  0  0  0  0  0
  -22.5060   -4.5970   21.5240 F   0  0  0  0  0  0  0  0  0  0  0  0
  -20.8510   -4.4680   26.0020 F   0  0  0  0  0  0  0  0  0  0  0  0
  -23.2630  -13.8720   20.9770 C   0  0  0  0  0  0  0  0  0  0  0  0
  -22.4720  -13.2300   21.8300 N   0  0  0  0  0  0  0  0  0  0  0  0
  -22.8850  -14.8920   20.4020 O   0  0  0  0  0  0  0  0  0  0  0  0
  -22.7920  -12.4060   22.3220 H   0  0  0  0  0  0  0  0  0  0  0  0
  -21.5310  -13.5680   21.9920 H   0  0  0  0  0  0  0  0  0  0  0  0
  -26.0000  -15.4400   20.2820 N   0  0  0  0  0  0  0  0  0  0  0  0
  -25.2580  -16.1310   20.3160 H   0  0  0  0  0  0  0  0  0  0  0  0
  -26.8980  -15.8320   20.0320 H   0  0  0  0  0  0  0  0  0  0  0  0
  1  4  1  0
  2  1  2  0
  3  4  2  0
  4  9  1  0
  5  2  1  0
  5  6  2  0
  6  3  1  0
  7  8  1  0
  8  5  1  0
  9 10  2  0
 11 12  1  0
 11  9  1  0
 13 24  2  0
 14 12  1  0
 14 19  1  0
 15 23  1  0
 15 25  1  0
 16 18  1  0
 17 23  1  0
 18 19  2  0
 18 17  1  0
 20 14  2  0
 21 20  1  0
 21 16  2  0
 22 16  1  0
 22 15  1  0
 23 13  1  0
 25 27  2  0
 26 25  1  0
 28 26  1  0
 29 38  2  0
 29 34  1  0
 30 26  1  0
 30 34  1  0
 31 30  1  0
 32 33  1  0
 32 31  1  0
 33 29  1  0
 34 35  2  0
 35 36  1  0
 37 36  2  0
 38 37  1  0
 39 13  1  0
 39 40  1  0
 39 49  1  0
 40 43  1  0
 41 45  1  0
 41 40  1  0
 42 41  2  0
 45 44  1  0
 47 48  1  0
 47 45  1  0
 47 46  1  0
 49 52  1  1
 49 50  1  0
 51 49  1  0
 53  6  1  0
 53 54  1  0
 55 54  1  0
 55 56  2  0
 57 56  1  0
 58 63  1  0
 59 60  1  0
 59 58  1  0
 61 60  1  0
 61 68  1  0
 61 62  1  0
 63 57  1  0
 63 62  1  0
 64 57  2  0
 65 66  2  0
 66 67  1  0
 66 85  1  0
 67 70  1  0
 68 65  1  0
 68 69  1  0
 69 67  2  0
 70 71  1  0
 71 72  2  0
 73 76  1  0
 73 72  1  0
 74 73  2  0
 75 74  1  0
 75 70  2  0
 76 77  1  0
 77 82  2  0
 77 78  1  0
 78 79  2  0
 79 80  1  0
 80 84  1  0
 81 80  2  0
 82 81  1  0
 83 82  1  0
 85 86  1  0
 86 89  1  0
 86 88  1  0
 87 85  2  0
 90 91  1  0
 90 65  1  0
 92 90  1  0
M  ISO  4  11 101  12 101  56 100  57 100
M  END
>  <TORSDO>  (3) 
F 23

>  <SCORE>  (3) 
-10.075

>  <name>  (3) 
2

>  <ligand_id>  (3) 
2

>  <original_smiles>  (3) 
[H]c1c([H])c([H])c2c(c1[H])C([H])([H])C([H])([H])C([H])([H])C2([H])N([H])C(=O)C1([H])N(C(=O)C([H])(N([H])C(=O)C([H])(N([H])C([H])([H])[H])C([H])([H])[H])C(C([H])([H])[H])(C([H])([H])[H])C([H])([H])[H])C([H])([H])c2c([H])c(OC([H])([H])C(=O)c3c([H])c([H])c(C([H])([H])C([H])([H])[H])c(C([H])([H])C([H])([H])C([H])([H])C([H])([H])C(=O)N4C([H])([H])C([H])([H])C([H])([H])C([H])(n5nc(-c6c([H])c([H])c(Oc7c([H])c([H])c(F)c([H])c7F)c([H])c6[H])c(C(=O)N([H])[H])c5N([H])[H])C4([H])[H])c3[H])c([H])c([H])c2C1([H])[H]

>  <smiles>  (3) 
[H]c1c([H])c([H])c2c(c1[H])C([H])([H])C([H])([H])C([H])([H])C2([H])N([H])C(=O)C1([H])N(C(=O)C([H])(N([H])C(=O)C([H])(N([H])C([H])([H])[H])C([H])([H])[H])C(C([H])([H])[H])(C([H])([H])[H])C([H])([H])[H])C([H])([H])c2c([H])c(OC([H])([H])C(=O)c3c([H])c([H])c(C([H])([H])C([H])([H])[H])c(C([H])([H])C([H])([H])C([H])([H])C([H])([H])C(=O)N4C([H])([H])C([H])([H])C([H])([H])C([H])(n5nc(-c6c([H])c([H])c(Oc7c([H])c([H])c(F)c([H])c7F)c([H])c6[H])c(C(=O)N([H])[H])c5N([H])[H])C4([H])[H])c3[H])c([H])c([H])c2C1([H])[H]

$$$$
3:0:0
     RDKit          3D

 96105  0  0  1  0  0  0  0  0999 V2000
  -29.1850  -21.9400   21.2350 C   0  0  0  0  0  3  0  0  0  0  0  0
  -29.4440  -21.1820   20.0200 C   0  0  0  0  0  0  0  0  0  0  0  0
  -29.2880  -22.1300   18.9570 C   0  0  0  0  0  0  0  0  0  0  0  0
  -28.7400  -24.3780   20.2480 C   0  0  0  0  0  0  0  0  0  0  0  0
  -28.8850  -23.4010   21.3360 C   0  0  0  0  0  0  0  0  0  0  0  0
  -28.9800  -23.5930   19.0300 C   0  0  0  0  0  0  0  0  0  0  0  0
  -29.4110  -21.3370   17.6770 C   0  0  0  0  0  2  0  0  0  0  0  0
  -29.7820  -19.8540   18.0600 C   0  0  0  0  0  2  0  0  0  0  0  0
  -29.5280  -19.5050   19.5730 C   0  0  1  0  0  0  0  0  0  0  0  0
  -28.7280  -23.8840   22.5920 F   0  0  0  0  0  0  0  0  0  0  0  0
  -28.9180  -24.2590   17.8510 F   0  0  0  0  0  0  0  0  0  0  0  0
  -31.1130  -15.4490   20.2470 C   0  0  0  0  0  0  0  0  0  0  0  0
  -31.1320  -12.9060   19.6980 C   0  0  0  0  0  2  0  0  0  0  0  0
  -30.2900  -12.5330   18.4540 C   0  0  0  0  0  2  0  0  0  0  0  0
  -28.8140  -12.3220   18.8370 C   0  0  0  0  0  2  0  0  0  0  0  0
  -28.3020  -13.4240   19.7970 C   0  0  0  0  0  3  0  0  0  0  0  0
  -29.2790  -13.7240   20.9520 C   0  0  0  0  0  2  0  0  0  0  0  0
  -30.5420  -14.1460   20.3280 N   0  0  0  0  0  0  0  0  0  0  0  0
  -32.3470  -15.4030   20.1310 O   0  0  0  0  0  0  0  0  0  0  0  0
  -30.6240  -18.1610   19.8960 C   0  0  0  0  0  0  0  0  0  0  0  0
  -30.3370  -16.7140   20.1010 N   0  0  0  0  0  0  0  0  0  0  0  0
  -31.8090  -18.5000   19.9320 O   0  0  0  0  0  0  0  0  0  0  0  0
  -29.3460  -16.5410   20.1160 H   0  0  0  0  0  0  0  0  0  0  0  0
  -25.9490  -14.1050   20.4920 C   0  0  0  0  0  0  0  0  0  0  0  0
  -24.8330  -13.3890   20.8170 C   0  0  0  0  0  0  0  0  0  0  0  0
  -25.2200  -12.0150   20.7740 C   0  0  0  0  0  0  0  0  0  0  0  0
  -26.9440  -13.1740   20.2620 N   0  0  0  0  0  0  0  0  0  0  0  0
  -26.5170  -11.9080   20.5020 N   0  0  0  0  0  0  0  0  0  0  0  0
  -24.4130  -10.7960   20.9150 C   0  0  0  0  0  0  0  0  0  0  0  0
  -24.7590   -9.7820   21.8350 C   0  0  0  0  0  3  0  0  0  0  0  0
  -23.9530   -8.6310   21.9670 C   0  0  0  0  0  3  0  0  0  0  0  0
  -22.7870   -8.4850   21.1780 C   0  0  0  0  0  0  0  0  0  0  0  0
  -22.4610   -9.4860   20.2470 C   0  0  0  0  0  3  0  0  0  0  0  0
  -23.2650  -10.6290   20.1130 C   0  0  0  0  0  3  0  0  0  0  0  0
  -21.9600   -7.3890   21.2210 O   0  0  0  0  0  0  0  0  0  0  0  0
  -21.8180   -6.6390   22.3600 C   0  0  0  0  0  0  0  0  0  0  0  0
  -21.3870   -7.2090   23.5790 C   0  0  0  0  0  3  0  0  0  0  0  0
  -21.1880   -6.3890   24.7070 C   0  0  0  0  0  3  0  0  0  0  0  0
  -21.4070   -5.0010   24.6180 C   0  0  0  0  0  0  0  0  0  0  0  0
  -21.8290   -4.4330   23.4050 C   0  0  0  0  0  3  0  0  0  0  0  0
  -22.0320   -5.2490   22.2790 C   0  0  0  0  0  0  0  0  0  0  0  0
  -22.4190   -4.6920   21.1060 F   0  0  0  0  0  0  0  0  0  0  0  0
  -21.2080   -4.2130   25.7000 F   0  0  0  0  0  0  0  0  0  0  0  0
  -23.4600  -13.9470   21.0500 C   0  0  0  0  0  0  0  0  0  0  0  0
  -22.6680  -13.2940   21.8910 N   0  0  0  0  0  0  0  0  0  0  0  0
  -23.1000  -14.9980   20.5210 O   0  0  0  0  0  0  0  0  0  0  0  0
  -22.9740  -12.4440   22.3410 H   0  0  0  0  0  0  0  0  0  0  0  0
  -21.7440  -13.6500   22.0910 H   0  0  0  0  0  0  0  0  0  0  0  0
  -26.1960  -15.4630   20.3370 N   0  0  0  0  0  0  0  0  0  0  0  0
  -25.4570  -16.1500   20.4260 H   0  0  0  0  0  0  0  0  0  0  0  0
  -27.0550  -15.8530   19.9810 H   0  0  0  0  0  0  0  0  0  0  0  0
  -28.1260  -18.9950   19.9350 C   0  0  0  0  0  3  0  0  0  0  0  0
  -27.0660  -18.5680   19.2080 C   0  0  0  0  0  0  0  0  0  0  0  0
  -25.7950  -18.1260   19.9100 C   0  0  0  0  0  1  0  0  0  0  0  0
  -26.9730  -18.4830   17.6950 C   0  0  0  0  0  1  0  0  0  0  0  0
  -28.6240  -25.9090   20.4310 O   0  0  0  0  0  0  0  0  0  0  0  0
  -24.6550  -31.7380   23.1580 C   0  0  0  0  0  0  0  0  0  0  0  0
  -27.5300  -26.9170   20.3470 C   0  0  0  0  0  0  0  0  0  0  0  0
  -23.6000  -30.2900   21.4700 C   0  0  0  0  0  3  0  0  0  0  0  0
  -25.1740  -28.7140   20.1500 C   0  0  0  0  0  0  0  0  0  0  0  0
  -26.1600  -30.5830   21.4630 C   0  0  0  0  0  2  0  0  0  0  0  0
  -26.3090  -29.1670   20.8330 C   0  0  0  0  0  0  0  0  0  0  0  0
  -27.4790  -28.2880   20.9080 C   0  0  0  0  0  3  0  0  0  0  0  0
  -26.3650  -26.6110   19.6120 C   0  0  0  0  0  3  0  0  0  0  0  0
  -25.2260  -27.4560   19.5220 C   0  0  0  0  0  3  0  0  0  0  0  0
  -23.9270  -29.5970   20.1170 C   0  0  0  0  0  2  0  0  0  0  0  0
  -24.8230  -30.8990   22.0850 N   0  0  0  0  0  0  0  0  0  0  0  0
  -23.5310  -31.9960   23.6170 O   0  0  0  0  0  0  0  0  0  0  0  0
  -22.8870  -29.2810   22.4090 C   0  0  0  0  0  0  0  0  0  0  0  0
  -21.5570  -29.1320   22.2680 N   0  0  0  0  0  0  0  0  0  0  0  0
  -23.5390  -28.6310   23.2290 O   0  0  0  0  0  0  0  0  0  0  0  0
  -21.0850  -29.7070   21.5850 H   0  0  0  0  0  0  0  0  0  0  0  0
  -18.1470  -28.0090   22.7840 C   0  0  0  0  0  0  0  0  0  0  0  0
  -20.7180  -28.1860   23.0100 C   0  0  0  0  0  3  0  0  0  0  0  0
  -20.7640  -26.7790   22.3670 C   0  0  0  0  0  2  0  0  0  0  0  0
  -19.6360  -26.5380   21.3610 C   0  0  0  0  0  2  0  0  0  0  0  0
  -18.2710  -26.6910   22.0380 C   0  0  0  0  0  2  0  0  0  0  0  0
  -19.2960  -28.7180   23.2270 C   0  0  0  0  0  0  0  0  0  0  0  0
  -19.1240  -29.9520   23.8890 C   0  0  0  0  0  3  0  0  0  0  0  0
  -17.8360  -30.4790   24.1100 C   0  0  0  0  0  3  0  0  0  0  0  0
  -16.7040  -29.7660   23.6810 C   0  0  0  0  0  3  0  0  0  0  0  0
  -16.8590  -28.5330   23.0250 C   0  0  0  0  0  3  0  0  0  0  0  0
  -25.8690  -32.4290   23.8520 C   0  0  0  0  0  3  0  0  0  0  0  0
  -26.3300  -31.6920   25.1700 C   0  0  1  0  0  0  0  0  0  0  0  0
  -25.1800  -31.4280   26.1710 C   0  0  0  0  0  1  0  0  0  0  0  0
  -26.9850  -30.3310   24.8420 C   0  0  0  0  0  1  0  0  0  0  0  0
  -27.4080  -32.5340   25.8930 C   0  0  0  0  0  1  0  0  0  0  0  0
  -25.4870  -33.8190   24.1590 N   0  0  0  0  0  0  0  0  0  0  0  0
  -25.8120  -34.8870   23.4180 C   0  0  0  0  0  0  0  0  0  0  0  0
  -26.5300  -34.8090   22.4170 O   0  0  0  0  0  0  0  0  0  0  0  0
  -24.8520  -33.9490   24.9330 H   0  0  0  0  0  0  0  0  0  0  0  0
  -24.0280  -36.6170   23.0070 C   0  0  0  0  0  1  0  0  0  0  0  0
  -25.2590  -36.2600   23.8560 C   0  0  0  0  0  3  0  0  0  0  0  0
  -27.3330  -37.2320   24.7430 C   0  0  0  0  0  1  0  0  0  0  0  0
  -26.2540  -37.3520   23.7680 N   0  0  0  0  0  0  0  0  0  0  0  0
  -25.8080  -38.2560   23.8980 H   0  0  0  0  0  0  0  0  0  0  0  0
  1  5  1  0
  2  1  2  0
  3  6  2  0
  3  2  1  0
  4 56  1  0
  4  5  2  0
  5 10  1  0
  6  4  1  0
  7  8  1  0
  7  3  1  0
  8  9  1  0
  9 20  1  0
  9 52  1  6
  9  2  1  0
 11  6  1  0
 12 18  1  0
 13 18  1  0
 14 15  1  0
 14 13  1  0
 16 15  1  0
 16 27  1  0
 16 17  1  0
 18 17  1  0
 19 12  2  0
 20 22  2  0
 20 21  1  0
 21 23  1  0
 21 12  1  0
 24 25  2  0
 25 44  1  0
 26 25  1  0
 26 29  1  0
 27 24  1  0
 27 28  1  0
 28 26  2  0
 29 30  1  0
 30 31  2  0
 32 35  1  0
 32 31  1  0
 33 32  2  0
 34 33  1  0
 34 29  2  0
 35 36  1  0
 36 37  1  0
 37 38  2  0
 39 38  1  0
 39 43  1  0
 40 39  2  0
 41 36  2  0
 41 40  1  0
 42 41  1  0
 44 45  1  0
 45 48  1  0
 45 47  1  0
 46 44  2  0
 49 50  1  0
 49 24  1  0
 51 49  1  0
 53 54  1  0
 53 52  2  0
 55 53  1  0
 57 68  2  0
 58 56  1  0
 58 63  1  0
 59 67  1  0
 59 69  1  0
 60 62  1  0
 61 67  1  0
 62 63  2  0
 62 61  1  0
 64 58  2  0
 65 64  1  0
 65 60  2  0
 66 60  1  0
 66 59  1  0
 67 57  1  0
 69 71  2  0
 70 69  1  0
 72 70  1  0
 73 82  2  0
 73 78  1  0
 74 70  1  0
 74 78  1  0
 75 74  1  0
 76 77  1  0
 76 75  1  0
 77 73  1  0
 78 79  2  0
 79 80  1  0
 81 80  2  0
 82 81  1  0
 83 57  1  0
 83 88  1  0
 83 84  1  0
 84 87  1  1
 84 85  1  0
 86 84  1  0
 88 91  1  0
 89 93  1  0
 89 88  1  0
 90 89  2  0
 93 92  1  0
 95 93  1  0
 95 96  1  0
 95 94  1  0
M  ISO  4   4 101  12 100  21 100  56 101
M  END
>  <TORSDO>  (4) 
F 17

>  <SCORE>  (4) 
-14.243

>  <name>  (4) 
3

>  <ligand_id>  (4) 
3

>  <original_smiles>  (4) 
[H]C(=C(C([H])([H])[H])C([H])([H])[H])C1(C(=O)N([H])C(=O)N2C([H])([H])C([H])([H])C([H])([H])C([H])(n3nc(-c4c([H])c([H])c(Oc5c([H])c([H])c(F)c([H])c5F)c([H])c4[H])c(C(=O)N([H])[H])c3N([H])[H])C2([H])[H])c2c([H])c(F)c(Oc3c([H])c([H])c4c(c3[H])C([H])([H])N(C(=O)C([H])(N([H])C(=O)C([H])(N([H])C([H])([H])[H])C([H])([H])[H])C(C([H])([H])[H])(C([H])([H])[H])C([H])([H])[H])C([H])(C(=O)N([H])C3([H])c5c([H])c([H])c([H])c([H])c5C([H])([H])C([H])([H])C3([H])[H])C4([H])[H])c(F)c2C([H])([H])C1([H])[H]

>  <smiles>  (4) 
[H]C(=C(C([H])([H])[H])C([H])([H])[H])C1(C(=O)N([H])C(=O)N2C([H])([H])C([H])([H])C([H])([H])C([H])(n3nc(-c4c([H])c([H])c(Oc5c([H])c([H])c(F)c([H])c5F)c([H])c4[H])c(C(=O)N([H])[H])c3N([H])[H])C2([H])[H])c2c([H])c(F)c(Oc3c([H])c([H])c4c(c3[H])C([H])([H])N(C(=O)C([H])(N([H])C(=O)C([H])(N([H])C([H])([H])[H])C([H])([H])[H])C(C([H])([H])[H])(C([H])([H])[H])C([H])([H])[H])C([H])(C(=O)N([H])C3([H])c5c([H])c([H])c([H])c([H])c5C([H])([H])C([H])([H])C3([H])[H])C4([H])[H])c(F)c2C([H])([H])C1([H])[H]

$$$$
4:0:0
     RDKit          3D

 92100  0  0  1  0  0  0  0  0999 V2000
  -28.6500  -22.9470   20.9220 C   0  0  0  0  0  3  0  0  0  0  0  0
  -28.4340  -23.2420   18.5390 C   0  0  0  0  0  3  0  0  0  0  0  0
  -28.5670  -22.3550   19.6410 C   0  0  0  0  0  0  0  0  0  0  0  0
  -28.5830  -24.3610   21.1020 C   0  0  0  0  0  0  0  0  0  0  0  0
  -28.3870  -24.6660   18.6970 C   0  0  0  0  0  0  0  0  0  0  0  0
  -28.4270  -25.2430   19.9950 C   0  0  0  0  0  0  0  0  0  0  0  0
  -28.6960  -24.9140   22.5110 C   0  0  0  0  0  1  0  0  0  0  0  0
  -28.0470  -25.0510   16.3320 C   0  0  0  0  0  1  0  0  0  0  0  0
  -28.3180  -25.5500   17.6370 O   0  0  0  0  0  0  0  0  0  0  0  0
  -28.4200  -26.6410   20.1620 O   0  0  0  0  0  0  0  0  0  0  0  0
  -24.6360  -31.9400   23.2420 C   0  0  0  0  0  0  0  0  0  0  0  0
  -27.2510  -27.4020   20.1800 C   0  0  0  0  0  0  0  0  0  0  0  0
  -23.4260  -30.5340   21.6100 C   0  0  0  0  0  3  0  0  0  0  0  0
  -24.8690  -28.9750   20.1930 C   0  0  0  0  0  0  0  0  0  0  0  0
  -25.9630  -30.8580   21.4250 C   0  0  0  0  0  2  0  0  0  0  0  0
  -26.0380  -29.4800   20.7790 C   0  0  0  0  0  0  0  0  0  0  0  0
  -27.2240  -28.7040   20.7670 C   0  0  0  0  0  3  0  0  0  0  0  0
  -26.0550  -26.9280   19.5990 C   0  0  0  0  0  3  0  0  0  0  0  0
  -24.8760  -27.6980   19.6110 C   0  0  0  0  0  3  0  0  0  0  0  0
  -23.6380  -29.8550   20.2310 C   0  0  0  0  0  2  0  0  0  0  0  0
  -24.6920  -31.1290   22.1480 N   0  0  0  0  0  0  0  0  0  0  0  0
  -23.5550  -32.2150   23.7830 O   0  0  0  0  0  0  0  0  0  0  0  0
  -22.7720  -29.5170   22.5740 C   0  0  0  0  0  0  0  0  0  0  0  0
  -21.4480  -29.3310   22.4460 N   0  0  0  0  0  0  0  0  0  0  0  0
  -23.4510  -28.8980   23.3980 O   0  0  0  0  0  0  0  0  0  0  0  0
  -20.9570  -29.8720   21.7480 H   0  0  0  0  0  0  0  0  0  0  0  0
  -18.0710  -28.1420   22.9520 C   0  0  0  0  0  0  0  0  0  0  0  0
  -20.6310  -28.3980   23.2230 C   0  0  0  0  0  3  0  0  0  0  0  0
  -20.7300  -26.9650   22.6520 C   0  0  0  0  0  2  0  0  0  0  0  0
  -19.6260  -26.6380   21.6420 C   0  0  0  0  0  2  0  0  0  0  0  0
  -18.2440  -26.7890   22.2830 C   0  0  0  0  0  2  0  0  0  0  0  0
  -19.1910  -28.9030   23.3780 C   0  0  0  0  0  0  0  0  0  0  0  0
  -18.9710  -30.1720   23.9580 C   0  0  0  0  0  3  0  0  0  0  0  0
  -17.6660  -30.6720   24.1250 C   0  0  0  0  0  3  0  0  0  0  0  0
  -16.5610  -29.9050   23.7200 C   0  0  0  0  0  3  0  0  0  0  0  0
  -16.7660  -28.6420   23.1350 C   0  0  0  0  0  3  0  0  0  0  0  0
  -25.9250  -32.5750   23.8530 C   0  0  0  0  0  3  0  0  0  0  0  0
  -25.6180  -33.9710   24.1880 N   0  0  0  0  0  0  0  0  0  0  0  0
  -25.9350  -35.0240   23.4230 C   0  0  0  0  0  0  0  0  0  0  0  0
  -26.5900  -34.9250   22.3850 O   0  0  0  0  0  0  0  0  0  0  0  0
  -25.0510  -34.1280   25.0070 H   0  0  0  0  0  0  0  0  0  0  0  0
  -24.1960  -36.8070   23.0840 C   0  0  0  0  0  1  0  0  0  0  0  0
  -25.4410  -36.4070   23.8910 C   0  0  0  0  0  3  0  0  0  0  0  0
  -27.5690  -37.2940   24.7300 C   0  0  0  0  0  1  0  0  0  0  0  0
  -26.4670  -37.4660   23.7870 N   0  0  0  0  0  0  0  0  0  0  0  0
  -26.0530  -38.3820   23.9440 H   0  0  0  0  0  0  0  0  0  0  0  0
  -26.4540  -31.8100   25.1300 C   0  0  1  0  0  0  0  0  0  0  0  0
  -25.3680  -31.5650   26.2020 C   0  0  0  0  0  1  0  0  0  0  0  0
  -27.0510  -30.4380   24.7450 C   0  0  0  0  0  1  0  0  0  0  0  0
  -27.5960  -32.6210   25.7890 C   0  0  0  0  0  1  0  0  0  0  0  0
  -28.5000  -20.8020   19.4310 C   0  0  0  0  0  3  0  0  0  0  0  0
  -29.5510  -19.8360   20.1120 C   0  0  0  0  0  3  0  0  0  0  0  0
  -29.3030  -18.2790   19.8920 C   0  0  0  0  0  3  0  0  0  0  0  0
  -30.2910  -17.2600   20.6100 C   0  0  0  0  0  3  0  0  0  0  0  0
  -30.6720  -14.7040   20.3850 C   0  0  0  0  0  0  0  0  0  0  0  0
  -30.4280  -12.4590   19.3700 C   0  0  0  0  0  2  0  0  0  0  0  0
  -29.4940  -12.5900   18.1480 C   0  0  0  0  0  2  0  0  0  0  0  0
  -28.0220  -12.4180   18.5730 C   0  0  0  0  0  2  0  0  0  0  0  0
  -27.6560  -13.3030   19.7960 C   0  0  0  0  0  3  0  0  0  0  0  0
  -28.7140  -13.1890   20.9160 C   0  0  0  0  0  2  0  0  0  0  0  0
  -30.0260  -13.4990   20.3300 N   0  0  0  0  0  0  0  0  0  0  0  0
  -31.8520  -14.8190   20.0450 O   0  0  0  0  0  0  0  0  0  0  0  0
  -29.8960  -15.8070   20.6190 N   0  0  0  0  0  0  0  0  0  0  0  0
  -28.9410  -15.6080   20.8840 H   0  0  0  0  0  0  0  0  0  0  0  0
  -25.2640  -13.8980   20.5190 C   0  0  0  0  0  0  0  0  0  0  0  0
  -24.2010  -13.1220   20.8940 C   0  0  0  0  0  0  0  0  0  0  0  0
  -24.6680  -11.7710   20.8680 C   0  0  0  0  0  0  0  0  0  0  0  0
  -26.3100  -13.0190   20.2870 N   0  0  0  0  0  0  0  0  0  0  0  0
  -25.9590  -11.7350   20.5620 N   0  0  0  0  0  0  0  0  0  0  0  0
  -23.9480  -10.5070   21.0620 C   0  0  0  0  0  0  0  0  0  0  0  0
  -24.3850   -9.5440   21.9980 C   0  0  0  0  0  3  0  0  0  0  0  0
  -23.6620   -8.3450   22.1810 C   0  0  0  0  0  3  0  0  0  0  0  0
  -22.4890   -8.1020   21.4310 C   0  0  0  0  0  0  0  0  0  0  0  0
  -22.0740   -9.0510   20.4820 C   0  0  0  0  0  3  0  0  0  0  0  0
  -22.7970  -10.2410   20.2960 C   0  0  0  0  0  3  0  0  0  0  0  0
  -21.7400   -6.9530   21.5210 O   0  0  0  0  0  0  0  0  0  0  0  0
  -21.6920   -6.2160   22.6760 C   0  0  0  0  0  0  0  0  0  0  0  0
  -21.2600   -6.7730   23.9010 C   0  0  0  0  0  3  0  0  0  0  0  0
  -21.1610   -5.9590   25.0480 C   0  0  0  0  0  3  0  0  0  0  0  0
  -21.4850   -4.5910   24.9720 C   0  0  0  0  0  0  0  0  0  0  0  0
  -21.9120   -4.0350   23.7520 C   0  0  0  0  0  3  0  0  0  0  0  0
  -22.0110   -4.8440   22.6070 C   0  0  0  0  0  0  0  0  0  0  0  0
  -22.4020   -4.2980   21.4300 F   0  0  0  0  0  0  0  0  0  0  0  0
  -21.3820   -3.8070   26.0710 F   0  0  0  0  0  0  0  0  0  0  0  0
  -22.8030  -13.5930   21.1670 C   0  0  0  0  0  0  0  0  0  0  0  0
  -22.0800  -12.8930   22.0340 N   0  0  0  0  0  0  0  0  0  0  0  0
  -22.3590  -14.6160   20.6440 O   0  0  0  0  0  0  0  0  0  0  0  0
  -22.4530  -12.0630   22.4710 H   0  0  0  0  0  0  0  0  0  0  0  0
  -21.1410  -13.1840   22.2630 H   0  0  0  0  0  0  0  0  0  0  0  0
  -25.4290  -15.2690   20.3320 N   0  0  0  0  0  0  0  0  0  0  0  0
  -24.6590  -15.9240   20.4110 H   0  0  0  0  0  0  0  0  0  0  0  0
  -26.2860  -15.7040   20.0170 H   0  0  0  0  0  0  0  0  0  0  0  0
  1  4  1  0
  2  5  2  0
  2  3  1  0
  3  1  2  0
  4  7  1  0
  5  6  1  0
  6 10  1  0
  6  4  2  0
  8  9  1  0
  9  5  1  0
 10 12  1  0
 11 22  2  0
 12 17  1  0
 13 21  1  0
 13 23  1  0
 14 20  1  0
 14 16  1  0
 15 21  1  0
 16 15  1  0
 17 16  2  0
 18 19  1  0
 18 12  2  0
 19 14  2  0
 20 13  1  0
 21 11  1  0
 23 25  2  0
 24 23  1  0
 26 24  1  0
 27 36  2  0
 27 32  1  0
 28 24  1  0
 28 32  1  0
 29 28  1  0
 30 31  1  0
 30 29  1  0
 31 27  1  0
 32 33  2  0
 33 34  1  0
 35 34  2  0
 36 35  1  0
 37 11  1  0
 37 38  1  0
 37 47  1  0
 38 41  1  0
 39 43  1  0
 39 38  1  0
 40 39  2  0
 43 42  1  0
 45 43  1  0
 45 46  1  0
 45 44  1  0
 47 50  1  1
 47 48  1  0
 49 47  1  0
 51  3  1  0
 51 52  2  0
 53 52  1  0
 53 54  2  0
 54 63  1  0
 55 63  1  0
 56 61  1  0
 57 58  1  0
 57 56  1  0
 59 58  1  0
 59 68  1  0
 59 60  1  0
 61 55  1  0
 61 60  1  0
 62 55  2  0
 63 64  1  0
 65 66  2  0
 66 85  1  0
 67 66  1  0
 67 70  1  0
 68 65  1  0
 68 69  1  0
 69 67  2  0
 70 71  1  0
 71 72  2  0
 73 76  1  0
 73 72  1  0
 74 73  2  0
 75 74  1  0
 75 70  2  0
 76 77  1  0
 77 78  1  0
 78 79  2  0
 80 79  1  0
 80 84  1  0
 81 80  2  0
 82 77  2  0
 82 81  1  0
 83 82  1  0
 85 86  1  0
 86 89  1  0
 86 88  1  0
 87 85  2  0
 90 91  1  0
 90 65  1  0
 92 90  1  0
M  ISO  4   6 101  10 101  55 100  63 100
M  END
>  <TORSDO>  (5) 
F 21

>  <SCORE>  (5) 
-13.458

>  <name>  (5) 
4

>  <ligand_id>  (5) 
4

>  <original_smiles>  (5) 
[H]c1c([H])c([H])c2c(c1[H])C([H])([H])C([H])([H])C([H])([H])C2([H])N([H])C(=O)C1([H])N(C(=O)C([H])(N([H])C(=O)C([H])(N([H])C([H])([H])[H])C([H])([H])[H])C(C([H])([H])[H])(C([H])([H])[H])C([H])([H])[H])C([H])([H])c2c([H])c(Oc3c(OC([H])([H])[H])c([H])c(C([H])([H])C([H])([H])C([H])([H])C([H])([H])N([H])C(=O)N4C([H])([H])C([H])([H])C([H])([H])C([H])(n5nc(-c6c([H])c([H])c(Oc7c([H])c([H])c(F)c([H])c7F)c([H])c6[H])c(C(=O)N([H])[H])c5N([H])[H])C4([H])[H])c([H])c3C([H])([H])[H])c([H])c([H])c2C1([H])[H]

>  <smiles>  (5) 
[H]c1c([H])c([H])c2c(c1[H])C([H])([H])C([H])([H])C([H])([H])C2([H])N([H])C(=O)C1([H])N(C(=O)C([H])(N([H])C(=O)C([H])(N([H])C([H])([H])[H])C([H])([H])[H])C(C([H])([H])[H])(C([H])([H])[H])C([H])([H])[H])C([H])([H])c2c([H])c(Oc3c(OC([H])([H])[H])c([H])c(C([H])([H])C([H])([H])C([H])([H])C([H])([H])N([H])C(=O)N4C([H])([H])C([H])([H])C([H])([H])C([H])(n5nc(-c6c([H])c([H])c(Oc7c([H])c([H])c(F)c([H])c7F)c([H])c6[H])c(C(=O)N([H])[H])c5N([H])[H])C4([H])[H])c([H])c3C([H])([H])[H])c([H])c([H])c2C1([H])[H]

$$$$
5:0:0
     RDKit          3D

 98106  0  0  1  0  0  0  0  0999 V2000
  -29.0280  -20.0820   20.5510 C   0  0  0  0  0  3  0  0  0  0  0  0
  -29.5170  -21.6620   20.5450 N   0  0  0  0  0  4  0  0  0  0  0  0
  -29.6820  -21.8750   21.5170 H   0  0  0  0  0  0  0  0  0  0  0  0
  -30.4410  -21.5850   20.1550 H   0  0  0  0  0  0  0  0  0  0  0  0
  -28.9820  -23.0810   19.8800 C   0  0  0  0  0  2  0  0  0  0  0  0
  -28.4730  -24.5950   20.6270 C   0  0  0  0  0  2  0  0  0  0  0  0
  -28.5480  -26.1590   20.1930 O   0  0  0  0  0  0  0  0  0  0  0  0
  -24.7980  -31.9180   23.2150 C   0  0  0  0  0  0  0  0  0  0  0  0
  -27.4640  -27.1550   20.2060 C   0  0  0  0  0  0  0  0  0  0  0  0
  -23.6270  -30.4890   21.5830 C   0  0  0  0  0  3  0  0  0  0  0  0
  -25.1010  -28.9130   20.1650 C   0  0  0  0  0  0  0  0  0  0  0  0
  -26.1790  -30.7820   21.4110 C   0  0  0  0  0  2  0  0  0  0  0  0
  -26.2800  -29.3750   20.7670 C   0  0  0  0  0  0  0  0  0  0  0  0
  -27.4570  -28.5180   20.7600 C   0  0  0  0  0  3  0  0  0  0  0  0
  -26.2530  -26.8210   19.5570 C   0  0  0  0  0  3  0  0  0  0  0  0
  -25.1050  -27.6530   19.5420 C   0  0  0  0  0  3  0  0  0  0  0  0
  -23.8630  -29.8040   20.2060 C   0  0  0  0  0  2  0  0  0  0  0  0
  -24.8890  -31.0900   22.1240 N   0  0  0  0  0  0  0  0  0  0  0  0
  -23.7070  -32.1780   23.7480 O   0  0  0  0  0  0  0  0  0  0  0  0
  -22.9720  -29.4770   22.5590 C   0  0  0  0  0  0  0  0  0  0  0  0
  -21.6470  -29.2820   22.4520 N   0  0  0  0  0  0  0  0  0  0  0  0
  -23.6620  -28.8680   23.3800 O   0  0  0  0  0  0  0  0  0  0  0  0
  -21.1420  -29.8390   21.7780 H   0  0  0  0  0  0  0  0  0  0  0  0
  -18.2950  -27.9940   23.0110 C   0  0  0  0  0  0  0  0  0  0  0  0
  -20.8530  -28.3230   23.2320 C   0  0  0  0  0  3  0  0  0  0  0  0
  -20.9740  -26.8900   22.6610 C   0  0  0  0  0  2  0  0  0  0  0  0
  -19.8640  -26.5370   21.6650 C   0  0  0  0  0  2  0  0  0  0  0  0
  -18.4910  -26.6500   22.3310 C   0  0  0  0  0  2  0  0  0  0  0  0
  -19.4030  -28.7860   23.4200 C   0  0  0  0  0  0  0  0  0  0  0  0
  -19.1610  -30.0390   24.0220 C   0  0  0  0  0  3  0  0  0  0  0  0
  -17.8470  -30.5050   24.2140 C   0  0  0  0  0  3  0  0  0  0  0  0
  -16.7550  -29.7160   23.8120 C   0  0  0  0  0  3  0  0  0  0  0  0
  -16.9800  -28.4620   23.2190 C   0  0  0  0  0  3  0  0  0  0  0  0
  -26.0590  -32.5960   23.8330 C   0  0  0  0  0  3  0  0  0  0  0  0
  -25.7110  -33.9890   24.1590 N   0  0  0  0  0  0  0  0  0  0  0  0
  -26.0120  -35.0550   23.4040 C   0  0  0  0  0  0  0  0  0  0  0  0
  -26.6780  -34.9710   22.3690 O   0  0  0  0  0  0  0  0  0  0  0  0
  -25.1180  -34.1250   24.9650 H   0  0  0  0  0  0  0  0  0  0  0  0
  -24.2350  -36.8120   23.0740 C   0  0  0  0  0  1  0  0  0  0  0  0
  -25.4960  -36.4330   23.8700 C   0  0  0  0  0  3  0  0  0  0  0  0
  -27.6200  -37.3730   24.6700 C   0  0  0  0  0  1  0  0  0  0  0  0
  -26.5010  -37.5130   23.7430 N   0  0  0  0  0  0  0  0  0  0  0  0
  -26.0740  -38.4240   23.8940 H   0  0  0  0  0  0  0  0  0  0  0  0
  -26.5910  -31.8560   25.1230 C   0  0  1  0  0  0  0  0  0  0  0  0
  -25.5060  -31.6110   26.1980 C   0  0  0  0  0  1  0  0  0  0  0  0
  -27.2070  -30.4880   24.7580 C   0  0  0  0  0  1  0  0  0  0  0  0
  -27.7250  -32.6850   25.7720 C   0  0  0  0  0  1  0  0  0  0  0  0
  -27.4700  -19.9340   20.5090 C   0  0  0  0  0  2  0  0  0  0  0  0
  -25.2530  -21.4250   17.0590 C   0  0  0  0  0  3  0  0  0  0  0  0
  -25.5140  -22.2840   18.1380 C   0  0  0  0  0  3  0  0  0  0  0  0
  -25.7000  -20.0910   17.0840 C   0  0  0  0  0  0  0  0  0  0  0  0
  -26.2040  -21.8180   19.2750 C   0  0  0  0  0  0  0  0  0  0  0  0
  -26.4570  -19.6200   18.1870 C   0  0  0  0  0  0  0  0  0  0  0  0
  -26.7030  -20.4780   19.2960 C   0  0  0  0  0  0  0  0  0  0  0  0
  -25.3640  -19.1900   15.9080 C   0  0  0  0  0  1  0  0  0  0  0  0
  -27.0530  -18.2110   18.1680 C   0  0  0  0  0  1  0  0  0  0  0  0
  -25.0130  -23.1360   21.0790 C   0  0  0  0  0  1  0  0  0  0  0  0
  -26.3680  -22.8020   20.4370 C   0  0  0  0  0  2  0  0  0  0  0  0
  -29.9020  -18.5920   20.0440 C   0  0  0  0  0  2  0  0  0  0  0  0
  -30.4110  -16.9940   22.0340 C   0  0  0  0  0  1  0  0  0  0  0  0
  -28.2840  -16.7230   20.7600 C   0  0  0  0  0  1  0  0  0  0  0  0
  -29.7960  -16.8990   20.6230 C   0  0  1  0  0  0  0  0  0  0  0  0
  -30.5140  -15.3790   20.0760 C   0  0  0  0  0  0  0  0  0  0  0  0
  -30.4880  -12.9760   19.0690 C   0  0  0  0  0  2  0  0  0  0  0  0
  -29.4900  -12.8490   17.8900 C   0  0  0  0  0  2  0  0  0  0  0  0
  -28.0490  -12.6020   18.3770 C   0  0  0  0  0  2  0  0  0  0  0  0
  -27.6890  -13.4740   19.6040 C   0  0  0  0  0  3  0  0  0  0  0  0
  -28.8090  -13.4440   20.6660 C   0  0  0  0  0  2  0  0  0  0  0  0
  -30.0000  -14.0440   20.0250 N   0  0  0  0  0  0  0  0  0  0  0  0
  -31.6830  -15.4210   19.6590 O   0  0  0  0  0  0  0  0  0  0  0  0
  -25.3300  -14.0180   20.4270 C   0  0  0  0  0  0  0  0  0  0  0  0
  -24.2860  -13.2280   20.8240 C   0  0  0  0  0  0  0  0  0  0  0  0
  -24.7590  -11.8850   20.7530 C   0  0  0  0  0  0  0  0  0  0  0  0
  -26.3740  -13.1530   20.1440 N   0  0  0  0  0  0  0  0  0  0  0  0
  -26.0410  -11.8610   20.4010 N   0  0  0  0  0  0  0  0  0  0  0  0
  -24.0430  -10.6170   20.9490 C   0  0  0  0  0  0  0  0  0  0  0  0
  -24.5060   -9.6340   21.8500 C   0  0  0  0  0  3  0  0  0  0  0  0
  -23.7870   -8.4330   22.0300 C   0  0  0  0  0  3  0  0  0  0  0  0
  -22.5880   -8.2100   21.3130 C   0  0  0  0  0  0  0  0  0  0  0  0
  -22.1420   -9.1820   20.4010 C   0  0  0  0  0  3  0  0  0  0  0  0
  -22.8610  -10.3730   20.2180 C   0  0  0  0  0  3  0  0  0  0  0  0
  -21.8320   -7.0670   21.4110 O   0  0  0  0  0  0  0  0  0  0  0  0
  -21.8280   -6.3040   22.5500 C   0  0  0  0  0  0  0  0  0  0  0  0
  -21.4630   -6.8380   23.8050 C   0  0  0  0  0  3  0  0  0  0  0  0
  -21.4040   -5.9990   24.9360 C   0  0  0  0  0  3  0  0  0  0  0  0
  -21.7010   -4.6290   24.8150 C   0  0  0  0  0  0  0  0  0  0  0  0
  -22.0590   -4.0940   23.5640 C   0  0  0  0  0  3  0  0  0  0  0  0
  -22.1200   -4.9290   22.4350 C   0  0  0  0  0  0  0  0  0  0  0  0
  -22.4460   -4.4060   21.2280 F   0  0  0  0  0  0  0  0  0  0  0  0
  -21.6370   -3.8200   25.8990 F   0  0  0  0  0  0  0  0  0  0  0  0
  -22.8990  -13.6990   21.1490 C   0  0  0  0  0  0  0  0  0  0  0  0
  -22.2120  -13.0000   22.0450 N   0  0  0  0  0  0  0  0  0  0  0  0
  -22.4340  -14.7210   20.6480 O   0  0  0  0  0  0  0  0  0  0  0  0
  -22.5990  -12.1720   22.4740 H   0  0  0  0  0  0  0  0  0  0  0  0
  -21.2850  -13.2980   22.3130 H   0  0  0  0  0  0  0  0  0  0  0  0
  -25.4550  -15.3880   20.2560 N   0  0  0  0  0  0  0  0  0  0  0  0
  -24.6800  -16.0250   20.4100 H   0  0  0  0  0  0  0  0  0  0  0  0
  -26.2960  -15.8480   19.9340 H   0  0  0  0  0  0  0  0  0  0  0  0
  1 59  1  0
  2  1  1  0
  2  3  1  0
  4  2  1  0
  5  2  1  0
  5  6  1  0
  7  9  1  0
  7  6  1  0
  8 19  2  0
  9 14  1  0
 10 18  1  0
 10 20  1  0
 11 17  1  0
 11 13  1  0
 12 18  1  0
 13 12  1  0
 14 13  2  0
 15  9  2  0
 16 15  1  0
 16 11  2  0
 17 10  1  0
 18  8  1  0
 20 22  2  0
 21 20  1  0
 23 21  1  0
 24 33  2  0
 24 29  1  0
 25 21  1  0
 25 29  1  0
 26 25  1  0
 27 28  1  0
 27 26  1  0
 28 24  1  0
 29 30  2  0
 30 31  1  0
 32 31  2  0
 33 32  1  0
 34  8  1  0
 34 35  1  0
 34 44  1  0
 35 38  1  0
 36 40  1  0
 36 35  1  0
 37 36  2  0
 40 39  1  0
 42 40  1  0
 42 43  1  0
 42 41  1  0
 44 47  1  1
 44 45  1  0
 46 44  1  0
 48  1  1  0
 49 51  2  0
 49 50  1  0
 50 52  2  0
 51 53  1  0
 52 54  1  0
 52 58  1  0
 53 54  2  0
 54 48  1  0
 55 51  1  0
 56 53  1  0
 58 57  1  0
 59 62  1  0
 62 61  1  1
 62 60  1  0
 63 62  1  0
 64 69  1  0
 65 66  1  0
 65 64  1  0
 67 66  1  0
 67 74  1  0
 67 68  1  0
 69 63  1  0
 69 68  1  0
 70 63  2  0
 71 72  2  0
 72 91  1  0
 73 72  1  0
 73 76  1  0
 74 75  1  0
 74 71  1  0
 75 73  2  0
 76 77  1  0
 77 78  2  0
 79 82  1  0
 79 78  1  0
 80 79  2  0
 81 80  1  0
 81 76  2  0
 82 83  1  0
 83 84  1  0
 84 85  2  0
 86 85  1  0
 86 90  1  0
 87 86  2  0
 88 83  2  0
 88 87  1  0
 89 88  1  0
 91 92  1  0
 92 95  1  0
 92 94  1  0
 93 91  2  0
 96 97  1  0
 96 71  1  0
 98 96  1  0
M  ISO  4   6 101   7 101  62 100  63 100
M  END
>  <TORSDO>  (6) 
F 24

>  <SCORE>  (6) 
-10.834

>  <name>  (6) 
5

>  <ligand_id>  (6) 
5

>  <original_smiles>  (6) 
[H]c1c([H])c([H])c2c(c1[H])C([H])([H])C([H])([H])C([H])([H])C2([H])N([H])C(=O)C1([H])N(C(=O)C([H])(N([H])C(=O)C([H])(N([H])C([H])([H])[H])C([H])([H])[H])C(C([H])([H])[H])(C([H])([H])[H])C([H])([H])[H])C([H])([H])c2c([H])c(OC([H])([H])C([H])([H])[N+]([H])([H])C([H])(C([H])([H])c3c(C([H])([H])[H])c(C([H])([H])[H])c([H])c([H])c3C([H])([H])C([H])([H])[H])C([H])([H])C(C(=O)N3C([H])([H])C([H])([H])C([H])([H])C([H])(n4nc(-c5c([H])c([H])c(Oc6c([H])c([H])c(F)c([H])c6F)c([H])c5[H])c(C(=O)N([H])[H])c4N([H])[H])C3([H])[H])(C([H])([H])[H])C([H])([H])[H])c([H])c([H])c2C1([H])[H]

>  <smiles>  (6) 
[H]c1c([H])c([H])c2c(c1[H])C([H])([H])C([H])([H])C([H])([H])C2([H])N([H])C(=O)C1([H])N(C(=O)C([H])(N([H])C(=O)C([H])(N([H])C([H])([H])[H])C([H])([H])[H])C(C([H])([H])[H])(C([H])([H])[H])C([H])([H])[H])C([H])([H])c2c([H])c(OC([H])([H])C([H])([H])[N+]([H])([H])C([H])(C([H])([H])c3c(C([H])([H])[H])c(C([H])([H])[H])c([H])c([H])c3C([H])([H])C([H])([H])[H])C([H])([H])C(C(=O)N3C([H])([H])C([H])([H])C([H])([H])C([H])(n4nc(-c5c([H])c([H])c(Oc6c([H])c([H])c(F)c([H])c6F)c([H])c5[H])c(C(=O)N([H])[H])c4N([H])[H])C3([H])[H])(C([H])([H])[H])C([H])([H])[H])c([H])c([H])c2C1([H])[H]

$$$$
6:0:0
     RDKit          3D

 94102  0  0  1  0  0  0  0  0999 V2000
  -30.3020  -23.2110   20.5760 C   0  0  0  0  0  3  0  0  0  0  0  0
  -31.1050  -24.3010   20.2200 C   0  0  0  0  0  3  0  0  0  0  0  0
  -28.9140  -23.3740   20.7720 C   0  0  0  0  0  0  0  0  0  0  0  0
  -30.5200  -25.5610   20.0270 C   0  0  0  0  0  0  0  0  0  0  0  0
  -28.3190  -24.6690   20.6700 C   0  0  0  0  0  0  0  0  0  0  0  0
  -29.1320  -25.7580   20.2170 C   0  0  0  0  0  0  0  0  0  0  0  0
  -31.4120  -26.7270   19.6270 C   0  0  0  0  0  1  0  0  0  0  0  0
  -26.8460  -24.8760   21.0310 C   0  0  0  0  0  1  0  0  0  0  0  0
  -28.1470  -22.1270   21.0430 C   0  0  0  0  0  0  0  0  0  0  0  0
  -27.4170  -21.9480   22.0220 O   0  0  0  0  0  0  0  0  0  0  0  0
  -28.2640  -21.0600   19.9460 C   0  0  0  0  0  2  0  0  0  0  0  0
  -28.3110  -19.5870   20.4210 C   0  0  0  0  0  2  0  0  0  0  0  0
  -29.6590  -18.8680   20.1720 C   0  0  0  0  0  2  0  0  0  0  0  0
  -29.6150  -17.3880   20.6140 C   0  0  0  0  0  2  0  0  0  0  0  0
  -30.8210  -16.5450   20.1500 C   0  0  0  0  0  2  0  0  0  0  0  0
  -31.1960  -14.1030   19.8090 C   0  0  0  0  0  0  0  0  0  0  0  0
  -30.8390  -11.8260   18.9330 C   0  0  0  0  0  2  0  0  0  0  0  0
  -29.8530  -11.9090   17.7500 C   0  0  0  0  0  2  0  0  0  0  0  0
  -28.3950  -11.8210   18.2490 C   0  0  0  0  0  2  0  0  0  0  0  0
  -28.1160  -12.8100   19.4100 C   0  0  0  0  0  3  0  0  0  0  0  0
  -29.2100  -12.7060   20.4980 C   0  0  0  0  0  2  0  0  0  0  0  0
  -30.5220  -12.9230   19.8600 N   0  0  0  0  0  0  0  0  0  0  0  0
  -32.2240  -14.2650   19.1460 O   0  0  0  0  0  0  0  0  0  0  0  0
  -30.6060  -15.1260   20.4470 N   0  0  0  0  0  0  0  0  0  0  0  0
  -29.8280  -14.8920   21.0450 H   0  0  0  0  0  0  0  0  0  0  0  0
  -25.8010  -13.5560   20.2600 C   0  0  0  0  0  0  0  0  0  0  0  0
  -24.7170  -12.8400   20.7030 C   0  0  0  0  0  0  0  0  0  0  0  0
  -25.1020  -11.4660   20.6470 C   0  0  0  0  0  0  0  0  0  0  0  0
  -26.7780  -12.6150   19.9690 N   0  0  0  0  0  0  0  0  0  0  0  0
  -26.3660  -11.3560   20.2540 N   0  0  0  0  0  0  0  0  0  0  0  0
  -24.3250  -10.2440   20.8890 C   0  0  0  0  0  0  0  0  0  0  0  0
  -24.7210   -9.2950   21.8570 C   0  0  0  0  0  3  0  0  0  0  0  0
  -23.9440   -8.1370   22.0780 C   0  0  0  0  0  3  0  0  0  0  0  0
  -22.7600   -7.9220   21.3360 C   0  0  0  0  0  0  0  0  0  0  0  0
  -22.3870   -8.8570   20.3560 C   0  0  0  0  0  3  0  0  0  0  0  0
  -23.1630  -10.0060   20.1310 C   0  0  0  0  0  3  0  0  0  0  0  0
  -21.9560   -6.8160   21.4700 O   0  0  0  0  0  0  0  0  0  0  0  0
  -21.8220   -6.1660   22.6710 C   0  0  0  0  0  0  0  0  0  0  0  0
  -21.3550   -6.8250   23.8300 C   0  0  0  0  0  3  0  0  0  0  0  0
  -21.1670   -6.1000   25.0230 C   0  0  0  0  0  3  0  0  0  0  0  0
  -21.4320   -4.7170   25.0580 C   0  0  0  0  0  0  0  0  0  0  0  0
  -21.8930   -4.0590   23.9030 C   0  0  0  0  0  3  0  0  0  0  0  0
  -22.0830   -4.7820   22.7130 C   0  0  0  0  0  0  0  0  0  0  0  0
  -22.5050   -4.1380   21.5990 F   0  0  0  0  0  0  0  0  0  0  0  0
  -21.2460   -4.0200   26.2010 F   0  0  0  0  0  0  0  0  0  0  0  0
  -23.3710  -13.3930   21.0740 C   0  0  0  0  0  0  0  0  0  0  0  0
  -22.6790  -12.7430   22.0050 N   0  0  0  0  0  0  0  0  0  0  0  0
  -22.9460  -14.4320   20.5720 O   0  0  0  0  0  0  0  0  0  0  0  0
  -23.0400  -11.9010   22.4310 H   0  0  0  0  0  0  0  0  0  0  0  0
  -21.7790  -13.0930   22.2990 H   0  0  0  0  0  0  0  0  0  0  0  0
  -26.0250  -14.9140   20.0600 N   0  0  0  0  0  0  0  0  0  0  0  0
  -25.2980  -15.6070   20.2050 H   0  0  0  0  0  0  0  0  0  0  0  0
  -26.8750  -15.3090   19.6790 H   0  0  0  0  0  0  0  0  0  0  0  0
  -28.7450  -27.0580   19.9740 O   0  0  0  0  0  0  0  0  0  0  0  0
  -24.5110  -31.7480   23.1450 C   0  0  0  0  0  0  0  0  0  0  0  0
  -27.4840  -27.5870   20.0160 C   0  0  0  0  0  0  0  0  0  0  0  0
  -23.4320  -30.3580   21.4020 C   0  0  0  0  0  3  0  0  0  0  0  0
  -25.0110  -28.9360   19.9820 C   0  0  0  0  0  0  0  0  0  0  0  0
  -25.9350  -30.8410   21.3160 C   0  0  0  0  0  2  0  0  0  0  0  0
  -26.1060  -29.4970   20.6470 C   0  0  0  0  0  0  0  0  0  0  0  0
  -27.3390  -28.8230   20.6730 C   0  0  0  0  0  3  0  0  0  0  0  0
  -26.3840  -27.0250   19.3370 C   0  0  0  0  0  3  0  0  0  0  0  0
  -25.1420  -27.6940   19.3270 C   0  0  0  0  0  3  0  0  0  0  0  0
  -23.7250  -29.7340   20.0080 C   0  0  0  0  0  2  0  0  0  0  0  0
  -24.6410  -30.9930   22.0180 N   0  0  0  0  0  0  0  0  0  0  0  0
  -23.4000  -31.9570   23.6530 O   0  0  0  0  0  0  0  0  0  0  0  0
  -22.7860  -29.2780   22.2980 C   0  0  0  0  0  0  0  0  0  0  0  0
  -21.4630  -29.1060   22.1640 N   0  0  0  0  0  0  0  0  0  0  0  0
  -23.4760  -28.5990   23.0620 O   0  0  0  0  0  0  0  0  0  0  0  0
  -20.9720  -29.7020   21.5110 H   0  0  0  0  0  0  0  0  0  0  0  0
  -18.0750  -27.9880   22.7100 C   0  0  0  0  0  0  0  0  0  0  0  0
  -20.6470  -28.1240   22.8760 C   0  0  0  0  0  3  0  0  0  0  0  0
  -20.6700  -26.7590   22.1520 C   0  0  0  0  0  2  0  0  0  0  0  0
  -19.5100  -26.5790   21.1670 C   0  0  0  0  0  2  0  0  0  0  0  0
  -18.1650  -26.7100   21.8920 C   0  0  0  0  0  2  0  0  0  0  0  0
  -19.2420  -28.6600   23.1600 C   0  0  0  0  0  0  0  0  0  0  0  0
  -19.1060  -29.8610   23.8890 C   0  0  0  0  0  3  0  0  0  0  0  0
  -17.8330  -30.3910   24.1720 C   0  0  0  0  0  3  0  0  0  0  0  0
  -16.6800  -29.7120   23.7440 C   0  0  0  0  0  3  0  0  0  0  0  0
  -16.8020  -28.5120   23.0170 C   0  0  0  0  0  3  0  0  0  0  0  0
  -25.7480  -32.4050   23.8380 C   0  0  0  0  0  3  0  0  0  0  0  0
  -25.4030  -33.8000   24.1400 N   0  0  0  0  0  0  0  0  0  0  0  0
  -25.7540  -34.8470   23.3830 C   0  0  0  0  0  0  0  0  0  0  0  0
  -26.4790  -34.7470   22.3900 O   0  0  0  0  0  0  0  0  0  0  0  0
  -24.7730  -33.9550   24.9130 H   0  0  0  0  0  0  0  0  0  0  0  0
  -24.0150  -36.5970   22.9120 C   0  0  0  0  0  1  0  0  0  0  0  0
  -25.2190  -36.2310   23.7950 C   0  0  0  0  0  3  0  0  0  0  0  0
  -27.2870  -37.1690   24.7250 C   0  0  0  0  0  1  0  0  0  0  0  0
  -26.2350  -37.3030   23.7190 N   0  0  0  0  0  0  0  0  0  0  0  0
  -25.8030  -38.2160   23.8350 H   0  0  0  0  0  0  0  0  0  0  0  0
  -26.1990  -31.6470   25.1470 C   0  0  1  0  0  0  0  0  0  0  0  0
  -25.0470  -31.3850   26.1460 C   0  0  0  0  0  1  0  0  0  0  0  0
  -26.8300  -30.2820   24.7870 C   0  0  0  0  0  1  0  0  0  0  0  0
  -27.2960  -32.4620   25.8760 C   0  0  0  0  0  1  0  0  0  0  0  0
  1  3  1  0
  2  1  2  0
  3  9  1  0
  4  6  2  0
  4  2  1  0
  5  3  2  0
  5  8  1  0
  6  5  1  0
  7  4  1  0
  9 10  2  0
 11 12  1  0
 11  9  1  0
 13 12  1  0
 13 14  1  0
 15 24  1  0
 15 14  1  0
 16 22  1  0
 16 24  1  0
 17 22  1  0
 18 19  1  0
 18 17  1  0
 20 19  1  0
 20 29  1  0
 20 21  1  0
 22 21  1  0
 23 16  2  0
 24 25  1  0
 26 27  2  0
 27 46  1  0
 28 27  1  0
 28 31  1  0
 29 30  1  0
 29 26  1  0
 30 28  2  0
 31 32  1  0
 32 33  2  0
 34 37  1  0
 34 33  1  0
 35 34  2  0
 36 35  1  0
 36 31  2  0
 37 38  1  0
 38 43  2  0
 38 39  1  0
 39 40  2  0
 40 41  1  0
 41 45  1  0
 42 41  2  0
 43 42  1  0
 44 43  1  0
 46 47  1  0
 47 50  1  0
 47 49  1  0
 48 46  2  0
 51 52  1  0
 51 26  1  0
 53 51  1  0
 54 56  1  0
 54  6  1  0
 55 66  2  0
 56 61  1  0
 57 65  1  0
 57 67  1  0
 58 64  1  0
 58 60  1  0
 59 65  1  0
 60 61  2  0
 60 59  1  0
 62 56  2  0
 63 62  1  0
 63 58  2  0
 64 57  1  0
 65 55  1  0
 67 69  2  0
 68 67  1  0
 70 68  1  0
 71 80  2  0
 71 76  1  0
 72 68  1  0
 72 76  1  0
 73 72  1  0
 74 75  1  0
 74 73  1  0
 75 71  1  0
 76 77  2  0
 77 78  1  0
 79 78  2  0
 80 79  1  0
 81 55  1  0
 81 82  1  0
 81 91  1  0
 82 85  1  0
 83 87  1  0
 83 82  1  0
 84 83  2  0
 87 86  1  0
 89 87  1  0
 89 90  1  0
 89 88  1  0
 91 94  1  1
 91 92  1  0
 93 91  1  0
M  ISO  4   6 101  16 100  24 100  54 101
M  END
>  <TORSDO>  (7) 
F 22

>  <SCORE>  (7) 
-12.380

>  <name>  (7) 
6

>  <ligand_id>  (7) 
6

>  <original_smiles>  (7) 
[H]c1c([H])c([H])c2c(c1[H])C([H])([H])C([H])([H])C([H])([H])C2([H])N([H])C(=O)C1([H])N(C(=O)C([H])(N([H])C(=O)C([H])(N([H])C([H])([H])[H])C([H])([H])[H])C(C([H])([H])[H])(C([H])([H])[H])C([H])([H])[H])C([H])([H])c2c([H])c(Oc3c(C([H])([H])[H])c([H])c([H])c(C(=O)C([H])([H])C([H])([H])C([H])([H])C([H])([H])C([H])([H])N([H])C(=O)N4C([H])([H])C([H])([H])C([H])([H])C([H])(n5nc(-c6c([H])c([H])c(Oc7c([H])c([H])c(F)c([H])c7F)c([H])c6[H])c(C(=O)N([H])[H])c5N([H])[H])C4([H])[H])c3C([H])([H])[H])c([H])c([H])c2C1([H])[H]

>  <smiles>  (7) 
[H]c1c([H])c([H])c2c(c1[H])C([H])([H])C([H])([H])C([H])([H])C2([H])N([H])C(=O)C1([H])N(C(=O)C([H])(N([H])C(=O)C([H])(N([H])C([H])([H])[H])C([H])([H])[H])C(C([H])([H])[H])(C([H])([H])[H])C([H])([H])[H])C([H])([H])c2c([H])c(Oc3c(C([H])([H])[H])c([H])c([H])c(C(=O)C([H])([H])C([H])([H])C([H])([H])C([H])([H])C([H])([H])N([H])C(=O)N4C([H])([H])C([H])([H])C([H])([H])C([H])(n5nc(-c6c([H])c([H])c(Oc7c([H])c([H])c(F)c([H])c7F)c([H])c6[H])c(C(=O)N([H])[H])c5N([H])[H])C4([H])[H])c3C([H])([H])[H])c([H])c([H])c2C1([H])[H]

$$$$
7:0:0
     RDKit          3D

 93 95  0  0  1  0  0  0  0  0999 V2000
  -30.5280  -18.9500   18.2450 C   0  0  0  0  0  1  0  0  0  0  0  0
  -27.7350  -20.7230   19.2890 C   0  0  0  0  0  1  0  0  0  0  0  0
  -28.5310  -19.2710   18.1270 C   0  0  0  0  0  2  0  0  0  0  0  0
  -31.4590  -20.0140   19.7130 C   0  0  0  0  0  1  0  0  0  0  0  0
  -30.3500  -21.3710   20.7350 C   0  0  0  0  0  2  0  0  0  0  0  0
  -28.6150  -22.1540   20.2810 C   0  0  0  0  0  2  0  0  0  0  0  0
  -27.6860  -18.4620   17.1650 C   0  0  0  0  0  1  0  0  0  0  0  0
  -31.1240  -22.1120   21.8070 C   0  0  0  0  0  1  0  0  0  0  0  0
  -28.2590  -24.1430   20.3440 O   0  0  0  0  0 15  0  0  0  0  0  0
  -24.6120  -31.7190   23.0350 C   0  0  0  0  0  0  0  0  0  0  0  0
  -27.3040  -25.7620   20.2950 C   0  0  0  0  0  3  0  0  0  0  0  0
  -23.5280  -30.2190   21.4300 C   0  0  0  0  0  3  0  0  0  0  0  0
  -25.0450  -28.3610   20.1460 C   0  0  0  0  0  0  0  0  0  0  0  0
  -26.1340  -30.1290   21.4710 C   0  0  0  0  0  2  0  0  0  0  0  0
  -26.2360  -28.5720   20.8500 C   0  0  0  0  0  0  0  0  0  0  0  0
  -27.2830  -27.3390   20.8670 C   0  0  0  0  0  3  0  0  0  0  0  0
  -26.0690  -26.0300   19.5190 C   0  0  0  0  0  3  0  0  0  0  0  0
  -25.0620  -27.1200   19.4540 C   0  0  0  0  0  3  0  0  0  0  0  0
  -23.8550  -29.4070   20.1200 C   0  0  0  0  0  2  0  0  0  0  0  0
  -24.7960  -30.7480   22.0330 N   0  0  0  0  0  0  0  0  0  0  0  0
  -23.4830  -32.0450   23.4560 O   0  0  0  0  0  0  0  0  0  0  0  0
  -22.7180  -29.3480   22.4370 C   0  0  0  0  0  0  0  0  0  0  0  0
  -21.3810  -29.2170   22.2930 N   0  0  0  0  0  0  0  0  0  0  0  0
  -23.3270  -28.7740   23.3420 O   0  0  0  0  0  0  0  0  0  0  0  0
  -20.9270  -29.7240   21.5450 H   0  0  0  0  0  0  0  0  0  0  0  0
  -17.9850  -27.9640   22.8040 C   0  0  0  0  0  0  0  0  0  0  0  0
  -20.5410  -28.2950   23.0760 C   0  0  0  0  0  3  0  0  0  0  0  0
  -20.6700  -26.8490   22.5360 C   0  0  0  0  0  2  0  0  0  0  0  0
  -19.5870  -26.4900   21.5140 C   0  0  0  0  0  2  0  0  0  0  0  0
  -18.1960  -26.6140   22.1410 C   0  0  0  0  0  2  0  0  0  0  0  0
  -19.0840  -28.7620   23.2260 C   0  0  0  0  0  0  0  0  0  0  0  0
  -18.8220  -30.0180   23.8140 C   0  0  0  0  0  3  0  0  0  0  0  0
  -17.5020  -30.4760   23.9840 C   0  0  0  0  0  3  0  0  0  0  0  0
  -16.4200  -29.6760   23.5740 C   0  0  0  0  0  3  0  0  0  0  0  0
  -16.6640  -28.4220   22.9870 C   0  0  0  0  0  3  0  0  0  0  0  0
  -25.7940  -32.4790   23.7220 C   0  0  0  0  0  3  0  0  0  0  0  0
  -26.2350  -31.8090   25.0840 C   0  0  1  0  0  0  0  0  0  0  0  0
  -25.0760  -31.6060   26.0900 C   0  0  0  0  0  1  0  0  0  0  0  0
  -26.8690  -30.4260   24.8450 C   0  0  0  0  0  1  0  0  0  0  0  0
  -27.3290  -32.6710   25.7630 C   0  0  0  0  0  1  0  0  0  0  0  0
  -25.3940  -33.8870   24.0010 N   0  0  0  0  0  0  0  0  0  0  0  0
  -25.7530  -34.9700   23.2930 C   0  0  0  0  0  0  0  0  0  0  0  0
  -26.4810  -34.8890   22.3030 O   0  0  0  0  0  0  0  0  0  0  0  0
  -24.7390  -34.0190   24.7580 H   0  0  0  0  0  0  0  0  0  0  0  0
  -24.0200  -36.7650   22.8860 C   0  0  0  0  0  1  0  0  0  0  0  0
  -25.2320  -36.3580   23.7410 C   0  0  0  0  0  3  0  0  0  0  0  0
  -27.3120  -37.2890   24.6710 C   0  0  0  0  0  1  0  0  0  0  0  0
  -26.2540  -37.4320   23.6750 N   0  0  0  0  0  0  0  0  0  0  0  0
  -25.8260  -38.3460   23.7960 H   0  0  0  0  0  0  0  0  0  0  0  0
  -32.9590  -20.0480   19.7740 C   0  0  0  0  0  2  0  0  0  0  0  0
  -33.4590  -21.2020   18.8790 C   0  0  0  0  0  2  0  0  0  0  0  0
  -32.6700  -21.3880   17.5510 C   0  0  0  0  0  2  0  0  0  0  0  0
  -31.2300  -21.9600   17.7270 C   0  0  0  0  0  2  0  0  0  0  0  0
  -29.8580  -17.2640   19.9790 C   0  0  0  0  0  2  0  0  0  0  0  0
  -30.3980  -14.3080   19.5440 C   0  0  0  0  0  2  0  0  0  0  0  0
  -29.8260  -13.1300   18.6050 C   0  0  0  0  0  2  0  0  0  0  0  0
  -28.5590  -12.4680   19.1490 C   0  0  0  0  0  2  0  0  0  0  0  0
  -27.7570  -13.5720   19.8400 C   0  0  0  0  0  3  0  0  0  0  0  0
  -28.5820  -14.6070   20.7530 C   0  0  0  0  0  2  0  0  0  0  0  0
  -29.4810  -15.6270   19.9370 N   0  0  0  0  0  0  0  0  0  0  0  0
  -31.0800  -16.8930   20.1930 O   0  0  0  0  0  1  0  0  0  0  0  0
  -29.9860  -20.8990   17.8010 C   0  0  0  0  0  2  0  0  0  0  0  0
  -29.3130  -19.1400   19.6130 N   0  0  0  0  0  0  0  0  0  0  0  0
  -29.4950  -21.1560   16.6590 O   0  0  0  0  0  1  0  0  0  0  0  0
  -29.7070  -19.6150   20.4090 H   0  0  0  0  0  0  0  0  0  0  0  0
  -25.3890  -13.9590   20.5810 C   0  0  0  0  0  0  0  0  0  0  0  0
  -24.3260  -13.1680   20.8960 C   0  0  0  0  0  0  0  0  0  0  0  0
  -24.7970  -11.8170   20.8390 C   0  0  0  0  0  0  0  0  0  0  0  0
  -26.4590  -13.1210   20.3620 N   0  0  0  0  0  0  0  0  0  0  0  0
  -26.1100  -11.8080   20.5550 N   0  0  0  0  0  0  0  0  0  0  0  0
  -24.0370  -10.5570   20.9870 C   0  0  0  0  0  0  0  0  0  0  0  0
  -24.4190   -9.5550   21.9080 C   0  0  0  0  0  3  0  0  0  0  0  0
  -23.6450   -8.3810   22.0620 C   0  0  0  0  0  3  0  0  0  0  0  0
  -22.4700   -8.1940   21.2950 C   0  0  0  0  0  0  0  0  0  0  0  0
  -22.1010   -9.1840   20.3660 C   0  0  0  0  0  3  0  0  0  0  0  0
  -22.8760  -10.3480   20.2100 C   0  0  0  0  0  3  0  0  0  0  0  0
  -21.6740   -7.0730   21.3560 O   0  0  0  0  0  0  0  0  0  0  0  0
  -21.6050   -6.2940   22.4850 C   0  0  0  0  0  0  0  0  0  0  0  0
  -21.1800   -6.8190   23.7260 C   0  0  0  0  0  3  0  0  0  0  0  0
  -21.0580   -5.9720   24.8450 C   0  0  0  0  0  3  0  0  0  0  0  0
  -21.3470   -4.6000   24.7260 C   0  0  0  0  0  0  0  0  0  0  0  0
  -21.7610   -4.0730   23.4910 C   0  0  0  0  0  3  0  0  0  0  0  0
  -21.8870   -4.9180   22.3730 C   0  0  0  0  0  0  0  0  0  0  0  0
  -22.2660   -4.3980   21.1810 F   0  0  0  0  0  0  0  0  0  0  0  0
  -21.2210   -3.7850   25.7990 F   0  0  0  0  0  0  0  0  0  0  0  0
  -22.9260  -13.6520   21.1270 C   0  0  0  0  0  0  0  0  0  0  0  0
  -22.1730  -12.9670   21.9800 N   0  0  0  0  0  0  0  0  0  0  0  0
  -22.5140  -14.6830   20.5950 O   0  0  0  0  0  0  0  0  0  0  0  0
  -22.5240  -12.1380   22.4340 H   0  0  0  0  0  0  0  0  0  0  0  0
  -21.2320  -13.2760   22.1810 H   0  0  0  0  0  0  0  0  0  0  0  0
  -25.5360  -15.3330   20.4130 N   0  0  0  0  0  0  0  0  0  0  0  0
  -24.7540  -15.9720   20.4910 H   0  0  0  0  0  0  0  0  0  0  0  0
  -26.3910  -15.7830   20.1070 H   0  0  0  0  0  0  0  0  0  0  0  0
  1 63  1  0
  2  6  1  0
  3 63  1  0
  4 50  1  0
  5  8  1  0
  6  5  1  0
  7  3  1  0
 10 21  2  0
 11 16  1  0
 12 20  1  0
 12 22  1  0
 13 15  1  0
 14 20  1  0
 15 16  2  0
 15 14  1  0
 17 11  2  0
 18 17  1  0
 18 13  2  0
 19 13  1  0
 19 12  1  0
 20 10  1  0
 22 24  2  0
 23 22  1  0
 25 23  1  0
 26 35  2  0
 26 31  1  0
 27 23  1  0
 27 31  1  0
 28 27  1  0
 29 30  1  0
 29 28  1  0
 30 26  1  0
 31 32  2  0
 32 33  1  0
 34 33  2  0
 35 34  1  0
 36 10  1  0
 36 41  1  0
 36 37  1  0
 37 40  1  1
 37 38  1  0
 39 37  1  0
 41 44  1  0
 42 46  1  0
 42 41  1  0
 43 42  2  0
 46 45  1  0
 48 46  1  0
 48 49  1  0
 48 47  1  0
 51 50  1  0
 52 53  1  0
 52 51  1  0
 53 62  1  0
 54 61  1  0
 55 60  1  0
 56 57  1  0
 56 55  1  0
 58 57  1  0
 58 69  1  0
 58 59  1  0
 60 54  1  0
 60 59  1  0
 63 65  1  0
 64 62  1  0
 66 67  2  0
 67 86  1  0
 68 67  1  0
 68 71  1  0
 69 70  1  0
 69 66  1  0
 70 68  2  0
 71 72  1  0
 72 73  2  0
 74 77  1  0
 74 73  1  0
 75 74  2  0
 76 75  1  0
 76 71  2  0
 77 78  1  0
 78 79  1  0
 79 80  2  0
 81 80  1  0
 81 85  1  0
 82 81  2  0
 83 78  2  0
 83 82  1  0
 84 83  1  0
 86 87  1  0
 87 90  1  0
 87 89  1  0
 88 86  2  0
 91 92  1  0
 91 66  1  0
 93 91  1  0
M  ISO  4   6 101   9 101  54 100  63 100
M  END
>  <TORSDO>  (8) 
F 20

>  <SCORE>  (8) 
-14.212

>  <name>  (8) 
7

>  <ligand_id>  (8) 
7

>  <original_smiles>  (8) 
[H]c1c([H])c([H])c2c(c1[H])C([H])([H])C([H])([H])C([H])([H])C2([H])N([H])C(=O)C1([H])N(C(=O)C([H])(N([H])C(=O)C([H])(N([H])C([H])([H])[H])C([H])([H])[H])C(C([H])([H])[H])(C([H])([H])[H])C([H])([H])[H])C([H])([H])c2c([H])c(Oc3c([H])c(C([H])([H])[H])c([H])c(C([H])([H])C([H])([H])C([H])([H])C([H])([H])C(=O)N([H])C(=O)N4C([H])([H])C([H])([H])C([H])([H])C([H])(n5nc(-c6c([H])c([H])c(Oc7c([H])c([H])c(F)c([H])c7F)c([H])c6[H])c(C(=O)N([H])[H])c5N([H])[H])C4([H])[H])c3C([H])([H])[H])c([H])c([H])c2C1([H])[H]

>  <smiles>  (8) 
[H]c1c([H])c([H])c2c(c1[H])C([H])([H])C([H])([H])C([H])([H])C2([H])N([H])C(=O)C1([H])N(C(=O)C([H])(N([H])C(=O)C([H])(N([H])C([H])([H])[H])C([H])([H])[H])C(C([H])([H])[H])(C([H])([H])[H])C([H])([H])[H])C([H])([H])c2c([H])c(Oc3c([H])c(C([H])([H])[H])c([H])c(C([H])([H])C([H])([H])C([H])([H])C([H])([H])C(=O)N([H])C(=O)N4C([H])([H])C([H])([H])C([H])([H])C([H])(n5nc(-c6c([H])c([H])c(Oc7c([H])c([H])c(F)c([H])c7F)c([H])c6[H])c(C(=O)N([H])[H])c5N([H])[H])C4([H])[H])c3C([H])([H])[H])c([H])c([H])c2C1([H])[H]

$$$$
8:0:0
     RDKit          3D

 91100  0  0  1  0  0  0  0  0999 V2000
  -28.1040  -22.1460   19.2830 C   0  0  0  0  0  3  0  0  0  0  0  0
  -27.8760  -23.6040   19.2870 C   0  0  0  0  0  3  0  0  0  0  0  0
  -29.4070  -22.3090   21.1810 C   0  0  0  0  0  3  0  0  0  0  0  0
  -28.8830  -21.3570   20.2190 C   0  0  0  0  0  0  0  0  0  0  0  0
  -29.1750  -23.7780   21.1970 C   0  0  0  0  0  0  0  0  0  0  0  0
  -28.3690  -24.5530   20.2640 C   0  0  0  0  0  0  0  0  0  0  0  0
  -29.8530  -24.5770   22.2930 C   0  0  0  0  0  1  0  0  0  0  0  0
  -28.3030  -26.0620   20.2240 O   0  0  0  0  0  0  0  0  0  0  0  0
  -24.5440  -31.8150   23.1620 C   0  0  0  0  0  0  0  0  0  0  0  0
  -27.2020  -27.0300   20.1960 C   0  0  0  0  0  0  0  0  0  0  0  0
  -23.3760  -30.4000   21.5210 C   0  0  0  0  0  3  0  0  0  0  0  0
  -24.8560  -28.8060   20.1250 C   0  0  0  0  0  0  0  0  0  0  0  0
  -25.9350  -30.6550   21.3920 C   0  0  0  0  0  2  0  0  0  0  0  0
  -26.0250  -29.2520   20.7480 C   0  0  0  0  0  0  0  0  0  0  0  0
  -27.1910  -28.3820   20.7620 C   0  0  0  0  0  3  0  0  0  0  0  0
  -26.0020  -26.7000   19.5310 C   0  0  0  0  0  3  0  0  0  0  0  0
  -24.8640  -27.5460   19.4970 C   0  0  0  0  0  3  0  0  0  0  0  0
  -23.6200  -29.7060   20.1530 C   0  0  0  0  0  2  0  0  0  0  0  0
  -24.6380  -30.9840   22.0770 N   0  0  0  0  0  0  0  0  0  0  0  0
  -23.4510  -32.0950   23.6780 O   0  0  0  0  0  0  0  0  0  0  0  0
  -22.6910  -29.4010   22.4880 C   0  0  0  0  0  0  0  0  0  0  0  0
  -21.3700  -29.2030   22.3350 N   0  0  0  0  0  0  0  0  0  0  0  0
  -23.3530  -28.8020   23.3390 O   0  0  0  0  0  0  0  0  0  0  0  0
  -20.8960  -29.7210   21.6070 H   0  0  0  0  0  0  0  0  0  0  0  0
  -18.0100  -27.9130   22.7720 C   0  0  0  0  0  0  0  0  0  0  0  0
  -20.5530  -28.2610   23.1040 C   0  0  0  0  0  3  0  0  0  0  0  0
  -20.7130  -26.8220   22.5650 C   0  0  0  0  0  2  0  0  0  0  0  0
  -19.6510  -26.4450   21.5260 C   0  0  0  0  0  2  0  0  0  0  0  0
  -18.2470  -26.5610   22.1250 C   0  0  0  0  0  2  0  0  0  0  0  0
  -19.0910  -28.7210   23.2150 C   0  0  0  0  0  0  0  0  0  0  0  0
  -18.8160  -29.9840   23.7800 C   0  0  0  0  0  3  0  0  0  0  0  0
  -17.4900  -30.4460   23.9000 C   0  0  0  0  0  3  0  0  0  0  0  0
  -16.4230  -29.6380   23.4690 C   0  0  0  0  0  3  0  0  0  0  0  0
  -16.6830  -28.3740   22.9130 C   0  0  0  0  0  3  0  0  0  0  0  0
  -25.8080  -32.4730   23.7960 C   0  0  0  0  0  3  0  0  0  0  0  0
  -26.3090  -31.7200   25.0900 C   0  0  1  0  0  0  0  0  0  0  0  0
  -25.2040  -31.4800   26.1450 C   0  0  0  0  0  1  0  0  0  0  0  0
  -26.9130  -30.3450   24.7310 C   0  0  0  0  0  1  0  0  0  0  0  0
  -27.4390  -32.5330   25.7670 C   0  0  0  0  0  1  0  0  0  0  0  0
  -25.4730  -33.8670   24.1250 N   0  0  0  0  0  0  0  0  0  0  0  0
  -25.7910  -34.9310   23.3750 C   0  0  0  0  0  0  0  0  0  0  0  0
  -26.4610  -34.8400   22.3440 O   0  0  0  0  0  0  0  0  0  0  0  0
  -24.8760  -34.0070   24.9260 H   0  0  0  0  0  0  0  0  0  0  0  0
  -24.0280  -36.6930   23.0310 C   0  0  0  0  0  1  0  0  0  0  0  0
  -25.2830  -36.3150   23.8350 C   0  0  0  0  0  3  0  0  0  0  0  0
  -27.4070  -37.2300   24.6590 C   0  0  0  0  0  1  0  0  0  0  0  0
  -26.3020  -37.3850   23.7170 N   0  0  0  0  0  0  0  0  0  0  0  0
  -25.8850  -38.3020   23.8670 H   0  0  0  0  0  0  0  0  0  0  0  0
  -28.8810  -19.6320   20.1840 C   0  0  0  0  0  2  0  0  0  0  0  0
  -32.1390  -18.4140   21.5140 C   0  0  0  0  0  2  0  0  0  0  0  0
  -30.6420  -18.3780   21.7440 C   0  0  0  0  0  2  0  0  0  0  0  0
  -32.2130  -19.1430   20.1810 C   0  0  0  0  0  2  0  0  0  0  0  0
  -30.0150  -18.3000   20.3270 C   0  0  2  0  0  0  0  0  0  0  0  0
  -31.1000  -18.6250   19.4460 O   0  0  0  0  0  0  0  0  0  0  0  0
  -29.6080  -16.6070   20.0330 C   0  0  0  0  0  2  0  0  0  0  0  0
  -30.4860  -15.1320   19.8990 C   0  0  0  0  0  0  0  0  0  0  0  0
  -30.3670  -12.7410   18.9450 C   0  0  0  0  0  2  0  0  0  0  0  0
  -29.3460  -12.6500   17.7780 C   0  0  0  0  0  2  0  0  0  0  0  0
  -27.9150  -12.4320   18.2990 C   0  0  0  0  0  2  0  0  0  0  0  0
  -27.5860  -13.3510   19.5010 C   0  0  0  0  0  3  0  0  0  0  0  0
  -28.7130  -13.3630   20.5540 C   0  0  0  0  0  2  0  0  0  0  0  0
  -29.9340  -13.8310   19.8820 N   0  0  0  0  0  0  0  0  0  0  0  0
  -31.6800  -15.1640   19.5650 O   0  0  0  0  0  0  0  0  0  0  0  0
  -25.2790  -13.9450   20.4220 C   0  0  0  0  0  0  0  0  0  0  0  0
  -24.2300  -13.1800   20.8490 C   0  0  0  0  0  0  0  0  0  0  0  0
  -24.6630  -11.8210   20.7500 C   0  0  0  0  0  0  0  0  0  0  0  0
  -26.2850  -13.0560   20.0850 N   0  0  0  0  0  0  0  0  0  0  0  0
  -25.9280  -11.7710   20.3470 N   0  0  0  0  0  0  0  0  0  0  0  0
  -23.9250  -10.5680   20.9620 C   0  0  0  0  0  0  0  0  0  0  0  0
  -24.3900   -9.5820   21.8590 C   0  0  0  0  0  3  0  0  0  0  0  0
  -23.6540   -8.3940   22.0610 C   0  0  0  0  0  3  0  0  0  0  0  0
  -22.4380   -8.1860   21.3680 C   0  0  0  0  0  0  0  0  0  0  0  0
  -21.9900   -9.1610   20.4590 C   0  0  0  0  0  3  0  0  0  0  0  0
  -22.7270  -10.3410   20.2550 C   0  0  0  0  0  3  0  0  0  0  0  0
  -21.6690   -7.0540   21.4830 O   0  0  0  0  0  0  0  0  0  0  0  0
  -21.6540   -6.3060   22.6320 C   0  0  0  0  0  0  0  0  0  0  0  0
  -21.2680   -6.8570   23.8740 C   0  0  0  0  0  3  0  0  0  0  0  0
  -21.2020   -6.0360   25.0180 C   0  0  0  0  0  3  0  0  0  0  0  0
  -21.5080   -4.6660   24.9210 C   0  0  0  0  0  0  0  0  0  0  0  0
  -21.8870   -4.1140   23.6850 C   0  0  0  0  0  3  0  0  0  0  0  0
  -21.9550   -4.9320   22.5420 C   0  0  0  0  0  0  0  0  0  0  0  0
  -22.3010   -4.3910   21.3500 F   0  0  0  0  0  0  0  0  0  0  0  0
  -21.4350   -3.8750   26.0180 F   0  0  0  0  0  0  0  0  0  0  0  0
  -22.8670  -13.6750   21.2350 C   0  0  0  0  0  0  0  0  0  0  0  0
  -22.1920  -12.9740   22.1390 N   0  0  0  0  0  0  0  0  0  0  0  0
  -22.4120  -14.7200   20.7680 O   0  0  0  0  0  0  0  0  0  0  0  0
  -22.5750  -12.1290   22.5370 H   0  0  0  0  0  0  0  0  0  0  0  0
  -21.2790  -13.2850   22.4400 H   0  0  0  0  0  0  0  0  0  0  0  0
  -25.4610  -15.3160   20.2670 N   0  0  0  0  0  0  0  0  0  0  0  0
  -24.7220  -15.9890   20.4440 H   0  0  0  0  0  0  0  0  0  0  0  0
  -26.2960  -15.7400   19.8860 H   0  0  0  0  0  0  0  0  0  0  0  0
  1  2  2  0
  1  4  1  0
  2  6  1  0
  3  5  1  0
  4  3  2  0
  5  7  1  0
  6  5  2  0
  8  6  1  0
  9 20  2  0
 10  8  1  0
 10 15  1  0
 11 19  1  0
 11 21  1  0
 12 18  1  0
 12 14  1  0
 13 19  1  0
 14 15  2  0
 14 13  1  0
 16 10  2  0
 17 16  1  0
 17 12  2  0
 18 11  1  0
 19  9  1  0
 21 23  2  0
 22 21  1  0
 24 22  1  0
 25 34  2  0
 25 30  1  0
 26 22  1  0
 26 30  1  0
 27 26  1  0
 28 29  1  0
 28 27  1  0
 29 25  1  0
 30 31  2  0
 31 32  1  0
 33 32  2  0
 34 33  1  0
 35  9  1  0
 35 40  1  0
 35 36  1  0
 36 39  1  1
 36 37  1  0
 38 36  1  0
 40 43  1  0
 41 45  1  0
 41 40  1  0
 42 41  2  0
 45 44  1  0
 47 45  1  0
 47 48  1  0
 47 46  1  0
 49  4  1  0
 53 49  1  1
 50 51  1  0
 52 50  1  0
 53 55  1  0
 53 51  1  0
 54 52  1  0
 54 53  1  0
 56 55  1  0
 57 62  1  0
 58 59  1  0
 58 57  1  0
 60 59  1  0
 60 67  1  0
 60 61  1  0
 62 56  1  0
 62 61  1  0
 63 56  2  0
 64 65  2  0
 65 84  1  0
 66 65  1  0
 66 69  1  0
 67 68  1  0
 67 64  1  0
 68 66  2  0
 69 70  1  0
 70 71  2  0
 72 75  1  0
 72 71  1  0
 73 72  2  0
 74 73  1  0
 74 69  2  0
 75 76  1  0
 76 77  1  0
 77 78  2  0
 79 78  1  0
 79 83  1  0
 80 79  2  0
 81 76  2  0
 81 80  1  0
 82 81  1  0
 84 85  1  0
 85 88  1  0
 85 87  1  0
 86 84  2  0
 89 64  1  0
 89 90  1  0
 91 89  1  0
M  ISO  4   6 101   8 101  55 100  56 100
M  END
>  <TORSDO>  (9) 
F 19

>  <SCORE>  (9) 
-15.917

>  <name>  (9) 
8

>  <ligand_id>  (9) 
8

>  <original_smiles>  (9) 
[H]c1c([H])c([H])c2c(c1[H])C([H])([H])C([H])([H])C([H])([H])C2([H])N([H])C(=O)C1([H])N(C(=O)C([H])(N([H])C(=O)C([H])(N([H])C([H])([H])[H])C([H])([H])[H])C(C([H])([H])[H])(C([H])([H])[H])C([H])([H])[H])C([H])([H])c2c([H])c(Oc3c([H])c([H])c(C([H])([H])C4(C([H])([H])C(=O)N5C([H])([H])C([H])([H])C([H])([H])C([H])(n6nc(-c7c([H])c([H])c(Oc8c([H])c([H])c(F)c([H])c8F)c([H])c7[H])c(C(=O)N([H])[H])c6N([H])[H])C5([H])[H])OC([H])([H])C([H])([H])C4([H])[H])c([H])c3C([H])([H])[H])c([H])c([H])c2C1([H])[H]

>  <smiles>  (9) 
[H]c1c([H])c([H])c2c(c1[H])C([H])([H])C([H])([H])C([H])([H])C2([H])N([H])C(=O)C1([H])N(C(=O)C([H])(N([H])C(=O)C([H])(N([H])C([H])([H])[H])C([H])([H])[H])C(C([H])([H])[H])(C([H])([H])[H])C([H])([H])[H])C([H])([H])c2c([H])c(Oc3c([H])c([H])c(C([H])([H])C4(C([H])([H])C(=O)N5C([H])([H])C([H])([H])C([H])([H])C([H])(n6nc(-c7c([H])c([H])c(Oc8c([H])c([H])c(F)c([H])c8F)c([H])c7[H])c(C(=O)N([H])[H])c6N([H])[H])C5([H])[H])OC([H])([H])C([H])([H])C4([H])[H])c([H])c3C([H])([H])[H])c([H])c([H])c2C1([H])[H]

$$$$
9:0:0
     RDKit          3D

 90 95  0  0  1  0  0  0  0  0999 V2000
  -27.4270  -22.0620   21.4570 C   0  0  0  0  0  3  0  0  0  0  0  0
  -26.1860  -22.7070   21.5720 C   0  0  0  0  0  3  0  0  0  0  0  0
  -26.5800  -24.0560   19.5620 C   0  0  0  0  0  3  0  0  0  0  0  0
  -28.1470  -22.1770   20.2610 C   0  0  0  0  0  2  0  0  0  0  0  0
  -25.7040  -23.5280   20.5320 C   0  0  0  0  0  0  0  0  0  0  0  0
  -27.9710  -23.9120   19.7180 C   0  0  0  0  0  3  0  0  0  0  0  0
  -24.2460  -23.9370   20.5200 C   0  0  0  0  0  1  0  0  0  0  0  0
  -28.4130  -20.1330   19.9000 C   0  0  0  0  0  2  0  0  0  0  0  0
  -29.0450  -20.0340   18.8470 O   0  0  0  0  0  0  0  0  0  0  0  0
  -28.0690  -18.1260   20.5260 C   0  0  0  0  0 15  0  0  0  0  0  0
  -28.2480  -15.8610   20.3990 C   0  0  0  0  0  2  0  0  0  0  0  0
  -31.3140  -15.6240   19.5210 C   0  0  0  0  0  0  0  0  0  0  0  0
  -32.2860  -13.3180   18.7220 C   0  0  0  0  0  2  0  0  0  0  0  0
  -31.2990  -12.6190   17.6910 C   0  0  0  0  0  2  0  0  0  0  0  0
  -29.8260  -12.4230   18.1540 C   0  0  0  0  0  2  0  0  0  0  0  0
  -29.5860  -13.6910   18.8630 C   0  0  0  0  0  3  0  0  0  0  0  0
  -30.5590  -13.6110   20.1360 C   0  0  0  0  0  2  0  0  0  0  0  0
  -31.5900  -14.2930   19.6140 N   0  0  0  0  0  0  0  0  0  0  0  0
  -32.2740  -16.2100   18.9500 O   0  0  0  0  0  0  0  0  0  0  0  0
  -29.9540  -16.1380   20.0140 N   0  0  0  0  0  0  0  0  0  0  0  0
  -30.0630  -17.1380   19.9680 H   0  0  0  0  0  0  0  0  0  0  0  0
  -26.8220  -15.2550   19.5020 C   0  0  0  0  0  3  0  0  0  0  0  0
  -26.0300  -14.5720   20.8820 C   0  0  0  0  0  3  0  0  0  0  0  0
  -26.6290  -13.0280   21.3500 C   0  0  0  0  0  3  0  0  0  0  0  0
  -28.3650  -13.9560   19.3300 N   0  0  0  0  0  2  0  0  0  0  0  0
  -28.0360  -12.8740   20.6680 N   0  0  0  0  0  2  0  0  0  0  0  0
  -25.7580  -11.5870   21.1990 C   0  0  0  0  0  0  0  0  0  0  0  0
  -25.9540  -10.4320   22.0450 C   0  0  0  0  0  3  0  0  0  0  0  0
  -25.1510   -9.2290   22.0640 C   0  0  0  0  0  3  0  0  0  0  0  0
  -24.0550   -9.0170   21.1940 C   0  0  0  0  0  0  0  0  0  0  0  0
  -23.9030  -10.0410   20.2220 C   0  0  0  0  0  3  0  0  0  0  0  0
  -24.7240  -11.2390   20.2190 C   0  0  0  0  0  3  0  0  0  0  0  0
  -23.2120   -7.8890   21.2110 O   0  0  0  0  0  0  0  0  0  0  0  0
  -22.7220   -7.2980   22.3780 C   0  0  0  0  0  0  0  0  0  0  0  0
  -22.1050   -8.0650   23.3960 C   0  0  0  0  0  3  0  0  0  0  0  0
  -21.5970   -7.4510   24.5650 C   0  0  0  0  0  3  0  0  0  0  0  0
  -21.6870   -6.0570   24.7320 C   0  0  0  0  0  0  0  0  0  0  0  0
  -22.2610   -5.2760   23.7150 C   0  0  0  0  0  3  0  0  0  0  0  0
  -22.7630   -5.8870   22.5470 C   0  0  0  0  0  0  0  0  0  0  0  0
  -23.2840   -5.0980   21.5760 F   0  0  0  0  0  0  0  0  0  0  0  0
  -21.2220   -5.4710   25.8640 F   0  0  0  0  0  0  0  0  0  0  0  0
  -24.5480  -14.6870   21.0640 C   0  0  0  0  0  0  0  0  0  0  0  0
  -23.9370  -13.9720   22.0160 N   0  0  0  0  0  0  0  0  0  0  0  0
  -23.9150  -15.4200   20.3300 O   0  0  0  0  0  0  0  0  0  0  0  0
  -24.4460  -13.3650   22.6370 H   0  0  0  0  0  0  0  0  0  0  0  0
  -22.9360  -14.0530   22.1320 H   0  0  0  0  0  0  0  0  0  0  0  0
  -26.7940  -16.4640   18.9440 N   0  0  0  0  0  0  0  0  0  0  0  0
  -26.0000  -17.0900   19.0370 H   0  0  0  0  0  0  0  0  0  0  0  0
  -27.4410  -16.7510   18.2200 H   0  0  0  0  0  0  0  0  0  0  0  0
  -28.4080  -25.6510   19.7960 O   0  0  0  0  0  0  0  0  0  0  0  0
  -25.0070  -32.0380   23.4330 C   0  0  0  0  0  0  0  0  0  0  0  0
  -27.6920  -27.1660   19.8790 C   0  0  0  0  0  0  0  0  0  0  0  0
  -23.9890  -30.8180   21.5720 C   0  0  0  0  0  3  0  0  0  0  0  0
  -25.5650  -29.4750   19.9560 C   0  0  0  0  0  0  0  0  0  0  0  0
  -26.5660  -31.0120   21.6010 C   0  0  0  0  0  2  0  0  0  0  0  0
  -26.7040  -29.6490   20.7440 C   0  0  0  0  0  0  0  0  0  0  0  0
  -27.7520  -28.5280   20.6780 C   0  0  0  0  0  3  0  0  0  0  0  0
  -26.6260  -27.4150   18.9730 C   0  0  0  0  0  3  0  0  0  0  0  0
  -25.6100  -28.4210   19.0310 C   0  0  0  0  0  3  0  0  0  0  0  0
  -24.3270  -30.3840   20.1130 C   0  0  0  0  0  2  0  0  0  0  0  0
  -25.2160  -31.3350   22.2580 N   0  0  0  0  0  0  0  0  0  0  0  0
  -23.8740  -32.1760   23.9310 O   0  0  0  0  0  0  0  0  0  0  0  0
  -23.3370  -29.6470   22.3570 C   0  0  0  0  0  0  0  0  0  0  0  0
  -22.0370  -29.3680   22.1380 N   0  0  0  0  0  0  0  0  0  0  0  0
  -24.0180  -28.9920   23.1500 O   0  0  0  0  0  0  0  0  0  0  0  0
  -21.5250  -29.9530   21.4930 H   0  0  0  0  0  0  0  0  0  0  0  0
  -18.7820  -27.7610   22.3690 C   0  0  0  0  0  0  0  0  0  0  0  0
  -21.2990  -28.2450   22.7310 C   0  0  0  0  0  3  0  0  0  0  0  0
  -21.5510  -26.9390   21.9410 C   0  0  0  0  0  2  0  0  0  0  0  0
  -20.5000  -26.6780   20.8590 C   0  0  0  0  0  2  0  0  0  0  0  0
  -19.1050  -26.5700   21.4810 C   0  0  0  0  0  2  0  0  0  0  0  0
  -19.8100  -28.5560   22.9430 C   0  0  0  0  0  0  0  0  0  0  0  0
  -19.4520  -29.6650   23.7390 C   0  0  0  0  0  3  0  0  0  0  0  0
  -18.0990  -29.9860   23.9600 C   0  0  0  0  0  3  0  0  0  0  0  0
  -17.0860  -29.1900   23.3970 C   0  0  0  0  0  3  0  0  0  0  0  0
  -17.4290  -28.0780   22.6100 C   0  0  0  0  0  3  0  0  0  0  0  0
  -26.1720  -32.7170   24.2160 C   0  0  0  0  0  3  0  0  0  0  0  0
  -26.5460  -31.9500   25.5460 C   0  0  1  0  0  0  0  0  0  0  0  0
  -25.3330  -31.6570   26.4620 C   0  0  0  0  0  1  0  0  0  0  0  0
  -27.2250  -30.5980   25.2450 C   0  0  0  0  0  1  0  0  0  0  0  0
  -27.5730  -32.7770   26.3560 C   0  0  0  0  0  1  0  0  0  0  0  0
  -25.7700  -34.1030   24.5510 N   0  0  0  0  0  0  0  0  0  0  0  0
  -26.1210  -35.2070   23.8740 C   0  0  0  0  0  0  0  0  0  0  0  0
  -26.8680  -35.1690   22.8950 O   0  0  0  0  0  0  0  0  0  0  0  0
  -25.1100  -34.2030   25.3080 H   0  0  0  0  0  0  0  0  0  0  0  0
  -24.3540  -36.9690   23.4910 C   0  0  0  0  0  1  0  0  0  0  0  0
  -25.5620  -36.5670   24.3550 C   0  0  0  0  0  3  0  0  0  0  0  0
  -27.6080  -37.5040   25.3430 C   0  0  0  0  0  1  0  0  0  0  0  0
  -26.5610  -37.6610   24.3390 N   0  0  0  0  0  0  0  0  0  0  0  0
  -26.1120  -38.5610   24.4890 H   0  0  0  0  0  0  0  0  0  0  0  0
  1  2  2  0
  3  6  1  0
  3  5  2  0
  4  1  1  0
  5  2  1  0
  6 50  1  0
  6  4  1  0
  7  5  1  0
  9  8  2  0
 12 18  1  0
 12 20  1  0
 13 18  1  0
 14 15  1  0
 14 13  1  0
 16 15  1  0
 16 25  1  0
 16 17  1  0
 18 17  1  0
 19 12  2  0
 20 11  1  0
 21 20  1  0
 22 47  1  0
 22 11  1  0
 22 23  1  0
 23 42  1  0
 23 24  1  0
 24 27  1  0
 25 26  1  0
 26 24  1  0
 27 28  1  0
 28 29  2  0
 30 33  1  0
 30 29  1  0
 31 30  2  0
 32 31  1  0
 32 27  2  0
 33 34  1  0
 34 39  2  0
 34 35  1  0
 35 36  2  0
 36 37  1  0
 37 41  1  0
 38 37  2  0
 39 38  1  0
 40 39  1  0
 42 43  1  0
 43 46  1  0
 43 45  1  0
 44 42  2  0
 47 48  1  0
 49 47  1  0
 50 52  1  0
 51 62  2  0
 52 57  1  0
 53 61  1  0
 53 63  1  0
 54 60  1  0
 54 56  1  0
 55 61  1  0
 56 55  1  0
 57 56  2  0
 58 59  1  0
 58 52  2  0
 59 54  2  0
 60 53  1  0
 61 51  1  0
 63 65  2  0
 64 63  1  0
 66 64  1  0
 67 76  2  0
 67 72  1  0
 68 64  1  0
 68 72  1  0
 69 68  1  0
 70 71  1  0
 70 69  1  0
 71 67  1  0
 72 73  2  0
 73 74  1  0
 75 74  2  0
 76 75  1  0
 77 51  1  0
 77 82  1  0
 77 78  1  0
 78 81  1  1
 78 79  1  0
 80 78  1  0
 82 85  1  0
 83 87  1  0
 83 82  1  0
 84 83  2  0
 87 86  1  0
 89 87  1  0
 89 90  1  0
 89 88  1  0
M  ISO  4   6 101  12 100  20 100  50 101
M  END
>  <TORSDO>  (10) 
F 19

>  <SCORE>  (10) 
-12.313

>  <name>  (10) 
9

>  <ligand_id>  (10) 
9

>  <original_smiles>  (10) 
[H]c1c([H])c([H])c2c(c1[H])C([H])([H])C([H])([H])C([H])([H])C2([H])N([H])C(=O)C1([H])N(C(=O)C([H])(N([H])C(=O)C([H])(N([H])C([H])([H])[H])C([H])([H])[H])C(C([H])([H])[H])(C([H])([H])[H])C([H])([H])[H])C([H])([H])c2c([H])c(Oc3c([H])c(C([H])([H])[H])c([H])c([H])c3C(=O)C([H])([H])C([H])([H])N([H])C(=O)N3C([H])([H])C([H])([H])C([H])([H])C([H])(n4nc(-c5c([H])c([H])c(Oc6c([H])c([H])c(F)c([H])c6F)c([H])c5[H])c(C(=O)N([H])[H])c4N([H])[H])C3([H])[H])c([H])c([H])c2C1([H])[H]

>  <smiles>  (10) 
[H]c1c([H])c([H])c2c(c1[H])C([H])([H])C([H])([H])C([H])([H])C2([H])N([H])C(=O)C1([H])N(C(=O)C([H])(N([H])C(=O)C([H])(N([H])C([H])([H])[H])C([H])([H])[H])C(C([H])([H])[H])(C([H])([H])[H])C([H])([H])[H])C([H])([H])c2c([H])c(Oc3c([H])c(C([H])([H])[H])c([H])c([H])c3C(=O)C([H])([H])C([H])([H])N([H])C(=O)N3C([H])([H])C([H])([H])C([H])([H])C([H])(n4nc(-c5c([H])c([H])c(Oc6c([H])c([H])c(F)c([H])c6F)c([H])c5[H])c(C(=O)N([H])[H])c4N([H])[H])C3([H])[H])c([H])c([H])c2C1([H])[H]

$$$$
10:0:0
     RDKit          3D

 91 99  0  0  1  0  0  0  0  0999 V2000
  -29.0700  -16.5870   19.3090 C   0  0  0  0  0  3  0  0  0  0  0  0
  -30.5830  -17.8400   20.7010 C   0  0  0  0  0  3  0  0  0  0  0  0
  -30.1710  -16.4770   20.1730 C   0  0  0  0  0  0  0  0  0  0  0  0
  -28.2670  -17.7410   19.1720 C   0  0  0  0  0  0  0  0  0  0  0  0
  -29.8230  -19.1420   20.4850 C   0  0  0  0  0  0  0  0  0  0  0  0
  -28.5460  -18.9210   19.8850 C   0  0  0  0  0  0  0  0  0  0  0  0
  -30.8970  -15.0050   20.1200 C   0  0  0  0  0  0  0  0  0  0  0  0
  -30.5400  -12.7630   18.9430 C   0  0  0  0  0  2  0  0  0  0  0  0
  -29.5570  -13.0020   17.7700 C   0  0  0  0  0  2  0  0  0  0  0  0
  -28.1130  -12.7550   18.2650 C   0  0  0  0  0  2  0  0  0  0  0  0
  -27.8080  -13.5390   19.5690 C   0  0  0  0  0  3  0  0  0  0  0  0
  -28.9380  -13.4110   20.6230 C   0  0  0  0  0  2  0  0  0  0  0  0
  -30.2130  -13.7830   19.9890 N   0  0  0  0  0  0  0  0  0  0  0  0
  -32.1050  -14.9690   19.8640 O   0  0  0  0  0  0  0  0  0  0  0  0
  -25.4990  -14.2110   20.4070 C   0  0  0  0  0  0  0  0  0  0  0  0
  -24.3940  -13.4800   20.7900 C   0  0  0  0  0  0  0  0  0  0  0  0
  -24.8000  -12.1170   20.7260 C   0  0  0  0  0  0  0  0  0  0  0  0
  -26.4810  -13.2830   20.1140 N   0  0  0  0  0  0  0  0  0  0  0  0
  -26.0760  -12.0170   20.3700 N   0  0  0  0  0  0  0  0  0  0  0  0
  -24.0220  -10.8900   20.9240 C   0  0  0  0  0  0  0  0  0  0  0  0
  -24.4410   -9.8930   21.8320 C   0  0  0  0  0  3  0  0  0  0  0  0
  -23.6720   -8.7250   22.0070 C   0  0  0  0  0  3  0  0  0  0  0  0
  -22.4730   -8.5510   21.2730 C   0  0  0  0  0  0  0  0  0  0  0  0
  -22.0690   -9.5450   20.3670 C   0  0  0  0  0  3  0  0  0  0  0  0
  -22.8370  -10.7060   20.1890 C   0  0  0  0  0  3  0  0  0  0  0  0
  -21.6710   -7.4320   21.3660 O   0  0  0  0  0  0  0  0  0  0  0  0
  -21.6340   -6.6690   22.4980 C   0  0  0  0  0  0  0  0  0  0  0  0
  -21.2710   -7.2090   23.7560 C   0  0  0  0  0  3  0  0  0  0  0  0
  -21.1950   -6.3750   24.8880 C   0  0  0  0  0  3  0  0  0  0  0  0
  -21.4480   -4.9990   24.7650 C   0  0  0  0  0  0  0  0  0  0  0  0
  -21.7860   -4.4490   23.5200 C   0  0  0  0  0  3  0  0  0  0  0  0
  -21.8830   -5.2840   22.3880 C   0  0  0  0  0  0  0  0  0  0  0  0
  -22.1960   -4.7500   21.1840 F   0  0  0  0  0  0  0  0  0  0  0  0
  -21.3620   -4.1900   25.8520 F   0  0  0  0  0  0  0  0  0  0  0  0
  -23.0360  -14.0470   21.0910 C   0  0  0  0  0  0  0  0  0  0  0  0
  -22.2690  -13.3900   21.9660 N   0  0  0  0  0  0  0  0  0  0  0  0
  -22.6500  -15.1010   20.6040 O   0  0  0  0  0  0  0  0  0  0  0  0
  -22.5600  -12.5240   22.3790 H   0  0  0  0  0  0  0  0  0  0  0  0
  -21.3830  -13.8010   22.2210 H   0  0  0  0  0  0  0  0  0  0  0  0
  -25.7230  -15.5670   20.2740 N   0  0  0  0  0  0  0  0  0  0  0  0
  -24.9270  -16.1920   20.2490 H   0  0  0  0  0  0  0  0  0  0  0  0
  -26.5230  -15.9420   19.7700 H   0  0  0  0  0  0  0  0  0  0  0  0
  -25.7330  -18.0660   18.6290 C   0  0  0  0  0  1  0  0  0  0  0  0
  -27.1770  -17.8020   18.0930 C   0  0  0  0  0  2  0  0  0  0  0  0
  -26.9800  -20.5220   20.7840 C   0  0  0  0  0  1  0  0  0  0  0  0
  -27.6430  -19.9360   19.6630 O   0  0  0  0  0  0  0  0  0  0  0  0
  -30.2310  -20.7960   20.3720 C   0  0  0  0  0  2  0  0  0  0  0  0
  -30.4800  -22.0860   21.4300 C   0  0  0  0  0  2  0  0  0  0  0  0
  -29.4740  -23.4640   21.4040 C   0  0  0  0  0  2  0  0  0  0  0  0
  -29.6280  -24.9630   20.6370 C   0  0  0  0  0  2  0  0  0  0  0  0
  -29.2700  -26.3770   21.1260 O   0  0  0  0  0  0  0  0  0  0  0  0
  -24.9130  -31.7050   23.4050 C   0  0  0  0  0  0  0  0  0  0  0  0
  -28.1150  -27.1770   20.8250 C   0  0  0  0  0  0  0  0  0  0  0  0
  -23.9630  -30.1860   21.6980 C   0  0  0  0  0  3  0  0  0  0  0  0
  -25.6570  -28.6800   20.4750 C   0  0  0  0  0  0  0  0  0  0  0  0
  -26.4890  -30.6580   21.7480 C   0  0  0  0  0  2  0  0  0  0  0  0
  -26.7250  -29.2640   21.1640 C   0  0  0  0  0  0  0  0  0  0  0  0
  -27.9530  -28.5310   21.3120 C   0  0  0  0  0  3  0  0  0  0  0  0
  -27.0200  -26.6740   20.0850 C   0  0  0  0  0  3  0  0  0  0  0  0
  -25.8170  -27.4040   19.9110 C   0  0  0  0  0  3  0  0  0  0  0  0
  -24.3640  -29.4750   20.3750 C   0  0  0  0  0  2  0  0  0  0  0  0
  -25.1320  -30.8730   22.3430 N   0  0  0  0  0  0  0  0  0  0  0  0
  -23.7670  -31.9250   23.8290 O   0  0  0  0  0  0  0  0  0  0  0  0
  -23.2560  -29.1710   22.6310 C   0  0  0  0  0  0  0  0  0  0  0  0
  -21.9560  -28.9130   22.3860 N   0  0  0  0  0  0  0  0  0  0  0  0
  -23.8820  -28.6160   23.5340 O   0  0  0  0  0  0  0  0  0  0  0  0
  -21.5180  -29.3730   21.6020 H   0  0  0  0  0  0  0  0  0  0  0  0
  -18.6080  -27.5570   22.6690 C   0  0  0  0  0  0  0  0  0  0  0  0
  -21.1220  -27.9550   23.1170 C   0  0  0  0  0  3  0  0  0  0  0  0
  -21.3400  -26.5230   22.5770 C   0  0  0  0  0  2  0  0  0  0  0  0
  -20.3350  -26.1290   21.4910 C   0  0  0  0  0  2  0  0  0  0  0  0
  -18.9020  -26.2160   22.0200 C   0  0  0  0  0  2  0  0  0  0  0  0
  -19.6490  -28.3810   23.1670 C   0  0  0  0  0  0  0  0  0  0  0  0
  -19.3200  -29.6370   23.7270 C   0  0  0  0  0  3  0  0  0  0  0  0
  -17.9850  -30.0730   23.7880 C   0  0  0  0  0  3  0  0  0  0  0  0
  -16.9540  -29.2470   23.2990 C   0  0  0  0  0  3  0  0  0  0  0  0
  -17.2680  -27.9920   22.7470 C   0  0  0  0  0  3  0  0  0  0  0  0
  -26.0850  -32.4410   24.1290 C   0  0  0  0  0  3  0  0  0  0  0  0
  -25.6830  -33.8400   24.3340 N   0  0  0  0  0  0  0  0  0  0  0  0
  -26.0410  -34.8610   23.5430 C   0  0  0  0  0  0  0  0  0  0  0  0
  -26.8090  -34.7280   22.5850 O   0  0  0  0  0  0  0  0  0  0  0  0
  -25.0160  -34.0160   25.0730 H   0  0  0  0  0  0  0  0  0  0  0  0
  -24.2750  -36.5410   22.9230 C   0  0  0  0  0  1  0  0  0  0  0  0
  -25.4560  -36.2530   23.8620 C   0  0  0  0  0  3  0  0  0  0  0  0
  -27.4740  -37.2910   24.8010 C   0  0  0  0  0  1  0  0  0  0  0  0
  -26.4510  -37.3450   23.7620 N   0  0  0  0  0  0  0  0  0  0  0  0
  -25.9940  -38.2530   23.8130 H   0  0  0  0  0  0  0  0  0  0  0  0
  -26.4880  -31.7730   25.5010 C   0  0  1  0  0  0  0  0  0  0  0  0
  -25.3010  -31.5500   26.4660 C   0  0  0  0  0  1  0  0  0  0  0  0
  -27.1670  -30.4030   25.2690 C   0  0  0  0  0  1  0  0  0  0  0  0
  -27.5220  -32.6610   26.2270 C   0  0  0  0  0  1  0  0  0  0  0  0
  1  3  1  0
  3  2  2  0
  4  1  2  0
  4  6  1  0
  5  2  1  0
  6  5  2  0
  7  3  1  0
  8 13  1  0
  9 10  1  0
  9  8  1  0
 11 10  1  0
 11 18  1  0
 11 12  1  0
 13  7  1  0
 13 12  1  0
 14  7  2  0
 15 16  2  0
 16 35  1  0
 17 16  1  0
 17 20  1  0
 18 19  1  0
 18 15  1  0
 19 17  2  0
 20 21  1  0
 21 22  2  0
 23 26  1  0
 23 22  1  0
 24 23  2  0
 25 24  1  0
 25 20  2  0
 26 27  1  0
 27 28  1  0
 28 29  2  0
 30 29  1  0
 30 34  1  0
 31 30  2  0
 32 27  2  0
 32 31  1  0
 33 32  1  0
 35 36  1  0
 36 39  1  0
 36 38  1  0
 37 35  2  0
 40 15  1  0
 41 40  1  0
 42 40  1  0
 44 43  1  0
 44  4  1  0
 46  6  1  0
 46 45  1  0
 47  5  1  0
 47 48  1  0
 49 48  1  0
 50 51  1  0
 50 49  1  0
 52 63  2  0
 53 51  1  0
 53 58  1  0
 54 62  1  0
 54 64  1  0
 55 57  1  0
 56 62  1  0
 57 58  2  0
 57 56  1  0
 59 53  2  0
 60 59  1  0
 60 55  2  0
 61 55  1  0
 61 54  1  0
 62 52  1  0
 64 66  2  0
 65 64  1  0
 67 65  1  0
 68 77  2  0
 68 73  1  0
 69 65  1  0
 69 73  1  0
 70 69  1  0
 71 72  1  0
 71 70  1  0
 72 68  1  0
 73 74  2  0
 74 75  1  0
 76 75  2  0
 77 76  1  0
 78 52  1  0
 78 79  1  0
 78 88  1  0
 79 82  1  0
 80 84  1  0
 80 79  1  0
 81 80  2  0
 84 83  1  0
 86 87  1  0
 86 84  1  0
 86 85  1  0
 88 91  1  1
 88 89  1  0
 90 88  1  0
M  ISO  4   3 100   7 100  50 101  51 101
M  END
>  <TORSDO>  (11) 
F 22

>  <SCORE>  (11) 
-10.355

>  <name>  (11) 
10

>  <ligand_id>  (11) 
10

>  <original_smiles>  (11) 
[H]c1c([H])c([H])c2c(c1[H])C([H])([H])C([H])([H])C([H])([H])C2([H])N([H])C(=O)C1([H])N(C(=O)C([H])(N([H])C(=O)C([H])(N([H])C([H])([H])[H])C([H])([H])[H])C(C([H])([H])[H])(C([H])([H])[H])C([H])([H])[H])C([H])([H])c2c([H])c(OC([H])([H])C([H])([H])C([H])([H])C([H])([H])c3c([H])c(C(=O)N4C([H])([H])C([H])([H])C([H])([H])C([H])(n5nc(-c6c([H])c([H])c(Oc7c([H])c([H])c(F)c([H])c7F)c([H])c6[H])c(C(=O)N([H])[H])c5N([H])[H])C4([H])[H])c([H])c(C([H])([H])C([H])([H])[H])c3OC([H])([H])[H])c([H])c([H])c2C1([H])[H]

>  <smiles>  (11) 
[H]c1c([H])c([H])c2c(c1[H])C([H])([H])C([H])([H])C([H])([H])C2([H])N([H])C(=O)C1([H])N(C(=O)C([H])(N([H])C(=O)C([H])(N([H])C([H])([H])[H])C([H])([H])[H])C(C([H])([H])[H])(C([H])([H])[H])C([H])([H])[H])C([H])([H])c2c([H])c(OC([H])([H])C([H])([H])C([H])([H])C([H])([H])c3c([H])c(C(=O)N4C([H])([H])C([H])([H])C([H])([H])C([H])(n5nc(-c6c([H])c([H])c(Oc7c([H])c([H])c(F)c([H])c7F)c([H])c6[H])c(C(=O)N([H])[H])c5N([H])[H])C4([H])[H])c([H])c(C([H])([H])C([H])([H])[H])c3OC([H])([H])[H])c([H])c([H])c2C1([H])[H]

$$$$
11:0:0
     RDKit          3D

 92100  0  0  1  0  0  0  0  0999 V2000
  -30.8210  -21.5720   20.3700 C   0  0  0  0  0  3  0  0  0  0  0  0
  -29.1220  -19.9000   20.0850 C   0  0  0  0  0  3  0  0  0  0  0  0
  -29.4330  -21.4100   20.1740 C   0  0  0  0  0  0  0  0  0  0  0  0
  -31.7460  -20.4910   20.4790 C   0  0  0  0  0  0  0  0  0  0  0  0
  -30.0390  -18.6590   20.2290 C   0  0  0  0  0  0  0  0  0  0  0  0
  -31.3730  -19.1070   20.4360 C   0  0  0  0  0  0  0  0  0  0  0  0
  -33.2160  -20.8690   20.6610 C   0  0  0  0  0  1  0  0  0  0  0  0
  -29.5990  -16.8130   21.9310 C   0  0  0  0  0  1  0  0  0  0  0  0
  -28.2480  -16.8380   19.8460 C   0  0  0  0  0  1  0  0  0  0  0  0
  -29.6680  -16.9380   20.3930 C   0  0  1  0  0  0  0  0  0  0  0  0
  -30.4510  -15.3870   19.9290 C   0  0  0  0  0  0  0  0  0  0  0  0
  -30.3710  -12.9540   18.9410 C   0  0  0  0  0  2  0  0  0  0  0  0
  -29.3560  -12.7810   17.7780 C   0  0  0  0  0  2  0  0  0  0  0  0
  -27.9490  -12.4530   18.3050 C   0  0  0  0  0  2  0  0  0  0  0  0
  -27.5700  -13.3670   19.4890 C   0  0  0  0  0  3  0  0  0  0  0  0
  -28.7070  -13.4860   20.5360 C   0  0  0  0  0  2  0  0  0  0  0  0
  -29.8990  -14.0560   19.8680 N   0  0  0  0  0  0  0  0  0  0  0  0
  -31.6260  -15.3790   19.5300 O   0  0  0  0  0  0  0  0  0  0  0  0
  -25.2510  -13.8930   20.4440 C   0  0  0  0  0  0  0  0  0  0  0  0
  -24.2290  -13.0980   20.8730 C   0  0  0  0  0  0  0  0  0  0  0  0
  -24.7010  -11.7540   20.7630 C   0  0  0  0  0  0  0  0  0  0  0  0
  -26.2830  -13.0350   20.0920 N   0  0  0  0  0  0  0  0  0  0  0  0
  -25.9650  -11.7410   20.3510 N   0  0  0  0  0  0  0  0  0  0  0  0
  -23.9970  -10.4840   20.9600 C   0  0  0  0  0  0  0  0  0  0  0  0
  -24.4630   -9.5170   21.8760 C   0  0  0  0  0  3  0  0  0  0  0  0
  -23.7540   -8.3120   22.0650 C   0  0  0  0  0  3  0  0  0  0  0  0
  -22.5660   -8.0650   21.3370 C   0  0  0  0  0  0  0  0  0  0  0  0
  -22.1180   -9.0230   20.4110 C   0  0  0  0  0  3  0  0  0  0  0  0
  -22.8270  -10.2190   20.2190 C   0  0  0  0  0  3  0  0  0  0  0  0
  -21.8280   -6.9100   21.4360 O   0  0  0  0  0  0  0  0  0  0  0  0
  -21.7630   -6.1970   22.6050 C   0  0  0  0  0  0  0  0  0  0  0  0
  -21.2960   -6.7740   23.8060 C   0  0  0  0  0  3  0  0  0  0  0  0
  -21.1810   -5.9860   24.9690 C   0  0  0  0  0  3  0  0  0  0  0  0
  -21.5240   -4.6210   24.9310 C   0  0  0  0  0  0  0  0  0  0  0  0
  -21.9830   -4.0430   23.7350 C   0  0  0  0  0  3  0  0  0  0  0  0
  -22.1000   -4.8280   22.5750 C   0  0  0  0  0  0  0  0  0  0  0  0
  -22.5240   -4.2620   21.4200 F   0  0  0  0  0  0  0  0  0  0  0  0
  -21.4050   -3.8620   26.0450 F   0  0  0  0  0  0  0  0  0  0  0  0
  -22.8540  -13.5600   21.2560 C   0  0  0  0  0  0  0  0  0  0  0  0
  -22.1900  -12.8450   22.1560 N   0  0  0  0  0  0  0  0  0  0  0  0
  -22.3770  -14.5940   20.7900 O   0  0  0  0  0  0  0  0  0  0  0  0
  -22.5880  -12.0120   22.5620 H   0  0  0  0  0  0  0  0  0  0  0  0
  -21.2690  -13.1410   22.4460 H   0  0  0  0  0  0  0  0  0  0  0  0
  -25.3580  -15.2700   20.2910 N   0  0  0  0  0  0  0  0  0  0  0  0
  -24.5820  -15.8840   20.5110 H   0  0  0  0  0  0  0  0  0  0  0  0
  -26.1320  -15.7550   19.8580 H   0  0  0  0  0  0  0  0  0  0  0  0
  -28.5630  -22.8640   19.8710 C   0  0  0  0  0  0  0  0  0  0  0  0
  -27.8300  -22.8120   18.8780 O   0  0  0  0  0  0  0  0  0  0  0  0
  -28.4420  -24.4020   20.7020 C   0  0  0  0  0  2  0  0  0  0  0  0
  -28.3790  -25.9590   20.1570 O   0  0  0  0  0  0  0  0  0  0  0  0
  -24.6670  -31.8630   23.1880 C   0  0  0  0  0  0  0  0  0  0  0  0
  -27.3120  -26.9950   20.2350 C   0  0  0  0  0  0  0  0  0  0  0  0
  -23.5030  -30.4460   21.5430 C   0  0  0  0  0  3  0  0  0  0  0  0
  -24.9820  -28.8400   20.1570 C   0  0  0  0  0  0  0  0  0  0  0  0
  -26.0680  -30.6850   21.4200 C   0  0  0  0  0  2  0  0  0  0  0  0
  -26.1610  -29.2670   20.7840 C   0  0  0  0  0  0  0  0  0  0  0  0
  -27.3220  -28.3690   20.7890 C   0  0  0  0  0  3  0  0  0  0  0  0
  -26.0930  -26.7120   19.5740 C   0  0  0  0  0  3  0  0  0  0  0  0
  -24.9740  -27.5810   19.5330 C   0  0  0  0  0  3  0  0  0  0  0  0
  -23.7560  -29.7520   20.1770 C   0  0  0  0  0  2  0  0  0  0  0  0
  -24.7660  -31.0270   22.1050 N   0  0  0  0  0  0  0  0  0  0  0  0
  -23.5680  -32.1490   23.6920 O   0  0  0  0  0  0  0  0  0  0  0  0
  -22.8060  -29.4520   22.5090 C   0  0  0  0  0  0  0  0  0  0  0  0
  -21.4760  -29.2900   22.3820 N   0  0  0  0  0  0  0  0  0  0  0  0
  -23.4690  -28.8290   23.3410 O   0  0  0  0  0  0  0  0  0  0  0  0
  -21.0000  -29.8470   21.6860 H   0  0  0  0  0  0  0  0  0  0  0  0
  -18.0870  -28.0840   22.8730 C   0  0  0  0  0  0  0  0  0  0  0  0
  -20.6470  -28.3520   23.1480 C   0  0  0  0  0  3  0  0  0  0  0  0
  -20.7530  -26.9210   22.5730 C   0  0  0  0  0  2  0  0  0  0  0  0
  -19.6550  -26.5970   21.5560 C   0  0  0  0  0  2  0  0  0  0  0  0
  -18.2690  -26.7370   22.1930 C   0  0  0  0  0  2  0  0  0  0  0  0
  -19.2040  -28.8490   23.3050 C   0  0  0  0  0  0  0  0  0  0  0  0
  -18.9810  -30.1080   23.9040 C   0  0  0  0  0  3  0  0  0  0  0  0
  -17.6730  -30.6030   24.0720 C   0  0  0  0  0  3  0  0  0  0  0  0
  -16.5720  -29.8360   23.6550 C   0  0  0  0  0  3  0  0  0  0  0  0
  -16.7800  -28.5780   23.0610 C   0  0  0  0  0  3  0  0  0  0  0  0
  -25.9250  -32.5210   23.8330 C   0  0  0  0  0  3  0  0  0  0  0  0
  -26.4210  -31.7640   25.1270 C   0  0  1  0  0  0  0  0  0  0  0  0
  -25.3070  -31.5360   26.1760 C   0  0  0  0  0  1  0  0  0  0  0  0
  -27.0200  -30.3850   24.7680 C   0  0  0  0  0  1  0  0  0  0  0  0
  -27.5540  -32.5740   25.8030 C   0  0  0  0  0  1  0  0  0  0  0  0
  -25.5890  -33.9180   24.1600 N   0  0  0  0  0  0  0  0  0  0  0  0
  -25.9170  -34.9810   23.4150 C   0  0  0  0  0  0  0  0  0  0  0  0
  -26.5920  -34.8900   22.3870 O   0  0  0  0  0  0  0  0  0  0  0  0
  -24.9910  -34.0620   24.9600 H   0  0  0  0  0  0  0  0  0  0  0  0
  -24.1700  -36.7650   23.0740 C   0  0  0  0  0  1  0  0  0  0  0  0
  -25.4160  -36.3630   23.8810 C   0  0  0  0  0  3  0  0  0  0  0  0
  -27.5390  -37.2710   24.7180 C   0  0  0  0  0  1  0  0  0  0  0  0
  -26.4360  -37.4280   23.7740 N   0  0  0  0  0  0  0  0  0  0  0  0
  -26.0180  -38.3430   23.9230 H   0  0  0  0  0  0  0  0  0  0  0  0
  -32.3500  -18.1800   20.6440 O   0  0  0  0  0  0  0  0  0  0  0  0
  -33.2050  -18.5750   20.7800 H   0  0  0  0  0  0  0  0  0  0  0  0
  1  4  1  0
  2  3  1  0
  2  5  2  0
  3  1  2  0
  4  7  1  0
  5 10  1  0
  5  6  1  0
  6  4  2  0
  6 91  1  0
 10  9  1  6
 10  8  1  0
 11 10  1  0
 12 17  1  0
 13 14  1  0
 13 12  1  0
 15 14  1  0
 15 22  1  0
 15 16  1  0
 17 11  1  0
 17 16  1  0
 18 11  2  0
 19 20  2  0
 20 39  1  0
 21 20  1  0
 21 24  1  0
 22 23  1  0
 22 19  1  0
 23 21  2  0
 24 25  1  0
 25 26  2  0
 27 30  1  0
 27 26  1  0
 28 27  2  0
 29 28  1  0
 29 24  2  0
 30 31  1  0
 31 32  1  0
 32 33  2  0
 34 33  1  0
 34 38  1  0
 35 34  2  0
 36 31  2  0
 36 35  1  0
 37 36  1  0
 39 40  1  0
 40 43  1  0
 40 42  1  0
 41 39  2  0
 44 19  1  0
 44 45  1  0
 46 44  1  0
 47  3  1  0
 47 49  1  0
 48 47  2  0
 50 52  1  0
 50 49  1  0
 51 62  2  0
 52 57  1  0
 53 61  1  0
 53 63  1  0
 54 60  1  0
 54 56  1  0
 55 61  1  0
 56 57  2  0
 56 55  1  0
 58 52  2  0
 59 58  1  0
 59 54  2  0
 60 53  1  0
 61 51  1  0
 63 65  2  0
 64 63  1  0
 66 64  1  0
 67 76  2  0
 67 72  1  0
 68 64  1  0
 68 72  1  0
 69 68  1  0
 70 71  1  0
 70 69  1  0
 71 67  1  0
 72 73  2  0
 73 74  1  0
 75 74  2  0
 76 75  1  0
 77 51  1  0
 77 82  1  0
 77 78  1  0
 78 81  1  1
 78 79  1  0
 80 78  1  0
 82 85  1  0
 83 87  1  0
 83 82  1  0
 84 83  2  0
 87 86  1  0
 89 87  1  0
 89 90  1  0
 89 88  1  0
 91 92  1  0
M  ISO  4  10 100  11 100  49 101  50 101
M  END
>  <TORSDO>  (12) 
F 20

>  <SCORE>  (12) 
-16.383

>  <name>  (12) 
11

>  <ligand_id>  (12) 
11

>  <original_smiles>  (12) 
[H]Oc1c(C([H])([H])[H])c([H])c(C(=O)C([H])([H])Oc2c([H])c([H])c3c(c2[H])C([H])([H])N(C(=O)C([H])(N([H])C(=O)C([H])(N([H])C([H])([H])[H])C([H])([H])[H])C(C([H])([H])[H])(C([H])([H])[H])C([H])([H])[H])C([H])(C(=O)N([H])C2([H])c4c([H])c([H])c([H])c([H])c4C([H])([H])C([H])([H])C2([H])[H])C3([H])[H])c([H])c1C(C(=O)N1C([H])([H])C([H])([H])C([H])([H])C([H])(n2nc(-c3c([H])c([H])c(Oc4c([H])c([H])c(F)c([H])c4F)c([H])c3[H])c(C(=O)N([H])[H])c2N([H])[H])C1([H])[H])(C([H])([H])[H])C([H])([H])[H]

>  <smiles>  (12) 
[H]Oc1c(C([H])([H])[H])c([H])c(C(=O)C([H])([H])Oc2c([H])c([H])c3c(c2[H])C([H])([H])N(C(=O)C([H])(N([H])C(=O)C([H])(N([H])C([H])([H])[H])C([H])([H])[H])C(C([H])([H])[H])(C([H])([H])[H])C([H])([H])[H])C([H])(C(=O)N([H])C2([H])c4c([H])c([H])c([H])c([H])c4C([H])([H])C([H])([H])C2([H])[H])C3([H])[H])c([H])c1C(C(=O)N1C([H])([H])C([H])([H])C([H])([H])C([H])(n2nc(-c3c([H])c([H])c(Oc4c([H])c([H])c(F)c([H])c4F)c([H])c3[H])c(C(=O)N([H])[H])c2N([H])[H])C1([H])[H])(C([H])([H])[H])C([H])([H])[H]

$$$$
12:0:0
     RDKit          3D

 92100  0  0  1  0  0  0  0  0999 V2000
  -28.1250  -23.9810   23.2180 C   0  0  0  0  0  3  0  0  0  0  0  0
  -27.6900  -25.8540   21.8050 C   0  0  0  0  0  3  0  0  0  0  0  0
  -28.7020  -23.2920   22.1380 C   0  0  0  0  0  0  0  0  0  0  0  0
  -28.7660  -23.8150   20.7930 C   0  0  0  0  0  0  0  0  0  0  0  0
  -27.6380  -25.2730   23.0680 C   0  0  0  0  0  0  0  0  0  0  0  0
  -28.1960  -25.2480   20.6190 C   0  0  0  0  0  0  0  0  0  0  0  0
  -29.3010  -21.9590   22.5540 C   0  0  0  0  0  1  0  0  0  0  0  0
  -27.9330  -26.1790   25.2400 C   0  0  0  0  0  1  0  0  0  0  0  0
  -27.0940  -25.9910   24.1050 O   0  0  0  0  0  0  0  0  0  0  0  0
  -28.0830  -26.2730   19.5610 O   0  0  0  0  0  0  0  0  0  0  0  0
  -24.6300  -31.7870   23.0990 C   0  0  0  0  0  0  0  0  0  0  0  0
  -27.0870  -27.3380   19.5970 C   0  0  0  0  0  0  0  0  0  0  0  0
  -23.3670  -30.5340   21.3920 C   0  0  0  0  0  3  0  0  0  0  0  0
  -24.7620  -29.0870   19.7840 C   0  0  0  0  0  0  0  0  0  0  0  0
  -25.9130  -30.8180   21.1500 C   0  0  0  0  0  2  0  0  0  0  0  0
  -25.9640  -29.4840   20.3820 C   0  0  0  0  0  0  0  0  0  0  0  0
  -27.1290  -28.6300   20.2710 C   0  0  0  0  0  3  0  0  0  0  0  0
  -25.8630  -27.0560   18.9590 C   0  0  0  0  0  3  0  0  0  0  0  0
  -24.7230  -27.8870   19.0550 C   0  0  0  0  0  3  0  0  0  0  0  0
  -23.5360  -29.9720   19.9540 C   0  0  0  0  0  2  0  0  0  0  0  0
  -24.6590  -31.0640   21.9360 N   0  0  0  0  0  0  0  0  0  0  0  0
  -23.5650  -32.0230   23.6900 O   0  0  0  0  0  0  0  0  0  0  0  0
  -22.7230  -29.4490   22.2940 C   0  0  0  0  0  0  0  0  0  0  0  0
  -21.3890  -29.2910   22.2090 N   0  0  0  0  0  0  0  0  0  0  0  0
  -23.4250  -28.7540   23.0330 O   0  0  0  0  0  0  0  0  0  0  0  0
  -20.8770  -29.9040   21.5900 H   0  0  0  0  0  0  0  0  0  0  0  0
  -18.0240  -28.0730   22.7770 C   0  0  0  0  0  0  0  0  0  0  0  0
  -20.5970  -28.2900   22.9300 C   0  0  0  0  0  3  0  0  0  0  0  0
  -20.6500  -26.9170   22.2170 C   0  0  0  0  0  2  0  0  0  0  0  0
  -19.4920  -26.7030   21.2370 C   0  0  0  0  0  2  0  0  0  0  0  0
  -18.1490  -26.7950   21.9650 C   0  0  0  0  0  2  0  0  0  0  0  0
  -19.1740  -28.7830   23.2170 C   0  0  0  0  0  0  0  0  0  0  0  0
  -19.0000  -29.9830   23.9400 C   0  0  0  0  0  3  0  0  0  0  0  0
  -17.7110  -30.4710   24.2260 C   0  0  0  0  0  3  0  0  0  0  0  0
  -16.5780  -29.7570   23.8010 C   0  0  0  0  0  3  0  0  0  0  0  0
  -16.7350  -28.5600   23.0820 C   0  0  0  0  0  3  0  0  0  0  0  0
  -25.9320  -32.3700   23.7270 C   0  0  0  0  0  3  0  0  0  0  0  0
  -25.6290  -33.7300   24.2010 N   0  0  0  0  0  0  0  0  0  0  0  0
  -25.9730  -34.8580   23.5640 C   0  0  0  0  0  0  0  0  0  0  0  0
  -26.6430  -34.8600   22.5270 O   0  0  0  0  0  0  0  0  0  0  0  0
  -25.0280  -33.8020   25.0100 H   0  0  0  0  0  0  0  0  0  0  0  0
  -24.2690  -36.7040   23.4060 C   0  0  0  0  0  1  0  0  0  0  0  0
  -25.5020  -36.1950   24.1700 C   0  0  0  0  0  3  0  0  0  0  0  0
  -27.6460  -36.9610   25.0950 C   0  0  0  0  0  1  0  0  0  0  0  0
  -26.5480  -37.2420   24.1730 N   0  0  0  0  0  0  0  0  0  0  0  0
  -26.1530  -38.1460   24.4160 H   0  0  0  0  0  0  0  0  0  0  0  0
  -26.4960  -31.4890   24.9100 C   0  0  1  0  0  0  0  0  0  0  0  0
  -25.4380  -31.1320   25.9800 C   0  0  0  0  0  1  0  0  0  0  0  0
  -27.0860  -30.1640   24.3750 C   0  0  0  0  0  1  0  0  0  0  0  0
  -27.6550  -32.2360   25.6120 C   0  0  0  0  0  1  0  0  0  0  0  0
  -29.5760  -22.7550   19.7990 C   0  0  0  0  0  2  0  0  0  0  0  0
  -29.4660  -21.0290   19.6000 C   0  0  0  0  0  2  0  0  0  0  0  0
  -30.1040  -19.6440   20.3990 C   0  0  0  0  0  2  0  0  0  0  0  0
  -30.4800  -18.1150   19.7260 C   0  0  0  0  0  2  0  0  0  0  0  0
  -31.1440  -15.4620   20.3110 C   0  0  0  0  0  0  0  0  0  0  0  0
  -31.1140  -13.0160   19.6010 C   0  0  0  0  0  2  0  0  0  0  0  0
  -30.2500  -12.8330   18.3300 C   0  0  0  0  0  2  0  0  0  0  0  0
  -28.7710  -12.6330   18.7020 C   0  0  0  0  0  2  0  0  0  0  0  0
  -28.2890  -13.6480   19.7710 C   0  0  0  0  0  3  0  0  0  0  0  0
  -29.2830  -13.7910   20.9440 C   0  0  0  0  0  2  0  0  0  0  0  0
  -30.5770  -14.1830   20.3690 N   0  0  0  0  0  0  0  0  0  0  0  0
  -32.3440  -15.5150   20.0170 O   0  0  0  0  0  0  0  0  0  0  0  0
  -30.3500  -16.6530   20.3700 N   0  0  0  0  0  0  0  0  0  0  0  0
  -29.4100  -16.4520   20.6800 H   0  0  0  0  0  0  0  0  0  0  0  0
  -25.8910  -14.2480   20.4200 C   0  0  0  0  0  0  0  0  0  0  0  0
  -24.8090  -13.4850   20.7620 C   0  0  0  0  0  0  0  0  0  0  0  0
  -25.2650  -12.1310   20.7640 C   0  0  0  0  0  0  0  0  0  0  0  0
  -26.9350  -13.3610   20.2260 N   0  0  0  0  0  0  0  0  0  0  0  0
  -26.5660  -12.0830   20.5020 N   0  0  0  0  0  0  0  0  0  0  0  0
  -24.5240  -10.8760   20.9430 C   0  0  0  0  0  0  0  0  0  0  0  0
  -24.8210   -9.9860   21.9990 C   0  0  0  0  0  3  0  0  0  0  0  0
  -24.0780   -8.7960   22.1620 C   0  0  0  0  0  3  0  0  0  0  0  0
  -23.0260   -8.4860   21.2680 C   0  0  0  0  0  0  0  0  0  0  0  0
  -22.7500   -9.3640   20.2040 C   0  0  0  0  0  3  0  0  0  0  0  0
  -23.4930  -10.5460   20.0400 C   0  0  0  0  0  3  0  0  0  0  0  0
  -22.2690   -7.3410   21.3330 O   0  0  0  0  0  0  0  0  0  0  0  0
  -21.9250   -6.7720   22.5320 C   0  0  0  0  0  0  0  0  0  0  0  0
  -21.1780   -7.4740   23.5020 C   0  0  0  0  0  3  0  0  0  0  0  0
  -20.7870   -6.8280   24.6930 C   0  0  0  0  0  3  0  0  0  0  0  0
  -21.1330   -5.4810   24.9100 C   0  0  0  0  0  0  0  0  0  0  0  0
  -21.8710   -4.7780   23.9410 C   0  0  0  0  0  3  0  0  0  0  0  0
  -22.2640   -5.4210   22.7560 C   0  0  0  0  0  0  0  0  0  0  0  0
  -22.9570   -4.7340   21.8150 F   0  0  0  0  0  0  0  0  0  0  0  0
  -20.7510   -4.8580   26.0490 F   0  0  0  0  0  0  0  0  0  0  0  0
  -23.4070  -13.9740   20.9720 C   0  0  0  0  0  0  0  0  0  0  0  0
  -22.6490  -13.3120   21.8370 N   0  0  0  0  0  0  0  0  0  0  0  0
  -22.9910  -14.9820   20.4010 O   0  0  0  0  0  0  0  0  0  0  0  0
  -23.0010  -12.5030   22.3260 H   0  0  0  0  0  0  0  0  0  0  0  0
  -21.7050  -13.6210   22.0150 H   0  0  0  0  0  0  0  0  0  0  0  0
  -26.0710  -15.6150   20.2300 N   0  0  0  0  0  0  0  0  0  0  0  0
  -25.3050  -16.2750   20.3110 H   0  0  0  0  0  0  0  0  0  0  0  0
  -26.9200  -16.0390   19.8800 H   0  0  0  0  0  0  0  0  0  0  0  0
  2  5  2  0
  3  7  1  0
  3  1  2  0
  4  3  1  0
  5  1  1  0
  5  9  1  0
  6  4  2  0
  6  2  1  0
  9  8  1  0
 10 12  1  0
 10  6  1  0
 11 22  2  0
 12 17  1  0
 13 21  1  0
 13 23  1  0
 14 20  1  0
 14 16  1  0
 15 21  1  0
 16 15  1  0
 17 16  2  0
 18 19  1  0
 18 12  2  0
 19 14  2  0
 20 13  1  0
 21 11  1  0
 23 25  2  0
 24 23  1  0
 26 24  1  0
 27 36  2  0
 27 32  1  0
 28 24  1  0
 28 32  1  0
 29 28  1  0
 30 31  1  0
 30 29  1  0
 31 27  1  0
 32 33  2  0
 33 34  1  0
 35 34  2  0
 36 35  1  0
 37 11  1  0
 37 38  1  0
 37 47  1  0
 38 41  1  0
 39 43  1  0
 39 38  1  0
 40 39  2  0
 43 42  1  0
 43 45  1  0
 45 46  1  0
 45 44  1  0
 47 50  1  1
 47 48  1  0
 49 47  1  0
 51  4  1  0
 52 51  1  0
 52 53  1  0
 54 63  1  0
 54 53  1  0
 55 61  1  0
 55 63  1  0
 56 61  1  0
 57 58  1  0
 57 56  1  0
 59 58  1  0
 59 68  1  0
 59 60  1  0
 61 60  1  0
 62 55  2  0
 63 64  1  0
 65 66  2  0
 66 67  1  0
 66 85  1  0
 67 70  1  0
 68 65  1  0
 68 69  1  0
 69 67  2  0
 70 71  1  0
 71 72  2  0
 73 76  1  0
 73 72  1  0
 74 73  2  0
 75 74  1  0
 75 70  2  0
 76 77  1  0
 77 82  2  0
 77 78  1  0
 78 79  2  0
 79 80  1  0
 80 84  1  0
 81 80  2  0
 82 81  1  0
 83 82  1  0
 85 86  1  0
 86 89  1  0
 86 88  1  0
 87 85  2  0
 90 91  1  0
 90 65  1  0
 92 90  1  0
M  ISO  4   6 101  10 101  55 100  63 100
M  END
>  <TORSDO>  (13) 
F 21

>  <SCORE>  (13) 
-12.155

>  <name>  (13) 
12

>  <ligand_id>  (13) 
12

>  <original_smiles>  (13) 
[H]c1c([H])c([H])c2c(c1[H])C([H])([H])C([H])([H])C([H])([H])C2([H])N([H])C(=O)C1([H])N(C(=O)C([H])(N([H])C(=O)C([H])(N([H])C([H])([H])[H])C([H])([H])[H])C(C([H])([H])[H])(C([H])([H])[H])C([H])([H])[H])C([H])([H])c2c([H])c(Oc3c([H])c(OC([H])([H])[H])c([H])c(C([H])([H])[H])c3C([H])([H])C([H])([H])C([H])([H])C([H])([H])N([H])C(=O)N3C([H])([H])C([H])([H])C([H])([H])C([H])(n4nc(-c5c([H])c([H])c(Oc6c([H])c([H])c(F)c([H])c6F)c([H])c5[H])c(C(=O)N([H])[H])c4N([H])[H])C3([H])[H])c([H])c([H])c2C1([H])[H]

>  <smiles>  (13) 
[H]c1c([H])c([H])c2c(c1[H])C([H])([H])C([H])([H])C([H])([H])C2([H])N([H])C(=O)C1([H])N(C(=O)C([H])(N([H])C(=O)C([H])(N([H])C([H])([H])[H])C([H])([H])[H])C(C([H])([H])[H])(C([H])([H])[H])C([H])([H])[H])C([H])([H])c2c([H])c(Oc3c([H])c(OC([H])([H])[H])c([H])c(C([H])([H])[H])c3C([H])([H])C([H])([H])C([H])([H])C([H])([H])N([H])C(=O)N3C([H])([H])C([H])([H])C([H])([H])C([H])(n4nc(-c5c([H])c([H])c(Oc6c([H])c([H])c(F)c([H])c6F)c([H])c5[H])c(C(=O)N([H])[H])c4N([H])[H])C3([H])[H])c([H])c([H])c2C1([H])[H]

$$$$
13:0:0
     RDKit          3D

 94102  0  0  1  0  0  0  0  0999 V2000
  -29.3400  -23.9820   17.1730 C   0  0  0  0  0  3  0  0  0  0  0  0
  -29.5880  -25.3480   16.9220 C   0  0  0  0  0  3  0  0  0  0  0  0
  -28.4840  -24.5460   19.3800 C   0  0  0  0  0  3  0  0  0  0  0  0
  -28.8000  -23.5800   18.4080 C   0  0  0  0  0  0  0  0  0  0  0  0
  -29.2930  -26.3260   17.9060 C   0  0  0  0  0  0  0  0  0  0  0  0
  -28.7180  -25.9090   19.1250 C   0  0  0  0  0  0  0  0  0  0  0  0
  -30.2150  -28.0990   16.5730 C   0  0  0  0  0  1  0  0  0  0  0  0
  -29.5470  -27.6740   17.7540 O   0  0  0  0  0  0  0  0  0  0  0  0
  -28.4350  -26.8180   20.1060 O   0  0  0  0  0  0  0  0  0  0  0  0
  -24.5980  -31.8860   23.2080 C   0  0  0  0  0  0  0  0  0  0  0  0
  -27.2400  -27.4950   20.0900 C   0  0  0  0  0  0  0  0  0  0  0  0
  -23.3780  -30.4830   21.5730 C   0  0  0  0  0  3  0  0  0  0  0  0
  -24.8250  -28.9500   20.1370 C   0  0  0  0  0  0  0  0  0  0  0  0
  -25.8970  -30.8570   21.3530 C   0  0  0  0  0  2  0  0  0  0  0  0
  -25.9810  -29.4900   20.7150 C   0  0  0  0  0  0  0  0  0  0  0  0
  -27.1880  -28.7630   20.6990 C   0  0  0  0  0  3  0  0  0  0  0  0
  -26.0670  -26.9560   19.5130 C   0  0  0  0  0  3  0  0  0  0  0  0
  -24.8590  -27.6800   19.5360 C   0  0  0  0  0  3  0  0  0  0  0  0
  -23.5760  -29.7980   20.1920 C   0  0  0  0  0  2  0  0  0  0  0  0
  -24.6420  -31.0900   22.1040 N   0  0  0  0  0  0  0  0  0  0  0  0
  -23.5210  -32.1560   23.7590 O   0  0  0  0  0  0  0  0  0  0  0  0
  -22.7410  -29.4600   22.5390 C   0  0  0  0  0  0  0  0  0  0  0  0
  -21.4170  -29.2740   22.4250 N   0  0  0  0  0  0  0  0  0  0  0  0
  -23.4360  -28.8340   23.3440 O   0  0  0  0  0  0  0  0  0  0  0  0
  -20.9160  -29.8390   21.7530 H   0  0  0  0  0  0  0  0  0  0  0  0
  -18.0510  -28.0720   22.9430 C   0  0  0  0  0  0  0  0  0  0  0  0
  -20.6090  -28.3340   23.2020 C   0  0  0  0  0  3  0  0  0  0  0  0
  -20.7110  -26.9030   22.6240 C   0  0  0  0  0  2  0  0  0  0  0  0
  -19.6050  -26.5790   21.6150 C   0  0  0  0  0  2  0  0  0  0  0  0
  -18.2280  -26.7210   22.2690 C   0  0  0  0  0  2  0  0  0  0  0  0
  -19.1710  -28.8360   23.3670 C   0  0  0  0  0  0  0  0  0  0  0  0
  -18.9540  -30.0990   23.9550 C   0  0  0  0  0  3  0  0  0  0  0  0
  -17.6500  -30.6010   24.1270 C   0  0  0  0  0  3  0  0  0  0  0  0
  -16.5450  -29.8340   23.7210 C   0  0  0  0  0  3  0  0  0  0  0  0
  -16.7460  -28.5720   23.1340 C   0  0  0  0  0  3  0  0  0  0  0  0
  -25.8890  -32.5180   23.8160 C   0  0  0  0  0  3  0  0  0  0  0  0
  -25.5780  -33.9120   24.1600 N   0  0  0  0  0  0  0  0  0  0  0  0
  -25.9040  -34.9710   23.4070 C   0  0  0  0  0  0  0  0  0  0  0  0
  -26.5730  -34.8790   22.3720 O   0  0  0  0  0  0  0  0  0  0  0  0
  -24.9840  -34.0580   24.9630 H   0  0  0  0  0  0  0  0  0  0  0  0
  -24.1730  -36.7650   23.0750 C   0  0  0  0  0  1  0  0  0  0  0  0
  -25.4170  -36.3540   23.8800 C   0  0  0  0  0  3  0  0  0  0  0  0
  -27.5530  -37.2330   24.7150 C   0  0  0  0  0  1  0  0  0  0  0  0
  -26.4470  -37.4090   23.7760 N   0  0  0  0  0  0  0  0  0  0  0  0
  -26.0390  -38.3260   23.9380 H   0  0  0  0  0  0  0  0  0  0  0  0
  -26.4330  -31.7380   25.0750 C   0  0  1  0  0  0  0  0  0  0  0  0
  -25.3620  -31.4860   26.1600 C   0  0  0  0  0  1  0  0  0  0  0  0
  -27.0160  -30.3670   24.6580 C   0  0  0  0  0  1  0  0  0  0  0  0
  -27.5900  -32.5330   25.7260 C   0  0  0  0  0  1  0  0  0  0  0  0
  -28.5690  -22.1180   18.7220 C   0  0  0  0  0  2  0  0  0  0  0  0
  -29.7740  -21.4820   19.4380 C   0  0  0  0  0  2  0  0  0  0  0  0
  -29.3640  -20.2470   20.2530 C   0  0  0  0  0  2  0  0  0  0  0  0
  -30.5300  -19.2900   20.5270 C   0  0  0  0  0  2  0  0  0  0  0  0
  -30.0810  -18.1080   21.2950 N   0  0  0  0  0  4  0  0  0  0  0  0
  -30.0050  -18.3530   22.2700 H   0  0  0  0  0  0  0  0  0  0  0  0
  -29.1600  -17.8690   20.9680 H   0  0  0  0  0  0  0  0  0  0  0  0
  -30.9590  -16.9280   21.1410 C   0  0  0  0  0  2  0  0  0  0  0  0
  -30.2610  -15.5810   21.4910 C   0  0  0  0  0  2  0  0  0  0  0  0
  -30.7690  -14.4250   20.6080 C   0  0  0  0  0  0  0  0  0  0  0  0
  -30.3740  -12.3440   19.3530 C   0  0  0  0  0  2  0  0  0  0  0  0
  -29.4690  -12.6280   18.1440 C   0  0  0  0  0  2  0  0  0  0  0  0
  -27.9840  -12.5220   18.5450 C   0  0  0  0  0  2  0  0  0  0  0  0
  -27.6460  -13.3080   19.8440 C   0  0  0  0  0  3  0  0  0  0  0  0
  -28.6880  -13.0340   20.9560 C   0  0  0  0  0  2  0  0  0  0  0  0
  -30.0260  -13.3030   20.4110 N   0  0  0  0  0  0  0  0  0  0  0  0
  -31.8540  -14.5850   20.0430 O   0  0  0  0  0  0  0  0  0  0  0  0
  -25.2280  -13.9120   20.4950 C   0  0  0  0  0  0  0  0  0  0  0  0
  -24.1540  -13.1420   20.8540 C   0  0  0  0  0  0  0  0  0  0  0  0
  -24.6170  -11.7910   20.8450 C   0  0  0  0  0  0  0  0  0  0  0  0
  -26.2820  -13.0320   20.2950 N   0  0  0  0  0  0  0  0  0  0  0  0
  -25.9140  -11.7500   20.5590 N   0  0  0  0  0  0  0  0  0  0  0  0
  -23.8870  -10.5310   21.0370 C   0  0  0  0  0  0  0  0  0  0  0  0
  -24.3150   -9.5700   21.9790 C   0  0  0  0  0  3  0  0  0  0  0  0
  -23.5900   -8.3720   22.1610 C   0  0  0  0  0  3  0  0  0  0  0  0
  -22.4200   -8.1270   21.4030 C   0  0  0  0  0  0  0  0  0  0  0  0
  -22.0090   -9.0790   20.4520 C   0  0  0  0  0  3  0  0  0  0  0  0
  -22.7350  -10.2680   20.2690 C   0  0  0  0  0  3  0  0  0  0  0  0
  -21.6670   -6.9820   21.4930 O   0  0  0  0  0  0  0  0  0  0  0  0
  -21.6250   -6.2340   22.6430 C   0  0  0  0  0  0  0  0  0  0  0  0
  -21.2210   -6.7860   23.8770 C   0  0  0  0  0  3  0  0  0  0  0  0
  -21.1250   -5.9650   25.0190 C   0  0  0  0  0  3  0  0  0  0  0  0
  -21.4240   -4.5920   24.9260 C   0  0  0  0  0  0  0  0  0  0  0  0
  -21.8190   -4.0390   23.6950 C   0  0  0  0  0  3  0  0  0  0  0  0
  -21.9160   -4.8570   22.5560 C   0  0  0  0  0  0  0  0  0  0  0  0
  -22.2770   -4.3130   21.3690 F   0  0  0  0  0  0  0  0  0  0  0  0
  -21.3250   -3.8000   26.0200 F   0  0  0  0  0  0  0  0  0  0  0  0
  -22.7500  -13.6180   21.0960 C   0  0  0  0  0  0  0  0  0  0  0  0
  -22.0060  -12.9340   21.9590 N   0  0  0  0  0  0  0  0  0  0  0  0
  -22.3190  -14.6340   20.5550 O   0  0  0  0  0  0  0  0  0  0  0  0
  -22.3650  -12.1200   22.4320 H   0  0  0  0  0  0  0  0  0  0  0  0
  -21.0610  -13.2360   22.1490 H   0  0  0  0  0  0  0  0  0  0  0  0
  -25.3910  -15.2810   20.3040 N   0  0  0  0  0  0  0  0  0  0  0  0
  -24.6130  -15.9290   20.3950 H   0  0  0  0  0  0  0  0  0  0  0  0
  -26.2370  -15.7250   19.9710 H   0  0  0  0  0  0  0  0  0  0  0  0
  1  4  1  0
  2  1  2  0
  2  5  1  0
  4 50  1  0
  4  3  2  0
  5  6  2  0
  6  3  1  0
  6  9  1  0
  7  8  1  0
  8  5  1  0
 10 21  2  0
 11  9  1  0
 11 16  1  0
 12 20  1  0
 12 22  1  0
 13 19  1  0
 13 15  1  0
 14 20  1  0
 15 14  1  0
 16 15  2  0
 17 18  1  0
 17 11  2  0
 18 13  2  0
 19 12  1  0
 20 10  1  0
 22 24  2  0
 23 22  1  0
 25 23  1  0
 26 35  2  0
 26 31  1  0
 27 23  1  0
 27 31  1  0
 28 27  1  0
 29 30  1  0
 29 28  1  0
 30 26  1  0
 31 32  2  0
 32 33  1  0
 34 33  2  0
 35 34  1  0
 36 10  1  0
 36 37  1  0
 36 46  1  0
 37 40  1  0
 38 42  1  0
 38 37  1  0
 39 38  2  0
 42 41  1  0
 44 42  1  0
 44 45  1  0
 44 43  1  0
 46 49  1  1
 46 47  1  0
 48 46  1  0
 50 51  1  0
 51 52  1  0
 52 53  1  0
 53 54  1  0
 54 55  1  0
 56 54  1  0
 57 54  1  0
 57 58  1  0
 59 58  1  0
 60 65  1  0
 61 62  1  0
 61 60  1  0
 63 62  1  0
 63 70  1  0
 63 64  1  0
 65 59  1  0
 65 64  1  0
 66 59  2  0
 67 68  2  0
 68 87  1  0
 69 68  1  0
 69 72  1  0
 70 67  1  0
 70 71  1  0
 71 69  2  0
 72 73  1  0
 73 74  2  0
 75 78  1  0
 75 74  1  0
 76 75  2  0
 77 76  1  0
 77 72  2  0
 78 79  1  0
 79 80  1  0
 80 81  2  0
 82 81  1  0
 82 86  1  0
 83 82  2  0
 84 79  2  0
 84 83  1  0
 85 84  1  0
 87 88  1  0
 88 91  1  0
 88 90  1  0
 89 87  2  0
 92 93  1  0
 92 67  1  0
 94 92  1  0
M  ISO  4   6 101   9 101  58 100  59 100
M  END
>  <TORSDO>  (14) 
F 24

>  <SCORE>  (14) 
-12.609

>  <name>  (14) 
13

>  <ligand_id>  (14) 
13

>  <original_smiles>  (14) 
[H]c1c([H])c([H])c2c(c1[H])C([H])([H])C([H])([H])C([H])([H])C2([H])N([H])C(=O)C1([H])N(C(=O)C([H])(N([H])C(=O)C([H])(N([H])C([H])([H])[H])C([H])([H])[H])C(C([H])([H])[H])(C([H])([H])[H])C([H])([H])[H])C([H])([H])c2c([H])c(Oc3c([H])c(C([H])([H])C([H])([H])C([H])([H])C([H])([H])[N+]([H])([H])C([H])([H])C([H])([H])C(=O)N4C([H])([H])C([H])([H])C([H])([H])C([H])(n5nc(-c6c([H])c([H])c(Oc7c([H])c([H])c(F)c([H])c7F)c([H])c6[H])c(C(=O)N([H])[H])c5N([H])[H])C4([H])[H])c([H])c([H])c3OC([H])([H])[H])c([H])c([H])c2C1([H])[H]

>  <smiles>  (14) 
[H]c1c([H])c([H])c2c(c1[H])C([H])([H])C([H])([H])C([H])([H])C2([H])N([H])C(=O)C1([H])N(C(=O)C([H])(N([H])C(=O)C([H])(N([H])C([H])([H])[H])C([H])([H])[H])C(C([H])([H])[H])(C([H])([H])[H])C([H])([H])[H])C([H])([H])c2c([H])c(Oc3c([H])c(C([H])([H])C([H])([H])C([H])([H])C([H])([H])[N+]([H])([H])C([H])([H])C([H])([H])C(=O)N4C([H])([H])C([H])([H])C([H])([H])C([H])(n5nc(-c6c([H])c([H])c(Oc7c([H])c([H])c(F)c([H])c7F)c([H])c6[H])c(C(=O)N([H])[H])c5N([H])[H])C4([H])[H])c([H])c([H])c3OC([H])([H])[H])c([H])c([H])c2C1([H])[H]

$$$$
14:0:0
     RDKit          3D

 99108  0  0  1  0  0  0  0  0999 V2000
  -30.5900  -20.4580   21.9430 C   0  0  0  0  0  3  0  0  0  0  0  0
  -31.4050  -21.5960   22.0930 C   0  0  0  0  0  3  0  0  0  0  0  0
  -30.0640  -21.1500   19.6670 C   0  0  0  0  0  3  0  0  0  0  0  0
  -29.9170  -20.2300   20.7250 C   0  0  0  0  0  0  0  0  0  0  0  0
  -31.5610  -22.5160   21.0350 C   0  0  0  0  0  0  0  0  0  0  0  0
  -30.8870  -22.2880   19.8070 C   0  0  0  0  0  0  0  0  0  0  0  0
  -32.4440  -23.7340   21.2500 C   0  0  0  0  0  1  0  0  0  0  0  0
  -29.0800  -18.9750   20.5290 C   0  0  0  0  0  2  0  0  0  0  0  0
  -31.4690  -13.8910   19.2880 C   0  0  0  0  0  0  0  0  0  0  0  0
  -31.1640  -11.5090   18.7640 C   0  0  0  0  0  2  0  0  0  0  0  0
  -30.1120  -11.3740   17.6450 C   0  0  0  0  0  2  0  0  0  0  0  0
  -28.6900  -11.3170   18.2360 C   0  0  0  0  0  2  0  0  0  0  0  0
  -28.4260  -12.4490   19.2660 C   0  0  0  0  0  3  0  0  0  0  0  0
  -29.5830  -12.5480   20.2860 C   0  0  0  0  0  2  0  0  0  0  0  0
  -30.8390  -12.7130   19.5350 N   0  0  0  0  0  0  0  0  0  0  0  0
  -32.5040  -13.9740   18.6160 O   0  0  0  0  0  0  0  0  0  0  0  0
  -29.4890  -17.0410   18.8910 C   0  0  0  0  0  2  0  0  0  0  0  0
  -30.0840  -16.7330   21.2800 C   0  0  0  0  0  2  0  0  0  0  0  0
  -30.5050  -15.9510   18.5080 C   0  0  0  0  0  2  0  0  0  0  0  0
  -31.0750  -15.6150   20.9040 C   0  0  0  0  0  2  0  0  0  0  0  0
  -29.9650  -17.7680   20.1540 C   0  0  0  0  0  3  0  0  0  0  0  0
  -30.7660  -14.9980   19.6040 N   0  0  0  0  0  0  0  0  0  0  0  0
  -26.2450  -13.2420   20.3770 C   0  0  0  0  0  0  0  0  0  0  0  0
  -25.1650  -12.5530   20.8620 C   0  0  0  0  0  0  0  0  0  0  0  0
  -25.4660  -11.1690   20.6800 C   0  0  0  0  0  0  0  0  0  0  0  0
  -27.1390  -12.2800   19.9320 N   0  0  0  0  0  0  0  0  0  0  0  0
  -26.6830  -11.0240   20.1730 N   0  0  0  0  0  0  0  0  0  0  0  0
  -24.6430   -9.9740   20.9060 C   0  0  0  0  0  0  0  0  0  0  0  0
  -24.8720   -9.1170   22.0050 C   0  0  0  0  0  3  0  0  0  0  0  0
  -24.0560   -7.9820   22.2120 C   0  0  0  0  0  3  0  0  0  0  0  0
  -22.9960   -7.7000   21.3170 C   0  0  0  0  0  0  0  0  0  0  0  0
  -22.7870   -8.5420   20.2100 C   0  0  0  0  0  3  0  0  0  0  0  0
  -23.6040   -9.6670   20.0050 C   0  0  0  0  0  3  0  0  0  0  0  0
  -22.1670   -6.6100   21.4240 O   0  0  0  0  0  0  0  0  0  0  0  0
  -21.4780   -6.3410   22.5790 C   0  0  0  0  0  0  0  0  0  0  0  0
  -20.5410   -7.2510   23.1180 C   0  0  0  0  0  3  0  0  0  0  0  0
  -19.8050   -6.9030   24.2680 C   0  0  0  0  0  3  0  0  0  0  0  0
  -19.9980   -5.6470   24.8760 C   0  0  0  0  0  0  0  0  0  0  0  0
  -20.9240   -4.7380   24.3360 C   0  0  0  0  0  3  0  0  0  0  0  0
  -21.6610   -5.0840   23.1900 C   0  0  0  0  0  0  0  0  0  0  0  0
  -22.5390   -4.1980   22.6630 F   0  0  0  0  0  0  0  0  0  0  0  0
  -19.2840   -5.3090   25.9740 F   0  0  0  0  0  0  0  0  0  0  0  0
  -23.8850  -13.1440   21.3760 C   0  0  0  0  0  0  0  0  0  0  0  0
  -23.2320  -12.4690   22.3160 N   0  0  0  0  0  0  0  0  0  0  0  0
  -23.4800  -14.2350   20.9780 O   0  0  0  0  0  0  0  0  0  0  0  0
  -23.5710  -11.5800   22.6540 H   0  0  0  0  0  0  0  0  0  0  0  0
  -22.3790  -12.8480   22.7020 H   0  0  0  0  0  0  0  0  0  0  0  0
  -26.5320  -14.6000   20.2580 N   0  0  0  0  0  0  0  0  0  0  0  0
  -25.8710  -15.3190   20.5290 H   0  0  0  0  0  0  0  0  0  0  0  0
  -27.3810  -14.9720   19.8540 H   0  0  0  0  0  0  0  0  0  0  0  0
  -30.9980  -23.2480   18.6290 C   0  0  0  0  0  2  0  0  0  0  0  0
  -29.7060  -24.0620   18.4400 C   0  0  0  0  0  2  0  0  0  0  0  0
  -29.6680  -24.8480   17.1320 C   0  0  0  0  0  0  0  0  0  0  0  0
  -28.4670  -25.3050   16.7630 N   0  0  0  0  0  0  0  0  0  0  0  0
  -30.6970  -25.0540   16.4850 O   0  0  0  0  0  0  0  0  0  0  0  0
  -27.6770  -25.0550   17.3420 H   0  0  0  0  0  0  0  0  0  0  0  0
  -28.1630  -26.1300   15.6020 C   0  0  0  0  0  2  0  0  0  0  0  0
  -26.9330  -25.5870   14.8540 C   0  0  0  0  0  2  0  0  0  0  0  0
  -25.8940  -25.1470   15.7340 O   0  0  0  0  0  0  0  0  0  0  0  0
  -25.9270  -27.8630   22.3500 C   0  0  0  0  0  0  0  0  0  0  0  0
  -25.3900  -26.0320   16.6610 C   0  0  0  0  0  0  0  0  0  0  0  0
  -24.0120  -28.5010   20.9160 C   0  0  0  0  0  3  0  0  0  0  0  0
  -24.2280  -27.8840   18.4510 C   0  0  0  0  0  0  0  0  0  0  0  0
  -26.2760  -27.9260   19.8850 C   0  0  0  0  0  2  0  0  0  0  0  0
  -25.5290  -27.4130   18.6720 C   0  0  0  0  0  0  0  0  0  0  0  0
  -26.1150  -26.4890   17.7860 C   0  0  0  0  0  3  0  0  0  0  0  0
  -24.0720  -26.4920   16.4640 C   0  0  0  0  0  3  0  0  0  0  0  0
  -23.4920  -27.4260   17.3450 C   0  0  0  0  0  3  0  0  0  0  0  0
  -23.6870  -28.8820   19.4450 C   0  0  0  0  0  2  0  0  0  0  0  0
  -25.4310  -28.0580   21.0950 N   0  0  0  0  0  0  0  0  0  0  0  0
  -25.2350  -28.0880   23.3510 O   0  0  0  0  0  0  0  0  0  0  0  0
  -22.9760  -27.4550   21.3910 C   0  0  0  0  0  0  0  0  0  0  0  0
  -21.7120  -27.8880   21.5210 N   0  0  0  0  0  0  0  0  0  0  0  0
  -23.3090  -26.2870   21.6030 O   0  0  0  0  0  0  0  0  0  0  0  0
  -21.5260  -28.8620   21.3360 H   0  0  0  0  0  0  0  0  0  0  0  0
  -18.1210  -27.9320   21.8950 C   0  0  0  0  0  0  0  0  0  0  0  0
  -20.5610  -27.0790   21.9150 C   0  0  0  0  0  3  0  0  0  0  0  0
  -20.1320  -26.1310   20.7700 C   0  0  0  0  0  2  0  0  0  0  0  0
  -19.0430  -26.7250   19.8710 C   0  0  0  0  0  2  0  0  0  0  0  0
  -17.7950  -27.0630   20.6920 C   0  0  0  0  0  2  0  0  0  0  0  0
  -19.4230  -27.9510   22.4590 C   0  0  0  0  0  0  0  0  0  0  0  0
  -19.6820  -28.8030   23.5550 C   0  0  0  0  0  3  0  0  0  0  0  0
  -18.6660  -29.6190   24.0860 C   0  0  0  0  0  3  0  0  0  0  0  0
  -17.3740  -29.5810   23.5360 C   0  0  0  0  0  3  0  0  0  0  0  0
  -17.1020  -28.7370   22.4440 C   0  0  0  0  0  3  0  0  0  0  0  0
  -27.3880  -27.3680   22.5860 C   0  0  0  0  0  3  0  0  0  0  0  0
  -27.8710  -27.9990   23.8210 N   0  0  0  0  0  0  0  0  0  0  0  0
  -28.8050  -28.9590   23.8660 C   0  0  0  0  0  0  0  0  0  0  0  0
  -29.4030  -29.3620   22.8650 O   0  0  0  0  0  0  0  0  0  0  0  0
  -27.3780  -27.7680   24.6710 H   0  0  0  0  0  0  0  0  0  0  0  0
  -28.4130  -30.9280   25.3880 C   0  0  0  0  0  1  0  0  0  0  0  0
  -29.1260  -29.5730   25.2440 C   0  0  0  0  0  3  0  0  0  0  0  0
  -31.2900  -28.4850   25.6480 C   0  0  0  0  0  1  0  0  0  0  0  0
  -30.5740  -29.7470   25.4890 N   0  0  0  0  0  0  0  0  0  0  0  0
  -30.7330  -30.3120   26.3180 H   0  0  0  0  0  0  0  0  0  0  0  0
  -27.5060  -25.7970   22.6760 C   0  0  1  0  0  0  0  0  0  0  0  0
  -26.5340  -25.1590   23.6970 C   0  0  0  0  0  1  0  0  0  0  0  0
  -27.2330  -25.1520   21.2950 C   0  0  0  0  0  1  0  0  0  0  0  0
  -28.9480  -25.3970   23.0760 C   0  0  0  0  0  1  0  0  0  0  0  0
  1  2  1  0
  3  6  2  0
  3  4  1  0
  4  1  2  0
  5  7  1  0
  5  2  2  0
  6  5  1  0
  8  4  1  0
  9 15  1  0
  9 22  1  0
 10 15  1  0
 11 12  1  0
 11 10  1  0
 13 12  1  0
 13 26  1  0
 13 14  1  0
 15 14  1  0
 16  9  2  0
 17 21  1  0
 19 17  1  0
 19 22  1  0
 20 18  1  0
 21  8  1  0
 21 18  1  0
 22 20  1  0
 23 24  2  0
 24 43  1  0
 25 24  1  0
 25 28  1  0
 26 27  1  0
 26 23  1  0
 27 25  2  0
 28 29  1  0
 29 30  2  0
 31 34  1  0
 31 30  1  0
 32 31  2  0
 33 32  1  0
 33 28  2  0
 34 35  1  0
 35 36  2  0
 35 40  1  0
 36 37  1  0
 37 38  2  0
 38 42  1  0
 39 38  1  0
 40 39  2  0
 41 40  1  0
 43 44  1  0
 44 46  1  0
 44 47  1  0
 45 43  2  0
 48 23  1  0
 48 49  1  0
 50 48  1  0
 51  6  1  0
 52 51  1  0
 53 52  1  0
 54 53  1  0
 54 56  1  0
 55 53  2  0
 57 54  1  0
 58 57  1  0
 58 59  1  0
 59 61  1  0
 60 71  2  0
 61 66  1  0
 62 70  1  0
 62 72  1  0
 63 65  1  0
 63 69  1  0
 64 70  1  0
 65 64  1  0
 66 65  2  0
 67 61  2  0
 67 68  1  0
 68 63  2  0
 69 62  1  0
 70 60  1  0
 72 73  1  0
 72 74  2  0
 75 73  1  0
 76 85  2  0
 76 81  1  0
 77 73  1  0
 77 81  1  0
 78 77  1  0
 79 80  1  0
 79 78  1  0
 80 76  1  0
 81 82  2  0
 82 83  1  0
 84 83  2  0
 85 84  1  0
 86 60  1  0
 86 96  1  0
 86 87  1  0
 87 88  1  0
 87 90  1  0
 88 92  1  0
 89 88  2  0
 92 91  1  0
 92 94  1  0
 94 93  1  0
 94 95  1  0
 96 99  1  1
 96 97  1  0
 98 96  1  0
M  ISO  4   9 100  22 100  58 101  59 101
M  END
>  <TORSDO>  (15) 
F 22

>  <SCORE>  (15) 
-6.104

>  <name>  (15) 
14

>  <ligand_id>  (15) 
14

>  <original_smiles>  (15) 
[H]c1c([H])c([H])c2c(c1[H])C([H])([H])C([H])([H])C([H])([H])C2([H])N([H])C(=O)C1([H])N(C(=O)C([H])(N([H])C(=O)C([H])(N([H])C([H])([H])[H])C([H])([H])[H])C(C([H])([H])[H])(C([H])([H])[H])C([H])([H])[H])C([H])([H])c2c([H])c(OC([H])([H])C([H])([H])N([H])C(=O)C([H])([H])C([H])([H])c3c([H])c(C([H])([H])C4([H])C([H])([H])C([H])([H])N(C(=O)N5C([H])([H])C([H])([H])C([H])([H])C([H])(n6nc(-c7c([H])c([H])c(Oc8c([H])c([H])c(F)c([H])c8F)c([H])c7[H])c(C(=O)N([H])[H])c6N([H])[H])C5([H])[H])C([H])([H])C4([H])[H])c([H])c([H])c3C([H])([H])[H])c([H])c([H])c2C1([H])[H]

>  <smiles>  (15) 
[H]c1c([H])c([H])c2c(c1[H])C([H])([H])C([H])([H])C([H])([H])C2([H])N([H])C(=O)C1([H])N(C(=O)C([H])(N([H])C(=O)C([H])(N([H])C([H])([H])[H])C([H])([H])[H])C(C([H])([H])[H])(C([H])([H])[H])C([H])([H])[H])C([H])([H])c2c([H])c(OC([H])([H])C([H])([H])N([H])C(=O)C([H])([H])C([H])([H])c3c([H])c(C([H])([H])C4([H])C([H])([H])C([H])([H])N(C(=O)N5C([H])([H])C([H])([H])C([H])([H])C([H])(n6nc(-c7c([H])c([H])c(Oc8c([H])c([H])c(F)c([H])c8F)c([H])c7[H])c(C(=O)N([H])[H])c6N([H])[H])C5([H])[H])C([H])([H])C4([H])[H])c([H])c([H])c3C([H])([H])[H])c([H])c([H])c2C1([H])[H]

$$$$
15:0:0
     RDKit          3D

 96104  0  0  1  0  0  0  0  0999 V2000
  -29.0080  -24.4360   22.5830 C   0  0  0  0  0  3  0  0  0  0  0  0
  -28.7690  -25.7390   22.1110 C   0  0  0  0  0  3  0  0  0  0  0  0
  -28.3560  -24.8330   19.8900 C   0  0  0  0  0  3  0  0  0  0  0  0
  -28.9660  -23.3260   21.7070 C   0  0  0  0  0  0  0  0  0  0  0  0
  -28.5960  -23.5100   20.3440 C   0  0  0  0  0  0  0  0  0  0  0  0
  -28.4700  -25.9510   20.7510 C   0  0  0  0  0  0  0  0  0  0  0  0
  -29.3700  -22.0210   22.2810 C   0  0  0  0  0  0  0  0  0  0  0  0
  -28.9770  -21.5970   23.3700 O   0  0  0  0  0  0  0  0  0  0  0  0
  -30.3720  -21.2250   21.4350 C   0  0  0  0  0  2  0  0  0  0  0  0
  -31.3190  -20.3210   22.2510 C   0  0  0  0  0  2  0  0  0  0  0  0
  -32.2860  -21.1030   23.1600 C   0  0  0  0  0  2  0  0  0  0  0  0
  -34.6730  -21.3420   24.0230 C   0  0  0  0  0  1  0  0  0  0  0  0
  -33.6890  -20.4860   23.2120 C   0  0  0  0  0  2  0  0  0  0  0  0
  -28.4130  -27.2260   20.2300 O   0  0  0  0  0  0  0  0  0  0  0  0
  -24.9560  -32.5130   23.5840 C   0  0  0  0  0  0  0  0  0  0  0  0
  -27.2840  -27.9950   20.3800 C   0  0  0  0  0  0  0  0  0  0  0  0
  -23.6340  -31.2050   21.9500 C   0  0  0  0  0  3  0  0  0  0  0  0
  -24.9700  -29.6090   20.4760 C   0  0  0  0  0  0  0  0  0  0  0  0
  -26.1680  -31.4370   21.6920 C   0  0  0  0  0  2  0  0  0  0  0  0
  -26.1680  -30.0700   21.0400 C   0  0  0  0  0  0  0  0  0  0  0  0
  -27.3320  -29.2700   20.9890 C   0  0  0  0  0  3  0  0  0  0  0  0
  -26.0720  -27.5380   19.8290 C   0  0  0  0  0  3  0  0  0  0  0  0
  -24.9130  -28.3390   19.8730 C   0  0  0  0  0  3  0  0  0  0  0  0
  -23.7760  -30.5340   20.5570 C   0  0  0  0  0  2  0  0  0  0  0  0
  -24.9400  -31.7310   22.4680 N   0  0  0  0  0  0  0  0  0  0  0  0
  -23.9080  -32.8370   24.1560 O   0  0  0  0  0  0  0  0  0  0  0  0
  -22.9520  -30.2070   22.9120 C   0  0  0  0  0  0  0  0  0  0  0  0
  -21.6240  -30.0580   22.7760 N   0  0  0  0  0  0  0  0  0  0  0  0
  -23.6130  -29.5680   23.7340 O   0  0  0  0  0  0  0  0  0  0  0  0
  -21.1530  -30.6230   22.0840 H   0  0  0  0  0  0  0  0  0  0  0  0
  -18.2060  -29.0260   23.3290 C   0  0  0  0  0  0  0  0  0  0  0  0
  -20.7790  -29.1440   23.5460 C   0  0  0  0  0  3  0  0  0  0  0  0
  -20.7950  -27.7240   22.9360 C   0  0  0  0  0  2  0  0  0  0  0  0
  -19.6550  -27.4830   21.9410 C   0  0  0  0  0  2  0  0  0  0  0  0
  -18.2970  -27.6860   22.6200 C   0  0  0  0  0  2  0  0  0  0  0  0
  -19.3720  -29.7200   23.7500 C   0  0  0  0  0  0  0  0  0  0  0  0
  -19.2340  -30.9790   24.3710 C   0  0  0  0  0  3  0  0  0  0  0  0
  -17.9620  -31.5470   24.5750 C   0  0  0  0  0  3  0  0  0  0  0  0
  -16.8100  -30.8500   24.1700 C   0  0  0  0  0  3  0  0  0  0  0  0
  -16.9330  -29.5910   23.5550 C   0  0  0  0  0  3  0  0  0  0  0  0
  -26.2910  -33.0600   24.1770 C   0  0  0  0  0  3  0  0  0  0  0  0
  -26.7570  -32.2910   25.4750 C   0  0  1  0  0  0  0  0  0  0  0  0
  -25.6190  -32.0550   26.4950 C   0  0  0  0  0  1  0  0  0  0  0  0
  -27.3570  -30.9130   25.1050 C   0  0  0  0  0  1  0  0  0  0  0  0
  -27.8780  -33.0870   26.1840 C   0  0  0  0  0  1  0  0  0  0  0  0
  -26.0980  -34.4890   24.4590 N   0  0  0  0  0  0  0  0  0  0  0  0
  -26.4550  -35.4800   23.6330 C   0  0  0  0  0  0  0  0  0  0  0  0
  -27.0530  -35.2850   22.5700 O   0  0  0  0  0  0  0  0  0  0  0  0
  -25.5650  -34.7200   25.2850 H   0  0  0  0  0  0  0  0  0  0  0  0
  -24.8160  -37.3590   23.3120 C   0  0  0  0  0  1  0  0  0  0  0  0
  -26.0900  -36.9170   24.0490 C   0  0  0  0  0  3  0  0  0  0  0  0
  -28.3320  -37.7070   24.6700 C   0  0  0  0  0  1  0  0  0  0  0  0
  -27.1730  -37.8940   23.8010 N   0  0  0  0  0  0  0  0  0  0  0  0
  -26.8350  -38.8450   23.9260 H   0  0  0  0  0  0  0  0  0  0  0  0
  -28.6020  -22.3580   19.3160 C   0  0  0  0  0  2  0  0  0  0  0  0
  -27.9060  -21.0260   19.7150 C   0  0  0  0  0  2  0  0  0  0  0  0
  -28.6070  -19.7860   19.0990 C   0  0  0  0  0  2  0  0  0  0  0  0
  -28.3470  -18.4360   19.8180 C   0  0  0  0  0  2  0  0  0  0  0  0
  -29.3670  -17.3240   19.4470 C   0  0  0  0  0  3  0  0  0  0  0  0
  -29.1660  -15.9680   20.1920 C   0  0  0  0  0  3  0  0  0  0  0  0
  -29.9680  -14.7730   19.6090 C   0  0  0  0  0  0  0  0  0  0  0  0
  -29.9050  -12.4490   18.7630 C   0  0  0  0  0  2  0  0  0  0  0  0
  -28.8620  -12.3510   17.6280 C   0  0  0  0  0  2  0  0  0  0  0  0
  -27.4610  -12.0690   18.2050 C   0  0  0  0  0  2  0  0  0  0  0  0
  -27.0880  -13.0340   19.3620 C   0  0  0  0  0  3  0  0  0  0  0  0
  -28.2360  -13.1260   20.3940 C   0  0  0  0  0  2  0  0  0  0  0  0
  -29.4640  -13.5100   19.6820 N   0  0  0  0  0  0  0  0  0  0  0  0
  -31.0090  -15.0190   18.9910 O   0  0  0  0  0  0  0  0  0  0  0  0
  -24.7490  -13.4540   20.3490 C   0  0  0  0  0  0  0  0  0  0  0  0
  -23.7870  -12.6020   20.8170 C   0  0  0  0  0  0  0  0  0  0  0  0
  -24.3350  -11.2890   20.7050 C   0  0  0  0  0  0  0  0  0  0  0  0
  -25.8220  -12.6540   19.9860 N   0  0  0  0  0  0  0  0  0  0  0  0
  -25.5810  -11.3460   20.2530 N   0  0  0  0  0  0  0  0  0  0  0  0
  -23.7250   -9.9750   20.9420 C   0  0  0  0  0  0  0  0  0  0  0  0
  -24.2580   -9.0760   21.8930 C   0  0  0  0  0  3  0  0  0  0  0  0
  -23.6450   -7.8250   22.1180 C   0  0  0  0  0  3  0  0  0  0  0  0
  -22.4840   -7.4620   21.3930 C   0  0  0  0  0  0  0  0  0  0  0  0
  -21.9720   -8.3520   20.4310 C   0  0  0  0  0  3  0  0  0  0  0  0
  -22.5870   -9.5950   20.2050 C   0  0  0  0  0  3  0  0  0  0  0  0
  -21.8350   -6.2590   21.5280 O   0  0  0  0  0  0  0  0  0  0  0  0
  -21.8140   -5.5840   22.7230 C   0  0  0  0  0  0  0  0  0  0  0  0
  -21.1810   -6.1130   23.8670 C   0  0  0  0  0  3  0  0  0  0  0  0
  -21.1210   -5.3560   25.0530 C   0  0  0  0  0  3  0  0  0  0  0  0
  -21.6850   -4.0670   25.0950 C   0  0  0  0  0  0  0  0  0  0  0  0
  -22.3130   -3.5350   23.9540 C   0  0  0  0  0  3  0  0  0  0  0  0
  -22.3750   -4.2910   22.7700 C   0  0  0  0  0  0  0  0  0  0  0  0
  -22.9620   -3.7670   21.6680 F   0  0  0  0  0  0  0  0  0  0  0  0
  -21.6230   -3.3340   26.2310 F   0  0  0  0  0  0  0  0  0  0  0  0
  -22.4000  -12.9730   21.2590 C   0  0  0  0  0  0  0  0  0  0  0  0
  -21.8290  -12.2170   22.1870 N   0  0  0  0  0  0  0  0  0  0  0  0
  -21.8350  -13.9720   20.8140 O   0  0  0  0  0  0  0  0  0  0  0  0
  -22.2990  -11.4070   22.5660 H   0  0  0  0  0  0  0  0  0  0  0  0
  -20.9060  -12.4510   22.5250 H   0  0  0  0  0  0  0  0  0  0  0  0
  -24.7930  -14.8340   20.1830 N   0  0  0  0  0  0  0  0  0  0  0  0
  -24.0020  -15.4300   20.3990 H   0  0  0  0  0  0  0  0  0  0  0  0
  -25.5690  -15.3430   19.7790 H   0  0  0  0  0  0  0  0  0  0  0  0
  2  1  1  0
  3  5  2  0
  3  6  1  0
  4  7  1  0
  4  1  2  0
  5  4  1  0
  6  2  2  0
  7  8  2  0
  9 10  1  0
  9  7  1  0
 10 11  1  0
 11 13  1  0
 13 12  1  0
 14 16  1  0
 14  6  1  0
 15 26  2  0
 16 21  1  0
 17 25  1  0
 17 27  1  0
 18 24  1  0
 18 20  1  0
 19 25  1  0
 20 19  1  0
 21 20  2  0
 22 23  1  0
 22 16  2  0
 23 18  2  0
 24 17  1  0
 25 15  1  0
 27 29  2  0
 28 27  1  0
 30 28  1  0
 31 40  2  0
 31 36  1  0
 32 28  1  0
 32 36  1  0
 33 32  1  0
 34 35  1  0
 34 33  1  0
 35 31  1  0
 36 37  2  0
 37 38  1  0
 39 38  2  0
 40 39  1  0
 41 15  1  0
 41 46  1  0
 41 42  1  0
 42 45  1  1
 42 43  1  0
 44 42  1  0
 46 49  1  0
 47 51  1  0
 47 46  1  0
 48 47  2  0
 51 50  1  0
 53 54  1  0
 53 51  1  0
 53 52  1  0
 55 56  1  0
 55  5  1  0
 57 56  1  0
 57 58  1  0
 59 58  1  0
 59 60  2  0
 61 67  1  0
 61 60  1  0
 62 67  1  0
 63 64  1  0
 63 62  1  0
 65 64  1  0
 65 72  1  0
 65 66  1  0
 67 66  1  0
 68 61  2  0
 69 70  2  0
 70 89  1  0
 71 70  1  0
 71 74  1  0
 72 73  1  0
 72 69  1  0
 73 71  2  0
 74 75  1  0
 75 76  2  0
 77 80  1  0
 77 76  1  0
 78 77  2  0
 79 78  1  0
 79 74  2  0
 80 81  1  0
 81 86  2  0
 81 82  1  0
 82 83  2  0
 83 84  1  0
 84 88  1  0
 85 84  2  0
 86 85  1  0
 87 86  1  0
 89 90  1  0
 90 93  1  0
 90 92  1  0
 91 89  2  0
 94 69  1  0
 94 95  1  0
 96 94  1  0
M  ISO  4   6 101  14 101  60 100  61 100
M  END
>  <TORSDO>  (16) 
F 27

>  <SCORE>  (16) 
-7.018

>  <name>  (16) 
15

>  <ligand_id>  (16) 
15

>  <original_smiles>  (16) 
[H]c1c([H])c([H])c2c(c1[H])C([H])([H])C([H])([H])C([H])([H])C2([H])N([H])C(=O)C1([H])N(C(=O)C([H])(N([H])C(=O)C([H])(N([H])C([H])([H])[H])C([H])([H])[H])C(C([H])([H])[H])(C([H])([H])[H])C([H])([H])[H])C([H])([H])c2c([H])c(Oc3c([H])c([H])c(C(=O)C([H])([H])C([H])([H])C([H])([H])C([H])([H])C([H])([H])[H])c(C([H])([H])C([H])([H])C([H])([H])C([H])([H])C([H])([H])C([H])([H])C(=O)N4C([H])([H])C([H])([H])C([H])([H])C([H])(n5nc(-c6c([H])c([H])c(Oc7c([H])c([H])c(F)c([H])c7F)c([H])c6[H])c(C(=O)N([H])[H])c5N([H])[H])C4([H])[H])c3[H])c([H])c([H])c2C1([H])[H]

>  <smiles>  (16) 
[H]c1c([H])c([H])c2c(c1[H])C([H])([H])C([H])([H])C([H])([H])C2([H])N([H])C(=O)C1([H])N(C(=O)C([H])(N([H])C(=O)C([H])(N([H])C([H])([H])[H])C([H])([H])[H])C(C([H])([H])[H])(C([H])([H])[H])C([H])([H])[H])C([H])([H])c2c([H])c(Oc3c([H])c([H])c(C(=O)C([H])([H])C([H])([H])C([H])([H])C([H])([H])C([H])([H])[H])c(C([H])([H])C([H])([H])C([H])([H])C([H])([H])C([H])([H])C([H])([H])C(=O)N4C([H])([H])C([H])([H])C([H])([H])C([H])(n5nc(-c6c([H])c([H])c(Oc7c([H])c([H])c(F)c([H])c7F)c([H])c6[H])c(C(=O)N([H])[H])c5N([H])[H])C4([H])[H])c3[H])c([H])c([H])c2C1([H])[H]

$$$$
16:0:0
     RDKit          3D

 91 99  0  0  1  0  0  0  0  0999 V2000
  -29.3900  -23.5220   18.5640 C   0  0  0  0  0  3  0  0  0  0  0  0
  -29.1750  -24.8990   18.7790 C   0  0  0  0  0  3  0  0  0  0  0  0
  -28.2100  -23.0100   20.6170 C   0  0  0  0  0  3  0  0  0  0  0  0
  -28.9330  -22.5500   19.4850 C   0  0  0  0  0  0  0  0  0  0  0  0
  -27.9980  -24.3960   20.8430 C   0  0  0  0  0  0  0  0  0  0  0  0
  -28.4910  -25.3570   19.9210 C   0  0  0  0  0  0  0  0  0  0  0  0
  -27.2750  -24.8280   22.1090 C   0  0  0  0  0  1  0  0  0  0  0  0
  -29.2790  -21.0990   19.2410 C   0  0  0  0  0  0  0  0  0  0  0  0
  -30.0440  -20.7550   18.3340 O   0  0  0  0  0  0  0  0  0  0  0  0
  -28.6800  -19.9880   20.1280 C   0  0  0  0  0  2  0  0  0  0  0  0
  -29.6870  -19.3280   21.1120 C   0  0  0  0  0  2  0  0  0  0  0  0
  -30.5440  -18.1550   20.5740 C   0  0  0  0  0  2  0  0  0  0  0  0
  -29.7830  -16.8100   20.4040 C   0  0  0  0  0  2  0  0  0  0  0  0
  -30.3390  -15.6030   21.2230 C   0  0  0  0  0  2  0  0  0  0  0  0
  -30.8190  -14.4240   20.3470 C   0  0  0  0  0  0  0  0  0  0  0  0
  -30.4200  -12.3060   19.1480 C   0  0  0  0  0  2  0  0  0  0  0  0
  -29.4660  -12.5620   17.9650 C   0  0  0  0  0  2  0  0  0  0  0  0
  -27.9980  -12.4390   18.4180 C   0  0  0  0  0  2  0  0  0  0  0  0
  -27.7010  -13.2650   19.7010 C   0  0  0  0  0  3  0  0  0  0  0  0
  -28.7730  -13.0050   20.7840 C   0  0  0  0  0  2  0  0  0  0  0  0
  -30.0960  -13.2800   20.2010 N   0  0  0  0  0  0  0  0  0  0  0  0
  -31.8830  -14.5980   19.7450 O   0  0  0  0  0  0  0  0  0  0  0  0
  -25.3220  -13.9020   20.4520 C   0  0  0  0  0  0  0  0  0  0  0  0
  -24.2500  -13.1460   20.8430 C   0  0  0  0  0  0  0  0  0  0  0  0
  -24.6940  -11.7870   20.8090 C   0  0  0  0  0  0  0  0  0  0  0  0
  -26.3530  -13.0080   20.2030 N   0  0  0  0  0  0  0  0  0  0  0  0
  -25.9780  -11.7310   20.4730 N   0  0  0  0  0  0  0  0  0  0  0  0
  -23.9530  -10.5340   21.0180 C   0  0  0  0  0  0  0  0  0  0  0  0
  -24.3990   -9.5580   21.9370 C   0  0  0  0  0  3  0  0  0  0  0  0
  -23.6650   -8.3680   22.1320 C   0  0  0  0  0  3  0  0  0  0  0  0
  -22.4690   -8.1470   21.4070 C   0  0  0  0  0  0  0  0  0  0  0  0
  -22.0400   -9.1100   20.4770 C   0  0  0  0  0  3  0  0  0  0  0  0
  -22.7760  -10.2910   20.2810 C   0  0  0  0  0  3  0  0  0  0  0  0
  -21.7030   -7.0110   21.5150 O   0  0  0  0  0  0  0  0  0  0  0  0
  -21.6850   -6.2580   22.6620 C   0  0  0  0  0  0  0  0  0  0  0  0
  -21.3200   -6.8090   23.9100 C   0  0  0  0  0  3  0  0  0  0  0  0
  -21.2470   -5.9830   25.0500 C   0  0  0  0  0  3  0  0  0  0  0  0
  -21.5320   -4.6090   24.9440 C   0  0  0  0  0  0  0  0  0  0  0  0
  -21.8900   -4.0570   23.7020 C   0  0  0  0  0  3  0  0  0  0  0  0
  -21.9650   -4.8810   22.5640 C   0  0  0  0  0  0  0  0  0  0  0  0
  -22.2900   -4.3400   21.3660 F   0  0  0  0  0  0  0  0  0  0  0  0
  -21.4550   -3.8150   26.0370 F   0  0  0  0  0  0  0  0  0  0  0  0
  -22.8630  -13.6390   21.1410 C   0  0  0  0  0  0  0  0  0  0  0  0
  -22.1390  -12.9580   22.0200 N   0  0  0  0  0  0  0  0  0  0  0  0
  -22.4280  -14.6670   20.6230 O   0  0  0  0  0  0  0  0  0  0  0  0
  -22.4980  -12.1250   22.4650 H   0  0  0  0  0  0  0  0  0  0  0  0
  -21.2090  -13.2730   22.2530 H   0  0  0  0  0  0  0  0  0  0  0  0
  -25.5060  -15.2700   20.2680 N   0  0  0  0  0  0  0  0  0  0  0  0
  -24.7610  -15.9470   20.3950 H   0  0  0  0  0  0  0  0  0  0  0  0
  -26.3690  -15.6850   19.9420 H   0  0  0  0  0  0  0  0  0  0  0  0
  -28.4340  -26.7250   20.1340 O   0  0  0  0  0  0  0  0  0  0  0  0
  -24.5940  -31.8600   23.2190 C   0  0  0  0  0  0  0  0  0  0  0  0
  -27.2460  -27.4260   20.1350 C   0  0  0  0  0  0  0  0  0  0  0  0
  -23.3900  -30.4610   21.5720 C   0  0  0  0  0  3  0  0  0  0  0  0
  -24.8470  -28.9250   20.1440 C   0  0  0  0  0  0  0  0  0  0  0  0
  -25.9110  -30.8290   21.3680 C   0  0  0  0  0  2  0  0  0  0  0  0
  -26.0000  -29.4520   20.7360 C   0  0  0  0  0  0  0  0  0  0  0  0
  -27.2000  -28.7070   20.7360 C   0  0  0  0  0  3  0  0  0  0  0  0
  -26.0760  -26.9140   19.5310 C   0  0  0  0  0  3  0  0  0  0  0  0
  -24.8800  -27.6550   19.5380 C   0  0  0  0  0  3  0  0  0  0  0  0
  -23.6020  -29.7840   20.1890 C   0  0  0  0  0  2  0  0  0  0  0  0
  -24.6520  -31.0630   22.1140 N   0  0  0  0  0  0  0  0  0  0  0  0
  -23.5120  -32.1300   23.7580 O   0  0  0  0  0  0  0  0  0  0  0  0
  -22.7360  -29.4380   22.5290 C   0  0  0  0  0  0  0  0  0  0  0  0
  -21.4090  -29.2660   22.4120 N   0  0  0  0  0  0  0  0  0  0  0  0
  -23.4220  -28.8030   23.3360 O   0  0  0  0  0  0  0  0  0  0  0  0
  -20.9160  -29.8400   21.7420 H   0  0  0  0  0  0  0  0  0  0  0  0
  -18.0300  -28.0930   22.9110 C   0  0  0  0  0  0  0  0  0  0  0  0
  -20.5900  -28.3250   23.1760 C   0  0  0  0  0  3  0  0  0  0  0  0
  -20.6770  -26.8980   22.5850 C   0  0  0  0  0  2  0  0  0  0  0  0
  -19.5690  -26.5950   21.5730 C   0  0  0  0  0  2  0  0  0  0  0  0
  -18.1920  -26.7460   22.2260 C   0  0  0  0  0  2  0  0  0  0  0  0
  -19.1570  -28.8410   23.3430 C   0  0  0  0  0  0  0  0  0  0  0  0
  -18.9550  -30.1020   23.9450 C   0  0  0  0  0  3  0  0  0  0  0  0
  -17.6570  -30.6170   24.1190 C   0  0  0  0  0  3  0  0  0  0  0  0
  -16.5420  -29.8660   23.7030 C   0  0  0  0  0  3  0  0  0  0  0  0
  -16.7300  -28.6050   23.1060 C   0  0  0  0  0  3  0  0  0  0  0  0
  -25.8800  -32.4890   23.8440 C   0  0  0  0  0  3  0  0  0  0  0  0
  -25.5760  -33.8860   24.1760 N   0  0  0  0  0  0  0  0  0  0  0  0
  -25.9120  -34.9380   23.4170 C   0  0  0  0  0  0  0  0  0  0  0  0
  -26.5820  -34.8350   22.3860 O   0  0  0  0  0  0  0  0  0  0  0  0
  -24.9830  -34.0450   24.9780 H   0  0  0  0  0  0  0  0  0  0  0  0
  -24.1840  -36.7280   23.0670 C   0  0  0  0  0  1  0  0  0  0  0  0
  -25.4270  -36.3280   23.8770 C   0  0  0  0  0  3  0  0  0  0  0  0
  -27.5640  -37.2060   24.7020 C   0  0  0  0  0  1  0  0  0  0  0  0
  -26.4590  -37.3810   23.7620 N   0  0  0  0  0  0  0  0  0  0  0  0
  -26.0540  -38.3010   23.9130 H   0  0  0  0  0  0  0  0  0  0  0  0
  -26.3970  -31.7110   25.1150 C   0  0  1  0  0  0  0  0  0  0  0  0
  -25.3050  -31.4710   26.1840 C   0  0  0  0  0  1  0  0  0  0  0  0
  -26.9710  -30.3360   24.7040 C   0  0  0  0  0  1  0  0  0  0  0  0
  -27.5520  -32.4970   25.7790 C   0  0  0  0  0  1  0  0  0  0  0  0
  1  2  2  0
  1  4  1  0
  2  6  1  0
  3  5  1  0
  4  3  2  0
  5  7  1  0
  6 51  1  0
  6  5  2  0
  8  4  1  0
  8 10  1  0
  9  8  2  0
 10 11  1  0
 12 11  1  0
 13 12  1  0
 13 14  1  0
 15 14  1  0
 16 21  1  0
 17 18  1  0
 17 16  1  0
 19 18  1  0
 19 26  1  0
 19 20  1  0
 21 15  1  0
 21 20  1  0
 22 15  2  0
 23 24  2  0
 24 43  1  0
 25 24  1  0
 25 28  1  0
 26 23  1  0
 26 27  1  0
 27 25  2  0
 28 29  1  0
 29 30  2  0
 31 34  1  0
 31 30  1  0
 32 31  2  0
 33 32  1  0
 33 28  2  0
 34 35  1  0
 35 36  1  0
 36 37  2  0
 38 37  1  0
 38 42  1  0
 39 38  2  0
 40 35  2  0
 40 39  1  0
 41 40  1  0
 43 44  1  0
 44 47  1  0
 44 46  1  0
 45 43  2  0
 48 49  1  0
 48 23  1  0
 50 48  1  0
 51 53  1  0
 52 63  2  0
 53 58  1  0
 54 62  1  0
 54 64  1  0
 55 61  1  0
 55 57  1  0
 56 62  1  0
 57 56  1  0
 58 57  2  0
 59 60  1  0
 59 53  2  0
 60 55  2  0
 61 54  1  0
 62 52  1  0
 64 66  2  0
 65 64  1  0
 67 65  1  0
 68 77  2  0
 68 73  1  0
 69 65  1  0
 69 73  1  0
 70 69  1  0
 71 72  1  0
 71 70  1  0
 72 68  1  0
 73 74  2  0
 74 75  1  0
 76 75  2  0
 77 76  1  0
 78 52  1  0
 78 79  1  0
 78 88  1  0
 79 82  1  0
 80 84  1  0
 80 79  1  0
 81 80  2  0
 84 83  1  0
 86 84  1  0
 86 87  1  0
 86 85  1  0
 88 91  1  1
 88 89  1  0
 90 88  1  0
M  ISO  4   6 101  14 100  15 100  51 101
M  END
>  <TORSDO>  (17) 
F 22

>  <SCORE>  (17) 
-13.071

>  <name>  (17) 
16

>  <ligand_id>  (17) 
16

>  <original_smiles>  (17) 
[H]c1c([H])c([H])c2c(c1[H])C([H])([H])C([H])([H])C([H])([H])C2([H])N([H])C(=O)C1([H])N(C(=O)C([H])(N([H])C(=O)C([H])(N([H])C([H])([H])[H])C([H])([H])[H])C(C([H])([H])[H])(C([H])([H])[H])C([H])([H])[H])C([H])([H])c2c([H])c(Oc3c([H])c([H])c(C(=O)C([H])([H])C([H])([H])C([H])([H])C([H])([H])C([H])([H])C(=O)N4C([H])([H])C([H])([H])C([H])([H])C([H])(n5nc(-c6c([H])c([H])c(Oc7c([H])c([H])c(F)c([H])c7F)c([H])c6[H])c(C(=O)N([H])[H])c5N([H])[H])C4([H])[H])c([H])c3C([H])([H])[H])c([H])c([H])c2C1([H])[H]

>  <smiles>  (17) 
[H]c1c([H])c([H])c2c(c1[H])C([H])([H])C([H])([H])C([H])([H])C2([H])N([H])C(=O)C1([H])N(C(=O)C([H])(N([H])C(=O)C([H])(N([H])C([H])([H])[H])C([H])([H])[H])C(C([H])([H])[H])(C([H])([H])[H])C([H])([H])[H])C([H])([H])c2c([H])c(Oc3c([H])c([H])c(C(=O)C([H])([H])C([H])([H])C([H])([H])C([H])([H])C([H])([H])C(=O)N4C([H])([H])C([H])([H])C([H])([H])C([H])(n5nc(-c6c([H])c([H])c(Oc7c([H])c([H])c(F)c([H])c7F)c([H])c6[H])c(C(=O)N([H])[H])c5N([H])[H])C4([H])[H])c([H])c3C([H])([H])[H])c([H])c([H])c2C1([H])[H]

$$$$
17:0:0
     RDKit          3D

 93101  0  0  1  0  0  0  0  0999 V2000
  -28.5380  -20.2360   22.2540 C   0  0  0  0  0  3  0  0  0  0  0  0
  -29.2680  -19.1150   21.8160 C   0  0  0  0  0  3  0  0  0  0  0  0
  -28.5230  -21.4130   21.4870 C   0  0  0  0  0  3  0  0  0  0  0  0
  -29.9430  -20.3370   19.8200 C   0  0  0  0  0  3  0  0  0  0  0  0
  -29.9790  -19.1560   20.5970 C   0  0  0  0  0  0  0  0  0  0  0  0
  -29.2520  -21.4800   20.2810 C   0  0  0  0  0  0  0  0  0  0  0  0
  -30.6040  -17.8900   20.1160 C   0  0  0  0  0  0  0  0  0  0  0  0
  -29.9720  -16.8340   20.1730 O   0  0  0  0  0  0  0  0  0  0  0  0
  -32.9520  -17.7550   20.9140 C   0  0  0  0  0  1  0  0  0  0  0  0
  -32.5600  -19.0870   18.8660 C   0  0  0  0  0  1  0  0  0  0  0  0
  -32.0850  -17.8270   19.6360 C   0  0  2  0  0  0  0  0  0  0  0  0
  -32.2280  -16.5800   18.6950 C   0  0  0  0  0  2  0  0  0  0  0  0
  -32.9800  -15.3160   19.1700 C   0  0  0  0  0  0  0  0  0  0  0  0
  -32.6110  -12.9050   18.9900 C   0  0  0  0  0  2  0  0  0  0  0  0
  -31.6800  -12.6730   17.7800 C   0  0  0  0  0  2  0  0  0  0  0  0
  -30.1980  -12.7380   18.2050 C   0  0  0  0  0  2  0  0  0  0  0  0
  -29.8740  -14.0020   19.0420 C   0  0  0  0  0  3  0  0  0  0  0  0
  -30.9320  -14.2320   20.1510 C   0  0  0  0  0  2  0  0  0  0  0  0
  -32.2740  -14.2190   19.5510 N   0  0  0  0  0  0  0  0  0  0  0  0
  -34.1770  -15.2650   18.8850 O   0  0  0  0  0  0  0  0  0  0  0  0
  -27.6710  -15.0470   19.8560 C   0  0  0  0  0  0  0  0  0  0  0  0
  -26.4860  -14.4860   20.2530 C   0  0  0  0  0  0  0  0  0  0  0  0
  -26.6860  -13.0730   20.2020 C   0  0  0  0  0  0  0  0  0  0  0  0
  -28.5190  -13.9840   19.5800 N   0  0  0  0  0  0  0  0  0  0  0  0
  -27.9330  -12.7920   19.8520 N   0  0  0  0  0  0  0  0  0  0  0  0
  -25.7450  -11.9680   20.4090 C   0  0  0  0  0  0  0  0  0  0  0  0
  -25.9850  -10.9690   21.3800 C   0  0  0  0  0  3  0  0  0  0  0  0
  -25.0600   -9.9230   21.5730 C   0  0  0  0  0  3  0  0  0  0  0  0
  -23.8770   -9.8700   20.7980 C   0  0  0  0  0  0  0  0  0  0  0  0
  -23.6550  -10.8540   19.8160 C   0  0  0  0  0  3  0  0  0  0  0  0
  -24.5800  -11.8920   19.6220 C   0  0  0  0  0  3  0  0  0  0  0  0
  -22.9310   -8.8800   20.8980 O   0  0  0  0  0  0  0  0  0  0  0  0
  -22.6450   -8.2760   22.0980 C   0  0  0  0  0  0  0  0  0  0  0  0
  -22.2260   -9.0180   23.2220 C   0  0  0  0  0  3  0  0  0  0  0  0
  -21.8750   -8.3510   24.4140 C   0  0  0  0  0  3  0  0  0  0  0  0
  -21.9350   -6.9460   24.4770 C   0  0  0  0  0  0  0  0  0  0  0  0
  -22.3460   -6.2060   23.3550 C   0  0  0  0  0  3  0  0  0  0  0  0
  -22.6980   -6.8700   22.1670 C   0  0  0  0  0  0  0  0  0  0  0  0
  -23.0740   -6.1510   21.0820 F   0  0  0  0  0  0  0  0  0  0  0  0
  -21.5890   -6.3040   25.6180 F   0  0  0  0  0  0  0  0  0  0  0  0
  -25.2120  -15.2140   20.5720 C   0  0  0  0  0  0  0  0  0  0  0  0
  -24.4020  -14.6650   21.4710 N   0  0  0  0  0  0  0  0  0  0  0  0
  -24.9490  -16.3000   20.0590 O   0  0  0  0  0  0  0  0  0  0  0  0
  -24.6240  -13.7800   21.9050 H   0  0  0  0  0  0  0  0  0  0  0  0
  -23.5460  -15.1340   21.7280 H   0  0  0  0  0  0  0  0  0  0  0  0
  -28.0930  -16.3620   19.6900 N   0  0  0  0  0  0  0  0  0  0  0  0
  -27.5160  -17.1520   19.9520 H   0  0  0  0  0  0  0  0  0  0  0  0
  -29.0740  -16.6010   19.6110 H   0  0  0  0  0  0  0  0  0  0  0  0
  -29.2780  -22.7760   19.4860 C   0  0  0  0  0  2  0  0  0  0  0  0
  -29.9460  -23.9260   20.2640 C   0  0  0  0  0  2  0  0  0  0  0  0
  -29.7810  -25.2890   19.5690 C   0  0  0  0  0  2  0  0  0  0  0  0
  -30.2830  -26.4760   20.4130 C   0  0  0  0  0  2  0  0  0  0  0  0
  -29.9560  -27.7390   19.8370 O   0  0  0  0  0  0  0  0  0  0  0  0
  -24.9290  -31.2760   23.4310 C   0  0  0  0  0  0  0  0  0  0  0  0
  -28.6370  -28.1110   19.9250 C   0  0  0  0  0  0  0  0  0  0  0  0
  -24.1300  -29.8750   21.5560 C   0  0  0  0  0  3  0  0  0  0  0  0
  -25.9420  -28.9530   20.0180 C   0  0  0  0  0  0  0  0  0  0  0  0
  -26.4920  -30.8590   21.5410 C   0  0  0  0  0  2  0  0  0  0  0  0
  -26.9220  -29.6580   20.7290 C   0  0  0  0  0  0  0  0  0  0  0  0
  -28.2710  -29.2440   20.6790 C   0  0  0  0  0  3  0  0  0  0  0  0
  -27.6410  -27.4150   19.2060 C   0  0  0  0  0  3  0  0  0  0  0  0
  -26.2970  -27.8290   19.2530 C   0  0  0  0  0  3  0  0  0  0  0  0
  -24.5250  -29.4770   20.1090 C   0  0  0  0  0  2  0  0  0  0  0  0
  -25.1960  -30.6780   22.2370 N   0  0  0  0  0  0  0  0  0  0  0  0
  -23.8070  -31.1990   23.9490 O   0  0  0  0  0  0  0  0  0  0  0  0
  -23.7380  -28.5950   22.3310 C   0  0  0  0  0  0  0  0  0  0  0  0
  -22.5800  -28.0130   21.9810 N   0  0  0  0  0  0  0  0  0  0  0  0
  -24.4780  -28.1350   23.2040 O   0  0  0  0  0  0  0  0  0  0  0  0
  -22.0340  -28.4530   21.2530 H   0  0  0  0  0  0  0  0  0  0  0  0
  -19.7810  -25.7380   21.8000 C   0  0  0  0  0  0  0  0  0  0  0  0
  -22.0170  -26.7920   22.5560 C   0  0  0  0  0  3  0  0  0  0  0  0
  -22.6890  -25.5300   21.9680 C   0  0  0  0  0  2  0  0  0  0  0  0
  -21.9450  -24.9570   20.7560 C   0  0  0  0  0  2  0  0  0  0  0  0
  -20.5140  -24.5830   21.1450 C   0  0  0  0  0  2  0  0  0  0  0  0
  -20.4870  -26.7820   22.4520 C   0  0  0  0  0  0  0  0  0  0  0  0
  -19.7580  -27.8480   23.0240 C   0  0  0  0  0  3  0  0  0  0  0  0
  -18.3530  -27.8760   22.9560 C   0  0  0  0  0  3  0  0  0  0  0  0
  -17.6600  -26.8320   22.3190 C   0  0  0  0  0  3  0  0  0  0  0  0
  -18.3720  -25.7630   21.7470 C   0  0  0  0  0  3  0  0  0  0  0  0
  -26.0140  -32.1020   24.1930 C   0  0  0  0  0  3  0  0  0  0  0  0
  -25.4580  -33.4390   24.4360 N   0  0  0  0  0  0  0  0  0  0  0  0
  -25.7290  -34.5220   23.6970 C   0  0  0  0  0  0  0  0  0  0  0  0
  -26.5420  -34.5140   22.7690 O   0  0  0  0  0  0  0  0  0  0  0  0
  -24.7420  -33.5070   25.1440 H   0  0  0  0  0  0  0  0  0  0  0  0
  -23.8220  -36.0310   23.0510 C   0  0  0  0  0  1  0  0  0  0  0  0
  -24.9780  -35.8220   24.0410 C   0  0  0  0  0  3  0  0  0  0  0  0
  -26.8250  -37.0160   25.1360 C   0  0  0  0  0  1  0  0  0  0  0  0
  -25.8450  -37.0200   24.0510 N   0  0  0  0  0  0  0  0  0  0  0  0
  -25.2880  -37.8670   24.1300 H   0  0  0  0  0  0  0  0  0  0  0  0
  -26.4680  -31.4310   25.5460 C   0  0  1  0  0  0  0  0  0  0  0  0
  -25.2920  -30.9870   26.4460 C   0  0  0  0  0  1  0  0  0  0  0  0
  -27.3470  -30.1890   25.2700 C   0  0  0  0  0  1  0  0  0  0  0  0
  -27.3360  -32.4200   26.3580 C   0  0  0  0  0  1  0  0  0  0  0  0
  2  1  1  0
  3  1  2  0
  4  6  2  0
  4  5  1  0
  5  2  2  0
  6  3  1  0
  7  8  2  0
  7  5  1  0
 11 10  1  6
 11  7  1  0
 11  9  1  0
 12 13  1  0
 12 11  1  0
 13 19  1  0
 14 19  1  0
 15 16  1  0
 15 14  1  0
 17 16  1  0
 17 24  1  0
 17 18  1  0
 19 18  1  0
 20 13  2  0
 21 22  2  0
 22 41  1  0
 23 22  1  0
 23 26  1  0
 24 25  1  0
 24 21  1  0
 25 23  2  0
 26 27  1  0
 27 28  2  0
 29 32  1  0
 29 28  1  0
 30 29  2  0
 31 30  1  0
 31 26  2  0
 32 33  1  0
 33 38  2  0
 33 34  1  0
 34 35  2  0
 35 36  1  0
 36 40  1  0
 37 36  2  0
 38 37  1  0
 39 38  1  0
 41 42  1  0
 42 45  1  0
 42 44  1  0
 43 41  2  0
 46 21  1  0
 46 47  1  0
 48 46  1  0
 49 50  1  0
 49  6  1  0
 51 50  1  0
 51 52  1  0
 53 55  1  0
 53 52  1  0
 54 65  2  0
 55 60  1  0
 56 64  1  0
 56 66  1  0
 57 63  1  0
 57 59  1  0
 58 64  1  0
 59 58  1  0
 60 59  2  0
 61 62  1  0
 61 55  2  0
 62 57  2  0
 63 56  1  0
 64 54  1  0
 66 68  2  0
 67 66  1  0
 69 67  1  0
 70 75  1  0
 71 67  1  0
 72 71  1  0
 73 74  1  0
 73 72  1  0
 74 70  1  0
 75 71  1  0
 75 76  2  0
 77 76  1  0
 78 77  2  0
 79 70  2  0
 79 78  1  0
 80 54  1  0
 80 81  1  0
 80 90  1  0
 81 84  1  0
 82 86  1  0
 82 81  1  0
 83 82  2  0
 86 85  1  0
 86 88  1  0
 88 89  1  0
 88 87  1  0
 90 93  1  1
 90 91  1  0
 92 90  1  0
M  ISO  4  12 100  13 100  52 101  53 101
M  END
>  <TORSDO>  (18) 
F 23

>  <SCORE>  (18) 
-3.648

>  <name>  (18) 
17

>  <ligand_id>  (18) 
17

>  <original_smiles>  (18) 
[H]c1c([H])c(C(=O)C(C([H])([H])[H])(C([H])([H])[H])C([H])([H])C(=O)N2C([H])([H])C([H])([H])C([H])([H])C([H])(n3nc(-c4c([H])c([H])c(Oc5c([H])c([H])c(F)c([H])c5F)c([H])c4[H])c(C(=O)N([H])[H])c3N([H])[H])C2([H])[H])c([H])c(C([H])([H])C([H])([H])C([H])([H])C([H])([H])Oc2c([H])c([H])c3c(c2[H])C([H])([H])N(C(=O)C([H])(N([H])C(=O)C([H])(N([H])C([H])([H])[H])C([H])([H])[H])C(C([H])([H])[H])(C([H])([H])[H])C([H])([H])[H])C([H])(C(=O)N([H])C2([H])c4c([H])c([H])c([H])c([H])c4C([H])([H])C([H])([H])C2([H])[H])C3([H])[H])c1[H]

>  <smiles>  (18) 
[H]c1c([H])c(C(=O)C(C([H])([H])[H])(C([H])([H])[H])C([H])([H])C(=O)N2C([H])([H])C([H])([H])C([H])([H])C([H])(n3nc(-c4c([H])c([H])c(Oc5c([H])c([H])c(F)c([H])c5F)c([H])c4[H])c(C(=O)N([H])[H])c3N([H])[H])C2([H])[H])c([H])c(C([H])([H])C([H])([H])C([H])([H])C([H])([H])Oc2c([H])c([H])c3c(c2[H])C([H])([H])N(C(=O)C([H])(N([H])C(=O)C([H])(N([H])C([H])([H])[H])C([H])([H])[H])C(C([H])([H])[H])(C([H])([H])[H])C([H])([H])[H])C([H])(C(=O)N([H])C2([H])c4c([H])c([H])c([H])c([H])c4C([H])([H])C([H])([H])C2([H])[H])C3([H])[H])c1[H]

$$$$
18:0:0
     RDKit          3D

100101  0  0  1  0  0  0  0  0999 V2000
  -26.3040  -29.3800   17.9480 C   0  0  0  0  0  2  0  0  0  0  0  0
  -25.1290  -26.5020   20.3410 C   0  0  0  0  0  2  0  0  0  0  0  0
  -25.2220  -29.7410   18.9350 C   0  0  0  0  0  3  0  0  0  0  0  0
  -24.6660  -28.8030   20.0930 C   0  0  0  0  0  3  0  0  0  0  0  0
  -26.9470  -27.9890   17.7530 C   0  0  0  0  0  2  0  0  0  0  0  0
  -26.3400  -25.8660   19.1160 C   0  0  0  0  0  1  0  0  0  0  0  0
  -27.2780  -23.8860   18.5850 C   0  0  0  0  0 15  0  0  0  0  0  0
  -28.6690  -22.5880   17.2250 C   0  0  0  0  0 15  0  0  0  0  0  0
  -29.4060  -19.7230   17.4810 C   0  0  0  0  0  1  0  0  0  0  0  0
  -31.2720  -21.3830   17.6500 C   0  0  0  0  0  1  0  0  0  0  0  0
  -30.1550  -20.8480   16.7510 C   0  0  0  0  0  2  0  0  0  0  0  0
  -31.4140  -19.4880   15.3200 C   0  0  0  0  0 15  0  0  0  0  0  0
  -32.8310  -17.8860   14.7320 C   0  0  0  0  0  2  0  0  0  0  0  0
  -34.5750  -16.3430   13.0000 C   0  0  0  0  0  2  0  0  0  0  0  0
  -34.9120  -16.6340   11.4770 C   0  0  0  0  0  2  0  0  0  0  0  0
  -33.8030  -16.1610   10.5280 C   0  0  0  0  0  2  0  0  0  0  0  0
  -32.4540  -16.4230   11.2140 C   0  0  0  0  0  3  0  0  0  0  0  0
  -32.3490  -15.9770   12.7020 C   0  0  0  0  0  2  0  0  0  0  0  0
  -33.1780  -16.8910   13.5620 N   0  0  0  0  0  0  0  0  0  0  0  0
  -33.9100  -17.6350   15.3640 O   0  0  0  0  0  1  0  0  0  0  0  0
  -30.0450  -16.6020   10.5560 C   0  0  0  0  0  0  0  0  0  0  0  0
  -29.2790  -16.0160    9.5950 C   0  0  0  0  0  0  0  0  0  0  0  0
  -30.1250  -15.0700    8.9340 C   0  0  0  0  0  0  0  0  0  0  0  0
  -31.2920  -16.0270   10.4480 N   0  0  0  0  0  0  0  0  0  0  0  0
  -31.3310  -15.0470    9.5050 N   0  0  0  0  0  0  0  0  0  0  0  0
  -29.8640  -14.2430    7.7470 C   0  0  0  0  0  0  0  0  0  0  0  0
  -30.0670  -12.8450    7.7570 C   0  0  0  0  0  3  0  0  0  0  0  0
  -29.7750  -12.0730    6.6120 C   0  0  0  0  0  3  0  0  0  0  0  0
  -29.2740  -12.6930    5.4440 C   0  0  0  0  0  0  0  0  0  0  0  0
  -29.0940  -14.0880    5.4330 C   0  0  0  0  0  3  0  0  0  0  0  0
  -29.3900  -14.8570    6.5700 C   0  0  0  0  0  3  0  0  0  0  0  0
  -28.9890  -12.0290    4.2770 O   0  0  0  0  0  0  0  0  0  0  0  0
  -28.6060  -10.7110    4.2720 C   0  0  0  0  0  0  0  0  0  0  0  0
  -27.6170  -10.2210    5.1540 C   0  0  0  0  0  3  0  0  0  0  0  0
  -27.2050   -8.8760    5.0720 C   0  0  0  0  0  3  0  0  0  0  0  0
  -27.7690   -8.0240    4.1040 C   0  0  0  0  0  0  0  0  0  0  0  0
  -28.7490   -8.5100    3.2220 C   0  0  0  0  0  3  0  0  0  0  0  0
  -29.1650   -9.8520    3.3050 C   0  0  0  0  0  0  0  0  0  0  0  0
  -30.0930  -10.3210    2.4370 F   0  0  0  0  0  0  0  0  0  0  0  0
  -27.3680   -6.7330    4.0200 F   0  0  0  0  0  0  0  0  0  0  0  0
  -27.8730  -16.3980    9.2520 C   0  0  0  0  0  0  0  0  0  0  0  0
  -27.0770  -15.4490    8.7750 N   0  0  0  0  0  0  0  0  0  0  0  0
  -27.4560  -17.5370    9.4560 O   0  0  0  0  0  0  0  0  0  0  0  0
  -27.4140  -14.5080    8.6340 H   0  0  0  0  0  0  0  0  0  0  0  0
  -26.1190  -15.6700    8.5460 H   0  0  0  0  0  0  0  0  0  0  0  0
  -29.7990  -17.6000   11.4950 N   0  0  0  0  0  0  0  0  0  0  0  0
  -28.9040  -18.0760   11.5440 H   0  0  0  0  0  0  0  0  0  0  0  0
  -30.4870  -17.9830   12.1300 H   0  0  0  0  0  0  0  0  0  0  0  0
  -28.0210  -28.3940   16.6090 C   0  0  0  0  0  2  0  0  0  0  0  0
  -29.1980  -27.5270   16.0330 C   0  0  0  0  0  2  0  0  0  0  0  0
  -30.1890  -26.9070   17.0540 C   0  0  0  0  0  2  0  0  0  0  0  0
  -29.6430  -25.8360   17.8190 O   0  0  0  0  0  0  0  0  0  0  0  0
  -24.6470  -27.5890   24.0700 C   0  0  0  0  0  0  0  0  0  0  0  0
  -28.4350  -26.1650   18.1810 C   0  0  0  0  0  0  0  0  0  0  0  0
  -23.3850  -27.2230   21.7210 C   0  0  0  0  0  2  0  0  0  0  0  0
  -25.0080  -27.4360   18.7510 C   0  0  1  0  0  0  0  0  0  0  0  0
  -26.5960  -27.6720   22.1420 C   0  0  0  0  0  2  0  0  0  0  0  0
  -27.0120  -27.6780   20.3000 C   0  0  0  0  0  2  0  0  0  0  0  0
  -28.3990  -26.9490   19.7360 C   0  0  0  0  0  3  0  0  0  0  0  0
  -27.0240  -25.9930   17.0010 C   0  0  0  0  0  3  0  0  0  0  0  0
  -25.3760  -26.5950   17.3090 C   0  0  0  0  0  3  0  0  0  0  0  0
  -23.3540  -27.3050   19.7080 C   0  0  0  0  0  1  0  0  0  0  0  0
  -24.8960  -27.3760   22.7550 N   0  0  0  0  0  0  0  0  0  0  0  0
  -23.4940  -27.5710   24.5320 O   0  0  0  0  0  0  0  0  0  0  0  0
  -22.7310  -25.9590   22.0070 C   0  0  0  0  0  0  0  0  0  0  0  0
  -21.4650  -25.9600   21.6640 N   0  0  0  0  0  0  0  0  0  0  0  0
  -23.3680  -24.9910   22.4050 O   0  0  0  0  0  0  0  0  0  0  0  0
  -21.0340  -26.8150   21.3450 H   0  0  0  0  0  0  0  0  0  0  0  0
  -18.2040  -24.7690   21.1560 C   0  0  0  0  0  0  0  0  0  0  0  0
  -20.7100  -24.7580   21.5700 C   0  0  0  0  0  3  0  0  0  0  0  0
  -20.8820  -24.1480   20.1640 C   0  0  0  0  0  2  0  0  0  0  0  0
  -19.8000  -24.6080   19.1910 C   0  0  0  0  0  2  0  0  0  0  0  0
  -18.4200  -24.2420   19.7470 C   0  0  0  0  0  2  0  0  0  0  0  0
  -19.2950  -25.0500   22.0060 C   0  0  0  0  0  0  0  0  0  0  0  0
  -19.0740  -25.6050   23.2850 C   0  0  0  0  0  3  0  0  0  0  0  0
  -17.7670  -25.8490   23.7340 C   0  0  0  0  0  3  0  0  0  0  0  0
  -16.6790  -25.5270   22.9080 C   0  0  0  0  0  3  0  0  0  0  0  0
  -16.8930  -24.9910   21.6250 C   0  0  0  0  0  3  0  0  0  0  0  0
  -25.8190  -27.8580   25.0400 C   0  0  0  0  0  3  0  0  0  0  0  0
  -25.3350  -28.7150   26.1380 N   0  0  0  0  0  0  0  0  0  0  0  0
  -25.5890  -30.0240   26.2990 C   0  0  0  0  0  0  0  0  0  0  0  0
  -26.3170  -30.6630   25.5380 O   0  0  0  0  0  0  0  0  0  0  0  0
  -24.6920  -28.2770   26.7820 H   0  0  0  0  0  0  0  0  0  0  0  0
  -23.6750  -31.4570   27.0960 C   0  0  0  0  0  1  0  0  0  0  0  0
  -24.9630  -30.7330   27.5180 C   0  0  0  0  0  3  0  0  0  0  0  0
  -27.0200  -31.0440   28.8280 C   0  0  0  0  0  1  0  0  0  0  0  0
  -25.8750  -31.6900   28.1870 N   0  0  0  0  0  0  0  0  0  0  0  0
  -25.3800  -32.2320   28.8890 H   0  0  0  0  0  0  0  0  0  0  0  0
  -26.3940  -26.5020   25.5920 C   0  0  1  0  0  0  0  0  0  0  0  0
  -25.2990  -25.5850   26.1830 C   0  0  0  0  0  1  0  0  0  0  0  0
  -27.1290  -25.6550   24.5340 C   0  0  0  0  0  1  0  0  0  0  0  0
  -27.4540  -26.7970   26.6690 C   0  0  0  0  0  1  0  0  0  0  0  0
  -23.9070  -29.9950   20.9140 C   0  0  0  0  0  2  0  0  0  0  0  0
  -24.8020  -31.1300   21.4970 C   0  0  0  0  0  2  0  0  0  0  0  0
  -24.8270  -33.6080   22.1640 C   0  0  0  0  0  1  0  0  0  0  0  0
  -23.9690  -32.3750   21.8540 C   0  0  0  0  0  2  0  0  0  0  0  0
  -24.4880  -31.0040   18.3860 C   0  0  0  0  0  2  0  0  0  0  0  0
  -23.3430  -30.6220   17.4100 C   0  0  0  0  0  2  0  0  0  0  0  0
  -20.8660  -30.1210   16.9980 C   0  0  0  0  0  1  0  0  0  0  0  0
  -21.9060  -30.6790   17.9730 C   0  0  0  0  0  2  0  0  0  0  0  0
  1  3  1  0
  3 97  1  0
  3  4  1  0
  4 93  1  0
  5  1  1  0
  6  2  1  0
 11  9  1  0
 11 10  1  0
 13 20  1  0
 14 19  1  0
 15 14  1  0
 16 17  1  0
 16 15  1  0
 17 24  1  0
 17 18  1  0
 18 19  1  0
 19 13  1  0
 21 46  1  0
 22 21  2  0
 23 25  2  0
 23 22  1  0
 24 21  1  0
 25 24  1  0
 26 27  1  0
 26 23  1  0
 28 27  2  0
 29 28  1  0
 30 29  2  0
 30 31  1  0
 31 26  2  0
 32 29  1  0
 33 32  1  0
 33 34  1  0
 35 34  2  0
 36 35  1  0
 37 38  1  0
 37 36  2  0
 38 33  2  0
 39 38  1  0
 40 36  1  0
 41 43  2  0
 41 22  1  0
 42 41  1  0
 44 42  1  0
 45 42  1  0
 46 47  1  0
 46 48  1  0
 49  5  1  0
 50 49  1  0
 50 51  1  0
 51 52  1  0
 52 54  1  0
 53 64  2  0
 54 59  2  0
 55 65  1  0
 55 63  1  0
 56 62  1  6
 56  4  1  0
 56  2  1  0
 57 63  1  0
 58 57  1  0
 59 58  1  0
 60 61  2  0
 60 54  1  0
 61 56  1  0
 63 53  1  0
 65 67  2  0
 66 65  1  0
 68 66  1  0
 69 78  2  0
 69 74  1  0
 70 66  1  0
 70 74  1  0
 71 70  1  0
 72 73  1  0
 72 71  1  0
 73 69  1  0
 74 75  2  0
 75 76  1  0
 77 76  2  0
 78 77  1  0
 79 53  1  0
 79 89  1  0
 79 80  1  0
 80 81  1  0
 80 83  1  0
 81 85  1  0
 82 81  2  0
 85 84  1  0
 85 87  1  0
 87 86  1  0
 87 88  1  0
 89 90  1  1
 89 92  1  0
 91 89  1  0
 93 94  1  0
 94 96  1  0
 96 95  1  0
 98100  1  0
 98 97  1  0
 99100  1  0
M  ISO  4  12 100  13 100  51 101  52 101
M  END
>  <TORSDO>  (19) 
F 29

>  <SCORE>  (19) 
26.089

>  <name>  (19) 
18

>  <ligand_id>  (19) 
18

>  <original_smiles>  (19) 
[H]c1c([H])c([H])c2c(c1[H])C([H])([H])C([H])([H])C([H])([H])C2([H])N([H])C(=O)C1([H])N(C(=O)C([H])(N([H])C(=O)C([H])(N([H])C([H])([H])[H])C([H])([H])[H])C(C([H])([H])[H])(C([H])([H])[H])C([H])([H])[H])C([H])([H])c2c([H])c(OC([H])([H])C([H])([H])C([H])([H])c3c([H])c(C([H])([H])C([H])([H])C([H])([H])C([H])([H])[H])c(C([H])([H])C([H])([H])C([H])([H])C([H])([H])[H])c([H])c3C([H])([H])C([H])([H])C(C([H])([H])[H])(C([H])([H])[H])C([H])([H])C(=O)N3C([H])([H])C([H])([H])C([H])([H])C([H])(n4nc(-c5c([H])c([H])c(Oc6c([H])c([H])c(F)c([H])c6F)c([H])c5[H])c(C(=O)N([H])[H])c4N([H])[H])C3([H])[H])c([H])c([H])c2C1([H])[H]

>  <smiles>  (19) 
[H]c1c([H])c([H])c2c(c1[H])C([H])([H])C([H])([H])C([H])([H])C2([H])N([H])C(=O)C1([H])N(C(=O)C([H])(N([H])C(=O)C([H])(N([H])C([H])([H])[H])C([H])([H])[H])C(C([H])([H])[H])(C([H])([H])[H])C([H])([H])[H])C([H])([H])c2c([H])c(OC([H])([H])C([H])([H])C([H])([H])c3c([H])c(C([H])([H])C([H])([H])C([H])([H])C([H])([H])[H])c(C([H])([H])C([H])([H])C([H])([H])C([H])([H])[H])c([H])c3C([H])([H])C([H])([H])C(C([H])([H])[H])(C([H])([H])[H])C([H])([H])C(=O)N3C([H])([H])C([H])([H])C([H])([H])C([H])(n4nc(-c5c([H])c([H])c(Oc6c([H])c([H])c(F)c([H])c6F)c([H])c5[H])c(C(=O)N([H])[H])c4N([H])[H])C3([H])[H])c([H])c([H])c2C1([H])[H]

$$$$
19:0:0
     RDKit          3D

 93101  0  0  1  0  0  0  0  0999 V2000
  -30.7730  -16.5200   20.6460 C   0  0  0  0  0  0  0  0  0  0  0  0
  -31.0990  -16.8530   21.9960 C   0  0  0  0  0  0  0  0  0  0  0  0
  -30.1910  -17.6650   19.8700 C   0  0  0  0  0  0  0  0  0  0  0  0
  -30.2110  -19.1940   21.7730 C   0  0  0  0  0  0  0  0  0  0  0  0
  -30.7780  -18.1340   22.5550 C   0  0  0  0  0  0  0  0  0  0  0  0
  -29.9010  -19.0360   20.3900 C   0  0  0  0  0  0  0  0  0  0  0  0
  -31.9150  -15.8800   22.8730 C   0  0  0  0  0  1  0  0  0  0  0  0
  -29.8860  -17.4490   18.3960 C   0  0  0  0  0  1  0  0  0  0  0  0
  -29.9730  -20.5660   22.4080 C   0  0  0  0  0  1  0  0  0  0  0  0
  -31.2700  -15.0940   20.0650 C   0  0  0  0  0  0  0  0  0  0  0  0
  -30.9620  -12.7190   19.2080 C   0  0  0  0  0  2  0  0  0  0  0  0
  -30.0460  -12.7000   17.9640 C   0  0  0  0  0  2  0  0  0  0  0  0
  -28.5730  -12.5720   18.3940 C   0  0  0  0  0  2  0  0  0  0  0  0
  -28.2140  -13.5590   19.5330 C   0  0  0  0  0  3  0  0  0  0  0  0
  -29.2610  -13.5740   20.6640 C   0  0  0  0  0  2  0  0  0  0  0  0
  -30.5700  -13.8800   20.0660 N   0  0  0  0  0  0  0  0  0  0  0  0
  -32.4040  -15.0630   19.5790 O   0  0  0  0  0  0  0  0  0  0  0  0
  -25.9050  -14.2960   20.3560 C   0  0  0  0  0  0  0  0  0  0  0  0
  -24.7860  -13.5970   20.7170 C   0  0  0  0  0  0  0  0  0  0  0  0
  -25.1340  -12.2140   20.6160 C   0  0  0  0  0  0  0  0  0  0  0  0
  -26.8630  -13.3470   20.0460 N   0  0  0  0  0  0  0  0  0  0  0  0
  -26.4100  -12.0850   20.2650 N   0  0  0  0  0  0  0  0  0  0  0  0
  -24.3040  -11.0110   20.7710 C   0  0  0  0  0  0  0  0  0  0  0  0
  -24.7220   -9.9240   21.5720 C   0  0  0  0  0  3  0  0  0  0  0  0
  -23.9010   -8.7860   21.7200 C   0  0  0  0  0  3  0  0  0  0  0  0
  -22.6430   -8.7280   21.0700 C   0  0  0  0  0  0  0  0  0  0  0  0
  -22.2420   -9.8020   20.2580 C   0  0  0  0  0  3  0  0  0  0  0  0
  -23.0640  -10.9320   20.1070 C   0  0  0  0  0  3  0  0  0  0  0  0
  -21.7910   -7.6520   21.1360 O   0  0  0  0  0  0  0  0  0  0  0  0
  -21.8580   -6.7410   22.1610 C   0  0  0  0  0  0  0  0  0  0  0  0
  -21.7110   -7.1270   23.5110 C   0  0  0  0  0  3  0  0  0  0  0  0
  -21.7120   -6.1500   24.5270 C   0  0  0  0  0  3  0  0  0  0  0  0
  -21.8540   -4.7890   24.1960 C   0  0  0  0  0  0  0  0  0  0  0  0
  -21.9960   -4.4010   22.8520 C   0  0  0  0  0  3  0  0  0  0  0  0
  -21.9930   -5.3750   21.8370 C   0  0  0  0  0  0  0  0  0  0  0  0
  -22.1100   -4.9950   20.5420 F   0  0  0  0  0  0  0  0  0  0  0  0
  -21.8510   -3.8510   25.1720 F   0  0  0  0  0  0  0  0  0  0  0  0
  -23.4410  -14.1780   21.0430 C   0  0  0  0  0  0  0  0  0  0  0  0
  -22.6820  -13.5230   21.9140 N   0  0  0  0  0  0  0  0  0  0  0  0
  -23.0750  -15.2490   20.5630 O   0  0  0  0  0  0  0  0  0  0  0  0
  -22.9920  -12.6570   22.3290 H   0  0  0  0  0  0  0  0  0  0  0  0
  -21.7760  -13.8930   22.1660 H   0  0  0  0  0  0  0  0  0  0  0  0
  -26.1850  -15.6540   20.2400 N   0  0  0  0  0  0  0  0  0  0  0  0
  -25.4910  -16.3720   20.4140 H   0  0  0  0  0  0  0  0  0  0  0  0
  -27.0830  -16.0260   19.9550 H   0  0  0  0  0  0  0  0  0  0  0  0
  -29.8080  -18.6070   24.8750 C   0  0  0  0  0  1  0  0  0  0  0  0
  -31.0810  -18.3940   24.0460 C   0  0  0  0  0  2  0  0  0  0  0  0
  -29.4620  -20.3850   19.4970 C   0  0  0  0  0  2  0  0  0  0  0  0
  -28.5590  -21.7570   19.9430 C   0  0  0  0  0  2  0  0  0  0  0  0
  -28.7430  -23.3040   19.3740 C   0  0  0  0  0  0  0  0  0  0  0  0
  -29.7340  -23.5470   18.6790 O   0  0  0  0  0  0  0  0  0  0  0  0
  -27.6910  -24.5450   19.6820 C   0  0  0  0  0  2  0  0  0  0  0  0
  -28.0400  -26.0590   19.5400 O   0  0  0  0  0  0  0  0  0  0  0  0
  -24.6250  -31.5870   23.0320 C   0  0  0  0  0  0  0  0  0  0  0  0
  -26.9910  -27.0490   19.5970 C   0  0  0  0  0  0  0  0  0  0  0  0
  -23.3190  -30.2860   21.3960 C   0  0  0  0  0  3  0  0  0  0  0  0
  -24.6700  -28.7940   19.8010 C   0  0  0  0  0  0  0  0  0  0  0  0
  -25.8610  -30.5570   21.0920 C   0  0  0  0  0  2  0  0  0  0  0  0
  -25.8870  -29.2060   20.3580 C   0  0  0  0  0  0  0  0  0  0  0  0
  -27.0480  -28.3510   20.2400 C   0  0  0  0  0  3  0  0  0  0  0  0
  -25.7460  -26.7460   18.9990 C   0  0  0  0  0  3  0  0  0  0  0  0
  -24.6120  -27.5780   19.1060 C   0  0  0  0  0  3  0  0  0  0  0  0
  -23.4510  -29.6850   19.9730 C   0  0  0  0  0  2  0  0  0  0  0  0
  -24.6240  -30.8290   21.8930 N   0  0  0  0  0  0  0  0  0  0  0  0
  -23.5730  -31.8450   23.6400 O   0  0  0  0  0  0  0  0  0  0  0  0
  -22.6970  -29.2280   22.3410 C   0  0  0  0  0  0  0  0  0  0  0  0
  -21.3710  -29.0260   22.2480 N   0  0  0  0  0  0  0  0  0  0  0  0
  -23.4110  -28.5920   23.1210 O   0  0  0  0  0  0  0  0  0  0  0  0
  -20.8540  -29.5890   21.5890 H   0  0  0  0  0  0  0  0  0  0  0  0
  -18.0530  -27.6500   22.7320 C   0  0  0  0  0  0  0  0  0  0  0  0
  -20.5950  -28.0420   23.0090 C   0  0  0  0  0  3  0  0  0  0  0  0
  -20.7720  -26.6220   22.4230 C   0  0  0  0  0  2  0  0  0  0  0  0
  -19.6900  -26.2500   21.4040 C   0  0  0  0  0  2  0  0  0  0  0  0
  -18.3010  -26.3190   22.0440 C   0  0  0  0  0  2  0  0  0  0  0  0
  -19.1310  -28.4670   23.1700 C   0  0  0  0  0  0  0  0  0  0  0  0
  -18.8430  -29.7110   23.7730 C   0  0  0  0  0  3  0  0  0  0  0  0
  -17.5130  -30.1390   23.9420 C   0  0  0  0  0  3  0  0  0  0  0  0
  -16.4510  -29.3210   23.5220 C   0  0  0  0  0  3  0  0  0  0  0  0
  -16.7220  -28.0780   22.9220 C   0  0  0  0  0  3  0  0  0  0  0  0
  -25.9420  -32.1840   23.6130 C   0  0  0  0  0  3  0  0  0  0  0  0
  -25.6590  -33.5650   24.0380 N   0  0  0  0  0  0  0  0  0  0  0  0
  -25.9820  -34.6620   23.3430 C   0  0  0  0  0  0  0  0  0  0  0  0
  -26.6200  -34.6190   22.2870 O   0  0  0  0  0  0  0  0  0  0  0  0
  -25.0900  -33.6740   24.8650 H   0  0  0  0  0  0  0  0  0  0  0  0
  -24.2680  -36.4970   23.1650 C   0  0  0  0  0  1  0  0  0  0  0  0
  -25.5290  -36.0240   23.9060 C   0  0  0  0  0  3  0  0  0  0  0  0
  -27.7020  -36.8280   24.7210 C   0  0  0  0  0  1  0  0  0  0  0  0
  -26.5700  -37.0710   23.8290 N   0  0  0  0  0  0  0  0  0  0  0  0
  -26.1820  -37.9840   24.0520 H   0  0  0  0  0  0  0  0  0  0  0  0
  -26.5240  -31.3470   24.8170 C   0  0  1  0  0  0  0  0  0  0  0  0
  -25.4970  -31.0700   25.9410 C   0  0  0  0  0  1  0  0  0  0  0  0
  -27.0620  -29.9830   24.3310 C   0  0  0  0  0  1  0  0  0  0  0  0
  -27.7250  -32.0970   25.4430 C   0  0  0  0  0  1  0  0  0  0  0  0
  1  2  1  0
  2  5  2  0
  2  7  1  0
  3  6  1  0
  3  1  2  0
  4  9  1  0
  4  5  1  0
  5 47  1  0
  6  4  2  0
  8  3  1  0
 10 16  1  0
 10  1  1  0
 11 16  1  0
 12 13  1  0
 12 11  1  0
 14 13  1  0
 14 21  1  0
 14 15  1  0
 16 15  1  0
 17 10  2  0
 18 19  2  0
 19 38  1  0
 20 19  1  0
 20 23  1  0
 21 22  1  0
 21 18  1  0
 22 20  2  0
 23 24  1  0
 24 25  2  0
 26 29  1  0
 26 25  1  0
 27 26  2  0
 28 27  1  0
 28 23  2  0
 29 30  1  0
 30 31  1  0
 31 32  2  0
 33 32  1  0
 33 37  1  0
 34 33  2  0
 35 30  2  0
 35 34  1  0
 36 35  1  0
 38 39  1  0
 39 42  1  0
 39 41  1  0
 40 38  2  0
 43 18  1  0
 43 44  1  0
 45 43  1  0
 47 46  1  0
 48 49  1  0
 48  6  1  0
 50 52  1  0
 50 49  1  0
 51 50  2  0
 53 55  1  0
 53 52  1  0
 54 65  2  0
 55 60  1  0
 56 64  1  0
 56 66  1  0
 57 63  1  0
 57 59  1  0
 58 64  1  0
 59 58  1  0
 60 59  2  0
 61 62  1  0
 61 55  2  0
 62 57  2  0
 63 56  1  0
 64 54  1  0
 66 68  2  0
 67 66  1  0
 69 67  1  0
 70 79  2  0
 70 75  1  0
 71 67  1  0
 71 75  1  0
 72 71  1  0
 73 74  1  0
 73 72  1  0
 74 70  1  0
 75 76  2  0
 76 77  1  0
 78 77  2  0
 79 78  1  0
 80 54  1  0
 80 81  1  0
 80 90  1  0
 81 84  1  0
 82 86  1  0
 82 81  1  0
 83 82  2  0
 86 85  1  0
 88 86  1  0
 88 89  1  0
 88 87  1  0
 90 93  1  1
 90 91  1  0
 92 90  1  0
M  ISO  4   1 100  10 100  52 101  53 101
M  END
>  <TORSDO>  (20) 
F 21

>  <SCORE>  (20) 
-7.746

>  <name>  (20) 
19

>  <ligand_id>  (20) 
19

>  <original_smiles>  (20) 
[H]c1c([H])c([H])c2c(c1[H])C([H])([H])C([H])([H])C([H])([H])C2([H])N([H])C(=O)C1([H])N(C(=O)C([H])(N([H])C(=O)C([H])(N([H])C([H])([H])[H])C([H])([H])[H])C(C([H])([H])[H])(C([H])([H])[H])C([H])([H])[H])C([H])([H])c2c([H])c(OC([H])([H])C(=O)C([H])([H])C([H])([H])c3c(C([H])([H])[H])c(C(=O)N4C([H])([H])C([H])([H])C([H])([H])C([H])(n5nc(-c6c([H])c([H])c(Oc7c([H])c([H])c(F)c([H])c7F)c([H])c6[H])c(C(=O)N([H])[H])c5N([H])[H])C4([H])[H])c(C([H])([H])[H])c(C([H])([H])C([H])([H])[H])c3C([H])([H])[H])c([H])c([H])c2C1([H])[H]

>  <smiles>  (20) 
[H]c1c([H])c([H])c2c(c1[H])C([H])([H])C([H])([H])C([H])([H])C2([H])N([H])C(=O)C1([H])N(C(=O)C([H])(N([H])C(=O)C([H])(N([H])C([H])([H])[H])C([H])([H])[H])C(C([H])([H])[H])(C([H])([H])[H])C([H])([H])[H])C([H])([H])c2c([H])c(OC([H])([H])C(=O)C([H])([H])C([H])([H])c3c(C([H])([H])[H])c(C(=O)N4C([H])([H])C([H])([H])C([H])([H])C([H])(n5nc(-c6c([H])c([H])c(Oc7c([H])c([H])c(F)c([H])c7F)c([H])c6[H])c(C(=O)N([H])[H])c5N([H])[H])C4([H])[H])c(C([H])([H])[H])c(C([H])([H])C([H])([H])[H])c3C([H])([H])[H])c([H])c([H])c2C1([H])[H]

$$$$
20:0:0
     RDKit          3D

 93101  0  0  1  0  0  0  0  0999 V2000
  -29.9800  -23.8710   20.2250 C   0  0  0  0  0  3  0  0  0  0  0  0
  -29.7230  -25.2230   19.8660 C   0  0  0  0  0  3  0  0  0  0  0  0
  -28.9530  -23.0180   20.6940 C   0  0  0  0  0  0  0  0  0  0  0  0
  -27.6430  -23.5810   20.7580 C   0  0  0  0  0  0  0  0  0  0  0  0
  -28.4450  -25.8210   19.9910 C   0  0  0  0  0  0  0  0  0  0  0  0
  -27.4080  -24.9600   20.4660 C   0  0  0  0  0  0  0  0  0  0  0  0
  -26.1620  -25.4370   20.6960 F   0  0  0  0  0  0  0  0  0  0  0  0
  -28.3520  -27.1970   19.6680 O   0  0  0  0  0  0  0  0  0  0  0  0
  -24.9610  -31.8410   23.9710 C   0  0  0  0  0  0  0  0  0  0  0  0
  -27.2480  -28.0210   19.8730 C   0  0  0  0  0  0  0  0  0  0  0  0
  -23.6500  -30.9540   22.0700 C   0  0  0  0  0  3  0  0  0  0  0  0
  -24.9860  -29.7070   20.2800 C   0  0  0  0  0  0  0  0  0  0  0  0
  -26.1970  -31.1560   21.9140 C   0  0  0  0  0  2  0  0  0  0  0  0
  -26.1790  -29.9680   20.9660 C   0  0  0  0  0  0  0  0  0  0  0  0
  -27.3090  -29.1280   20.7660 C   0  0  0  0  0  3  0  0  0  0  0  0
  -26.0580  -27.8410   19.1380 C   0  0  0  0  0  3  0  0  0  0  0  0
  -24.9250  -28.6470   19.3600 C   0  0  0  0  0  3  0  0  0  0  0  0
  -23.8060  -30.6130   20.5630 C   0  0  0  0  0  2  0  0  0  0  0  0
  -24.9550  -31.3200   22.7090 N   0  0  0  0  0  0  0  0  0  0  0  0
  -23.9050  -32.0510   24.5850 O   0  0  0  0  0  0  0  0  0  0  0  0
  -22.9340  -29.7780   22.7770 C   0  0  0  0  0  0  0  0  0  0  0  0
  -21.6350  -29.6020   22.4840 N   0  0  0  0  0  0  0  0  0  0  0  0
  -23.5490  -29.0370   23.5470 O   0  0  0  0  0  0  0  0  0  0  0  0
  -21.2020  -30.2540   21.8450 H   0  0  0  0  0  0  0  0  0  0  0  0
  -18.2630  -28.3060   22.4570 C   0  0  0  0  0  0  0  0  0  0  0  0
  -20.7760  -28.5390   23.0050 C   0  0  0  0  0  3  0  0  0  0  0  0
  -20.9670  -27.2300   22.2050 C   0  0  0  0  0  2  0  0  0  0  0  0
  -19.9730  -27.0790   21.0500 C   0  0  0  0  0  2  0  0  0  0  0  0
  -18.5350  -27.0970   21.5780 C   0  0  0  0  0  2  0  0  0  0  0  0
  -19.3180  -28.9930   23.1140 C   0  0  0  0  0  0  0  0  0  0  0  0
  -19.0150  -30.1310   23.8910 C   0  0  0  0  0  3  0  0  0  0  0  0
  -17.6890  -30.5870   24.0170 C   0  0  0  0  0  3  0  0  0  0  0  0
  -16.6470  -29.8940   23.3760 C   0  0  0  0  0  3  0  0  0  0  0  0
  -16.9330  -28.7550   22.6040 C   0  0  0  0  0  3  0  0  0  0  0  0
  -26.2930  -32.2240   24.6890 C   0  0  0  0  0  3  0  0  0  0  0  0
  -26.1520  -33.6030   25.1770 N   0  0  0  0  0  0  0  0  0  0  0  0
  -26.6130  -34.6870   24.5390 C   0  0  0  0  0  0  0  0  0  0  0  0
  -27.2730  -34.6210   23.4980 O   0  0  0  0  0  0  0  0  0  0  0  0
  -25.5750  -33.7370   25.9940 H   0  0  0  0  0  0  0  0  0  0  0  0
  -25.1070  -36.6950   24.3960 C   0  0  0  0  0  1  0  0  0  0  0  0
  -26.2880  -36.0630   25.1490 C   0  0  0  0  0  3  0  0  0  0  0  0
  -28.5040  -36.5990   26.0630 C   0  0  0  0  0  1  0  0  0  0  0  0
  -27.4380  -36.9940   25.1460 N   0  0  0  0  0  0  0  0  0  0  0  0
  -27.1390  -37.9320   25.3990 H   0  0  0  0  0  0  0  0  0  0  0  0
  -26.6630  -31.2480   25.8730 C   0  0  1  0  0  0  0  0  0  0  0  0
  -25.5100  -31.0270   26.8800 C   0  0  0  0  0  1  0  0  0  0  0  0
  -27.0850  -29.8620   25.3340 C   0  0  0  0  0  1  0  0  0  0  0  0
  -27.8780  -31.8050   26.6530 C   0  0  0  0  0  1  0  0  0  0  0  0
  -29.3000  -21.6190   21.3030 C   0  0  0  0  0  2  0  0  0  0  0  0
  -29.6420  -20.3800   20.3970 C   0  0  0  0  0  2  0  0  0  0  0  0
  -29.7220  -19.0040   21.1790 C   0  0  0  0  0  3  0  0  0  0  0  0
  -30.4380  -17.7980   20.4650 C   0  0  0  0  0  3  0  0  0  0  0  0
  -31.0860  -15.3800   20.9510 C   0  0  0  0  0  0  0  0  0  0  0  0
  -31.0350  -13.1030   19.9950 C   0  0  0  0  0  2  0  0  0  0  0  0
  -30.2280  -13.1620   18.6810 C   0  0  0  0  0  2  0  0  0  0  0  0
  -28.7220  -12.9810   18.9550 C   0  0  0  0  0  2  0  0  0  0  0  0
  -28.2090  -13.8820   20.1090 C   0  0  0  0  0  3  0  0  0  0  0  0
  -29.1440  -13.8080   21.3390 C   0  0  0  0  0  2  0  0  0  0  0  0
  -30.5020  -14.1470   20.8910 N   0  0  0  0  0  0  0  0  0  0  0  0
  -32.2750  -15.5510   20.6730 O   0  0  0  0  0  0  0  0  0  0  0  0
  -30.2380  -16.4410   21.0650 N   0  0  0  0  0  0  0  0  0  0  0  0
  -29.2910  -16.2000   21.3170 H   0  0  0  0  0  0  0  0  0  0  0  0
  -25.7490  -14.4360   20.6040 C   0  0  0  0  0  0  0  0  0  0  0  0
  -24.6640  -13.6410   20.8570 C   0  0  0  0  0  0  0  0  0  0  0  0
  -25.1480  -12.2970   20.8450 C   0  0  0  0  0  0  0  0  0  0  0  0
  -26.8250  -13.5750   20.4570 N   0  0  0  0  0  0  0  0  0  0  0  0
  -26.4610  -12.2830   20.6610 N   0  0  0  0  0  0  0  0  0  0  0  0
  -24.4270  -11.0220   20.9430 C   0  0  0  0  0  0  0  0  0  0  0  0
  -24.7160  -10.0880   21.9620 C   0  0  0  0  0  3  0  0  0  0  0  0
  -23.9960   -8.8750   22.0450 C   0  0  0  0  0  3  0  0  0  0  0  0
  -22.9750   -8.5900   21.1080 C   0  0  0  0  0  0  0  0  0  0  0  0
  -22.7090   -9.5130   20.0810 C   0  0  0  0  0  3  0  0  0  0  0  0
  -23.4300  -10.7160   19.9960 C   0  0  0  0  0  3  0  0  0  0  0  0
  -22.2420   -7.4270   21.0960 O   0  0  0  0  0  0  0  0  0  0  0  0
  -21.9250   -6.7650   22.2540 C   0  0  0  0  0  0  0  0  0  0  0  0
  -21.1840   -7.3830   23.2870 C   0  0  0  0  0  3  0  0  0  0  0  0
  -20.8190   -6.6450   24.4300 C   0  0  0  0  0  3  0  0  0  0  0  0
  -21.1840   -5.2900   24.5390 C   0  0  0  0  0  0  0  0  0  0  0  0
  -21.9160   -4.6720   23.5110 C   0  0  0  0  0  3  0  0  0  0  0  0
  -22.2820   -5.4070   22.3700 C   0  0  0  0  0  0  0  0  0  0  0  0
  -22.9710   -4.8010   21.3720 F   0  0  0  0  0  0  0  0  0  0  0  0
  -20.8260   -4.5770   25.6330 F   0  0  0  0  0  0  0  0  0  0  0  0
  -23.2400  -14.0940   21.0020 C   0  0  0  0  0  0  0  0  0  0  0  0
  -22.4450  -13.3720   21.7840 N   0  0  0  0  0  0  0  0  0  0  0  0
  -22.8360  -15.1210   20.4580 O   0  0  0  0  0  0  0  0  0  0  0  0
  -22.7830  -12.5410   22.2460 H   0  0  0  0  0  0  0  0  0  0  0  0
  -21.4840  -13.6530   21.9200 H   0  0  0  0  0  0  0  0  0  0  0  0
  -25.9050  -15.8120   20.4660 N   0  0  0  0  0  0  0  0  0  0  0  0
  -25.1160  -16.4480   20.5200 H   0  0  0  0  0  0  0  0  0  0  0  0
  -26.7640  -16.2710   20.1930 H   0  0  0  0  0  0  0  0  0  0  0  0
  -26.4470  -22.7170   21.1470 C   0  0  0  0  0  2  0  0  0  0  0  0
  -23.9610  -22.9700   21.6490 C   0  0  0  0  0  1  0  0  0  0  0  0
  -25.3780  -23.4720   21.9530 C   0  0  0  0  0  2  0  0  0  0  0  0
  1  3  1  0
  2  5  1  0
  2  1  2  0
  3  4  2  0
  3 49  1  0
  4 91  1  0
  5  6  2  0
  6  7  1  0
  6  4  1  0
  8 10  1  0
  8  5  1  0
  9 20  2  0
 10 15  1  0
 11 19  1  0
 11 21  1  0
 12 18  1  0
 12 14  1  0
 13 19  1  0
 14 13  1  0
 15 14  2  0
 16 17  1  0
 16 10  2  0
 17 12  2  0
 18 11  1  0
 19  9  1  0
 21 23  2  0
 22 21  1  0
 24 22  1  0
 25 34  2  0
 25 30  1  0
 26 22  1  0
 26 30  1  0
 27 26  1  0
 28 29  1  0
 28 27  1  0
 29 25  1  0
 30 31  2  0
 31 32  1  0
 33 32  2  0
 34 33  1  0
 35  9  1  0
 35 36  1  0
 35 45  1  0
 36 39  1  0
 37 41  1  0
 37 36  1  0
 38 37  2  0
 41 40  1  0
 43 41  1  0
 43 44  1  0
 43 42  1  0
 45 48  1  1
 45 46  1  0
 47 45  1  0
 50 51  1  0
 50 49  1  0
 52 61  1  0
 52 51  2  0
 53 61  1  0
 54 59  1  0
 55 56  1  0
 55 54  1  0
 57 56  1  0
 57 66  1  0
 57 58  1  0
 59 53  1  0
 59 58  1  0
 60 53  2  0
 61 62  1  0
 63 64  2  0
 64 83  1  0
 65 64  1  0
 65 68  1  0
 66 63  1  0
 66 67  1  0
 67 65  2  0
 68 69  1  0
 69 70  2  0
 71 70  1  0
 72 71  2  0
 73 72  1  0
 73 68  2  0
 74 71  1  0
 74 75  1  0
 75 80  2  0
 75 76  1  0
 76 77  2  0
 77 78  1  0
 78 82  1  0
 79 78  2  0
 80 79  1  0
 81 80  1  0
 83 84  1  0
 84 87  1  0
 84 86  1  0
 85 83  2  0
 88 89  1  0
 88 63  1  0
 90 88  1  0
 91 93  1  0
 92 93  1  0
M  ISO  4   5 101   8 101  53 100  61 100
M  END
>  <TORSDO>  (21) 
F 22

>  <SCORE>  (21) 
-9.731

>  <name>  (21) 
20

>  <ligand_id>  (21) 
20

>  <original_smiles>  (21) 
[H]c1c([H])c([H])c2c(c1[H])C([H])([H])C([H])([H])C([H])([H])C2([H])N([H])C(=O)C1([H])N(C(=O)C([H])(N([H])C(=O)C([H])(N([H])C([H])([H])[H])C([H])([H])[H])C(C([H])([H])[H])(C([H])([H])[H])C([H])([H])[H])C([H])([H])c2c([H])c(Oc3c([H])c([H])c(C([H])([H])C([H])([H])C([H])([H])C([H])([H])N([H])C(=O)N4C([H])([H])C([H])([H])C([H])([H])C([H])(n5nc(-c6c([H])c([H])c(Oc7c([H])c([H])c(F)c([H])c7F)c([H])c6[H])c(C(=O)N([H])[H])c5N([H])[H])C4([H])[H])c(C([H])([H])C([H])([H])C([H])([H])[H])c3F)c([H])c([H])c2C1([H])[H]

>  <smiles>  (21) 
[H]c1c([H])c([H])c2c(c1[H])C([H])([H])C([H])([H])C([H])([H])C2([H])N([H])C(=O)C1([H])N(C(=O)C([H])(N([H])C(=O)C([H])(N([H])C([H])([H])[H])C([H])([H])[H])C(C([H])([H])[H])(C([H])([H])[H])C([H])([H])[H])C([H])([H])c2c([H])c(Oc3c([H])c([H])c(C([H])([H])C([H])([H])C([H])([H])C([H])([H])N([H])C(=O)N4C([H])([H])C([H])([H])C([H])([H])C([H])(n5nc(-c6c([H])c([H])c(Oc7c([H])c([H])c(F)c([H])c7F)c([H])c6[H])c(C(=O)N([H])[H])c5N([H])[H])C4([H])[H])c(C([H])([H])C([H])([H])C([H])([H])[H])c3F)c([H])c([H])c2C1([H])[H]

$$$$
21:0:0
     RDKit          3D

 92100  0  0  1  0  0  0  0  0999 V2000
  -29.3910  -22.2990   18.5860 C   0  0  0  0  0  3  0  0  0  0  0  0
  -29.4610  -23.5250   17.8840 C   0  0  0  0  0  0  0  0  0  0  0  0
  -28.8710  -22.1910   19.8830 C   0  0  0  0  0  0  0  0  0  0  0  0
  -29.0140  -24.7670   18.4320 C   0  0  0  0  0  0  0  0  0  0  0  0
  -28.4640  -23.5160   20.4620 C   0  0  0  0  0  0  0  0  0  0  0  0
  -28.4980  -24.8490   19.7550 C   0  0  0  0  0  0  0  0  0  0  0  0
  -30.0430  -23.4660   16.4810 C   0  0  0  0  0  1  0  0  0  0  0  0
  -29.1210  -26.0400   17.5790 C   0  0  0  0  0  1  0  0  0  0  0  0
  -28.0110  -23.5120   21.9070 C   0  0  0  0  0  1  0  0  0  0  0  0
  -28.2970  -26.2200   20.2800 O   0  0  0  0  0  0  0  0  0  0  0  0
  -24.6440  -31.8810   23.1910 C   0  0  0  0  0  0  0  0  0  0  0  0
  -27.2190  -27.1800   20.1300 C   0  0  0  0  0  0  0  0  0  0  0  0
  -23.4310  -30.4890   21.5600 C   0  0  0  0  0  3  0  0  0  0  0  0
  -24.8690  -28.9140   20.1050 C   0  0  0  0  0  0  0  0  0  0  0  0
  -25.9740  -30.7660   21.3520 C   0  0  0  0  0  2  0  0  0  0  0  0
  -26.0450  -29.3680   20.7130 C   0  0  0  0  0  0  0  0  0  0  0  0
  -27.2080  -28.5100   20.7230 C   0  0  0  0  0  3  0  0  0  0  0  0
  -26.0270  -26.8390   19.4520 C   0  0  0  0  0  3  0  0  0  0  0  0
  -24.8720  -27.6640   19.4610 C   0  0  0  0  0  3  0  0  0  0  0  0
  -23.6310  -29.8020   20.1780 C   0  0  0  0  0  2  0  0  0  0  0  0
  -24.7050  -31.0720   22.0880 N   0  0  0  0  0  0  0  0  0  0  0  0
  -23.5670  -32.1510   23.7400 O   0  0  0  0  0  0  0  0  0  0  0  0
  -22.7740  -29.4800   22.5340 C   0  0  0  0  0  0  0  0  0  0  0  0
  -21.4490  -29.2890   22.4160 N   0  0  0  0  0  0  0  0  0  0  0  0
  -23.4570  -28.8660   23.3590 O   0  0  0  0  0  0  0  0  0  0  0  0
  -20.9480  -29.8380   21.7300 H   0  0  0  0  0  0  0  0  0  0  0  0
  -18.0980  -28.0300   22.9340 C   0  0  0  0  0  0  0  0  0  0  0  0
  -20.6500  -28.3420   23.1940 C   0  0  0  0  0  3  0  0  0  0  0  0
  -20.7770  -26.9060   22.6300 C   0  0  0  0  0  2  0  0  0  0  0  0
  -19.6800  -26.5580   21.6180 C   0  0  0  0  0  2  0  0  0  0  0  0
  -18.2980  -26.6830   22.2630 C   0  0  0  0  0  2  0  0  0  0  0  0
  -19.2000  -28.8170   23.3560 C   0  0  0  0  0  0  0  0  0  0  0  0
  -18.9560  -30.0800   23.9390 C   0  0  0  0  0  3  0  0  0  0  0  0
  -17.6400  -30.5520   24.1070 C   0  0  0  0  0  3  0  0  0  0  0  0
  -16.5520  -29.7620   23.6960 C   0  0  0  0  0  3  0  0  0  0  0  0
  -16.7820  -28.5030   23.1160 C   0  0  0  0  0  3  0  0  0  0  0  0
  -25.9280  -32.5240   23.8000 C   0  0  0  0  0  3  0  0  0  0  0  0
  -26.4560  -31.7610   25.0780 C   0  0  1  0  0  0  0  0  0  0  0  0
  -25.3800  -31.5230   26.1640 C   0  0  0  0  0  1  0  0  0  0  0  0
  -27.0360  -30.3860   24.6770 C   0  0  0  0  0  1  0  0  0  0  0  0
  -27.6050  -32.5660   25.7310 C   0  0  0  0  0  1  0  0  0  0  0  0
  -25.6080  -33.9210   24.1400 N   0  0  0  0  0  0  0  0  0  0  0  0
  -25.9330  -34.9860   23.3920 C   0  0  0  0  0  0  0  0  0  0  0  0
  -26.5970  -34.8950   22.3560 O   0  0  0  0  0  0  0  0  0  0  0  0
  -25.0100  -34.0620   24.9410 H   0  0  0  0  0  0  0  0  0  0  0  0
  -24.1990  -36.7870   23.0730 C   0  0  0  0  0  1  0  0  0  0  0  0
  -25.4440  -36.3680   23.8700 C   0  0  0  0  0  3  0  0  0  0  0  0
  -27.5770  -37.2570   24.7030 C   0  0  0  0  0  1  0  0  0  0  0  0
  -26.4690  -37.4300   23.7680 N   0  0  0  0  0  0  0  0  0  0  0  0
  -26.0510  -38.3410   23.9330 H   0  0  0  0  0  0  0  0  0  0  0  0
  -28.6100  -20.6190   20.3920 C   0  0  0  0  0  2  0  0  0  0  0  0
  -29.6370  -19.2500   20.4620 C   0  0  0  0  0  2  0  0  0  0  0  0
  -28.9140  -17.5280   18.6230 C   0  0  0  0  0  1  0  0  0  0  0  0
  -29.1400  -17.6470   20.1310 C   0  0  0  0  0  0  0  0  0  0  0  0
  -30.4110  -15.0850   20.2940 C   0  0  0  0  0  0  0  0  0  0  0  0
  -30.3420  -12.7190   19.3490 C   0  0  0  0  0  2  0  0  0  0  0  0
  -29.4100  -12.6850   18.1130 C   0  0  0  0  0  2  0  0  0  0  0  0
  -27.9550  -12.4420   18.5480 C   0  0  0  0  0  2  0  0  0  0  0  0
  -27.5470  -13.3480   19.7380 C   0  0  0  0  0  3  0  0  0  0  0  0
  -28.5980  -13.3640   20.8690 C   0  0  0  0  0  2  0  0  0  0  0  0
  -29.8730  -13.7930   20.2810 N   0  0  0  0  0  0  0  0  0  0  0  0
  -31.5560  -15.2130   19.8450 O   0  0  0  0  0  0  0  0  0  0  0  0
  -29.6070  -16.2100   20.6790 N   0  0  0  0  0  4  0  0  0  0  0  0
  -28.8690  -15.8500   21.2700 H   0  0  0  0  0  0  0  0  0  0  0  0
  -25.1670  -13.8970   20.4890 C   0  0  0  0  0  0  0  0  0  0  0  0
  -24.1160  -13.1120   20.8650 C   0  0  0  0  0  0  0  0  0  0  0  0
  -24.5960  -11.7650   20.8320 C   0  0  0  0  0  0  0  0  0  0  0  0
  -26.2180  -13.0320   20.2420 N   0  0  0  0  0  0  0  0  0  0  0  0
  -25.8850  -11.7450   20.5120 N   0  0  0  0  0  0  0  0  0  0  0  0
  -23.8880  -10.4980   21.0290 C   0  0  0  0  0  0  0  0  0  0  0  0
  -24.3340   -9.5410   21.9700 C   0  0  0  0  0  3  0  0  0  0  0  0
  -23.6240   -8.3370   22.1570 C   0  0  0  0  0  3  0  0  0  0  0  0
  -22.4540   -8.0780   21.4030 C   0  0  0  0  0  0  0  0  0  0  0  0
  -22.0270   -9.0220   20.4530 C   0  0  0  0  0  3  0  0  0  0  0  0
  -22.7370  -10.2190   20.2660 C   0  0  0  0  0  3  0  0  0  0  0  0
  -21.7140   -6.9250   21.4960 O   0  0  0  0  0  0  0  0  0  0  0  0
  -21.6640   -6.1930   22.6550 C   0  0  0  0  0  0  0  0  0  0  0  0
  -21.2060   -6.7490   23.8680 C   0  0  0  0  0  3  0  0  0  0  0  0
  -21.1080   -5.9430   25.0210 C   0  0  0  0  0  3  0  0  0  0  0  0
  -21.4570   -4.5800   24.9570 C   0  0  0  0  0  0  0  0  0  0  0  0
  -21.9060   -4.0220   23.7490 C   0  0  0  0  0  3  0  0  0  0  0  0
  -22.0090   -4.8260   22.6000 C   0  0  0  0  0  0  0  0  0  0  0  0
  -22.4230   -4.2800   21.4310 F   0  0  0  0  0  0  0  0  0  0  0  0
  -21.3560   -3.8030   26.0610 F   0  0  0  0  0  0  0  0  0  0  0  0
  -22.7180  -13.5720   21.1490 C   0  0  0  0  0  0  0  0  0  0  0  0
  -22.0040  -12.8660   22.0150 N   0  0  0  0  0  0  0  0  0  0  0  0
  -22.2710  -14.6000   20.6370 O   0  0  0  0  0  0  0  0  0  0  0  0
  -22.3840  -12.0350   22.4460 H   0  0  0  0  0  0  0  0  0  0  0  0
  -21.0680  -13.1560   22.2530 H   0  0  0  0  0  0  0  0  0  0  0  0
  -25.3120  -15.2720   20.3160 N   0  0  0  0  0  0  0  0  0  0  0  0
  -24.5190  -15.9000   20.4060 H   0  0  0  0  0  0  0  0  0  0  0  0
  -26.1610  -15.7410   20.0240 H   0  0  0  0  0  0  0  0  0  0  0  0
  1  3  1  0
  2  4  1  0
  2  1  2  0
  3 51  1  0
  3  5  2  0
  4  6  2  0
  5  9  1  0
  6 10  1  0
  6  5  1  0
  7  2  1  0
  8  4  1  0
 11 22  2  0
 12 10  1  0
 12 17  1  0
 13 21  1  0
 13 23  1  0
 14 20  1  0
 14 16  1  0
 15 21  1  0
 16 17  2  0
 16 15  1  0
 18 19  1  0
 18 12  2  0
 19 14  2  0
 20 13  1  0
 21 11  1  0
 23 25  2  0
 24 23  1  0
 26 24  1  0
 27 36  2  0
 27 32  1  0
 28 24  1  0
 28 32  1  0
 29 28  1  0
 30 31  1  0
 30 29  1  0
 31 27  1  0
 32 33  2  0
 33 34  1  0
 35 34  2  0
 36 35  1  0
 37 11  1  0
 37 42  1  0
 37 38  1  0
 38 41  1  1
 38 39  1  0
 40 38  1  0
 42 45  1  0
 43 47  1  0
 43 42  1  0
 44 43  2  0
 47 46  1  0
 49 47  1  0
 49 50  1  0
 49 48  1  0
 51 52  1  0
 53 54  1  0
 54 52  1  0
 54 63  2  3
 55 63  1  0
 56 61  1  0
 57 58  1  0
 57 56  1  0
 59 58  1  0
 59 68  1  0
 59 60  1  0
 61 55  1  0
 61 60  1  0
 62 55  2  0
 63 64  1  0
 65 66  2  0
 66 85  1  0
 67 66  1  0
 67 70  1  0
 68 65  1  0
 68 69  1  0
 69 67  2  0
 70 71  1  0
 71 72  2  0
 73 76  1  0
 73 72  1  0
 74 73  2  0
 75 74  1  0
 75 70  2  0
 76 77  1  0
 77 78  1  0
 78 79  2  0
 80 79  1  0
 80 84  1  0
 81 80  2  0
 82 77  2  0
 82 81  1  0
 83 82  1  0
 85 86  1  0
 86 89  1  0
 86 88  1  0
 87 85  2  0
 90 91  1  0
 90 65  1  0
 92 90  1  0
M  ISO  4   6 101  10 101  55 100  63 100
M  END
>  <TORSDO>  (22) 
F 19

>  <SCORE>  (22) 
-15.321

>  <name>  (22) 
21

>  <ligand_id>  (22) 
21

>  <original_smiles>  (22) 
[H]c1c([H])c([H])c2c(c1[H])C([H])([H])C([H])([H])C([H])([H])C2([H])N([H])C(=O)C1([H])N(C(=O)C([H])(N([H])C(=O)C([H])(N([H])C([H])([H])[H])C([H])([H])[H])C(C([H])([H])[H])(C([H])([H])[H])C([H])([H])[H])C([H])([H])c2c([H])c(Oc3c(C([H])([H])[H])c(C([H])([H])[H])c([H])c(C([H])([H])C([H])([H])C([H])(N([H])C(=O)N4C([H])([H])C([H])([H])C([H])([H])C([H])(n5nc(-c6c([H])c([H])c(Oc7c([H])c([H])c(F)c([H])c7F)c([H])c6[H])c(C(=O)N([H])[H])c5N([H])[H])C4([H])[H])C([H])([H])[H])c3C([H])([H])[H])c([H])c([H])c2C1([H])[H]

>  <smiles>  (22) 
[H]c1c([H])c([H])c2c(c1[H])C([H])([H])C([H])([H])C([H])([H])C2([H])N([H])C(=O)C1([H])N(C(=O)C([H])(N([H])C(=O)C([H])(N([H])C([H])([H])[H])C([H])([H])[H])C(C([H])([H])[H])(C([H])([H])[H])C([H])([H])[H])C([H])([H])c2c([H])c(Oc3c(C([H])([H])[H])c(C([H])([H])[H])c([H])c(C([H])([H])C([H])([H])C([H])(N([H])C(=O)N4C([H])([H])C([H])([H])C([H])([H])C([H])(n5nc(-c6c([H])c([H])c(Oc7c([H])c([H])c(F)c([H])c7F)c([H])c6[H])c(C(=O)N([H])[H])c5N([H])[H])C4([H])[H])C([H])([H])[H])c3C([H])([H])[H])c([H])c([H])c2C1([H])[H]

$$$$
22:0:0
     RDKit          3D

 97105  0  0  1  0  0  0  0  0999 V2000
  -27.8210  -23.1730   21.1330 C   0  0  0  0  0  3  0  0  0  0  0  0
  -27.5720  -24.5190   20.7650 C   0  0  0  0  0  3  0  0  0  0  0  0
  -29.8860  -24.7550   20.1230 C   0  0  0  0  0  3  0  0  0  0  0  0
  -29.0950  -22.5840   20.9700 C   0  0  0  0  0  0  0  0  0  0  0  0
  -30.1580  -23.4190   20.5250 C   0  0  0  0  0  0  0  0  0  0  0  0
  -28.5880  -25.3210   20.1850 C   0  0  0  0  0  0  0  0  0  0  0  0
  -28.4010  -26.5880   19.6170 O   0  0  0  0  0  0  0  0  0  0  0  0
  -24.6600  -31.6020   23.0330 C   0  0  0  0  0  0  0  0  0  0  0  0
  -27.2200  -27.3080   19.6870 C   0  0  0  0  0  0  0  0  0  0  0  0
  -23.4060  -30.2620   21.3710 C   0  0  0  0  0  3  0  0  0  0  0  0
  -24.8210  -28.8220   19.8010 C   0  0  0  0  0  0  0  0  0  0  0  0
  -25.9130  -30.6620   21.0940 C   0  0  0  0  0  2  0  0  0  0  0  0
  -25.9860  -29.3130   20.4020 C   0  0  0  0  0  0  0  0  0  0  0  0
  -27.1830  -28.5570   20.3550 C   0  0  0  0  0  3  0  0  0  0  0  0
  -26.0530  -26.8680   19.0260 C   0  0  0  0  0  3  0  0  0  0  0  0
  -24.8540  -27.6080   19.0920 C   0  0  0  0  0  3  0  0  0  0  0  0
  -23.5720  -29.6630   19.9450 C   0  0  0  0  0  2  0  0  0  0  0  0
  -24.6780  -30.8570   21.8920 N   0  0  0  0  0  0  0  0  0  0  0  0
  -23.5990  -31.8300   23.6310 O   0  0  0  0  0  0  0  0  0  0  0  0
  -22.8080  -29.1860   22.3080 C   0  0  0  0  0  0  0  0  0  0  0  0
  -21.4830  -28.9800   22.2190 N   0  0  0  0  0  0  0  0  0  0  0  0
  -23.5340  -28.5400   23.0680 O   0  0  0  0  0  0  0  0  0  0  0  0
  -20.9600  -29.5550   21.5720 H   0  0  0  0  0  0  0  0  0  0  0  0
  -18.1640  -27.6240   22.7120 C   0  0  0  0  0  0  0  0  0  0  0  0
  -20.7110  -27.9900   22.9720 C   0  0  0  0  0  3  0  0  0  0  0  0
  -20.8750  -26.5810   22.3590 C   0  0  0  0  0  2  0  0  0  0  0  0
  -19.7810  -26.2330   21.3470 C   0  0  0  0  0  2  0  0  0  0  0  0
  -18.3980  -26.2980   22.0040 C   0  0  0  0  0  2  0  0  0  0  0  0
  -19.2520  -28.4250   23.1510 C   0  0  0  0  0  0  0  0  0  0  0  0
  -18.9830  -29.6620   23.7770 C   0  0  0  0  0  3  0  0  0  0  0  0
  -17.6580  -30.1010   23.9620 C   0  0  0  0  0  3  0  0  0  0  0  0
  -16.5850  -29.2990   23.5360 C   0  0  0  0  0  3  0  0  0  0  0  0
  -16.8390  -28.0620   22.9190 C   0  0  0  0  0  3  0  0  0  0  0  0
  -25.9630  -32.2250   23.6280 C   0  0  0  0  0  3  0  0  0  0  0  0
  -25.6460  -33.5940   24.0600 N   0  0  0  0  0  0  0  0  0  0  0  0
  -25.9540  -34.6980   23.3670 C   0  0  0  0  0  0  0  0  0  0  0  0
  -26.6010  -34.6710   22.3170 O   0  0  0  0  0  0  0  0  0  0  0  0
  -25.0700  -33.6860   24.8830 H   0  0  0  0  0  0  0  0  0  0  0  0
  -24.2010  -36.4900   23.1660 C   0  0  0  0  0  1  0  0  0  0  0  0
  -25.4620  -36.0460   23.9250 C   0  0  0  0  0  3  0  0  0  0  0  0
  -27.6060  -36.8960   24.7680 C   0  0  0  0  0  1  0  0  0  0  0  0
  -26.4820  -37.1160   23.8620 N   0  0  0  0  0  0  0  0  0  0  0  0
  -26.0710  -38.0200   24.0830 H   0  0  0  0  0  0  0  0  0  0  0  0
  -26.5600  -31.3840   24.8220 C   0  0  1  0  0  0  0  0  0  0  0  0
  -25.5330  -31.0680   25.9350 C   0  0  0  0  0  1  0  0  0  0  0  0
  -27.1300  -30.0400   24.3110 C   0  0  0  0  0  1  0  0  0  0  0  0
  -27.7430  -32.1490   25.4590 C   0  0  0  0  0  1  0  0  0  0  0  0
  -29.2490  -21.0520   21.1110 C   0  0  0  0  0  2  0  0  0  0  0  0
  -29.9910  -20.4750   22.3410 C   0  0  0  0  0  2  0  0  0  0  0  0
  -30.8510  -19.2080   22.0230 C   0  0  0  0  0  2  0  0  0  0  0  0
  -30.1390  -17.9250   21.4910 C   0  0  0  0  0  2  0  0  0  0  0  0
  -31.1400  -16.8440   20.9680 C   0  0  0  0  0  2  0  0  0  0  0  0
  -31.1690  -14.4700   20.1120 C   0  0  0  0  0  0  0  0  0  0  0  0
  -30.8380  -12.2120   19.1240 C   0  0  0  0  0  2  0  0  0  0  0  0
  -29.8790  -12.2940   17.9170 C   0  0  0  0  0  2  0  0  0  0  0  0
  -28.4120  -12.2050   18.3820 C   0  0  0  0  0  2  0  0  0  0  0  0
  -28.1000  -13.1690   19.5600 C   0  0  0  0  0  3  0  0  0  0  0  0
  -29.1620  -13.0360   20.6690 C   0  0  0  0  0  2  0  0  0  0  0  0
  -30.4820  -13.2930   20.0630 N   0  0  0  0  0  0  0  0  0  0  0  0
  -32.2560  -14.6220   19.5430 O   0  0  0  0  0  0  0  0  0  0  0  0
  -30.5660  -15.4910   20.7630 N   0  0  0  0  0  0  0  0  0  0  0  0
  -29.6670  -15.2790   21.1800 H   0  0  0  0  0  0  0  0  0  0  0  0
  -25.7700  -13.9010   20.3730 C   0  0  0  0  0  0  0  0  0  0  0  0
  -24.6690  -13.1830   20.7650 C   0  0  0  0  0  0  0  0  0  0  0  0
  -25.0520  -11.8080   20.7000 C   0  0  0  0  0  0  0  0  0  0  0  0
  -26.7500  -12.9640   20.0820 N   0  0  0  0  0  0  0  0  0  0  0  0
  -26.3260  -11.7000   20.3420 N   0  0  0  0  0  0  0  0  0  0  0  0
  -24.2680  -10.5820   20.9100 C   0  0  0  0  0  0  0  0  0  0  0  0
  -24.6600   -9.6020   21.8520 C   0  0  0  0  0  3  0  0  0  0  0  0
  -23.8780   -8.4420   22.0440 C   0  0  0  0  0  3  0  0  0  0  0  0
  -22.6900   -8.2570   21.2980 C   0  0  0  0  0  0  0  0  0  0  0  0
  -22.3150   -9.2240   20.3500 C   0  0  0  0  0  3  0  0  0  0  0  0
  -23.0970  -10.3740   20.1520 C   0  0  0  0  0  3  0  0  0  0  0  0
  -21.8820   -7.1510   21.4000 O   0  0  0  0  0  0  0  0  0  0  0  0
  -21.7730   -6.4440   22.5710 C   0  0  0  0  0  0  0  0  0  0  0  0
  -21.3350   -7.0480   23.7690 C   0  0  0  0  0  3  0  0  0  0  0  0
  -21.1720   -6.2710   24.9330 C   0  0  0  0  0  3  0  0  0  0  0  0
  -21.4360   -4.8880   24.9000 C   0  0  0  0  0  0  0  0  0  0  0  0
  -21.8720   -4.2850   23.7080 C   0  0  0  0  0  3  0  0  0  0  0  0
  -22.0360   -5.0590   22.5450 C   0  0  0  0  0  0  0  0  0  0  0  0
  -22.4360   -4.4680   21.3950 F   0  0  0  0  0  0  0  0  0  0  0  0
  -21.2780   -4.1370   26.0160 F   0  0  0  0  0  0  0  0  0  0  0  0
  -23.3130  -13.7370   21.1000 C   0  0  0  0  0  0  0  0  0  0  0  0
  -22.5890  -13.0820   22.0020 N   0  0  0  0  0  0  0  0  0  0  0  0
  -22.9060  -14.7820   20.5970 O   0  0  0  0  0  0  0  0  0  0  0  0
  -22.9310  -12.2370   22.4330 H   0  0  0  0  0  0  0  0  0  0  0  0
  -21.6790  -13.4300   22.2690 H   0  0  0  0  0  0  0  0  0  0  0  0
  -26.0120  -15.2600   20.2290 N   0  0  0  0  0  0  0  0  0  0  0  0
  -25.3190  -15.9650   20.4520 H   0  0  0  0  0  0  0  0  0  0  0  0
  -26.9090  -15.6470   19.9580 H   0  0  0  0  0  0  0  0  0  0  0  0
  -31.5980  -22.9160   20.4520 C   0  0  0  0  0  2  0  0  0  0  0  0
  -31.9870  -22.3040   19.0970 C   0  0  0  0  0  2  0  0  0  0  0  0
  -33.4800  -21.9750   19.0410 C   0  0  0  0  0  0  0  0  0  0  0  0
  -33.8360  -20.7100   18.8540 N   0  0  0  0  0  0  0  0  0  0  0  0
  -34.3260  -22.8600   19.1690 O   0  0  0  0  0  0  0  0  0  0  0  0
  -33.1390  -19.9800   18.8140 H   0  0  0  0  0  0  0  0  0  0  0  0
  -34.8110  -20.4650   18.7590 H   0  0  0  0  0  0  0  0  0  0  0  0
  2  1  2  0
  3  6  2  0
  3  5  1  0
  4 48  1  0
  4  1  1  0
  5  4  2  0
  6  2  1  0
  7  9  1  0
  7  6  1  0
  8 19  2  0
  9 14  1  0
 10 18  1  0
 10 20  1  0
 11 17  1  0
 11 13  1  0
 12 18  1  0
 13 12  1  0
 14 13  2  0
 15 16  1  0
 15  9  2  0
 16 11  2  0
 17 10  1  0
 18  8  1  0
 20 22  2  0
 21 20  1  0
 23 21  1  0
 24 33  2  0
 24 29  1  0
 25 21  1  0
 25 29  1  0
 26 25  1  0
 27 28  1  0
 27 26  1  0
 28 24  1  0
 29 30  2  0
 30 31  1  0
 32 31  2  0
 33 32  1  0
 34  8  1  0
 34 35  1  0
 34 44  1  0
 35 38  1  0
 36 40  1  0
 36 35  1  0
 37 36  2  0
 40 39  1  0
 42 40  1  0
 42 43  1  0
 42 41  1  0
 44 47  1  1
 44 45  1  0
 46 44  1  0
 48 49  1  0
 50 49  1  0
 51 50  1  0
 52 51  1  0
 53 61  1  0
 54 59  1  0
 55 56  1  0
 55 54  1  0
 57 56  1  0
 57 66  1  0
 57 58  1  0
 59 53  1  0
 59 58  1  0
 60 53  2  0
 61 52  1  0
 61 62  1  0
 63 64  2  0
 64 83  1  0
 65 64  1  0
 65 68  1  0
 66 67  1  0
 66 63  1  0
 67 65  2  0
 68 69  1  0
 69 70  2  0
 71 74  1  0
 71 70  1  0
 72 71  2  0
 73 72  1  0
 73 68  2  0
 74 75  1  0
 75 76  1  0
 76 77  2  0
 78 77  1  0
 78 82  1  0
 79 78  2  0
 80 75  2  0
 80 79  1  0
 81 80  1  0
 83 84  1  0
 84 87  1  0
 84 86  1  0
 85 83  2  0
 88 63  1  0
 88 89  1  0
 90 88  1  0
 91  5  1  0
 92 91  1  0
 93 92  1  0
 93 95  2  0
 94 93  1  0
 96 94  1  0
 97 94  1  0
M  ISO  4   6 101   7 101  53 100  61 100
M  END
>  <TORSDO>  (23) 
F 24

>  <SCORE>  (23) 
-11.645

>  <name>  (23) 
22

>  <ligand_id>  (23) 
22

>  <original_smiles>  (23) 
[H]c1c([H])c([H])c2c(c1[H])C([H])([H])C([H])([H])C([H])([H])C2([H])N([H])C(=O)C1([H])N(C(=O)C([H])(N([H])C(=O)C([H])(N([H])C([H])([H])[H])C([H])([H])[H])C(C([H])([H])[H])(C([H])([H])[H])C([H])([H])[H])C([H])([H])c2c([H])c(Oc3c([H])c([H])c(C([H])([H])C([H])([H])C([H])([H])C([H])([H])C([H])([H])N([H])C(=O)N4C([H])([H])C([H])([H])C([H])([H])C([H])(n5nc(-c6c([H])c([H])c(Oc7c([H])c([H])c(F)c([H])c7F)c([H])c6[H])c(C(=O)N([H])[H])c5N([H])[H])C4([H])[H])c(C([H])([H])C([H])([H])C(=O)N([H])[H])c3[H])c([H])c([H])c2C1([H])[H]

>  <smiles>  (23) 
[H]c1c([H])c([H])c2c(c1[H])C([H])([H])C([H])([H])C([H])([H])C2([H])N([H])C(=O)C1([H])N(C(=O)C([H])(N([H])C(=O)C([H])(N([H])C([H])([H])[H])C([H])([H])[H])C(C([H])([H])[H])(C([H])([H])[H])C([H])([H])[H])C([H])([H])c2c([H])c(Oc3c([H])c([H])c(C([H])([H])C([H])([H])C([H])([H])C([H])([H])C([H])([H])N([H])C(=O)N4C([H])([H])C([H])([H])C([H])([H])C([H])(n5nc(-c6c([H])c([H])c(Oc7c([H])c([H])c(F)c([H])c7F)c([H])c6[H])c(C(=O)N([H])[H])c5N([H])[H])C4([H])[H])c(C([H])([H])C([H])([H])C(=O)N([H])[H])c3[H])c([H])c([H])c2C1([H])[H]

$$$$
23:0:0
     RDKit          3D

 91 99  0  0  1  0  0  0  0  0999 V2000
  -28.6820  -23.5300   20.4560 C   0  0  0  0  0  3  0  0  0  0  0  0
  -28.4560  -23.4400   17.7250 C   0  0  0  0  0  3  0  0  0  0  0  0
  -28.8830  -22.1870   19.8140 C   0  0  0  0  0  0  0  0  0  0  0  0
  -28.3570  -24.8260   19.7750 C   0  0  0  0  0  0  0  0  0  0  0  0
  -28.7680  -22.2270   18.4010 C   0  0  0  0  0  0  0  0  0  0  0  0
  -28.2750  -24.6840   18.3700 C   0  0  0  0  0  0  0  0  0  0  0  0
  -28.0540  -25.7720   17.5920 F   0  0  0  0  0  0  0  0  0  0  0  0
  -29.7540  -21.1780   16.4930 C   0  0  0  0  0  1  0  0  0  0  0  0
  -29.0010  -21.0660   17.6980 O   0  0  0  0  0  0  0  0  0  0  0  0
  -28.2990  -26.2030   20.3090 O   0  0  0  0  0  0  0  0  0  0  0  0
  -24.5940  -31.8930   23.2320 C   0  0  0  0  0  0  0  0  0  0  0  0
  -27.2250  -27.1750   20.2160 C   0  0  0  0  0  0  0  0  0  0  0  0
  -23.4140  -30.4830   21.5930 C   0  0  0  0  0  3  0  0  0  0  0  0
  -24.8810  -28.9140   20.1810 C   0  0  0  0  0  0  0  0  0  0  0  0
  -25.9690  -30.7660   21.4380 C   0  0  0  0  0  2  0  0  0  0  0  0
  -26.0560  -29.3690   20.7920 C   0  0  0  0  0  0  0  0  0  0  0  0
  -27.2240  -28.5150   20.7920 C   0  0  0  0  0  3  0  0  0  0  0  0
  -26.0110  -26.8200   19.5870 C   0  0  0  0  0  3  0  0  0  0  0  0
  -24.8720  -27.6550   19.5610 C   0  0  0  0  0  3  0  0  0  0  0  0
  -23.6470  -29.8020   20.2190 C   0  0  0  0  0  2  0  0  0  0  0  0
  -24.6810  -31.0680   22.1440 N   0  0  0  0  0  0  0  0  0  0  0  0
  -23.5020  -32.1740   23.7490 O   0  0  0  0  0  0  0  0  0  0  0  0
  -22.7360  -29.4770   22.5560 C   0  0  0  0  0  0  0  0  0  0  0  0
  -21.4090  -29.2980   22.4220 N   0  0  0  0  0  0  0  0  0  0  0  0
  -23.4050  -28.8610   23.3890 O   0  0  0  0  0  0  0  0  0  0  0  0
  -20.9260  -29.8460   21.7250 H   0  0  0  0  0  0  0  0  0  0  0  0
  -18.0340  -28.0740   22.9090 C   0  0  0  0  0  0  0  0  0  0  0  0
  -20.5900  -28.3580   23.1930 C   0  0  0  0  0  3  0  0  0  0  0  0
  -20.7080  -26.9260   22.6230 C   0  0  0  0  0  2  0  0  0  0  0  0
  -19.6150  -26.5890   21.6030 C   0  0  0  0  0  2  0  0  0  0  0  0
  -18.2270  -26.7230   22.2370 C   0  0  0  0  0  2  0  0  0  0  0  0
  -19.1440  -28.8470   23.3430 C   0  0  0  0  0  0  0  0  0  0  0  0
  -18.9090  -30.1090   23.9310 C   0  0  0  0  0  3  0  0  0  0  0  0
  -17.5970  -30.5970   24.0910 C   0  0  0  0  0  3  0  0  0  0  0  0
  -16.5040  -29.8200   23.6720 C   0  0  0  0  0  3  0  0  0  0  0  0
  -16.7230  -28.5610   23.0850 C   0  0  0  0  0  3  0  0  0  0  0  0
  -25.8620  -32.5440   23.8670 C   0  0  0  0  0  3  0  0  0  0  0  0
  -26.3670  -31.7870   25.1580 C   0  0  1  0  0  0  0  0  0  0  0  0
  -25.2610  -31.5460   26.2120 C   0  0  0  0  0  1  0  0  0  0  0  0
  -26.9660  -30.4120   24.7880 C   0  0  0  0  0  1  0  0  0  0  0  0
  -27.5060  -32.5930   25.8260 C   0  0  0  0  0  1  0  0  0  0  0  0
  -25.5350  -33.9440   24.1890 N   0  0  0  0  0  0  0  0  0  0  0  0
  -25.8730  -35.0010   23.4400 C   0  0  0  0  0  0  0  0  0  0  0  0
  -26.5580  -34.9000   22.4190 O   0  0  0  0  0  0  0  0  0  0  0  0
  -24.9220  -34.0940   24.9770 H   0  0  0  0  0  0  0  0  0  0  0  0
  -24.1510  -36.7990   23.0550 C   0  0  0  0  0  1  0  0  0  0  0  0
  -25.3710  -36.3870   23.8930 C   0  0  0  0  0  3  0  0  0  0  0  0
  -27.4790  -37.2740   24.7880 C   0  0  0  0  0  1  0  0  0  0  0  0
  -26.4040  -37.4430   23.8140 N   0  0  0  0  0  0  0  0  0  0  0  0
  -25.9920  -38.3600   23.9530 H   0  0  0  0  0  0  0  0  0  0  0  0
  -29.4100  -20.7660   20.5230 C   0  0  0  0  0  2  0  0  0  0  0  0
  -29.1120  -19.1240   20.1160 C   0  0  0  0  0  3  0  0  0  0  0  0
  -30.0950  -17.7830   20.5130 C   0  0  0  0  0  3  0  0  0  0  0  0
  -30.5030  -15.0460   20.2520 C   0  0  0  0  0  0  0  0  0  0  0  0
  -30.3630  -12.7050   19.2800 C   0  0  0  0  0  2  0  0  0  0  0  0
  -29.4100  -12.6990   18.0650 C   0  0  0  0  0  2  0  0  0  0  0  0
  -27.9600  -12.4570   18.5300 C   0  0  0  0  0  2  0  0  0  0  0  0
  -27.5740  -13.3520   19.7390 C   0  0  0  0  0  3  0  0  0  0  0  0
  -28.6580  -13.3570   20.8370 C   0  0  0  0  0  2  0  0  0  0  0  0
  -29.9060  -13.7870   20.1960 N   0  0  0  0  0  0  0  0  0  0  0  0
  -31.7070  -15.1020   19.9730 O   0  0  0  0  0  0  0  0  0  0  0  0
  -29.7290  -16.2360   20.4130 N   0  0  0  0  0  0  0  0  0  0  0  0
  -28.7470  -16.0390   20.5470 H   0  0  0  0  0  0  0  0  0  0  0  0
  -25.2070  -13.8960   20.5450 C   0  0  0  0  0  0  0  0  0  0  0  0
  -24.1610  -13.1070   20.9350 C   0  0  0  0  0  0  0  0  0  0  0  0
  -24.6390  -11.7620   20.8790 C   0  0  0  0  0  0  0  0  0  0  0  0
  -26.2540  -13.0330   20.2690 N   0  0  0  0  0  0  0  0  0  0  0  0
  -25.9230  -11.7420   20.5360 N   0  0  0  0  0  0  0  0  0  0  0  0
  -23.9270  -10.4910   21.0720 C   0  0  0  0  0  0  0  0  0  0  0  0
  -24.3810   -9.5280   22.0000 C   0  0  0  0  0  3  0  0  0  0  0  0
  -23.6730   -8.3210   22.1860 C   0  0  0  0  0  3  0  0  0  0  0  0
  -22.4930   -8.0700   21.4460 C   0  0  0  0  0  0  0  0  0  0  0  0
  -22.0560   -9.0210   20.5070 C   0  0  0  0  0  3  0  0  0  0  0  0
  -22.7650  -10.2200   20.3200 C   0  0  0  0  0  3  0  0  0  0  0  0
  -21.7540   -6.9150   21.5390 O   0  0  0  0  0  0  0  0  0  0  0  0
  -21.7150   -6.1760   22.6940 C   0  0  0  0  0  0  0  0  0  0  0  0
  -21.2600   -6.7220   23.9150 C   0  0  0  0  0  3  0  0  0  0  0  0
  -21.1750   -5.9060   25.0610 C   0  0  0  0  0  3  0  0  0  0  0  0
  -21.5280   -4.5460   24.9860 C   0  0  0  0  0  0  0  0  0  0  0  0
  -21.9750   -4.0010   23.7700 C   0  0  0  0  0  3  0  0  0  0  0  0
  -22.0650   -4.8130   22.6260 C   0  0  0  0  0  0  0  0  0  0  0  0
  -22.4740   -4.2770   21.4500 F   0  0  0  0  0  0  0  0  0  0  0  0
  -21.4400   -3.7610   26.0860 F   0  0  0  0  0  0  0  0  0  0  0  0
  -22.7650  -13.5670   21.2400 C   0  0  0  0  0  0  0  0  0  0  0  0
  -22.0590  -12.8520   22.1080 N   0  0  0  0  0  0  0  0  0  0  0  0
  -22.3080  -14.5970   20.7430 O   0  0  0  0  0  0  0  0  0  0  0  0
  -22.4410  -12.0180   22.5300 H   0  0  0  0  0  0  0  0  0  0  0  0
  -21.1220  -13.1400   22.3510 H   0  0  0  0  0  0  0  0  0  0  0  0
  -25.3480  -15.2690   20.3730 N   0  0  0  0  0  0  0  0  0  0  0  0
  -24.5660  -15.9040   20.4870 H   0  0  0  0  0  0  0  0  0  0  0  0
  -26.1670  -15.7220   19.9900 H   0  0  0  0  0  0  0  0  0  0  0  0
  2  6  2  0
  2  5  1  0
  3  1  1  0
  3 51  1  0
  4 10  1  0
  4  1  2  0
  5  3  2  0
  6  4  1  0
  7  6  1  0
  8  9  1  0
  9  5  1  0
 11 22  2  0
 12 10  1  0
 12 17  1  0
 13 21  1  0
 13 23  1  0
 14 20  1  0
 14 16  1  0
 15 21  1  0
 16 15  1  0
 17 16  2  0
 18 12  2  0
 19 18  1  0
 19 14  2  0
 20 13  1  0
 21 11  1  0
 23 25  2  0
 24 23  1  0
 26 24  1  0
 27 36  2  0
 27 32  1  0
 28 24  1  0
 28 32  1  0
 29 28  1  0
 30 31  1  0
 30 29  1  0
 31 27  1  0
 32 33  2  0
 33 34  1  0
 35 34  2  0
 36 35  1  0
 37 11  1  0
 37 42  1  0
 37 38  1  0
 38 41  1  1
 38 39  1  0
 40 38  1  0
 42 45  1  0
 43 47  1  0
 43 42  1  0
 44 43  2  0
 47 46  1  0
 49 47  1  0
 49 50  1  0
 49 48  1  0
 52 53  2  0
 52 51  1  0
 54 62  1  0
 55 60  1  0
 56 57  1  0
 56 55  1  0
 58 57  1  0
 58 67  1  0
 58 59  1  0
 60 54  1  0
 60 59  1  0
 61 54  2  0
 62 53  1  0
 62 63  1  0
 64 65  2  0
 65 84  1  0
 66 65  1  0
 66 69  1  0
 67 68  1  0
 67 64  1  0
 68 66  2  0
 69 70  1  0
 70 71  2  0
 72 75  1  0
 72 71  1  0
 73 72  2  0
 74 73  1  0
 74 69  2  0
 75 76  1  0
 76 77  1  0
 77 78  2  0
 79 78  1  0
 79 83  1  0
 80 79  2  0
 81 76  2  0
 81 80  1  0
 82 81  1  0
 84 85  1  0
 85 88  1  0
 85 87  1  0
 86 84  2  0
 89 90  1  0
 89 64  1  0
 91 89  1  0
M  ISO  4   4 101  10 101  54 100  62 100
M  END
>  <TORSDO>  (24) 
F 20

>  <SCORE>  (24) 
-15.114

>  <name>  (24) 
23

>  <ligand_id>  (24) 
23

>  <original_smiles>  (24) 
[H]c1c([H])c([H])c2c(c1[H])C([H])([H])C([H])([H])C([H])([H])C2([H])N([H])C(=O)C1([H])N(C(=O)C([H])(N([H])C(=O)C([H])(N([H])C([H])([H])[H])C([H])([H])[H])C(C([H])([H])[H])(C([H])([H])[H])C([H])([H])[H])C([H])([H])c2c([H])c(Oc3c([H])c(C([H])([H])C([H])([H])C([H])([H])N([H])C(=O)N4C([H])([H])C([H])([H])C([H])([H])C([H])(n5nc(-c6c([H])c([H])c(Oc7c([H])c([H])c(F)c([H])c7F)c([H])c6[H])c(C(=O)N([H])[H])c5N([H])[H])C4([H])[H])c(OC([H])([H])[H])c([H])c3F)c([H])c([H])c2C1([H])[H]

>  <smiles>  (24) 
[H]c1c([H])c([H])c2c(c1[H])C([H])([H])C([H])([H])C([H])([H])C2([H])N([H])C(=O)C1([H])N(C(=O)C([H])(N([H])C(=O)C([H])(N([H])C([H])([H])[H])C([H])([H])[H])C(C([H])([H])[H])(C([H])([H])[H])C([H])([H])[H])C([H])([H])c2c([H])c(Oc3c([H])c(C([H])([H])C([H])([H])C([H])([H])N([H])C(=O)N4C([H])([H])C([H])([H])C([H])([H])C([H])(n5nc(-c6c([H])c([H])c(Oc7c([H])c([H])c(F)c([H])c7F)c([H])c6[H])c(C(=O)N([H])[H])c5N([H])[H])C4([H])[H])c(OC([H])([H])[H])c([H])c3F)c([H])c([H])c2C1([H])[H]

$$$$
24:0:0
     RDKit          3D

101110  0  0  1  0  0  0  0  0999 V2000
  -24.9130  -21.9780   17.6810 C   0  0  0  0  0  3  0  0  0  0  0  0
  -24.4830  -23.2300   17.1970 C   0  0  0  0  0  3  0  0  0  0  0  0
  -27.1680  -22.8660   17.8800 C   0  0  0  0  0  3  0  0  0  0  0  0
  -26.7560  -24.1220   17.3990 C   0  0  0  0  0  0  0  0  0  0  0  0
  -26.2660  -21.8050   18.0350 C   0  0  0  0  0  0  0  0  0  0  0  0
  -25.3900  -24.2990   17.0430 C   0  0  0  0  0  0  0  0  0  0  0  0
  -24.9080  -25.5060   16.5420 N   0  0  0  0  0  0  0  0  0  0  0  0
  -24.1260  -25.4490   15.8960 H   0  0  0  0  0  0  0  0  0  0  0  0
  -25.6230  -26.1470   16.2010 H   0  0  0  0  0  0  0  0  0  0  0  0
  -27.8060  -25.1690   17.2350 C   0  0  0  0  0  0  0  0  0  0  0  0
  -27.8400  -25.9520   16.2760 O   0  0  0  0  0  0  0  0  0  0  0  0
  -28.8700  -25.2660   18.3280 C   0  0  0  0  0  2  0  0  0  0  0  0
  -29.0730  -26.7070   18.8410 C   0  0  0  0  0  2  0  0  0  0  0  0
  -28.4520  -26.9440   20.1090 O   0  0  0  0  0  0  0  0  0  0  0  0
  -24.6690  -31.9830   23.4030 C   0  0  0  0  0  0  0  0  0  0  0  0
  -27.2690  -27.6500   20.1340 C   0  0  0  0  0  0  0  0  0  0  0  0
  -23.4250  -30.6270   21.7420 C   0  0  0  0  0  3  0  0  0  0  0  0
  -24.8520  -29.1140   20.2580 C   0  0  0  0  0  0  0  0  0  0  0  0
  -25.9430  -30.9920   21.5010 C   0  0  0  0  0  2  0  0  0  0  0  0
  -26.0150  -29.6280   20.8450 C   0  0  0  0  0  0  0  0  0  0  0  0
  -27.2210  -28.8960   20.7920 C   0  0  0  0  0  3  0  0  0  0  0  0
  -26.0870  -27.1310   19.5660 C   0  0  0  0  0  3  0  0  0  0  0  0
  -24.8830  -27.8610   19.6170 C   0  0  0  0  0  3  0  0  0  0  0  0
  -23.6030  -29.9600   20.3480 C   0  0  0  0  0  2  0  0  0  0  0  0
  -24.7010  -31.2110   22.2780 N   0  0  0  0  0  0  0  0  0  0  0  0
  -23.6000  -32.2460   23.9730 O   0  0  0  0  0  0  0  0  0  0  0  0
  -22.7800  -29.5950   22.6990 C   0  0  0  0  0  0  0  0  0  0  0  0
  -21.4630  -29.3760   22.5460 N   0  0  0  0  0  0  0  0  0  0  0  0
  -23.4660  -28.9920   23.5300 O   0  0  0  0  0  0  0  0  0  0  0  0
  -20.9710  -29.9250   21.8540 H   0  0  0  0  0  0  0  0  0  0  0  0
  -18.1420  -28.0050   22.9180 C   0  0  0  0  0  0  0  0  0  0  0  0
  -20.6640  -28.4140   23.3020 C   0  0  0  0  0  3  0  0  0  0  0  0
  -20.8710  -26.9770   22.7700 C   0  0  0  0  0  2  0  0  0  0  0  0
  -19.8370  -26.5670   21.7140 C   0  0  0  0  0  2  0  0  0  0  0  0
  -18.4210  -26.6510   22.2870 C   0  0  0  0  0  2  0  0  0  0  0  0
  -19.1960  -28.8380   23.3820 C   0  0  0  0  0  0  0  0  0  0  0  0
  -18.8820  -30.0980   23.9340 C   0  0  0  0  0  3  0  0  0  0  0  0
  -17.5450  -30.5360   24.0150 C   0  0  0  0  0  3  0  0  0  0  0  0
  -16.5070  -29.7070   23.5650 C   0  0  0  0  0  3  0  0  0  0  0  0
  -16.8040  -28.4390   23.0300 C   0  0  0  0  0  3  0  0  0  0  0  0
  -25.9690  -32.5970   24.0160 C   0  0  0  0  0  3  0  0  0  0  0  0
  -25.6870  -34.0040   24.3330 N   0  0  0  0  0  0  0  0  0  0  0  0
  -26.0350  -35.0430   23.5650 C   0  0  0  0  0  0  0  0  0  0  0  0
  -26.7010  -34.9200   22.5330 O   0  0  0  0  0  0  0  0  0  0  0  0
  -25.0900  -34.1760   25.1290 H   0  0  0  0  0  0  0  0  0  0  0  0
  -24.3300  -36.8590   23.2130 C   0  0  0  0  0  1  0  0  0  0  0  0
  -25.5750  -36.4440   24.0150 C   0  0  0  0  0  3  0  0  0  0  0  0
  -27.7340  -37.2930   24.8110 C   0  0  0  0  0  1  0  0  0  0  0  0
  -26.6240  -37.4790   23.8830 N   0  0  0  0  0  0  0  0  0  0  0  0
  -26.2330  -38.4040   24.0430 H   0  0  0  0  0  0  0  0  0  0  0  0
  -26.4740  -31.8280   25.2980 C   0  0  1  0  0  0  0  0  0  0  0  0
  -25.3770  -31.6070   26.3680 C   0  0  0  0  0  1  0  0  0  0  0  0
  -27.0370  -30.4410   24.9080 C   0  0  0  0  0  1  0  0  0  0  0  0
  -27.6390  -32.6050   25.9520 C   0  0  0  0  0  1  0  0  0  0  0  0
  -26.8610  -20.5480   18.6520 C   0  0  0  0  0  2  0  0  0  0  0  0
  -26.2960  -19.1540   18.2940 C   0  0  0  0  0  2  0  0  0  0  0  0
  -28.0230  -17.2550   18.1820 C   0  0  0  0  0  3  0  0  0  0  0  0
  -27.4650  -18.2110   20.3430 C   0  0  0  0  0  3  0  0  0  0  0  0
  -29.0920  -16.5660   18.7900 C   0  0  0  0  0  3  0  0  0  0  0  0
  -28.5030  -17.4800   20.9530 C   0  0  0  0  0  3  0  0  0  0  0  0
  -27.2310  -18.1390   18.9510 C   0  0  0  0  0  0  0  0  0  0  0  0
  -29.3710  -16.6710   20.1760 C   0  0  0  0  0  0  0  0  0  0  0  0
  -30.8900  -16.2270   22.3100 C   0  0  0  0  0  1  0  0  0  0  0  0
  -31.6190  -17.4520   20.2300 C   0  0  0  0  0  1  0  0  0  0  0  0
  -30.7520  -16.2240   20.7350 C   0  0  2  0  0  0  0  0  0  0  0  0
  -31.2950  -14.8140   20.1660 C   0  0  0  0  0  0  0  0  0  0  0  0
  -31.0030  -12.4870   19.2620 C   0  0  0  0  0  2  0  0  0  0  0  0
  -30.0830  -12.4900   18.0240 C   0  0  0  0  0  2  0  0  0  0  0  0
  -28.6250  -12.2940   18.4630 C   0  0  0  0  0  2  0  0  0  0  0  0
  -28.2150  -13.2700   19.5890 C   0  0  0  0  0  3  0  0  0  0  0  0
  -29.2670  -13.3690   20.7150 C   0  0  0  0  0  2  0  0  0  0  0  0
  -30.5920  -13.6240   20.1300 N   0  0  0  0  0  0  0  0  0  0  0  0
  -32.4190  -14.8370   19.6600 O   0  0  0  0  0  0  0  0  0  0  0  0
  -25.8760  -13.9450   20.3870 C   0  0  0  0  0  0  0  0  0  0  0  0
  -24.8010  -13.2070   20.7640 C   0  0  0  0  0  0  0  0  0  0  0  0
  -25.2160  -11.8400   20.7070 C   0  0  0  0  0  0  0  0  0  0  0  0
  -26.8800  -13.0320   20.1100 N   0  0  0  0  0  0  0  0  0  0  0  0
  -26.4950  -11.7600   20.3660 N   0  0  0  0  0  0  0  0  0  0  0  0
  -24.4620  -10.6010   20.9010 C   0  0  0  0  0  0  0  0  0  0  0  0
  -24.8360   -9.6530   21.8750 C   0  0  0  0  0  3  0  0  0  0  0  0
  -24.0760   -8.4780   22.0540 C   0  0  0  0  0  3  0  0  0  0  0  0
  -22.9280   -8.2470   21.2580 C   0  0  0  0  0  0  0  0  0  0  0  0
  -22.5730   -9.1810   20.2680 C   0  0  0  0  0  3  0  0  0  0  0  0
  -23.3370  -10.3470   20.0890 C   0  0  0  0  0  3  0  0  0  0  0  0
  -22.1630   -7.1110   21.3370 O   0  0  0  0  0  0  0  0  0  0  0  0
  -21.9730   -6.4530   22.5230 C   0  0  0  0  0  0  0  0  0  0  0  0
  -21.4260   -7.0990   23.6540 C   0  0  0  0  0  3  0  0  0  0  0  0
  -21.1860   -6.3720   24.8330 C   0  0  0  0  0  3  0  0  0  0  0  0
  -21.4800   -4.9950   24.8840 C   0  0  0  0  0  0  0  0  0  0  0  0
  -22.0200   -4.3500   23.7570 C   0  0  0  0  0  3  0  0  0  0  0  0
  -22.2580   -5.0750   22.5780 C   0  0  0  0  0  0  0  0  0  0  0  0
  -22.7590   -4.4440   21.4890 F   0  0  0  0  0  0  0  0  0  0  0  0
  -21.2310   -4.2900   26.0110 F   0  0  0  0  0  0  0  0  0  0  0  0
  -23.4260  -13.7240   21.0790 C   0  0  0  0  0  0  0  0  0  0  0  0
  -22.7150  -13.0460   21.9690 N   0  0  0  0  0  0  0  0  0  0  0  0
  -23.0080  -14.7670   20.5710 O   0  0  0  0  0  0  0  0  0  0  0  0
  -23.0600  -12.1850   22.3690 H   0  0  0  0  0  0  0  0  0  0  0  0
  -21.8030  -13.3790   22.2550 H   0  0  0  0  0  0  0  0  0  0  0  0
  -26.0900  -15.3130   20.2280 N   0  0  0  0  0  0  0  0  0  0  0  0
  -25.3490  -16.0000   20.2790 H   0  0  0  0  0  0  0  0  0  0  0  0
  -26.9880  -15.7220   19.9930 H   0  0  0  0  0  0  0  0  0  0  0  0
  1  5  1  0
  2  1  2  0
  3  5  2  0
  4  3  1  0
  5 55  1  0
  6  2  1  0
  6  4  2  0
  7  6  1  0
  8  7  1  0
  9  7  1  0
 10  4  1  0
 10 12  1  0
 11 10  2  0
 12 13  1  0
 13 14  1  0
 14 16  1  0
 15 26  2  0
 16 21  1  0
 17 25  1  0
 17 27  1  0
 18 24  1  0
 18 20  1  0
 19 25  1  0
 20 19  1  0
 21 20  2  0
 22 23  1  0
 22 16  2  0
 23 18  2  0
 24 17  1  0
 25 15  1  0
 27 29  2  0
 28 27  1  0
 30 28  1  0
 31 40  2  0
 31 36  1  0
 32 28  1  0
 32 36  1  0
 33 32  1  0
 34 35  1  0
 34 33  1  0
 35 31  1  0
 36 37  2  0
 37 38  1  0
 39 38  2  0
 40 39  1  0
 41 15  1  0
 41 42  1  0
 41 51  1  0
 42 45  1  0
 43 47  1  0
 43 42  1  0
 44 43  2  0
 47 46  1  0
 49 47  1  0
 49 50  1  0
 49 48  1  0
 51 54  1  1
 51 52  1  0
 53 51  1  0
 56 55  1  0
 56 61  1  0
 57 59  2  0
 57 61  1  0
 58 60  1  0
 59 62  1  0
 61 58  2  0
 62 65  1  0
 62 60  2  0
 65 64  1  6
 65 63  1  0
 66 65  1  0
 67 72  1  0
 68 69  1  0
 68 67  1  0
 70 69  1  0
 70 77  1  0
 70 71  1  0
 72 66  1  0
 72 71  1  0
 73 66  2  0
 74 75  2  0
 75 94  1  0
 76 75  1  0
 76 79  1  0
 77 78  1  0
 77 74  1  0
 78 76  2  0
 79 80  1  0
 80 81  2  0
 82 85  1  0
 82 81  1  0
 83 82  2  0
 84 83  1  0
 84 79  2  0
 85 86  1  0
 86 91  2  0
 86 87  1  0
 87 88  2  0
 88 89  1  0
 89 93  1  0
 90 89  2  0
 91 90  1  0
 92 91  1  0
 94 95  1  0
 95 98  1  0
 95 97  1  0
 96 94  2  0
 99100  1  0
 99 74  1  0
101 99  1  0
M  ISO  4  13 101  14 101  65 100  66 100
M  END
>  <TORSDO>  (25) 
F 24

>  <SCORE>  (25) 
-11.436

>  <name>  (25) 
24

>  <ligand_id>  (25) 
24

>  <original_smiles>  (25) 
[H]c1c([H])c([H])c2c(c1[H])C([H])([H])C([H])([H])C([H])([H])C2([H])N([H])C(=O)C1([H])N(C(=O)C([H])(N([H])C(=O)C([H])(N([H])C([H])([H])[H])C([H])([H])[H])C(C([H])([H])[H])(C([H])([H])[H])C([H])([H])[H])C([H])([H])c2c([H])c(OC([H])([H])C([H])([H])C(=O)c3c([H])c(C([H])([H])C([H])([H])c4c([H])c([H])c(C(C(=O)N5C([H])([H])C([H])([H])C([H])([H])C([H])(n6nc(-c7c([H])c([H])c(Oc8c([H])c([H])c(F)c([H])c8F)c([H])c7[H])c(C(=O)N([H])[H])c6N([H])[H])C5([H])[H])(C([H])([H])[H])C([H])([H])[H])c([H])c4[H])c([H])c([H])c3N([H])[H])c([H])c([H])c2C1([H])[H]

>  <smiles>  (25) 
[H]c1c([H])c([H])c2c(c1[H])C([H])([H])C([H])([H])C([H])([H])C2([H])N([H])C(=O)C1([H])N(C(=O)C([H])(N([H])C(=O)C([H])(N([H])C([H])([H])[H])C([H])([H])[H])C(C([H])([H])[H])(C([H])([H])[H])C([H])([H])[H])C([H])([H])c2c([H])c(OC([H])([H])C([H])([H])C(=O)c3c([H])c(C([H])([H])C([H])([H])c4c([H])c([H])c(C(C(=O)N5C([H])([H])C([H])([H])C([H])([H])C([H])(n6nc(-c7c([H])c([H])c(Oc8c([H])c([H])c(F)c([H])c8F)c([H])c7[H])c(C(=O)N([H])[H])c6N([H])[H])C5([H])[H])(C([H])([H])[H])C([H])([H])[H])c([H])c4[H])c([H])c([H])c3N([H])[H])c([H])c([H])c2C1([H])[H]

$$$$
25:0:0
     RDKit          3D

103113  0  0  1  0  0  0  0  0999 V2000
  -30.5070  -24.0940   22.4850 C   0  0  0  0  0  0  0  0  0  0  0  0
  -31.2800  -23.2740   21.4700 C   0  0  0  0  0  2  0  0  0  0  0  0
  -29.8240  -24.8540   20.4240 C   0  0  0  0  0  3  0  0  0  0  0  0
  -30.4660  -23.4300   20.1490 C   0  0  2  0  0  0  0  0  0  0  0  0
  -29.6820  -24.9200   21.8640 N   0  0  0  0  0  0  0  0  0  0  0  0
  -30.6450  -24.0000   23.7040 O   0  0  0  0  0  0  0  0  0  0  0  0
  -29.0660  -25.5780   22.3220 H   0  0  0  0  0  0  0  0  0  0  0  0
  -28.5430  -25.3880   19.7280 C   0  0  0  0  0  2  0  0  0  0  0  0
  -28.5410  -26.8290   19.8820 O   0  0  0  0  0  0  0  0  0  0  0  0
  -24.3930  -31.7070   23.0050 C   0  0  0  0  0  0  0  0  0  0  0  0
  -27.3300  -27.4960   19.8520 C   0  0  0  0  0  0  0  0  0  0  0  0
  -23.2960  -30.2830   21.3080 C   0  0  0  0  0  3  0  0  0  0  0  0
  -24.8560  -28.8750   19.8620 C   0  0  0  0  0  0  0  0  0  0  0  0
  -25.7990  -30.7960   21.1540 C   0  0  0  0  0  2  0  0  0  0  0  0
  -25.9760  -29.4500   20.4760 C   0  0  0  0  0  0  0  0  0  0  0  0
  -27.2180  -28.7710   20.4590 C   0  0  0  0  0  3  0  0  0  0  0  0
  -26.1910  -26.9400   19.2300 C   0  0  0  0  0  3  0  0  0  0  0  0
  -24.9600  -27.6220   19.2350 C   0  0  0  0  0  3  0  0  0  0  0  0
  -23.5620  -29.6560   19.9150 C   0  0  0  0  0  2  0  0  0  0  0  0
  -24.5140  -30.9430   21.8820 N   0  0  0  0  0  0  0  0  0  0  0  0
  -23.2920  -31.8970   23.5390 O   0  0  0  0  0  0  0  0  0  0  0  0
  -22.6970  -29.1960   22.2310 C   0  0  0  0  0  0  0  0  0  0  0  0
  -21.3810  -28.9610   22.1050 N   0  0  0  0  0  0  0  0  0  0  0  0
  -23.4140  -28.5690   23.0150 O   0  0  0  0  0  0  0  0  0  0  0  0
  -20.8600  -29.5230   21.4460 H   0  0  0  0  0  0  0  0  0  0  0  0
  -18.0650  -27.6070   22.5820 C   0  0  0  0  0  0  0  0  0  0  0  0
  -20.6130  -27.9570   22.8420 C   0  0  0  0  0  3  0  0  0  0  0  0
  -20.7680  -26.5570   22.2040 C   0  0  0  0  0  2  0  0  0  0  0  0
  -19.6700  -26.2340   21.1860 C   0  0  0  0  0  2  0  0  0  0  0  0
  -18.2910  -26.2960   21.8460 C   0  0  0  0  0  2  0  0  0  0  0  0
  -19.1570  -28.3940   23.0360 C   0  0  0  0  0  0  0  0  0  0  0  0
  -18.8950  -29.6210   23.6830 C   0  0  0  0  0  3  0  0  0  0  0  0
  -17.5740  -30.0630   23.8790 C   0  0  0  0  0  3  0  0  0  0  0  0
  -16.4970  -29.2720   23.4440 C   0  0  0  0  0  3  0  0  0  0  0  0
  -16.7440  -28.0460   22.8010 C   0  0  0  0  0  3  0  0  0  0  0  0
  -25.6300  -32.3990   23.6610 C   0  0  0  0  0  3  0  0  0  0  0  0
  -25.2620  -33.7930   23.9370 N   0  0  0  0  0  0  0  0  0  0  0  0
  -25.5950  -34.8350   23.1640 C   0  0  0  0  0  0  0  0  0  0  0  0
  -26.3140  -34.7270   22.1670 O   0  0  0  0  0  0  0  0  0  0  0  0
  -24.6210  -33.9480   24.7020 H   0  0  0  0  0  0  0  0  0  0  0  0
  -23.8260  -36.5580   22.6840 C   0  0  0  0  0  1  0  0  0  0  0  0
  -25.0420  -36.2180   23.5600 C   0  0  0  0  0  3  0  0  0  0  0  0
  -27.1060  -37.1950   24.4610 C   0  0  0  0  0  1  0  0  0  0  0  0
  -26.0440  -37.3020   23.4650 N   0  0  0  0  0  0  0  0  0  0  0  0
  -25.6010  -38.2110   23.5700 H   0  0  0  0  0  0  0  0  0  0  0  0
  -26.1200  -31.6800   24.9780 C   0  0  1  0  0  0  0  0  0  0  0  0
  -24.9940  -31.4380   26.0100 C   0  0  0  0  0  1  0  0  0  0  0  0
  -26.7610  -30.3110   24.6470 C   0  0  0  0  0  1  0  0  0  0  0  0
  -27.2190  -32.5300   25.6600 C   0  0  0  0  0  1  0  0  0  0  0  0
  -29.4790  -22.1930   20.0360 C   0  0  0  0  0  3  0  0  0  0  0  0
  -30.1820  -20.7930   19.8650 C   0  0  0  0  0  3  0  0  0  0  0  0
  -30.2710  -18.5930   17.6700 C   0  0  0  0  0  3  0  0  0  0  0  0
  -31.3570  -16.2460   18.8850 C   0  0  0  0  0  0  0  0  0  0  0  0
  -30.0450  -18.3640   19.0340 C   0  0  0  0  0  0  0  0  0  0  0  0
  -30.5380  -17.1620   19.6390 C   0  0  0  0  0  0  0  0  0  0  0  0
  -31.1080  -17.7540   16.9300 C   0  0  0  0  0  0  0  0  0  0  0  0
  -31.7250  -16.6420   17.5490 C   0  0  0  0  0  0  0  0  0  0  0  0
  -30.2070  -16.8940   21.1070 C   0  0  0  0  0  2  0  0  0  0  0  0
  -29.8260  -18.1570   21.8970 C   0  0  0  0  0  2  0  0  0  0  0  0
  -28.7950  -19.0170   21.1540 C   0  0  0  0  0  2  0  0  0  0  0  0
  -29.3060  -19.4940   19.7840 C   0  0  0  0  0  3  0  0  0  0  0  0
  -31.3760  -18.1210   15.4770 C   0  0  0  0  0  1  0  0  0  0  0  0
  -32.8630  -15.9960   16.7530 C   0  0  0  0  0  1  0  0  0  0  0  0
  -32.0160  -15.0070   19.5130 C   0  0  0  0  0  0  0  0  0  0  0  0
  -31.5930  -12.6720   18.8970 C   0  0  0  0  0  2  0  0  0  0  0  0
  -30.5860  -12.5980   17.7270 C   0  0  0  0  0  2  0  0  0  0  0  0
  -29.1380  -12.6350   18.2290 C   0  0  0  0  0  2  0  0  0  0  0  0
  -28.8760  -13.7440   19.2810 C   0  0  0  0  0  3  0  0  0  0  0  0
  -29.9780  -13.7670   20.3560 C   0  0  0  0  0  2  0  0  0  0  0  0
  -31.2800  -13.8710   19.6880 N   0  0  0  0  0  0  0  0  0  0  0  0
  -33.2400  -14.9740   19.4160 O   0  0  0  0  0  0  0  0  0  0  0  0
  -26.6300  -14.5790   20.2070 C   0  0  0  0  0  0  0  0  0  0  0  0
  -25.4990  -13.9140   20.6000 C   0  0  0  0  0  0  0  0  0  0  0  0
  -25.7950  -12.5230   20.4780 C   0  0  0  0  0  0  0  0  0  0  0  0
  -27.5450  -13.5990   19.8640 N   0  0  0  0  0  0  0  0  0  0  0  0
  -27.0550  -12.3540   20.0990 N   0  0  0  0  0  0  0  0  0  0  0  0
  -24.9380  -11.3410   20.6400 C   0  0  0  0  0  0  0  0  0  0  0  0
  -25.3000  -10.2800   21.4980 C   0  0  0  0  0  3  0  0  0  0  0  0
  -24.4520   -9.1610   21.6510 C   0  0  0  0  0  3  0  0  0  0  0  0
  -23.2260   -9.1000   20.9450 C   0  0  0  0  0  0  0  0  0  0  0  0
  -22.8830  -10.1480   20.0720 C   0  0  0  0  0  3  0  0  0  0  0  0
  -23.7300  -11.2570   19.9170 C   0  0  0  0  0  3  0  0  0  0  0  0
  -22.3460   -8.0470   21.0180 O   0  0  0  0  0  0  0  0  0  0  0  0
  -22.1660   -7.3380   22.1790 C   0  0  0  0  0  0  0  0  0  0  0  0
  -21.7900   -7.9670   23.3870 C   0  0  0  0  0  3  0  0  0  0  0  0
  -21.5480   -7.1910   24.5390 C   0  0  0  0  0  3  0  0  0  0  0  0
  -21.6710   -5.7890   24.4820 C   0  0  0  0  0  0  0  0  0  0  0  0
  -22.0400   -5.1600   23.2810 C   0  0  0  0  0  3  0  0  0  0  0  0
  -22.2840   -5.9330   22.1320 C   0  0  0  0  0  0  0  0  0  0  0  0
  -22.6170   -5.3210   20.9700 F   0  0  0  0  0  0  0  0  0  0  0  0
  -21.4310   -5.0440   25.5860 F   0  0  0  0  0  0  0  0  0  0  0  0
  -24.1810  -14.5300   20.9730 C   0  0  0  0  0  0  0  0  0  0  0  0
  -23.4400  -13.8920   21.8730 N   0  0  0  0  0  0  0  0  0  0  0  0
  -23.8230  -15.6090   20.5020 O   0  0  0  0  0  0  0  0  0  0  0  0
  -23.7410  -13.0190   22.2780 H   0  0  0  0  0  0  0  0  0  0  0  0
  -22.5570  -14.2860   22.1640 H   0  0  0  0  0  0  0  0  0  0  0  0
  -26.9520  -15.9270   20.0840 N   0  0  0  0  0  0  0  0  0  0  0  0
  -26.2920  -16.6690   20.2880 H   0  0  0  0  0  0  0  0  0  0  0  0
  -27.8490  -16.2710   19.7610 H   0  0  0  0  0  0  0  0  0  0  0  0
  -31.4490  -23.5150   18.9400 C   0  0  0  0  0  2  0  0  0  0  0  0
  -30.8070  -23.7360   17.5550 C   0  0  0  0  0  2  0  0  0  0  0  0
  -32.5850  -24.7520   16.3310 C   0  0  0  0  0  1  0  0  0  0  0  0
  -31.7620  -23.6040   16.5080 O   0  0  0  0  0  0  0  0  0  0  0  0
  1  6  2  0
  2  1  1  0
  3  8  1  0
  3  5  1  0
  4100  1  6
  4  3  1  0
  4  2  1  0
  5  7  1  0
  5  1  1  0
  8  9  1  0
 10 21  2  0
 11  9  1  0
 11 16  1  0
 12 20  1  0
 12 22  1  0
 13 19  1  0
 13 15  1  0
 14 20  1  0
 15 14  1  0
 16 15  2  0
 17 18  1  0
 17 11  2  0
 18 13  2  0
 19 12  1  0
 20 10  1  0
 22 24  2  0
 23 22  1  0
 25 23  1  0
 26 35  2  0
 26 31  1  0
 27 23  1  0
 27 31  1  0
 28 27  1  0
 29 30  1  0
 29 28  1  0
 30 26  1  0
 31 32  2  0
 32 33  1  0
 34 33  2  0
 35 34  1  0
 36 10  1  0
 36 37  1  0
 36 46  1  0
 37 40  1  0
 38 42  1  0
 38 37  1  0
 39 38  2  0
 42 41  1  0
 44 42  1  0
 44 45  1  0
 44 43  1  0
 46 49  1  1
 46 47  1  0
 48 46  1  0
 50  4  1  0
 51 50  2  0
 52 54  1  0
 53 64  1  0
 53 55  1  0
 54 55  2  0
 54 61  1  0
 55 58  1  0
 56 57  1  0
 56 52  2  0
 57 53  2  0
 58 59  1  0
 60 59  1  0
 61 51  1  0
 61 60  1  0
 62 56  1  0
 63 57  1  0
 64 70  1  0
 65 70  1  0
 66 67  1  0
 66 65  1  0
 68 67  1  0
 68 75  1  0
 68 69  1  0
 70 69  1  0
 71 64  2  0
 72 73  2  0
 73 92  1  0
 74 73  1  0
 74 77  1  0
 75 76  1  0
 75 72  1  0
 76 74  2  0
 77 78  1  0
 78 79  2  0
 80 83  1  0
 80 79  1  0
 81 80  2  0
 82 81  1  0
 82 77  2  0
 83 84  1  0
 84 85  1  0
 85 86  2  0
 87 86  1  0
 87 91  1  0
 88 87  2  0
 89 84  2  0
 89 88  1  0
 90 89  1  0
 92 93  1  0
 93 96  1  0
 93 95  1  0
 94 92  2  0
 97 72  1  0
 97 98  1  0
 99 97  1  0
101100  1  0
102103  1  0
103101  1  0
M  ISO  4   8 101   9 101  53 100  64 100
M  END
>  <TORSDO>  (26) 
F 23

>  <SCORE>  (26) 
-8.909

>  <name>  (26) 
25

>  <ligand_id>  (26) 
25

>  <original_smiles>  (26) 
[H]c1c([H])c([H])c2c(c1[H])C([H])([H])C([H])([H])C([H])([H])C2([H])N([H])C(=O)C1([H])N(C(=O)C([H])(N([H])C(=O)C([H])(N([H])C([H])([H])[H])C([H])([H])[H])C(C([H])([H])[H])(C([H])([H])[H])C([H])([H])[H])C([H])([H])c2c([H])c(OC([H])([H])C3([H])N([H])C(=O)C([H])([H])C3(C([H])([H])C([H])([H])OC([H])([H])[H])C([H])([H])C([H])([H])C3([H])c4c([H])c(C([H])([H])[H])c(C([H])([H])[H])c(C(=O)N5C([H])([H])C([H])([H])C([H])([H])C([H])(n6nc(-c7c([H])c([H])c(Oc8c([H])c([H])c(F)c([H])c8F)c([H])c7[H])c(C(=O)N([H])[H])c6N([H])[H])C5([H])[H])c4C([H])([H])C([H])([H])C3([H])[H])c([H])c([H])c2C1([H])[H]

>  <smiles>  (26) 
[H]c1c([H])c([H])c2c(c1[H])C([H])([H])C([H])([H])C([H])([H])C2([H])N([H])C(=O)C1([H])N(C(=O)C([H])(N([H])C(=O)C([H])(N([H])C([H])([H])[H])C([H])([H])[H])C(C([H])([H])[H])(C([H])([H])[H])C([H])([H])[H])C([H])([H])c2c([H])c(OC([H])([H])C3([H])N([H])C(=O)C([H])([H])C3(C([H])([H])C([H])([H])OC([H])([H])[H])C([H])([H])C([H])([H])C3([H])c4c([H])c(C([H])([H])[H])c(C([H])([H])[H])c(C(=O)N5C([H])([H])C([H])([H])C([H])([H])C([H])(n6nc(-c7c([H])c([H])c(Oc8c([H])c([H])c(F)c([H])c8F)c([H])c7[H])c(C(=O)N([H])[H])c6N([H])[H])C5([H])[H])c4C([H])([H])C([H])([H])C3([H])[H])c([H])c([H])c2C1([H])[H]

$$$$
26:0:0
     RDKit          3D

 92 98  0  0  1  0  0  0  0  0999 V2000
  -23.1650  -27.0170   19.7810 C   0  0  0  0  0  2  0  0  0  0  0  0
  -21.5550  -26.7240   20.1290 C   0  0  0  0  0  2  0  0  0  0  0  0
  -22.5520  -23.9320   20.3550 C   0  0  0  0  0  3  0  0  0  0  0  0
  -24.0580  -24.5340   19.9980 C   0  0  0  0  0  0  0  0  0  0  0  0
  -24.4840  -26.0840   19.9850 C   0  0  0  0  0  3  0  0  0  0  0  0
  -21.1650  -24.8160   20.5940 N   0  0  0  0  0  1  0  0  0  0  0  0
  -25.1710  -23.4640   19.3770 C   0  0  0  0  0  0  0  0  0  0  0  0
  -24.7220  -22.7050   18.5080 O   0  0  0  0  0  0  0  0  0  0  0  0
  -26.8130  -23.1860   19.6640 C   0  0  0  0  0  3  0  0  0  0  0  0
  -27.8230  -22.0380   18.8150 C   0  0  0  0  0  3  0  0  0  0  0  0
  -29.5100  -21.6180   18.9460 C   0  0  0  0  0  3  0  0  0  0  0  0
  -30.3580  -20.1820   18.4260 C   0  0  0  0  0  3  0  0  0  0  0  0
  -32.0660  -19.8410   18.2830 C   0  0  0  0  0  2  0  0  0  0  0  0
  -34.1370  -17.8110   18.4620 C   0  0  0  0  0  0  0  0  0  0  0  0
  -35.1550  -15.4860   18.0770 C   0  0  0  0  0  2  0  0  0  0  0  0
  -34.3350  -14.7340   16.9980 C   0  0  0  0  0  2  0  0  0  0  0  0
  -33.0660  -14.1070   17.6090 C   0  0  0  0  0  2  0  0  0  0  0  0
  -32.3250  -15.0980   18.5410 C   0  0  0  0  0  3  0  0  0  0  0  0
  -33.2810  -15.7280   19.5600 C   0  0  0  0  0  2  0  0  0  0  0  0
  -34.2540  -16.4600   18.7640 N   0  0  0  0  0  0  0  0  0  0  0  0
  -35.1670  -18.3410   17.9950 O   0  0  0  0  0  0  0  0  0  0  0  0
  -32.8210  -18.4300   18.5630 N   0  0  0  0  0  0  0  0  0  0  0  0
  -32.1730  -17.7560   18.9400 H   0  0  0  0  0  0  0  0  0  0  0  0
  -29.9230  -15.0530   19.3820 C   0  0  0  0  0  0  0  0  0  0  0  0
  -29.2000  -14.0900   20.0220 C   0  0  0  0  0  0  0  0  0  0  0  0
  -30.0930  -12.9930   20.2250 C   0  0  0  0  0  0  0  0  0  0  0  0
  -31.1840  -14.5130   19.2100 N   0  0  0  0  0  0  0  0  0  0  0  0
  -31.3060  -13.2950   19.7860 N   0  0  0  0  0  0  0  0  0  0  0  0
  -29.8490  -11.6480   20.7510 C   0  0  0  0  0  0  0  0  0  0  0  0
  -30.8910  -10.8700   21.3020 C   0  0  0  0  0  3  0  0  0  0  0  0
  -30.6250   -9.5830   21.8160 C   0  0  0  0  0  3  0  0  0  0  0  0
  -29.3080   -9.0670   21.7850 C   0  0  0  0  0  0  0  0  0  0  0  0
  -28.2790   -9.8370   21.2150 C   0  0  0  0  0  3  0  0  0  0  0  0
  -28.5460  -11.1150   20.6990 C   0  0  0  0  0  3  0  0  0  0  0  0
  -28.9600   -7.8200   22.2420 O   0  0  0  0  0  0  0  0  0  0  0  0
  -29.8960   -6.9430   22.7260 C   0  0  0  0  0  0  0  0  0  0  0  0
  -31.1350   -7.3820   23.2390 C   0  0  0  0  0  3  0  0  0  0  0  0
  -32.0390   -6.4520   23.7900 C   0  0  0  0  0  3  0  0  0  0  0  0
  -31.7030   -5.0860   23.8360 C   0  0  0  0  0  0  0  0  0  0  0  0
  -30.4670   -4.6470   23.3300 C   0  0  0  0  0  3  0  0  0  0  0  0
  -29.5650   -5.5740   22.7780 C   0  0  0  0  0  0  0  0  0  0  0  0
  -28.3670   -5.1470   22.3110 F   0  0  0  0  0  0  0  0  0  0  0  0
  -32.5680   -4.1930   24.3720 F   0  0  0  0  0  0  0  0  0  0  0  0
  -27.7330  -14.1400   20.3320 C   0  0  0  0  0  0  0  0  0  0  0  0
  -27.3210  -13.5340   21.4390 N   0  0  0  0  0  0  0  0  0  0  0  0
  -26.9490  -14.7620   19.6140 O   0  0  0  0  0  0  0  0  0  0  0  0
  -27.9680  -13.0400   22.0350 H   0  0  0  0  0  0  0  0  0  0  0  0
  -26.3440  -13.5620   21.6910 H   0  0  0  0  0  0  0  0  0  0  0  0
  -29.6130  -16.3280   18.9110 N   0  0  0  0  0  0  0  0  0  0  0  0
  -28.6770  -16.7120   18.9940 H   0  0  0  0  0  0  0  0  0  0  0  0
  -30.2130  -16.8860   18.3200 H   0  0  0  0  0  0  0  0  0  0  0  0
  -26.0230  -26.5180   20.4070 O   0  0  0  0  0  0  0  0  0  0  0  0
  -24.6900  -32.0670   23.1390 C   0  0  0  0  0  0  0  0  0  0  0  0
  -26.9690  -27.5760   20.0890 C   0  0  0  0  0  3  0  0  0  0  0  0
  -23.7770  -30.8670   21.2240 C   0  0  0  0  0  3  0  0  0  0  0  0
  -25.4230  -29.6400   19.6550 C   0  0  0  0  0  0  0  0  0  0  0  0
  -26.2980  -31.1390   21.4480 C   0  0  0  0  0  2  0  0  0  0  0  0
  -26.3860  -29.8480   20.6380 C   0  0  0  0  0  3  0  0  0  0  0  0
  -27.2470  -28.7530   20.8790 C   0  0  0  0  0  2  0  0  0  0  0  0
  -26.7310  -27.7870   18.7650 C   0  0  0  0  0  2  0  0  0  0  0  0
  -25.6690  -28.6870   18.6390 C   0  0  0  0  0  3  0  0  0  0  0  0
  -24.1650  -30.4730   19.7620 C   0  0  0  0  0  2  0  0  0  0  0  0
  -24.9340  -31.4400   21.9540 N   0  0  0  0  0  0  0  0  0  0  0  0
  -23.5340  -32.2320   23.5620 O   0  0  0  0  0  0  0  0  0  0  0  0
  -23.2580  -29.7480   22.1380 C   0  0  0  0  0  0  0  0  0  0  0  0
  -21.9990  -29.7300   22.5330 N   0  0  0  0  0  0  0  0  0  0  0  0
  -24.0610  -28.9690   22.6460 O   0  0  0  0  0  0  0  0  0  0  0  0
  -21.3660  -30.4760   22.2840 H   0  0  0  0  0  0  0  0  0  0  0  0
  -18.4880  -28.6140   22.3760 C   0  0  0  0  0  0  0  0  0  0  0  0
  -21.4410  -28.5050   23.1260 C   0  0  0  0  0  3  0  0  0  0  0  0
  -22.2170  -27.1120   22.0670 C   0  0  0  0  0  1  0  0  0  0  0  0
  -19.7400  -26.5320   19.8700 C   0  0  0  0  0  1  0  0  0  0  0  0
  -18.2810  -27.5830   20.8680 C   0  0  0  0  0  1  0  0  0  0  0  0
  -19.7610  -28.9890   23.1990 C   0  0  0  0  0  0  0  0  0  0  0  0
  -19.6470  -30.0740   24.1430 C   0  0  0  0  0  3  0  0  0  0  0  0
  -18.4590  -30.7340   24.4970 C   0  0  0  0  0  3  0  0  0  0  0  0
  -17.2680  -30.2800   23.9320 C   0  0  0  0  0  3  0  0  0  0  0  0
  -17.2980  -29.2680   22.9190 C   0  0  0  0  0  3  0  0  0  0  0  0
  -25.8430  -32.6290   23.9960 C   0  0  0  0  0  3  0  0  0  0  0  0
  -25.4490  -34.0020   24.3150 N   0  0  0  0  0  0  0  0  0  0  0  0
  -25.8660  -35.0760   23.6380 C   0  0  0  0  0  0  0  0  0  0  0  0
  -26.7220  -35.0130   22.7510 O   0  0  0  0  0  0  0  0  0  0  0  0
  -24.7190  -34.1200   25.0010 H   0  0  0  0  0  0  0  0  0  0  0  0
  -24.1490  -36.8040   23.0140 C   0  0  0  0  0  1  0  0  0  0  0  0
  -25.2480  -36.4320   24.0220 C   0  0  0  0  0  3  0  0  0  0  0  0
  -27.2380  -37.3170   25.1540 C   0  0  0  0  0  1  0  0  0  0  0  0
  -26.2430  -37.5220   24.1030 N   0  0  0  0  0  0  0  0  0  0  0  0
  -25.7860  -38.4130   24.2710 H   0  0  0  0  0  0  0  0  0  0  0  0
  -26.1190  -31.8050   25.3110 C   0  0  1  0  0  0  0  0  0  0  0  0
  -24.8430  -31.3980   26.0840 C   0  0  0  0  0  1  0  0  0  0  0  0
  -26.9110  -30.5130   25.0090 C   0  0  0  0  0  1  0  0  0  0  0  0
  -27.0060  -32.6520   26.2530 C   0  0  0  0  0  1  0  0  0  0  0  0
  1  2  1  0
  3  6  1  0
  4  3  2  0
  5  1  1  0
  5  4  1  0
  5 52  1  0
  7  9  1  0
  7  4  1  0
  8  7  2  0
 10 11  1  0
 10  9  2  0
 12 11  2  0
 13 12  1  0
 13 22  1  0
 14 22  1  0
 14 20  1  0
 15 20  1  0
 16 17  1  0
 16 15  1  0
 18 17  1  0
 18 27  1  0
 18 19  1  0
 20 19  1  0
 21 14  2  0
 22 23  1  0
 24 25  2  0
 25 26  1  0
 25 44  1  0
 26 29  1  0
 27 24  1  0
 27 28  1  0
 28 26  2  0
 29 30  1  0
 30 31  2  0
 32 31  1  0
 32 35  1  0
 33 32  2  0
 34 29  2  0
 34 33  1  0
 35 36  1  0
 36 41  2  0
 36 37  1  0
 37 38  2  0
 38 39  1  0
 39 43  1  0
 40 39  2  0
 41 40  1  0
 42 41  1  0
 44 45  1  0
 45 48  1  0
 45 47  1  0
 46 44  2  0
 49 50  1  0
 49 24  1  0
 51 49  1  0
 53 64  2  0
 54 52  1  0
 54 59  1  0
 55 63  1  0
 55 65  1  0
 56 62  1  0
 56 58  1  0
 57 63  1  0
 58 59  1  0
 58 57  1  0
 60 54  1  0
 61 60  1  0
 61 56  2  0
 62 55  1  0
 63 53  1  0
 65 66  1  0
 65 67  2  0
 66 70  1  0
 68 66  1  0
 69 78  2  0
 69 74  1  0
 70 71  1  0
 70 74  1  0
 72  2  1  0
 73 69  1  0
 74 75  2  0
 75 76  1  0
 77 76  2  0
 78 77  1  0
 79 53  1  0
 79 80  1  0
 79 89  1  0
 80 83  1  0
 81 85  1  0
 81 80  1  0
 82 81  2  0
 85 84  1  0
 85 87  1  0
 87 88  1  0
 87 86  1  0
 89 90  1  1
 89 92  1  0
 91 89  1  0
M  ISO  4   5 101  14 100  22 100  52 101
M  END
>  <TORSDO>  (27) 
F 22

>  <SCORE>  (27) 
-10.968

>  <name>  (27) 
26

>  <ligand_id>  (27) 
26

>  <original_smiles>  (27) 
[H]c1nc([H])c(C(=O)C([H])([H])C([H])([H])C([H])([H])C([H])([H])C([H])([H])N([H])C(=O)N2C([H])([H])C([H])([H])C([H])([H])C([H])(n3nc(-c4c([H])c([H])c(Oc5c([H])c([H])c(F)c([H])c5F)c([H])c4[H])c(C(=O)N([H])[H])c3N([H])[H])C2([H])[H])c(Oc2c([H])c([H])c3c(c2[H])C([H])([H])N(C(=O)C([H])(N([H])C(=O)C([H])(N([H])C([H])([H])[H])C([H])([H])[H])C(C([H])([H])[H])(C([H])([H])[H])C([H])([H])[H])C([H])(C(=O)N([H])C2([H])c4c([H])c([H])c([H])c([H])c4C([H])([H])C([H])([H])C2([H])[H])C3([H])[H])c1[H]

>  <smiles>  (27) 
[H]c1nc([H])c(C(=O)C([H])([H])C([H])([H])C([H])([H])C([H])([H])C([H])([H])N([H])C(=O)N2C([H])([H])C([H])([H])C([H])([H])C([H])(n3nc(-c4c([H])c([H])c(Oc5c([H])c([H])c(F)c([H])c5F)c([H])c4[H])c(C(=O)N([H])[H])c3N([H])[H])C2([H])[H])c(Oc2c([H])c([H])c3c(c2[H])C([H])([H])N(C(=O)C([H])(N([H])C(=O)C([H])(N([H])C([H])([H])[H])C([H])([H])[H])C(C([H])([H])[H])(C([H])([H])[H])C([H])([H])[H])C([H])(C(=O)N([H])C2([H])c4c([H])c([H])c([H])c([H])c4C([H])([H])C([H])([H])C2([H])[H])C3([H])[H])c1[H]

$$$$
27:0:0
     RDKit          3D

 91 99  0  0  1  0  0  0  0  0999 V2000
  -28.2440  -21.2380   20.9960 C   0  0  0  0  0  2  0  0  0  0  0  0
  -27.7040  -22.5650   20.3220 C   0  0  0  0  0  0  0  0  0  0  0  0
  -26.8120  -22.4990   19.4660 O   0  0  0  0  0  0  0  0  0  0  0  0
  -28.1860  -23.9960   20.7770 C   0  0  0  0  0  3  0  0  0  0  0  0
  -28.4470  -25.0940   19.6690 C   0  0  0  0  0  3  0  0  0  0  0  0
  -28.4650  -26.5090   20.0970 O   0  0  0  0  0  0  0  0  0  0  0  0
  -24.7210  -31.8500   23.1930 C   0  0  0  0  0  0  0  0  0  0  0  0
  -27.3140  -27.3080   20.0850 C   0  0  0  0  0  0  0  0  0  0  0  0
  -23.5100  -30.4630   21.5400 C   0  0  0  0  0  3  0  0  0  0  0  0
  -24.9510  -28.9180   20.1150 C   0  0  0  0  0  0  0  0  0  0  0  0
  -26.0570  -30.7750   21.3690 C   0  0  0  0  0  2  0  0  0  0  0  0
  -26.1260  -29.3970   20.7170 C   0  0  0  0  0  0  0  0  0  0  0  0
  -27.3020  -28.5980   20.6970 C   0  0  0  0  0  3  0  0  0  0  0  0
  -26.1080  -26.8750   19.4820 C   0  0  0  0  0  3  0  0  0  0  0  0
  -24.9430  -27.6620   19.4950 C   0  0  0  0  0  3  0  0  0  0  0  0
  -23.7320  -29.7970   20.1570 C   0  0  0  0  0  2  0  0  0  0  0  0
  -24.7810  -31.0500   22.0860 N   0  0  0  0  0  0  0  0  0  0  0  0
  -23.6420  -32.1100   23.7480 O   0  0  0  0  0  0  0  0  0  0  0  0
  -22.8570  -29.4320   22.4980 C   0  0  0  0  0  0  0  0  0  0  0  0
  -21.5220  -29.2860   22.4220 N   0  0  0  0  0  0  0  0  0  0  0  0
  -23.5520  -28.7700   23.2740 O   0  0  0  0  0  0  0  0  0  0  0  0
  -21.0300  -29.9010   21.7870 H   0  0  0  0  0  0  0  0  0  0  0  0
  -18.1520  -28.0440   22.9290 C   0  0  0  0  0  0  0  0  0  0  0  0
  -20.7060  -28.3440   23.1970 C   0  0  0  0  0  3  0  0  0  0  0  0
  -20.8380  -26.9080   22.6390 C   0  0  0  0  0  2  0  0  0  0  0  0
  -19.7350  -26.5430   21.6460 C   0  0  0  0  0  2  0  0  0  0  0  0
  -18.3600  -26.6820   22.2990 C   0  0  0  0  0  2  0  0  0  0  0  0
  -19.2570  -28.8230   23.3600 C   0  0  0  0  0  0  0  0  0  0  0  0
  -19.0200  -30.0830   23.9510 C   0  0  0  0  0  3  0  0  0  0  0  0
  -17.7090  -30.5530   24.1180 C   0  0  0  0  0  3  0  0  0  0  0  0
  -16.6150  -29.7880   23.6830 C   0  0  0  0  0  3  0  0  0  0  0  0
  -16.8350  -28.5340   23.0870 C   0  0  0  0  0  3  0  0  0  0  0  0
  -26.0060  -32.4880   23.8010 C   0  0  0  0  0  3  0  0  0  0  0  0
  -25.7010  -33.8760   24.1750 N   0  0  0  0  0  0  0  0  0  0  0  0
  -25.9980  -34.9470   23.4230 C   0  0  0  0  0  0  0  0  0  0  0  0
  -26.6480  -34.8760   22.3770 O   0  0  0  0  0  0  0  0  0  0  0  0
  -25.1350  -34.0040   25.0020 H   0  0  0  0  0  0  0  0  0  0  0  0
  -24.2510  -36.7360   23.1300 C   0  0  0  0  0  1  0  0  0  0  0  0
  -25.5040  -36.3230   23.9180 C   0  0  0  0  0  3  0  0  0  0  0  0
  -27.6400  -37.2100   24.7480 C   0  0  0  0  0  1  0  0  0  0  0  0
  -26.5260  -37.3890   23.8210 N   0  0  0  0  0  0  0  0  0  0  0  0
  -26.1110  -38.3000   24.0030 H   0  0  0  0  0  0  0  0  0  0  0  0
  -26.5630  -31.6970   25.0480 C   0  0  1  0  0  0  0  0  0  0  0  0
  -25.4960  -31.4180   26.1340 C   0  0  0  0  0  1  0  0  0  0  0  0
  -27.1560  -30.3350   24.6180 C   0  0  0  0  0  1  0  0  0  0  0  0
  -27.7160  -32.4870   25.7100 C   0  0  0  0  0  1  0  0  0  0  0  0
  -28.0390  -19.9190   20.1360 C   0  0  0  0  0  2  0  0  0  0  0  0
  -29.0720  -16.3270   19.2320 C   0  0  0  0  0  3  0  0  0  0  0  0
  -28.4710  -17.6010   19.3070 C   0  0  0  0  0  3  0  0  0  0  0  0
  -29.9960  -15.8760   20.1990 C   0  0  0  0  0  0  0  0  0  0  0  0
  -28.7650  -18.5260   20.3320 C   0  0  0  0  0  0  0  0  0  0  0  0
  -30.2950  -16.7660   21.2740 C   0  0  0  0  0  0  0  0  0  0  0  0
  -29.6530  -18.0610   21.3670 C   0  0  0  0  0  0  0  0  0  0  0  0
  -31.3430  -16.3440   22.3090 C   0  0  0  0  0  1  0  0  0  0  0  0
  -29.8740  -18.9320   22.6000 C   0  0  0  0  0  1  0  0  0  0  0  0
  -30.7410  -14.5610   19.9260 C   0  0  0  0  0  0  0  0  0  0  0  0
  -30.3580  -12.3790   18.8470 C   0  0  0  0  0  2  0  0  0  0  0  0
  -29.3550  -12.6230   17.6970 C   0  0  0  0  0  2  0  0  0  0  0  0
  -27.8990  -12.5350   18.2040 C   0  0  0  0  0  2  0  0  0  0  0  0
  -27.6640  -13.3250   19.5240 C   0  0  0  0  0  3  0  0  0  0  0  0
  -28.7950  -13.1050   20.5530 C   0  0  0  0  0  2  0  0  0  0  0  0
  -30.0670  -13.3780   19.8850 N   0  0  0  0  0  0  0  0  0  0  0  0
  -31.9070  -14.6590   19.5290 O   0  0  0  0  0  0  0  0  0  0  0  0
  -25.3440  -13.9510   20.4190 C   0  0  0  0  0  0  0  0  0  0  0  0
  -24.2840  -13.1860   20.8340 C   0  0  0  0  0  0  0  0  0  0  0  0
  -24.7160  -11.8310   20.7370 C   0  0  0  0  0  0  0  0  0  0  0  0
  -26.3480  -13.0570   20.0940 N   0  0  0  0  0  0  0  0  0  0  0  0
  -25.9820  -11.7770   20.3460 N   0  0  0  0  0  0  0  0  0  0  0  0
  -23.9770  -10.5770   20.9420 C   0  0  0  0  0  0  0  0  0  0  0  0
  -24.4210   -9.6010   21.8590 C   0  0  0  0  0  3  0  0  0  0  0  0
  -23.6830   -8.4120   22.0520 C   0  0  0  0  0  3  0  0  0  0  0  0
  -22.4880   -8.1950   21.3270 C   0  0  0  0  0  0  0  0  0  0  0  0
  -22.0600   -9.1630   20.4010 C   0  0  0  0  0  3  0  0  0  0  0  0
  -22.7990  -10.3420   20.2080 C   0  0  0  0  0  3  0  0  0  0  0  0
  -21.7230   -7.0570   21.4290 O   0  0  0  0  0  0  0  0  0  0  0  0
  -21.6620   -6.3330   22.5930 C   0  0  0  0  0  0  0  0  0  0  0  0
  -21.2570   -6.9130   23.8140 C   0  0  0  0  0  3  0  0  0  0  0  0
  -21.1440   -6.1140   24.9700 C   0  0  0  0  0  3  0  0  0  0  0  0
  -21.4250   -4.7360   24.9030 C   0  0  0  0  0  0  0  0  0  0  0  0
  -21.8190   -4.1560   23.6870 C   0  0  0  0  0  3  0  0  0  0  0  0
  -21.9360   -4.9520   22.5340 C   0  0  0  0  0  0  0  0  0  0  0  0
  -22.3000   -4.3820   21.3590 F   0  0  0  0  0  0  0  0  0  0  0  0
  -21.3060   -3.9680   26.0100 F   0  0  0  0  0  0  0  0  0  0  0  0
  -22.9180  -13.6880   21.2030 C   0  0  0  0  0  0  0  0  0  0  0  0
  -22.2390  -12.9950   22.1150 N   0  0  0  0  0  0  0  0  0  0  0  0
  -22.4600  -14.7240   20.7260 O   0  0  0  0  0  0  0  0  0  0  0  0
  -22.6180  -12.1590   22.5310 H   0  0  0  0  0  0  0  0  0  0  0  0
  -21.3260  -13.3140   22.4060 H   0  0  0  0  0  0  0  0  0  0  0  0
  -25.5180  -15.3190   20.2640 N   0  0  0  0  0  0  0  0  0  0  0  0
  -24.7790  -15.9820   20.4700 H   0  0  0  0  0  0  0  0  0  0  0  0
  -26.3750  -15.7690   19.9580 H   0  0  0  0  0  0  0  0  0  0  0  0
  2  4  1  0
  2  1  1  0
  3  2  2  0
  5  6  1  0
  5  4  2  0
  7 18  2  0
  8  6  1  0
  8 13  1  0
  9 17  1  0
  9 19  1  0
 10 16  1  0
 10 12  1  0
 11 17  1  0
 12 11  1  0
 13 12  2  0
 14 15  1  0
 14  8  2  0
 15 10  2  0
 16  9  1  0
 17  7  1  0
 19 21  2  0
 20 19  1  0
 22 20  1  0
 23 32  2  0
 23 28  1  0
 24 20  1  0
 24 28  1  0
 25 24  1  0
 26 27  1  0
 26 25  1  0
 27 23  1  0
 28 29  2  0
 29 30  1  0
 31 30  2  0
 32 31  1  0
 33  7  1  0
 33 34  1  0
 33 43  1  0
 34 37  1  0
 35 39  1  0
 35 34  1  0
 36 35  2  0
 39 38  1  0
 41 39  1  0
 41 42  1  0
 41 40  1  0
 43 46  1  1
 43 44  1  0
 45 43  1  0
 47 51  1  0
 47  1  1  0
 48 49  2  0
 48 50  1  0
 49 51  1  0
 50 52  2  0
 51 53  2  0
 52 53  1  0
 52 54  1  0
 53 55  1  0
 56 50  1  0
 57 62  1  0
 58 59  1  0
 58 57  1  0
 60 59  1  0
 60 67  1  0
 60 61  1  0
 62 56  1  0
 62 61  1  0
 63 56  2  0
 64 65  2  0
 65 84  1  0
 66 65  1  0
 66 69  1  0
 67 68  1  0
 67 64  1  0
 68 66  2  0
 69 70  1  0
 70 71  2  0
 72 75  1  0
 72 71  1  0
 73 72  2  0
 74 73  1  0
 74 69  2  0
 75 76  1  0
 76 77  1  0
 77 78  2  0
 79 78  1  0
 79 83  1  0
 80 79  2  0
 81 76  2  0
 81 80  1  0
 82 81  1  0
 84 85  1  0
 85 88  1  0
 85 87  1  0
 86 84  2  0
 89 64  1  0
 89 90  1  0
 91 89  1  0
M  ISO  4   5 101   6 101  50 100  56 100
M  END
>  <TORSDO>  (28) 
F 21

>  <SCORE>  (28) 
-11.868

>  <name>  (28) 
27

>  <ligand_id>  (28) 
27

>  <original_smiles>  (28) 
[H]c1c([H])c([H])c2c(c1[H])C([H])([H])C([H])([H])C([H])([H])C2([H])N([H])C(=O)C1([H])N(C(=O)C([H])(N([H])C(=O)C([H])(N([H])C([H])([H])[H])C([H])([H])[H])C(C([H])([H])[H])(C([H])([H])[H])C([H])([H])[H])C([H])([H])c2c([H])c(OC([H])([H])C([H])([H])C(=O)C([H])([H])C([H])([H])c3c([H])c([H])c(C(=O)N4C([H])([H])C([H])([H])C([H])([H])C([H])(n5nc(-c6c([H])c([H])c(Oc7c([H])c([H])c(F)c([H])c7F)c([H])c6[H])c(C(=O)N([H])[H])c5N([H])[H])C4([H])[H])c(C([H])([H])[H])c3C([H])([H])[H])c([H])c([H])c2C1([H])[H]

>  <smiles>  (28) 
[H]c1c([H])c([H])c2c(c1[H])C([H])([H])C([H])([H])C([H])([H])C2([H])N([H])C(=O)C1([H])N(C(=O)C([H])(N([H])C(=O)C([H])(N([H])C([H])([H])[H])C([H])([H])[H])C(C([H])([H])[H])(C([H])([H])[H])C([H])([H])[H])C([H])([H])c2c([H])c(OC([H])([H])C([H])([H])C(=O)C([H])([H])C([H])([H])c3c([H])c([H])c(C(=O)N4C([H])([H])C([H])([H])C([H])([H])C([H])(n5nc(-c6c([H])c([H])c(Oc7c([H])c([H])c(F)c([H])c7F)c([H])c6[H])c(C(=O)N([H])[H])c5N([H])[H])C4([H])[H])c(C([H])([H])[H])c3C([H])([H])[H])c([H])c([H])c2C1([H])[H]

$$$$
28:0:0
     RDKit          3D

 95 96  0  0  1  0  0  0  0  0999 V2000
  -23.1940  -25.8960   23.2150 C   0  0  0  0  0  2  0  0  0  0  0  0
  -21.6420  -28.7060   21.5460 C   0  0  0  0  0  1  0  0  0  0  0  0
  -23.1490  -25.6790   21.5850 C   0  0  0  0  0  2  0  0  0  0  0  0
  -22.9340  -27.2590   24.1970 C   0  0  0  0  0  3  0  0  0  0  0  0
  -22.2520  -27.0550   20.7120 C   0  0  0  0  0  3  0  0  0  0  0  0
  -21.9880  -28.8160   23.5070 C   0  0  0  0  0  2  0  0  0  0  0  0
  -22.0340  -26.8410   19.2130 C   0  0  0  0  0  1  0  0  0  0  0  0
  -21.2570  -31.2260   23.6140 C   0  0  0  0  0  1  0  0  0  0  0  0
  -21.9170  -30.0530   24.2190 N   0  0  0  0  0  0  0  0  0  0  0  0
  -22.7790  -30.2750   24.7270 H   0  0  0  0  0  0  0  0  0  0  0  0
  -23.9820  -23.8440   21.2250 C   0  0  0  0  0 15  0  0  0  0  0  0
  -25.6030  -22.5510   20.6730 C   0  0  0  0  0 15  0  0  0  0  0  0
  -26.4390  -20.5720   20.7040 C   0  0  0  0  0 15  0  0  0  0  0  0
  -27.9930  -19.1990   20.1430 C   0  0  0  0  0 15  0  0  0  0  0  0
  -29.8160  -16.2050   19.8540 C   0  0  0  0  0  0  0  0  0  0  0  0
  -30.5360  -13.6620   18.9590 C   0  0  0  0  0  2  0  0  0  0  0  0
  -29.7070  -13.0300   17.7890 C   0  0  0  0  0  2  0  0  0  0  0  0
  -28.3330  -12.5570   18.2850 C   0  0  0  0  0  2  0  0  0  0  0  0
  -27.7870  -13.5420   19.3390 C   0  0  0  0  0  3  0  0  0  0  0  0
  -28.7630  -13.8900   20.4560 C   0  0  0  0  0  2  0  0  0  0  0  0
  -29.7270  -14.7230   19.7760 N   0  0  0  0  0  0  0  0  0  0  0  0
  -31.0440  -16.3540   19.5490 O   0  0  0  0  0  0  0  0  0  0  0  0
  -28.6500  -17.3730   20.1200 N   0  0  0  0  0  2  0  0  0  0  0  0
  -27.8270  -16.8160   20.3240 H   0  0  0  0  0  0  0  0  0  0  0  0
  -25.5670  -14.0780   20.3490 C   0  0  0  0  0  0  0  0  0  0  0  0
  -24.5340  -13.2960   20.7680 C   0  0  0  0  0  0  0  0  0  0  0  0
  -24.9650  -11.9430   20.5960 C   0  0  0  0  0  0  0  0  0  0  0  0
  -26.5290  -13.1930   19.9180 N   0  0  0  0  0  0  0  0  0  0  0  0
  -26.2110  -11.9010   20.1460 N   0  0  0  0  0  0  0  0  0  0  0  0
  -24.2350  -10.6870   20.7590 C   0  0  0  0  0  0  0  0  0  0  0  0
  -24.7090   -9.6590   21.6040 C   0  0  0  0  0  3  0  0  0  0  0  0
  -23.9690   -8.4690   21.7590 C   0  0  0  0  0  3  0  0  0  0  0  0
  -22.7480   -8.2990   21.0630 C   0  0  0  0  0  0  0  0  0  0  0  0
  -22.2950   -9.3170   20.2050 C   0  0  0  0  0  3  0  0  0  0  0  0
  -23.0340  -10.4990   20.0490 C   0  0  0  0  0  3  0  0  0  0  0  0
  -21.9750   -7.1670   21.1300 O   0  0  0  0  0  0  0  0  0  0  0  0
  -21.9430   -6.3830   22.2550 C   0  0  0  0  0  0  0  0  0  0  0  0
  -21.5970   -6.9080   23.5200 C   0  0  0  0  0  3  0  0  0  0  0  0
  -21.5100   -6.0530   24.6360 C   0  0  0  0  0  3  0  0  0  0  0  0
  -21.7590   -4.6750   24.4890 C   0  0  0  0  0  0  0  0  0  0  0  0
  -22.0980   -4.1500   23.2300 C   0  0  0  0  0  3  0  0  0  0  0  0
  -22.1860   -5.0020   22.1150 C   0  0  0  0  0  0  0  0  0  0  0  0
  -22.4930   -4.4890   20.8990 F   0  0  0  0  0  0  0  0  0  0  0  0
  -21.6670   -3.8520   25.5600 F   0  0  0  0  0  0  0  0  0  0  0  0
  -23.1850  -13.7870   21.1880 C   0  0  0  0  0  0  0  0  0  0  0  0
  -22.5160  -13.0610   22.0730 N   0  0  0  0  0  0  0  0  0  0  0  0
  -22.7380  -14.8530   20.7630 O   0  0  0  0  0  0  0  0  0  0  0  0
  -22.8950  -12.2010   22.4370 H   0  0  0  0  0  0  0  0  0  0  0  0
  -21.6120  -13.3760   22.3950 H   0  0  0  0  0  0  0  0  0  0  0  0
  -25.7560  -15.4580   20.2630 N   0  0  0  0  0  0  0  0  0  0  0  0
  -24.9580  -16.0630   20.4270 H   0  0  0  0  0  0  0  0  0  0  0  0
  -26.4120  -15.8580   19.6060 H   0  0  0  0  0  0  0  0  0  0  0  0
  -24.6380  -26.9330   24.5530 C   0  0  0  0  0  2  0  0  0  0  0  0
  -26.2030  -26.8750   23.5810 C   0  0  0  0  0  2  0  0  0  0  0  0
  -27.1130  -26.3050   22.3400 O   0  0  0  0  0  0  0  0  0  0  0  0
  -24.9520  -31.7650   23.2270 C   0  0  0  0  0  0  0  0  0  0  0  0
  -27.3090  -27.0630   21.1980 C   0  0  0  0  0  0  0  0  0  0  0  0
  -24.1060  -30.1730   21.4240 C   0  0  0  0  0  3  0  0  0  0  0  0
  -25.6500  -28.8570   20.0220 C   0  0  0  0  0  0  0  0  0  0  0  0
  -26.5260  -30.7200   21.5460 C   0  0  0  0  0  2  0  0  0  0  0  0
  -26.6760  -29.3410   20.8710 C   0  0  0  0  0  0  0  0  0  0  0  0
  -27.6150  -28.4250   21.3650 C   0  0  0  0  0  3  0  0  0  0  0  0
  -26.5380  -26.6150   20.1160 C   0  0  0  0  0  3  0  0  0  0  0  0
  -25.6170  -27.5190   19.5810 C   0  0  0  0  0  3  0  0  0  0  0  0
  -24.3940  -29.6920   19.9890 C   0  0  0  0  0  2  0  0  0  0  0  0
  -25.1690  -31.0380   22.0540 N   0  0  0  0  0  0  0  0  0  0  0  0
  -23.8210  -32.0240   23.6530 O   0  0  0  0  0  0  0  0  0  0  0  0
  -24.2270  -28.9070   22.2690 C   0  0  0  0  0  0  0  0  0  0  0  0
  -23.5080  -27.6990   22.0950 N   0  0  0  0  0  2  0  0  0  0  0  0
  -24.6050  -29.1160   23.3960 O   0  0  0  0  0  0  0  0  0  0  0  0
  -23.5500  -27.4260   21.1240 H   0  0  0  0  0  0  0  0  0  0  0  0
  -18.1950  -27.8640   22.5220 C   0  0  0  0  0  0  0  0  0  0  0  0
  -20.9500  -26.8770   23.0420 C   0  0  0  0  0  2  0  0  0  0  0  0
  -20.1490  -25.6990   22.4930 C   0  0  0  0  0  2  0  0  0  0  0  0
  -19.2210  -26.0640   21.3400 C   0  0  0  0  0  2  0  0  0  0  0  0
  -17.9570  -26.5430   21.9220 C   0  0  0  0  0  2  0  0  0  0  0  0
  -19.4750  -28.1050   23.1430 C   0  0  0  0  0  0  0  0  0  0  0  0
  -19.2610  -29.4260   23.7910 C   0  0  0  0  0  3  0  0  0  0  0  0
  -18.1700  -30.3660   23.6580 C   0  0  0  0  0  3  0  0  0  0  0  0
  -17.0090  -29.9860   22.9910 C   0  0  0  0  0  3  0  0  0  0  0  0
  -17.0390  -28.6980   22.4610 C   0  0  0  0  0  3  0  0  0  0  0  0
  -26.1050  -32.2630   24.1610 C   0  0  0  0  0  3  0  0  0  0  0  0
  -25.7350  -33.6310   24.5260 N   0  0  0  0  0  0  0  0  0  0  0  0
  -26.1200  -34.7050   23.8390 C   0  0  0  0  0  0  0  0  0  0  0  0
  -26.9020  -34.6360   22.8880 O   0  0  0  0  0  0  0  0  0  0  0  0
  -25.0150  -33.7340   25.2230 H   0  0  0  0  0  0  0  0  0  0  0  0
  -24.4350  -36.5180   23.3500 C   0  0  0  0  0  1  0  0  0  0  0  0
  -25.5660  -36.0680   24.2850 C   0  0  0  0  0  3  0  0  0  0  0  0
  -27.5920  -36.9180   25.3890 C   0  0  0  0  0  1  0  0  0  0  0  0
  -26.5970  -37.1220   24.3390 N   0  0  0  0  0  0  0  0  0  0  0  0
  -26.1660  -38.0310   24.4880 H   0  0  0  0  0  0  0  0  0  0  0  0
  -26.3320  -31.4260   25.4990 C   0  0  1  0  0  0  0  0  0  0  0  0
  -25.0340  -31.1330   26.2920 C   0  0  0  0  0  1  0  0  0  0  0  0
  -27.0260  -30.0890   25.2020 C   0  0  0  0  0  1  0  0  0  0  0  0
  -27.3090  -32.1590   26.4440 C   0  0  0  0  0  1  0  0  0  0  0  0
  3  1  1  0
  4  1  1  0
  4 53  1  0
  5  2  1  0
  5  3  1  0
  6  4  1  0
  6  9  1  0
  7  5  1  0
  8  9  1  0
  9 10  1  0
 15 23  1  0
 16 21  1  0
 17 18  1  0
 17 16  1  0
 19 18  1  0
 19 28  1  0
 19 20  1  0
 21 15  1  0
 21 20  1  0
 22 15  2  0
 23 24  1  0
 25 26  2  0
 26 45  1  0
 27 30  1  0
 27 26  1  0
 28 29  1  0
 28 25  1  0
 29 27  2  0
 30 31  1  0
 31 32  2  0
 33 36  1  0
 33 32  1  0
 34 33  2  0
 35 34  1  0
 35 30  2  0
 36 37  1  0
 37 38  1  0
 38 39  2  0
 40 39  1  0
 40 44  1  0
 41 40  2  0
 42 37  2  0
 42 41  1  0
 43 42  1  0
 45 46  1  0
 46 49  1  0
 46 48  1  0
 47 45  2  0
 50 25  1  0
 50 51  1  0
 52 50  1  0
 54 53  1  0
 55 54  1  0
 56 67  2  0
 57 62  1  0
 57 55  1  0
 58 66  1  0
 58 68  1  0
 59 61  1  0
 60 66  1  0
 61 62  2  0
 61 60  1  0
 63 57  2  0
 64 59  2  0
 64 63  1  0
 65 59  1  0
 65 58  1  0
 66 56  1  0
 68 70  2  0
 69 68  1  0
 71 69  1  0
 72 77  1  0
 73 77  1  0
 74 73  1  0
 75 76  1  0
 75 74  1  0
 76 72  1  0
 77 78  2  0
 79 78  1  0
 80 79  2  0
 81 72  2  0
 81 80  1  0
 82 56  1  0
 82 83  1  0
 82 92  1  0
 83 86  1  0
 84 88  1  0
 84 83  1  0
 85 84  2  0
 88 87  1  0
 88 90  1  0
 90 91  1  0
 90 89  1  0
 92 93  1  1
 92 95  1  0
 94 92  1  0
M  ISO  4  15 100  23 100  54 101  55 101
M  END
>  <TORSDO>  (29) 
F 23

>  <SCORE>  (29) 
-8.808

>  <name>  (29) 
28

>  <ligand_id>  (29) 
28

>  <original_smiles>  (29) 
[H]c1c([H])c([H])c2c(c1[H])C([H])([H])C([H])([H])C([H])([H])C2([H])N([H])C(=O)C1([H])N(C(=O)C([H])(N([H])C(=O)C([H])(N([H])C([H])([H])[H])C([H])([H])[H])C(C([H])([H])[H])(C([H])([H])[H])C([H])([H])[H])C([H])([H])c2c([H])c(OC([H])([H])C([H])([H])c3c([H])c(C([H])([H])C([H])([H])C([H])([H])C([H])([H])N([H])C(=O)N4C([H])([H])C([H])([H])C([H])([H])C([H])(n5nc(-c6c([H])c([H])c(Oc7c([H])c([H])c(F)c([H])c7F)c([H])c6[H])c(C(=O)N([H])[H])c5N([H])[H])C4([H])[H])c(C([H])([H])[H])c([H])c3N([H])C([H])([H])[H])c([H])c([H])c2C1([H])[H]

>  <smiles>  (29) 
[H]c1c([H])c([H])c2c(c1[H])C([H])([H])C([H])([H])C([H])([H])C2([H])N([H])C(=O)C1([H])N(C(=O)C([H])(N([H])C(=O)C([H])(N([H])C([H])([H])[H])C([H])([H])[H])C(C([H])([H])[H])(C([H])([H])[H])C([H])([H])[H])C([H])([H])c2c([H])c(OC([H])([H])C([H])([H])c3c([H])c(C([H])([H])C([H])([H])C([H])([H])C([H])([H])N([H])C(=O)N4C([H])([H])C([H])([H])C([H])([H])C([H])(n5nc(-c6c([H])c([H])c(Oc7c([H])c([H])c(F)c([H])c7F)c([H])c6[H])c(C(=O)N([H])[H])c5N([H])[H])C4([H])[H])c(C([H])([H])[H])c([H])c3N([H])C([H])([H])[H])c([H])c([H])c2C1([H])[H]

$$$$
30:0:0
     RDKit          3D

 90 98  0  0  1  0  0  0  0  0999 V2000
  -30.1740  -23.5110   19.7930 C   0  0  0  0  0  3  0  0  0  0  0  0
  -31.0640  -22.4360   19.5640 C   0  0  0  0  0  3  0  0  0  0  0  0
  -28.5410  -21.8550   20.4540 C   0  0  0  0  0  3  0  0  0  0  0  0
  -28.8580  -23.2970   20.2300 C   0  0  0  0  0  0  0  0  0  0  0  0
  -29.4480  -20.6840   20.2440 C   0  0  0  0  0  0  0  0  0  0  0  0
  -30.7280  -21.0610   19.7540 C   0  0  0  0  0  0  0  0  0  0  0  0
  -32.7030  -20.3470   18.5850 C   0  0  0  0  0  1  0  0  0  0  0  0
  -31.6220  -20.0540   19.4650 O   0  0  0  0  0  0  0  0  0  0  0  0
  -29.0910  -19.0670   20.4620 C   0  0  0  0  0  3  0  0  0  0  0  0
  -30.1370  -17.7290   20.3220 C   0  0  0  0  0  3  0  0  0  0  0  0
  -30.5190  -14.9960   20.2900 C   0  0  0  0  0  0  0  0  0  0  0  0
  -30.3870  -12.6480   19.3320 C   0  0  0  0  0  2  0  0  0  0  0  0
  -29.4450  -12.6200   18.1040 C   0  0  0  0  0  2  0  0  0  0  0  0
  -27.9830  -12.4120   18.5430 C   0  0  0  0  0  2  0  0  0  0  0  0
  -27.5900  -13.3110   19.7440 C   0  0  0  0  0  3  0  0  0  0  0  0
  -28.6580  -13.3170   20.8600 C   0  0  0  0  0  2  0  0  0  0  0  0
  -29.9200  -13.7370   20.2390 N   0  0  0  0  0  0  0  0  0  0  0  0
  -31.7150  -15.0560   19.9850 O   0  0  0  0  0  0  0  0  0  0  0  0
  -29.7600  -16.1900   20.4720 N   0  0  0  0  0  0  0  0  0  0  0  0
  -28.7870  -16.0180   20.6800 H   0  0  0  0  0  0  0  0  0  0  0  0
  -25.2110  -13.8640   20.5000 C   0  0  0  0  0  0  0  0  0  0  0  0
  -24.1570  -13.0800   20.8770 C   0  0  0  0  0  0  0  0  0  0  0  0
  -24.6320  -11.7330   20.8390 C   0  0  0  0  0  0  0  0  0  0  0  0
  -26.2600  -12.9960   20.2520 N   0  0  0  0  0  0  0  0  0  0  0  0
  -25.9220  -11.7080   20.5210 N   0  0  0  0  0  0  0  0  0  0  0  0
  -23.9160  -10.4650   21.0310 C   0  0  0  0  0  0  0  0  0  0  0  0
  -24.3560   -9.4990   21.9620 C   0  0  0  0  0  3  0  0  0  0  0  0
  -23.6380   -8.2980   22.1420 C   0  0  0  0  0  3  0  0  0  0  0  0
  -22.4630   -8.0530   21.3910 C   0  0  0  0  0  0  0  0  0  0  0  0
  -22.0420   -9.0070   20.4480 C   0  0  0  0  0  3  0  0  0  0  0  0
  -22.7630  -10.2000   20.2660 C   0  0  0  0  0  3  0  0  0  0  0  0
  -21.7150   -6.9040   21.4810 O   0  0  0  0  0  0  0  0  0  0  0  0
  -21.6710   -6.1630   22.6340 C   0  0  0  0  0  0  0  0  0  0  0  0
  -21.2360   -6.7140   23.8580 C   0  0  0  0  0  3  0  0  0  0  0  0
  -21.1400   -5.8980   25.0030 C   0  0  0  0  0  3  0  0  0  0  0  0
  -21.4680   -4.5310   24.9240 C   0  0  0  0  0  0  0  0  0  0  0  0
  -21.8970   -3.9800   23.7040 C   0  0  0  0  0  3  0  0  0  0  0  0
  -21.9950   -4.7930   22.5620 C   0  0  0  0  0  0  0  0  0  0  0  0
  -22.3880   -4.2510   21.3840 F   0  0  0  0  0  0  0  0  0  0  0  0
  -21.3700   -3.7440   26.0210 F   0  0  0  0  0  0  0  0  0  0  0  0
  -22.7590  -13.5460   21.1580 C   0  0  0  0  0  0  0  0  0  0  0  0
  -22.0450  -12.8440   22.0310 N   0  0  0  0  0  0  0  0  0  0  0  0
  -22.3090  -14.5670   20.6400 O   0  0  0  0  0  0  0  0  0  0  0  0
  -22.4240  -12.0170   22.4690 H   0  0  0  0  0  0  0  0  0  0  0  0
  -21.1060  -13.1360   22.2650 H   0  0  0  0  0  0  0  0  0  0  0  0
  -25.3590  -15.2370   20.3200 N   0  0  0  0  0  0  0  0  0  0  0  0
  -24.5740  -15.8730   20.4150 H   0  0  0  0  0  0  0  0  0  0  0  0
  -26.1820  -15.6800   19.9350 H   0  0  0  0  0  0  0  0  0  0  0  0
  -27.8470  -24.6050   20.3390 C   0  0  0  0  0  2  0  0  0  0  0  0
  -28.2160  -26.1300   20.2530 O   0  0  0  0  0  0  0  0  0  0  0  0
  -24.6490  -31.8910   23.2430 C   0  0  0  0  0  0  0  0  0  0  0  0
  -27.1800  -27.1450   20.2030 C   0  0  0  0  0  0  0  0  0  0  0  0
  -23.4360  -30.5040   21.6090 C   0  0  0  0  0  3  0  0  0  0  0  0
  -24.8690  -28.9260   20.1760 C   0  0  0  0  0  0  0  0  0  0  0  0
  -25.9940  -30.7480   21.4360 C   0  0  0  0  0  2  0  0  0  0  0  0
  -26.0570  -29.3560   20.7830 C   0  0  0  0  0  0  0  0  0  0  0  0
  -27.2130  -28.4840   20.7770 C   0  0  0  0  0  3  0  0  0  0  0  0
  -25.9680  -26.8330   19.5490 C   0  0  0  0  0  3  0  0  0  0  0  0
  -24.8400  -27.6770   19.5410 C   0  0  0  0  0  3  0  0  0  0  0  0
  -23.6490  -29.8320   20.2280 C   0  0  0  0  0  2  0  0  0  0  0  0
  -24.7140  -31.0700   22.1500 N   0  0  0  0  0  0  0  0  0  0  0  0
  -23.5660  -32.1820   23.7730 O   0  0  0  0  0  0  0  0  0  0  0  0
  -22.7570  -29.4960   22.5720 C   0  0  0  0  0  0  0  0  0  0  0  0
  -21.4280  -29.3300   22.4500 N   0  0  0  0  0  0  0  0  0  0  0  0
  -23.4300  -28.8680   23.3930 O   0  0  0  0  0  0  0  0  0  0  0  0
  -20.9420  -29.8880   21.7610 H   0  0  0  0  0  0  0  0  0  0  0  0
  -18.0440  -28.1370   22.9590 C   0  0  0  0  0  0  0  0  0  0  0  0
  -20.6040  -28.3960   23.2230 C   0  0  0  0  0  3  0  0  0  0  0  0
  -20.7020  -26.9620   22.6530 C   0  0  0  0  0  2  0  0  0  0  0  0
  -19.5990  -26.6380   21.6410 C   0  0  0  0  0  2  0  0  0  0  0  0
  -18.2170  -26.7880   22.2840 C   0  0  0  0  0  2  0  0  0  0  0  0
  -19.1640  -28.9000   23.3850 C   0  0  0  0  0  0  0  0  0  0  0  0
  -18.9460  -30.1630   23.9750 C   0  0  0  0  0  3  0  0  0  0  0  0
  -17.6410  -30.6650   24.1440 C   0  0  0  0  0  3  0  0  0  0  0  0
  -16.5360  -29.8990   23.7320 C   0  0  0  0  0  3  0  0  0  0  0  0
  -16.7380  -28.6370   23.1460 C   0  0  0  0  0  3  0  0  0  0  0  0
  -25.9330  -32.5200   23.8650 C   0  0  0  0  0  3  0  0  0  0  0  0
  -26.4490  -31.7430   25.1390 C   0  0  1  0  0  0  0  0  0  0  0  0
  -25.3580  -31.5090   26.2110 C   0  0  0  0  0  1  0  0  0  0  0  0
  -27.0210  -30.3630   24.7430 C   0  0  0  0  0  1  0  0  0  0  0  0
  -27.6070  -32.5280   25.7970 C   0  0  0  0  0  1  0  0  0  0  0  0
  -25.6240  -33.9180   24.2120 N   0  0  0  0  0  0  0  0  0  0  0  0
  -25.9240  -34.9800   23.4510 C   0  0  0  0  0  0  0  0  0  0  0  0
  -26.5580  -34.8880   22.3970 O   0  0  0  0  0  0  0  0  0  0  0  0
  -25.0630  -34.0640   25.0370 H   0  0  0  0  0  0  0  0  0  0  0  0
  -24.1620  -36.7560   23.1880 C   0  0  0  0  0  1  0  0  0  0  0  0
  -25.4470  -36.3630   23.9360 C   0  0  0  0  0  3  0  0  0  0  0  0
  -27.6100  -37.2690   24.6620 C   0  0  0  0  0  1  0  0  0  0  0  0
  -26.4610  -37.4270   23.7740 N   0  0  0  0  0  0  0  0  0  0  0  0
  -26.0540  -38.3440   23.9420 H   0  0  0  0  0  0  0  0  0  0  0  0
  1  4  1  0
  2  6  1  0
  2  1  2  0
  4 49  1  0
  4  3  2  0
  5  3  1  0
  5  9  1  0
  6  5  2  0
  7  8  1  0
  8  6  1  0
 10  9  2  0
 10 19  1  0
 11 19  1  0
 12 17  1  0
 13 14  1  0
 13 12  1  0
 15 14  1  0
 15 24  1  0
 15 16  1  0
 17 11  1  0
 17 16  1  0
 18 11  2  0
 19 20  1  0
 21 22  2  0
 22 41  1  0
 23 22  1  0
 23 26  1  0
 24 21  1  0
 24 25  1  0
 25 23  2  0
 26 27  1  0
 27 28  2  0
 29 32  1  0
 29 28  1  0
 30 29  2  0
 31 30  1  0
 31 26  2  0
 32 33  1  0
 33 34  1  0
 34 35  2  0
 36 35  1  0
 36 40  1  0
 37 36  2  0
 38 33  2  0
 38 37  1  0
 39 38  1  0
 41 42  1  0
 42 45  1  0
 42 44  1  0
 43 41  2  0
 46 47  1  0
 46 21  1  0
 48 46  1  0
 50 49  1  0
 51 62  2  0
 52 50  1  0
 52 57  1  0
 53 61  1  0
 53 63  1  0
 54 60  1  0
 54 56  1  0
 55 61  1  0
 56 55  1  0
 57 56  2  0
 58 52  2  0
 59 58  1  0
 59 54  2  0
 60 53  1  0
 61 51  1  0
 63 65  2  0
 64 63  1  0
 66 64  1  0
 67 76  2  0
 67 72  1  0
 68 64  1  0
 68 72  1  0
 69 68  1  0
 70 71  1  0
 70 69  1  0
 71 67  1  0
 72 73  2  0
 73 74  1  0
 75 74  2  0
 76 75  1  0
 77 51  1  0
 77 82  1  0
 77 78  1  0
 78 81  1  1
 78 79  1  0
 80 78  1  0
 82 85  1  0
 83 87  1  0
 83 82  1  0
 84 83  2  0
 87 86  1  0
 89 87  1  0
 89 90  1  0
 89 88  1  0
M  ISO  4  11 100  19 100  49 101  50 101
M  END
>  <TORSDO>  (30) 
F 20

>  <SCORE>  (30) 
-14.574

>  <name>  (30) 
30

>  <ligand_id>  (30) 
30

>  <original_smiles>  (30) 
[H]c1c([H])c([H])c2c(c1[H])C([H])([H])C([H])([H])C([H])([H])C2([H])N([H])C(=O)C1([H])N(C(=O)C([H])(N([H])C(=O)C([H])(N([H])C([H])([H])[H])C([H])([H])[H])C(C([H])([H])[H])(C([H])([H])[H])C([H])([H])[H])C([H])([H])c2c([H])c(OC([H])([H])c3c([H])c([H])c(OC([H])([H])[H])c(C([H])([H])C([H])([H])N([H])C(=O)N4C([H])([H])C([H])([H])C([H])([H])C([H])(n5nc(-c6c([H])c([H])c(Oc7c([H])c([H])c(F)c([H])c7F)c([H])c6[H])c(C(=O)N([H])[H])c5N([H])[H])C4([H])[H])c3[H])c([H])c([H])c2C1([H])[H]

>  <smiles>  (30) 
[H]c1c([H])c([H])c2c(c1[H])C([H])([H])C([H])([H])C([H])([H])C2([H])N([H])C(=O)C1([H])N(C(=O)C([H])(N([H])C(=O)C([H])(N([H])C([H])([H])[H])C([H])([H])[H])C(C([H])([H])[H])(C([H])([H])[H])C([H])([H])[H])C([H])([H])c2c([H])c(OC([H])([H])c3c([H])c([H])c(OC([H])([H])[H])c(C([H])([H])C([H])([H])N([H])C(=O)N4C([H])([H])C([H])([H])C([H])([H])C([H])(n5nc(-c6c([H])c([H])c(Oc7c([H])c([H])c(F)c([H])c7F)c([H])c6[H])c(C(=O)N([H])[H])c5N([H])[H])C4([H])[H])c3[H])c([H])c([H])c2C1([H])[H]

$$$$
31:0:0
     RDKit          3D

 92100  0  0  1  0  0  0  0  0999 V2000
  -28.5960  -23.2070   18.9650 C   0  0  0  0  0  3  0  0  0  0  0  0
  -28.6160  -24.6100   18.8690 C   0  0  0  0  0  3  0  0  0  0  0  0
  -28.7880  -24.7680   21.2960 C   0  0  0  0  0  3  0  0  0  0  0  0
  -28.7220  -22.5710   20.2210 C   0  0  0  0  0  0  0  0  0  0  0  0
  -28.7000  -25.3930   20.0340 C   0  0  0  0  0  0  0  0  0  0  0  0
  -28.8300  -23.3520   21.4050 C   0  0  0  0  0  0  0  0  0  0  0  0
  -29.4730  -23.2950   23.7590 C   0  0  0  0  0  1  0  0  0  0  0  0
  -28.9220  -22.6700   22.6030 O   0  0  0  0  0  0  0  0  0  0  0  0
  -28.6770  -21.0870   20.2560 C   0  0  0  0  0  0  0  0  0  0  0  0
  -27.7860  -20.4300   19.7040 O   0  0  0  0  0  0  0  0  0  0  0  0
  -29.8370  -20.3830   20.9770 C   0  0  0  0  0  2  0  0  0  0  0  0
  -30.1440  -18.9580   20.4670 C   0  0  0  0  0  2  0  0  0  0  0  0
  -30.8890  -18.1250   21.5270 C   0  0  0  0  0  2  0  0  0  0  0  0
  -31.5100  -16.8170   20.9930 C   0  0  0  0  0  2  0  0  0  0  0  0
  -30.5320  -15.6200   20.8580 C   0  0  0  0  0  2  0  0  0  0  0  0
  -31.1340  -14.4000   20.1250 C   0  0  0  0  0  0  0  0  0  0  0  0
  -30.7290  -12.2410   18.9990 C   0  0  0  0  0  2  0  0  0  0  0  0
  -29.7710  -12.4700   17.8130 C   0  0  0  0  0  2  0  0  0  0  0  0
  -28.3000  -12.4000   18.2710 C   0  0  0  0  0  2  0  0  0  0  0  0
  -28.0240  -13.2650   19.5300 C   0  0  0  0  0  3  0  0  0  0  0  0
  -29.0920  -13.0140   20.6150 C   0  0  0  0  0  2  0  0  0  0  0  0
  -30.4160  -13.2500   20.0200 N   0  0  0  0  0  0  0  0  0  0  0  0
  -32.2250  -14.5360   19.5620 O   0  0  0  0  0  0  0  0  0  0  0  0
  -25.6700  -13.9750   20.2940 C   0  0  0  0  0  0  0  0  0  0  0  0
  -24.5790  -13.2480   20.6940 C   0  0  0  0  0  0  0  0  0  0  0  0
  -24.9830  -11.8800   20.6560 C   0  0  0  0  0  0  0  0  0  0  0  0
  -26.6730  -13.0500   20.0420 N   0  0  0  0  0  0  0  0  0  0  0  0
  -26.2610  -11.7850   20.3130 N   0  0  0  0  0  0  0  0  0  0  0  0
  -24.2100  -10.6490   20.8710 C   0  0  0  0  0  0  0  0  0  0  0  0
  -24.6110   -9.6800   21.8170 C   0  0  0  0  0  3  0  0  0  0  0  0
  -23.8420   -8.5130   22.0180 C   0  0  0  0  0  3  0  0  0  0  0  0
  -22.6570   -8.3080   21.2720 C   0  0  0  0  0  0  0  0  0  0  0  0
  -22.2740   -9.2650   20.3140 C   0  0  0  0  0  3  0  0  0  0  0  0
  -23.0440  -10.4230   20.1130 C   0  0  0  0  0  3  0  0  0  0  0  0
  -21.8600   -7.1970   21.3830 O   0  0  0  0  0  0  0  0  0  0  0  0
  -21.7570   -6.4980   22.5600 C   0  0  0  0  0  0  0  0  0  0  0  0
  -21.3320   -7.1140   23.7580 C   0  0  0  0  0  3  0  0  0  0  0  0
  -21.1740   -6.3430   24.9280 C   0  0  0  0  0  3  0  0  0  0  0  0
  -21.4290   -4.9590   24.8980 C   0  0  0  0  0  0  0  0  0  0  0  0
  -21.8440   -4.3440   23.7060 C   0  0  0  0  0  3  0  0  0  0  0  0
  -22.0040   -5.1100   22.5390 C   0  0  0  0  0  0  0  0  0  0  0  0
  -22.3850   -4.5070   21.3870 F   0  0  0  0  0  0  0  0  0  0  0  0
  -21.2680   -4.2190   26.0200 F   0  0  0  0  0  0  0  0  0  0  0  0
  -23.2100  -13.7850   21.0030 C   0  0  0  0  0  0  0  0  0  0  0  0
  -22.4840  -13.1310   21.9030 N   0  0  0  0  0  0  0  0  0  0  0  0
  -22.7940  -14.8180   20.4820 O   0  0  0  0  0  0  0  0  0  0  0  0
  -22.8310  -12.2940   22.3470 H   0  0  0  0  0  0  0  0  0  0  0  0
  -21.5660  -13.4710   22.1520 H   0  0  0  0  0  0  0  0  0  0  0  0
  -25.8830  -15.3370   20.1040 N   0  0  0  0  0  0  0  0  0  0  0  0
  -25.1510  -16.0270   20.2330 H   0  0  0  0  0  0  0  0  0  0  0  0
  -26.7480  -15.7380   19.7610 H   0  0  0  0  0  0  0  0  0  0  0  0
  -28.7050  -26.7640   19.9220 O   0  0  0  0  0  0  0  0  0  0  0  0
  -24.7860  -31.6600   23.2610 C   0  0  0  0  0  0  0  0  0  0  0  0
  -27.5070  -27.4420   19.9750 C   0  0  0  0  0  0  0  0  0  0  0  0
  -23.6080  -30.3390   21.5330 C   0  0  0  0  0  3  0  0  0  0  0  0
  -25.0930  -28.9060   20.0390 C   0  0  0  0  0  0  0  0  0  0  0  0
  -26.1290  -30.7440   21.3760 C   0  0  0  0  0  2  0  0  0  0  0  0
  -26.2360  -29.4110   20.6740 C   0  0  0  0  0  0  0  0  0  0  0  0
  -27.4440  -28.6820   20.6450 C   0  0  0  0  0  3  0  0  0  0  0  0
  -26.3480  -26.9450   19.3370 C   0  0  0  0  0  3  0  0  0  0  0  0
  -25.1420  -27.6710   19.3710 C   0  0  0  0  0  3  0  0  0  0  0  0
  -23.8380  -29.7450   20.1160 C   0  0  0  0  0  2  0  0  0  0  0  0
  -24.8590  -30.9260   22.1160 N   0  0  0  0  0  0  0  0  0  0  0  0
  -23.6990  -31.8850   23.8070 O   0  0  0  0  0  0  0  0  0  0  0  0
  -22.9650  -29.2550   22.4290 C   0  0  0  0  0  0  0  0  0  0  0  0
  -21.6470  -29.0540   22.2770 N   0  0  0  0  0  0  0  0  0  0  0  0
  -23.6530  -28.5980   23.2160 O   0  0  0  0  0  0  0  0  0  0  0  0
  -21.1520  -29.6420   21.6210 H   0  0  0  0  0  0  0  0  0  0  0  0
  -18.2920  -27.7750   22.6500 C   0  0  0  0  0  0  0  0  0  0  0  0
  -20.8380  -28.0660   22.9900 C   0  0  0  0  0  3  0  0  0  0  0  0
  -20.9850  -26.6660   22.3500 C   0  0  0  0  0  2  0  0  0  0  0  0
  -19.9120  -26.3680   21.3000 C   0  0  0  0  0  2  0  0  0  0  0  0
  -18.5140  -26.4590   21.9200 C   0  0  0  0  0  2  0  0  0  0  0  0
  -19.3860  -28.5370   23.1390 C   0  0  0  0  0  0  0  0  0  0  0  0
  -19.1300  -29.7720   23.7760 C   0  0  0  0  0  3  0  0  0  0  0  0
  -17.8120  -30.2390   23.9360 C   0  0  0  0  0  3  0  0  0  0  0  0
  -16.7330  -29.4710   23.4640 C   0  0  0  0  0  3  0  0  0  0  0  0
  -16.9720  -28.2420   22.8250 C   0  0  0  0  0  3  0  0  0  0  0  0
  -26.0600  -32.2720   23.9240 C   0  0  0  0  0  3  0  0  0  0  0  0
  -25.7300  -33.6390   24.3400 N   0  0  0  0  0  0  0  0  0  0  0  0
  -26.0500  -34.7410   23.6480 C   0  0  0  0  0  0  0  0  0  0  0  0
  -26.7250  -34.7120   22.6140 O   0  0  0  0  0  0  0  0  0  0  0  0
  -25.1290  -33.7400   25.1440 H   0  0  0  0  0  0  0  0  0  0  0  0
  -24.2940  -36.5220   23.3990 C   0  0  0  0  0  1  0  0  0  0  0  0
  -25.5390  -36.0890   24.1890 C   0  0  0  0  0  3  0  0  0  0  0  0
  -27.6550  -36.9550   25.0830 C   0  0  0  0  0  1  0  0  0  0  0  0
  -26.5520  -37.1660   24.1480 N   0  0  0  0  0  0  0  0  0  0  0  0
  -26.1270  -38.0640   24.3540 H   0  0  0  0  0  0  0  0  0  0  0  0
  -26.5930  -31.4280   25.1450 C   0  0  1  0  0  0  0  0  0  0  0  0
  -25.5060  -31.1090   26.1970 C   0  0  0  0  0  1  0  0  0  0  0  0
  -27.1920  -30.0870   24.6590 C   0  0  0  0  0  1  0  0  0  0  0  0
  -27.7350  -32.1910   25.8550 C   0  0  0  0  0  1  0  0  0  0  0  0
  1  4  1  0
  2  1  2  0
  2  5  1  0
  3  6  1  0
  4  9  1  0
  4  6  2  0
  5  3  2  0
  6  8  1  0
  8  7  1  0
  9 11  1  0
 10  9  2  0
 12 11  1  0
 12 13  1  0
 14 13  1  0
 15 14  1  0
 16 15  1  0
 17 22  1  0
 18 19  1  0
 18 17  1  0
 20 19  1  0
 20 27  1  0
 20 21  1  0
 22 16  1  0
 22 21  1  0
 23 16  2  0
 24 25  2  0
 25 44  1  0
 26 25  1  0
 26 29  1  0
 27 24  1  0
 27 28  1  0
 28 26  2  0
 29 30  1  0
 30 31  2  0
 32 35  1  0
 32 31  1  0
 33 32  2  0
 34 33  1  0
 34 29  2  0
 35 36  1  0
 36 37  1  0
 37 38  2  0
 39 38  1  0
 39 43  1  0
 40 39  2  0
 41 36  2  0
 41 40  1  0
 42 41  1  0
 44 45  1  0
 45 48  1  0
 45 47  1  0
 46 44  2  0
 49 50  1  0
 49 24  1  0
 51 49  1  0
 52 54  1  0
 52  5  1  0
 53 64  2  0
 54 59  1  0
 55 63  1  0
 55 65  1  0
 56 62  1  0
 56 58  1  0
 57 63  1  0
 58 57  1  0
 59 58  2  0
 60 61  1  0
 60 54  2  0
 61 56  2  0
 62 55  1  0
 63 53  1  0
 65 67  2  0
 66 65  1  0
 68 66  1  0
 69 78  2  0
 69 74  1  0
 70 66  1  0
 70 74  1  0
 71 70  1  0
 72 73  1  0
 72 71  1  0
 73 69  1  0
 74 75  2  0
 75 76  1  0
 77 76  2  0
 78 77  1  0
 79 53  1  0
 79 80  1  0
 79 89  1  0
 80 83  1  0
 81 85  1  0
 81 80  1  0
 82 81  2  0
 85 84  1  0
 87 85  1  0
 87 88  1  0
 87 86  1  0
 89 92  1  1
 89 90  1  0
 91 89  1  0
M  ISO  4   5 101  15 100  16 100  52 101
M  END
>  <TORSDO>  (31) 
F 23

>  <SCORE>  (31) 
-12.152

>  <name>  (31) 
31

>  <ligand_id>  (31) 
31

>  <original_smiles>  (31) 
[H]c1c([H])c([H])c2c(c1[H])C([H])([H])C([H])([H])C([H])([H])C2([H])N([H])C(=O)C1([H])N(C(=O)C([H])(N([H])C(=O)C([H])(N([H])C([H])([H])[H])C([H])([H])[H])C(C([H])([H])[H])(C([H])([H])[H])C([H])([H])[H])C([H])([H])c2c([H])c(Oc3c([H])c([H])c(C(=O)C([H])([H])C([H])([H])C([H])([H])C([H])([H])C([H])([H])C(=O)N4C([H])([H])C([H])([H])C([H])([H])C([H])(n5nc(-c6c([H])c([H])c(Oc7c([H])c([H])c(F)c([H])c7F)c([H])c6[H])c(C(=O)N([H])[H])c5N([H])[H])C4([H])[H])c(OC([H])([H])[H])c3[H])c([H])c([H])c2C1([H])[H]

>  <smiles>  (31) 
[H]c1c([H])c([H])c2c(c1[H])C([H])([H])C([H])([H])C([H])([H])C2([H])N([H])C(=O)C1([H])N(C(=O)C([H])(N([H])C(=O)C([H])(N([H])C([H])([H])[H])C([H])([H])[H])C(C([H])([H])[H])(C([H])([H])[H])C([H])([H])[H])C([H])([H])c2c([H])c(Oc3c([H])c([H])c(C(=O)C([H])([H])C([H])([H])C([H])([H])C([H])([H])C([H])([H])C(=O)N4C([H])([H])C([H])([H])C([H])([H])C([H])(n5nc(-c6c([H])c([H])c(Oc7c([H])c([H])c(F)c([H])c7F)c([H])c6[H])c(C(=O)N([H])[H])c5N([H])[H])C4([H])[H])c(OC([H])([H])[H])c3[H])c([H])c([H])c2C1([H])[H]

$$$$
32:0:0
     RDKit          3D

 92 98  0  0  1  0  0  0  0  0999 V2000
  -20.8390  -25.9360   21.8340 C   0  0  0  0  0  1  0  0  0  0  0  0
  -21.8180  -24.6370   21.7120 C   0  0  0  0  0  2  0  0  0  0  0  0
  -21.7840  -27.6290   20.7750 C   0  0  0  0  0  3  0  0  0  0  0  0
  -23.8190  -25.8820   20.3490 C   0  0  0  0  0  3  0  0  0  0  0  0
  -23.2140  -24.6390   20.9630 C   0  0  0  0  0  0  0  0  0  0  0  0
  -23.4740  -27.3520   20.3030 C   0  0  0  0  0  3  0  0  0  0  0  0
  -24.1670  -23.2970   20.7800 C   0  0  0  0  0  0  0  0  0  0  0  0
  -24.4150  -22.6550   21.8020 O   0  0  0  0  0  0  0  0  0  0  0  0
  -24.8850  -22.6510   19.3900 C   0  0  0  0  0  2  0  0  0  0  0  0
  -25.0650  -20.9820   18.9520 C   0  0  0  0  0  2  0  0  0  0  0  0
  -26.2430  -20.2110   17.9410 C   0  0  0  0  0  2  0  0  0  0  0  0
  -26.7950  -18.5690   17.9490 C   0  0  0  0  0  2  0  0  0  0  0  0
  -28.3960  -17.9190   17.7640 C   0  0  0  0  0  2  0  0  0  0  0  0
  -30.3640  -16.1280   18.9340 C   0  0  0  0  0  0  0  0  0  0  0  0
  -31.2580  -13.7960   19.5190 C   0  0  0  0  0  2  0  0  0  0  0  0
  -30.5950  -12.7820   18.5500 C   0  0  0  0  0  2  0  0  0  0  0  0
  -29.1560  -12.4300   18.9950 C   0  0  0  0  0  2  0  0  0  0  0  0
  -28.3600  -13.6940   19.4070 C   0  0  0  0  0  3  0  0  0  0  0  0
  -29.1550  -14.5410   20.4090 C   0  0  0  0  0  2  0  0  0  0  0  0
  -30.3360  -14.9600   19.6790 N   0  0  0  0  0  0  0  0  0  0  0  0
  -31.4850  -16.4580   18.4960 O   0  0  0  0  0  0  0  0  0  0  0  0
  -29.0760  -16.7430   18.6370 N   0  0  0  0  0  0  0  0  0  0  0  0
  -28.3700  -16.2340   19.1460 H   0  0  0  0  0  0  0  0  0  0  0  0
  -26.0230  -14.2990   20.2220 C   0  0  0  0  0  0  0  0  0  0  0  0
  -24.9750  -13.5300   20.6380 C   0  0  0  0  0  0  0  0  0  0  0  0
  -25.4350  -12.1780   20.5790 C   0  0  0  0  0  0  0  0  0  0  0  0
  -27.0400  -13.4100   19.9220 N   0  0  0  0  0  0  0  0  0  0  0  0
  -26.7050  -12.1320   20.2050 N   0  0  0  0  0  0  0  0  0  0  0  0
  -24.7240  -10.9170   20.7910 C   0  0  0  0  0  0  0  0  0  0  0  0
  -25.1940   -9.9480   21.7030 C   0  0  0  0  0  3  0  0  0  0  0  0
  -24.4800   -8.7470   21.8960 C   0  0  0  0  0  3  0  0  0  0  0  0
  -23.2850   -8.5100   21.1770 C   0  0  0  0  0  0  0  0  0  0  0  0
  -22.8360   -9.4700   20.2520 C   0  0  0  0  0  3  0  0  0  0  0  0
  -23.5500  -10.6630   20.0570 C   0  0  0  0  0  3  0  0  0  0  0  0
  -22.5380   -7.3630   21.2810 O   0  0  0  0  0  0  0  0  0  0  0  0
  -22.1760   -6.8520   22.5010 C   0  0  0  0  0  0  0  0  0  0  0  0
  -21.5290   -7.6390   23.4780 C   0  0  0  0  0  3  0  0  0  0  0  0
  -21.1130   -7.0560   24.6910 C   0  0  0  0  0  3  0  0  0  0  0  0
  -21.3340   -5.6850   24.9250 C   0  0  0  0  0  0  0  0  0  0  0  0
  -21.9740   -4.8980   23.9510 C   0  0  0  0  0  3  0  0  0  0  0  0
  -22.3920   -5.4800   22.7420 C   0  0  0  0  0  0  0  0  0  0  0  0
  -22.9900   -4.7130   21.7980 F   0  0  0  0  0  0  0  0  0  0  0  0
  -20.9260   -5.1210   26.0850 F   0  0  0  0  0  0  0  0  0  0  0  0
  -23.5940  -14.0110   20.9710 C   0  0  0  0  0  0  0  0  0  0  0  0
  -22.9680  -13.4230   21.9810 N   0  0  0  0  0  0  0  0  0  0  0  0
  -23.0820  -14.9500   20.3620 O   0  0  0  0  0  0  0  0  0  0  0  0
  -23.3990  -12.6720   22.4990 H   0  0  0  0  0  0  0  0  0  0  0  0
  -22.0410  -13.7310   22.2440 H   0  0  0  0  0  0  0  0  0  0  0  0
  -26.1860  -15.6700   20.0460 N   0  0  0  0  0  0  0  0  0  0  0  0
  -25.4110  -16.3090   20.1860 H   0  0  0  0  0  0  0  0  0  0  0  0
  -26.9840  -16.1050   19.6020 H   0  0  0  0  0  0  0  0  0  0  0  0
  -25.0230  -27.9400   20.5860 O   0  0  0  0  0  0  0  0  0  0  0  0
  -24.7130  -32.2720   23.8970 C   0  0  0  0  0  0  0  0  0  0  0  0
  -26.2780  -28.4090   19.9820 C   0  0  0  0  0  3  0  0  0  0  0  0
  -23.5410  -31.4260   21.9360 C   0  0  0  0  0  3  0  0  0  0  0  0
  -24.9170  -30.5660   19.9390 C   0  0  0  0  0  3  0  0  0  0  0  0
  -26.0740  -31.6890   21.8660 C   0  0  0  0  0  2  0  0  0  0  0  0
  -26.0200  -30.6010   20.8040 C   0  0  0  0  0  3  0  0  0  0  0  0
  -26.8880  -29.4940   20.7080 C   0  0  0  0  0  2  0  0  0  0  0  0
  -25.9480  -28.7400   18.6970 C   0  0  0  0  0  2  0  0  0  0  0  0
  -24.9510  -29.7230   18.7910 C   0  0  0  0  0  2  0  0  0  0  0  0
  -23.6800  -31.2890   20.3820 C   0  0  0  0  0  2  0  0  0  0  0  0
  -24.7950  -31.8680   22.5960 N   0  0  0  0  0  0  0  0  0  0  0  0
  -23.6190  -32.3730   24.4770 O   0  0  0  0  0  0  0  0  0  0  0  0
  -23.1280  -30.1420   22.6730 C   0  0  0  0  0  0  0  0  0  0  0  0
  -21.8960  -30.0070   23.1090 N   0  0  0  0  0  0  0  0  0  0  0  0
  -23.9580  -29.2920   22.9620 O   0  0  0  0  0  0  0  0  0  0  0  0
  -21.2260  -30.7500   22.9710 H   0  0  0  0  0  0  0  0  0  0  0  0
  -18.5690  -28.9760   22.4560 C   0  0  0  0  0  0  0  0  0  0  0  0
  -21.3740  -28.6910   23.5080 C   0  0  0  0  0  2  0  0  0  0  0  0
  -22.2720  -27.1760   22.5580 C   0  0  0  0  0  1  0  0  0  0  0  0
  -20.0610  -27.0150   20.0590 C   0  0  0  0  0  1  0  0  0  0  0  0
  -18.6140  -28.1380   20.8610 C   0  0  0  0  0  1  0  0  0  0  0  0
  -19.7190  -29.2320   23.4420 C   0  0  0  0  0  0  0  0  0  0  0  0
  -19.4450  -30.1630   24.5170 C   0  0  0  0  0  3  0  0  0  0  0  0
  -18.1880  -30.7090   24.8510 C   0  0  0  0  0  3  0  0  0  0  0  0
  -17.0770  -30.2660   24.1300 C   0  0  0  0  0  3  0  0  0  0  0  0
  -17.2770  -29.4300   22.9840 C   0  0  0  0  0  3  0  0  0  0  0  0
  -25.9770  -32.6480   24.7040 C   0  0  0  0  0  3  0  0  0  0  0  0
  -25.8490  -34.0780   25.0000 N   0  0  0  0  0  0  0  0  0  0  0  0
  -26.4500  -35.0470   24.3030 C   0  0  0  0  0  0  0  0  0  0  0  0
  -27.2590  -34.8140   23.4000 O   0  0  0  0  0  0  0  0  0  0  0  0
  -25.1620  -34.3390   25.6920 H   0  0  0  0  0  0  0  0  0  0  0  0
  -25.1340  -37.0830   23.6390 C   0  0  0  0  0  1  0  0  0  0  0  0
  -26.1090  -36.5000   24.6740 C   0  0  0  0  0  3  0  0  0  0  0  0
  -28.1580  -37.0290   25.9170 C   0  0  0  0  0  1  0  0  0  0  0  0
  -27.3010  -37.3680   24.7830 N   0  0  0  0  0  0  0  0  0  0  0  0
  -27.0310  -38.3430   24.8690 H   0  0  0  0  0  0  0  0  0  0  0  0
  -26.1510  -31.8190   26.0360 C   0  0  1  0  0  0  0  0  0  0  0  0
  -24.8580  -31.6910   26.8770 C   0  0  0  0  0  1  0  0  0  0  0  0
  -26.6570  -30.3900   25.7370 C   0  0  0  0  0  1  0  0  0  0  0  0
  -27.2310  -32.4930   26.9150 C   0  0  0  0  0  1  0  0  0  0  0  0
  2  1  1  0
  3 71  1  0
  4  5  2  0
  5  2  1  0
  6  4  1  0
  6 52  1  0
  6  3  1  0
  7  5  1  0
  7  8  2  0
  9  7  1  0
 10  9  1  0
 11 12  1  0
 11 10  1  0
 13 12  1  0
 13 22  1  0
 14 20  1  0
 15 20  1  0
 16 17  1  0
 16 15  1  0
 18 17  1  0
 18 27  1  0
 18 19  1  0
 20 19  1  0
 21 14  2  0
 22 14  1  0
 22 23  1  0
 24 25  2  0
 25 44  1  0
 26 25  1  0
 26 29  1  0
 27 28  1  0
 27 24  1  0
 28 26  2  0
 29 30  1  0
 30 31  2  0
 32 35  1  0
 32 31  1  0
 33 32  2  0
 34 33  1  0
 34 29  2  0
 35 36  1  0
 36 41  2  0
 36 37  1  0
 37 38  2  0
 38 39  1  0
 39 43  1  0
 40 39  2  0
 41 40  1  0
 42 41  1  0
 44 45  1  0
 45 48  1  0
 45 47  1  0
 46 44  2  0
 49 50  1  0
 49 24  1  0
 51 49  1  0
 53 64  2  0
 54 52  1  0
 54 59  1  0
 55 63  1  0
 55 65  1  0
 56 61  1  0
 56 62  1  0
 56 58  1  0
 57 63  1  0
 58 59  1  0
 58 57  1  0
 60 61  1  0
 60 54  1  0
 62 55  1  0
 63 53  1  0
 65 67  2  0
 65 66  1  0
 66 70  1  0
 68 66  1  0
 69 78  2  0
 69 74  1  0
 72  3  1  0
 73 69  1  0
 74 70  1  0
 74 75  2  0
 75 76  1  0
 77 76  2  0
 78 77  1  0
 79 53  1  0
 79 80  1  0
 79 89  1  0
 80 83  1  0
 81 85  1  0
 81 80  1  0
 82 81  2  0
 85 84  1  0
 85 87  1  0
 87 88  1  0
 87 86  1  0
 89 90  1  1
 89 92  1  0
 91 89  1  0
M  ISO  4   6 101  14 100  22 100  52 101
M  END
>  <TORSDO>  (32) 
F 22

>  <SCORE>  (32) 
-7.237

>  <name>  (32) 
32

>  <ligand_id>  (32) 
32

>  <original_smiles>  (32) 
[H]c1c([H])c(Oc2c([H])c([H])c3c(c2[H])C([H])([H])N(C(=O)C([H])(N([H])C(=O)C([H])(N([H])C([H])([H])[H])C([H])([H])[H])C(C([H])([H])[H])(C([H])([H])[H])C([H])([H])[H])C([H])(C(=O)N([H])C2([H])c4c([H])c([H])c([H])c([H])c4C([H])([H])C([H])([H])C2([H])[H])C3([H])[H])c([H])c(C(=O)C([H])([H])C([H])([H])C([H])([H])C([H])([H])C([H])([H])N([H])C(=O)N2C([H])([H])C([H])([H])C([H])([H])C([H])(n3nc(-c4c([H])c([H])c(Oc5c([H])c([H])c(F)c([H])c5F)c([H])c4[H])c(C(=O)N([H])[H])c3N([H])[H])C2([H])[H])c1[H]

>  <smiles>  (32) 
[H]c1c([H])c(Oc2c([H])c([H])c3c(c2[H])C([H])([H])N(C(=O)C([H])(N([H])C(=O)C([H])(N([H])C([H])([H])[H])C([H])([H])[H])C(C([H])([H])[H])(C([H])([H])[H])C([H])([H])[H])C([H])(C(=O)N([H])C2([H])c4c([H])c([H])c([H])c([H])c4C([H])([H])C([H])([H])C2([H])[H])C3([H])[H])c([H])c(C(=O)C([H])([H])C([H])([H])C([H])([H])C([H])([H])C([H])([H])N([H])C(=O)N2C([H])([H])C([H])([H])C([H])([H])C([H])(n3nc(-c4c([H])c([H])c(Oc5c([H])c([H])c(F)c([H])c5F)c([H])c4[H])c(C(=O)N([H])[H])c3N([H])[H])C2([H])[H])c1[H]

$$$$
33:0:0
     RDKit          3D

 94 98  0  0  1  0  0  0  0  0999 V2000
  -22.5800  -26.8790   21.3710 C   0  0  0  0  0  1  0  0  0  0  0  0
  -23.1260  -27.5780   23.3970 C   0  0  0  0  0  1  0  0  0  0  0  0
  -25.2500  -26.5350   21.0500 C   0  0  0  0  0  2  0  0  0  0  0  0
  -25.7220  -26.8950   22.4400 C   0  0  0  0  0  0  0  0  0  0  0  0
  -23.9550  -26.6270   20.2800 C   0  0  0  0  0  3  0  0  0  0  0  0
  -24.7490  -27.4460   23.5690 C   0  0  0  0  0  0  0  0  0  0  0  0
  -24.7980  -28.9700   25.4030 C   0  0  0  0  0  1  0  0  0  0  0  0
  -25.3480  -27.8370   24.7430 O   0  0  0  0  0  0  0  0  0  0  0  0
  -27.3720  -26.7100   22.6090 C   0  0  0  0  0  0  0  0  0  0  0  0
  -27.8050  -26.4590   23.7360 O   0  0  0  0  0  0  0  0  0  0  0  0
  -28.6110  -26.7980   21.4540 C   0  0  0  0  0  3  0  0  0  0  0  0
  -29.7680  -28.0720   21.2020 C   0  0  0  0  0  3  0  0  0  0  0  0
  -31.2620  -28.0750   20.3250 C   0  0  0  0  0  2  0  0  0  0  0  0
  -31.6080  -28.6570   18.7320 C   0  0  0  0  0  2  0  0  0  0  0  0
  -33.0440  -29.3860   18.0880 C   0  0  0  0  0  2  0  0  0  0  0  0
  -34.7230  -29.3820   15.7350 C   0  0  0  0  0  0  0  0  0  0  0  0
  -34.8830  -29.1390   13.1890 C   0  0  0  0  0  2  0  0  0  0  0  0
  -33.4600  -29.2940   12.5860 C   0  0  0  0  0  2  0  0  0  0  0  0
  -32.6290  -28.0040   12.7460 C   0  0  0  0  0  2  0  0  0  0  0  0
  -32.7850  -27.3870   14.1580 C   0  0  0  0  0  3  0  0  0  0  0  0
  -34.2650  -27.2530   14.5450 C   0  0  0  0  0  2  0  0  0  0  0  0
  -34.7690  -28.6120   14.5850 N   0  0  0  0  0  0  0  0  0  0  0  0
  -35.2970  -30.4880   15.6710 O   0  0  0  0  0  0  0  0  0  0  0  0
  -33.8910  -28.8860   16.8160 N   0  0  0  0  0  0  0  0  0  0  0  0
  -33.6730  -27.9230   16.6170 H   0  0  0  0  0  0  0  0  0  0  0  0
  -31.1950  -25.7350   15.2650 C   0  0  0  0  0  0  0  0  0  0  0  0
  -30.8180  -24.4660   14.9270 C   0  0  0  0  0  0  0  0  0  0  0  0
  -31.5590  -24.1350   13.7500 C   0  0  0  0  0  0  0  0  0  0  0  0
  -32.1100  -26.1180   14.3010 N   0  0  0  0  0  0  0  0  0  0  0  0
  -32.3810  -25.1220   13.4250 N   0  0  0  0  0  0  0  0  0  0  0  0
  -31.4830  -22.9680   12.8700 C   0  0  0  0  0  0  0  0  0  0  0  0
  -32.6450  -22.2840   12.4480 C   0  0  0  0  0  3  0  0  0  0  0  0
  -32.5390  -21.1500   11.6150 C   0  0  0  0  0  3  0  0  0  0  0  0
  -31.2670  -20.6930   11.1980 C   0  0  0  0  0  0  0  0  0  0  0  0
  -30.1170  -21.3950   11.6010 C   0  0  0  0  0  3  0  0  0  0  0  0
  -30.2240  -22.5260   12.4250 C   0  0  0  0  0  3  0  0  0  0  0  0
  -31.0700  -19.6180   10.3650 O   0  0  0  0  0  0  0  0  0  0  0  0
  -32.0470  -18.6740   10.1690 C   0  0  0  0  0  0  0  0  0  0  0  0
  -32.5310  -17.8730   11.2270 C   0  0  0  0  0  3  0  0  0  0  0  0
  -33.4830  -16.8670   10.9680 C   0  0  0  0  0  3  0  0  0  0  0  0
  -33.9460  -16.6550    9.6550 C   0  0  0  0  0  0  0  0  0  0  0  0
  -33.4610  -17.4490    8.6010 C   0  0  0  0  0  3  0  0  0  0  0  0
  -32.5110  -18.4540    8.8580 C   0  0  0  0  0  0  0  0  0  0  0  0
  -32.0310  -19.2010    7.8350 F   0  0  0  0  0  0  0  0  0  0  0  0
  -34.8540  -15.6840    9.4050 F   0  0  0  0  0  0  0  0  0  0  0  0
  -29.7550  -23.6490   15.5990 C   0  0  0  0  0  0  0  0  0  0  0  0
  -29.9740  -22.3460   15.7230 N   0  0  0  0  0  0  0  0  0  0  0  0
  -28.7460  -24.1740   16.0660 O   0  0  0  0  0  0  0  0  0  0  0  0
  -30.8150  -21.9220   15.3630 H   0  0  0  0  0  0  0  0  0  0  0  0
  -29.2880  -21.7670   16.1890 H   0  0  0  0  0  0  0  0  0  0  0  0
  -30.8220  -26.6060   16.2830 N   0  0  0  0  0  0  0  0  0  0  0  0
  -30.1140  -26.3700   16.9700 H   0  0  0  0  0  0  0  0  0  0  0  0
  -31.1070  -27.5750   16.3280 H   0  0  0  0  0  0  0  0  0  0  0  0
  -24.5990  -27.1980   18.8330 O   0  0  0  0  0  0  0  0  0  0  0  0
  -21.7420  -24.2160   15.2180 C   0  0  0  0  0  0  0  0  0  0  0  0
  -25.7720  -27.2330   17.9510 C   0  0  0  0  0  3  0  0  0  0  0  0
  -22.7970  -23.8620   17.3870 C   0  0  0  0  0  3  0  0  0  0  0  0
  -25.1750  -24.7550   17.7710 C   0  0  0  0  0  3  0  0  0  0  0  0
  -24.1610  -24.8490   15.4730 C   0  0  0  0  0  2  0  0  0  0  0  0
  -25.0030  -25.4710   16.5780 C   0  0  0  0  0  3  0  0  0  0  0  0
  -25.4920  -26.7930   16.6040 C   0  0  0  0  0  2  0  0  0  0  0  0
  -26.7130  -26.4680   18.5790 C   0  0  0  0  0  2  0  0  0  0  0  0
  -26.1480  -25.1890   18.7160 C   0  0  0  0  0  2  0  0  0  0  0  0
  -24.1980  -23.6580   18.0570 C   0  0  0  0  0  2  0  0  0  0  0  0
  -22.8860  -24.2690   15.9600 N   0  0  0  0  0  0  0  0  0  0  0  0
  -20.6880  -23.7530   15.6850 O   0  0  0  0  0  0  0  0  0  0  0  0
  -21.9100  -24.9280   18.0520 C   0  0  0  0  0  0  0  0  0  0  0  0
  -20.6620  -24.6510   18.3370 N   0  0  0  0  0  0  0  0  0  0  0  0
  -22.3160  -26.0680   18.2150 O   0  0  0  0  0  0  0  0  0  0  0  0
  -20.2860  -23.7370   18.1220 H   0  0  0  0  0  0  0  0  0  0  0  0
  -17.2520  -24.0740   19.0750 C   0  0  0  0  0  0  0  0  0  0  0  0
  -19.8850  -25.5100   19.2430 C   0  0  0  0  0  2  0  0  0  0  0  0
  -20.5470  -25.4590   21.1330 C   0  0  0  0  0 15  0  0  0  0  0  0
  -18.4880  -23.0040   22.1030 C   0  0  0  0  0 15  0  0  0  0  0  0
  -17.2370  -23.0270   20.5390 C   0  0  0  0  0  1  0  0  0  0  0  0
  -18.3700  -24.9940   18.5670 C   0  0  0  0  0  0  0  0  0  0  0  0
  -18.2110  -25.5170   17.2240 C   0  0  0  0  0  3  0  0  0  0  0  0
  -17.0550  -25.4240   16.4220 C   0  0  0  0  0  3  0  0  0  0  0  0
  -15.9280  -24.8160   16.9790 C   0  0  0  0  0  3  0  0  0  0  0  0
  -16.0380  -24.1720   18.2520 C   0  0  0  0  0  3  0  0  0  0  0  0
  -21.7110  -24.7110   13.7530 C   0  0  0  0  0  3  0  0  0  0  0  0
  -20.3740  -25.2760   13.5520 N   0  0  0  0  0  0  0  0  0  0  0  0
  -19.5130  -24.8520   12.6220 C   0  0  0  0  0  0  0  0  0  0  0  0
  -19.8090  -24.0040   11.7760 O   0  0  0  0  0  0  0  0  0  0  0  0
  -20.0490  -25.9310   14.2480 H   0  0  0  0  0  0  0  0  0  0  0  0
  -17.0500  -24.3610   12.7920 C   0  0  0  0  0  1  0  0  0  0  0  0
  -18.1030  -25.4690   12.6280 C   0  0  0  0  0  3  0  0  0  0  0  0
  -18.5770  -27.5090   11.3510 C   0  0  0  0  0  1  0  0  0  0  0  0
  -17.8130  -26.2660   11.4170 N   0  0  0  0  0  0  0  0  0  0  0  0
  -16.8250  -26.4970   11.3670 H   0  0  0  0  0  0  0  0  0  0  0  0
  -22.8200  -25.7830   13.4220 C   0  0  1  0  0  0  0  0  0  0  0  0
  -23.0830  -26.7950   14.5620 C   0  0  0  0  0  1  0  0  0  0  0  0
  -24.1660  -25.1040   13.0790 C   0  0  0  0  0  1  0  0  0  0  0  0
  -22.3970  -26.5760   12.1640 C   0  0  0  0  0  1  0  0  0  0  0  0
  2  6  1  0
  3  4  1  0
  4  9  1  0
  4  6  2  0
  5  3  1  0
  5  1  1  0
  6  8  1  0
  8  7  1  0
  9 10  2  0
 11  9  1  0
 12 11  2  0
 13 12  1  0
 14 13  1  0
 15 14  1  0
 16 24  1  0
 17 22  1  0
 18 19  1  0
 18 17  1  0
 20 19  1  0
 20 29  1  0
 20 21  1  0
 21 22  1  0
 22 16  1  0
 23 16  2  0
 24 15  1  0
 25 24  1  0
 26 51  1  0
 27 26  2  0
 27 46  1  0
 28 27  1  0
 29 26  1  0
 30 28  2  0
 30 29  1  0
 31 28  1  0
 32 31  1  0
 33 32  2  0
 34 35  2  0
 34 33  1  0
 35 36  1  0
 36 31  2  0
 37 34  1  0
 38 37  1  0
 38 39  1  0
 40 39  2  0
 41 40  1  0
 42 43  1  0
 42 41  2  0
 43 38  2  0
 44 43  1  0
 45 41  1  0
 46 47  1  0
 46 48  2  0
 47 50  1  0
 49 47  1  0
 51 53  1  0
 51 52  1  0
 54  5  1  0
 55 66  2  0
 55 65  1  0
 56 62  1  0
 56 54  1  0
 57 67  1  0
 57 64  1  0
 58 64  1  0
 58 63  1  0
 59 65  1  0
 60 59  1  0
 60 61  1  0
 60 58  1  0
 61 56  1  0
 62 63  1  0
 65 57  1  0
 67 69  2  0
 67 68  1  0
 68 72  1  0
 70 68  1  0
 71 75  1  0
 76 71  1  0
 76 72  1  0
 77 76  2  0
 78 79  2  0
 78 77  1  0
 79 80  1  0
 80 71  2  0
 81 55  1  0
 82 81  1  0
 82 85  1  0
 83 87  1  0
 83 82  1  0
 84 83  2  0
 87 86  1  0
 88 89  1  0
 89 87  1  0
 90 89  1  0
 91 81  1  0
 91 92  1  1
 93 91  1  0
 94 91  1  0
M  ISO  4   5 101  16 100  24 100  54 101
M  END
>  <TORSDO>  (33) 
F 23

>  <SCORE>  (33) 
-6.003

>  <name>  (33) 
33

>  <ligand_id>  (33) 
33

>  <original_smiles>  (33) 
[H]c1c([H])c([H])c2c(c1[H])C([H])([H])C([H])([H])C([H])([H])C2([H])N([H])C(=O)C1([H])N(C(=O)C([H])(N([H])C(=O)C([H])(N([H])C([H])([H])[H])C([H])([H])[H])C(C([H])([H])[H])(C([H])([H])[H])C([H])([H])[H])C([H])([H])c2c([H])c(Oc3c([H])c([H])c(OC([H])([H])[H])c(C(=O)C([H])([H])C([H])([H])C([H])([H])C([H])([H])C([H])([H])N([H])C(=O)N4C([H])([H])C([H])([H])C([H])([H])C([H])(n5nc(-c6c([H])c([H])c(Oc7c([H])c([H])c(F)c([H])c7F)c([H])c6[H])c(C(=O)N([H])[H])c5N([H])[H])C4([H])[H])c3[H])c([H])c([H])c2C1([H])[H]

>  <smiles>  (33) 
[H]c1c([H])c([H])c2c(c1[H])C([H])([H])C([H])([H])C([H])([H])C2([H])N([H])C(=O)C1([H])N(C(=O)C([H])(N([H])C(=O)C([H])(N([H])C([H])([H])[H])C([H])([H])[H])C(C([H])([H])[H])(C([H])([H])[H])C([H])([H])[H])C([H])([H])c2c([H])c(Oc3c([H])c([H])c(OC([H])([H])[H])c(C(=O)C([H])([H])C([H])([H])C([H])([H])C([H])([H])C([H])([H])N([H])C(=O)N4C([H])([H])C([H])([H])C([H])([H])C([H])(n5nc(-c6c([H])c([H])c(Oc7c([H])c([H])c(F)c([H])c7F)c([H])c6[H])c(C(=O)N([H])[H])c5N([H])[H])C4([H])[H])c3[H])c([H])c([H])c2C1([H])[H]

$$$$
34:0:0
     RDKit          3D

102111  0  0  1  0  0  0  0  0999 V2000
  -29.7570  -28.0800   19.5860 C   0  0  0  0  0  3  0  0  0  0  0  0
  -30.9540  -28.0460   20.3210 C   0  0  0  0  0  0  0  0  0  0  0  0
  -31.1540  -27.0450   21.3080 C   0  0  0  0  0  0  0  0  0  0  0  0
  -30.1090  -26.1070   21.5850 C   0  0  0  0  0  0  0  0  0  0  0  0
  -28.8680  -26.2210   20.8920 C   0  0  0  0  0  0  0  0  0  0  0  0
  -28.7180  -27.1810   19.8650 C   0  0  0  0  0  0  0  0  0  0  0  0
  -32.0080  -29.0930   19.9950 C   0  0  0  0  0  1  0  0  0  0  0  0
  -27.6830  -25.3090   21.1920 C   0  0  0  0  0  1  0  0  0  0  0  0
  -32.5720  -28.0420   23.1760 C   0  0  0  0  0  1  0  0  0  0  0  0
  -32.4910  -26.9940   22.0570 C   0  0  0  0  0  2  0  0  0  0  0  0
  -27.6020  -27.2030   19.0680 O   0  0  0  0  0  0  0  0  0  0  0  0
  -24.5810  -32.0900   23.3120 C   0  0  0  0  0  0  0  0  0  0  0  0
  -26.5180  -27.9770   19.4050 C   0  0  0  0  0  0  0  0  0  0  0  0
  -23.0650  -30.9030   21.7570 C   0  0  0  0  0  3  0  0  0  0  0  0
  -24.2060  -29.4910   19.9700 C   0  0  0  0  0  0  0  0  0  0  0  0
  -25.5340  -31.2300   21.1810 C   0  0  0  0  0  2  0  0  0  0  0  0
  -25.4590  -29.9330   20.4100 C   0  0  0  0  0  0  0  0  0  0  0  0
  -26.6190  -29.1850   20.1290 C   0  0  0  0  0  3  0  0  0  0  0  0
  -25.2490  -27.5370   18.9730 C   0  0  0  0  0  3  0  0  0  0  0  0
  -24.0940  -28.2890   19.2510 C   0  0  0  0  0  3  0  0  0  0  0  0
  -23.0180  -30.3630   20.3020 C   0  0  0  0  0  2  0  0  0  0  0  0
  -24.4210  -31.4160   22.1390 N   0  0  0  0  0  0  0  0  0  0  0  0
  -23.6150  -32.3320   24.0480 O   0  0  0  0  0  0  0  0  0  0  0  0
  -22.5370  -29.8040   22.7040 C   0  0  0  0  0  0  0  0  0  0  0  0
  -21.2260  -29.5240   22.6220 N   0  0  0  0  0  0  0  0  0  0  0  0
  -23.3000  -29.2050   23.4670 O   0  0  0  0  0  0  0  0  0  0  0  0
  -20.6700  -30.0680   21.9780 H   0  0  0  0  0  0  0  0  0  0  0  0
  -18.1090  -27.7180   22.8600 C   0  0  0  0  0  0  0  0  0  0  0  0
  -20.5160  -28.5000   23.3850 C   0  0  0  0  0  3  0  0  0  0  0  0
  -20.9590  -27.0800   22.9640 C   0  0  0  0  0  2  0  0  0  0  0  0
  -20.0740  -26.4700   21.8720 C   0  0  0  0  0  2  0  0  0  0  0  0
  -18.6200  -26.3840   22.3430 C   0  0  0  0  0  2  0  0  0  0  0  0
  -18.9980  -28.7160   23.3350 C   0  0  0  0  0  0  0  0  0  0  0  0
  -18.4720  -29.9520   23.7700 C   0  0  0  0  0  3  0  0  0  0  0  0
  -17.0850  -30.1920   23.7430 C   0  0  0  0  0  3  0  0  0  0  0  0
  -16.2070  -29.1940   23.2850 C   0  0  0  0  0  3  0  0  0  0  0  0
  -16.7190  -27.9590   22.8490 C   0  0  0  0  0  3  0  0  0  0  0  0
  -25.9780  -32.6120   23.7730 C   0  0  0  0  0  3  0  0  0  0  0  0
  -26.6060  -31.7610   24.9450 C   0  0  1  0  0  0  0  0  0  0  0  0
  -25.6310  -31.5110   26.1200 C   0  0  0  0  0  1  0  0  0  0  0  0
  -27.0890  -30.3880   24.4220 C   0  0  0  0  0  1  0  0  0  0  0  0
  -27.8530  -32.4850   25.5060 C   0  0  0  0  0  1  0  0  0  0  0  0
  -25.8140  -34.0130   24.1790 N   0  0  0  0  0  0  0  0  0  0  0  0
  -26.1390  -35.0670   23.4180 C   0  0  0  0  0  0  0  0  0  0  0  0
  -26.6800  -34.9560   22.3130 O   0  0  0  0  0  0  0  0  0  0  0  0
  -25.3220  -34.1770   25.0440 H   0  0  0  0  0  0  0  0  0  0  0  0
  -24.5060  -36.9780   23.3310 C   0  0  0  0  0  1  0  0  0  0  0  0
  -25.8090  -36.4660   23.9690 C   0  0  0  0  0  3  0  0  0  0  0  0
  -28.0690  -37.2100   24.5770 C   0  0  0  0  0  1  0  0  0  0  0  0
  -26.8880  -37.4540   23.7520 N   0  0  0  0  0  0  0  0  0  0  0  0
  -26.5560  -38.3970   23.9370 H   0  0  0  0  0  0  0  0  0  0  0  0
  -30.3250  -24.9400   22.5630 C   0  0  0  0  0  2  0  0  0  0  0  0
  -30.1640  -23.5760   21.8520 C   0  0  0  0  0  2  0  0  0  0  0  0
  -30.3930  -22.3060   22.6780 C   0  0  0  0  0  0  0  0  0  0  0  0
  -30.2330  -22.3190   23.9030 O   0  0  0  0  0  0  0  0  0  0  0  0
  -30.8770  -19.8370   22.5720 C   0  0  0  0  0  3  0  0  0  0  0  0
  -31.2160  -18.6700   21.8580 C   0  0  0  0  0  3  0  0  0  0  0  0
  -31.1630  -21.1480   20.5480 C   0  0  0  0  0  3  0  0  0  0  0  0
  -30.8290  -21.0910   21.9220 C   0  0  0  0  0  0  0  0  0  0  0  0
  -31.4940  -18.7300   20.4760 C   0  0  0  0  0  0  0  0  0  0  0  0
  -31.4800  -19.9860   19.8170 C   0  0  0  0  0  0  0  0  0  0  0  0
  -30.4400  -20.1790   17.5070 C   0  0  0  0  0  1  0  0  0  0  0  0
  -31.7400  -20.1380   18.3200 C   0  0  0  0  0  2  0  0  0  0  0  0
  -31.6930  -17.4280   19.7140 C   0  0  0  0  0  2  0  0  0  0  0  0
  -33.1410  -16.9010   19.6550 C   0  0  0  0  0  2  0  0  0  0  0  0
  -33.2740  -15.9310   18.4640 C   0  0  0  0  0  2  0  0  0  0  0  0
  -34.6160  -15.1990   18.3030 C   0  0  0  0  0  0  0  0  0  0  0  0
  -35.9830  -13.6000   16.9920 C   0  0  0  0  0  2  0  0  0  0  0  0
  -36.7530  -14.2870   15.8500 C   0  0  0  0  0  2  0  0  0  0  0  0
  -35.8720  -14.4400   14.5940 C   0  0  0  0  0  2  0  0  0  0  0  0
  -34.4790  -15.0460   14.9120 C   0  0  0  0  0  3  0  0  0  0  0  0
  -33.8290  -14.2950   16.0950 C   0  0  0  0  0  2  0  0  0  0  0  0
  -34.7530  -14.3630   17.2430 N   0  0  0  0  0  0  0  0  0  0  0  0
  -35.5110  -15.3690   19.1390 O   0  0  0  0  0  0  0  0  0  0  0  0
  -32.6350  -15.9560   13.3580 C   0  0  0  0  0  0  0  0  0  0  0  0
  -32.1800  -15.5380   12.1360 C   0  0  0  0  0  0  0  0  0  0  0  0
  -32.9350  -14.3690   11.8130 C   0  0  0  0  0  0  0  0  0  0  0  0
  -33.6170  -15.0490   13.7310 N   0  0  0  0  0  0  0  0  0  0  0  0
  -33.7580  -14.0630   12.8090 N   0  0  0  0  0  0  0  0  0  0  0  0
  -32.9660  -13.5560   10.5900 C   0  0  0  0  0  0  0  0  0  0  0  0
  -32.6510  -12.1790   10.6100 C   0  0  0  0  0  3  0  0  0  0  0  0
  -32.6720  -11.4230    9.4190 C   0  0  0  0  0  3  0  0  0  0  0  0
  -33.0050  -12.0420    8.1910 C   0  0  0  0  0  0  0  0  0  0  0  0
  -33.3370  -13.4080    8.1790 C   0  0  0  0  0  3  0  0  0  0  0  0
  -33.3210  -14.1590    9.3660 C   0  0  0  0  0  3  0  0  0  0  0  0
  -33.0740  -11.3820    6.9880 O   0  0  0  0  0  0  0  0  0  0  0  0
  -32.2910  -10.2880    6.7210 C   0  0  0  0  0  0  0  0  0  0  0  0
  -30.8910  -10.3940    6.5710 C   0  0  0  0  0  3  0  0  0  0  0  0
  -30.1320   -9.2570    6.2280 C   0  0  0  0  0  3  0  0  0  0  0  0
  -30.7690   -8.0180    6.0250 C   0  0  0  0  0  0  0  0  0  0  0  0
  -32.1630   -7.9120    6.1680 C   0  0  0  0  0  3  0  0  0  0  0  0
  -32.9220   -9.0450    6.5130 C   0  0  0  0  0  0  0  0  0  0  0  0
  -34.2680   -8.9420    6.6290 F   0  0  0  0  0  0  0  0  0  0  0  0
  -30.0410   -6.9280    5.6890 F   0  0  0  0  0  0  0  0  0  0  0  0
  -31.1680  -16.2330   11.2700 C   0  0  0  0  0  0  0  0  0  0  0  0
  -30.2480  -15.4810   10.6750 N   0  0  0  0  0  0  0  0  0  0  0  0
  -31.1580  -17.4580   11.1540 O   0  0  0  0  0  0  0  0  0  0  0  0
  -30.2400  -14.4780   10.7850 H   0  0  0  0  0  0  0  0  0  0  0  0
  -29.5390  -15.9160   10.1020 H   0  0  0  0  0  0  0  0  0  0  0  0
  -32.3110  -17.0380   14.1720 N   0  0  0  0  0  0  0  0  0  0  0  0
  -31.6290  -17.7380   13.9040 H   0  0  0  0  0  0  0  0  0  0  0  0
  -32.7650  -17.2430   15.0540 H   0  0  0  0  0  0  0  0  0  0  0  0
  1  6  2  0
  1  2  1  0
  2  3  2  0
  3  4  1  0
  3 10  1  0
  4 52  1  0
  5  8  1  0
  5  4  2  0
  6  5  1  0
  7  2  1  0
 10  9  1  0
 11 13  1  0
 11  6  1  0
 12 23  2  0
 13 18  1  0
 14 22  1  0
 14 24  1  0
 15 21  1  0
 15 17  1  0
 16 22  1  0
 17 16  1  0
 18 17  2  0
 19 20  1  0
 19 13  2  0
 20 15  2  0
 21 14  1  0
 22 12  1  0
 24 26  2  0
 25 24  1  0
 27 25  1  0
 28 33  1  0
 29 25  1  0
 30 29  1  0
 31 32  1  0
 31 30  1  0
 32 28  1  0
 33 29  1  0
 33 34  2  0
 35 34  1  0
 36 35  2  0
 37 28  2  0
 37 36  1  0
 38 12  1  0
 38 43  1  0
 38 39  1  0
 39 42  1  1
 39 40  1  0
 41 39  1  0
 43 46  1  0
 44 48  1  0
 44 43  1  0
 45 44  2  0
 48 47  1  0
 50 51  1  0
 50 48  1  0
 50 49  1  0
 53 52  1  0
 53 54  1  0
 54 55  2  0
 57 56  2  0
 58 59  2  0
 59 56  1  0
 59 54  1  0
 60 57  1  0
 61 60  2  0
 61 58  1  0
 62 63  1  0
 63 61  1  0
 64 60  1  0
 65 64  1  0
 66 65  1  0
 67 66  1  0
 67 74  2  0
 68 73  1  0
 69 68  1  0
 70 71  1  0
 70 69  1  0
 71 78  1  0
 71 72  1  0
 72 73  1  0
 73 67  1  0
 75 78  1  0
 75100  1  0
 76 75  2  0
 77 76  1  0
 77 79  2  0
 79 78  1  0
 80 81  1  0
 80 77  1  0
 82 81  2  0
 83 82  1  0
 84 83  2  0
 84 85  1  0
 85 80  2  0
 86 83  1  0
 87 86  1  0
 88 87  1  0
 89 88  2  0
 90 91  2  0
 90 89  1  0
 91 92  1  0
 92 93  1  0
 92 87  2  0
 94 90  1  0
 95 76  1  0
 96 98  1  0
 96 95  1  0
 97 95  2  0
 99 96  1  0
100102  1  0
101100  1  0
M  ISO  4   6 101  11 101  66 100  67 100
M  END
>  <TORSDO>  (34) 
F 25

>  <SCORE>  (34) 
-7.083

>  <name>  (34) 
34

>  <ligand_id>  (34) 
34

>  <original_smiles>  (34) 
[H]c1c([H])c([H])c2c(c1[H])C([H])([H])C([H])([H])C([H])([H])C2([H])N([H])C(=O)C1([H])N(C(=O)C([H])(N([H])C(=O)C([H])(N([H])C([H])([H])[H])C([H])([H])[H])C(C([H])([H])[H])(C([H])([H])[H])C([H])([H])[H])C([H])([H])c2c([H])c(Oc3c([H])c(C([H])([H])[H])c(C([H])([H])C([H])([H])[H])c(C([H])([H])C([H])([H])C(=O)c4c([H])c([H])c(C([H])([H])C([H])([H])C([H])([H])C(=O)N5C([H])([H])C([H])([H])C([H])([H])C([H])(n6nc(-c7c([H])c([H])c(Oc8c([H])c([H])c(F)c([H])c8F)c([H])c7[H])c(C(=O)N([H])[H])c6N([H])[H])C5([H])[H])c(C([H])([H])C([H])([H])[H])c4[H])c3C([H])([H])[H])c([H])c([H])c2C1([H])[H]

>  <smiles>  (34) 
[H]c1c([H])c([H])c2c(c1[H])C([H])([H])C([H])([H])C([H])([H])C2([H])N([H])C(=O)C1([H])N(C(=O)C([H])(N([H])C(=O)C([H])(N([H])C([H])([H])[H])C([H])([H])[H])C(C([H])([H])[H])(C([H])([H])[H])C([H])([H])[H])C([H])([H])c2c([H])c(Oc3c([H])c(C([H])([H])[H])c(C([H])([H])C([H])([H])[H])c(C([H])([H])C([H])([H])C(=O)c4c([H])c([H])c(C([H])([H])C([H])([H])C([H])([H])C(=O)N5C([H])([H])C([H])([H])C([H])([H])C([H])(n6nc(-c7c([H])c([H])c(Oc8c([H])c([H])c(F)c([H])c8F)c([H])c7[H])c(C(=O)N([H])[H])c6N([H])[H])C5([H])[H])c(C([H])([H])C([H])([H])[H])c4[H])c3C([H])([H])[H])c([H])c([H])c2C1([H])[H]

$$$$
35:0:0
     RDKit          3D

 90 98  0  0  1  0  0  0  0  0999 V2000
  -30.1190  -18.8050   19.0660 C   0  0  0  0  0  3  0  0  0  0  0  0
  -29.5440  -18.3790   21.3250 C   0  0  0  0  0  3  0  0  0  0  0  0
  -30.3320  -16.4110   19.9510 C   0  0  0  0  0  0  0  0  0  0  0  0
  -29.6880  -19.3670   20.3020 C   0  0  0  0  0  0  0  0  0  0  0  0
  -30.4210  -17.3990   18.8910 C   0  0  0  0  0  0  0  0  0  0  0  0
  -29.8630  -16.9800   21.1820 C   0  0  0  0  0  0  0  0  0  0  0  0
  -30.9000  -17.0020   17.4970 C   0  0  0  0  0  1  0  0  0  0  0  0
  -30.9340  -14.9450   19.7880 C   0  0  0  0  0  0  0  0  0  0  0  0
  -30.5910  -12.6700   18.8130 C   0  0  0  0  0  2  0  0  0  0  0  0
  -29.5900  -12.7610   17.6380 C   0  0  0  0  0  2  0  0  0  0  0  0
  -28.1530  -12.5780   18.1570 C   0  0  0  0  0  2  0  0  0  0  0  0
  -27.8540  -13.4660   19.3900 C   0  0  0  0  0  3  0  0  0  0  0  0
  -28.9770  -13.4050   20.4410 C   0  0  0  0  0  2  0  0  0  0  0  0
  -30.2390  -13.7470   19.7800 N   0  0  0  0  0  0  0  0  0  0  0  0
  -32.1140  -14.9030   19.4310 O   0  0  0  0  0  0  0  0  0  0  0  0
  -25.5390  -14.0530   20.3080 C   0  0  0  0  0  0  0  0  0  0  0  0
  -24.4930  -13.2770   20.7300 C   0  0  0  0  0  0  0  0  0  0  0  0
  -24.9410  -11.9240   20.6420 C   0  0  0  0  0  0  0  0  0  0  0  0
  -26.5520  -13.1700   19.9750 N   0  0  0  0  0  0  0  0  0  0  0  0
  -26.2070  -11.8840   20.2450 N   0  0  0  0  0  0  0  0  0  0  0  0
  -24.2190  -10.6630   20.8550 C   0  0  0  0  0  0  0  0  0  0  0  0
  -24.6620   -9.7070   21.7920 C   0  0  0  0  0  3  0  0  0  0  0  0
  -23.9390   -8.5110   21.9930 C   0  0  0  0  0  3  0  0  0  0  0  0
  -22.7570   -8.2670   21.2570 C   0  0  0  0  0  0  0  0  0  0  0  0
  -22.3310   -9.2130   20.3080 C   0  0  0  0  0  3  0  0  0  0  0  0
  -23.0540  -10.3990   20.1070 C   0  0  0  0  0  3  0  0  0  0  0  0
  -22.0030   -7.1230   21.3670 O   0  0  0  0  0  0  0  0  0  0  0  0
  -21.9090   -6.4310   22.5460 C   0  0  0  0  0  0  0  0  0  0  0  0
  -21.4170   -7.0310   23.7270 C   0  0  0  0  0  3  0  0  0  0  0  0
  -21.2780   -6.2650   24.9020 C   0  0  0  0  0  3  0  0  0  0  0  0
  -21.6170   -4.8980   24.8950 C   0  0  0  0  0  0  0  0  0  0  0  0
  -22.1020   -4.2970   23.7200 C   0  0  0  0  0  3  0  0  0  0  0  0
  -22.2440   -5.0620   22.5490 C   0  0  0  0  0  0  0  0  0  0  0  0
  -22.6930   -4.4740   21.4130 F   0  0  0  0  0  0  0  0  0  0  0  0
  -21.4730   -4.1580   26.0190 F   0  0  0  0  0  0  0  0  0  0  0  0
  -23.1220  -13.7580   21.1010 C   0  0  0  0  0  0  0  0  0  0  0  0
  -22.4550  -13.0540   22.0110 N   0  0  0  0  0  0  0  0  0  0  0  0
  -22.6530  -14.7860   20.6170 O   0  0  0  0  0  0  0  0  0  0  0  0
  -22.8470  -12.2140   22.4130 H   0  0  0  0  0  0  0  0  0  0  0  0
  -21.5380  -13.3560   22.3110 H   0  0  0  0  0  0  0  0  0  0  0  0
  -25.7120  -15.4230   20.1540 N   0  0  0  0  0  0  0  0  0  0  0  0
  -24.9930  -16.1020   20.3850 H   0  0  0  0  0  0  0  0  0  0  0  0
  -26.5670  -15.8470   19.8160 H   0  0  0  0  0  0  0  0  0  0  0  0
  -29.7800  -16.2170   22.3120 O   0  0  0  0  0  0  0  0  0  0  0  0
  -29.4770  -16.7090   23.0700 H   0  0  0  0  0  0  0  0  0  0  0  0
  -29.5460  -20.9380   20.6830 C   0  0  0  0  0  3  0  0  0  0  0  0
  -29.1440  -22.2170   19.7480 C   0  0  0  0  0  3  0  0  0  0  0  0
  -28.9960  -23.7070   20.4480 C   0  0  0  0  0  3  0  0  0  0  0  0
  -28.7150  -25.0860   19.6130 C   0  0  0  0  0  3  0  0  0  0  0  0
  -28.6070  -26.4670   20.2490 O   0  0  0  0  0  0  0  0  0  0  0  0
  -24.6660  -31.8270   23.2340 C   0  0  0  0  0  0  0  0  0  0  0  0
  -27.4700  -27.3190   20.1720 C   0  0  0  0  0  0  0  0  0  0  0  0
  -23.5450  -30.4190   21.5500 C   0  0  0  0  0  3  0  0  0  0  0  0
  -25.0720  -28.9270   20.1390 C   0  0  0  0  0  0  0  0  0  0  0  0
  -26.0850  -30.7960   21.4350 C   0  0  0  0  0  2  0  0  0  0  0  0
  -26.2180  -29.4210   20.7710 C   0  0  0  0  0  0  0  0  0  0  0  0
  -27.4160  -28.6280   20.7770 C   0  0  0  0  0  3  0  0  0  0  0  0
  -26.2860  -26.8980   19.5250 C   0  0  0  0  0  3  0  0  0  0  0  0
  -25.1120  -27.6750   19.5120 C   0  0  0  0  0  3  0  0  0  0  0  0
  -23.8140  -29.7740   20.1660 C   0  0  0  0  0  2  0  0  0  0  0  0
  -24.7840  -31.0310   22.1300 N   0  0  0  0  0  0  0  0  0  0  0  0
  -23.5620  -32.0650   23.7450 O   0  0  0  0  0  0  0  0  0  0  0  0
  -22.8860  -29.3700   22.4780 C   0  0  0  0  0  0  0  0  0  0  0  0
  -21.5680  -29.1530   22.3140 N   0  0  0  0  0  0  0  0  0  0  0  0
  -23.5620  -28.7550   23.3050 O   0  0  0  0  0  0  0  0  0  0  0  0
  -21.0770  -29.6960   21.6170 H   0  0  0  0  0  0  0  0  0  0  0  0
  -18.2270  -27.8320   22.7150 C   0  0  0  0  0  0  0  0  0  0  0  0
  -20.7660  -28.1780   23.0540 C   0  0  0  0  0  3  0  0  0  0  0  0
  -20.9350  -26.7570   22.4710 C   0  0  0  0  0  2  0  0  0  0  0  0
  -19.8730  -26.4060   21.4220 C   0  0  0  0  0  2  0  0  0  0  0  0
  -18.4680  -26.5000   22.0280 C   0  0  0  0  0  2  0  0  0  0  0  0
  -19.3060  -28.6280   23.1850 C   0  0  0  0  0  0  0  0  0  0  0  0
  -19.0280  -29.8750   23.7870 C   0  0  0  0  0  3  0  0  0  0  0  0
  -17.7020  -30.3270   23.9220 C   0  0  0  0  0  3  0  0  0  0  0  0
  -16.6360  -29.5290   23.4670 C   0  0  0  0  0  3  0  0  0  0  0  0
  -16.8990  -28.2850   22.8720 C   0  0  0  0  0  3  0  0  0  0  0  0
  -25.9090  -32.4930   23.8950 C   0  0  0  0  0  3  0  0  0  0  0  0
  -25.5600  -33.8890   24.1950 N   0  0  0  0  0  0  0  0  0  0  0  0
  -25.8870  -34.9380   23.4290 C   0  0  0  0  0  0  0  0  0  0  0  0
  -26.5790  -34.8320   22.4130 O   0  0  0  0  0  0  0  0  0  0  0  0
  -24.9430  -34.0450   24.9790 H   0  0  0  0  0  0  0  0  0  0  0  0
  -24.1210  -36.6830   23.0230 C   0  0  0  0  0  1  0  0  0  0  0  0
  -25.3610  -36.3220   23.8550 C   0  0  0  0  0  3  0  0  0  0  0  0
  -27.4580  -37.2810   24.6950 C   0  0  0  0  0  1  0  0  0  0  0  0
  -26.3670  -37.3980   23.7320 N   0  0  0  0  0  0  0  0  0  0  0  0
  -25.9340  -38.3080   23.8570 H   0  0  0  0  0  0  0  0  0  0  0  0
  -26.3890  -31.7490   25.2020 C   0  0  1  0  0  0  0  0  0  0  0  0
  -25.2610  -31.5040   26.2300 C   0  0  0  0  0  1  0  0  0  0  0  0
  -27.0140  -30.3780   24.8530 C   0  0  0  0  0  1  0  0  0  0  0  0
  -27.4990  -32.5700   25.8980 C   0  0  0  0  0  1  0  0  0  0  0  0
  1  4  1  0
  3  6  2  0
  4 46  1  0
  4  2  2  0
  5  1  2  0
  5  3  1  0
  6  2  1  0
  6 44  1  0
  7  5  1  0
  8  3  1  0
  9 14  1  0
 10 11  1  0
 10  9  1  0
 12 11  1  0
 12 19  1  0
 12 13  1  0
 14  8  1  0
 14 13  1  0
 15  8  2  0
 16 17  2  0
 17 36  1  0
 18 17  1  0
 18 21  1  0
 19 20  1  0
 19 16  1  0
 20 18  2  0
 21 22  1  0
 22 23  2  0
 24 27  1  0
 24 23  1  0
 25 24  2  0
 26 25  1  0
 26 21  2  0
 27 28  1  0
 28 33  2  0
 28 29  1  0
 29 30  2  0
 31 30  1  0
 31 35  1  0
 32 31  2  0
 33 32  1  0
 34 33  1  0
 36 37  1  0
 37 40  1  0
 37 39  1  0
 38 36  2  0
 41 16  1  0
 41 42  1  0
 43 41  1  0
 44 45  1  0
 47 48  1  0
 47 46  2  0
 49 50  1  0
 49 48  2  0
 51 62  2  0
 52 50  1  0
 52 57  1  0
 53 61  1  0
 53 63  1  0
 54 60  1  0
 54 56  1  0
 55 61  1  0
 56 57  2  0
 56 55  1  0
 58 52  2  0
 59 58  1  0
 59 54  2  0
 60 53  1  0
 61 51  1  0
 63 65  2  0
 64 63  1  0
 66 64  1  0
 67 76  2  0
 67 72  1  0
 68 64  1  0
 68 72  1  0
 69 68  1  0
 70 71  1  0
 70 69  1  0
 71 67  1  0
 72 73  2  0
 73 74  1  0
 75 74  2  0
 76 75  1  0
 77 51  1  0
 77 78  1  0
 77 87  1  0
 78 81  1  0
 79 83  1  0
 79 78  1  0
 80 79  2  0
 83 82  1  0
 85 83  1  0
 85 86  1  0
 85 84  1  0
 87 90  1  1
 87 88  1  0
 89 87  1  0
M  ISO  4   3 100   8 100  49 101  50 101
M  END
>  <TORSDO>  (35) 
F 21

>  <SCORE>  (35) 
-12.674

>  <name>  (35) 
35

>  <ligand_id>  (35) 
35

>  <original_smiles>  (35) 
[H]Oc1c([H])c(C([H])([H])C([H])([H])C([H])([H])C([H])([H])Oc2c([H])c([H])c3c(c2[H])C([H])([H])N(C(=O)C([H])(N([H])C(=O)C([H])(N([H])C([H])([H])[H])C([H])([H])[H])C(C([H])([H])[H])(C([H])([H])[H])C([H])([H])[H])C([H])(C(=O)N([H])C2([H])c4c([H])c([H])c([H])c([H])c4C([H])([H])C([H])([H])C2([H])[H])C3([H])[H])c([H])c(C([H])([H])[H])c1C(=O)N1C([H])([H])C([H])([H])C([H])([H])C([H])(n2nc(-c3c([H])c([H])c(Oc4c([H])c([H])c(F)c([H])c4F)c([H])c3[H])c(C(=O)N([H])[H])c2N([H])[H])C1([H])[H]

>  <smiles>  (35) 
[H]Oc1c([H])c(C([H])([H])C([H])([H])C([H])([H])C([H])([H])Oc2c([H])c([H])c3c(c2[H])C([H])([H])N(C(=O)C([H])(N([H])C(=O)C([H])(N([H])C([H])([H])[H])C([H])([H])[H])C(C([H])([H])[H])(C([H])([H])[H])C([H])([H])[H])C([H])(C(=O)N([H])C2([H])c4c([H])c([H])c([H])c([H])c4C([H])([H])C([H])([H])C2([H])[H])C3([H])[H])c([H])c(C([H])([H])[H])c1C(=O)N1C([H])([H])C([H])([H])C([H])([H])C([H])(n2nc(-c3c([H])c([H])c(Oc4c([H])c([H])c(F)c([H])c4F)c([H])c3[H])c(C(=O)N([H])[H])c2N([H])[H])C1([H])[H]

$$$$
36:0:0
     RDKit          3D

 99104  0  0  1  0  0  0  0  0999 V2000
  -27.3120  -17.8230   18.3660 C   0  0  0  0  0  3  0  0  0  0  0  0
  -26.7730  -19.1220   18.0140 C   0  0  0  0  0  3  0  0  0  0  0  0
  -28.5140  -19.1510   19.9150 C   0  0  0  0  0  3  0  0  0  0  0  0
  -28.2980  -17.5150   19.3450 C   0  0  0  0  0  3  0  0  0  0  0  0
  -27.9260  -20.7690   19.6130 C   0  0  0  0  0  3  0  0  0  0  0  0
  -27.0250  -20.4610   18.5460 C   0  0  0  0  0  0  0  0  0  0  0  0
  -25.4690  -21.4280   16.9570 C   0  0  0  0  0  1  0  0  0  0  0  0
  -26.3560  -21.5670   18.0610 O   0  0  0  0  0  0  0  0  0  0  0  0
  -28.9870  -15.5290   19.2250 C   0  0  0  0  0 15  0  0  0  0  0  0
  -28.8340  -12.5240   19.6560 C   0  0  0  0  0  1  0  0  0  0  0  0
  -29.8490  -11.3030   19.9140 C   0  0  0  0  0  0  0  0  0  0  0  0
  -30.0620  -10.4780   19.0210 O   0  0  0  0  0  0  0  0  0  0  0  0
  -29.8520  -11.0240   22.4380 C   0  0  0  0  0  3  0  0  0  0  0  0
  -30.2130  -11.8250   23.5540 C   0  0  0  0  0  3  0  0  0  0  0  0
  -31.8120  -11.8550   21.3640 C   0  0  0  0  0  2  0  0  0  0  0  0
  -30.5510  -11.2430   21.2310 C   0  0  0  0  0  3  0  0  0  0  0  0
  -31.0460  -12.9660   23.3340 C   0  0  0  0  0  3  0  0  0  0  0  0
  -31.6880  -13.0740   22.0660 C   0  0  0  0  0  3  0  0  0  0  0  0
  -31.4120  -14.2730   21.2020 C   0  0  0  0  0  0  0  0  0  0  0  0
  -30.6940  -13.7540   18.8940 C   0  0  0  0  0  2  0  0  0  0  0  0
  -29.3630  -13.5690   17.6370 C   0  0  0  0  0  3  0  0  0  0  0  0
  -27.5860  -13.7930   18.1570 C   0  0  0  0  0  3  0  0  0  0  0  0
  -27.2240  -14.1050   19.9920 C   0  0  0  0  0  0  0  0  0  0  0  0
  -28.6930  -14.2150   21.2430 C   0  0  0  0  0  3  0  0  0  0  0  0
  -30.3090  -14.0590   20.5730 N   0  0  0  0  0  0  0  0  0  0  0  0
  -32.3290  -14.8400   20.6180 O   0  0  0  0  0  0  0  0  0  0  0  0
  -24.9460  -13.9820   20.6930 C   0  0  0  0  0  0  0  0  0  0  0  0
  -24.0180  -13.0560   20.9710 C   0  0  0  0  0  0  0  0  0  0  0  0
  -24.6260  -11.7680   20.8670 C   0  0  0  0  0  0  0  0  0  0  0  0
  -26.0850  -13.3100   20.4360 N   0  0  0  0  0  0  0  0  0  0  0  0
  -25.9280  -11.9310   20.5490 N   0  0  0  0  0  0  0  0  0  0  0  0
  -23.9560  -10.4490   21.0060 C   0  0  0  0  0  0  0  0  0  0  0  0
  -24.3980   -9.4440   21.8990 C   0  0  0  0  0  3  0  0  0  0  0  0
  -23.6570   -8.2490   22.0700 C   0  0  0  0  0  3  0  0  0  0  0  0
  -22.4520   -8.0420   21.3530 C   0  0  0  0  0  0  0  0  0  0  0  0
  -22.0230   -9.0340   20.4550 C   0  0  0  0  0  3  0  0  0  0  0  0
  -22.7660  -10.2160   20.2810 C   0  0  0  0  0  3  0  0  0  0  0  0
  -21.6800   -6.9040   21.4270 O   0  0  0  0  0  0  0  0  0  0  0  0
  -21.6950   -6.0840   22.5280 C   0  0  0  0  0  0  0  0  0  0  0  0
  -21.4090   -6.5710   23.8220 C   0  0  0  0  0  3  0  0  0  0  0  0
  -21.3680   -5.6830   24.9160 C   0  0  0  0  0  3  0  0  0  0  0  0
  -21.6040   -4.3090   24.7200 C   0  0  0  0  0  0  0  0  0  0  0  0
  -21.8810   -3.8210   23.4310 C   0  0  0  0  0  3  0  0  0  0  0  0
  -21.9220   -4.7050   22.3380 C   0  0  0  0  0  0  0  0  0  0  0  0
  -22.1700   -4.2250   21.0960 F   0  0  0  0  0  0  0  0  0  0  0  0
  -21.5600   -3.4560   25.7700 F   0  0  0  0  0  0  0  0  0  0  0  0
  -22.6060  -13.4370   21.2240 C   0  0  0  0  0  0  0  0  0  0  0  0
  -21.9270  -12.7120   22.0930 N   0  0  0  0  0  0  0  0  0  0  0  0
  -22.1350  -14.4510   20.7070 O   0  0  0  0  0  0  0  0  0  0  0  0
  -22.3310  -11.8920   22.5210 H   0  0  0  0  0  0  0  0  0  0  0  0
  -20.9770  -12.9680   22.3230 H   0  0  0  0  0  0  0  0  0  0  0  0
  -24.8670  -15.3710   20.6260 N   0  0  0  0  0  0  0  0  0  0  0  0
  -23.9740  -15.8440   20.7150 H   0  0  0  0  0  0  0  0  0  0  0  0
  -25.6210  -15.9950   20.3690 H   0  0  0  0  0  0  0  0  0  0  0  0
  -31.1100  -14.0890   24.3120 C   0  0  0  0  0  0  0  0  0  0  0  0
  -30.0430  -14.1380   25.3970 C   0  0  0  0  0  1  0  0  0  0  0  0
  -31.9550  -14.9870   24.2590 O   0  0  0  0  0  0  0  0  0  0  0  0
  -27.7910  -22.7660   20.2690 C   0  0  0  0  0 15  0  0  0  0  0  0
  -27.9050  -24.7440   20.0160 O   0  0  0  0  0  1  0  0  0  0  0  0
  -24.7300  -31.7450   23.1140 C   0  0  0  0  0  0  0  0  0  0  0  0
  -27.0870  -26.2050   20.1510 C   0  0  0  0  0  0  0  0  0  0  0  0
  -23.5620  -30.3420   21.4860 C   0  0  0  0  0  3  0  0  0  0  0  0
  -24.9780  -28.5900   20.1140 C   0  0  0  0  0  0  0  0  0  0  0  0
  -26.1600  -30.3020   21.4420 C   0  0  0  0  0  2  0  0  0  0  0  0
  -26.1870  -28.8200   20.7780 C   0  0  0  0  0  0  0  0  0  0  0  0
  -27.2210  -27.6690   20.7490 C   0  0  0  0  0  3  0  0  0  0  0  0
  -25.8580  -26.3150   19.4420 C   0  0  0  0  0  3  0  0  0  0  0  0
  -24.8810  -27.3700   19.4250 C   0  0  0  0  0  3  0  0  0  0  0  0
  -23.8220  -29.6220   20.1320 C   0  0  0  0  0  2  0  0  0  0  0  0
  -24.8510  -30.8420   22.0650 N   0  0  0  0  0  0  0  0  0  0  0  0
  -23.6240  -32.0770   23.5820 O   0  0  0  0  0  0  0  0  0  0  0  0
  -22.7920  -29.4060   22.4600 C   0  0  0  0  0  0  0  0  0  0  0  0
  -21.4540  -29.2980   22.3360 N   0  0  0  0  0  0  0  0  0  0  0  0
  -23.4190  -28.7690   23.3110 O   0  0  0  0  0  0  0  0  0  0  0  0
  -20.9930  -29.8610   21.6350 H   0  0  0  0  0  0  0  0  0  0  0  0
  -18.0350  -28.1440   22.8430 C   0  0  0  0  0  0  0  0  0  0  0  0
  -20.6010  -28.3810   23.1080 C   0  0  0  0  0  3  0  0  0  0  0  0
  -20.6800  -26.9440   22.5410 C   0  0  0  0  0  2  0  0  0  0  0  0
  -19.5780  -26.6360   21.5210 C   0  0  0  0  0  2  0  0  0  0  0  0
  -18.1970  -26.7960   22.1600 C   0  0  0  0  0  2  0  0  0  0  0  0
  -19.1630  -28.8950   23.2720 C   0  0  0  0  0  0  0  0  0  0  0  0
  -18.9530  -30.1530   23.8790 C   0  0  0  0  0  3  0  0  0  0  0  0
  -17.6520  -30.6610   24.0540 C   0  0  0  0  0  3  0  0  0  0  0  0
  -16.5400  -29.9090   23.6360 C   0  0  0  0  0  3  0  0  0  0  0  0
  -16.7330  -28.6510   23.0370 C   0  0  0  0  0  3  0  0  0  0  0  0
  -25.9670  -32.4180   23.7830 C   0  0  0  0  0  3  0  0  0  0  0  0
  -25.6060  -33.8040   24.1680 N   0  0  0  0  0  0  0  0  0  0  0  0
  -25.9190  -34.9130   23.4830 C   0  0  0  0  0  0  0  0  0  0  0  0
  -26.5880  -34.8810   22.4480 O   0  0  0  0  0  0  0  0  0  0  0  0
  -25.0050  -33.8990   24.9730 H   0  0  0  0  0  0  0  0  0  0  0  0
  -24.1510  -36.7030   23.2660 C   0  0  0  0  0  1  0  0  0  0  0  0
  -25.4170  -36.2720   24.0240 C   0  0  0  0  0  3  0  0  0  0  0  0
  -27.5550  -37.1670   24.8470 C   0  0  0  0  0  1  0  0  0  0  0  0
  -26.4250  -37.3540   23.9410 N   0  0  0  0  0  0  0  0  0  0  0  0
  -26.0030  -38.2560   24.1430 H   0  0  0  0  0  0  0  0  0  0  0  0
  -26.4680  -31.6420   25.0650 C   0  0  1  0  0  0  0  0  0  0  0  0
  -25.3630  -31.3870   26.1180 C   0  0  0  0  0  1  0  0  0  0  0  0
  -27.0680  -30.2710   24.6890 C   0  0  0  0  0  1  0  0  0  0  0  0
  -27.6050  -32.4380   25.7500 C   0  0  0  0  0  1  0  0  0  0  0  0
  1  4  1  0
  2  1  2  0
  2  6  1  0
  4  3  2  0
  5  3  1  0
  6  5  2  0
  7  8  1  0
  8  6  1  0
 10 11  1  0
 12 11  2  0
 13 14  2  0
 15 18  1  0
 16 11  1  0
 16 15  1  0
 16 13  1  0
 17 14  1  0
 17 55  1  0
 18 19  1  0
 18 17  1  0
 20 25  1  0
 21 22  2  0
 21 20  1  0
 22 23  1  0
 23 30  1  0
 23 24  2  0
 25 19  1  0
 25 24  1  0
 26 19  2  0
 27 28  2  0
 28 47  1  0
 29 28  1  0
 29 32  1  0
 30 31  1  0
 30 27  1  0
 31 29  2  0
 32 33  1  0
 33 34  2  0
 35 38  1  0
 35 34  1  0
 36 35  2  0
 37 36  1  0
 37 32  2  0
 38 39  1  0
 39 40  1  0
 40 41  2  0
 42 41  1  0
 42 46  1  0
 43 42  2  0
 44 39  2  0
 44 43  1  0
 45 44  1  0
 47 48  1  0
 48 51  1  0
 48 50  1  0
 49 47  2  0
 52 27  1  0
 52 53  1  0
 54 52  1  0
 55 56  1  0
 57 55  2  0
 59 61  1  0
 60 71  2  0
 61 66  1  0
 62 70  1  0
 62 72  1  0
 63 69  1  0
 63 65  1  0
 64 70  1  0
 65 64  1  0
 66 65  2  0
 67 61  2  0
 68 67  1  0
 68 63  2  0
 69 62  1  0
 70 60  1  0
 72 74  2  0
 73 72  1  0
 75 73  1  0
 76 85  2  0
 76 81  1  0
 77 73  1  0
 77 81  1  0
 78 77  1  0
 79 80  1  0
 79 78  1  0
 80 76  1  0
 81 82  2  0
 82 83  1  0
 84 83  2  0
 85 84  1  0
 86 60  1  0
 86 87  1  0
 86 96  1  0
 87 90  1  0
 88 92  1  0
 88 87  1  0
 89 88  2  0
 92 91  1  0
 94 92  1  0
 94 95  1  0
 94 93  1  0
 96 99  1  1
 96 97  1  0
 98 96  1  0
M  ISO  4  18 100  19 100  58 101  59 101
M  END
>  <TORSDO>  (36) 
F 23

>  <SCORE>  (36) 
16.943

>  <name>  (36) 
36

>  <ligand_id>  (36) 
36

>  <original_smiles>  (36) 
[H]c1c([H])c([H])c2c(c1[H])C([H])([H])C([H])([H])C([H])([H])C2([H])N([H])C(=O)C1([H])N(C(=O)C([H])(N([H])C(=O)C([H])(N([H])C([H])([H])[H])C([H])([H])[H])C(C([H])([H])[H])(C([H])([H])[H])C([H])([H])[H])C([H])([H])c2c([H])c(OC([H])([H])c3c([H])c(C([H])([H])C([H])([H])C(=O)c4c([H])c([H])c(C(=O)C([H])([H])[H])c(C(=O)N5C([H])([H])C([H])([H])C([H])([H])C([H])(n6nc(-c7c([H])c([H])c(Oc8c([H])c([H])c(F)c([H])c8F)c([H])c7[H])c(C(=O)N([H])[H])c6N([H])[H])C5([H])[H])c4[H])c([H])c([H])c3OC([H])([H])[H])c([H])c([H])c2C1([H])[H]

>  <smiles>  (36) 
[H]c1c([H])c([H])c2c(c1[H])C([H])([H])C([H])([H])C([H])([H])C2([H])N([H])C(=O)C1([H])N(C(=O)C([H])(N([H])C(=O)C([H])(N([H])C([H])([H])[H])C([H])([H])[H])C(C([H])([H])[H])(C([H])([H])[H])C([H])([H])[H])C([H])([H])c2c([H])c(OC([H])([H])c3c([H])c(C([H])([H])C([H])([H])C(=O)c4c([H])c([H])c(C(=O)C([H])([H])[H])c(C(=O)N5C([H])([H])C([H])([H])C([H])([H])C([H])(n6nc(-c7c([H])c([H])c(Oc8c([H])c([H])c(F)c([H])c8F)c([H])c7[H])c(C(=O)N([H])[H])c6N([H])[H])C5([H])[H])c4[H])c([H])c([H])c3OC([H])([H])[H])c([H])c([H])c2C1([H])[H]

$$$$
37:0:0
     RDKit          3D

 95103  0  0  1  0  0  0  0  0999 V2000
  -28.8650  -24.7970   21.4750 C   0  0  0  0  0  3  0  0  0  0  0  0
  -29.2040  -23.5570   22.0710 C   0  0  0  0  0  0  0  0  0  0  0  0
  -29.0840  -22.3090   21.3690 C   0  0  0  0  0  0  0  0  0  0  0  0
  -28.6570  -22.2640   20.0110 C   0  0  0  0  0  0  0  0  0  0  0  0
  -28.3620  -23.6220   19.4280 C   0  0  0  0  0  0  0  0  0  0  0  0
  -28.4510  -24.9370   20.1440 C   0  0  0  0  0  0  0  0  0  0  0  0
  -29.3570  -20.9760   22.0740 C   0  0  0  0  0  1  0  0  0  0  0  0
  -27.9290  -23.6750   17.9770 C   0  0  0  0  0  1  0  0  0  0  0  0
  -29.6880  -23.6380   23.4940 C   0  0  0  0  0  0  0  0  0  0  0  0
  -31.1930  -22.5790   25.1710 C   0  0  0  0  0  1  0  0  0  0  0  0
  -30.5550  -22.6890   23.8630 N   0  0  0  0  0  0  0  0  0  0  0  0
  -29.3420  -24.5660   24.2270 O   0  0  0  0  0  0  0  0  0  0  0  0
  -30.7870  -21.9940   23.1660 H   0  0  0  0  0  0  0  0  0  0  0  0
  -28.3550  -26.3330   19.6630 O   0  0  0  0  0  0  0  0  0  0  0  0
  -24.7780  -31.7690   23.2970 C   0  0  0  0  0  0  0  0  0  0  0  0
  -27.2800  -27.2840   19.8530 C   0  0  0  0  0  0  0  0  0  0  0  0
  -23.5370  -30.4940   21.5930 C   0  0  0  0  0  3  0  0  0  0  0  0
  -24.9480  -29.0250   20.0210 C   0  0  0  0  0  0  0  0  0  0  0  0
  -26.0850  -30.7760   21.3760 C   0  0  0  0  0  2  0  0  0  0  0  0
  -26.1450  -29.4290   20.6280 C   0  0  0  0  0  0  0  0  0  0  0  0
  -27.3120  -28.5760   20.5260 C   0  0  0  0  0  3  0  0  0  0  0  0
  -26.0550  -26.9850   19.2240 C   0  0  0  0  0  3  0  0  0  0  0  0
  -24.9150  -27.8170   19.3070 C   0  0  0  0  0  3  0  0  0  0  0  0
  -23.7220  -29.9170   20.1650 C   0  0  0  0  0  2  0  0  0  0  0  0
  -24.8230  -31.0320   22.1440 N   0  0  0  0  0  0  0  0  0  0  0  0
  -23.7070  -32.0090   23.8740 O   0  0  0  0  0  0  0  0  0  0  0  0
  -22.8860  -29.4180   22.4970 C   0  0  0  0  0  0  0  0  0  0  0  0
  -21.5780  -29.1670   22.3110 N   0  0  0  0  0  0  0  0  0  0  0  0
  -23.5630  -28.8090   23.3300 O   0  0  0  0  0  0  0  0  0  0  0  0
  -21.0860  -29.7110   21.6160 H   0  0  0  0  0  0  0  0  0  0  0  0
  -18.3110  -27.6100   22.5110 C   0  0  0  0  0  0  0  0  0  0  0  0
  -20.7880  -28.1550   23.0180 C   0  0  0  0  0  3  0  0  0  0  0  0
  -21.1000  -26.7360   22.4880 C   0  0  0  0  0  2  0  0  0  0  0  0
  -20.1450  -26.2830   21.3800 C   0  0  0  0  0  2  0  0  0  0  0  0
  -18.6990  -26.2820   21.8830 C   0  0  0  0  0  2  0  0  0  0  0  0
  -19.2920  -28.4970   23.0290 C   0  0  0  0  0  0  0  0  0  0  0  0
  -18.8800  -29.7310   23.5730 C   0  0  0  0  0  3  0  0  0  0  0  0
  -17.5180  -30.0850   23.6050 C   0  0  0  0  0  3  0  0  0  0  0  0
  -16.5490  -29.1990   23.1030 C   0  0  0  0  0  3  0  0  0  0  0  0
  -16.9460  -27.9620   22.5610 C   0  0  0  0  0  3  0  0  0  0  0  0
  -26.0720  -32.3630   23.9340 C   0  0  0  0  0  3  0  0  0  0  0  0
  -26.5710  -31.5510   25.1930 C   0  0  1  0  0  0  0  0  0  0  0  0
  -25.4710  -31.3050   26.2520 C   0  0  0  0  0  1  0  0  0  0  0  0
  -27.1310  -30.1720   24.7730 C   0  0  0  0  0  1  0  0  0  0  0  0
  -27.7330  -32.3080   25.8790 C   0  0  0  0  0  1  0  0  0  0  0  0
  -25.7900  -33.7600   24.3050 N   0  0  0  0  0  0  0  0  0  0  0  0
  -26.1800  -34.8310   23.6020 C   0  0  0  0  0  0  0  0  0  0  0  0
  -26.8800  -34.7450   22.5890 O   0  0  0  0  0  0  0  0  0  0  0  0
  -25.1720  -33.9020   25.0900 H   0  0  0  0  0  0  0  0  0  0  0  0
  -24.5260  -36.6990   23.2630 C   0  0  0  0  0  1  0  0  0  0  0  0
  -25.7230  -36.2170   24.0990 C   0  0  0  0  0  3  0  0  0  0  0  0
  -27.8520  -36.9980   25.0430 C   0  0  0  0  0  1  0  0  0  0  0  0
  -26.7930  -37.2370   24.0660 N   0  0  0  0  0  0  0  0  0  0  0  0
  -26.4130  -38.1650   24.2330 H   0  0  0  0  0  0  0  0  0  0  0  0
  -28.3320  -20.7510   19.3570 C   0  0  0  0  0  2  0  0  0  0  0  0
  -29.2480  -19.3170   19.0970 C   0  0  0  0  0  2  0  0  0  0  0  0
  -29.4780  -17.8840   20.0000 C   0  0  0  0  0  2  0  0  0  0  0  0
  -30.2990  -15.1990   19.4820 C   0  0  0  0  0  0  0  0  0  0  0  0
  -30.2320  -12.7890   18.6400 C   0  0  0  0  0  2  0  0  0  0  0  0
  -29.1680  -12.6060   17.5320 C   0  0  0  0  0  2  0  0  0  0  0  0
  -27.7760  -12.3410   18.1410 C   0  0  0  0  0  2  0  0  0  0  0  0
  -27.4470  -13.3100   19.3070 C   0  0  0  0  0  3  0  0  0  0  0  0
  -28.6200  -13.4410   20.2980 C   0  0  0  0  0  2  0  0  0  0  0  0
  -29.7760  -13.9030   19.5190 N   0  0  0  0  0  0  0  0  0  0  0  0
  -31.4910  -15.3090   19.1760 O   0  0  0  0  0  0  0  0  0  0  0  0
  -29.4290  -16.3360   19.5780 N   0  0  0  0  0  0  0  0  0  0  0  0
  -28.4770  -16.0060   19.5920 H   0  0  0  0  0  0  0  0  0  0  0  0
  -25.1920  -13.8350   20.3910 C   0  0  0  0  0  0  0  0  0  0  0  0
  -24.1880  -13.0350   20.8650 C   0  0  0  0  0  0  0  0  0  0  0  0
  -24.6480  -11.6910   20.7130 C   0  0  0  0  0  0  0  0  0  0  0  0
  -26.1940  -12.9760   19.9720 N   0  0  0  0  0  0  0  0  0  0  0  0
  -25.8860  -11.6790   20.2320 N   0  0  0  0  0  0  0  0  0  0  0  0
  -23.9550  -10.4160   20.9400 C   0  0  0  0  0  0  0  0  0  0  0  0
  -24.4500   -9.4570   21.8510 C   0  0  0  0  0  3  0  0  0  0  0  0
  -23.7540   -8.2480   22.0670 C   0  0  0  0  0  3  0  0  0  0  0  0
  -22.5480   -7.9900   21.3720 C   0  0  0  0  0  0  0  0  0  0  0  0
  -22.0720   -8.9380   20.4490 C   0  0  0  0  0  3  0  0  0  0  0  0
  -22.7680  -10.1380   20.2320 C   0  0  0  0  0  3  0  0  0  0  0  0
  -21.8180   -6.8330   21.4980 O   0  0  0  0  0  0  0  0  0  0  0  0
  -21.7800   -6.1310   22.6760 C   0  0  0  0  0  0  0  0  0  0  0  0
  -21.3070   -6.7100   23.8750 C   0  0  0  0  0  3  0  0  0  0  0  0
  -21.2200   -5.9320   25.0460 C   0  0  0  0  0  3  0  0  0  0  0  0
  -21.5960   -4.5760   25.0210 C   0  0  0  0  0  0  0  0  0  0  0  0
  -22.0630   -3.9960   23.8280 C   0  0  0  0  0  3  0  0  0  0  0  0
  -22.1510   -4.7720   22.6580 C   0  0  0  0  0  0  0  0  0  0  0  0
  -22.5810   -4.2020   21.5070 F   0  0  0  0  0  0  0  0  0  0  0  0
  -21.5060   -3.8260   26.1450 F   0  0  0  0  0  0  0  0  0  0  0  0
  -22.8370  -13.4890   21.3350 C   0  0  0  0  0  0  0  0  0  0  0  0
  -22.2280  -12.7520   22.2560 N   0  0  0  0  0  0  0  0  0  0  0  0
  -22.3340  -14.5320   20.9200 O   0  0  0  0  0  0  0  0  0  0  0  0
  -22.6500  -11.9070   22.6130 H   0  0  0  0  0  0  0  0  0  0  0  0
  -21.3260  -13.0360   22.6120 H   0  0  0  0  0  0  0  0  0  0  0  0
  -25.3230  -15.2130   20.2550 N   0  0  0  0  0  0  0  0  0  0  0  0
  -24.5680  -15.8460   20.4950 H   0  0  0  0  0  0  0  0  0  0  0  0
  -26.0950  -15.6790   19.7970 H   0  0  0  0  0  0  0  0  0  0  0  0
  1  2  1  0
  2  9  1  0
  3  2  2  0
  3  7  1  0
  4  3  1  0
  5  4  2  0
  5  6  1  0
  6  1  2  0
  8  5  1  0
  9 11  1  0
  9 12  2  0
 11 10  1  0
 13 11  1  0
 14 16  1  0
 14  6  1  0
 15 26  2  0
 16 21  1  0
 17 25  1  0
 17 27  1  0
 18 24  1  0
 18 20  1  0
 19 25  1  0
 20 19  1  0
 21 20  2  0
 22 23  1  0
 22 16  2  0
 23 18  2  0
 24 17  1  0
 25 15  1  0
 27 29  2  0
 28 27  1  0
 30 28  1  0
 31 40  2  0
 31 36  1  0
 32 28  1  0
 32 36  1  0
 33 32  1  0
 34 35  1  0
 34 33  1  0
 35 31  1  0
 36 37  2  0
 37 38  1  0
 39 38  2  0
 40 39  1  0
 41 15  1  0
 41 46  1  0
 41 42  1  0
 42 45  1  1
 42 43  1  0
 44 42  1  0
 46 49  1  0
 47 51  1  0
 47 46  1  0
 48 47  2  0
 51 50  1  0
 53 51  1  0
 53 54  1  0
 53 52  1  0
 55  4  1  0
 56 55  1  0
 56 57  1  0
 58 64  1  0
 58 66  1  0
 59 64  1  0
 60 61  1  0
 60 59  1  0
 62 61  1  0
 62 71  1  0
 62 63  1  0
 64 63  1  0
 65 58  2  0
 66 67  1  0
 66 57  1  0
 68 69  2  0
 69 88  1  0
 70 69  1  0
 70 73  1  0
 71 72  1  0
 71 68  1  0
 72 70  2  0
 73 74  1  0
 74 75  2  0
 76 79  1  0
 76 75  1  0
 77 76  2  0
 78 77  1  0
 78 73  2  0
 79 80  1  0
 80 81  1  0
 81 82  2  0
 83 82  1  0
 83 87  1  0
 84 83  2  0
 85 80  2  0
 85 84  1  0
 86 85  1  0
 88 89  1  0
 89 92  1  0
 89 91  1  0
 90 88  2  0
 93 68  1  0
 93 94  1  0
 95 93  1  0
M  ISO  4   6 101  14 101  58 100  66 100
M  END
>  <TORSDO>  (37) 
F 20

>  <SCORE>  (37) 
-13.148

>  <name>  (37) 
37

>  <ligand_id>  (37) 
37

>  <original_smiles>  (37) 
[H]c1c([H])c([H])c2c(c1[H])C([H])([H])C([H])([H])C([H])([H])C2([H])N([H])C(=O)C1([H])N(C(=O)C([H])(N([H])C(=O)C([H])(N([H])C([H])([H])[H])C([H])([H])[H])C(C([H])([H])[H])(C([H])([H])[H])C([H])([H])[H])C([H])([H])c2c([H])c(Oc3c([H])c(C(=O)N([H])C([H])([H])[H])c(C([H])([H])[H])c(C([H])([H])C([H])([H])C([H])([H])N([H])C(=O)N4C([H])([H])C([H])([H])C([H])([H])C([H])(n5nc(-c6c([H])c([H])c(Oc7c([H])c([H])c(F)c([H])c7F)c([H])c6[H])c(C(=O)N([H])[H])c5N([H])[H])C4([H])[H])c3C([H])([H])[H])c([H])c([H])c2C1([H])[H]

>  <smiles>  (37) 
[H]c1c([H])c([H])c2c(c1[H])C([H])([H])C([H])([H])C([H])([H])C2([H])N([H])C(=O)C1([H])N(C(=O)C([H])(N([H])C(=O)C([H])(N([H])C([H])([H])[H])C([H])([H])[H])C(C([H])([H])[H])(C([H])([H])[H])C([H])([H])[H])C([H])([H])c2c([H])c(Oc3c([H])c(C(=O)N([H])C([H])([H])[H])c(C([H])([H])[H])c(C([H])([H])C([H])([H])C([H])([H])N([H])C(=O)N4C([H])([H])C([H])([H])C([H])([H])C([H])(n5nc(-c6c([H])c([H])c(Oc7c([H])c([H])c(F)c([H])c7F)c([H])c6[H])c(C(=O)N([H])[H])c5N([H])[H])C4([H])[H])c3C([H])([H])[H])c([H])c([H])c2C1([H])[H]

$$$$
38:0:0
     RDKit          3D

 94102  0  0  1  0  0  0  0  0999 V2000
  -30.1270  -22.1920   19.8360 C   0  0  0  0  0  3  0  0  0  0  0  0
  -27.9900  -22.9840   18.9600 C   0  0  0  0  0  3  0  0  0  0  0  0
  -28.6540  -20.6680   18.6360 C   0  0  0  0  0  3  0  0  0  0  0  0
  -29.2010  -23.2370   19.6530 C   0  0  0  0  0  0  0  0  0  0  0  0
  -29.8390  -20.9020   19.3600 C   0  0  0  0  0  0  0  0  0  0  0  0
  -27.7070  -21.6920   18.4530 C   0  0  0  0  0  0  0  0  0  0  0  0
  -25.4710  -22.2700   17.7830 C   0  0  0  0  0  1  0  0  0  0  0  0
  -26.5440  -21.3400   17.8030 O   0  0  0  0  0  0  0  0  0  0  0  0
  -29.5540  -24.5850   20.1770 C   0  0  0  0  0  0  0  0  0  0  0  0
  -30.7160  -25.0050   20.2330 O   0  0  0  0  0  0  0  0  0  0  0  0
  -28.4160  -25.4170   20.7630 C   0  0  0  0  0  2  0  0  0  0  0  0
  -28.5590  -26.7970   20.3990 O   0  0  0  0  0  0  0  0  0  0  0  0
  -24.6710  -31.9820   23.3040 C   0  0  0  0  0  0  0  0  0  0  0  0
  -27.3850  -27.5060   20.3610 C   0  0  0  0  0  0  0  0  0  0  0  0
  -23.5000  -30.5350   21.6760 C   0  0  0  0  0  3  0  0  0  0  0  0
  -24.9820  -28.9850   20.3110 C   0  0  0  0  0  0  0  0  0  0  0  0
  -26.0270  -30.9130   21.5060 C   0  0  0  0  0  2  0  0  0  0  0  0
  -26.1300  -29.5320   20.8970 C   0  0  0  0  0  0  0  0  0  0  0  0
  -27.3390  -28.8030   20.9140 C   0  0  0  0  0  3  0  0  0  0  0  0
  -26.2190  -26.9740   19.7620 C   0  0  0  0  0  3  0  0  0  0  0  0
  -25.0200  -27.7020   19.7470 C   0  0  0  0  0  3  0  0  0  0  0  0
  -23.7320  -29.8310   20.3150 C   0  0  0  0  0  2  0  0  0  0  0  0
  -24.7490  -31.1630   22.2170 N   0  0  0  0  0  0  0  0  0  0  0  0
  -23.5800  -32.2580   23.8210 O   0  0  0  0  0  0  0  0  0  0  0  0
  -22.8480  -29.5270   22.6490 C   0  0  0  0  0  0  0  0  0  0  0  0
  -21.5400  -29.2910   22.4690 N   0  0  0  0  0  0  0  0  0  0  0  0
  -23.5180  -28.9560   23.5140 O   0  0  0  0  0  0  0  0  0  0  0  0
  -21.0650  -29.8070   21.7410 H   0  0  0  0  0  0  0  0  0  0  0  0
  -18.1950  -27.9570   22.8190 C   0  0  0  0  0  0  0  0  0  0  0  0
  -20.7170  -28.3550   23.2360 C   0  0  0  0  0  3  0  0  0  0  0  0
  -20.9210  -26.9030   22.7480 C   0  0  0  0  0  2  0  0  0  0  0  0
  -19.9020  -26.4730   21.6880 C   0  0  0  0  0  2  0  0  0  0  0  0
  -18.4760  -26.5820   22.2360 C   0  0  0  0  0  2  0  0  0  0  0  0
  -19.2500  -28.7960   23.2740 C   0  0  0  0  0  0  0  0  0  0  0  0
  -18.9360  -30.0770   23.7760 C   0  0  0  0  0  3  0  0  0  0  0  0
  -17.6040  -30.5240   23.8320 C   0  0  0  0  0  3  0  0  0  0  0  0
  -16.5630  -29.6850   23.3980 C   0  0  0  0  0  3  0  0  0  0  0  0
  -16.8600  -28.4050   22.8980 C   0  0  0  0  0  3  0  0  0  0  0  0
  -25.9430  -32.6360   23.9280 C   0  0  0  0  0  3  0  0  0  0  0  0
  -25.6100  -34.0300   24.2440 N   0  0  0  0  0  0  0  0  0  0  0  0
  -25.9180  -35.0810   23.4700 C   0  0  0  0  0  0  0  0  0  0  0  0
  -26.5890  -34.9810   22.4390 O   0  0  0  0  0  0  0  0  0  0  0  0
  -25.0190  -34.1810   25.0470 H   0  0  0  0  0  0  0  0  0  0  0  0
  -24.1430  -36.8270   23.1130 C   0  0  0  0  0  1  0  0  0  0  0  0
  -25.4030  -36.4620   23.9140 C   0  0  0  0  0  3  0  0  0  0  0  0
  -27.5290  -37.4030   24.7050 C   0  0  0  0  0  1  0  0  0  0  0  0
  -26.4080  -37.5400   23.7800 N   0  0  0  0  0  0  0  0  0  0  0  0
  -25.9820  -38.4510   23.9300 H   0  0  0  0  0  0  0  0  0  0  0  0
  -26.4650  -31.8800   25.2130 C   0  0  1  0  0  0  0  0  0  0  0  0
  -25.3670  -31.6270   26.2730 C   0  0  0  0  0  1  0  0  0  0  0  0
  -27.0810  -30.5130   24.8330 C   0  0  0  0  0  1  0  0  0  0  0  0
  -27.5920  -32.7050   25.8820 C   0  0  0  0  0  1  0  0  0  0  0  0
  -30.7520  -19.7450   19.6950 C   0  0  0  0  0  2  0  0  0  0  0  0
  -29.9870  -18.6980   20.5160 C   0  0  0  0  0  2  0  0  0  0  0  0
  -30.7540  -17.3900   20.6880 C   0  0  0  0  0  2  0  0  0  0  0  0
  -29.9560  -16.4070   21.5600 C   0  0  0  0  0  2  0  0  0  0  0  0
  -30.8320  -14.3480   20.4530 C   0  0  0  0  0  0  0  0  0  0  0  0
  -30.4050  -12.4570   18.9370 C   0  0  0  0  0  2  0  0  0  0  0  0
  -29.3870  -12.8700   17.8570 C   0  0  0  0  0  2  0  0  0  0  0  0
  -27.9400  -12.7120   18.3560 C   0  0  0  0  0  2  0  0  0  0  0  0
  -27.7120  -13.3590   19.7440 C   0  0  0  0  0  3  0  0  0  0  0  0
  -28.8070  -12.8880   20.7260 C   0  0  0  0  0  2  0  0  0  0  0  0
  -30.1290  -13.2280   20.1570 N   0  0  0  0  0  0  0  0  0  0  0  0
  -31.8070  -14.7400   19.8010 O   0  0  0  0  0  0  0  0  0  0  0  0
  -30.3610  -15.0030   21.5180 N   0  0  0  0  0  0  0  0  0  0  0  0
  -29.7660  -14.4110   22.0830 H   0  0  0  0  0  0  0  0  0  0  0  0
  -25.3260  -13.9420   20.5310 C   0  0  0  0  0  0  0  0  0  0  0  0
  -24.2750  -13.1510   20.9200 C   0  0  0  0  0  0  0  0  0  0  0  0
  -24.7440  -11.8060   20.8370 C   0  0  0  0  0  0  0  0  0  0  0  0
  -26.3710  -13.0730   20.2490 N   0  0  0  0  0  0  0  0  0  0  0  0
  -26.0230  -11.7840   20.4830 N   0  0  0  0  0  0  0  0  0  0  0  0
  -24.0350  -10.5320   21.0250 C   0  0  0  0  0  0  0  0  0  0  0  0
  -24.4870   -9.5660   21.9500 C   0  0  0  0  0  3  0  0  0  0  0  0
  -23.7780   -8.3580   22.1260 C   0  0  0  0  0  3  0  0  0  0  0  0
  -22.6050   -8.1080   21.3760 C   0  0  0  0  0  0  0  0  0  0  0  0
  -22.1730   -9.0630   20.4430 C   0  0  0  0  0  3  0  0  0  0  0  0
  -22.8810  -10.2630   20.2650 C   0  0  0  0  0  3  0  0  0  0  0  0
  -21.8670   -6.9520   21.4570 O   0  0  0  0  0  0  0  0  0  0  0  0
  -21.7970   -6.2260   22.6170 C   0  0  0  0  0  0  0  0  0  0  0  0
  -21.3320   -6.7920   23.8250 C   0  0  0  0  0  3  0  0  0  0  0  0
  -21.2090   -5.9920   24.9770 C   0  0  0  0  0  3  0  0  0  0  0  0
  -21.5460   -4.6250   24.9250 C   0  0  0  0  0  0  0  0  0  0  0  0
  -22.0060   -4.0590   23.7220 C   0  0  0  0  0  3  0  0  0  0  0  0
  -22.1280   -4.8550   22.5720 C   0  0  0  0  0  0  0  0  0  0  0  0
  -22.5520   -4.3020   21.4090 F   0  0  0  0  0  0  0  0  0  0  0  0
  -21.4230   -3.8530   26.0290 F   0  0  0  0  0  0  0  0  0  0  0  0
  -22.8850  -13.6110   21.2600 C   0  0  0  0  0  0  0  0  0  0  0  0
  -22.2030  -12.8950   22.1460 N   0  0  0  0  0  0  0  0  0  0  0  0
  -22.4150  -14.6400   20.7780 O   0  0  0  0  0  0  0  0  0  0  0  0
  -22.5950  -12.0570   22.5510 H   0  0  0  0  0  0  0  0  0  0  0  0
  -21.2770  -13.1900   22.4240 H   0  0  0  0  0  0  0  0  0  0  0  0
  -25.4670  -15.3180   20.3810 N   0  0  0  0  0  0  0  0  0  0  0  0
  -24.6920  -15.9480   20.5580 H   0  0  0  0  0  0  0  0  0  0  0  0
  -26.2920  -15.7890   20.0270 H   0  0  0  0  0  0  0  0  0  0  0  0
  2  4  2  0
  3  5  1  0
  4  1  1  0
  4  9  1  0
  5 53  1  0
  5  1  2  0
  6  3  2  0
  6  2  1  0
  7  8  1  0
  8  6  1  0
  9 10  2  0
  9 11  1  0
 12 11  1  0
 13 24  2  0
 14 12  1  0
 14 19  1  0
 15 23  1  0
 15 25  1  0
 16 22  1  0
 16 18  1  0
 17 23  1  0
 18 19  2  0
 18 17  1  0
 20 14  2  0
 21 20  1  0
 21 16  2  0
 22 15  1  0
 23 13  1  0
 25 27  2  0
 26 25  1  0
 28 26  1  0
 29 38  2  0
 29 34  1  0
 30 26  1  0
 30 34  1  0
 31 30  1  0
 32 33  1  0
 32 31  1  0
 33 29  1  0
 34 35  2  0
 35 36  1  0
 37 36  2  0
 38 37  1  0
 39 13  1  0
 39 40  1  0
 39 49  1  0
 40 43  1  0
 41 45  1  0
 41 40  1  0
 42 41  2  0
 45 44  1  0
 47 45  1  0
 47 48  1  0
 47 46  1  0
 49 52  1  1
 49 50  1  0
 51 49  1  0
 53 54  1  0
 54 55  1  0
 55 56  1  0
 57 65  1  0
 58 63  1  0
 59 60  1  0
 59 58  1  0
 61 60  1  0
 61 70  1  0
 61 62  1  0
 63 57  1  0
 63 62  1  0
 64 57  2  0
 65 56  1  0
 65 66  1  0
 67 68  2  0
 68 87  1  0
 69 68  1  0
 69 72  1  0
 70 71  1  0
 70 67  1  0
 71 69  2  0
 72 73  1  0
 73 74  2  0
 75 78  1  0
 75 74  1  0
 76 75  2  0
 77 76  1  0
 77 72  2  0
 78 79  1  0
 79 80  1  0
 80 81  2  0
 82 81  1  0
 82 86  1  0
 83 82  2  0
 84 79  2  0
 84 83  1  0
 85 84  1  0
 87 88  1  0
 88 91  1  0
 88 90  1  0
 89 87  2  0
 92 67  1  0
 92 93  1  0
 94 92  1  0
M  ISO  4  11 101  12 101  57 100  65 100
M  END
>  <TORSDO>  (38) 
F 23

>  <SCORE>  (38) 
-12.882

>  <name>  (38) 
38

>  <ligand_id>  (38) 
38

>  <original_smiles>  (38) 
[H]c1c([H])c([H])c2c(c1[H])C([H])([H])C([H])([H])C([H])([H])C2([H])N([H])C(=O)C1([H])N(C(=O)C([H])(N([H])C(=O)C([H])(N([H])C([H])([H])[H])C([H])([H])[H])C(C([H])([H])[H])(C([H])([H])[H])C([H])([H])[H])C([H])([H])c2c([H])c(OC([H])([H])C(=O)c3c([H])c(OC([H])([H])[H])c([H])c(C([H])([H])C([H])([H])C([H])([H])C([H])([H])N([H])C(=O)N4C([H])([H])C([H])([H])C([H])([H])C([H])(n5nc(-c6c([H])c([H])c(Oc7c([H])c([H])c(F)c([H])c7F)c([H])c6[H])c(C(=O)N([H])[H])c5N([H])[H])C4([H])[H])c3[H])c([H])c([H])c2C1([H])[H]

>  <smiles>  (38) 
[H]c1c([H])c([H])c2c(c1[H])C([H])([H])C([H])([H])C([H])([H])C2([H])N([H])C(=O)C1([H])N(C(=O)C([H])(N([H])C(=O)C([H])(N([H])C([H])([H])[H])C([H])([H])[H])C(C([H])([H])[H])(C([H])([H])[H])C([H])([H])[H])C([H])([H])c2c([H])c(OC([H])([H])C(=O)c3c([H])c(OC([H])([H])[H])c([H])c(C([H])([H])C([H])([H])C([H])([H])C([H])([H])N([H])C(=O)N4C([H])([H])C([H])([H])C([H])([H])C([H])(n5nc(-c6c([H])c([H])c(Oc7c([H])c([H])c(F)c([H])c7F)c([H])c6[H])c(C(=O)N([H])[H])c5N([H])[H])C4([H])[H])c3[H])c([H])c([H])c2C1([H])[H]

$$$$
39:0:0
     RDKit          3D

 90 98  0  0  1  0  0  0  0  0999 V2000
  -28.3920  -20.4280   19.7190 C   0  0  0  0  0  3  0  0  0  0  0  0
  -29.7190  -22.1410   21.4670 C   0  0  0  0  0  3  0  0  0  0  0  0
  -28.1460  -21.8300   19.6610 C   0  0  0  0  0  0  0  0  0  0  0  0
  -29.9620  -20.7410   21.5280 C   0  0  0  0  0  0  0  0  0  0  0  0
  -29.2520  -19.8450   20.6840 C   0  0  0  0  0  0  0  0  0  0  0  0
  -28.7680  -22.7150   20.5840 C   0  0  0  0  0  0  0  0  0  0  0  0
  -27.1470  -22.3470   18.6410 C   0  0  0  0  0  1  0  0  0  0  0  0
  -30.9300  -20.2150   22.5760 C   0  0  0  0  0  1  0  0  0  0  0  0
  -29.1920  -18.3100   20.9560 C   0  0  0  0  0  2  0  0  0  0  0  0
  -30.2800  -17.3050   20.4180 C   0  0  0  0  0  2  0  0  0  0  0  0
  -30.0250  -15.8220   20.9060 C   0  0  0  0  0  2  0  0  0  0  0  0
  -30.7560  -14.6220   20.1990 C   0  0  0  0  0  0  0  0  0  0  0  0
  -30.4790  -12.4540   19.0090 C   0  0  0  0  0  2  0  0  0  0  0  0
  -29.4830  -12.6450   17.8460 C   0  0  0  0  0  2  0  0  0  0  0  0
  -28.0260  -12.4880   18.3290 C   0  0  0  0  0  2  0  0  0  0  0  0
  -27.7320  -13.3050   19.6160 C   0  0  0  0  0  3  0  0  0  0  0  0
  -28.8310  -13.0710   20.6760 C   0  0  0  0  0  2  0  0  0  0  0  0
  -30.1260  -13.4160   20.0690 N   0  0  0  0  0  0  0  0  0  0  0  0
  -31.8650  -14.8190   19.6920 O   0  0  0  0  0  0  0  0  0  0  0  0
  -25.3680  -13.9170   20.4250 C   0  0  0  0  0  0  0  0  0  0  0  0
  -24.3090  -13.1450   20.8190 C   0  0  0  0  0  0  0  0  0  0  0  0
  -24.7590  -11.7910   20.7480 C   0  0  0  0  0  0  0  0  0  0  0  0
  -26.3970  -13.0320   20.1420 N   0  0  0  0  0  0  0  0  0  0  0  0
  -26.0360  -11.7480   20.3940 N   0  0  0  0  0  0  0  0  0  0  0  0
  -24.0320  -10.5310   20.9440 C   0  0  0  0  0  0  0  0  0  0  0  0
  -24.4680   -9.5620   21.8740 C   0  0  0  0  0  3  0  0  0  0  0  0
  -23.7380   -8.3680   22.0570 C   0  0  0  0  0  3  0  0  0  0  0  0
  -22.5620   -8.1330   21.3090 C   0  0  0  0  0  0  0  0  0  0  0  0
  -22.1440   -9.0900   20.3670 C   0  0  0  0  0  3  0  0  0  0  0  0
  -22.8730  -10.2770   20.1830 C   0  0  0  0  0  3  0  0  0  0  0  0
  -21.8070   -6.9880   21.3990 O   0  0  0  0  0  0  0  0  0  0  0  0
  -21.7300   -6.2670   22.5640 C   0  0  0  0  0  0  0  0  0  0  0  0
  -21.2600   -6.8410   23.7650 C   0  0  0  0  0  3  0  0  0  0  0  0
  -21.1260   -6.0460   24.9210 C   0  0  0  0  0  3  0  0  0  0  0  0
  -21.4580   -4.6790   24.8790 C   0  0  0  0  0  0  0  0  0  0  0  0
  -21.9230   -4.1030   23.6820 C   0  0  0  0  0  3  0  0  0  0  0  0
  -22.0530   -4.8950   22.5280 C   0  0  0  0  0  0  0  0  0  0  0  0
  -22.4800   -4.3310   21.3720 F   0  0  0  0  0  0  0  0  0  0  0  0
  -21.3240   -3.9150   25.9860 F   0  0  0  0  0  0  0  0  0  0  0  0
  -22.9270  -13.6280   21.1520 C   0  0  0  0  0  0  0  0  0  0  0  0
  -22.2240  -12.9210   22.0310 N   0  0  0  0  0  0  0  0  0  0  0  0
  -22.4790  -14.6660   20.6680 O   0  0  0  0  0  0  0  0  0  0  0  0
  -22.5970  -12.0810   22.4470 H   0  0  0  0  0  0  0  0  0  0  0  0
  -21.3000  -13.2290   22.2970 H   0  0  0  0  0  0  0  0  0  0  0  0
  -25.5360  -15.2890   20.2640 N   0  0  0  0  0  0  0  0  0  0  0  0
  -24.7760  -15.9460   20.4150 H   0  0  0  0  0  0  0  0  0  0  0  0
  -26.3780  -15.7340   19.9200 H   0  0  0  0  0  0  0  0  0  0  0  0
  -28.3250  -24.2040   20.7940 C   0  0  0  0  0  3  0  0  0  0  0  0
  -28.6150  -25.2940   19.7040 C   0  0  0  0  0  3  0  0  0  0  0  0
  -28.4880  -26.6810   20.1490 O   0  0  0  0  0  0  0  0  0  0  0  0
  -24.6130  -31.8670   23.1950 C   0  0  0  0  0  0  0  0  0  0  0  0
  -27.2920  -27.3950   20.1180 C   0  0  0  0  0  0  0  0  0  0  0  0
  -23.4210  -30.4620   21.5470 C   0  0  0  0  0  3  0  0  0  0  0  0
  -24.8870  -28.9260   20.1240 C   0  0  0  0  0  0  0  0  0  0  0  0
  -25.9500  -30.8220   21.3590 C   0  0  0  0  0  2  0  0  0  0  0  0
  -26.0430  -29.4480   20.7130 C   0  0  0  0  0  0  0  0  0  0  0  0
  -27.2430  -28.6920   20.7020 C   0  0  0  0  0  3  0  0  0  0  0  0
  -26.1090  -26.8950   19.5260 C   0  0  0  0  0  3  0  0  0  0  0  0
  -24.9180  -27.6530   19.5270 C   0  0  0  0  0  3  0  0  0  0  0  0
  -23.6380  -29.7830   20.1680 C   0  0  0  0  0  2  0  0  0  0  0  0
  -24.6810  -31.0670   22.0920 N   0  0  0  0  0  0  0  0  0  0  0  0
  -23.5270  -32.1320   23.7320 O   0  0  0  0  0  0  0  0  0  0  0  0
  -22.7690  -29.4380   22.5040 C   0  0  0  0  0  0  0  0  0  0  0  0
  -21.4410  -29.2690   22.3890 N   0  0  0  0  0  0  0  0  0  0  0  0
  -23.4540  -28.7970   23.3050 O   0  0  0  0  0  0  0  0  0  0  0  0
  -20.9450  -29.8370   21.7170 H   0  0  0  0  0  0  0  0  0  0  0  0
  -18.0620  -28.0980   22.9180 C   0  0  0  0  0  0  0  0  0  0  0  0
  -20.6260  -28.3260   23.1570 C   0  0  0  0  0  3  0  0  0  0  0  0
  -20.7050  -26.9030   22.5580 C   0  0  0  0  0  2  0  0  0  0  0  0
  -19.5850  -26.6090   21.5540 C   0  0  0  0  0  2  0  0  0  0  0  0
  -18.2150  -26.7580   22.2200 C   0  0  0  0  0  2  0  0  0  0  0  0
  -19.1940  -28.8420   23.3440 C   0  0  0  0  0  0  0  0  0  0  0  0
  -18.9970  -30.0980   23.9570 C   0  0  0  0  0  3  0  0  0  0  0  0
  -17.7000  -30.6110   24.1490 C   0  0  0  0  0  3  0  0  0  0  0  0
  -16.5820  -29.8630   23.7420 C   0  0  0  0  0  3  0  0  0  0  0  0
  -16.7640  -28.6090   23.1310 C   0  0  0  0  0  3  0  0  0  0  0  0
  -25.8920  -32.5070   23.8220 C   0  0  0  0  0  3  0  0  0  0  0  0
  -25.5680  -33.8970   24.1710 N   0  0  0  0  0  0  0  0  0  0  0  0
  -25.8810  -34.9620   23.4210 C   0  0  0  0  0  0  0  0  0  0  0  0
  -26.5410  -34.8780   22.3810 O   0  0  0  0  0  0  0  0  0  0  0  0
  -24.9830  -34.0360   24.9810 H   0  0  0  0  0  0  0  0  0  0  0  0
  -24.1260  -36.7360   23.1050 C   0  0  0  0  0  1  0  0  0  0  0  0
  -25.3810  -36.3390   23.8990 C   0  0  0  0  0  3  0  0  0  0  0  0
  -27.5100  -37.2420   24.7230 C   0  0  0  0  0  1  0  0  0  0  0  0
  -26.3990  -37.4060   23.7900 N   0  0  0  0  0  0  0  0  0  0  0  0
  -25.9820  -38.3190   23.9500 H   0  0  0  0  0  0  0  0  0  0  0  0
  -26.4220  -31.7260   25.0870 C   0  0  1  0  0  0  0  0  0  0  0  0
  -25.3340  -31.4630   26.1550 C   0  0  0  0  0  1  0  0  0  0  0  0
  -27.0190  -30.3610   24.6750 C   0  0  0  0  0  1  0  0  0  0  0  0
  -27.5650  -32.5250   25.7560 C   0  0  0  0  0  1  0  0  0  0  0  0
  1  5  1  0
  2  4  1  0
  3  1  2  0
  3  6  1  0
  4  8  1  0
  5  9  1  0
  5  4  2  0
  6 48  1  0
  6  2  2  0
  7  3  1  0
 10 11  1  0
 10  9  1  0
 12 11  1  0
 13 18  1  0
 14 15  1  0
 14 13  1  0
 16 15  1  0
 16 23  1  0
 16 17  1  0
 18 12  1  0
 18 17  1  0
 19 12  2  0
 20 21  2  0
 21 40  1  0
 22 21  1  0
 22 25  1  0
 23 24  1  0
 23 20  1  0
 24 22  2  0
 25 26  1  0
 26 27  2  0
 28 31  1  0
 28 27  1  0
 29 28  2  0
 30 29  1  0
 30 25  2  0
 31 32  1  0
 32 33  1  0
 33 34  2  0
 35 34  1  0
 35 39  1  0
 36 35  2  0
 37 32  2  0
 37 36  1  0
 38 37  1  0
 40 41  1  0
 41 44  1  0
 41 43  1  0
 42 40  2  0
 45 46  1  0
 45 20  1  0
 47 45  1  0
 49 50  1  0
 49 48  2  0
 51 62  2  0
 52 50  1  0
 52 57  1  0
 53 61  1  0
 53 63  1  0
 54 60  1  0
 54 56  1  0
 55 61  1  0
 56 55  1  0
 57 56  2  0
 58 59  1  0
 58 52  2  0
 59 54  2  0
 60 53  1  0
 61 51  1  0
 63 65  2  0
 64 63  1  0
 66 64  1  0
 67 76  2  0
 67 72  1  0
 68 64  1  0
 68 72  1  0
 69 68  1  0
 70 71  1  0
 70 69  1  0
 71 67  1  0
 72 73  2  0
 73 74  1  0
 75 74  2  0
 76 75  1  0
 77 51  1  0
 77 78  1  0
 77 87  1  0
 78 81  1  0
 79 83  1  0
 79 78  1  0
 80 79  2  0
 83 82  1  0
 85 83  1  0
 85 86  1  0
 85 84  1  0
 87 90  1  1
 87 88  1  0
 89 87  1  0
M  ISO  4  11 100  12 100  49 101  50 101
M  END
>  <TORSDO>  (39) 
F 21

>  <SCORE>  (39) 
-13.467

>  <name>  (39) 
39

>  <ligand_id>  (39) 
39

>  <original_smiles>  (39) 
[H]c1c([H])c([H])c2c(c1[H])C([H])([H])C([H])([H])C([H])([H])C2([H])N([H])C(=O)C1([H])N(C(=O)C([H])(N([H])C(=O)C([H])(N([H])C([H])([H])[H])C([H])([H])[H])C(C([H])([H])[H])(C([H])([H])[H])C([H])([H])[H])C([H])([H])c2c([H])c(OC([H])([H])C([H])([H])c3c([H])c(C([H])([H])[H])c(C([H])([H])C([H])([H])C([H])([H])C(=O)N4C([H])([H])C([H])([H])C([H])([H])C([H])(n5nc(-c6c([H])c([H])c(Oc7c([H])c([H])c(F)c([H])c7F)c([H])c6[H])c(C(=O)N([H])[H])c5N([H])[H])C4([H])[H])c([H])c3C([H])([H])[H])c([H])c([H])c2C1([H])[H]

>  <smiles>  (39) 
[H]c1c([H])c([H])c2c(c1[H])C([H])([H])C([H])([H])C([H])([H])C2([H])N([H])C(=O)C1([H])N(C(=O)C([H])(N([H])C(=O)C([H])(N([H])C([H])([H])[H])C([H])([H])[H])C(C([H])([H])[H])(C([H])([H])[H])C([H])([H])[H])C([H])([H])c2c([H])c(OC([H])([H])C([H])([H])c3c([H])c(C([H])([H])[H])c(C([H])([H])C([H])([H])C([H])([H])C(=O)N4C([H])([H])C([H])([H])C([H])([H])C([H])(n5nc(-c6c([H])c([H])c(Oc7c([H])c([H])c(F)c([H])c7F)c([H])c6[H])c(C(=O)N([H])[H])c5N([H])[H])C4([H])[H])c([H])c3C([H])([H])[H])c([H])c([H])c2C1([H])[H]

$$$$
40:0:0
     RDKit          3D

 90 98  0  0  1  0  0  0  0  0999 V2000
  -29.1130  -21.5270   21.4570 C   0  0  0  0  0  3  0  0  0  0  0  0
  -28.2230  -22.8860   19.3320 C   0  0  0  0  0  3  0  0  0  0  0  0
  -29.0500  -20.4630   20.4090 C   0  0  0  0  0  0  0  0  0  0  0  0
  -28.5550  -21.3680   19.3170 C   0  0  0  0  0  0  0  0  0  0  0  0
  -28.2790  -23.9380   20.3970 C   0  0  0  0  0  0  0  0  0  0  0  0
  -28.7880  -23.0270   21.4660 C   0  0  0  0  0  0  0  0  0  0  0  0
  -29.0500  -23.6440   22.6430 F   0  0  0  0  0  0  0  0  0  0  0  0
  -29.4580  -17.2410   20.4290 C   0  0  0  0  0  3  0  0  0  0  0  0
  -29.7500  -18.7620   20.4010 C   0  0  0  0  0  0  0  0  0  0  0  0
  -30.2890  -15.7240   20.3670 C   0  0  0  0  0  0  0  0  0  0  0  0
  -30.4240  -13.1640   19.5820 C   0  0  0  0  0  2  0  0  0  0  0  0
  -29.5710  -12.7570   18.3450 C   0  0  0  0  0  2  0  0  0  0  0  0
  -28.1380  -12.3940   18.7570 C   0  0  0  0  0  2  0  0  0  0  0  0
  -27.5920  -13.3930   19.8010 C   0  0  0  0  0  3  0  0  0  0  0  0
  -28.5840  -13.7260   20.9370 C   0  0  0  0  0  2  0  0  0  0  0  0
  -29.7810  -14.3470   20.3230 N   0  0  0  0  0  0  0  0  0  0  0  0
  -31.5230  -15.6280   20.2100 O   0  0  0  0  0  0  0  0  0  0  0  0
  -25.2090  -13.8910   20.5170 C   0  0  0  0  0  0  0  0  0  0  0  0
  -24.1530  -13.0970   20.8630 C   0  0  0  0  0  0  0  0  0  0  0  0
  -24.6430  -11.7550   20.8460 C   0  0  0  0  0  0  0  0  0  0  0  0
  -26.2700  -13.0350   20.2950 N   0  0  0  0  0  0  0  0  0  0  0  0
  -25.9430  -11.7420   20.5640 N   0  0  0  0  0  0  0  0  0  0  0  0
  -23.9290  -10.4820   21.0230 C   0  0  0  0  0  0  0  0  0  0  0  0
  -24.3270   -9.5350   21.9910 C   0  0  0  0  0  3  0  0  0  0  0  0
  -23.6070   -8.3320   22.1570 C   0  0  0  0  0  3  0  0  0  0  0  0
  -22.4730   -8.0670   21.3530 C   0  0  0  0  0  0  0  0  0  0  0  0
  -22.0930   -9.0030   20.3740 C   0  0  0  0  0  3  0  0  0  0  0  0
  -22.8140  -10.1970   20.2080 C   0  0  0  0  0  3  0  0  0  0  0  0
  -21.7280   -6.9140   21.4250 O   0  0  0  0  0  0  0  0  0  0  0  0
  -21.6070   -6.2070   22.5950 C   0  0  0  0  0  0  0  0  0  0  0  0
  -21.0520   -6.7810   23.7590 C   0  0  0  0  0  3  0  0  0  0  0  0
  -20.8830   -5.9980   24.9180 C   0  0  0  0  0  3  0  0  0  0  0  0
  -21.2590   -4.6410   24.9140 C   0  0  0  0  0  0  0  0  0  0  0  0
  -21.8070   -4.0670   23.7530 C   0  0  0  0  0  3  0  0  0  0  0  0
  -21.9780   -4.8470   22.5970 C   0  0  0  0  0  0  0  0  0  0  0  0
  -22.4860   -4.2820   21.4750 F   0  0  0  0  0  0  0  0  0  0  0  0
  -21.0890   -3.8860   26.0240 F   0  0  0  0  0  0  0  0  0  0  0  0
  -22.7430  -13.5560   21.0910 C   0  0  0  0  0  0  0  0  0  0  0  0
  -22.0050  -12.8610   21.9490 N   0  0  0  0  0  0  0  0  0  0  0  0
  -22.3050  -14.5660   20.5440 O   0  0  0  0  0  0  0  0  0  0  0  0
  -22.3740  -12.0440   22.4120 H   0  0  0  0  0  0  0  0  0  0  0  0
  -21.0580  -13.1520   22.1470 H   0  0  0  0  0  0  0  0  0  0  0  0
  -25.3540  -15.2640   20.3390 N   0  0  0  0  0  0  0  0  0  0  0  0
  -24.5740  -15.9050   20.4350 H   0  0  0  0  0  0  0  0  0  0  0  0
  -26.2010  -15.7150   20.0200 H   0  0  0  0  0  0  0  0  0  0  0  0
  -31.7180  -19.3270   18.8950 C   0  0  0  0  0  1  0  0  0  0  0  0
  -31.2480  -19.0280   20.3240 C   0  0  0  0  0  2  0  0  0  0  0  0
  -28.1250  -21.3320   16.9330 C   0  0  0  0  0  1  0  0  0  0  0  0
  -28.4520  -20.6560   18.1400 O   0  0  0  0  0  0  0  0  0  0  0  0
  -28.2070  -25.5680   20.3720 O   0  0  0  0  0  0  0  0  0  0  0  0
  -24.6600  -31.8880   23.2340 C   0  0  0  0  0  0  0  0  0  0  0  0
  -27.1940  -26.7500   20.3380 C   0  0  0  0  0  0  0  0  0  0  0  0
  -23.4800  -30.4720   21.6060 C   0  0  0  0  0  3  0  0  0  0  0  0
  -24.9320  -28.7950   20.2300 C   0  0  0  0  0  0  0  0  0  0  0  0
  -26.0600  -30.6000   21.5060 C   0  0  0  0  0  2  0  0  0  0  0  0
  -26.1220  -29.1540   20.8740 C   0  0  0  0  0  0  0  0  0  0  0  0
  -27.2330  -28.1590   20.8960 C   0  0  0  0  0  3  0  0  0  0  0  0
  -25.9740  -26.6040   19.6290 C   0  0  0  0  0  3  0  0  0  0  0  0
  -24.8970  -27.5450   19.5860 C   0  0  0  0  0  3  0  0  0  0  0  0
  -23.7290  -29.7530   20.2480 C   0  0  0  0  0  2  0  0  0  0  0  0
  -24.7580  -31.0210   22.1680 N   0  0  0  0  0  0  0  0  0  0  0  0
  -23.5640  -32.1990   23.7310 O   0  0  0  0  0  0  0  0  0  0  0  0
  -22.7520  -29.5120   22.5850 C   0  0  0  0  0  0  0  0  0  0  0  0
  -21.4200  -29.3630   22.4530 N   0  0  0  0  0  0  0  0  0  0  0  0
  -23.3990  -28.8970   23.4370 O   0  0  0  0  0  0  0  0  0  0  0  0
  -20.9480  -29.9090   21.7460 H   0  0  0  0  0  0  0  0  0  0  0  0
  -18.0230  -28.1810   22.9650 C   0  0  0  0  0  0  0  0  0  0  0  0
  -20.5840  -28.4410   23.2310 C   0  0  0  0  0  3  0  0  0  0  0  0
  -20.6790  -27.0000   22.6750 C   0  0  0  0  0  2  0  0  0  0  0  0
  -19.5790  -26.6740   21.6580 C   0  0  0  0  0  2  0  0  0  0  0  0
  -18.1960  -26.8270   22.2980 C   0  0  0  0  0  2  0  0  0  0  0  0
  -19.1430  -28.9450   23.3900 C   0  0  0  0  0  0  0  0  0  0  0  0
  -18.9230  -30.2090   23.9800 C   0  0  0  0  0  3  0  0  0  0  0  0
  -17.6180  -30.7090   24.1470 C   0  0  0  0  0  3  0  0  0  0  0  0
  -16.5130  -29.9430   23.7360 C   0  0  0  0  0  3  0  0  0  0  0  0
  -16.7170  -28.6800   23.1510 C   0  0  0  0  0  3  0  0  0  0  0  0
  -25.9210  -32.5430   23.8770 C   0  0  0  0  0  3  0  0  0  0  0  0
  -26.4160  -31.7880   25.1730 C   0  0  1  0  0  0  0  0  0  0  0  0
  -25.3130  -31.5850   26.2390 C   0  0  0  0  0  1  0  0  0  0  0  0
  -26.9830  -30.3940   24.8220 C   0  0  0  0  0  1  0  0  0  0  0  0
  -27.5740  -32.5780   25.8280 C   0  0  0  0  0  1  0  0  0  0  0  0
  -25.5920  -33.9440   24.2120 N   0  0  0  0  0  0  0  0  0  0  0  0
  -25.9040  -35.0100   23.4640 C   0  0  0  0  0  0  0  0  0  0  0  0
  -26.5540  -34.9200   22.4200 O   0  0  0  0  0  0  0  0  0  0  0  0
  -25.0100  -34.0850   25.0240 H   0  0  0  0  0  0  0  0  0  0  0  0
  -24.1510  -36.8000   23.1820 C   0  0  0  0  0  1  0  0  0  0  0  0
  -25.4220  -36.3970   23.9460 C   0  0  0  0  0  3  0  0  0  0  0  0
  -27.5700  -37.3100   24.7140 C   0  0  0  0  0  1  0  0  0  0  0  0
  -26.4430  -37.4590   23.7980 N   0  0  0  0  0  0  0  0  0  0  0  0
  -26.0320  -38.3770   23.9460 H   0  0  0  0  0  0  0  0  0  0  0  0
  1  6  1  0
  2  5  1  0
  3  1  2  0
  4  2  2  0
  4  3  1  0
  5  6  2  0
  6  7  1  0
  9  3  1  0
  9  8  2  0
 10  8  1  0
 11 16  1  0
 12 13  1  0
 12 11  1  0
 14 13  1  0
 14 21  1  0
 14 15  1  0
 16 10  1  0
 16 15  1  0
 17 10  2  0
 18 19  2  0
 19 38  1  0
 20 19  1  0
 20 23  1  0
 21 18  1  0
 21 22  1  0
 22 20  2  0
 23 24  1  0
 24 25  2  0
 26 29  1  0
 26 25  1  0
 27 26  2  0
 28 27  1  0
 28 23  2  0
 29 30  1  0
 30 35  2  0
 30 31  1  0
 31 32  2  0
 33 32  1  0
 33 37  1  0
 34 33  2  0
 35 34  1  0
 36 35  1  0
 38 39  1  0
 39 42  1  0
 39 41  1  0
 40 38  2  0
 43 44  1  0
 43 18  1  0
 45 43  1  0
 46 47  1  0
 47  9  1  0
 48 49  1  0
 49  4  1  0
 50  5  1  0
 51 62  2  0
 52 50  1  0
 52 57  1  0
 53 61  1  0
 53 63  1  0
 54 60  1  0
 54 56  1  0
 55 61  1  0
 56 57  2  0
 56 55  1  0
 58 52  2  0
 59 58  1  0
 59 54  2  0
 60 53  1  0
 61 51  1  0
 63 65  2  0
 64 63  1  0
 66 64  1  0
 67 76  2  0
 67 72  1  0
 68 64  1  0
 68 72  1  0
 69 68  1  0
 70 71  1  0
 70 69  1  0
 71 67  1  0
 72 73  2  0
 73 74  1  0
 75 74  2  0
 76 75  1  0
 77 51  1  0
 77 82  1  0
 77 78  1  0
 78 81  1  1
 78 79  1  0
 80 78  1  0
 82 85  1  0
 83 87  1  0
 83 82  1  0
 84 83  2  0
 87 86  1  0
 89 87  1  0
 89 90  1  0
 89 88  1  0
M  ISO  4   5 101   8 100  10 100  50 101
M  END
>  <TORSDO>  (40) 
F 19

>  <SCORE>  (40) 
-14.733

>  <name>  (40) 
40

>  <ligand_id>  (40) 
40

>  <original_smiles>  (40) 
[H]C(C(=O)N1C([H])([H])C([H])([H])C([H])([H])C([H])(n2nc(-c3c([H])c([H])c(Oc4c([H])c([H])c(F)c([H])c4F)c([H])c3[H])c(C(=O)N([H])[H])c2N([H])[H])C1([H])[H])=C(c1c([H])c(F)c(Oc2c([H])c([H])c3c(c2[H])C([H])([H])N(C(=O)C([H])(N([H])C(=O)C([H])(N([H])C([H])([H])[H])C([H])([H])[H])C(C([H])([H])[H])(C([H])([H])[H])C([H])([H])[H])C([H])(C(=O)N([H])C2([H])c4c([H])c([H])c([H])c([H])c4C([H])([H])C([H])([H])C2([H])[H])C3([H])[H])c([H])c1OC([H])([H])[H])C([H])([H])C([H])([H])[H]

>  <smiles>  (40) 
[H]C(C(=O)N1C([H])([H])C([H])([H])C([H])([H])C([H])(n2nc(-c3c([H])c([H])c(Oc4c([H])c([H])c(F)c([H])c4F)c([H])c3[H])c(C(=O)N([H])[H])c2N([H])[H])C1([H])[H])=C(c1c([H])c(F)c(Oc2c([H])c([H])c3c(c2[H])C([H])([H])N(C(=O)C([H])(N([H])C(=O)C([H])(N([H])C([H])([H])[H])C([H])([H])[H])C(C([H])([H])[H])(C([H])([H])[H])C([H])([H])[H])C([H])(C(=O)N([H])C2([H])c4c([H])c([H])c([H])c([H])c4C([H])([H])C([H])([H])C2([H])[H])C3([H])[H])c([H])c1OC([H])([H])[H])C([H])([H])C([H])([H])[H]

$$$$
41:0:0
     RDKit          3D

 90 98  0  0  1  0  0  0  0  0999 V2000
  -29.4210  -21.8580   18.6350 C   0  0  0  0  0  3  0  0  0  0  0  0
  -29.3610  -23.0760   17.9040 C   0  0  0  0  0  0  0  0  0  0  0  0
  -28.9850  -21.7170   19.9610 C   0  0  0  0  0  0  0  0  0  0  0  0
  -28.8750  -24.3150   18.4430 C   0  0  0  0  0  0  0  0  0  0  0  0
  -28.5140  -23.0830   20.5090 C   0  0  0  0  0  0  0  0  0  0  0  0
  -28.4410  -24.4550   19.7970 C   0  0  0  0  0  0  0  0  0  0  0  0
  -28.8570  -25.5390   17.5270 C   0  0  0  0  0  1  0  0  0  0  0  0
  -28.0600  -23.0630   21.9510 C   0  0  0  0  0  1  0  0  0  0  0  0
  -31.4010  -23.2580   16.3990 C   0  0  0  0  0  1  0  0  0  0  0  0
  -29.8880  -23.0050   16.4700 C   0  0  0  0  0  2  0  0  0  0  0  0
  -28.2460  -25.8970   20.2930 O   0  0  0  0  0  0  0  0  0  0  0  0
  -24.6330  -31.8320   23.1650 C   0  0  0  0  0  0  0  0  0  0  0  0
  -27.2110  -26.9630   20.1490 C   0  0  0  0  0  0  0  0  0  0  0  0
  -23.4390  -30.4280   21.5280 C   0  0  0  0  0  3  0  0  0  0  0  0
  -24.8900  -28.8190   20.1020 C   0  0  0  0  0  0  0  0  0  0  0  0
  -26.0000  -30.6440   21.3800 C   0  0  0  0  0  2  0  0  0  0  0  0
  -26.0740  -29.2330   20.7260 C   0  0  0  0  0  0  0  0  0  0  0  0
  -27.2200  -28.3230   20.7310 C   0  0  0  0  0  3  0  0  0  0  0  0
  -26.0010  -26.6910   19.4730 C   0  0  0  0  0  3  0  0  0  0  0  0
  -24.8790  -27.5680   19.4570 C   0  0  0  0  0  3  0  0  0  0  0  0
  -23.6690  -29.7370   20.1520 C   0  0  0  0  0  2  0  0  0  0  0  0
  -24.7110  -30.9950   22.0780 N   0  0  0  0  0  0  0  0  0  0  0  0
  -23.5430  -32.1190   23.6890 O   0  0  0  0  0  0  0  0  0  0  0  0
  -22.7490  -29.4370   22.5020 C   0  0  0  0  0  0  0  0  0  0  0  0
  -21.4180  -29.2780   22.3890 N   0  0  0  0  0  0  0  0  0  0  0  0
  -23.4190  -28.8060   23.3230 O   0  0  0  0  0  0  0  0  0  0  0  0
  -20.9260  -29.8400   21.7080 H   0  0  0  0  0  0  0  0  0  0  0  0
  -18.0360  -28.0860   22.9290 C   0  0  0  0  0  0  0  0  0  0  0  0
  -20.5990  -28.3440   23.1680 C   0  0  0  0  0  3  0  0  0  0  0  0
  -20.6890  -26.9130   22.5880 C   0  0  0  0  0  2  0  0  0  0  0  0
  -19.5770  -26.5960   21.5820 C   0  0  0  0  0  2  0  0  0  0  0  0
  -18.2030  -26.7430   22.2410 C   0  0  0  0  0  2  0  0  0  0  0  0
  -19.1610  -28.8460   23.3490 C   0  0  0  0  0  0  0  0  0  0  0  0
  -18.9520  -30.1030   23.9560 C   0  0  0  0  0  3  0  0  0  0  0  0
  -17.6500  -30.6030   24.1450 C   0  0  0  0  0  3  0  0  0  0  0  0
  -16.5390  -29.8440   23.7380 C   0  0  0  0  0  3  0  0  0  0  0  0
  -16.7330  -28.5880   23.1360 C   0  0  0  0  0  3  0  0  0  0  0  0
  -25.9030  -32.4780   23.7950 C   0  0  0  0  0  3  0  0  0  0  0  0
  -26.4190  -31.7090   25.0740 C   0  0  1  0  0  0  0  0  0  0  0  0
  -25.3280  -31.4680   26.1440 C   0  0  0  0  0  1  0  0  0  0  0  0
  -27.0090  -30.3350   24.6900 C   0  0  0  0  0  1  0  0  0  0  0  0
  -27.5690  -32.5050   25.7350 C   0  0  0  0  0  1  0  0  0  0  0  0
  -25.5780  -33.8720   24.1450 N   0  0  0  0  0  0  0  0  0  0  0  0
  -25.9040  -34.9440   23.4120 C   0  0  0  0  0  0  0  0  0  0  0  0
  -26.5720  -34.8660   22.3790 O   0  0  0  0  0  0  0  0  0  0  0  0
  -24.9840  -34.0050   24.9500 H   0  0  0  0  0  0  0  0  0  0  0  0
  -24.1680  -36.7430   23.1040 C   0  0  0  0  0  1  0  0  0  0  0  0
  -25.4120  -36.3220   23.9020 C   0  0  0  0  0  3  0  0  0  0  0  0
  -27.5440  -37.2040   24.7450 C   0  0  0  0  0  1  0  0  0  0  0  0
  -26.4390  -37.3830   23.8080 N   0  0  0  0  0  0  0  0  0  0  0  0
  -26.0250  -38.2970   23.9760 H   0  0  0  0  0  0  0  0  0  0  0  0
  -29.0350  -20.0980   20.6180 C   0  0  0  0  0  3  0  0  0  0  0  0
  -29.7940  -18.5450   20.1030 C   0  0  0  0  0  3  0  0  0  0  0  0
  -29.6050  -16.8310   20.6490 C   0  0  0  0  0  2  0  0  0  0  0  0
  -30.3950  -15.2900   20.3160 C   0  0  0  0  0  0  0  0  0  0  0  0
  -30.3880  -12.8350   19.4470 C   0  0  0  0  0  2  0  0  0  0  0  0
  -29.4880  -12.6580   18.1960 C   0  0  0  0  0  2  0  0  0  0  0  0
  -28.0240  -12.4020   18.5980 C   0  0  0  0  0  2  0  0  0  0  0  0
  -27.5660  -13.3500   19.7360 C   0  0  0  0  0  3  0  0  0  0  0  0
  -28.5970  -13.4800   20.8790 C   0  0  0  0  0  2  0  0  0  0  0  0
  -29.8550  -13.9700   20.2880 N   0  0  0  0  0  0  0  0  0  0  0  0
  -31.5990  -15.2950   20.0140 O   0  0  0  0  0  0  0  0  0  0  0  0
  -25.1790  -13.9060   20.4390 C   0  0  0  0  0  0  0  0  0  0  0  0
  -24.1140  -13.1300   20.8000 C   0  0  0  0  0  0  0  0  0  0  0  0
  -24.5850  -11.7810   20.7940 C   0  0  0  0  0  0  0  0  0  0  0  0
  -26.2300  -13.0330   20.2240 N   0  0  0  0  0  0  0  0  0  0  0  0
  -25.8850  -11.7480   20.5080 N   0  0  0  0  0  0  0  0  0  0  0  0
  -23.8570  -10.5190   20.9890 C   0  0  0  0  0  0  0  0  0  0  0  0
  -24.2730   -9.5650   21.9440 C   0  0  0  0  0  3  0  0  0  0  0  0
  -23.5430   -8.3680   22.1260 C   0  0  0  0  0  3  0  0  0  0  0  0
  -22.3840   -8.1200   21.3550 C   0  0  0  0  0  0  0  0  0  0  0  0
  -21.9860   -9.0630   20.3910 C   0  0  0  0  0  3  0  0  0  0  0  0
  -22.7160  -10.2500   20.2060 C   0  0  0  0  0  3  0  0  0  0  0  0
  -21.6270   -6.9750   21.4470 O   0  0  0  0  0  0  0  0  0  0  0  0
  -21.5580   -6.2470   22.6070 C   0  0  0  0  0  0  0  0  0  0  0  0
  -21.1190   -6.8180   23.8220 C   0  0  0  0  0  3  0  0  0  0  0  0
  -21.0000   -6.0160   24.9740 C   0  0  0  0  0  3  0  0  0  0  0  0
  -21.3090   -4.6440   24.9140 C   0  0  0  0  0  0  0  0  0  0  0  0
  -21.7430   -4.0730   23.7050 C   0  0  0  0  0  3  0  0  0  0  0  0
  -21.8640   -4.8710   22.5540 C   0  0  0  0  0  0  0  0  0  0  0  0
  -22.2620   -4.3110   21.3870 F   0  0  0  0  0  0  0  0  0  0  0  0
  -21.1880   -3.8730   26.0190 F   0  0  0  0  0  0  0  0  0  0  0  0
  -22.7110  -13.6060   21.0380 C   0  0  0  0  0  0  0  0  0  0  0  0
  -21.9680  -12.9190   21.8970 N   0  0  0  0  0  0  0  0  0  0  0  0
  -22.2840  -14.6240   20.4950 O   0  0  0  0  0  0  0  0  0  0  0  0
  -22.3290  -12.0970   22.3580 H   0  0  0  0  0  0  0  0  0  0  0  0
  -21.0230  -13.2180   22.0970 H   0  0  0  0  0  0  0  0  0  0  0  0
  -25.3400  -15.2760   20.2520 N   0  0  0  0  0  0  0  0  0  0  0  0
  -24.5650  -15.9250   20.3440 H   0  0  0  0  0  0  0  0  0  0  0  0
  -26.1950  -15.7180   19.9390 H   0  0  0  0  0  0  0  0  0  0  0  0
  1  3  1  0
  2  4  1  0
  2  1  2  0
  3  5  2  0
  3 52  1  0
  4  6  2  0
  5  8  1  0
  6 11  1  0
  6  5  1  0
  7  4  1  0
  9 10  1  0
 10  2  1  0
 12 23  2  0
 13 11  1  0
 13 18  1  0
 14 22  1  0
 14 24  1  0
 15 21  1  0
 15 17  1  0
 16 22  1  0
 17 18  2  0
 17 16  1  0
 19 13  2  0
 20 19  1  0
 20 15  2  0
 21 14  1  0
 22 12  1  0
 24 26  2  0
 25 24  1  0
 27 25  1  0
 28 37  2  0
 28 33  1  0
 29 25  1  0
 29 33  1  0
 30 29  1  0
 31 32  1  0
 31 30  1  0
 32 28  1  0
 33 34  2  0
 34 35  1  0
 36 35  2  0
 37 36  1  0
 38 12  1  0
 38 43  1  0
 38 39  1  0
 39 42  1  1
 39 40  1  0
 41 39  1  0
 43 46  1  0
 44 48  1  0
 44 43  1  0
 45 44  2  0
 48 47  1  0
 50 48  1  0
 50 51  1  0
 50 49  1  0
 53 52  2  0
 53 54  1  0
 55 54  1  0
 56 61  1  0
 57 58  1  0
 57 56  1  0
 59 58  1  0
 59 66  1  0
 59 60  1  0
 61 55  1  0
 61 60  1  0
 62 55  2  0
 63 64  2  0
 64 83  1  0
 65 64  1  0
 65 68  1  0
 66 63  1  0
 66 67  1  0
 67 65  2  0
 68 69  1  0
 69 70  2  0
 71 74  1  0
 71 70  1  0
 72 71  2  0
 73 72  1  0
 73 68  2  0
 74 75  1  0
 75 76  1  0
 76 77  2  0
 78 77  1  0
 78 82  1  0
 79 78  2  0
 80 75  2  0
 80 79  1  0
 81 80  1  0
 83 84  1  0
 84 87  1  0
 84 86  1  0
 85 83  2  0
 88 89  1  0
 88 63  1  0
 90 88  1  0
M  ISO  4   6 101  11 101  54 100  55 100
M  END
>  <TORSDO>  (41) 
F 20

>  <SCORE>  (41) 
-15.215

>  <name>  (41) 
41

>  <ligand_id>  (41) 
41

>  <original_smiles>  (41) 
[H]c1c([H])c([H])c2c(c1[H])C([H])([H])C([H])([H])C([H])([H])C2([H])N([H])C(=O)C1([H])N(C(=O)C([H])(N([H])C(=O)C([H])(N([H])C([H])([H])[H])C([H])([H])[H])C(C([H])([H])[H])(C([H])([H])[H])C([H])([H])[H])C([H])([H])c2c([H])c(Oc3c(C([H])([H])[H])c(C([H])([H])C([H])([H])[H])c([H])c(C([H])([H])C([H])([H])C([H])([H])C(=O)N4C([H])([H])C([H])([H])C([H])([H])C([H])(n5nc(-c6c([H])c([H])c(Oc7c([H])c([H])c(F)c([H])c7F)c([H])c6[H])c(C(=O)N([H])[H])c5N([H])[H])C4([H])[H])c3C([H])([H])[H])c([H])c([H])c2C1([H])[H]

>  <smiles>  (41) 
[H]c1c([H])c([H])c2c(c1[H])C([H])([H])C([H])([H])C([H])([H])C2([H])N([H])C(=O)C1([H])N(C(=O)C([H])(N([H])C(=O)C([H])(N([H])C([H])([H])[H])C([H])([H])[H])C(C([H])([H])[H])(C([H])([H])[H])C([H])([H])[H])C([H])([H])c2c([H])c(Oc3c(C([H])([H])[H])c(C([H])([H])C([H])([H])[H])c([H])c(C([H])([H])C([H])([H])C([H])([H])C(=O)N4C([H])([H])C([H])([H])C([H])([H])C([H])(n5nc(-c6c([H])c([H])c(Oc7c([H])c([H])c(F)c([H])c7F)c([H])c6[H])c(C(=O)N([H])[H])c5N([H])[H])C4([H])[H])c3C([H])([H])[H])c([H])c([H])c2C1([H])[H]

$$$$
42:0:0
     RDKit          3D

 93101  0  0  1  0  0  0  0  0999 V2000
  -30.0950  -20.9120   20.3500 C   0  0  0  0  0  2  0  0  0  0  0  0
  -30.1880  -16.3230   20.1950 C   0  0  0  0  0  0  0  0  0  0  0  0
  -28.9840  -17.1240   20.1150 C   0  0  0  0  0  0  0  0  0  0  0  0
  -31.3040  -17.1270   20.6850 C   0  0  0  0  0  0  0  0  0  0  0  0
  -28.9430  -18.5660   20.1800 C   0  0  0  0  0  0  0  0  0  0  0  0
  -31.2490  -18.5710   20.8450 C   0  0  0  0  0  0  0  0  0  0  0  0
  -30.0930  -19.3280   20.4810 C   0  0  0  0  0  0  0  0  0  0  0  0
  -27.6310  -16.5180   20.0020 C   0  0  0  0  0  1  0  0  0  0  0  0
  -32.6420  -16.4520   21.0320 C   0  0  0  0  0  1  0  0  0  0  0  0
  -27.6130  -19.3190   19.9430 C   0  0  0  0  0  1  0  0  0  0  0  0
  -32.4540  -19.3460   21.4040 C   0  0  0  0  0  1  0  0  0  0  0  0
  -30.4470  -14.8470   19.5750 C   0  0  0  0  0  0  0  0  0  0  0  0
  -30.0500  -12.5840   18.5350 C   0  0  0  0  0  2  0  0  0  0  0  0
  -28.9620  -12.6660   17.4410 C   0  0  0  0  0  2  0  0  0  0  0  0
  -27.5550  -12.4410   18.0320 C   0  0  0  0  0  2  0  0  0  0  0  0
  -27.3430  -13.2370   19.3480 C   0  0  0  0  0  3  0  0  0  0  0  0
  -28.5720  -13.0900   20.2970 C   0  0  0  0  0  2  0  0  0  0  0  0
  -29.7560  -13.6190   19.5860 N   0  0  0  0  0  0  0  0  0  0  0  0
  -31.4540  -14.8260   18.8650 O   0  0  0  0  0  0  0  0  0  0  0  0
  -25.0250  -13.7370   20.3770 C   0  0  0  0  0  0  0  0  0  0  0  0
  -24.0620  -12.9290   20.8990 C   0  0  0  0  0  0  0  0  0  0  0  0
  -24.5550  -11.6000   20.7620 C   0  0  0  0  0  0  0  0  0  0  0  0
  -26.0760  -12.9100   19.9990 N   0  0  0  0  0  0  0  0  0  0  0  0
  -25.7930  -11.6100   20.2760 N   0  0  0  0  0  0  0  0  0  0  0  0
  -23.8860  -10.3190   20.9920 C   0  0  0  0  0  0  0  0  0  0  0  0
  -24.3670   -9.3970   21.9490 C   0  0  0  0  0  3  0  0  0  0  0  0
  -23.6820   -8.1860   22.1770 C   0  0  0  0  0  3  0  0  0  0  0  0
  -22.5100   -7.8840   21.4450 C   0  0  0  0  0  0  0  0  0  0  0  0
  -22.0530   -8.7920   20.4740 C   0  0  0  0  0  3  0  0  0  0  0  0
  -22.7380   -9.9940   20.2420 C   0  0  0  0  0  3  0  0  0  0  0  0
  -21.7960   -6.7210   21.5840 O   0  0  0  0  0  0  0  0  0  0  0  0
  -21.6870   -6.0890   22.7950 C   0  0  0  0  0  0  0  0  0  0  0  0
  -21.1070   -6.7210   23.9180 C   0  0  0  0  0  3  0  0  0  0  0  0
  -20.9530   -6.0090   25.1240 C   0  0  0  0  0  3  0  0  0  0  0  0
  -21.3680   -4.6660   25.2070 C   0  0  0  0  0  0  0  0  0  0  0  0
  -21.9400   -4.0350   24.0890 C   0  0  0  0  0  3  0  0  0  0  0  0
  -22.0960   -4.7440   22.8860 C   0  0  0  0  0  0  0  0  0  0  0  0
  -22.6310   -4.1270   21.8040 F   0  0  0  0  0  0  0  0  0  0  0  0
  -21.2110   -3.9760   26.3600 F   0  0  0  0  0  0  0  0  0  0  0  0
  -22.7110  -13.3710   21.3830 C   0  0  0  0  0  0  0  0  0  0  0  0
  -22.1330  -12.6540   22.3380 N   0  0  0  0  0  0  0  0  0  0  0  0
  -22.1810  -14.3940   20.9490 O   0  0  0  0  0  0  0  0  0  0  0  0
  -22.5740  -11.8290   22.7210 H   0  0  0  0  0  0  0  0  0  0  0  0
  -21.2310  -12.9390   22.6950 H   0  0  0  0  0  0  0  0  0  0  0  0
  -25.0310  -15.1030   20.1680 N   0  0  0  0  0  0  0  0  0  0  0  0
  -24.2100  -15.6700   20.3510 H   0  0  0  0  0  0  0  0  0  0  0  0
  -25.7340  -15.5860   19.6260 H   0  0  0  0  0  0  0  0  0  0  0  0
  -29.5430  -21.7860   21.5030 C   0  0  0  0  0  3  0  0  0  0  0  0
  -29.3300  -23.1410   21.6040 C   0  0  0  0  0  0  0  0  0  0  0  0
  -28.7920  -23.6970   22.9150 C   0  0  0  0  0  1  0  0  0  0  0  0
  -29.6070  -24.2690   20.5590 C   0  0  0  0  0  2  0  0  0  0  0  0
  -28.3840  -25.1490   20.0530 C   0  0  0  0  0  2  0  0  0  0  0  0
  -28.5560  -26.6090   19.9580 O   0  0  0  0  0  0  0  0  0  0  0  0
  -24.6380  -31.7310   23.0660 C   0  0  0  0  0  0  0  0  0  0  0  0
  -27.3960  -27.3840   19.9010 C   0  0  0  0  0  0  0  0  0  0  0  0
  -23.4700  -30.3380   21.3880 C   0  0  0  0  0  3  0  0  0  0  0  0
  -24.9700  -28.8810   19.9220 C   0  0  0  0  0  0  0  0  0  0  0  0
  -25.9910  -30.7650   21.1990 C   0  0  0  0  0  2  0  0  0  0  0  0
  -26.1180  -29.4100   20.5240 C   0  0  0  0  0  0  0  0  0  0  0  0
  -27.3350  -28.6760   20.4990 C   0  0  0  0  0  3  0  0  0  0  0  0
  -26.2240  -26.8970   19.2790 C   0  0  0  0  0  3  0  0  0  0  0  0
  -25.0240  -27.6310   19.2860 C   0  0  0  0  0  3  0  0  0  0  0  0
  -23.7050  -29.7080   19.9880 C   0  0  0  0  0  2  0  0  0  0  0  0
  -24.7170  -30.9610   21.9420 N   0  0  0  0  0  0  0  0  0  0  0  0
  -23.5520  -31.9510   23.6170 O   0  0  0  0  0  0  0  0  0  0  0  0
  -22.8490  -29.2730   22.3240 C   0  0  0  0  0  0  0  0  0  0  0  0
  -21.5260  -29.0600   22.2040 N   0  0  0  0  0  0  0  0  0  0  0  0
  -23.5550  -28.6450   23.1160 O   0  0  0  0  0  0  0  0  0  0  0  0
  -21.0140  -29.6260   21.5420 H   0  0  0  0  0  0  0  0  0  0  0  0
  -18.1870  -27.7790   22.7240 C   0  0  0  0  0  0  0  0  0  0  0  0
  -20.7440  -28.0780   22.9530 C   0  0  0  0  0  3  0  0  0  0  0  0
  -20.8610  -26.6700   22.3230 C   0  0  0  0  0  2  0  0  0  0  0  0
  -19.7460  -26.3640   21.3170 C   0  0  0  0  0  2  0  0  0  0  0  0
  -18.3750  -26.4590   21.9930 C   0  0  0  0  0  2  0  0  0  0  0  0
  -19.2990  -28.5450   23.1610 C   0  0  0  0  0  0  0  0  0  0  0  0
  -19.0700  -29.7800   23.8060 C   0  0  0  0  0  3  0  0  0  0  0  0
  -17.7580  -30.2500   24.0150 C   0  0  0  0  0  3  0  0  0  0  0  0
  -16.6620  -29.4820   23.5910 C   0  0  0  0  0  3  0  0  0  0  0  0
  -16.8740  -28.2470   22.9520 C   0  0  0  0  0  3  0  0  0  0  0  0
  -25.9030  -32.3880   23.6980 C   0  0  0  0  0  3  0  0  0  0  0  0
  -26.4510  -31.6030   24.9540 C   0  0  1  0  0  0  0  0  0  0  0  0
  -25.3720  -31.3020   26.0190 C   0  0  0  0  0  1  0  0  0  0  0  0
  -27.0780  -30.2580   24.5220 C   0  0  0  0  0  1  0  0  0  0  0  0
  -27.5760  -32.4170   25.6340 C   0  0  0  0  0  1  0  0  0  0  0  0
  -25.5540  -33.7680   24.0640 N   0  0  0  0  0  0  0  0  0  0  0  0
  -25.8610  -34.8480   23.3320 C   0  0  0  0  0  0  0  0  0  0  0  0
  -26.5310  -34.7880   22.2980 O   0  0  0  0  0  0  0  0  0  0  0  0
  -24.9660  -33.8860   24.8770 H   0  0  0  0  0  0  0  0  0  0  0  0
  -24.0910  -36.6050   23.0110 C   0  0  0  0  0  1  0  0  0  0  0  0
  -25.3350  -36.2100   23.8250 C   0  0  0  0  0  3  0  0  0  0  0  0
  -27.4340  -37.1260   24.7080 C   0  0  0  0  0  1  0  0  0  0  0  0
  -26.3410  -37.2910   23.7530 N   0  0  0  0  0  0  0  0  0  0  0  0
  -25.9100  -38.1970   23.9160 H   0  0  0  0  0  0  0  0  0  0  0  0
  1  7  1  0
  1 48  1  0
  2  4  1  0
  3  5  1  0
  3  2  2  0
  4  6  2  0
  4  9  1  0
  5  7  2  0
  6 11  1  0
  7  6  1  0
  8  3  1  0
 10  5  1  0
 12 18  1  0
 12  2  1  0
 13 18  1  0
 14 15  1  0
 14 13  1  0
 16 15  1  0
 16 23  1  0
 16 17  1  0
 18 17  1  0
 19 12  2  0
 20 21  2  0
 21 40  1  0
 22 21  1  0
 22 25  1  0
 23 24  1  0
 23 20  1  0
 24 22  2  0
 25 26  1  0
 26 27  2  0
 28 31  1  0
 28 27  1  0
 29 28  2  0
 30 29  1  0
 30 25  2  0
 31 32  1  0
 32 37  2  0
 32 33  1  0
 33 34  2  0
 34 35  1  0
 35 39  1  0
 36 35  2  0
 37 36  1  0
 38 37  1  0
 40 41  1  0
 41 44  1  0
 41 43  1  0
 42 40  2  0
 45 46  1  0
 45 20  1  0
 47 45  1  0
 48 49  2  0
 49 50  1  0
 51 49  1  0
 52 51  1  0
 53 52  1  0
 54 65  2  0
 55 53  1  0
 55 60  1  0
 56 64  1  0
 56 66  1  0
 57 63  1  0
 57 59  1  0
 58 64  1  0
 59 58  1  0
 60 59  2  0
 61 62  1  0
 61 55  2  0
 62 57  2  0
 63 56  1  0
 64 54  1  0
 66 68  2  0
 67 66  1  0
 69 67  1  0
 70 79  2  0
 70 75  1  0
 71 67  1  0
 71 75  1  0
 72 71  1  0
 73 74  1  0
 73 72  1  0
 74 70  1  0
 75 76  2  0
 76 77  1  0
 78 77  2  0
 79 78  1  0
 80 54  1  0
 80 85  1  0
 80 81  1  0
 81 84  1  1
 81 82  1  0
 83 81  1  0
 85 88  1  0
 86 90  1  0
 86 85  1  0
 87 86  2  0
 90 89  1  0
 92 90  1  0
 92 93  1  0
 92 91  1  0
M  ISO  4   2 100  12 100  52 101  53 101
M  END
>  <TORSDO>  (42) 
F 20

>  <SCORE>  (42) 
-11.926

>  <name>  (42) 
42

>  <ligand_id>  (42) 
42

>  <original_smiles>  (42) 
[H]C(=C(C([H])([H])[H])C([H])([H])C([H])([H])Oc1c([H])c([H])c2c(c1[H])C([H])([H])N(C(=O)C([H])(N([H])C(=O)C([H])(N([H])C([H])([H])[H])C([H])([H])[H])C(C([H])([H])[H])(C([H])([H])[H])C([H])([H])[H])C([H])(C(=O)N([H])C1([H])c3c([H])c([H])c([H])c([H])c3C([H])([H])C([H])([H])C1([H])[H])C2([H])[H])C([H])([H])c1c(C([H])([H])[H])c(C([H])([H])[H])c(C(=O)N2C([H])([H])C([H])([H])C([H])([H])C([H])(n3nc(-c4c([H])c([H])c(Oc5c([H])c([H])c(F)c([H])c5F)c([H])c4[H])c(C(=O)N([H])[H])c3N([H])[H])C2([H])[H])c(C([H])([H])[H])c1C([H])([H])[H]

>  <smiles>  (42) 
[H]C(=C(C([H])([H])[H])C([H])([H])C([H])([H])Oc1c([H])c([H])c2c(c1[H])C([H])([H])N(C(=O)C([H])(N([H])C(=O)C([H])(N([H])C([H])([H])[H])C([H])([H])[H])C(C([H])([H])[H])(C([H])([H])[H])C([H])([H])[H])C([H])(C(=O)N([H])C1([H])c3c([H])c([H])c([H])c([H])c3C([H])([H])C([H])([H])C1([H])[H])C2([H])[H])C([H])([H])c1c(C([H])([H])[H])c(C([H])([H])[H])c(C(=O)N2C([H])([H])C([H])([H])C([H])([H])C([H])(n3nc(-c4c([H])c([H])c(Oc5c([H])c([H])c(F)c([H])c5F)c([H])c4[H])c(C(=O)N([H])[H])c3N([H])[H])C2([H])[H])c(C([H])([H])[H])c1C([H])([H])[H]

$$$$
43:0:0
     RDKit          3D

 93 85  0  0  1  0  0  0  0  0999 V2000
  -18.1460  -30.4630   22.6340 C   0  0  0  0  0 15  0  0  0  0  0  0
  -19.8910  -29.9030   21.5090 C   0  0  0  0  0 15  0  0  0  0  0  0
  -18.1630  -27.1020   24.2230 C   0  0  0  0  0 15  0  0  0  0  0  0
  -19.9520  -26.4250   23.3210 C   0  0  0  0  0 15  0  0  0  0  0  0
  -17.2050  -29.0290   23.9330 C   0  0  0  0  0  1  0  0  0  0  0  0
  -20.9930  -28.0900   21.5480 C   0  0  0  0  0 15  0  0  0  0  0  0
  -15.9240  -29.3800   24.6520 C   0  0  0  0  0  1  0  0  0  0  0  0
  -20.6130  -24.5490   23.5820 C   0  0  0  0  0  2  0  0  0  0  0  0
  -19.8460  -23.8450   24.2470 O   0  0  0  0  0  0  0  0  0  0  0  0
  -22.2200  -23.5150   23.0590 C   0  0  0  0  0 15  0  0  0  0  0  0
  -23.0980  -21.7030   22.8090 C   0  0  0  0  0 15  0  0  0  0  0  0
  -24.7980  -20.7470   22.2360 C   0  0  0  0  0 15  0  0  0  0  0  0
  -25.7310  -18.9580   21.9980 C   0  0  0  0  0 15  0  0  0  0  0  0
  -27.4380  -18.0400   21.4000 C   0  0  0  0  0  1  0  0  0  0  0  0
  -29.5060  -15.4850   20.7630 C   0  0  0  0  0  0  0  0  0  0  0  0
  -30.3140  -13.1090   19.6920 C   0  0  0  0  0  2  0  0  0  0  0  0
  -29.5270  -12.6910   18.4030 C   0  0  0  0  0  2  0  0  0  0  0  0
  -28.0860  -12.2640   18.7420 C   0  0  0  0  0  2  0  0  0  0  0  0
  -27.5160  -13.1980   19.8300 C   0  0  0  0  0  3  0  0  0  0  0  0
  -28.4070  -13.2540   21.0640 C   0  0  0  0  0  2  0  0  0  0  0  0
  -29.4840  -14.0540   20.5870 N   0  0  0  0  0  0  0  0  0  0  0  0
  -30.6920  -15.8070   20.4480 O   0  0  0  0  0  0  0  0  0  0  0  0
  -28.2360  -16.3930   21.1630 N   0  0  0  0  0  0  0  0  0  0  0  0
  -27.5040  -15.7180   21.3450 H   0  0  0  0  0  0  0  0  0  0  0  0
  -25.1920  -13.8010   20.5520 C   0  0  0  0  0  0  0  0  0  0  0  0
  -24.1340  -13.0310   20.9260 C   0  0  0  0  0  0  0  0  0  0  0  0
  -24.5930  -11.6780   20.8760 C   0  0  0  0  0  0  0  0  0  0  0  0
  -26.1960  -12.9010   20.2650 N   0  0  0  0  0  0  0  0  0  0  0  0
  -25.8700  -11.6240   20.5440 N   0  0  0  0  0  0  0  0  0  0  0  0
  -23.8750  -10.4200   21.0490 C   0  0  0  0  0  0  0  0  0  0  0  0
  -24.3430   -9.4160   21.9230 C   0  0  0  0  0  3  0  0  0  0  0  0
  -23.6190   -8.2160   22.0760 C   0  0  0  0  0  3  0  0  0  0  0  0
  -22.4190   -8.0180   21.3540 C   0  0  0  0  0  0  0  0  0  0  0  0
  -21.9740   -9.0110   20.4650 C   0  0  0  0  0  3  0  0  0  0  0  0
  -22.6980  -10.2030   20.3080 C   0  0  0  0  0  3  0  0  0  0  0  0
  -21.6590   -6.8780   21.4230 O   0  0  0  0  0  0  0  0  0  0  0  0
  -21.6820   -6.0680   22.5290 C   0  0  0  0  0  0  0  0  0  0  0  0
  -21.3990   -6.5610   23.8210 C   0  0  0  0  0  3  0  0  0  0  0  0
  -21.3650   -5.6780   24.9180 C   0  0  0  0  0  3  0  0  0  0  0  0
  -21.6040   -4.3040   24.7240 C   0  0  0  0  0  0  0  0  0  0  0  0
  -21.8820   -3.8110   23.4370 C   0  0  0  0  0  3  0  0  0  0  0  0
  -21.9180   -4.6910   22.3420 C   0  0  0  0  0  0  0  0  0  0  0  0
  -22.1660   -4.2110   21.1000 F   0  0  0  0  0  0  0  0  0  0  0  0
  -21.5630   -3.4530   25.7760 F   0  0  0  0  0  0  0  0  0  0  0  0
  -22.7470  -13.5180   21.2010 C   0  0  0  0  0  0  0  0  0  0  0  0
  -22.0150  -12.8190   22.0580 N   0  0  0  0  0  0  0  0  0  0  0  0
  -22.3250  -14.5530   20.6870 O   0  0  0  0  0  0  0  0  0  0  0  0
  -22.3750  -11.9820   22.4910 H   0  0  0  0  0  0  0  0  0  0  0  0
  -21.0790  -13.1260   22.2860 H   0  0  0  0  0  0  0  0  0  0  0  0
  -25.3820  -15.1740   20.4030 N   0  0  0  0  0  0  0  0  0  0  0  0
  -24.5950  -15.8050   20.5030 H   0  0  0  0  0  0  0  0  0  0  0  0
  -26.1180  -15.5640   19.8280 H   0  0  0  0  0  0  0  0  0  0  0  0
  -22.8740  -27.8430   20.8430 O   0  0  0  0  0  1  0  0  0  0  0  0
  -24.7130  -31.9970   23.2120 C   0  0  0  0  0  0  0  0  0  0  0  0
  -24.5230  -27.4260   20.9210 C   0  0  0  0  0  3  0  0  0  0  0  0
  -23.5230  -30.6280   21.6290 C   0  0  0  0  0  3  0  0  0  0  0  0
  -24.8530  -29.4560   19.6300 C   0  0  0  0  0  3  0  0  0  0  0  0
  -26.0110  -30.7980   21.4060 C   0  0  0  0  0  2  0  0  0  0  0  0
  -25.8020  -29.4910   20.6450 C   0  0  0  0  0  3  0  0  0  0  0  0
  -25.7460  -28.2410   21.2880 C   0  0  0  0  0  2  0  0  0  0  0  0
  -25.0480  -27.0670   19.6490 C   0  0  0  0  0  2  0  0  0  0  0  0
  -24.6990  -28.2110   18.9180 C   0  0  0  0  0  2  0  0  0  0  0  0
  -23.6230  -30.2590   20.0670 C   0  0  0  0  0  2  0  0  0  0  0  0
  -24.7680  -31.2540   22.0740 N   0  0  0  0  0  0  0  0  0  0  0  0
  -23.6290  -32.2760   23.7570 O   0  0  0  0  0  0  0  0  0  0  0  0
  -23.3160  -29.5550   22.7590 C   0  0  0  0  0  0  0  0  0  0  0  0
  -22.2030  -29.3800   23.2940 N   0  0  0  0  0  0  0  0  0  0  0  0
  -24.1610  -28.9040   23.3370 O   0  0  0  0  0  0  0  0  0  0  0  0
  -21.4560  -30.0160   23.0400 H   0  0  0  0  0  0  0  0  0  0  0  0
  -18.7520  -27.7160   21.9830 C   0  0  0  0  0  2  0  0  0  0  0  0
  -21.6990  -28.0730   23.7760 C   0  0  0  0  0  3  0  0  0  0  0  0
  -22.2260  -26.5120   22.7580 C   0  0  0  0  0  1  0  0  0  0  0  0
  -21.0180  -25.7690   21.2530 C   0  0  0  0  0  1  0  0  0  0  0  0
  -19.2920  -26.3360   21.0260 C   0  0  0  0  0  2  0  0  0  0  0  0
  -20.0510  -28.6810   23.5000 C   0  0  0  0  0  2  0  0  0  0  0  0
  -20.0210  -29.9870   24.1880 C   0  0  0  0  0  1  0  0  0  0  0  0
  -19.4220  -28.9440   23.7740 C   0  0  0  0  0  2  0  0  0  0  0  0
  -18.3160  -28.3090   22.1030 C   0  0  0  0  0  2  0  0  0  0  0  0
  -17.3030  -27.5610   21.8460 C   0  0  0  0  0  1  0  0  0  0  0  0
  -26.0020  -32.5270   23.8610 C   0  0  0  0  0  3  0  0  0  0  0  0
  -25.6860  -33.8980   24.2650 N   0  0  0  0  0  0  0  0  0  0  0  0
  -25.9290  -34.9710   23.5110 C   0  0  0  0  0  0  0  0  0  0  0  0
  -26.5490  -34.9110   22.4460 O   0  0  0  0  0  0  0  0  0  0  0  0
  -25.1360  -34.0090   25.1050 H   0  0  0  0  0  0  0  0  0  0  0  0
  -24.1550  -36.7360   23.2570 C   0  0  0  0  0  1  0  0  0  0  0  0
  -25.4190  -36.3260   24.0310 C   0  0  0  0  0  3  0  0  0  0  0  0
  -27.5620  -37.1950   24.8470 C   0  0  0  0  0  1  0  0  0  0  0  0
  -26.4320  -37.3980   23.9440 N   0  0  0  0  0  0  0  0  0  0  0  0
  -26.0180  -38.3030   24.1530 H   0  0  0  0  0  0  0  0  0  0  0  0
  -26.4830  -31.6760   25.0970 C   0  0  1  0  0  0  0  0  0  0  0  0
  -25.3770  -31.3830   26.1390 C   0  0  0  0  0  1  0  0  0  0  0  0
  -27.0810  -30.3240   24.6520 C   0  0  0  0  0  1  0  0  0  0  0  0
  -27.6250  -32.4350   25.8070 C   0  0  0  0  0  1  0  0  0  0  0  0
  5  7  1  0
  8  9  2  0
 15 23  1  0
 16 21  1  0
 17 18  1  0
 17 16  1  0
 19 18  1  0
 19 28  1  0
 19 20  1  0
 21 15  1  0
 21 20  1  0
 22 15  2  0
 23 24  1  0
 23 14  1  0
 25 26  2  0
 26 45  1  0
 27 26  1  0
 27 30  1  0
 28 29  1  0
 28 25  1  0
 29 27  2  0
 30 31  1  0
 31 32  2  0
 33 36  1  0
 33 32  1  0
 34 33  2  0
 35 34  1  0
 35 30  2  0
 36 37  1  0
 37 38  1  0
 38 39  2  0
 40 39  1  0
 40 44  1  0
 41 40  2  0
 42 37  2  0
 42 41  1  0
 43 42  1  0
 45 46  1  0
 46 49  1  0
 46 48  1  0
 47 45  2  0
 50 51  1  0
 50 25  1  0
 52 50  1  0
 54 65  2  0
 55 53  1  0
 55 60  1  0
 56 64  1  0
 56 66  1  0
 57 62  1  0
 57 63  1  0
 57 59  1  0
 58 64  1  0
 59 60  1  0
 59 58  1  0
 61 55  1  0
 62 61  1  0
 63 56  1  0
 64 54  1  0
 66 67  1  0
 66 68  2  0
 67 71  1  0
 69 67  1  0
 70 78  1  0
 71 72  1  0
 74 73  1  0
 74 70  1  0
 75 77  1  0
 75 71  1  0
 77 76  1  0
 79 78  1  0
 80 54  1  0
 80 81  1  0
 80 90  1  0
 81 84  1  0
 82 86  1  0
 82 81  1  0
 83 82  2  0
 86 85  1  0
 88 86  1  0
 88 89  1  0
 88 87  1  0
 90 93  1  1
 90 91  1  0
 92 90  1  0
M  ISO  4   6 101  15 100  23 100  53 101
M  END
>  <TORSDO>  (43) 
F 22

>  <SCORE>  (43) 
39.488

>  <name>  (43) 
43

>  <ligand_id>  (43) 
43

>  <original_smiles>  (43) 
[H]c1c([H])c([H])c2c(c1[H])C([H])([H])C([H])([H])C([H])([H])C2([H])N([H])C(=O)C1([H])N(C(=O)C([H])(N([H])C(=O)C([H])(N([H])C([H])([H])[H])C([H])([H])[H])C(C([H])([H])[H])(C([H])([H])[H])C([H])([H])[H])C([H])([H])c2c([H])c(Oc3c([H])c([H])c(C([H])([H])[H])c([H])c3C(=O)C([H])([H])C([H])([H])C([H])([H])C([H])([H])C([H])([H])N([H])C(=O)N3C([H])([H])C([H])([H])C([H])([H])C([H])(n4nc(-c5c([H])c([H])c(Oc6c([H])c([H])c(F)c([H])c6F)c([H])c5[H])c(C(=O)N([H])[H])c4N([H])[H])C3([H])[H])c([H])c([H])c2C1([H])[H]

>  <smiles>  (43) 
[H]c1c([H])c([H])c2c(c1[H])C([H])([H])C([H])([H])C([H])([H])C2([H])N([H])C(=O)C1([H])N(C(=O)C([H])(N([H])C(=O)C([H])(N([H])C([H])([H])[H])C([H])([H])[H])C(C([H])([H])[H])(C([H])([H])[H])C([H])([H])[H])C([H])([H])c2c([H])c(Oc3c([H])c([H])c(C([H])([H])[H])c([H])c3C(=O)C([H])([H])C([H])([H])C([H])([H])C([H])([H])C([H])([H])N([H])C(=O)N3C([H])([H])C([H])([H])C([H])([H])C([H])(n4nc(-c5c([H])c([H])c(Oc6c([H])c([H])c(F)c([H])c6F)c([H])c5[H])c(C(=O)N([H])[H])c4N([H])[H])C3([H])[H])c([H])c([H])c2C1([H])[H]

$$$$
44:0:0
     RDKit          3D

 89 97  0  0  1  0  0  0  0  0999 V2000
  -29.9080  -22.5790   21.8040 C   0  0  0  0  0  3  0  0  0  0  0  0
  -30.1650  -23.8800   22.2800 C   0  0  0  0  0  3  0  0  0  0  0  0
  -28.9840  -22.3210   20.7740 C   0  0  0  0  0  0  0  0  0  0  0  0
  -29.5410  -25.0310   21.7470 C   0  0  0  0  0  0  0  0  0  0  0  0
  -28.3520  -23.5580   20.2080 C   0  0  0  0  0  0  0  0  0  0  0  0
  -28.6210  -24.9560   20.6730 C   0  0  0  0  0  0  0  0  0  0  0  0
  -29.9340  -26.3860   22.3120 C   0  0  0  0  0  1  0  0  0  0  0  0
  -27.3580  -23.3930   19.0810 C   0  0  0  0  0  1  0  0  0  0  0  0
  -28.3100  -26.2600   20.0680 O   0  0  0  0  0  0  0  0  0  0  0  0
  -24.6050  -31.8730   23.1970 C   0  0  0  0  0  0  0  0  0  0  0  0
  -27.1980  -27.1550   20.2150 C   0  0  0  0  0  0  0  0  0  0  0  0
  -23.4050  -30.4680   21.5660 C   0  0  0  0  0  3  0  0  0  0  0  0
  -24.8570  -28.8790   20.1640 C   0  0  0  0  0  0  0  0  0  0  0  0
  -25.9570  -30.7410   21.3960 C   0  0  0  0  0  2  0  0  0  0  0  0
  -26.0360  -29.3390   20.7690 C   0  0  0  0  0  0  0  0  0  0  0  0
  -27.2060  -28.4940   20.7760 C   0  0  0  0  0  3  0  0  0  0  0  0
  -25.9960  -26.7880   19.5780 C   0  0  0  0  0  3  0  0  0  0  0  0
  -24.8490  -27.6140   19.5540 C   0  0  0  0  0  3  0  0  0  0  0  0
  -23.6280  -29.7740   20.1950 C   0  0  0  0  0  2  0  0  0  0  0  0
  -24.6750  -31.0510   22.1080 N   0  0  0  0  0  0  0  0  0  0  0  0
  -23.5190  -32.1570   23.7270 O   0  0  0  0  0  0  0  0  0  0  0  0
  -22.7300  -29.4650   22.5330 C   0  0  0  0  0  0  0  0  0  0  0  0
  -21.4020  -29.2890   22.4060 N   0  0  0  0  0  0  0  0  0  0  0  0
  -23.4040  -28.8410   23.3560 O   0  0  0  0  0  0  0  0  0  0  0  0
  -20.9160  -29.8390   21.7120 H   0  0  0  0  0  0  0  0  0  0  0  0
  -18.0280  -28.0720   22.9040 C   0  0  0  0  0  0  0  0  0  0  0  0
  -20.5840  -28.3520   23.1800 C   0  0  0  0  0  3  0  0  0  0  0  0
  -20.6970  -26.9160   22.6190 C   0  0  0  0  0  2  0  0  0  0  0  0
  -19.6010  -26.5790   21.6030 C   0  0  0  0  0  2  0  0  0  0  0  0
  -18.2170  -26.7200   22.2390 C   0  0  0  0  0  2  0  0  0  0  0  0
  -19.1390  -28.8460   23.3330 C   0  0  0  0  0  0  0  0  0  0  0  0
  -18.9090  -30.1120   23.9150 C   0  0  0  0  0  3  0  0  0  0  0  0
  -17.5980  -30.6020   24.0740 C   0  0  0  0  0  3  0  0  0  0  0  0
  -16.5020  -29.8260   23.6610 C   0  0  0  0  0  3  0  0  0  0  0  0
  -16.7170  -28.5620   23.0830 C   0  0  0  0  0  3  0  0  0  0  0  0
  -25.8820  -32.5140   23.8210 C   0  0  0  0  0  3  0  0  0  0  0  0
  -26.4000  -31.7440   25.0990 C   0  0  1  0  0  0  0  0  0  0  0  0
  -25.3070  -31.5080   26.1670 C   0  0  0  0  0  1  0  0  0  0  0  0
  -26.9840  -30.3660   24.7090 C   0  0  0  0  0  1  0  0  0  0  0  0
  -27.5500  -32.5410   25.7590 C   0  0  0  0  0  1  0  0  0  0  0  0
  -25.5640  -33.9100   24.1590 N   0  0  0  0  0  0  0  0  0  0  0  0
  -25.8890  -34.9720   23.4090 C   0  0  0  0  0  0  0  0  0  0  0  0
  -26.5540  -34.8790   22.3740 O   0  0  0  0  0  0  0  0  0  0  0  0
  -24.9710  -34.0570   24.9630 H   0  0  0  0  0  0  0  0  0  0  0  0
  -24.1550  -36.7660   23.0770 C   0  0  0  0  0  1  0  0  0  0  0  0
  -25.4010  -36.3560   23.8790 C   0  0  0  0  0  3  0  0  0  0  0  0
  -27.5370  -37.2440   24.7060 C   0  0  0  0  0  1  0  0  0  0  0  0
  -26.4290  -37.4130   23.7680 N   0  0  0  0  0  0  0  0  0  0  0  0
  -26.0220  -38.3310   23.9260 H   0  0  0  0  0  0  0  0  0  0  0  0
  -28.6630  -20.7130   20.5340 C   0  0  0  0  0  2  0  0  0  0  0  0
  -29.7530  -19.4750   20.1760 C   0  0  0  0  0  2  0  0  0  0  0  0
  -29.8910  -17.9060   20.8170 C   0  0  0  0  0  2  0  0  0  0  0  0
  -29.6120  -16.3980   20.1160 C   0  0  0  0  0  2  0  0  0  0  0  0
  -30.4940  -14.9860   20.2320 C   0  0  0  0  0  0  0  0  0  0  0  0
  -30.4030  -12.6200   19.3400 C   0  0  0  0  0  2  0  0  0  0  0  0
  -29.4650  -12.5980   18.1090 C   0  0  0  0  0  2  0  0  0  0  0  0
  -28.0010  -12.3800   18.5400 C   0  0  0  0  0  2  0  0  0  0  0  0
  -27.5980  -13.3000   19.7210 C   0  0  0  0  0  3  0  0  0  0  0  0
  -28.6580  -13.3100   20.8420 C   0  0  0  0  0  2  0  0  0  0  0  0
  -29.9370  -13.7080   20.2430 N   0  0  0  0  0  0  0  0  0  0  0  0
  -31.7100  -15.0500   20.0150 O   0  0  0  0  0  0  0  0  0  0  0  0
  -25.2230  -13.8710   20.4850 C   0  0  0  0  0  0  0  0  0  0  0  0
  -24.1670  -13.0920   20.8640 C   0  0  0  0  0  0  0  0  0  0  0  0
  -24.6370  -11.7420   20.8330 C   0  0  0  0  0  0  0  0  0  0  0  0
  -26.2670  -12.9960   20.2330 N   0  0  0  0  0  0  0  0  0  0  0  0
  -25.9260  -11.7110   20.5120 N   0  0  0  0  0  0  0  0  0  0  0  0
  -23.9180  -10.4780   21.0340 C   0  0  0  0  0  0  0  0  0  0  0  0
  -24.3670   -9.5070   21.9570 C   0  0  0  0  0  3  0  0  0  0  0  0
  -23.6450   -8.3090   22.1440 C   0  0  0  0  0  3  0  0  0  0  0  0
  -22.4580   -8.0730   21.4100 C   0  0  0  0  0  0  0  0  0  0  0  0
  -22.0290   -9.0320   20.4750 C   0  0  0  0  0  3  0  0  0  0  0  0
  -22.7520  -10.2220   20.2860 C   0  0  0  0  0  3  0  0  0  0  0  0
  -21.7080   -6.9270   21.5070 O   0  0  0  0  0  0  0  0  0  0  0  0
  -21.6910   -6.1720   22.6520 C   0  0  0  0  0  0  0  0  0  0  0  0
  -21.3100   -6.7150   23.8970 C   0  0  0  0  0  3  0  0  0  0  0  0
  -21.2400   -5.8850   25.0350 C   0  0  0  0  0  3  0  0  0  0  0  0
  -21.5420   -4.5150   24.9280 C   0  0  0  0  0  0  0  0  0  0  0  0
  -21.9170   -3.9720   23.6870 C   0  0  0  0  0  3  0  0  0  0  0  0
  -21.9870   -4.7970   22.5520 C   0  0  0  0  0  0  0  0  0  0  0  0
  -22.3290   -4.2640   21.3540 F   0  0  0  0  0  0  0  0  0  0  0  0
  -21.4680   -3.7180   26.0190 F   0  0  0  0  0  0  0  0  0  0  0  0
  -22.7700  -13.5630   21.1460 C   0  0  0  0  0  0  0  0  0  0  0  0
  -22.0540  -12.8650   22.0210 N   0  0  0  0  0  0  0  0  0  0  0  0
  -22.3220  -14.5840   20.6270 O   0  0  0  0  0  0  0  0  0  0  0  0
  -22.4310  -12.0360   22.4540 H   0  0  0  0  0  0  0  0  0  0  0  0
  -21.1180  -13.1610   22.2600 H   0  0  0  0  0  0  0  0  0  0  0  0
  -25.3780  -15.2420   20.3050 N   0  0  0  0  0  0  0  0  0  0  0  0
  -24.6070  -15.8880   20.4330 H   0  0  0  0  0  0  0  0  0  0  0  0
  -26.2260  -15.6920   19.9860 H   0  0  0  0  0  0  0  0  0  0  0  0
  1  2  1  0
  3  1  2  0
  4  2  2  0
  4  7  1  0
  5  6  2  0
  5  3  1  0
  6  4  1  0
  8  5  1  0
  9 11  1  0
  9  6  1  0
 10 21  2  0
 11 16  1  0
 12 20  1  0
 12 22  1  0
 13 19  1  0
 13 15  1  0
 14 20  1  0
 15 16  2  0
 15 14  1  0
 17 11  2  0
 18 17  1  0
 18 13  2  0
 19 12  1  0
 20 10  1  0
 22 24  2  0
 23 22  1  0
 25 23  1  0
 26 35  2  0
 26 31  1  0
 27 23  1  0
 27 31  1  0
 28 27  1  0
 29 30  1  0
 29 28  1  0
 30 26  1  0
 31 32  2  0
 32 33  1  0
 34 33  2  0
 35 34  1  0
 36 10  1  0
 36 41  1  0
 36 37  1  0
 37 40  1  1
 37 38  1  0
 39 37  1  0
 41 44  1  0
 42 46  1  0
 42 41  1  0
 43 42  2  0
 46 45  1  0
 48 46  1  0
 48 49  1  0
 48 47  1  0
 50  3  1  0
 51 50  1  0
 51 52  1  0
 53 54  1  0
 53 52  1  0
 54 60  1  0
 55 60  1  0
 56 57  1  0
 56 55  1  0
 58 57  1  0
 58 65  1  0
 58 59  1  0
 60 59  1  0
 61 54  2  0
 62 63  2  0
 63 82  1  0
 64 63  1  0
 64 67  1  0
 65 62  1  0
 65 66  1  0
 66 64  2  0
 67 68  1  0
 68 69  2  0
 70 73  1  0
 70 69  1  0
 71 70  2  0
 72 71  1  0
 72 67  2  0
 73 74  1  0
 74 75  1  0
 75 76  2  0
 77 76  1  0
 77 81  1  0
 78 77  2  0
 79 74  2  0
 79 78  1  0
 80 79  1  0
 82 83  1  0
 83 86  1  0
 83 85  1  0
 84 82  2  0
 87 88  1  0
 87 62  1  0
 89 87  1  0
M  ISO  4   6 101   9 101  53 100  54 100
M  END
>  <TORSDO>  (44) 
F 20

>  <SCORE>  (44) 
-14.716

>  <name>  (44) 
44

>  <ligand_id>  (44) 
44

>  <original_smiles>  (44) 
[H]c1c([H])c([H])c2c(c1[H])C([H])([H])C([H])([H])C([H])([H])C2([H])N([H])C(=O)C1([H])N(C(=O)C([H])(N([H])C(=O)C([H])(N([H])C([H])([H])[H])C([H])([H])[H])C(C([H])([H])[H])(C([H])([H])[H])C([H])([H])[H])C([H])([H])c2c([H])c(Oc3c(C([H])([H])[H])c([H])c([H])c(C([H])([H])C([H])([H])C([H])([H])C([H])([H])C(=O)N4C([H])([H])C([H])([H])C([H])([H])C([H])(n5nc(-c6c([H])c([H])c(Oc7c([H])c([H])c(F)c([H])c7F)c([H])c6[H])c(C(=O)N([H])[H])c5N([H])[H])C4([H])[H])c3C([H])([H])[H])c([H])c([H])c2C1([H])[H]

>  <smiles>  (44) 
[H]c1c([H])c([H])c2c(c1[H])C([H])([H])C([H])([H])C([H])([H])C2([H])N([H])C(=O)C1([H])N(C(=O)C([H])(N([H])C(=O)C([H])(N([H])C([H])([H])[H])C([H])([H])[H])C(C([H])([H])[H])(C([H])([H])[H])C([H])([H])[H])C([H])([H])c2c([H])c(Oc3c(C([H])([H])[H])c([H])c([H])c(C([H])([H])C([H])([H])C([H])([H])C([H])([H])C(=O)N4C([H])([H])C([H])([H])C([H])([H])C([H])(n5nc(-c6c([H])c([H])c(Oc7c([H])c([H])c(F)c([H])c7F)c([H])c6[H])c(C(=O)N([H])[H])c5N([H])[H])C4([H])[H])c3C([H])([H])[H])c([H])c([H])c2C1([H])[H]

$$$$
45:0:0
     RDKit          3D

 94102  0  0  1  0  0  0  0  0999 V2000
  -28.2880  -23.2450   21.5110 C   0  0  0  0  0  3  0  0  0  0  0  0
  -29.6130  -22.8240   21.2660 C   0  0  0  0  0  0  0  0  0  0  0  0
  -27.8130  -24.5310   21.1500 C   0  0  0  0  0  0  0  0  0  0  0  0
  -30.4930  -23.7390   20.6400 C   0  0  0  0  0  0  0  0  0  0  0  0
  -30.0370  -25.0450   20.2900 C   0  0  0  0  0  0  0  0  0  0  0  0
  -28.6840  -25.4610   20.4900 C   0  0  0  0  0  0  0  0  0  0  0  0
  -26.3680  -24.8230   21.5230 C   0  0  0  0  0  1  0  0  0  0  0  0
  -31.9450  -23.3360   20.3770 C   0  0  0  0  0  1  0  0  0  0  0  0
  -31.0330  -26.0420   19.6990 C   0  0  0  0  0  1  0  0  0  0  0  0
  -28.3830  -26.7380   19.9830 O   0  0  0  0  0  0  0  0  0  0  0  0
  -24.5370  -31.8620   23.1840 C   0  0  0  0  0  0  0  0  0  0  0  0
  -27.1890  -27.4420   20.0510 C   0  0  0  0  0  0  0  0  0  0  0  0
  -23.3300  -30.4730   21.5300 C   0  0  0  0  0  3  0  0  0  0  0  0
  -24.7900  -28.9630   20.0670 C   0  0  0  0  0  0  0  0  0  0  0  0
  -25.8500  -30.8390   21.3230 C   0  0  0  0  0  2  0  0  0  0  0  0
  -25.9390  -29.4670   20.6830 C   0  0  0  0  0  0  0  0  0  0  0  0
  -27.1400  -28.7130   20.6780 C   0  0  0  0  0  3  0  0  0  0  0  0
  -26.0410  -26.9910   19.3650 C   0  0  0  0  0  3  0  0  0  0  0  0
  -24.8390  -27.7280   19.3940 C   0  0  0  0  0  3  0  0  0  0  0  0
  -23.5360  -29.8130   20.1380 C   0  0  0  0  0  2  0  0  0  0  0  0
  -24.5910  -31.0750   22.0710 N   0  0  0  0  0  0  0  0  0  0  0  0
  -23.4580  -32.1200   23.7350 O   0  0  0  0  0  0  0  0  0  0  0  0
  -22.6900  -29.4370   22.4810 C   0  0  0  0  0  0  0  0  0  0  0  0
  -21.3700  -29.2270   22.3410 N   0  0  0  0  0  0  0  0  0  0  0  0
  -23.3770  -28.8220   23.3000 O   0  0  0  0  0  0  0  0  0  0  0  0
  -20.8750  -29.7780   21.6530 H   0  0  0  0  0  0  0  0  0  0  0  0
  -18.0310  -27.9080   22.7570 C   0  0  0  0  0  0  0  0  0  0  0  0
  -20.5680  -28.2670   23.0970 C   0  0  0  0  0  3  0  0  0  0  0  0
  -20.7390  -26.8350   22.5390 C   0  0  0  0  0  2  0  0  0  0  0  0
  -19.6810  -26.4610   21.4970 C   0  0  0  0  0  2  0  0  0  0  0  0
  -18.2770  -26.5590   22.1000 C   0  0  0  0  0  2  0  0  0  0  0  0
  -19.1080  -28.7160   23.2090 C   0  0  0  0  0  0  0  0  0  0  0  0
  -18.8280  -29.9760   23.7800 C   0  0  0  0  0  3  0  0  0  0  0  0
  -17.5030  -30.4310   23.9040 C   0  0  0  0  0  3  0  0  0  0  0  0
  -16.4390  -29.6210   23.4690 C   0  0  0  0  0  3  0  0  0  0  0  0
  -16.7040  -28.3610   22.9030 C   0  0  0  0  0  3  0  0  0  0  0  0
  -25.8220  -32.4970   23.8010 C   0  0  0  0  0  3  0  0  0  0  0  0
  -26.3560  -31.7220   25.0690 C   0  0  1  0  0  0  0  0  0  0  0  0
  -25.2740  -31.4660   26.1420 C   0  0  0  0  0  1  0  0  0  0  0  0
  -26.9530  -30.3570   24.6570 C   0  0  0  0  0  1  0  0  0  0  0  0
  -27.4970  -32.5270   25.7370 C   0  0  0  0  0  1  0  0  0  0  0  0
  -25.5080  -33.8920   24.1420 N   0  0  0  0  0  0  0  0  0  0  0  0
  -25.8410  -34.9500   23.3930 C   0  0  0  0  0  0  0  0  0  0  0  0
  -26.5160  -34.8560   22.3620 O   0  0  0  0  0  0  0  0  0  0  0  0
  -24.9000  -34.0370   24.9350 H   0  0  0  0  0  0  0  0  0  0  0  0
  -24.1100  -36.7450   23.0460 C   0  0  0  0  0  1  0  0  0  0  0  0
  -25.3470  -36.3340   23.8610 C   0  0  0  0  0  3  0  0  0  0  0  0
  -27.4750  -37.2100   24.7130 C   0  0  0  0  0  1  0  0  0  0  0  0
  -26.3780  -37.3900   23.7650 N   0  0  0  0  0  0  0  0  0  0  0  0
  -25.9700  -38.3080   23.9140 H   0  0  0  0  0  0  0  0  0  0  0  0
  -30.0770  -21.4580   21.8190 C   0  0  0  0  0  2  0  0  0  0  0  0
  -30.2010  -20.2570   20.8310 C   0  0  0  0  0  2  0  0  0  0  0  0
  -30.5960  -18.9510   21.5870 C   0  0  0  0  0  2  0  0  0  0  0  0
  -30.7450  -17.5970   20.8060 C   0  0  0  0  0  2  0  0  0  0  0  0
  -30.7320  -14.4880   20.2050 C   0  0  0  0  0  0  0  0  0  0  0  0
  -30.3430  -12.4050   18.9120 C   0  0  0  0  0  2  0  0  0  0  0  0
  -29.3360  -12.6520   17.7750 C   0  0  0  0  0  2  0  0  0  0  0  0
  -27.8890  -12.4780   18.2750 C   0  0  0  0  0  2  0  0  0  0  0  0
  -27.6170  -13.2800   19.5720 C   0  0  0  0  0  3  0  0  0  0  0  0
  -28.7260  -13.0150   20.6180 C   0  0  0  0  0  2  0  0  0  0  0  0
  -30.0390  -13.3290   20.0160 N   0  0  0  0  0  0  0  0  0  0  0  0
  -31.6480  -14.8520   19.4610 O   0  0  0  0  0  0  0  0  0  0  0  0
  -30.6780  -16.3750   21.7650 C   0  0  0  0  0  0  0  0  0  0  0  0
  -30.4190  -15.1190   21.3470 N   0  0  0  0  0  0  0  0  0  0  0  0
  -30.7520  -16.5700   22.9810 O   0  0  0  0  0  0  0  0  0  0  0  0
  -29.9830  -14.5280   22.0350 H   0  0  0  0  0  0  0  0  0  0  0  0
  -25.2530  -13.8750   20.4140 C   0  0  0  0  0  0  0  0  0  0  0  0
  -24.2050  -13.0960   20.8270 C   0  0  0  0  0  0  0  0  0  0  0  0
  -24.6670  -11.7470   20.7510 C   0  0  0  0  0  0  0  0  0  0  0  0
  -26.2860  -12.9990   20.1110 N   0  0  0  0  0  0  0  0  0  0  0  0
  -25.9390  -11.7130   20.3700 N   0  0  0  0  0  0  0  0  0  0  0  0
  -23.9550  -10.4800   20.9620 C   0  0  0  0  0  0  0  0  0  0  0  0
  -24.4150   -9.5180   21.8890 C   0  0  0  0  0  3  0  0  0  0  0  0
  -23.7030   -8.3150   22.0850 C   0  0  0  0  0  3  0  0  0  0  0  0
  -22.5190   -8.0630   21.3520 C   0  0  0  0  0  0  0  0  0  0  0  0
  -22.0770   -9.0130   20.4130 C   0  0  0  0  0  3  0  0  0  0  0  0
  -22.7910  -10.2080   20.2150 C   0  0  0  0  0  3  0  0  0  0  0  0
  -21.7760   -6.9130   21.4580 O   0  0  0  0  0  0  0  0  0  0  0  0
  -21.7230   -6.1930   22.6250 C   0  0  0  0  0  0  0  0  0  0  0  0
  -21.2810   -6.7710   23.8360 C   0  0  0  0  0  3  0  0  0  0  0  0
  -21.1760   -5.9790   24.9970 C   0  0  0  0  0  3  0  0  0  0  0  0
  -21.5040   -4.6110   24.9480 C   0  0  0  0  0  0  0  0  0  0  0  0
  -21.9390   -4.0340   23.7420 C   0  0  0  0  0  3  0  0  0  0  0  0
  -22.0460   -4.8230   22.5850 C   0  0  0  0  0  0  0  0  0  0  0  0
  -22.4460   -4.2570   21.4200 F   0  0  0  0  0  0  0  0  0  0  0  0
  -21.3960   -3.8470   26.0610 F   0  0  0  0  0  0  0  0  0  0  0  0
  -22.8240  -13.5670   21.1810 C   0  0  0  0  0  0  0  0  0  0  0  0
  -22.1420  -12.8570   22.0730 N   0  0  0  0  0  0  0  0  0  0  0  0
  -22.3580  -14.6010   20.7060 O   0  0  0  0  0  0  0  0  0  0  0  0
  -22.5310  -12.0220   22.4840 H   0  0  0  0  0  0  0  0  0  0  0  0
  -21.2170  -13.1560   22.3510 H   0  0  0  0  0  0  0  0  0  0  0  0
  -25.4060  -15.2480   20.2530 N   0  0  0  0  0  0  0  0  0  0  0  0
  -24.6510  -15.9020   20.4260 H   0  0  0  0  0  0  0  0  0  0  0  0
  -26.2450  -15.6950   19.9060 H   0  0  0  0  0  0  0  0  0  0  0  0
  2  1  1  0
  2 51  1  0
  3  1  2  0
  3  7  1  0
  4  2  2  0
  5  6  2  0
  5  4  1  0
  6  3  1  0
  8  4  1  0
  9  5  1  0
 10 12  1  0
 10  6  1  0
 11 22  2  0
 12 17  1  0
 13 21  1  0
 13 23  1  0
 14 20  1  0
 14 16  1  0
 15 21  1  0
 16 15  1  0
 17 16  2  0
 18 19  1  0
 18 12  2  0
 19 14  2  0
 20 13  1  0
 21 11  1  0
 23 25  2  0
 24 23  1  0
 26 24  1  0
 27 36  2  0
 27 32  1  0
 28 24  1  0
 28 32  1  0
 29 28  1  0
 30 31  1  0
 30 29  1  0
 31 27  1  0
 32 33  2  0
 33 34  1  0
 35 34  2  0
 36 35  1  0
 37 11  1  0
 37 42  1  0
 37 38  1  0
 38 41  1  1
 38 39  1  0
 40 38  1  0
 42 45  1  0
 43 47  1  0
 43 42  1  0
 44 43  2  0
 47 46  1  0
 49 47  1  0
 49 50  1  0
 49 48  1  0
 52 53  1  0
 52 51  1  0
 54 53  1  0
 54 63  1  0
 55 64  1  0
 56 61  1  0
 57 58  1  0
 57 56  1  0
 59 58  1  0
 59 70  1  0
 59 60  1  0
 61 55  1  0
 61 60  1  0
 62 55  2  0
 63 65  2  0
 64 63  1  0
 64 66  1  0
 67 68  2  0
 68 87  1  0
 69 68  1  0
 69 72  1  0
 70 71  1  0
 70 67  1  0
 71 69  2  0
 72 73  1  0
 73 74  2  0
 75 78  1  0
 75 74  1  0
 76 75  2  0
 77 76  1  0
 77 72  2  0
 78 79  1  0
 79 80  1  0
 80 81  2  0
 82 81  1  0
 82 86  1  0
 83 82  2  0
 84 79  2  0
 84 83  1  0
 85 84  1  0
 87 88  1  0
 88 91  1  0
 88 90  1  0
 89 87  2  0
 92 67  1  0
 92 93  1  0
 94 92  1  0
M  ISO  4   6 101  10 101  55 100  64 100
M  END
>  <TORSDO>  (45) 
F 20

>  <SCORE>  (45) 
-14.131

>  <name>  (45) 
45

>  <ligand_id>  (45) 
45

>  <original_smiles>  (45) 
[H]c1c([H])c([H])c2c(c1[H])C([H])([H])C([H])([H])C([H])([H])C2([H])N([H])C(=O)C1([H])N(C(=O)C([H])(N([H])C(=O)C([H])(N([H])C([H])([H])[H])C([H])([H])[H])C(C([H])([H])[H])(C([H])([H])[H])C([H])([H])[H])C([H])([H])c2c([H])c(Oc3c(C([H])([H])[H])c([H])c(C([H])([H])C([H])([H])C([H])([H])C([H])([H])C(=O)N([H])C(=O)N4C([H])([H])C([H])([H])C([H])([H])C([H])(n5nc(-c6c([H])c([H])c(Oc7c([H])c([H])c(F)c([H])c7F)c([H])c6[H])c(C(=O)N([H])[H])c5N([H])[H])C4([H])[H])c(C([H])([H])[H])c3C([H])([H])[H])c([H])c([H])c2C1([H])[H]

>  <smiles>  (45) 
[H]c1c([H])c([H])c2c(c1[H])C([H])([H])C([H])([H])C([H])([H])C2([H])N([H])C(=O)C1([H])N(C(=O)C([H])(N([H])C(=O)C([H])(N([H])C([H])([H])[H])C([H])([H])[H])C(C([H])([H])[H])(C([H])([H])[H])C([H])([H])[H])C([H])([H])c2c([H])c(Oc3c(C([H])([H])[H])c([H])c(C([H])([H])C([H])([H])C([H])([H])C([H])([H])C(=O)N([H])C(=O)N4C([H])([H])C([H])([H])C([H])([H])C([H])(n5nc(-c6c([H])c([H])c(Oc7c([H])c([H])c(F)c([H])c7F)c([H])c6[H])c(C(=O)N([H])[H])c5N([H])[H])C4([H])[H])c(C([H])([H])[H])c3C([H])([H])[H])c([H])c([H])c2C1([H])[H]

$$$$
46:0:0
     RDKit          3D

104112  0  0  1  0  0  0  0  0999 V2000
  -28.8970  -16.5000   21.4930 C   0  0  0  0  0  3  0  0  0  0  0  0
  -29.9510  -15.7910   22.1180 C   0  0  0  0  0  0  0  0  0  0  0  0
  -30.1350  -14.4390   20.0510 C   0  0  0  0  0  0  0  0  0  0  0  0
  -30.4350  -14.6220   21.4460 C   0  0  0  0  0  0  0  0  0  0  0  0
  -29.4080  -15.4510   19.3680 C   0  0  0  0  0  0  0  0  0  0  0  0
  -28.6120  -16.3430   20.1230 C   0  0  0  0  0  0  0  0  0  0  0  0
  -30.5810  -13.1910   19.3150 C   0  0  0  0  0  0  0  0  0  0  0  0
  -30.3250  -10.7500   18.9970 C   0  0  0  0  0  2  0  0  0  0  0  0
  -29.3410  -10.4000   17.8620 C   0  0  0  0  0  2  0  0  0  0  0  0
  -27.8790  -10.3910   18.3590 C   0  0  0  0  0  2  0  0  0  0  0  0
  -27.5340  -11.6520   19.1920 C   0  0  0  0  0  3  0  0  0  0  0  0
  -28.6170  -11.9140   20.2630 C   0  0  0  0  0  2  0  0  0  0  0  0
  -29.9150  -12.0330   19.5760 N   0  0  0  0  0  0  0  0  0  0  0  0
  -31.5560  -13.2470   18.5600 O   0  0  0  0  0  0  0  0  0  0  0  0
  -25.2720  -12.5730   20.0150 C   0  0  0  0  0  0  0  0  0  0  0  0
  -24.1550  -11.9500   20.5050 C   0  0  0  0  0  0  0  0  0  0  0  0
  -24.4600  -10.5540   20.5240 C   0  0  0  0  0  0  0  0  0  0  0  0
  -26.1970  -11.5680   19.7740 N   0  0  0  0  0  0  0  0  0  0  0  0
  -25.7110  -10.3490   20.1280 N   0  0  0  0  0  0  0  0  0  0  0  0
  -23.6190   -9.3930   20.8400 C   0  0  0  0  0  0  0  0  0  0  0  0
  -23.8550   -8.5990   21.9830 C   0  0  0  0  0  3  0  0  0  0  0  0
  -23.0240   -7.4950   22.2730 C   0  0  0  0  0  3  0  0  0  0  0  0
  -21.9390   -7.1840   21.4210 C   0  0  0  0  0  0  0  0  0  0  0  0
  -21.7240   -7.9610   20.2670 C   0  0  0  0  0  3  0  0  0  0  0  0
  -22.5560   -9.0540   19.9770 C   0  0  0  0  0  3  0  0  0  0  0  0
  -21.0880   -6.1240   21.6100 O   0  0  0  0  0  0  0  0  0  0  0  0
  -20.6310   -5.7830   22.8590 C   0  0  0  0  0  0  0  0  0  0  0  0
  -19.8980   -6.6880   23.6550 C   0  0  0  0  0  3  0  0  0  0  0  0
  -19.3850   -6.2760   24.9000 C   0  0  0  0  0  3  0  0  0  0  0  0
  -19.5940   -4.9570   25.3470 C   0  0  0  0  0  0  0  0  0  0  0  0
  -20.3240   -4.0540   24.5530 C   0  0  0  0  0  3  0  0  0  0  0  0
  -20.8370   -4.4650   23.3120 C   0  0  0  0  0  0  0  0  0  0  0  0
  -21.5220   -3.5860   22.5410 F   0  0  0  0  0  0  0  0  0  0  0  0
  -19.0960   -4.5550   26.5390 F   0  0  0  0  0  0  0  0  0  0  0  0
  -22.8370  -12.6000   20.8310 C   0  0  0  0  0  0  0  0  0  0  0  0
  -22.1090  -12.0500   21.7990 N   0  0  0  0  0  0  0  0  0  0  0  0
  -22.4750  -13.6330   20.2660 O   0  0  0  0  0  0  0  0  0  0  0  0
  -22.4150  -11.2150   22.2780 H   0  0  0  0  0  0  0  0  0  0  0  0
  -21.2290  -12.4690   22.0600 H   0  0  0  0  0  0  0  0  0  0  0  0
  -25.5580  -13.9040   19.7270 N   0  0  0  0  0  0  0  0  0  0  0  0
  -24.8570  -14.6340   19.8120 H   0  0  0  0  0  0  0  0  0  0  0  0
  -26.3710  -14.1900   19.2020 H   0  0  0  0  0  0  0  0  0  0  0  0
  -26.2390  -16.6800   19.7180 C   0  0  0  0  0  1  0  0  0  0  0  0
  -27.6210  -17.1200   19.5140 N   0  0  0  0  0  0  0  0  0  0  0  0
  -27.8130  -17.3860   18.5490 H   0  0  0  0  0  0  0  0  0  0  0  0
  -30.4710  -16.3240   23.4400 C   0  0  0  0  0  0  0  0  0  0  0  0
  -31.6310  -16.2390   23.8470 O   0  0  0  0  0  0  0  0  0  0  0  0
  -29.4670  -17.0940   24.3110 C   0  0  0  0  0  2  0  0  0  0  0  0
  -29.9320  -17.4870   25.7270 C   0  0  0  0  0  2  0  0  0  0  0  0
  -28.7050  -17.6820   26.6330 C   0  0  0  0  0  2  0  0  0  0  0  0
  -27.8600  -18.2120   28.9740 C   0  0  0  0  0  1  0  0  0  0  0  0
  -29.0660  -18.2010   28.0280 C   0  0  0  0  0  2  0  0  0  0  0  0
  -32.5970  -13.2150   21.6260 C   0  0  0  0  0  1  0  0  0  0  0  0
  -31.2220  -13.5560   22.2180 C   0  0  0  0  0  2  0  0  0  0  0  0
  -29.6180  -15.7400   17.8760 C   0  0  0  0  0  2  0  0  0  0  0  0
  -30.6070  -16.9290   17.7490 C   0  0  0  0  0  2  0  0  0  0  0  0
  -30.1810  -18.0710   16.7940 C   0  0  0  0  0  2  0  0  0  0  0  0
  -30.2390  -19.4720   17.4610 C   0  0  0  0  0  2  0  0  0  0  0  0
  -29.5090  -20.5720   16.6550 C   0  0  0  0  0  2  0  0  0  0  0  0
  -30.2410  -21.9370   16.6090 C   0  0  0  0  0  2  0  0  0  0  0  0
  -29.8610  -23.0000   17.6520 C   0  0  0  0  0  0  0  0  0  0  0  0
  -29.3150  -22.7130   18.7260 O   0  0  0  0  0  0  0  0  0  0  0  0
  -30.2030  -24.4480   17.2490 C   0  0  0  0  0  2  0  0  0  0  0  0
  -30.0840  -25.4110   18.3170 O   0  0  0  0  0  0  0  0  0  0  0  0
  -25.9790  -28.5770   23.2030 C   0  0  0  0  0  0  0  0  0  0  0  0
  -28.8590  -26.0050   18.5720 C   0  0  0  0  0  0  0  0  0  0  0  0
  -24.8520  -27.9550   21.0930 C   0  0  0  0  0  3  0  0  0  0  0  0
  -26.3890  -27.2530   19.1810 C   0  0  0  0  0  0  0  0  0  0  0  0
  -27.3580  -28.4780   21.1300 C   0  0  0  0  0  2  0  0  0  0  0  0
  -27.5150  -27.5170   19.9670 C   0  0  0  0  0  0  0  0  0  0  0  0
  -28.7490  -26.8910   19.6720 C   0  0  0  0  0  3  0  0  0  0  0  0
  -27.7090  -25.7470   17.7920 C   0  0  0  0  0  3  0  0  0  0  0  0
  -26.4810  -26.3680   18.0900 C   0  0  0  0  0  3  0  0  0  0  0  0
  -25.0990  -27.9510   19.5580 C   0  0  0  0  0  2  0  0  0  0  0  0
  -26.0800  -28.3250   21.8670 N   0  0  0  0  0  0  0  0  0  0  0  0
  -24.8840  -28.5360   23.7820 O   0  0  0  0  0  0  0  0  0  0  0  0
  -24.2620  -26.5880   21.4990 C   0  0  0  0  0  0  0  0  0  0  0  0
  -22.9830  -26.3650   21.1480 N   0  0  0  0  0  0  0  0  0  0  0  0
  -24.9540  -25.7500   22.0870 O   0  0  0  0  0  0  0  0  0  0  0  0
  -22.4800  -27.1060   20.6810 H   0  0  0  0  0  0  0  0  0  0  0  0
  -19.7780  -24.7760   20.6610 C   0  0  0  0  0  0  0  0  0  0  0  0
  -22.2290  -25.1400   21.4000 C   0  0  0  0  0  3  0  0  0  0  0  0
  -22.5940  -24.0400   20.3740 C   0  0  0  0  0  2  0  0  0  0  0  0
  -21.6680  -24.0210   19.1540 C   0  0  0  0  0  2  0  0  0  0  0  0
  -20.2160  -23.7950   19.5840 C   0  0  0  0  0  2  0  0  0  0  0  0
  -20.7260  -25.4190   21.5000 C   0  0  0  0  0  0  0  0  0  0  0  0
  -20.2670  -26.3520   22.4550 C   0  0  0  0  0  3  0  0  0  0  0  0
  -18.8950  -26.6340   22.5880 C   0  0  0  0  0  3  0  0  0  0  0  0
  -17.9610  -25.9800   21.7640 C   0  0  0  0  0  3  0  0  0  0  0  0
  -18.4030  -25.0550   20.8020 C   0  0  0  0  0  3  0  0  0  0  0  0
  -27.2280  -28.9490   24.0630 C   0  0  0  0  0  3  0  0  0  0  0  0
  -26.8960  -30.1470   24.8420 N   0  0  0  0  0  0  0  0  0  0  0  0
  -27.2770  -31.3920   24.5230 C   0  0  0  0  0  0  0  0  0  0  0  0
  -28.0180  -31.6420   23.5670 O   0  0  0  0  0  0  0  0  0  0  0  0
  -26.2550  -30.0230   25.6110 H   0  0  0  0  0  0  0  0  0  0  0  0
  -25.5780  -33.2360   24.6850 C   0  0  0  0  0  1  0  0  0  0  0  0
  -26.7470  -32.5410   25.3990 C   0  0  0  0  0  3  0  0  0  0  0  0
  -28.7990  -33.0130   26.6620 C   0  0  0  0  0  1  0  0  0  0  0  0
  -27.7790  -33.5380   25.7570 N   0  0  0  0  0  0  0  0  0  0  0  0
  -27.3550  -34.3490   26.1980 H   0  0  0  0  0  0  0  0  0  0  0  0
  -27.6930  -27.7800   25.0160 C   0  0  1  0  0  0  0  0  0  0  0  0
  -26.5540  -27.1760   25.8690 C   0  0  0  0  0  1  0  0  0  0  0  0
  -28.3290  -26.6320   24.2000 C   0  0  0  0  0  1  0  0  0  0  0  0
  -28.7830  -28.2940   25.9880 C   0  0  0  0  0  1  0  0  0  0  0  0
  1  2  1  0
  2 46  1  0
  3  4  1  0
  4  2  2  0
  4 54  1  0
  5  3  2  0
  5  6  1  0
  6  1  2  0
  7 13  1  0
  7  3  1  0
  8 13  1  0
  9 10  1  0
  9  8  1  0
 11 10  1  0
 11 18  1  0
 11 12  1  0
 13 12  1  0
 14  7  2  0
 15 16  2  0
 16 17  1  0
 16 35  1  0
 17 20  1  0
 18 15  1  0
 18 19  1  0
 19 17  2  0
 20 21  1  0
 21 22  2  0
 23 26  1  0
 23 22  1  0
 24 23  2  0
 25 24  1  0
 25 20  2  0
 26 27  1  0
 27 32  2  0
 27 28  1  0
 28 29  2  0
 29 30  1  0
 30 34  1  0
 31 30  2  0
 32 31  1  0
 33 32  1  0
 35 36  1  0
 36 39  1  0
 36 38  1  0
 37 35  2  0
 40 41  1  0
 40 15  1  0
 42 40  1  0
 44 43  1  0
 44  6  1  0
 45 44  1  0
 46 47  2  0
 46 48  1  0
 48 49  1  0
 49 50  1  0
 50 52  1  0
 52 51  1  0
 53 54  1  0
 55  5  1  0
 56 55  1  0
 57 58  1  0
 57 56  1  0
 59 58  1  0
 60 59  1  0
 60 61  1  0
 61 62  2  0
 63 61  1  0
 63 64  1  0
 64 66  1  0
 65 76  2  0
 66 71  1  0
 67 77  1  0
 67 75  1  0
 68 74  1  0
 68 70  1  0
 69 75  1  0
 70 69  1  0
 71 70  2  0
 72 73  1  0
 72 66  2  0
 73 68  2  0
 74 67  1  0
 75 65  1  0
 77 79  2  0
 78 77  1  0
 80 78  1  0
 81 90  2  0
 81 86  1  0
 82 78  1  0
 82 86  1  0
 83 82  1  0
 84 85  1  0
 84 83  1  0
 85 81  1  0
 86 87  2  0
 87 88  1  0
 89 88  2  0
 90 89  1  0
 91 65  1  0
 91 92  1  0
 91101  1  0
 92 95  1  0
 93 92  1  0
 93 97  1  0
 94 93  2  0
 97 96  1  0
 97 99  1  0
 99100  1  0
 99 98  1  0
101102  1  1
101104  1  0
103101  1  0
M  ISO  4   3 100   7 100  63 101  64 101
M  END
>  <TORSDO>  (46) 
F 31

>  <SCORE>  (46) 
15.144

>  <name>  (46) 
46

>  <ligand_id>  (46) 
46

>  <original_smiles>  (46) 
[H]c1c([H])c([H])c2c(c1[H])C([H])([H])C([H])([H])C([H])([H])C2([H])N([H])C(=O)C1([H])N(C(=O)C([H])(N([H])C(=O)C([H])(N([H])C([H])([H])[H])C([H])([H])[H])C(C([H])([H])[H])(C([H])([H])[H])C([H])([H])[H])C([H])([H])c2c([H])c(OC([H])([H])C(=O)C([H])([H])C([H])([H])C([H])([H])C([H])([H])C([H])([H])C([H])([H])c3c(C(=O)N4C([H])([H])C([H])([H])C([H])([H])C([H])(n5nc(-c6c([H])c([H])c(Oc7c([H])c([H])c(F)c([H])c7F)c([H])c6[H])c(C(=O)N([H])[H])c5N([H])[H])C4([H])[H])c(C([H])([H])C([H])([H])[H])c(C(=O)C([H])([H])C([H])([H])C([H])([H])C([H])([H])C([H])([H])[H])c([H])c3N([H])C([H])([H])[H])c([H])c([H])c2C1([H])[H]

>  <smiles>  (46) 
[H]c1c([H])c([H])c2c(c1[H])C([H])([H])C([H])([H])C([H])([H])C2([H])N([H])C(=O)C1([H])N(C(=O)C([H])(N([H])C(=O)C([H])(N([H])C([H])([H])[H])C([H])([H])[H])C(C([H])([H])[H])(C([H])([H])[H])C([H])([H])[H])C([H])([H])c2c([H])c(OC([H])([H])C(=O)C([H])([H])C([H])([H])C([H])([H])C([H])([H])C([H])([H])C([H])([H])c3c(C(=O)N4C([H])([H])C([H])([H])C([H])([H])C([H])(n5nc(-c6c([H])c([H])c(Oc7c([H])c([H])c(F)c([H])c7F)c([H])c6[H])c(C(=O)N([H])[H])c5N([H])[H])C4([H])[H])c(C([H])([H])C([H])([H])[H])c(C(=O)C([H])([H])C([H])([H])C([H])([H])C([H])([H])C([H])([H])[H])c([H])c3N([H])C([H])([H])[H])c([H])c([H])c2C1([H])[H]

$$$$
47:0:0
     RDKit          3D

 90 98  0  0  1  0  0  0  0  0999 V2000
  -28.0090  -22.5110   19.9540 C   0  0  0  0  0  3  0  0  0  0  0  0
  -27.6650  -23.9090   19.7740 C   0  0  0  0  0  3  0  0  0  0  0  0
  -29.2230  -22.0490   20.5560 C   0  0  0  0  0  0  0  0  0  0  0  0
  -30.0710  -23.1530   20.9560 C   0  0  0  0  0  0  0  0  0  0  0  0
  -29.6930  -24.5530   20.8230 C   0  0  0  0  0  0  0  0  0  0  0  0
  -28.4780  -25.0060   20.2180 C   0  0  0  0  0  0  0  0  0  0  0  0
  -31.4620  -22.8510   21.5250 C   0  0  0  0  0  1  0  0  0  0  0  0
  -30.6390  -25.6350   21.3390 C   0  0  0  0  0  1  0  0  0  0  0  0
  -29.5610  -20.5280   20.9490 C   0  0  0  0  0  0  0  0  0  0  0  0
  -30.1090  -20.3320   22.0380 O   0  0  0  0  0  0  0  0  0  0  0  0
  -29.2680  -19.1540   20.1460 C   0  0  0  0  0  2  0  0  0  0  0  0
  -30.1880  -17.7900   20.4090 C   0  0  0  0  0  2  0  0  0  0  0  0
  -29.6150  -16.2430   20.3680 C   0  0  0  0  0  2  0  0  0  0  0  0
  -30.5210  -14.9020   20.1420 C   0  0  0  0  0  0  0  0  0  0  0  0
  -30.3900  -12.6040   19.1260 C   0  0  0  0  0  2  0  0  0  0  0  0
  -29.4110  -12.6620   17.9290 C   0  0  0  0  0  2  0  0  0  0  0  0
  -27.9550  -12.4550   18.3950 C   0  0  0  0  0  2  0  0  0  0  0  0
  -27.6010  -13.3230   19.6300 C   0  0  0  0  0  3  0  0  0  0  0  0
  -28.6920  -13.2370   20.7170 C   0  0  0  0  0  2  0  0  0  0  0  0
  -29.9660  -13.6350   20.1060 N   0  0  0  0  0  0  0  0  0  0  0  0
  -31.7020  -15.0300   19.8030 O   0  0  0  0  0  0  0  0  0  0  0  0
  -25.2300  -13.8830   20.4300 C   0  0  0  0  0  0  0  0  0  0  0  0
  -24.1850  -13.0950   20.8280 C   0  0  0  0  0  0  0  0  0  0  0  0
  -24.6620  -11.7500   20.7820 C   0  0  0  0  0  0  0  0  0  0  0  0
  -26.2760  -13.0160   20.1600 N   0  0  0  0  0  0  0  0  0  0  0  0
  -25.9450  -11.7290   20.4360 N   0  0  0  0  0  0  0  0  0  0  0  0
  -23.9570  -10.4790   20.9910 C   0  0  0  0  0  0  0  0  0  0  0  0
  -24.4130   -9.5250   21.9260 C   0  0  0  0  0  3  0  0  0  0  0  0
  -23.7060   -8.3180   22.1210 C   0  0  0  0  0  3  0  0  0  0  0  0
  -22.5290   -8.0580   21.3810 C   0  0  0  0  0  0  0  0  0  0  0  0
  -22.0920   -9.0010   20.4340 C   0  0  0  0  0  3  0  0  0  0  0  0
  -22.8000  -10.1990   20.2360 C   0  0  0  0  0  3  0  0  0  0  0  0
  -21.7920   -6.9040   21.4840 O   0  0  0  0  0  0  0  0  0  0  0  0
  -21.7500   -6.1790   22.6480 C   0  0  0  0  0  0  0  0  0  0  0  0
  -21.2890   -6.7390   23.8590 C   0  0  0  0  0  3  0  0  0  0  0  0
  -21.1980   -5.9390   25.0160 C   0  0  0  0  0  3  0  0  0  0  0  0
  -21.5560   -4.5800   24.9620 C   0  0  0  0  0  0  0  0  0  0  0  0
  -22.0110   -4.0180   23.7560 C   0  0  0  0  0  3  0  0  0  0  0  0
  -22.1040   -4.8150   22.6010 C   0  0  0  0  0  0  0  0  0  0  0  0
  -22.5220   -4.2640   21.4360 F   0  0  0  0  0  0  0  0  0  0  0  0
  -21.4620   -3.8080   26.0700 F   0  0  0  0  0  0  0  0  0  0  0  0
  -22.7890  -13.5560   21.1380 C   0  0  0  0  0  0  0  0  0  0  0  0
  -22.0900  -12.8450   22.0150 N   0  0  0  0  0  0  0  0  0  0  0  0
  -22.3280  -14.5810   20.6360 O   0  0  0  0  0  0  0  0  0  0  0  0
  -22.4760  -12.0160   22.4420 H   0  0  0  0  0  0  0  0  0  0  0  0
  -21.1550  -13.1340   22.2650 H   0  0  0  0  0  0  0  0  0  0  0  0
  -25.3740  -15.2560   20.2540 N   0  0  0  0  0  0  0  0  0  0  0  0
  -24.6060  -15.9030   20.3950 H   0  0  0  0  0  0  0  0  0  0  0  0
  -26.2150  -15.7070   19.9150 H   0  0  0  0  0  0  0  0  0  0  0  0
  -28.3050  -26.4290   19.9730 O   0  0  0  0  0  0  0  0  0  0  0  0
  -24.5490  -31.8370   23.1790 C   0  0  0  0  0  0  0  0  0  0  0  0
  -27.1500  -27.2560   20.0510 C   0  0  0  0  0  0  0  0  0  0  0  0
  -23.3410  -30.4550   21.5290 C   0  0  0  0  0  3  0  0  0  0  0  0
  -24.7870  -28.9150   20.0740 C   0  0  0  0  0  0  0  0  0  0  0  0
  -25.8820  -30.7640   21.3380 C   0  0  0  0  0  2  0  0  0  0  0  0
  -25.9600  -29.3840   20.6790 C   0  0  0  0  0  0  0  0  0  0  0  0
  -27.1400  -28.5650   20.6550 C   0  0  0  0  0  3  0  0  0  0  0  0
  -25.9540  -26.8690   19.4110 C   0  0  0  0  0  3  0  0  0  0  0  0
  -24.7900  -27.6670   19.4320 C   0  0  0  0  0  3  0  0  0  0  0  0
  -23.5500  -29.7960   20.1390 C   0  0  0  0  0  2  0  0  0  0  0  0
  -24.6100  -31.0390   22.0710 N   0  0  0  0  0  0  0  0  0  0  0  0
  -23.4670  -32.1020   23.7250 O   0  0  0  0  0  0  0  0  0  0  0  0
  -22.6870  -29.4250   22.4820 C   0  0  0  0  0  0  0  0  0  0  0  0
  -21.3620  -29.2330   22.3560 N   0  0  0  0  0  0  0  0  0  0  0  0
  -23.3720  -28.8000   23.2950 O   0  0  0  0  0  0  0  0  0  0  0  0
  -20.8670  -29.7890   21.6730 H   0  0  0  0  0  0  0  0  0  0  0  0
  -18.0040  -27.9700   22.8370 C   0  0  0  0  0  0  0  0  0  0  0  0
  -20.5570  -28.2760   23.1170 C   0  0  0  0  0  3  0  0  0  0  0  0
  -20.6870  -26.8500   22.5340 C   0  0  0  0  0  2  0  0  0  0  0  0
  -19.5960  -26.5130   21.5140 C   0  0  0  0  0  2  0  0  0  0  0  0
  -18.2090  -26.6280   22.1530 C   0  0  0  0  0  2  0  0  0  0  0  0
  -19.1080  -28.7500   23.2760 C   0  0  0  0  0  0  0  0  0  0  0  0
  -18.8620  -30.0040   23.8760 C   0  0  0  0  0  3  0  0  0  0  0  0
  -17.5470  -30.4790   24.0410 C   0  0  0  0  0  3  0  0  0  0  0  0
  -16.4600  -29.6970   23.6180 C   0  0  0  0  0  3  0  0  0  0  0  0
  -16.6890  -28.4430   23.0220 C   0  0  0  0  0  3  0  0  0  0  0  0
  -25.8310  -32.4690   23.8010 C   0  0  0  0  0  3  0  0  0  0  0  0
  -26.3500  -31.6950   25.0750 C   0  0  1  0  0  0  0  0  0  0  0  0
  -25.2590  -31.4520   26.1440 C   0  0  0  0  0  1  0  0  0  0  0  0
  -26.9350  -30.3190   24.6810 C   0  0  0  0  0  1  0  0  0  0  0  0
  -27.5000  -32.4890   25.7380 C   0  0  0  0  0  1  0  0  0  0  0  0
  -25.5190  -33.8660   24.1410 N   0  0  0  0  0  0  0  0  0  0  0  0
  -25.8500  -34.9260   23.3930 C   0  0  0  0  0  0  0  0  0  0  0  0
  -26.5200  -34.8320   22.3600 O   0  0  0  0  0  0  0  0  0  0  0  0
  -24.9230  -34.0140   24.9430 H   0  0  0  0  0  0  0  0  0  0  0  0
  -24.1310  -36.7310   23.0460 C   0  0  0  0  0  1  0  0  0  0  0  0
  -25.3640  -36.3120   23.8620 C   0  0  0  0  0  3  0  0  0  0  0  0
  -27.4900  -37.1850   24.7270 C   0  0  0  0  0  1  0  0  0  0  0  0
  -26.4010  -37.3630   23.7710 N   0  0  0  0  0  0  0  0  0  0  0  0
  -25.9960  -38.2830   23.9180 H   0  0  0  0  0  0  0  0  0  0  0  0
  1  3  1  0
  2  1  2  0
  2  6  1  0
  3  9  1  0
  3  4  2  0
  4  7  1  0
  5  4  1  0
  5  8  1  0
  6  5  2  0
  9 10  2  0
 11 12  1  0
 11  9  1  0
 13 12  1  0
 14 13  1  0
 15 20  1  0
 16 17  1  0
 16 15  1  0
 18 17  1  0
 18 25  1  0
 18 19  1  0
 20 14  1  0
 20 19  1  0
 21 14  2  0
 22 23  2  0
 23 42  1  0
 24 23  1  0
 24 27  1  0
 25 22  1  0
 25 26  1  0
 26 24  2  0
 27 28  1  0
 28 29  2  0
 30 33  1  0
 30 29  1  0
 31 30  2  0
 32 31  1  0
 32 27  2  0
 33 34  1  0
 34 35  1  0
 35 36  2  0
 37 36  1  0
 37 41  1  0
 38 37  2  0
 39 34  2  0
 39 38  1  0
 40 39  1  0
 42 43  1  0
 43 46  1  0
 43 45  1  0
 44 42  2  0
 47 48  1  0
 47 22  1  0
 49 47  1  0
 50 52  1  0
 50  6  1  0
 51 62  2  0
 52 57  1  0
 53 61  1  0
 53 63  1  0
 54 60  1  0
 54 56  1  0
 55 61  1  0
 56 55  1  0
 57 56  2  0
 58 59  1  0
 58 52  2  0
 59 54  2  0
 60 53  1  0
 61 51  1  0
 63 65  2  0
 64 63  1  0
 66 64  1  0
 67 76  2  0
 67 72  1  0
 68 64  1  0
 68 72  1  0
 69 68  1  0
 70 71  1  0
 70 69  1  0
 71 67  1  0
 72 73  2  0
 73 74  1  0
 75 74  2  0
 76 75  1  0
 77 51  1  0
 77 82  1  0
 77 78  1  0
 78 81  1  1
 78 79  1  0
 80 78  1  0
 82 85  1  0
 83 87  1  0
 83 82  1  0
 84 83  2  0
 87 86  1  0
 89 87  1  0
 89 90  1  0
 89 88  1  0
M  ISO  4   6 101  13 100  14 100  50 101
M  END
>  <TORSDO>  (47) 
F 20

>  <SCORE>  (47) 
-13.622

>  <name>  (47) 
47

>  <ligand_id>  (47) 
47

>  <original_smiles>  (47) 
[H]c1c([H])c([H])c2c(c1[H])C([H])([H])C([H])([H])C([H])([H])C2([H])N([H])C(=O)C1([H])N(C(=O)C([H])(N([H])C(=O)C([H])(N([H])C([H])([H])[H])C([H])([H])[H])C(C([H])([H])[H])(C([H])([H])[H])C([H])([H])[H])C([H])([H])c2c([H])c(Oc3c([H])c([H])c(C(=O)C([H])([H])C([H])([H])C([H])([H])C(=O)N4C([H])([H])C([H])([H])C([H])([H])C([H])(n5nc(-c6c([H])c([H])c(Oc7c([H])c([H])c(F)c([H])c7F)c([H])c6[H])c(C(=O)N([H])[H])c5N([H])[H])C4([H])[H])c(C([H])([H])[H])c3C([H])([H])[H])c([H])c([H])c2C1([H])[H]

>  <smiles>  (47) 
[H]c1c([H])c([H])c2c(c1[H])C([H])([H])C([H])([H])C([H])([H])C2([H])N([H])C(=O)C1([H])N(C(=O)C([H])(N([H])C(=O)C([H])(N([H])C([H])([H])[H])C([H])([H])[H])C(C([H])([H])[H])(C([H])([H])[H])C([H])([H])[H])C([H])([H])c2c([H])c(Oc3c([H])c([H])c(C(=O)C([H])([H])C([H])([H])C([H])([H])C(=O)N4C([H])([H])C([H])([H])C([H])([H])C([H])(n5nc(-c6c([H])c([H])c(Oc7c([H])c([H])c(F)c([H])c7F)c([H])c6[H])c(C(=O)N([H])[H])c5N([H])[H])C4([H])[H])c(C([H])([H])[H])c3C([H])([H])[H])c([H])c([H])c2C1([H])[H]

$$$$
48:0:0
     RDKit          3D

 92100  0  0  1  0  0  0  0  0999 V2000
  -29.7840  -22.5750   21.7600 C   0  0  0  0  0  3  0  0  0  0  0  0
  -29.5310  -21.2500   22.1700 C   0  0  0  0  0  3  0  0  0  0  0  0
  -29.2030  -23.0790   20.5760 C   0  0  0  0  0  0  0  0  0  0  0  0
  -28.6870  -20.4160   21.4060 C   0  0  0  0  0  0  0  0  0  0  0  0
  -28.3650  -22.2390   19.8070 C   0  0  0  0  0  0  0  0  0  0  0  0
  -28.1070  -20.9180   20.2210 C   0  0  0  0  0  0  0  0  0  0  0  0
  -27.2900  -20.1420   19.4680 F   0  0  0  0  0  0  0  0  0  0  0  0
  -27.7720  -22.6860   18.6620 O   0  0  0  0  0  0  0  0  0  0  0  0
  -27.2480  -21.9860   18.2820 H   0  0  0  0  0  0  0  0  0  0  0  0
  -29.4390  -24.5250   20.1630 C   0  0  0  0  0  2  0  0  0  0  0  0
  -28.2800  -25.4190   20.6190 C   0  0  0  0  0  2  0  0  0  0  0  0
  -28.3990  -26.7390   20.0850 O   0  0  0  0  0  0  0  0  0  0  0  0
  -24.6110  -31.8720   23.2120 C   0  0  0  0  0  0  0  0  0  0  0  0
  -27.2320  -27.4640   20.0900 C   0  0  0  0  0  0  0  0  0  0  0  0
  -23.3970  -30.4960   21.5530 C   0  0  0  0  0  3  0  0  0  0  0  0
  -24.8420  -28.9670   20.1150 C   0  0  0  0  0  0  0  0  0  0  0  0
  -25.9240  -30.8450   21.3620 C   0  0  0  0  0  2  0  0  0  0  0  0
  -26.0010  -29.4830   20.7090 C   0  0  0  0  0  0  0  0  0  0  0  0
  -27.2010  -28.7390   20.6930 C   0  0  0  0  0  3  0  0  0  0  0  0
  -26.0600  -26.9650   19.4790 C   0  0  0  0  0  3  0  0  0  0  0  0
  -24.8650  -27.7060   19.4970 C   0  0  0  0  0  3  0  0  0  0  0  0
  -23.6020  -29.8290   20.1680 C   0  0  0  0  0  2  0  0  0  0  0  0
  -24.6620  -31.0850   22.1010 N   0  0  0  0  0  0  0  0  0  0  0  0
  -23.5320  -32.1460   23.7540 O   0  0  0  0  0  0  0  0  0  0  0  0
  -22.7400  -29.4690   22.5020 C   0  0  0  0  0  0  0  0  0  0  0  0
  -21.4130  -29.3050   22.3750 N   0  0  0  0  0  0  0  0  0  0  0  0
  -23.4190  -28.8220   23.3030 O   0  0  0  0  0  0  0  0  0  0  0  0
  -20.9260  -29.8790   21.7010 H   0  0  0  0  0  0  0  0  0  0  0  0
  -18.0290  -28.1360   22.8500 C   0  0  0  0  0  0  0  0  0  0  0  0
  -20.5880  -28.3650   23.1330 C   0  0  0  0  0  3  0  0  0  0  0  0
  -20.6790  -26.9390   22.5410 C   0  0  0  0  0  2  0  0  0  0  0  0
  -19.5760  -26.6350   21.5220 C   0  0  0  0  0  2  0  0  0  0  0  0
  -18.1950  -26.7900   22.1650 C   0  0  0  0  0  2  0  0  0  0  0  0
  -19.1540  -28.8820   23.2910 C   0  0  0  0  0  0  0  0  0  0  0  0
  -18.9470  -30.1420   23.8910 C   0  0  0  0  0  3  0  0  0  0  0  0
  -17.6480  -30.6570   24.0580 C   0  0  0  0  0  3  0  0  0  0  0  0
  -16.5370  -29.9080   23.6330 C   0  0  0  0  0  3  0  0  0  0  0  0
  -16.7280  -28.6500   23.0340 C   0  0  0  0  0  3  0  0  0  0  0  0
  -25.9030  -32.4840   23.8400 C   0  0  0  0  0  3  0  0  0  0  0  0
  -25.5900  -33.8630   24.2340 N   0  0  0  0  0  0  0  0  0  0  0  0
  -25.9040  -34.9480   23.5130 C   0  0  0  0  0  0  0  0  0  0  0  0
  -26.5590  -34.8930   22.4690 O   0  0  0  0  0  0  0  0  0  0  0  0
  -25.0060  -33.9790   25.0490 H   0  0  0  0  0  0  0  0  0  0  0  0
  -24.1490  -36.7310   23.2640 C   0  0  0  0  0  1  0  0  0  0  0  0
  -25.4110  -36.3120   24.0340 C   0  0  0  0  0  3  0  0  0  0  0  0
  -27.5580  -37.1810   24.8470 C   0  0  0  0  0  1  0  0  0  0  0  0
  -26.4300  -37.3800   23.9410 N   0  0  0  0  0  0  0  0  0  0  0  0
  -26.0190  -38.2880   24.1390 H   0  0  0  0  0  0  0  0  0  0  0  0
  -26.4460  -31.6600   25.0710 C   0  0  1  0  0  0  0  0  0  0  0  0
  -25.3720  -31.3700   26.1450 C   0  0  0  0  0  1  0  0  0  0  0  0
  -27.0290  -30.3050   24.6070 C   0  0  0  0  0  1  0  0  0  0  0  0
  -27.6050  -32.4320   25.7460 C   0  0  0  0  0  1  0  0  0  0  0  0
  -28.4140  -18.9820   21.8560 C   0  0  0  0  0  2  0  0  0  0  0  0
  -29.6030  -18.0050   21.6120 C   0  0  0  0  0  2  0  0  0  0  0  0
  -29.6480  -16.6670   20.8100 C   0  0  0  0  0  2  0  0  0  0  0  0
  -30.2720  -15.4860   21.5940 C   0  0  0  0  0  2  0  0  0  0  0  0
  -30.7630  -14.3780   20.6500 C   0  0  0  0  0  0  0  0  0  0  0  0
  -30.4160  -12.2810   19.4010 C   0  0  0  0  0  2  0  0  0  0  0  0
  -29.4890  -12.5200   18.1930 C   0  0  0  0  0  2  0  0  0  0  0  0
  -28.0110  -12.3780   18.6050 C   0  0  0  0  0  2  0  0  0  0  0  0
  -27.6660  -13.2030   19.8730 C   0  0  0  0  0  3  0  0  0  0  0  0
  -28.7050  -12.9500   20.9890 C   0  0  0  0  0  2  0  0  0  0  0  0
  -30.0460  -13.2400   20.4530 N   0  0  0  0  0  0  0  0  0  0  0  0
  -31.8220  -14.5990   20.0540 O   0  0  0  0  0  0  0  0  0  0  0  0
  -25.2620  -13.8160   20.5660 C   0  0  0  0  0  0  0  0  0  0  0  0
  -24.1860  -13.0440   20.9150 C   0  0  0  0  0  0  0  0  0  0  0  0
  -24.6400  -11.6900   20.8700 C   0  0  0  0  0  0  0  0  0  0  0  0
  -26.3050  -12.9310   20.3330 N   0  0  0  0  0  0  0  0  0  0  0  0
  -25.9320  -11.6480   20.5700 N   0  0  0  0  0  0  0  0  0  0  0  0
  -23.9050  -10.4290   21.0390 C   0  0  0  0  0  0  0  0  0  0  0  0
  -24.3610   -9.4210   21.9180 C   0  0  0  0  0  3  0  0  0  0  0  0
  -23.6280   -8.2250   22.0760 C   0  0  0  0  0  3  0  0  0  0  0  0
  -22.4270   -8.0290   21.3550 C   0  0  0  0  0  0  0  0  0  0  0  0
  -21.9890   -9.0260   20.4650 C   0  0  0  0  0  3  0  0  0  0  0  0
  -22.7220  -10.2130   20.3050 C   0  0  0  0  0  3  0  0  0  0  0  0
  -21.6640   -6.8880   21.4240 O   0  0  0  0  0  0  0  0  0  0  0  0
  -21.6850   -6.0740   22.5280 C   0  0  0  0  0  0  0  0  0  0  0  0
  -21.4010   -6.5640   23.8210 C   0  0  0  0  0  3  0  0  0  0  0  0
  -21.3660   -5.6790   24.9170 C   0  0  0  0  0  3  0  0  0  0  0  0
  -21.6050   -4.3060   24.7220 C   0  0  0  0  0  0  0  0  0  0  0  0
  -21.8820   -3.8140   23.4340 C   0  0  0  0  0  3  0  0  0  0  0  0
  -21.9190   -4.6960   22.3400 C   0  0  0  0  0  0  0  0  0  0  0  0
  -22.1670   -4.2150   21.0970 F   0  0  0  0  0  0  0  0  0  0  0  0
  -21.5620   -3.4540   25.7730 F   0  0  0  0  0  0  0  0  0  0  0  0
  -22.7880  -13.5260   21.1810 C   0  0  0  0  0  0  0  0  0  0  0  0
  -22.0510  -12.8270   22.0370 N   0  0  0  0  0  0  0  0  0  0  0  0
  -22.3580  -14.5570   20.6660 O   0  0  0  0  0  0  0  0  0  0  0  0
  -22.4100  -11.9930   22.4790 H   0  0  0  0  0  0  0  0  0  0  0  0
  -21.1150  -13.1340   22.2570 H   0  0  0  0  0  0  0  0  0  0  0  0
  -25.4340  -15.1870   20.4100 N   0  0  0  0  0  0  0  0  0  0  0  0
  -24.6680  -15.8420   20.5250 H   0  0  0  0  0  0  0  0  0  0  0  0
  -26.2910  -15.6290   20.1020 H   0  0  0  0  0  0  0  0  0  0  0  0
  1  2  1  0
  3  1  2  0
  4 53  1  0
  4  2  2  0
  5  6  2  0
  5  3  1  0
  6  4  1  0
  7  6  1  0
  8  5  1  0
  9  8  1  0
 10  3  1  0
 10 11  1  0
 12 14  1  0
 12 11  1  0
 13 24  2  0
 14 19  1  0
 15 23  1  0
 15 25  1  0
 16 22  1  0
 16 18  1  0
 17 23  1  0
 18 17  1  0
 19 18  2  0
 20 21  1  0
 20 14  2  0
 21 16  2  0
 22 15  1  0
 23 13  1  0
 25 27  2  0
 26 25  1  0
 28 26  1  0
 29 38  2  0
 29 34  1  0
 30 26  1  0
 30 34  1  0
 31 30  1  0
 32 33  1  0
 32 31  1  0
 33 29  1  0
 34 35  2  0
 35 36  1  0
 37 36  2  0
 38 37  1  0
 39 13  1  0
 39 40  1  0
 39 49  1  0
 40 43  1  0
 41 45  1  0
 41 40  1  0
 42 41  2  0
 45 44  1  0
 47 45  1  0
 47 48  1  0
 47 46  1  0
 49 52  1  1
 49 50  1  0
 51 49  1  0
 54 53  1  0
 55 56  1  0
 55 54  1  0
 57 56  1  0
 58 63  1  0
 59 60  1  0
 59 58  1  0
 61 60  1  0
 61 68  1  0
 61 62  1  0
 63 57  1  0
 63 62  1  0
 64 57  2  0
 65 66  2  0
 66 85  1  0
 67 66  1  0
 67 70  1  0
 68 65  1  0
 68 69  1  0
 69 67  2  0
 70 71  1  0
 71 72  2  0
 73 76  1  0
 73 72  1  0
 74 73  2  0
 75 74  1  0
 75 70  2  0
 76 77  1  0
 77 78  1  0
 78 79  2  0
 80 79  1  0
 80 84  1  0
 81 80  2  0
 82 77  2  0
 82 81  1  0
 83 82  1  0
 85 86  1  0
 86 89  1  0
 86 88  1  0
 87 85  2  0
 90 91  1  0
 90 65  1  0
 92 90  1  0
M  ISO  4  11 101  12 101  56 100  57 100
M  END
>  <TORSDO>  (48) 
F 23

>  <SCORE>  (48) 
-10.058

>  <name>  (48) 
48

>  <ligand_id>  (48) 
48

>  <original_smiles>  (48) 
[H]Oc1c(F)c(C([H])([H])C([H])([H])C([H])([H])C([H])([H])C(=O)N2C([H])([H])C([H])([H])C([H])([H])C([H])(n3nc(-c4c([H])c([H])c(Oc5c([H])c([H])c(F)c([H])c5F)c([H])c4[H])c(C(=O)N([H])[H])c3N([H])[H])C2([H])[H])c([H])c([H])c1C([H])([H])C([H])([H])Oc1c([H])c([H])c2c(c1[H])C([H])([H])N(C(=O)C([H])(N([H])C(=O)C([H])(N([H])C([H])([H])[H])C([H])([H])[H])C(C([H])([H])[H])(C([H])([H])[H])C([H])([H])[H])C([H])(C(=O)N([H])C1([H])c3c([H])c([H])c([H])c([H])c3C([H])([H])C([H])([H])C1([H])[H])C2([H])[H]

>  <smiles>  (48) 
[H]Oc1c(F)c(C([H])([H])C([H])([H])C([H])([H])C([H])([H])C(=O)N2C([H])([H])C([H])([H])C([H])([H])C([H])(n3nc(-c4c([H])c([H])c(Oc5c([H])c([H])c(F)c([H])c5F)c([H])c4[H])c(C(=O)N([H])[H])c3N([H])[H])C2([H])[H])c([H])c([H])c1C([H])([H])C([H])([H])Oc1c([H])c([H])c2c(c1[H])C([H])([H])N(C(=O)C([H])(N([H])C(=O)C([H])(N([H])C([H])([H])[H])C([H])([H])[H])C(C([H])([H])[H])(C([H])([H])[H])C([H])([H])[H])C([H])(C(=O)N([H])C1([H])c3c([H])c([H])c([H])c([H])c3C([H])([H])C([H])([H])C1([H])[H])C2([H])[H]

$$$$
49:0:0
     RDKit          3D

 98106  0  0  1  0  0  0  0  0999 V2000
  -30.1430  -23.4290   22.3960 C   0  0  0  0  0  3  0  0  0  0  0  0
  -28.8290  -22.9980   20.0060 C   0  0  0  0  0  3  0  0  0  0  0  0
  -29.3570  -24.4830   21.8610 C   0  0  0  0  0  0  0  0  0  0  0  0
  -30.2570  -22.1570   21.7920 C   0  0  0  0  0  0  0  0  0  0  0  0
  -28.7490  -24.3250   20.5790 C   0  0  0  0  0  0  0  0  0  0  0  0
  -29.5270  -21.8850   20.6070 C   0  0  0  0  0  0  0  0  0  0  0  0
  -29.1940  -25.6840   22.7380 C   0  0  0  0  0  0  0  0  0  0  0  0
  -29.6560  -26.8050   22.5130 O   0  0  0  0  0  0  0  0  0  0  0  0
  -28.3840  -25.4400   24.0230 C   0  0  0  0  0  2  0  0  0  0  0  0
  -27.8120  -26.7040   24.6900 C   0  0  0  0  0  2  0  0  0  0  0  0
  -27.0060  -26.3480   25.9510 C   0  0  0  0  0  2  0  0  0  0  0  0
  -25.6540  -27.2170   27.9250 C   0  0  0  0  0  1  0  0  0  0  0  0
  -26.3050  -27.5600   26.5790 C   0  0  0  0  0  2  0  0  0  0  0  0
  -31.1390  -21.1010   22.4720 C   0  0  0  0  0  2  0  0  0  0  0  0
  -33.5530  -20.3050   22.7590 C   0  0  0  0  0  1  0  0  0  0  0  0
  -32.6070  -21.5140   22.6920 C   0  0  0  0  0  2  0  0  0  0  0  0
  -27.8190  -25.4230   19.9170 C   0  0  0  0  0  2  0  0  0  0  0  0
  -28.1310  -26.8790   19.9230 O   0  0  0  0  0  0  0  0  0  0  0  0
  -24.6740  -32.1050   23.4820 C   0  0  0  0  0  0  0  0  0  0  0  0
  -27.0410  -27.7710   19.9480 C   0  0  0  0  0  0  0  0  0  0  0  0
  -23.3580  -30.8640   21.8030 C   0  0  0  0  0  3  0  0  0  0  0  0
  -24.7030  -29.4200   20.1770 C   0  0  0  0  0  0  0  0  0  0  0  0
  -25.8900  -31.1600   21.5060 C   0  0  0  0  0  2  0  0  0  0  0  0
  -25.9100  -29.8400   20.7480 C   0  0  0  0  0  0  0  0  0  0  0  0
  -27.0790  -29.0310   20.6250 C   0  0  0  0  0  3  0  0  0  0  0  0
  -25.8110  -27.4230   19.3340 C   0  0  0  0  0  3  0  0  0  0  0  0
  -24.6570  -28.2180   19.4600 C   0  0  0  0  0  3  0  0  0  0  0  0
  -23.4850  -30.3020   20.3620 C   0  0  0  0  0  2  0  0  0  0  0  0
  -24.6630  -31.3890   22.3190 N   0  0  0  0  0  0  0  0  0  0  0  0
  -23.6270  -32.3510   24.0960 O   0  0  0  0  0  0  0  0  0  0  0  0
  -22.7300  -29.7800   22.7110 C   0  0  0  0  0  0  0  0  0  0  0  0
  -21.4120  -29.5540   22.5660 N   0  0  0  0  0  0  0  0  0  0  0  0
  -23.4300  -29.1480   23.5050 O   0  0  0  0  0  0  0  0  0  0  0  0
  -20.9030  -30.1210   21.9020 H   0  0  0  0  0  0  0  0  0  0  0  0
  -18.1030  -28.1440   22.9190 C   0  0  0  0  0  0  0  0  0  0  0  0
  -20.6280  -28.5540   23.2910 C   0  0  0  0  0  3  0  0  0  0  0  0
  -20.8430  -27.1420   22.6990 C   0  0  0  0  0  2  0  0  0  0  0  0
  -19.8020  -26.7720   21.6380 C   0  0  0  0  0  2  0  0  0  0  0  0
  -18.3890  -26.8230   22.2270 C   0  0  0  0  0  2  0  0  0  0  0  0
  -19.1560  -28.9650   23.4040 C   0  0  0  0  0  0  0  0  0  0  0  0
  -18.8370  -30.2010   24.0070 C   0  0  0  0  0  3  0  0  0  0  0  0
  -17.4990  -30.6190   24.1310 C   0  0  0  0  0  3  0  0  0  0  0  0
  -16.4600  -29.7960   23.6630 C   0  0  0  0  0  3  0  0  0  0  0  0
  -16.7620  -28.5610   23.0640 C   0  0  0  0  0  3  0  0  0  0  0  0
  -26.0000  -32.6670   24.0790 C   0  0  0  0  0  3  0  0  0  0  0  0
  -26.5530  -31.8080   25.2820 C   0  0  1  0  0  0  0  0  0  0  0  0
  -25.5020  -31.5400   26.3830 C   0  0  0  0  0  1  0  0  0  0  0  0
  -27.0790  -30.4430   24.7820 C   0  0  0  0  0  1  0  0  0  0  0  0
  -27.7550  -32.5320   25.9360 C   0  0  0  0  0  1  0  0  0  0  0  0
  -25.7460  -34.0520   24.5060 N   0  0  0  0  0  0  0  0  0  0  0  0
  -26.0820  -35.1400   23.8010 C   0  0  0  0  0  0  0  0  0  0  0  0
  -26.7090  -35.0810   22.7390 O   0  0  0  0  0  0  0  0  0  0  0  0
  -25.1900  -34.1760   25.3400 H   0  0  0  0  0  0  0  0  0  0  0  0
  -24.3940  -36.9930   23.6280 C   0  0  0  0  0  1  0  0  0  0  0  0
  -25.6560  -36.5100   24.3600 C   0  0  0  0  0  3  0  0  0  0  0  0
  -27.8420  -37.2920   25.1570 C   0  0  0  0  0  1  0  0  0  0  0  0
  -26.7140  -37.5410   24.2640 N   0  0  0  0  0  0  0  0  0  0  0  0
  -26.3360  -38.4590   24.4810 H   0  0  0  0  0  0  0  0  0  0  0  0
  -29.5970  -20.4520   19.9440 C   0  0  0  0  0  2  0  0  0  0  0  0
  -29.3130  -19.1330   20.8060 C   0  0  0  0  0  2  0  0  0  0  0  0
  -30.1190  -17.8020   20.4320 C   0  0  0  0  0  3  0  0  0  0  0  0
  -29.7850  -16.4390   21.2000 C   0  0  0  0  0  3  0  0  0  0  0  0
  -30.6290  -15.1410   20.8440 C   0  0  0  0  0  0  0  0  0  0  0  0
  -30.5780  -12.8530   19.8610 C   0  0  0  0  0  2  0  0  0  0  0  0
  -29.7270  -12.8960   18.5730 C   0  0  0  0  0  2  0  0  0  0  0  0
  -28.2350  -12.6840   18.9020 C   0  0  0  0  0  2  0  0  0  0  0  0
  -27.7470  -13.5770   20.0740 C   0  0  0  0  0  3  0  0  0  0  0  0
  -28.7280  -13.5280   21.2670 C   0  0  0  0  0  2  0  0  0  0  0  0
  -30.0610  -13.8930   20.7730 N   0  0  0  0  0  0  0  0  0  0  0  0
  -31.8060  -15.3030   20.5090 O   0  0  0  0  0  0  0  0  0  0  0  0
  -25.2910  -14.0880   20.6300 C   0  0  0  0  0  0  0  0  0  0  0  0
  -24.2310  -13.2780   20.9340 C   0  0  0  0  0  0  0  0  0  0  0  0
  -24.7450  -11.9450   20.9480 C   0  0  0  0  0  0  0  0  0  0  0  0
  -26.3810  -13.2470   20.4750 N   0  0  0  0  0  0  0  0  0  0  0  0
  -26.0540  -11.9530   20.7290 N   0  0  0  0  0  0  0  0  0  0  0  0
  -24.0540  -10.6580   21.1010 C   0  0  0  0  0  0  0  0  0  0  0  0
  -24.4560   -9.7150   22.0730 C   0  0  0  0  0  3  0  0  0  0  0  0
  -23.7640   -8.4920   22.2140 C   0  0  0  0  0  3  0  0  0  0  0  0
  -22.6580   -8.2030   21.3800 C   0  0  0  0  0  0  0  0  0  0  0  0
  -22.2760   -9.1340   20.3980 C   0  0  0  0  0  3  0  0  0  0  0  0
  -22.9700  -10.3480   20.2560 C   0  0  0  0  0  3  0  0  0  0  0  0
  -21.9400   -7.0320   21.4290 O   0  0  0  0  0  0  0  0  0  0  0  0
  -21.8490   -6.2880   22.5790 C   0  0  0  0  0  0  0  0  0  0  0  0
  -21.2870   -6.8150   23.7620 C   0  0  0  0  0  3  0  0  0  0  0  0
  -21.1510   -5.9950   24.9010 C   0  0  0  0  0  3  0  0  0  0  0  0
  -21.5660   -4.6520   24.8560 C   0  0  0  0  0  0  0  0  0  0  0  0
  -22.1230   -4.1240   23.6770 C   0  0  0  0  0  3  0  0  0  0  0  0
  -22.2620   -4.9410   22.5400 C   0  0  0  0  0  0  0  0  0  0  0  0
  -22.7780   -4.4230   21.3990 F   0  0  0  0  0  0  0  0  0  0  0  0
  -21.4280   -3.8610   25.9470 F   0  0  0  0  0  0  0  0  0  0  0  0
  -22.8010  -13.7040   21.1080 C   0  0  0  0  0  0  0  0  0  0  0  0
  -22.0470  -12.9930   21.9390 N   0  0  0  0  0  0  0  0  0  0  0  0
  -22.3570  -14.7000   20.5370 O   0  0  0  0  0  0  0  0  0  0  0  0
  -22.4180  -12.1870   22.4200 H   0  0  0  0  0  0  0  0  0  0  0  0
  -21.0850  -13.2590   22.0980 H   0  0  0  0  0  0  0  0  0  0  0  0
  -25.4170  -15.4620   20.4500 N   0  0  0  0  0  0  0  0  0  0  0  0
  -24.6230  -16.0920   20.5020 H   0  0  0  0  0  0  0  0  0  0  0  0
  -26.2740  -15.9290   20.1800 H   0  0  0  0  0  0  0  0  0  0  0  0
  2  5  1  0
  2  6  2  0
  3  1  1  0
  3  7  1  0
  4  1  2  0
  4 14  1  0
  5  3  2  0
  6  4  1  0
  7  9  1  0
  8  7  2  0
  9 10  1  0
 10 11  1  0
 11 13  1  0
 13 12  1  0
 14 16  1  0
 16 15  1  0
 17 18  1  0
 17  5  1  0
 18 20  1  0
 19 30  2  0
 20 25  1  0
 21 29  1  0
 21 31  1  0
 22 28  1  0
 22 24  1  0
 23 29  1  0
 24 23  1  0
 25 24  2  0
 26 27  1  0
 26 20  2  0
 27 22  2  0
 28 21  1  0
 29 19  1  0
 31 33  2  0
 32 31  1  0
 34 32  1  0
 35 44  2  0
 35 40  1  0
 36 32  1  0
 36 40  1  0
 37 36  1  0
 38 39  1  0
 38 37  1  0
 39 35  1  0
 40 41  2  0
 41 42  1  0
 43 42  2  0
 44 43  1  0
 45 19  1  0
 45 50  1  0
 45 46  1  0
 46 49  1  1
 46 47  1  0
 48 46  1  0
 50 53  1  0
 51 55  1  0
 51 50  1  0
 52 51  2  0
 55 54  1  0
 57 55  1  0
 57 58  1  0
 57 56  1  0
 59  6  1  0
 59 60  1  0
 61 60  1  0
 61 62  2  0
 63 62  1  0
 64 69  1  0
 65 66  1  0
 65 64  1  0
 67 66  1  0
 67 74  1  0
 67 68  1  0
 69 63  1  0
 69 68  1  0
 70 63  2  0
 71 72  2  0
 72 73  1  0
 72 91  1  0
 73 76  1  0
 74 71  1  0
 74 75  1  0
 75 73  2  0
 76 77  1  0
 77 78  2  0
 79 82  1  0
 79 78  1  0
 80 79  2  0
 81 80  1  0
 81 76  2  0
 82 83  1  0
 83 84  1  0
 84 85  2  0
 86 85  1  0
 86 90  1  0
 87 86  2  0
 88 83  2  0
 88 87  1  0
 89 88  1  0
 91 92  1  0
 92 95  1  0
 92 94  1  0
 93 91  2  0
 96 97  1  0
 96 71  1  0
 98 96  1  0
M  ISO  4  17 101  18 101  62 100  63 100
M  END
>  <TORSDO>  (49) 
F 28

>  <SCORE>  (49) 
-11.298

>  <name>  (49) 
49

>  <ligand_id>  (49) 
49

>  <original_smiles>  (49) 
[H]c1c([H])c([H])c2c(c1[H])C([H])([H])C([H])([H])C([H])([H])C2([H])N([H])C(=O)C1([H])N(C(=O)C([H])(N([H])C(=O)C([H])(N([H])C([H])([H])[H])C([H])([H])[H])C(C([H])([H])[H])(C([H])([H])[H])C([H])([H])[H])C([H])([H])c2c([H])c(OC([H])([H])c3c([H])c(C([H])([H])C([H])([H])C([H])([H])C([H])([H])C(=O)N4C([H])([H])C([H])([H])C([H])([H])C([H])(n5nc(-c6c([H])c([H])c(Oc7c([H])c([H])c(F)c([H])c7F)c([H])c6[H])c(C(=O)N([H])[H])c5N([H])[H])C4([H])[H])c(C([H])([H])C([H])([H])C([H])([H])[H])c([H])c3C(=O)C([H])([H])C([H])([H])C([H])([H])C([H])([H])C([H])([H])[H])c([H])c([H])c2C1([H])[H]

>  <smiles>  (49) 
[H]c1c([H])c([H])c2c(c1[H])C([H])([H])C([H])([H])C([H])([H])C2([H])N([H])C(=O)C1([H])N(C(=O)C([H])(N([H])C(=O)C([H])(N([H])C([H])([H])[H])C([H])([H])[H])C(C([H])([H])[H])(C([H])([H])[H])C([H])([H])[H])C([H])([H])c2c([H])c(OC([H])([H])c3c([H])c(C([H])([H])C([H])([H])C([H])([H])C([H])([H])C(=O)N4C([H])([H])C([H])([H])C([H])([H])C([H])(n5nc(-c6c([H])c([H])c(Oc7c([H])c([H])c(F)c([H])c7F)c([H])c6[H])c(C(=O)N([H])[H])c5N([H])[H])C4([H])[H])c(C([H])([H])C([H])([H])C([H])([H])[H])c([H])c3C(=O)C([H])([H])C([H])([H])C([H])([H])C([H])([H])C([H])([H])[H])c([H])c([H])c2C1([H])[H]

$$$$
50:0:0
     RDKit          3D

100108  0  0  1  0  0  0  0  0999 V2000
  -28.8150  -18.5510   20.5070 C   0  0  0  0  0  3  0  0  0  0  0  0
  -28.4570  -19.8400   20.0920 C   0  0  0  0  0  3  0  0  0  0  0  0
  -29.8520  -18.3550   21.4350 C   0  0  0  0  0  0  0  0  0  0  0  0
  -29.0360  -20.9870   20.6720 C   0  0  0  0  0  0  0  0  0  0  0  0
  -29.9950  -20.8110   21.7140 C   0  0  0  0  0  0  0  0  0  0  0  0
  -30.5020  -19.5010   21.9910 C   0  0  0  0  0  0  0  0  0  0  0  0
  -30.4630  -22.0030   22.5520 C   0  0  0  0  0  1  0  0  0  0  0  0
  -27.5280  -23.1020   20.9060 C   0  0  0  0  0  1  0  0  0  0  0  0
  -28.6000  -22.3480   20.0920 C   0  0  0  0  0  3  0  0  0  0  0  0
  -29.7880  -23.1850   19.7620 N   0  0  0  0  0  4  0  0  0  0  0  0
  -30.3990  -23.2380   20.5620 H   0  0  0  0  0  0  0  0  0  0  0  0
  -30.2910  -22.6930   19.0390 H   0  0  0  0  0  0  0  0  0  0  0  0
  -29.4600  -24.5520   19.2790 C   0  0  0  0  0  2  0  0  0  0  0  0
  -30.6300  -25.5640   19.3290 C   0  0  0  0  0  2  0  0  0  0  0  0
  -30.3000  -26.8280   18.7290 O   0  0  0  0  0  0  0  0  0  0  0  0
  -26.5870  -29.6540   24.1170 C   0  0  0  0  0  0  0  0  0  0  0  0
  -29.1300  -27.4120   19.1570 C   0  0  0  0  0  0  0  0  0  0  0  0
  -25.3230  -29.2170   22.0380 C   0  0  0  0  0  3  0  0  0  0  0  0
  -26.7250  -28.6330   19.9930 C   0  0  0  0  0  0  0  0  0  0  0  0
  -27.8330  -29.6950   21.9640 C   0  0  0  0  0  2  0  0  0  0  0  0
  -27.9020  -28.8250   20.7290 C   0  0  0  0  0  0  0  0  0  0  0  0
  -29.1080  -28.2160   20.3160 C   0  0  0  0  0  3  0  0  0  0  0  0
  -27.9440  -27.2610   18.4060 C   0  0  0  0  0  3  0  0  0  0  0  0
  -26.7390  -27.8470   18.8290 C   0  0  0  0  0  3  0  0  0  0  0  0
  -25.4780  -29.3160   20.4980 C   0  0  0  0  0  2  0  0  0  0  0  0
  -26.6010  -29.5080   22.7620 N   0  0  0  0  0  0  0  0  0  0  0  0
  -25.5270  -29.5910   24.7570 O   0  0  0  0  0  0  0  0  0  0  0  0
  -24.7240  -27.8350   22.3860 C   0  0  0  0  0  0  0  0  0  0  0  0
  -23.4520  -27.6250   22.0080 N   0  0  0  0  0  0  0  0  0  0  0  0
  -25.4010  -26.9760   22.9540 O   0  0  0  0  0  0  0  0  0  0  0  0
  -22.9620  -28.3830   21.5530 H   0  0  0  0  0  0  0  0  0  0  0  0
  -20.3450  -25.9680   21.2080 C   0  0  0  0  0  0  0  0  0  0  0  0
  -22.6940  -26.3880   22.1950 C   0  0  0  0  0  3  0  0  0  0  0  0
  -23.1850  -25.2820   21.2330 C   0  0  0  0  0  2  0  0  0  0  0  0
  -22.3940  -25.2270   19.9220 C   0  0  0  0  0  2  0  0  0  0  0  0
  -20.9090  -24.9790   20.2020 C   0  0  0  0  0  2  0  0  0  0  0  0
  -21.1840  -26.6390   22.1320 C   0  0  0  0  0  0  0  0  0  0  0  0
  -20.6140  -27.5730   23.0260 C   0  0  0  0  0  3  0  0  0  0  0  0
  -19.2310  -27.8360   23.0020 C   0  0  0  0  0  3  0  0  0  0  0  0
  -18.4010  -27.1570   22.0940 C   0  0  0  0  0  3  0  0  0  0  0  0
  -18.9570  -26.2210   21.2030 C   0  0  0  0  0  3  0  0  0  0  0  0
  -27.8920  -29.9300   24.9240 C   0  0  0  0  0  3  0  0  0  0  0  0
  -28.3750  -28.6850   25.7660 C   0  0  1  0  0  0  0  0  0  0  0  0
  -27.2800  -28.0840   26.6750 C   0  0  0  0  0  1  0  0  0  0  0  0
  -28.8860  -27.5580   24.8370 C   0  0  0  0  0  1  0  0  0  0  0  0
  -29.5690  -29.0920   26.6610 C   0  0  0  0  0  1  0  0  0  0  0  0
  -27.6380  -31.0820   25.7990 N   0  0  0  0  0  0  0  0  0  0  0  0
  -28.1140  -32.3170   25.5830 C   0  0  0  0  0  0  0  0  0  0  0  0
  -28.8840  -32.5850   24.6590 O   0  0  0  0  0  0  0  0  0  0  0  0
  -26.9730  -30.9470   26.5450 H   0  0  0  0  0  0  0  0  0  0  0  0
  -26.5960  -34.3040   25.8700 C   0  0  0  0  0  1  0  0  0  0  0  0
  -27.6640  -33.4290   26.5490 C   0  0  0  0  0  3  0  0  0  0  0  0
  -29.7080  -33.5840   27.9030 C   0  0  0  0  0  1  0  0  0  0  0  0
  -28.7780  -34.2830   27.0190 N   0  0  0  0  0  0  0  0  0  0  0  0
  -28.4230  -35.0980   27.5090 H   0  0  0  0  0  0  0  0  0  0  0  0
  -30.2680  -16.9230   21.8250 C   0  0  0  0  0  2  0  0  0  0  0  0
  -30.2650  -15.7670   20.7640 C   0  0  0  0  0  2  0  0  0  0  0  0
  -32.3420  -16.3090   19.4450 C   0  0  0  0  0  1  0  0  0  0  0  0
  -32.5320  -14.8870   21.5080 C   0  0  0  0  0  1  0  0  0  0  0  0
  -31.6460  -15.1900   20.2720 C   0  0  1  0  0  0  0  0  0  0  0  0
  -31.6740  -13.8920   19.3540 C   0  0  0  0  0  0  0  0  0  0  0  0
  -30.9680  -11.6710   18.4880 C   0  0  0  0  0  2  0  0  0  0  0  0
  -29.8640  -11.7640   17.4120 C   0  0  0  0  0  2  0  0  0  0  0  0
  -28.4740  -11.8300   18.0660 C   0  0  0  0  0  2  0  0  0  0  0  0
  -28.4130  -12.8760   19.2070 C   0  0  0  0  0  3  0  0  0  0  0  0
  -29.5870  -12.6560   20.1790 C   0  0  0  0  0  2  0  0  0  0  0  0
  -30.8320  -12.8140   19.4190 N   0  0  0  0  0  0  0  0  0  0  0  0
  -32.5970  -13.8620   18.5250 O   0  0  0  0  0  0  0  0  0  0  0  0
  -26.3580  -13.8710   20.3990 C   0  0  0  0  0  0  0  0  0  0  0  0
  -25.2190  -13.2890   20.8900 C   0  0  0  0  0  0  0  0  0  0  0  0
  -25.3590  -11.8880   20.6470 C   0  0  0  0  0  0  0  0  0  0  0  0
  -27.1280  -12.8310   19.8970 N   0  0  0  0  0  0  0  0  0  0  0  0
  -26.5360  -11.6270   20.1000 N   0  0  0  0  0  0  0  0  0  0  0  0
  -24.4140  -10.7850   20.8540 C   0  0  0  0  0  0  0  0  0  0  0  0
  -24.7790   -9.6230   21.5680 C   0  0  0  0  0  3  0  0  0  0  0  0
  -23.8440   -8.5820   21.7660 C   0  0  0  0  0  3  0  0  0  0  0  0
  -22.5310   -8.7000   21.2500 C   0  0  0  0  0  0  0  0  0  0  0  0
  -22.1810   -9.8490   20.5200 C   0  0  0  0  0  3  0  0  0  0  0  0
  -23.1130  -10.8810   20.3190 C   0  0  0  0  0  3  0  0  0  0  0  0
  -21.5660   -7.7280   21.3710 O   0  0  0  0  0  0  0  0  0  0  0  0
  -21.5590   -6.8480   22.4230 C   0  0  0  0  0  0  0  0  0  0  0  0
  -21.5050   -7.2880   23.7640 C   0  0  0  0  0  3  0  0  0  0  0  0
  -21.4290   -6.3470   24.8100 C   0  0  0  0  0  3  0  0  0  0  0  0
  -21.4030   -4.9690   24.5210 C   0  0  0  0  0  0  0  0  0  0  0  0
  -21.4490   -4.5300   23.1860 C   0  0  0  0  0  3  0  0  0  0  0  0
  -21.5270   -5.4660   22.1400 C   0  0  0  0  0  0  0  0  0  0  0  0
  -21.5500   -5.0380   20.8560 F   0  0  0  0  0  0  0  0  0  0  0  0
  -21.3240   -4.0660   25.5260 F   0  0  0  0  0  0  0  0  0  0  0  0
  -24.0290  -13.9970   21.4660 C   0  0  0  0  0  0  0  0  0  0  0  0
  -23.3640  -13.3790   22.4370 N   0  0  0  0  0  0  0  0  0  0  0  0
  -23.7110  -15.1250   21.0920 O   0  0  0  0  0  0  0  0  0  0  0  0
  -23.6390  -12.4630   22.7530 H   0  0  0  0  0  0  0  0  0  0  0  0
  -22.5690  -13.8250   22.8720 H   0  0  0  0  0  0  0  0  0  0  0  0
  -26.7950  -15.1890   20.3160 N   0  0  0  0  0  0  0  0  0  0  0  0
  -26.2380  -15.9640   20.6520 H   0  0  0  0  0  0  0  0  0  0  0  0
  -27.6630  -15.4790   19.8840 H   0  0  0  0  0  0  0  0  0  0  0  0
  -31.7490  -19.3250   22.8830 C   0  0  0  0  0  2  0  0  0  0  0  0
  -33.1180  -19.7290   22.2680 C   0  0  0  0  0  2  0  0  0  0  0  0
  -34.6770  -19.9080   20.2560 C   0  0  0  0  0  1  0  0  0  0  0  0
  -33.3400  -19.3710   20.7870 C   0  0  0  0  0  2  0  0  0  0  0  0
  1  3  1  0
  2  1  2  0
  2  4  1  0
  3 56  1  0
  3  6  2  0
  4  5  2  0
  5  6  1  0
  5  7  1  0
  6 97  1  0
  9  4  1  0
  9  8  1  0
 10  9  1  0
 10 11  1  0
 12 10  1  0
 13 14  1  0
 13 10  1  0
 15 17  1  0
 15 14  1  0
 16 27  2  0
 17 22  1  0
 18 28  1  0
 18 26  1  0
 19 25  1  0
 19 21  1  0
 20 26  1  0
 21 20  1  0
 22 21  2  0
 23 24  1  0
 23 17  2  0
 24 19  2  0
 25 18  1  0
 26 16  1  0
 28 30  2  0
 29 28  1  0
 31 29  1  0
 32 37  1  0
 33 29  1  0
 34 33  1  0
 35 36  1  0
 35 34  1  0
 36 32  1  0
 37 33  1  0
 37 38  2  0
 39 38  1  0
 40 39  2  0
 41 32  2  0
 41 40  1  0
 42 16  1  0
 42 43  1  0
 42 47  1  0
 43 46  1  1
 43 44  1  0
 45 43  1  0
 47 50  1  0
 48 47  1  0
 48 52  1  0
 49 48  2  0
 52 51  1  0
 52 54  1  0
 54 55  1  0
 54 53  1  0
 57 56  1  0
 60 58  1  6
 60 57  1  0
 60 59  1  0
 61 67  1  0
 61 60  1  0
 62 67  1  0
 63 64  1  0
 63 62  1  0
 65 64  1  0
 65 72  1  0
 65 66  1  0
 67 66  1  0
 68 61  2  0
 69 70  2  0
 70 89  1  0
 71 74  1  0
 71 70  1  0
 72 73  1  0
 72 69  1  0
 73 71  2  0
 74 75  1  0
 75 76  2  0
 77 80  1  0
 77 76  1  0
 78 77  2  0
 79 78  1  0
 79 74  2  0
 80 81  1  0
 81 82  1  0
 82 83  2  0
 84 83  1  0
 84 88  1  0
 85 84  2  0
 86 81  2  0
 86 85  1  0
 87 86  1  0
 89 90  1  0
 90 92  1  0
 90 93  1  0
 91 89  2  0
 94 69  1  0
 94 95  1  0
 96 94  1  0
 98 97  1  0
 99100  1  0
100 98  1  0
M  ISO  4  14 101  15 101  60 100  61 100
M  END
>  <TORSDO>  (50) 
F 26

>  <SCORE>  (50) 
-7.310

>  <name>  (50) 
50

>  <ligand_id>  (50) 
50

>  <original_smiles>  (50) 
[H]c1c([H])c([H])c2c(c1[H])C([H])([H])C([H])([H])C([H])([H])C2([H])N([H])C(=O)C1([H])N(C(=O)C([H])(N([H])C(=O)C([H])(N([H])C([H])([H])[H])C([H])([H])[H])C(C([H])([H])[H])(C([H])([H])[H])C([H])([H])[H])C([H])([H])c2c([H])c(OC([H])([H])C([H])([H])[N+]([H])([H])C([H])(c3c([H])c([H])c(C([H])([H])C([H])([H])C(C(=O)N4C([H])([H])C([H])([H])C([H])([H])C([H])(n5nc(-c6c([H])c([H])c(Oc7c([H])c([H])c(F)c([H])c7F)c([H])c6[H])c(C(=O)N([H])[H])c5N([H])[H])C4([H])[H])(C([H])([H])[H])C([H])([H])[H])c(C([H])([H])C([H])([H])C([H])([H])C([H])([H])[H])c3C([H])([H])[H])C([H])([H])[H])c([H])c([H])c2C1([H])[H]

>  <smiles>  (50) 
[H]c1c([H])c([H])c2c(c1[H])C([H])([H])C([H])([H])C([H])([H])C2([H])N([H])C(=O)C1([H])N(C(=O)C([H])(N([H])C(=O)C([H])(N([H])C([H])([H])[H])C([H])([H])[H])C(C([H])([H])[H])(C([H])([H])[H])C([H])([H])[H])C([H])([H])c2c([H])c(OC([H])([H])C([H])([H])[N+]([H])([H])C([H])(c3c([H])c([H])c(C([H])([H])C([H])([H])C(C(=O)N4C([H])([H])C([H])([H])C([H])([H])C([H])(n5nc(-c6c([H])c([H])c(Oc7c([H])c([H])c(F)c([H])c7F)c([H])c6[H])c(C(=O)N([H])[H])c5N([H])[H])C4([H])[H])(C([H])([H])[H])C([H])([H])[H])c(C([H])([H])C([H])([H])C([H])([H])C([H])([H])[H])c3C([H])([H])[H])C([H])([H])[H])c([H])c([H])c2C1([H])[H]

$$$$
51:0:0
     RDKit          3D

 93101  0  0  1  0  0  0  0  0999 V2000
  -26.1100  -21.3650   20.4320 C   0  0  0  0  0  3  0  0  0  0  0  0
  -25.5790  -22.6370   20.6650 C   0  0  0  0  0  3  0  0  0  0  0  0
  -27.2520  -21.1920   19.6220 C   0  0  0  0  0  0  0  0  0  0  0  0
  -26.1770  -23.7770   20.0920 C   0  0  0  0  0  0  0  0  0  0  0  0
  -27.9030  -22.3390   19.0730 C   0  0  0  0  0  0  0  0  0  0  0  0
  -27.3860  -23.6480   19.3470 C   0  0  0  0  0  0  0  0  0  0  0  0
  -25.4220  -25.1000   20.2380 C   0  0  0  0  0  1  0  0  0  0  0  0
  -29.1220  -22.2020   18.1500 C   0  0  0  0  0  1  0  0  0  0  0  0
  -27.5870  -19.7590   19.3160 C   0  0  0  0  0  0  0  0  0  0  0  0
  -26.7070  -18.9370   19.0580 O   0  0  0  0  0  0  0  0  0  0  0  0
  -29.0430  -19.2690   19.3530 C   0  0  0  0  0  2  0  0  0  0  0  0
  -29.3620  -18.2330   20.4490 C   0  0  0  0  0  2  0  0  0  0  0  0
  -30.5500  -17.3640   20.0130 C   0  0  0  0  0  2  0  0  0  0  0  0
  -31.0220  -16.3240   21.0470 C   0  0  0  0  0  2  0  0  0  0  0  0
  -31.5450  -15.0810   20.3140 C   0  0  0  0  0  0  0  0  0  0  0  0
  -31.1950  -12.8320   19.3490 C   0  0  0  0  0  2  0  0  0  0  0  0
  -30.2780  -12.9270   18.1120 C   0  0  0  0  0  2  0  0  0  0  0  0
  -28.7980  -12.8240   18.5290 C   0  0  0  0  0  2  0  0  0  0  0  0
  -28.4420  -13.7960   19.6840 C   0  0  0  0  0  3  0  0  0  0  0  0
  -29.4800  -13.7060   20.8290 C   0  0  0  0  0  2  0  0  0  0  0  0
  -30.8260  -13.9190   20.2660 N   0  0  0  0  0  0  0  0  0  0  0  0
  -32.6100  -15.2090   19.7020 O   0  0  0  0  0  0  0  0  0  0  0  0
  -26.0920  -14.4860   20.4740 C   0  0  0  0  0  0  0  0  0  0  0  0
  -24.9900  -13.7610   20.8260 C   0  0  0  0  0  0  0  0  0  0  0  0
  -25.3740  -12.3890   20.7120 C   0  0  0  0  0  0  0  0  0  0  0  0
  -27.0820  -13.5690   20.1730 N   0  0  0  0  0  0  0  0  0  0  0  0
  -26.6520  -12.2980   20.3670 N   0  0  0  0  0  0  0  0  0  0  0  0
  -24.5800  -11.1610   20.8430 C   0  0  0  0  0  0  0  0  0  0  0  0
  -24.9080  -10.1700   21.7960 C   0  0  0  0  0  3  0  0  0  0  0  0
  -24.1210   -9.0040   21.9160 C   0  0  0  0  0  3  0  0  0  0  0  0
  -22.9940   -8.8200   21.0820 C   0  0  0  0  0  0  0  0  0  0  0  0
  -22.6850   -9.7990   20.1210 C   0  0  0  0  0  3  0  0  0  0  0  0
  -23.4700  -10.9570   19.9980 C   0  0  0  0  0  3  0  0  0  0  0  0
  -22.1850   -7.7110   21.1180 O   0  0  0  0  0  0  0  0  0  0  0  0
  -21.9100   -7.0540   22.2930 C   0  0  0  0  0  0  0  0  0  0  0  0
  -21.2760   -7.7020   23.3760 C   0  0  0  0  0  3  0  0  0  0  0  0
  -20.9500   -6.9760   24.5380 C   0  0  0  0  0  3  0  0  0  0  0  0
  -21.2440   -5.6020   24.6140 C   0  0  0  0  0  0  0  0  0  0  0  0
  -21.8670   -4.9520   23.5340 C   0  0  0  0  0  3  0  0  0  0  0  0
  -22.1970   -5.6770   22.3760 C   0  0  0  0  0  0  0  0  0  0  0  0
  -22.7800   -5.0430   21.3300 F   0  0  0  0  0  0  0  0  0  0  0  0
  -20.9210   -4.9030   25.7260 F   0  0  0  0  0  0  0  0  0  0  0  0
  -23.6290  -14.2980   21.1710 C   0  0  0  0  0  0  0  0  0  0  0  0
  -22.8820  -13.5960   22.0130 N   0  0  0  0  0  0  0  0  0  0  0  0
  -23.2390  -15.3780   20.7250 O   0  0  0  0  0  0  0  0  0  0  0  0
  -23.2140  -12.7250   22.4060 H   0  0  0  0  0  0  0  0  0  0  0  0
  -21.9690  -13.9360   22.2820 H   0  0  0  0  0  0  0  0  0  0  0  0
  -26.3500  -15.8470   20.3760 N   0  0  0  0  0  0  0  0  0  0  0  0
  -25.6710  -16.5730   20.5750 H   0  0  0  0  0  0  0  0  0  0  0  0
  -27.2510  -16.2300   20.1250 H   0  0  0  0  0  0  0  0  0  0  0  0
  -28.0600  -24.9160   18.7790 C   0  0  0  0  0  2  0  0  0  0  0  0
  -28.6480  -25.8990   19.8650 C   0  0  0  0  0  2  0  0  0  0  0  0
  -28.9250  -27.3030   19.5490 O   0  0  0  0  0  0  0  0  0  0  0  0
  -24.7030  -31.7480   23.2940 C   0  0  0  0  0  0  0  0  0  0  0  0
  -27.7900  -28.0810   19.6040 C   0  0  0  0  0  0  0  0  0  0  0  0
  -23.6700  -30.4850   21.4490 C   0  0  0  0  0  3  0  0  0  0  0  0
  -25.2830  -29.3590   19.8460 C   0  0  0  0  0  0  0  0  0  0  0  0
  -26.1690  -31.0760   21.4050 C   0  0  0  0  0  2  0  0  0  0  0  0
  -26.3820  -29.8420   20.5640 C   0  0  0  0  0  0  0  0  0  0  0  0
  -27.6420  -29.1900   20.4740 C   0  0  0  0  0  3  0  0  0  0  0  0
  -26.6930  -27.7300   18.7970 C   0  0  0  0  0  3  0  0  0  0  0  0
  -25.4290  -28.2900   18.9670 C   0  0  0  0  0  3  0  0  0  0  0  0
  -23.9580  -30.0690   19.9920 C   0  0  0  0  0  2  0  0  0  0  0  0
  -24.8610  -31.1120   22.1050 N   0  0  0  0  0  0  0  0  0  0  0  0
  -23.5900  -31.8250   23.8340 O   0  0  0  0  0  0  0  0  0  0  0  0
  -23.1390  -29.2580   22.2230 C   0  0  0  0  0  0  0  0  0  0  0  0
  -21.8670  -28.9050   21.9830 N   0  0  0  0  0  0  0  0  0  0  0  0
  -23.8690  -28.6310   22.9940 O   0  0  0  0  0  0  0  0  0  0  0  0
  -21.3710  -29.4020   21.2580 H   0  0  0  0  0  0  0  0  0  0  0  0
  -18.6220  -27.3160   22.2710 C   0  0  0  0  0  0  0  0  0  0  0  0
  -21.1540  -27.7870   22.5950 C   0  0  0  0  0  3  0  0  0  0  0  0
  -21.4200  -26.4840   21.8030 C   0  0  0  0  0  2  0  0  0  0  0  0
  -20.3260  -26.1720   20.7780 C   0  0  0  0  0  2  0  0  0  0  0  0
  -18.9330  -26.0930   21.4290 C   0  0  0  0  0  2  0  0  0  0  0  0
  -19.6660  -28.1140   22.8060 C   0  0  0  0  0  0  0  0  0  0  0  0
  -19.3310  -29.2690   23.5370 C   0  0  0  0  0  3  0  0  0  0  0  0
  -17.9890  -29.6420   23.7290 C   0  0  0  0  0  3  0  0  0  0  0  0
  -16.9590  -28.8360   23.2160 C   0  0  0  0  0  3  0  0  0  0  0  0
  -17.2740  -27.6610   22.5030 C   0  0  0  0  0  3  0  0  0  0  0  0
  -25.9090  -32.4120   24.0230 C   0  0  0  0  0  3  0  0  0  0  0  0
  -25.5090  -33.7920   24.3390 N   0  0  0  0  0  0  0  0  0  0  0  0
  -25.8460  -34.8640   23.6110 C   0  0  0  0  0  0  0  0  0  0  0  0
  -26.5940  -34.8040   22.6320 O   0  0  0  0  0  0  0  0  0  0  0  0
  -24.8320  -33.9070   25.0770 H   0  0  0  0  0  0  0  0  0  0  0  0
  -24.0530  -36.5690   23.1520 C   0  0  0  0  0  1  0  0  0  0  0  0
  -25.2590  -36.2240   24.0410 C   0  0  0  0  0  3  0  0  0  0  0  0
  -27.2820  -37.2090   25.0230 C   0  0  0  0  0  1  0  0  0  0  0  0
  -26.2420  -37.3280   24.0000 N   0  0  0  0  0  0  0  0  0  0  0  0
  -25.7810  -38.2250   24.1120 H   0  0  0  0  0  0  0  0  0  0  0  0
  -26.3490  -31.6390   25.3260 C   0  0  1  0  0  0  0  0  0  0  0  0
  -25.1850  -31.3320   26.2960 C   0  0  0  0  0  1  0  0  0  0  0  0
  -27.0240  -30.2930   24.9710 C   0  0  0  0  0  1  0  0  0  0  0  0
  -27.4030  -32.4740   26.0860 C   0  0  0  0  0  1  0  0  0  0  0  0
  1  2  1  0
  3  1  2  0
  4  7  1  0
  4  2  2  0
  5  6  2  0
  5  3  1  0
  6  4  1  0
  8  5  1  0
  9 11  1  0
  9  3  1  0
 10  9  2  0
 11 12  1  0
 13 12  1  0
 13 14  1  0
 15 14  1  0
 16 21  1  0
 17 18  1  0
 17 16  1  0
 19 18  1  0
 19 26  1  0
 19 20  1  0
 21 15  1  0
 21 20  1  0
 22 15  2  0
 23 24  2  0
 24 43  1  0
 25 24  1  0
 25 28  1  0
 26 27  1  0
 26 23  1  0
 27 25  2  0
 28 29  1  0
 29 30  2  0
 31 34  1  0
 31 30  1  0
 32 31  2  0
 33 32  1  0
 33 28  2  0
 34 35  1  0
 35 40  2  0
 35 36  1  0
 36 37  2  0
 37 38  1  0
 38 42  1  0
 39 38  2  0
 40 39  1  0
 41 40  1  0
 43 44  1  0
 44 47  1  0
 44 46  1  0
 45 43  2  0
 48 23  1  0
 48 49  1  0
 50 48  1  0
 51  6  1  0
 51 52  1  0
 53 55  1  0
 53 52  1  0
 54 65  2  0
 55 60  1  0
 56 64  1  0
 56 66  1  0
 57 63  1  0
 57 59  1  0
 58 64  1  0
 59 58  1  0
 60 59  2  0
 61 62  1  0
 61 55  2  0
 62 57  2  0
 63 56  1  0
 64 54  1  0
 66 68  2  0
 67 66  1  0
 69 67  1  0
 70 79  2  0
 70 75  1  0
 71 67  1  0
 71 75  1  0
 72 71  1  0
 73 74  1  0
 73 72  1  0
 74 70  1  0
 75 76  2  0
 76 77  1  0
 78 77  2  0
 79 78  1  0
 80 54  1  0
 80 81  1  0
 80 90  1  0
 81 84  1  0
 82 86  1  0
 82 81  1  0
 83 82  2  0
 86 85  1  0
 88 86  1  0
 88 89  1  0
 88 87  1  0
 90 93  1  1
 90 91  1  0
 92 90  1  0
M  ISO  4  14 100  15 100  52 101  53 101
M  END
>  <TORSDO>  (51) 
F 23

>  <SCORE>  (51) 
-8.293

>  <name>  (51) 
51

>  <ligand_id>  (51) 
51

>  <original_smiles>  (51) 
[H]c1c([H])c([H])c2c(c1[H])C([H])([H])C([H])([H])C([H])([H])C2([H])N([H])C(=O)C1([H])N(C(=O)C([H])(N([H])C(=O)C([H])(N([H])C([H])([H])[H])C([H])([H])[H])C(C([H])([H])[H])(C([H])([H])[H])C([H])([H])[H])C([H])([H])c2c([H])c(OC([H])([H])C([H])([H])c3c(C([H])([H])[H])c([H])c([H])c(C(=O)C([H])([H])C([H])([H])C([H])([H])C([H])([H])C(=O)N4C([H])([H])C([H])([H])C([H])([H])C([H])(n5nc(-c6c([H])c([H])c(Oc7c([H])c([H])c(F)c([H])c7F)c([H])c6[H])c(C(=O)N([H])[H])c5N([H])[H])C4([H])[H])c3C([H])([H])[H])c([H])c([H])c2C1([H])[H]

>  <smiles>  (51) 
[H]c1c([H])c([H])c2c(c1[H])C([H])([H])C([H])([H])C([H])([H])C2([H])N([H])C(=O)C1([H])N(C(=O)C([H])(N([H])C(=O)C([H])(N([H])C([H])([H])[H])C([H])([H])[H])C(C([H])([H])[H])(C([H])([H])[H])C([H])([H])[H])C([H])([H])c2c([H])c(OC([H])([H])C([H])([H])c3c(C([H])([H])[H])c([H])c([H])c(C(=O)C([H])([H])C([H])([H])C([H])([H])C([H])([H])C(=O)N4C([H])([H])C([H])([H])C([H])([H])C([H])(n5nc(-c6c([H])c([H])c(Oc7c([H])c([H])c(F)c([H])c7F)c([H])c6[H])c(C(=O)N([H])[H])c5N([H])[H])C4([H])[H])c3C([H])([H])[H])c([H])c([H])c2C1([H])[H]

$$$$
52:0:0
     RDKit          3D

102110  0  0  1  0  0  0  0  0999 V2000
  -29.1110  -16.6140   21.9390 C   0  0  0  0  0  3  0  0  0  0  0  0
  -30.2640  -17.0980   22.6050 C   0  0  0  0  0  3  0  0  0  0  0  0
  -29.1360  -16.5770   20.5210 C   0  0  0  0  0  0  0  0  0  0  0  0
  -30.4220  -16.5000   19.9480 C   0  0  0  0  0  0  0  0  0  0  0  0
  -31.2500  -17.7500   21.8230 C   0  0  0  0  0  0  0  0  0  0  0  0
  -31.1220  -17.6850   20.4100 C   0  0  0  0  0  0  0  0  0  0  0  0
  -32.2640  -18.6560   22.4990 C   0  0  0  0  0  1  0  0  0  0  0  0
  -31.1510  -15.1060   19.8120 C   0  0  0  0  0  0  0  0  0  0  0  0
  -30.9410  -12.7630   18.9490 C   0  0  0  0  0  2  0  0  0  0  0  0
  -29.9300  -12.7180   17.7780 C   0  0  0  0  0  2  0  0  0  0  0  0
  -28.4980  -12.4960   18.3020 C   0  0  0  0  0  2  0  0  0  0  0  0
  -28.1560  -13.4350   19.4860 C   0  0  0  0  0  3  0  0  0  0  0  0
  -29.2850  -13.4660   20.5370 C   0  0  0  0  0  2  0  0  0  0  0  0
  -30.5270  -13.8660   19.8520 N   0  0  0  0  0  0  0  0  0  0  0  0
  -32.3240  -15.1500   19.4310 O   0  0  0  0  0  0  0  0  0  0  0  0
  -25.8160  -13.9830   20.3990 C   0  0  0  0  0  0  0  0  0  0  0  0
  -24.7940  -13.2060   20.8430 C   0  0  0  0  0  0  0  0  0  0  0  0
  -25.2560  -11.8620   20.7250 C   0  0  0  0  0  0  0  0  0  0  0  0
  -26.8540  -13.1270   20.0670 N   0  0  0  0  0  0  0  0  0  0  0  0
  -26.5210  -11.8370   20.3230 N   0  0  0  0  0  0  0  0  0  0  0  0
  -24.5350  -10.5990   20.9080 C   0  0  0  0  0  0  0  0  0  0  0  0
  -24.9940   -9.6190   21.8160 C   0  0  0  0  0  3  0  0  0  0  0  0
  -24.2720   -8.4200   21.9910 C   0  0  0  0  0  3  0  0  0  0  0  0
  -23.0800   -8.1970   21.2630 C   0  0  0  0  0  0  0  0  0  0  0  0
  -22.6420   -9.1660   20.3420 C   0  0  0  0  0  3  0  0  0  0  0  0
  -23.3650  -10.3570   20.1620 C   0  0  0  0  0  3  0  0  0  0  0  0
  -22.3260   -7.0530   21.3580 O   0  0  0  0  0  0  0  0  0  0  0  0
  -22.1790   -6.3880   22.5490 C   0  0  0  0  0  0  0  0  0  0  0  0
  -21.6290   -7.0140   23.6890 C   0  0  0  0  0  3  0  0  0  0  0  0
  -21.4280   -6.2730   24.8700 C   0  0  0  0  0  3  0  0  0  0  0  0
  -21.7690   -4.9070   24.9100 C   0  0  0  0  0  0  0  0  0  0  0  0
  -22.3170   -4.2830   23.7770 C   0  0  0  0  0  3  0  0  0  0  0  0
  -22.5180   -5.0220   22.5970 C   0  0  0  0  0  0  0  0  0  0  0  0
  -23.0230   -4.4110   21.4970 F   0  0  0  0  0  0  0  0  0  0  0  0
  -21.5690   -4.1900   26.0400 F   0  0  0  0  0  0  0  0  0  0  0  0
  -23.4250  -13.6830   21.2300 C   0  0  0  0  0  0  0  0  0  0  0  0
  -22.7800  -12.9880   22.1560 N   0  0  0  0  0  0  0  0  0  0  0  0
  -22.9440  -14.7110   20.7500 O   0  0  0  0  0  0  0  0  0  0  0  0
  -23.1930  -12.1600   22.5640 H   0  0  0  0  0  0  0  0  0  0  0  0
  -21.8660  -13.2830   22.4660 H   0  0  0  0  0  0  0  0  0  0  0  0
  -25.9010  -15.3450   20.1900 N   0  0  0  0  0  0  0  0  0  0  0  0
  -24.9910  -15.7730   20.3400 H   0  0  0  0  0  0  0  0  0  0  0  0
  -26.1940  -15.5060   19.2360 H   0  0  0  0  0  0  0  0  0  0  0  0
  -28.0670  -17.3570   19.8130 C   0  0  0  0  0  0  0  0  0  0  0  0
  -27.0270  -17.6990   20.3920 O   0  0  0  0  0  0  0  0  0  0  0  0
  -28.2650  -17.8300   18.3310 C   0  0  0  0  0  0  0  0  0  0  0  0
  -29.0950  -17.3020   17.5810 O   0  0  0  0  0  0  0  0  0  0  0  0
  -27.3480  -18.9540   17.8230 C   0  0  0  0  0  2  0  0  0  0  0  0
  -28.0420  -20.0640   16.9910 C   0  0  0  0  0  2  0  0  0  0  0  0
  -28.0170  -19.8720   15.4580 C   0  0  0  0  0  2  0  0  0  0  0  0
  -29.0880  -18.9290   14.8850 C   0  0  0  0  0  2  0  0  0  0  0  0
  -31.5490  -18.7050   14.2120 C   0  0  0  0  0  1  0  0  0  0  0  0
  -30.5150  -19.4860   15.0300 C   0  0  0  0  0  2  0  0  0  0  0  0
  -31.1810  -19.0690   19.6320 C   0  0  0  0  0  3  0  0  0  0  0  0
  -30.1990  -20.2810   20.0710 C   0  0  0  0  0  3  0  0  0  0  0  0
  -30.4450  -21.7620   19.5450 C   0  0  0  0  0  0  0  0  0  0  0  0
  -29.5480  -22.7830   19.7900 N   0  0  0  0  0  0  0  0  0  0  0  0
  -31.4900  -21.9930   18.9330 O   0  0  0  0  0  0  0  0  0  0  0  0
  -28.7130  -22.5260   20.3010 H   0  0  0  0  0  0  0  0  0  0  0  0
  -29.7050  -24.2780   19.5410 C   0  0  0  0  0  3  0  0  0  0  0  0
  -28.3930  -25.2050   19.4950 C   0  0  0  0  0  3  0  0  0  0  0  0
  -28.5060  -26.6890   19.6300 O   0  0  0  0  0  0  0  0  0  0  0  0
  -24.5490  -31.6630   23.1270 C   0  0  0  0  0  0  0  0  0  0  0  0
  -27.3390  -27.4860   19.6730 C   0  0  0  0  0  0  0  0  0  0  0  0
  -23.4020  -30.3890   21.3530 C   0  0  0  0  0  3  0  0  0  0  0  0
  -24.9090  -29.0160   19.8040 C   0  0  0  0  0  0  0  0  0  0  0  0
  -25.9300  -30.7990   21.2210 C   0  0  0  0  0  2  0  0  0  0  0  0
  -26.0600  -29.4890   20.4450 C   0  0  0  0  0  0  0  0  0  0  0  0
  -27.2750  -28.7390   20.3680 C   0  0  0  0  0  3  0  0  0  0  0  0
  -26.1550  -27.0670   19.0200 C   0  0  0  0  0  3  0  0  0  0  0  0
  -24.9590  -27.8110   19.0840 C   0  0  0  0  0  3  0  0  0  0  0  0
  -23.6440  -29.8440   19.9210 C   0  0  0  0  0  2  0  0  0  0  0  0
  -24.6460  -30.9630   21.9590 N   0  0  0  0  0  0  0  0  0  0  0  0
  -23.4540  -31.8600   23.6750 O   0  0  0  0  0  0  0  0  0  0  0  0
  -22.7580  -29.2740   22.2100 C   0  0  0  0  0  0  0  0  0  0  0  0
  -21.4270  -29.1180   22.0990 N   0  0  0  0  0  0  0  0  0  0  0  0
  -23.4530  -28.5540   22.9290 O   0  0  0  0  0  0  0  0  0  0  0  0
  -20.9240  -29.7640   21.5070 H   0  0  0  0  0  0  0  0  0  0  0  0
  -18.0500  -27.9090   22.5930 C   0  0  0  0  0  0  0  0  0  0  0  0
  -20.6240  -28.0900   22.7620 C   0  0  0  0  0  3  0  0  0  0  0  0
  -20.6710  -26.7560   21.9790 C   0  0  0  0  0  2  0  0  0  0  0  0
  -19.5030  -26.5780   21.0040 C   0  0  0  0  0  2  0  0  0  0  0  0
  -18.1660  -26.6550   21.7420 C   0  0  0  0  0  2  0  0  0  0  0  0
  -19.2050  -28.5890   23.0620 C   0  0  0  0  0  0  0  0  0  0  0  0
  -19.0430  -29.7600   23.8320 C   0  0  0  0  0  3  0  0  0  0  0  0
  -17.7590  -30.2520   24.1340 C   0  0  0  0  0  3  0  0  0  0  0  0
  -16.6190  -29.5730   23.6730 C   0  0  0  0  0  3  0  0  0  0  0  0
  -16.7660  -28.4000   22.9100 C   0  0  0  0  0  3  0  0  0  0  0  0
  -25.8100  -32.2680   23.8190 C   0  0  0  0  0  3  0  0  0  0  0  0
  -25.4730  -33.6330   24.2460 N   0  0  0  0  0  0  0  0  0  0  0  0
  -25.8250  -34.7440   23.5850 C   0  0  0  0  0  0  0  0  0  0  0  0
  -26.5390  -34.7280   22.5800 O   0  0  0  0  0  0  0  0  0  0  0  0
  -24.8450  -33.7180   25.0310 H   0  0  0  0  0  0  0  0  0  0  0  0
  -24.1000  -36.5500   23.2970 C   0  0  0  0  0  1  0  0  0  0  0  0
  -25.3050  -36.0870   24.1300 C   0  0  0  0  0  3  0  0  0  0  0  0
  -27.3900  -36.9150   25.1310 C   0  0  0  0  0  1  0  0  0  0  0  0
  -26.3320  -37.1520   24.1530 N   0  0  0  0  0  0  0  0  0  0  0  0
  -25.9090  -38.0530   24.3540 H   0  0  0  0  0  0  0  0  0  0  0  0
  -26.3130  -31.4130   25.0460 C   0  0  1  0  0  0  0  0  0  0  0  0
  -25.1950  -31.0530   26.0540 C   0  0  0  0  0  1  0  0  0  0  0  0
  -26.9600  -30.0920   24.5670 C   0  0  0  0  0  1  0  0  0  0  0  0
  -27.4110  -32.1910   25.8090 C   0  0  0  0  0  1  0  0  0  0  0  0
  1  2  1  0
  3  1  2  0
  4  6  2  3
  4  3  1  0
  5  7  1  0
  5  2  2  0
  6  5  1  0
  8 14  1  0
  8  4  1  0
  9 14  1  0
 10 11  1  0
 10  9  1  0
 12 11  1  0
 12 19  1  0
 12 13  1  0
 14 13  1  0
 15  8  2  0
 16 17  2  0
 17 36  1  0
 18 17  1  0
 18 21  1  0
 19 20  1  0
 19 16  1  0
 20 18  2  0
 21 22  1  0
 22 23  2  0
 24 27  1  0
 24 23  1  0
 25 24  2  0
 26 25  1  0
 26 21  2  0
 27 28  1  0
 28 33  2  0
 28 29  1  0
 29 30  2  0
 30 31  1  0
 31 35  1  0
 32 31  2  0
 33 32  1  0
 34 33  1  0
 36 37  1  0
 37 40  1  0
 37 39  1  0
 38 36  2  0
 41 42  1  0
 41 16  1  0
 43 41  1  0
 44 45  2  0
 44  3  1  0
 46 44  1  0
 47 46  2  0
 48 46  1  0
 49 48  1  0
 50 49  1  0
 51 53  1  0
 51 50  1  0
 52 53  1  0
 54 55  2  0
 54  6  1  0
 56 57  1  0
 56 55  1  0
 57 59  1  0
 58 56  2  0
 60 57  1  0
 61 60  2  0
 61 62  1  0
 62 64  1  0
 63 74  2  0
 64 69  1  0
 65 73  1  0
 65 75  1  0
 66 72  1  0
 66 68  1  0
 67 73  1  0
 68 67  1  0
 69 68  2  0
 70 71  1  0
 70 64  2  0
 71 66  2  0
 72 65  1  0
 73 63  1  0
 75 77  2  0
 76 75  1  0
 78 76  1  0
 79 88  2  0
 79 84  1  0
 80 76  1  0
 80 84  1  0
 81 80  1  0
 82 83  1  0
 82 81  1  0
 83 79  1  0
 84 85  2  0
 85 86  1  0
 87 86  2  0
 88 87  1  0
 89 63  1  0
 89 90  1  0
 89 99  1  0
 90 93  1  0
 91 95  1  0
 91 90  1  0
 92 91  2  0
 95 94  1  0
 95 97  1  0
 97 98  1  0
 97 96  1  0
 99102  1  1
 99100  1  0
101 99  1  0
M  ISO  4   4 100   8 100  61 101  62 101
M  END
>  <TORSDO>  (52) 
F 28

>  <SCORE>  (52) 
-8.690

>  <name>  (52) 
52

>  <ligand_id>  (52) 
52

>  <original_smiles>  (52) 
[H]c1c([H])c([H])c2c(c1[H])C([H])([H])C([H])([H])C([H])([H])C2([H])N([H])C(=O)C1([H])N(C(=O)C([H])(N([H])C(=O)C([H])(N([H])C([H])([H])[H])C([H])([H])[H])C(C([H])([H])[H])(C([H])([H])[H])C([H])([H])[H])C([H])([H])c2c([H])c(OC([H])([H])C([H])([H])N([H])C(=O)C([H])([H])C([H])([H])c3c(C(=O)N4C([H])([H])C([H])([H])C([H])([H])C([H])(n5nc(-c6c([H])c([H])c(Oc7c([H])c([H])c(F)c([H])c7F)c([H])c6[H])c(C(=O)N([H])[H])c5N([H])[H])C4([H])[H])c(C(=O)C(=O)C([H])([H])C([H])([H])C([H])([H])C([H])([H])C([H])([H])C([H])([H])[H])c([H])c([H])c3C([H])([H])[H])c([H])c([H])c2C1([H])[H]

>  <smiles>  (52) 
[H]c1c([H])c([H])c2c(c1[H])C([H])([H])C([H])([H])C([H])([H])C2([H])N([H])C(=O)C1([H])N(C(=O)C([H])(N([H])C(=O)C([H])(N([H])C([H])([H])[H])C([H])([H])[H])C(C([H])([H])[H])(C([H])([H])[H])C([H])([H])[H])C([H])([H])c2c([H])c(OC([H])([H])C([H])([H])N([H])C(=O)C([H])([H])C([H])([H])c3c(C(=O)N4C([H])([H])C([H])([H])C([H])([H])C([H])(n5nc(-c6c([H])c([H])c(Oc7c([H])c([H])c(F)c([H])c7F)c([H])c6[H])c(C(=O)N([H])[H])c5N([H])[H])C4([H])[H])c(C(=O)C(=O)C([H])([H])C([H])([H])C([H])([H])C([H])([H])C([H])([H])C([H])([H])[H])c([H])c([H])c3C([H])([H])[H])c([H])c([H])c2C1([H])[H]

$$$$
53:0:0
     RDKit          3D

 95103  0  0  1  0  0  0  0  0999 V2000
  -29.4460  -20.8400   20.7990 C   0  0  0  0  0  2  0  0  0  0  0  0
  -29.4290  -22.0880   19.8760 C   0  0  0  0  0  0  0  0  0  0  0  0
  -29.0540  -23.2760   20.3960 N   0  0  0  0  0  0  0  0  0  0  0  0
  -29.7670  -21.9830   18.6950 O   0  0  0  0  0  0  0  0  0  0  0  0
  -28.7810  -23.2910   21.3700 H   0  0  0  0  0  0  0  0  0  0  0  0
  -29.0670  -24.5780   19.6900 C   0  0  0  0  0  2  0  0  0  0  0  0
  -28.1410  -25.6460   20.3410 C   0  0  0  0  0  2  0  0  0  0  0  0
  -28.2350  -26.9580   19.7330 O   0  0  0  0  0  0  0  0  0  0  0  0
  -24.6090  -31.9750   23.2960 C   0  0  0  0  0  0  0  0  0  0  0  0
  -27.0930  -27.7340   19.8160 C   0  0  0  0  0  0  0  0  0  0  0  0
  -23.3330  -30.7140   21.5930 C   0  0  0  0  0  3  0  0  0  0  0  0
  -24.7220  -29.2750   20.0070 C   0  0  0  0  0  0  0  0  0  0  0  0
  -25.8560  -31.0600   21.3400 C   0  0  0  0  0  2  0  0  0  0  0  0
  -25.9070  -29.7390   20.5940 C   0  0  0  0  0  0  0  0  0  0  0  0
  -27.0980  -28.9800   20.4900 C   0  0  0  0  0  3  0  0  0  0  0  0
  -25.8950  -27.2970   19.2120 C   0  0  0  0  0  3  0  0  0  0  0  0
  -24.7130  -28.0540   19.3100 C   0  0  0  0  0  3  0  0  0  0  0  0
  -23.4900  -30.1400   20.1590 C   0  0  0  0  0  2  0  0  0  0  0  0
  -24.6200  -31.2600   22.1350 N   0  0  0  0  0  0  0  0  0  0  0  0
  -23.5480  -32.2140   23.8910 O   0  0  0  0  0  0  0  0  0  0  0  0
  -22.7010  -29.6290   22.4950 C   0  0  0  0  0  0  0  0  0  0  0  0
  -21.3780  -29.4320   22.3590 N   0  0  0  0  0  0  0  0  0  0  0  0
  -23.3960  -28.9690   23.2720 O   0  0  0  0  0  0  0  0  0  0  0  0
  -20.8770  -30.0200   21.7070 H   0  0  0  0  0  0  0  0  0  0  0  0
  -18.0380  -28.1030   22.7340 C   0  0  0  0  0  0  0  0  0  0  0  0
  -20.5790  -28.4390   23.0750 C   0  0  0  0  0  3  0  0  0  0  0  0
  -20.7440  -27.0350   22.4480 C   0  0  0  0  0  2  0  0  0  0  0  0
  -19.6770  -26.7130   21.3960 C   0  0  0  0  0  2  0  0  0  0  0  0
  -18.2770  -26.7870   22.0140 C   0  0  0  0  0  2  0  0  0  0  0  0
  -19.1200  -28.8850   23.2180 C   0  0  0  0  0  0  0  0  0  0  0  0
  -18.8430  -30.1180   23.8500 C   0  0  0  0  0  3  0  0  0  0  0  0
  -17.5190  -30.5680   24.0030 C   0  0  0  0  0  3  0  0  0  0  0  0
  -16.4520  -29.7820   23.5340 C   0  0  0  0  0  3  0  0  0  0  0  0
  -16.7110  -28.5500   22.9070 C   0  0  0  0  0  3  0  0  0  0  0  0
  -25.9210  -32.5440   23.9190 C   0  0  0  0  0  3  0  0  0  0  0  0
  -25.6640  -33.9400   24.2930 N   0  0  0  0  0  0  0  0  0  0  0  0
  -26.0130  -35.0010   23.5540 C   0  0  0  0  0  0  0  0  0  0  0  0
  -26.6560  -34.9050   22.5050 O   0  0  0  0  0  0  0  0  0  0  0  0
  -25.0920  -34.0910   25.1110 H   0  0  0  0  0  0  0  0  0  0  0  0
  -24.3220  -36.8470   23.2960 C   0  0  0  0  0  1  0  0  0  0  0  0
  -25.5790  -36.3920   24.0580 C   0  0  0  0  0  3  0  0  0  0  0  0
  -27.7600  -37.2020   24.8400 C   0  0  0  0  0  1  0  0  0  0  0  0
  -26.6360  -37.4180   23.9340 N   0  0  0  0  0  0  0  0  0  0  0  0
  -26.2600  -38.3470   24.1110 H   0  0  0  0  0  0  0  0  0  0  0  0
  -26.4290  -31.7170   25.1650 C   0  0  1  0  0  0  0  0  0  0  0  0
  -25.3290  -31.4400   26.2170 C   0  0  0  0  0  1  0  0  0  0  0  0
  -27.0080  -30.3550   24.7170 C   0  0  0  0  0  1  0  0  0  0  0  0
  -27.5790  -32.4780   25.8650 C   0  0  0  0  0  1  0  0  0  0  0  0
  -30.3610  -19.6640   20.3040 C   0  0  0  0  0  2  0  0  0  0  0  0
  -31.3040  -16.8100   23.5090 C   0  0  0  0  0  3  0  0  0  0  0  0
  -31.5260  -18.1790   23.6630 C   0  0  0  0  0  3  0  0  0  0  0  0
  -30.9410  -16.3090   22.2540 C   0  0  0  0  0  3  0  0  0  0  0  0
  -31.2980  -19.0610   22.5940 C   0  0  0  0  0  0  0  0  0  0  0  0
  -30.7490  -17.1460   21.1220 C   0  0  0  0  0  0  0  0  0  0  0  0
  -30.7930  -18.5860   21.3410 C   0  0  0  0  0  0  0  0  0  0  0  0
  -31.6580  -20.5180   22.8590 C   0  0  0  0  0  1  0  0  0  0  0  0
  -31.2070  -17.0510   18.5410 C   0  0  0  0  0  1  0  0  0  0  0  0
  -28.9700  -16.5920   19.4740 C   0  0  0  0  0  1  0  0  0  0  0  0
  -30.4680  -16.4050   19.7630 C   0  0  2  0  0  0  0  0  0  0  0  0
  -31.0270  -14.8950   19.7420 C   0  0  0  0  0  0  0  0  0  0  0  0
  -30.6430  -12.6050   18.9090 C   0  0  0  0  0  2  0  0  0  0  0  0
  -29.6460  -12.6400   17.7340 C   0  0  0  0  0  2  0  0  0  0  0  0
  -28.2070  -12.4830   18.2600 C   0  0  0  0  0  2  0  0  0  0  0  0
  -27.8980  -13.4480   19.4290 C   0  0  0  0  0  3  0  0  0  0  0  0
  -29.0280  -13.4660   20.4870 C   0  0  0  0  0  2  0  0  0  0  0  0
  -30.3010  -13.7310   19.8040 N   0  0  0  0  0  0  0  0  0  0  0  0
  -32.2200  -14.8140   19.4420 O   0  0  0  0  0  0  0  0  0  0  0  0
  -25.6110  -14.1260   20.3760 C   0  0  0  0  0  0  0  0  0  0  0  0
  -24.5440  -13.3820   20.7970 C   0  0  0  0  0  0  0  0  0  0  0  0
  -24.9450  -12.0170   20.6760 C   0  0  0  0  0  0  0  0  0  0  0  0
  -26.5910  -13.2110   20.0220 N   0  0  0  0  0  0  0  0  0  0  0  0
  -26.2040  -11.9360   20.2670 N   0  0  0  0  0  0  0  0  0  0  0  0
  -24.1850  -10.7770   20.8650 C   0  0  0  0  0  0  0  0  0  0  0  0
  -24.5690   -9.8170   21.8260 C   0  0  0  0  0  3  0  0  0  0  0  0
  -23.8120   -8.6390   22.0020 C   0  0  0  0  0  3  0  0  0  0  0  0
  -22.6560   -8.4160   21.2150 C   0  0  0  0  0  0  0  0  0  0  0  0
  -22.2930   -9.3650   20.2420 C   0  0  0  0  0  3  0  0  0  0  0  0
  -23.0520  -10.5330   20.0660 C   0  0  0  0  0  3  0  0  0  0  0  0
  -21.8720   -7.2920   21.3000 O   0  0  0  0  0  0  0  0  0  0  0  0
  -21.6590   -6.6540   22.4950 C   0  0  0  0  0  0  0  0  0  0  0  0
  -21.0520   -7.3060   23.5900 C   0  0  0  0  0  3  0  0  0  0  0  0
  -20.7870   -6.5940   24.7770 C   0  0  0  0  0  3  0  0  0  0  0  0
  -21.1190   -5.2280   24.8670 C   0  0  0  0  0  0  0  0  0  0  0  0
  -21.7190   -4.5750   23.7750 C   0  0  0  0  0  3  0  0  0  0  0  0
  -21.9850   -5.2870   22.5920 C   0  0  0  0  0  0  0  0  0  0  0  0
  -22.5430   -4.6480   21.5360 F   0  0  0  0  0  0  0  0  0  0  0  0
  -20.8580   -4.5410   26.0020 F   0  0  0  0  0  0  0  0  0  0  0  0
  -23.1920  -13.9010   21.1930 C   0  0  0  0  0  0  0  0  0  0  0  0
  -22.5090  -13.2040   22.0940 N   0  0  0  0  0  0  0  0  0  0  0  0
  -22.7550  -14.9590   20.7410 O   0  0  0  0  0  0  0  0  0  0  0  0
  -22.8800  -12.3480   22.4800 H   0  0  0  0  0  0  0  0  0  0  0  0
  -21.6060  -13.5310   22.4040 H   0  0  0  0  0  0  0  0  0  0  0  0
  -25.8150  -15.4950   20.2380 N   0  0  0  0  0  0  0  0  0  0  0  0
  -25.0870  -16.1720   20.4390 H   0  0  0  0  0  0  0  0  0  0  0  0
  -26.6560  -15.9160   19.8670 H   0  0  0  0  0  0  0  0  0  0  0  0
  2  3  1  0
  2  1  1  0
  3  5  1  0
  4  2  2  0
  6  7  1  0
  6  3  1  0
  8 10  1  0
  8  7  1  0
  9 20  2  0
 10 15  1  0
 11 19  1  0
 11 21  1  0
 12 18  1  0
 12 14  1  0
 13 19  1  0
 14 13  1  0
 15 14  2  0
 16 17  1  0
 16 10  2  0
 17 12  2  0
 18 11  1  0
 19  9  1  0
 21 23  2  0
 22 21  1  0
 24 22  1  0
 25 34  2  0
 25 30  1  0
 26 22  1  0
 26 30  1  0
 27 26  1  0
 28 29  1  0
 28 27  1  0
 29 25  1  0
 30 31  2  0
 31 32  1  0
 33 32  2  0
 34 33  1  0
 35  9  1  0
 35 36  1  0
 35 45  1  0
 36 39  1  0
 37 41  1  0
 37 36  1  0
 38 37  2  0
 41 40  1  0
 43 41  1  0
 43 44  1  0
 43 42  1  0
 45 48  1  1
 45 46  1  0
 47 45  1  0
 49  1  1  0
 49 55  1  0
 50 51  1  0
 52 50  2  0
 53 56  1  0
 53 51  2  0
 54 55  2  0
 54 52  1  0
 55 53  1  0
 59 57  1  6
 58 59  1  0
 59 54  1  0
 60 59  1  0
 60 66  1  0
 61 66  1  0
 62 63  1  0
 62 61  1  0
 64 63  1  0
 64 71  1  0
 64 65  1  0
 66 65  1  0
 67 60  2  0
 68 69  2  0
 69 88  1  0
 70 69  1  0
 70 73  1  0
 71 72  1  0
 71 68  1  0
 72 70  2  0
 73 74  1  0
 74 75  2  0
 76 79  1  0
 76 75  1  0
 77 76  2  0
 78 77  1  0
 78 73  2  0
 79 80  1  0
 80 85  2  0
 80 81  1  0
 81 82  2  0
 82 83  1  0
 83 87  1  0
 84 83  2  0
 85 84  1  0
 86 85  1  0
 88 89  1  0
 89 92  1  0
 89 91  1  0
 90 88  2  0
 93 68  1  0
 93 94  1  0
 95 93  1  0
M  ISO  4   7 101   8 101  59 100  60 100
M  END
>  <TORSDO>  (53) 
F 22

>  <SCORE>  (53) 
-10.688

>  <name>  (53) 
53

>  <ligand_id>  (53) 
53

>  <original_smiles>  (53) 
[H]c1c([H])c([H])c2c(c1[H])C([H])([H])C([H])([H])C([H])([H])C2([H])N([H])C(=O)C1([H])N(C(=O)C([H])(N([H])C(=O)C([H])(N([H])C([H])([H])[H])C([H])([H])[H])C(C([H])([H])[H])(C([H])([H])[H])C([H])([H])[H])C([H])([H])c2c([H])c(OC([H])([H])C([H])([H])N([H])C(=O)C([H])([H])C([H])([H])c3c(C([H])([H])[H])c([H])c([H])c([H])c3C(C(=O)N3C([H])([H])C([H])([H])C([H])([H])C([H])(n4nc(-c5c([H])c([H])c(Oc6c([H])c([H])c(F)c([H])c6F)c([H])c5[H])c(C(=O)N([H])[H])c4N([H])[H])C3([H])[H])(C([H])([H])[H])C([H])([H])[H])c([H])c([H])c2C1([H])[H]

>  <smiles>  (53) 
[H]c1c([H])c([H])c2c(c1[H])C([H])([H])C([H])([H])C([H])([H])C2([H])N([H])C(=O)C1([H])N(C(=O)C([H])(N([H])C(=O)C([H])(N([H])C([H])([H])[H])C([H])([H])[H])C(C([H])([H])[H])(C([H])([H])[H])C([H])([H])[H])C([H])([H])c2c([H])c(OC([H])([H])C([H])([H])N([H])C(=O)C([H])([H])C([H])([H])c3c(C([H])([H])[H])c([H])c([H])c([H])c3C(C(=O)N3C([H])([H])C([H])([H])C([H])([H])C([H])(n4nc(-c5c([H])c([H])c(Oc6c([H])c([H])c(F)c([H])c6F)c([H])c5[H])c(C(=O)N([H])[H])c4N([H])[H])C3([H])[H])(C([H])([H])[H])C([H])([H])[H])c([H])c([H])c2C1([H])[H]

$$$$
54:0:0
     RDKit          3D

 95103  0  0  1  0  0  0  0  0999 V2000
  -30.7560  -21.2580   18.6760 C   0  0  0  0  0  3  0  0  0  0  0  0
  -31.7570  -20.3340   19.0290 C   0  0  0  0  0  3  0  0  0  0  0  0
  -32.0980  -23.0690   19.5950 C   0  0  0  0  0  3  0  0  0  0  0  0
  -30.9040  -22.6310   18.9770 C   0  0  0  0  0  0  0  0  0  0  0  0
  -32.9300  -20.7660   19.6800 C   0  0  0  0  0  0  0  0  0  0  0  0
  -33.1070  -22.1450   19.9440 C   0  0  0  0  0  0  0  0  0  0  0  0
  -34.2500  -22.5940   20.5390 O   0  0  0  0  0  0  0  0  0  0  0  0
  -34.2750  -23.5410   20.6400 H   0  0  0  0  0  0  0  0  0  0  0  0
  -29.8140  -23.5780   18.6030 C   0  0  0  0  0  0  0  0  0  0  0  0
  -28.9490  -23.2880   17.7700 O   0  0  0  0  0  0  0  0  0  0  0  0
  -29.7590  -24.9410   19.3170 C   0  0  0  0  0  2  0  0  0  0  0  0
  -28.3510  -25.5680   19.2980 C   0  0  0  0  0  2  0  0  0  0  0  0
  -28.3260  -26.8340   19.9640 O   0  0  0  0  0  0  0  0  0  0  0  0
  -24.5260  -31.9170   23.2000 C   0  0  0  0  0  0  0  0  0  0  0  0
  -27.1260  -27.5210   20.0040 C   0  0  0  0  0  0  0  0  0  0  0  0
  -23.2920  -30.5340   21.5630 C   0  0  0  0  0  3  0  0  0  0  0  0
  -24.7210  -29.0160   20.0980 C   0  0  0  0  0  0  0  0  0  0  0  0
  -25.8150  -30.8970   21.3270 C   0  0  0  0  0  2  0  0  0  0  0  0
  -25.8890  -29.5330   20.6710 C   0  0  0  0  0  0  0  0  0  0  0  0
  -27.0910  -28.7890   20.6260 C   0  0  0  0  0  3  0  0  0  0  0  0
  -25.9290  -27.0130   19.4420 C   0  0  0  0  0  3  0  0  0  0  0  0
  -24.7340  -27.7520   19.4890 C   0  0  0  0  0  3  0  0  0  0  0  0
  -23.4780  -29.8730   20.1710 C   0  0  0  0  0  2  0  0  0  0  0  0
  -24.5640  -31.1300   22.0880 N   0  0  0  0  0  0  0  0  0  0  0  0
  -23.4540  -32.1840   23.7590 O   0  0  0  0  0  0  0  0  0  0  0  0
  -22.6590  -29.5000   22.5190 C   0  0  0  0  0  0  0  0  0  0  0  0
  -21.3330  -29.3190   22.4110 N   0  0  0  0  0  0  0  0  0  0  0  0
  -23.3550  -28.8650   23.3160 O   0  0  0  0  0  0  0  0  0  0  0  0
  -20.8330  -29.8850   21.7400 H   0  0  0  0  0  0  0  0  0  0  0  0
  -17.9670  -28.1140   22.9370 C   0  0  0  0  0  0  0  0  0  0  0  0
  -20.5270  -28.3720   23.1820 C   0  0  0  0  0  3  0  0  0  0  0  0
  -20.6240  -26.9470   22.5900 C   0  0  0  0  0  2  0  0  0  0  0  0
  -19.5110  -26.6320   21.5870 C   0  0  0  0  0  2  0  0  0  0  0  0
  -18.1370  -26.7710   22.2470 C   0  0  0  0  0  2  0  0  0  0  0  0
  -19.0900  -28.8740   23.3610 C   0  0  0  0  0  0  0  0  0  0  0  0
  -18.8770  -30.1320   23.9630 C   0  0  0  0  0  3  0  0  0  0  0  0
  -17.5740  -30.6320   24.1470 C   0  0  0  0  0  3  0  0  0  0  0  0
  -16.4660  -29.8690   23.7400 C   0  0  0  0  0  3  0  0  0  0  0  0
  -16.6630  -28.6130   23.1400 C   0  0  0  0  0  3  0  0  0  0  0  0
  -25.8230  -32.5400   23.8050 C   0  0  0  0  0  3  0  0  0  0  0  0
  -26.3660  -31.7500   25.0580 C   0  0  1  0  0  0  0  0  0  0  0  0
  -25.2940  -31.4940   26.1430 C   0  0  0  0  0  1  0  0  0  0  0  0
  -26.9430  -30.3800   24.6300 C   0  0  0  0  0  1  0  0  0  0  0  0
  -27.5280  -32.5370   25.7090 C   0  0  0  0  0  1  0  0  0  0  0  0
  -25.5200  -33.9320   24.1590 N   0  0  0  0  0  0  0  0  0  0  0  0
  -25.8470  -34.9950   23.4120 C   0  0  0  0  0  0  0  0  0  0  0  0
  -26.5090  -34.9050   22.3740 O   0  0  0  0  0  0  0  0  0  0  0  0
  -24.9330  -34.0770   24.9670 H   0  0  0  0  0  0  0  0  0  0  0  0
  -24.1220  -36.7950   23.0890 C   0  0  0  0  0  1  0  0  0  0  0  0
  -25.3630  -36.3760   23.8920 C   0  0  0  0  0  3  0  0  0  0  0  0
  -27.5040  -37.2380   24.7320 C   0  0  0  0  0  1  0  0  0  0  0  0
  -26.3990  -37.4290   23.7960 N   0  0  0  0  0  0  0  0  0  0  0  0
  -25.9960  -38.3470   23.9620 H   0  0  0  0  0  0  0  0  0  0  0  0
  -33.9720  -19.7330   20.0980 C   0  0  0  0  0  2  0  0  0  0  0  0
  -33.7960  -19.2300   21.5480 C   0  0  0  0  0  2  0  0  0  0  0  0
  -32.3850  -18.7070   21.8900 C   0  0  0  0  0  2  0  0  0  0  0  0
  -32.0700  -17.3050   21.3360 C   0  0  0  0  0  2  0  0  0  0  0  0
  -30.5520  -17.0710   21.1850 C   0  0  0  0  0  2  0  0  0  0  0  0
  -30.0450  -15.6110   21.2690 C   0  0  0  0  0  2  0  0  0  0  0  0
  -30.5360  -14.6220   20.1900 C   0  0  0  0  0  0  0  0  0  0  0  0
  -30.2030  -12.5280   18.9120 C   0  0  0  0  0  2  0  0  0  0  0  0
  -29.2060  -12.7530   17.7600 C   0  0  0  0  0  2  0  0  0  0  0  0
  -27.7540  -12.5730   18.2490 C   0  0  0  0  0  2  0  0  0  0  0  0
  -27.4600  -13.3710   19.5480 C   0  0  0  0  0  3  0  0  0  0  0  0
  -28.5620  -13.1070   20.6010 C   0  0  0  0  0  2  0  0  0  0  0  0
  -29.8580  -13.4580   19.9960 N   0  0  0  0  0  0  0  0  0  0  0  0
  -31.5380  -14.9090   19.5270 O   0  0  0  0  0  0  0  0  0  0  0  0
  -25.0640  -13.9280   20.3180 C   0  0  0  0  0  0  0  0  0  0  0  0
  -24.0280  -13.1310   20.7300 C   0  0  0  0  0  0  0  0  0  0  0  0
  -24.5240  -11.7920   20.6950 C   0  0  0  0  0  0  0  0  0  0  0  0
  -26.1270  -13.0720   20.0670 N   0  0  0  0  0  0  0  0  0  0  0  0
  -25.8040  -11.7830   20.3460 N   0  0  0  0  0  0  0  0  0  0  0  0
  -23.8380  -10.5130   20.9220 C   0  0  0  0  0  0  0  0  0  0  0  0
  -24.3120   -9.5800   21.8710 C   0  0  0  0  0  3  0  0  0  0  0  0
  -23.6260   -8.3650   22.0850 C   0  0  0  0  0  3  0  0  0  0  0  0
  -22.4520   -8.0730   21.3500 C   0  0  0  0  0  0  0  0  0  0  0  0
  -21.9970   -8.9960   20.3910 C   0  0  0  0  0  3  0  0  0  0  0  0
  -22.6830  -10.2030   20.1760 C   0  0  0  0  0  3  0  0  0  0  0  0
  -21.7350   -6.9070   21.4710 O   0  0  0  0  0  0  0  0  0  0  0  0
  -21.7040   -6.2000   22.6470 C   0  0  0  0  0  0  0  0  0  0  0  0
  -21.2680   -6.7840   23.8560 C   0  0  0  0  0  3  0  0  0  0  0  0
  -21.1860   -6.0020   25.0260 C   0  0  0  0  0  3  0  0  0  0  0  0
  -21.5320   -4.6380   24.9870 C   0  0  0  0  0  0  0  0  0  0  0  0
  -21.9620   -4.0530   23.7830 C   0  0  0  0  0  3  0  0  0  0  0  0
  -22.0450   -4.8330   22.6150 C   0  0  0  0  0  0  0  0  0  0  0  0
  -22.4400   -4.2600   21.4530 F   0  0  0  0  0  0  0  0  0  0  0  0
  -21.4460   -3.8850   26.1080 F   0  0  0  0  0  0  0  0  0  0  0  0
  -22.6280  -13.5740   21.0450 C   0  0  0  0  0  0  0  0  0  0  0  0
  -21.9490  -12.8670   21.9420 N   0  0  0  0  0  0  0  0  0  0  0  0
  -22.1440  -14.5810   20.5310 O   0  0  0  0  0  0  0  0  0  0  0  0
  -22.3540  -12.0530   22.3800 H   0  0  0  0  0  0  0  0  0  0  0  0
  -21.0110  -13.1440   22.1940 H   0  0  0  0  0  0  0  0  0  0  0  0
  -25.1890  -15.2990   20.1220 N   0  0  0  0  0  0  0  0  0  0  0  0
  -24.4150  -15.9430   20.2530 H   0  0  0  0  0  0  0  0  0  0  0  0
  -26.0260  -15.7530   19.7760 H   0  0  0  0  0  0  0  0  0  0  0  0
  1  4  2  0
  1  2  1  0
  2  5  2  0
  3  6  2  0
  4  3  1  0
  5  6  1  0
  5 54  1  0
  6  7  1  0
  7  8  1  0
  9  4  1  0
  9 11  1  0
 10  9  2  0
 12 11  1  0
 12 13  1  0
 13 15  1  0
 14 25  2  0
 15 20  1  0
 16 24  1  0
 16 26  1  0
 17 23  1  0
 17 19  1  0
 18 24  1  0
 19 18  1  0
 20 19  2  0
 21 22  1  0
 21 15  2  0
 22 17  2  0
 23 16  1  0
 24 14  1  0
 26 28  2  0
 27 26  1  0
 29 27  1  0
 30 39  2  0
 30 35  1  0
 31 27  1  0
 31 35  1  0
 32 31  1  0
 33 34  1  0
 33 32  1  0
 34 30  1  0
 35 36  2  0
 36 37  1  0
 38 37  2  0
 39 38  1  0
 40 14  1  0
 40 45  1  0
 40 41  1  0
 41 44  1  1
 41 42  1  0
 43 41  1  0
 45 48  1  0
 46 50  1  0
 46 45  1  0
 47 46  2  0
 50 49  1  0
 52 50  1  0
 52 53  1  0
 52 51  1  0
 54 55  1  0
 55 56  1  0
 57 56  1  0
 58 59  1  0
 58 57  1  0
 60 59  1  0
 61 66  1  0
 62 63  1  0
 62 61  1  0
 64 63  1  0
 64 71  1  0
 64 65  1  0
 66 60  1  0
 66 65  1  0
 67 60  2  0
 68 69  2  0
 69 88  1  0
 70 69  1  0
 70 73  1  0
 71 68  1  0
 71 72  1  0
 72 70  2  0
 73 74  1  0
 74 75  2  0
 76 79  1  0
 76 75  1  0
 77 76  2  0
 78 77  1  0
 78 73  2  0
 79 80  1  0
 80 81  1  0
 81 82  2  0
 83 82  1  0
 83 87  1  0
 84 83  2  0
 85 80  2  0
 85 84  1  0
 86 85  1  0
 88 89  1  0
 89 92  1  0
 89 91  1  0
 90 88  2  0
 93 94  1  0
 93 68  1  0
 95 93  1  0
M  ISO  4  12 101  13 101  59 100  60 100
M  END
>  <TORSDO>  (54) 
F 26

>  <SCORE>  (54) 
-11.307

>  <name>  (54) 
54

>  <ligand_id>  (54) 
54

>  <original_smiles>  (54) 
[H]Oc1c([H])c(C(=O)C([H])([H])C([H])([H])Oc2c([H])c([H])c3c(c2[H])C([H])([H])N(C(=O)C([H])(N([H])C(=O)C([H])(N([H])C([H])([H])[H])C([H])([H])[H])C(C([H])([H])[H])(C([H])([H])[H])C([H])([H])[H])C([H])(C(=O)N([H])C2([H])c4c([H])c([H])c([H])c([H])c4C([H])([H])C([H])([H])C2([H])[H])C3([H])[H])c([H])c([H])c1C([H])([H])C([H])([H])C([H])([H])C([H])([H])C([H])([H])C([H])([H])C(=O)N1C([H])([H])C([H])([H])C([H])([H])C([H])(n2nc(-c3c([H])c([H])c(Oc4c([H])c([H])c(F)c([H])c4F)c([H])c3[H])c(C(=O)N([H])[H])c2N([H])[H])C1([H])[H]

>  <smiles>  (54) 
[H]Oc1c([H])c(C(=O)C([H])([H])C([H])([H])Oc2c([H])c([H])c3c(c2[H])C([H])([H])N(C(=O)C([H])(N([H])C(=O)C([H])(N([H])C([H])([H])[H])C([H])([H])[H])C(C([H])([H])[H])(C([H])([H])[H])C([H])([H])[H])C([H])(C(=O)N([H])C2([H])c4c([H])c([H])c([H])c([H])c4C([H])([H])C([H])([H])C2([H])[H])C3([H])[H])c([H])c([H])c1C([H])([H])C([H])([H])C([H])([H])C([H])([H])C([H])([H])C([H])([H])C(=O)N1C([H])([H])C([H])([H])C([H])([H])C([H])(n2nc(-c3c([H])c([H])c(Oc4c([H])c([H])c(F)c([H])c4F)c([H])c3[H])c(C(=O)N([H])[H])c2N([H])[H])C1([H])[H]

$$$$
55:0:0
     RDKit          3D

 98106  0  0  1  0  0  0  0  0999 V2000
  -29.8280  -23.1040   17.2020 C   0  0  0  0  0  3  0  0  0  0  0  0
  -30.9250  -23.8280   16.7130 C   0  0  0  0  0  0  0  0  0  0  0  0
  -29.1530  -23.5040   18.3710 C   0  0  0  0  0  0  0  0  0  0  0  0
  -31.3330  -25.0140   17.3820 C   0  0  0  0  0  0  0  0  0  0  0  0
  -29.4140  -24.7920   18.9320 C   0  0  0  0  0  0  0  0  0  0  0  0
  -30.5270  -25.5410   18.4320 C   0  0  0  0  0  0  0  0  0  0  0  0
  -31.6780  -23.2590   15.5190 C   0  0  0  0  0  1  0  0  0  0  0  0
  -30.5640  -27.9110   18.3320 C   0  0  0  0  0  1  0  0  0  0  0  0
  -30.9070  -26.7150   19.0430 O   0  0  0  0  0  0  0  0  0  0  0  0
  -28.5950  -25.3110   20.1290 C   0  0  0  0  0  2  0  0  0  0  0  0
  -28.5170  -26.7420   20.2250 O   0  0  0  0  0  0  0  0  0  0  0  0
  -24.6670  -31.8600   23.2130 C   0  0  0  0  0  0  0  0  0  0  0  0
  -27.3100  -27.4160   20.1700 C   0  0  0  0  0  0  0  0  0  0  0  0
  -23.4500  -30.4620   21.5710 C   0  0  0  0  0  3  0  0  0  0  0  0
  -24.9000  -28.9230   20.1330 C   0  0  0  0  0  0  0  0  0  0  0  0
  -25.9720  -30.8170   21.3730 C   0  0  0  0  0  2  0  0  0  0  0  0
  -26.0500  -29.4460   20.7360 C   0  0  0  0  0  0  0  0  0  0  0  0
  -27.2470  -28.6990   20.7580 C   0  0  0  0  0  3  0  0  0  0  0  0
  -26.1520  -26.9140   19.5320 C   0  0  0  0  0  3  0  0  0  0  0  0
  -24.9500  -27.6570   19.5170 C   0  0  0  0  0  3  0  0  0  0  0  0
  -23.6530  -29.7850   20.1870 C   0  0  0  0  0  2  0  0  0  0  0  0
  -24.7110  -31.0630   22.1080 N   0  0  0  0  0  0  0  0  0  0  0  0
  -23.5890  -32.1290   23.7630 O   0  0  0  0  0  0  0  0  0  0  0  0
  -22.8050  -29.4390   22.5350 C   0  0  0  0  0  0  0  0  0  0  0  0
  -21.4800  -29.2600   22.4160 N   0  0  0  0  0  0  0  0  0  0  0  0
  -23.4890  -28.8150   23.3500 O   0  0  0  0  0  0  0  0  0  0  0  0
  -20.9840  -29.8000   21.7220 H   0  0  0  0  0  0  0  0  0  0  0  0
  -18.1120  -28.0690   22.9400 C   0  0  0  0  0  0  0  0  0  0  0  0
  -20.6720  -28.3260   23.1980 C   0  0  0  0  0  3  0  0  0  0  0  0
  -20.7730  -26.8940   22.6240 C   0  0  0  0  0  2  0  0  0  0  0  0
  -19.6610  -26.5710   21.6190 C   0  0  0  0  0  2  0  0  0  0  0  0
  -18.2820  -26.7200   22.2670 C   0  0  0  0  0  2  0  0  0  0  0  0
  -19.2340  -28.8280   23.3670 C   0  0  0  0  0  0  0  0  0  0  0  0
  -19.0180  -30.0940   23.9540 C   0  0  0  0  0  3  0  0  0  0  0  0
  -17.7130  -30.5920   24.1360 C   0  0  0  0  0  3  0  0  0  0  0  0
  -16.6060  -29.8290   23.7260 C   0  0  0  0  0  3  0  0  0  0  0  0
  -16.8060  -28.5740   23.1240 C   0  0  0  0  0  3  0  0  0  0  0  0
  -25.9590  -32.4900   23.8210 C   0  0  0  0  0  3  0  0  0  0  0  0
  -26.4890  -31.7140   25.0880 C   0  0  1  0  0  0  0  0  0  0  0  0
  -25.4170  -31.4700   26.1720 C   0  0  0  0  0  1  0  0  0  0  0  0
  -27.0650  -30.3340   24.6860 C   0  0  0  0  0  1  0  0  0  0  0  0
  -27.6420  -32.5090   25.7460 C   0  0  0  0  0  1  0  0  0  0  0  0
  -25.6500  -33.8870   24.1620 N   0  0  0  0  0  0  0  0  0  0  0  0
  -25.9580  -34.9430   23.3990 C   0  0  0  0  0  0  0  0  0  0  0  0
  -26.6110  -34.8510   22.3560 O   0  0  0  0  0  0  0  0  0  0  0  0
  -25.0870  -34.0330   24.9850 H   0  0  0  0  0  0  0  0  0  0  0  0
  -24.2170  -36.7320   23.0750 C   0  0  0  0  0  1  0  0  0  0  0  0
  -25.4650  -36.3250   23.8730 C   0  0  0  0  0  3  0  0  0  0  0  0
  -27.5990  -37.2220   24.6900 C   0  0  0  0  0  1  0  0  0  0  0  0
  -26.4850  -37.3880   23.7580 N   0  0  0  0  0  0  0  0  0  0  0  0
  -26.0720  -38.3020   23.9180 H   0  0  0  0  0  0  0  0  0  0  0  0
  -32.6660  -25.6720   17.0070 C   0  0  0  0  0  2  0  0  0  0  0  0
  -35.2000  -25.7140   17.4340 C   0  0  0  0  0  1  0  0  0  0  0  0
  -33.8840  -24.9500   17.6280 C   0  0  0  0  0  2  0  0  0  0  0  0
  -28.2950  -22.4180   19.0340 C   0  0  0  0  0  2  0  0  0  0  0  0
  -29.2170  -21.2790   19.5590 C   0  0  0  0  0  2  0  0  0  0  0  0
  -28.5660  -19.9650   20.0570 C   0  0  0  0  0  2  0  0  0  0  0  0
  -29.6870  -18.9490   20.3880 C   0  0  0  0  0  2  0  0  0  0  0  0
  -29.2390  -17.5330   20.7890 C   0  0  0  0  0  2  0  0  0  0  0  0
  -30.4450  -16.6730   21.2190 C   0  0  0  0  0  2  0  0  0  0  0  0
  -30.7000  -14.3380   20.3710 C   0  0  0  0  0  0  0  0  0  0  0  0
  -30.3340  -12.2290   19.1480 C   0  0  0  0  0  2  0  0  0  0  0  0
  -29.3830  -12.5050   17.9680 C   0  0  0  0  0  2  0  0  0  0  0  0
  -27.9130  -12.3940   18.4220 C   0  0  0  0  0  2  0  0  0  0  0  0
  -27.6210  -13.1970   19.7220 C   0  0  0  0  0  3  0  0  0  0  0  0
  -28.6820  -12.8890   20.7980 C   0  0  0  0  0  2  0  0  0  0  0  0
  -30.0100  -13.1770   20.2270 N   0  0  0  0  0  0  0  0  0  0  0  0
  -31.7550  -14.5840   19.7770 O   0  0  0  0  0  0  0  0  0  0  0  0
  -30.1000  -15.2530   21.1460 N   0  0  0  0  0  0  0  0  0  0  0  0
  -29.2610  -14.9610   21.6210 H   0  0  0  0  0  0  0  0  0  0  0  0
  -25.2230  -13.8210   20.4530 C   0  0  0  0  0  0  0  0  0  0  0  0
  -24.1520  -13.0500   20.8160 C   0  0  0  0  0  0  0  0  0  0  0  0
  -24.6030  -11.6980   20.7810 C   0  0  0  0  0  0  0  0  0  0  0  0
  -26.2620  -12.9380   20.2120 N   0  0  0  0  0  0  0  0  0  0  0  0
  -25.8910  -11.6510   20.4650 N   0  0  0  0  0  0  0  0  0  0  0  0
  -23.8700  -10.4370   20.9830 C   0  0  0  0  0  0  0  0  0  0  0  0
  -24.3060   -9.4680   21.9110 C   0  0  0  0  0  3  0  0  0  0  0  0
  -23.5750   -8.2750   22.1010 C   0  0  0  0  0  3  0  0  0  0  0  0
  -22.3980   -8.0360   21.3540 C   0  0  0  0  0  0  0  0  0  0  0  0
  -21.9770   -8.9960   20.4160 C   0  0  0  0  0  3  0  0  0  0  0  0
  -22.7060  -10.1820   20.2310 C   0  0  0  0  0  3  0  0  0  0  0  0
  -21.6400   -6.8910   21.4460 O   0  0  0  0  0  0  0  0  0  0  0  0
  -21.6040   -6.1420   22.5950 C   0  0  0  0  0  0  0  0  0  0  0  0
  -21.1860   -6.6890   23.8250 C   0  0  0  0  0  3  0  0  0  0  0  0
  -21.1030   -5.8730   24.9690 C   0  0  0  0  0  3  0  0  0  0  0  0
  -21.4180   -4.5040   24.8800 C   0  0  0  0  0  0  0  0  0  0  0  0
  -21.8220   -3.9500   23.6530 C   0  0  0  0  0  3  0  0  0  0  0  0
  -21.9150   -4.7690   22.5150 C   0  0  0  0  0  0  0  0  0  0  0  0
  -22.2890   -4.2290   21.3290 F   0  0  0  0  0  0  0  0  0  0  0  0
  -21.3270   -3.7150   25.9760 F   0  0  0  0  0  0  0  0  0  0  0  0
  -22.7570  -13.5350   21.1040 C   0  0  0  0  0  0  0  0  0  0  0  0
  -22.0350  -12.8500   21.9800 N   0  0  0  0  0  0  0  0  0  0  0  0
  -22.3200  -14.5650   20.5910 O   0  0  0  0  0  0  0  0  0  0  0  0
  -22.3840  -12.0120   22.4170 H   0  0  0  0  0  0  0  0  0  0  0  0
  -21.1140  -13.1860   22.2310 H   0  0  0  0  0  0  0  0  0  0  0  0
  -25.3890  -15.1910   20.2890 N   0  0  0  0  0  0  0  0  0  0  0  0
  -24.6000  -15.8260   20.3760 H   0  0  0  0  0  0  0  0  0  0  0  0
  -26.2680  -15.6610   20.0990 H   0  0  0  0  0  0  0  0  0  0  0  0
  1  3  1  0
  2  1  2  0
  2  4  1  0
  3  5  2  0
  3 55  1  0
  4  6  2  0
  5 10  1  0
  6  5  1  0
  6  9  1  0
  7  2  1  0
  8  9  1  0
 10 11  1  0
 12 23  2  0
 13 11  1  0
 13 18  1  0
 14 22  1  0
 14 24  1  0
 15 21  1  0
 15 17  1  0
 16 22  1  0
 17 18  2  0
 17 16  1  0
 19 13  2  0
 20 19  1  0
 20 15  2  0
 21 14  1  0
 22 12  1  0
 24 26  2  0
 25 24  1  0
 27 25  1  0
 28 37  2  0
 28 33  1  0
 29 25  1  0
 29 33  1  0
 30 29  1  0
 31 32  1  0
 31 30  1  0
 32 28  1  0
 33 34  2  0
 34 35  1  0
 36 35  2  0
 37 36  1  0
 38 12  1  0
 38 43  1  0
 38 39  1  0
 39 42  1  1
 39 40  1  0
 41 39  1  0
 43 46  1  0
 44 48  1  0
 44 43  1  0
 45 44  2  0
 48 47  1  0
 50 48  1  0
 50 51  1  0
 50 49  1  0
 52  4  1  0
 52 54  1  0
 53 54  1  0
 55 56  1  0
 56 57  1  0
 57 58  1  0
 58 59  1  0
 59 60  1  0
 61 69  1  0
 62 67  1  0
 63 64  1  0
 63 62  1  0
 65 64  1  0
 65 74  1  0
 65 66  1  0
 67 61  1  0
 67 66  1  0
 68 61  2  0
 69 60  1  0
 69 70  1  0
 71 72  2  0
 72 91  1  0
 73 72  1  0
 73 76  1  0
 74 71  1  0
 74 75  1  0
 75 73  2  0
 76 77  1  0
 77 78  2  0
 79 82  1  0
 79 78  1  0
 80 79  2  0
 81 80  1  0
 81 76  2  0
 82 83  1  0
 83 84  1  0
 84 85  2  0
 86 85  1  0
 86 90  1  0
 87 86  2  0
 88 83  2  0
 88 87  1  0
 89 88  1  0
 91 92  1  0
 92 95  1  0
 92 94  1  0
 93 91  2  0
 96 97  1  0
 96 71  1  0
 98 96  1  0
M  ISO  4  10 101  11 101  61 100  69 100
M  END
>  <TORSDO>  (55) 
F 26

>  <SCORE>  (55) 
-11.913

>  <name>  (55) 
55

>  <ligand_id>  (55) 
55

>  <original_smiles>  (55) 
[H]c1c([H])c([H])c2c(c1[H])C([H])([H])C([H])([H])C([H])([H])C2([H])N([H])C(=O)C1([H])N(C(=O)C([H])(N([H])C(=O)C([H])(N([H])C([H])([H])[H])C([H])([H])[H])C(C([H])([H])[H])(C([H])([H])[H])C([H])([H])[H])C([H])([H])c2c([H])c(OC([H])([H])c3c(OC([H])([H])[H])c(C([H])([H])C([H])([H])C([H])([H])[H])c(C([H])([H])[H])c([H])c3C([H])([H])C([H])([H])C([H])([H])C([H])([H])C([H])([H])C([H])([H])N([H])C(=O)N3C([H])([H])C([H])([H])C([H])([H])C([H])(n4nc(-c5c([H])c([H])c(Oc6c([H])c([H])c(F)c([H])c6F)c([H])c5[H])c(C(=O)N([H])[H])c4N([H])[H])C3([H])[H])c([H])c([H])c2C1([H])[H]

>  <smiles>  (55) 
[H]c1c([H])c([H])c2c(c1[H])C([H])([H])C([H])([H])C([H])([H])C2([H])N([H])C(=O)C1([H])N(C(=O)C([H])(N([H])C(=O)C([H])(N([H])C([H])([H])[H])C([H])([H])[H])C(C([H])([H])[H])(C([H])([H])[H])C([H])([H])[H])C([H])([H])c2c([H])c(OC([H])([H])c3c(OC([H])([H])[H])c(C([H])([H])C([H])([H])C([H])([H])[H])c(C([H])([H])[H])c([H])c3C([H])([H])C([H])([H])C([H])([H])C([H])([H])C([H])([H])C([H])([H])N([H])C(=O)N3C([H])([H])C([H])([H])C([H])([H])C([H])(n4nc(-c5c([H])c([H])c(Oc6c([H])c([H])c(F)c([H])c6F)c([H])c5[H])c(C(=O)N([H])[H])c4N([H])[H])C3([H])[H])c([H])c([H])c2C1([H])[H]

$$$$
56:0:0
     RDKit          3D

 99108  0  0  1  0  0  0  0  0999 V2000
  -27.2400  -20.8000   19.4890 C   0  0  0  0  0  2  0  0  0  0  0  0
  -25.5360  -22.6260   19.6760 C   0  0  0  0  0  3  0  0  0  0  0  0
  -25.1560  -23.8280   20.2390 C   0  0  0  0  0  3  0  0  0  0  0  0
  -26.9040  -22.4110   19.5030 C   0  0  0  0  0  0  0  0  0  0  0  0
  -26.0830  -24.8560   20.5140 C   0  0  0  0  0  0  0  0  0  0  0  0
  -27.7980  -23.5760   19.5040 C   0  0  0  0  0  0  0  0  0  0  0  0
  -27.3450  -24.9520   19.8510 C   0  0  0  0  0  0  0  0  0  0  0  0
  -25.6800  -25.7650   21.6410 C   0  0  0  0  0  1  0  0  0  0  0  0
  -29.2820  -23.3120   19.3190 C   0  0  0  0  0  1  0  0  0  0  0  0
  -28.0240  -26.2990   19.6530 O   0  0  0  0  0  0  0  0  0  0  0  0
  -24.5810  -31.9100   23.1000 C   0  0  0  0  0  0  0  0  0  0  0  0
  -27.2470  -27.4810   19.6390 C   0  0  0  0  0  0  0  0  0  0  0  0
  -23.4470  -30.5520   21.4060 C   0  0  0  0  0  3  0  0  0  0  0  0
  -24.9450  -29.2190   19.8090 C   0  0  0  0  0  0  0  0  0  0  0  0
  -25.9870  -30.9220   21.2610 C   0  0  0  0  0  2  0  0  0  0  0  0
  -26.1060  -29.6050   20.4960 C   0  0  0  0  0  0  0  0  0  0  0  0
  -27.2490  -28.7120   20.4370 C   0  0  0  0  0  3  0  0  0  0  0  0
  -26.1570  -27.4030   18.7580 C   0  0  0  0  0  3  0  0  0  0  0  0
  -24.9570  -28.1470   18.9250 C   0  0  0  0  0  3  0  0  0  0  0  0
  -23.6710  -30.0260   19.9780 C   0  0  0  0  0  2  0  0  0  0  0  0
  -24.6920  -31.1450   21.9630 N   0  0  0  0  0  0  0  0  0  0  0  0
  -23.4710  -32.0920   23.6420 O   0  0  0  0  0  0  0  0  0  0  0  0
  -22.8520  -29.4150   22.2950 C   0  0  0  0  0  0  0  0  0  0  0  0
  -21.5390  -29.1580   22.1570 N   0  0  0  0  0  0  0  0  0  0  0  0
  -23.5830  -28.7940   23.0660 O   0  0  0  0  0  0  0  0  0  0  0  0
  -21.0080  -29.7230   21.5180 H   0  0  0  0  0  0  0  0  0  0  0  0
  -18.2660  -27.6780   22.6140 C   0  0  0  0  0  0  0  0  0  0  0  0
  -20.7940  -28.1200   22.8890 C   0  0  0  0  0  3  0  0  0  0  0  0
  -21.0070  -26.7340   22.2430 C   0  0  0  0  0  2  0  0  0  0  0  0
  -19.9270  -26.3740   21.2190 C   0  0  0  0  0  2  0  0  0  0  0  0
  -18.5400  -26.3800   21.8720 C   0  0  0  0  0  2  0  0  0  0  0  0
  -19.3250  -28.5040   23.0760 C   0  0  0  0  0  0  0  0  0  0  0  0
  -19.0090  -29.7150   23.7330 C   0  0  0  0  0  3  0  0  0  0  0  0
  -17.6700  -30.1020   23.9260 C   0  0  0  0  0  3  0  0  0  0  0  0
  -16.6270  -29.2760   23.4760 C   0  0  0  0  0  3  0  0  0  0  0  0
  -16.9230  -28.0650   22.8270 C   0  0  0  0  0  3  0  0  0  0  0  0
  -25.8140  -32.5930   23.7390 C   0  0  0  0  0  3  0  0  0  0  0  0
  -25.4250  -33.9760   24.0950 N   0  0  0  0  0  0  0  0  0  0  0  0
  -25.7720  -35.0650   23.4010 C   0  0  0  0  0  0  0  0  0  0  0  0
  -26.5170  -35.0310   22.4170 O   0  0  0  0  0  0  0  0  0  0  0  0
  -24.7750  -34.0700   24.8520 H   0  0  0  0  0  0  0  0  0  0  0  0
  -24.0300  -36.8350   22.9660 C   0  0  0  0  0  1  0  0  0  0  0  0
  -25.1980  -36.4170   23.8760 C   0  0  0  0  0  3  0  0  0  0  0  0
  -27.2210  -37.3050   24.9480 C   0  0  0  0  0  1  0  0  0  0  0  0
  -26.2030  -37.5040   23.9200 N   0  0  0  0  0  0  0  0  0  0  0  0
  -25.7540  -38.3990   24.0870 H   0  0  0  0  0  0  0  0  0  0  0  0
  -26.3530  -31.8380   25.0190 C   0  0  1  0  0  0  0  0  0  0  0  0
  -25.2580  -31.5400   26.0710 C   0  0  0  0  0  1  0  0  0  0  0  0
  -27.0020  -30.4880   24.6240 C   0  0  0  0  0  1  0  0  0  0  0  0
  -27.4560  -32.6740   25.6930 C   0  0  0  0  0  1  0  0  0  0  0  0
  -26.1430  -19.6440   19.2010 C   0  0  0  0  0  2  0  0  0  0  0  0
  -26.1230  -18.2470   20.0100 C   0  0  0  0  0  2  0  0  0  0  0  0
  -25.3210  -15.8010   19.5720 C   0  0  0  0  0  1  0  0  0  0  0  0
  -26.5870  -16.6430   17.7870 C   0  0  0  0  0  1  0  0  0  0  0  0
  -26.5030  -16.8350   19.3440 C   0  0  1  0  0  0  0  0  0  0  0  0
  -28.5760  -15.4820   20.5040 C   0  0  0  0  0  3  0  0  0  0  0  0
  -28.9890  -17.5770   19.8000 C   0  0  0  0  0  3  0  0  0  0  0  0
  -29.8580  -15.3030   21.1210 C   0  0  0  0  0  0  0  0  0  0  0  0
  -28.0210  -16.6020   19.8940 C   0  0  0  0  0  0  0  0  0  0  0  0
  -30.0480  -17.6270   20.7080 C   0  0  0  0  0  0  0  0  0  0  0  0
  -30.3940  -16.5260   21.5150 C   0  0  0  0  0  0  0  0  0  0  0  0
  -30.8810  -18.8590   20.7590 C   0  0  0  0  0  1  0  0  0  0  0  0
  -31.4540  -16.6240   22.6520 C   0  0  0  0  0  1  0  0  0  0  0  0
  -30.8490  -14.0310   21.2380 C   0  0  0  0  0  0  0  0  0  0  0  0
  -30.7810  -11.7530   20.1640 C   0  0  0  0  0  2  0  0  0  0  0  0
  -30.0970  -12.1950   18.8600 C   0  0  0  0  0  2  0  0  0  0  0  0
  -28.6380  -12.7440   19.1590 C   0  0  0  0  0  2  0  0  0  0  0  0
  -28.1000  -12.6380   20.6410 C   0  0  0  0  0  3  0  0  0  0  0  0
  -29.0920  -12.2610   21.7070 C   0  0  0  0  0  2  0  0  0  0  0  0
  -30.3970  -12.7450   21.2180 N   0  0  0  0  0  0  0  0  0  0  0  0
  -32.0460  -14.2900   21.2220 O   0  0  0  0  0  0  0  0  0  0  0  0
  -25.7660  -13.6130   21.2710 C   0  0  0  0  0  0  0  0  0  0  0  0
  -24.5890  -12.9650   21.3640 C   0  0  0  0  0  0  0  0  0  0  0  0
  -24.9100  -11.6100   21.1310 C   0  0  0  0  0  0  0  0  0  0  0  0
  -26.6980  -12.6260   20.9370 N   0  0  0  0  0  0  0  0  0  0  0  0
  -26.1800  -11.4040   20.8090 N   0  0  0  0  0  0  0  0  0  0  0  0
  -24.1360  -10.4290   21.1890 C   0  0  0  0  0  0  0  0  0  0  0  0
  -24.4810   -9.3510   22.0520 C   0  0  0  0  0  3  0  0  0  0  0  0
  -23.7330   -8.1740   22.0130 C   0  0  0  0  0  3  0  0  0  0  0  0
  -22.6240   -8.0760   21.1170 C   0  0  0  0  0  0  0  0  0  0  0  0
  -22.3020   -9.1440   20.2580 C   0  0  0  0  0  3  0  0  0  0  0  0
  -23.0820  -10.3340   20.3010 C   0  0  0  0  0  3  0  0  0  0  0  0
  -21.8400   -6.9810   20.9880 O   0  0  0  0  0  0  0  0  0  0  0  0
  -21.5740   -6.1760   22.0660 C   0  0  0  0  0  0  0  0  0  0  0  0
  -20.9950   -6.6750   23.2490 C   0  0  0  0  0  3  0  0  0  0  0  0
  -20.6720   -5.7880   24.2930 C   0  0  0  0  0  3  0  0  0  0  0  0
  -20.9250   -4.4170   24.1580 C   0  0  0  0  0  0  0  0  0  0  0  0
  -21.5100   -3.9210   22.9750 C   0  0  0  0  0  3  0  0  0  0  0  0
  -21.8330   -4.7930   21.9340 C   0  0  0  0  0  0  0  0  0  0  0  0
  -22.3780   -4.3160   20.7920 F   0  0  0  0  0  0  0  0  0  0  0  0
  -20.6060   -3.5600   25.1640 F   0  0  0  0  0  0  0  0  0  0  0  0
  -23.2440  -13.5520   21.6380 C   0  0  0  0  0  0  0  0  0  0  0  0
  -22.4310  -12.8130   22.3660 N   0  0  0  0  0  0  0  0  0  0  0  0
  -22.8880  -14.6700   21.2480 O   0  0  0  0  0  0  0  0  0  0  0  0
  -22.7140  -11.9250   22.7680 H   0  0  0  0  0  0  0  0  0  0  0  0
  -21.4920  -13.1580   22.5250 H   0  0  0  0  0  0  0  0  0  0  0  0
  -26.0180  -14.9620   21.5350 N   0  0  0  0  0  0  0  0  0  0  0  0
  -25.2030  -15.5050   21.6880 H   0  0  0  0  0  0  0  0  0  0  0  0
  -26.8920  -15.4620   21.3430 H   0  0  0  0  0  0  0  0  0  0  0  0
  1  4  1  0
  2  3  1  0
  3  5  2  0
  4  6  1  0
  4  2  2  0
  5  8  1  0
  6  7  2  0
  7  5  1  0
  9  6  1  0
 10  7  1  0
 11 22  2  0
 12 10  1  0
 12 17  1  0
 13 21  1  0
 13 23  1  0
 14 20  1  0
 14 16  1  0
 15 21  1  0
 16 15  1  0
 17 16  2  0
 18 19  1  0
 18 12  2  0
 19 14  2  0
 20 13  1  0
 21 11  1  0
 23 25  2  0
 24 23  1  0
 26 24  1  0
 27 36  2  0
 27 32  1  0
 28 24  1  0
 28 32  1  0
 29 28  1  0
 30 31  1  0
 30 29  1  0
 31 27  1  0
 32 33  2  0
 33 34  1  0
 35 34  2  0
 36 35  1  0
 37 11  1  0
 37 38  1  0
 37 47  1  0
 38 41  1  0
 39 43  1  0
 39 38  1  0
 40 39  2  0
 43 42  1  0
 43 45  1  0
 45 46  1  0
 45 44  1  0
 47 50  1  1
 47 48  1  0
 49 47  1  0
 51  1  1  0
 51 52  1  0
 55 54  1  6
 55 53  1  0
 55 59  1  0
 55 52  1  0
 56 58  1  0
 57 59  1  0
 57 60  2  0
 58 64  1  0
 58 61  2  0
 59 56  2  0
 60 62  1  0
 60 61  1  0
 61 63  1  0
 65 70  1  0
 66 67  1  0
 66 65  1  0
 68 67  1  0
 68 75  1  0
 68 69  1  0
 70 64  1  0
 70 69  1  0
 71 64  2  0
 72 73  2  0
 72 97  1  0
 73 92  1  0
 74 77  1  0
 74 73  1  0
 75 72  1  0
 76 75  1  0
 76 74  2  0
 77 78  1  0
 79 78  2  0
 80 79  1  0
 81 82  1  0
 81 80  2  0
 82 77  2  0
 83 80  1  0
 83 84  1  0
 84 85  1  0
 85 86  2  0
 87 86  1  0
 87 91  1  0
 88 87  2  0
 89 84  2  0
 89 88  1  0
 90 89  1  0
 92 93  1  0
 93 96  1  0
 93 95  1  0
 94 92  2  0
 97 98  1  0
 99 97  1  0
M  ISO  4   7 101  10 101  58 100  64 100
M  END
>  <TORSDO>  (56) 
F 21

>  <SCORE>  (56) 
-6.335

>  <name>  (56) 
56

>  <ligand_id>  (56) 
56

>  <original_smiles>  (56) 
[H]c1c([H])c([H])c2c(c1[H])C([H])([H])C([H])([H])C([H])([H])C2([H])N([H])C(=O)C1([H])N(C(=O)C([H])(N([H])C(=O)C([H])(N([H])C([H])([H])[H])C([H])([H])[H])C(C([H])([H])[H])(C([H])([H])[H])C([H])([H])[H])C([H])([H])c2c([H])c(Oc3c(C([H])([H])[H])c([H])c([H])c(C([H])([H])C([H])([H])C([H])([H])C(c4c([H])c(C(=O)N5C([H])([H])C([H])([H])C([H])([H])C([H])(n6nc(-c7c([H])c([H])c(Oc8c([H])c([H])c(F)c([H])c8F)c([H])c7[H])c(C(=O)N([H])[H])c6N([H])[H])C5([H])[H])c(C([H])([H])[H])c(C([H])([H])[H])c4[H])(C([H])([H])[H])C([H])([H])[H])c3C([H])([H])[H])c([H])c([H])c2C1([H])[H]

>  <smiles>  (56) 
[H]c1c([H])c([H])c2c(c1[H])C([H])([H])C([H])([H])C([H])([H])C2([H])N([H])C(=O)C1([H])N(C(=O)C([H])(N([H])C(=O)C([H])(N([H])C([H])([H])[H])C([H])([H])[H])C(C([H])([H])[H])(C([H])([H])[H])C([H])([H])[H])C([H])([H])c2c([H])c(Oc3c(C([H])([H])[H])c([H])c([H])c(C([H])([H])C([H])([H])C([H])([H])C(c4c([H])c(C(=O)N5C([H])([H])C([H])([H])C([H])([H])C([H])(n6nc(-c7c([H])c([H])c(Oc8c([H])c([H])c(F)c([H])c8F)c([H])c7[H])c(C(=O)N([H])[H])c6N([H])[H])C5([H])[H])c(C([H])([H])[H])c(C([H])([H])[H])c4[H])(C([H])([H])[H])C([H])([H])[H])c3C([H])([H])[H])c([H])c([H])c2C1([H])[H]

$$$$
57:0:0
     RDKit          3D

 95103  0  0  1  0  0  0  0  0999 V2000
  -29.3120  -24.5650   19.7020 C   0  0  0  0  0  3  0  0  0  0  0  0
  -28.3190  -25.9120   17.9450 C   0  0  0  0  0  3  0  0  0  0  0  0
  -29.5910  -23.5430   18.7720 C   0  0  0  0  0  0  0  0  0  0  0  0
  -29.1970  -23.6960   17.4140 C   0  0  0  0  0  0  0  0  0  0  0  0
  -28.6590  -25.7430   19.2970 C   0  0  0  0  0  0  0  0  0  0  0  0
  -28.5430  -24.8840   16.9980 C   0  0  0  0  0  0  0  0  0  0  0  0
  -29.4920  -22.6030   16.3940 C   0  0  0  0  0  1  0  0  0  0  0  0
  -27.2660  -26.0710   15.3440 C   0  0  0  0  0  1  0  0  0  0  0  0
  -28.1570  -25.0090   15.6800 O   0  0  0  0  0  0  0  0  0  0  0  0
  -30.3810  -22.3780   19.2520 C   0  0  0  0  0  0  0  0  0  0  0  0
  -31.6170  -22.3890   19.2790 O   0  0  0  0  0  0  0  0  0  0  0  0
  -29.5900  -21.1650   19.7750 C   0  0  0  0  0  2  0  0  0  0  0  0
  -30.4860  -20.0640   20.4060 C   0  0  0  0  0  2  0  0  0  0  0  0
  -29.8180  -19.1430   21.4590 C   0  0  0  0  0  2  0  0  0  0  0  0
  -29.4880  -17.6900   21.0300 C   0  0  0  0  0  2  0  0  0  0  0  0
  -30.7020  -16.7200   20.9960 C   0  0  0  0  0  2  0  0  0  0  0  0
  -30.9690  -14.3490   20.1400 C   0  0  0  0  0  0  0  0  0  0  0  0
  -30.6470  -12.1740   19.0030 C   0  0  0  0  0  2  0  0  0  0  0  0
  -29.6820  -12.3530   17.8130 C   0  0  0  0  0  2  0  0  0  0  0  0
  -28.2120  -12.2500   18.2680 C   0  0  0  0  0  2  0  0  0  0  0  0
  -27.9090  -13.1420   19.4990 C   0  0  0  0  0  3  0  0  0  0  0  0
  -28.9630  -12.9010   20.6020 C   0  0  0  0  0  2  0  0  0  0  0  0
  -30.2930  -13.1740   20.0230 N   0  0  0  0  0  0  0  0  0  0  0  0
  -32.0630  -14.5510   19.5950 O   0  0  0  0  0  0  0  0  0  0  0  0
  -30.3100  -15.3150   20.8060 N   0  0  0  0  0  0  0  0  0  0  0  0
  -29.4320  -15.0340   21.2200 H   0  0  0  0  0  0  0  0  0  0  0  0
  -25.5470  -13.8560   20.2410 C   0  0  0  0  0  0  0  0  0  0  0  0
  -24.4590  -13.1300   20.6430 C   0  0  0  0  0  0  0  0  0  0  0  0
  -24.8700  -11.7630   20.6310 C   0  0  0  0  0  0  0  0  0  0  0  0
  -26.5530  -12.9310   20.0020 N   0  0  0  0  0  0  0  0  0  0  0  0
  -26.1480  -11.6680   20.2890 N   0  0  0  0  0  0  0  0  0  0  0  0
  -24.1060  -10.5320   20.8600 C   0  0  0  0  0  0  0  0  0  0  0  0
  -24.5100   -9.5780   21.8200 C   0  0  0  0  0  3  0  0  0  0  0  0
  -23.7470   -8.4100   22.0320 C   0  0  0  0  0  3  0  0  0  0  0  0
  -22.5660   -8.1890   21.2840 C   0  0  0  0  0  0  0  0  0  0  0  0
  -22.1830   -9.1280   20.3120 C   0  0  0  0  0  3  0  0  0  0  0  0
  -22.9470  -10.2880   20.0960 C   0  0  0  0  0  3  0  0  0  0  0  0
  -21.7770   -7.0710   21.4050 O   0  0  0  0  0  0  0  0  0  0  0  0
  -21.6890   -6.3750   22.5850 C   0  0  0  0  0  0  0  0  0  0  0  0
  -21.2670   -6.9920   23.7830 C   0  0  0  0  0  3  0  0  0  0  0  0
  -21.1200   -6.2240   24.9550 C   0  0  0  0  0  3  0  0  0  0  0  0
  -21.3850   -4.8420   24.9310 C   0  0  0  0  0  0  0  0  0  0  0  0
  -21.8040   -4.2270   23.7390 C   0  0  0  0  0  3  0  0  0  0  0  0
  -21.9500   -4.9920   22.5690 C   0  0  0  0  0  0  0  0  0  0  0  0
  -22.3310   -4.3890   21.4160 F   0  0  0  0  0  0  0  0  0  0  0  0
  -21.2400   -4.1030   26.0560 F   0  0  0  0  0  0  0  0  0  0  0  0
  -23.0860  -13.6630   20.9370 C   0  0  0  0  0  0  0  0  0  0  0  0
  -22.3500  -13.0110   21.8320 N   0  0  0  0  0  0  0  0  0  0  0  0
  -22.6730  -14.6940   20.4090 O   0  0  0  0  0  0  0  0  0  0  0  0
  -22.6980  -12.1830   22.2930 H   0  0  0  0  0  0  0  0  0  0  0  0
  -21.4280  -13.3500   22.0650 H   0  0  0  0  0  0  0  0  0  0  0  0
  -25.7550  -15.2190   20.0450 N   0  0  0  0  0  0  0  0  0  0  0  0
  -25.0090  -15.8950   20.1670 H   0  0  0  0  0  0  0  0  0  0  0  0
  -26.6110  -15.6370   19.7010 H   0  0  0  0  0  0  0  0  0  0  0  0
  -28.3960  -26.7250   20.2220 O   0  0  0  0  0  0  0  0  0  0  0  0
  -24.6000  -31.8740   23.2500 C   0  0  0  0  0  0  0  0  0  0  0  0
  -27.2010  -27.4190   20.2030 C   0  0  0  0  0  0  0  0  0  0  0  0
  -23.3770  -30.4900   21.6050 C   0  0  0  0  0  3  0  0  0  0  0  0
  -24.8110  -28.9310   20.1910 C   0  0  0  0  0  0  0  0  0  0  0  0
  -25.8970  -30.8380   21.3870 C   0  0  0  0  0  2  0  0  0  0  0  0
  -25.9720  -29.4580   20.7670 C   0  0  0  0  0  0  0  0  0  0  0  0
  -27.1680  -28.7110   20.7690 C   0  0  0  0  0  3  0  0  0  0  0  0
  -26.0040  -26.8790   19.6710 C   0  0  0  0  0  3  0  0  0  0  0  0
  -24.8180  -27.6330   19.6480 C   0  0  0  0  0  3  0  0  0  0  0  0
  -23.5760  -29.8040   20.2250 C   0  0  0  0  0  2  0  0  0  0  0  0
  -24.6470  -31.0790   22.1430 N   0  0  0  0  0  0  0  0  0  0  0  0
  -23.5220  -32.1540   23.7900 O   0  0  0  0  0  0  0  0  0  0  0  0
  -22.7180  -29.4710   22.5620 C   0  0  0  0  0  0  0  0  0  0  0  0
  -21.3960  -29.2920   22.4190 N   0  0  0  0  0  0  0  0  0  0  0  0
  -23.3910  -28.8460   23.3850 O   0  0  0  0  0  0  0  0  0  0  0  0
  -20.9180  -29.8490   21.7240 H   0  0  0  0  0  0  0  0  0  0  0  0
  -18.0170  -28.0940   22.8500 C   0  0  0  0  0  0  0  0  0  0  0  0
  -20.5660  -28.3620   23.1810 C   0  0  0  0  0  3  0  0  0  0  0  0
  -20.6860  -26.9240   22.6250 C   0  0  0  0  0  2  0  0  0  0  0  0
  -19.6100  -26.5850   21.5890 C   0  0  0  0  0  2  0  0  0  0  0  0
  -18.2130  -26.7360   22.1980 C   0  0  0  0  0  2  0  0  0  0  0  0
  -19.1240  -28.8640   23.2970 C   0  0  0  0  0  0  0  0  0  0  0  0
  -18.8910  -30.1330   23.8670 C   0  0  0  0  0  3  0  0  0  0  0  0
  -17.5830  -30.6390   23.9880 C   0  0  0  0  0  3  0  0  0  0  0  0
  -16.4890  -29.8680   23.5570 C   0  0  0  0  0  3  0  0  0  0  0  0
  -16.7060  -28.5970   22.9950 C   0  0  0  0  0  3  0  0  0  0  0  0
  -25.8920  -32.4840   23.8770 C   0  0  0  0  0  3  0  0  0  0  0  0
  -25.5990  -33.8840   24.2070 N   0  0  0  0  0  0  0  0  0  0  0  0
  -25.9480  -34.9310   23.4480 C   0  0  0  0  0  0  0  0  0  0  0  0
  -26.6270  -34.8190   22.4230 O   0  0  0  0  0  0  0  0  0  0  0  0
  -25.0020  -34.0490   25.0030 H   0  0  0  0  0  0  0  0  0  0  0  0
  -24.2420  -36.7420   23.0710 C   0  0  0  0  0  1  0  0  0  0  0  0
  -25.4730  -36.3280   23.8960 C   0  0  0  0  0  3  0  0  0  0  0  0
  -27.6110  -37.1890   24.7370 C   0  0  0  0  0  1  0  0  0  0  0  0
  -26.5170  -37.3690   23.7860 N   0  0  0  0  0  0  0  0  0  0  0  0
  -26.1230  -38.2970   23.9230 H   0  0  0  0  0  0  0  0  0  0  0  0
  -26.3920  -31.7030   25.1530 C   0  0  1  0  0  0  0  0  0  0  0  0
  -25.2940  -31.4730   26.2170 C   0  0  0  0  0  1  0  0  0  0  0  0
  -26.9560  -30.3210   24.7490 C   0  0  0  0  0  1  0  0  0  0  0  0
  -27.5510  -32.4770   25.8240 C   0  0  0  0  0  1  0  0  0  0  0  0
  2  5  2  0
  3 10  1  0
  3  1  2  0
  4  3  1  0
  5  1  1  0
  5 55  1  0
  6  4  2  0
  6  2  1  0
  7  4  1  0
  8  9  1  0
  9  6  1  0
 10 11  2  0
 10 12  1  0
 12 13  1  0
 13 14  1  0
 15 14  1  0
 16 15  1  0
 17 25  1  0
 18 23  1  0
 19 20  1  0
 19 18  1  0
 21 20  1  0
 21 30  1  0
 21 22  1  0
 23 17  1  0
 23 22  1  0
 24 17  2  0
 25 16  1  0
 25 26  1  0
 27 28  2  0
 28 47  1  0
 29 28  1  0
 29 32  1  0
 30 27  1  0
 30 31  1  0
 31 29  2  0
 32 33  1  0
 33 34  2  0
 35 38  1  0
 35 34  1  0
 36 35  2  0
 37 36  1  0
 37 32  2  0
 38 39  1  0
 39 40  1  0
 40 41  2  0
 42 41  1  0
 42 46  1  0
 43 42  2  0
 44 39  2  0
 44 43  1  0
 45 44  1  0
 47 48  1  0
 48 51  1  0
 48 50  1  0
 49 47  2  0
 52 53  1  0
 52 27  1  0
 54 52  1  0
 56 67  2  0
 57 55  1  0
 57 62  1  0
 58 66  1  0
 58 68  1  0
 59 65  1  0
 59 61  1  0
 60 66  1  0
 61 62  2  0
 61 60  1  0
 63 57  2  0
 64 63  1  0
 64 59  2  0
 65 58  1  0
 66 56  1  0
 68 70  2  0
 69 68  1  0
 71 69  1  0
 72 81  2  0
 72 77  1  0
 73 69  1  0
 73 77  1  0
 74 73  1  0
 75 76  1  0
 75 74  1  0
 76 72  1  0
 77 78  2  0
 78 79  1  0
 80 79  2  0
 81 80  1  0
 82 56  1  0
 82 83  1  0
 82 92  1  0
 83 86  1  0
 84 88  1  0
 84 83  1  0
 85 84  2  0
 88 87  1  0
 90 88  1  0
 90 91  1  0
 90 89  1  0
 92 95  1  1
 92 93  1  0
 94 92  1  0
M  ISO  4   5 101  17 100  25 100  55 101
M  END
>  <TORSDO>  (57) 
F 23

>  <SCORE>  (57) 
-12.392

>  <name>  (57) 
57

>  <ligand_id>  (57) 
57

>  <original_smiles>  (57) 
[H]c1c([H])c([H])c2c(c1[H])C([H])([H])C([H])([H])C([H])([H])C2([H])N([H])C(=O)C1([H])N(C(=O)C([H])(N([H])C(=O)C([H])(N([H])C([H])([H])[H])C([H])([H])[H])C(C([H])([H])[H])(C([H])([H])[H])C([H])([H])[H])C([H])([H])c2c([H])c(Oc3c([H])c(OC([H])([H])[H])c(C([H])([H])[H])c(C(=O)C([H])([H])C([H])([H])C([H])([H])C([H])([H])C([H])([H])N([H])C(=O)N4C([H])([H])C([H])([H])C([H])([H])C([H])(n5nc(-c6c([H])c([H])c(Oc7c([H])c([H])c(F)c([H])c7F)c([H])c6[H])c(C(=O)N([H])[H])c5N([H])[H])C4([H])[H])c3[H])c([H])c([H])c2C1([H])[H]

>  <smiles>  (57) 
[H]c1c([H])c([H])c2c(c1[H])C([H])([H])C([H])([H])C([H])([H])C2([H])N([H])C(=O)C1([H])N(C(=O)C([H])(N([H])C(=O)C([H])(N([H])C([H])([H])[H])C([H])([H])[H])C(C([H])([H])[H])(C([H])([H])[H])C([H])([H])[H])C([H])([H])c2c([H])c(Oc3c([H])c(OC([H])([H])[H])c(C([H])([H])[H])c(C(=O)C([H])([H])C([H])([H])C([H])([H])C([H])([H])C([H])([H])N([H])C(=O)N4C([H])([H])C([H])([H])C([H])([H])C([H])(n5nc(-c6c([H])c([H])c(Oc7c([H])c([H])c(F)c([H])c7F)c([H])c6[H])c(C(=O)N([H])[H])c5N([H])[H])C4([H])[H])c3[H])c([H])c([H])c2C1([H])[H]

$$$$
58:0:0
     RDKit          3D

102110  0  0  1  0  0  0  0  0999 V2000
  -28.2450  -22.7370   18.4070 C   0  0  0  0  0  3  0  0  0  0  0  0
  -29.4490  -24.7800   18.9230 C   0  0  0  0  0  3  0  0  0  0  0  0
  -29.3570  -23.5800   18.1890 C   0  0  0  0  0  0  0  0  0  0  0  0
  -27.3160  -22.9910   19.4430 C   0  0  0  0  0  0  0  0  0  0  0  0
  -28.5300  -25.0710   19.9480 C   0  0  0  0  0  0  0  0  0  0  0  0
  -27.5640  -24.0910   20.3070 C   0  0  0  0  0  0  0  0  0  0  0  0
  -26.8210  -24.2590   21.4440 O   0  0  0  0  0  0  0  0  0  0  0  0
  -26.1820  -23.5710   21.5690 H   0  0  0  0  0  0  0  0  0  0  0  0
  -24.8560  -22.9270   18.8850 C   0  0  0  0  0  1  0  0  0  0  0  0
  -26.0170  -22.1660   19.5700 C   0  0  0  0  0  3  0  0  0  0  0  0
  -26.1170  -20.7320   18.9740 C   0  0  0  0  0  2  0  0  0  0  0  0
  -24.9820  -19.7570   19.3470 C   0  0  0  0  0  2  0  0  0  0  0  0
  -24.1800  -17.3350   19.3610 C   0  0  0  0  0  1  0  0  0  0  0  0
  -25.3100  -18.3000   18.9840 C   0  0  0  0  0  2  0  0  0  0  0  0
  -28.5380  -26.3350   20.5130 O   0  0  0  0  0  0  0  0  0  0  0  0
  -24.6800  -31.6220   23.3240 C   0  0  0  0  0  0  0  0  0  0  0  0
  -27.4030  -27.1240   20.3930 C   0  0  0  0  0  0  0  0  0  0  0  0
  -23.5400  -30.2340   21.6250 C   0  0  0  0  0  3  0  0  0  0  0  0
  -25.0420  -28.6810   20.2740 C   0  0  0  0  0  0  0  0  0  0  0  0
  -26.0800  -30.5480   21.5660 C   0  0  0  0  0  2  0  0  0  0  0  0
  -26.1740  -29.1730   20.9360 C   0  0  0  0  0  0  0  0  0  0  0  0
  -27.3530  -28.3950   21.0090 C   0  0  0  0  0  3  0  0  0  0  0  0
  -26.2610  -26.6770   19.6790 C   0  0  0  0  0  3  0  0  0  0  0  0
  -25.0770  -27.4280   19.6470 C   0  0  0  0  0  3  0  0  0  0  0  0
  -23.8140  -29.5590   20.2550 C   0  0  0  0  0  2  0  0  0  0  0  0
  -24.7820  -30.8140   22.2310 N   0  0  0  0  0  0  0  0  0  0  0  0
  -23.5760  -31.9160   23.8020 O   0  0  0  0  0  0  0  0  0  0  0  0
  -22.8260  -29.2200   22.5480 C   0  0  0  0  0  0  0  0  0  0  0  0
  -21.4960  -29.1040   22.3950 N   0  0  0  0  0  0  0  0  0  0  0  0
  -23.4630  -28.5480   23.3610 O   0  0  0  0  0  0  0  0  0  0  0  0
  -21.0420  -29.6970   21.7140 H   0  0  0  0  0  0  0  0  0  0  0  0
  -18.0540  -28.1170   22.8620 C   0  0  0  0  0  0  0  0  0  0  0  0
  -20.6220  -28.1930   23.1350 C   0  0  0  0  0  3  0  0  0  0  0  0
  -20.6320  -26.7810   22.5040 C   0  0  0  0  0  2  0  0  0  0  0  0
  -19.5090  -26.5710   21.4830 C   0  0  0  0  0  2  0  0  0  0  0  0
  -18.1400  -26.7850   22.1370 C   0  0  0  0  0  2  0  0  0  0  0  0
  -19.2210  -28.7850   23.3170 C   0  0  0  0  0  0  0  0  0  0  0  0
  -19.0880  -30.0380   23.9520 C   0  0  0  0  0  3  0  0  0  0  0  0
  -17.8190  -30.6200   24.1380 C   0  0  0  0  0  3  0  0  0  0  0  0
  -16.6660  -29.9480   23.6990 C   0  0  0  0  0  3  0  0  0  0  0  0
  -16.7850  -28.6960   23.0680 C   0  0  0  0  0  3  0  0  0  0  0  0
  -25.9420  -32.2360   24.0040 C   0  0  0  0  0  3  0  0  0  0  0  0
  -25.6740  -33.6630   24.2240 N   0  0  0  0  0  0  0  0  0  0  0  0
  -26.1690  -34.6540   23.4700 C   0  0  0  0  0  0  0  0  0  0  0  0
  -26.9690  -34.4620   22.5520 O   0  0  0  0  0  0  0  0  0  0  0  0
  -24.9930  -33.8930   24.9320 H   0  0  0  0  0  0  0  0  0  0  0  0
  -24.6160  -36.5090   22.7830 C   0  0  0  0  0  1  0  0  0  0  0  0
  -25.7010  -36.0880   23.7880 C   0  0  0  0  0  3  0  0  0  0  0  0
  -27.7450  -36.8970   24.8830 C   0  0  0  0  0  1  0  0  0  0  0  0
  -26.7990  -37.0780   23.7840 N   0  0  0  0  0  0  0  0  0  0  0  0
  -26.4290  -38.0240   23.8410 H   0  0  0  0  0  0  0  0  0  0  0  0
  -26.3230  -31.5280   25.3620 C   0  0  1  0  0  0  0  0  0  0  0  0
  -25.1380  -31.3930   26.3450 C   0  0  0  0  0  1  0  0  0  0  0  0
  -26.8800  -30.1090   25.0990 C   0  0  0  0  0  1  0  0  0  0  0  0
  -27.4450  -32.3190   26.0730 C   0  0  0  0  0  1  0  0  0  0  0  0
  -30.4510  -23.2430   17.1750 C   0  0  0  0  0  2  0  0  0  0  0  0
  -30.3260  -21.8860   16.4390 C   0  0  0  0  0  2  0  0  0  0  0  0
  -31.6800  -21.2650   16.0350 C   0  0  0  0  0  2  0  0  0  0  0  0
  -32.1180  -20.0990   16.9500 C   0  0  0  0  0  2  0  0  0  0  0  0
  -32.3990  -20.5230   18.4030 C   0  0  0  0  0  2  0  0  0  0  0  0
  -32.8400  -19.3740   19.3270 C   0  0  0  0  0  2  0  0  0  0  0  0
  -31.6990  -18.4410   19.7930 C   0  0  0  0  0  2  0  0  0  0  0  0
  -32.1190  -17.5990   21.0130 C   0  0  0  0  0  2  0  0  0  0  0  0
  -30.9870  -16.8390   21.7500 C   0  0  0  0  0  2  0  0  0  0  0  0
  -30.9900  -14.7290   20.3240 C   0  0  0  0  0  0  0  0  0  0  0  0
  -30.6580  -12.5920   19.1370 C   0  0  0  0  0  2  0  0  0  0  0  0
  -29.6840  -12.7720   17.9580 C   0  0  0  0  0  2  0  0  0  0  0  0
  -28.2260  -12.6030   18.4270 C   0  0  0  0  0  2  0  0  0  0  0  0
  -27.9010  -13.4480   19.6900 C   0  0  0  0  0  3  0  0  0  0  0  0
  -28.9850  -13.2520   20.7720 C   0  0  0  0  0  2  0  0  0  0  0  0
  -30.2930  -13.5720   20.1720 N   0  0  0  0  0  0  0  0  0  0  0  0
  -32.0670  -14.9370   19.7640 O   0  0  0  0  0  0  0  0  0  0  0  0
  -30.4070  -15.6480   21.1120 N   0  0  0  0  0  0  0  0  0  0  0  0
  -29.4910  -15.3860   21.4460 H   0  0  0  0  0  0  0  0  0  0  0  0
  -25.5310  -14.0200   20.5140 C   0  0  0  0  0  0  0  0  0  0  0  0
  -24.4740  -13.2300   20.8790 C   0  0  0  0  0  0  0  0  0  0  0  0
  -24.9290  -11.8820   20.7580 C   0  0  0  0  0  0  0  0  0  0  0  0
  -26.5650  -13.1510   20.2000 N   0  0  0  0  0  0  0  0  0  0  0  0
  -26.2070  -11.8570   20.4030 N   0  0  0  0  0  0  0  0  0  0  0  0
  -24.2070  -10.6120   20.9050 C   0  0  0  0  0  0  0  0  0  0  0  0
  -24.6340   -9.6210   21.8140 C   0  0  0  0  0  3  0  0  0  0  0  0
  -23.9120   -8.4160   21.9510 C   0  0  0  0  0  3  0  0  0  0  0  0
  -22.7490   -8.1930   21.1760 C   0  0  0  0  0  0  0  0  0  0  0  0
  -22.3420   -9.1730   20.2530 C   0  0  0  0  0  3  0  0  0  0  0  0
  -23.0640  -10.3700   20.1160 C   0  0  0  0  0  3  0  0  0  0  0  0
  -22.0000   -7.0410   21.2220 O   0  0  0  0  0  0  0  0  0  0  0  0
  -21.8830   -6.3050   22.3730 C   0  0  0  0  0  0  0  0  0  0  0  0
  -21.3770   -6.8630   23.5670 C   0  0  0  0  0  3  0  0  0  0  0  0
  -21.2070   -6.0520   24.7070 C   0  0  0  0  0  3  0  0  0  0  0  0
  -21.5350   -4.6830   24.6550 C   0  0  0  0  0  0  0  0  0  0  0  0
  -22.0340   -4.1250   23.4650 C   0  0  0  0  0  3  0  0  0  0  0  0
  -22.2050   -4.9330   22.3270 C   0  0  0  0  0  0  0  0  0  0  0  0
  -22.6680   -4.3850   21.1770 F   0  0  0  0  0  0  0  0  0  0  0  0
  -21.3640   -3.9020   25.7460 F   0  0  0  0  0  0  0  0  0  0  0  0
  -23.0890  -13.6930   21.2270 C   0  0  0  0  0  0  0  0  0  0  0  0
  -22.4020  -12.9700   22.1050 N   0  0  0  0  0  0  0  0  0  0  0  0
  -22.6250  -14.7310   20.7570 O   0  0  0  0  0  0  0  0  0  0  0  0
  -22.7910  -12.1300   22.5070 H   0  0  0  0  0  0  0  0  0  0  0  0
  -21.4730  -13.2600   22.3760 H   0  0  0  0  0  0  0  0  0  0  0  0
  -25.6970  -15.3980   20.4100 N   0  0  0  0  0  0  0  0  0  0  0  0
  -24.9360  -16.0490   20.5760 H   0  0  0  0  0  0  0  0  0  0  0  0
  -26.5430  -15.8480   20.0860 H   0  0  0  0  0  0  0  0  0  0  0  0
  1  4  1  0
  2  5  2  0
  3  1  2  0
  3  2  1  0
  4 10  1  0
  4  6  2  0
  5  6  1  0
  5 15  1  0
  6  7  1  0
  7  8  1  0
 10  9  1  0
 11 12  1  0
 11 10  1  0
 14 12  1  0
 14 13  1  0
 16 27  2  0
 17 15  1  0
 17 22  1  0
 18 26  1  0
 18 28  1  0
 19 21  1  0
 20 26  1  0
 21 22  2  0
 21 20  1  0
 23 17  2  0
 24 23  1  0
 24 19  2  0
 25 19  1  0
 25 18  1  0
 26 16  1  0
 28 30  2  0
 29 28  1  0
 31 29  1  0
 32 41  2  0
 32 37  1  0
 33 29  1  0
 33 37  1  0
 34 33  1  0
 35 36  1  0
 35 34  1  0
 36 32  1  0
 37 38  2  0
 38 39  1  0
 40 39  2  0
 41 40  1  0
 42 16  1  0
 42 43  1  0
 42 52  1  0
 43 46  1  0
 44 48  1  0
 44 43  1  0
 45 44  2  0
 48 47  1  0
 50 48  1  0
 50 51  1  0
 50 49  1  0
 52 55  1  1
 52 53  1  0
 54 52  1  0
 56  3  1  0
 57 56  1  0
 58 57  1  0
 58 59  1  0
 59 60  1  0
 60 61  1  0
 61 62  1  0
 62 63  1  0
 63 64  1  0
 65 73  1  0
 66 71  1  0
 67 68  1  0
 67 66  1  0
 69 68  1  0
 69 78  1  0
 69 70  1  0
 71 65  1  0
 71 70  1  0
 72 65  2  0
 73 74  1  0
 73 64  1  0
 75 76  2  0
 76 95  1  0
 77 76  1  0
 77 80  1  0
 78 79  1  0
 78 75  1  0
 79 77  2  0
 80 81  1  0
 81 82  2  0
 83 86  1  0
 83 82  1  0
 84 83  2  0
 85 84  1  0
 85 80  2  0
 86 87  1  0
 87 88  1  0
 88 89  2  0
 90 89  1  0
 90 94  1  0
 91 90  2  0
 92 87  2  0
 92 91  1  0
 93 92  1  0
 95 96  1  0
 96 99  1  0
 96 98  1  0
 97 95  2  0
100 75  1  0
100101  1  0
102100  1  0
M  ISO  4   5 101  15 101  65 100  73 100
M  END
>  <TORSDO>  (58) 
F 30

>  <SCORE>  (58) 
-7.925

>  <name>  (58) 
58

>  <ligand_id>  (58) 
58

>  <original_smiles>  (58) 
[H]Oc1c(Oc2c([H])c([H])c3c(c2[H])C([H])([H])N(C(=O)C([H])(N([H])C(=O)C([H])(N([H])C([H])([H])[H])C([H])([H])[H])C(C([H])([H])[H])(C([H])([H])[H])C([H])([H])[H])C([H])(C(=O)N([H])C2([H])c4c([H])c([H])c([H])c([H])c4C([H])([H])C([H])([H])C2([H])[H])C3([H])[H])c([H])c(C([H])([H])C([H])([H])C([H])([H])C([H])([H])C([H])([H])C([H])([H])C([H])([H])C([H])([H])C([H])([H])N([H])C(=O)N2C([H])([H])C([H])([H])C([H])([H])C([H])(n3nc(-c4c([H])c([H])c(Oc5c([H])c([H])c(F)c([H])c5F)c([H])c4[H])c(C(=O)N([H])[H])c3N([H])[H])C2([H])[H])c([H])c1C([H])(C([H])([H])[H])C([H])([H])C([H])([H])C([H])([H])C([H])([H])[H]

>  <smiles>  (58) 
[H]Oc1c(Oc2c([H])c([H])c3c(c2[H])C([H])([H])N(C(=O)C([H])(N([H])C(=O)C([H])(N([H])C([H])([H])[H])C([H])([H])[H])C(C([H])([H])[H])(C([H])([H])[H])C([H])([H])[H])C([H])(C(=O)N([H])C2([H])c4c([H])c([H])c([H])c([H])c4C([H])([H])C([H])([H])C2([H])[H])C3([H])[H])c([H])c(C([H])([H])C([H])([H])C([H])([H])C([H])([H])C([H])([H])C([H])([H])C([H])([H])C([H])([H])C([H])([H])N([H])C(=O)N2C([H])([H])C([H])([H])C([H])([H])C([H])(n3nc(-c4c([H])c([H])c(Oc5c([H])c([H])c(F)c([H])c5F)c([H])c4[H])c(C(=O)N([H])[H])c3N([H])[H])C2([H])[H])c([H])c1C([H])(C([H])([H])[H])C([H])([H])C([H])([H])C([H])([H])C([H])([H])[H]

$$$$
59:0:0
     RDKit          3D

 90 98  0  0  1  0  0  0  0  0999 V2000
  -30.2960  -20.9350   20.4350 C   0  0  0  0  0  3  0  0  0  0  0  0
  -29.8680  -22.3530   20.3460 C   0  0  0  0  0  3  0  0  0  0  0  0
  -28.3550  -20.2220   19.4250 C   0  0  0  0  0  3  0  0  0  0  0  0
  -29.5990  -19.7320   19.9810 C   0  0  0  0  0  0  0  0  0  0  0  0
  -28.6300  -22.8420   19.7740 C   0  0  0  0  0  0  0  0  0  0  0  0
  -27.9030  -21.6460   19.3300 C   0  0  0  0  0  0  0  0  0  0  0  0
  -31.0980  -18.1560   18.6070 C   0  0  0  0  0  1  0  0  0  0  0  0
  -30.3430  -18.1610   19.9480 C   0  0  0  0  0  0  0  0  0  0  0  0
  -30.6210  -15.3040   20.1280 C   0  0  0  0  0  0  0  0  0  0  0  0
  -30.5300  -12.8770   19.2600 C   0  0  0  0  0  2  0  0  0  0  0  0
  -29.5920  -12.7020   18.0410 C   0  0  0  0  0  2  0  0  0  0  0  0
  -28.1450  -12.4530   18.5020 C   0  0  0  0  0  2  0  0  0  0  0  0
  -27.7220  -13.4180   19.6390 C   0  0  0  0  0  3  0  0  0  0  0  0
  -28.7890  -13.5520   20.7470 C   0  0  0  0  0  2  0  0  0  0  0  0
  -30.0190  -14.0220   20.0940 N   0  0  0  0  0  0  0  0  0  0  0  0
  -31.8370  -15.2760   19.8880 O   0  0  0  0  0  0  0  0  0  0  0  0
  -29.9050  -16.5910   20.2060 N   0  0  0  0  0  4  0  0  0  0  0  0
  -28.9200  -16.4780   20.3920 H   0  0  0  0  0  0  0  0  0  0  0  0
  -25.3650  -13.9830   20.4310 C   0  0  0  0  0  0  0  0  0  0  0  0
  -24.3070  -13.2070   20.8150 C   0  0  0  0  0  0  0  0  0  0  0  0
  -24.7700  -11.8570   20.7740 C   0  0  0  0  0  0  0  0  0  0  0  0
  -26.4020  -13.1060   20.1690 N   0  0  0  0  0  0  0  0  0  0  0  0
  -26.0560  -11.8200   20.4440 N   0  0  0  0  0  0  0  0  0  0  0  0
  -24.0420  -10.5950   20.9710 C   0  0  0  0  0  0  0  0  0  0  0  0
  -24.4720   -9.6310   21.9090 C   0  0  0  0  0  3  0  0  0  0  0  0
  -23.7420   -8.4380   22.0950 C   0  0  0  0  0  3  0  0  0  0  0  0
  -22.5670   -8.1980   21.3430 C   0  0  0  0  0  0  0  0  0  0  0  0
  -22.1570   -9.1510   20.3930 C   0  0  0  0  0  3  0  0  0  0  0  0
  -22.8870  -10.3360   20.2060 C   0  0  0  0  0  3  0  0  0  0  0  0
  -21.8090   -7.0570   21.4370 O   0  0  0  0  0  0  0  0  0  0  0  0
  -21.7470   -6.3280   22.5980 C   0  0  0  0  0  0  0  0  0  0  0  0
  -21.3090   -6.8970   23.8130 C   0  0  0  0  0  3  0  0  0  0  0  0
  -21.1950   -6.0940   24.9660 C   0  0  0  0  0  3  0  0  0  0  0  0
  -21.5090   -4.7240   24.9040 C   0  0  0  0  0  0  0  0  0  0  0  0
  -21.9410   -4.1540   23.6930 C   0  0  0  0  0  3  0  0  0  0  0  0
  -22.0560   -4.9540   22.5420 C   0  0  0  0  0  0  0  0  0  0  0  0
  -22.4520   -4.3950   21.3730 F   0  0  0  0  0  0  0  0  0  0  0  0
  -21.3930   -3.9500   26.0090 F   0  0  0  0  0  0  0  0  0  0  0  0
  -22.9140  -13.6870   21.1030 C   0  0  0  0  0  0  0  0  0  0  0  0
  -22.1960  -12.9950   21.9780 N   0  0  0  0  0  0  0  0  0  0  0  0
  -22.4740  -14.7140   20.5870 O   0  0  0  0  0  0  0  0  0  0  0  0
  -22.5670  -12.1650   22.4180 H   0  0  0  0  0  0  0  0  0  0  0  0
  -21.2620  -13.2980   22.2140 H   0  0  0  0  0  0  0  0  0  0  0  0
  -25.5260  -15.3530   20.2530 N   0  0  0  0  0  0  0  0  0  0  0  0
  -24.7570  -16.0050   20.3730 H   0  0  0  0  0  0  0  0  0  0  0  0
  -26.3580  -15.7890   19.8780 H   0  0  0  0  0  0  0  0  0  0  0  0
  -25.9140  -20.9220   18.1560 C   0  0  0  0  0  1  0  0  0  0  0  0
  -26.6910  -21.9560   18.7470 O   0  0  0  0  0  0  0  0  0  0  0  0
  -28.0060  -24.4410   19.4860 C   0  0  0  0  0  2  0  0  0  0  0  0
  -28.3520  -25.9830   19.8670 O   0  0  0  0  0  0  0  0  0  0  0  0
  -24.6430  -31.7140   23.0290 C   0  0  0  0  0  0  0  0  0  0  0  0
  -27.3350  -27.0650   19.8260 C   0  0  0  0  0  0  0  0  0  0  0  0
  -23.4930  -30.3600   21.3260 C   0  0  0  0  0  3  0  0  0  0  0  0
  -24.9880  -28.8660   19.8440 C   0  0  0  0  0  0  0  0  0  0  0  0
  -26.0530  -30.6500   21.2030 C   0  0  0  0  0  2  0  0  0  0  0  0
  -26.1620  -29.2770   20.4890 C   0  0  0  0  0  0  0  0  0  0  0  0
  -27.3310  -28.3970   20.4610 C   0  0  0  0  0  3  0  0  0  0  0  0
  -26.1300  -26.8050   19.1340 C   0  0  0  0  0  3  0  0  0  0  0  0
  -24.9960  -27.6500   19.1460 C   0  0  0  0  0  3  0  0  0  0  0  0
  -23.7450  -29.7460   19.9230 C   0  0  0  0  0  2  0  0  0  0  0  0
  -24.7500  -30.9320   21.9070 N   0  0  0  0  0  0  0  0  0  0  0  0
  -23.5440  -31.9530   23.5550 O   0  0  0  0  0  0  0  0  0  0  0  0
  -22.8220  -29.3030   22.2430 C   0  0  0  0  0  0  0  0  0  0  0  0
  -21.4890  -29.1500   22.1420 N   0  0  0  0  0  0  0  0  0  0  0  0
  -23.5060  -28.6240   23.0130 O   0  0  0  0  0  0  0  0  0  0  0  0
  -20.9890  -29.7500   21.5000 H   0  0  0  0  0  0  0  0  0  0  0  0
  -18.1040  -27.9800   22.7250 C   0  0  0  0  0  0  0  0  0  0  0  0
  -20.6810  -28.1690   22.8740 C   0  0  0  0  0  3  0  0  0  0  0  0
  -20.7170  -26.7890   22.1800 C   0  0  0  0  0  2  0  0  0  0  0  0
  -19.5570  -26.5740   21.2010 C   0  0  0  0  0  2  0  0  0  0  0  0
  -18.2130  -26.6900   21.9270 C   0  0  0  0  0  2  0  0  0  0  0  0
  -19.2620  -28.6820   23.1560 C   0  0  0  0  0  0  0  0  0  0  0  0
  -19.1010  -29.8900   23.8670 C   0  0  0  0  0  3  0  0  0  0  0  0
  -17.8190  -30.3970   24.1490 C   0  0  0  0  0  3  0  0  0  0  0  0
  -16.6780  -29.6920   23.7300 C   0  0  0  0  0  3  0  0  0  0  0  0
  -16.8210  -28.4840   23.0240 C   0  0  0  0  0  3  0  0  0  0  0  0
  -25.8960  -32.3600   23.6940 C   0  0  0  0  0  3  0  0  0  0  0  0
  -26.4030  -31.5640   24.9610 C   0  0  1  0  0  0  0  0  0  0  0  0
  -25.2960  -31.2830   26.0050 C   0  0  0  0  0  1  0  0  0  0  0  0
  -27.0150  -30.2040   24.5510 C   0  0  0  0  0  1  0  0  0  0  0  0
  -27.5300  -32.3590   25.6610 C   0  0  0  0  0  1  0  0  0  0  0  0
  -25.5460  -33.7410   24.0700 N   0  0  0  0  0  0  0  0  0  0  0  0
  -25.8460  -34.8310   23.3510 C   0  0  0  0  0  0  0  0  0  0  0  0
  -26.5110  -34.7810   22.3130 O   0  0  0  0  0  0  0  0  0  0  0  0
  -24.9530  -33.8510   24.8790 H   0  0  0  0  0  0  0  0  0  0  0  0
  -24.0600  -36.5880   23.0980 C   0  0  0  0  0  1  0  0  0  0  0  0
  -25.3320  -36.1920   23.8640 C   0  0  0  0  0  3  0  0  0  0  0  0
  -27.4570  -37.1200   24.6750 C   0  0  0  0  0  1  0  0  0  0  0  0
  -26.3310  -37.2780   23.7590 N   0  0  0  0  0  0  0  0  0  0  0  0
  -25.9020  -38.1820   23.9370 H   0  0  0  0  0  0  0  0  0  0  0  0
  2  1  1  0
  3  4  1  0
  4  1  2  0
  5  2  2  0
  6  3  2  0
  6  5  1  0
  7  8  1  0
  8  4  1  0
  8 17  2  0
  9 17  1  0
 10 15  1  0
 11 12  1  0
 11 10  1  0
 13 12  1  0
 13 22  1  0
 13 14  1  0
 15  9  1  0
 15 14  1  0
 16  9  2  0
 17 18  1  0
 19 20  2  0
 20 39  1  0
 21 20  1  0
 21 24  1  0
 22 19  1  0
 22 23  1  0
 23 21  2  0
 24 25  1  0
 25 26  2  0
 27 30  1  0
 27 26  1  0
 28 27  2  0
 29 28  1  0
 29 24  2  0
 30 31  1  0
 31 32  1  0
 32 33  2  0
 34 33  1  0
 34 38  1  0
 35 34  2  0
 36 31  2  0
 36 35  1  0
 37 36  1  0
 39 40  1  0
 40 43  1  0
 40 42  1  0
 41 39  2  0
 44 45  1  0
 44 19  1  0
 46 44  1  0
 47 48  1  0
 48  6  1  0
 49  5  1  0
 49 50  1  0
 51 62  2  0
 52 50  1  0
 52 57  1  0
 53 61  1  0
 53 63  1  0
 54 60  1  0
 54 56  1  0
 55 61  1  0
 56 55  1  0
 57 56  2  0
 58 59  1  0
 58 52  2  0
 59 54  2  0
 60 53  1  0
 61 51  1  0
 63 65  2  0
 64 63  1  0
 66 64  1  0
 67 76  2  0
 67 72  1  0
 68 64  1  0
 68 72  1  0
 69 68  1  0
 70 71  1  0
 70 69  1  0
 71 67  1  0
 72 73  2  0
 73 74  1  0
 75 74  2  0
 76 75  1  0
 77 51  1  0
 77 82  1  0
 77 78  1  0
 78 81  1  1
 78 79  1  0
 80 78  1  0
 82 85  1  0
 83 87  1  0
 83 82  1  0
 84 83  2  0
 87 86  1  0
 89 87  1  0
 89 90  1  0
 89 88  1  0
M  ISO  4   9 100  17 100  49 101  50 101
M  END
>  <TORSDO>  (59) 
F 19

>  <SCORE>  (59) 
-15.190

>  <name>  (59) 
59

>  <ligand_id>  (59) 
59

>  <original_smiles>  (59) 
[H]c1c([H])c([H])c2c(c1[H])C([H])([H])C([H])([H])C([H])([H])C2([H])N([H])C(=O)C1([H])N(C(=O)C([H])(N([H])C(=O)C([H])(N([H])C([H])([H])[H])C([H])([H])[H])C(C([H])([H])[H])(C([H])([H])[H])C([H])([H])[H])C([H])([H])c2c([H])c(OC([H])([H])c3c([H])c([H])c(C([H])(N([H])C(=O)N4C([H])([H])C([H])([H])C([H])([H])C([H])(n5nc(-c6c([H])c([H])c(Oc7c([H])c([H])c(F)c([H])c7F)c([H])c6[H])c(C(=O)N([H])[H])c5N([H])[H])C4([H])[H])C([H])([H])[H])c([H])c3OC([H])([H])[H])c([H])c([H])c2C1([H])[H]

>  <smiles>  (59) 
[H]c1c([H])c([H])c2c(c1[H])C([H])([H])C([H])([H])C([H])([H])C2([H])N([H])C(=O)C1([H])N(C(=O)C([H])(N([H])C(=O)C([H])(N([H])C([H])([H])[H])C([H])([H])[H])C(C([H])([H])[H])(C([H])([H])[H])C([H])([H])[H])C([H])([H])c2c([H])c(OC([H])([H])c3c([H])c([H])c(C([H])(N([H])C(=O)N4C([H])([H])C([H])([H])C([H])([H])C([H])(n5nc(-c6c([H])c([H])c(Oc7c([H])c([H])c(F)c([H])c7F)c([H])c6[H])c(C(=O)N([H])[H])c5N([H])[H])C4([H])[H])C([H])([H])[H])c([H])c3OC([H])([H])[H])c([H])c([H])c2C1([H])[H]

$$$$
60:0:0
     RDKit          3D

 90 98  0  0  1  0  0  0  0  0999 V2000
  -26.4330  -22.3490   20.7980 C   0  0  0  0  0  3  0  0  0  0  0  0
  -27.0110  -23.2840   21.6820 C   0  0  0  0  0  2  0  0  0  0  0  0
  -27.2760  -21.7250   19.8570 C   0  0  0  0  0  3  0  0  0  0  0  0
  -28.3140  -23.7670   21.4190 C   0  0  0  0  0  3  0  0  0  0  0  0
  -28.6070  -22.1750   19.7190 C   0  0  0  0  0  3  0  0  0  0  0  0
  -28.8130  -23.6160   20.1100 C   0  0  0  0  0  3  0  0  0  0  0  0
  -29.1450  -24.4090   22.5000 C   0  0  0  0  0  1  0  0  0  0  0  0
  -29.6800  -20.9260   19.6580 C   0  0  0  0  0  2  0  0  0  0  0  0
  -29.2850  -19.3070   19.9420 C   0  0  0  0  0  3  0  0  0  0  0  0
  -30.3570  -18.0100   19.9040 C   0  0  0  0  0  3  0  0  0  0  0  0
  -30.7720  -15.3060   19.9630 C   0  0  0  0  0  0  0  0  0  0  0  0
  -30.6790  -12.8930   19.1830 C   0  0  0  0  0  2  0  0  0  0  0  0
  -29.7330  -12.7460   17.9680 C   0  0  0  0  0  2  0  0  0  0  0  0
  -28.2620  -12.5830   18.4180 C   0  0  0  0  0  2  0  0  0  0  0  0
  -27.8680  -13.5760   19.5400 C   0  0  0  0  0  3  0  0  0  0  0  0
  -28.9370  -13.6600   20.6460 C   0  0  0  0  0  2  0  0  0  0  0  0
  -30.1960  -14.0380   20.0050 N   0  0  0  0  0  0  0  0  0  0  0  0
  -31.9530  -15.3760   19.6230 O   0  0  0  0  0  0  0  0  0  0  0  0
  -29.9930  -16.4840   20.1070 N   0  0  0  0  0  0  0  0  0  0  0  0
  -29.0340  -16.2980   20.3630 H   0  0  0  0  0  0  0  0  0  0  0  0
  -25.5280  -14.1750   20.3880 C   0  0  0  0  0  0  0  0  0  0  0  0
  -24.4680  -13.4130   20.7860 C   0  0  0  0  0  0  0  0  0  0  0  0
  -24.9090  -12.0540   20.7130 C   0  0  0  0  0  0  0  0  0  0  0  0
  -26.5520  -13.2880   20.0910 N   0  0  0  0  0  0  0  0  0  0  0  0
  -26.1870  -12.0050   20.3570 N   0  0  0  0  0  0  0  0  0  0  0  0
  -24.1650  -10.8030   20.9080 C   0  0  0  0  0  0  0  0  0  0  0  0
  -24.5570   -9.8530   21.8760 C   0  0  0  0  0  3  0  0  0  0  0  0
  -23.8120   -8.6680   22.0600 C   0  0  0  0  0  3  0  0  0  0  0  0
  -22.6630   -8.4210   21.2690 C   0  0  0  0  0  0  0  0  0  0  0  0
  -22.2890   -9.3540   20.2940 C   0  0  0  0  0  3  0  0  0  0  0  0
  -23.0360  -10.5320   20.1070 C   0  0  0  0  0  3  0  0  0  0  0  0
  -21.8980   -7.2860   21.3540 O   0  0  0  0  0  0  0  0  0  0  0  0
  -21.7400   -6.6110   22.5370 C   0  0  0  0  0  0  0  0  0  0  0  0
  -21.1680   -7.2250   23.6750 C   0  0  0  0  0  3  0  0  0  0  0  0
  -20.9760   -6.4770   24.8540 C   0  0  0  0  0  3  0  0  0  0  0  0
  -21.3340   -5.1140   24.8870 C   0  0  0  0  0  0  0  0  0  0  0  0
  -21.9000   -4.5030   23.7560 C   0  0  0  0  0  3  0  0  0  0  0  0
  -22.1000   -5.2510   22.5830 C   0  0  0  0  0  0  0  0  0  0  0  0
  -22.6250   -4.6560   21.4850 F   0  0  0  0  0  0  0  0  0  0  0  0
  -21.1330   -4.3910   26.0130 F   0  0  0  0  0  0  0  0  0  0  0  0
  -23.0920  -13.9090   21.1150 C   0  0  0  0  0  0  0  0  0  0  0  0
  -22.3760  -13.2140   21.9940 N   0  0  0  0  0  0  0  0  0  0  0  0
  -22.6630  -14.9490   20.6190 O   0  0  0  0  0  0  0  0  0  0  0  0
  -22.7440  -12.3790   22.4260 H   0  0  0  0  0  0  0  0  0  0  0  0
  -21.4480  -13.5200   22.2500 H   0  0  0  0  0  0  0  0  0  0  0  0
  -25.6980  -15.5490   20.2310 N   0  0  0  0  0  0  0  0  0  0  0  0
  -24.9310  -16.1850   20.4060 H   0  0  0  0  0  0  0  0  0  0  0  0
  -26.5380  -16.0150   19.9170 H   0  0  0  0  0  0  0  0  0  0  0  0
  -28.2890  -24.9330   19.2330 C   0  0  0  0  0  2  0  0  0  0  0  0
  -28.3670  -26.4620   19.6230 O   0  0  0  0  0  0  0  0  0  0  0  0
  -24.6680  -31.8080   23.0960 C   0  0  0  0  0  0  0  0  0  0  0  0
  -27.2830  -27.4340   19.6020 C   0  0  0  0  0  0  0  0  0  0  0  0
  -23.4440  -30.5090   21.3950 C   0  0  0  0  0  3  0  0  0  0  0  0
  -24.8900  -29.1150   19.7770 C   0  0  0  0  0  0  0  0  0  0  0  0
  -25.9810  -30.8760   21.1580 C   0  0  0  0  0  2  0  0  0  0  0  0
  -26.0780  -29.5480   20.3820 C   0  0  0  0  0  0  0  0  0  0  0  0
  -27.2690  -28.7310   20.2750 C   0  0  0  0  0  3  0  0  0  0  0  0
  -26.0730  -27.1300   18.9410 C   0  0  0  0  0  3  0  0  0  0  0  0
  -24.9080  -27.9280   19.0290 C   0  0  0  0  0  3  0  0  0  0  0  0
  -23.6290  -29.9510   19.9560 C   0  0  0  0  0  2  0  0  0  0  0  0
  -24.7180  -31.0820   21.9390 N   0  0  0  0  0  0  0  0  0  0  0  0
  -23.5990  -32.0100   23.6910 O   0  0  0  0  0  0  0  0  0  0  0  0
  -22.8430  -29.4040   22.2980 C   0  0  0  0  0  0  0  0  0  0  0  0
  -21.5230  -29.1770   22.1920 N   0  0  0  0  0  0  0  0  0  0  0  0
  -23.5670  -28.7580   23.0570 O   0  0  0  0  0  0  0  0  0  0  0  0
  -20.9950  -29.7540   21.5530 H   0  0  0  0  0  0  0  0  0  0  0  0
  -18.2310  -27.7250   22.6370 C   0  0  0  0  0  0  0  0  0  0  0  0
  -20.7680  -28.1430   22.9080 C   0  0  0  0  0  3  0  0  0  0  0  0
  -20.9590  -26.7540   22.2560 C   0  0  0  0  0  2  0  0  0  0  0  0
  -19.8760  -26.4140   21.2290 C   0  0  0  0  0  2  0  0  0  0  0  0
  -18.4920  -26.4300   21.8850 C   0  0  0  0  0  2  0  0  0  0  0  0
  -19.2990  -28.5380   23.1030 C   0  0  0  0  0  0  0  0  0  0  0  0
  -19.0000  -29.7440   23.7710 C   0  0  0  0  0  3  0  0  0  0  0  0
  -17.6660  -30.1450   23.9730 C   0  0  0  0  0  3  0  0  0  0  0  0
  -16.6130  -29.3330   23.5210 C   0  0  0  0  0  3  0  0  0  0  0  0
  -16.8950  -28.1230   22.8590 C   0  0  0  0  0  3  0  0  0  0  0  0
  -25.9490  -32.4400   23.7200 C   0  0  0  0  0  3  0  0  0  0  0  0
  -26.5080  -31.6200   24.9490 C   0  0  1  0  0  0  0  0  0  0  0  0
  -25.4450  -31.3280   26.0340 C   0  0  0  0  0  1  0  0  0  0  0  0
  -27.0970  -30.2660   24.4930 C   0  0  0  0  0  1  0  0  0  0  0  0
  -27.6650  -32.4030   25.6150 C   0  0  0  0  0  1  0  0  0  0  0  0
  -25.6180  -33.8120   24.1320 N   0  0  0  0  0  0  0  0  0  0  0  0
  -25.9270  -34.9180   23.4380 C   0  0  0  0  0  0  0  0  0  0  0  0
  -26.5880  -34.8870   22.3980 O   0  0  0  0  0  0  0  0  0  0  0  0
  -25.0230  -33.9080   24.9420 H   0  0  0  0  0  0  0  0  0  0  0  0
  -24.1620  -36.7010   23.2170 C   0  0  0  0  0  1  0  0  0  0  0  0
  -25.4230  -36.2680   23.9830 C   0  0  0  0  0  3  0  0  0  0  0  0
  -27.5480  -37.1500   24.8430 C   0  0  0  0  0  1  0  0  0  0  0  0
  -26.4340  -37.3450   23.9170 N   0  0  0  0  0  0  0  0  0  0  0  0
  -26.0140  -38.2480   24.1130 H   0  0  0  0  0  0  0  0  0  0  0  0
  1  2  1  0
  3  1  2  0
  4  2  1  0
  4  7  1  0
  5  8  1  0
  5  3  1  0
  5  6  1  0
  6 49  1  0
  6  4  1  0
  8  9  1  0
 10  9  2  0
 10 19  1  0
 11 17  1  0
 11 19  1  0
 12 17  1  0
 13 14  1  0
 13 12  1  0
 15 14  1  0
 15 24  1  0
 15 16  1  0
 17 16  1  0
 18 11  2  0
 19 20  1  0
 21 22  2  0
 22 41  1  0
 23 22  1  0
 23 26  1  0
 24 25  1  0
 24 21  1  0
 25 23  2  0
 26 27  1  0
 27 28  2  0
 29 32  1  0
 29 28  1  0
 30 29  2  0
 31 30  1  0
 31 26  2  0
 32 33  1  0
 33 38  2  0
 33 34  1  0
 34 35  2  0
 35 36  1  0
 36 40  1  0
 37 36  2  0
 38 37  1  0
 39 38  1  0
 41 42  1  0
 42 45  1  0
 42 44  1  0
 43 41  2  0
 46 21  1  0
 46 47  1  0
 48 46  1  0
 49 50  1  0
 51 62  2  0
 52 50  1  0
 52 57  1  0
 53 61  1  0
 53 63  1  0
 54 60  1  0
 54 56  1  0
 55 61  1  0
 56 55  1  0
 57 56  2  0
 58 59  1  0
 58 52  2  0
 59 54  2  0
 60 53  1  0
 61 51  1  0
 63 65  2  0
 64 63  1  0
 66 64  1  0
 67 76  2  0
 67 72  1  0
 68 64  1  0
 68 72  1  0
 69 68  1  0
 70 71  1  0
 70 69  1  0
 71 67  1  0
 72 73  2  0
 73 74  1  0
 75 74  2  0
 76 75  1  0
 77 51  1  0
 77 82  1  0
 77 78  1  0
 78 81  1  1
 78 79  1  0
 80 78  1  0
 82 85  1  0
 83 87  1  0
 83 82  1  0
 84 83  2  0
 87 86  1  0
 89 87  1  0
 89 90  1  0
 89 88  1  0
M  ISO  4  11 100  19 100  49 101  50 101
M  END
>  <TORSDO>  (60) 
F 20

>  <SCORE>  (60) 
-12.546

>  <name>  (60) 
60

>  <ligand_id>  (60) 
60

>  <original_smiles>  (60) 
[H]c1c([H])c(C([H])([H])[H])c(C([H])([H])Oc2c([H])c([H])c3c(c2[H])C([H])([H])N(C(=O)C([H])(N([H])C(=O)C([H])(N([H])C([H])([H])[H])C([H])([H])[H])C(C([H])([H])[H])(C([H])([H])[H])C([H])([H])[H])C([H])(C(=O)N([H])C2([H])c4c([H])c([H])c([H])c([H])c4C([H])([H])C([H])([H])C2([H])[H])C3([H])[H])c(C([H])([H])C([H])([H])C([H])([H])N([H])C(=O)N2C([H])([H])C([H])([H])C([H])([H])C([H])(n3nc(-c4c([H])c([H])c(Oc5c([H])c([H])c(F)c([H])c5F)c([H])c4[H])c(C(=O)N([H])[H])c3N([H])[H])C2([H])[H])c1[H]

>  <smiles>  (60) 
[H]c1c([H])c(C([H])([H])[H])c(C([H])([H])Oc2c([H])c([H])c3c(c2[H])C([H])([H])N(C(=O)C([H])(N([H])C(=O)C([H])(N([H])C([H])([H])[H])C([H])([H])[H])C(C([H])([H])[H])(C([H])([H])[H])C([H])([H])[H])C([H])(C(=O)N([H])C2([H])c4c([H])c([H])c([H])c([H])c4C([H])([H])C([H])([H])C2([H])[H])C3([H])[H])c(C([H])([H])C([H])([H])C([H])([H])N([H])C(=O)N2C([H])([H])C([H])([H])C([H])([H])C([H])(n3nc(-c4c([H])c([H])c(Oc5c([H])c([H])c(F)c([H])c5F)c([H])c4[H])c(C(=O)N([H])[H])c3N([H])[H])C2([H])[H])c1[H]

$$$$
61:0:0
     RDKit          3D

 90 98  0  0  1  0  0  0  0  0999 V2000
  -27.2570  -21.7050   19.0980 C   0  0  0  0  0  3  0  0  0  0  0  0
  -25.9030  -22.0490   19.0100 C   0  0  0  0  0  3  0  0  0  0  0  0
  -26.3140  -24.0160   20.3380 C   0  0  0  0  0  3  0  0  0  0  0  0
  -28.2150  -22.3830   19.8950 C   0  0  0  0  0  0  0  0  0  0  0  0
  -25.4030  -23.1340   19.7410 C   0  0  0  0  0  0  0  0  0  0  0  0
  -27.7240  -23.9810   20.1810 C   0  0  0  0  0  0  0  0  0  0  0  0
  -29.6970  -21.0810   21.6210 C   0  0  0  0  0  2  0  0  0  0  0  0
  -29.1050  -20.8670   20.4360 C   0  0  0  0  0  0  0  0  0  0  0  0
  -29.4270  -19.1040   19.8120 C   0  0  0  0  0  2  0  0  0  0  0  0
  -30.3700  -15.9930   20.1470 C   0  0  0  0  0  0  0  0  0  0  0  0
  -30.5220  -13.4180   19.3750 C   0  0  0  0  0  2  0  0  0  0  0  0
  -29.6430  -12.9820   18.1630 C   0  0  0  0  0  2  0  0  0  0  0  0
  -28.2230  -12.6080   18.6110 C   0  0  0  0  0  2  0  0  0  0  0  0
  -27.6980  -13.6050   19.6670 C   0  0  0  0  0  3  0  0  0  0  0  0
  -28.7210  -13.9480   20.7800 C   0  0  0  0  0  2  0  0  0  0  0  0
  -29.8850  -14.6000   20.1330 N   0  0  0  0  0  0  0  0  0  0  0  0
  -31.5860  -15.9470   19.8730 O   0  0  0  0  0  0  0  0  0  0  0  0
  -29.5960  -17.3620   20.2970 N   0  0  0  0  0  0  0  0  0  0  0  0
  -28.6890  -17.0870   20.6480 H   0  0  0  0  0  0  0  0  0  0  0  0
  -25.3270  -14.0990   20.4290 C   0  0  0  0  0  0  0  0  0  0  0  0
  -24.2780  -13.3030   20.7920 C   0  0  0  0  0  0  0  0  0  0  0  0
  -24.7690  -11.9610   20.7620 C   0  0  0  0  0  0  0  0  0  0  0  0
  -26.3850  -13.2440   20.1860 N   0  0  0  0  0  0  0  0  0  0  0  0
  -26.0630  -11.9510   20.4540 N   0  0  0  0  0  0  0  0  0  0  0  0
  -24.0570  -10.6880   20.9500 C   0  0  0  0  0  0  0  0  0  0  0  0
  -24.4840   -9.7330   21.8990 C   0  0  0  0  0  3  0  0  0  0  0  0
  -23.7660   -8.5310   22.0780 C   0  0  0  0  0  3  0  0  0  0  0  0
  -22.6080   -8.2730   21.3070 C   0  0  0  0  0  0  0  0  0  0  0  0
  -22.1990   -9.2180   20.3480 C   0  0  0  0  0  3  0  0  0  0  0  0
  -22.9180  -10.4120   20.1680 C   0  0  0  0  0  3  0  0  0  0  0  0
  -21.8620   -7.1210   21.3930 O   0  0  0  0  0  0  0  0  0  0  0  0
  -21.7970   -6.3920   22.5530 C   0  0  0  0  0  0  0  0  0  0  0  0
  -21.3050   -6.9460   23.7550 C   0  0  0  0  0  3  0  0  0  0  0  0
  -21.1890   -6.1420   24.9060 C   0  0  0  0  0  3  0  0  0  0  0  0
  -21.5550   -4.7840   24.8560 C   0  0  0  0  0  0  0  0  0  0  0  0
  -22.0390   -4.2280   23.6590 C   0  0  0  0  0  3  0  0  0  0  0  0
  -22.1560   -5.0290   22.5100 C   0  0  0  0  0  0  0  0  0  0  0  0
  -22.6030   -4.4840   21.3530 F   0  0  0  0  0  0  0  0  0  0  0  0
  -21.4370   -4.0080   25.9590 F   0  0  0  0  0  0  0  0  0  0  0  0
  -22.8750  -13.7600   21.0510 C   0  0  0  0  0  0  0  0  0  0  0  0
  -22.1540  -13.0660   21.9250 N   0  0  0  0  0  0  0  0  0  0  0  0
  -22.4250  -14.7740   20.5160 O   0  0  0  0  0  0  0  0  0  0  0  0
  -22.5310  -12.2450   22.3760 H   0  0  0  0  0  0  0  0  0  0  0  0
  -21.2120  -13.3600   22.1470 H   0  0  0  0  0  0  0  0  0  0  0  0
  -25.4650  -15.4730   20.2520 N   0  0  0  0  0  0  0  0  0  0  0  0
  -24.6850  -16.1100   20.3730 H   0  0  0  0  0  0  0  0  0  0  0  0
  -26.3020  -15.9290   19.9130 H   0  0  0  0  0  0  0  0  0  0  0  0
  -23.1080  -22.6010   19.2070 C   0  0  0  0  0  1  0  0  0  0  0  0
  -24.0610  -23.4480   19.8440 O   0  0  0  0  0  0  0  0  0  0  0  0
  -28.0890  -25.5810   20.1920 O   0  0  0  0  0  0  0  0  0  0  0  0
  -24.6540  -31.9480   23.2690 C   0  0  0  0  0  0  0  0  0  0  0  0
  -27.1910  -26.8880   20.1650 C   0  0  0  0  0  0  0  0  0  0  0  0
  -23.4820  -30.5920   21.5860 C   0  0  0  0  0  3  0  0  0  0  0  0
  -24.9460  -28.9820   20.1420 C   0  0  0  0  0  0  0  0  0  0  0  0
  -26.0660  -30.7080   21.5160 C   0  0  0  0  0  2  0  0  0  0  0  0
  -26.1300  -29.2870   20.8230 C   0  0  0  0  0  0  0  0  0  0  0  0
  -27.2290  -28.2620   20.8220 C   0  0  0  0  0  3  0  0  0  0  0  0
  -26.0070  -26.8640   19.3720 C   0  0  0  0  0  3  0  0  0  0  0  0
  -24.9280  -27.7960   19.3930 C   0  0  0  0  0  3  0  0  0  0  0  0
  -23.7380  -29.9350   20.2000 C   0  0  0  0  0  2  0  0  0  0  0  0
  -24.7560  -31.1180   22.1750 N   0  0  0  0  0  0  0  0  0  0  0  0
  -23.5550  -32.2360   23.7780 O   0  0  0  0  0  0  0  0  0  0  0  0
  -22.7610  -29.5870   22.5250 C   0  0  0  0  0  0  0  0  0  0  0  0
  -21.4320  -29.4170   22.3750 N   0  0  0  0  0  0  0  0  0  0  0  0
  -23.4110  -28.9610   23.3660 O   0  0  0  0  0  0  0  0  0  0  0  0
  -20.9560  -29.9750   21.6800 H   0  0  0  0  0  0  0  0  0  0  0  0
  -18.0440  -28.1920   22.8580 C   0  0  0  0  0  0  0  0  0  0  0  0
  -20.6070  -28.4580   23.1220 C   0  0  0  0  0  3  0  0  0  0  0  0
  -20.7070  -27.0420   22.5060 C   0  0  0  0  0  2  0  0  0  0  0  0
  -19.6040  -26.7500   21.4840 C   0  0  0  0  0  2  0  0  0  0  0  0
  -18.2220  -26.8690   22.1330 C   0  0  0  0  0  2  0  0  0  0  0  0
  -19.1620  -28.9450   23.3080 C   0  0  0  0  0  0  0  0  0  0  0  0
  -18.9370  -30.1810   23.9530 C   0  0  0  0  0  3  0  0  0  0  0  0
  -17.6280  -30.6650   24.1450 C   0  0  0  0  0  3  0  0  0  0  0  0
  -16.5260  -29.9120   23.7070 C   0  0  0  0  0  3  0  0  0  0  0  0
  -16.7350  -28.6750   23.0710 C   0  0  0  0  0  3  0  0  0  0  0  0
  -25.9100  -32.5860   23.9340 C   0  0  0  0  0  3  0  0  0  0  0  0
  -26.3640  -31.8320   25.2440 C   0  0  1  0  0  0  0  0  0  0  0  0
  -25.2270  -31.6290   26.2730 C   0  0  0  0  0  1  0  0  0  0  0  0
  -26.9500  -30.4420   24.9160 C   0  0  0  0  0  1  0  0  0  0  0  0
  -27.4950  -32.6260   25.9420 C   0  0  0  0  0  1  0  0  0  0  0  0
  -25.5960  -33.9910   24.2570 N   0  0  0  0  0  0  0  0  0  0  0  0
  -25.9400  -35.0520   23.5130 C   0  0  0  0  0  0  0  0  0  0  0  0
  -26.6130  -34.9500   22.4850 O   0  0  0  0  0  0  0  0  0  0  0  0
  -24.9990  -34.1430   25.0570 H   0  0  0  0  0  0  0  0  0  0  0  0
  -24.2260  -36.8680   23.1770 C   0  0  0  0  0  1  0  0  0  0  0  0
  -25.4650  -36.4450   23.9820 C   0  0  0  0  0  3  0  0  0  0  0  0
  -27.6020  -37.3220   24.8170 C   0  0  0  0  0  1  0  0  0  0  0  0
  -26.5040  -37.4930   23.8700 N   0  0  0  0  0  0  0  0  0  0  0  0
  -26.0990  -38.4140   24.0190 H   0  0  0  0  0  0  0  0  0  0  0  0
  1  4  1  0
  2  1  2  0
  2  5  1  0
  4  6  2  0
  4  8  1  0
  5 49  1  0
  5  3  2  0
  6 50  1  0
  6  3  1  0
  8  7  2  0
  9 18  1  0
  9  8  1  0
 10 18  1  0
 11 16  1  0
 12 13  1  0
 12 11  1  0
 14 13  1  0
 14 23  1  0
 14 15  1  0
 16 10  1  0
 16 15  1  0
 17 10  2  0
 18 19  1  0
 20 21  2  0
 21 40  1  0
 22 21  1  0
 22 25  1  0
 23 20  1  0
 23 24  1  0
 24 22  2  0
 25 26  1  0
 26 27  2  0
 28 31  1  0
 28 27  1  0
 29 28  2  0
 30 29  1  0
 30 25  2  0
 31 32  1  0
 32 33  1  0
 33 34  2  0
 35 34  1  0
 35 39  1  0
 36 35  2  0
 37 32  2  0
 37 36  1  0
 38 37  1  0
 40 41  1  0
 41 44  1  0
 41 43  1  0
 42 40  2  0
 45 46  1  0
 45 20  1  0
 47 45  1  0
 48 49  1  0
 51 62  2  0
 52 50  1  0
 52 57  1  0
 53 61  1  0
 53 63  1  0
 54 60  1  0
 54 56  1  0
 55 61  1  0
 56 55  1  0
 57 56  2  0
 58 59  1  0
 58 52  2  0
 59 54  2  0
 60 53  1  0
 61 51  1  0
 63 65  2  0
 64 63  1  0
 66 64  1  0
 67 76  2  0
 67 72  1  0
 68 64  1  0
 68 72  1  0
 69 68  1  0
 70 71  1  0
 70 69  1  0
 71 67  1  0
 72 73  2  0
 73 74  1  0
 75 74  2  0
 76 75  1  0
 77 51  1  0
 77 82  1  0
 77 78  1  0
 78 81  1  1
 78 79  1  0
 80 78  1  0
 82 85  1  0
 83 87  1  0
 83 82  1  0
 84 83  2  0
 87 86  1  0
 89 87  1  0
 89 90  1  0
 89 88  1  0
M  ISO  4   6 101  10 100  18 100  50 101
M  END
>  <TORSDO>  (61) 
F 19

>  <SCORE>  (61) 
-15.202

>  <name>  (61) 
61

>  <ligand_id>  (61) 
61

>  <original_smiles>  (61) 
[H]C([H])=C(c1c([H])c([H])c(OC([H])([H])[H])c([H])c1Oc1c([H])c([H])c2c(c1[H])C([H])([H])N(C(=O)C([H])(N([H])C(=O)C([H])(N([H])C([H])([H])[H])C([H])([H])[H])C(C([H])([H])[H])(C([H])([H])[H])C([H])([H])[H])C([H])(C(=O)N([H])C1([H])c3c([H])c([H])c([H])c([H])c3C([H])([H])C([H])([H])C1([H])[H])C2([H])[H])C([H])([H])N([H])C(=O)N1C([H])([H])C([H])([H])C([H])([H])C([H])(n2nc(-c3c([H])c([H])c(Oc4c([H])c([H])c(F)c([H])c4F)c([H])c3[H])c(C(=O)N([H])[H])c2N([H])[H])C1([H])[H]

>  <smiles>  (61) 
[H]C([H])=C(c1c([H])c([H])c(OC([H])([H])[H])c([H])c1Oc1c([H])c([H])c2c(c1[H])C([H])([H])N(C(=O)C([H])(N([H])C(=O)C([H])(N([H])C([H])([H])[H])C([H])([H])[H])C(C([H])([H])[H])(C([H])([H])[H])C([H])([H])[H])C([H])(C(=O)N([H])C1([H])c3c([H])c([H])c([H])c([H])c3C([H])([H])C([H])([H])C1([H])[H])C2([H])[H])C([H])([H])N([H])C(=O)N1C([H])([H])C([H])([H])C([H])([H])C([H])(n2nc(-c3c([H])c([H])c(Oc4c([H])c([H])c(F)c([H])c4F)c([H])c3[H])c(C(=O)N([H])[H])c2N([H])[H])C1([H])[H]

$$$$
62:0:0
     RDKit          3D

 92100  0  0  1  0  0  0  0  0999 V2000
  -28.2010  -20.6470   20.2330 C   0  0  0  0  0  3  0  0  0  0  0  0
  -28.3640  -19.1770   20.2310 C   0  0  0  0  0  3  0  0  0  0  0  0
  -29.2230  -21.6220   20.5430 C   0  0  0  0  0  0  0  0  0  0  0  0
  -29.5580  -18.3920   20.5290 C   0  0  0  0  0  0  0  0  0  0  0  0
  -30.5830  -19.3620   20.8420 C   0  0  0  0  0  0  0  0  0  0  0  0
  -30.4220  -20.8360   20.8530 C   0  0  0  0  0  0  0  0  0  0  0  0
  -31.5520  -21.5120   21.1780 F   0  0  0  0  0  0  0  0  0  0  0  0
  -29.1660  -23.3150   20.6190 C   0  0  0  0  0  0  0  0  0  0  0  0
  -30.1840  -23.8500   21.0690 O   0  0  0  0  0  0  0  0  0  0  0  0
  -28.0120  -24.5030   20.2130 C   0  0  0  0  0  2  0  0  0  0  0  0
  -28.2510  -26.0960   20.3600 O   0  0  0  0  0  0  0  0  0  0  0  0
  -24.5770  -31.9520   23.2180 C   0  0  0  0  0  0  0  0  0  0  0  0
  -27.2070  -27.1280   20.2740 C   0  0  0  0  0  0  0  0  0  0  0  0
  -23.4020  -30.5190   21.5950 C   0  0  0  0  0  3  0  0  0  0  0  0
  -24.8730  -28.9210   20.2010 C   0  0  0  0  0  0  0  0  0  0  0  0
  -25.9620  -30.7770   21.4480 C   0  0  0  0  0  2  0  0  0  0  0  0
  -26.0500  -29.3670   20.8140 C   0  0  0  0  0  0  0  0  0  0  0  0
  -27.2140  -28.4890   20.8280 C   0  0  0  0  0  3  0  0  0  0  0  0
  -25.9980  -26.8090   19.6170 C   0  0  0  0  0  3  0  0  0  0  0  0
  -24.8650  -27.6600   19.5860 C   0  0  0  0  0  3  0  0  0  0  0  0
  -23.6410  -29.8210   20.2290 C   0  0  0  0  0  2  0  0  0  0  0  0
  -24.6670  -31.1090   22.1410 N   0  0  0  0  0  0  0  0  0  0  0  0
  -23.4830  -32.2370   23.7330 O   0  0  0  0  0  0  0  0  0  0  0  0
  -22.7190  -29.5270   22.5710 C   0  0  0  0  0  0  0  0  0  0  0  0
  -21.3900  -29.3530   22.4500 N   0  0  0  0  0  0  0  0  0  0  0  0
  -23.3910  -28.9140   23.4050 O   0  0  0  0  0  0  0  0  0  0  0  0
  -20.9040  -29.8970   21.7500 H   0  0  0  0  0  0  0  0  0  0  0  0
  -18.0130  -28.1400   22.9760 C   0  0  0  0  0  0  0  0  0  0  0  0
  -20.5720  -28.4210   23.2330 C   0  0  0  0  0  3  0  0  0  0  0  0
  -20.6800  -26.9830   22.6760 C   0  0  0  0  0  2  0  0  0  0  0  0
  -19.5780  -26.6420   21.6680 C   0  0  0  0  0  2  0  0  0  0  0  0
  -18.1960  -26.7860   22.3140 C   0  0  0  0  0  2  0  0  0  0  0  0
  -19.1290  -28.9150   23.3940 C   0  0  0  0  0  0  0  0  0  0  0  0
  -18.9020  -30.1800   23.9770 C   0  0  0  0  0  3  0  0  0  0  0  0
  -17.5930  -30.6720   24.1470 C   0  0  0  0  0  3  0  0  0  0  0  0
  -16.4930  -29.8960   23.7430 C   0  0  0  0  0  3  0  0  0  0  0  0
  -16.7040  -28.6320   23.1630 C   0  0  0  0  0  3  0  0  0  0  0  0
  -25.8420  -32.6140   23.8420 C   0  0  0  0  0  3  0  0  0  0  0  0
  -25.5080  -34.0120   24.1670 N   0  0  0  0  0  0  0  0  0  0  0  0
  -25.8490  -35.0730   23.4240 C   0  0  0  0  0  0  0  0  0  0  0  0
  -26.5420  -34.9800   22.4080 O   0  0  0  0  0  0  0  0  0  0  0  0
  -24.8950  -34.1570   24.9560 H   0  0  0  0  0  0  0  0  0  0  0  0
  -24.1340  -36.8720   23.0230 C   0  0  0  0  0  1  0  0  0  0  0  0
  -25.3430  -36.4590   23.8770 C   0  0  0  0  0  3  0  0  0  0  0  0
  -27.4410  -37.3400   24.8030 C   0  0  0  0  0  1  0  0  0  0  0  0
  -26.3790  -37.5150   23.8150 N   0  0  0  0  0  0  0  0  0  0  0  0
  -25.9660  -38.4330   23.9530 H   0  0  0  0  0  0  0  0  0  0  0  0
  -26.3580  -31.8650   25.1330 C   0  0  1  0  0  0  0  0  0  0  0  0
  -25.2610  -31.6240   26.1960 C   0  0  0  0  0  1  0  0  0  0  0  0
  -26.9640  -30.4900   24.7680 C   0  0  0  0  0  1  0  0  0  0  0  0
  -27.4950  -32.6810   25.7910 C   0  0  0  0  0  1  0  0  0  0  0  0
  -31.8290  -18.8890   21.1280 O   0  0  0  0  0  0  0  0  0  0  0  0
  -32.4070  -19.6260   21.3070 H   0  0  0  0  0  0  0  0  0  0  0  0
  -29.6010  -16.6840   20.2850 C   0  0  0  0  0  3  0  0  0  0  0  0
  -30.5490  -15.3080   20.7410 C   0  0  0  0  0  0  0  0  0  0  0  0
  -30.6520  -12.8360   20.0400 C   0  0  0  0  0  2  0  0  0  0  0  0
  -29.8380  -12.5980   18.7420 C   0  0  0  0  0  2  0  0  0  0  0  0
  -28.3400  -12.3880   19.0430 C   0  0  0  0  0  2  0  0  0  0  0  0
  -27.7950  -13.3860   20.0940 C   0  0  0  0  0  3  0  0  0  0  0  0
  -28.7430  -13.5410   21.2990 C   0  0  0  0  0  2  0  0  0  0  0  0
  -30.0480  -13.9870   20.7850 N   0  0  0  0  0  0  0  0  0  0  0  0
  -31.7860  -15.3670   20.7200 O   0  0  0  0  0  0  0  0  0  0  0  0
  -25.3700  -13.9740   20.6410 C   0  0  0  0  0  0  0  0  0  0  0  0
  -24.2770  -13.2070   20.9280 C   0  0  0  0  0  0  0  0  0  0  0  0
  -24.7380  -11.8540   20.9500 C   0  0  0  0  0  0  0  0  0  0  0  0
  -26.4250  -13.0900   20.4950 N   0  0  0  0  0  0  0  0  0  0  0  0
  -26.0500  -11.8110   20.7480 N   0  0  0  0  0  0  0  0  0  0  0  0
  -23.9930  -10.5970   21.0870 C   0  0  0  0  0  0  0  0  0  0  0  0
  -24.3690   -9.6160   22.0300 C   0  0  0  0  0  3  0  0  0  0  0  0
  -23.6250   -8.4240   22.1590 C   0  0  0  0  0  3  0  0  0  0  0  0
  -22.4910   -8.2030   21.3410 C   0  0  0  0  0  0  0  0  0  0  0  0
  -22.1310   -9.1740   20.3900 C   0  0  0  0  0  3  0  0  0  0  0  0
  -22.8780  -10.3580   20.2610 C   0  0  0  0  0  3  0  0  0  0  0  0
  -21.7210   -7.0650   21.3790 O   0  0  0  0  0  0  0  0  0  0  0  0
  -21.6330   -6.2950   22.5110 C   0  0  0  0  0  0  0  0  0  0  0  0
  -21.1640   -6.8200   23.7340 C   0  0  0  0  0  3  0  0  0  0  0  0
  -21.0200   -5.9760   24.8540 C   0  0  0  0  0  3  0  0  0  0  0  0
  -21.3350   -4.6070   24.7500 C   0  0  0  0  0  0  0  0  0  0  0  0
  -21.7960   -4.0830   23.5300 C   0  0  0  0  0  3  0  0  0  0  0  0
  -21.9410   -4.9240   22.4140 C   0  0  0  0  0  0  0  0  0  0  0  0
  -22.3650   -4.4070   21.2360 F   0  0  0  0  0  0  0  0  0  0  0  0
  -21.1920   -3.7950   25.8230 F   0  0  0  0  0  0  0  0  0  0  0  0
  -22.8630  -13.6920   21.0730 C   0  0  0  0  0  0  0  0  0  0  0  0
  -22.0640  -13.0230   21.8940 N   0  0  0  0  0  0  0  0  0  0  0  0
  -22.4750  -14.7080   20.4970 O   0  0  0  0  0  0  0  0  0  0  0  0
  -22.3860  -12.2040   22.3890 H   0  0  0  0  0  0  0  0  0  0  0  0
  -21.1140  -13.3400   22.0320 H   0  0  0  0  0  0  0  0  0  0  0  0
  -25.5530  -15.3430   20.4640 N   0  0  0  0  0  0  0  0  0  0  0  0
  -24.7820  -16.0010   20.5070 H   0  0  0  0  0  0  0  0  0  0  0  0
  -26.4200  -15.7750   20.1770 H   0  0  0  0  0  0  0  0  0  0  0  0
  -30.7190  -17.0960   17.9780 C   0  0  0  0  0  1  0  0  0  0  0  0
  -29.4960  -16.5560   18.7420 C   0  0  0  0  0  2  0  0  0  0  0  0
  1  3  1  0
  2  1  2  0
  2  4  1  0
  3  8  1  0
  3  6  2  0
  4  5  2  0
  5  6  1  0
  5 52  1  0
  6  7  1  0
  8  9  2  0
 10 11  1  0
 10  8  1  0
 12 23  2  0
 13 11  1  0
 13 18  1  0
 14 22  1  0
 14 24  1  0
 15 21  1  0
 15 17  1  0
 16 22  1  0
 17 18  2  0
 17 16  1  0
 19 13  2  0
 20 19  1  0
 20 15  2  0
 21 14  1  0
 22 12  1  0
 24 26  2  0
 25 24  1  0
 27 25  1  0
 28 37  2  0
 28 33  1  0
 29 25  1  0
 29 33  1  0
 30 29  1  0
 31 32  1  0
 31 30  1  0
 32 28  1  0
 33 34  2  0
 34 35  1  0
 36 35  2  0
 37 36  1  0
 38 12  1  0
 38 39  1  0
 38 48  1  0
 39 42  1  0
 40 44  1  0
 40 39  1  0
 41 40  2  0
 44 43  1  0
 46 44  1  0
 46 47  1  0
 46 45  1  0
 48 51  1  1
 48 49  1  0
 50 48  1  0
 52 53  1  0
 54 92  1  0
 54  4  1  0
 54 55  1  0
 55 61  1  0
 56 61  1  0
 57 58  1  0
 57 56  1  0
 59 58  1  0
 59 66  1  0
 59 60  1  0
 61 60  1  0
 62 55  2  0
 63 64  2  0
 64 65  1  0
 64 83  1  0
 65 68  1  0
 66 63  1  0
 66 67  1  0
 67 65  2  0
 68 69  1  0
 69 70  2  0
 71 74  1  0
 71 70  1  0
 72 71  2  0
 73 72  1  0
 73 68  2  0
 74 75  1  0
 75 76  1  0
 76 77  2  0
 78 77  1  0
 78 82  1  0
 79 78  2  0
 80 75  2  0
 80 79  1  0
 81 80  1  0
 83 84  1  0
 84 87  1  0
 84 86  1  0
 85 83  2  0
 88 89  1  0
 88 63  1  0
 90 88  1  0
 91 92  1  0
M  ISO  4  10 101  11 101  54 100  55 100
M  END
>  <TORSDO>  (62) 
F 21

>  <SCORE>  (62) 
-15.496

>  <name>  (62) 
62

>  <ligand_id>  (62) 
62

>  <original_smiles>  (62) 
[H]Oc1c(F)c(C(=O)C([H])([H])Oc2c([H])c([H])c3c(c2[H])C([H])([H])N(C(=O)C([H])(N([H])C(=O)C([H])(N([H])C([H])([H])[H])C([H])([H])[H])C(C([H])([H])[H])(C([H])([H])[H])C([H])([H])[H])C([H])(C(=O)N([H])C2([H])c4c([H])c([H])c([H])c([H])c4C([H])([H])C([H])([H])C2([H])[H])C3([H])[H])c([H])c([H])c1C([H])(C(=O)N1C([H])([H])C([H])([H])C([H])([H])C([H])(n2nc(-c3c([H])c([H])c(Oc4c([H])c([H])c(F)c([H])c4F)c([H])c3[H])c(C(=O)N([H])[H])c2N([H])[H])C1([H])[H])C([H])([H])C([H])([H])[H]

>  <smiles>  (62) 
[H]Oc1c(F)c(C(=O)C([H])([H])Oc2c([H])c([H])c3c(c2[H])C([H])([H])N(C(=O)C([H])(N([H])C(=O)C([H])(N([H])C([H])([H])[H])C([H])([H])[H])C(C([H])([H])[H])(C([H])([H])[H])C([H])([H])[H])C([H])(C(=O)N([H])C2([H])c4c([H])c([H])c([H])c([H])c4C([H])([H])C([H])([H])C2([H])[H])C3([H])[H])c([H])c([H])c1C([H])(C(=O)N1C([H])([H])C([H])([H])C([H])([H])C([H])(n2nc(-c3c([H])c([H])c(Oc4c([H])c([H])c(F)c([H])c4F)c([H])c3[H])c(C(=O)N([H])[H])c2N([H])[H])C1([H])[H])C([H])([H])C([H])([H])[H]

$$$$
63:0:0
     RDKit          3D

 94102  0  0  1  0  0  0  0  0999 V2000
  -29.4370  -22.1680   19.5560 C   0  0  0  0  0  3  0  0  0  0  0  0
  -29.8760  -20.8160   19.4380 C   0  0  0  0  0  3  0  0  0  0  0  0
  -29.9730  -22.1030   21.8990 C   0  0  0  0  0  3  0  0  0  0  0  0
  -29.4880  -22.8570   20.7940 C   0  0  0  0  0  0  0  0  0  0  0  0
  -30.3930  -20.0760   20.5390 C   0  0  0  0  0  0  0  0  0  0  0  0
  -30.4240  -20.7560   21.7880 C   0  0  0  0  0  0  0  0  0  0  0  0
  -30.9690  -20.0800   23.0330 C   0  0  0  0  0  1  0  0  0  0  0  0
  -29.1080  -24.3310   20.9950 C   0  0  0  0  0  0  0  0  0  0  0  0
  -29.2340  -24.8650   22.1040 O   0  0  0  0  0  0  0  0  0  0  0  0
  -28.5340  -25.2130   19.8370 C   0  0  0  0  0  2  0  0  0  0  0  0
  -28.4970  -26.6520   20.1600 O   0  0  0  0  0  0  0  0  0  0  0  0
  -24.6340  -31.8630   23.2250 C   0  0  0  0  0  0  0  0  0  0  0  0
  -27.3170  -27.3990   20.1220 C   0  0  0  0  0  0  0  0  0  0  0  0
  -23.4470  -30.4650   21.5710 C   0  0  0  0  0  3  0  0  0  0  0  0
  -24.9170  -28.9470   20.1340 C   0  0  0  0  0  0  0  0  0  0  0  0
  -25.9790  -30.8240   21.3920 C   0  0  0  0  0  2  0  0  0  0  0  0
  -26.0730  -29.4550   20.7370 C   0  0  0  0  0  0  0  0  0  0  0  0
  -27.2710  -28.6890   20.7250 C   0  0  0  0  0  3  0  0  0  0  0  0
  -26.1350  -26.9320   19.4990 C   0  0  0  0  0  3  0  0  0  0  0  0
  -24.9480  -27.6900   19.5110 C   0  0  0  0  0  3  0  0  0  0  0  0
  -23.6680  -29.8020   20.1850 C   0  0  0  0  0  2  0  0  0  0  0  0
  -24.7040  -31.0680   22.1200 N   0  0  0  0  0  0  0  0  0  0  0  0
  -23.5480  -32.1240   23.7620 O   0  0  0  0  0  0  0  0  0  0  0  0
  -22.7990  -29.4310   22.5220 C   0  0  0  0  0  0  0  0  0  0  0  0
  -21.4820  -29.2150   22.3680 N   0  0  0  0  0  0  0  0  0  0  0  0
  -23.4780  -28.8280   23.3560 O   0  0  0  0  0  0  0  0  0  0  0  0
  -20.9930  -29.7530   21.6660 H   0  0  0  0  0  0  0  0  0  0  0  0
  -18.1380  -27.8990   22.7670 C   0  0  0  0  0  0  0  0  0  0  0  0
  -20.6730  -28.2570   23.1220 C   0  0  0  0  0  3  0  0  0  0  0  0
  -20.8490  -26.8230   22.5700 C   0  0  0  0  0  2  0  0  0  0  0  0
  -19.7950  -26.4460   21.5240 C   0  0  0  0  0  2  0  0  0  0  0  0
  -18.3870  -26.5470   22.1190 C   0  0  0  0  0  2  0  0  0  0  0  0
  -19.2120  -28.7080   23.2250 C   0  0  0  0  0  0  0  0  0  0  0  0
  -18.9260  -29.9700   23.7890 C   0  0  0  0  0  3  0  0  0  0  0  0
  -17.5990  -30.4250   23.9020 C   0  0  0  0  0  3  0  0  0  0  0  0
  -16.5380  -29.6140   23.4630 C   0  0  0  0  0  3  0  0  0  0  0  0
  -16.8080  -28.3530   22.9010 C   0  0  0  0  0  3  0  0  0  0  0  0
  -25.9110  -32.5030   23.8550 C   0  0  0  0  0  3  0  0  0  0  0  0
  -25.5950  -33.9010   24.1760 N   0  0  0  0  0  0  0  0  0  0  0  0
  -25.9370  -34.9520   23.4190 C   0  0  0  0  0  0  0  0  0  0  0  0
  -26.6230  -34.8460   22.3980 O   0  0  0  0  0  0  0  0  0  0  0  0
  -24.9870  -34.0580   24.9670 H   0  0  0  0  0  0  0  0  0  0  0  0
  -24.2170  -36.7460   23.0240 C   0  0  0  0  0  1  0  0  0  0  0  0
  -25.4400  -36.3410   23.8640 C   0  0  0  0  0  3  0  0  0  0  0  0
  -27.5530  -37.2270   24.7440 C   0  0  0  0  0  1  0  0  0  0  0  0
  -26.4740  -37.3950   23.7730 N   0  0  0  0  0  0  0  0  0  0  0  0
  -26.0650  -38.3140   23.9090 H   0  0  0  0  0  0  0  0  0  0  0  0
  -26.4180  -31.7380   25.1390 C   0  0  1  0  0  0  0  0  0  0  0  0
  -25.3180  -31.5030   26.1990 C   0  0  0  0  0  1  0  0  0  0  0  0
  -27.0080  -30.3600   24.7580 C   0  0  0  0  0  1  0  0  0  0  0  0
  -27.5630  -32.5380   25.8070 C   0  0  0  0  0  1  0  0  0  0  0  0
  -31.0070  -18.6490   20.3050 C   0  0  0  0  0  2  0  0  0  0  0  0
  -30.4310  -17.3950   21.0880 C   0  0  0  0  0  2  0  0  0  0  0  0
  -29.9980  -16.0540   20.3450 C   0  0  0  0  0  3  0  0  0  0  0  0
  -30.8970  -14.7530   20.2570 C   0  0  0  0  0  0  0  0  0  0  0  0
  -30.6850  -12.5220   19.1950 C   0  0  0  0  0  2  0  0  0  0  0  0
  -29.7370  -12.6900   17.9800 C   0  0  0  0  0  2  0  0  0  0  0  0
  -28.2530  -12.5610   18.3960 C   0  0  0  0  0  2  0  0  0  0  0  0
  -27.9080  -13.3930   19.6580 C   0  0  0  0  0  3  0  0  0  0  0  0
  -28.9700  -13.1840   20.7620 C   0  0  0  0  0  2  0  0  0  0  0  0
  -30.2930  -13.5200   20.2100 N   0  0  0  0  0  0  0  0  0  0  0  0
  -32.0640  -14.9050   19.8960 O   0  0  0  0  0  0  0  0  0  0  0  0
  -25.5230  -14.0270   20.3770 C   0  0  0  0  0  0  0  0  0  0  0  0
  -24.4510  -13.2670   20.7560 C   0  0  0  0  0  0  0  0  0  0  0  0
  -24.9020  -11.9120   20.7360 C   0  0  0  0  0  0  0  0  0  0  0  0
  -26.5580  -13.1320   20.1450 N   0  0  0  0  0  0  0  0  0  0  0  0
  -26.1900  -11.8570   20.4240 N   0  0  0  0  0  0  0  0  0  0  0  0
  -24.1670  -10.6580   20.9380 C   0  0  0  0  0  0  0  0  0  0  0  0
  -24.5860   -9.7060   21.8930 C   0  0  0  0  0  3  0  0  0  0  0  0
  -23.8550   -8.5140   22.0800 C   0  0  0  0  0  3  0  0  0  0  0  0
  -22.6920   -8.2670   21.3110 C   0  0  0  0  0  0  0  0  0  0  0  0
  -22.2960   -9.2070   20.3450 C   0  0  0  0  0  3  0  0  0  0  0  0
  -23.0260  -10.3920   20.1560 C   0  0  0  0  0  3  0  0  0  0  0  0
  -21.9320   -7.1260   21.4060 O   0  0  0  0  0  0  0  0  0  0  0  0
  -21.8480   -6.4140   22.5760 C   0  0  0  0  0  0  0  0  0  0  0  0
  -21.3770   -6.9990   23.7710 C   0  0  0  0  0  3  0  0  0  0  0  0
  -21.2400   -6.2130   24.9330 C   0  0  0  0  0  3  0  0  0  0  0  0
  -21.5630   -4.8430   24.9000 C   0  0  0  0  0  0  0  0  0  0  0  0
  -22.0260   -4.2570   23.7090 C   0  0  0  0  0  3  0  0  0  0  0  0
  -22.1660   -5.0420   22.5500 C   0  0  0  0  0  0  0  0  0  0  0  0
  -22.5920   -4.4670   21.3990 F   0  0  0  0  0  0  0  0  0  0  0  0
  -21.4240   -4.0860   26.0140 F   0  0  0  0  0  0  0  0  0  0  0  0
  -23.0580  -13.7580   21.0230 C   0  0  0  0  0  0  0  0  0  0  0  0
  -22.3260  -13.0780   21.8990 N   0  0  0  0  0  0  0  0  0  0  0  0
  -22.6250  -14.7780   20.4890 O   0  0  0  0  0  0  0  0  0  0  0  0
  -22.6890  -12.2550   22.3570 H   0  0  0  0  0  0  0  0  0  0  0  0
  -21.3890  -13.3850   22.1160 H   0  0  0  0  0  0  0  0  0  0  0  0
  -25.6950  -15.3960   20.1860 N   0  0  0  0  0  0  0  0  0  0  0  0
  -24.9200  -16.0450   20.2780 H   0  0  0  0  0  0  0  0  0  0  0  0
  -26.5200  -15.8250   19.7900 H   0  0  0  0  0  0  0  0  0  0  0  0
  -29.5690  -16.3590   18.9710 N   0  0  0  0  0  4  0  0  0  0  0  0
  -30.4380  -15.8570   18.8350 H   0  0  0  0  0  0  0  0  0  0  0  0
  -29.4670  -17.3040   19.2970 H   0  0  0  0  0  0  0  0  0  0  0  0
  -30.0020  -16.8060   18.1790 H   0  0  0  0  0  0  0  0  0  0  0  0
  1  4  1  0
  2  1  2  0
  2  5  1  0
  4  8  1  0
  4  3  2  0
  5  6  2  0
  6  3  1  0
  6  7  1  0
  8  9  2  0
 10 11  1  0
 10  8  1  0
 12 23  2  0
 13 11  1  0
 13 18  1  0
 14 22  1  0
 14 24  1  0
 15 21  1  0
 15 17  1  0
 16 22  1  0
 17 16  1  0
 18 17  2  0
 19 20  1  0
 19 13  2  0
 20 15  2  0
 21 14  1  0
 22 12  1  0
 24 26  2  0
 25 24  1  0
 27 25  1  0
 28 37  2  0
 28 33  1  0
 29 25  1  0
 29 33  1  0
 30 29  1  0
 31 32  1  0
 31 30  1  0
 32 28  1  0
 33 34  2  0
 34 35  1  0
 36 35  2  0
 37 36  1  0
 38 12  1  0
 38 39  1  0
 38 48  1  0
 39 42  1  0
 40 44  1  0
 40 39  1  0
 41 40  2  0
 44 43  1  0
 46 44  1  0
 46 47  1  0
 46 45  1  0
 48 51  1  1
 48 49  1  0
 50 48  1  0
 52  5  1  0
 52 53  1  0
 54 53  1  0
 55 54  1  0
 56 61  1  0
 57 58  1  0
 57 56  1  0
 59 58  1  0
 59 66  1  0
 59 60  1  0
 61 55  1  0
 61 60  1  0
 62 55  2  0
 63 64  2  0
 64 83  1  0
 65 64  1  0
 65 68  1  0
 66 63  1  0
 66 67  1  0
 67 65  2  0
 68 69  1  0
 69 70  2  0
 71 74  1  0
 71 70  1  0
 72 71  2  0
 73 72  1  0
 73 68  2  0
 74 75  1  0
 75 76  1  0
 76 77  2  0
 78 77  1  0
 78 82  1  0
 79 78  2  0
 80 75  2  0
 80 79  1  0
 81 80  1  0
 83 84  1  0
 84 87  1  0
 84 86  1  0
 85 83  2  0
 88 89  1  0
 88 63  1  0
 90 88  1  0
 91 93  1  0
 91 54  1  0
 92 91  1  0
 94 91  1  0
M  ISO  4  10 101  11 101  54 100  55 100
M  END
>  <TORSDO>  (63) 
F 22

>  <SCORE>  (63) 
-13.409

>  <name>  (63) 
63

>  <ligand_id>  (63) 
63

>  <original_smiles>  (63) 
[H]c1c([H])c([H])c2c(c1[H])C([H])([H])C([H])([H])C([H])([H])C2([H])N([H])C(=O)C1([H])N(C(=O)C([H])(N([H])C(=O)C([H])(N([H])C([H])([H])[H])C([H])([H])[H])C(C([H])([H])[H])(C([H])([H])[H])C([H])([H])[H])C([H])([H])c2c([H])c(OC([H])([H])C(=O)c3c([H])c([H])c(C([H])([H])C([H])([H])C([H])(C(=O)N4C([H])([H])C([H])([H])C([H])([H])C([H])(n5nc(-c6c([H])c([H])c(Oc7c([H])c([H])c(F)c([H])c7F)c([H])c6[H])c(C(=O)N([H])[H])c5N([H])[H])C4([H])[H])[N+]([H])([H])[H])c(C([H])([H])[H])c3[H])c([H])c([H])c2C1([H])[H]

>  <smiles>  (63) 
[H]c1c([H])c([H])c2c(c1[H])C([H])([H])C([H])([H])C([H])([H])C2([H])N([H])C(=O)C1([H])N(C(=O)C([H])(N([H])C(=O)C([H])(N([H])C([H])([H])[H])C([H])([H])[H])C(C([H])([H])[H])(C([H])([H])[H])C([H])([H])[H])C([H])([H])c2c([H])c(OC([H])([H])C(=O)c3c([H])c([H])c(C([H])([H])C([H])([H])C([H])(C(=O)N4C([H])([H])C([H])([H])C([H])([H])C([H])(n5nc(-c6c([H])c([H])c(Oc7c([H])c([H])c(F)c([H])c7F)c([H])c6[H])c(C(=O)N([H])[H])c5N([H])[H])C4([H])[H])[N+]([H])([H])[H])c(C([H])([H])[H])c3[H])c([H])c([H])c2C1([H])[H]

$$$$
64:0:0
     RDKit          3D

105115  0  0  1  0  0  0  0  0999 V2000
  -28.4210  -23.6930   18.2440 C   0  0  0  0  0  2  0  0  0  0  0  0
  -28.1270  -23.2680   16.8020 C   0  0  0  0  0  2  0  0  0  0  0  0
  -31.7090  -23.5530   16.9560 C   0  0  0  0  0  2  0  0  0  0  0  0
  -30.1760  -22.0330   15.7920 C   0  0  0  0  0  2  0  0  0  0  0  0
  -31.5460  -22.1010   16.4710 C   0  0  0  0  0  3  0  0  0  0  0  0
  -29.6030  -24.6840   18.1760 C   0  0  0  0  0  3  0  0  0  0  0  0
  -30.3660  -24.3420   16.8270 C   0  0  2  0  0  0  0  0  0  0  0  0
  -29.4410  -23.3810   16.0120 C   0  0  2  0  0  0  0  0  0  0  0  0
  -30.6010  -25.6790   16.0660 C   0  0  0  0  0  1  0  0  0  0  0  0
  -32.7700  -20.0070   17.3000 C   0  0  0  0  0  3  0  0  0  0  0  0
  -32.9270  -18.9280   18.2000 C   0  0  0  0  0  3  0  0  0  0  0  0
  -30.9650  -20.8670   18.6550 C   0  0  0  0  0  3  0  0  0  0  0  0
  -31.7760  -20.9890   17.5100 C   0  0  0  0  0  0  0  0  0  0  0  0
  -32.0940  -18.7960   19.3350 C   0  0  0  0  0  0  0  0  0  0  0  0
  -31.1070  -19.7850   19.5510 C   0  0  0  0  0  0  0  0  0  0  0  0
  -30.2740  -19.7000   20.6150 F   0  0  0  0  0  0  0  0  0  0  0  0
  -32.2750  -17.6030   20.2900 C   0  0  0  0  0  2  0  0  0  0  0  0
  -31.0350  -16.6780   20.3620 C   0  0  0  0  0  2  0  0  0  0  0  0
  -31.8240  -14.4060   21.1330 C   0  0  0  0  0  0  0  0  0  0  0  0
  -31.4980  -12.2500   20.0190 C   0  0  0  0  0  2  0  0  0  0  0  0
  -30.7290  -12.5650   18.7180 C   0  0  0  0  0  2  0  0  0  0  0  0
  -29.2060  -12.5620   18.9620 C   0  0  0  0  0  2  0  0  0  0  0  0
  -28.7940  -13.4020   20.2000 C   0  0  0  0  0  3  0  0  0  0  0  0
  -29.6960  -13.0840   21.4180 C   0  0  0  0  0  2  0  0  0  0  0  0
  -31.1020  -13.2580   21.0130 N   0  0  0  0  0  0  0  0  0  0  0  0
  -33.0230  -14.4790   20.8580 O   0  0  0  0  0  0  0  0  0  0  0  0
  -31.0720  -15.5150   21.2810 N   0  0  0  0  0  0  0  0  0  0  0  0
  -30.1810  -15.3340   21.7170 H   0  0  0  0  0  0  0  0  0  0  0  0
  -26.3870  -14.2100   20.6290 C   0  0  0  0  0  0  0  0  0  0  0  0
  -25.2240  -13.5350   20.8650 C   0  0  0  0  0  0  0  0  0  0  0  0
  -25.5680  -12.1470   20.8770 C   0  0  0  0  0  0  0  0  0  0  0  0
  -27.3750  -13.2440   20.5130 N   0  0  0  0  0  0  0  0  0  0  0  0
  -26.8780  -11.9970   20.7230 N   0  0  0  0  0  0  0  0  0  0  0  0
  -24.7200  -10.9530   20.9710 C   0  0  0  0  0  0  0  0  0  0  0  0
  -24.9880   -9.9280   21.9070 C   0  0  0  0  0  3  0  0  0  0  0  0
  -24.1460   -8.7990   21.9900 C   0  0  0  0  0  3  0  0  0  0  0  0
  -23.0220   -8.6840   21.1370 C   0  0  0  0  0  0  0  0  0  0  0  0
  -22.7720   -9.6990   20.1930 C   0  0  0  0  0  3  0  0  0  0  0  0
  -23.6140  -10.8190   20.1080 C   0  0  0  0  0  3  0  0  0  0  0  0
  -22.1650   -7.6100   21.1290 O   0  0  0  0  0  0  0  0  0  0  0  0
  -21.8950   -6.8980   22.2690 C   0  0  0  0  0  0  0  0  0  0  0  0
  -21.3660   -7.5130   23.4240 C   0  0  0  0  0  3  0  0  0  0  0  0
  -21.0360   -6.7320   24.5500 C   0  0  0  0  0  3  0  0  0  0  0  0
  -21.2280   -5.3370   24.5200 C   0  0  0  0  0  0  0  0  0  0  0  0
  -21.7480   -4.7220   23.3680 C   0  0  0  0  0  3  0  0  0  0  0  0
  -22.0790   -5.5010   22.2440 C   0  0  0  0  0  0  0  0  0  0  0  0
  -22.5620   -4.9000   21.1300 F   0  0  0  0  0  0  0  0  0  0  0  0
  -20.9040   -4.5840   25.5970 F   0  0  0  0  0  0  0  0  0  0  0  0
  -23.8500  -14.1290   20.9730 C   0  0  0  0  0  0  0  0  0  0  0  0
  -22.9900  -13.5370   21.7920 N   0  0  0  0  0  0  0  0  0  0  0  0
  -23.5480  -15.1570   20.3660 O   0  0  0  0  0  0  0  0  0  0  0  0
  -23.2390  -12.7020   22.3020 H   0  0  0  0  0  0  0  0  0  0  0  0
  -22.0670  -13.9270   21.9150 H   0  0  0  0  0  0  0  0  0  0  0  0
  -26.6810  -15.5640   20.4810 N   0  0  0  0  0  0  0  0  0  0  0  0
  -25.9490  -16.2670   20.4980 H   0  0  0  0  0  0  0  0  0  0  0  0
  -27.5830  -15.9370   20.2180 H   0  0  0  0  0  0  0  0  0  0  0  0
  -29.1020  -23.8750   14.7230 O   0  0  0  0  0  0  0  0  0  0  0  0
  -28.4490  -23.2970   14.3470 H   0  0  0  0  0  0  0  0  0  0  0  0
  -30.4620  -24.8780   19.4870 C   0  0  0  0  0  3  0  0  0  0  0  0
  -31.5310  -25.8830   19.2800 N   0  0  0  0  0  4  0  0  0  0  0  0
  -31.1450  -26.7990   19.1200 H   0  0  0  0  0  0  0  0  0  0  0  0
  -32.1050  -25.6320   18.4900 H   0  0  0  0  0  0  0  0  0  0  0  0
  -32.1300  -25.9410   20.0850 H   0  0  0  0  0  0  0  0  0  0  0  0
  -29.7210  -25.1750   20.8460 C   0  0  0  0  0  2  0  0  0  0  0  0
  -29.6110  -26.5670   21.2470 O   0  0  0  0  0  0  0  0  0  0  0  0
  -25.1520  -31.7870   23.4300 C   0  0  0  0  0  0  0  0  0  0  0  0
  -28.4090  -27.2370   21.0920 C   0  0  0  0  0  0  0  0  0  0  0  0
  -24.2730  -30.2080   21.7480 C   0  0  0  0  0  3  0  0  0  0  0  0
  -25.9820  -28.6450   20.6900 C   0  0  0  0  0  0  0  0  0  0  0  0
  -26.7940  -30.6590   21.9250 C   0  0  0  0  0  2  0  0  0  0  0  0
  -27.0260  -29.2530   21.3980 C   0  0  0  0  0  0  0  0  0  0  0  0
  -28.2480  -28.5590   21.5900 C   0  0  0  0  0  3  0  0  0  0  0  0
  -27.3260  -26.6450   20.4100 C   0  0  0  0  0  3  0  0  0  0  0  0
  -26.1250  -27.3390   20.2040 C   0  0  0  0  0  3  0  0  0  0  0  0
  -24.7200  -29.4460   20.4780 C   0  0  0  0  0  2  0  0  0  0  0  0
  -25.4150  -30.9060   22.4230 N   0  0  0  0  0  0  0  0  0  0  0  0
  -23.9880  -32.0480   23.7660 O   0  0  0  0  0  0  0  0  0  0  0  0
  -23.5170  -29.2260   22.6740 C   0  0  0  0  0  0  0  0  0  0  0  0
  -22.6310  -28.4030   22.0870 N   0  0  0  0  0  0  0  0  0  0  0  0
  -23.7540  -29.1960   23.8850 O   0  0  0  0  0  0  0  0  0  0  0  0
  -22.4720  -28.5040   21.0950 H   0  0  0  0  0  0  0  0  0  0  0  0
  -20.3500  -25.6540   21.5270 C   0  0  0  0  0  0  0  0  0  0  0  0
  -21.8380  -27.3740   22.7580 C   0  0  0  0  0  3  0  0  0  0  0  0
  -22.7140  -26.1670   23.1640 C   0  0  0  0  0  2  0  0  0  0  0  0
  -22.7350  -25.0510   22.1170 C   0  0  0  0  0  2  0  0  0  0  0  0
  -21.3190  -24.5310   21.8540 C   0  0  0  0  0  2  0  0  0  0  0  0
  -20.6030  -26.9900   21.9350 C   0  0  0  0  0  0  0  0  0  0  0  0
  -19.6890  -28.0030   21.5720 C   0  0  0  0  0  3  0  0  0  0  0  0
  -18.5430  -27.7010   20.8140 C   0  0  0  0  0  3  0  0  0  0  0  0
  -18.2910  -26.3750   20.4230 C   0  0  0  0  0  3  0  0  0  0  0  0
  -19.1880  -25.3530   20.7840 C   0  0  0  0  0  3  0  0  0  0  0  0
  -26.2980  -32.5320   24.1840 C   0  0  0  0  0  3  0  0  0  0  0  0
  -25.8180  -33.8870   24.4920 N   0  0  0  0  0  0  0  0  0  0  0  0
  -26.1000  -34.9780   23.7680 C   0  0  0  0  0  0  0  0  0  0  0  0
  -26.8580  -34.9610   22.7920 O   0  0  0  0  0  0  0  0  0  0  0  0
  -25.1460  -33.9710   25.2410 H   0  0  0  0  0  0  0  0  0  0  0  0
  -24.2100  -36.5710   23.2980 C   0  0  0  0  0  1  0  0  0  0  0  0
  -25.4320  -36.3000   24.1910 C   0  0  0  0  0  3  0  0  0  0  0  0
  -27.3900  -37.4040   25.1780 C   0  0  0  0  0  1  0  0  0  0  0  0
  -26.3460  -37.4620   24.1590 N   0  0  0  0  0  0  0  0  0  0  0  0
  -25.8310  -38.3300   24.2860 H   0  0  0  0  0  0  0  0  0  0  0  0
  -26.7660  -31.7900   25.4990 C   0  0  1  0  0  0  0  0  0  0  0  0
  -25.6140  -31.0970   26.2640 C   0  0  0  0  0  1  0  0  0  0  0  0
  -27.8280  -30.7080   25.1840 C   0  0  0  0  0  1  0  0  0  0  0  0
  -27.4390  -32.7960   26.4630 C   0  0  0  0  0  1  0  0  0  0  0  0
  2  1  1  0
  4  8  1  0
  4  5  1  0
  5  3  1  0
  5 13  1  0
  6  1  1  0
  6 59  1  0
  7  9  1  6
  7  3  1  0
  7  6  1  0
  8 57  1  6
  8  2  1  0
  8  7  1  0
 10 13  2  0
 10 11  1  0
 11 14  2  0
 12 15  2  0
 13 12  1  0
 14 15  1  0
 14 17  1  0
 15 16  1  0
 17 18  1  0
 18 27  1  0
 19 27  1  0
 20 25  1  0
 21 22  1  0
 21 20  1  0
 23 22  1  0
 23 32  1  0
 23 24  1  0
 25 19  1  0
 25 24  1  0
 26 19  2  0
 27 28  1  0
 29 30  2  0
 30 31  1  0
 30 49  1  0
 31 34  1  0
 32 29  1  0
 32 33  1  0
 33 31  2  0
 34 35  1  0
 35 36  2  0
 37 36  1  0
 38 37  2  0
 39 38  1  0
 39 34  2  0
 40 37  1  0
 40 41  1  0
 41 42  1  0
 42 43  2  0
 44 43  1  0
 44 48  1  0
 45 44  2  0
 46 41  2  0
 46 45  1  0
 47 46  1  0
 49 50  1  0
 50 53  1  0
 50 52  1  0
 51 49  2  0
 54 55  1  0
 54 29  1  0
 56 54  1  0
 58 57  1  0
 59 64  1  0
 60 59  1  0
 60 63  1  0
 61 60  1  0
 62 60  1  0
 64 65  1  0
 66 77  2  0
 67 65  1  0
 67 72  1  0
 68 76  1  0
 68 78  1  0
 69 71  1  0
 70 76  1  0
 71 72  2  0
 71 70  1  0
 73 67  2  0
 74 73  1  0
 74 69  2  0
 75 69  1  0
 75 68  1  0
 76 66  1  0
 78 80  2  0
 79 78  1  0
 81 79  1  0
 82 86  1  0
 82 87  1  0
 83 79  1  0
 83 84  1  0
 85 84  1  0
 86 85  1  0
 87 83  1  0
 88 87  2  0
 89 88  1  0
 90 91  1  0
 90 89  2  0
 91 82  2  0
 92 66  1  0
 92 93  1  0
 92102  1  0
 93 96  1  0
 94 98  1  0
 94 93  1  0
 95 94  2  0
 98 97  1  0
100 98  1  0
100101  1  0
100 99  1  0
102103  1  1
102105  1  0
104102  1  0
M  ISO  4  19 100  27 100  64 101  65 101
M  END
>  <TORSDO>  (64) 
F 23

>  <SCORE>  (64) 
-10.079

>  <name>  (64) 
64

>  <ligand_id>  (64) 
64

>  <original_smiles>  (64) 
[H]OC12C([H])([H])C([H])([H])C([H])(C([H])(C([H])([H])Oc3c([H])c([H])c4c(c3[H])C([H])([H])N(C(=O)C([H])(N([H])C(=O)C([H])(N([H])C([H])([H])[H])C([H])([H])[H])C(C([H])([H])[H])(C([H])([H])[H])C([H])([H])[H])C([H])(C(=O)N([H])C3([H])c5c([H])c([H])c([H])c([H])c5C([H])([H])C([H])([H])C3([H])[H])C4([H])[H])[N+]([H])([H])[H])C1(C([H])([H])[H])C([H])([H])C([H])(c1c([H])c([H])c(C([H])([H])C([H])([H])N([H])C(=O)N3C([H])([H])C([H])([H])C([H])([H])C([H])(n4nc(-c5c([H])c([H])c(Oc6c([H])c([H])c(F)c([H])c6F)c([H])c5[H])c(C(=O)N([H])[H])c4N([H])[H])C3([H])[H])c(F)c1[H])C2([H])[H]

>  <smiles>  (64) 
[H]OC12C([H])([H])C([H])([H])C([H])(C([H])(C([H])([H])Oc3c([H])c([H])c4c(c3[H])C([H])([H])N(C(=O)C([H])(N([H])C(=O)C([H])(N([H])C([H])([H])[H])C([H])([H])[H])C(C([H])([H])[H])(C([H])([H])[H])C([H])([H])[H])C([H])(C(=O)N([H])C3([H])c5c([H])c([H])c([H])c([H])c5C([H])([H])C([H])([H])C3([H])[H])C4([H])[H])[N+]([H])([H])[H])C1(C([H])([H])[H])C([H])([H])C([H])(c1c([H])c([H])c(C([H])([H])C([H])([H])N([H])C(=O)N3C([H])([H])C([H])([H])C([H])([H])C([H])(n4nc(-c5c([H])c([H])c(Oc6c([H])c([H])c(F)c([H])c6F)c([H])c5[H])c(C(=O)N([H])[H])c4N([H])[H])C3([H])[H])c(F)c1[H])C2([H])[H]

$$$$
65:0:0
     RDKit          3D

 92100  0  0  1  0  0  0  0  0999 V2000
  -29.0410  -20.4890   21.7780 C   0  0  0  0  0  3  0  0  0  0  0  0
  -28.7440  -21.7840   22.2390 C   0  0  0  0  0  3  0  0  0  0  0  0
  -29.4680  -21.4020   19.5790 C   0  0  0  0  0  3  0  0  0  0  0  0
  -29.4480  -20.2260   20.4450 C   0  0  0  0  0  0  0  0  0  0  0  0
  -28.8410  -22.9160   21.4070 C   0  0  0  0  0  0  0  0  0  0  0  0
  -29.1550  -22.7560   20.0300 C   0  0  0  0  0  0  0  0  0  0  0  0
  -28.6820  -24.2830   22.0710 C   0  0  0  0  0  1  0  0  0  0  0  0
  -30.0650  -18.7580   20.1620 C   0  0  0  0  0  2  0  0  0  0  0  0
  -29.6980  -17.4080   19.3270 C   0  0  0  0  0  3  0  0  0  0  0  0
  -30.6350  -14.9870   19.8360 C   0  0  0  0  0  0  0  0  0  0  0  0
  -30.4840  -12.6580   18.9810 C   0  0  0  0  0  2  0  0  0  0  0  0
  -29.4810  -12.6530   17.8060 C   0  0  0  0  0  2  0  0  0  0  0  0
  -28.0340  -12.4830   18.3150 C   0  0  0  0  0  2  0  0  0  0  0  0
  -27.7050  -13.4200   19.5100 C   0  0  0  0  0  3  0  0  0  0  0  0
  -28.8190  -13.3760   20.5780 C   0  0  0  0  0  2  0  0  0  0  0  0
  -30.0820  -13.7300   19.9150 N   0  0  0  0  0  0  0  0  0  0  0  0
  -31.7720  -15.1430   19.3810 O   0  0  0  0  0  0  0  0  0  0  0  0
  -29.7840  -16.0570   20.0410 N   0  0  0  0  0  0  0  0  0  0  0  0
  -28.9300  -15.7890   20.5050 H   0  0  0  0  0  0  0  0  0  0  0  0
  -25.3760  -14.0250   20.4160 C   0  0  0  0  0  0  0  0  0  0  0  0
  -24.3280  -13.2500   20.8360 C   0  0  0  0  0  0  0  0  0  0  0  0
  -24.7690  -11.8970   20.7310 C   0  0  0  0  0  0  0  0  0  0  0  0
  -26.3890  -13.1410   20.0780 N   0  0  0  0  0  0  0  0  0  0  0  0
  -26.0320  -11.8530   20.3260 N   0  0  0  0  0  0  0  0  0  0  0  0
  -24.0420  -10.6380   20.9360 C   0  0  0  0  0  0  0  0  0  0  0  0
  -24.4910   -9.6670   21.8570 C   0  0  0  0  0  3  0  0  0  0  0  0
  -23.7630   -8.4720   22.0480 C   0  0  0  0  0  3  0  0  0  0  0  0
  -22.5740   -8.2400   21.3180 C   0  0  0  0  0  0  0  0  0  0  0  0
  -22.1470   -9.2000   20.3850 C   0  0  0  0  0  3  0  0  0  0  0  0
  -22.8750  -10.3860   20.1900 C   0  0  0  0  0  3  0  0  0  0  0  0
  -21.8140   -7.0990   21.4220 O   0  0  0  0  0  0  0  0  0  0  0  0
  -21.7470   -6.3820   22.5890 C   0  0  0  0  0  0  0  0  0  0  0  0
  -21.2620   -6.9520   23.7860 C   0  0  0  0  0  3  0  0  0  0  0  0
  -21.1440   -6.1590   24.9450 C   0  0  0  0  0  3  0  0  0  0  0  0
  -21.5010   -4.7980   24.9070 C   0  0  0  0  0  0  0  0  0  0  0  0
  -21.9800   -4.2300   23.7150 C   0  0  0  0  0  3  0  0  0  0  0  0
  -22.1010   -5.0200   22.5580 C   0  0  0  0  0  0  0  0  0  0  0  0
  -22.5410   -4.4590   21.4060 F   0  0  0  0  0  0  0  0  0  0  0  0
  -21.3780   -4.0350   26.0180 F   0  0  0  0  0  0  0  0  0  0  0  0
  -22.9590  -13.7350   21.2160 C   0  0  0  0  0  0  0  0  0  0  0  0
  -22.2830  -13.0230   22.1130 N   0  0  0  0  0  0  0  0  0  0  0  0
  -22.5020  -14.7790   20.7560 O   0  0  0  0  0  0  0  0  0  0  0  0
  -22.6650  -12.1770   22.5050 H   0  0  0  0  0  0  0  0  0  0  0  0
  -21.3650  -13.3290   22.4040 H   0  0  0  0  0  0  0  0  0  0  0  0
  -25.5370  -15.3980   20.2790 N   0  0  0  0  0  0  0  0  0  0  0  0
  -24.7750  -16.0380   20.4760 H   0  0  0  0  0  0  0  0  0  0  0  0
  -26.3480  -15.8630   19.8920 H   0  0  0  0  0  0  0  0  0  0  0  0
  -28.3070  -18.4410   17.3900 C   0  0  0  0  0  1  0  0  0  0  0  0
  -28.3260  -17.4920   18.5980 C   0  0  0  0  0  2  0  0  0  0  0  0
  -29.3300  -24.0650   19.1450 C   0  0  0  0  0  2  0  0  0  0  0  0
  -28.1120  -25.0960   18.9230 C   0  0  0  0  0  2  0  0  0  0  0  0
  -28.3030  -26.5760   19.0400 O   0  0  0  0  0  0  0  0  0  0  0  0
  -24.5360  -31.4470   22.8650 C   0  0  0  0  0  0  0  0  0  0  0  0
  -27.1580  -27.3950   19.1480 C   0  0  0  0  0  0  0  0  0  0  0  0
  -23.3060  -30.2020   21.1270 C   0  0  0  0  0  3  0  0  0  0  0  0
  -24.7390  -28.9100   19.4500 C   0  0  0  0  0  0  0  0  0  0  0  0
  -25.8200  -30.6530   20.8620 C   0  0  0  0  0  2  0  0  0  0  0  0
  -25.9190  -29.3670   20.0460 C   0  0  0  0  0  0  0  0  0  0  0  0
  -27.1310  -28.6200   19.8890 C   0  0  0  0  0  3  0  0  0  0  0  0
  -25.9460  -27.0040   18.5310 C   0  0  0  0  0  3  0  0  0  0  0  0
  -24.7550  -27.7380   18.6830 C   0  0  0  0  0  3  0  0  0  0  0  0
  -23.4730  -29.7160   19.6630 C   0  0  0  0  0  2  0  0  0  0  0  0
  -24.5760  -30.7770   21.6760 N   0  0  0  0  0  0  0  0  0  0  0  0
  -23.4740  -31.6080   23.4820 O   0  0  0  0  0  0  0  0  0  0  0  0
  -22.7370  -29.0460   21.9830 C   0  0  0  0  0  0  0  0  0  0  0  0
  -21.4140  -28.8240   21.8990 N   0  0  0  0  0  0  0  0  0  0  0  0
  -23.4820  -28.3570   22.6840 O   0  0  0  0  0  0  0  0  0  0  0  0
  -20.8660  -29.4370   21.3100 H   0  0  0  0  0  0  0  0  0  0  0  0
  -18.1140  -27.4410   22.4340 C   0  0  0  0  0  0  0  0  0  0  0  0
  -20.6760  -27.7650   22.5910 C   0  0  0  0  0  3  0  0  0  0  0  0
  -20.7890  -26.4230   21.8310 C   0  0  0  0  0  2  0  0  0  0  0  0
  -19.6380  -26.1880   20.8490 C   0  0  0  0  0  2  0  0  0  0  0  0
  -18.2940  -26.1960   21.5830 C   0  0  0  0  0  2  0  0  0  0  0  0
  -19.2320  -28.1870   22.8940 C   0  0  0  0  0  0  0  0  0  0  0  0
  -19.0070  -29.3560   23.6530 C   0  0  0  0  0  3  0  0  0  0  0  0
  -17.6980  -29.7770   23.9570 C   0  0  0  0  0  3  0  0  0  0  0  0
  -16.5980  -29.0250   23.5130 C   0  0  0  0  0  3  0  0  0  0  0  0
  -16.8060  -27.8590   22.7550 C   0  0  0  0  0  3  0  0  0  0  0  0
  -25.8230  -32.0610   23.4970 C   0  0  0  0  0  3  0  0  0  0  0  0
  -25.4830  -33.4090   23.9760 N   0  0  0  0  0  0  0  0  0  0  0  0
  -25.7580  -34.5440   23.3190 C   0  0  0  0  0  0  0  0  0  0  0  0
  -26.3920  -34.5670   22.2600 O   0  0  0  0  0  0  0  0  0  0  0  0
  -24.9160  -33.4620   24.8100 H   0  0  0  0  0  0  0  0  0  0  0  0
  -23.9710  -36.3120   23.2010 C   0  0  0  0  0  1  0  0  0  0  0  0
  -25.2480  -35.8630   23.9320 C   0  0  0  0  0  3  0  0  0  0  0  0
  -27.3750  -36.7260   24.8030 C   0  0  0  0  0  1  0  0  0  0  0  0
  -26.2470  -36.9520   23.9030 N   0  0  0  0  0  0  0  0  0  0  0  0
  -25.8200  -37.8410   24.1480 H   0  0  0  0  0  0  0  0  0  0  0  0
  -26.4160  -31.1880   24.6690 C   0  0  1  0  0  0  0  0  0  0  0  0
  -25.3770  -30.8100   25.7500 C   0  0  0  0  0  1  0  0  0  0  0  0
  -27.0230  -29.8760   24.1200 C   0  0  0  0  0  1  0  0  0  0  0  0
  -27.5690  -31.9530   25.3610 C   0  0  0  0  0  1  0  0  0  0  0  0
  1  2  1  0
  3  6  2  0
  3  4  1  0
  4  1  2  0
  5  7  1  0
  5  2  2  0
  6  5  1  0
  8  4  1  0
  9 49  1  0
  9 18  1  0
  9  8  1  0
 10 16  1  0
 10 18  1  0
 11 16  1  0
 12 13  1  0
 12 11  1  0
 14 13  1  0
 14 23  1  0
 14 15  1  0
 16 15  1  0
 17 10  2  0
 18 19  1  0
 20 21  2  0
 21 40  1  0
 22 21  1  0
 22 25  1  0
 23 24  1  0
 23 20  1  0
 24 22  2  0
 25 26  1  0
 26 27  2  0
 28 31  1  0
 28 27  1  0
 29 28  2  0
 30 29  1  0
 30 25  2  0
 31 32  1  0
 32 33  1  0
 33 34  2  0
 35 34  1  0
 35 39  1  0
 36 35  2  0
 37 32  2  0
 37 36  1  0
 38 37  1  0
 40 41  1  0
 41 44  1  0
 41 43  1  0
 42 40  2  0
 45 20  1  0
 45 46  1  0
 47 45  1  0
 48 49  1  0
 50  6  1  0
 51 52  1  0
 51 50  1  0
 52 54  1  0
 53 64  2  0
 54 59  1  0
 55 63  1  0
 55 65  1  0
 56 62  1  0
 56 58  1  0
 57 63  1  0
 58 57  1  0
 59 58  2  0
 60 61  1  0
 60 54  2  0
 61 56  2  0
 62 55  1  0
 63 53  1  0
 65 67  2  0
 66 65  1  0
 68 66  1  0
 69 78  2  0
 69 74  1  0
 70 66  1  0
 70 74  1  0
 71 70  1  0
 72 73  1  0
 72 71  1  0
 73 69  1  0
 74 75  2  0
 75 76  1  0
 77 76  2  0
 78 77  1  0
 79 53  1  0
 79 80  1  0
 79 89  1  0
 80 83  1  0
 81 85  1  0
 81 80  1  0
 82 81  2  0
 85 84  1  0
 87 85  1  0
 87 88  1  0
 87 86  1  0
 89 92  1  1
 89 90  1  0
 91 89  1  0
M  ISO  4  10 100  18 100  51 101  52 101
M  END
>  <TORSDO>  (65) 
F 21

>  <SCORE>  (65) 
-11.920

>  <name>  (65) 
65

>  <ligand_id>  (65) 
65

>  <original_smiles>  (65) 
[H]c1c([H])c([H])c2c(c1[H])C([H])([H])C([H])([H])C([H])([H])C2([H])N([H])C(=O)C1([H])N(C(=O)C([H])(N([H])C(=O)C([H])(N([H])C([H])([H])[H])C([H])([H])[H])C(C([H])([H])[H])(C([H])([H])[H])C([H])([H])[H])C([H])([H])c2c([H])c(OC([H])([H])C([H])([H])c3c([H])c(C([H])([H])C([H])(N([H])C(=O)N4C([H])([H])C([H])([H])C([H])([H])C([H])(n5nc(-c6c([H])c([H])c(Oc7c([H])c([H])c(F)c([H])c7F)c([H])c6[H])c(C(=O)N([H])[H])c5N([H])[H])C4([H])[H])C([H])([H])C([H])([H])[H])c([H])c([H])c3C([H])([H])[H])c([H])c([H])c2C1([H])[H]

>  <smiles>  (65) 
[H]c1c([H])c([H])c2c(c1[H])C([H])([H])C([H])([H])C([H])([H])C2([H])N([H])C(=O)C1([H])N(C(=O)C([H])(N([H])C(=O)C([H])(N([H])C([H])([H])[H])C([H])([H])[H])C(C([H])([H])[H])(C([H])([H])[H])C([H])([H])[H])C([H])([H])c2c([H])c(OC([H])([H])C([H])([H])c3c([H])c(C([H])([H])C([H])(N([H])C(=O)N4C([H])([H])C([H])([H])C([H])([H])C([H])(n5nc(-c6c([H])c([H])c(Oc7c([H])c([H])c(F)c([H])c7F)c([H])c6[H])c(C(=O)N([H])[H])c5N([H])[H])C4([H])[H])C([H])([H])C([H])([H])[H])c([H])c([H])c3C([H])([H])[H])c([H])c([H])c2C1([H])[H]

$$$$
66:0:0
     RDKit          3D

 94102  0  0  1  0  0  0  0  0999 V2000
  -26.4190  -24.5760   20.7170 C   0  0  0  0  0  3  0  0  0  0  0  0
  -27.6130  -23.0680   18.6720 C   0  0  0  0  0  0  0  0  0  0  0  0
  -26.2090  -23.0410   18.8220 C   0  0  0  0  0  0  0  0  0  0  0  0
  -28.3870  -23.7450   19.6510 C   0  0  0  0  0  0  0  0  0  0  0  0
  -25.6380  -23.6900   19.9410 C   0  0  0  0  0  0  0  0  0  0  0  0
  -27.7500  -24.8770   20.3110 C   0  0  0  0  0  0  0  0  0  0  0  0
  -28.2820  -22.2190   17.5940 C   0  0  0  0  0  1  0  0  0  0  0  0
  -25.3610  -22.2390   17.8360 C   0  0  0  0  0  1  0  0  0  0  0  0
  -24.3080  -23.5630   20.2180 O   0  0  0  0  0  0  0  0  0  0  0  0
  -23.8890  -22.9120   19.6630 H   0  0  0  0  0  0  0  0  0  0  0  0
  -28.1480  -26.2680   20.2190 O   0  0  0  0  0  0  0  0  0  0  0  0
  -24.5680  -31.8680   23.1950 C   0  0  0  0  0  0  0  0  0  0  0  0
  -27.1570  -27.2820   20.1020 C   0  0  0  0  0  0  0  0  0  0  0  0
  -23.3700  -30.4760   21.5500 C   0  0  0  0  0  3  0  0  0  0  0  0
  -24.8300  -28.9640   20.0890 C   0  0  0  0  0  0  0  0  0  0  0  0
  -25.9170  -30.7760   21.3910 C   0  0  0  0  0  2  0  0  0  0  0  0
  -25.9950  -29.4020   20.7320 C   0  0  0  0  0  0  0  0  0  0  0  0
  -27.1540  -28.5580   20.7640 C   0  0  0  0  0  3  0  0  0  0  0  0
  -26.0180  -27.0050   19.3130 C   0  0  0  0  0  3  0  0  0  0  0  0
  -24.8460  -27.7690   19.3670 C   0  0  0  0  0  3  0  0  0  0  0  0
  -23.5880  -29.8280   20.1610 C   0  0  0  0  0  2  0  0  0  0  0  0
  -24.6360  -31.0600   22.0990 N   0  0  0  0  0  0  0  0  0  0  0  0
  -23.4820  -32.1440   23.7260 O   0  0  0  0  0  0  0  0  0  0  0  0
  -22.7110  -29.4450   22.4990 C   0  0  0  0  0  0  0  0  0  0  0  0
  -21.3820  -29.2760   22.3860 N   0  0  0  0  0  0  0  0  0  0  0  0
  -23.3940  -28.8040   23.3020 O   0  0  0  0  0  0  0  0  0  0  0  0
  -20.8840  -29.8470   21.7180 H   0  0  0  0  0  0  0  0  0  0  0  0
  -18.0010  -28.0990   22.9230 C   0  0  0  0  0  0  0  0  0  0  0  0
  -20.5670  -28.3340   23.1570 C   0  0  0  0  0  3  0  0  0  0  0  0
  -20.6460  -26.9080   22.5590 C   0  0  0  0  0  2  0  0  0  0  0  0
  -19.5260  -26.6090   21.5580 C   0  0  0  0  0  2  0  0  0  0  0  0
  -18.1560  -26.7570   22.2270 C   0  0  0  0  0  2  0  0  0  0  0  0
  -19.1330  -28.8460   23.3460 C   0  0  0  0  0  0  0  0  0  0  0  0
  -18.9340  -30.1030   23.9570 C   0  0  0  0  0  3  0  0  0  0  0  0
  -17.6360  -30.6130   24.1490 C   0  0  0  0  0  3  0  0  0  0  0  0
  -16.5190  -29.8620   23.7430 C   0  0  0  0  0  3  0  0  0  0  0  0
  -16.7030  -28.6070   23.1340 C   0  0  0  0  0  3  0  0  0  0  0  0
  -25.8460  -32.5080   23.8170 C   0  0  0  0  0  3  0  0  0  0  0  0
  -25.5300  -33.9020   24.1540 N   0  0  0  0  0  0  0  0  0  0  0  0
  -25.8550  -34.9610   23.4010 C   0  0  0  0  0  0  0  0  0  0  0  0
  -26.5250  -34.8670   22.3680 O   0  0  0  0  0  0  0  0  0  0  0  0
  -24.9390  -34.0490   24.9590 H   0  0  0  0  0  0  0  0  0  0  0  0
  -24.1280  -36.7570   23.0500 C   0  0  0  0  0  1  0  0  0  0  0  0
  -25.3610  -36.3450   23.8690 C   0  0  0  0  0  3  0  0  0  0  0  0
  -27.4860  -37.2240   24.7320 C   0  0  0  0  0  1  0  0  0  0  0  0
  -26.3960  -37.4000   23.7750 N   0  0  0  0  0  0  0  0  0  0  0  0
  -25.9870  -38.3190   23.9220 H   0  0  0  0  0  0  0  0  0  0  0  0
  -26.3680  -31.7360   25.0900 C   0  0  1  0  0  0  0  0  0  0  0  0
  -25.2770  -31.4860   26.1570 C   0  0  0  0  0  1  0  0  0  0  0  0
  -26.9600  -30.3640   24.6960 C   0  0  0  0  0  1  0  0  0  0  0  0
  -27.5130  -32.5350   25.7530 C   0  0  0  0  0  1  0  0  0  0  0  0
  -29.4440  -22.7830   20.3340 C   0  0  0  0  0  2  0  0  0  0  0  0
  -28.9680  -21.2740   20.7120 C   0  0  0  0  0  3  0  0  0  0  0  0
  -29.9810  -20.0340   20.7090 C   0  0  0  0  0  3  0  0  0  0  0  0
  -29.3950  -18.5360   20.7870 C   0  0  0  0  0  3  0  0  0  0  0  0
  -30.4270  -17.3070   20.7750 C   0  0  0  0  0  3  0  0  0  0  0  0
  -30.6290  -14.7410   20.4460 C   0  0  0  0  0  0  0  0  0  0  0  0
  -30.3780  -12.4990   19.3760 C   0  0  0  0  0  2  0  0  0  0  0  0
  -29.4480  -12.6220   18.1470 C   0  0  0  0  0  2  0  0  0  0  0  0
  -27.9790  -12.4380   18.5700 C   0  0  0  0  0  2  0  0  0  0  0  0
  -27.6060  -13.3210   19.7900 C   0  0  0  0  0  3  0  0  0  0  0  0
  -28.6570  -13.2000   20.9190 C   0  0  0  0  0  2  0  0  0  0  0  0
  -29.9670  -13.5390   20.3450 N   0  0  0  0  0  0  0  0  0  0  0  0
  -31.8040  -14.8370   20.0860 O   0  0  0  0  0  0  0  0  0  0  0  0
  -29.9140  -15.8740   20.7680 N   0  0  0  0  0  0  0  0  0  0  0  0
  -28.9460  -15.7330   21.0160 H   0  0  0  0  0  0  0  0  0  0  0  0
  -25.2060  -13.9090   20.5010 C   0  0  0  0  0  0  0  0  0  0  0  0
  -24.1390  -13.1320   20.8570 C   0  0  0  0  0  0  0  0  0  0  0  0
  -24.6040  -11.7820   20.8250 C   0  0  0  0  0  0  0  0  0  0  0  0
  -26.2570  -13.0330   20.2680 N   0  0  0  0  0  0  0  0  0  0  0  0
  -25.8980  -11.7490   20.5290 N   0  0  0  0  0  0  0  0  0  0  0  0
  -23.8790  -10.5200   21.0040 C   0  0  0  0  0  0  0  0  0  0  0  0
  -24.3000   -9.5580   21.9480 C   0  0  0  0  0  3  0  0  0  0  0  0
  -23.5760   -8.3580   22.1180 C   0  0  0  0  0  3  0  0  0  0  0  0
  -22.4190   -8.1110   21.3400 C   0  0  0  0  0  0  0  0  0  0  0  0
  -22.0200   -9.0630   20.3850 C   0  0  0  0  0  3  0  0  0  0  0  0
  -22.7430  -10.2540   20.2160 C   0  0  0  0  0  3  0  0  0  0  0  0
  -21.6670   -6.9640   21.4150 O   0  0  0  0  0  0  0  0  0  0  0  0
  -21.5890   -6.2330   22.5710 C   0  0  0  0  0  0  0  0  0  0  0  0
  -21.1060   -6.7920   23.7760 C   0  0  0  0  0  3  0  0  0  0  0  0
  -20.9750   -5.9850   24.9240 C   0  0  0  0  0  3  0  0  0  0  0  0
  -21.3140   -4.6190   24.8690 C   0  0  0  0  0  0  0  0  0  0  0  0
  -21.7870   -4.0600   23.6700 C   0  0  0  0  0  3  0  0  0  0  0  0
  -21.9220   -4.8640   22.5240 C   0  0  0  0  0  0  0  0  0  0  0  0
  -22.3590   -4.3150   21.3650 F   0  0  0  0  0  0  0  0  0  0  0  0
  -21.1810   -3.8420   25.9690 F   0  0  0  0  0  0  0  0  0  0  0  0
  -22.7370  -13.6060   21.1100 C   0  0  0  0  0  0  0  0  0  0  0  0
  -21.9990  -12.9120   21.9660 N   0  0  0  0  0  0  0  0  0  0  0  0
  -22.3070  -14.6340   20.5820 O   0  0  0  0  0  0  0  0  0  0  0  0
  -22.3620  -12.0860   22.4170 H   0  0  0  0  0  0  0  0  0  0  0  0
  -21.0540  -13.2090   22.1680 H   0  0  0  0  0  0  0  0  0  0  0  0
  -25.3600  -15.2820   20.3290 N   0  0  0  0  0  0  0  0  0  0  0  0
  -24.5780  -15.9120   20.4600 H   0  0  0  0  0  0  0  0  0  0  0  0
  -26.1840  -15.7480   19.9740 H   0  0  0  0  0  0  0  0  0  0  0  0
  2  3  2  0
  2  4  1  0
  3  5  1  0
  4  6  2  3
  4 52  1  0
  5  9  1  0
  5  1  2  0
  6  1  1  0
  7  2  1  0
  8  3  1  0
 10  9  1  0
 11  6  1  0
 12 23  2  0
 13 11  1  0
 13 18  1  0
 14 22  1  0
 14 24  1  0
 15 21  1  0
 15 17  1  0
 16 22  1  0
 17 18  2  0
 17 16  1  0
 19 20  1  0
 19 13  2  0
 20 15  2  0
 21 14  1  0
 22 12  1  0
 24 26  2  0
 25 24  1  0
 27 25  1  0
 28 37  2  0
 28 33  1  0
 29 25  1  0
 29 33  1  0
 30 29  1  0
 31 32  1  0
 31 30  1  0
 32 28  1  0
 33 34  2  0
 34 35  1  0
 36 35  2  0
 37 36  1  0
 38 12  1  0
 38 39  1  0
 38 48  1  0
 39 42  1  0
 40 44  1  0
 40 39  1  0
 41 40  2  0
 44 43  1  0
 46 44  1  0
 46 47  1  0
 46 45  1  0
 48 51  1  1
 48 49  1  0
 50 48  1  0
 52 53  1  0
 54 53  2  0
 54 55  1  0
 56 55  2  0
 57 65  1  0
 58 63  1  0
 59 60  1  0
 59 58  1  0
 61 60  1  0
 61 70  1  0
 61 62  1  0
 63 57  1  0
 63 62  1  0
 64 57  2  0
 65 56  1  0
 65 66  1  0
 67 68  2  0
 68 87  1  0
 69 68  1  0
 69 72  1  0
 70 67  1  0
 70 71  1  0
 71 69  2  0
 72 73  1  0
 73 74  2  0
 75 78  1  0
 75 74  1  0
 76 75  2  0
 77 76  1  0
 77 72  2  0
 78 79  1  0
 79 80  1  0
 80 81  2  0
 82 81  1  0
 82 86  1  0
 83 82  2  0
 84 79  2  0
 84 83  1  0
 85 84  1  0
 87 88  1  0
 88 91  1  0
 88 90  1  0
 89 87  2  0
 92 93  1  0
 92 67  1  0
 94 92  1  0
M  ISO  4   6 101  11 101  57 100  65 100
M  END
>  <TORSDO>  (66) 
F 22

>  <SCORE>  (66) 
-13.478

>  <name>  (66) 
66

>  <ligand_id>  (66) 
66

>  <original_smiles>  (66) 
[H]Oc1c([H])c(Oc2c([H])c([H])c3c(c2[H])C([H])([H])N(C(=O)C([H])(N([H])C(=O)C([H])(N([H])C([H])([H])[H])C([H])([H])[H])C(C([H])([H])[H])(C([H])([H])[H])C([H])([H])[H])C([H])(C(=O)N([H])C2([H])c4c([H])c([H])c([H])c([H])c4C([H])([H])C([H])([H])C2([H])[H])C3([H])[H])c(C([H])([H])C([H])([H])C([H])([H])C([H])([H])C([H])([H])N([H])C(=O)N2C([H])([H])C([H])([H])C([H])([H])C([H])(n3nc(-c4c([H])c([H])c(Oc5c([H])c([H])c(F)c([H])c5F)c([H])c4[H])c(C(=O)N([H])[H])c3N([H])[H])C2([H])[H])c(C([H])([H])[H])c1C([H])([H])[H]

>  <smiles>  (66) 
[H]Oc1c([H])c(Oc2c([H])c([H])c3c(c2[H])C([H])([H])N(C(=O)C([H])(N([H])C(=O)C([H])(N([H])C([H])([H])[H])C([H])([H])[H])C(C([H])([H])[H])(C([H])([H])[H])C([H])([H])[H])C([H])(C(=O)N([H])C2([H])c4c([H])c([H])c([H])c([H])c4C([H])([H])C([H])([H])C2([H])[H])C3([H])[H])c(C([H])([H])C([H])([H])C([H])([H])C([H])([H])C([H])([H])N([H])C(=O)N2C([H])([H])C([H])([H])C([H])([H])C([H])(n3nc(-c4c([H])c([H])c(Oc5c([H])c([H])c(F)c([H])c5F)c([H])c4[H])c(C(=O)N([H])[H])c3N([H])[H])C2([H])[H])c(C([H])([H])[H])c1C([H])([H])[H]

$$$$
67:0:0
     RDKit          3D

 94103  0  0  1  0  0  0  0  0999 V2000
  -27.8340  -22.6950   18.7220 C   0  0  0  0  0  3  0  0  0  0  0  0
  -28.7210  -23.9270   21.0340 C   0  0  0  0  0  3  0  0  0  0  0  0
  -28.1570  -21.8010   19.7630 C   0  0  0  0  0  0  0  0  0  0  0  0
  -27.6280  -24.0860   18.9420 C   0  0  0  0  0  0  0  0  0  0  0  0
  -28.5770  -22.4730   20.9630 C   0  0  0  0  0  0  0  0  0  0  0  0
  -28.2570  -24.8390   20.0090 C   0  0  0  0  0  0  0  0  0  0  0  0
  -26.3180  -24.4690   18.2620 C   0  0  0  0  0  1  0  0  0  0  0  0
  -28.7780  -21.6290   22.2070 C   0  0  0  0  0  1  0  0  0  0  0  0
  -27.6930  -20.3210   19.5070 C   0  0  0  0  0  0  0  0  0  0  0  0
  -26.8300  -20.1280   18.6430 O   0  0  0  0  0  0  0  0  0  0  0  0
  -28.2170  -18.9910   20.1800 C   0  0  0  0  0  2  0  0  0  0  0  0
  -27.1700  -17.7610   20.3950 C   0  0  0  0  0  2  0  0  0  0  0  0
  -27.7200  -16.2860   20.6060 C   0  0  0  0  0  2  0  0  0  0  0  0
  -26.9780  -15.1240   21.5110 C   0  0  0  0  0  2  0  0  0  0  0  0
  -27.2770  -13.4580   21.2870 C   0  0  0  0  0  3  0  0  0  0  0  0
  -30.4480  -13.5370   20.9950 C   0  0  0  0  0  0  0  0  0  0  0  0
  -31.6140  -11.3260   20.3200 C   0  0  0  0  0  2  0  0  0  0  0  0
  -30.9960  -10.7420   18.9780 C   0  0  0  0  0  2  0  0  0  0  0  0
  -29.4490  -10.6030   18.8760 C   0  0  0  0  0  2  0  0  0  0  0  0
  -28.9900  -11.7980   19.5830 C   0  0  0  0  0  3  0  0  0  0  0  0
  -29.5050  -11.5240   21.0630 C   0  0  0  0  0  2  0  0  0  0  0  0
  -30.6760  -12.2160   21.0310 N   0  0  0  0  0  0  0  0  0  0  0  0
  -31.4990  -14.1620   20.6680 O   0  0  0  0  0  0  0  0  0  0  0  0
  -28.9900  -13.9340   21.2620 N   0  0  0  0  0  0  0  0  0  0  0  0
  -29.0060  -14.9350   21.3640 H   0  0  0  0  0  0  0  0  0  0  0  0
  -26.4540  -13.4550   19.5050 C   0  0  2  0  0  0  0  0  0  0  0  0
  -25.1140  -13.0640   20.5230 C   0  0  0  0  0  3  0  0  0  0  0  0
  -25.3800  -11.4880   21.3280 C   0  0  0  0  0  3  0  0  0  0  0  0
  -27.6810  -12.0140   19.6740 N   0  0  0  0  0  0  0  0  0  0  0  0
  -26.9090  -10.8690   20.8860 N   0  0  0  0  0  2  0  0  0  0  0  0
  -24.3970  -10.3220   21.3080 C   0  0  0  0  0  0  0  0  0  0  0  0
  -24.6440   -9.2440   22.1740 C   0  0  0  0  0  3  0  0  0  0  0  0
  -23.7660   -8.1410   22.2700 C   0  0  0  0  0  3  0  0  0  0  0  0
  -22.6070   -8.0550   21.4690 C   0  0  0  0  0  0  0  0  0  0  0  0
  -22.4110   -9.0510   20.4870 C   0  0  0  0  0  3  0  0  0  0  0  0
  -23.3050  -10.1530   20.3930 C   0  0  0  0  0  3  0  0  0  0  0  0
  -21.6920   -7.0290   21.5900 O   0  0  0  0  0  0  0  0  0  0  0  0
  -21.6600   -6.2260   22.7140 C   0  0  0  0  0  0  0  0  0  0  0  0
  -21.3690   -6.7510   23.9960 C   0  0  0  0  0  3  0  0  0  0  0  0
  -21.3140   -5.8950   25.1160 C   0  0  0  0  0  3  0  0  0  0  0  0
  -21.5440   -4.5140   24.9630 C   0  0  0  0  0  0  0  0  0  0  0  0
  -21.8330   -3.9900   23.6910 C   0  0  0  0  0  3  0  0  0  0  0  0
  -21.8890   -4.8390   22.5760 C   0  0  0  0  0  0  0  0  0  0  0  0
  -22.1460   -4.3170   21.3500 F   0  0  0  0  0  0  0  0  0  0  0  0
  -21.4920   -3.6910   26.0390 F   0  0  0  0  0  0  0  0  0  0  0  0
  -23.7170  -13.4860   20.1880 C   0  0  0  0  0  0  0  0  0  0  0  0
  -22.7470  -13.0830   20.9930 N   0  0  0  0  0  0  0  0  0  0  0  0
  -23.4860  -14.1700   19.2020 O   0  0  0  0  0  0  0  0  0  0  0  0
  -22.9370  -12.5640   21.8390 H   0  0  0  0  0  0  0  0  0  0  0  0
  -21.7910  -13.3440   20.7820 H   0  0  0  0  0  0  0  0  0  0  0  0
  -26.7490  -14.5980   18.8380 N   0  0  0  0  0  0  0  0  0  0  0  0
  -26.1290  -15.4020   18.8280 H   0  0  0  0  0  0  0  0  0  0  0  0
  -27.6270  -14.7680   18.3650 H   0  0  0  0  0  0  0  0  0  0  0  0
  -28.5160  -26.2860   20.0240 O   0  0  0  0  0  0  0  0  0  0  0  0
  -24.6210  -31.6800   23.0050 C   0  0  0  0  0  0  0  0  0  0  0  0
  -27.5150  -27.2780   19.9020 C   0  0  0  0  0  0  0  0  0  0  0  0
  -23.5690  -30.2770   21.2750 C   0  0  0  0  0  3  0  0  0  0  0  0
  -25.1440  -28.8850   19.8450 C   0  0  0  0  0  0  0  0  0  0  0  0
  -26.0970  -30.7110   21.2290 C   0  0  0  0  0  2  0  0  0  0  0  0
  -26.2620  -29.3540   20.5460 C   0  0  0  0  0  0  0  0  0  0  0  0
  -27.4490  -28.5390   20.5990 C   0  0  0  0  0  3  0  0  0  0  0  0
  -26.4750  -27.0490   18.9910 C   0  0  0  0  0  3  0  0  0  0  0  0
  -25.2520  -27.7300   19.0640 C   0  0  0  0  0  3  0  0  0  0  0  0
  -23.8700  -29.6980   19.8790 C   0  0  0  0  0  2  0  0  0  0  0  0
  -24.7780  -30.9110   21.8900 N   0  0  0  0  0  0  0  0  0  0  0  0
  -23.4990  -31.8680   23.5030 O   0  0  0  0  0  0  0  0  0  0  0  0
  -22.9430  -29.1770   22.1610 C   0  0  0  0  0  0  0  0  0  0  0  0
  -21.6220  -28.9870   22.0330 N   0  0  0  0  0  0  0  0  0  0  0  0
  -23.6520  -28.5100   22.9150 O   0  0  0  0  0  0  0  0  0  0  0  0
  -21.1170  -29.5720   21.3840 H   0  0  0  0  0  0  0  0  0  0  0  0
  -18.2750  -27.7010   22.5230 C   0  0  0  0  0  0  0  0  0  0  0  0
  -20.8340  -27.9850   22.7600 C   0  0  0  0  0  3  0  0  0  0  0  0
  -20.9470  -26.5920   22.0930 C   0  0  0  0  0  2  0  0  0  0  0  0
  -19.8270  -26.3170   21.0850 C   0  0  0  0  0  2  0  0  0  0  0  0
  -18.4580  -26.4040   21.7590 C   0  0  0  0  0  2  0  0  0  0  0  0
  -19.3900  -28.4510   22.9840 C   0  0  0  0  0  0  0  0  0  0  0  0
  -19.1610  -29.6660   23.6640 C   0  0  0  0  0  3  0  0  0  0  0  0
  -17.8520  -30.1260   23.8950 C   0  0  0  0  0  3  0  0  0  0  0  0
  -16.7540  -29.3710   23.4520 C   0  0  0  0  0  3  0  0  0  0  0  0
  -16.9650  -28.1610   22.7690 C   0  0  0  0  0  3  0  0  0  0  0  0
  -25.8400  -32.3720   23.6830 C   0  0  0  0  0  3  0  0  0  0  0  0
  -25.4300  -33.7420   24.0440 N   0  0  0  0  0  0  0  0  0  0  0  0
  -25.7130  -34.8280   23.3240 C   0  0  0  0  0  0  0  0  0  0  0  0
  -26.4070  -34.8070   22.3090 O   0  0  0  0  0  0  0  0  0  0  0  0
  -24.8030  -33.8370   24.8280 H   0  0  0  0  0  0  0  0  0  0  0  0
  -23.8720  -36.5130   22.9930 C   0  0  0  0  0  1  0  0  0  0  0  0
  -25.1240  -36.1700   23.8130 C   0  0  0  0  0  3  0  0  0  0  0  0
  -27.1610  -37.1800   24.7330 C   0  0  0  0  0  1  0  0  0  0  0  0
  -26.0830  -37.2900   23.7550 N   0  0  0  0  0  0  0  0  0  0  0  0
  -25.6060  -38.1730   23.9120 H   0  0  0  0  0  0  0  0  0  0  0  0
  -26.3630  -31.6010   24.9550 C   0  0  1  0  0  0  0  0  0  0  0  0
  -25.2570  -31.3060   25.9960 C   0  0  0  0  0  1  0  0  0  0  0  0
  -27.0160  -30.2570   24.5600 C   0  0  0  0  0  1  0  0  0  0  0  0
  -27.4700  -32.4280   25.6520 C   0  0  0  0  0  1  0  0  0  0  0  0
  1  4  2  0
  1  3  1  0
  3  5  2  0
  4  6  1  0
  5  2  1  0
  5  8  1  0
  6 54  1  0
  6  2  2  0
  7  4  1  0
  9  3  1  0
  9 11  1  0
 10  9  2  0
 11 12  1  0
 12 13  1  0
 13 14  1  0
 15 14  1  0
 16 22  1  0
 16 24  1  0
 17 22  1  0
 18 17  1  0
 19 18  1  0
 20 19  1  0
 20 29  1  0
 20 21  1  0
 22 21  1  0
 23 16  2  0
 24 15  1  0
 24 25  1  0
 26 51  1  1
 26 29  1  0
 26 27  1  0
 26 15  1  0
 27 46  1  0
 27 28  1  0
 28 31  1  0
 29 30  1  0
 30 28  1  0
 31 32  1  0
 32 33  2  0
 34 37  1  0
 34 33  1  0
 35 34  2  0
 36 35  1  0
 36 31  2  0
 37 38  1  0
 38 39  1  0
 39 40  2  0
 41 40  1  0
 41 45  1  0
 42 41  2  0
 43 38  2  0
 43 42  1  0
 44 43  1  0
 46 47  1  0
 47 49  1  0
 48 46  2  0
 50 47  1  0
 52 51  1  0
 53 51  1  0
 55 66  2  0
 56 54  1  0
 56 61  1  0
 57 65  1  0
 57 67  1  0
 58 64  1  0
 58 60  1  0
 59 65  1  0
 60 61  2  0
 60 59  1  0
 62 63  1  0
 62 56  2  0
 63 58  2  0
 64 57  1  0
 65 55  1  0
 67 69  2  0
 68 67  1  0
 70 68  1  0
 71 80  2  0
 71 76  1  0
 72 68  1  0
 72 76  1  0
 73 72  1  0
 74 75  1  0
 74 73  1  0
 75 71  1  0
 76 77  2  0
 77 78  1  0
 79 78  2  0
 80 79  1  0
 81 55  1  0
 81 82  1  0
 81 91  1  0
 82 85  1  0
 83 87  1  0
 83 82  1  0
 84 83  2  0
 87 86  1  0
 89 87  1  0
 89 90  1  0
 89 88  1  0
 91 94  1  1
 91 92  1  0
 93 91  1  0
M  ISO  4   6 101  16 100  24 100  54 101
M  END
>  <TORSDO>  (67) 
F 22

>  <SCORE>  (67) 
-11.005

>  <name>  (67) 
67

>  <ligand_id>  (67) 
67

>  <original_smiles>  (67) 
[H]c1c([H])c([H])c2c(c1[H])C([H])([H])C([H])([H])C([H])([H])C2([H])N([H])C(=O)C1([H])N(C(=O)C([H])(N([H])C(=O)C([H])(N([H])C([H])([H])[H])C([H])([H])[H])C(C([H])([H])[H])(C([H])([H])[H])C([H])([H])[H])C([H])([H])c2c([H])c(Oc3c([H])c(C([H])([H])[H])c(C(=O)C([H])([H])C([H])([H])C([H])([H])C([H])([H])C([H])([H])N([H])C(=O)N4C([H])([H])C([H])([H])C([H])([H])C([H])(n5nc(-c6c([H])c([H])c(Oc7c([H])c([H])c(F)c([H])c7F)c([H])c6[H])c(C(=O)N([H])[H])c5N([H])[H])C4([H])[H])c([H])c3C([H])([H])[H])c([H])c([H])c2C1([H])[H]

>  <smiles>  (67) 
[H]c1c([H])c([H])c2c(c1[H])C([H])([H])C([H])([H])C([H])([H])C2([H])N([H])C(=O)C1([H])N(C(=O)C([H])(N([H])C(=O)C([H])(N([H])C([H])([H])[H])C([H])([H])[H])C(C([H])([H])[H])(C([H])([H])[H])C([H])([H])[H])C([H])([H])c2c([H])c(Oc3c([H])c(C([H])([H])[H])c(C(=O)C([H])([H])C([H])([H])C([H])([H])C([H])([H])C([H])([H])N([H])C(=O)N4C([H])([H])C([H])([H])C([H])([H])C([H])(n5nc(-c6c([H])c([H])c(Oc7c([H])c([H])c(F)c([H])c7F)c([H])c6[H])c(C(=O)N([H])[H])c5N([H])[H])C4([H])[H])c([H])c3C([H])([H])[H])c([H])c([H])c2C1([H])[H]

$$$$
68:0:0
     RDKit          3D

 94102  0  0  1  0  0  0  0  0999 V2000
  -29.4910  -21.8830   22.0170 C   0  0  0  0  0  3  0  0  0  0  0  0
  -29.2210  -23.2740   22.0020 C   0  0  0  0  0  3  0  0  0  0  0  0
  -29.2810  -21.0520   20.8890 C   0  0  0  0  0  0  0  0  0  0  0  0
  -28.7120  -23.9260   20.8560 C   0  0  0  0  0  0  0  0  0  0  0  0
  -28.9060  -21.7220   19.6810 C   0  0  0  0  0  0  0  0  0  0  0  0
  -28.6140  -23.1350   19.6730 C   0  0  0  0  0  0  0  0  0  0  0  0
  -29.1200  -24.4690   17.8210 C   0  0  0  0  0  1  0  0  0  0  0  0
  -28.1400  -23.7140   18.5250 O   0  0  0  0  0  0  0  0  0  0  0  0
  -29.2890  -19.4950   21.1420 C   0  0  0  0  0  2  0  0  0  0  0  0
  -30.0500  -18.4390   20.2450 C   0  0  0  0  0  2  0  0  0  0  0  0
  -30.6210  -17.1570   21.0000 C   0  0  0  0  0  2  0  0  0  0  0  0
  -30.7930  -14.6830   20.3260 C   0  0  0  0  0  0  0  0  0  0  0  0
  -30.5120  -12.4690   19.2420 C   0  0  0  0  0  2  0  0  0  0  0  0
  -29.5680  -12.6080   18.0290 C   0  0  0  0  0  2  0  0  0  0  0  0
  -28.0970  -12.4640   18.4660 C   0  0  0  0  0  2  0  0  0  0  0  0
  -27.7500  -13.3310   19.7050 C   0  0  0  0  0  3  0  0  0  0  0  0
  -28.8130  -13.1810   20.8140 C   0  0  0  0  0  2  0  0  0  0  0  0
  -30.1200  -13.4980   20.2230 N   0  0  0  0  0  0  0  0  0  0  0  0
  -31.9650  -14.7900   19.9580 O   0  0  0  0  0  0  0  0  0  0  0  0
  -30.0820  -15.7900   20.6950 N   0  0  0  0  0  0  0  0  0  0  0  0
  -29.1120  -15.6290   20.9220 H   0  0  0  0  0  0  0  0  0  0  0  0
  -25.3550  -13.9310   20.4130 C   0  0  0  0  0  0  0  0  0  0  0  0
  -24.2880  -13.1580   20.7860 C   0  0  0  0  0  0  0  0  0  0  0  0
  -24.7530  -11.8070   20.7680 C   0  0  0  0  0  0  0  0  0  0  0  0
  -26.4020  -13.0510   20.1920 N   0  0  0  0  0  0  0  0  0  0  0  0
  -26.0460  -11.7690   20.4650 N   0  0  0  0  0  0  0  0  0  0  0  0
  -24.0270  -10.5460   20.9650 C   0  0  0  0  0  0  0  0  0  0  0  0
  -24.4530   -9.5880   21.9120 C   0  0  0  0  0  3  0  0  0  0  0  0
  -23.7270   -8.3920   22.0980 C   0  0  0  0  0  3  0  0  0  0  0  0
  -22.5620   -8.1440   21.3340 C   0  0  0  0  0  0  0  0  0  0  0  0
  -22.1560   -9.0880   20.3750 C   0  0  0  0  0  3  0  0  0  0  0  0
  -22.8830  -10.2760   20.1890 C   0  0  0  0  0  3  0  0  0  0  0  0
  -21.8090   -6.9980   21.4260 O   0  0  0  0  0  0  0  0  0  0  0  0
  -21.7430   -6.2730   22.5880 C   0  0  0  0  0  0  0  0  0  0  0  0
  -21.2900   -6.8440   23.7970 C   0  0  0  0  0  3  0  0  0  0  0  0
  -21.1710   -6.0460   24.9520 C   0  0  0  0  0  3  0  0  0  0  0  0
  -21.4970   -4.6760   24.8980 C   0  0  0  0  0  0  0  0  0  0  0  0
  -21.9410   -4.1040   23.6930 C   0  0  0  0  0  3  0  0  0  0  0  0
  -22.0610   -4.9010   22.5410 C   0  0  0  0  0  0  0  0  0  0  0  0
  -22.4710   -4.3400   21.3760 F   0  0  0  0  0  0  0  0  0  0  0  0
  -21.3760   -3.9060   26.0050 F   0  0  0  0  0  0  0  0  0  0  0  0
  -22.8890  -13.6350   21.0500 C   0  0  0  0  0  0  0  0  0  0  0  0
  -22.1610  -12.9430   21.9190 N   0  0  0  0  0  0  0  0  0  0  0  0
  -22.4520  -14.6550   20.5210 O   0  0  0  0  0  0  0  0  0  0  0  0
  -22.5260  -12.1140   22.3630 H   0  0  0  0  0  0  0  0  0  0  0  0
  -21.2240  -13.2480   22.1440 H   0  0  0  0  0  0  0  0  0  0  0  0
  -25.5190  -15.3010   20.2270 N   0  0  0  0  0  0  0  0  0  0  0  0
  -24.7520  -15.9570   20.3250 H   0  0  0  0  0  0  0  0  0  0  0  0
  -26.3680  -15.7360   19.8910 H   0  0  0  0  0  0  0  0  0  0  0  0
  -28.7920  -20.9470   18.3730 C   0  0  0  0  0  2  0  0  0  0  0  0
  -27.3200  -19.6350   16.7700 C   0  0  0  0  0  1  0  0  0  0  0  0
  -27.4340  -20.2620   18.1660 C   0  0  0  0  0  2  0  0  0  0  0  0
  -28.0170  -25.3190   21.0550 C   0  0  0  0  0  2  0  0  0  0  0  0
  -28.3410  -26.5190   20.2670 O   0  0  0  0  0  0  0  0  0  0  0  0
  -24.5970  -31.8930   23.2340 C   0  0  0  0  0  0  0  0  0  0  0  0
  -27.2600  -27.3970   20.1850 C   0  0  0  0  0  0  0  0  0  0  0  0
  -23.4110  -30.4880   21.5880 C   0  0  0  0  0  3  0  0  0  0  0  0
  -24.8800  -28.9580   20.1610 C   0  0  0  0  0  0  0  0  0  0  0  0
  -25.9460  -30.8390   21.4080 C   0  0  0  0  0  2  0  0  0  0  0  0
  -26.0400  -29.4660   20.7640 C   0  0  0  0  0  0  0  0  0  0  0  0
  -27.2370  -28.6930   20.7740 C   0  0  0  0  0  3  0  0  0  0  0  0
  -26.0890  -26.9410   19.5420 C   0  0  0  0  0  3  0  0  0  0  0  0
  -24.9030  -27.6980   19.5430 C   0  0  0  0  0  3  0  0  0  0  0  0
  -23.6310  -29.8120   20.2080 C   0  0  0  0  0  2  0  0  0  0  0  0
  -24.6710  -31.0910   22.1340 N   0  0  0  0  0  0  0  0  0  0  0  0
  -23.5100  -32.1570   23.7680 O   0  0  0  0  0  0  0  0  0  0  0  0
  -22.7570  -29.4640   22.5450 C   0  0  0  0  0  0  0  0  0  0  0  0
  -21.4300  -29.2810   22.4220 N   0  0  0  0  0  0  0  0  0  0  0  0
  -23.4400  -28.8350   23.3580 O   0  0  0  0  0  0  0  0  0  0  0  0
  -20.9390  -29.8370   21.7370 H   0  0  0  0  0  0  0  0  0  0  0  0
  -18.0530  -28.0950   22.9430 C   0  0  0  0  0  0  0  0  0  0  0  0
  -20.6140  -28.3420   23.1920 C   0  0  0  0  0  3  0  0  0  0  0  0
  -20.7070  -26.9140   22.6060 C   0  0  0  0  0  2  0  0  0  0  0  0
  -19.5960  -26.6000   21.6010 C   0  0  0  0  0  2  0  0  0  0  0  0
  -18.2190  -26.7510   22.2530 C   0  0  0  0  0  2  0  0  0  0  0  0
  -19.1770  -28.8490   23.3680 C   0  0  0  0  0  0  0  0  0  0  0  0
  -18.9700  -30.1090   23.9710 C   0  0  0  0  0  3  0  0  0  0  0  0
  -17.6680  -30.6140   24.1530 C   0  0  0  0  0  3  0  0  0  0  0  0
  -16.5580  -29.8570   23.7440 C   0  0  0  0  0  3  0  0  0  0  0  0
  -16.7490  -28.5980   23.1450 C   0  0  0  0  0  3  0  0  0  0  0  0
  -25.8740  -32.5400   23.8570 C   0  0  0  0  0  3  0  0  0  0  0  0
  -25.5540  -33.9360   24.1780 N   0  0  0  0  0  0  0  0  0  0  0  0
  -25.8880  -34.9890   23.4190 C   0  0  0  0  0  0  0  0  0  0  0  0
  -26.5720  -34.8860   22.3960 O   0  0  0  0  0  0  0  0  0  0  0  0
  -24.9610  -34.0930   24.9800 H   0  0  0  0  0  0  0  0  0  0  0  0
  -24.1620  -36.7740   23.0330 C   0  0  0  0  0  1  0  0  0  0  0  0
  -25.3890  -36.3760   23.8680 C   0  0  0  0  0  3  0  0  0  0  0  0
  -27.5050  -37.2660   24.7390 C   0  0  0  0  0  1  0  0  0  0  0  0
  -26.4200  -37.4330   23.7750 N   0  0  0  0  0  0  0  0  0  0  0  0
  -26.0070  -38.3500   23.9180 H   0  0  0  0  0  0  0  0  0  0  0  0
  -26.3900  -31.7790   25.1400 C   0  0  1  0  0  0  0  0  0  0  0  0
  -25.2940  -31.5370   26.2030 C   0  0  0  0  0  1  0  0  0  0  0  0
  -26.9860  -30.4050   24.7580 C   0  0  0  0  0  1  0  0  0  0  0  0
  -27.5290  -32.5860   25.8050 C   0  0  0  0  0  1  0  0  0  0  0  0
  2  1  1  0
  3  9  1  0
  3  1  2  0
  4 53  1  0
  4  2  2  0
  5  3  1  0
  6  5  2  0
  6  4  1  0
  7  8  1  0
  8  6  1  0
 10 11  1  0
 10  9  1  0
 12 20  1  0
 13 18  1  0
 14 15  1  0
 14 13  1  0
 16 15  1  0
 16 25  1  0
 16 17  1  0
 18 12  1  0
 18 17  1  0
 19 12  2  0
 20 21  1  0
 20 11  1  0
 22 23  2  0
 23 42  1  0
 24 23  1  0
 24 27  1  0
 25 22  1  0
 25 26  1  0
 26 24  2  0
 27 28  1  0
 28 29  2  0
 30 33  1  0
 30 29  1  0
 31 30  2  0
 32 31  1  0
 32 27  2  0
 33 34  1  0
 34 35  1  0
 35 36  2  0
 37 36  1  0
 37 41  1  0
 38 37  2  0
 39 34  2  0
 39 38  1  0
 40 39  1  0
 42 43  1  0
 43 46  1  0
 43 45  1  0
 44 42  2  0
 47 48  1  0
 47 22  1  0
 49 47  1  0
 50  5  1  0
 51 52  1  0
 52 50  1  0
 54 53  1  0
 55 66  2  0
 56 54  1  0
 56 61  1  0
 57 65  1  0
 57 67  1  0
 58 64  1  0
 58 60  1  0
 59 65  1  0
 60 61  2  0
 60 59  1  0
 62 63  1  0
 62 56  2  0
 63 58  2  0
 64 57  1  0
 65 55  1  0
 67 69  2  0
 68 67  1  0
 70 68  1  0
 71 80  2  0
 71 76  1  0
 72 68  1  0
 72 76  1  0
 73 72  1  0
 74 75  1  0
 74 73  1  0
 75 71  1  0
 76 77  2  0
 77 78  1  0
 79 78  2  0
 80 79  1  0
 81 55  1  0
 81 82  1  0
 81 91  1  0
 82 85  1  0
 83 87  1  0
 83 82  1  0
 84 83  2  0
 87 86  1  0
 89 87  1  0
 89 90  1  0
 89 88  1  0
 91 94  1  1
 91 92  1  0
 93 91  1  0
M  ISO  4  12 100  20 100  53 101  54 101
M  END
>  <TORSDO>  (68) 
F 23

>  <SCORE>  (68) 
-12.899

>  <name>  (68) 
68

>  <ligand_id>  (68) 
68

>  <original_smiles>  (68) 
[H]c1c([H])c([H])c2c(c1[H])C([H])([H])C([H])([H])C([H])([H])C2([H])N([H])C(=O)C1([H])N(C(=O)C([H])(N([H])C(=O)C([H])(N([H])C([H])([H])[H])C([H])([H])[H])C(C([H])([H])[H])(C([H])([H])[H])C([H])([H])[H])C([H])([H])c2c([H])c(OC([H])([H])c3c([H])c([H])c(C([H])([H])C([H])([H])C([H])([H])N([H])C(=O)N4C([H])([H])C([H])([H])C([H])([H])C([H])(n5nc(-c6c([H])c([H])c(Oc7c([H])c([H])c(F)c([H])c7F)c([H])c6[H])c(C(=O)N([H])[H])c5N([H])[H])C4([H])[H])c(C([H])([H])C([H])([H])C([H])([H])[H])c3OC([H])([H])[H])c([H])c([H])c2C1([H])[H]

>  <smiles>  (68) 
[H]c1c([H])c([H])c2c(c1[H])C([H])([H])C([H])([H])C([H])([H])C2([H])N([H])C(=O)C1([H])N(C(=O)C([H])(N([H])C(=O)C([H])(N([H])C([H])([H])[H])C([H])([H])[H])C(C([H])([H])[H])(C([H])([H])[H])C([H])([H])[H])C([H])([H])c2c([H])c(OC([H])([H])c3c([H])c([H])c(C([H])([H])C([H])([H])C([H])([H])N([H])C(=O)N4C([H])([H])C([H])([H])C([H])([H])C([H])(n5nc(-c6c([H])c([H])c(Oc7c([H])c([H])c(F)c([H])c7F)c([H])c6[H])c(C(=O)N([H])[H])c5N([H])[H])C4([H])[H])c(C([H])([H])C([H])([H])C([H])([H])[H])c3OC([H])([H])[H])c([H])c([H])c2C1([H])[H]

$$$$
69:0:0
     RDKit          3D

 95104  0  0  1  0  0  0  0  0999 V2000
  -29.1420  -22.8050   21.9920 C   0  0  0  0  0  3  0  0  0  0  0  0
  -28.8730  -24.0260   22.6480 C   0  0  0  0  0  3  0  0  0  0  0  0
  -28.8710  -23.9400   19.8730 C   0  0  0  0  0  3  0  0  0  0  0  0
  -29.1460  -22.6980   20.5870 C   0  0  0  0  0  0  0  0  0  0  0  0
  -28.6130  -25.2260   21.9380 C   0  0  0  0  0  0  0  0  0  0  0  0
  -28.5980  -25.2180   20.5240 C   0  0  0  0  0  0  0  0  0  0  0  0
  -28.3620  -26.4920   23.9740 C   0  0  0  0  0  1  0  0  0  0  0  0
  -28.4160  -26.4440   22.5550 O   0  0  0  0  0  0  0  0  0  0  0  0
  -28.4760  -26.4800   19.8710 O   0  0  0  0  0  0  0  0  0  0  0  0
  -24.5630  -31.7530   23.0470 C   0  0  0  0  0  0  0  0  0  0  0  0
  -27.3270  -27.2930   19.9480 C   0  0  0  0  0  0  0  0  0  0  0  0
  -23.4140  -30.3520   21.3700 C   0  0  0  0  0  3  0  0  0  0  0  0
  -24.9190  -28.8500   19.9430 C   0  0  0  0  0  0  0  0  0  0  0  0
  -25.9470  -30.7320   21.2210 C   0  0  0  0  0  2  0  0  0  0  0  0
  -26.0700  -29.3600   20.5590 C   0  0  0  0  0  0  0  0  0  0  0  0
  -27.2770  -28.5950   20.5490 C   0  0  0  0  0  3  0  0  0  0  0  0
  -26.1530  -26.8360   19.3180 C   0  0  0  0  0  3  0  0  0  0  0  0
  -24.9630  -27.5920   19.3160 C   0  0  0  0  0  3  0  0  0  0  0  0
  -23.6620  -29.6970   19.9840 C   0  0  0  0  0  2  0  0  0  0  0  0
  -24.6590  -30.9640   21.9360 N   0  0  0  0  0  0  0  0  0  0  0  0
  -23.4680  -31.9940   23.5740 O   0  0  0  0  0  0  0  0  0  0  0  0
  -22.7650  -29.3060   22.3090 C   0  0  0  0  0  0  0  0  0  0  0  0
  -21.4410  -29.1130   22.1760 N   0  0  0  0  0  0  0  0  0  0  0  0
  -23.4520  -28.6730   23.1140 O   0  0  0  0  0  0  0  0  0  0  0  0
  -20.9460  -29.6770   21.5000 H   0  0  0  0  0  0  0  0  0  0  0  0
  -18.0740  -27.8980   22.6930 C   0  0  0  0  0  0  0  0  0  0  0  0
  -20.6370  -28.1470   22.9250 C   0  0  0  0  0  3  0  0  0  0  0  0
  -20.7260  -26.7400   22.2880 C   0  0  0  0  0  2  0  0  0  0  0  0
  -19.6050  -26.4590   21.2840 C   0  0  0  0  0  2  0  0  0  0  0  0
  -18.2360  -26.5770   21.9600 C   0  0  0  0  0  2  0  0  0  0  0  0
  -19.2010  -28.6430   23.1330 C   0  0  0  0  0  0  0  0  0  0  0  0
  -18.9930  -29.8800   23.7800 C   0  0  0  0  0  3  0  0  0  0  0  0
  -17.6920  -30.3720   23.9940 C   0  0  0  0  0  3  0  0  0  0  0  0
  -16.5800  -29.6250   23.5690 C   0  0  0  0  0  3  0  0  0  0  0  0
  -16.7720  -28.3910   22.9260 C   0  0  0  0  0  3  0  0  0  0  0  0
  -25.8220  -32.4070   23.6960 C   0  0  0  0  0  3  0  0  0  0  0  0
  -26.3530  -31.6160   24.9560 C   0  0  1  0  0  0  0  0  0  0  0  0
  -25.2590  -31.3140   26.0060 C   0  0  0  0  0  1  0  0  0  0  0  0
  -26.9830  -30.2690   24.5320 C   0  0  0  0  0  1  0  0  0  0  0  0
  -27.4710  -32.4300   25.6500 C   0  0  0  0  0  1  0  0  0  0  0  0
  -25.4670  -33.7840   24.0640 N   0  0  0  0  0  0  0  0  0  0  0  0
  -25.7850  -34.8710   23.3500 C   0  0  0  0  0  0  0  0  0  0  0  0
  -26.4770  -34.8210   22.3290 O   0  0  0  0  0  0  0  0  0  0  0  0
  -24.8510  -33.8940   24.8570 H   0  0  0  0  0  0  0  0  0  0  0  0
  -24.0230  -36.6350   23.0170 C   0  0  0  0  0  1  0  0  0  0  0  0
  -25.2530  -36.2300   23.8450 C   0  0  0  0  0  3  0  0  0  0  0  0
  -27.3430  -37.1370   24.7650 C   0  0  0  0  0  1  0  0  0  0  0  0
  -26.2620  -37.3120   23.7980 N   0  0  0  0  0  0  0  0  0  0  0  0
  -25.8290  -38.2160   23.9650 H   0  0  0  0  0  0  0  0  0  0  0  0
  -29.5220  -21.2990   19.8930 C   0  0  0  0  0  2  0  0  0  0  0  0
  -29.5450  -18.5260   19.7560 C   0  0  0  0  0  0  0  0  0  0  0  0
  -30.9970  -18.0050   21.5990 C   0  0  0  0  0  2  0  0  0  0  0  0
  -30.7570  -19.5450   21.5240 C   0  0  0  0  0  2  0  0  0  0  0  0
  -30.5710  -17.4210   20.2460 C   0  0  0  0  0  3  0  0  0  0  0  0
  -29.5030  -19.8410   20.6510 C   0  0  1  0  0  0  0  0  0  0  0  0
  -28.2130  -19.7320   21.5010 C   0  0  0  0  0  1  0  0  0  0  0  0
  -28.7980  -18.3830   18.7850 O   0  0  0  0  0  0  0  0  0  0  0  0
  -30.9060  -14.8120   19.9870 C   0  0  0  0  0  0  0  0  0  0  0  0
  -30.6350  -12.5530   18.9470 C   0  0  0  0  0  2  0  0  0  0  0  0
  -29.6410  -12.6500   17.7680 C   0  0  0  0  0  2  0  0  0  0  0  0
  -28.1900  -12.4920   18.2640 C   0  0  0  0  0  2  0  0  0  0  0  0
  -27.8830  -13.3660   19.5090 C   0  0  0  0  0  3  0  0  0  0  0  0
  -28.9910  -13.2500   20.5790 C   0  0  0  0  0  2  0  0  0  0  0  0
  -30.2610  -13.5970   19.9290 N   0  0  0  0  0  0  0  0  0  0  0  0
  -32.0730  -14.9060   19.5990 O   0  0  0  0  0  0  0  0  0  0  0  0
  -30.1650  -15.9430   20.2860 N   0  0  0  0  0  0  0  0  0  0  0  0
  -29.2000  -15.7730   20.5210 H   0  0  0  0  0  0  0  0  0  0  0  0
  -25.5430  -13.9770   20.3640 C   0  0  0  0  0  0  0  0  0  0  0  0
  -24.4840  -13.2110   20.7680 C   0  0  0  0  0  0  0  0  0  0  0  0
  -24.9230  -11.8540   20.6850 C   0  0  0  0  0  0  0  0  0  0  0  0
  -26.5600  -13.0870   20.0570 N   0  0  0  0  0  0  0  0  0  0  0  0
  -26.1970  -11.8030   20.3130 N   0  0  0  0  0  0  0  0  0  0  0  0
  -24.1850  -10.5980   20.8800 C   0  0  0  0  0  0  0  0  0  0  0  0
  -24.5860   -9.6450   21.8410 C   0  0  0  0  0  3  0  0  0  0  0  0
  -23.8480   -8.4560   22.0240 C   0  0  0  0  0  3  0  0  0  0  0  0
  -22.6930   -8.2120   21.2440 C   0  0  0  0  0  0  0  0  0  0  0  0
  -22.3100   -9.1540   20.2710 C   0  0  0  0  0  3  0  0  0  0  0  0
  -23.0500  -10.3330   20.0880 C   0  0  0  0  0  3  0  0  0  0  0  0
  -21.9290   -7.0740   21.3330 O   0  0  0  0  0  0  0  0  0  0  0  0
  -21.7660   -6.4080   22.5220 C   0  0  0  0  0  0  0  0  0  0  0  0
  -21.2200   -7.0390   23.6600 C   0  0  0  0  0  3  0  0  0  0  0  0
  -21.0040   -6.2990   24.8400 C   0  0  0  0  0  3  0  0  0  0  0  0
  -21.3250   -4.9300   24.8820 C   0  0  0  0  0  0  0  0  0  0  0  0
  -21.8640   -4.2980   23.7480 C   0  0  0  0  0  3  0  0  0  0  0  0
  -22.0810   -5.0350   22.5690 C   0  0  0  0  0  0  0  0  0  0  0  0
  -22.5800   -4.4160   21.4730 F   0  0  0  0  0  0  0  0  0  0  0  0
  -21.1120   -4.2160   26.0130 F   0  0  0  0  0  0  0  0  0  0  0  0
  -23.1090  -13.7030   21.1140 C   0  0  0  0  0  0  0  0  0  0  0  0
  -22.4150  -13.0040   22.0060 N   0  0  0  0  0  0  0  0  0  0  0  0
  -22.6620  -14.7420   20.6310 O   0  0  0  0  0  0  0  0  0  0  0  0
  -22.7910  -12.1640   22.4190 H   0  0  0  0  0  0  0  0  0  0  0  0
  -21.4940  -13.3160   22.2810 H   0  0  0  0  0  0  0  0  0  0  0  0
  -25.7170  -15.3490   20.2070 N   0  0  0  0  0  0  0  0  0  0  0  0
  -24.9520  -15.9990   20.3550 H   0  0  0  0  0  0  0  0  0  0  0  0
  -26.5260  -15.7830   19.7840 H   0  0  0  0  0  0  0  0  0  0  0  0
  1  2  1  0
  3  6  2  0
  3  4  1  0
  4  1  2  0
  5  8  1  0
  5  2  2  0
  6  5  1  0
  8  7  1  0
  9 11  1  0
  9  6  1  0
 10 21  2  0
 11 16  1  0
 12 20  1  0
 12 22  1  0
 13 19  1  0
 13 15  1  0
 14 20  1  0
 15 14  1  0
 16 15  2  0
 17 11  2  0
 18 17  1  0
 18 13  2  0
 19 12  1  0
 20 10  1  0
 22 24  2  0
 23 22  1  0
 25 23  1  0
 26 35  2  0
 26 31  1  0
 27 23  1  0
 27 31  1  0
 28 27  1  0
 29 30  1  0
 29 28  1  0
 30 26  1  0
 31 32  2  0
 32 33  1  0
 34 33  2  0
 35 34  1  0
 36 10  1  0
 36 41  1  0
 36 37  1  0
 37 40  1  1
 37 38  1  0
 39 37  1  0
 41 44  1  0
 42 46  1  0
 42 41  1  0
 43 42  2  0
 46 45  1  0
 48 46  1  0
 48 49  1  0
 48 47  1  0
 50  4  1  0
 50 55  1  0
 51 54  1  0
 51 55  1  0
 53 52  1  0
 54 66  1  0
 54 52  1  0
 55 56  1  1
 55 53  1  0
 57 51  2  0
 58 66  1  0
 59 64  1  0
 60 61  1  0
 60 59  1  0
 62 61  1  0
 62 71  1  0
 62 63  1  0
 64 58  1  0
 64 63  1  0
 65 58  2  0
 66 67  1  0
 68 69  2  0
 69 88  1  0
 70 69  1  0
 70 73  1  0
 71 72  1  0
 71 68  1  0
 72 70  2  0
 73 74  1  0
 74 75  2  0
 76 79  1  0
 76 75  1  0
 77 76  2  0
 78 77  1  0
 78 73  2  0
 79 80  1  0
 80 85  2  0
 80 81  1  0
 81 82  2  0
 82 83  1  0
 83 87  1  0
 84 83  2  0
 85 84  1  0
 86 85  1  0
 88 89  1  0
 89 92  1  0
 89 91  1  0
 90 88  2  0
 93 94  1  0
 93 68  1  0
 95 93  1  0
M  ISO  4   6 101   9 101  58 100  66 100
M  END
>  <TORSDO>  (69) 
F 19

>  <SCORE>  (69) 
-12.952

>  <name>  (69) 
69

>  <ligand_id>  (69) 
69

>  <original_smiles>  (69) 
[H]c1c([H])c([H])c2c(c1[H])C([H])([H])C([H])([H])C([H])([H])C2([H])N([H])C(=O)C1([H])N(C(=O)C([H])(N([H])C(=O)C([H])(N([H])C([H])([H])[H])C([H])([H])[H])C(C([H])([H])[H])(C([H])([H])[H])C([H])([H])[H])C([H])([H])c2c([H])c(Oc3c([H])c(C([H])([H])C4(C([H])([H])[H])C(=O)C([H])(N([H])C(=O)N5C([H])([H])C([H])([H])C([H])([H])C([H])(n6nc(-c7c([H])c([H])c(Oc8c([H])c([H])c(F)c([H])c8F)c([H])c7[H])c(C(=O)N([H])[H])c6N([H])[H])C5([H])[H])C([H])([H])C4([H])[H])c([H])c([H])c3OC([H])([H])[H])c([H])c([H])c2C1([H])[H]

>  <smiles>  (69) 
[H]c1c([H])c([H])c2c(c1[H])C([H])([H])C([H])([H])C([H])([H])C2([H])N([H])C(=O)C1([H])N(C(=O)C([H])(N([H])C(=O)C([H])(N([H])C([H])([H])[H])C([H])([H])[H])C(C([H])([H])[H])(C([H])([H])[H])C([H])([H])[H])C([H])([H])c2c([H])c(Oc3c([H])c(C([H])([H])C4(C([H])([H])[H])C(=O)C([H])(N([H])C(=O)N5C([H])([H])C([H])([H])C([H])([H])C([H])(n6nc(-c7c([H])c([H])c(Oc8c([H])c([H])c(F)c([H])c8F)c([H])c7[H])c(C(=O)N([H])[H])c6N([H])[H])C5([H])[H])C([H])([H])C4([H])[H])c([H])c([H])c3OC([H])([H])[H])c([H])c([H])c2C1([H])[H]

$$$$
70:0:0
     RDKit          3D

 92100  0  0  1  0  0  0  0  0999 V2000
  -28.5270  -23.9240   20.0300 C   0  0  0  0  0  3  0  0  0  0  0  0
  -29.1530  -22.7970   22.0930 C   0  0  0  0  0  3  0  0  0  0  0  0
  -28.8320  -25.2330   22.0490 C   0  0  0  0  0  3  0  0  0  0  0  0
  -28.8410  -22.6810   20.7180 C   0  0  0  0  0  0  0  0  0  0  0  0
  -28.5240  -25.2220   20.6770 C   0  0  0  0  0  0  0  0  0  0  0  0
  -29.1520  -24.0540   22.7570 C   0  0  0  0  0  0  0  0  0  0  0  0
  -28.8210  -21.2700   20.0530 C   0  0  0  0  0  0  0  0  0  0  0  0
  -28.2740  -21.1150   18.9570 O   0  0  0  0  0  0  0  0  0  0  0  0
  -29.5140  -19.9850   20.7070 C   0  0  0  0  0  2  0  0  0  0  0  0
  -29.2150  -18.4840   20.1670 C   0  0  0  0  0  3  0  0  0  0  0  0
  -30.2270  -17.2860   20.5600 C   0  0  0  0  0  3  0  0  0  0  0  0
  -30.5830  -14.7160   20.0850 C   0  0  0  0  0  0  0  0  0  0  0  0
  -30.3510  -12.4600   19.0400 C   0  0  0  0  0  2  0  0  0  0  0  0
  -29.3660  -12.5490   17.8540 C   0  0  0  0  0  2  0  0  0  0  0  0
  -27.9120  -12.3790   18.3350 C   0  0  0  0  0  2  0  0  0  0  0  0
  -27.5870  -13.2520   19.5760 C   0  0  0  0  0  3  0  0  0  0  0  0
  -28.6850  -13.1380   20.6560 C   0  0  0  0  0  2  0  0  0  0  0  0
  -29.9570  -13.4940   20.0210 N   0  0  0  0  0  0  0  0  0  0  0  0
  -31.7530  -14.8350   19.7120 O   0  0  0  0  0  0  0  0  0  0  0  0
  -29.8150  -15.8250   20.3960 N   0  0  0  0  0  0  0  0  0  0  0  0
  -28.8570  -15.6140   20.6280 H   0  0  0  0  0  0  0  0  0  0  0  0
  -25.2240  -13.8440   20.3740 C   0  0  0  0  0  0  0  0  0  0  0  0
  -24.1720  -13.0690   20.7820 C   0  0  0  0  0  0  0  0  0  0  0  0
  -24.6370  -11.7200   20.7440 C   0  0  0  0  0  0  0  0  0  0  0  0
  -26.2600  -12.9650   20.1090 N   0  0  0  0  0  0  0  0  0  0  0  0
  -25.9170  -11.6820   20.3930 N   0  0  0  0  0  0  0  0  0  0  0  0
  -23.9190  -10.4570   20.9610 C   0  0  0  0  0  0  0  0  0  0  0  0
  -24.3760   -9.5010   21.8960 C   0  0  0  0  0  3  0  0  0  0  0  0
  -23.6600   -8.3020   22.1030 C   0  0  0  0  0  3  0  0  0  0  0  0
  -22.4720   -8.0510   21.3750 C   0  0  0  0  0  0  0  0  0  0  0  0
  -22.0340   -8.9950   20.4290 C   0  0  0  0  0  3  0  0  0  0  0  0
  -22.7510  -10.1860   20.2200 C   0  0  0  0  0  3  0  0  0  0  0  0
  -21.7260   -6.9050   21.4910 O   0  0  0  0  0  0  0  0  0  0  0  0
  -21.6990   -6.1780   22.6530 C   0  0  0  0  0  0  0  0  0  0  0  0
  -21.2820   -6.7450   23.8770 C   0  0  0  0  0  3  0  0  0  0  0  0
  -21.2050   -5.9440   25.0350 C   0  0  0  0  0  3  0  0  0  0  0  0
  -21.5320   -4.5770   24.9680 C   0  0  0  0  0  0  0  0  0  0  0  0
  -21.9410   -4.0090   23.7480 C   0  0  0  0  0  3  0  0  0  0  0  0
  -22.0210   -4.8070   22.5940 C   0  0  0  0  0  0  0  0  0  0  0  0
  -22.3960   -4.2510   21.4170 F   0  0  0  0  0  0  0  0  0  0  0  0
  -21.4490   -3.8030   26.0750 F   0  0  0  0  0  0  0  0  0  0  0  0
  -22.7830  -13.5440   21.0950 C   0  0  0  0  0  0  0  0  0  0  0  0
  -22.0840  -12.8490   21.9850 N   0  0  0  0  0  0  0  0  0  0  0  0
  -22.3270  -14.5670   20.5850 O   0  0  0  0  0  0  0  0  0  0  0  0
  -22.4660  -12.0210   22.4170 H   0  0  0  0  0  0  0  0  0  0  0  0
  -21.1530  -13.1490   22.2360 H   0  0  0  0  0  0  0  0  0  0  0  0
  -25.3770  -15.2140   20.1820 N   0  0  0  0  0  0  0  0  0  0  0  0
  -24.6090  -15.8630   20.3070 H   0  0  0  0  0  0  0  0  0  0  0  0
  -26.2020  -15.6510   19.7900 H   0  0  0  0  0  0  0  0  0  0  0  0
  -29.9580  -23.1040   24.8160 C   0  0  0  0  0  1  0  0  0  0  0  0
  -29.4690  -24.2230   24.0880 O   0  0  0  0  0  0  0  0  0  0  0  0
  -28.4080  -26.4810   20.0330 O   0  0  0  0  0  0  0  0  0  0  0  0
  -24.6490  -31.8540   23.1860 C   0  0  0  0  0  0  0  0  0  0  0  0
  -27.2740  -27.3030   20.1220 C   0  0  0  0  0  0  0  0  0  0  0  0
  -23.4500  -30.4590   21.5370 C   0  0  0  0  0  3  0  0  0  0  0  0
  -24.9060  -28.9070   20.1140 C   0  0  0  0  0  0  0  0  0  0  0  0
  -25.9870  -30.7820   21.3560 C   0  0  0  0  0  2  0  0  0  0  0  0
  -26.0720  -29.3990   20.7140 C   0  0  0  0  0  0  0  0  0  0  0  0
  -27.2620  -28.6080   20.7100 C   0  0  0  0  0  3  0  0  0  0  0  0
  -26.0880  -26.8590   19.5080 C   0  0  0  0  0  3  0  0  0  0  0  0
  -24.9150  -27.6410   19.5030 C   0  0  0  0  0  3  0  0  0  0  0  0
  -23.6680  -29.7830   20.1560 C   0  0  0  0  0  2  0  0  0  0  0  0
  -24.7140  -31.0500   22.0830 N   0  0  0  0  0  0  0  0  0  0  0  0
  -23.5650  -32.1260   23.7210 O   0  0  0  0  0  0  0  0  0  0  0  0
  -22.7880  -29.4380   22.4930 C   0  0  0  0  0  0  0  0  0  0  0  0
  -21.4590  -29.2750   22.3780 N   0  0  0  0  0  0  0  0  0  0  0  0
  -23.4690  -28.7980   23.2980 O   0  0  0  0  0  0  0  0  0  0  0  0
  -20.9690  -29.8410   21.7000 H   0  0  0  0  0  0  0  0  0  0  0  0
  -18.0780  -28.0990   22.9010 C   0  0  0  0  0  0  0  0  0  0  0  0
  -20.6410  -28.3350   23.1470 C   0  0  0  0  0  3  0  0  0  0  0  0
  -20.7250  -26.9090   22.5530 C   0  0  0  0  0  2  0  0  0  0  0  0
  -19.6100  -26.6080   21.5470 C   0  0  0  0  0  2  0  0  0  0  0  0
  -18.2370  -26.7570   22.2070 C   0  0  0  0  0  2  0  0  0  0  0  0
  -19.2070  -28.8470   23.3280 C   0  0  0  0  0  0  0  0  0  0  0  0
  -19.0040  -30.1040   23.9380 C   0  0  0  0  0  3  0  0  0  0  0  0
  -17.7060  -30.6140   24.1240 C   0  0  0  0  0  3  0  0  0  0  0  0
  -16.5910  -29.8630   23.7120 C   0  0  0  0  0  3  0  0  0  0  0  0
  -16.7770  -28.6080   23.1060 C   0  0  0  0  0  3  0  0  0  0  0  0
  -25.9300  -32.4860   23.8120 C   0  0  0  0  0  3  0  0  0  0  0  0
  -25.6140  -33.8780   24.1620 N   0  0  0  0  0  0  0  0  0  0  0  0
  -25.9260  -34.9420   23.4100 C   0  0  0  0  0  0  0  0  0  0  0  0
  -26.5810  -34.8560   22.3680 O   0  0  0  0  0  0  0  0  0  0  0  0
  -25.0280  -34.0180   24.9720 H   0  0  0  0  0  0  0  0  0  0  0  0
  -24.1770  -36.7250   23.1060 C   0  0  0  0  0  1  0  0  0  0  0  0
  -25.4360  -36.3230   23.8910 C   0  0  0  0  0  3  0  0  0  0  0  0
  -27.5770  -37.2190   24.6930 C   0  0  0  0  0  1  0  0  0  0  0  0
  -26.4580  -37.3850   23.7690 N   0  0  0  0  0  0  0  0  0  0  0  0
  -26.0470  -38.3010   23.9290 H   0  0  0  0  0  0  0  0  0  0  0  0
  -26.4550  -31.7010   25.0770 C   0  0  1  0  0  0  0  0  0  0  0  0
  -25.3660  -31.4470   26.1460 C   0  0  0  0  0  1  0  0  0  0  0  0
  -27.0420  -30.3310   24.6680 C   0  0  0  0  0  1  0  0  0  0  0  0
  -27.6040  -32.4930   25.7440 C   0  0  0  0  0  1  0  0  0  0  0  0
  1  5  2  0
  1  4  1  0
  2  6  1  0
  3  6  2  0
  4  2  2  0
  5  3  1  0
  6 51  1  0
  7  9  1  0
  7  4  1  0
  8  7  2  0
 10 11  2  0
 10  9  1  0
 12 20  1  0
 13 18  1  0
 14 15  1  0
 14 13  1  0
 16 15  1  0
 16 25  1  0
 16 17  1  0
 18 12  1  0
 18 17  1  0
 19 12  2  0
 20 11  1  0
 20 21  1  0
 22 23  2  0
 23 42  1  0
 24 23  1  0
 24 27  1  0
 25 22  1  0
 25 26  1  0
 26 24  2  0
 27 28  1  0
 28 29  2  0
 30 33  1  0
 30 29  1  0
 31 30  2  0
 32 31  1  0
 32 27  2  0
 33 34  1  0
 34 35  1  0
 35 36  2  0
 37 36  1  0
 37 41  1  0
 38 37  2  0
 39 34  2  0
 39 38  1  0
 40 39  1  0
 42 43  1  0
 43 46  1  0
 43 45  1  0
 44 42  2  0
 47 48  1  0
 47 22  1  0
 49 47  1  0
 51 50  1  0
 52 54  1  0
 52  5  1  0
 53 64  2  0
 54 59  1  0
 55 63  1  0
 55 65  1  0
 56 62  1  0
 56 58  1  0
 57 63  1  0
 58 57  1  0
 59 58  2  0
 60 54  2  0
 61 60  1  0
 61 56  2  0
 62 55  1  0
 63 53  1  0
 65 67  2  0
 66 65  1  0
 68 66  1  0
 69 78  2  0
 69 74  1  0
 70 66  1  0
 70 74  1  0
 71 70  1  0
 72 73  1  0
 72 71  1  0
 73 69  1  0
 74 75  2  0
 75 76  1  0
 77 76  2  0
 78 77  1  0
 79 53  1  0
 79 80  1  0
 79 89  1  0
 80 83  1  0
 81 85  1  0
 81 80  1  0
 82 81  2  0
 85 84  1  0
 87 85  1  0
 87 88  1  0
 87 86  1  0
 89 92  1  1
 89 90  1  0
 91 89  1  0
M  ISO  4   5 101  12 100  20 100  52 101
M  END
>  <TORSDO>  (70) 
F 21

>  <SCORE>  (70) 
-12.791

>  <name>  (70) 
70

>  <ligand_id>  (70) 
70

>  <original_smiles>  (70) 
[H]c1c([H])c([H])c2c(c1[H])C([H])([H])C([H])([H])C([H])([H])C2([H])N([H])C(=O)C1([H])N(C(=O)C([H])(N([H])C(=O)C([H])(N([H])C([H])([H])[H])C([H])([H])[H])C(C([H])([H])[H])(C([H])([H])[H])C([H])([H])[H])C([H])([H])c2c([H])c(Oc3c([H])c(OC([H])([H])[H])c([H])c(C(=O)C([H])([H])C([H])([H])C([H])([H])N([H])C(=O)N4C([H])([H])C([H])([H])C([H])([H])C([H])(n5nc(-c6c([H])c([H])c(Oc7c([H])c([H])c(F)c([H])c7F)c([H])c6[H])c(C(=O)N([H])[H])c5N([H])[H])C4([H])[H])c3[H])c([H])c([H])c2C1([H])[H]

>  <smiles>  (70) 
[H]c1c([H])c([H])c2c(c1[H])C([H])([H])C([H])([H])C([H])([H])C2([H])N([H])C(=O)C1([H])N(C(=O)C([H])(N([H])C(=O)C([H])(N([H])C([H])([H])[H])C([H])([H])[H])C(C([H])([H])[H])(C([H])([H])[H])C([H])([H])[H])C([H])([H])c2c([H])c(Oc3c([H])c(OC([H])([H])[H])c([H])c(C(=O)C([H])([H])C([H])([H])C([H])([H])N([H])C(=O)N4C([H])([H])C([H])([H])C([H])([H])C([H])(n5nc(-c6c([H])c([H])c(Oc7c([H])c([H])c(F)c([H])c7F)c([H])c6[H])c(C(=O)N([H])[H])c5N([H])[H])C4([H])[H])c3[H])c([H])c([H])c2C1([H])[H]

$$$$
71:0:0
     RDKit          3D

 91 99  0  0  1  0  0  0  0  0999 V2000
  -27.8470  -24.6210   16.9680 C   0  0  0  0  0  3  0  0  0  0  0  0
  -27.5340  -23.2890   17.2090 C   0  0  0  0  0  3  0  0  0  0  0  0
  -28.1850  -25.4400   18.0430 C   0  0  0  0  0  3  0  0  0  0  0  0
  -27.7310  -22.7140   18.4800 C   0  0  0  0  0  0  0  0  0  0  0  0
  -28.3320  -23.4550   19.5550 C   0  0  0  0  0  0  0  0  0  0  0  0
  -28.2800  -24.9860   19.3830 C   0  0  0  0  0  0  0  0  0  0  0  0
  -26.0560  -20.8270   17.8480 C   0  0  0  0  0  1  0  0  0  0  0  0
  -27.3090  -21.2550   18.6330 C   0  0  0  0  0  2  0  0  0  0  0  0
  -28.2940  -26.1980   20.2220 O   0  0  0  0  0  0  0  0  0  0  0  0
  -24.6540  -31.9470   23.2380 C   0  0  0  0  0  0  0  0  0  0  0  0
  -27.2510  -27.2230   20.1780 C   0  0  0  0  0  0  0  0  0  0  0  0
  -23.4540  -30.5320   21.6200 C   0  0  0  0  0  3  0  0  0  0  0  0
  -24.9020  -28.9710   20.1850 C   0  0  0  0  0  0  0  0  0  0  0  0
  -26.0080  -30.8170   21.4260 C   0  0  0  0  0  2  0  0  0  0  0  0
  -26.0910  -29.4210   20.7750 C   0  0  0  0  0  0  0  0  0  0  0  0
  -27.2630  -28.5640   20.7560 C   0  0  0  0  0  3  0  0  0  0  0  0
  -26.0120  -26.8770   19.5860 C   0  0  0  0  0  3  0  0  0  0  0  0
  -24.8780  -27.7110   19.5760 C   0  0  0  0  0  3  0  0  0  0  0  0
  -23.6680  -29.8570   20.2410 C   0  0  0  0  0  2  0  0  0  0  0  0
  -24.7260  -31.1200   22.1490 N   0  0  0  0  0  0  0  0  0  0  0  0
  -23.5690  -32.2220   23.7740 O   0  0  0  0  0  0  0  0  0  0  0  0
  -22.7960  -29.5190   22.5920 C   0  0  0  0  0  0  0  0  0  0  0  0
  -21.4710  -29.3170   22.4670 N   0  0  0  0  0  0  0  0  0  0  0  0
  -23.4800  -28.9190   23.4250 O   0  0  0  0  0  0  0  0  0  0  0  0
  -20.9740  -29.8520   21.7690 H   0  0  0  0  0  0  0  0  0  0  0  0
  -18.1220  -28.0220   22.9660 C   0  0  0  0  0  0  0  0  0  0  0  0
  -20.6700  -28.3710   23.2490 C   0  0  0  0  0  3  0  0  0  0  0  0
  -20.8210  -26.9310   22.7060 C   0  0  0  0  0  2  0  0  0  0  0  0
  -19.7400  -26.5530   21.6900 C   0  0  0  0  0  2  0  0  0  0  0  0
  -18.3480  -26.6660   22.3180 C   0  0  0  0  0  2  0  0  0  0  0  0
  -19.2130  -28.8290   23.3890 C   0  0  0  0  0  0  0  0  0  0  0  0
  -18.9460  -30.0940   23.9570 C   0  0  0  0  0  3  0  0  0  0  0  0
  -17.6250  -30.5540   24.1040 C   0  0  0  0  0  3  0  0  0  0  0  0
  -16.5490  -29.7460   23.6950 C   0  0  0  0  0  3  0  0  0  0  0  0
  -16.8000  -28.4820   23.1320 C   0  0  0  0  0  3  0  0  0  0  0  0
  -25.9300  -32.6020   23.8480 C   0  0  0  0  0  3  0  0  0  0  0  0
  -25.6010  -33.9980   24.1820 N   0  0  0  0  0  0  0  0  0  0  0  0
  -25.9210  -35.0590   23.4300 C   0  0  0  0  0  0  0  0  0  0  0  0
  -26.5920  -34.9690   22.3980 O   0  0  0  0  0  0  0  0  0  0  0  0
  -25.0030  -34.1400   24.9820 H   0  0  0  0  0  0  0  0  0  0  0  0
  -24.1850  -36.8490   23.0810 C   0  0  0  0  0  1  0  0  0  0  0  0
  -25.4230  -36.4420   23.8970 C   0  0  0  0  0  3  0  0  0  0  0  0
  -27.5450  -37.3340   24.7540 C   0  0  0  0  0  1  0  0  0  0  0  0
  -26.4510  -37.5020   23.8010 N   0  0  0  0  0  0  0  0  0  0  0  0
  -26.0370  -38.4190   23.9500 H   0  0  0  0  0  0  0  0  0  0  0  0
  -26.4630  -31.8440   25.1260 C   0  0  1  0  0  0  0  0  0  0  0  0
  -25.3800  -31.6020   26.2030 C   0  0  0  0  0  1  0  0  0  0  0  0
  -27.0580  -30.4690   24.7430 C   0  0  0  0  0  1  0  0  0  0  0  0
  -27.6100  -32.6540   25.7730 C   0  0  0  0  0  1  0  0  0  0  0  0
  -29.2020  -22.4740   20.5730 C   0  0  0  0  0  2  0  0  0  0  0  0
  -29.1610  -20.7840   20.9800 C   0  0  0  0  0  2  0  0  0  0  0  0
  -29.5210  -19.2890   20.2260 C   0  0  0  0  0  2  0  0  0  0  0  0
  -30.1400  -17.8870   20.9850 C   0  0  0  0  0  2  0  0  0  0  0  0
  -30.6760  -15.1600   20.5790 C   0  0  0  0  0  0  0  0  0  0  0  0
  -30.6350  -12.7920   19.6400 C   0  0  0  0  0  2  0  0  0  0  0  0
  -29.7460  -12.6970   18.3770 C   0  0  0  0  0  2  0  0  0  0  0  0
  -28.2730  -12.4620   18.7610 C   0  0  0  0  0  2  0  0  0  0  0  0
  -27.8040  -13.3970   19.9060 C   0  0  0  0  0  3  0  0  0  0  0  0
  -28.8180  -13.4520   21.0670 C   0  0  0  0  0  2  0  0  0  0  0  0
  -30.0950  -13.8920   20.4900 N   0  0  0  0  0  0  0  0  0  0  0  0
  -31.8990  -15.2230   20.4150 O   0  0  0  0  0  0  0  0  0  0  0  0
  -29.8770  -16.3480   20.6480 N   0  0  0  0  0  0  0  0  0  0  0  0
  -28.8930  -16.1220   20.6310 H   0  0  0  0  0  0  0  0  0  0  0  0
  -25.3880  -13.9430   20.5450 C   0  0  0  0  0  0  0  0  0  0  0  0
  -24.3230  -13.1540   20.8830 C   0  0  0  0  0  0  0  0  0  0  0  0
  -24.8120  -11.8110   20.8920 C   0  0  0  0  0  0  0  0  0  0  0  0
  -26.4550  -13.0800   20.3600 N   0  0  0  0  0  0  0  0  0  0  0  0
  -26.1150  -11.7940   20.6350 N   0  0  0  0  0  0  0  0  0  0  0  0
  -24.0980  -10.5390   21.0680 C   0  0  0  0  0  0  0  0  0  0  0  0
  -24.5060   -9.5910   22.0310 C   0  0  0  0  0  3  0  0  0  0  0  0
  -23.7910   -8.3850   22.1960 C   0  0  0  0  0  3  0  0  0  0  0  0
  -22.6530   -8.1190   21.3970 C   0  0  0  0  0  0  0  0  0  0  0  0
  -22.2650   -9.0580   20.4240 C   0  0  0  0  0  3  0  0  0  0  0  0
  -22.9810  -10.2540   20.2580 C   0  0  0  0  0  3  0  0  0  0  0  0
  -21.9120   -6.9640   21.4690 O   0  0  0  0  0  0  0  0  0  0  0  0
  -21.8250   -6.2380   22.6290 C   0  0  0  0  0  0  0  0  0  0  0  0
  -21.3360   -6.8020   23.8270 C   0  0  0  0  0  3  0  0  0  0  0  0
  -21.1970   -6.0000   24.9780 C   0  0  0  0  0  3  0  0  0  0  0  0
  -21.5350   -4.6350   24.9310 C   0  0  0  0  0  0  0  0  0  0  0  0
  -22.0170   -4.0700   23.7370 C   0  0  0  0  0  3  0  0  0  0  0  0
  -22.1580   -4.8680   22.5880 C   0  0  0  0  0  0  0  0  0  0  0  0
  -22.6020   -4.3140   21.4350 F   0  0  0  0  0  0  0  0  0  0  0  0
  -21.3950   -3.8630   26.0340 F   0  0  0  0  0  0  0  0  0  0  0  0
  -22.9080  -13.6110   21.0860 C   0  0  0  0  0  0  0  0  0  0  0  0
  -22.1530  -12.9150   21.9280 N   0  0  0  0  0  0  0  0  0  0  0  0
  -22.4790  -14.6230   20.5320 O   0  0  0  0  0  0  0  0  0  0  0  0
  -22.5140  -12.0980   22.3980 H   0  0  0  0  0  0  0  0  0  0  0  0
  -21.2020  -13.2040   22.1070 H   0  0  0  0  0  0  0  0  0  0  0  0
  -25.5330  -15.3130   20.3530 N   0  0  0  0  0  0  0  0  0  0  0  0
  -24.7460  -15.9490   20.4190 H   0  0  0  0  0  0  0  0  0  0  0  0
  -26.3740  -15.7630   20.0160 H   0  0  0  0  0  0  0  0  0  0  0  0
  1  2  2  0
  1  3  1  0
  2  4  1  0
  3  6  2  0
  4  8  1  0
  4  5  2  0
  5 50  1  0
  6  5  1  0
  6  9  1  0
  7  8  1  0
 10 21  2  0
 11  9  1  0
 11 16  1  0
 12 20  1  0
 12 22  1  0
 13 19  1  0
 13 15  1  0
 14 20  1  0
 15 14  1  0
 16 15  2  0
 17 11  2  0
 18 17  1  0
 18 13  2  0
 19 12  1  0
 20 10  1  0
 22 24  2  0
 23 22  1  0
 25 23  1  0
 26 35  2  0
 26 31  1  0
 27 23  1  0
 27 31  1  0
 28 27  1  0
 29 30  1  0
 29 28  1  0
 30 26  1  0
 31 32  2  0
 32 33  1  0
 34 33  2  0
 35 34  1  0
 36 10  1  0
 36 37  1  0
 36 46  1  0
 37 40  1  0
 38 42  1  0
 38 37  1  0
 39 38  2  0
 42 41  1  0
 44 42  1  0
 44 45  1  0
 44 43  1  0
 46 49  1  1
 46 47  1  0
 48 46  1  0
 50 51  1  0
 52 51  1  0
 52 53  1  0
 54 62  1  0
 55 60  1  0
 56 57  1  0
 56 55  1  0
 58 57  1  0
 58 67  1  0
 58 59  1  0
 60 54  1  0
 60 59  1  0
 61 54  2  0
 62 53  1  0
 63 62  1  0
 64 65  2  0
 65 66  1  0
 65 84  1  0
 66 69  1  0
 67 64  1  0
 67 68  1  0
 68 66  2  0
 69 70  1  0
 70 71  2  0
 72 75  1  0
 72 71  1  0
 73 72  2  0
 74 73  1  0
 74 69  2  0
 75 76  1  0
 76 77  1  0
 77 78  2  0
 79 78  1  0
 79 83  1  0
 80 79  2  0
 81 76  2  0
 81 80  1  0
 82 81  1  0
 84 85  1  0
 85 88  1  0
 85 87  1  0
 86 84  2  0
 89 90  1  0
 89 64  1  0
 91 89  1  0
M  ISO  4   6 101   9 101  54 100  62 100
M  END
>  <TORSDO>  (71) 
F 21

>  <SCORE>  (71) 
-14.723

>  <name>  (71) 
71

>  <ligand_id>  (71) 
71

>  <original_smiles>  (71) 
[H]c1c([H])c(Oc2c([H])c([H])c3c(c2[H])C([H])([H])N(C(=O)C([H])(N([H])C(=O)C([H])(N([H])C([H])([H])[H])C([H])([H])[H])C(C([H])([H])[H])(C([H])([H])[H])C([H])([H])[H])C([H])(C(=O)N([H])C2([H])c4c([H])c([H])c([H])c([H])c4C([H])([H])C([H])([H])C2([H])[H])C3([H])[H])c(C([H])([H])C([H])([H])C([H])([H])C([H])([H])N([H])C(=O)N2C([H])([H])C([H])([H])C([H])([H])C([H])(n3nc(-c4c([H])c([H])c(Oc5c([H])c([H])c(F)c([H])c5F)c([H])c4[H])c(C(=O)N([H])[H])c3N([H])[H])C2([H])[H])c(C([H])([H])C([H])([H])[H])c1[H]

>  <smiles>  (71) 
[H]c1c([H])c(Oc2c([H])c([H])c3c(c2[H])C([H])([H])N(C(=O)C([H])(N([H])C(=O)C([H])(N([H])C([H])([H])[H])C([H])([H])[H])C(C([H])([H])[H])(C([H])([H])[H])C([H])([H])[H])C([H])(C(=O)N([H])C2([H])c4c([H])c([H])c([H])c([H])c4C([H])([H])C([H])([H])C2([H])[H])C3([H])[H])c(C([H])([H])C([H])([H])C([H])([H])C([H])([H])N([H])C(=O)N2C([H])([H])C([H])([H])C([H])([H])C([H])(n3nc(-c4c([H])c([H])c(Oc5c([H])c([H])c(F)c([H])c5F)c([H])c4[H])c(C(=O)N([H])[H])c3N([H])[H])C2([H])[H])c(C([H])([H])C([H])([H])[H])c1[H]

$$$$
72:0:0
     RDKit          3D

 97107  0  0  1  0  0  0  0  0999 V2000
  -28.9450  -21.2120   19.8480 C   0  0  0  0  0  3  0  0  0  0  0  0
  -30.3190  -17.0130   21.4720 C   0  0  0  0  0  3  0  0  0  0  0  0
  -30.0470  -18.3840   21.2220 C   0  0  0  0  0  3  0  0  0  0  0  0
  -30.7090  -16.1310   20.4290 C   0  0  0  0  0  0  0  0  0  0  0  0
  -30.1760  -18.8790   19.9130 C   0  0  0  0  0  0  0  0  0  0  0  0
  -30.5540  -18.0270   18.8770 C   0  0  0  0  0  0  0  0  0  0  0  0
  -30.8340  -16.6630   19.1030 C   0  0  0  0  0  0  0  0  0  0  0  0
  -30.7810  -18.7750   17.5790 C   0  0  0  0  0  2  0  0  0  0  0  0
  -31.4930  -21.3040   18.0370 C   0  0  0  0  0  2  0  0  0  0  0  0
  -31.6100  -20.9430   19.5150 C   0  0  0  0  0  2  0  0  0  0  0  0
  -30.4220  -20.2110   17.9360 C   0  0  0  0  0  3  0  0  0  0  0  0
  -30.1790  -20.3410   19.4570 C   0  0  2  0  0  0  0  0  0  0  0  0
  -31.3740  -15.8570   17.9290 C   0  0  0  0  0  1  0  0  0  0  0  0
  -31.3190  -14.7850   20.7720 C   0  0  0  0  0  0  0  0  0  0  0  0
  -31.0250  -12.4760   19.9860 C   0  0  0  0  0  2  0  0  0  0  0  0
  -30.2030  -12.3760   18.6820 C   0  0  0  0  0  2  0  0  0  0  0  0
  -28.6900  -12.4300   18.9580 C   0  0  0  0  0  2  0  0  0  0  0  0
  -28.2500  -13.4790   20.0150 C   0  0  0  0  0  3  0  0  0  0  0  0
  -29.1940  -13.5010   21.2370 C   0  0  0  0  0  2  0  0  0  0  0  0
  -30.5710  -13.6510   20.7500 N   0  0  0  0  0  0  0  0  0  0  0  0
  -32.5460  -14.7630   20.7000 O   0  0  0  0  0  0  0  0  0  0  0  0
  -25.8400  -14.2120   20.5530 C   0  0  0  0  0  0  0  0  0  0  0  0
  -24.7020  -13.4930   20.8160 C   0  0  0  0  0  0  0  0  0  0  0  0
  -25.0910  -12.1190   20.8150 C   0  0  0  0  0  0  0  0  0  0  0  0
  -26.8540  -13.2760   20.4050 N   0  0  0  0  0  0  0  0  0  0  0  0
  -26.4020  -12.0150   20.6300 N   0  0  0  0  0  0  0  0  0  0  0  0
  -24.2850  -10.8940   20.9160 C   0  0  0  0  0  0  0  0  0  0  0  0
  -24.6470   -9.8450   21.7930 C   0  0  0  0  0  3  0  0  0  0  0  0
  -23.8470   -8.6860   21.8920 C   0  0  0  0  0  3  0  0  0  0  0  0
  -22.6730   -8.5630   21.1090 C   0  0  0  0  0  0  0  0  0  0  0  0
  -22.3340   -9.5980   20.2200 C   0  0  0  0  0  3  0  0  0  0  0  0
  -23.1320  -10.7490   20.1200 C   0  0  0  0  0  3  0  0  0  0  0  0
  -21.8480   -7.4650   21.1180 O   0  0  0  0  0  0  0  0  0  0  0  0
  -21.7800   -6.6270   22.2030 C   0  0  0  0  0  0  0  0  0  0  0  0
  -21.3800   -7.0880   23.4800 C   0  0  0  0  0  3  0  0  0  0  0  0
  -21.2570   -6.1770   24.5470 C   0  0  0  0  0  3  0  0  0  0  0  0
  -21.5220   -4.8100   24.3430 C   0  0  0  0  0  0  0  0  0  0  0  0
  -21.9160   -4.3500   23.0750 C   0  0  0  0  0  3  0  0  0  0  0  0
  -22.0390   -5.2550   22.0060 C   0  0  0  0  0  0  0  0  0  0  0  0
  -22.3940   -4.8060   20.7780 F   0  0  0  0  0  0  0  0  0  0  0  0
  -21.3990   -3.9350   25.3680 F   0  0  0  0  0  0  0  0  0  0  0  0
  -23.3120  -14.0390   20.9720 C   0  0  0  0  0  0  0  0  0  0  0  0
  -22.4840  -13.3800   21.7740 N   0  0  0  0  0  0  0  0  0  0  0  0
  -22.9660  -15.0800   20.4150 O   0  0  0  0  0  0  0  0  0  0  0  0
  -22.7730  -12.5330   22.2380 H   0  0  0  0  0  0  0  0  0  0  0  0
  -21.5470  -13.7310   21.9300 H   0  0  0  0  0  0  0  0  0  0  0  0
  -26.0950  -15.5720   20.4090 N   0  0  0  0  0  0  0  0  0  0  0  0
  -25.3670  -16.2740   20.4730 H   0  0  0  0  0  0  0  0  0  0  0  0
  -27.0090  -15.9680   20.2230 H   0  0  0  0  0  0  0  0  0  0  0  0
  -26.4000  -21.3830   19.3820 C   0  0  0  0  0  1  0  0  0  0  0  0
  -27.5830  -20.4750   19.7770 C   0  0  0  0  0  2  0  0  0  0  0  0
  -29.1580  -21.9770   21.1760 C   0  0  0  0  0  2  0  0  0  0  0  0
  -29.6730  -23.4250   20.9570 C   0  0  0  0  0  2  0  0  0  0  0  0
  -28.5860  -24.4920   20.7110 C   0  0  0  0  0  0  0  0  0  0  0  0
  -27.4650  -24.4080   21.2260 O   0  0  0  0  0  0  0  0  0  0  0  0
  -28.9600  -25.6620   19.7860 C   0  0  0  0  0  2  0  0  0  0  0  0
  -28.7490  -26.9320   20.4280 O   0  0  0  0  0  0  0  0  0  0  0  0
  -24.5580  -31.8460   23.3830 C   0  0  0  0  0  0  0  0  0  0  0  0
  -27.5270  -27.5650   20.3670 C   0  0  0  0  0  0  0  0  0  0  0  0
  -23.4910  -30.4380   21.6550 C   0  0  0  0  0  3  0  0  0  0  0  0
  -25.0760  -28.9840   20.2820 C   0  0  0  0  0  0  0  0  0  0  0  0
  -26.0130  -30.8910   21.5980 C   0  0  0  0  0  2  0  0  0  0  0  0
  -26.1810  -29.5350   20.9470 C   0  0  0  0  0  0  0  0  0  0  0  0
  -27.4040  -28.8350   20.9770 C   0  0  0  0  0  3  0  0  0  0  0  0
  -26.3940  -27.0210   19.7060 C   0  0  0  0  0  3  0  0  0  0  0  0
  -25.1830  -27.7310   19.6590 C   0  0  0  0  0  3  0  0  0  0  0  0
  -23.8010  -29.7960   20.2740 C   0  0  0  0  0  2  0  0  0  0  0  0
  -24.7040  -31.0740   22.2710 N   0  0  0  0  0  0  0  0  0  0  0  0
  -23.4410  -32.0690   23.8670 O   0  0  0  0  0  0  0  0  0  0  0  0
  -22.8340  -29.3700   22.5590 C   0  0  0  0  0  0  0  0  0  0  0  0
  -21.5290  -29.1320   22.3490 N   0  0  0  0  0  0  0  0  0  0  0  0
  -23.4960  -28.7630   23.4060 O   0  0  0  0  0  0  0  0  0  0  0  0
  -21.0520  -29.6860   21.6480 H   0  0  0  0  0  0  0  0  0  0  0  0
  -18.1860  -27.8010   22.6440 C   0  0  0  0  0  0  0  0  0  0  0  0
  -20.7130  -28.1460   23.0560 C   0  0  0  0  0  3  0  0  0  0  0  0
  -20.8990  -26.7330   22.4560 C   0  0  0  0  0  2  0  0  0  0  0  0
  -19.8700  -26.3930   21.3770 C   0  0  0  0  0  2  0  0  0  0  0  0
  -18.4500  -26.4740   21.9490 C   0  0  0  0  0  2  0  0  0  0  0  0
  -19.2500  -28.5950   23.1480 C   0  0  0  0  0  0  0  0  0  0  0  0
  -18.9520  -29.8350   23.7520 C   0  0  0  0  0  3  0  0  0  0  0  0
  -17.6230  -30.2870   23.8580 C   0  0  0  0  0  3  0  0  0  0  0  0
  -16.5720  -29.4910   23.3690 C   0  0  0  0  0  3  0  0  0  0  0  0
  -16.8510  -28.2500   22.7700 C   0  0  0  0  0  3  0  0  0  0  0  0
  -25.7860  -32.5110   24.0780 C   0  0  0  0  0  3  0  0  0  0  0  0
  -25.4610  -33.9270   24.3090 N   0  0  0  0  0  0  0  0  0  0  0  0
  -25.8640  -34.9340   23.5240 C   0  0  0  0  0  0  0  0  0  0  0  0
  -26.6170  -34.7730   22.5600 O   0  0  0  0  0  0  0  0  0  0  0  0
  -24.8210  -34.1340   25.0610 H   0  0  0  0  0  0  0  0  0  0  0  0
  -24.1880  -36.7030   22.8880 C   0  0  0  0  0  1  0  0  0  0  0  0
  -25.3350  -36.3460   23.8490 C   0  0  0  0  0  3  0  0  0  0  0  0
  -27.3670  -37.2860   24.8520 C   0  0  0  0  0  1  0  0  0  0  0  0
  -26.3780  -37.3930   23.7860 N   0  0  0  0  0  0  0  0  0  0  0  0
  -25.9590  -38.3170   23.8300 H   0  0  0  0  0  0  0  0  0  0  0  0
  -26.1900  -31.8100   25.4320 C   0  0  1  0  0  0  0  0  0  0  0  0
  -25.0090  -31.6000   26.4070 C   0  0  0  0  0  1  0  0  0  0  0  0
  -26.8190  -30.4230   25.1590 C   0  0  0  0  0  1  0  0  0  0  0  0
  -27.2660  -32.6460   26.1640 C   0  0  0  0  0  1  0  0  0  0  0  0
  1 51  1  0
  1 52  1  0
  3  2  1  0
  4 14  1  0
  4  2  2  0
  5  3  2  0
  6  7  2  0
  6  5  1  0
  7  4  1  0
  8  6  1  0
  9 10  1  0
 11  8  1  0
 11  9  1  0
 11 12  1  0
 12 10  1  0
 12  1  1  6
 12  5  1  0
 13  7  1  0
 15 20  1  0
 16 17  1  0
 16 15  1  0
 18 17  1  0
 18 25  1  0
 18 19  1  0
 20 14  1  0
 20 19  1  0
 21 14  2  0
 22 23  2  0
 23 42  1  0
 24 23  1  0
 24 27  1  0
 25 22  1  0
 25 26  1  0
 26 24  2  0
 27 28  1  0
 28 29  2  0
 30 33  1  0
 30 29  1  0
 31 30  2  0
 32 31  1  0
 32 27  2  0
 33 34  1  0
 34 35  1  0
 35 36  2  0
 37 36  1  0
 37 41  1  0
 38 37  2  0
 39 34  2  0
 39 38  1  0
 40 39  1  0
 42 43  1  0
 43 46  1  0
 43 45  1  0
 44 42  2  0
 47 48  1  0
 47 22  1  0
 49 47  1  0
 50 51  1  0
 53 52  1  0
 54 53  1  0
 54 55  2  0
 56 57  1  0
 56 54  1  0
 58 69  2  0
 59 57  1  0
 59 64  1  0
 60 68  1  0
 60 70  1  0
 61 63  1  0
 62 68  1  0
 63 64  2  0
 63 62  1  0
 65 59  2  0
 66 65  1  0
 66 61  2  0
 67 61  1  0
 67 60  1  0
 68 58  1  0
 70 72  2  0
 71 70  1  0
 73 71  1  0
 74 83  2  0
 74 79  1  0
 75 71  1  0
 75 79  1  0
 76 75  1  0
 77 78  1  0
 77 76  1  0
 78 74  1  0
 79 80  2  0
 80 81  1  0
 82 81  2  0
 83 82  1  0
 84 58  1  0
 84 85  1  0
 84 94  1  0
 85 88  1  0
 86 90  1  0
 86 85  1  0
 87 86  2  0
 90 89  1  0
 92 93  1  0
 92 90  1  0
 92 91  1  0
 94 97  1  1
 94 95  1  0
 96 94  1  0
M  ISO  4   4 100  14 100  56 101  57 101
M  END
>  <TORSDO>  (72) 
F 22

>  <SCORE>  (72) 
-12.098

>  <name>  (72) 
72

>  <ligand_id>  (72) 
72

>  <original_smiles>  (72) 
[H]c1c([H])c([H])c2c(c1[H])C([H])([H])C([H])([H])C([H])([H])C2([H])N([H])C(=O)C1([H])N(C(=O)C([H])(N([H])C(=O)C([H])(N([H])C([H])([H])[H])C([H])([H])[H])C(C([H])([H])[H])(C([H])([H])[H])C([H])([H])[H])C([H])([H])c2c([H])c(OC([H])([H])C(=O)C([H])([H])C([H])([H])C([H])(C([H])([H])C([H])([H])[H])C34c5c([H])c([H])c(C(=O)N6C([H])([H])C([H])([H])C([H])([H])C([H])(n7nc(-c8c([H])c([H])c(Oc9c([H])c([H])c(F)c([H])c9F)c([H])c8[H])c(C(=O)N([H])[H])c7N([H])[H])C6([H])[H])c(C([H])([H])[H])c5C([H])([H])C3([H])C([H])([H])C4([H])[H])c([H])c([H])c2C1([H])[H]

>  <smiles>  (72) 
[H]c1c([H])c([H])c2c(c1[H])C([H])([H])C([H])([H])C([H])([H])C2([H])N([H])C(=O)C1([H])N(C(=O)C([H])(N([H])C(=O)C([H])(N([H])C([H])([H])[H])C([H])([H])[H])C(C([H])([H])[H])(C([H])([H])[H])C([H])([H])[H])C([H])([H])c2c([H])c(OC([H])([H])C(=O)C([H])([H])C([H])([H])C([H])(C([H])([H])C([H])([H])[H])C34c5c([H])c([H])c(C(=O)N6C([H])([H])C([H])([H])C([H])([H])C([H])(n7nc(-c8c([H])c([H])c(Oc9c([H])c([H])c(F)c([H])c9F)c([H])c8[H])c(C(=O)N([H])[H])c7N([H])[H])C6([H])[H])c(C([H])([H])[H])c5C([H])([H])C3([H])C([H])([H])C4([H])[H])c([H])c([H])c2C1([H])[H]

$$$$
73:0:0
     RDKit          3D

 94102  0  0  1  0  0  0  0  0999 V2000
  -29.9490  -23.2240   20.9170 C   0  0  0  0  0  3  0  0  0  0  0  0
  -30.8720  -24.2720   20.8420 C   0  0  0  0  0  3  0  0  0  0  0  0
  -28.5650  -23.4510   20.7300 C   0  0  0  0  0  0  0  0  0  0  0  0
  -30.4460  -25.5680   20.5180 C   0  0  0  0  0  0  0  0  0  0  0  0
  -28.1120  -24.8040   20.5660 C   0  0  0  0  0  0  0  0  0  0  0  0
  -29.0700  -25.8530   20.3360 C   0  0  0  0  0  0  0  0  0  0  0  0
  -31.5120  -26.6540   20.4260 C   0  0  0  0  0  1  0  0  0  0  0  0
  -26.6230  -25.1140   20.7510 C   0  0  0  0  0  1  0  0  0  0  0  0
  -27.6500  -22.2480   20.6540 C   0  0  0  0  0  0  0  0  0  0  0  0
  -26.5570  -22.2520   20.0810 O   0  0  0  0  0  0  0  0  0  0  0  0
  -28.0950  -20.9110   21.2690 C   0  0  0  0  0  2  0  0  0  0  0  0
  -29.0410  -20.0800   20.3640 C   0  0  0  0  0  2  0  0  0  0  0  0
  -29.5750  -18.8140   21.0620 C   0  0  0  0  0  2  0  0  0  0  0  0
  -30.3150  -17.8710   20.1000 C   0  0  0  0  0  2  0  0  0  0  0  0
  -30.7030  -16.5180   20.7260 C   0  0  0  0  0  2  0  0  0  0  0  0
  -31.9460  -14.5290   19.8510 C   0  0  0  0  0  0  0  0  0  0  0  0
  -31.5030  -12.2770   18.9850 C   0  0  0  0  0  2  0  0  0  0  0  0
  -30.5480  -12.4160   17.7810 C   0  0  0  0  0  2  0  0  0  0  0  0
  -29.0740  -12.4380   18.2460 C   0  0  0  0  0  2  0  0  0  0  0  0
  -28.8240  -13.4210   19.4220 C   0  0  0  0  0  3  0  0  0  0  0  0
  -29.8940  -13.2430   20.5250 C   0  0  0  0  0  2  0  0  0  0  0  0
  -31.2110  -13.3900   19.8960 N   0  0  0  0  0  0  0  0  0  0  0  0
  -33.1140  -14.5700   19.4630 O   0  0  0  0  0  0  0  0  0  0  0  0
  -31.2170  -15.6360   19.6790 N   0  0  0  0  0  0  0  0  0  0  0  0
  -31.6470  -16.1790   18.9470 H   0  0  0  0  0  0  0  0  0  0  0  0
  -26.5370  -14.2810   20.2290 C   0  0  0  0  0  0  0  0  0  0  0  0
  -25.4070  -13.6220   20.6420 C   0  0  0  0  0  0  0  0  0  0  0  0
  -25.7160  -12.2280   20.5780 C   0  0  0  0  0  0  0  0  0  0  0  0
  -27.4680  -13.2930   19.9510 N   0  0  0  0  0  0  0  0  0  0  0  0
  -26.9790  -12.0550   20.2130 N   0  0  0  0  0  0  0  0  0  0  0  0
  -24.8650  -11.0480   20.7810 C   0  0  0  0  0  0  0  0  0  0  0  0
  -25.1650  -10.0850   21.7690 C   0  0  0  0  0  3  0  0  0  0  0  0
  -24.3230   -8.9680   21.9600 C   0  0  0  0  0  3  0  0  0  0  0  0
  -23.1700   -8.8020   21.1590 C   0  0  0  0  0  0  0  0  0  0  0  0
  -22.8890   -9.7520   20.1590 C   0  0  0  0  0  3  0  0  0  0  0  0
  -23.7300  -10.8610   19.9660 C   0  0  0  0  0  3  0  0  0  0  0  0
  -22.3060   -7.7370   21.2560 O   0  0  0  0  0  0  0  0  0  0  0  0
  -22.0590   -7.1150   22.4550 C   0  0  0  0  0  0  0  0  0  0  0  0
  -21.5560   -7.8210   23.5670 C   0  0  0  0  0  3  0  0  0  0  0  0
  -21.2460   -7.1340   24.7590 C   0  0  0  0  0  3  0  0  0  0  0  0
  -21.4380   -5.7410   24.8380 C   0  0  0  0  0  0  0  0  0  0  0  0
  -21.9350   -5.0350   23.7300 C   0  0  0  0  0  3  0  0  0  0  0  0
  -22.2430   -5.7190   22.5400 C   0  0  0  0  0  0  0  0  0  0  0  0
  -22.7030   -5.0300   21.4690 F   0  0  0  0  0  0  0  0  0  0  0  0
  -21.1340   -5.0810   25.9810 F   0  0  0  0  0  0  0  0  0  0  0  0
  -24.0840  -14.2410   20.9810 C   0  0  0  0  0  0  0  0  0  0  0  0
  -23.3250  -13.6210   21.8800 N   0  0  0  0  0  0  0  0  0  0  0  0
  -23.7330  -15.3100   20.4820 O   0  0  0  0  0  0  0  0  0  0  0  0
  -23.6120  -12.7520   22.3090 H   0  0  0  0  0  0  0  0  0  0  0  0
  -22.4370  -14.0250   22.1380 H   0  0  0  0  0  0  0  0  0  0  0  0
  -26.8420  -15.6260   20.0490 N   0  0  0  0  0  0  0  0  0  0  0  0
  -26.1610  -16.3630   20.1880 H   0  0  0  0  0  0  0  0  0  0  0  0
  -27.7240  -15.9730   19.6880 H   0  0  0  0  0  0  0  0  0  0  0  0
  -28.8200  -27.1720   19.9790 O   0  0  0  0  0  0  0  0  0  0  0  0
  -24.6500  -31.8460   23.2580 C   0  0  0  0  0  0  0  0  0  0  0  0
  -27.5990  -27.7970   19.9650 C   0  0  0  0  0  0  0  0  0  0  0  0
  -23.5710  -30.5450   21.4460 C   0  0  0  0  0  3  0  0  0  0  0  0
  -25.1470  -29.1890   19.9680 C   0  0  0  0  0  0  0  0  0  0  0  0
  -26.0790  -31.0220   21.3960 C   0  0  0  0  0  2  0  0  0  0  0  0
  -26.2460  -29.7070   20.6640 C   0  0  0  0  0  0  0  0  0  0  0  0
  -27.4700  -29.0110   20.6700 C   0  0  0  0  0  3  0  0  0  0  0  0
  -26.5000  -27.3020   19.2300 C   0  0  0  0  0  3  0  0  0  0  0  0
  -25.2660  -27.9820   19.2490 C   0  0  0  0  0  3  0  0  0  0  0  0
  -23.8670  -29.9910   20.0240 C   0  0  0  0  0  2  0  0  0  0  0  0
  -24.7820  -31.1470   22.0960 N   0  0  0  0  0  0  0  0  0  0  0  0
  -23.5370  -32.0320   23.7680 O   0  0  0  0  0  0  0  0  0  0  0  0
  -22.9200  -29.4270   22.2850 C   0  0  0  0  0  0  0  0  0  0  0  0
  -21.5960  -29.2640   22.1410 N   0  0  0  0  0  0  0  0  0  0  0  0
  -23.6010  -28.7100   23.0250 O   0  0  0  0  0  0  0  0  0  0  0  0
  -21.1110  -29.8870   21.5110 H   0  0  0  0  0  0  0  0  0  0  0  0
  -18.1990  -28.1230   22.6060 C   0  0  0  0  0  0  0  0  0  0  0  0
  -20.7750  -28.2520   22.8040 C   0  0  0  0  0  3  0  0  0  0  0  0
  -20.8030  -26.9220   22.0210 C   0  0  0  0  0  2  0  0  0  0  0  0
  -19.6520  -26.7880   21.0170 C   0  0  0  0  0  2  0  0  0  0  0  0
  -18.3010  -26.8800   21.7370 C   0  0  0  0  0  2  0  0  0  0  0  0
  -19.3630  -28.7740   23.0950 C   0  0  0  0  0  0  0  0  0  0  0  0
  -19.2200  -29.9440   23.8720 C   0  0  0  0  0  3  0  0  0  0  0  0
  -17.9440  -30.4610   24.1660 C   0  0  0  0  0  3  0  0  0  0  0  0
  -16.7960  -29.8030   23.6950 C   0  0  0  0  0  3  0  0  0  0  0  0
  -16.9230  -28.6380   22.9210 C   0  0  0  0  0  3  0  0  0  0  0  0
  -25.8830  -32.4660   23.9890 C   0  0  0  0  0  3  0  0  0  0  0  0
  -25.5390  -33.8490   24.3420 N   0  0  0  0  0  0  0  0  0  0  0  0
  -25.9270  -34.9280   23.6490 C   0  0  0  0  0  0  0  0  0  0  0  0
  -26.6820  -34.8650   22.6750 O   0  0  0  0  0  0  0  0  0  0  0  0
  -24.8860  -33.9730   25.1020 H   0  0  0  0  0  0  0  0  0  0  0  0
  -24.2300  -36.7280   23.2050 C   0  0  0  0  0  1  0  0  0  0  0  0
  -25.3930  -36.2970   24.1100 C   0  0  0  0  0  3  0  0  0  0  0  0
  -27.4390  -37.1540   25.1630 C   0  0  0  0  0  1  0  0  0  0  0  0
  -26.4270  -37.3560   24.1290 N   0  0  0  0  0  0  0  0  0  0  0  0
  -26.0040  -38.2670   24.2780 H   0  0  0  0  0  0  0  0  0  0  0  0
  -26.3180  -31.6540   25.2700 C   0  0  1  0  0  0  0  0  0  0  0  0
  -25.1560  -31.3630   26.2480 C   0  0  0  0  0  1  0  0  0  0  0  0
  -26.9440  -30.2990   24.8640 C   0  0  0  0  0  1  0  0  0  0  0  0
  -27.4070  -32.4340   26.0450 C   0  0  0  0  0  1  0  0  0  0  0  0
  2  1  1  0
  3  1  2  0
  4  2  2  0
  5  3  1  0
  5  8  1  0
  6  4  1  0
  6  5  2  0
  7  4  1  0
  9  3  1  0
  9 11  1  0
 10  9  2  0
 12 13  1  0
 12 11  1  0
 14 15  1  0
 14 13  1  0
 16 22  1  0
 17 22  1  0
 18 19  1  0
 18 17  1  0
 20 19  1  0
 20 29  1  0
 20 21  1  0
 22 21  1  0
 23 16  2  0
 24 16  1  0
 24 15  1  0
 25 24  1  0
 26 27  2  0
 27 46  1  0
 28 27  1  0
 28 31  1  0
 29 30  1  0
 29 26  1  0
 30 28  2  0
 31 32  1  0
 32 33  2  0
 34 37  1  0
 34 33  1  0
 35 34  2  0
 36 35  1  0
 36 31  2  0
 37 38  1  0
 38 43  2  0
 38 39  1  0
 39 40  2  0
 40 41  1  0
 41 45  1  0
 42 41  2  0
 43 42  1  0
 44 43  1  0
 46 47  1  0
 47 50  1  0
 47 49  1  0
 48 46  2  0
 51 52  1  0
 51 26  1  0
 53 51  1  0
 54  6  1  0
 55 66  2  0
 56 54  1  0
 56 61  1  0
 57 65  1  0
 57 67  1  0
 58 64  1  0
 58 60  1  0
 59 65  1  0
 60 61  2  0
 60 59  1  0
 62 63  1  0
 62 56  2  0
 63 58  2  0
 64 57  1  0
 65 55  1  0
 67 69  2  0
 68 67  1  0
 70 68  1  0
 71 80  2  0
 71 76  1  0
 72 68  1  0
 72 76  1  0
 73 72  1  0
 74 75  1  0
 74 73  1  0
 75 71  1  0
 76 77  2  0
 77 78  1  0
 79 78  2  0
 80 79  1  0
 81 55  1  0
 81 82  1  0
 81 91  1  0
 82 85  1  0
 83 87  1  0
 83 82  1  0
 84 83  2  0
 87 86  1  0
 87 89  1  0
 89 90  1  0
 89 88  1  0
 91 94  1  1
 91 92  1  0
 93 91  1  0
M  ISO  4   6 101  16 100  24 100  54 101
M  END
>  <TORSDO>  (73) 
F 22

>  <SCORE>  (73) 
-11.170

>  <name>  (73) 
73

>  <ligand_id>  (73) 
73

>  <original_smiles>  (73) 
[H]c1c([H])c([H])c2c(c1[H])C([H])([H])C([H])([H])C([H])([H])C2([H])N([H])C(=O)C1([H])N(C(=O)C([H])(N([H])C(=O)C([H])(N([H])C([H])([H])[H])C([H])([H])[H])C(C([H])([H])[H])(C([H])([H])[H])C([H])([H])[H])C([H])([H])c2c([H])c(Oc3c(C([H])([H])[H])c([H])c([H])c(C(=O)C([H])([H])C([H])([H])C([H])([H])C([H])([H])C([H])([H])N([H])C(=O)N4C([H])([H])C([H])([H])C([H])([H])C([H])(n5nc(-c6c([H])c([H])c(Oc7c([H])c([H])c(F)c([H])c7F)c([H])c6[H])c(C(=O)N([H])[H])c5N([H])[H])C4([H])[H])c3C([H])([H])[H])c([H])c([H])c2C1([H])[H]

>  <smiles>  (73) 
[H]c1c([H])c([H])c2c(c1[H])C([H])([H])C([H])([H])C([H])([H])C2([H])N([H])C(=O)C1([H])N(C(=O)C([H])(N([H])C(=O)C([H])(N([H])C([H])([H])[H])C([H])([H])[H])C(C([H])([H])[H])(C([H])([H])[H])C([H])([H])[H])C([H])([H])c2c([H])c(Oc3c(C([H])([H])[H])c([H])c([H])c(C(=O)C([H])([H])C([H])([H])C([H])([H])C([H])([H])C([H])([H])N([H])C(=O)N4C([H])([H])C([H])([H])C([H])([H])C([H])(n5nc(-c6c([H])c([H])c(Oc7c([H])c([H])c(F)c([H])c7F)c([H])c6[H])c(C(=O)N([H])[H])c5N([H])[H])C4([H])[H])c3C([H])([H])[H])c([H])c([H])c2C1([H])[H]

$$$$
74:0:0
     RDKit          3D

 94102  0  0  1  0  0  0  0  0999 V2000
  -30.3070  -21.3600   21.8550 C   0  0  0  0  0  3  0  0  0  0  0  0
  -30.4300  -19.9590   21.9170 C   0  0  0  0  0  3  0  0  0  0  0  0
  -29.3020  -21.9660   21.0730 C   0  0  0  0  0  0  0  0  0  0  0  0
  -29.5520  -19.1180   21.2000 C   0  0  0  0  0  0  0  0  0  0  0  0
  -28.4440  -21.1410   20.2920 C   0  0  0  0  0  0  0  0  0  0  0  0
  -28.5710  -19.7150   20.3470 C   0  0  0  0  0  0  0  0  0  0  0  0
  -27.3570  -21.8070   19.4420 C   0  0  0  0  0  1  0  0  0  0  0  0
  -29.1370  -23.4940   21.1740 C   0  0  0  0  0  2  0  0  0  0  0  0
  -29.8270  -24.3170   20.0510 C   0  0  0  0  0  2  0  0  0  0  0  0
  -28.8860  -25.1950   19.1850 C   0  0  0  0  0  2  0  0  0  0  0  0
  -28.9410  -26.6000   19.4970 O   0  0  0  0  0  0  0  0  0  0  0  0
  -24.8390  -31.2710   22.9490 C   0  0  0  0  0  0  0  0  0  0  0  0
  -27.7420  -27.2900   19.4890 C   0  0  0  0  0  0  0  0  0  0  0  0
  -23.7250  -29.9860   21.1530 C   0  0  0  0  0  3  0  0  0  0  0  0
  -25.2720  -28.6780   19.6070 C   0  0  0  0  0  0  0  0  0  0  0  0
  -26.2340  -30.4890   21.0360 C   0  0  0  0  0  2  0  0  0  0  0  0
  -26.3970  -29.1940   20.2620 C   0  0  0  0  0  0  0  0  0  0  0  0
  -27.6330  -28.5070   20.2020 C   0  0  0  0  0  3  0  0  0  0  0  0
  -26.5990  -26.8070   18.8050 C   0  0  0  0  0  3  0  0  0  0  0  0
  -25.3690  -27.4830   18.8760 C   0  0  0  0  0  3  0  0  0  0  0  0
  -23.9840  -29.4590   19.7170 C   0  0  0  0  0  2  0  0  0  0  0  0
  -24.9500  -30.5910   21.7720 N   0  0  0  0  0  0  0  0  0  0  0  0
  -23.7420  -31.4270   23.5010 O   0  0  0  0  0  0  0  0  0  0  0  0
  -23.1220  -28.8390   21.9950 C   0  0  0  0  0  0  0  0  0  0  0  0
  -21.8020  -28.6320   21.8670 N   0  0  0  0  0  0  0  0  0  0  0  0
  -23.8380  -28.1440   22.7190 O   0  0  0  0  0  0  0  0  0  0  0  0
  -21.2820  -29.2530   21.2620 H   0  0  0  0  0  0  0  0  0  0  0  0
  -18.4790  -27.2780   22.2730 C   0  0  0  0  0  0  0  0  0  0  0  0
  -21.0310  -27.5830   22.5340 C   0  0  0  0  0  3  0  0  0  0  0  0
  -21.1640  -26.2340   21.7910 C   0  0  0  0  0  2  0  0  0  0  0  0
  -20.0550  -26.0090   20.7580 C   0  0  0  0  0  2  0  0  0  0  0  0
  -18.6790  -26.0290   21.4330 C   0  0  0  0  0  2  0  0  0  0  0  0
  -19.5830  -28.0160   22.7760 C   0  0  0  0  0  0  0  0  0  0  0  0
  -19.3390  -29.1910   23.5210 C   0  0  0  0  0  3  0  0  0  0  0  0
  -18.0260  -29.6270   23.7690 C   0  0  0  0  0  3  0  0  0  0  0  0
  -16.9370  -28.8860   23.2770 C   0  0  0  0  0  3  0  0  0  0  0  0
  -17.1640  -27.7120   22.5380 C   0  0  0  0  0  3  0  0  0  0  0  0
  -26.0850  -31.9040   23.6430 C   0  0  0  0  0  3  0  0  0  0  0  0
  -25.6990  -33.2430   24.1080 N   0  0  0  0  0  0  0  0  0  0  0  0
  -25.9800  -34.3840   23.4630 C   0  0  0  0  0  0  0  0  0  0  0  0
  -26.6670  -34.4210   22.4400 O   0  0  0  0  0  0  0  0  0  0  0  0
  -25.0920  -33.2810   24.9120 H   0  0  0  0  0  0  0  0  0  0  0  0
  -24.1550  -36.1050   23.2650 C   0  0  0  0  0  1  0  0  0  0  0  0
  -25.4100  -35.6910   24.0490 C   0  0  0  0  0  3  0  0  0  0  0  0
  -27.4860  -36.6060   24.9880 C   0  0  0  0  0  1  0  0  0  0  0  0
  -26.3810  -36.8070   24.0540 N   0  0  0  0  0  0  0  0  0  0  0  0
  -25.9210  -37.6820   24.2910 H   0  0  0  0  0  0  0  0  0  0  0  0
  -26.6340  -31.0370   24.8420 C   0  0  1  0  0  0  0  0  0  0  0  0
  -25.5490  -30.6500   25.8730 C   0  0  0  0  0  1  0  0  0  0  0  0
  -27.2880  -29.7350   24.3220 C   0  0  0  0  0  1  0  0  0  0  0  0
  -27.7360  -31.8200   25.5930 C   0  0  0  0  0  1  0  0  0  0  0  0
  -29.6380  -17.5990   21.4610 C   0  0  0  0  0  2  0  0  0  0  0  0
  -30.5880  -16.7970   20.5320 C   0  0  0  0  0  2  0  0  0  0  0  0
  -31.0760  -14.3540   20.0780 C   0  0  0  0  0  0  0  0  0  0  0  0
  -30.7210  -12.1880   18.9430 C   0  0  0  0  0  2  0  0  0  0  0  0
  -29.7150  -12.3970   17.7900 C   0  0  0  0  0  2  0  0  0  0  0  0
  -28.2620  -12.2810   18.2930 C   0  0  0  0  0  2  0  0  0  0  0  0
  -28.0060  -13.1240   19.5710 C   0  0  0  0  0  3  0  0  0  0  0  0
  -29.1100  -12.8780   20.6220 C   0  0  0  0  0  2  0  0  0  0  0  0
  -30.4100  -13.1710   19.9940 N   0  0  0  0  0  0  0  0  0  0  0  0
  -32.1600  -14.5600   19.5260 O   0  0  0  0  0  0  0  0  0  0  0  0
  -30.3760  -15.3460   20.6670 N   0  0  0  0  0  0  0  0  0  0  0  0
  -29.5030  -15.0630   21.0860 H   0  0  0  0  0  0  0  0  0  0  0  0
  -25.6810  -13.7960   20.4470 C   0  0  0  0  0  0  0  0  0  0  0  0
  -24.6100  -13.0520   20.8680 C   0  0  0  0  0  0  0  0  0  0  0  0
  -25.0140  -11.6870   20.7560 C   0  0  0  0  0  0  0  0  0  0  0  0
  -26.6740  -12.8840   20.1190 N   0  0  0  0  0  0  0  0  0  0  0  0
  -26.2780  -11.6090   20.3590 N   0  0  0  0  0  0  0  0  0  0  0  0
  -24.2530  -10.4460   20.9460 C   0  0  0  0  0  0  0  0  0  0  0  0
  -24.6840   -9.4450   21.8450 C   0  0  0  0  0  3  0  0  0  0  0  0
  -23.9250   -8.2690   22.0220 C   0  0  0  0  0  3  0  0  0  0  0  0
  -22.7210   -8.0860   21.3020 C   0  0  0  0  0  0  0  0  0  0  0  0
  -22.3100   -9.0740   20.3910 C   0  0  0  0  0  3  0  0  0  0  0  0
  -23.0690  -10.2410   20.2110 C   0  0  0  0  0  3  0  0  0  0  0  0
  -21.9330   -6.9640   21.3910 O   0  0  0  0  0  0  0  0  0  0  0  0
  -21.8450   -6.2360   22.5510 C   0  0  0  0  0  0  0  0  0  0  0  0
  -21.4560   -6.8260   23.7730 C   0  0  0  0  0  3  0  0  0  0  0  0
  -21.3140   -6.0280   24.9260 C   0  0  0  0  0  3  0  0  0  0  0  0
  -21.5480   -4.6420   24.8570 C   0  0  0  0  0  0  0  0  0  0  0  0
  -21.9300   -4.0520   23.6400 C   0  0  0  0  0  3  0  0  0  0  0  0
  -22.0760   -4.8470   22.4890 C   0  0  0  0  0  0  0  0  0  0  0  0
  -22.4250   -4.2700   21.3130 F   0  0  0  0  0  0  0  0  0  0  0  0
  -21.4050   -3.8740   25.9620 F   0  0  0  0  0  0  0  0  0  0  0  0
  -23.2550  -13.5730   21.2520 C   0  0  0  0  0  0  0  0  0  0  0  0
  -22.5650  -12.8810   22.1520 N   0  0  0  0  0  0  0  0  0  0  0  0
  -22.8190  -14.6240   20.7880 O   0  0  0  0  0  0  0  0  0  0  0  0
  -22.9280  -12.0280   22.5500 H   0  0  0  0  0  0  0  0  0  0  0  0
  -21.6590  -13.2160   22.4540 H   0  0  0  0  0  0  0  0  0  0  0  0
  -25.8900  -15.1620   20.2960 N   0  0  0  0  0  0  0  0  0  0  0  0
  -25.1560  -15.8400   20.4710 H   0  0  0  0  0  0  0  0  0  0  0  0
  -26.7190  -15.5670   19.8840 H   0  0  0  0  0  0  0  0  0  0  0  0
  -27.6060  -18.8290   19.5520 C   0  0  0  0  0  2  0  0  0  0  0  0
  -25.3820  -17.5480   19.6340 C   0  0  0  0  0  1  0  0  0  0  0  0
  -26.3320  -18.5110   20.3550 C   0  0  0  0  0  2  0  0  0  0  0  0
  1  2  1  0
  3  8  1  0
  3  1  2  0
  4 52  1  0
  4  2  2  0
  5  6  2  0
  5  3  1  0
  6  4  1  0
  7  5  1  0
  9  8  1  0
 10 11  1  0
 10  9  1  0
 12 23  2  0
 13 11  1  0
 13 18  1  0
 14 22  1  0
 14 24  1  0
 15 21  1  0
 15 17  1  0
 16 22  1  0
 17 16  1  0
 18 17  2  0
 19 20  1  0
 19 13  2  0
 20 15  2  0
 21 14  1  0
 22 12  1  0
 24 26  2  0
 25 24  1  0
 27 25  1  0
 28 37  2  0
 28 33  1  0
 29 25  1  0
 29 33  1  0
 30 29  1  0
 31 32  1  0
 31 30  1  0
 32 28  1  0
 33 34  2  0
 34 35  1  0
 36 35  2  0
 37 36  1  0
 38 12  1  0
 38 39  1  0
 38 48  1  0
 39 42  1  0
 40 44  1  0
 40 39  1  0
 41 40  2  0
 44 43  1  0
 44 46  1  0
 46 47  1  0
 46 45  1  0
 48 51  1  1
 48 49  1  0
 50 48  1  0
 53 62  1  0
 53 52  1  0
 54 62  1  0
 55 60  1  0
 56 57  1  0
 56 55  1  0
 58 57  1  0
 58 67  1  0
 58 59  1  0
 60 54  1  0
 60 59  1  0
 61 54  2  0
 62 63  1  0
 64 65  2  0
 65 84  1  0
 66 65  1  0
 66 69  1  0
 67 68  1  0
 67 64  1  0
 68 66  2  0
 69 70  1  0
 70 71  2  0
 72 75  1  0
 72 71  1  0
 73 72  2  0
 74 73  1  0
 74 69  2  0
 75 76  1  0
 76 77  1  0
 77 78  2  0
 79 78  1  0
 79 83  1  0
 80 79  2  0
 81 76  2  0
 81 80  1  0
 82 81  1  0
 84 85  1  0
 85 88  1  0
 85 87  1  0
 86 84  2  0
 89 64  1  0
 89 90  1  0
 91 89  1  0
 92  6  1  0
 92 94  1  0
 93 94  1  0
M  ISO  4  10 101  11 101  54 100  62 100
M  END
>  <TORSDO>  (74) 
F 23

>  <SCORE>  (74) 
-10.026

>  <name>  (74) 
74

>  <ligand_id>  (74) 
74

>  <original_smiles>  (74) 
[H]c1c([H])c([H])c2c(c1[H])C([H])([H])C([H])([H])C([H])([H])C2([H])N([H])C(=O)C1([H])N(C(=O)C([H])(N([H])C(=O)C([H])(N([H])C([H])([H])[H])C([H])([H])[H])C(C([H])([H])[H])(C([H])([H])[H])C([H])([H])[H])C([H])([H])c2c([H])c(OC([H])([H])C([H])([H])C([H])([H])c3c([H])c([H])c(C([H])([H])C([H])([H])N([H])C(=O)N4C([H])([H])C([H])([H])C([H])([H])C([H])(n5nc(-c6c([H])c([H])c(Oc7c([H])c([H])c(F)c([H])c7F)c([H])c6[H])c(C(=O)N([H])[H])c5N([H])[H])C4([H])[H])c(C([H])([H])C([H])([H])C([H])([H])[H])c3C([H])([H])[H])c([H])c([H])c2C1([H])[H]

>  <smiles>  (74) 
[H]c1c([H])c([H])c2c(c1[H])C([H])([H])C([H])([H])C([H])([H])C2([H])N([H])C(=O)C1([H])N(C(=O)C([H])(N([H])C(=O)C([H])(N([H])C([H])([H])[H])C([H])([H])[H])C(C([H])([H])[H])(C([H])([H])[H])C([H])([H])[H])C([H])([H])c2c([H])c(OC([H])([H])C([H])([H])C([H])([H])c3c([H])c([H])c(C([H])([H])C([H])([H])N([H])C(=O)N4C([H])([H])C([H])([H])C([H])([H])C([H])(n5nc(-c6c([H])c([H])c(Oc7c([H])c([H])c(F)c([H])c7F)c([H])c6[H])c(C(=O)N([H])[H])c5N([H])[H])C4([H])[H])c(C([H])([H])C([H])([H])C([H])([H])[H])c3C([H])([H])[H])c([H])c([H])c2C1([H])[H]

$$$$
75:0:0
     RDKit          3D

 94102  0  0  1  0  0  0  0  0999 V2000
  -29.9420  -21.9830   20.7340 C   0  0  0  0  0  3  0  0  0  0  0  0
  -29.5760  -20.1290   19.2070 C   0  0  0  0  0  3  0  0  0  0  0  0
  -29.4520  -22.9170   19.7790 C   0  0  0  0  0  0  0  0  0  0  0  0
  -30.0040  -20.5920   20.4640 C   0  0  0  0  0  0  0  0  0  0  0  0
  -29.1240  -21.0280   18.2190 C   0  0  0  0  0  0  0  0  0  0  0  0
  -29.0680  -22.4210   18.4990 C   0  0  0  0  0  0  0  0  0  0  0  0
  -28.6660  -23.2680   17.5060 O   0  0  0  0  0  0  0  0  0  0  0  0
  -28.5580  -22.8280   16.6690 H   0  0  0  0  0  0  0  0  0  0  0  0
  -29.8110  -19.6460   16.1790 C   0  0  0  0  0  1  0  0  0  0  0  0
  -28.6960  -20.4420   16.8730 C   0  0  0  0  0  2  0  0  0  0  0  0
  -29.4410  -24.3850   20.1610 C   0  0  0  0  0  0  0  0  0  0  0  0
  -30.2580  -24.8590   20.9610 O   0  0  0  0  0  0  0  0  0  0  0  0
  -28.3170  -25.2990   19.6070 C   0  0  0  0  0  2  0  0  0  0  0  0
  -28.3380  -26.6360   20.1730 O   0  0  0  0  0  0  0  0  0  0  0  0
  -24.5570  -31.8740   23.2390 C   0  0  0  0  0  0  0  0  0  0  0  0
  -27.1670  -27.3840   20.1470 C   0  0  0  0  0  0  0  0  0  0  0  0
  -23.3410  -30.4780   21.6030 C   0  0  0  0  0  3  0  0  0  0  0  0
  -24.7810  -28.9300   20.1780 C   0  0  0  0  0  0  0  0  0  0  0  0
  -25.8720  -30.8070   21.4060 C   0  0  0  0  0  2  0  0  0  0  0  0
  -25.9460  -29.4340   20.7650 C   0  0  0  0  0  0  0  0  0  0  0  0
  -27.1390  -28.6660   20.7520 C   0  0  0  0  0  3  0  0  0  0  0  0
  -25.9770  -26.9090   19.5420 C   0  0  0  0  0  3  0  0  0  0  0  0
  -24.7920  -27.6660   19.5690 C   0  0  0  0  0  3  0  0  0  0  0  0
  -23.5450  -29.7990   20.2240 C   0  0  0  0  0  2  0  0  0  0  0  0
  -24.6080  -31.0680   22.1400 N   0  0  0  0  0  0  0  0  0  0  0  0
  -23.4780  -32.1560   23.7780 O   0  0  0  0  0  0  0  0  0  0  0  0
  -22.6840  -29.4620   22.5640 C   0  0  0  0  0  0  0  0  0  0  0  0
  -21.3590  -29.2820   22.4340 N   0  0  0  0  0  0  0  0  0  0  0  0
  -23.3640  -28.8370   23.3840 O   0  0  0  0  0  0  0  0  0  0  0  0
  -20.8730  -29.8390   21.7450 H   0  0  0  0  0  0  0  0  0  0  0  0
  -17.9820  -28.0890   22.9190 C   0  0  0  0  0  0  0  0  0  0  0  0
  -20.5370  -28.3490   23.2060 C   0  0  0  0  0  3  0  0  0  0  0  0
  -20.6430  -26.9140   22.6400 C   0  0  0  0  0  2  0  0  0  0  0  0
  -19.5480  -26.5840   21.6210 C   0  0  0  0  0  2  0  0  0  0  0  0
  -18.1620  -26.7340   22.2560 C   0  0  0  0  0  2  0  0  0  0  0  0
  -19.0980  -28.8550   23.3510 C   0  0  0  0  0  0  0  0  0  0  0  0
  -18.8760  -30.1220   23.9320 C   0  0  0  0  0  3  0  0  0  0  0  0
  -17.5710  -30.6260   24.0860 C   0  0  0  0  0  3  0  0  0  0  0  0
  -16.4690  -29.8590   23.6700 C   0  0  0  0  0  3  0  0  0  0  0  0
  -16.6750  -28.5920   23.0940 C   0  0  0  0  0  3  0  0  0  0  0  0
  -25.8480  -32.4980   23.8560 C   0  0  0  0  0  3  0  0  0  0  0  0
  -25.5480  -33.8980   24.1840 N   0  0  0  0  0  0  0  0  0  0  0  0
  -25.8840  -34.9460   23.4200 C   0  0  0  0  0  0  0  0  0  0  0  0
  -26.5510  -34.8360   22.3880 O   0  0  0  0  0  0  0  0  0  0  0  0
  -24.9560  -34.0580   24.9850 H   0  0  0  0  0  0  0  0  0  0  0  0
  -24.1650  -36.7460   23.0650 C   0  0  0  0  0  1  0  0  0  0  0  0
  -25.4050  -36.3380   23.8750 C   0  0  0  0  0  3  0  0  0  0  0  0
  -27.5460  -37.2130   24.6980 C   0  0  0  0  0  1  0  0  0  0  0  0
  -26.4430  -37.3850   23.7570 N   0  0  0  0  0  0  0  0  0  0  0  0
  -26.0420  -38.3080   23.9060 H   0  0  0  0  0  0  0  0  0  0  0  0
  -26.3650  -31.7250   25.1310 C   0  0  1  0  0  0  0  0  0  0  0  0
  -25.2760  -31.4930   26.2040 C   0  0  0  0  0  1  0  0  0  0  0  0
  -26.9400  -30.3440   24.7360 C   0  0  0  0  0  1  0  0  0  0  0  0
  -27.5220  -32.5130   25.7890 C   0  0  0  0  0  1  0  0  0  0  0  0
  -30.5610  -19.6180   21.5120 C   0  0  0  0  0  2  0  0  0  0  0  0
  -29.9080  -18.2050   21.5900 C   0  0  0  0  0  2  0  0  0  0  0  0
  -30.6830  -17.0520   20.8920 C   0  0  0  0  0  2  0  0  0  0  0  0
  -30.0840  -15.6390   21.1550 C   0  0  0  0  0  2  0  0  0  0  0  0
  -30.7230  -14.4850   20.3380 C   0  0  0  0  0  0  0  0  0  0  0  0
  -30.3670  -12.3880   19.0690 C   0  0  0  0  0  2  0  0  0  0  0  0
  -29.3910  -12.6580   17.9060 C   0  0  0  0  0  2  0  0  0  0  0  0
  -27.9290  -12.5210   18.3730 C   0  0  0  0  0  2  0  0  0  0  0  0
  -27.6430  -13.3050   19.6810 C   0  0  0  0  0  3  0  0  0  0  0  0
  -28.7250  -13.0150   20.7450 C   0  0  0  0  0  2  0  0  0  0  0  0
  -30.0360  -13.3230   20.1560 N   0  0  0  0  0  0  0  0  0  0  0  0
  -31.8140  -14.6880   19.7960 O   0  0  0  0  0  0  0  0  0  0  0  0
  -25.2590  -13.9170   20.4360 C   0  0  0  0  0  0  0  0  0  0  0  0
  -24.1960  -13.1470   20.8270 C   0  0  0  0  0  0  0  0  0  0  0  0
  -24.6530  -11.7950   20.7850 C   0  0  0  0  0  0  0  0  0  0  0  0
  -26.2980  -13.0340   20.1860 N   0  0  0  0  0  0  0  0  0  0  0  0
  -25.9370  -11.7520   20.4520 N   0  0  0  0  0  0  0  0  0  0  0  0
  -23.9290  -10.5330   20.9920 C   0  0  0  0  0  0  0  0  0  0  0  0
  -24.3840   -9.5620   21.9110 C   0  0  0  0  0  3  0  0  0  0  0  0
  -23.6600   -8.3660   22.1050 C   0  0  0  0  0  3  0  0  0  0  0  0
  -22.4680   -8.1320   21.3790 C   0  0  0  0  0  0  0  0  0  0  0  0
  -22.0310   -9.0920   20.4490 C   0  0  0  0  0  3  0  0  0  0  0  0
  -22.7550  -10.2810   20.2540 C   0  0  0  0  0  3  0  0  0  0  0  0
  -21.7130   -6.9890   21.4830 O   0  0  0  0  0  0  0  0  0  0  0  0
  -21.6950   -6.2400   22.6320 C   0  0  0  0  0  0  0  0  0  0  0  0
  -21.3120   -6.7930   23.8750 C   0  0  0  0  0  3  0  0  0  0  0  0
  -21.2400   -5.9710   25.0190 C   0  0  0  0  0  3  0  0  0  0  0  0
  -21.5410   -4.5990   24.9200 C   0  0  0  0  0  0  0  0  0  0  0  0
  -21.9170   -4.0460   23.6830 C   0  0  0  0  0  3  0  0  0  0  0  0
  -21.9910   -4.8650   22.5420 C   0  0  0  0  0  0  0  0  0  0  0  0
  -22.3330   -4.3240   21.3490 F   0  0  0  0  0  0  0  0  0  0  0  0
  -21.4640   -3.8090   26.0150 F   0  0  0  0  0  0  0  0  0  0  0  0
  -22.8050  -13.6270   21.1290 C   0  0  0  0  0  0  0  0  0  0  0  0
  -22.0950  -12.9330   22.0110 N   0  0  0  0  0  0  0  0  0  0  0  0
  -22.3580  -14.6530   20.6180 O   0  0  0  0  0  0  0  0  0  0  0  0
  -22.4680  -12.1030   22.4470 H   0  0  0  0  0  0  0  0  0  0  0  0
  -21.1630  -13.2380   22.2560 H   0  0  0  0  0  0  0  0  0  0  0  0
  -25.4240  -15.2870   20.2540 N   0  0  0  0  0  0  0  0  0  0  0  0
  -24.6640  -15.9470   20.3830 H   0  0  0  0  0  0  0  0  0  0  0  0
  -26.2760  -15.7220   19.9240 H   0  0  0  0  0  0  0  0  0  0  0  0
  2  4  2  0
  3 11  1  0
  3  1  2  0
  4  1  1  0
  4 55  1  0
  5  6  2  0
  5  2  1  0
  6  3  1  0
  7  6  1  0
  8  7  1  0
  9 10  1  0
 10  5  1  0
 11 12  2  0
 13 11  1  0
 13 14  1  0
 15 26  2  0
 16 14  1  0
 16 21  1  0
 17 25  1  0
 17 27  1  0
 18 24  1  0
 18 20  1  0
 19 25  1  0
 20 19  1  0
 21 20  2  0
 22 23  1  0
 22 16  2  0
 23 18  2  0
 24 17  1  0
 25 15  1  0
 27 29  2  0
 28 27  1  0
 30 28  1  0
 31 40  2  0
 31 36  1  0
 32 28  1  0
 32 36  1  0
 33 32  1  0
 34 35  1  0
 34 33  1  0
 35 31  1  0
 36 37  2  0
 37 38  1  0
 39 38  2  0
 40 39  1  0
 41 15  1  0
 41 42  1  0
 41 51  1  0
 42 45  1  0
 43 47  1  0
 43 42  1  0
 44 43  2  0
 47 46  1  0
 49 47  1  0
 49 50  1  0
 49 48  1  0
 51 54  1  1
 51 52  1  0
 53 51  1  0
 55 56  1  0
 57 58  1  0
 57 56  1  0
 59 58  1  0
 60 65  1  0
 61 62  1  0
 61 60  1  0
 63 62  1  0
 63 70  1  0
 63 64  1  0
 65 59  1  0
 65 64  1  0
 66 59  2  0
 67 68  2  0
 68 87  1  0
 69 68  1  0
 69 72  1  0
 70 67  1  0
 70 71  1  0
 71 69  2  0
 72 73  1  0
 73 74  2  0
 75 78  1  0
 75 74  1  0
 76 75  2  0
 77 76  1  0
 77 72  2  0
 78 79  1  0
 79 80  1  0
 80 81  2  0
 82 81  1  0
 82 86  1  0
 83 82  2  0
 84 79  2  0
 84 83  1  0
 85 84  1  0
 87 88  1  0
 88 91  1  0
 88 90  1  0
 89 87  2  0
 92 93  1  0
 92 67  1  0
 94 92  1  0
M  ISO  4  13 101  14 101  58 100  59 100
M  END
>  <TORSDO>  (75) 
F 24

>  <SCORE>  (75) 
-12.628

>  <name>  (75) 
75

>  <ligand_id>  (75) 
75

>  <original_smiles>  (75) 
[H]Oc1c(C(=O)C([H])([H])Oc2c([H])c([H])c3c(c2[H])C([H])([H])N(C(=O)C([H])(N([H])C(=O)C([H])(N([H])C([H])([H])[H])C([H])([H])[H])C(C([H])([H])[H])(C([H])([H])[H])C([H])([H])[H])C([H])(C(=O)N([H])C2([H])c4c([H])c([H])c([H])c([H])c4C([H])([H])C([H])([H])C2([H])[H])C3([H])[H])c([H])c(C([H])([H])C([H])([H])C([H])([H])C([H])([H])C(=O)N2C([H])([H])C([H])([H])C([H])([H])C([H])(n3nc(-c4c([H])c([H])c(Oc5c([H])c([H])c(F)c([H])c5F)c([H])c4[H])c(C(=O)N([H])[H])c3N([H])[H])C2([H])[H])c([H])c1C([H])([H])C([H])([H])[H]

>  <smiles>  (75) 
[H]Oc1c(C(=O)C([H])([H])Oc2c([H])c([H])c3c(c2[H])C([H])([H])N(C(=O)C([H])(N([H])C(=O)C([H])(N([H])C([H])([H])[H])C([H])([H])[H])C(C([H])([H])[H])(C([H])([H])[H])C([H])([H])[H])C([H])(C(=O)N([H])C2([H])c4c([H])c([H])c([H])c([H])c4C([H])([H])C([H])([H])C2([H])[H])C3([H])[H])c([H])c(C([H])([H])C([H])([H])C([H])([H])C([H])([H])C(=O)N2C([H])([H])C([H])([H])C([H])([H])C([H])(n3nc(-c4c([H])c([H])c(Oc5c([H])c([H])c(F)c([H])c5F)c([H])c4[H])c(C(=O)N([H])[H])c3N([H])[H])C2([H])[H])c([H])c1C([H])([H])C([H])([H])[H]

$$$$
76:0:0
     RDKit          3D

 91 99  0  0  1  0  0  0  0  0999 V2000
  -29.5230  -21.2650   20.7350 C   0  0  0  0  0  3  0  0  0  0  0  0
  -28.3510  -19.6250   19.4000 C   0  0  0  0  0  3  0  0  0  0  0  0
  -27.8210  -22.0090   19.1650 C   0  0  0  0  0  3  0  0  0  0  0  0
  -29.3380  -19.8720   20.3750 C   0  0  0  0  0  0  0  0  0  0  0  0
  -28.7760  -22.3600   20.1460 C   0  0  0  0  0  0  0  0  0  0  0  0
  -27.6180  -20.6630   18.7970 C   0  0  0  0  0  0  0  0  0  0  0  0
  -26.6060  -20.3140   17.7260 C   0  0  0  0  0  1  0  0  0  0  0  0
  -30.6620  -18.8320   22.1920 C   0  0  0  0  0  2  0  0  0  0  0  0
  -30.0700  -18.6670   20.9950 C   0  0  0  0  0  0  0  0  0  0  0  0
  -30.2070  -17.2750   20.2490 C   0  0  0  0  0  3  0  0  0  0  0  0
  -30.3340  -15.8990   21.0690 C   0  0  0  0  0  3  0  0  0  0  0  0
  -30.8620  -14.6230   20.2870 C   0  0  0  0  0  0  0  0  0  0  0  0
  -30.5310  -12.4460   19.1180 C   0  0  0  0  0  2  0  0  0  0  0  0
  -29.5710  -12.6590   17.9280 C   0  0  0  0  0  2  0  0  0  0  0  0
  -28.1090  -12.4810   18.3800 C   0  0  0  0  0  2  0  0  0  0  0  0
  -27.7920  -13.2930   19.6600 C   0  0  0  0  0  3  0  0  0  0  0  0
  -28.8710  -13.0960   20.7510 C   0  0  0  0  0  2  0  0  0  0  0  0
  -30.1760  -13.4350   20.1620 N   0  0  0  0  0  0  0  0  0  0  0  0
  -31.9570  -14.7500   19.7330 O   0  0  0  0  0  0  0  0  0  0  0  0
  -25.4100  -13.8850   20.4120 C   0  0  0  0  0  0  0  0  0  0  0  0
  -24.3460  -13.1130   20.7880 C   0  0  0  0  0  0  0  0  0  0  0  0
  -24.8030  -11.7590   20.7460 C   0  0  0  0  0  0  0  0  0  0  0  0
  -26.4480  -13.0050   20.1570 N   0  0  0  0  0  0  0  0  0  0  0  0
  -26.0880  -11.7200   20.4130 N   0  0  0  0  0  0  0  0  0  0  0  0
  -24.0740  -10.4990   20.9480 C   0  0  0  0  0  0  0  0  0  0  0  0
  -24.5000   -9.5410   21.8980 C   0  0  0  0  0  3  0  0  0  0  0  0
  -23.7690   -8.3470   22.0860 C   0  0  0  0  0  3  0  0  0  0  0  0
  -22.6010   -8.1010   21.3230 C   0  0  0  0  0  0  0  0  0  0  0  0
  -22.1930   -9.0490   20.3680 C   0  0  0  0  0  3  0  0  0  0  0  0
  -22.9260  -10.2330   20.1790 C   0  0  0  0  0  3  0  0  0  0  0  0
  -21.8420   -6.9570   21.4180 O   0  0  0  0  0  0  0  0  0  0  0  0
  -21.7600   -6.2450   22.5880 C   0  0  0  0  0  0  0  0  0  0  0  0
  -21.2760   -6.8230   23.7820 C   0  0  0  0  0  3  0  0  0  0  0  0
  -21.1490   -6.0360   24.9430 C   0  0  0  0  0  3  0  0  0  0  0  0
  -21.4910   -4.6710   24.9110 C   0  0  0  0  0  0  0  0  0  0  0  0
  -21.9670   -4.0910   23.7220 C   0  0  0  0  0  3  0  0  0  0  0  0
  -22.1020   -4.8780   22.5630 C   0  0  0  0  0  0  0  0  0  0  0  0
  -22.5420   -4.3090   21.4150 F   0  0  0  0  0  0  0  0  0  0  0  0
  -21.3580   -3.9120   26.0240 F   0  0  0  0  0  0  0  0  0  0  0  0
  -22.9560  -13.5940   21.0860 C   0  0  0  0  0  0  0  0  0  0  0  0
  -22.2400  -12.8990   21.9610 N   0  0  0  0  0  0  0  0  0  0  0  0
  -22.5120  -14.6240   20.5770 O   0  0  0  0  0  0  0  0  0  0  0  0
  -22.6090  -12.0650   22.3900 H   0  0  0  0  0  0  0  0  0  0  0  0
  -21.3050  -13.2010   22.2030 H   0  0  0  0  0  0  0  0  0  0  0  0
  -25.5800  -15.2580   20.2490 N   0  0  0  0  0  0  0  0  0  0  0  0
  -24.8260  -15.9220   20.4000 H   0  0  0  0  0  0  0  0  0  0  0  0
  -26.4480  -15.6990   19.9760 H   0  0  0  0  0  0  0  0  0  0  0  0
  -28.9840  -23.8560   20.4870 C   0  0  0  0  0  0  0  0  0  0  0  0
  -29.8820  -24.2190   21.2530 O   0  0  0  0  0  0  0  0  0  0  0  0
  -28.0270  -24.9580   19.8650 C   0  0  0  0  0  2  0  0  0  0  0  0
  -28.2370  -26.3820   20.2540 O   0  0  0  0  0  0  0  0  0  0  0  0
  -24.5590  -31.8900   23.1740 C   0  0  0  0  0  0  0  0  0  0  0  0
  -27.1350  -27.2560   20.1750 C   0  0  0  0  0  0  0  0  0  0  0  0
  -23.3500  -30.4840   21.5450 C   0  0  0  0  0  3  0  0  0  0  0  0
  -24.7920  -28.9100   20.1390 C   0  0  0  0  0  0  0  0  0  0  0  0
  -25.9000  -30.7660   21.3840 C   0  0  0  0  0  2  0  0  0  0  0  0
  -25.9660  -29.3820   20.7450 C   0  0  0  0  0  0  0  0  0  0  0  0
  -27.1390  -28.5650   20.7570 C   0  0  0  0  0  3  0  0  0  0  0  0
  -25.9360  -26.8490   19.5400 C   0  0  0  0  0  3  0  0  0  0  0  0
  -24.7820  -27.6490   19.5320 C   0  0  0  0  0  3  0  0  0  0  0  0
  -23.5670  -29.8010   20.1690 C   0  0  0  0  0  2  0  0  0  0  0  0
  -24.6210  -31.0660   22.0900 N   0  0  0  0  0  0  0  0  0  0  0  0
  -23.4750  -32.1820   23.7020 O   0  0  0  0  0  0  0  0  0  0  0  0
  -22.6770  -29.4800   22.5110 C   0  0  0  0  0  0  0  0  0  0  0  0
  -21.3490  -29.3100   22.3820 N   0  0  0  0  0  0  0  0  0  0  0  0
  -23.3470  -28.8610   23.3400 O   0  0  0  0  0  0  0  0  0  0  0  0
  -20.8670  -29.8640   21.6890 H   0  0  0  0  0  0  0  0  0  0  0  0
  -17.9580  -28.1610   22.8970 C   0  0  0  0  0  0  0  0  0  0  0  0
  -20.5190  -28.3890   23.1620 C   0  0  0  0  0  3  0  0  0  0  0  0
  -20.6010  -26.9490   22.6020 C   0  0  0  0  0  2  0  0  0  0  0  0
  -19.4940  -26.6310   21.5910 C   0  0  0  0  0  2  0  0  0  0  0  0
  -18.1160  -26.8020   22.2350 C   0  0  0  0  0  2  0  0  0  0  0  0
  -19.0870  -28.9120   23.3180 C   0  0  0  0  0  0  0  0  0  0  0  0
  -18.8850  -30.1840   23.8970 C   0  0  0  0  0  3  0  0  0  0  0  0
  -17.5870  -30.7030   24.0600 C   0  0  0  0  0  3  0  0  0  0  0  0
  -16.4720  -29.9480   23.6560 C   0  0  0  0  0  3  0  0  0  0  0  0
  -16.6580  -28.6790   23.0800 C   0  0  0  0  0  3  0  0  0  0  0  0
  -25.8420  -32.5240   23.7900 C   0  0  0  0  0  3  0  0  0  0  0  0
  -25.5270  -33.9200   24.1290 N   0  0  0  0  0  0  0  0  0  0  0  0
  -25.8680  -34.9810   23.3840 C   0  0  0  0  0  0  0  0  0  0  0  0
  -26.5460  -34.8870   22.3570 O   0  0  0  0  0  0  0  0  0  0  0  0
  -24.9230  -34.0650   24.9250 H   0  0  0  0  0  0  0  0  0  0  0  0
  -24.1600  -36.7930   23.0220 C   0  0  0  0  0  1  0  0  0  0  0  0
  -25.3810  -36.3650   23.8530 C   0  0  0  0  0  3  0  0  0  0  0  0
  -27.4970  -37.2290   24.7490 C   0  0  0  0  0  1  0  0  0  0  0  0
  -26.4220  -37.4130   23.7790 N   0  0  0  0  0  0  0  0  0  0  0  0
  -26.0170  -38.3350   23.9240 H   0  0  0  0  0  0  0  0  0  0  0  0
  -26.3670  -31.7520   25.0630 C   0  0  1  0  0  0  0  0  0  0  0  0
  -25.2830  -31.5010   26.1370 C   0  0  0  0  0  1  0  0  0  0  0  0
  -26.9630  -30.3810   24.6700 C   0  0  0  0  0  1  0  0  0  0  0  0
  -27.5130  -32.5570   25.7220 C   0  0  0  0  0  1  0  0  0  0  0  0
  2  4  2  0
  3  5  1  0
  4  1  1  0
  4  9  1  0
  5 48  1  0
  5  1  2  0
  6  3  2  0
  6  2  1  0
  7  6  1  0
  9  8  2  0
 10  9  1  0
 10 11  2  0
 12 11  1  0
 13 18  1  0
 14 15  1  0
 14 13  1  0
 16 15  1  0
 16 23  1  0
 16 17  1  0
 18 12  1  0
 18 17  1  0
 19 12  2  0
 20 21  2  0
 21 40  1  0
 22 21  1  0
 22 25  1  0
 23 20  1  0
 23 24  1  0
 24 22  2  0
 25 26  1  0
 26 27  2  0
 28 31  1  0
 28 27  1  0
 29 28  2  0
 30 29  1  0
 30 25  2  0
 31 32  1  0
 32 33  1  0
 33 34  2  0
 35 34  1  0
 35 39  1  0
 36 35  2  0
 37 32  2  0
 37 36  1  0
 38 37  1  0
 40 41  1  0
 41 44  1  0
 41 43  1  0
 42 40  2  0
 45 46  1  0
 45 20  1  0
 47 45  1  0
 48 49  2  0
 50 51  1  0
 50 48  1  0
 52 63  2  0
 53 51  1  0
 53 58  1  0
 54 62  1  0
 54 64  1  0
 55 61  1  0
 55 57  1  0
 56 62  1  0
 57 58  2  0
 57 56  1  0
 59 53  2  0
 60 59  1  0
 60 55  2  0
 61 54  1  0
 62 52  1  0
 64 66  2  0
 65 64  1  0
 67 65  1  0
 68 77  2  0
 68 73  1  0
 69 65  1  0
 69 73  1  0
 70 69  1  0
 71 72  1  0
 71 70  1  0
 72 68  1  0
 73 74  2  0
 74 75  1  0
 76 75  2  0
 77 76  1  0
 78 52  1  0
 78 79  1  0
 78 88  1  0
 79 82  1  0
 80 84  1  0
 80 79  1  0
 81 80  2  0
 84 83  1  0
 86 84  1  0
 86 87  1  0
 86 85  1  0
 88 91  1  1
 88 89  1  0
 90 88  1  0
M  ISO  4  11 100  12 100  50 101  51 101
M  END
>  <TORSDO>  (76) 
F 21

>  <SCORE>  (76) 
-13.611

>  <name>  (76) 
76

>  <ligand_id>  (76) 
76

>  <original_smiles>  (76) 
[H]C([H])=C(c1c([H])c(C(=O)C([H])([H])Oc2c([H])c([H])c3c(c2[H])C([H])([H])N(C(=O)C([H])(N([H])C(=O)C([H])(N([H])C([H])([H])[H])C([H])([H])[H])C(C([H])([H])[H])(C([H])([H])[H])C([H])([H])[H])C([H])(C(=O)N([H])C2([H])c4c([H])c([H])c([H])c([H])c4C([H])([H])C([H])([H])C2([H])[H])C3([H])[H])c([H])c(C([H])([H])[H])c1[H])C([H])([H])C([H])([H])C(=O)N1C([H])([H])C([H])([H])C([H])([H])C([H])(n2nc(-c3c([H])c([H])c(Oc4c([H])c([H])c(F)c([H])c4F)c([H])c3[H])c(C(=O)N([H])[H])c2N([H])[H])C1([H])[H]

>  <smiles>  (76) 
[H]C([H])=C(c1c([H])c(C(=O)C([H])([H])Oc2c([H])c([H])c3c(c2[H])C([H])([H])N(C(=O)C([H])(N([H])C(=O)C([H])(N([H])C([H])([H])[H])C([H])([H])[H])C(C([H])([H])[H])(C([H])([H])[H])C([H])([H])[H])C([H])(C(=O)N([H])C2([H])c4c([H])c([H])c([H])c([H])c4C([H])([H])C([H])([H])C2([H])[H])C3([H])[H])c([H])c(C([H])([H])[H])c1[H])C([H])([H])C([H])([H])C(=O)N1C([H])([H])C([H])([H])C([H])([H])C([H])(n2nc(-c3c([H])c([H])c(Oc4c([H])c([H])c(F)c([H])c4F)c([H])c3[H])c(C(=O)N([H])[H])c2N([H])[H])C1([H])[H]

$$$$
77:0:0
     RDKit          3D

 92 99  0  0  1  0  0  0  0  0999 V2000
  -25.9920  -22.1070   18.6370 C   0  0  0  0  0  3  0  0  0  0  0  0
  -27.3680  -20.4610   19.7220 C   0  0  0  0  0  3  0  0  0  0  0  0
  -27.2020  -22.0650   19.3530 C   0  0  0  0  0  0  0  0  0  0  0  0
  -25.1890  -20.9720   18.2840 C   0  0  0  0  0  0  0  0  0  0  0  0
  -26.5210  -19.0820   19.3980 C   0  0  0  0  0  0  0  0  0  0  0  0
  -25.4620  -19.5850   18.5750 C   0  0  0  0  0  0  0  0  0  0  0  0
  -23.8860  -21.3080   17.5700 C   0  0  0  0  0  1  0  0  0  0  0  0
  -24.5760  -18.6830   18.0530 O   0  0  0  0  0  0  0  0  0  0  0  0
  -24.8420  -17.7780   18.1680 H   0  0  0  0  0  0  0  0  0  0  0  0
  -26.1940  -17.2540   19.9830 C   0  0  0  0  0  1  0  0  0  0  0  0
  -25.8560  -15.1860   19.8250 C   0  0  0  0  0  2  0  0  0  0  0  0
  -27.6300  -15.3210   19.5180 C   0  0  0  0  0  2  0  0  0  0  0  0
  -30.1160  -14.2920   20.7560 C   0  0  0  0  0  0  0  0  0  0  0  0
  -30.6950  -12.2020   19.5640 C   0  0  0  0  0  2  0  0  0  0  0  0
  -29.8650  -12.3760   18.2720 C   0  0  0  0  0  2  0  0  0  0  0  0
  -28.3930  -11.9920   18.5860 C   0  0  0  0  0  2  0  0  0  0  0  0
  -28.0160  -12.5060   20.0230 C   0  0  0  0  0  3  0  0  0  0  0  0
  -28.8850  -12.2780   21.1730 C   0  0  0  0  0  2  0  0  0  0  0  0
  -30.0310  -12.9430   20.6610 N   0  0  0  0  0  0  0  0  0  0  0  0
  -31.2830  -14.6740   20.9640 O   0  0  0  0  0  0  0  0  0  0  0  0
  -28.9190  -15.1220   20.5570 N   0  0  0  0  0  0  0  0  0  0  0  0
  -29.1410  -16.0250   20.9510 H   0  0  0  0  0  0  0  0  0  0  0  0
  -25.5470  -14.1300   21.4370 C   0  0  0  0  0  3  0  0  0  0  0  0
  -24.0360  -13.5640   20.7790 C   0  0  0  0  0  3  0  0  0  0  0  0
  -24.2270  -12.1820   19.7870 C   0  0  0  0  0  3  0  0  0  0  0  0
  -26.8000  -12.9730   20.3820 N   0  0  0  0  0  2  0  0  0  0  0  0
  -25.7600  -12.0450   19.4270 N   0  0  0  0  0  2  0  0  0  0  0  0
  -23.6930  -10.7240   20.3730 C   0  0  0  0  0  0  0  0  0  0  0  0
  -24.2980   -9.7340   21.2910 C   0  0  0  0  0  3  0  0  0  0  0  0
  -23.6750   -8.4820   21.7110 C   0  0  0  0  0  3  0  0  0  0  0  0
  -22.3780   -8.1300   21.2480 C   0  0  0  0  0  0  0  0  0  0  0  0
  -21.7830   -9.0760   20.3940 C   0  0  0  0  0  3  0  0  0  0  0  0
  -22.4050  -10.2940   19.9950 C   0  0  0  0  0  3  0  0  0  0  0  0
  -21.6650   -6.9370   21.4300 O   0  0  0  0  0  0  0  0  0  0  0  0
  -21.5900   -6.1730   22.5830 C   0  0  0  0  0  0  0  0  0  0  0  0
  -21.2060   -6.7120   23.8300 C   0  0  0  0  0  3  0  0  0  0  0  0
  -21.0750   -5.8760   24.9630 C   0  0  0  0  0  3  0  0  0  0  0  0
  -21.3190   -4.4910   24.8590 C   0  0  0  0  0  0  0  0  0  0  0  0
  -21.6640   -3.9400   23.6160 C   0  0  0  0  0  3  0  0  0  0  0  0
  -21.7860   -4.7700   22.4840 C   0  0  0  0  0  0  0  0  0  0  0  0
  -22.0820   -4.2040   21.2890 F   0  0  0  0  0  0  0  0  0  0  0  0
  -21.2170   -3.6950   25.9520 F   0  0  0  0  0  0  0  0  0  0  0  0
  -22.6300  -13.8200   21.0880 C   0  0  0  0  0  0  0  0  0  0  0  0
  -22.0340  -13.0120   21.9660 N   0  0  0  0  0  0  0  0  0  0  0  0
  -22.0210  -14.6040   20.3810 O   0  0  0  0  0  0  0  0  0  0  0  0
  -22.5600  -12.3240   22.4870 H   0  0  0  0  0  0  0  0  0  0  0  0
  -21.0430  -13.1020   22.1330 H   0  0  0  0  0  0  0  0  0  0  0  0
  -25.9060  -15.2250   22.0830 N   0  0  0  0  0  0  0  0  0  0  0  0
  -25.2620  -15.8050   22.6060 H   0  0  0  0  0  0  0  0  0  0  0  0
  -26.8780  -15.4450   22.2600 H   0  0  0  0  0  0  0  0  0  0  0  0
  -28.1530  -23.7410   19.3620 C   0  0  0  0  0  2  0  0  0  0  0  0
  -28.2610  -25.4680   19.9620 O   0  0  0  0  0  0  0  0  0  0  0  0
  -24.7510  -31.7940   22.9010 C   0  0  0  0  0  0  0  0  0  0  0  0
  -27.4980  -26.8240   19.8490 C   0  0  0  0  0  0  0  0  0  0  0  0
  -23.7220  -30.3100   21.2530 C   0  0  0  0  0  3  0  0  0  0  0  0
  -25.2840  -28.8450   19.7830 C   0  0  0  0  0  0  0  0  0  0  0  0
  -26.2860  -30.6310   21.1770 C   0  0  0  0  0  2  0  0  0  0  0  0
  -26.4380  -29.2110   20.4810 C   0  0  0  0  0  0  0  0  0  0  0  0
  -27.5530  -28.2110   20.4970 C   0  0  0  0  0  3  0  0  0  0  0  0
  -26.3730  -26.7500   19.0330 C   0  0  0  0  0  3  0  0  0  0  0  0
  -25.3000  -27.6670   19.0300 C   0  0  0  0  0  3  0  0  0  0  0  0
  -24.0240  -29.7070   19.8560 C   0  0  0  0  0  2  0  0  0  0  0  0
  -24.9460  -30.9540   21.8260 N   0  0  0  0  0  0  0  0  0  0  0  0
  -23.6240  -31.9770   23.3960 O   0  0  0  0  0  0  0  0  0  0  0  0
  -23.1250  -29.2290   22.1960 C   0  0  0  0  0  0  0  0  0  0  0  0
  -21.8270  -28.9030   22.0410 N   0  0  0  0  0  0  0  0  0  0  0  0
  -23.8360  -28.6930   23.0500 O   0  0  0  0  0  0  0  0  0  0  0  0
  -21.2940  -29.3950   21.3370 H   0  0  0  0  0  0  0  0  0  0  0  0
  -18.5970  -27.3170   22.5250 C   0  0  0  0  0  0  0  0  0  0  0  0
  -21.1100  -27.8700   22.7980 C   0  0  0  0  0  3  0  0  0  0  0  0
  -21.3720  -26.4650   22.2050 C   0  0  0  0  0  2  0  0  0  0  0  0
  -20.3160  -26.0350   21.1830 C   0  0  0  0  0  2  0  0  0  0  0  0
  -18.9270  -26.0100   21.8240 C   0  0  0  0  0  2  0  0  0  0  0  0
  -19.6190  -28.1990   22.9670 C   0  0  0  0  0  0  0  0  0  0  0  0
  -19.2550  -29.4130   23.5880 C   0  0  0  0  0  3  0  0  0  0  0  0
  -17.9010  -29.7540   23.7650 C   0  0  0  0  0  3  0  0  0  0  0  0
  -16.8930  -28.8740   23.3340 C   0  0  0  0  0  3  0  0  0  0  0  0
  -17.2410  -27.6560   22.7220 C   0  0  0  0  0  3  0  0  0  0  0  0
  -25.9240  -32.5820   23.5560 C   0  0  0  0  0  3  0  0  0  0  0  0
  -25.4060  -33.8960   23.9930 N   0  0  0  0  0  0  0  0  0  0  0  0
  -25.5510  -35.0510   23.3280 C   0  0  0  0  0  0  0  0  0  0  0  0
  -26.1930  -35.1330   22.2800 O   0  0  0  0  0  0  0  0  0  0  0  0
  -24.8220  -33.8930   24.8160 H   0  0  0  0  0  0  0  0  0  0  0  0
  -23.5560  -36.5890   23.1930 C   0  0  0  0  0  1  0  0  0  0  0  0
  -24.8840  -36.3140   23.9170 C   0  0  0  0  0  3  0  0  0  0  0  0
  -26.8840  -37.4720   24.7520 C   0  0  0  0  0  1  0  0  0  0  0  0
  -25.7380  -37.5210   23.8500 N   0  0  0  0  0  0  0  0  0  0  0  0
  -25.2000  -38.3570   24.0670 H   0  0  0  0  0  0  0  0  0  0  0  0
  -26.5600  -31.8300   24.7900 C   0  0  1  0  0  0  0  0  0  0  0  0
  -25.5240  -31.3600   25.8390 C   0  0  0  0  0  1  0  0  0  0  0  0
  -27.3520  -30.5840   24.3370 C   0  0  0  0  0  1  0  0  0  0  0  0
  -27.5740  -32.7550   25.5030 C   0  0  0  0  0  1  0  0  0  0  0  0
  1  3  1  0
  3 51  1  0
  3  2  2  0
  4  6  1  0
  4  1  2  0
  5  2  1  0
  5 10  1  0
  6  5  2  0
  7  4  1  0
  8  9  1  0
  8  6  1  0
 11 23  1  0
 12 11  1  0
 12 21  1  0
 13 20  2  0
 14 19  1  0
 15 16  1  0
 15 14  1  0
 17 16  1  0
 17 26  1  0
 17 18  1  0
 19 13  1  0
 19 18  1  0
 21 13  1  0
 21 22  1  0
 23 48  1  0
 24 43  1  0
 24 23  1  0
 25 28  1  0
 25 24  1  0
 27 25  1  0
 27 26  1  0
 28 29  1  0
 29 30  2  0
 31 34  1  0
 31 30  1  0
 32 31  2  0
 33 28  2  0
 33 32  1  0
 34 35  1  0
 35 36  1  0
 36 37  2  0
 38 37  1  0
 38 42  1  0
 39 38  2  0
 40 35  2  0
 40 39  1  0
 41 40  1  0
 43 44  1  0
 44 47  1  0
 44 46  1  0
 45 43  2  0
 48 50  1  0
 48 49  1  0
 51 52  1  0
 53 64  2  0
 54 52  1  0
 54 59  1  0
 55 63  1  0
 55 65  1  0
 56 62  1  0
 56 58  1  0
 57 63  1  0
 58 59  2  0
 58 57  1  0
 60 54  2  0
 61 60  1  0
 61 56  2  0
 62 55  1  0
 63 53  1  0
 65 67  2  0
 66 65  1  0
 68 66  1  0
 69 78  2  0
 69 74  1  0
 70 66  1  0
 70 74  1  0
 71 70  1  0
 72 73  1  0
 72 71  1  0
 73 69  1  0
 74 75  2  0
 75 76  1  0
 77 76  2  0
 78 77  1  0
 79 53  1  0
 79 80  1  0
 79 89  1  0
 80 83  1  0
 81 85  1  0
 81 80  1  0
 82 81  2  0
 85 84  1  0
 87 85  1  0
 87 88  1  0
 87 86  1  0
 89 92  1  1
 89 90  1  0
 91 89  1  0
M  ISO  4  13 100  21 100  51 101  52 101
M  END
>  <TORSDO>  (77) 
F 21

>  <SCORE>  (77) 
-9.805

>  <name>  (77) 
77

>  <ligand_id>  (77) 
77

>  <original_smiles>  (77) 
[H]Oc1c(C([H])([H])[H])c([H])c(C([H])([H])Oc2c([H])c([H])c3c(c2[H])C([H])([H])N(C(=O)C([H])(N([H])C(=O)C([H])(N([H])C([H])([H])[H])C([H])([H])[H])C(C([H])([H])[H])(C([H])([H])[H])C([H])([H])[H])C([H])(C(=O)N([H])C2([H])c4c([H])c([H])c([H])c([H])c4C([H])([H])C([H])([H])C2([H])[H])C3([H])[H])c([H])c1C([H])([H])C([H])([H])C([H])([H])N([H])C(=O)N1C([H])([H])C([H])([H])C([H])([H])C([H])(n2nc(-c3c([H])c([H])c(Oc4c([H])c([H])c(F)c([H])c4F)c([H])c3[H])c(C(=O)N([H])[H])c2N([H])[H])C1([H])[H]

>  <smiles>  (77) 
[H]Oc1c(C([H])([H])[H])c([H])c(C([H])([H])Oc2c([H])c([H])c3c(c2[H])C([H])([H])N(C(=O)C([H])(N([H])C(=O)C([H])(N([H])C([H])([H])[H])C([H])([H])[H])C(C([H])([H])[H])(C([H])([H])[H])C([H])([H])[H])C([H])(C(=O)N([H])C2([H])c4c([H])c([H])c([H])c([H])c4C([H])([H])C([H])([H])C2([H])[H])C3([H])[H])c([H])c1C([H])([H])C([H])([H])C([H])([H])N([H])C(=O)N1C([H])([H])C([H])([H])C([H])([H])C([H])(n2nc(-c3c([H])c([H])c(Oc4c([H])c([H])c(F)c([H])c4F)c([H])c3[H])c(C(=O)N([H])[H])c2N([H])[H])C1([H])[H]

$$$$
78:0:0
     RDKit          3D

 90 98  0  0  1  0  0  0  0  0999 V2000
  -28.9980  -21.3260   19.7620 C   0  0  0  0  0  3  0  0  0  0  0  0
  -29.5580  -22.7790   21.5930 C   0  0  0  0  0  3  0  0  0  0  0  0
  -30.1770  -20.3280   21.6100 C   0  0  0  0  0  3  0  0  0  0  0  0
  -28.9170  -22.7710   20.3350 C   0  0  0  0  0  0  0  0  0  0  0  0
  -29.6270  -20.0270   20.3460 C   0  0  0  0  0  0  0  0  0  0  0  0
  -30.1580  -21.6360   22.2060 C   0  0  0  0  0  0  0  0  0  0  0  0
  -29.2280  -18.3490   18.3400 C   0  0  0  0  0  1  0  0  0  0  0  0
  -29.9180  -18.3970   19.7100 C   0  0  0  0  0  0  0  0  0  0  0  0
  -30.6060  -15.5170   20.1960 C   0  0  0  0  0  0  0  0  0  0  0  0
  -30.6370  -13.0150   19.4520 C   0  0  0  0  0  2  0  0  0  0  0  0
  -29.7520  -12.7300   18.2100 C   0  0  0  0  0  2  0  0  0  0  0  0
  -28.3000  -12.4480   18.6310 C   0  0  0  0  0  2  0  0  0  0  0  0
  -27.8100  -13.4520   19.7020 C   0  0  0  0  0  3  0  0  0  0  0  0
  -28.8280  -13.6800   20.8420 C   0  0  0  0  0  2  0  0  0  0  0  0
  -30.0630  -14.1900   20.2190 N   0  0  0  0  0  0  0  0  0  0  0  0
  -31.8140  -15.5060   19.9200 O   0  0  0  0  0  0  0  0  0  0  0  0
  -29.8380  -16.8040   20.2880 N   0  0  0  0  0  4  0  0  0  0  0  0
  -28.9110  -16.6100   20.6360 H   0  0  0  0  0  0  0  0  0  0  0  0
  -25.4320  -14.0100   20.4230 C   0  0  0  0  0  0  0  0  0  0  0  0
  -24.3660  -13.2360   20.7850 C   0  0  0  0  0  0  0  0  0  0  0  0
  -24.8330  -11.8850   20.7690 C   0  0  0  0  0  0  0  0  0  0  0  0
  -26.4770  -13.1340   20.1970 N   0  0  0  0  0  0  0  0  0  0  0  0
  -26.1290  -11.8490   20.4730 N   0  0  0  0  0  0  0  0  0  0  0  0
  -24.1020  -10.6250   20.9570 C   0  0  0  0  0  0  0  0  0  0  0  0
  -24.5160   -9.6640   21.9060 C   0  0  0  0  0  3  0  0  0  0  0  0
  -23.7820   -8.4710   22.0840 C   0  0  0  0  0  3  0  0  0  0  0  0
  -22.6190   -8.2310   21.3150 C   0  0  0  0  0  0  0  0  0  0  0  0
  -22.2240   -9.1800   20.3550 C   0  0  0  0  0  3  0  0  0  0  0  0
  -22.9590  -10.3640   20.1750 C   0  0  0  0  0  3  0  0  0  0  0  0
  -21.8590   -7.0900   21.4010 O   0  0  0  0  0  0  0  0  0  0  0  0
  -21.7810   -6.3620   22.5620 C   0  0  0  0  0  0  0  0  0  0  0  0
  -21.3220   -6.9320   23.7690 C   0  0  0  0  0  3  0  0  0  0  0  0
  -21.1920   -6.1310   24.9210 C   0  0  0  0  0  3  0  0  0  0  0  0
  -21.5110   -4.7620   24.8670 C   0  0  0  0  0  0  0  0  0  0  0  0
  -21.9640   -4.1910   23.6640 C   0  0  0  0  0  3  0  0  0  0  0  0
  -22.0950   -4.9890   22.5140 C   0  0  0  0  0  0  0  0  0  0  0  0
  -22.5110   -4.4290   21.3530 F   0  0  0  0  0  0  0  0  0  0  0  0
  -21.3800   -3.9900   25.9710 F   0  0  0  0  0  0  0  0  0  0  0  0
  -22.9650  -13.7160   21.0290 C   0  0  0  0  0  0  0  0  0  0  0  0
  -22.2290  -13.0350   21.9000 N   0  0  0  0  0  0  0  0  0  0  0  0
  -22.5350  -14.7320   20.4840 O   0  0  0  0  0  0  0  0  0  0  0  0
  -22.5900  -12.2140   22.3610 H   0  0  0  0  0  0  0  0  0  0  0  0
  -21.2880  -13.3410   22.1070 H   0  0  0  0  0  0  0  0  0  0  0  0
  -25.5950  -15.3800   20.2350 N   0  0  0  0  0  0  0  0  0  0  0  0
  -24.8220  -16.0310   20.3280 H   0  0  0  0  0  0  0  0  0  0  0  0
  -26.4360  -15.8140   19.8770 H   0  0  0  0  0  0  0  0  0  0  0  0
  -31.4970  -20.8790   24.0660 C   0  0  0  0  0  1  0  0  0  0  0  0
  -30.7260  -21.8960   23.4350 O   0  0  0  0  0  0  0  0  0  0  0  0
  -28.0970  -24.2630   19.8380 C   0  0  0  0  0  2  0  0  0  0  0  0
  -28.2700  -25.8890   20.1830 O   0  0  0  0  0  0  0  0  0  0  0  0
  -24.6710  -31.8790   23.1310 C   0  0  0  0  0  0  0  0  0  0  0  0
  -27.2700  -27.0120   20.0770 C   0  0  0  0  0  0  0  0  0  0  0  0
  -23.4890  -30.4780   21.4880 C   0  0  0  0  0  3  0  0  0  0  0  0
  -24.9520  -28.8960   20.0470 C   0  0  0  0  0  0  0  0  0  0  0  0
  -26.0540  -30.7080   21.3390 C   0  0  0  0  0  2  0  0  0  0  0  0
  -26.1370  -29.2990   20.6730 C   0  0  0  0  0  0  0  0  0  0  0  0
  -27.2840  -28.3770   20.6690 C   0  0  0  0  0  3  0  0  0  0  0  0
  -26.0570  -26.7790   19.3870 C   0  0  0  0  0  3  0  0  0  0  0  0
  -24.9410  -27.6580   19.3820 C   0  0  0  0  0  3  0  0  0  0  0  0
  -23.7230  -29.8050   20.1070 C   0  0  0  0  0  2  0  0  0  0  0  0
  -24.7600  -31.0510   22.0390 N   0  0  0  0  0  0  0  0  0  0  0  0
  -23.5790  -32.1550   23.6560 O   0  0  0  0  0  0  0  0  0  0  0  0
  -22.8070  -29.4720   22.4530 C   0  0  0  0  0  0  0  0  0  0  0  0
  -21.4810  -29.2790   22.3190 N   0  0  0  0  0  0  0  0  0  0  0  0
  -23.4780  -28.8660   23.2910 O   0  0  0  0  0  0  0  0  0  0  0  0
  -20.9890  -29.8210   21.6220 H   0  0  0  0  0  0  0  0  0  0  0  0
  -18.1340  -27.9510   22.7710 C   0  0  0  0  0  0  0  0  0  0  0  0
  -20.6740  -28.3240   23.0890 C   0  0  0  0  0  3  0  0  0  0  0  0
  -20.8450  -26.8860   22.5420 C   0  0  0  0  0  2  0  0  0  0  0  0
  -19.7810  -26.5030   21.5080 C   0  0  0  0  0  2  0  0  0  0  0  0
  -18.3800  -26.6010   22.1180 C   0  0  0  0  0  2  0  0  0  0  0  0
  -19.2100  -28.7660   23.2120 C   0  0  0  0  0  0  0  0  0  0  0  0
  -18.9240  -30.0240   23.7840 C   0  0  0  0  0  3  0  0  0  0  0  0
  -17.5950  -30.4700   23.9190 C   0  0  0  0  0  3  0  0  0  0  0  0
  -16.5330  -29.6540   23.4920 C   0  0  0  0  0  3  0  0  0  0  0  0
  -16.8030  -28.3960   22.9240 C   0  0  0  0  0  3  0  0  0  0  0  0
  -25.9360  -32.5360   23.7640 C   0  0  0  0  0  3  0  0  0  0  0  0
  -26.4550  -31.7700   25.0440 C   0  0  1  0  0  0  0  0  0  0  0  0
  -25.3610  -31.5230   26.1100 C   0  0  0  0  0  1  0  0  0  0  0  0
  -27.0530  -30.3970   24.6630 C   0  0  0  0  0  1  0  0  0  0  0  0
  -27.5960  -32.5760   25.7080 C   0  0  0  0  0  1  0  0  0  0  0  0
  -25.6000  -33.9290   24.1120 N   0  0  0  0  0  0  0  0  0  0  0  0
  -25.9280  -35.0050   23.3850 C   0  0  0  0  0  0  0  0  0  0  0  0
  -26.6080  -34.9290   22.3580 O   0  0  0  0  0  0  0  0  0  0  0  0
  -24.9950  -34.0590   24.9090 H   0  0  0  0  0  0  0  0  0  0  0  0
  -24.1870  -36.7970   23.0640 C   0  0  0  0  0  1  0  0  0  0  0  0
  -25.4280  -36.3810   23.8700 C   0  0  0  0  0  3  0  0  0  0  0  0
  -27.5500  -37.2710   24.7300 C   0  0  0  0  0  1  0  0  0  0  0  0
  -26.4510  -37.4470   23.7830 N   0  0  0  0  0  0  0  0  0  0  0  0
  -26.0360  -38.3600   23.9450 H   0  0  0  0  0  0  0  0  0  0  0  0
  1  4  2  0
  1  5  1  0
  2  6  2  0
  3  6  1  0
  4  2  1  0
  5  3  2  0
  6 48  1  0
  7  8  1  0
  8 17  2  3
  8  5  1  0
  9 15  1  0
  9 17  1  0
 10 15  1  0
 11 12  1  0
 11 10  1  0
 13 12  1  0
 13 22  1  0
 13 14  1  0
 15 14  1  0
 16  9  2  0
 17 18  1  0
 19 20  2  0
 20 39  1  0
 21 20  1  0
 21 24  1  0
 22 19  1  0
 22 23  1  0
 23 21  2  0
 24 25  1  0
 25 26  2  0
 27 30  1  0
 27 26  1  0
 28 27  2  0
 29 28  1  0
 29 24  2  0
 30 31  1  0
 31 32  1  0
 32 33  2  0
 34 33  1  0
 34 38  1  0
 35 34  2  0
 36 31  2  0
 36 35  1  0
 37 36  1  0
 39 40  1  0
 40 43  1  0
 40 42  1  0
 41 39  2  0
 44 45  1  0
 44 19  1  0
 46 44  1  0
 48 47  1  0
 49 50  1  0
 49  4  1  0
 51 62  2  0
 52 50  1  0
 52 57  1  0
 53 61  1  0
 53 63  1  0
 54 60  1  0
 54 56  1  0
 55 61  1  0
 56 55  1  0
 57 56  2  0
 58 52  2  0
 59 58  1  0
 59 54  2  0
 60 53  1  0
 61 51  1  0
 63 65  2  0
 64 63  1  0
 66 64  1  0
 67 76  2  0
 67 72  1  0
 68 64  1  0
 68 72  1  0
 69 68  1  0
 70 71  1  0
 70 69  1  0
 71 67  1  0
 72 73  2  0
 73 74  1  0
 75 74  2  0
 76 75  1  0
 77 51  1  0
 77 82  1  0
 77 78  1  0
 78 81  1  1
 78 79  1  0
 80 78  1  0
 82 85  1  0
 83 87  1  0
 83 82  1  0
 84 83  2  0
 87 86  1  0
 89 87  1  0
 89 90  1  0
 89 88  1  0
M  ISO  4   9 100  17 100  49 101  50 101
M  END
>  <TORSDO>  (78) 
F 19

>  <SCORE>  (78) 
-16.539

>  <name>  (78) 
78

>  <ligand_id>  (78) 
78

>  <original_smiles>  (78) 
[H]c1c([H])c([H])c2c(c1[H])C([H])([H])C([H])([H])C([H])([H])C2([H])N([H])C(=O)C1([H])N(C(=O)C([H])(N([H])C(=O)C([H])(N([H])C([H])([H])[H])C([H])([H])[H])C(C([H])([H])[H])(C([H])([H])[H])C([H])([H])[H])C([H])([H])c2c([H])c(OC([H])([H])c3c([H])c(OC([H])([H])[H])c([H])c(C([H])(N([H])C(=O)N4C([H])([H])C([H])([H])C([H])([H])C([H])(n5nc(-c6c([H])c([H])c(Oc7c([H])c([H])c(F)c([H])c7F)c([H])c6[H])c(C(=O)N([H])[H])c5N([H])[H])C4([H])[H])C([H])([H])[H])c3[H])c([H])c([H])c2C1([H])[H]

>  <smiles>  (78) 
[H]c1c([H])c([H])c2c(c1[H])C([H])([H])C([H])([H])C([H])([H])C2([H])N([H])C(=O)C1([H])N(C(=O)C([H])(N([H])C(=O)C([H])(N([H])C([H])([H])[H])C([H])([H])[H])C(C([H])([H])[H])(C([H])([H])[H])C([H])([H])[H])C([H])([H])c2c([H])c(OC([H])([H])c3c([H])c(OC([H])([H])[H])c([H])c(C([H])(N([H])C(=O)N4C([H])([H])C([H])([H])C([H])([H])C([H])(n5nc(-c6c([H])c([H])c(Oc7c([H])c([H])c(F)c([H])c7F)c([H])c6[H])c(C(=O)N([H])[H])c5N([H])[H])C4([H])[H])C([H])([H])[H])c3[H])c([H])c([H])c2C1([H])[H]

$$$$
79:0:0
     RDKit          3D

 90 98  0  0  1  0  0  0  0  0999 V2000
  -27.1070  -23.3830   22.6680 C   0  0  0  0  0  3  0  0  0  0  0  0
  -27.8220  -22.9180   21.5640 C   0  0  0  0  0  3  0  0  0  0  0  0
  -27.1370  -25.5980   21.7050 C   0  0  0  0  0  3  0  0  0  0  0  0
  -26.7720  -24.7310   22.7450 C   0  0  0  0  0  0  0  0  0  0  0  0
  -28.2370  -23.7290   20.4790 C   0  0  0  0  0  0  0  0  0  0  0  0
  -27.8210  -25.2140   20.5100 C   0  0  0  0  0  0  0  0  0  0  0  0
  -26.0120  -25.2500   23.9490 C   0  0  0  0  0  1  0  0  0  0  0  0
  -27.9680  -26.4180   19.6610 O   0  0  0  0  0  0  0  0  0  0  0  0
  -24.5760  -32.0660   23.0480 C   0  0  0  0  0  0  0  0  0  0  0  0
  -26.9800  -27.4890   19.6710 C   0  0  0  0  0  0  0  0  0  0  0  0
  -23.2900  -30.7560   21.4030 C   0  0  0  0  0  3  0  0  0  0  0  0
  -24.6640  -29.2510   19.8270 C   0  0  0  0  0  0  0  0  0  0  0  0
  -25.8380  -31.0180   21.1320 C   0  0  0  0  0  2  0  0  0  0  0  0
  -25.8740  -29.6610   20.4040 C   0  0  0  0  0  0  0  0  0  0  0  0
  -27.0320  -28.7920   20.3200 C   0  0  0  0  0  3  0  0  0  0  0  0
  -25.7500  -27.1980   19.0480 C   0  0  0  0  0  3  0  0  0  0  0  0
  -24.6130  -28.0320   19.1320 C   0  0  0  0  0  3  0  0  0  0  0  0
  -23.4400  -30.1440   19.9830 C   0  0  0  0  0  2  0  0  0  0  0  0
  -24.5890  -31.3010   21.9140 N   0  0  0  0  0  0  0  0  0  0  0  0
  -23.5190  -32.3240   23.6450 O   0  0  0  0  0  0  0  0  0  0  0  0
  -22.6570  -29.7040   22.3490 C   0  0  0  0  0  0  0  0  0  0  0  0
  -21.3270  -29.5240   22.2670 N   0  0  0  0  0  0  0  0  0  0  0  0
  -23.3660  -29.0510   23.1200 O   0  0  0  0  0  0  0  0  0  0  0  0
  -20.8070  -30.0930   21.6140 H   0  0  0  0  0  0  0  0  0  0  0  0
  -17.9780  -28.2820   22.8760 C   0  0  0  0  0  0  0  0  0  0  0  0
  -20.5460  -28.5490   23.0360 C   0  0  0  0  0  3  0  0  0  0  0  0
  -20.6310  -27.1450   22.3940 C   0  0  0  0  0  2  0  0  0  0  0  0
  -19.4850  -26.8600   21.4180 C   0  0  0  0  0  2  0  0  0  0  0  0
  -18.1330  -26.9660   22.1290 C   0  0  0  0  0  2  0  0  0  0  0  0
  -19.1120  -29.0310   23.2870 C   0  0  0  0  0  0  0  0  0  0  0  0
  -18.9110  -30.2630   23.9480 C   0  0  0  0  0  3  0  0  0  0  0  0
  -17.6130  -30.7430   24.2010 C   0  0  0  0  0  3  0  0  0  0  0  0
  -16.4950  -29.9890   23.8040 C   0  0  0  0  0  3  0  0  0  0  0  0
  -16.6790  -28.7600   23.1450 C   0  0  0  0  0  3  0  0  0  0  0  0
  -25.8860  -32.6730   23.6350 C   0  0  0  0  0  3  0  0  0  0  0  0
  -26.4440  -31.8610   24.8670 C   0  0  1  0  0  0  0  0  0  0  0  0
  -25.3870  -31.6030   25.9670 C   0  0  0  0  0  1  0  0  0  0  0  0
  -26.9960  -30.4870   24.4230 C   0  0  0  0  0  1  0  0  0  0  0  0
  -27.6260  -32.6260   25.5080 C   0  0  0  0  0  1  0  0  0  0  0  0
  -25.5990  -34.0640   24.0270 N   0  0  0  0  0  0  0  0  0  0  0  0
  -25.9350  -35.1450   23.3110 C   0  0  0  0  0  0  0  0  0  0  0  0
  -26.5820  -35.0760   22.2630 O   0  0  0  0  0  0  0  0  0  0  0  0
  -25.0170  -34.1890   24.8410 H   0  0  0  0  0  0  0  0  0  0  0  0
  -24.2290  -36.9840   23.0750 C   0  0  0  0  0  1  0  0  0  0  0  0
  -25.4800  -36.5210   23.8390 C   0  0  0  0  0  3  0  0  0  0  0  0
  -27.6440  -37.3370   24.6690 C   0  0  0  0  0  1  0  0  0  0  0  0
  -26.5290  -37.5630   23.7530 N   0  0  0  0  0  0  0  0  0  0  0  0
  -26.1390  -38.4820   23.9470 H   0  0  0  0  0  0  0  0  0  0  0  0
  -29.1820  -22.7530   19.5630 C   0  0  0  0  0  2  0  0  0  0  0  0
  -29.0910  -21.0370   19.3660 C   0  0  0  0  0  2  0  0  0  0  0  0
  -29.6120  -19.6610   20.2350 C   0  0  0  0  0  2  0  0  0  0  0  0
  -30.1580  -18.1790   19.5640 C   0  0  0  0  0  2  0  0  0  0  0  0
  -30.7810  -15.4830   19.9020 C   0  0  0  0  0  0  0  0  0  0  0  0
  -30.6740  -13.0930   19.0420 C   0  0  0  0  0  2  0  0  0  0  0  0
  -29.7250  -13.0130   17.8220 C   0  0  0  0  0  2  0  0  0  0  0  0
  -28.2720  -12.7940   18.2770 C   0  0  0  0  0  2  0  0  0  0  0  0
  -27.8760  -13.7170   19.4630 C   0  0  0  0  0  3  0  0  0  0  0  0
  -28.9590  -13.7750   20.5650 C   0  0  0  0  0  2  0  0  0  0  0  0
  -30.2100  -14.2070   19.9250 N   0  0  0  0  0  0  0  0  0  0  0  0
  -31.9530  -15.5520   19.5120 O   0  0  0  0  0  0  0  0  0  0  0  0
  -30.0140  -16.6790   20.1090 N   0  0  0  0  0  0  0  0  0  0  0  0
  -29.1080  -16.4820   20.5070 H   0  0  0  0  0  0  0  0  0  0  0  0
  -25.5170  -14.2520   20.2930 C   0  0  0  0  0  0  0  0  0  0  0  0
  -24.4790  -13.4610   20.7000 C   0  0  0  0  0  0  0  0  0  0  0  0
  -24.9600  -12.1160   20.6430 C   0  0  0  0  0  0  0  0  0  0  0  0
  -26.5610  -13.3920   20.0030 N   0  0  0  0  0  0  0  0  0  0  0  0
  -26.2390  -12.1000   20.2810 N   0  0  0  0  0  0  0  0  0  0  0  0
  -24.2540  -10.8430   20.8530 C   0  0  0  0  0  0  0  0  0  0  0  0
  -24.6930   -9.9050   21.8120 C   0  0  0  0  0  3  0  0  0  0  0  0
  -23.9870   -8.6980   22.0080 C   0  0  0  0  0  3  0  0  0  0  0  0
  -22.8270   -8.4200   21.2470 C   0  0  0  0  0  0  0  0  0  0  0  0
  -22.4080   -9.3500   20.2780 C   0  0  0  0  0  3  0  0  0  0  0  0
  -23.1150  -10.5480   20.0780 C   0  0  0  0  0  3  0  0  0  0  0  0
  -22.0930   -7.2640   21.3510 O   0  0  0  0  0  0  0  0  0  0  0  0
  -22.0000   -6.5740   22.5330 C   0  0  0  0  0  0  0  0  0  0  0  0
  -21.4680   -7.1650   23.7000 C   0  0  0  0  0  3  0  0  0  0  0  0
  -21.3260   -6.4000   24.8760 C   0  0  0  0  0  3  0  0  0  0  0  0
  -21.7010   -5.0420   24.8830 C   0  0  0  0  0  0  0  0  0  0  0  0
  -22.2220   -4.4490   23.7190 C   0  0  0  0  0  3  0  0  0  0  0  0
  -22.3680   -5.2130   22.5470 C   0  0  0  0  0  0  0  0  0  0  0  0
  -22.8490   -4.6310   21.4240 F   0  0  0  0  0  0  0  0  0  0  0  0
  -21.5590   -4.3040   26.0090 F   0  0  0  0  0  0  0  0  0  0  0  0
  -23.0840  -13.9190   21.0170 C   0  0  0  0  0  0  0  0  0  0  0  0
  -22.3940  -13.2190   21.9090 N   0  0  0  0  0  0  0  0  0  0  0  0
  -22.6200  -14.9360   20.5050 O   0  0  0  0  0  0  0  0  0  0  0  0
  -22.7890  -12.4000   22.3480 H   0  0  0  0  0  0  0  0  0  0  0  0
  -21.4570  -13.5050   22.1520 H   0  0  0  0  0  0  0  0  0  0  0  0
  -25.6540  -15.6270   20.1190 N   0  0  0  0  0  0  0  0  0  0  0  0
  -24.8760  -16.2610   20.2560 H   0  0  0  0  0  0  0  0  0  0  0  0
  -26.4660  -16.0810   19.7200 H   0  0  0  0  0  0  0  0  0  0  0  0
  1  4  1  0
  2  1  2  0
  3  4  2  0
  4  7  1  0
  5  6  2  0
  5  2  1  0
  6  3  1  0
  8 10  1  0
  8  6  1  0
  9 20  2  0
 10 15  1  0
 11 19  1  0
 11 21  1  0
 12 18  1  0
 12 14  1  0
 13 19  1  0
 14 13  1  0
 15 14  2  0
 16 17  1  0
 16 10  2  0
 17 12  2  0
 18 11  1  0
 19  9  1  0
 21 23  2  0
 22 21  1  0
 24 22  1  0
 25 34  2  0
 25 30  1  0
 26 22  1  0
 26 30  1  0
 27 26  1  0
 28 29  1  0
 28 27  1  0
 29 25  1  0
 30 31  2  0
 31 32  1  0
 33 32  2  0
 34 33  1  0
 35  9  1  0
 35 40  1  0
 35 36  1  0
 36 39  1  1
 36 37  1  0
 38 36  1  0
 40 43  1  0
 41 45  1  0
 41 40  1  0
 42 41  2  0
 45 44  1  0
 47 45  1  0
 47 48  1  0
 47 46  1  0
 49  5  1  0
 50 49  1  0
 50 51  1  0
 52 61  1  0
 52 51  1  0
 53 59  1  0
 53 61  1  0
 54 59  1  0
 55 56  1  0
 55 54  1  0
 57 56  1  0
 57 66  1  0
 57 58  1  0
 59 58  1  0
 60 53  2  0
 61 62  1  0
 63 64  2  0
 64 83  1  0
 65 64  1  0
 65 68  1  0
 66 67  1  0
 66 63  1  0
 67 65  2  0
 68 69  1  0
 69 70  2  0
 71 74  1  0
 71 70  1  0
 72 71  2  0
 73 72  1  0
 73 68  2  0
 74 75  1  0
 75 80  2  0
 75 76  1  0
 76 77  2  0
 77 78  1  0
 78 82  1  0
 79 78  2  0
 80 79  1  0
 81 80  1  0
 83 84  1  0
 84 87  1  0
 84 86  1  0
 85 83  2  0
 88 89  1  0
 88 63  1  0
 90 88  1  0
M  ISO  4   6 101   8 101  53 100  61 100
M  END
>  <TORSDO>  (79) 
F 20

>  <SCORE>  (79) 
-12.346

>  <name>  (79) 
79

>  <ligand_id>  (79) 
79

>  <original_smiles>  (79) 
[H]c1c([H])c([H])c2c(c1[H])C([H])([H])C([H])([H])C([H])([H])C2([H])N([H])C(=O)C1([H])N(C(=O)C([H])(N([H])C(=O)C([H])(N([H])C([H])([H])[H])C([H])([H])[H])C(C([H])([H])[H])(C([H])([H])[H])C([H])([H])[H])C([H])([H])c2c([H])c(Oc3c([H])c(C([H])([H])[H])c([H])c([H])c3C([H])([H])C([H])([H])C([H])([H])C([H])([H])N([H])C(=O)N3C([H])([H])C([H])([H])C([H])([H])C([H])(n4nc(-c5c([H])c([H])c(Oc6c([H])c([H])c(F)c([H])c6F)c([H])c5[H])c(C(=O)N([H])[H])c4N([H])[H])C3([H])[H])c([H])c([H])c2C1([H])[H]

>  <smiles>  (79) 
[H]c1c([H])c([H])c2c(c1[H])C([H])([H])C([H])([H])C([H])([H])C2([H])N([H])C(=O)C1([H])N(C(=O)C([H])(N([H])C(=O)C([H])(N([H])C([H])([H])[H])C([H])([H])[H])C(C([H])([H])[H])(C([H])([H])[H])C([H])([H])[H])C([H])([H])c2c([H])c(Oc3c([H])c(C([H])([H])[H])c([H])c([H])c3C([H])([H])C([H])([H])C([H])([H])C([H])([H])N([H])C(=O)N3C([H])([H])C([H])([H])C([H])([H])C([H])(n4nc(-c5c([H])c([H])c(Oc6c([H])c([H])c(F)c([H])c6F)c([H])c5[H])c(C(=O)N([H])[H])c4N([H])[H])C3([H])[H])c([H])c([H])c2C1([H])[H]

$$$$
80:0:0
     RDKit          3D

 94102  0  0  1  0  0  0  0  0999 V2000
  -29.3990  -17.5620   18.5050 C   0  0  0  0  0  3  0  0  0  0  0  0
  -28.5670  -18.5110   17.8680 C   0  0  0  0  0  3  0  0  0  0  0  0
  -30.3570  -19.4000   19.7450 C   0  0  0  0  0  3  0  0  0  0  0  0
  -30.3370  -17.9230   19.4900 C   0  0  0  0  0  0  0  0  0  0  0  0
  -28.6000  -19.9030   18.1510 C   0  0  0  0  0  0  0  0  0  0  0  0
  -29.4980  -20.4440   19.1070 C   0  0  0  0  0  0  0  0  0  0  0  0
  -27.6750  -20.8090   17.3530 C   0  0  0  0  0  1  0  0  0  0  0  0
  -31.1460  -16.8450   21.6360 C   0  0  0  0  0  3  0  0  0  0  0  0
  -31.0490  -16.7140   20.2930 C   0  0  0  0  0  0  0  0  0  0  0  0
  -31.6750  -15.4020   19.6860 C   0  0  0  0  0  0  0  0  0  0  0  0
  -31.2910  -13.1290   18.5960 C   0  0  0  0  0  2  0  0  0  0  0  0
  -30.2650  -13.2610   17.4410 C   0  0  0  0  0  2  0  0  0  0  0  0
  -28.8160  -13.1560   17.9590 C   0  0  0  0  0  2  0  0  0  0  0  0
  -28.5960  -13.9960   19.2420 C   0  0  0  0  0  3  0  0  0  0  0  0
  -29.7200  -13.7680   20.2650 C   0  0  0  0  0  2  0  0  0  0  0  0
  -30.9870  -14.1750   19.6270 N   0  0  0  0  0  0  0  0  0  0  0  0
  -32.8010  -15.3900   19.1750 O   0  0  0  0  0  0  0  0  0  0  0  0
  -26.3450  -14.7350   20.2050 C   0  0  0  0  0  0  0  0  0  0  0  0
  -25.2460  -14.0360   20.6240 C   0  0  0  0  0  0  0  0  0  0  0  0
  -25.5820  -12.6540   20.4880 C   0  0  0  0  0  0  0  0  0  0  0  0
  -27.2790  -13.7850   19.8310 N   0  0  0  0  0  0  0  0  0  0  0  0
  -26.8350  -12.5230   20.0640 N   0  0  0  0  0  0  0  0  0  0  0  0
  -24.7600  -11.4520   20.6780 C   0  0  0  0  0  0  0  0  0  0  0  0
  -25.1430  -10.4300   21.5760 C   0  0  0  0  0  3  0  0  0  0  0  0
  -24.3260   -9.2940   21.7590 C   0  0  0  0  0  3  0  0  0  0  0  0
  -23.1130   -9.1710   21.0400 C   0  0  0  0  0  0  0  0  0  0  0  0
  -22.7480  -10.1780   20.1300 C   0  0  0  0  0  3  0  0  0  0  0  0
  -23.5640  -11.3060   19.9480 C   0  0  0  0  0  3  0  0  0  0  0  0
  -22.2720   -8.0890   21.1300 O   0  0  0  0  0  0  0  0  0  0  0  0
  -22.1400   -7.3710   22.2920 C   0  0  0  0  0  0  0  0  0  0  0  0
  -21.7800   -7.9850   23.5120 C   0  0  0  0  0  3  0  0  0  0  0  0
  -21.5910   -7.2000   24.6680 C   0  0  0  0  0  3  0  0  0  0  0  0
  -21.7490   -5.8020   24.6030 C   0  0  0  0  0  0  0  0  0  0  0  0
  -22.1000   -5.1880   23.3870 C   0  0  0  0  0  3  0  0  0  0  0  0
  -22.2920   -5.9700   22.2340 C   0  0  0  0  0  0  0  0  0  0  0  0
  -22.6100   -5.3710   21.0610 F   0  0  0  0  0  0  0  0  0  0  0  0
  -21.5610   -5.0450   25.7100 F   0  0  0  0  0  0  0  0  0  0  0  0
  -23.9250  -14.6170   21.0370 C   0  0  0  0  0  0  0  0  0  0  0  0
  -23.2390  -13.9710   21.9750 N   0  0  0  0  0  0  0  0  0  0  0  0
  -23.5140  -15.6760   20.5640 O   0  0  0  0  0  0  0  0  0  0  0  0
  -23.5880  -13.1150   22.3790 H   0  0  0  0  0  0  0  0  0  0  0  0
  -22.3540  -14.3390   22.2940 H   0  0  0  0  0  0  0  0  0  0  0  0
  -26.6170  -16.0950   20.0840 N   0  0  0  0  0  0  0  0  0  0  0  0
  -25.9290  -16.8070   20.2980 H   0  0  0  0  0  0  0  0  0  0  0  0
  -27.4870  -16.4770   19.7360 H   0  0  0  0  0  0  0  0  0  0  0  0
  -30.4270  -17.8720   22.5060 C   0  0  0  0  0  2  0  0  0  0  0  0
  -31.2570  -19.1130   22.8570 C   0  0  0  0  0  2  0  0  0  0  0  0
  -30.3440  -20.3200   23.1420 C   0  0  0  0  0  2  0  0  0  0  0  0
  -30.1540  -22.7090   24.0060 C   0  0  0  0  0  1  0  0  0  0  0  0
  -31.0850  -21.5150   23.7590 C   0  0  0  0  0  2  0  0  0  0  0  0
  -29.6170  -22.0980   19.2040 C   0  0  0  0  0  2  0  0  0  0  0  0
  -28.7130  -23.2330   20.0870 C   0  0  0  0  0  2  0  0  0  0  0  0
  -28.0010  -24.6700   19.5290 C   0  0  0  0  0  2  0  0  0  0  0  0
  -28.0720  -26.1520   20.0190 O   0  0  0  0  0  0  0  0  0  0  0  0
  -27.4160  -31.6580   24.8360 C   0  0  0  0  0  0  0  0  0  0  0  0
  -27.2370  -26.8560   20.9600 C   0  0  0  0  0  0  0  0  0  0  0  0
  -25.8840  -29.7430   25.0960 C   0  0  0  0  0  3  0  0  0  0  0  0
  -25.7210  -28.1320   23.0930 C   0  0  0  0  0  0  0  0  0  0  0  0
  -26.7630  -30.3730   22.7640 C   0  0  0  0  0  2  0  0  0  0  0  0
  -26.6240  -28.8980   22.3470 C   0  0  0  0  0  0  0  0  0  0  0  0
  -27.3640  -28.2690   21.2800 C   0  0  0  0  0  3  0  0  0  0  0  0
  -26.2640  -26.1670   21.7160 C   0  0  0  0  0  3  0  0  0  0  0  0
  -25.5310  -26.7790   22.7600 C   0  0  0  0  0  3  0  0  0  0  0  0
  -24.9870  -28.8040   24.2440 C   0  0  0  0  0  2  0  0  0  0  0  0
  -26.7370  -30.6300   24.2400 N   0  0  0  0  0  0  0  0  0  0  0  0
  -27.3230  -31.8780   26.0530 O   0  0  0  0  0  0  0  0  0  0  0  0
  -26.7040  -28.8930   26.1010 C   0  0  0  0  0  0  0  0  0  0  0  0
  -26.1500  -28.6700   27.3070 N   0  0  0  0  0  0  0  0  0  0  0  0
  -27.8020  -28.4310   25.7800 O   0  0  0  0  0  0  0  0  0  0  0  0
  -25.2520  -29.0910   27.5020 H   0  0  0  0  0  0  0  0  0  0  0  0
  -25.7420  -27.6530   30.7590 C   0  0  0  0  0  0  0  0  0  0  0  0
  -26.7270  -27.8510   28.3760 C   0  0  0  0  0  3  0  0  0  0  0  0
  -26.3440  -26.3630   28.2070 C   0  0  0  0  0  2  0  0  0  0  0  0
  -25.0830  -25.9730   28.9870 C   0  0  0  0  0  2  0  0  0  0  0  0
  -25.2740  -26.2350   30.4830 C   0  0  0  0  0  2  0  0  0  0  0  0
  -26.4100  -28.4180   29.7660 C   0  0  0  0  0  0  0  0  0  0  0  0
  -26.7940  -29.7430   30.0650 C   0  0  0  0  0  3  0  0  0  0  0  0
  -26.5260  -30.3020   31.3290 C   0  0  0  0  0  3  0  0  0  0  0  0
  -25.8770  -29.5360   32.3130 C   0  0  0  0  0  3  0  0  0  0  0  0
  -25.4900  -28.2140   32.0290 C   0  0  0  0  0  3  0  0  0  0  0  0
  -28.3280  -32.6210   24.0130 C   0  0  0  0  0  3  0  0  0  0  0  0
  -28.0630  -33.9920   24.4770 N   0  0  0  0  0  0  0  0  0  0  0  0
  -27.3870  -34.9170   23.7830 C   0  0  0  0  0  0  0  0  0  0  0  0
  -26.9670  -34.7200   22.6410 O   0  0  0  0  0  0  0  0  0  0  0  0
  -28.3230  -34.2030   25.4280 H   0  0  0  0  0  0  0  0  0  0  0  0
  -25.6610  -36.3900   24.8800 C   0  0  0  0  0  1  0  0  0  0  0  0
  -27.1370  -36.2780   24.4650 C   0  0  0  0  0  3  0  0  0  0  0  0
  -28.9390  -37.5860   23.4260 C   0  0  0  0  0  1  0  0  0  0  0  0
  -27.4980  -37.4370   23.6180 N   0  0  0  0  0  0  0  0  0  0  0  0
  -27.1400  -38.3000   24.0180 H   0  0  0  0  0  0  0  0  0  0  0  0
  -29.8660  -32.2840   24.1450 C   0  0  1  0  0  0  0  0  0  0  0  0
  -30.3390  -32.0950   25.6060 C   0  0  0  0  0  1  0  0  0  0  0  0
  -30.2150  -30.9940   23.3670 C   0  0  0  0  0  1  0  0  0  0  0  0
  -30.7060  -33.4210   23.5160 C   0  0  0  0  0  1  0  0  0  0  0  0
  1  4  1  0
  2  5  1  0
  2  1  2  0
  4  3  2  0
  4  9  1  0
  5  6  2  0
  6 51  1  0
  6  3  1  0
  7  5  1  0
  8 46  1  0
  9  8  2  0
 10  9  1  0
 11 16  1  0
 12 13  1  0
 12 11  1  0
 14 13  1  0
 14 21  1  0
 14 15  1  0
 16 10  1  0
 16 15  1  0
 17 10  2  0
 18 19  2  0
 19 38  1  0
 20 19  1  0
 20 23  1  0
 21 22  1  0
 21 18  1  0
 22 20  2  0
 23 24  1  0
 24 25  2  0
 26 29  1  0
 26 25  1  0
 27 26  2  0
 28 27  1  0
 28 23  2  0
 29 30  1  0
 30 31  1  0
 31 32  2  0
 33 32  1  0
 33 37  1  0
 34 33  2  0
 35 30  2  0
 35 34  1  0
 36 35  1  0
 38 39  1  0
 39 42  1  0
 39 41  1  0
 40 38  2  0
 43 18  1  0
 43 44  1  0
 45 43  1  0
 46 47  1  0
 47 48  1  0
 48 50  1  0
 50 49  1  0
 51 52  1  0
 53 54  1  0
 53 52  1  0
 54 56  1  0
 55 66  2  0
 56 61  2  0
 56 62  1  0
 57 67  1  0
 58 64  1  0
 59 65  1  0
 60 59  1  0
 60 58  2  0
 61 60  1  0
 62 63  2  0
 63 58  1  0
 64 57  1  0
 65 55  1  0
 65 57  1  0
 67 68  1  0
 68 70  1  0
 69 67  2  0
 71 80  1  0
 72 68  1  0
 72 76  1  0
 73 72  1  0
 73 74  1  0
 74 75  1  0
 75 71  1  0
 76 77  1  0
 76 71  2  0
 77 78  2  0
 78 79  1  0
 80 79  2  0
 81 91  1  0
 81 82  1  0
 81 55  1  0
 82 85  1  0
 83 87  1  0
 83 82  1  0
 84 83  2  0
 87 86  1  0
 88 89  1  0
 89 90  1  0
 89 87  1  0
 91 92  1  1
 93 91  1  0
 94 91  1  0
M  ISO  4   9 100  10 100  53 101  54 101
M  END
>  <TORSDO>  (80) 
F 24

>  <SCORE>  (80) 
-8.466

>  <name>  (80) 
80

>  <ligand_id>  (80) 
80

>  <original_smiles>  (80) 
[H]C(=C(C(=O)N1C([H])([H])C([H])([H])C([H])([H])C([H])(n2nc(-c3c([H])c([H])c(Oc4c([H])c([H])c(F)c([H])c4F)c([H])c3[H])c(C(=O)N([H])[H])c2N([H])[H])C1([H])[H])c1c([H])c([H])c(C([H])([H])[H])c(C([H])([H])C([H])([H])C([H])([H])Oc2c([H])c([H])c3c(c2[H])C([H])([H])N(C(=O)C([H])(N([H])C(=O)C([H])(N([H])C([H])([H])[H])C([H])([H])[H])C(C([H])([H])[H])(C([H])([H])[H])C([H])([H])[H])C([H])(C(=O)N([H])C2([H])c4c([H])c([H])c([H])c([H])c4C([H])([H])C([H])([H])C2([H])[H])C3([H])[H])c1[H])C([H])([H])C([H])([H])C([H])([H])C([H])([H])C([H])([H])[H]

>  <smiles>  (80) 
[H]C(=C(C(=O)N1C([H])([H])C([H])([H])C([H])([H])C([H])(n2nc(-c3c([H])c([H])c(Oc4c([H])c([H])c(F)c([H])c4F)c([H])c3[H])c(C(=O)N([H])[H])c2N([H])[H])C1([H])[H])c1c([H])c([H])c(C([H])([H])[H])c(C([H])([H])C([H])([H])C([H])([H])Oc2c([H])c([H])c3c(c2[H])C([H])([H])N(C(=O)C([H])(N([H])C(=O)C([H])(N([H])C([H])([H])[H])C([H])([H])[H])C(C([H])([H])[H])(C([H])([H])[H])C([H])([H])[H])C([H])(C(=O)N([H])C2([H])c4c([H])c([H])c([H])c([H])c4C([H])([H])C([H])([H])C2([H])[H])C3([H])[H])c1[H])C([H])([H])C([H])([H])C([H])([H])C([H])([H])C([H])([H])[H]

$$$$
81:0:0
     RDKit          3D

 92100  0  0  1  0  0  0  0  0999 V2000
  -29.9680  -18.9340   21.4610 C   0  0  0  0  0  3  0  0  0  0  0  0
  -29.5670  -18.9420   20.1140 C   0  0  0  0  0  0  0  0  0  0  0  0
  -30.2340  -16.3610   20.0930 C   0  0  0  0  0  0  0  0  0  0  0  0
  -30.4780  -17.7870   22.1150 C   0  0  0  0  0  0  0  0  0  0  0  0
  -29.7030  -17.6060   19.4520 C   0  0  0  0  0  0  0  0  0  0  0  0
  -30.6230  -16.5270   21.4590 C   0  0  0  0  0  0  0  0  0  0  0  0
  -30.9090  -17.9610   23.5650 C   0  0  0  0  0  1  0  0  0  0  0  0
  -29.2280  -17.5020   18.0070 C   0  0  0  0  0  1  0  0  0  0  0  0
  -30.6540  -14.9960   19.3510 C   0  0  0  0  0  0  0  0  0  0  0  0
  -30.2460  -12.7330   18.2890 C   0  0  0  0  0  2  0  0  0  0  0  0
  -29.1560  -12.8320   17.1950 C   0  0  0  0  0  2  0  0  0  0  0  0
  -27.7650  -12.6220   17.8140 C   0  0  0  0  0  2  0  0  0  0  0  0
  -27.5610  -13.4700   19.0920 C   0  0  0  0  0  3  0  0  0  0  0  0
  -28.7590  -13.3940   20.0590 C   0  0  0  0  0  2  0  0  0  0  0  0
  -29.9710  -13.7780   19.3230 N   0  0  0  0  0  0  0  0  0  0  0  0
  -31.7220  -15.0360   18.7320 O   0  0  0  0  0  0  0  0  0  0  0  0
  -25.3040  -14.0250   20.1620 C   0  0  0  0  0  0  0  0  0  0  0  0
  -24.2990  -13.2410   20.6540 C   0  0  0  0  0  0  0  0  0  0  0  0
  -24.7540  -11.8910   20.5350 C   0  0  0  0  0  0  0  0  0  0  0  0
  -26.3030  -13.1550   19.7630 N   0  0  0  0  0  0  0  0  0  0  0  0
  -25.9920  -11.8650   20.0550 N   0  0  0  0  0  0  0  0  0  0  0  0
  -24.0580  -10.6230   20.7940 C   0  0  0  0  0  0  0  0  0  0  0  0
  -24.5150   -9.7100   21.7710 C   0  0  0  0  0  3  0  0  0  0  0  0
  -23.8130   -8.5100   22.0150 C   0  0  0  0  0  3  0  0  0  0  0  0
  -22.6400   -8.2110   21.2810 C   0  0  0  0  0  0  0  0  0  0  0  0
  -22.2020   -9.1130   20.2960 C   0  0  0  0  0  3  0  0  0  0  0  0
  -22.9050  -10.3030   20.0490 C   0  0  0  0  0  3  0  0  0  0  0  0
  -21.9100   -7.0560   21.4320 O   0  0  0  0  0  0  0  0  0  0  0  0
  -21.7580   -6.4540   22.6540 C   0  0  0  0  0  0  0  0  0  0  0  0
  -21.1770   -7.1310   23.7490 C   0  0  0  0  0  3  0  0  0  0  0  0
  -20.9750   -6.4550   24.9690 C   0  0  0  0  0  3  0  0  0  0  0  0
  -21.3440   -5.1010   25.0950 C   0  0  0  0  0  0  0  0  0  0  0  0
  -21.9190   -4.4250   24.0060 C   0  0  0  0  0  3  0  0  0  0  0  0
  -22.1230   -5.0990   22.7880 C   0  0  0  0  0  0  0  0  0  0  0  0
  -22.6570   -4.4350   21.7350 F   0  0  0  0  0  0  0  0  0  0  0  0
  -21.1440   -4.4490   26.2640 F   0  0  0  0  0  0  0  0  0  0  0  0
  -22.9520  -13.7090   21.1190 C   0  0  0  0  0  0  0  0  0  0  0  0
  -22.3610  -13.0100   22.0820 N   0  0  0  0  0  0  0  0  0  0  0  0
  -22.4330  -14.7270   20.6600 O   0  0  0  0  0  0  0  0  0  0  0  0
  -22.7930  -12.1820   22.4630 H   0  0  0  0  0  0  0  0  0  0  0  0
  -21.4660  -13.3080   22.4440 H   0  0  0  0  0  0  0  0  0  0  0  0
  -25.4460  -15.4000   19.9960 N   0  0  0  0  0  0  0  0  0  0  0  0
  -24.7150  -16.0590   20.2400 H   0  0  0  0  0  0  0  0  0  0  0  0
  -26.2640  -15.8470   19.6030 H   0  0  0  0  0  0  0  0  0  0  0  0
  -29.1040  -20.3870   19.5170 C   0  0  0  0  0  0  0  0  0  0  0  0
  -28.8890  -20.4910   18.3080 O   0  0  0  0  0  0  0  0  0  0  0  0
  -28.8830  -21.7940   20.3630 C   0  0  0  0  0  2  0  0  0  0  0  0
  -28.8520  -23.3560   19.7110 C   0  0  0  0  0  3  0  0  0  0  0  0
  -28.2220  -24.7330   20.4610 C   0  0  0  0  0  3  0  0  0  0  0  0
  -28.4400  -26.2360   20.1140 O   0  0  0  0  0  0  0  0  0  0  0  0
  -24.8900  -31.8530   23.3320 C   0  0  0  0  0  0  0  0  0  0  0  0
  -27.3710  -27.2020   20.1480 C   0  0  0  0  0  0  0  0  0  0  0  0
  -23.6450  -30.5120   21.6790 C   0  0  0  0  0  3  0  0  0  0  0  0
  -25.0520  -28.9560   20.1940 C   0  0  0  0  0  0  0  0  0  0  0  0
  -26.1960  -30.7610   21.4710 C   0  0  0  0  0  2  0  0  0  0  0  0
  -26.2470  -29.3830   20.7890 C   0  0  0  0  0  0  0  0  0  0  0  0
  -27.4080  -28.5260   20.7450 C   0  0  0  0  0  3  0  0  0  0  0  0
  -26.1530  -26.8700   19.5210 C   0  0  0  0  0  3  0  0  0  0  0  0
  -25.0180  -27.7140   19.5410 C   0  0  0  0  0  3  0  0  0  0  0  0
  -23.8340  -29.8620   20.2820 C   0  0  0  0  0  2  0  0  0  0  0  0
  -24.9310  -31.0630   22.2160 N   0  0  0  0  0  0  0  0  0  0  0  0
  -23.8190  -32.1320   23.8900 O   0  0  0  0  0  0  0  0  0  0  0  0
  -22.9750  -29.4900   22.6300 C   0  0  0  0  0  0  0  0  0  0  0  0
  -21.6550  -29.2810   22.4750 N   0  0  0  0  0  0  0  0  0  0  0  0
  -23.6480  -28.8820   23.4690 O   0  0  0  0  0  0  0  0  0  0  0  0
  -21.1690  -29.8230   21.7750 H   0  0  0  0  0  0  0  0  0  0  0  0
  -18.3210  -27.9170   22.8490 C   0  0  0  0  0  0  0  0  0  0  0  0
  -20.8470  -28.3220   23.2330 C   0  0  0  0  0  3  0  0  0  0  0  0
  -21.0510  -26.8820   22.7080 C   0  0  0  0  0  2  0  0  0  0  0  0
  -20.0190  -26.4730   21.6510 C   0  0  0  0  0  2  0  0  0  0  0  0
  -18.6010  -26.5610   22.2220 C   0  0  0  0  0  2  0  0  0  0  0  0
  -19.3750  -28.7470   23.3110 C   0  0  0  0  0  0  0  0  0  0  0  0
  -19.0610  -30.0110   23.8600 C   0  0  0  0  0  3  0  0  0  0  0  0
  -17.7250  -30.4440   23.9480 C   0  0  0  0  0  3  0  0  0  0  0  0
  -16.6850  -29.6130   23.4990 C   0  0  0  0  0  3  0  0  0  0  0  0
  -16.9840  -28.3490   22.9560 C   0  0  0  0  0  3  0  0  0  0  0  0
  -26.1860  -32.4580   23.9510 C   0  0  0  0  0  3  0  0  0  0  0  0
  -25.8770  -33.8350   24.3750 N   0  0  0  0  0  0  0  0  0  0  0  0
  -26.1760  -34.9360   23.6740 C   0  0  0  0  0  0  0  0  0  0  0  0
  -26.8070  -34.9020   22.6120 O   0  0  0  0  0  0  0  0  0  0  0  0
  -25.3090  -33.9320   25.2030 H   0  0  0  0  0  0  0  0  0  0  0  0
  -24.4220  -36.7380   23.5050 C   0  0  0  0  0  1  0  0  0  0  0  0
  -25.7000  -36.2920   24.2330 C   0  0  0  0  0  3  0  0  0  0  0  0
  -27.8670  -37.1490   25.0180 C   0  0  0  0  0  1  0  0  0  0  0  0
  -26.7210  -37.3600   24.1360 N   0  0  0  0  0  0  0  0  0  0  0  0
  -26.3160  -38.2670   24.3510 H   0  0  0  0  0  0  0  0  0  0  0  0
  -26.7450  -31.6180   25.1670 C   0  0  1  0  0  0  0  0  0  0  0  0
  -25.6730  -31.2670   26.2240 C   0  0  0  0  0  1  0  0  0  0  0  0
  -27.3730  -30.2910   24.6790 C   0  0  0  0  0  1  0  0  0  0  0  0
  -27.8720  -32.4060   25.8730 C   0  0  0  0  0  1  0  0  0  0  0  0
  -32.7260  -15.0940   21.8560 C   0  0  0  0  0  1  0  0  0  0  0  0
  -31.2670  -15.3660   22.2420 C   0  0  0  0  0  2  0  0  0  0  0  0
  1  4  1  0
  2  1  2  0
  3  6  1  0
  4  7  1  0
  5  3  2  0
  5  2  1  0
  6  4  2  0
  6 92  1  0
  8  5  1  0
  9  3  1  0
 10 15  1  0
 11 12  1  0
 11 10  1  0
 13 12  1  0
 13 20  1  0
 13 14  1  0
 15  9  1  0
 15 14  1  0
 16  9  2  0
 17 18  2  0
 18 37  1  0
 19 18  1  0
 19 22  1  0
 20 21  1  0
 20 17  1  0
 21 19  2  0
 22 23  1  0
 23 24  2  0
 25 28  1  0
 25 24  1  0
 26 25  2  0
 27 26  1  0
 27 22  2  0
 28 29  1  0
 29 34  2  0
 29 30  1  0
 30 31  2  0
 31 32  1  0
 32 36  1  0
 33 32  2  0
 34 33  1  0
 35 34  1  0
 37 38  1  0
 38 41  1  0
 38 40  1  0
 39 37  2  0
 42 17  1  0
 42 43  1  0
 44 42  1  0
 45  2  1  0
 45 47  1  0
 46 45  2  0
 48 47  1  0
 48 49  2  0
 50 52  1  0
 50 49  1  0
 51 62  2  0
 52 57  1  0
 53 61  1  0
 53 63  1  0
 54 60  1  0
 54 56  1  0
 55 61  1  0
 56 55  1  0
 57 56  2  0
 58 59  1  0
 58 52  2  0
 59 54  2  0
 60 53  1  0
 61 51  1  0
 63 65  2  0
 64 63  1  0
 66 64  1  0
 67 76  2  0
 67 72  1  0
 68 64  1  0
 68 72  1  0
 69 68  1  0
 70 71  1  0
 70 69  1  0
 71 67  1  0
 72 73  2  0
 73 74  1  0
 75 74  2  0
 76 75  1  0
 77 51  1  0
 77 78  1  0
 77 87  1  0
 78 81  1  0
 79 83  1  0
 79 78  1  0
 80 79  2  0
 83 82  1  0
 85 83  1  0
 85 86  1  0
 85 84  1  0
 87 90  1  1
 87 88  1  0
 89 87  1  0
 91 92  1  0
M  ISO  4   3 100   9 100  49 101  50 101
M  END
>  <TORSDO>  (81) 
F 21

>  <SCORE>  (81) 
-8.237

>  <name>  (81) 
81

>  <ligand_id>  (81) 
81

>  <original_smiles>  (81) 
[H]c1c([H])c([H])c2c(c1[H])C([H])([H])C([H])([H])C([H])([H])C2([H])N([H])C(=O)C1([H])N(C(=O)C([H])(N([H])C(=O)C([H])(N([H])C([H])([H])[H])C([H])([H])[H])C(C([H])([H])[H])(C([H])([H])[H])C([H])([H])[H])C([H])([H])c2c([H])c(OC([H])([H])C([H])([H])C([H])([H])C(=O)c3c([H])c(C([H])([H])[H])c(C([H])([H])C([H])([H])[H])c(C(=O)N4C([H])([H])C([H])([H])C([H])([H])C([H])(n5nc(-c6c([H])c([H])c(Oc7c([H])c([H])c(F)c([H])c7F)c([H])c6[H])c(C(=O)N([H])[H])c5N([H])[H])C4([H])[H])c3C([H])([H])[H])c([H])c([H])c2C1([H])[H]

>  <smiles>  (81) 
[H]c1c([H])c([H])c2c(c1[H])C([H])([H])C([H])([H])C([H])([H])C2([H])N([H])C(=O)C1([H])N(C(=O)C([H])(N([H])C(=O)C([H])(N([H])C([H])([H])[H])C([H])([H])[H])C(C([H])([H])[H])(C([H])([H])[H])C([H])([H])[H])C([H])([H])c2c([H])c(OC([H])([H])C([H])([H])C([H])([H])C(=O)c3c([H])c(C([H])([H])[H])c(C([H])([H])C([H])([H])[H])c(C(=O)N4C([H])([H])C([H])([H])C([H])([H])C([H])(n5nc(-c6c([H])c([H])c(Oc7c([H])c([H])c(F)c([H])c7F)c([H])c6[H])c(C(=O)N([H])[H])c5N([H])[H])C4([H])[H])c3C([H])([H])[H])c([H])c([H])c2C1([H])[H]

$$$$
82:0:0
     RDKit          3D

 89 97  0  0  1  0  0  0  0  0999 V2000
  -28.2630  -21.2960   20.7970 C   0  0  0  0  0  3  0  0  0  0  0  0
  -28.3930  -19.8550   20.8790 C   0  0  0  0  0  2  0  0  0  0  0  0
  -30.3340  -21.3600   19.6760 C   0  0  0  0  0  3  0  0  0  0  0  0
  -29.2400  -22.1420   20.1910 C   0  0  0  0  0  0  0  0  0  0  0  0
  -29.4860  -19.0670   20.3730 C   0  0  0  0  0  0  0  0  0  0  0  0
  -30.4630  -19.9130   19.7380 C   0  0  0  0  0  0  0  0  0  0  0  0
  -31.6960  -19.2940   19.0980 C   0  0  0  0  0  1  0  0  0  0  0  0
  -29.4260  -17.4900   20.5860 C   0  0  0  0  0  0  0  0  0  0  0  0
  -29.5650  -16.0800   20.6550 C   0  0  0  0  0  3  0  0  0  0  0  0
  -30.5000  -14.9400   20.2050 C   0  0  0  0  0  0  0  0  0  0  0  0
  -30.4040  -12.6440   19.1500 C   0  0  0  0  0  2  0  0  0  0  0  0
  -29.4120  -12.6800   17.9610 C   0  0  0  0  0  2  0  0  0  0  0  0
  -27.9530  -12.4720   18.4270 C   0  0  0  0  0  2  0  0  0  0  0  0
  -27.6090  -13.3280   19.6730 C   0  0  0  0  0  3  0  0  0  0  0  0
  -28.7050  -13.1850   20.7510 C   0  0  0  0  0  2  0  0  0  0  0  0
  -29.9660  -13.6540   20.1500 N   0  0  0  0  0  0  0  0  0  0  0  0
  -31.6590  -15.0950   19.8020 O   0  0  0  0  0  0  0  0  0  0  0  0
  -25.2420  -13.9130   20.4710 C   0  0  0  0  0  0  0  0  0  0  0  0
  -24.1840  -13.1360   20.8590 C   0  0  0  0  0  0  0  0  0  0  0  0
  -24.6460  -11.7850   20.7950 C   0  0  0  0  0  0  0  0  0  0  0  0
  -26.2780  -13.0350   20.1940 N   0  0  0  0  0  0  0  0  0  0  0  0
  -25.9270  -11.7490   20.4520 N   0  0  0  0  0  0  0  0  0  0  0  0
  -23.9230  -10.5210   20.9870 C   0  0  0  0  0  0  0  0  0  0  0  0
  -24.3590   -9.5560   21.9200 C   0  0  0  0  0  3  0  0  0  0  0  0
  -23.6380   -8.3560   22.1010 C   0  0  0  0  0  3  0  0  0  0  0  0
  -22.4650   -8.1130   21.3490 C   0  0  0  0  0  0  0  0  0  0  0  0
  -22.0450   -9.0670   20.4040 C   0  0  0  0  0  3  0  0  0  0  0  0
  -22.7690  -10.2580   20.2220 C   0  0  0  0  0  3  0  0  0  0  0  0
  -21.7150   -6.9650   21.4380 O   0  0  0  0  0  0  0  0  0  0  0  0
  -21.6450   -6.2400   22.6000 C   0  0  0  0  0  0  0  0  0  0  0  0
  -21.1790   -6.8070   23.8060 C   0  0  0  0  0  3  0  0  0  0  0  0
  -21.0580   -6.0080   24.9600 C   0  0  0  0  0  3  0  0  0  0  0  0
  -21.3940   -4.6430   24.9090 C   0  0  0  0  0  0  0  0  0  0  0  0
  -21.8530   -4.0740   23.7090 C   0  0  0  0  0  3  0  0  0  0  0  0
  -21.9760   -4.8710   22.5570 C   0  0  0  0  0  0  0  0  0  0  0  0
  -22.4010   -4.3140   21.3970 F   0  0  0  0  0  0  0  0  0  0  0  0
  -21.2700   -3.8720   26.0150 F   0  0  0  0  0  0  0  0  0  0  0  0
  -22.7960  -13.6110   21.1730 C   0  0  0  0  0  0  0  0  0  0  0  0
  -22.0910  -12.9060   22.0490 N   0  0  0  0  0  0  0  0  0  0  0  0
  -22.3460  -14.6430   20.6750 O   0  0  0  0  0  0  0  0  0  0  0  0
  -22.4700  -12.0740   22.4760 H   0  0  0  0  0  0  0  0  0  0  0  0
  -21.1580  -13.2040   22.3000 H   0  0  0  0  0  0  0  0  0  0  0  0
  -25.4020  -15.2860   20.3090 N   0  0  0  0  0  0  0  0  0  0  0  0
  -24.6350  -15.9360   20.4450 H   0  0  0  0  0  0  0  0  0  0  0  0
  -26.2440  -15.7300   19.9640 H   0  0  0  0  0  0  0  0  0  0  0  0
  -29.2720  -23.7500   20.1460 C   0  0  0  0  0  0  0  0  0  0  0  0
  -30.3790  -24.2890   20.0320 O   0  0  0  0  0  0  0  0  0  0  0  0
  -28.0190  -24.7910   20.1770 C   0  0  0  0  0  2  0  0  0  0  0  0
  -28.2880  -26.3110   20.2010 O   0  0  0  0  0  0  0  0  0  0  0  0
  -24.6440  -31.9070   23.2410 C   0  0  0  0  0  0  0  0  0  0  0  0
  -27.2070  -27.2490   20.1660 C   0  0  0  0  0  0  0  0  0  0  0  0
  -23.4300  -30.5200   21.6040 C   0  0  0  0  0  3  0  0  0  0  0  0
  -24.8660  -28.9550   20.1640 C   0  0  0  0  0  0  0  0  0  0  0  0
  -25.9780  -30.7980   21.4150 C   0  0  0  0  0  2  0  0  0  0  0  0
  -26.0490  -29.4130   20.7590 C   0  0  0  0  0  0  0  0  0  0  0  0
  -27.2220  -28.5770   20.7410 C   0  0  0  0  0  3  0  0  0  0  0  0
  -25.9960  -26.8750   19.5430 C   0  0  0  0  0  3  0  0  0  0  0  0
  -24.8500  -27.6970   19.5430 C   0  0  0  0  0  3  0  0  0  0  0  0
  -23.6370  -29.8460   20.2220 C   0  0  0  0  0  2  0  0  0  0  0  0
  -24.7040  -31.0950   22.1430 N   0  0  0  0  0  0  0  0  0  0  0  0
  -23.5620  -32.1910   23.7770 O   0  0  0  0  0  0  0  0  0  0  0  0
  -22.7590  -29.5080   22.5670 C   0  0  0  0  0  0  0  0  0  0  0  0
  -21.4320  -29.3340   22.4420 N   0  0  0  0  0  0  0  0  0  0  0  0
  -23.4340  -28.8810   23.3870 O   0  0  0  0  0  0  0  0  0  0  0  0
  -20.9430  -29.8910   21.7550 H   0  0  0  0  0  0  0  0  0  0  0  0
  -18.0530  -28.1320   22.9520 C   0  0  0  0  0  0  0  0  0  0  0  0
  -20.6120  -28.3950   23.2130 C   0  0  0  0  0  3  0  0  0  0  0  0
  -20.7130  -26.9640   22.6370 C   0  0  0  0  0  2  0  0  0  0  0  0
  -19.6090  -26.6410   21.6250 C   0  0  0  0  0  2  0  0  0  0  0  0
  -18.2290  -26.7840   22.2730 C   0  0  0  0  0  2  0  0  0  0  0  0
  -19.1710  -28.8960   23.3780 C   0  0  0  0  0  0  0  0  0  0  0  0
  -18.9520  -30.1570   23.9730 C   0  0  0  0  0  3  0  0  0  0  0  0
  -17.6460  -30.6550   24.1450 C   0  0  0  0  0  3  0  0  0  0  0  0
  -16.5410  -29.8890   23.7330 C   0  0  0  0  0  3  0  0  0  0  0  0
  -16.7460  -28.6280   23.1430 C   0  0  0  0  0  3  0  0  0  0  0  0
  -25.9280  -32.5370   23.8610 C   0  0  0  0  0  3  0  0  0  0  0  0
  -26.4490  -31.7600   25.1320 C   0  0  1  0  0  0  0  0  0  0  0  0
  -25.3590  -31.5150   26.2030 C   0  0  0  0  0  1  0  0  0  0  0  0
  -27.0300  -30.3840   24.7320 C   0  0  0  0  0  1  0  0  0  0  0  0
  -27.6030  -32.5500   25.7920 C   0  0  0  0  0  1  0  0  0  0  0  0
  -25.6200  -33.9350   24.2050 N   0  0  0  0  0  0  0  0  0  0  0  0
  -25.9300  -34.9930   23.4450 C   0  0  0  0  0  0  0  0  0  0  0  0
  -26.5720  -34.8980   22.3960 O   0  0  0  0  0  0  0  0  0  0  0  0
  -25.0460  -34.0820   25.0230 H   0  0  0  0  0  0  0  0  0  0  0  0
  -24.1800  -36.7800   23.1610 C   0  0  0  0  0  1  0  0  0  0  0  0
  -25.4530  -36.3790   23.9250 C   0  0  0  0  0  3  0  0  0  0  0  0
  -27.6090  -37.2780   24.6830 C   0  0  0  0  0  1  0  0  0  0  0  0
  -26.4760  -37.4370   23.7740 N   0  0  0  0  0  0  0  0  0  0  0  0
  -26.0710  -38.3560   23.9310 H   0  0  0  0  0  0  0  0  0  0  0  0
  1  2  1  0
  3  6  2  0
  3  4  1  0
  4  1  2  0
  5  8  2  0
  5  2  1  0
  6  5  1  0
  7  6  1  0
  8  9  2  0
 10  9  1  0
 11 16  1  0
 12 13  1  0
 12 11  1  0
 14 13  1  0
 14 21  1  0
 14 15  1  0
 16 10  1  0
 16 15  1  0
 17 10  2  0
 18 19  2  0
 19 38  1  0
 20 19  1  0
 20 23  1  0
 21 22  1  0
 21 18  1  0
 22 20  2  0
 23 24  1  0
 24 25  2  0
 26 29  1  0
 26 25  1  0
 27 26  2  0
 28 27  1  0
 28 23  2  0
 29 30  1  0
 30 31  1  0
 31 32  2  0
 33 32  1  0
 33 37  1  0
 34 33  2  0
 35 30  2  0
 35 34  1  0
 36 35  1  0
 38 39  1  0
 39 42  1  0
 39 41  1  0
 40 38  2  0
 43 44  1  0
 43 18  1  0
 45 43  1  0
 46 48  1  0
 46  4  1  0
 47 46  2  0
 48 49  1  0
 50 61  2  0
 51 49  1  0
 51 56  1  0
 52 60  1  0
 52 62  1  0
 53 59  1  0
 53 55  1  0
 54 60  1  0
 55 54  1  0
 56 55  2  0
 57 51  2  0
 58 57  1  0
 58 53  2  0
 59 52  1  0
 60 50  1  0
 62 64  2  0
 63 62  1  0
 65 63  1  0
 66 75  2  0
 66 71  1  0
 67 63  1  0
 67 71  1  0
 68 67  1  0
 69 70  1  0
 69 68  1  0
 70 66  1  0
 71 72  2  0
 72 73  1  0
 74 73  2  0
 75 74  1  0
 76 50  1  0
 76 81  1  0
 76 77  1  0
 77 80  1  1
 77 78  1  0
 79 77  1  0
 81 84  1  0
 82 86  1  0
 82 81  1  0
 83 82  2  0
 86 85  1  0
 88 86  1  0
 88 89  1  0
 88 87  1  0
M  ISO  4   9 100  10 100  48 101  49 101
M  END
>  <TORSDO>  (82) 
F 19

>  <SCORE>  (82) 
-14.165

>  <name>  (82) 
82

>  <ligand_id>  (82) 
82

>  <original_smiles>  (82) 
[H]C(C(=O)N1C([H])([H])C([H])([H])C([H])([H])C([H])(n2nc(-c3c([H])c([H])c(Oc4c([H])c([H])c(F)c([H])c4F)c([H])c3[H])c(C(=O)N([H])[H])c2N([H])[H])C1([H])[H])=C([H])c1c([H])c([H])c(C(=O)C([H])([H])Oc2c([H])c([H])c3c(c2[H])C([H])([H])N(C(=O)C([H])(N([H])C(=O)C([H])(N([H])C([H])([H])[H])C([H])([H])[H])C(C([H])([H])[H])(C([H])([H])[H])C([H])([H])[H])C([H])(C(=O)N([H])C2([H])c4c([H])c([H])c([H])c([H])c4C([H])([H])C([H])([H])C2([H])[H])C3([H])[H])c([H])c1C([H])([H])[H]

>  <smiles>  (82) 
[H]C(C(=O)N1C([H])([H])C([H])([H])C([H])([H])C([H])(n2nc(-c3c([H])c([H])c(Oc4c([H])c([H])c(F)c([H])c4F)c([H])c3[H])c(C(=O)N([H])[H])c2N([H])[H])C1([H])[H])=C([H])c1c([H])c([H])c(C(=O)C([H])([H])Oc2c([H])c([H])c3c(c2[H])C([H])([H])N(C(=O)C([H])(N([H])C(=O)C([H])(N([H])C([H])([H])[H])C([H])([H])[H])C(C([H])([H])[H])(C([H])([H])[H])C([H])([H])[H])C([H])(C(=O)N([H])C2([H])c4c([H])c([H])c([H])c([H])c4C([H])([H])C([H])([H])C2([H])[H])C3([H])[H])c([H])c1C([H])([H])[H]

$$$$
83:0:0
     RDKit          3D

 88 96  0  0  1  0  0  0  0  0999 V2000
  -28.1100  -23.0980   19.2430 C   0  0  0  0  0  3  0  0  0  0  0  0
  -28.4450  -21.6110   19.2460 C   0  0  0  0  0  0  0  0  0  0  0  0
  -29.3340  -21.8270   21.3170 C   0  0  0  0  0  0  0  0  0  0  0  0
  -29.1150  -20.7820   20.2820 C   0  0  0  0  0  0  0  0  0  0  0  0
  -28.9930  -23.3230   21.2990 C   0  0  0  0  0  0  0  0  0  0  0  0
  -28.3330  -24.1540   20.2560 C   0  0  0  0  0  0  0  0  0  0  0  0
  -28.0940  -20.8690   17.9690 C   0  0  0  0  0  1  0  0  0  0  0  0
  -30.0580  -21.3100   22.5540 C   0  0  0  0  0  1  0  0  0  0  0  0
  -29.4300  -24.1320   22.5140 C   0  0  0  0  0  1  0  0  0  0  0  0
  -28.2470  -25.7490   20.1750 O   0  0  0  0  0  0  0  0  0  0  0  0
  -24.6610  -31.8830   23.1620 C   0  0  0  0  0  0  0  0  0  0  0  0
  -27.2030  -26.8710   20.1710 C   0  0  0  0  0  0  0  0  0  0  0  0
  -23.4630  -30.4680   21.5460 C   0  0  0  0  0  3  0  0  0  0  0  0
  -24.9050  -28.8320   20.1270 C   0  0  0  0  0  0  0  0  0  0  0  0
  -26.0330  -30.6500   21.3880 C   0  0  0  0  0  2  0  0  0  0  0  0
  -26.1000  -29.2190   20.7450 C   0  0  0  0  0  0  0  0  0  0  0  0
  -27.2330  -28.2620   20.7380 C   0  0  0  0  0  3  0  0  0  0  0  0
  -25.9740  -26.6720   19.4960 C   0  0  0  0  0  3  0  0  0  0  0  0
  -24.8760  -27.5820   19.4810 C   0  0  0  0  0  3  0  0  0  0  0  0
  -23.6900  -29.7660   20.1760 C   0  0  0  0  0  2  0  0  0  0  0  0
  -24.7420  -31.0330   22.0840 N   0  0  0  0  0  0  0  0  0  0  0  0
  -23.5730  -32.1760   23.6870 O   0  0  0  0  0  0  0  0  0  0  0  0
  -22.7720  -29.4860   22.5280 C   0  0  0  0  0  0  0  0  0  0  0  0
  -21.4410  -29.3130   22.4130 N   0  0  0  0  0  0  0  0  0  0  0  0
  -23.4430  -28.8780   23.3660 O   0  0  0  0  0  0  0  0  0  0  0  0
  -20.9500  -29.8540   21.7150 H   0  0  0  0  0  0  0  0  0  0  0  0
  -18.0730  -28.0640   22.9510 C   0  0  0  0  0  0  0  0  0  0  0  0
  -20.6310  -28.3740   23.1980 C   0  0  0  0  0  3  0  0  0  0  0  0
  -20.7510  -26.9370   22.6420 C   0  0  0  0  0  2  0  0  0  0  0  0
  -19.6500  -26.5850   21.6350 C   0  0  0  0  0  2  0  0  0  0  0  0
  -18.2690  -26.7130   22.2830 C   0  0  0  0  0  2  0  0  0  0  0  0
  -19.1810  -28.8510   23.3660 C   0  0  0  0  0  0  0  0  0  0  0  0
  -18.9410  -30.1110   23.9550 C   0  0  0  0  0  3  0  0  0  0  0  0
  -17.6270  -30.5860   24.1290 C   0  0  0  0  0  3  0  0  0  0  0  0
  -16.5350  -29.7990   23.7280 C   0  0  0  0  0  3  0  0  0  0  0  0
  -16.7590  -28.5390   23.1450 C   0  0  0  0  0  3  0  0  0  0  0  0
  -25.9300  -32.5430   23.7840 C   0  0  0  0  0  3  0  0  0  0  0  0
  -25.5970  -33.9370   24.1330 N   0  0  0  0  0  0  0  0  0  0  0  0
  -25.8990  -35.0120   23.3910 C   0  0  0  0  0  0  0  0  0  0  0  0
  -26.5450  -34.9340   22.3440 O   0  0  0  0  0  0  0  0  0  0  0  0
  -25.0170  -34.0700   24.9480 H   0  0  0  0  0  0  0  0  0  0  0  0
  -24.1400  -36.7960   23.1190 C   0  0  0  0  0  1  0  0  0  0  0  0
  -25.4090  -36.3900   23.8860 C   0  0  0  0  0  3  0  0  0  0  0  0
  -27.5530  -37.2980   24.6710 C   0  0  0  0  0  1  0  0  0  0  0  0
  -26.4260  -37.4590   23.7580 N   0  0  0  0  0  0  0  0  0  0  0  0
  -26.0120  -38.3720   23.9230 H   0  0  0  0  0  0  0  0  0  0  0  0
  -26.4580  -31.7820   25.0640 C   0  0  1  0  0  0  0  0  0  0  0  0
  -25.3730  -31.5400   26.1390 C   0  0  0  0  0  1  0  0  0  0  0  0
  -27.0520  -30.4070   24.6850 C   0  0  0  0  0  1  0  0  0  0  0  0
  -27.6060  -32.5880   25.7160 C   0  0  0  0  0  1  0  0  0  0  0  0
  -29.8280  -19.0850   20.1370 C   0  0  0  0  0  3  0  0  0  0  0  0
  -29.5300  -17.2510   20.5040 C   0  0  0  0  0  3  0  0  0  0  0  0
  -30.3670  -15.6300   20.2430 C   0  0  0  0  0  0  0  0  0  0  0  0
  -30.4450  -13.1220   19.3740 C   0  0  0  0  0  2  0  0  0  0  0  0
  -29.5270  -12.8360   18.1500 C   0  0  0  0  0  2  0  0  0  0  0  0
  -28.0920  -12.5120   18.5980 C   0  0  0  0  0  2  0  0  0  0  0  0
  -27.6210  -13.4710   19.7150 C   0  0  0  0  0  3  0  0  0  0  0  0
  -28.6680  -13.6830   20.8290 C   0  0  0  0  0  2  0  0  0  0  0  0
  -29.8710  -14.2660   20.2030 N   0  0  0  0  0  0  0  0  0  0  0  0
  -31.5820  -15.6060   19.9740 O   0  0  0  0  0  0  0  0  0  0  0  0
  -25.2610  -13.9960   20.5040 C   0  0  0  0  0  0  0  0  0  0  0  0
  -24.2070  -13.2090   20.8750 C   0  0  0  0  0  0  0  0  0  0  0  0
  -24.6830  -11.8610   20.8300 C   0  0  0  0  0  0  0  0  0  0  0  0
  -26.3050  -13.1300   20.2400 N   0  0  0  0  0  0  0  0  0  0  0  0
  -25.9730  -11.8380   20.5050 N   0  0  0  0  0  0  0  0  0  0  0  0
  -23.9610  -10.5950   21.0170 C   0  0  0  0  0  0  0  0  0  0  0  0
  -24.3910   -9.6300   21.9550 C   0  0  0  0  0  3  0  0  0  0  0  0
  -23.6660   -8.4310   22.1320 C   0  0  0  0  0  3  0  0  0  0  0  0
  -22.4980   -8.1880   21.3710 C   0  0  0  0  0  0  0  0  0  0  0  0
  -22.0880   -9.1410   20.4220 C   0  0  0  0  0  3  0  0  0  0  0  0
  -22.8130  -10.3310   20.2450 C   0  0  0  0  0  3  0  0  0  0  0  0
  -21.7460   -7.0410   21.4570 O   0  0  0  0  0  0  0  0  0  0  0  0
  -21.6740   -6.3110   22.6170 C   0  0  0  0  0  0  0  0  0  0  0  0
  -21.1990   -6.8720   23.8220 C   0  0  0  0  0  3  0  0  0  0  0  0
  -21.0760   -6.0680   24.9720 C   0  0  0  0  0  3  0  0  0  0  0  0
  -21.4200   -4.7050   24.9190 C   0  0  0  0  0  0  0  0  0  0  0  0
  -21.8880   -4.1430   23.7180 C   0  0  0  0  0  3  0  0  0  0  0  0
  -22.0120   -4.9440   22.5700 C   0  0  0  0  0  0  0  0  0  0  0  0
  -22.4440   -4.3920   21.4100 F   0  0  0  0  0  0  0  0  0  0  0  0
  -21.2960   -3.9300   26.0220 F   0  0  0  0  0  0  0  0  0  0  0  0
  -22.8100  -13.6780   21.1560 C   0  0  0  0  0  0  0  0  0  0  0  0
  -22.0920  -12.9780   22.0280 N   0  0  0  0  0  0  0  0  0  0  0  0
  -22.3640  -14.7010   20.6390 O   0  0  0  0  0  0  0  0  0  0  0  0
  -22.4670  -12.1510   22.4680 H   0  0  0  0  0  0  0  0  0  0  0  0
  -21.1540  -13.2740   22.2580 H   0  0  0  0  0  0  0  0  0  0  0  0
  -25.4140  -15.3690   20.3380 N   0  0  0  0  0  0  0  0  0  0  0  0
  -24.6470  -16.0190   20.4700 H   0  0  0  0  0  0  0  0  0  0  0  0
  -26.2620  -15.8180   20.0140 H   0  0  0  0  0  0  0  0  0  0  0  0
  1  2  2  0
  1  6  1  0
  2  4  1  0
  3  8  1  0
  4  3  2  0
  5  3  1  0
  5  9  1  0
  6  5  2  0
  7  2  1  0
 10  6  1  0
 11 22  2  0
 12 10  1  0
 12 17  1  0
 13 21  1  0
 13 23  1  0
 14 20  1  0
 14 16  1  0
 15 21  1  0
 16 15  1  0
 17 16  2  0
 18 12  2  0
 19 18  1  0
 19 14  2  0
 20 13  1  0
 21 11  1  0
 23 25  2  0
 24 23  1  0
 26 24  1  0
 27 36  2  0
 27 32  1  0
 28 24  1  0
 28 32  1  0
 29 28  1  0
 30 31  1  0
 30 29  1  0
 31 27  1  0
 32 33  2  0
 33 34  1  0
 35 34  2  0
 36 35  1  0
 37 11  1  0
 37 38  1  0
 37 47  1  0
 38 41  1  0
 39 43  1  0
 39 38  1  0
 40 39  2  0
 43 42  1  0
 45 43  1  0
 45 46  1  0
 45 44  1  0
 47 50  1  1
 47 48  1  0
 49 47  1  0
 51  4  1  0
 51 52  2  0
 53 52  1  0
 54 59  1  0
 55 56  1  0
 55 54  1  0
 57 56  1  0
 57 64  1  0
 57 58  1  0
 59 53  1  0
 59 58  1  0
 60 53  2  0
 61 62  2  0
 62 81  1  0
 63 62  1  0
 63 66  1  0
 64 61  1  0
 64 65  1  0
 65 63  2  0
 66 67  1  0
 67 68  2  0
 69 72  1  0
 69 68  1  0
 70 69  2  0
 71 70  1  0
 71 66  2  0
 72 73  1  0
 73 74  1  0
 74 75  2  0
 76 75  1  0
 76 80  1  0
 77 76  2  0
 78 73  2  0
 78 77  1  0
 79 78  1  0
 81 82  1  0
 82 85  1  0
 82 84  1  0
 83 81  2  0
 86 87  1  0
 86 61  1  0
 88 86  1  0
M  ISO  4   6 101  10 101  52 100  53 100
M  END
>  <TORSDO>  (83) 
F 18

>  <SCORE>  (83) 
-16.131

>  <name>  (83) 
83

>  <ligand_id>  (83) 
83

>  <original_smiles>  (83) 
[H]c1c([H])c([H])c2c(c1[H])C([H])([H])C([H])([H])C([H])([H])C2([H])N([H])C(=O)C1([H])N(C(=O)C([H])(N([H])C(=O)C([H])(N([H])C([H])([H])[H])C([H])([H])[H])C(C([H])([H])[H])(C([H])([H])[H])C([H])([H])[H])C([H])([H])c2c([H])c(Oc3c([H])c(C([H])([H])[H])c(C([H])([H])C([H])([H])C(=O)N4C([H])([H])C([H])([H])C([H])([H])C([H])(n5nc(-c6c([H])c([H])c(Oc7c([H])c([H])c(F)c([H])c7F)c([H])c6[H])c(C(=O)N([H])[H])c5N([H])[H])C4([H])[H])c(C([H])([H])[H])c3C([H])([H])[H])c([H])c([H])c2C1([H])[H]

>  <smiles>  (83) 
[H]c1c([H])c([H])c2c(c1[H])C([H])([H])C([H])([H])C([H])([H])C2([H])N([H])C(=O)C1([H])N(C(=O)C([H])(N([H])C(=O)C([H])(N([H])C([H])([H])[H])C([H])([H])[H])C(C([H])([H])[H])(C([H])([H])[H])C([H])([H])[H])C([H])([H])c2c([H])c(Oc3c([H])c(C([H])([H])[H])c(C([H])([H])C([H])([H])C(=O)N4C([H])([H])C([H])([H])C([H])([H])C([H])(n5nc(-c6c([H])c([H])c(Oc7c([H])c([H])c(F)c([H])c7F)c([H])c6[H])c(C(=O)N([H])[H])c5N([H])[H])C4([H])[H])c(C([H])([H])[H])c3C([H])([H])[H])c([H])c([H])c2C1([H])[H]

$$$$
84:0:0
     RDKit          3D

 99107  0  0  1  0  0  0  0  0999 V2000
  -30.1110  -21.7830   19.7580 C   0  0  0  0  0  3  0  0  0  0  0  0
  -29.0680  -22.7550   20.2280 N   0  0  0  0  0  4  0  0  0  0  0  0
  -28.2510  -22.6120   19.6580 H   0  0  0  0  0  0  0  0  0  0  0  0
  -28.8060  -22.5060   21.1690 H   0  0  0  0  0  0  0  0  0  0  0  0
  -29.4240  -24.2240   20.2220 C   0  0  0  0  0  2  0  0  0  0  0  0
  -28.1810  -25.1550   20.0560 C   0  0  0  0  0  2  0  0  0  0  0  0
  -28.3720  -26.5950   20.2100 O   0  0  0  0  0  0  0  0  0  0  0  0
  -24.5890  -31.8950   23.2500 C   0  0  0  0  0  0  0  0  0  0  0  0
  -27.2240  -27.3860   20.1830 C   0  0  0  0  0  0  0  0  0  0  0  0
  -23.3900  -30.4990   21.6050 C   0  0  0  0  0  3  0  0  0  0  0  0
  -24.8420  -28.9540   20.1890 C   0  0  0  0  0  0  0  0  0  0  0  0
  -25.9290  -30.8260   21.4320 C   0  0  0  0  0  2  0  0  0  0  0  0
  -26.0090  -29.4560   20.7810 C   0  0  0  0  0  0  0  0  0  0  0  0
  -27.2020  -28.6830   20.7690 C   0  0  0  0  0  3  0  0  0  0  0  0
  -26.0280  -26.9240   19.5800 C   0  0  0  0  0  3  0  0  0  0  0  0
  -24.8510  -27.6890   19.5860 C   0  0  0  0  0  3  0  0  0  0  0  0
  -23.6050  -29.8220   20.2280 C   0  0  0  0  0  2  0  0  0  0  0  0
  -24.6540  -31.0900   22.1510 N   0  0  0  0  0  0  0  0  0  0  0  0
  -23.5050  -32.1740   23.7800 O   0  0  0  0  0  0  0  0  0  0  0  0
  -22.7230  -29.4820   22.5610 C   0  0  0  0  0  0  0  0  0  0  0  0
  -21.3970  -29.3100   22.4280 N   0  0  0  0  0  0  0  0  0  0  0  0
  -23.3980  -28.8510   23.3780 O   0  0  0  0  0  0  0  0  0  0  0  0
  -20.9140  -29.8710   21.7410 H   0  0  0  0  0  0  0  0  0  0  0  0
  -18.0090  -28.1500   22.9290 C   0  0  0  0  0  0  0  0  0  0  0  0
  -20.5710  -28.3770   23.1930 C   0  0  0  0  0  3  0  0  0  0  0  0
  -20.6550  -26.9490   22.6100 C   0  0  0  0  0  2  0  0  0  0  0  0
  -19.5460  -26.6440   21.5960 C   0  0  0  0  0  2  0  0  0  0  0  0
  -18.1680  -26.8020   22.2440 C   0  0  0  0  0  2  0  0  0  0  0  0
  -19.1380  -28.8960   23.3600 C   0  0  0  0  0  0  0  0  0  0  0  0
  -18.9360  -30.1580   23.9590 C   0  0  0  0  0  3  0  0  0  0  0  0
  -17.6390  -30.6740   24.1310 C   0  0  0  0  0  3  0  0  0  0  0  0
  -16.5240  -29.9250   23.7160 C   0  0  0  0  0  3  0  0  0  0  0  0
  -16.7100  -28.6650   23.1200 C   0  0  0  0  0  3  0  0  0  0  0  0
  -25.8740  -32.5220   23.8780 C   0  0  0  0  0  3  0  0  0  0  0  0
  -26.3760  -31.7530   25.1610 C   0  0  1  0  0  0  0  0  0  0  0  0
  -25.2750  -31.5260   26.2230 C   0  0  0  0  0  1  0  0  0  0  0  0
  -26.9530  -30.3690   24.7810 C   0  0  0  0  0  1  0  0  0  0  0  0
  -27.5260  -32.5450   25.8270 C   0  0  0  0  0  1  0  0  0  0  0  0
  -25.5690  -33.9220   24.2010 N   0  0  0  0  0  0  0  0  0  0  0  0
  -25.9050  -34.9710   23.4380 C   0  0  0  0  0  0  0  0  0  0  0  0
  -26.5750  -34.8610   22.4060 O   0  0  0  0  0  0  0  0  0  0  0  0
  -24.9780  -34.0820   25.0030 H   0  0  0  0  0  0  0  0  0  0  0  0
  -24.1830  -36.7670   23.0740 C   0  0  0  0  0  1  0  0  0  0  0  0
  -25.4220  -36.3620   23.8890 C   0  0  0  0  0  3  0  0  0  0  0  0
  -27.5570  -37.2430   24.7190 C   0  0  0  0  0  1  0  0  0  0  0  0
  -26.4580  -37.4120   23.7730 N   0  0  0  0  0  0  0  0  0  0  0  0
  -26.0550  -38.3340   23.9180 H   0  0  0  0  0  0  0  0  0  0  0  0
  -29.9760  -21.4540   18.2450 C   0  0  0  0  0  2  0  0  0  0  0  0
  -29.6210  -24.4910   15.9430 C   0  0  0  0  0  3  0  0  0  0  0  0
  -30.9440  -24.7220   15.5380 C   0  0  0  0  0  3  0  0  0  0  0  0
  -29.3320  -23.4260   16.8120 C   0  0  0  0  0  3  0  0  0  0  0  0
  -31.9860  -23.8860   15.9890 C   0  0  0  0  0  0  0  0  0  0  0  0
  -30.3620  -22.5910   17.2980 C   0  0  0  0  0  0  0  0  0  0  0  0
  -31.7060  -22.8110   16.8770 C   0  0  0  0  0  0  0  0  0  0  0  0
  -33.3970  -24.1730   15.4950 C   0  0  0  0  0  1  0  0  0  0  0  0
  -33.0710  -20.6850   16.4660 C   0  0  0  0  0  1  0  0  0  0  0  0
  -32.8450  -21.9090   17.3650 C   0  0  0  0  0  2  0  0  0  0  0  0
  -30.2360  -20.4640   20.6110 C   0  0  0  0  0  2  0  0  0  0  0  0
  -29.0730  -19.4220   20.5830 C   0  0  0  0  0  2  0  0  0  0  0  0
  -29.3860  -17.9460   20.1420 C   0  0  0  0  0  2  0  0  0  0  0  0
  -30.2060  -17.0150   21.0980 C   0  0  0  0  0  2  0  0  0  0  0  0
  -30.6460  -14.5570   20.4640 C   0  0  0  0  0  0  0  0  0  0  0  0
  -30.4170  -12.3730   19.3170 C   0  0  0  0  0  2  0  0  0  0  0  0
  -29.4840  -12.5440   18.1000 C   0  0  0  0  0  2  0  0  0  0  0  0
  -28.0040  -12.3900   18.5090 C   0  0  0  0  0  2  0  0  0  0  0  0
  -27.6410  -13.2350   19.7600 C   0  0  0  0  0  3  0  0  0  0  0  0
  -28.6820  -13.0290   20.8830 C   0  0  0  0  0  2  0  0  0  0  0  0
  -30.0080  -13.3580   20.3330 N   0  0  0  0  0  0  0  0  0  0  0  0
  -31.7880  -14.7500   20.0350 O   0  0  0  0  0  0  0  0  0  0  0  0
  -29.8880  -15.5690   20.9470 N   0  0  0  0  0  0  0  0  0  0  0  0
  -28.9740  -15.2830   21.2680 H   0  0  0  0  0  0  0  0  0  0  0  0
  -25.2320  -13.8390   20.4270 C   0  0  0  0  0  0  0  0  0  0  0  0
  -24.1620  -13.0660   20.7920 C   0  0  0  0  0  0  0  0  0  0  0  0
  -24.6320  -11.7160   20.7910 C   0  0  0  0  0  0  0  0  0  0  0  0
  -26.2830  -12.9590   20.2240 N   0  0  0  0  0  0  0  0  0  0  0  0
  -25.9280  -11.6790   20.5050 N   0  0  0  0  0  0  0  0  0  0  0  0
  -23.9090  -10.4540   20.9880 C   0  0  0  0  0  0  0  0  0  0  0  0
  -24.3320   -9.5050   21.9440 C   0  0  0  0  0  3  0  0  0  0  0  0
  -23.6110   -8.3060   22.1310 C   0  0  0  0  0  3  0  0  0  0  0  0
  -22.4540   -8.0450   21.3590 C   0  0  0  0  0  0  0  0  0  0  0  0
  -22.0490   -8.9840   20.3930 C   0  0  0  0  0  3  0  0  0  0  0  0
  -22.7710  -10.1730   20.2050 C   0  0  0  0  0  3  0  0  0  0  0  0
  -21.7060   -6.8970   21.4550 O   0  0  0  0  0  0  0  0  0  0  0  0
  -21.6430   -6.1710   22.6160 C   0  0  0  0  0  0  0  0  0  0  0  0
  -21.1830   -6.7380   23.8260 C   0  0  0  0  0  3  0  0  0  0  0  0
  -21.0690   -5.9370   24.9800 C   0  0  0  0  0  3  0  0  0  0  0  0
  -21.4050   -4.5710   24.9250 C   0  0  0  0  0  0  0  0  0  0  0  0
  -21.8550   -4.0040   23.7200 C   0  0  0  0  0  3  0  0  0  0  0  0
  -21.9710   -4.8030   22.5690 C   0  0  0  0  0  0  0  0  0  0  0  0
  -22.3880   -4.2460   21.4050 F   0  0  0  0  0  0  0  0  0  0  0  0
  -21.2860   -3.7980   26.0300 F   0  0  0  0  0  0  0  0  0  0  0  0
  -22.7570  -13.5400   21.0310 C   0  0  0  0  0  0  0  0  0  0  0  0
  -22.0170  -12.8560   21.8960 N   0  0  0  0  0  0  0  0  0  0  0  0
  -22.3240  -14.5540   20.4840 O   0  0  0  0  0  0  0  0  0  0  0  0
  -22.3810  -12.0400   22.3640 H   0  0  0  0  0  0  0  0  0  0  0  0
  -21.0720  -13.1570   22.0910 H   0  0  0  0  0  0  0  0  0  0  0  0
  -25.3900  -15.2070   20.2300 N   0  0  0  0  0  0  0  0  0  0  0  0
  -24.6110  -15.8520   20.3200 H   0  0  0  0  0  0  0  0  0  0  0  0
  -26.2380  -15.6490   19.8960 H   0  0  0  0  0  0  0  0  0  0  0  0
  1 48  1  0
  1  2  1  0
  1 58  1  0
  2  4  1  0
  3  2  1  0
  5  2  1  0
  6  7  1  0
  6  5  1  0
  8 19  2  0
  9  7  1  0
  9 14  1  0
 10 18  1  0
 10 20  1  0
 11 17  1  0
 11 13  1  0
 12 18  1  0
 13 12  1  0
 14 13  2  0
 15 16  1  0
 15  9  2  0
 16 11  2  0
 17 10  1  0
 18  8  1  0
 20 22  2  0
 21 20  1  0
 23 21  1  0
 24 33  2  0
 24 29  1  0
 25 21  1  0
 25 29  1  0
 26 25  1  0
 27 28  1  0
 27 26  1  0
 28 24  1  0
 29 30  2  0
 30 31  1  0
 32 31  2  0
 33 32  1  0
 34  8  1  0
 34 39  1  0
 34 35  1  0
 35 38  1  1
 35 36  1  0
 37 35  1  0
 39 42  1  0
 40 44  1  0
 40 39  1  0
 41 40  2  0
 44 43  1  0
 46 44  1  0
 46 47  1  0
 46 45  1  0
 49 51  1  0
 50 49  2  0
 50 52  1  0
 51 53  2  0
 52 54  2  0
 53 48  1  0
 54 53  1  0
 54 57  1  0
 55 52  1  0
 56 57  1  0
 59 58  1  0
 60 59  1  0
 60 61  1  0
 62 70  1  0
 63 68  1  0
 64 65  1  0
 64 63  1  0
 66 65  1  0
 66 75  1  0
 66 67  1  0
 68 62  1  0
 68 67  1  0
 69 62  2  0
 70 61  1  0
 70 71  1  0
 72 73  2  0
 73 92  1  0
 74 73  1  0
 74 77  1  0
 75 72  1  0
 75 76  1  0
 76 74  2  0
 77 78  1  0
 78 79  2  0
 80 83  1  0
 80 79  1  0
 81 80  2  0
 82 81  1  0
 82 77  2  0
 83 84  1  0
 84 85  1  0
 85 86  2  0
 87 86  1  0
 87 91  1  0
 88 87  2  0
 89 84  2  0
 89 88  1  0
 90 89  1  0
 92 93  1  0
 93 96  1  0
 93 95  1  0
 94 92  2  0
 97 98  1  0
 97 72  1  0
 99 97  1  0
M  ISO  4   6 101   7 101  62 100  70 100
M  END
>  <TORSDO>  (84) 
F 26

>  <SCORE>  (84) 
-11.868

>  <name>  (84) 
84

>  <ligand_id>  (84) 
84

>  <original_smiles>  (84) 
[H]c1c([H])c([H])c2c(c1[H])C([H])([H])C([H])([H])C([H])([H])C2([H])N([H])C(=O)C1([H])N(C(=O)C([H])(N([H])C(=O)C([H])(N([H])C([H])([H])[H])C([H])([H])[H])C(C([H])([H])[H])(C([H])([H])[H])C([H])([H])[H])C([H])([H])c2c([H])c(OC([H])([H])C([H])([H])[N+]([H])([H])C([H])(C([H])([H])c3c([H])c([H])c([H])c(C([H])([H])[H])c3C([H])([H])C([H])([H])[H])C([H])([H])C([H])([H])C([H])([H])C([H])([H])N([H])C(=O)N3C([H])([H])C([H])([H])C([H])([H])C([H])(n4nc(-c5c([H])c([H])c(Oc6c([H])c([H])c(F)c([H])c6F)c([H])c5[H])c(C(=O)N([H])[H])c4N([H])[H])C3([H])[H])c([H])c([H])c2C1([H])[H]

>  <smiles>  (84) 
[H]c1c([H])c([H])c2c(c1[H])C([H])([H])C([H])([H])C([H])([H])C2([H])N([H])C(=O)C1([H])N(C(=O)C([H])(N([H])C(=O)C([H])(N([H])C([H])([H])[H])C([H])([H])[H])C(C([H])([H])[H])(C([H])([H])[H])C([H])([H])[H])C([H])([H])c2c([H])c(OC([H])([H])C([H])([H])[N+]([H])([H])C([H])(C([H])([H])c3c([H])c([H])c([H])c(C([H])([H])[H])c3C([H])([H])C([H])([H])[H])C([H])([H])C([H])([H])C([H])([H])C([H])([H])N([H])C(=O)N3C([H])([H])C([H])([H])C([H])([H])C([H])(n4nc(-c5c([H])c([H])c(Oc6c([H])c([H])c(F)c([H])c6F)c([H])c5[H])c(C(=O)N([H])[H])c4N([H])[H])C3([H])[H])c([H])c([H])c2C1([H])[H]

$$$$
85:0:0
     RDKit          3D

 88 96  0  0  1  0  0  0  0  0999 V2000
  -27.6180  -21.0730   20.7730 C   0  0  0  0  0  3  0  0  0  0  0  0
  -26.7690  -22.1770   21.0940 C   0  0  0  0  0  3  0  0  0  0  0  0
  -28.8790  -21.1920   20.1560 C   0  0  0  0  0  0  0  0  0  0  0  0
  -29.0760  -22.7830   19.8990 C   0  0  0  0  0  0  0  0  0  0  0  0
  -27.0100  -23.5690   20.8570 C   0  0  0  0  0  0  0  0  0  0  0  0
  -28.1670  -24.0920   20.2070 C   0  0  0  0  0  0  0  0  0  0  0  0
  -30.3920  -23.1160   19.2280 C   0  0  0  0  0  1  0  0  0  0  0  0
  -26.0610  -24.4300   21.3230 O   0  0  0  0  0  0  0  0  0  0  0  0
  -25.3350  -23.9900   21.7520 H   0  0  0  0  0  0  0  0  0  0  0  0
  -28.2670  -25.7170   20.0550 O   0  0  0  0  0  0  0  0  0  0  0  0
  -24.7020  -31.9280   23.2110 C   0  0  0  0  0  0  0  0  0  0  0  0
  -27.2830  -26.9380   20.0840 C   0  0  0  0  0  0  0  0  0  0  0  0
  -23.5310  -30.5610   21.5380 C   0  0  0  0  0  3  0  0  0  0  0  0
  -24.9980  -28.9690   20.0790 C   0  0  0  0  0  0  0  0  0  0  0  0
  -26.1090  -30.7260   21.4250 C   0  0  0  0  0  2  0  0  0  0  0  0
  -26.1880  -29.3100   20.7340 C   0  0  0  0  0  0  0  0  0  0  0  0
  -27.3110  -28.3210   20.7100 C   0  0  0  0  0  3  0  0  0  0  0  0
  -26.0680  -26.8350   19.3550 C   0  0  0  0  0  3  0  0  0  0  0  0
  -24.9780  -27.7590   19.3660 C   0  0  0  0  0  3  0  0  0  0  0  0
  -23.7790  -29.9050   20.1490 C   0  0  0  0  0  2  0  0  0  0  0  0
  -24.8050  -31.1050   22.1110 N   0  0  0  0  0  0  0  0  0  0  0  0
  -23.6060  -32.2020   23.7290 O   0  0  0  0  0  0  0  0  0  0  0  0
  -22.8250  -29.5500   22.4820 C   0  0  0  0  0  0  0  0  0  0  0  0
  -21.4960  -29.3720   22.3420 N   0  0  0  0  0  0  0  0  0  0  0  0
  -23.4850  -28.9260   23.3160 O   0  0  0  0  0  0  0  0  0  0  0  0
  -21.0120  -29.9270   21.6510 H   0  0  0  0  0  0  0  0  0  0  0  0
  -18.1240  -28.1100   22.8370 C   0  0  0  0  0  0  0  0  0  0  0  0
  -20.6830  -28.4030   23.0890 C   0  0  0  0  0  3  0  0  0  0  0  0
  -20.7950  -26.9900   22.4710 C   0  0  0  0  0  2  0  0  0  0  0  0
  -19.6910  -26.6860   21.4530 C   0  0  0  0  0  2  0  0  0  0  0  0
  -18.3130  -26.7890   22.1110 C   0  0  0  0  0  2  0  0  0  0  0  0
  -19.2350  -28.8760   23.2820 C   0  0  0  0  0  0  0  0  0  0  0  0
  -19.0000  -30.1090   23.9270 C   0  0  0  0  0  3  0  0  0  0  0  0
  -17.6890  -30.5790   24.1290 C   0  0  0  0  0  3  0  0  0  0  0  0
  -16.5930  -29.8120   23.6960 C   0  0  0  0  0  3  0  0  0  0  0  0
  -16.8120  -28.5790   23.0560 C   0  0  0  0  0  3  0  0  0  0  0  0
  -25.9580  -32.5770   23.8680 C   0  0  0  0  0  3  0  0  0  0  0  0
  -26.4330  -31.8230   25.1730 C   0  0  1  0  0  0  0  0  0  0  0  0
  -25.3070  -31.6030   26.2120 C   0  0  0  0  0  1  0  0  0  0  0  0
  -27.0230  -30.4360   24.8310 C   0  0  0  0  0  1  0  0  0  0  0  0
  -27.5660  -32.6220   25.8590 C   0  0  0  0  0  1  0  0  0  0  0  0
  -25.6340  -33.9810   24.1950 N   0  0  0  0  0  0  0  0  0  0  0  0
  -25.9560  -35.0430   23.4440 C   0  0  0  0  0  0  0  0  0  0  0  0
  -26.6130  -34.9450   22.4050 O   0  0  0  0  0  0  0  0  0  0  0  0
  -25.0460  -34.1290   25.0010 H   0  0  0  0  0  0  0  0  0  0  0  0
  -24.2130  -36.8390   23.1430 C   0  0  0  0  0  1  0  0  0  0  0  0
  -25.4790  -36.4330   23.9160 C   0  0  0  0  0  3  0  0  0  0  0  0
  -27.6240  -37.3410   24.6990 C   0  0  0  0  0  1  0  0  0  0  0  0
  -26.5030  -37.4910   23.7740 N   0  0  0  0  0  0  0  0  0  0  0  0
  -26.0950  -38.4110   23.9180 H   0  0  0  0  0  0  0  0  0  0  0  0
  -29.8020  -19.5720   19.9000 C   0  0  0  0  0  3  0  0  0  0  0  0
  -29.5910  -17.6380   20.1260 C   0  0  0  0  0  3  0  0  0  0  0  0
  -30.4500  -15.9730   19.8510 C   0  0  0  0  0  0  0  0  0  0  0  0
  -30.5650  -13.4250   18.9920 C   0  0  0  0  0  2  0  0  0  0  0  0
  -29.6000  -13.0510   17.8270 C   0  0  0  0  0  2  0  0  0  0  0  0
  -28.2090  -12.6710   18.3550 C   0  0  0  0  0  2  0  0  0  0  0  0
  -27.7590  -13.6370   19.4750 C   0  0  0  0  0  3  0  0  0  0  0  0
  -28.8540  -13.9290   20.5260 C   0  0  0  0  0  2  0  0  0  0  0  0
  -29.9910  -14.5770   19.8290 N   0  0  0  0  0  0  0  0  0  0  0  0
  -31.6580  -15.9410   19.5380 O   0  0  0  0  0  0  0  0  0  0  0  0
  -25.4580  -14.1150   20.4340 C   0  0  0  0  0  0  0  0  0  0  0  0
  -24.4310  -13.3130   20.8450 C   0  0  0  0  0  0  0  0  0  0  0  0
  -24.9050  -11.9690   20.7230 C   0  0  0  0  0  0  0  0  0  0  0  0
  -26.4850  -13.2640   20.0740 N   0  0  0  0  0  0  0  0  0  0  0  0
  -26.1720  -11.9620   20.3150 N   0  0  0  0  0  0  0  0  0  0  0  0
  -24.1980  -10.6950   20.9120 C   0  0  0  0  0  0  0  0  0  0  0  0
  -24.6350   -9.7370   21.8540 C   0  0  0  0  0  3  0  0  0  0  0  0
  -23.9230   -8.5320   22.0340 C   0  0  0  0  0  3  0  0  0  0  0  0
  -22.7580   -8.2740   21.2730 C   0  0  0  0  0  0  0  0  0  0  0  0
  -22.3380   -9.2200   20.3210 C   0  0  0  0  0  3  0  0  0  0  0  0
  -23.0520  -10.4170   20.1400 C   0  0  0  0  0  3  0  0  0  0  0  0
  -22.0170   -7.1190   21.3610 O   0  0  0  0  0  0  0  0  0  0  0  0
  -21.8860   -6.4360   22.5450 C   0  0  0  0  0  0  0  0  0  0  0  0
  -21.3010   -7.0270   23.6850 C   0  0  0  0  0  3  0  0  0  0  0  0
  -21.1230   -6.2680   24.8590 C   0  0  0  0  0  3  0  0  0  0  0  0
  -21.5210   -4.9180   24.8910 C   0  0  0  0  0  0  0  0  0  0  0  0
  -22.0990   -4.3260   23.7540 C   0  0  0  0  0  3  0  0  0  0  0  0
  -22.2780   -5.0830   22.5830 C   0  0  0  0  0  0  0  0  0  0  0  0
  -22.8150   -4.5020   21.4840 F   0  0  0  0  0  0  0  0  0  0  0  0
  -21.3440   -4.1850   26.0160 F   0  0  0  0  0  0  0  0  0  0  0  0
  -23.0550  -13.7680   21.2290 C   0  0  0  0  0  0  0  0  0  0  0  0
  -22.3960  -13.0400   22.1230 N   0  0  0  0  0  0  0  0  0  0  0  0
  -22.5750  -14.8050   20.7720 O   0  0  0  0  0  0  0  0  0  0  0  0
  -22.8000  -12.2020   22.5120 H   0  0  0  0  0  0  0  0  0  0  0  0
  -21.4750  -13.3260   22.4230 H   0  0  0  0  0  0  0  0  0  0  0  0
  -25.5980  -15.4940   20.3060 N   0  0  0  0  0  0  0  0  0  0  0  0
  -24.8390  -16.1350   20.5050 H   0  0  0  0  0  0  0  0  0  0  0  0
  -26.4210  -15.9560   19.9400 H   0  0  0  0  0  0  0  0  0  0  0  0
  1  2  1  0
  3  1  2  0
  4  3  1  0
  4  6  2  0
  5  2  2  0
  5  8  1  0
  6  5  1  0
  7  4  1  0
  8  9  1  0
 10 12  1  0
 10  6  1  0
 11 22  2  0
 12 17  1  0
 13 21  1  0
 13 23  1  0
 14 20  1  0
 14 16  1  0
 15 21  1  0
 16 15  1  0
 17 16  2  0
 18 19  1  0
 18 12  2  0
 19 14  2  0
 20 13  1  0
 21 11  1  0
 23 25  2  0
 24 23  1  0
 26 24  1  0
 27 36  2  0
 27 32  1  0
 28 24  1  0
 28 32  1  0
 29 28  1  0
 30 31  1  0
 30 29  1  0
 31 27  1  0
 32 33  2  0
 33 34  1  0
 35 34  2  0
 36 35  1  0
 37 11  1  0
 37 42  1  0
 37 38  1  0
 38 41  1  1
 38 39  1  0
 40 38  1  0
 42 45  1  0
 43 47  1  0
 43 42  1  0
 44 43  2  0
 47 46  1  0
 49 47  1  0
 49 50  1  0
 49 48  1  0
 51 52  2  0
 51  3  1  0
 53 52  1  0
 54 59  1  0
 55 56  1  0
 55 54  1  0
 57 56  1  0
 57 64  1  0
 57 58  1  0
 59 53  1  0
 59 58  1  0
 60 53  2  0
 61 62  2  0
 62 81  1  0
 63 62  1  0
 63 66  1  0
 64 65  1  0
 64 61  1  0
 65 63  2  0
 66 67  1  0
 67 68  2  0
 69 72  1  0
 69 68  1  0
 70 69  2  0
 71 70  1  0
 71 66  2  0
 72 73  1  0
 73 78  2  0
 73 74  1  0
 74 75  2  0
 75 76  1  0
 76 80  1  0
 77 76  2  0
 78 77  1  0
 79 78  1  0
 81 82  1  0
 82 85  1  0
 82 84  1  0
 83 81  2  0
 86 61  1  0
 86 87  1  0
 88 86  1  0
M  ISO  4   6 101  10 101  52 100  53 100
M  END
>  <TORSDO>  (85) 
F 19

>  <SCORE>  (85) 
-14.460

>  <name>  (85) 
85

>  <ligand_id>  (85) 
85

>  <original_smiles>  (85) 
[H]Oc1c([H])c([H])c(C([H])([H])C([H])([H])C(=O)N2C([H])([H])C([H])([H])C([H])([H])C([H])(n3nc(-c4c([H])c([H])c(Oc5c([H])c([H])c(F)c([H])c5F)c([H])c4[H])c(C(=O)N([H])[H])c3N([H])[H])C2([H])[H])c(C([H])([H])[H])c1Oc1c([H])c([H])c2c(c1[H])C([H])([H])N(C(=O)C([H])(N([H])C(=O)C([H])(N([H])C([H])([H])[H])C([H])([H])[H])C(C([H])([H])[H])(C([H])([H])[H])C([H])([H])[H])C([H])(C(=O)N([H])C1([H])c3c([H])c([H])c([H])c([H])c3C([H])([H])C([H])([H])C1([H])[H])C2([H])[H]

>  <smiles>  (85) 
[H]Oc1c([H])c([H])c(C([H])([H])C([H])([H])C(=O)N2C([H])([H])C([H])([H])C([H])([H])C([H])(n3nc(-c4c([H])c([H])c(Oc5c([H])c([H])c(F)c([H])c5F)c([H])c4[H])c(C(=O)N([H])[H])c3N([H])[H])C2([H])[H])c(C([H])([H])[H])c1Oc1c([H])c([H])c2c(c1[H])C([H])([H])N(C(=O)C([H])(N([H])C(=O)C([H])(N([H])C([H])([H])[H])C([H])([H])[H])C(C([H])([H])[H])(C([H])([H])[H])C([H])([H])[H])C([H])(C(=O)N([H])C1([H])c3c([H])c([H])c([H])c([H])c3C([H])([H])C([H])([H])C1([H])[H])C2([H])[H]

$$$$
86:0:0
     RDKit          3D

 94103  0  0  1  0  0  0  0  0999 V2000
  -28.3520  -22.9550   22.0210 C   0  0  0  0  0  3  0  0  0  0  0  0
  -27.9490  -24.0920   22.7400 C   0  0  0  0  0  3  0  0  0  0  0  0
  -28.7290  -24.3390   20.0590 C   0  0  0  0  0  3  0  0  0  0  0  0
  -28.7320  -23.0530   20.6690 C   0  0  0  0  0  0  0  0  0  0  0  0
  -27.9410  -25.3740   22.1360 C   0  0  0  0  0  0  0  0  0  0  0  0
  -28.3480  -25.5030   20.7790 C   0  0  0  0  0  0  0  0  0  0  0  0
  -26.6840  -26.3520   23.9230 C   0  0  0  0  0  1  0  0  0  0  0  0
  -27.5910  -26.5080   22.8370 O   0  0  0  0  0  0  0  0  0  0  0  0
  -28.4120  -26.7420   20.1570 O   0  0  0  0  0  0  0  0  0  0  0  0
  -24.6060  -31.9150   23.2290 C   0  0  0  0  0  0  0  0  0  0  0  0
  -27.2690  -27.5110   20.1280 C   0  0  0  0  0  0  0  0  0  0  0  0
  -23.4090  -30.5200   21.5740 C   0  0  0  0  0  3  0  0  0  0  0  0
  -24.8710  -29.0040   20.1340 C   0  0  0  0  0  0  0  0  0  0  0  0
  -25.9320  -30.8980   21.3800 C   0  0  0  0  0  2  0  0  0  0  0  0
  -26.0260  -29.5330   20.7270 C   0  0  0  0  0  0  0  0  0  0  0  0
  -27.2320  -28.7950   20.7190 C   0  0  0  0  0  3  0  0  0  0  0  0
  -26.1060  -27.0020   19.5180 C   0  0  0  0  0  3  0  0  0  0  0  0
  -24.9060  -27.7380   19.5230 C   0  0  0  0  0  3  0  0  0  0  0  0
  -23.6240  -29.8550   20.1870 C   0  0  0  0  0  2  0  0  0  0  0  0
  -24.6670  -31.1240   22.1200 N   0  0  0  0  0  0  0  0  0  0  0  0
  -23.5220  -32.1730   23.7730 O   0  0  0  0  0  0  0  0  0  0  0  0
  -22.7640  -29.4860   22.5240 C   0  0  0  0  0  0  0  0  0  0  0  0
  -21.4400  -29.2980   22.3940 N   0  0  0  0  0  0  0  0  0  0  0  0
  -23.4490  -28.8560   23.3340 O   0  0  0  0  0  0  0  0  0  0  0  0
  -20.9460  -29.8600   21.7150 H   0  0  0  0  0  0  0  0  0  0  0  0
  -18.0740  -28.0760   22.8700 C   0  0  0  0  0  0  0  0  0  0  0  0
  -20.6270  -28.3500   23.1580 C   0  0  0  0  0  3  0  0  0  0  0  0
  -20.7420  -26.9220   22.5780 C   0  0  0  0  0  2  0  0  0  0  0  0
  -19.6510  -26.5960   21.5530 C   0  0  0  0  0  2  0  0  0  0  0  0
  -18.2620  -26.7320   22.1860 C   0  0  0  0  0  2  0  0  0  0  0  0
  -19.1840  -28.8420   23.3110 C   0  0  0  0  0  0  0  0  0  0  0  0
  -18.9560  -30.0990   23.9110 C   0  0  0  0  0  3  0  0  0  0  0  0
  -17.6470  -30.5930   24.0710 C   0  0  0  0  0  3  0  0  0  0  0  0
  -16.5500  -29.8240   23.6460 C   0  0  0  0  0  3  0  0  0  0  0  0
  -16.7640  -28.5670   23.0530 C   0  0  0  0  0  3  0  0  0  0  0  0
  -25.8890  -32.5480   23.8550 C   0  0  0  0  0  3  0  0  0  0  0  0
  -26.4050  -31.7760   25.1300 C   0  0  1  0  0  0  0  0  0  0  0  0
  -25.3110  -31.5350   26.1950 C   0  0  0  0  0  1  0  0  0  0  0  0
  -26.9850  -30.3990   24.7320 C   0  0  0  0  0  1  0  0  0  0  0  0
  -27.5550  -32.5660   25.7950 C   0  0  0  0  0  1  0  0  0  0  0  0
  -25.5750  -33.9440   24.1830 N   0  0  0  0  0  0  0  0  0  0  0  0
  -25.9120  -34.9990   23.4280 C   0  0  0  0  0  0  0  0  0  0  0  0
  -26.5900  -34.8970   22.4010 O   0  0  0  0  0  0  0  0  0  0  0  0
  -24.9710  -34.0970   24.9790 H   0  0  0  0  0  0  0  0  0  0  0  0
  -24.1820  -36.7890   23.0590 C   0  0  0  0  0  1  0  0  0  0  0  0
  -25.4170  -36.3860   23.8820 C   0  0  0  0  0  3  0  0  0  0  0  0
  -27.5440  -37.2720   24.7310 C   0  0  0  0  0  1  0  0  0  0  0  0
  -26.4490  -37.4410   23.7790 N   0  0  0  0  0  0  0  0  0  0  0  0
  -26.0390  -38.3590   23.9280 H   0  0  0  0  0  0  0  0  0  0  0  0
  -29.2560  -21.8200   19.9170 C   0  0  0  0  0  2  0  0  0  0  0  0
  -28.6280  -20.4290   20.2620 C   0  0  0  0  0  2  0  0  0  0  0  0
  -30.5240  -18.9790   19.2380 C   0  0  0  0  0  2  0  0  0  0  0  0
  -30.9560  -17.5110   19.3770 C   0  0  0  0  0  2  0  0  0  0  0  0
  -29.1460  -17.9250   20.9100 C   0  0  0  0  0  2  0  0  0  0  0  0
  -29.6820  -19.3050   20.4770 C   0  0  0  0  0  3  0  0  0  0  0  0
  -30.3420  -16.9760   20.6880 C   0  0  0  0  0  3  0  0  0  0  0  0
  -30.7050  -14.5200   20.2000 C   0  0  0  0  0  0  0  0  0  0  0  0
  -30.3770  -12.3670   19.0540 C   0  0  0  0  0  2  0  0  0  0  0  0
  -29.4110  -12.6000   17.8750 C   0  0  0  0  0  2  0  0  0  0  0  0
  -27.9450  -12.4750   18.3380 C   0  0  0  0  0  2  0  0  0  0  0  0
  -27.6470  -13.3010   19.6180 C   0  0  0  0  0  3  0  0  0  0  0  0
  -28.7230  -13.0510   20.6970 C   0  0  0  0  0  2  0  0  0  0  0  0
  -30.0350  -13.3440   20.0980 N   0  0  0  0  0  0  0  0  0  0  0  0
  -31.8430  -14.6810   19.7510 O   0  0  0  0  0  0  0  0  0  0  0  0
  -29.9640  -15.5530   20.6510 N   0  0  0  0  0  0  0  0  0  0  0  0
  -29.0460  -15.3160   20.9960 H   0  0  0  0  0  0  0  0  0  0  0  0
  -25.2670  -13.9270   20.3700 C   0  0  0  0  0  0  0  0  0  0  0  0
  -24.2040  -13.1630   20.7660 C   0  0  0  0  0  0  0  0  0  0  0  0
  -24.6570  -11.8080   20.7330 C   0  0  0  0  0  0  0  0  0  0  0  0
  -26.3030  -13.0380   20.1230 N   0  0  0  0  0  0  0  0  0  0  0  0
  -25.9400  -11.7600   20.3980 N   0  0  0  0  0  0  0  0  0  0  0  0
  -23.9300  -10.5510   20.9450 C   0  0  0  0  0  0  0  0  0  0  0  0
  -24.3730   -9.5890   21.8800 C   0  0  0  0  0  3  0  0  0  0  0  0
  -23.6450   -8.3950   22.0790 C   0  0  0  0  0  3  0  0  0  0  0  0
  -22.4610   -8.1560   21.3420 C   0  0  0  0  0  0  0  0  0  0  0  0
  -22.0380   -9.1050   20.3950 C   0  0  0  0  0  3  0  0  0  0  0  0
  -22.7650  -10.2900   20.1940 C   0  0  0  0  0  3  0  0  0  0  0  0
  -21.7060   -7.0130   21.4490 O   0  0  0  0  0  0  0  0  0  0  0  0
  -21.6620   -6.2860   22.6110 C   0  0  0  0  0  0  0  0  0  0  0  0
  -21.2370   -6.8550   23.8310 C   0  0  0  0  0  3  0  0  0  0  0  0
  -21.1410   -6.0530   24.9860 C   0  0  0  0  0  3  0  0  0  0  0  0
  -21.4620   -4.6830   24.9210 C   0  0  0  0  0  0  0  0  0  0  0  0
  -21.8810   -4.1140   23.7070 C   0  0  0  0  0  3  0  0  0  0  0  0
  -21.9780   -4.9130   22.5540 C   0  0  0  0  0  0  0  0  0  0  0  0
  -22.3620   -4.3550   21.3800 F   0  0  0  0  0  0  0  0  0  0  0  0
  -21.3630   -3.9110   26.0290 F   0  0  0  0  0  0  0  0  0  0  0  0
  -22.8140  -13.6480   21.0640 C   0  0  0  0  0  0  0  0  0  0  0  0
  -22.1030  -12.9620   21.9520 N   0  0  0  0  0  0  0  0  0  0  0  0
  -22.3710  -14.6720   20.5470 O   0  0  0  0  0  0  0  0  0  0  0  0
  -22.4760  -12.1350   22.3940 H   0  0  0  0  0  0  0  0  0  0  0  0
  -21.1730  -13.2710   22.1960 H   0  0  0  0  0  0  0  0  0  0  0  0
  -25.4330  -15.2960   20.1800 N   0  0  0  0  0  0  0  0  0  0  0  0
  -24.6670  -15.9500   20.2950 H   0  0  0  0  0  0  0  0  0  0  0  0
  -26.2720  -15.7310   19.8180 H   0  0  0  0  0  0  0  0  0  0  0  0
  1  2  1  0
  3  4  1  0
  3  6  2  0
  4  1  2  0
  5  2  2  0
  5  8  1  0
  6  5  1  0
  8  7  1  0
  9  6  1  0
 10 21  2  0
 11  9  1  0
 11 16  1  0
 12 20  1  0
 12 22  1  0
 13 19  1  0
 13 15  1  0
 14 20  1  0
 15 14  1  0
 16 15  2  0
 17 18  1  0
 17 11  2  0
 18 13  2  0
 19 12  1  0
 20 10  1  0
 22 24  2  0
 23 22  1  0
 25 23  1  0
 26 35  2  0
 26 31  1  0
 27 23  1  0
 27 31  1  0
 28 27  1  0
 29 30  1  0
 29 28  1  0
 30 26  1  0
 31 32  2  0
 32 33  1  0
 34 33  2  0
 35 34  1  0
 36 10  1  0
 36 41  1  0
 36 37  1  0
 37 40  1  1
 37 38  1  0
 39 37  1  0
 41 44  1  0
 42 46  1  0
 42 41  1  0
 43 42  2  0
 46 45  1  0
 48 46  1  0
 48 49  1  0
 48 47  1  0
 50 51  1  0
 50  4  1  0
 52 53  1  0
 52 55  1  0
 53 56  1  0
 55 51  1  0
 55 54  1  0
 56 65  1  0
 56 54  1  0
 57 65  1  0
 58 63  1  0
 59 60  1  0
 59 58  1  0
 61 60  1  0
 61 70  1  0
 61 62  1  0
 63 57  1  0
 63 62  1  0
 64 57  2  0
 65 66  1  0
 67 68  2  0
 68 87  1  0
 69 68  1  0
 69 72  1  0
 70 67  1  0
 70 71  1  0
 71 69  2  0
 72 73  1  0
 73 74  2  0
 75 78  1  0
 75 74  1  0
 76 75  2  0
 77 76  1  0
 77 72  2  0
 78 79  1  0
 79 80  1  0
 80 81  2  0
 82 81  1  0
 82 86  1  0
 83 82  2  0
 84 79  2  0
 84 83  1  0
 85 84  1  0
 87 88  1  0
 88 91  1  0
 88 90  1  0
 89 87  2  0
 92 93  1  0
 92 67  1  0
 94 92  1  0
M  ISO  4   6 101   9 101  57 100  65 100
M  END
>  <TORSDO>  (86) 
F 20

>  <SCORE>  (86) 
-13.590

>  <name>  (86) 
86

>  <ligand_id>  (86) 
86

>  <original_smiles>  (86) 
[H]c1c([H])c([H])c2c(c1[H])C([H])([H])C([H])([H])C([H])([H])C2([H])N([H])C(=O)C1([H])N(C(=O)C([H])(N([H])C(=O)C([H])(N([H])C([H])([H])[H])C([H])([H])[H])C(C([H])([H])[H])(C([H])([H])[H])C([H])([H])[H])C([H])([H])c2c([H])c(Oc3c([H])c(C([H])([H])C([H])([H])C4([H])C([H])([H])C([H])([H])C([H])(N([H])C(=O)N5C([H])([H])C([H])([H])C([H])([H])C([H])(n6nc(-c7c([H])c([H])c(Oc8c([H])c([H])c(F)c([H])c8F)c([H])c7[H])c(C(=O)N([H])[H])c6N([H])[H])C5([H])[H])C4([H])[H])c([H])c([H])c3OC([H])([H])[H])c([H])c([H])c2C1([H])[H]

>  <smiles>  (86) 
[H]c1c([H])c([H])c2c(c1[H])C([H])([H])C([H])([H])C([H])([H])C2([H])N([H])C(=O)C1([H])N(C(=O)C([H])(N([H])C(=O)C([H])(N([H])C([H])([H])[H])C([H])([H])[H])C(C([H])([H])[H])(C([H])([H])[H])C([H])([H])[H])C([H])([H])c2c([H])c(Oc3c([H])c(C([H])([H])C([H])([H])C4([H])C([H])([H])C([H])([H])C([H])(N([H])C(=O)N5C([H])([H])C([H])([H])C([H])([H])C([H])(n6nc(-c7c([H])c([H])c(Oc8c([H])c([H])c(F)c([H])c8F)c([H])c7[H])c(C(=O)N([H])[H])c6N([H])[H])C5([H])[H])C4([H])[H])c([H])c([H])c3OC([H])([H])[H])c([H])c([H])c2C1([H])[H]

$$$$
87:0:0
     RDKit          3D

 92100  0  0  1  0  0  0  0  0999 V2000
  -31.3580  -22.4830   19.4090 C   0  0  0  0  0  3  0  0  0  0  0  0
  -32.2590  -23.4240   18.8970 C   0  0  0  0  0  3  0  0  0  0  0  0
  -30.6030  -25.1360   19.2280 C   0  0  0  0  0  3  0  0  0  0  0  0
  -30.0310  -22.7910   19.8240 C   0  0  0  0  0  0  0  0  0  0  0  0
  -29.6480  -24.2230   19.7520 C   0  0  0  0  0  0  0  0  0  0  0  0
  -31.8790  -24.7670   18.7800 C   0  0  0  0  0  0  0  0  0  0  0  0
  -33.8140  -25.3400   17.4860 C   0  0  0  0  0  1  0  0  0  0  0  0
  -32.6810  -25.7520   18.2450 O   0  0  0  0  0  0  0  0  0  0  0  0
  -29.1950  -21.5040   20.2730 C   0  0  0  0  0  3  0  0  0  0  0  0
  -29.9420  -20.0460   20.1940 C   0  0  0  0  0  3  0  0  0  0  0  0
  -29.3180  -18.5950   20.5350 C   0  0  0  0  0  3  0  0  0  0  0  0
  -30.3160  -17.3240   20.3920 C   0  0  0  0  0  3  0  0  0  0  0  0
  -30.5960  -14.7370   20.3860 C   0  0  0  0  0  0  0  0  0  0  0  0
  -30.3800  -12.4700   19.3720 C   0  0  0  0  0  2  0  0  0  0  0  0
  -29.4450  -12.5570   18.1470 C   0  0  0  0  0  2  0  0  0  0  0  0
  -27.9740  -12.3860   18.5730 C   0  0  0  0  0  2  0  0  0  0  0  0
  -27.6010  -13.2640   19.7970 C   0  0  0  0  0  3  0  0  0  0  0  0
  -28.6590  -13.1740   20.9170 C   0  0  0  0  0  2  0  0  0  0  0  0
  -29.9560  -13.5220   20.3250 N   0  0  0  0  0  0  0  0  0  0  0  0
  -31.7790  -14.8280   20.0500 O   0  0  0  0  0  0  0  0  0  0  0  0
  -29.8470  -15.8850   20.5970 N   0  0  0  0  0  0  0  0  0  0  0  0
  -28.8770  -15.7480   20.8330 H   0  0  0  0  0  0  0  0  0  0  0  0
  -25.2090  -13.8460   20.5180 C   0  0  0  0  0  0  0  0  0  0  0  0
  -24.1450  -13.0680   20.8870 C   0  0  0  0  0  0  0  0  0  0  0  0
  -24.6140  -11.7190   20.8600 C   0  0  0  0  0  0  0  0  0  0  0  0
  -26.2560  -12.9700   20.2860 N   0  0  0  0  0  0  0  0  0  0  0  0
  -25.9060  -11.6870   20.5540 N   0  0  0  0  0  0  0  0  0  0  0  0
  -23.8920  -10.4540   21.0530 C   0  0  0  0  0  0  0  0  0  0  0  0
  -24.3310   -9.4880   21.9850 C   0  0  0  0  0  3  0  0  0  0  0  0
  -23.6090   -8.2890   22.1650 C   0  0  0  0  0  3  0  0  0  0  0  0
  -22.4340   -8.0470   21.4150 C   0  0  0  0  0  0  0  0  0  0  0  0
  -22.0150   -9.0020   20.4720 C   0  0  0  0  0  3  0  0  0  0  0  0
  -22.7370  -10.1930   20.2890 C   0  0  0  0  0  3  0  0  0  0  0  0
  -21.6830   -6.9000   21.5050 O   0  0  0  0  0  0  0  0  0  0  0  0
  -21.6460   -6.1510   22.6540 C   0  0  0  0  0  0  0  0  0  0  0  0
  -21.2320   -6.6980   23.8870 C   0  0  0  0  0  3  0  0  0  0  0  0
  -21.1460   -5.8760   25.0280 C   0  0  0  0  0  3  0  0  0  0  0  0
  -21.4600   -4.5070   24.9360 C   0  0  0  0  0  0  0  0  0  0  0  0
  -21.8670   -3.9590   23.7060 C   0  0  0  0  0  3  0  0  0  0  0  0
  -21.9570   -4.7790   22.5680 C   0  0  0  0  0  0  0  0  0  0  0  0
  -22.3290   -4.2410   21.3820 F   0  0  0  0  0  0  0  0  0  0  0  0
  -21.3680   -3.7150   26.0290 F   0  0  0  0  0  0  0  0  0  0  0  0
  -22.7460  -13.5410   21.1520 C   0  0  0  0  0  0  0  0  0  0  0  0
  -22.0190  -12.8490   22.0220 N   0  0  0  0  0  0  0  0  0  0  0  0
  -22.3050  -14.5590   20.6220 O   0  0  0  0  0  0  0  0  0  0  0  0
  -22.3860  -12.0240   22.4730 H   0  0  0  0  0  0  0  0  0  0  0  0
  -21.0790  -13.1470   22.2380 H   0  0  0  0  0  0  0  0  0  0  0  0
  -25.3670  -15.2160   20.3320 N   0  0  0  0  0  0  0  0  0  0  0  0
  -24.5970  -15.8680   20.4280 H   0  0  0  0  0  0  0  0  0  0  0  0
  -26.2070  -15.6550   19.9770 H   0  0  0  0  0  0  0  0  0  0  0  0
  -28.2930  -24.9590   20.1020 C   0  0  0  0  0  2  0  0  0  0  0  0
  -28.3520  -26.4650   20.1690 O   0  0  0  0  0  0  0  0  0  0  0  0
  -24.6260  -31.8830   23.2400 C   0  0  0  0  0  0  0  0  0  0  0  0
  -27.2090  -27.2920   20.1640 C   0  0  0  0  0  0  0  0  0  0  0  0
  -23.4070  -30.4880   21.6090 C   0  0  0  0  0  3  0  0  0  0  0  0
  -24.8430  -28.9260   20.1760 C   0  0  0  0  0  0  0  0  0  0  0  0
  -25.9480  -30.7930   21.4070 C   0  0  0  0  0  2  0  0  0  0  0  0
  -26.0190  -29.4110   20.7580 C   0  0  0  0  0  0  0  0  0  0  0  0
  -27.2030  -28.6090   20.7360 C   0  0  0  0  0  3  0  0  0  0  0  0
  -26.0020  -26.8630   19.5670 C   0  0  0  0  0  3  0  0  0  0  0  0
  -24.8390  -27.6590   19.5700 C   0  0  0  0  0  3  0  0  0  0  0  0
  -23.6090  -29.8050   20.2300 C   0  0  0  0  0  2  0  0  0  0  0  0
  -24.6800  -31.0730   22.1420 N   0  0  0  0  0  0  0  0  0  0  0  0
  -23.5460  -32.1640   23.7830 O   0  0  0  0  0  0  0  0  0  0  0  0
  -22.7460  -29.4760   22.5750 C   0  0  0  0  0  0  0  0  0  0  0  0
  -21.4190  -29.3000   22.4530 N   0  0  0  0  0  0  0  0  0  0  0  0
  -23.4260  -28.8520   23.3930 O   0  0  0  0  0  0  0  0  0  0  0  0
  -20.9290  -29.8540   21.7650 H   0  0  0  0  0  0  0  0  0  0  0  0
  -18.0450  -28.0960   22.9590 C   0  0  0  0  0  0  0  0  0  0  0  0
  -20.6020  -28.3640   23.2290 C   0  0  0  0  0  3  0  0  0  0  0  0
  -20.7090  -26.9300   22.6590 C   0  0  0  0  0  2  0  0  0  0  0  0
  -19.6080  -26.6000   21.6460 C   0  0  0  0  0  2  0  0  0  0  0  0
  -18.2260  -26.7430   22.2890 C   0  0  0  0  0  2  0  0  0  0  0  0
  -19.1610  -28.8640   23.3850 C   0  0  0  0  0  0  0  0  0  0  0  0
  -18.9380  -30.1280   23.9720 C   0  0  0  0  0  3  0  0  0  0  0  0
  -17.6320  -30.6250   24.1370 C   0  0  0  0  0  3  0  0  0  0  0  0
  -16.5300  -29.8550   23.7260 C   0  0  0  0  0  3  0  0  0  0  0  0
  -16.7370  -28.5930   23.1430 C   0  0  0  0  0  3  0  0  0  0  0  0
  -25.9140  -32.5120   23.8560 C   0  0  0  0  0  3  0  0  0  0  0  0
  -25.6060  -33.9060   24.2050 N   0  0  0  0  0  0  0  0  0  0  0  0
  -25.9150  -34.9680   23.4500 C   0  0  0  0  0  0  0  0  0  0  0  0
  -26.5610  -34.8770   22.4020 O   0  0  0  0  0  0  0  0  0  0  0  0
  -25.0280  -34.0500   25.0200 H   0  0  0  0  0  0  0  0  0  0  0  0
  -24.1680  -36.7550   23.1620 C   0  0  0  0  0  1  0  0  0  0  0  0
  -25.4340  -36.3510   23.9320 C   0  0  0  0  0  3  0  0  0  0  0  0
  -27.5880  -37.2420   24.7060 C   0  0  0  0  0  1  0  0  0  0  0  0
  -26.4580  -37.4110   23.7960 N   0  0  0  0  0  0  0  0  0  0  0  0
  -26.0520  -38.3270   23.9620 H   0  0  0  0  0  0  0  0  0  0  0  0
  -26.4440  -31.7280   25.1200 C   0  0  1  0  0  0  0  0  0  0  0  0
  -25.3620  -31.4820   26.1970 C   0  0  0  0  0  1  0  0  0  0  0  0
  -27.0230  -30.3540   24.7110 C   0  0  0  0  0  1  0  0  0  0  0  0
  -27.6020  -32.5160   25.7760 C   0  0  0  0  0  1  0  0  0  0  0  0
  1  4  1  0
  2  1  2  0
  3  5  1  0
  4  9  1  0
  5  4  2  0
  5 51  1  0
  6  2  1  0
  6  3  2  0
  7  8  1  0
  8  6  1  0
 10  9  2  0
 10 11  1  0
 12 11  2  0
 12 21  1  0
 13 21  1  0
 14 19  1  0
 15 16  1  0
 15 14  1  0
 17 16  1  0
 17 26  1  0
 17 18  1  0
 19 13  1  0
 19 18  1  0
 20 13  2  0
 21 22  1  0
 23 24  2  0
 24 43  1  0
 25 24  1  0
 25 28  1  0
 26 23  1  0
 26 27  1  0
 27 25  2  0
 28 29  1  0
 29 30  2  0
 31 34  1  0
 31 30  1  0
 32 31  2  0
 33 32  1  0
 33 28  2  0
 34 35  1  0
 35 36  1  0
 36 37  2  0
 38 37  1  0
 38 42  1  0
 39 38  2  0
 40 35  2  0
 40 39  1  0
 41 40  1  0
 43 44  1  0
 44 47  1  0
 44 46  1  0
 45 43  2  0
 48 49  1  0
 48 23  1  0
 50 48  1  0
 51 52  1  0
 53 64  2  0
 54 52  1  0
 54 59  1  0
 55 63  1  0
 55 65  1  0
 56 62  1  0
 56 58  1  0
 57 63  1  0
 58 57  1  0
 59 58  2  0
 60 61  1  0
 60 54  2  0
 61 56  2  0
 62 55  1  0
 63 53  1  0
 65 67  2  0
 66 65  1  0
 68 66  1  0
 69 78  2  0
 69 74  1  0
 70 66  1  0
 70 74  1  0
 71 70  1  0
 72 73  1  0
 72 71  1  0
 73 69  1  0
 74 75  2  0
 75 76  1  0
 77 76  2  0
 78 77  1  0
 79 53  1  0
 79 80  1  0
 79 89  1  0
 80 83  1  0
 81 85  1  0
 81 80  1  0
 82 81  2  0
 85 84  1  0
 87 85  1  0
 87 88  1  0
 87 86  1  0
 89 92  1  1
 89 90  1  0
 91 89  1  0
M  ISO  4  13 100  21 100  51 101  52 101
M  END
>  <TORSDO>  (87) 
F 22

>  <SCORE>  (87) 
-12.928

>  <name>  (87) 
87

>  <ligand_id>  (87) 
87

>  <original_smiles>  (87) 
[H]c1c([H])c([H])c2c(c1[H])C([H])([H])C([H])([H])C([H])([H])C2([H])N([H])C(=O)C1([H])N(C(=O)C([H])(N([H])C(=O)C([H])(N([H])C([H])([H])[H])C([H])([H])[H])C(C([H])([H])[H])(C([H])([H])[H])C([H])([H])[H])C([H])([H])c2c([H])c(OC([H])([H])c3c([H])c(OC([H])([H])[H])c([H])c([H])c3C([H])([H])C([H])([H])C([H])([H])C([H])([H])N([H])C(=O)N3C([H])([H])C([H])([H])C([H])([H])C([H])(n4nc(-c5c([H])c([H])c(Oc6c([H])c([H])c(F)c([H])c6F)c([H])c5[H])c(C(=O)N([H])[H])c4N([H])[H])C3([H])[H])c([H])c([H])c2C1([H])[H]

>  <smiles>  (87) 
[H]c1c([H])c([H])c2c(c1[H])C([H])([H])C([H])([H])C([H])([H])C2([H])N([H])C(=O)C1([H])N(C(=O)C([H])(N([H])C(=O)C([H])(N([H])C([H])([H])[H])C([H])([H])[H])C(C([H])([H])[H])(C([H])([H])[H])C([H])([H])[H])C([H])([H])c2c([H])c(OC([H])([H])c3c([H])c(OC([H])([H])[H])c([H])c([H])c3C([H])([H])C([H])([H])C([H])([H])C([H])([H])N([H])C(=O)N3C([H])([H])C([H])([H])C([H])([H])C([H])(n4nc(-c5c([H])c([H])c(Oc6c([H])c([H])c(F)c([H])c6F)c([H])c5[H])c(C(=O)N([H])[H])c4N([H])[H])C3([H])[H])c([H])c([H])c2C1([H])[H]

$$$$
88:0:0
     RDKit          3D

 96104  0  0  1  0  0  0  0  0999 V2000
  -32.0620  -23.0370   20.0710 C   0  0  0  0  0  2  0  0  0  0  0  0
  -31.0780  -23.7500   19.1360 C   0  0  0  0  0  0  0  0  0  0  0  0
  -30.9610  -25.0720   19.3030 N   0  0  0  0  0  0  0  0  0  0  0  0
  -30.4550  -23.1350   18.2700 O   0  0  0  0  0  0  0  0  0  0  0  0
  -31.5360  -25.5070   20.0100 H   0  0  0  0  0  0  0  0  0  0  0  0
  -30.1280  -25.9480   18.4860 C   0  0  0  0  0  2  0  0  0  0  0  0
  -28.6550  -25.9780   18.9400 C   0  0  0  0  0  2  0  0  0  0  0  0
  -28.4550  -26.8860   20.0310 O   0  0  0  0  0  0  0  0  0  0  0  0
  -24.5640  -31.9440   23.2410 C   0  0  0  0  0  0  0  0  0  0  0  0
  -27.2390  -27.5420   20.1020 C   0  0  0  0  0  0  0  0  0  0  0  0
  -23.3580  -30.5310   21.6030 C   0  0  0  0  0  3  0  0  0  0  0  0
  -24.8140  -29.0010   20.1770 C   0  0  0  0  0  0  0  0  0  0  0  0
  -25.8800  -30.9060   21.3960 C   0  0  0  0  0  2  0  0  0  0  0  0
  -25.9700  -29.5360   20.7570 C   0  0  0  0  0  0  0  0  0  0  0  0
  -27.1810  -28.8080   20.7270 C   0  0  0  0  0  3  0  0  0  0  0  0
  -26.0490  -27.0010   19.5580 C   0  0  0  0  0  3  0  0  0  0  0  0
  -24.8450  -27.7280   19.5860 C   0  0  0  0  0  3  0  0  0  0  0  0
  -23.5610  -29.8460   20.2270 C   0  0  0  0  0  2  0  0  0  0  0  0
  -24.6180  -31.1440   22.1370 N   0  0  0  0  0  0  0  0  0  0  0  0
  -23.4840  -32.2100   23.7860 O   0  0  0  0  0  0  0  0  0  0  0  0
  -22.7150  -29.5090   22.5680 C   0  0  0  0  0  0  0  0  0  0  0  0
  -21.3940  -29.3160   22.4400 N   0  0  0  0  0  0  0  0  0  0  0  0
  -23.4040  -28.8880   23.3820 O   0  0  0  0  0  0  0  0  0  0  0  0
  -20.9030  -29.8630   21.7460 H   0  0  0  0  0  0  0  0  0  0  0  0
  -18.0290  -28.0980   22.9310 C   0  0  0  0  0  0  0  0  0  0  0  0
  -20.5840  -28.3740   23.2090 C   0  0  0  0  0  3  0  0  0  0  0  0
  -20.7000  -26.9450   22.6310 C   0  0  0  0  0  2  0  0  0  0  0  0
  -19.6020  -26.6120   21.6160 C   0  0  0  0  0  2  0  0  0  0  0  0
  -18.2180  -26.7500   22.2550 C   0  0  0  0  0  2  0  0  0  0  0  0
  -19.1410  -28.8680   23.3630 C   0  0  0  0  0  0  0  0  0  0  0  0
  -18.9130  -30.1330   23.9490 C   0  0  0  0  0  3  0  0  0  0  0  0
  -17.6040  -30.6250   24.1110 C   0  0  0  0  0  3  0  0  0  0  0  0
  -16.5060  -29.8490   23.7000 C   0  0  0  0  0  3  0  0  0  0  0  0
  -16.7190  -28.5880   23.1140 C   0  0  0  0  0  3  0  0  0  0  0  0
  -25.8510  -32.5770   23.8570 C   0  0  0  0  0  3  0  0  0  0  0  0
  -25.5470  -33.9760   24.1810 N   0  0  0  0  0  0  0  0  0  0  0  0
  -25.8760  -35.0220   23.4130 C   0  0  0  0  0  0  0  0  0  0  0  0
  -26.5410  -34.9120   22.3780 O   0  0  0  0  0  0  0  0  0  0  0  0
  -24.9710  -34.1390   24.9940 H   0  0  0  0  0  0  0  0  0  0  0  0
  -24.1450  -36.8040   23.0450 C   0  0  0  0  0  1  0  0  0  0  0  0
  -25.3860  -36.4110   23.8620 C   0  0  0  0  0  3  0  0  0  0  0  0
  -27.5190  -37.3020   24.6880 C   0  0  0  0  0  1  0  0  0  0  0  0
  -26.4170  -37.4640   23.7430 N   0  0  0  0  0  0  0  0  0  0  0  0
  -26.0100  -38.3850   23.8860 H   0  0  0  0  0  0  0  0  0  0  0  0
  -26.3730  -31.8100   25.1350 C   0  0  1  0  0  0  0  0  0  0  0  0
  -25.2810  -31.5780   26.2040 C   0  0  0  0  0  1  0  0  0  0  0  0
  -26.9590  -30.4330   24.7470 C   0  0  0  0  0  1  0  0  0  0  0  0
  -27.5240  -32.6090   25.7900 C   0  0  0  0  0  1  0  0  0  0  0  0
  -31.9030  -21.5040   20.1360 C   0  0  0  0  0  2  0  0  0  0  0  0
  -30.6390  -21.0470   20.8850 C   0  0  0  0  0  2  0  0  0  0  0  0
  -30.9540  -18.7500   21.8290 C   0  0  0  0  0  3  0  0  0  0  0  0
  -30.4290  -19.5440   20.7930 C   0  0  0  0  0  0  0  0  0  0  0  0
  -30.7530  -17.3590   21.8440 C   0  0  0  0  0  0  0  0  0  0  0  0
  -29.7320  -18.9310   19.7180 C   0  0  0  0  0  0  0  0  0  0  0  0
  -29.5350  -17.5250   19.7210 C   0  0  0  0  0  0  0  0  0  0  0  0
  -30.0390  -16.7390   20.7960 C   0  0  0  0  0  0  0  0  0  0  0  0
  -31.3050  -16.5420   22.9970 C   0  0  0  0  0  1  0  0  0  0  0  0
  -29.1890  -19.7510   18.5480 C   0  0  0  0  0  1  0  0  0  0  0  0
  -28.7660  -16.8770   18.5690 C   0  0  0  0  0  1  0  0  0  0  0  0
  -29.7560  -15.3960   20.8800 O   0  0  0  0  0  0  0  0  0  0  0  0
  -30.5250  -14.4930   20.2290 C   0  0  0  0  0  0  0  0  0  0  0  0
  -30.1810  -12.3420   19.0390 C   0  0  0  0  0  2  0  0  0  0  0  0
  -29.1850  -12.6000   17.8880 C   0  0  0  0  0  2  0  0  0  0  0  0
  -27.7240  -12.4790   18.3700 C   0  0  0  0  0  2  0  0  0  0  0  0
  -27.4450  -13.2720   19.6770 C   0  0  0  0  0  3  0  0  0  0  0  0
  -28.5400  -12.9920   20.7290 C   0  0  0  0  0  2  0  0  0  0  0  0
  -29.8490  -13.2720   20.1210 N   0  0  0  0  0  0  0  0  0  0  0  0
  -31.5960  -14.7670   19.6810 O   0  0  0  0  0  0  0  0  0  0  0  0
  -25.0710  -13.8680   20.4810 C   0  0  0  0  0  0  0  0  0  0  0  0
  -24.0220  -13.0860   20.8830 C   0  0  0  0  0  0  0  0  0  0  0  0
  -24.4860  -11.7370   20.8210 C   0  0  0  0  0  0  0  0  0  0  0  0
  -26.1110  -12.9920   20.2020 N   0  0  0  0  0  0  0  0  0  0  0  0
  -25.7630  -11.7060   20.4610 N   0  0  0  0  0  0  0  0  0  0  0  0
  -23.7750  -10.4690   21.0280 C   0  0  0  0  0  0  0  0  0  0  0  0
  -24.2520   -9.4910   21.9300 C   0  0  0  0  0  3  0  0  0  0  0  0
  -23.5400   -8.2880   22.1250 C   0  0  0  0  0  3  0  0  0  0  0  0
  -22.3360   -8.0540   21.4200 C   0  0  0  0  0  0  0  0  0  0  0  0
  -21.8790   -9.0190   20.5050 C   0  0  0  0  0  3  0  0  0  0  0  0
  -22.5910  -10.2140   20.3070 C   0  0  0  0  0  3  0  0  0  0  0  0
  -21.5910   -6.9050   21.5260 O   0  0  0  0  0  0  0  0  0  0  0  0
  -21.6040   -6.1420   22.6670 C   0  0  0  0  0  0  0  0  0  0  0  0
  -21.2450   -6.6750   23.9240 C   0  0  0  0  0  3  0  0  0  0  0  0
  -21.2060   -5.8400   25.0570 C   0  0  0  0  0  3  0  0  0  0  0  0
  -21.5120   -4.4710   24.9360 C   0  0  0  0  0  0  0  0  0  0  0  0
  -21.8630   -3.9370   23.6840 C   0  0  0  0  0  3  0  0  0  0  0  0
  -21.9060   -4.7700   22.5520 C   0  0  0  0  0  0  0  0  0  0  0  0
  -22.2270   -4.2460   21.3450 F   0  0  0  0  0  0  0  0  0  0  0  0
  -21.4650   -3.6670   26.0230 F   0  0  0  0  0  0  0  0  0  0  0  0
  -22.6340  -13.5550   21.2180 C   0  0  0  0  0  0  0  0  0  0  0  0
  -21.9480  -12.8420   22.1040 N   0  0  0  0  0  0  0  0  0  0  0  0
  -22.1700  -14.5830   20.7310 O   0  0  0  0  0  0  0  0  0  0  0  0
  -22.3400  -12.0120   22.5230 H   0  0  0  0  0  0  0  0  0  0  0  0
  -21.0160  -13.1300   22.3670 H   0  0  0  0  0  0  0  0  0  0  0  0
  -25.2240  -15.2410   20.3120 N   0  0  0  0  0  0  0  0  0  0  0  0
  -24.4670  -15.8990   20.4660 H   0  0  0  0  0  0  0  0  0  0  0  0
  -26.0850  -15.6920   20.0270 H   0  0  0  0  0  0  0  0  0  0  0  0
  1 49  1  0
  2  3  1  0
  2  1  1  0
  3  5  1  0
  4  2  2  0
  6  7  1  0
  6  3  1  0
  7  8  1  0
  8 10  1  0
  9 20  2  0
 10 15  1  0
 11 19  1  0
 11 21  1  0
 12 18  1  0
 12 14  1  0
 13 19  1  0
 14 13  1  0
 15 14  2  0
 16 17  1  0
 16 10  2  0
 17 12  2  0
 18 11  1  0
 19  9  1  0
 21 23  2  0
 22 21  1  0
 24 22  1  0
 25 34  2  0
 25 30  1  0
 26 22  1  0
 26 30  1  0
 27 26  1  0
 28 29  1  0
 28 27  1  0
 29 25  1  0
 30 31  2  0
 31 32  1  0
 33 32  2  0
 34 33  1  0
 35  9  1  0
 35 36  1  0
 35 45  1  0
 36 39  1  0
 37 41  1  0
 37 36  1  0
 38 37  2  0
 41 40  1  0
 43 41  1  0
 43 44  1  0
 43 42  1  0
 45 48  1  1
 45 46  1  0
 47 45  1  0
 49 50  1  0
 51 53  1  0
 52 50  1  0
 52 51  2  0
 53 57  1  0
 54 55  2  0
 54 52  1  0
 55 56  1  0
 56 60  1  0
 56 53  2  0
 58 54  1  0
 59 55  1  0
 61 60  1  0
 62 67  1  0
 63 64  1  0
 63 62  1  0
 65 64  1  0
 65 72  1  0
 65 66  1  0
 67 61  1  0
 67 66  1  0
 68 61  2  0
 69 70  2  0
 70 89  1  0
 71 70  1  0
 71 74  1  0
 72 73  1  0
 72 69  1  0
 73 71  2  0
 74 75  1  0
 75 76  2  0
 77 80  1  0
 77 76  1  0
 78 77  2  0
 79 78  1  0
 79 74  2  0
 80 81  1  0
 81 82  1  0
 82 83  2  0
 84 83  1  0
 84 88  1  0
 85 84  2  0
 86 81  2  0
 86 85  1  0
 87 86  1  0
 89 90  1  0
 90 93  1  0
 90 92  1  0
 91 89  2  0
 94 95  1  0
 94 69  1  0
 96 94  1  0
M  ISO  4   7 101   8 101  60 100  61 100
M  END
>  <TORSDO>  (88) 
F 23

>  <SCORE>  (88) 
-12.142

>  <name>  (88) 
88

>  <ligand_id>  (88) 
88

>  <original_smiles>  (88) 
[H]c1c([H])c([H])c2c(c1[H])C([H])([H])C([H])([H])C([H])([H])C2([H])N([H])C(=O)C1([H])N(C(=O)C([H])(N([H])C(=O)C([H])(N([H])C([H])([H])[H])C([H])([H])[H])C(C([H])([H])[H])(C([H])([H])[H])C([H])([H])[H])C([H])([H])c2c([H])c(OC([H])([H])C([H])([H])N([H])C(=O)C([H])([H])C([H])([H])C([H])([H])c3c([H])c(C([H])([H])[H])c(OC(=O)N4C([H])([H])C([H])([H])C([H])([H])C([H])(n5nc(-c6c([H])c([H])c(Oc7c([H])c([H])c(F)c([H])c7F)c([H])c6[H])c(C(=O)N([H])[H])c5N([H])[H])C4([H])[H])c(C([H])([H])[H])c3C([H])([H])[H])c([H])c([H])c2C1([H])[H]

>  <smiles>  (88) 
[H]c1c([H])c([H])c2c(c1[H])C([H])([H])C([H])([H])C([H])([H])C2([H])N([H])C(=O)C1([H])N(C(=O)C([H])(N([H])C(=O)C([H])(N([H])C([H])([H])[H])C([H])([H])[H])C(C([H])([H])[H])(C([H])([H])[H])C([H])([H])[H])C([H])([H])c2c([H])c(OC([H])([H])C([H])([H])N([H])C(=O)C([H])([H])C([H])([H])C([H])([H])c3c([H])c(C([H])([H])[H])c(OC(=O)N4C([H])([H])C([H])([H])C([H])([H])C([H])(n5nc(-c6c([H])c([H])c(Oc7c([H])c([H])c(F)c([H])c7F)c([H])c6[H])c(C(=O)N([H])[H])c5N([H])[H])C4([H])[H])c(C([H])([H])[H])c3C([H])([H])[H])c([H])c([H])c2C1([H])[H]

$$$$
89:0:0
     RDKit          3D

 90 98  0  0  1  0  0  0  0  0999 V2000
  -29.7770  -23.5350   18.1310 C   0  0  0  0  0  3  0  0  0  0  0  0
  -29.6100  -22.2860   18.7680 C   0  0  0  0  0  3  0  0  0  0  0  0
  -29.2200  -24.7350   18.6300 C   0  0  0  0  0  3  0  0  0  0  0  0
  -28.8430  -22.1380   19.9390 C   0  0  0  0  0  0  0  0  0  0  0  0
  -28.2820  -23.4390   20.4550 C   0  0  0  0  0  0  0  0  0  0  0  0
  -28.4730  -24.7910   19.8230 C   0  0  0  0  0  0  0  0  0  0  0  0
  -27.4360  -23.3780   21.7110 C   0  0  0  0  0  1  0  0  0  0  0  0
  -28.2580  -26.1700   20.3160 O   0  0  0  0  0  0  0  0  0  0  0  0
  -24.6430  -31.8770   23.1800 C   0  0  0  0  0  0  0  0  0  0  0  0
  -27.1940  -27.1320   20.1480 C   0  0  0  0  0  0  0  0  0  0  0  0
  -23.4290  -30.4710   21.5550 C   0  0  0  0  0  3  0  0  0  0  0  0
  -24.8630  -28.8850   20.1150 C   0  0  0  0  0  0  0  0  0  0  0  0
  -25.9780  -30.7330   21.3670 C   0  0  0  0  0  2  0  0  0  0  0  0
  -26.0440  -29.3370   20.7170 C   0  0  0  0  0  0  0  0  0  0  0  0
  -27.2010  -28.4720   20.7190 C   0  0  0  0  0  3  0  0  0  0  0  0
  -25.9930  -26.7820   19.4970 C   0  0  0  0  0  3  0  0  0  0  0  0
  -24.8530  -27.6250   19.4870 C   0  0  0  0  0  3  0  0  0  0  0  0
  -23.6340  -29.7820   20.1770 C   0  0  0  0  0  2  0  0  0  0  0  0
  -24.7030  -31.0510   22.0880 N   0  0  0  0  0  0  0  0  0  0  0  0
  -23.5610  -32.1650   23.7160 O   0  0  0  0  0  0  0  0  0  0  0  0
  -22.7590  -29.4730   22.5320 C   0  0  0  0  0  0  0  0  0  0  0  0
  -21.4290  -29.3050   22.4200 N   0  0  0  0  0  0  0  0  0  0  0  0
  -23.4380  -28.8490   23.3510 O   0  0  0  0  0  0  0  0  0  0  0  0
  -20.9370  -29.8540   21.7290 H   0  0  0  0  0  0  0  0  0  0  0  0
  -18.0540  -28.1110   22.9620 C   0  0  0  0  0  0  0  0  0  0  0  0
  -20.6150  -28.3740   23.2050 C   0  0  0  0  0  3  0  0  0  0  0  0
  -20.7090  -26.9380   22.6370 C   0  0  0  0  0  2  0  0  0  0  0  0
  -19.5980  -26.6110   21.6340 C   0  0  0  0  0  2  0  0  0  0  0  0
  -18.2230  -26.7600   22.2890 C   0  0  0  0  0  2  0  0  0  0  0  0
  -19.1750  -28.8750   23.3790 C   0  0  0  0  0  0  0  0  0  0  0  0
  -18.9600  -30.1390   23.9710 C   0  0  0  0  0  3  0  0  0  0  0  0
  -17.6560  -30.6390   24.1460 C   0  0  0  0  0  3  0  0  0  0  0  0
  -16.5480  -29.8700   23.7460 C   0  0  0  0  0  3  0  0  0  0  0  0
  -16.7480  -28.6070   23.1600 C   0  0  0  0  0  3  0  0  0  0  0  0
  -25.9250  -32.5160   23.7940 C   0  0  0  0  0  3  0  0  0  0  0  0
  -26.4580  -31.7430   25.0650 C   0  0  1  0  0  0  0  0  0  0  0  0
  -25.3780  -31.5020   26.1460 C   0  0  0  0  0  1  0  0  0  0  0  0
  -27.0390  -30.3670   24.6680 C   0  0  0  0  0  1  0  0  0  0  0  0
  -27.6170  -32.5360   25.7150 C   0  0  0  0  0  1  0  0  0  0  0  0
  -25.6120  -33.9110   24.1430 N   0  0  0  0  0  0  0  0  0  0  0  0
  -25.9300  -34.9750   23.3940 C   0  0  0  0  0  0  0  0  0  0  0  0
  -26.5880  -34.8850   22.3530 O   0  0  0  0  0  0  0  0  0  0  0  0
  -25.0290  -34.0520   24.9540 H   0  0  0  0  0  0  0  0  0  0  0  0
  -24.1920  -36.7680   23.0840 C   0  0  0  0  0  1  0  0  0  0  0  0
  -25.4450  -36.3580   23.8740 C   0  0  0  0  0  3  0  0  0  0  0  0
  -27.5910  -37.2400   24.6870 C   0  0  0  0  0  1  0  0  0  0  0  0
  -26.4740  -37.4160   23.7600 N   0  0  0  0  0  0  0  0  0  0  0  0
  -26.0670  -38.3320   23.9260 H   0  0  0  0  0  0  0  0  0  0  0  0
  -28.5570  -20.5570   20.4020 C   0  0  0  0  0  2  0  0  0  0  0  0
  -29.6050  -19.2120   20.5940 C   0  0  0  0  0  2  0  0  0  0  0  0
  -30.1560  -17.6990   18.5220 C   0  0  0  0  0  1  0  0  0  0  0  0
  -29.4710  -17.6550   19.8940 C   0  0  0  0  0  0  0  0  0  0  0  0
  -30.4810  -15.0260   20.2830 C   0  0  0  0  0  0  0  0  0  0  0  0
  -30.3990  -12.6520   19.3730 C   0  0  0  0  0  2  0  0  0  0  0  0
  -29.4690  -12.6100   18.1360 C   0  0  0  0  0  2  0  0  0  0  0  0
  -28.0080  -12.3830   18.5660 C   0  0  0  0  0  2  0  0  0  0  0  0
  -27.5990  -13.2980   19.7490 C   0  0  0  0  0  3  0  0  0  0  0  0
  -28.6530  -13.3100   20.8780 C   0  0  0  0  0  2  0  0  0  0  0  0
  -29.9230  -13.7430   20.2810 N   0  0  0  0  0  0  0  0  0  0  0  0
  -31.6530  -15.1130   19.8940 O   0  0  0  0  0  0  0  0  0  0  0  0
  -29.6830  -16.1940   20.5340 N   0  0  0  0  0  4  0  0  0  0  0  0
  -28.8500  -15.9130   21.0330 H   0  0  0  0  0  0  0  0  0  0  0  0
  -25.2140  -13.8610   20.4810 C   0  0  0  0  0  0  0  0  0  0  0  0
  -24.1560  -13.0790   20.8570 C   0  0  0  0  0  0  0  0  0  0  0  0
  -24.6310  -11.7320   20.8330 C   0  0  0  0  0  0  0  0  0  0  0  0
  -26.2640  -12.9900   20.2450 N   0  0  0  0  0  0  0  0  0  0  0  0
  -25.9230  -11.7040   20.5220 N   0  0  0  0  0  0  0  0  0  0  0  0
  -23.9150  -10.4660   21.0310 C   0  0  0  0  0  0  0  0  0  0  0  0
  -24.3620   -9.4990   21.9580 C   0  0  0  0  0  3  0  0  0  0  0  0
  -23.6420   -8.2990   22.1440 C   0  0  0  0  0  3  0  0  0  0  0  0
  -22.4630   -8.0550   21.4010 C   0  0  0  0  0  0  0  0  0  0  0  0
  -22.0350   -9.0100   20.4620 C   0  0  0  0  0  3  0  0  0  0  0  0
  -22.7540  -10.2020   20.2750 C   0  0  0  0  0  3  0  0  0  0  0  0
  -21.7150   -6.9060   21.4960 O   0  0  0  0  0  0  0  0  0  0  0  0
  -21.6910   -6.1560   22.6450 C   0  0  0  0  0  0  0  0  0  0  0  0
  -21.2930   -6.7020   23.8850 C   0  0  0  0  0  3  0  0  0  0  0  0
  -21.2160   -5.8790   25.0250 C   0  0  0  0  0  3  0  0  0  0  0  0
  -21.5280   -4.5100   24.9280 C   0  0  0  0  0  0  0  0  0  0  0  0
  -21.9200   -3.9610   23.6930 C   0  0  0  0  0  3  0  0  0  0  0  0
  -21.9980   -4.7830   22.5550 C   0  0  0  0  0  0  0  0  0  0  0  0
  -22.3560   -4.2450   21.3640 F   0  0  0  0  0  0  0  0  0  0  0  0
  -21.4480   -3.7170   26.0220 F   0  0  0  0  0  0  0  0  0  0  0  0
  -22.7570  -13.5490   21.1260 C   0  0  0  0  0  0  0  0  0  0  0  0
  -22.0330  -12.8530   21.9970 N   0  0  0  0  0  0  0  0  0  0  0  0
  -22.3140  -14.5680   20.6000 O   0  0  0  0  0  0  0  0  0  0  0  0
  -22.4050  -12.0290   22.4460 H   0  0  0  0  0  0  0  0  0  0  0  0
  -21.0930  -13.1490   22.2170 H   0  0  0  0  0  0  0  0  0  0  0  0
  -25.3700  -15.2310   20.2930 N   0  0  0  0  0  0  0  0  0  0  0  0
  -24.5950  -15.8810   20.3760 H   0  0  0  0  0  0  0  0  0  0  0  0
  -26.2110  -15.6630   19.9330 H   0  0  0  0  0  0  0  0  0  0  0  0
  1  3  2  0
  1  2  1  0
  2  4  2  0
  3  6  1  0
  4 49  1  0
  4  5  1  0
  5  7  1  0
  6  8  1  0
  6  5  2  0
  9 20  2  0
 10  8  1  0
 10 15  1  0
 11 19  1  0
 11 21  1  0
 12 18  1  0
 12 14  1  0
 13 19  1  0
 14 15  2  0
 14 13  1  0
 16 10  2  0
 17 16  1  0
 17 12  2  0
 18 11  1  0
 19  9  1  0
 21 23  2  0
 22 21  1  0
 24 22  1  0
 25 34  2  0
 25 30  1  0
 26 22  1  0
 26 30  1  0
 27 26  1  0
 28 29  1  0
 28 27  1  0
 29 25  1  0
 30 31  2  0
 31 32  1  0
 33 32  2  0
 34 33  1  0
 35  9  1  0
 35 40  1  0
 35 36  1  0
 36 39  1  1
 36 37  1  0
 38 36  1  0
 40 43  1  0
 41 45  1  0
 41 40  1  0
 42 41  2  0
 45 44  1  0
 47 45  1  0
 47 48  1  0
 47 46  1  0
 49 50  1  0
 51 52  1  0
 52 61  2  0
 52 50  1  0
 53 61  1  0
 54 59  1  0
 55 56  1  0
 55 54  1  0
 57 56  1  0
 57 66  1  0
 57 58  1  0
 59 53  1  0
 59 58  1  0
 60 53  2  0
 61 62  1  0
 63 64  2  0
 64 83  1  0
 65 64  1  0
 65 68  1  0
 66 63  1  0
 66 67  1  0
 67 65  2  0
 68 69  1  0
 69 70  2  0
 71 74  1  0
 71 70  1  0
 72 71  2  0
 73 72  1  0
 73 68  2  0
 74 75  1  0
 75 76  1  0
 76 77  2  0
 78 77  1  0
 78 82  1  0
 79 78  2  0
 80 75  2  0
 80 79  1  0
 81 80  1  0
 83 84  1  0
 84 87  1  0
 84 86  1  0
 85 83  2  0
 88 89  1  0
 88 63  1  0
 90 88  1  0
M  ISO  4   6 101   8 101  53 100  61 100
M  END
>  <TORSDO>  (89) 
F 19

>  <SCORE>  (89) 
-15.182

>  <name>  (89) 
89

>  <ligand_id>  (89) 
89

>  <original_smiles>  (89) 
[H]c1c([H])c([H])c2c(c1[H])C([H])([H])C([H])([H])C([H])([H])C2([H])N([H])C(=O)C1([H])N(C(=O)C([H])(N([H])C(=O)C([H])(N([H])C([H])([H])[H])C([H])([H])[H])C(C([H])([H])[H])(C([H])([H])[H])C([H])([H])[H])C([H])([H])c2c([H])c(Oc3c([H])c([H])c([H])c(C([H])([H])C([H])([H])C([H])(N([H])C(=O)N4C([H])([H])C([H])([H])C([H])([H])C([H])(n5nc(-c6c([H])c([H])c(Oc7c([H])c([H])c(F)c([H])c7F)c([H])c6[H])c(C(=O)N([H])[H])c5N([H])[H])C4([H])[H])C([H])([H])[H])c3C([H])([H])[H])c([H])c([H])c2C1([H])[H]

>  <smiles>  (89) 
[H]c1c([H])c([H])c2c(c1[H])C([H])([H])C([H])([H])C([H])([H])C2([H])N([H])C(=O)C1([H])N(C(=O)C([H])(N([H])C(=O)C([H])(N([H])C([H])([H])[H])C([H])([H])[H])C(C([H])([H])[H])(C([H])([H])[H])C([H])([H])[H])C([H])([H])c2c([H])c(Oc3c([H])c([H])c([H])c(C([H])([H])C([H])([H])C([H])(N([H])C(=O)N4C([H])([H])C([H])([H])C([H])([H])C([H])(n5nc(-c6c([H])c([H])c(Oc7c([H])c([H])c(F)c([H])c7F)c([H])c6[H])c(C(=O)N([H])[H])c5N([H])[H])C4([H])[H])C([H])([H])[H])c3C([H])([H])[H])c([H])c([H])c2C1([H])[H]

$$$$
90:0:0
     RDKit          3D

 96104  0  0  1  0  0  0  0  0999 V2000
  -30.1760  -23.8390   18.3940 C   0  0  0  0  0  3  0  0  0  0  0  0
  -29.6590  -26.5800   18.2180 C   0  0  0  0  0  3  0  0  0  0  0  0
  -30.8620  -24.5980   17.4180 C   0  0  0  0  0  0  0  0  0  0  0  0
  -29.2700  -24.4160   19.3130 C   0  0  0  0  0  0  0  0  0  0  0  0
  -30.5610  -25.9740   17.3130 C   0  0  0  0  0  0  0  0  0  0  0  0
  -29.0250  -25.8400   19.2440 C   0  0  0  0  0  0  0  0  0  0  0  0
  -31.1590  -26.7360   16.3470 O   0  0  0  0  0  0  0  0  0  0  0  0
  -30.8290  -27.6300   16.3070 H   0  0  0  0  0  0  0  0  0  0  0  0
  -28.3750  -26.5610   20.2450 O   0  0  0  0  0  0  0  0  0  0  0  0
  -24.5950  -31.8530   23.1910 C   0  0  0  0  0  0  0  0  0  0  0  0
  -27.2570  -27.3800   20.0830 C   0  0  0  0  0  0  0  0  0  0  0  0
  -23.3860  -30.4460   21.5480 C   0  0  0  0  0  3  0  0  0  0  0  0
  -24.8460  -28.9090   20.1070 C   0  0  0  0  0  0  0  0  0  0  0  0
  -25.9120  -30.8010   21.3440 C   0  0  0  0  0  2  0  0  0  0  0  0
  -26.0050  -29.4280   20.6930 C   0  0  0  0  0  0  0  0  0  0  0  0
  -27.2070  -28.6690   20.6790 C   0  0  0  0  0  3  0  0  0  0  0  0
  -26.0730  -26.8800   19.4980 C   0  0  0  0  0  3  0  0  0  0  0  0
  -24.8790  -27.6370   19.5040 C   0  0  0  0  0  3  0  0  0  0  0  0
  -23.5940  -29.7610   20.1690 C   0  0  0  0  0  2  0  0  0  0  0  0
  -24.6490  -31.0500   22.0880 N   0  0  0  0  0  0  0  0  0  0  0  0
  -23.5150  -32.1300   23.7350 O   0  0  0  0  0  0  0  0  0  0  0  0
  -22.7330  -29.4340   22.5160 C   0  0  0  0  0  0  0  0  0  0  0  0
  -21.4040  -29.2590   22.3960 N   0  0  0  0  0  0  0  0  0  0  0  0
  -23.4160  -28.8080   23.3280 O   0  0  0  0  0  0  0  0  0  0  0  0
  -20.9140  -29.8060   21.7050 H   0  0  0  0  0  0  0  0  0  0  0  0
  -18.0320  -28.0770   22.9130 C   0  0  0  0  0  0  0  0  0  0  0  0
  -20.5900  -28.3260   23.1710 C   0  0  0  0  0  3  0  0  0  0  0  0
  -20.6850  -26.8960   22.5910 C   0  0  0  0  0  2  0  0  0  0  0  0
  -19.5770  -26.5840   21.5780 C   0  0  0  0  0  2  0  0  0  0  0  0
  -18.1990  -26.7320   22.2290 C   0  0  0  0  0  2  0  0  0  0  0  0
  -19.1530  -28.8350   23.3390 C   0  0  0  0  0  0  0  0  0  0  0  0
  -18.9400  -30.0960   23.9330 C   0  0  0  0  0  3  0  0  0  0  0  0
  -17.6370  -30.6000   24.1070 C   0  0  0  0  0  3  0  0  0  0  0  0
  -16.5300  -29.8370   23.7000 C   0  0  0  0  0  3  0  0  0  0  0  0
  -16.7260  -28.5770   23.1080 C   0  0  0  0  0  3  0  0  0  0  0  0
  -25.8820  -32.4840   23.8110 C   0  0  0  0  0  3  0  0  0  0  0  0
  -26.4070  -31.7060   25.0800 C   0  0  1  0  0  0  0  0  0  0  0  0
  -25.3250  -31.4600   26.1540 C   0  0  0  0  0  1  0  0  0  0  0  0
  -26.9900  -30.3350   24.6710 C   0  0  0  0  0  1  0  0  0  0  0  0
  -27.5640  -32.4960   25.7410 C   0  0  0  0  0  1  0  0  0  0  0  0
  -25.5670  -33.8770   24.1570 N   0  0  0  0  0  0  0  0  0  0  0  0
  -25.8880  -34.9390   23.4090 C   0  0  0  0  0  0  0  0  0  0  0  0
  -26.5550  -34.8510   22.3730 O   0  0  0  0  0  0  0  0  0  0  0  0
  -24.9730  -34.0170   24.9610 H   0  0  0  0  0  0  0  0  0  0  0  0
  -24.1450  -36.7190   23.0900 C   0  0  0  0  0  1  0  0  0  0  0  0
  -25.3960  -36.3180   23.8870 C   0  0  0  0  0  3  0  0  0  0  0  0
  -27.5330  -37.2030   24.7020 C   0  0  0  0  0  1  0  0  0  0  0  0
  -26.4180  -37.3800   23.7780 N   0  0  0  0  0  0  0  0  0  0  0  0
  -26.0070  -38.2930   23.9570 H   0  0  0  0  0  0  0  0  0  0  0  0
  -31.9140  -23.9330   16.5120 C   0  0  0  0  0  2  0  0  0  0  0  0
  -33.9280  -22.3270   16.3780 C   0  0  0  0  0  1  0  0  0  0  0  0
  -32.7210  -22.8050   17.2010 C   0  0  0  0  0  2  0  0  0  0  0  0
  -28.6960  -23.4770   20.4070 C   0  0  0  0  0  2  0  0  0  0  0  0
  -28.3180  -21.9800   20.0240 C   0  0  0  0  0  2  0  0  0  0  0  0
  -29.3900  -20.8150   20.1370 C   0  0  0  0  0  2  0  0  0  0  0  0
  -28.8950  -19.4460   20.7550 C   0  0  0  0  0  2  0  0  0  0  0  0
  -29.4050  -18.0780   20.1410 C   0  0  0  0  0  2  0  0  0  0  0  0
  -30.1350  -17.0560   21.0960 C   0  0  0  0  0  2  0  0  0  0  0  0
  -30.5810  -14.5870   20.4670 C   0  0  0  0  0  0  0  0  0  0  0  0
  -30.3770  -12.3880   19.3500 C   0  0  0  0  0  2  0  0  0  0  0  0
  -29.4230  -12.4810   18.1400 C   0  0  0  0  0  2  0  0  0  0  0  0
  -27.9470  -12.3500   18.5680 C   0  0  0  0  0  2  0  0  0  0  0  0
  -27.5860  -13.2200   19.8020 C   0  0  0  0  0  3  0  0  0  0  0  0
  -28.6350  -13.0450   20.9220 C   0  0  0  0  0  2  0  0  0  0  0  0
  -29.9490  -13.3820   20.3490 N   0  0  0  0  0  0  0  0  0  0  0  0
  -31.7430  -14.7600   20.0880 O   0  0  0  0  0  0  0  0  0  0  0  0
  -29.7960  -15.6210   20.8720 N   0  0  0  0  0  0  0  0  0  0  0  0
  -28.8460  -15.3640   21.0950 H   0  0  0  0  0  0  0  0  0  0  0  0
  -25.1930  -13.8320   20.5090 C   0  0  0  0  0  0  0  0  0  0  0  0
  -24.1200  -13.0670   20.8800 C   0  0  0  0  0  0  0  0  0  0  0  0
  -24.5770  -11.7140   20.8610 C   0  0  0  0  0  0  0  0  0  0  0  0
  -26.2340  -12.9450   20.2850 N   0  0  0  0  0  0  0  0  0  0  0  0
  -25.8690  -11.6660   20.5570 N   0  0  0  0  0  0  0  0  0  0  0  0
  -23.8470  -10.4560   21.0620 C   0  0  0  0  0  0  0  0  0  0  0  0
  -24.2890   -9.4840   21.9860 C   0  0  0  0  0  3  0  0  0  0  0  0
  -23.5620   -8.2880   22.1700 C   0  0  0  0  0  3  0  0  0  0  0  0
  -22.3770   -8.0590   21.4320 C   0  0  0  0  0  0  0  0  0  0  0  0
  -21.9520   -9.0210   20.4990 C   0  0  0  0  0  3  0  0  0  0  0  0
  -22.6800  -10.2060   20.3120 C   0  0  0  0  0  3  0  0  0  0  0  0
  -21.6190   -6.9170   21.5280 O   0  0  0  0  0  0  0  0  0  0  0  0
  -21.6060   -6.1550   22.6680 C   0  0  0  0  0  0  0  0  0  0  0  0
  -21.2430   -6.6950   23.9210 C   0  0  0  0  0  3  0  0  0  0  0  0
  -21.1730   -5.8600   25.0540 C   0  0  0  0  0  3  0  0  0  0  0  0
  -21.4570   -4.4860   24.9360 C   0  0  0  0  0  0  0  0  0  0  0  0
  -21.8140   -3.9450   23.6890 C   0  0  0  0  0  3  0  0  0  0  0  0
  -21.8850   -4.7760   22.5570 C   0  0  0  0  0  0  0  0  0  0  0  0
  -22.2060   -4.2470   21.3520 F   0  0  0  0  0  0  0  0  0  0  0  0
  -21.3850   -3.6820   26.0240 F   0  0  0  0  0  0  0  0  0  0  0  0
  -22.7240  -13.5520   21.1400 C   0  0  0  0  0  0  0  0  0  0  0  0
  -21.9860  -12.8690   22.0070 N   0  0  0  0  0  0  0  0  0  0  0  0
  -22.2920  -14.5750   20.6070 O   0  0  0  0  0  0  0  0  0  0  0  0
  -22.3440  -12.0430   22.4630 H   0  0  0  0  0  0  0  0  0  0  0  0
  -21.0450  -13.1740   22.2140 H   0  0  0  0  0  0  0  0  0  0  0  0
  -25.3690  -15.2000   20.3160 N   0  0  0  0  0  0  0  0  0  0  0  0
  -24.6120  -15.8680   20.4000 H   0  0  0  0  0  0  0  0  0  0  0  0
  -26.2240  -15.6080   19.9590 H   0  0  0  0  0  0  0  0  0  0  0  0
  1  4  1  0
  2  6  1  0
  3  1  2  0
  4 53  1  0
  5  3  1  0
  5  2  2  0
  6  4  2  0
  6  9  1  0
  7  5  1  0
  8  7  1  0
 10 21  2  0
 11  9  1  0
 11 16  1  0
 12 20  1  0
 12 22  1  0
 13 19  1  0
 13 15  1  0
 14 20  1  0
 15 14  1  0
 16 15  2  0
 17 18  1  0
 17 11  2  0
 18 13  2  0
 19 12  1  0
 20 10  1  0
 22 24  2  0
 23 22  1  0
 25 23  1  0
 26 35  2  0
 26 31  1  0
 27 23  1  0
 27 31  1  0
 28 27  1  0
 29 30  1  0
 29 28  1  0
 30 26  1  0
 31 32  2  0
 32 33  1  0
 34 33  2  0
 35 34  1  0
 36 10  1  0
 36 41  1  0
 36 37  1  0
 37 40  1  1
 37 38  1  0
 39 37  1  0
 41 44  1  0
 42 46  1  0
 42 41  1  0
 43 42  2  0
 46 45  1  0
 48 46  1  0
 48 49  1  0
 48 47  1  0
 50 52  1  0
 50  3  1  0
 51 52  1  0
 54 55  1  0
 54 53  1  0
 55 56  1  0
 57 56  1  0
 57 58  1  0
 59 67  1  0
 60 65  1  0
 61 62  1  0
 61 60  1  0
 63 62  1  0
 63 72  1  0
 63 64  1  0
 65 59  1  0
 65 64  1  0
 66 59  2  0
 67 68  1  0
 67 58  1  0
 69 70  2  0
 70 89  1  0
 71 70  1  0
 71 74  1  0
 72 69  1  0
 72 73  1  0
 73 71  2  0
 74 75  1  0
 75 76  2  0
 77 80  1  0
 77 76  1  0
 78 77  2  0
 79 78  1  0
 79 74  2  0
 80 81  1  0
 81 82  1  0
 82 83  2  0
 84 83  1  0
 84 88  1  0
 85 84  2  0
 86 81  2  0
 86 85  1  0
 87 86  1  0
 89 90  1  0
 90 93  1  0
 90 92  1  0
 91 89  2  0
 94 95  1  0
 94 69  1  0
 96 94  1  0
M  ISO  4   6 101   9 101  59 100  67 100
M  END
>  <TORSDO>  (90) 
F 25

>  <SCORE>  (90) 
-12.195

>  <name>  (90) 
90

>  <ligand_id>  (90) 
90

>  <original_smiles>  (90) 
[H]Oc1c([H])c(Oc2c([H])c([H])c3c(c2[H])C([H])([H])N(C(=O)C([H])(N([H])C(=O)C([H])(N([H])C([H])([H])[H])C([H])([H])[H])C(C([H])([H])[H])(C([H])([H])[H])C([H])([H])[H])C([H])(C(=O)N([H])C2([H])c4c([H])c([H])c([H])c([H])c4C([H])([H])C([H])([H])C2([H])[H])C3([H])[H])c(C([H])([H])C([H])([H])C([H])([H])C([H])([H])C([H])([H])C([H])([H])N([H])C(=O)N2C([H])([H])C([H])([H])C([H])([H])C([H])(n3nc(-c4c([H])c([H])c(Oc5c([H])c([H])c(F)c([H])c5F)c([H])c4[H])c(C(=O)N([H])[H])c3N([H])[H])C2([H])[H])c([H])c1C([H])([H])C([H])([H])C([H])([H])[H]

>  <smiles>  (90) 
[H]Oc1c([H])c(Oc2c([H])c([H])c3c(c2[H])C([H])([H])N(C(=O)C([H])(N([H])C(=O)C([H])(N([H])C([H])([H])[H])C([H])([H])[H])C(C([H])([H])[H])(C([H])([H])[H])C([H])([H])[H])C([H])(C(=O)N([H])C2([H])c4c([H])c([H])c([H])c([H])c4C([H])([H])C([H])([H])C2([H])[H])C3([H])[H])c(C([H])([H])C([H])([H])C([H])([H])C([H])([H])C([H])([H])C([H])([H])N([H])C(=O)N2C([H])([H])C([H])([H])C([H])([H])C([H])(n3nc(-c4c([H])c([H])c(Oc5c([H])c([H])c(F)c([H])c5F)c([H])c4[H])c(C(=O)N([H])[H])c3N([H])[H])C2([H])[H])c([H])c1C([H])([H])C([H])([H])C([H])([H])[H]

$$$$
91:0:0
     RDKit          3D

 97105  0  0  1  0  0  0  0  0999 V2000
  -29.7180  -20.9370   18.5050 C   0  0  0  0  0  2  0  0  0  0  0  0
  -29.7210  -18.5680   21.6140 C   0  0  0  0  0  3  0  0  0  0  0  0
  -30.9540  -17.1220   20.0050 C   0  0  0  0  0  0  0  0  0  0  0  0
  -30.5000  -17.4170   21.3420 C   0  0  0  0  0  0  0  0  0  0  0  0
  -29.5070  -19.6220   20.7160 C   0  0  0  0  0  0  0  0  0  0  0  0
  -30.7580  -18.3060   19.0860 C   0  0  0  0  0  0  0  0  0  0  0  0
  -30.0820  -19.6100   19.4310 C   0  0  0  0  0  0  0  0  0  0  0  0
  -28.6170  -20.7700   21.1670 C   0  0  0  0  0  1  0  0  0  0  0  0
  -31.2490  -18.1320   17.6620 C   0  0  0  0  0  1  0  0  0  0  0  0
  -31.6890  -15.7030   19.6110 C   0  0  0  0  0  0  0  0  0  0  0  0
  -31.5540  -13.3710   18.5960 C   0  0  0  0  0  2  0  0  0  0  0  0
  -30.4820  -13.2770   17.4730 C   0  0  0  0  0  2  0  0  0  0  0  0
  -29.0560  -13.0710   18.0300 C   0  0  0  0  0  2  0  0  0  0  0  0
  -28.7870  -13.9680   19.2610 C   0  0  0  0  0  3  0  0  0  0  0  0
  -29.9420  -13.8460   20.2520 C   0  0  0  0  0  2  0  0  0  0  0  0
  -31.1320  -14.4090   19.5970 N   0  0  0  0  0  0  0  0  0  0  0  0
  -32.8320  -15.7570   19.1390 O   0  0  0  0  0  0  0  0  0  0  0  0
  -26.5660  -14.5900   20.3580 C   0  0  0  0  0  0  0  0  0  0  0  0
  -25.5220  -13.8340   20.8090 C   0  0  0  0  0  0  0  0  0  0  0  0
  -25.9000  -12.4720   20.5980 C   0  0  0  0  0  0  0  0  0  0  0  0
  -27.5080  -13.6900   19.8960 N   0  0  0  0  0  0  0  0  0  0  0  0
  -27.1260  -12.4050   20.1010 N   0  0  0  0  0  0  0  0  0  0  0  0
  -25.1440  -11.2290   20.7790 C   0  0  0  0  0  0  0  0  0  0  0  0
  -25.5210  -10.2590   21.7350 C   0  0  0  0  0  3  0  0  0  0  0  0
  -24.7680   -9.0760   21.8900 C   0  0  0  0  0  3  0  0  0  0  0  0
  -23.6160   -8.8590   21.0950 C   0  0  0  0  0  0  0  0  0  0  0  0
  -23.2590   -9.8170   20.1280 C   0  0  0  0  0  3  0  0  0  0  0  0
  -24.0140  -10.9900   19.9710 C   0  0  0  0  0  3  0  0  0  0  0  0
  -22.8300   -7.7360   21.1700 O   0  0  0  0  0  0  0  0  0  0  0  0
  -22.4990   -7.1630   22.3730 C   0  0  0  0  0  0  0  0  0  0  0  0
  -21.8560   -7.8950   23.3950 C   0  0  0  0  0  3  0  0  0  0  0  0
  -21.4820   -7.2500   24.5930 C   0  0  0  0  0  3  0  0  0  0  0  0
  -21.7330   -5.8740   24.7590 C   0  0  0  0  0  0  0  0  0  0  0  0
  -22.3620   -5.1420   23.7350 C   0  0  0  0  0  3  0  0  0  0  0  0
  -22.7420   -5.7870   22.5450 C   0  0  0  0  0  0  0  0  0  0  0  0
  -23.3350   -5.0750   21.5550 F   0  0  0  0  0  0  0  0  0  0  0  0
  -21.3630   -5.2500   25.9000 F   0  0  0  0  0  0  0  0  0  0  0  0
  -24.2020  -14.3420   21.3110 C   0  0  0  0  0  0  0  0  0  0  0  0
  -23.5990  -13.6330   22.2570 N   0  0  0  0  0  0  0  0  0  0  0  0
  -23.7250  -15.3990   20.8990 O   0  0  0  0  0  0  0  0  0  0  0  0
  -24.0120  -12.7840   22.6120 H   0  0  0  0  0  0  0  0  0  0  0  0
  -22.7100  -13.9400   22.6320 H   0  0  0  0  0  0  0  0  0  0  0  0
  -26.7890  -15.9630   20.2800 N   0  0  0  0  0  0  0  0  0  0  0  0
  -26.0870  -16.6320   20.5740 H   0  0  0  0  0  0  0  0  0  0  0  0
  -27.6170  -16.3960   19.8950 H   0  0  0  0  0  0  0  0  0  0  0  0
  -30.8500  -16.6100   22.6010 C   0  0  0  0  0  2  0  0  0  0  0  0
  -30.9310  -17.4200   23.9140 C   0  0  0  0  0  2  0  0  0  0  0  0
  -30.4470  -19.8050   24.6390 C   0  0  0  0  0  1  0  0  0  0  0  0
  -31.2060  -18.9070   23.6610 C   0  0  0  0  0  2  0  0  0  0  0  0
  -29.7700  -22.5560   18.9840 C   0  0  0  0  0  2  0  0  0  0  0  0
  -28.5770  -23.7570   19.1650 C   0  0  0  0  0  3  0  0  0  0  0  0
  -28.5000  -24.0840   20.6070 N   0  0  0  0  0  4  0  0  0  0  0  0
  -27.6580  -24.5890   20.8310 H   0  0  0  0  0  0  0  0  0  0  0  0
  -29.2740  -24.6690   20.8780 H   0  0  0  0  0  0  0  0  0  0  0  0
  -28.5180  -23.2530   21.1730 H   0  0  0  0  0  0  0  0  0  0  0  0
  -28.5040  -25.2470   18.3920 C   0  0  0  0  0  2  0  0  0  0  0  0
  -28.4720  -26.6710   19.0170 O   0  0  0  0  0  0  0  0  0  0  0  0
  -24.9240  -31.4950   23.2480 C   0  0  0  0  0  0  0  0  0  0  0  0
  -27.3730  -27.5820   19.1500 C   0  0  0  0  0  0  0  0  0  0  0  0
  -23.6550  -30.4710   21.3980 C   0  0  0  0  0  3  0  0  0  0  0  0
  -25.0340  -29.2450   19.6020 C   0  0  0  0  0  0  0  0  0  0  0  0
  -26.1970  -30.7880   21.1830 C   0  0  0  0  0  2  0  0  0  0  0  0
  -26.2360  -29.5680   20.2440 C   0  0  0  0  0  0  0  0  0  0  0  0
  -27.3970  -28.7510   20.0080 C   0  0  0  0  0  3  0  0  0  0  0  0
  -26.1420  -27.3480   18.4980 C   0  0  0  0  0  3  0  0  0  0  0  0
  -24.9970  -28.1490   18.7220 C   0  0  0  0  0  3  0  0  0  0  0  0
  -23.8050  -30.0920   19.8980 C   0  0  0  0  0  2  0  0  0  0  0  0
  -24.9500  -30.9290   22.0000 N   0  0  0  0  0  0  0  0  0  0  0  0
  -23.8600  -31.6460   23.8660 O   0  0  0  0  0  0  0  0  0  0  0  0
  -23.0250  -29.2780   22.1580 C   0  0  0  0  0  0  0  0  0  0  0  0
  -21.6970  -29.1080   22.0280 N   0  0  0  0  0  0  0  0  0  0  0  0
  -23.7300  -28.5130   22.8190 O   0  0  0  0  0  0  0  0  0  0  0  0
  -21.1830  -29.7850   21.4850 H   0  0  0  0  0  0  0  0  0  0  0  0
  -18.3750  -27.7000   22.2960 C   0  0  0  0  0  0  0  0  0  0  0  0
  -20.9190  -28.0140   22.6110 C   0  0  0  0  0  3  0  0  0  0  0  0
  -21.0720  -26.7180   21.7840 C   0  0  0  0  0  2  0  0  0  0  0  0
  -19.9850  -26.5570   20.7170 C   0  0  0  0  0  2  0  0  0  0  0  0
  -18.6030  -26.5190   21.3720 C   0  0  0  0  0  2  0  0  0  0  0  0
  -19.4630  -28.4160   22.8640 C   0  0  0  0  0  0  0  0  0  0  0  0
  -19.1970  -29.5380   23.6790 C   0  0  0  0  0  3  0  0  0  0  0  0
  -17.8730  -29.9520   23.9230 C   0  0  0  0  0  3  0  0  0  0  0  0
  -16.7980  -29.2260   23.3790 C   0  0  0  0  0  3  0  0  0  0  0  0
  -17.0510  -28.1010   22.5760 C   0  0  0  0  0  3  0  0  0  0  0  0
  -26.2250  -31.9970   23.9440 C   0  0  0  0  0  3  0  0  0  0  0  0
  -26.7880  -30.9810   25.0130 C   0  0  1  0  0  0  0  0  0  0  0  0
  -25.7380  -30.5200   26.0500 C   0  0  0  0  0  1  0  0  0  0  0  0
  -27.3510  -29.7210   24.3210 C   0  0  0  0  0  1  0  0  0  0  0  0
  -27.9660  -31.6270   25.7780 C   0  0  0  0  0  1  0  0  0  0  0  0
  -25.9210  -33.2890   24.5800 N   0  0  0  0  0  0  0  0  0  0  0  0
  -26.2830  -34.4840   24.0960 C   0  0  0  0  0  0  0  0  0  0  0  0
  -26.9720  -34.6090   23.0820 O   0  0  0  0  0  0  0  0  0  0  0  0
  -25.2980  -33.2610   25.3740 H   0  0  0  0  0  0  0  0  0  0  0  0
  -24.5920  -36.3480   24.1420 C   0  0  0  0  0  1  0  0  0  0  0  0
  -25.8080  -35.7390   24.8560 C   0  0  0  0  0  3  0  0  0  0  0  0
  -27.9400  -36.3660   25.9070 C   0  0  0  0  0  1  0  0  0  0  0  0
  -26.8630  -36.7680   25.0050 N   0  0  0  0  0  0  0  0  0  0  0  0
  -26.4690  -37.6410   25.3480 H   0  0  0  0  0  0  0  0  0  0  0  0
  1 50  1  0
  1  7  1  0
  3  4  2  0
  4  2  1  0
  4 46  1  0
  5  8  1  0
  5  2  2  0
  6  7  2  0
  6  3  1  0
  7  5  1  0
  9  6  1  0
 10  3  1  0
 11 16  1  0
 12 13  1  0
 12 11  1  0
 14 13  1  0
 14 21  1  0
 14 15  1  0
 16 10  1  0
 16 15  1  0
 17 10  2  0
 18 19  2  0
 19 38  1  0
 20 23  1  0
 20 19  1  0
 21 22  1  0
 21 18  1  0
 22 20  2  0
 23 24  1  0
 24 25  2  0
 26 29  1  0
 26 25  1  0
 27 26  2  0
 28 27  1  0
 28 23  2  0
 29 30  1  0
 30 35  2  0
 30 31  1  0
 31 32  2  0
 32 33  1  0
 33 37  1  0
 34 33  2  0
 35 34  1  0
 36 35  1  0
 38 39  1  0
 39 41  1  0
 39 42  1  0
 40 38  2  0
 43 18  1  0
 43 44  1  0
 45 43  1  0
 46 47  1  0
 49 47  1  0
 49 48  1  0
 50 51  1  0
 51 56  1  0
 51 52  1  0
 52 53  1  0
 52 54  1  0
 52 55  1  0
 56 57  1  0
 57 59  1  0
 58 69  2  0
 59 64  1  0
 60 68  1  0
 60 70  1  0
 61 67  1  0
 61 63  1  0
 62 68  1  0
 63 62  1  0
 64 63  2  0
 65 66  1  0
 65 59  2  0
 66 61  2  0
 67 60  1  0
 68 58  1  0
 70 72  2  0
 71 70  1  0
 73 71  1  0
 74 83  2  0
 74 79  1  0
 75 71  1  0
 75 79  1  0
 76 75  1  0
 77 78  1  0
 77 76  1  0
 78 74  1  0
 79 80  2  0
 80 81  1  0
 82 81  2  0
 83 82  1  0
 84 58  1  0
 84 89  1  0
 84 85  1  0
 85 88  1  1
 85 86  1  0
 87 85  1  0
 89 92  1  0
 90 89  1  0
 90 94  1  0
 91 90  2  0
 94 93  1  0
 94 96  1  0
 96 97  1  0
 96 95  1  0
M  ISO  4   3 100  10 100  56 101  57 101
M  END
>  <TORSDO>  (91) 
F 24

>  <SCORE>  (91) 
-6.842

>  <name>  (91) 
91

>  <ligand_id>  (91) 
91

>  <original_smiles>  (91) 
[H]c1c([H])c([H])c2c(c1[H])C([H])([H])C([H])([H])C([H])([H])C2([H])N([H])C(=O)C1([H])N(C(=O)C([H])(N([H])C(=O)C([H])(N([H])C([H])([H])[H])C([H])([H])[H])C(C([H])([H])[H])(C([H])([H])[H])C([H])([H])[H])C([H])([H])c2c([H])c(OC([H])([H])C([H])(C([H])([H])C([H])([H])c3c(C([H])([H])[H])c([H])c(C([H])([H])C([H])([H])C([H])([H])C([H])([H])[H])c(C(=O)N4C([H])([H])C([H])([H])C([H])([H])C([H])(n5nc(-c6c([H])c([H])c(Oc7c([H])c([H])c(F)c([H])c7F)c([H])c6[H])c(C(=O)N([H])[H])c5N([H])[H])C4([H])[H])c3C([H])([H])[H])[N+]([H])([H])[H])c([H])c([H])c2C1([H])[H]

>  <smiles>  (91) 
[H]c1c([H])c([H])c2c(c1[H])C([H])([H])C([H])([H])C([H])([H])C2([H])N([H])C(=O)C1([H])N(C(=O)C([H])(N([H])C(=O)C([H])(N([H])C([H])([H])[H])C([H])([H])[H])C(C([H])([H])[H])(C([H])([H])[H])C([H])([H])[H])C([H])([H])c2c([H])c(OC([H])([H])C([H])(C([H])([H])C([H])([H])c3c(C([H])([H])[H])c([H])c(C([H])([H])C([H])([H])C([H])([H])C([H])([H])[H])c(C(=O)N4C([H])([H])C([H])([H])C([H])([H])C([H])(n5nc(-c6c([H])c([H])c(Oc7c([H])c([H])c(F)c([H])c7F)c([H])c6[H])c(C(=O)N([H])[H])c5N([H])[H])C4([H])[H])c3C([H])([H])[H])[N+]([H])([H])[H])c([H])c([H])c2C1([H])[H]

$$$$
92:0:0
     RDKit          3D

 91 99  0  0  1  0  0  0  0  0999 V2000
  -28.3320  -25.1090   18.3530 C   0  0  0  0  0  3  0  0  0  0  0  0
  -28.5140  -23.8700   17.7110 C   0  0  0  0  0  0  0  0  0  0  0  0
  -28.9090  -22.7190   18.4520 C   0  0  0  0  0  0  0  0  0  0  0  0
  -29.0720  -22.7860   19.8700 C   0  0  0  0  0  0  0  0  0  0  0  0
  -28.8420  -24.0820   20.4970 C   0  0  0  0  0  0  0  0  0  0  0  0
  -28.4730  -25.2600   19.7420 C   0  0  0  0  0  0  0  0  0  0  0  0
  -28.2900  -23.8440   16.2040 C   0  0  0  0  0  1  0  0  0  0  0  0
  -29.2180  -21.4200   17.7140 C   0  0  0  0  0  1  0  0  0  0  0  0
  -29.0360  -24.2460   21.9970 C   0  0  0  0  0  1  0  0  0  0  0  0
  -28.3670  -26.5650   20.2780 O   0  0  0  0  0  0  0  0  0  0  0  0
  -24.5660  -31.9140   23.2610 C   0  0  0  0  0  0  0  0  0  0  0  0
  -27.2130  -27.3650   20.2170 C   0  0  0  0  0  0  0  0  0  0  0  0
  -23.3680  -30.4990   21.6290 C   0  0  0  0  0  3  0  0  0  0  0  0
  -24.8250  -28.9460   20.2160 C   0  0  0  0  0  0  0  0  0  0  0  0
  -25.9040  -30.8390   21.4300 C   0  0  0  0  0  2  0  0  0  0  0  0
  -25.9920  -29.4550   20.8000 C   0  0  0  0  0  0  0  0  0  0  0  0
  -27.1840  -28.6740   20.7900 C   0  0  0  0  0  3  0  0  0  0  0  0
  -26.0130  -26.9000   19.6290 C   0  0  0  0  0  3  0  0  0  0  0  0
  -24.8370  -27.6760   19.6230 C   0  0  0  0  0  3  0  0  0  0  0  0
  -23.5810  -29.8080   20.2570 C   0  0  0  0  0  2  0  0  0  0  0  0
  -24.6320  -31.1020   22.1640 N   0  0  0  0  0  0  0  0  0  0  0  0
  -23.4800  -32.1850   23.7970 O   0  0  0  0  0  0  0  0  0  0  0  0
  -22.7100  -29.4870   22.5960 C   0  0  0  0  0  0  0  0  0  0  0  0
  -21.3850  -29.3060   22.4700 N   0  0  0  0  0  0  0  0  0  0  0  0
  -23.3920  -28.8660   23.4150 O   0  0  0  0  0  0  0  0  0  0  0  0
  -20.8950  -29.8580   21.7810 H   0  0  0  0  0  0  0  0  0  0  0  0
  -18.0090  -28.1050   22.9680 C   0  0  0  0  0  0  0  0  0  0  0  0
  -20.5670  -28.3710   23.2420 C   0  0  0  0  0  3  0  0  0  0  0  0
  -20.6750  -26.9360   22.6730 C   0  0  0  0  0  2  0  0  0  0  0  0
  -19.5760  -26.6060   21.6580 C   0  0  0  0  0  2  0  0  0  0  0  0
  -18.1910  -26.7530   22.2980 C   0  0  0  0  0  2  0  0  0  0  0  0
  -19.1260  -28.8700   23.3970 C   0  0  0  0  0  0  0  0  0  0  0  0
  -18.9030  -30.1330   23.9850 C   0  0  0  0  0  3  0  0  0  0  0  0
  -17.5980  -30.6340   24.1450 C   0  0  0  0  0  3  0  0  0  0  0  0
  -16.4950  -29.8650   23.7370 C   0  0  0  0  0  3  0  0  0  0  0  0
  -16.7020  -28.6010   23.1560 C   0  0  0  0  0  3  0  0  0  0  0  0
  -25.8440  -32.5550   23.8840 C   0  0  0  0  0  3  0  0  0  0  0  0
  -25.5370  -33.9580   24.1910 N   0  0  0  0  0  0  0  0  0  0  0  0
  -25.8970  -34.9990   23.4290 C   0  0  0  0  0  0  0  0  0  0  0  0
  -26.5890  -34.8760   22.4140 O   0  0  0  0  0  0  0  0  0  0  0  0
  -24.9220  -34.1270   24.9740 H   0  0  0  0  0  0  0  0  0  0  0  0
  -24.2080  -36.8120   23.0000 C   0  0  0  0  0  1  0  0  0  0  0  0
  -25.4130  -36.3960   23.8600 C   0  0  0  0  0  3  0  0  0  0  0  0
  -27.5230  -37.2640   24.7620 C   0  0  0  0  0  1  0  0  0  0  0  0
  -26.4620  -37.4350   23.7750 N   0  0  0  0  0  0  0  0  0  0  0  0
  -26.0600  -38.3610   23.9010 H   0  0  0  0  0  0  0  0  0  0  0  0
  -26.3480  -31.8020   25.1780 C   0  0  1  0  0  0  0  0  0  0  0  0
  -25.2470  -31.5810   26.2400 C   0  0  0  0  0  1  0  0  0  0  0  0
  -26.9300  -30.4170   24.8110 C   0  0  0  0  0  1  0  0  0  0  0  0
  -27.4920  -32.6040   25.8410 C   0  0  0  0  0  1  0  0  0  0  0  0
  -29.6660  -21.5330   20.6590 C   0  0  0  0  0  2  0  0  0  0  0  0
  -28.9980  -20.0720   20.7060 C   0  0  0  0  0  2  0  0  0  0  0  0
  -29.7000  -18.8120   19.9980 C   0  0  0  0  0  2  0  0  0  0  0  0
  -30.1930  -17.5030   20.8000 C   0  0  0  0  0  2  0  0  0  0  0  0
  -29.5890  -16.0530   20.4670 C   0  0  0  0  0  2  0  0  0  0  0  0
  -30.5070  -14.7560   20.2820 C   0  0  0  0  0  0  0  0  0  0  0  0
  -30.3500  -12.5230   19.2030 C   0  0  0  0  0  2  0  0  0  0  0  0
  -29.3870  -12.6680   17.9990 C   0  0  0  0  0  2  0  0  0  0  0  0
  -27.9170  -12.4990   18.4310 C   0  0  0  0  0  2  0  0  0  0  0  0
  -27.5660  -13.3190   19.6980 C   0  0  0  0  0  3  0  0  0  0  0  0
  -28.6350  -13.1370   20.7940 C   0  0  0  0  0  2  0  0  0  0  0  0
  -29.9340  -13.5090   20.2190 N   0  0  0  0  0  0  0  0  0  0  0  0
  -31.6940  -14.9060   19.9710 O   0  0  0  0  0  0  0  0  0  0  0  0
  -25.1690  -13.8960   20.4170 C   0  0  0  0  0  0  0  0  0  0  0  0
  -24.1120  -13.1150   20.7910 C   0  0  0  0  0  0  0  0  0  0  0  0
  -24.5890  -11.7680   20.7710 C   0  0  0  0  0  0  0  0  0  0  0  0
  -26.2230  -13.0250   20.1860 N   0  0  0  0  0  0  0  0  0  0  0  0
  -25.8790  -11.7420   20.4610 N   0  0  0  0  0  0  0  0  0  0  0  0
  -23.8760  -10.5000   20.9730 C   0  0  0  0  0  0  0  0  0  0  0  0
  -24.3100   -9.5500   21.9240 C   0  0  0  0  0  3  0  0  0  0  0  0
  -23.5950   -8.3470   22.1100 C   0  0  0  0  0  3  0  0  0  0  0  0
  -22.4350   -8.0850   21.3420 C   0  0  0  0  0  0  0  0  0  0  0  0
  -22.0260   -9.0230   20.3770 C   0  0  0  0  0  3  0  0  0  0  0  0
  -22.7400  -10.2180   20.1910 C   0  0  0  0  0  3  0  0  0  0  0  0
  -21.6940   -6.9310   21.4320 O   0  0  0  0  0  0  0  0  0  0  0  0
  -21.6320   -6.2090   22.5960 C   0  0  0  0  0  0  0  0  0  0  0  0
  -21.1500   -6.7750   23.7980 C   0  0  0  0  0  3  0  0  0  0  0  0
  -21.0350   -5.9780   24.9550 C   0  0  0  0  0  3  0  0  0  0  0  0
  -21.3930   -4.6170   24.9110 C   0  0  0  0  0  0  0  0  0  0  0  0
  -21.8680   -4.0510   23.7140 C   0  0  0  0  0  3  0  0  0  0  0  0
  -21.9830   -4.8440   22.5580 C   0  0  0  0  0  0  0  0  0  0  0  0
  -22.4210   -4.2870   21.4030 F   0  0  0  0  0  0  0  0  0  0  0  0
  -21.2750   -3.8490   26.0200 F   0  0  0  0  0  0  0  0  0  0  0  0
  -22.7080  -13.5780   21.0580 C   0  0  0  0  0  0  0  0  0  0  0  0
  -21.9880  -12.8760   21.9220 N   0  0  0  0  0  0  0  0  0  0  0  0
  -22.2610  -14.5990   20.5360 O   0  0  0  0  0  0  0  0  0  0  0  0
  -22.3600  -12.0470   22.3610 H   0  0  0  0  0  0  0  0  0  0  0  0
  -21.0480  -13.1690   22.1460 H   0  0  0  0  0  0  0  0  0  0  0  0
  -25.3250  -15.2680   20.2330 N   0  0  0  0  0  0  0  0  0  0  0  0
  -24.5630  -15.9260   20.3370 H   0  0  0  0  0  0  0  0  0  0  0  0
  -26.1830  -15.7050   19.9220 H   0  0  0  0  0  0  0  0  0  0  0  0
  1  6  1  0
  2  1  2  0
  2  3  1  0
  3  4  2  0
  4  5  1  0
  4 51  1  0
  5  9  1  0
  6 10  1  0
  6  5  2  0
  7  2  1  0
  8  3  1  0
 11 22  2  0
 12 10  1  0
 12 17  1  0
 13 21  1  0
 13 23  1  0
 14 20  1  0
 14 16  1  0
 15 21  1  0
 16 15  1  0
 17 16  2  0
 18 12  2  0
 19 18  1  0
 19 14  2  0
 20 13  1  0
 21 11  1  0
 23 25  2  0
 24 23  1  0
 26 24  1  0
 27 36  2  0
 27 32  1  0
 28 24  1  0
 28 32  1  0
 29 28  1  0
 30 31  1  0
 30 29  1  0
 31 27  1  0
 32 33  2  0
 33 34  1  0
 35 34  2  0
 36 35  1  0
 37 11  1  0
 37 38  1  0
 37 47  1  0
 38 41  1  0
 39 43  1  0
 39 38  1  0
 40 39  2  0
 43 42  1  0
 45 43  1  0
 45 46  1  0
 45 44  1  0
 47 50  1  1
 47 48  1  0
 49 47  1  0
 51 52  1  0
 53 52  1  0
 53 54  1  0
 55 54  1  0
 56 55  1  0
 57 62  1  0
 58 59  1  0
 58 57  1  0
 60 59  1  0
 60 67  1  0
 60 61  1  0
 62 56  1  0
 62 61  1  0
 63 56  2  0
 64 65  2  0
 65 84  1  0
 66 65  1  0
 66 69  1  0
 67 64  1  0
 67 68  1  0
 68 66  2  0
 69 70  1  0
 70 71  2  0
 72 75  1  0
 72 71  1  0
 73 72  2  0
 74 73  1  0
 74 69  2  0
 75 76  1  0
 76 77  1  0
 77 78  2  0
 79 78  1  0
 79 83  1  0
 80 79  2  0
 81 76  2  0
 81 80  1  0
 82 81  1  0
 84 85  1  0
 85 88  1  0
 85 87  1  0
 86 84  2  0
 89 90  1  0
 89 64  1  0
 91 89  1  0
M  ISO  4   6 101  10 101  55 100  56 100
M  END
>  <TORSDO>  (92) 
F 21

>  <SCORE>  (92) 
-13.031

>  <name>  (92) 
92

>  <ligand_id>  (92) 
92

>  <original_smiles>  (92) 
[H]c1c([H])c([H])c2c(c1[H])C([H])([H])C([H])([H])C([H])([H])C2([H])N([H])C(=O)C1([H])N(C(=O)C([H])(N([H])C(=O)C([H])(N([H])C([H])([H])[H])C([H])([H])[H])C(C([H])([H])[H])(C([H])([H])[H])C([H])([H])[H])C([H])([H])c2c([H])c(Oc3c([H])c(C([H])([H])[H])c(C([H])([H])[H])c(C([H])([H])C([H])([H])C([H])([H])C([H])([H])C([H])([H])C(=O)N4C([H])([H])C([H])([H])C([H])([H])C([H])(n5nc(-c6c([H])c([H])c(Oc7c([H])c([H])c(F)c([H])c7F)c([H])c6[H])c(C(=O)N([H])[H])c5N([H])[H])C4([H])[H])c3C([H])([H])[H])c([H])c([H])c2C1([H])[H]

>  <smiles>  (92) 
[H]c1c([H])c([H])c2c(c1[H])C([H])([H])C([H])([H])C([H])([H])C2([H])N([H])C(=O)C1([H])N(C(=O)C([H])(N([H])C(=O)C([H])(N([H])C([H])([H])[H])C([H])([H])[H])C(C([H])([H])[H])(C([H])([H])[H])C([H])([H])[H])C([H])([H])c2c([H])c(Oc3c([H])c(C([H])([H])[H])c(C([H])([H])[H])c(C([H])([H])C([H])([H])C([H])([H])C([H])([H])C([H])([H])C(=O)N4C([H])([H])C([H])([H])C([H])([H])C([H])(n5nc(-c6c([H])c([H])c(Oc7c([H])c([H])c(F)c([H])c7F)c([H])c6[H])c(C(=O)N([H])[H])c5N([H])[H])C4([H])[H])c3C([H])([H])[H])c([H])c([H])c2C1([H])[H]

$$$$
93:0:0
     RDKit          3D

 92100  0  0  1  0  0  0  0  0999 V2000
  -29.6800  -24.4330   19.3310 C   0  0  0  0  0  3  0  0  0  0  0  0
  -29.2200  -21.9610   19.7970 C   0  0  0  0  0  0  0  0  0  0  0  0
  -30.0160  -23.0310   19.2380 C   0  0  0  0  0  0  0  0  0  0  0  0
  -28.0660  -22.4970   20.4920 C   0  0  0  0  0  0  0  0  0  0  0  0
  -27.7800  -23.9360   20.6370 C   0  0  0  0  0  0  0  0  0  0  0  0
  -28.5560  -24.9800   20.0110 C   0  0  0  0  0  0  0  0  0  0  0  0
  -31.3180  -22.7240   18.5090 C   0  0  0  0  0  1  0  0  0  0  0  0
  -27.0780  -21.5050   21.0980 C   0  0  0  0  0  1  0  0  0  0  0  0
  -26.6200  -24.3660   21.5200 C   0  0  0  0  0  1  0  0  0  0  0  0
  -29.5540  -20.4100   19.4260 C   0  0  0  0  0  0  0  0  0  0  0  0
  -29.8470  -20.1810   18.2490 O   0  0  0  0  0  0  0  0  0  0  0  0
  -29.5680  -19.0510   20.3400 C   0  0  0  0  0  2  0  0  0  0  0  0
  -30.3490  -17.6610   19.8090 C   0  0  0  0  0  2  0  0  0  0  0  0
  -30.7860  -15.0070   20.0190 C   0  0  0  0  0  0  0  0  0  0  0  0
  -30.5830  -12.7020   19.0280 C   0  0  0  0  0  2  0  0  0  0  0  0
  -29.6040  -12.7390   17.8340 C   0  0  0  0  0  2  0  0  0  0  0  0
  -28.1550  -12.5400   18.3200 C   0  0  0  0  0  2  0  0  0  0  0  0
  -27.8110  -13.4270   19.5450 C   0  0  0  0  0  3  0  0  0  0  0  0
  -28.9090  -13.3770   20.6290 C   0  0  0  0  0  2  0  0  0  0  0  0
  -30.1680  -13.7650   19.9850 N   0  0  0  0  0  0  0  0  0  0  0  0
  -31.9640  -15.0810   19.6580 O   0  0  0  0  0  0  0  0  0  0  0  0
  -30.0300  -16.1810   20.2220 N   0  0  0  0  0  0  0  0  0  0  0  0
  -29.0820  -16.0120   20.5280 H   0  0  0  0  0  0  0  0  0  0  0  0
  -25.4550  -14.0010   20.3720 C   0  0  0  0  0  0  0  0  0  0  0  0
  -24.4040  -13.2220   20.7700 C   0  0  0  0  0  0  0  0  0  0  0  0
  -24.8640  -11.8710   20.7010 C   0  0  0  0  0  0  0  0  0  0  0  0
  -26.4890  -13.1250   20.0840 N   0  0  0  0  0  0  0  0  0  0  0  0
  -26.1440  -11.8380   20.3460 N   0  0  0  0  0  0  0  0  0  0  0  0
  -24.1440  -10.6070   20.8970 C   0  0  0  0  0  0  0  0  0  0  0  0
  -24.5780   -9.6470   21.8400 C   0  0  0  0  0  3  0  0  0  0  0  0
  -23.8560   -8.4490   22.0250 C   0  0  0  0  0  3  0  0  0  0  0  0
  -22.6860   -8.2010   21.2680 C   0  0  0  0  0  0  0  0  0  0  0  0
  -22.2720   -9.1480   20.3160 C   0  0  0  0  0  3  0  0  0  0  0  0
  -22.9940  -10.3390   20.1280 C   0  0  0  0  0  3  0  0  0  0  0  0
  -21.9340   -7.0550   21.3630 O   0  0  0  0  0  0  0  0  0  0  0  0
  -21.8620   -6.3350   22.5290 C   0  0  0  0  0  0  0  0  0  0  0  0
  -21.3650   -6.9000   23.7230 C   0  0  0  0  0  3  0  0  0  0  0  0
  -21.2430   -6.1060   24.8810 C   0  0  0  0  0  3  0  0  0  0  0  0
  -21.6050   -4.7460   24.8440 C   0  0  0  0  0  0  0  0  0  0  0  0
  -22.0960   -4.1810   23.6540 C   0  0  0  0  0  3  0  0  0  0  0  0
  -22.2200   -4.9730   22.4990 C   0  0  0  0  0  0  0  0  0  0  0  0
  -22.6720   -4.4160   21.3500 F   0  0  0  0  0  0  0  0  0  0  0  0
  -21.4820   -3.9810   25.9540 F   0  0  0  0  0  0  0  0  0  0  0  0
  -23.0170  -13.6960   21.0960 C   0  0  0  0  0  0  0  0  0  0  0  0
  -22.3220  -12.9880   21.9780 N   0  0  0  0  0  0  0  0  0  0  0  0
  -22.5610  -14.7260   20.6010 O   0  0  0  0  0  0  0  0  0  0  0  0
  -22.7060  -12.1550   22.3970 H   0  0  0  0  0  0  0  0  0  0  0  0
  -21.3920  -13.2840   22.2380 H   0  0  0  0  0  0  0  0  0  0  0  0
  -25.6140  -15.3740   20.2050 N   0  0  0  0  0  0  0  0  0  0  0  0
  -24.8470  -16.0240   20.3370 H   0  0  0  0  0  0  0  0  0  0  0  0
  -26.4350  -15.8100   19.8080 H   0  0  0  0  0  0  0  0  0  0  0  0
  -28.4470  -26.4350   20.1220 O   0  0  0  0  0  0  0  0  0  0  0  0
  -24.6460  -31.8860   23.1950 C   0  0  0  0  0  0  0  0  0  0  0  0
  -27.3070  -27.2980   20.0960 C   0  0  0  0  0  0  0  0  0  0  0  0
  -23.4660  -30.4990   21.5280 C   0  0  0  0  0  3  0  0  0  0  0  0
  -24.9380  -28.9610   20.0850 C   0  0  0  0  0  0  0  0  0  0  0  0
  -26.0100  -30.8120   21.3710 C   0  0  0  0  0  2  0  0  0  0  0  0
  -26.1020  -29.4310   20.7050 C   0  0  0  0  0  0  0  0  0  0  0  0
  -27.2820  -28.6120   20.6990 C   0  0  0  0  0  3  0  0  0  0  0  0
  -26.1210  -26.9090   19.4390 C   0  0  0  0  0  3  0  0  0  0  0  0
  -24.9550  -27.7090   19.4410 C   0  0  0  0  0  3  0  0  0  0  0  0
  -23.6980  -29.8390   20.1400 C   0  0  0  0  0  2  0  0  0  0  0  0
  -24.7260  -31.0870   22.0880 N   0  0  0  0  0  0  0  0  0  0  0  0
  -23.5550  -32.1480   23.7260 O   0  0  0  0  0  0  0  0  0  0  0  0
  -22.8000  -29.4690   22.4720 C   0  0  0  0  0  0  0  0  0  0  0  0
  -21.4730  -29.2940   22.3460 N   0  0  0  0  0  0  0  0  0  0  0  0
  -23.4790  -28.8290   23.2800 O   0  0  0  0  0  0  0  0  0  0  0  0
  -20.9850  -29.8610   21.6670 H   0  0  0  0  0  0  0  0  0  0  0  0
  -18.0960  -28.0970   22.8440 C   0  0  0  0  0  0  0  0  0  0  0  0
  -20.6570  -28.3400   23.1000 C   0  0  0  0  0  3  0  0  0  0  0  0
  -20.7510  -26.9240   22.4840 C   0  0  0  0  0  2  0  0  0  0  0  0
  -19.6380  -26.6350   21.4720 C   0  0  0  0  0  2  0  0  0  0  0  0
  -18.2620  -26.7670   22.1290 C   0  0  0  0  0  2  0  0  0  0  0  0
  -19.2200  -28.8440   23.2850 C   0  0  0  0  0  0  0  0  0  0  0  0
  -19.0080  -30.0920   23.9120 C   0  0  0  0  0  3  0  0  0  0  0  0
  -17.7050  -30.5880   24.1070 C   0  0  0  0  0  3  0  0  0  0  0  0
  -16.5950  -29.8360   23.6840 C   0  0  0  0  0  3  0  0  0  0  0  0
  -16.7930  -28.5940   23.0560 C   0  0  0  0  0  3  0  0  0  0  0  0
  -25.9170  -32.5240   23.8360 C   0  0  0  0  0  3  0  0  0  0  0  0
  -26.4100  -31.7590   25.1270 C   0  0  1  0  0  0  0  0  0  0  0  0
  -25.2980  -31.5290   26.1760 C   0  0  0  0  0  1  0  0  0  0  0  0
  -27.0010  -30.3800   24.7530 C   0  0  0  0  0  1  0  0  0  0  0  0
  -27.5450  -32.5590   25.8090 C   0  0  0  0  0  1  0  0  0  0  0  0
  -25.6020  -33.9220   24.1620 N   0  0  0  0  0  0  0  0  0  0  0  0
  -25.9260  -34.9760   23.4010 C   0  0  0  0  0  0  0  0  0  0  0  0
  -26.5950  -34.8730   22.3700 O   0  0  0  0  0  0  0  0  0  0  0  0
  -25.0160  -34.0760   24.9700 H   0  0  0  0  0  0  0  0  0  0  0  0
  -24.1910  -36.7610   23.0450 C   0  0  0  0  0  1  0  0  0  0  0  0
  -25.4340  -36.3630   23.8570 C   0  0  0  0  0  3  0  0  0  0  0  0
  -27.5620  -37.2660   24.6890 C   0  0  0  0  0  1  0  0  0  0  0  0
  -26.4630  -37.4210   23.7410 N   0  0  0  0  0  0  0  0  0  0  0  0
  -26.0500  -38.3400   23.8820 H   0  0  0  0  0  0  0  0  0  0  0  0
  1  6  1  0
  2  4  2  0
  3  1  2  0
  3  2  1  0
  4  5  1  0
  4  8  1  0
  5  9  1  0
  6 52  1  0
  6  5  2  0
  7  3  1  0
 10  2  1  0
 10 12  1  0
 11 10  2  0
 13 22  1  0
 13 12  1  0
 14 22  1  0
 15 20  1  0
 16 17  1  0
 16 15  1  0
 18 17  1  0
 18 27  1  0
 18 19  1  0
 20 14  1  0
 20 19  1  0
 21 14  2  0
 22 23  1  0
 24 25  2  0
 25 44  1  0
 26 25  1  0
 26 29  1  0
 27 28  1  0
 27 24  1  0
 28 26  2  0
 29 30  1  0
 30 31  2  0
 32 35  1  0
 32 31  1  0
 33 32  2  0
 34 33  1  0
 34 29  2  0
 35 36  1  0
 36 37  1  0
 37 38  2  0
 39 38  1  0
 39 43  1  0
 40 39  2  0
 41 36  2  0
 41 40  1  0
 42 41  1  0
 44 45  1  0
 45 48  1  0
 45 47  1  0
 46 44  2  0
 49 50  1  0
 49 24  1  0
 51 49  1  0
 53 64  2  0
 54 52  1  0
 54 59  1  0
 55 63  1  0
 55 65  1  0
 56 62  1  0
 56 58  1  0
 57 63  1  0
 58 57  1  0
 59 58  2  0
 60 61  1  0
 60 54  2  0
 61 56  2  0
 62 55  1  0
 63 53  1  0
 65 67  2  0
 66 65  1  0
 68 66  1  0
 69 78  2  0
 69 74  1  0
 70 66  1  0
 70 74  1  0
 71 70  1  0
 72 73  1  0
 72 71  1  0
 73 69  1  0
 74 75  2  0
 75 76  1  0
 77 76  2  0
 78 77  1  0
 79 53  1  0
 79 84  1  0
 79 80  1  0
 80 83  1  1
 80 81  1  0
 82 80  1  0
 84 87  1  0
 85 89  1  0
 85 84  1  0
 86 85  2  0
 89 88  1  0
 91 89  1  0
 91 92  1  0
 91 90  1  0
M  ISO  4   6 101  14 100  22 100  52 101
M  END
>  <TORSDO>  (93) 
F 19

>  <SCORE>  (93) 
-13.269

>  <name>  (93) 
93

>  <ligand_id>  (93) 
93

>  <original_smiles>  (93) 
[H]c1c([H])c([H])c2c(c1[H])C([H])([H])C([H])([H])C([H])([H])C2([H])N([H])C(=O)C1([H])N(C(=O)C([H])(N([H])C(=O)C([H])(N([H])C([H])([H])[H])C([H])([H])[H])C(C([H])([H])[H])(C([H])([H])[H])C([H])([H])[H])C([H])([H])c2c([H])c(Oc3c([H])c(C([H])([H])[H])c(C(=O)C([H])([H])C([H])([H])N([H])C(=O)N4C([H])([H])C([H])([H])C([H])([H])C([H])(n5nc(-c6c([H])c([H])c(Oc7c([H])c([H])c(F)c([H])c7F)c([H])c6[H])c(C(=O)N([H])[H])c5N([H])[H])C4([H])[H])c(C([H])([H])[H])c3C([H])([H])[H])c([H])c([H])c2C1([H])[H]

>  <smiles>  (93) 
[H]c1c([H])c([H])c2c(c1[H])C([H])([H])C([H])([H])C([H])([H])C2([H])N([H])C(=O)C1([H])N(C(=O)C([H])(N([H])C(=O)C([H])(N([H])C([H])([H])[H])C([H])([H])[H])C(C([H])([H])[H])(C([H])([H])[H])C([H])([H])[H])C([H])([H])c2c([H])c(Oc3c([H])c(C([H])([H])[H])c(C(=O)C([H])([H])C([H])([H])N([H])C(=O)N4C([H])([H])C([H])([H])C([H])([H])C([H])(n5nc(-c6c([H])c([H])c(Oc7c([H])c([H])c(F)c([H])c7F)c([H])c6[H])c(C(=O)N([H])[H])c5N([H])[H])C4([H])[H])c(C([H])([H])[H])c3C([H])([H])[H])c([H])c([H])c2C1([H])[H]

$$$$
94:0:0
     RDKit          3D

 97105  0  0  1  0  0  0  0  0999 V2000
  -28.1680  -20.7210   17.8990 C   0  0  0  0  0  3  0  0  0  0  0  0
  -28.9250  -21.8760   17.6330 C   0  0  0  0  0  3  0  0  0  0  0  0
  -26.9770  -23.2470   18.1240 C   0  0  0  0  0  3  0  0  0  0  0  0
  -26.8060  -20.8140   18.2710 C   0  0  0  0  0  0  0  0  0  0  0  0
  -26.1960  -22.0980   18.3650 C   0  0  0  0  0  0  0  0  0  0  0  0
  -28.3330  -23.1430   17.7620 C   0  0  0  0  0  0  0  0  0  0  0  0
  -26.0680  -19.5130   18.5650 C   0  0  0  0  0  2  0  0  0  0  0  0
  -26.5740  -18.7970   19.8420 C   0  0  0  0  0  2  0  0  0  0  0  0
  -27.5850  -17.6410   19.4840 C   0  0  0  0  0  2  0  0  0  0  0  0
  -28.5670  -16.8320   20.4110 C   0  0  0  0  0  2  0  0  0  0  0  0
  -30.3700  -15.1030   19.8240 C   0  0  0  0  0  0  0  0  0  0  0  0
  -30.3090  -12.7530   19.1190 C   0  0  0  0  0  2  0  0  0  0  0  0
  -29.3190  -12.6240   17.9420 C   0  0  0  0  0  2  0  0  0  0  0  0
  -27.8850  -12.4020   18.4630 C   0  0  0  0  0  2  0  0  0  0  0  0
  -27.4780  -13.4200   19.5660 C   0  0  0  0  0  3  0  0  0  0  0  0
  -28.5850  -13.4970   20.6420 C   0  0  0  0  0  2  0  0  0  0  0  0
  -29.8280  -13.8620   19.9560 N   0  0  0  0  0  0  0  0  0  0  0  0
  -31.5200  -15.2790   19.4200 O   0  0  0  0  0  0  0  0  0  0  0  0
  -29.5110  -16.1050   19.5560 N   0  0  0  0  0  0  0  0  0  0  0  0
  -29.9530  -16.7370   18.9060 H   0  0  0  0  0  0  0  0  0  0  0  0
  -25.1400  -13.9380   20.5080 C   0  0  0  0  0  0  0  0  0  0  0  0
  -24.1230  -13.1280   20.9310 C   0  0  0  0  0  0  0  0  0  0  0  0
  -24.5980  -11.7900   20.7750 C   0  0  0  0  0  0  0  0  0  0  0  0
  -26.1770  -13.0940   20.1440 N   0  0  0  0  0  0  0  0  0  0  0  0
  -25.8570  -11.7920   20.3540 N   0  0  0  0  0  0  0  0  0  0  0  0
  -23.9070  -10.5080   20.9440 C   0  0  0  0  0  0  0  0  0  0  0  0
  -24.3730   -9.5330   21.8510 C   0  0  0  0  0  3  0  0  0  0  0  0
  -23.6790   -8.3140   22.0110 C   0  0  0  0  0  3  0  0  0  0  0  0
  -22.5060   -8.0620   21.2590 C   0  0  0  0  0  0  0  0  0  0  0  0
  -22.0600   -9.0280   20.3400 C   0  0  0  0  0  3  0  0  0  0  0  0
  -22.7560  -10.2380   20.1790 C   0  0  0  0  0  3  0  0  0  0  0  0
  -21.7830   -6.8960   21.3300 O   0  0  0  0  0  0  0  0  0  0  0  0
  -21.6930   -6.1750   22.4940 C   0  0  0  0  0  0  0  0  0  0  0  0
  -21.1530   -6.7280   23.6770 C   0  0  0  0  0  3  0  0  0  0  0  0
  -21.0180   -5.9290   24.8290 C   0  0  0  0  0  3  0  0  0  0  0  0
  -21.4140   -4.5790   24.8000 C   0  0  0  0  0  0  0  0  0  0  0  0
  -21.9490   -4.0260   23.6220 C   0  0  0  0  0  3  0  0  0  0  0  0
  -22.0850   -4.8230   22.4720 C   0  0  0  0  0  0  0  0  0  0  0  0
  -22.5800   -4.2800   21.3340 F   0  0  0  0  0  0  0  0  0  0  0  0
  -21.2780   -3.8070   25.9030 F   0  0  0  0  0  0  0  0  0  0  0  0
  -22.7510  -13.5630   21.3570 C   0  0  0  0  0  0  0  0  0  0  0  0
  -22.1150  -12.8030   22.2430 N   0  0  0  0  0  0  0  0  0  0  0  0
  -22.2540  -14.6100   20.9430 O   0  0  0  0  0  0  0  0  0  0  0  0
  -22.5320  -11.9520   22.5930 H   0  0  0  0  0  0  0  0  0  0  0  0
  -21.1990  -13.0730   22.5750 H   0  0  0  0  0  0  0  0  0  0  0  0
  -25.2520  -15.3150   20.3820 N   0  0  0  0  0  0  0  0  0  0  0  0
  -24.4860  -15.9430   20.5890 H   0  0  0  0  0  0  0  0  0  0  0  0
  -26.0620  -15.7850   19.9990 H   0  0  0  0  0  0  0  0  0  0  0  0
  -24.7330  -22.3140   18.7550 C   0  0  0  0  0  2  0  0  0  0  0  0
  -23.8580  -22.9630   17.6600 C   0  0  0  0  0  2  0  0  0  0  0  0
  -24.0690  -24.4820   17.4960 C   0  0  0  0  0  2  0  0  0  0  0  0
  -23.1640  -26.6810   16.5840 C   0  0  0  0  0  1  0  0  0  0  0  0
  -23.0070  -25.1560   16.6160 C   0  0  0  0  0  2  0  0  0  0  0  0
  -29.0760  -24.2720   17.5660 O   0  0  0  0  0  0  0  0  0  0  0  0
  -29.5540  -24.8270   18.7850 C   0  0  0  0  0  2  0  0  0  0  0  0
  -29.5190  -26.3570   18.7350 C   0  0  0  0  0  2  0  0  0  0  0  0
  -29.0080  -26.8740   19.9580 O   0  0  0  0  0  0  0  0  0  0  0  0
  -24.7860  -31.5590   23.1660 C   0  0  0  0  0  0  0  0  0  0  0  0
  -27.7740  -27.4770   19.9410 C   0  0  0  0  0  0  0  0  0  0  0  0
  -23.7140  -30.2180   21.3830 C   0  0  0  0  0  3  0  0  0  0  0  0
  -25.2950  -28.8260   19.9430 C   0  0  0  0  0  0  0  0  0  0  0  0
  -26.2250  -30.6960   21.3290 C   0  0  0  0  0  2  0  0  0  0  0  0
  -26.3970  -29.3730   20.6160 C   0  0  0  0  0  0  0  0  0  0  0  0
  -27.6310  -28.6990   20.6270 C   0  0  0  0  0  3  0  0  0  0  0  0
  -26.6560  -26.9150   19.2790 C   0  0  0  0  0  3  0  0  0  0  0  0
  -25.4160  -27.5890   19.2820 C   0  0  0  0  0  3  0  0  0  0  0  0
  -24.0130  -29.6250   19.9790 C   0  0  0  0  0  2  0  0  0  0  0  0
  -24.9230  -30.8360   22.0190 N   0  0  0  0  0  0  0  0  0  0  0  0
  -23.6730  -31.7530   23.6730 O   0  0  0  0  0  0  0  0  0  0  0  0
  -23.0610  -29.1190   22.2520 C   0  0  0  0  0  0  0  0  0  0  0  0
  -21.7370  -28.9560   22.1080 N   0  0  0  0  0  0  0  0  0  0  0  0
  -23.7410  -28.4210   23.0080 O   0  0  0  0  0  0  0  0  0  0  0  0
  -21.2520  -29.5710   21.4700 H   0  0  0  0  0  0  0  0  0  0  0  0
  -18.3500  -27.7920   22.5610 C   0  0  0  0  0  0  0  0  0  0  0  0
  -20.9190  -27.9530   22.7860 C   0  0  0  0  0  3  0  0  0  0  0  0
  -20.9690  -26.5980   22.0440 C   0  0  0  0  0  2  0  0  0  0  0  0
  -19.8310  -26.4210   21.0310 C   0  0  0  0  0  2  0  0  0  0  0  0
  -18.4710  -26.5230   21.7320 C   0  0  0  0  0  2  0  0  0  0  0  0
  -19.5000  -28.4710   23.0420 C   0  0  0  0  0  0  0  0  0  0  0  0
  -19.3320  -29.6670   23.7730 C   0  0  0  0  0  3  0  0  0  0  0  0
  -18.0460  -30.1770   24.0320 C   0  0  0  0  0  3  0  0  0  0  0  0
  -16.9120  -29.4910   23.5700 C   0  0  0  0  0  3  0  0  0  0  0  0
  -17.0640  -28.2980   22.8400 C   0  0  0  0  0  3  0  0  0  0  0  0
  -26.0170  -32.1960   23.8860 C   0  0  0  0  0  3  0  0  0  0  0  0
  -26.5020  -31.3690   25.1420 C   0  0  1  0  0  0  0  0  0  0  0  0
  -25.3690  -31.0450   26.1450 C   0  0  0  0  0  1  0  0  0  0  0  0
  -27.1410  -30.0320   24.7010 C   0  0  0  0  0  1  0  0  0  0  0  0
  -27.6040  -32.1530   25.8930 C   0  0  0  0  0  1  0  0  0  0  0  0
  -25.6450  -33.5630   24.2730 N   0  0  0  0  0  0  0  0  0  0  0  0
  -26.0030  -34.6660   23.6040 C   0  0  0  0  0  0  0  0  0  0  0  0
  -26.7470  -34.6420   22.6200 O   0  0  0  0  0  0  0  0  0  0  0  0
  -24.9900  -33.6540   25.0340 H   0  0  0  0  0  0  0  0  0  0  0  0
  -24.2470  -36.4280   23.2330 C   0  0  0  0  0  1  0  0  0  0  0  0
  -25.4430  -36.0120   24.1050 C   0  0  0  0  0  3  0  0  0  0  0  0
  -27.4840  -36.9070   25.1350 C   0  0  0  0  0  1  0  0  0  0  0  0
  -26.4480  -37.0980   24.1240 N   0  0  0  0  0  0  0  0  0  0  0  0
  -26.0060  -37.9990   24.2880 H   0  0  0  0  0  0  0  0  0  0  0  0
  1  4  1  0
  2  6  1  0
  2  1  2  0
  3  5  1  0
  4  5  2  0
  4  7  1  0
  5 49  1  0
  6  3  2  0
  7  8  1  0
  9  8  1  0
  9 10  1  0
 11 17  1  0
 12 17  1  0
 13 14  1  0
 13 12  1  0
 15 14  1  0
 15 24  1  0
 15 16  1  0
 17 16  1  0
 18 11  2  0
 19 11  1  0
 19 10  1  0
 20 19  1  0
 21 22  2  0
 22 41  1  0
 23 22  1  0
 23 26  1  0
 24 25  1  0
 24 21  1  0
 25 23  2  0
 26 27  1  0
 27 28  2  0
 29 32  1  0
 29 28  1  0
 30 29  2  0
 31 30  1  0
 31 26  2  0
 32 33  1  0
 33 34  1  0
 34 35  2  0
 36 35  1  0
 36 40  1  0
 37 36  2  0
 38 33  2  0
 38 37  1  0
 39 38  1  0
 41 42  1  0
 42 45  1  0
 42 44  1  0
 43 41  2  0
 46 21  1  0
 46 47  1  0
 48 46  1  0
 50 49  1  0
 51 50  1  0
 52 53  1  0
 53 51  1  0
 54  6  1  0
 54 55  1  0
 56 55  1  0
 56 57  1  0
 58 69  2  0
 59 57  1  0
 59 64  1  0
 60 68  1  0
 60 70  1  0
 61 67  1  0
 61 63  1  0
 62 68  1  0
 63 64  2  0
 63 62  1  0
 65 66  1  0
 65 59  2  0
 66 61  2  0
 67 60  1  0
 68 58  1  0
 70 72  2  0
 71 70  1  0
 73 71  1  0
 74 83  2  0
 74 79  1  0
 75 71  1  0
 75 79  1  0
 76 75  1  0
 77 78  1  0
 77 76  1  0
 78 74  1  0
 79 80  2  0
 80 81  1  0
 82 81  2  0
 83 82  1  0
 84 58  1  0
 84 89  1  0
 84 85  1  0
 85 88  1  1
 85 86  1  0
 87 85  1  0
 89 92  1  0
 90 94  1  0
 90 89  1  0
 91 90  2  0
 94 93  1  0
 94 96  1  0
 96 97  1  0
 96 95  1  0
M  ISO  4  11 100  19 100  56 101  57 101
M  END
>  <TORSDO>  (94) 
F 27

>  <SCORE>  (94) 
-10.967

>  <name>  (94) 
94

>  <ligand_id>  (94) 
94

>  <original_smiles>  (94) 
[H]c1c([H])c([H])c2c(c1[H])C([H])([H])C([H])([H])C([H])([H])C2([H])N([H])C(=O)C1([H])N(C(=O)C([H])(N([H])C(=O)C([H])(N([H])C([H])([H])[H])C([H])([H])[H])C(C([H])([H])[H])(C([H])([H])[H])C([H])([H])[H])C([H])([H])c2c([H])c(OC([H])([H])C([H])([H])Oc3c([H])c([H])c(C([H])([H])C([H])([H])C([H])([H])C([H])([H])N([H])C(=O)N4C([H])([H])C([H])([H])C([H])([H])C([H])(n5nc(-c6c([H])c([H])c(Oc7c([H])c([H])c(F)c([H])c7F)c([H])c6[H])c(C(=O)N([H])[H])c5N([H])[H])C4([H])[H])c(C([H])([H])C([H])([H])C([H])([H])C([H])([H])C([H])([H])[H])c3[H])c([H])c([H])c2C1([H])[H]

>  <smiles>  (94) 
[H]c1c([H])c([H])c2c(c1[H])C([H])([H])C([H])([H])C([H])([H])C2([H])N([H])C(=O)C1([H])N(C(=O)C([H])(N([H])C(=O)C([H])(N([H])C([H])([H])[H])C([H])([H])[H])C(C([H])([H])[H])(C([H])([H])[H])C([H])([H])[H])C([H])([H])c2c([H])c(OC([H])([H])C([H])([H])Oc3c([H])c([H])c(C([H])([H])C([H])([H])C([H])([H])C([H])([H])N([H])C(=O)N4C([H])([H])C([H])([H])C([H])([H])C([H])(n5nc(-c6c([H])c([H])c(Oc7c([H])c([H])c(F)c([H])c7F)c([H])c6[H])c(C(=O)N([H])[H])c5N([H])[H])C4([H])[H])c(C([H])([H])C([H])([H])C([H])([H])C([H])([H])C([H])([H])[H])c3[H])c([H])c([H])c2C1([H])[H]

$$$$
95:0:0
     RDKit          3D

 91100  0  0  1  0  0  0  0  0999 V2000
  -29.8730  -22.2870   20.1630 C   0  0  0  0  0  3  0  0  0  0  0  0
  -27.6290  -21.9650   20.4590 C   0  0  0  0  0  3  0  0  0  0  0  0
  -28.8810  -21.2340   20.3420 C   0  0  0  0  0  0  0  0  0  0  0  0
  -29.6270  -23.7660   20.1170 C   0  0  0  0  0  0  0  0  0  0  0  0
  -27.3650  -23.4280   20.4470 C   0  0  0  0  0  0  0  0  0  0  0  0
  -28.3550  -24.4860   20.2750 C   0  0  0  0  0  0  0  0  0  0  0  0
  -30.8330  -24.6490   19.8350 C   0  0  0  0  0  1  0  0  0  0  0  0
  -25.9150  -23.8130   20.6340 C   0  0  0  0  0  1  0  0  0  0  0  0
  -28.2610  -26.0240   20.2650 O   0  0  0  0  0  0  0  0  0  0  0  0
  -24.6040  -31.9030   23.2630 C   0  0  0  0  0  0  0  0  0  0  0  0
  -27.1860  -27.0510   20.2450 C   0  0  0  0  0  0  0  0  0  0  0  0
  -23.4190  -30.5110   21.6140 C   0  0  0  0  0  3  0  0  0  0  0  0
  -24.8760  -28.9100   20.1950 C   0  0  0  0  0  0  0  0  0  0  0  0
  -25.9810  -30.7190   21.4910 C   0  0  0  0  0  2  0  0  0  0  0  0
  -26.0500  -29.3090   20.8440 C   0  0  0  0  0  0  0  0  0  0  0  0
  -27.1920  -28.3950   20.8560 C   0  0  0  0  0  3  0  0  0  0  0  0
  -26.0040  -26.8230   19.5070 C   0  0  0  0  0  3  0  0  0  0  0  0
  -24.8770  -27.6860   19.5070 C   0  0  0  0  0  3  0  0  0  0  0  0
  -23.6530  -29.8260   20.2370 C   0  0  0  0  0  2  0  0  0  0  0  0
  -24.6890  -31.0730   22.1750 N   0  0  0  0  0  0  0  0  0  0  0  0
  -23.5110  -32.1980   23.7750 O   0  0  0  0  0  0  0  0  0  0  0  0
  -22.7180  -29.5160   22.5750 C   0  0  0  0  0  0  0  0  0  0  0  0
  -21.3890  -29.3430   22.4280 N   0  0  0  0  0  0  0  0  0  0  0  0
  -23.3740  -28.8960   23.4130 O   0  0  0  0  0  0  0  0  0  0  0  0
  -20.9170  -29.8940   21.7280 H   0  0  0  0  0  0  0  0  0  0  0  0
  -18.0030  -28.1230   22.8870 C   0  0  0  0  0  0  0  0  0  0  0  0
  -20.5580  -28.4060   23.1920 C   0  0  0  0  0  3  0  0  0  0  0  0
  -20.6780  -26.9720   22.6290 C   0  0  0  0  0  2  0  0  0  0  0  0
  -19.5950  -26.6370   21.5990 C   0  0  0  0  0  2  0  0  0  0  0  0
  -18.2020  -26.7730   22.2190 C   0  0  0  0  0  2  0  0  0  0  0  0
  -19.1110  -28.8970   23.3280 C   0  0  0  0  0  0  0  0  0  0  0  0
  -18.8710  -30.1620   23.9130 C   0  0  0  0  0  3  0  0  0  0  0  0
  -17.5580  -30.6490   24.0600 C   0  0  0  0  0  3  0  0  0  0  0  0
  -16.4660  -29.8730   23.6330 C   0  0  0  0  0  3  0  0  0  0  0  0
  -16.6910  -28.6120   23.0520 C   0  0  0  0  0  3  0  0  0  0  0  0
  -25.8750  -32.5390   23.9070 C   0  0  0  0  0  3  0  0  0  0  0  0
  -25.5650  -33.9450   24.2290 N   0  0  0  0  0  0  0  0  0  0  0  0
  -25.8800  -34.9950   23.4610 C   0  0  0  0  0  0  0  0  0  0  0  0
  -26.5270  -34.8860   22.4160 O   0  0  0  0  0  0  0  0  0  0  0  0
  -24.9940  -34.1050   25.0460 H   0  0  0  0  0  0  0  0  0  0  0  0
  -24.1340  -36.7830   23.1580 C   0  0  0  0  0  1  0  0  0  0  0  0
  -25.4070  -36.3890   23.9230 C   0  0  0  0  0  3  0  0  0  0  0  0
  -27.5630  -37.3010   24.6660 C   0  0  0  0  0  1  0  0  0  0  0  0
  -26.4290  -37.4460   23.7570 N   0  0  0  0  0  0  0  0  0  0  0  0
  -26.0230  -38.3660   23.9020 H   0  0  0  0  0  0  0  0  0  0  0  0
  -26.3630  -31.7800   25.2020 C   0  0  1  0  0  0  0  0  0  0  0  0
  -25.2490  -31.5590   26.2530 C   0  0  0  0  0  1  0  0  0  0  0  0
  -26.9460  -30.3950   24.8420 C   0  0  0  0  0  1  0  0  0  0  0  0
  -27.5060  -32.5740   25.8770 C   0  0  0  0  0  1  0  0  0  0  0  0
  -28.9210  -19.4830   20.4110 C   0  0  0  0  0  2  0  0  0  0  0  0
  -31.4550  -18.5340   20.8610 C   0  0  0  0  0  2  0  0  0  0  0  0
  -31.2420  -18.4770   19.3780 C   0  0  0  0  0  2  0  0  0  0  0  0
  -30.0800  -18.1780   20.3180 C   0  0  2  0  0  0  0  0  0  0  0  0
  -30.4570  -15.2980   20.2420 C   0  0  0  0  0  0  0  0  0  0  0  0
  -30.3710  -12.8990   19.2850 C   0  0  0  0  0  2  0  0  0  0  0  0
  -29.4120  -12.7470   18.0820 C   0  0  0  0  0  2  0  0  0  0  0  0
  -27.9760  -12.4690   18.5580 C   0  0  0  0  0  2  0  0  0  0  0  0
  -27.5620  -13.3920   19.7320 C   0  0  0  0  0  3  0  0  0  0  0  0
  -28.6470  -13.5020   20.8250 C   0  0  0  0  0  2  0  0  0  0  0  0
  -29.8620  -14.0120   20.1680 N   0  0  0  0  0  0  0  0  0  0  0  0
  -31.6660  -15.2810   19.9690 O   0  0  0  0  0  0  0  0  0  0  0  0
  -29.7300  -16.5760   20.4160 N   0  0  0  0  0  0  0  0  0  0  0  0
  -28.7580  -16.4190   20.6400 H   0  0  0  0  0  0  0  0  0  0  0  0
  -25.2030  -13.9120   20.5480 C   0  0  0  0  0  0  0  0  0  0  0  0
  -24.1600  -13.1170   20.9300 C   0  0  0  0  0  0  0  0  0  0  0  0
  -24.6390  -11.7720   20.8610 C   0  0  0  0  0  0  0  0  0  0  0  0
  -26.2500  -13.0530   20.2690 N   0  0  0  0  0  0  0  0  0  0  0  0
  -25.9240  -11.7560   20.5210 N   0  0  0  0  0  0  0  0  0  0  0  0
  -23.9290  -10.5020   21.0430 C   0  0  0  0  0  0  0  0  0  0  0  0
  -24.3720   -9.5360   21.9740 C   0  0  0  0  0  3  0  0  0  0  0  0
  -23.6580   -8.3310   22.1450 C   0  0  0  0  0  3  0  0  0  0  0  0
  -22.4880   -8.0820   21.3900 C   0  0  0  0  0  0  0  0  0  0  0  0
  -22.0660   -9.0380   20.4500 C   0  0  0  0  0  3  0  0  0  0  0  0
  -22.7800  -10.2350   20.2740 C   0  0  0  0  0  3  0  0  0  0  0  0
  -21.7440   -6.9310   21.4720 O   0  0  0  0  0  0  0  0  0  0  0  0
  -21.6770   -6.1980   22.6280 C   0  0  0  0  0  0  0  0  0  0  0  0
  -21.1710   -6.7430   23.8260 C   0  0  0  0  0  3  0  0  0  0  0  0
  -21.0560   -5.9340   24.9740 C   0  0  0  0  0  3  0  0  0  0  0  0
  -21.4350   -4.5790   24.9230 C   0  0  0  0  0  0  0  0  0  0  0  0
  -21.9270   -4.0290   23.7260 C   0  0  0  0  0  3  0  0  0  0  0  0
  -22.0420   -4.8360   22.5800 C   0  0  0  0  0  0  0  0  0  0  0  0
  -22.4960   -4.2960   21.4230 F   0  0  0  0  0  0  0  0  0  0  0  0
  -21.3210   -3.7990   26.0250 F   0  0  0  0  0  0  0  0  0  0  0  0
  -22.7640  -13.5740   21.2440 C   0  0  0  0  0  0  0  0  0  0  0  0
  -22.0640  -12.8600   22.1180 N   0  0  0  0  0  0  0  0  0  0  0  0
  -22.3040  -14.6070   20.7550 O   0  0  0  0  0  0  0  0  0  0  0  0
  -22.4490  -12.0300   22.5490 H   0  0  0  0  0  0  0  0  0  0  0  0
  -21.1330  -13.1570   22.3670 H   0  0  0  0  0  0  0  0  0  0  0  0
  -25.3390  -15.2880   20.3890 N   0  0  0  0  0  0  0  0  0  0  0  0
  -24.5570  -15.9160   20.5360 H   0  0  0  0  0  0  0  0  0  0  0  0
  -26.1540  -15.7510   20.0110 H   0  0  0  0  0  0  0  0  0  0  0  0
  1  3  1  0
  3 50  1  0
  3  2  2  0
  4  1  2  0
  4  6  1  0
  5  2  1  0
  5  8  1  0
  6  5  2  0
  7  4  1  0
  9  6  1  0
 10 21  2  0
 11  9  1  0
 11 16  1  0
 12 20  1  0
 12 22  1  0
 13 19  1  0
 13 15  1  0
 14 20  1  0
 15 16  2  0
 15 14  1  0
 17 11  2  0
 18 17  1  0
 18 13  2  0
 19 12  1  0
 20 10  1  0
 22 24  2  0
 23 22  1  0
 25 23  1  0
 26 35  2  0
 26 31  1  0
 27 23  1  0
 27 31  1  0
 28 27  1  0
 29 30  1  0
 29 28  1  0
 30 26  1  0
 31 32  2  0
 32 33  1  0
 34 33  2  0
 35 34  1  0
 36 10  1  0
 36 37  1  0
 36 46  1  0
 37 40  1  0
 38 42  1  0
 38 37  1  0
 39 38  2  0
 42 41  1  0
 44 45  1  0
 44 42  1  0
 44 43  1  0
 46 49  1  1
 46 47  1  0
 48 46  1  0
 52 53  1  0
 52 51  1  0
 53 50  1  6
 53 62  1  0
 53 51  1  0
 54 62  1  0
 55 60  1  0
 56 57  1  0
 56 55  1  0
 58 57  1  0
 58 67  1  0
 58 59  1  0
 60 54  1  0
 60 59  1  0
 61 54  2  0
 62 63  1  0
 64 65  2  0
 65 84  1  0
 66 65  1  0
 66 69  1  0
 67 68  1  0
 67 64  1  0
 68 66  2  0
 69 70  1  0
 70 71  2  0
 72 75  1  0
 72 71  1  0
 73 72  2  0
 74 73  1  0
 74 69  2  0
 75 76  1  0
 76 77  1  0
 77 78  2  0
 79 78  1  0
 79 83  1  0
 80 79  2  0
 81 76  2  0
 81 80  1  0
 82 81  1  0
 84 85  1  0
 85 88  1  0
 85 87  1  0
 86 84  2  0
 89 90  1  0
 89 64  1  0
 91 89  1  0
M  ISO  4   6 101   9 101  54 100  62 100
M  END
>  <TORSDO>  (95) 
F 18

>  <SCORE>  (95) 
-15.731

>  <name>  (95) 
95

>  <ligand_id>  (95) 
95

>  <original_smiles>  (95) 
[H]c1c([H])c([H])c2c(c1[H])C([H])([H])C([H])([H])C([H])([H])C2([H])N([H])C(=O)C1([H])N(C(=O)C([H])(N([H])C(=O)C([H])(N([H])C([H])([H])[H])C([H])([H])[H])C(C([H])([H])[H])(C([H])([H])[H])C([H])([H])[H])C([H])([H])c2c([H])c(Oc3c(C([H])([H])[H])c([H])c(C([H])([H])C4(N([H])C(=O)N5C([H])([H])C([H])([H])C([H])([H])C([H])(n6nc(-c7c([H])c([H])c(Oc8c([H])c([H])c(F)c([H])c8F)c([H])c7[H])c(C(=O)N([H])[H])c6N([H])[H])C5([H])[H])C([H])([H])C4([H])[H])c([H])c3C([H])([H])[H])c([H])c([H])c2C1([H])[H]

>  <smiles>  (95) 
[H]c1c([H])c([H])c2c(c1[H])C([H])([H])C([H])([H])C([H])([H])C2([H])N([H])C(=O)C1([H])N(C(=O)C([H])(N([H])C(=O)C([H])(N([H])C([H])([H])[H])C([H])([H])[H])C(C([H])([H])[H])(C([H])([H])[H])C([H])([H])[H])C([H])([H])c2c([H])c(Oc3c(C([H])([H])[H])c([H])c(C([H])([H])C4(N([H])C(=O)N5C([H])([H])C([H])([H])C([H])([H])C([H])(n6nc(-c7c([H])c([H])c(Oc8c([H])c([H])c(F)c([H])c8F)c([H])c7[H])c(C(=O)N([H])[H])c6N([H])[H])C5([H])[H])C([H])([H])C4([H])[H])c([H])c3C([H])([H])[H])c([H])c([H])c2C1([H])[H]

$$$$
96:0:0
     RDKit          3D

 95103  0  0  1  0  0  0  0  0999 V2000
  -28.4530  -24.8810   18.4610 C   0  0  0  0  0  3  0  0  0  0  0  0
  -28.7510  -22.2550   19.7620 C   0  0  0  0  0  0  0  0  0  0  0  0
  -28.5230  -23.5550   20.4840 C   0  0  0  0  0  0  0  0  0  0  0  0
  -28.8600  -22.4250   18.3510 C   0  0  0  0  0  0  0  0  0  0  0  0
  -28.3630  -24.9100   19.8600 C   0  0  0  0  0  0  0  0  0  0  0  0
  -28.6970  -23.6970   17.7290 C   0  0  0  0  0  0  0  0  0  0  0  0
  -28.4430  -23.4940   21.9900 C   0  0  0  0  0  1  0  0  0  0  0  0
  -27.8310  -24.5960   15.7180 C   0  0  0  0  0  1  0  0  0  0  0  0
  -28.8040  -23.7800   16.3580 O   0  0  0  0  0  0  0  0  0  0  0  0
  -28.2710  -26.2600   20.4600 O   0  0  0  0  0  0  0  0  0  0  0  0
  -24.6290  -31.9800   23.3520 C   0  0  0  0  0  0  0  0  0  0  0  0
  -27.2160  -27.2430   20.3370 C   0  0  0  0  0  0  0  0  0  0  0  0
  -23.4320  -30.5700   21.7230 C   0  0  0  0  0  3  0  0  0  0  0  0
  -24.8780  -28.9890   20.2960 C   0  0  0  0  0  0  0  0  0  0  0  0
  -25.9830  -30.8370   21.5530 C   0  0  0  0  0  2  0  0  0  0  0  0
  -26.0550  -29.4400   20.9070 C   0  0  0  0  0  0  0  0  0  0  0  0
  -27.2180  -28.5800   20.9150 C   0  0  0  0  0  3  0  0  0  0  0  0
  -26.0130  -26.8940   19.6890 C   0  0  0  0  0  3  0  0  0  0  0  0
  -24.8720  -27.7300   19.6720 C   0  0  0  0  0  3  0  0  0  0  0  0
  -23.6490  -29.8860   20.3450 C   0  0  0  0  0  2  0  0  0  0  0  0
  -24.7030  -31.1510   22.2660 N   0  0  0  0  0  0  0  0  0  0  0  0
  -23.5420  -32.2670   23.8760 O   0  0  0  0  0  0  0  0  0  0  0  0
  -22.7580  -29.5690   22.6940 C   0  0  0  0  0  0  0  0  0  0  0  0
  -21.4380  -29.3610   22.5370 N   0  0  0  0  0  0  0  0  0  0  0  0
  -23.4220  -28.9860   23.5540 O   0  0  0  0  0  0  0  0  0  0  0  0
  -20.9610  -29.8910   21.8220 H   0  0  0  0  0  0  0  0  0  0  0  0
  -18.0900  -28.0360   22.9510 C   0  0  0  0  0  0  0  0  0  0  0  0
  -20.6230  -28.4160   23.3060 C   0  0  0  0  0  3  0  0  0  0  0  0
  -20.8070  -26.9700   22.7910 C   0  0  0  0  0  2  0  0  0  0  0  0
  -19.7610  -26.5650   21.7510 C   0  0  0  0  0  2  0  0  0  0  0  0
  -18.3470  -26.6720   22.3310 C   0  0  0  0  0  2  0  0  0  0  0  0
  -19.1590  -28.8600   23.3940 C   0  0  0  0  0  0  0  0  0  0  0  0
  -18.8660  -30.1300   23.9360 C   0  0  0  0  0  3  0  0  0  0  0  0
  -17.5370  -30.5790   24.0360 C   0  0  0  0  0  3  0  0  0  0  0  0
  -16.4810  -29.7570   23.6060 C   0  0  0  0  0  3  0  0  0  0  0  0
  -16.7570  -28.4850   23.0710 C   0  0  0  0  0  3  0  0  0  0  0  0
  -25.9050  -32.6230   23.9780 C   0  0  0  0  0  3  0  0  0  0  0  0
  -25.5970  -34.0300   24.2850 N   0  0  0  0  0  0  0  0  0  0  0  0
  -25.9240  -35.0730   23.5100 C   0  0  0  0  0  0  0  0  0  0  0  0
  -26.5850  -34.9510   22.4770 O   0  0  0  0  0  0  0  0  0  0  0  0
  -25.0100  -34.1980   25.0890 H   0  0  0  0  0  0  0  0  0  0  0  0
  -24.1890  -36.8630   23.1510 C   0  0  0  0  0  1  0  0  0  0  0  0
  -25.4430  -36.4720   23.9490 C   0  0  0  0  0  3  0  0  0  0  0  0
  -27.5860  -37.3750   24.7350 C   0  0  0  0  0  1  0  0  0  0  0  0
  -26.4720  -37.5240   23.8010 N   0  0  0  0  0  0  0  0  0  0  0  0
  -26.0680  -38.4480   23.9320 H   0  0  0  0  0  0  0  0  0  0  0  0
  -26.4010  -31.8760   25.2780 C   0  0  1  0  0  0  0  0  0  0  0  0
  -25.2880  -31.6550   26.3300 C   0  0  0  0  0  1  0  0  0  0  0  0
  -27.0030  -30.4970   24.9230 C   0  0  0  0  0  1  0  0  0  0  0  0
  -27.5360  -32.6900   25.9430 C   0  0  0  0  0  1  0  0  0  0  0  0
  -28.6100  -20.6910   20.3510 C   0  0  0  0  0  2  0  0  0  0  0  0
  -29.6560  -19.3400   20.5220 C   0  0  0  0  0  2  0  0  0  0  0  0
  -31.0190  -18.0440   18.7330 C   0  0  0  0  0  1  0  0  0  0  0  0
  -29.8140  -17.8690   19.6630 C   0  0  0  0  0  3  0  0  0  0  0  0
  -30.6070  -15.1680   19.9940 C   0  0  0  0  0  0  0  0  0  0  0  0
  -30.4600  -12.8080   19.0620 C   0  0  0  0  0  2  0  0  0  0  0  0
  -29.4700  -12.7570   17.8740 C   0  0  0  0  0  2  0  0  0  0  0  0
  -28.0340  -12.5230   18.3790 C   0  0  0  0  0  2  0  0  0  0  0  0
  -27.6790  -13.4370   19.5830 C   0  0  0  0  0  3  0  0  0  0  0  0
  -28.7900  -13.4640   20.6560 C   0  0  0  0  0  2  0  0  0  0  0  0
  -30.0210  -13.8960   19.9890 N   0  0  0  0  0  0  0  0  0  0  0  0
  -31.7810  -15.2180   19.6110 O   0  0  0  0  0  0  0  0  0  0  0  0
  -29.8320  -16.3600   20.2220 N   0  0  0  0  0  0  0  0  0  0  0  0
  -28.9390  -16.1170   20.6250 H   0  0  0  0  0  0  0  0  0  0  0  0
  -25.3510  -13.9880   20.4830 C   0  0  0  0  0  0  0  0  0  0  0  0
  -24.3080  -13.2000   20.8870 C   0  0  0  0  0  0  0  0  0  0  0  0
  -24.7690  -11.8530   20.7910 C   0  0  0  0  0  0  0  0  0  0  0  0
  -26.3760  -13.1190   20.1530 N   0  0  0  0  0  0  0  0  0  0  0  0
  -26.0410  -11.8280   20.4070 N   0  0  0  0  0  0  0  0  0  0  0  0
  -24.0540  -10.5840   20.9850 C   0  0  0  0  0  0  0  0  0  0  0  0
  -24.4990   -9.6160   21.9120 C   0  0  0  0  0  3  0  0  0  0  0  0
  -23.7780   -8.4170   22.0960 C   0  0  0  0  0  3  0  0  0  0  0  0
  -22.5980   -8.1750   21.3520 C   0  0  0  0  0  0  0  0  0  0  0  0
  -22.1730   -9.1330   20.4140 C   0  0  0  0  0  3  0  0  0  0  0  0
  -22.8940  -10.3240   20.2290 C   0  0  0  0  0  3  0  0  0  0  0  0
  -21.8490   -7.0290   21.4450 O   0  0  0  0  0  0  0  0  0  0  0  0
  -21.7880   -6.3000   22.6050 C   0  0  0  0  0  0  0  0  0  0  0  0
  -21.2800   -6.8490   23.8030 C   0  0  0  0  0  3  0  0  0  0  0  0
  -21.1700   -6.0440   24.9540 C   0  0  0  0  0  3  0  0  0  0  0  0
  -21.5570   -4.6910   24.9090 C   0  0  0  0  0  0  0  0  0  0  0  0
  -22.0570   -4.1420   23.7160 C   0  0  0  0  0  3  0  0  0  0  0  0
  -22.1690   -4.9430   22.5660 C   0  0  0  0  0  0  0  0  0  0  0  0
  -22.6320   -4.4040   21.4120 F   0  0  0  0  0  0  0  0  0  0  0  0
  -21.4440   -3.9160   26.0120 F   0  0  0  0  0  0  0  0  0  0  0  0
  -22.9300  -13.6710   21.2470 C   0  0  0  0  0  0  0  0  0  0  0  0
  -22.2510  -12.9510   22.1320 N   0  0  0  0  0  0  0  0  0  0  0  0
  -22.4680  -14.7110   20.7820 O   0  0  0  0  0  0  0  0  0  0  0  0
  -22.6420  -12.1090   22.5260 H   0  0  0  0  0  0  0  0  0  0  0  0
  -21.3290  -13.2470   22.4190 H   0  0  0  0  0  0  0  0  0  0  0  0
  -25.5020  -15.3640   20.3450 N   0  0  0  0  0  0  0  0  0  0  0  0
  -24.7350  -16.0040   20.5240 H   0  0  0  0  0  0  0  0  0  0  0  0
  -26.3200  -15.8270   19.9690 H   0  0  0  0  0  0  0  0  0  0  0  0
  -29.0810  -21.2360   17.4220 C   0  0  0  0  0  2  0  0  0  0  0  0
  -30.6160  -20.1310   15.7600 C   0  0  0  0  0  1  0  0  0  0  0  0
  -30.5250  -21.1530   16.8990 C   0  0  0  0  0  2  0  0  0  0  0  0
  1  5  1  0
  2 51  1  0
  2  3  1  0
  3  7  1  0
  4  2  2  0
  5 10  1  0
  5  3  2  0
  6  4  1  0
  6  1  2  0
  8  9  1  0
  9  6  1  0
 11 22  2  0
 12 10  1  0
 12 17  1  0
 13 21  1  0
 13 23  1  0
 14 20  1  0
 14 16  1  0
 15 21  1  0
 16 17  2  0
 16 15  1  0
 18 12  2  0
 19 18  1  0
 19 14  2  0
 20 13  1  0
 21 11  1  0
 23 25  2  0
 24 23  1  0
 26 24  1  0
 27 36  2  0
 27 32  1  0
 28 24  1  0
 28 32  1  0
 29 28  1  0
 30 31  1  0
 30 29  1  0
 31 27  1  0
 32 33  2  0
 33 34  1  0
 35 34  2  0
 36 35  1  0
 37 11  1  0
 37 38  1  0
 37 47  1  0
 38 41  1  0
 39 43  1  0
 39 38  1  0
 40 39  2  0
 43 42  1  0
 45 46  1  0
 45 43  1  0
 45 44  1  0
 47 50  1  1
 47 48  1  0
 49 47  1  0
 51 52  1  0
 54 53  1  0
 54 63  1  0
 54 52  1  0
 55 63  1  0
 56 61  1  0
 57 58  1  0
 57 56  1  0
 59 58  1  0
 59 68  1  0
 59 60  1  0
 61 55  1  0
 61 60  1  0
 62 55  2  0
 63 64  1  0
 65 66  2  0
 66 85  1  0
 67 66  1  0
 67 70  1  0
 68 69  1  0
 68 65  1  0
 69 67  2  0
 70 71  1  0
 71 72  2  0
 73 76  1  0
 73 72  1  0
 74 73  2  0
 75 74  1  0
 75 70  2  0
 76 77  1  0
 77 78  1  0
 78 79  2  0
 80 79  1  0
 80 84  1  0
 81 80  2  0
 82 77  2  0
 82 81  1  0
 83 82  1  0
 85 86  1  0
 86 89  1  0
 86 88  1  0
 87 85  2  0
 90 65  1  0
 90 91  1  0
 92 90  1  0
 93  4  1  0
 94 95  1  0
 95 93  1  0
M  ISO  4   5 101  10 101  55 100  63 100
M  END
>  <TORSDO>  (96) 
F 22

>  <SCORE>  (96) 
-13.698

>  <name>  (96) 
96

>  <ligand_id>  (96) 
96

>  <original_smiles>  (96) 
[H]c1c([H])c([H])c2c(c1[H])C([H])([H])C([H])([H])C([H])([H])C2([H])N([H])C(=O)C1([H])N(C(=O)C([H])(N([H])C(=O)C([H])(N([H])C([H])([H])[H])C([H])([H])[H])C(C([H])([H])[H])(C([H])([H])[H])C([H])([H])[H])C([H])([H])c2c([H])c(Oc3c([H])c(OC([H])([H])[H])c(C([H])([H])C([H])([H])C([H])([H])[H])c(C([H])([H])C([H])([H])C([H])(N([H])C(=O)N4C([H])([H])C([H])([H])C([H])([H])C([H])(n5nc(-c6c([H])c([H])c(Oc7c([H])c([H])c(F)c([H])c7F)c([H])c6[H])c(C(=O)N([H])[H])c5N([H])[H])C4([H])[H])C([H])([H])[H])c3C([H])([H])[H])c([H])c([H])c2C1([H])[H]

>  <smiles>  (96) 
[H]c1c([H])c([H])c2c(c1[H])C([H])([H])C([H])([H])C([H])([H])C2([H])N([H])C(=O)C1([H])N(C(=O)C([H])(N([H])C(=O)C([H])(N([H])C([H])([H])[H])C([H])([H])[H])C(C([H])([H])[H])(C([H])([H])[H])C([H])([H])[H])C([H])([H])c2c([H])c(Oc3c([H])c(OC([H])([H])[H])c(C([H])([H])C([H])([H])C([H])([H])[H])c(C([H])([H])C([H])([H])C([H])(N([H])C(=O)N4C([H])([H])C([H])([H])C([H])([H])C([H])(n5nc(-c6c([H])c([H])c(Oc7c([H])c([H])c(F)c([H])c7F)c([H])c6[H])c(C(=O)N([H])[H])c5N([H])[H])C4([H])[H])C([H])([H])[H])c3C([H])([H])[H])c([H])c([H])c2C1([H])[H]

$$$$
97:0:0
     RDKit          3D

101109  0  0  1  0  0  0  0  0999 V2000
  -29.1890  -18.8190   20.7640 C   0  0  0  0  0  3  0  0  0  0  0  0
  -29.0950  -18.0720   19.5750 C   0  0  0  0  0  0  0  0  0  0  0  0
  -30.4560  -16.2610   20.6390 C   0  0  0  0  0  0  0  0  0  0  0  0
  -30.0430  -18.4670   21.8090 C   0  0  0  0  0  0  0  0  0  0  0  0
  -29.8300  -16.8470   19.4790 C   0  0  0  0  0  0  0  0  0  0  0  0
  -30.6010  -17.1370   21.7970 C   0  0  0  0  0  0  0  0  0  0  0  0
  -30.0680  -16.2520   18.0870 C   0  0  0  0  0  1  0  0  0  0  0  0
  -31.3520  -16.6600   23.0370 C   0  0  0  0  0  1  0  0  0  0  0  0
  -31.1520  -14.8690   20.5050 C   0  0  0  0  0  0  0  0  0  0  0  0
  -30.8840  -12.5900   19.5150 C   0  0  0  0  0  2  0  0  0  0  0  0
  -29.9990  -12.5710   18.2500 C   0  0  0  0  0  2  0  0  0  0  0  0
  -28.5070  -12.4850   18.6190 C   0  0  0  0  0  2  0  0  0  0  0  0
  -28.0920  -13.4690   19.7390 C   0  0  0  0  0  3  0  0  0  0  0  0
  -29.0920  -13.4120   20.9170 C   0  0  0  0  0  2  0  0  0  0  0  0
  -30.4390  -13.6940   20.3950 N   0  0  0  0  0  0  0  0  0  0  0  0
  -32.3400  -14.9070   20.1880 O   0  0  0  0  0  0  0  0  0  0  0  0
  -25.6920  -14.1360   20.3740 C   0  0  0  0  0  0  0  0  0  0  0  0
  -24.5990  -13.3960   20.7170 C   0  0  0  0  0  0  0  0  0  0  0  0
  -25.0340  -12.0310   20.7340 C   0  0  0  0  0  0  0  0  0  0  0  0
  -26.7250  -13.2290   20.1900 N   0  0  0  0  0  0  0  0  0  0  0  0
  -26.3280  -11.9610   20.4660 N   0  0  0  0  0  0  0  0  0  0  0  0
  -24.2760  -10.7920   20.9280 C   0  0  0  0  0  0  0  0  0  0  0  0
  -24.6270   -9.8470   21.9200 C   0  0  0  0  0  3  0  0  0  0  0  0
  -23.8680   -8.6680   22.0930 C   0  0  0  0  0  3  0  0  0  0  0  0
  -22.7420   -8.4240   21.2740 C   0  0  0  0  0  0  0  0  0  0  0  0
  -22.4060   -9.3540   20.2740 C   0  0  0  0  0  3  0  0  0  0  0  0
  -23.1680  -10.5220   20.0990 C   0  0  0  0  0  3  0  0  0  0  0  0
  -21.9670   -7.2930   21.3560 O   0  0  0  0  0  0  0  0  0  0  0  0
  -21.7970   -6.6220   22.5410 C   0  0  0  0  0  0  0  0  0  0  0  0
  -21.2530   -7.2510   23.6830 C   0  0  0  0  0  3  0  0  0  0  0  0
  -21.0350   -6.5080   24.8600 C   0  0  0  0  0  3  0  0  0  0  0  0
  -21.3420   -5.1340   24.8940 C   0  0  0  0  0  0  0  0  0  0  0  0
  -21.8810   -4.5070   23.7580 C   0  0  0  0  0  3  0  0  0  0  0  0
  -22.1040   -5.2460   22.5850 C   0  0  0  0  0  0  0  0  0  0  0  0
  -22.5990   -4.6310   21.4830 F   0  0  0  0  0  0  0  0  0  0  0  0
  -21.1300   -4.4180   26.0220 F   0  0  0  0  0  0  0  0  0  0  0  0
  -23.2020  -13.9060   20.9420 C   0  0  0  0  0  0  0  0  0  0  0  0
  -22.4350  -13.2650   21.8140 N   0  0  0  0  0  0  0  0  0  0  0  0
  -22.7940  -14.9170   20.3670 O   0  0  0  0  0  0  0  0  0  0  0  0
  -22.7770  -12.4550   22.3160 H   0  0  0  0  0  0  0  0  0  0  0  0
  -21.4950  -13.5930   21.9980 H   0  0  0  0  0  0  0  0  0  0  0  0
  -25.9000  -15.5050   20.1840 N   0  0  0  0  0  0  0  0  0  0  0  0
  -25.1680  -16.1940   20.3090 H   0  0  0  0  0  0  0  0  0  0  0  0
  -26.7990  -15.9050   19.9600 H   0  0  0  0  0  0  0  0  0  0  0  0
  -28.2750  -18.6860   18.4590 C   0  0  0  0  0  0  0  0  0  0  0  0
  -27.7310  -18.0460   17.5560 O   0  0  0  0  0  0  0  0  0  0  0  0
  -28.1210  -20.2300   18.4530 C   0  0  0  0  0  2  0  0  0  0  0  0
  -26.8430  -20.7340   19.1980 C   0  0  0  0  0  2  0  0  0  0  0  0
  -26.9030  -22.1500   19.8230 C   0  0  0  0  0  2  0  0  0  0  0  0
  -25.5830  -24.3430   20.2870 C   0  0  0  0  0  1  0  0  0  0  0  0
  -25.6980  -23.0460   19.4650 C   0  0  0  0  0  2  0  0  0  0  0  0
  -30.2760  -19.6190   22.8430 C   0  0  0  0  0  2  0  0  0  0  0  0
  -30.6390  -21.0330   22.2180 C   0  0  0  0  0  2  0  0  0  0  0  0
  -30.1670  -22.7810   24.0460 C   0  0  0  0  0  1  0  0  0  0  0  0
  -29.8340  -22.3380   22.6050 C   0  0  0  0  0  3  0  0  0  0  0  0
  -30.0950  -23.4620   21.6070 N   0  0  0  0  0  4  0  0  0  0  0  0
  -31.0970  -23.6150   21.5860 H   0  0  0  0  0  0  0  0  0  0  0  0
  -29.8480  -23.1030   20.6980 H   0  0  0  0  0  0  0  0  0  0  0  0
  -29.4830  -24.8440   21.7940 C   0  0  0  0  0  2  0  0  0  0  0  0
  -29.1740  -25.6570   20.4680 C   0  0  0  0  0  2  0  0  0  0  0  0
  -29.0590  -27.1270   20.5610 O   0  0  0  0  0  0  0  0  0  0  0  0
  -24.5950  -31.9050   23.3520 C   0  0  0  0  0  0  0  0  0  0  0  0
  -27.8500  -27.8050   20.3680 C   0  0  0  0  0  0  0  0  0  0  0  0
  -23.6480  -30.5150   21.5450 C   0  0  0  0  0  3  0  0  0  0  0  0
  -25.3430  -29.1790   20.1740 C   0  0  0  0  0  0  0  0  0  0  0  0
  -26.1430  -31.0770   21.5770 C   0  0  0  0  0  2  0  0  0  0  0  0
  -26.3950  -29.7480   20.8910 C   0  0  0  0  0  0  0  0  0  0  0  0
  -27.6410  -29.0690   20.9860 C   0  0  0  0  0  3  0  0  0  0  0  0
  -26.7840  -27.2920   19.5870 C   0  0  0  0  0  3  0  0  0  0  0  0
  -25.5420  -27.9560   19.5050 C   0  0  0  0  0  3  0  0  0  0  0  0
  -24.0330  -29.9390   20.1570 C   0  0  0  0  0  2  0  0  0  0  0  0
  -24.8080  -31.1840   22.2200 N   0  0  0  0  0  0  0  0  0  0  0  0
  -23.4550  -32.0610   23.8190 O   0  0  0  0  0  0  0  0  0  0  0  0
  -23.0170  -29.3860   22.3930 C   0  0  0  0  0  0  0  0  0  0  0  0
  -21.7090  -29.1410   22.1870 N   0  0  0  0  0  0  0  0  0  0  0  0
  -23.7080  -28.7410   23.1900 O   0  0  0  0  0  0  0  0  0  0  0  0
  -21.2350  -29.6830   21.4730 H   0  0  0  0  0  0  0  0  0  0  0  0
  -18.3740  -27.7950   22.4880 C   0  0  0  0  0  0  0  0  0  0  0  0
  -20.9070  -28.1260   22.8600 C   0  0  0  0  0  3  0  0  0  0  0  0
  -21.0900  -26.7640   22.1660 C   0  0  0  0  0  2  0  0  0  0  0  0
  -20.0330  -26.4850   21.0900 C   0  0  0  0  0  2  0  0  0  0  0  0
  -18.6310  -26.5180   21.7030 C   0  0  0  0  0  2  0  0  0  0  0  0
  -19.4460  -28.5530   23.0230 C   0  0  0  0  0  0  0  0  0  0  0  0
  -19.1580  -29.7450   23.7270 C   0  0  0  0  0  3  0  0  0  0  0  0
  -17.8310  -30.1780   23.8990 C   0  0  0  0  0  3  0  0  0  0  0  0
  -16.7670  -29.4240   23.3670 C   0  0  0  0  0  3  0  0  0  0  0  0
  -17.0440  -28.2340   22.6660 C   0  0  0  0  0  3  0  0  0  0  0  0
  -25.7680  -32.6000   24.1140 C   0  0  0  0  0  3  0  0  0  0  0  0
  -25.3850  -33.9940   24.3450 N   0  0  0  0  0  0  0  0  0  0  0  0
  -25.7770  -35.0300   23.5920 C   0  0  0  0  0  0  0  0  0  0  0  0
  -26.5640  -34.9010   22.6440 O   0  0  0  0  0  0  0  0  0  0  0  0
  -24.6850  -34.1670   25.0560 H   0  0  0  0  0  0  0  0  0  0  0  0
  -24.0380  -36.7370   22.9520 C   0  0  0  0  0  1  0  0  0  0  0  0
  -25.1910  -36.4130   23.9190 C   0  0  0  0  0  3  0  0  0  0  0  0
  -27.1740  -37.4140   24.9610 C   0  0  0  0  0  1  0  0  0  0  0  0
  -26.1910  -37.5040   23.8840 N   0  0  0  0  0  0  0  0  0  0  0  0
  -25.7430  -38.4140   23.9330 H   0  0  0  0  0  0  0  0  0  0  0  0
  -26.1400  -31.8850   25.4660 C   0  0  1  0  0  0  0  0  0  0  0  0
  -24.9290  -31.6530   26.3960 C   0  0  0  0  0  1  0  0  0  0  0  0
  -26.7910  -30.5100   25.1900 C   0  0  0  0  0  1  0  0  0  0  0  0
  -27.1760  -32.7300   26.2420 C   0  0  0  0  0  1  0  0  0  0  0  0
  1  4  1  0
  2  1  2  0
  3  6  1  0
  4 52  1  0
  5  2  1  0
  5  3  2  0
  6  4  2  0
  6  8  1  0
  7  5  1  0
  9  3  1  0
 10 15  1  0
 11 12  1  0
 11 10  1  0
 13 12  1  0
 13 20  1  0
 13 14  1  0
 15  9  1  0
 15 14  1  0
 16  9  2  0
 17 18  2  0
 18 19  1  0
 18 37  1  0
 19 22  1  0
 20 17  1  0
 20 21  1  0
 21 19  2  0
 22 23  1  0
 23 24  2  0
 25 28  1  0
 25 24  1  0
 26 25  2  0
 27 26  1  0
 27 22  2  0
 28 29  1  0
 29 34  2  0
 29 30  1  0
 30 31  2  0
 31 32  1  0
 32 36  1  0
 33 32  2  0
 34 33  1  0
 35 34  1  0
 37 38  1  0
 38 41  1  0
 38 40  1  0
 39 37  2  0
 42 43  1  0
 42 17  1  0
 44 42  1  0
 45  2  1  0
 46 45  2  0
 47 45  1  0
 47 48  1  0
 48 49  1  0
 51 49  1  0
 51 50  1  0
 53 55  1  0
 53 52  1  0
 55 54  1  0
 56 59  1  0
 56 55  1  0
 57 56  1  0
 58 56  1  0
 60 61  1  0
 60 59  1  0
 62 73  2  0
 63 61  1  0
 63 68  1  0
 64 72  1  0
 64 74  1  0
 65 67  1  0
 66 72  1  0
 67 68  2  0
 67 66  1  0
 69 63  2  0
 70 69  1  0
 70 65  2  0
 71 65  1  0
 71 64  1  0
 72 62  1  0
 74 76  2  0
 75 74  1  0
 77 75  1  0
 78 87  2  0
 78 83  1  0
 79 75  1  0
 79 83  1  0
 80 79  1  0
 81 82  1  0
 81 80  1  0
 82 78  1  0
 83 84  2  0
 84 85  1  0
 86 85  2  0
 87 86  1  0
 88 62  1  0
 88 89  1  0
 88 98  1  0
 89 92  1  0
 90 94  1  0
 90 89  1  0
 91 90  2  0
 94 93  1  0
 96 94  1  0
 96 97  1  0
 96 95  1  0
 98101  1  1
 98 99  1  0
100 98  1  0
M  ISO  4   3 100   9 100  60 101  61 101
M  END
>  <TORSDO>  (97) 
F 27

>  <SCORE>  (97) 
-9.207

>  <name>  (97) 
97

>  <ligand_id>  (97) 
97

>  <original_smiles>  (97) 
[H]c1c([H])c([H])c2c(c1[H])C([H])([H])C([H])([H])C([H])([H])C2([H])N([H])C(=O)C1([H])N(C(=O)C([H])(N([H])C(=O)C([H])(N([H])C([H])([H])[H])C([H])([H])[H])C(C([H])([H])[H])(C([H])([H])[H])C([H])([H])[H])C([H])([H])c2c([H])c(OC([H])([H])C([H])([H])[N+]([H])([H])C([H])(C([H])([H])[H])C([H])([H])C([H])([H])c3c([H])c(C(=O)C([H])([H])C([H])([H])C([H])([H])C([H])([H])C([H])([H])[H])c(C([H])([H])[H])c(C(=O)N4C([H])([H])C([H])([H])C([H])([H])C([H])(n5nc(-c6c([H])c([H])c(Oc7c([H])c([H])c(F)c([H])c7F)c([H])c6[H])c(C(=O)N([H])[H])c5N([H])[H])C4([H])[H])c3C([H])([H])[H])c([H])c([H])c2C1([H])[H]

>  <smiles>  (97) 
[H]c1c([H])c([H])c2c(c1[H])C([H])([H])C([H])([H])C([H])([H])C2([H])N([H])C(=O)C1([H])N(C(=O)C([H])(N([H])C(=O)C([H])(N([H])C([H])([H])[H])C([H])([H])[H])C(C([H])([H])[H])(C([H])([H])[H])C([H])([H])[H])C([H])([H])c2c([H])c(OC([H])([H])C([H])([H])[N+]([H])([H])C([H])(C([H])([H])[H])C([H])([H])C([H])([H])c3c([H])c(C(=O)C([H])([H])C([H])([H])C([H])([H])C([H])([H])C([H])([H])[H])c(C([H])([H])[H])c(C(=O)N4C([H])([H])C([H])([H])C([H])([H])C([H])(n5nc(-c6c([H])c([H])c(Oc7c([H])c([H])c(F)c([H])c7F)c([H])c6[H])c(C(=O)N([H])[H])c5N([H])[H])C4([H])[H])c3C([H])([H])[H])c([H])c([H])c2C1([H])[H]

$$$$
