0:0:0
     RDKit          3D

 92100  0  0  1  0  0  0  0  0999 V2000
  -30.9310  -18.1620   17.3800 C   0  0  0  0  0  3  0  0  0  0  0  0
  -30.4030  -19.1660   18.2010 C   0  0  0  0  0  3  0  0  0  0  0  0
  -30.6680  -16.3690   19.0980 C   0  0  0  0  0  0  0  0  0  0  0  0
  -31.1330  -16.8230   17.8090 C   0  0  0  0  0  0  0  0  0  0  0  0
  -29.9760  -18.9010   19.5060 C   0  0  0  0  0  0  0  0  0  0  0  0
  -30.1040  -17.4730   19.9410 C   0  0  0  0  0  0  0  0  0  0  0  0
  -31.0710  -14.8590   19.5250 C   0  0  0  0  0  0  0  0  0  0  0  0
  -30.6210  -12.5710   18.5560 C   0  0  0  0  0  2  0  0  0  0  0  0
  -29.5270  -12.4810   17.4700 C   0  0  0  0  0  2  0  0  0  0  0  0
  -28.1350  -12.3450   18.1010 C   0  0  0  0  0  2  0  0  0  0  0  0
  -27.8960  -13.3220   19.2760 C   0  0  0  0  0  3  0  0  0  0  0  0
  -29.0970  -13.3470   20.2520 C   0  0  0  0  0  2  0  0  0  0  0  0
  -30.2860  -13.7060   19.4600 N   0  0  0  0  0  0  0  0  0  0  0  0
  -32.2840  -14.6670   19.4590 O   0  0  0  0  0  0  0  0  0  0  0  0
  -25.6320  -13.9480   20.3020 C   0  0  0  0  0  0  0  0  0  0  0  0
  -24.5750  -13.1970   20.7330 C   0  0  0  0  0  0  0  0  0  0  0  0
  -24.9870  -11.8340   20.6120 C   0  0  0  0  0  0  0  0  0  0  0  0
  -26.6170  -13.0530   19.9260 N   0  0  0  0  0  0  0  0  0  0  0  0
  -26.2440  -11.7720   20.1870 N   0  0  0  0  0  0  0  0  0  0  0  0
  -24.2340  -10.5940   20.8250 C   0  0  0  0  0  0  0  0  0  0  0  0
  -24.6650   -9.6160   21.7440 C   0  0  0  0  0  3  0  0  0  0  0  0
  -23.9080   -8.4420   21.9470 C   0  0  0  0  0  3  0  0  0  0  0  0
  -22.7080   -8.2370   21.2270 C   0  0  0  0  0  0  0  0  0  0  0  0
  -22.2980   -9.2020   20.2890 C   0  0  0  0  0  3  0  0  0  0  0  0
  -23.0560  -10.3660   20.0870 C   0  0  0  0  0  3  0  0  0  0  0  0
  -21.9250   -7.1100   21.3370 O   0  0  0  0  0  0  0  0  0  0  0  0
  -21.8120   -6.4180   22.5150 C   0  0  0  0  0  0  0  0  0  0  0  0
  -21.3090   -7.0230   23.6870 C   0  0  0  0  0  3  0  0  0  0  0  0
  -21.1510   -6.2610   24.8600 C   0  0  0  0  0  3  0  0  0  0  0  0
  -21.4820   -4.8940   24.8620 C   0  0  0  0  0  0  0  0  0  0  0  0
  -21.9760   -4.2860   23.6930 C   0  0  0  0  0  3  0  0  0  0  0  0
  -22.1390   -5.0470   22.5220 C   0  0  0  0  0  0  0  0  0  0  0  0
  -22.5920   -4.4530   21.3920 F   0  0  0  0  0  0  0  0  0  0  0  0
  -21.3210   -4.1590   25.9850 F   0  0  0  0  0  0  0  0  0  0  0  0
  -23.2280  -13.7090   21.1510 C   0  0  0  0  0  0  0  0  0  0  0  0
  -22.5680  -13.0080   22.0660 N   0  0  0  0  0  0  0  0  0  0  0  0
  -22.7760  -14.7630   20.7040 O   0  0  0  0  0  0  0  0  0  0  0  0
  -22.9490  -12.1490   22.4360 H   0  0  0  0  0  0  0  0  0  0  0  0
  -21.6710  -13.3280   22.3970 H   0  0  0  0  0  0  0  0  0  0  0  0
  -25.8300  -15.3180   20.1740 N   0  0  0  0  0  0  0  0  0  0  0  0
  -25.1860  -15.9760   20.5990 H   0  0  0  0  0  0  0  0  0  0  0  0
  -26.7150  -15.7400   19.9240 H   0  0  0  0  0  0  0  0  0  0  0  0
  -32.5990  -16.5420   15.6350 C   0  0  0  0  0  1  0  0  0  0  0  0
  -31.9160  -15.8950   16.8570 C   0  0  0  0  0  2  0  0  0  0  0  0
  -28.2140  -16.4880   21.2590 C   0  0  0  0  0  1  0  0  0  0  0  0
  -29.6080  -17.1130   21.3360 C   0  0  0  0  0  2  0  0  0  0  0  0
  -29.3900  -20.2140   20.3080 C   0  0  0  0  0  3  0  0  0  0  0  0
  -29.2840  -21.7780   19.6540 C   0  0  0  0  0  3  0  0  0  0  0  0
  -28.8050  -23.1690   20.4190 C   0  0  0  0  0  0  0  0  0  0  0  0
  -28.7650  -23.1650   21.6540 O   0  0  0  0  0  0  0  0  0  0  0  0
  -28.3590  -24.5510   19.6350 C   0  0  0  0  0  2  0  0  0  0  0  0
  -28.3680  -25.9640   20.3050 O   0  0  0  0  0  0  0  0  0  0  0  0
  -24.6750  -31.6090   23.2630 C   0  0  0  0  0  0  0  0  0  0  0  0
  -27.3180  -26.9440   20.1900 C   0  0  0  0  0  0  0  0  0  0  0  0
  -23.5220  -30.2430   21.5650 C   0  0  0  0  0  3  0  0  0  0  0  0
  -25.0070  -28.7070   20.1400 C   0  0  0  0  0  0  0  0  0  0  0  0
  -26.0790  -30.5070   21.4880 C   0  0  0  0  0  2  0  0  0  0  0  0
  -26.1670  -29.1310   20.7980 C   0  0  0  0  0  0  0  0  0  0  0  0
  -27.3190  -28.2600   20.8150 C   0  0  0  0  0  3  0  0  0  0  0  0
  -26.1330  -26.6330   19.4810 C   0  0  0  0  0  3  0  0  0  0  0  0
  -24.9970  -27.4690   19.4810 C   0  0  0  0  0  3  0  0  0  0  0  0
  -23.7820  -29.6030   20.1720 C   0  0  0  0  0  2  0  0  0  0  0  0
  -24.7750  -30.8090   22.1610 N   0  0  0  0  0  0  0  0  0  0  0  0
  -23.5730  -31.8850   23.7650 O   0  0  0  0  0  0  0  0  0  0  0  0
  -22.8190  -29.2190   22.4850 C   0  0  0  0  0  0  0  0  0  0  0  0
  -21.4970  -29.0480   22.3140 N   0  0  0  0  0  0  0  0  0  0  0  0
  -23.4670  -28.5820   23.3190 O   0  0  0  0  0  0  0  0  0  0  0  0
  -21.0280  -29.6230   21.6260 H   0  0  0  0  0  0  0  0  0  0  0  0
  -18.1060  -27.8480   22.6780 C   0  0  0  0  0  0  0  0  0  0  0  0
  -20.6500  -28.0980   23.0410 C   0  0  0  0  0  3  0  0  0  0  0  0
  -20.7720  -26.6730   22.4600 C   0  0  0  0  0  2  0  0  0  0  0  0
  -19.7080  -26.3550   21.4020 C   0  0  0  0  0  2  0  0  0  0  0  0
  -18.3020  -26.5100   21.9970 C   0  0  0  0  0  2  0  0  0  0  0  0
  -19.2100  -28.6010   23.1590 C   0  0  0  0  0  0  0  0  0  0  0  0
  -18.9780  -29.8500   23.7730 C   0  0  0  0  0  3  0  0  0  0  0  0
  -17.6710  -30.3520   23.9080 C   0  0  0  0  0  3  0  0  0  0  0  0
  -16.5790  -29.5950   23.4470 C   0  0  0  0  0  3  0  0  0  0  0  0
  -16.7940  -28.3460   22.8410 C   0  0  0  0  0  3  0  0  0  0  0  0
  -25.9370  -32.2290   23.9360 C   0  0  0  0  0  3  0  0  0  0  0  0
  -25.6370  -33.6360   24.2270 N   0  0  0  0  0  0  0  0  0  0  0  0
  -26.0280  -34.6730   23.4710 C   0  0  0  0  0  0  0  0  0  0  0  0
  -26.7330  -34.5380   22.4700 O   0  0  0  0  0  0  0  0  0  0  0  0
  -25.0020  -33.8150   24.9900 H   0  0  0  0  0  0  0  0  0  0  0  0
  -24.3410  -36.4950   23.0440 C   0  0  0  0  0  1  0  0  0  0  0  0
  -25.5540  -36.0780   23.8910 C   0  0  0  0  0  3  0  0  0  0  0  0
  -27.6700  -36.9560   24.7750 C   0  0  0  0  0  1  0  0  0  0  0  0
  -26.6090  -37.1110   23.7890 N   0  0  0  0  0  0  0  0  0  0  0  0
  -26.2090  -38.0390   23.8970 H   0  0  0  0  0  0  0  0  0  0  0  0
  -26.3710  -31.4750   25.2560 C   0  0  1  0  0  0  0  0  0  0  0  0
  -25.2180  -31.2800   26.2670 C   0  0  0  0  0  1  0  0  0  0  0  0
  -26.9500  -30.0790   24.9320 C   0  0  0  0  0  1  0  0  0  0  0  0
  -27.4990  -32.2630   25.9660 C   0  0  0  0  0  1  0  0  0  0  0  0
  1  4  2  0
  1  2  1  0
  2  5  2  0
  3  7  1  0
  3  6  2  0
  4  3  1  0
  5  6  1  0
  5 47  1  0
  6 46  1  0
  8 13  1  0
  9 10  1  0
  9  8  1  0
 11 10  1  0
 11 18  1  0
 11 12  1  0
 13  7  1  0
 13 12  1  0
 14  7  2  0
 15 16  2  0
 16 35  1  0
 17 16  1  0
 17 20  1  0
 18 19  1  0
 18 15  1  0
 19 17  2  0
 20 21  1  0
 21 22  2  0
 23 26  1  0
 23 22  1  0
 24 23  2  0
 25 24  1  0
 25 20  2  0
 26 27  1  0
 27 32  2  0
 27 28  1  0
 28 29  2  0
 29 30  1  0
 30 34  1  0
 31 30  2  0
 32 31  1  0
 33 32  1  0
 35 36  1  0
 36 39  1  0
 36 38  1  0
 37 35  2  0
 40 15  1  0
 40 41  1  0
 42 40  1  0
 43 44  1  0
 44  4  1  0
 45 46  1  0
 48 47  2  0
 48 49  1  0
 49 50  2  0
 51 52  1  0
 51 49  1  0
 53 64  2  0
 54 52  1  0
 54 59  1  0
 55 63  1  0
 55 65  1  0
 56 62  1  0
 56 58  1  0
 57 63  1  0
 58 59  2  0
 58 57  1  0
 60 54  2  0
 61 60  1  0
 61 56  2  0
 62 55  1  0
 63 53  1  0
 65 67  2  0
 66 65  1  0
 68 66  1  0
 69 78  2  0
 69 74  1  0
 70 66  1  0
 70 74  1  0
 71 70  1  0
 72 73  1  0
 72 71  1  0
 73 69  1  0
 74 75  2  0
 75 76  1  0
 77 76  2  0
 78 77  1  0
 79 53  1  0
 79 80  1  0
 79 89  1  0
 80 83  1  0
 81 85  1  0
 81 80  1  0
 82 81  2  0
 85 84  1  0
 87 85  1  0
 87 88  1  0
 87 86  1  0
 89 92  1  1
 89 90  1  0
 91 89  1  0
M  ISO  4   3 100   7 100  51 101  52 101
M  END
>  <TORSDO>  (1) 
F 22

>  <SCORE>  (1) 
-12.203

>  <name>  (1) 
0

>  <ligand_id>  (1) 
0

>  <original_smiles>  (1) 
[H]c1c([H])c([H])c2c(c1[H])C([H])([H])C([H])([H])C([H])([H])C2([H])N([H])C(=O)C1([H])N(C(=O)C([H])(N([H])C(=O)C([H])(N([H])C([H])([H])[H])C([H])([H])[H])C(C([H])([H])[H])(C([H])([H])[H])C([H])([H])[H])C([H])([H])c2c([H])c(OC([H])([H])C(=O)C([H])([H])C([H])([H])c3c([H])c([H])c(C([H])([H])C([H])([H])[H])c(C(=O)N4C([H])([H])C([H])([H])C([H])([H])C([H])(n5nc(-c6c([H])c([H])c(Oc7c([H])c([H])c(F)c([H])c7F)c([H])c6[H])c(C(=O)N([H])[H])c5N([H])[H])C4([H])[H])c3C([H])([H])C([H])([H])[H])c([H])c([H])c2C1([H])[H]

>  <smiles>  (1) 
[H]c1c([H])c([H])c2c(c1[H])C([H])([H])C([H])([H])C([H])([H])C2([H])N([H])C(=O)C1([H])N(C(=O)C([H])(N([H])C(=O)C([H])(N([H])C([H])([H])[H])C([H])([H])[H])C(C([H])([H])[H])(C([H])([H])[H])C([H])([H])[H])C([H])([H])c2c([H])c(OC([H])([H])C(=O)C([H])([H])C([H])([H])c3c([H])c([H])c(C([H])([H])C([H])([H])[H])c(C(=O)N4C([H])([H])C([H])([H])C([H])([H])C([H])(n5nc(-c6c([H])c([H])c(Oc7c([H])c([H])c(F)c([H])c7F)c([H])c6[H])c(C(=O)N([H])[H])c5N([H])[H])C4([H])[H])c3C([H])([H])C([H])([H])[H])c([H])c([H])c2C1([H])[H]

$$$$
1:0:0
     RDKit          3D

 93101  0  0  1  0  0  0  0  0999 V2000
  -29.1280  -22.9140   22.1060 C   0  0  0  0  0  3  0  0  0  0  0  0
  -28.5060  -24.0080   20.0260 C   0  0  0  0  0  3  0  0  0  0  0  0
  -28.8170  -25.3530   22.0260 C   0  0  0  0  0  3  0  0  0  0  0  0
  -28.8190  -22.7750   20.7350 C   0  0  0  0  0  0  0  0  0  0  0  0
  -29.1250  -24.1760   22.7400 C   0  0  0  0  0  0  0  0  0  0  0  0
  -28.5100  -25.3180   20.6520 C   0  0  0  0  0  0  0  0  0  0  0  0
  -29.4430  -24.2660   24.0930 N   0  0  0  0  0  0  0  0  0  0  0  0
  -29.9390  -23.4910   24.5260 H   0  0  0  0  0  0  0  0  0  0  0  0
  -29.7500  -25.1660   24.4490 H   0  0  0  0  0  0  0  0  0  0  0  0
  -28.7750  -21.3490   20.1040 C   0  0  0  0  0  0  0  0  0  0  0  0
  -28.1670  -21.1660   19.0460 O   0  0  0  0  0  0  0  0  0  0  0  0
  -29.5300  -20.0840   20.7320 C   0  0  0  0  0  2  0  0  0  0  0  0
  -29.1620  -18.5670   20.2840 C   0  0  0  0  0  3  0  0  0  0  0  0
  -30.1630  -17.3590   20.6760 C   0  0  0  0  0  3  0  0  0  0  0  0
  -30.5100  -14.8080   20.1220 C   0  0  0  0  0  0  0  0  0  0  0  0
  -30.2740  -12.5740   19.0280 C   0  0  0  0  0  2  0  0  0  0  0  0
  -29.2720  -12.6850   17.8590 C   0  0  0  0  0  2  0  0  0  0  0  0
  -27.8270  -12.4820   18.3600 C   0  0  0  0  0  2  0  0  0  0  0  0
  -27.5120  -13.3300   19.6220 C   0  0  0  0  0  3  0  0  0  0  0  0
  -28.6270  -13.2030   20.6830 C   0  0  0  0  0  2  0  0  0  0  0  0
  -29.8880  -13.5850   20.0370 N   0  0  0  0  0  0  0  0  0  0  0  0
  -31.6700  -14.9440   19.7230 O   0  0  0  0  0  0  0  0  0  0  0  0
  -29.7490  -15.9060   20.4800 N   0  0  0  0  0  0  0  0  0  0  0  0
  -28.7950  -15.6880   20.7330 H   0  0  0  0  0  0  0  0  0  0  0  0
  -25.1590  -13.8800   20.4880 C   0  0  0  0  0  0  0  0  0  0  0  0
  -24.1220  -13.0860   20.8930 C   0  0  0  0  0  0  0  0  0  0  0  0
  -24.5930  -11.7410   20.7990 C   0  0  0  0  0  0  0  0  0  0  0  0
  -26.1960  -13.0180   20.1740 N   0  0  0  0  0  0  0  0  0  0  0  0
  -25.8660  -11.7250   20.4230 N   0  0  0  0  0  0  0  0  0  0  0  0
  -23.8890  -10.4670   20.9920 C   0  0  0  0  0  0  0  0  0  0  0  0
  -24.3560   -9.4960   21.9040 C   0  0  0  0  0  3  0  0  0  0  0  0
  -23.6510   -8.2860   22.0850 C   0  0  0  0  0  3  0  0  0  0  0  0
  -22.4640   -8.0400   21.3550 C   0  0  0  0  0  0  0  0  0  0  0  0
  -22.0150   -9.0000   20.4320 C   0  0  0  0  0  3  0  0  0  0  0  0
  -22.7210  -10.2010   20.2490 C   0  0  0  0  0  3  0  0  0  0  0  0
  -21.7290   -6.8840   21.4460 O   0  0  0  0  0  0  0  0  0  0  0  0
  -21.6930   -6.1410   22.5980 C   0  0  0  0  0  0  0  0  0  0  0  0
  -21.2230   -6.6780   23.8170 C   0  0  0  0  0  3  0  0  0  0  0  0
  -21.1420   -5.8590   24.9620 C   0  0  0  0  0  3  0  0  0  0  0  0
  -21.5200   -4.5060   24.8890 C   0  0  0  0  0  0  0  0  0  0  0  0
  -21.9820   -3.9690   23.6750 C   0  0  0  0  0  3  0  0  0  0  0  0
  -22.0670   -4.7840   22.5330 C   0  0  0  0  0  0  0  0  0  0  0  0
  -22.4950   -4.2560   21.3620 F   0  0  0  0  0  0  0  0  0  0  0  0
  -21.4340   -3.7180   25.9860 F   0  0  0  0  0  0  0  0  0  0  0  0
  -22.7370  -13.5430   21.2480 C   0  0  0  0  0  0  0  0  0  0  0  0
  -22.0570  -12.8130   22.1270 N   0  0  0  0  0  0  0  0  0  0  0  0
  -22.2670  -14.5810   20.7830 O   0  0  0  0  0  0  0  0  0  0  0  0
  -22.4500  -11.9720   22.5220 H   0  0  0  0  0  0  0  0  0  0  0  0
  -21.1300  -13.1000   22.4070 H   0  0  0  0  0  0  0  0  0  0  0  0
  -25.3020  -15.2570   20.3370 N   0  0  0  0  0  0  0  0  0  0  0  0
  -24.5310  -15.8960   20.4930 H   0  0  0  0  0  0  0  0  0  0  0  0
  -26.1120  -15.7100   19.9340 H   0  0  0  0  0  0  0  0  0  0  0  0
  -28.3800  -26.5670   19.9900 O   0  0  0  0  0  0  0  0  0  0  0  0
  -24.6310  -31.9030   23.2190 C   0  0  0  0  0  0  0  0  0  0  0  0
  -27.2430  -27.3830   20.0980 C   0  0  0  0  0  0  0  0  0  0  0  0
  -23.4180  -30.5050   21.5840 C   0  0  0  0  0  3  0  0  0  0  0  0
  -24.8630  -28.9680   20.1330 C   0  0  0  0  0  0  0  0  0  0  0  0
  -25.9500  -30.8470   21.3660 C   0  0  0  0  0  2  0  0  0  0  0  0
  -26.0340  -29.4670   20.7180 C   0  0  0  0  0  0  0  0  0  0  0  0
  -27.2300  -28.6860   20.6900 C   0  0  0  0  0  3  0  0  0  0  0  0
  -26.0490  -26.9300   19.5040 C   0  0  0  0  0  3  0  0  0  0  0  0
  -24.8700  -27.7040   19.5210 C   0  0  0  0  0  3  0  0  0  0  0  0
  -23.6190  -29.8360   20.1980 C   0  0  0  0  0  2  0  0  0  0  0  0
  -24.6870  -31.1020   22.1140 N   0  0  0  0  0  0  0  0  0  0  0  0
  -23.5520  -32.1640   23.7710 O   0  0  0  0  0  0  0  0  0  0  0  0
  -22.7780  -29.4760   22.5480 C   0  0  0  0  0  0  0  0  0  0  0  0
  -21.4530  -29.2810   22.4330 N   0  0  0  0  0  0  0  0  0  0  0  0
  -23.4740  -28.8560   23.3570 O   0  0  0  0  0  0  0  0  0  0  0  0
  -20.9490  -29.8370   21.7560 H   0  0  0  0  0  0  0  0  0  0  0  0
  -18.1010  -28.0270   22.9520 C   0  0  0  0  0  0  0  0  0  0  0  0
  -20.6560  -28.3280   23.2070 C   0  0  0  0  0  3  0  0  0  0  0  0
  -20.7770  -26.8990   22.6270 C   0  0  0  0  0  2  0  0  0  0  0  0
  -19.6740  -26.5610   21.6190 C   0  0  0  0  0  2  0  0  0  0  0  0
  -18.2940  -26.6830   22.2710 C   0  0  0  0  0  2  0  0  0  0  0  0
  -19.2090  -28.8070   23.3780 C   0  0  0  0  0  0  0  0  0  0  0  0
  -18.9720  -30.0650   23.9720 C   0  0  0  0  0  3  0  0  0  0  0  0
  -17.6600  -30.5440   24.1480 C   0  0  0  0  0  3  0  0  0  0  0  0
  -16.5670  -29.7620   23.7380 C   0  0  0  0  0  3  0  0  0  0  0  0
  -16.7870  -28.5060   23.1450 C   0  0  0  0  0  3  0  0  0  0  0  0
  -25.9160  -32.5430   23.8290 C   0  0  0  0  0  3  0  0  0  0  0  0
  -25.5980  -33.9370   24.1720 N   0  0  0  0  0  0  0  0  0  0  0  0
  -25.9100  -34.9970   23.4150 C   0  0  0  0  0  0  0  0  0  0  0  0
  -26.5640  -34.9050   22.3730 O   0  0  0  0  0  0  0  0  0  0  0  0
  -25.0090  -34.0810   24.9800 H   0  0  0  0  0  0  0  0  0  0  0  0
  -24.1680  -36.7840   23.0910 C   0  0  0  0  0  1  0  0  0  0  0  0
  -25.4190  -36.3800   23.8890 C   0  0  0  0  0  3  0  0  0  0  0  0
  -27.5550  -37.2740   24.7070 C   0  0  0  0  0  1  0  0  0  0  0  0
  -26.4430  -37.4400   23.7740 N   0  0  0  0  0  0  0  0  0  0  0  0
  -26.0320  -38.3560   23.9300 H   0  0  0  0  0  0  0  0  0  0  0  0
  -26.4520  -31.7690   25.0960 C   0  0  1  0  0  0  0  0  0  0  0  0
  -25.3740  -31.5170   26.1760 C   0  0  0  0  0  1  0  0  0  0  0  0
  -27.0430  -30.3990   24.6900 C   0  0  0  0  0  1  0  0  0  0  0  0
  -27.6050  -32.5680   25.7480 C   0  0  0  0  0  1  0  0  0  0  0  0
  1  5  1  0
  2  6  2  0
  2  4  1  0
  3  5  2  0
  4  1  2  0
  5  7  1  0
  6  3  1  0
  7  9  1  0
  7  8  1  0
 10 12  1  0
 10  4  1  0
 11 10  2  0
 13 14  2  0
 13 12  1  0
 15 23  1  0
 16 21  1  0
 17 18  1  0
 17 16  1  0
 19 18  1  0
 19 28  1  0
 19 20  1  0
 21 15  1  0
 21 20  1  0
 22 15  2  0
 23 14  1  0
 23 24  1  0
 25 26  2  0
 26 45  1  0
 27 26  1  0
 27 30  1  0
 28 29  1  0
 28 25  1  0
 29 27  2  0
 30 31  1  0
 31 32  2  0
 33 36  1  0
 33 32  1  0
 34 33  2  0
 35 34  1  0
 35 30  2  0
 36 37  1  0
 37 38  1  0
 38 39  2  0
 40 39  1  0
 40 44  1  0
 41 40  2  0
 42 37  2  0
 42 41  1  0
 43 42  1  0
 45 46  1  0
 46 49  1  0
 46 48  1  0
 47 45  2  0
 50 25  1  0
 50 51  1  0
 52 50  1  0
 53 55  1  0
 53  6  1  0
 54 65  2  0
 55 60  1  0
 56 64  1  0
 56 66  1  0
 57 63  1  0
 57 59  1  0
 58 64  1  0
 59 58  1  0
 60 59  2  0
 61 62  1  0
 61 55  2  0
 62 57  2  0
 63 56  1  0
 64 54  1  0
 66 68  2  0
 67 66  1  0
 69 67  1  0
 70 79  2  0
 70 75  1  0
 71 67  1  0
 71 75  1  0
 72 71  1  0
 73 74  1  0
 73 72  1  0
 74 70  1  0
 75 76  2  0
 76 77  1  0
 78 77  2  0
 79 78  1  0
 80 54  1  0
 80 81  1  0
 80 90  1  0
 81 84  1  0
 82 86  1  0
 82 81  1  0
 83 82  2  0
 86 85  1  0
 88 86  1  0
 88 89  1  0
 88 87  1  0
 90 93  1  1
 90 91  1  0
 92 90  1  0
M  ISO  4   6 101  15 100  23 100  53 101
M  END
>  <TORSDO>  (2) 
F 21

>  <SCORE>  (2) 
-13.793

>  <name>  (2) 
1

>  <ligand_id>  (2) 
1

>  <original_smiles>  (2) 
[H]c1c([H])c([H])c2c(c1[H])C([H])([H])C([H])([H])C([H])([H])C2([H])N([H])C(=O)C1([H])N(C(=O)C([H])(N([H])C(=O)C([H])(N([H])C([H])([H])[H])C([H])([H])[H])C(C([H])([H])[H])(C([H])([H])[H])C([H])([H])[H])C([H])([H])c2c([H])c(Oc3c([H])c(C(=O)C([H])([H])C([H])([H])C([H])([H])N([H])C(=O)N4C([H])([H])C([H])([H])C([H])([H])C([H])(n5nc(-c6c([H])c([H])c(Oc7c([H])c([H])c(F)c([H])c7F)c([H])c6[H])c(C(=O)N([H])[H])c5N([H])[H])C4([H])[H])c([H])c(N([H])[H])c3[H])c([H])c([H])c2C1([H])[H]

>  <smiles>  (2) 
[H]c1c([H])c([H])c2c(c1[H])C([H])([H])C([H])([H])C([H])([H])C2([H])N([H])C(=O)C1([H])N(C(=O)C([H])(N([H])C(=O)C([H])(N([H])C([H])([H])[H])C([H])([H])[H])C(C([H])([H])[H])(C([H])([H])[H])C([H])([H])[H])C([H])([H])c2c([H])c(Oc3c([H])c(C(=O)C([H])([H])C([H])([H])C([H])([H])N([H])C(=O)N4C([H])([H])C([H])([H])C([H])([H])C([H])(n5nc(-c6c([H])c([H])c(Oc7c([H])c([H])c(F)c([H])c7F)c([H])c6[H])c(C(=O)N([H])[H])c5N([H])[H])C4([H])[H])c([H])c(N([H])[H])c3[H])c([H])c([H])c2C1([H])[H]

$$$$
2:0:0
     RDKit          3D

 93101  0  0  1  0  0  0  0  0999 V2000
  -29.7150  -23.9370   17.2010 C   0  0  0  0  0  3  0  0  0  0  0  0
  -29.2130  -25.1640   16.7320 C   0  0  0  0  0  3  0  0  0  0  0  0
  -29.2550  -24.6370   19.4870 C   0  0  0  0  0  3  0  0  0  0  0  0
  -29.7400  -23.6640   18.5810 C   0  0  0  0  0  0  0  0  0  0  0  0
  -28.7730  -26.1550   17.6370 C   0  0  0  0  0  0  0  0  0  0  0  0
  -28.7720  -25.8840   19.0340 C   0  0  0  0  0  0  0  0  0  0  0  0
  -28.3560  -27.4980   17.0650 C   0  0  0  0  0  1  0  0  0  0  0  0
  -30.3760  -22.4110   19.0510 C   0  0  0  0  0  0  0  0  0  0  0  0
  -31.4080  -21.9650   18.5380 O   0  0  0  0  0  0  0  0  0  0  0  0
  -29.6360  -21.6410   20.1550 C   0  0  0  0  0  2  0  0  0  0  0  0
  -30.3710  -20.3960   20.7180 C   0  0  0  0  0  2  0  0  0  0  0  0
  -29.5210  -19.1220   20.6210 C   0  0  0  0  0  2  0  0  0  0  0  0
  -30.2150  -17.8590   21.1820 C   0  0  0  0  0  2  0  0  0  0  0  0
  -29.6080  -16.6020   20.5480 C   0  0  0  0  0  2  0  0  0  0  0  0
  -30.6660  -14.4070   20.4920 C   0  0  0  0  0  0  0  0  0  0  0  0
  -30.3580  -12.2930   19.2800 C   0  0  0  0  0  2  0  0  0  0  0  0
  -29.4090  -12.5400   18.0890 C   0  0  0  0  0  2  0  0  0  0  0  0
  -27.9350  -12.4070   18.5240 C   0  0  0  0  0  2  0  0  0  0  0  0
  -27.6090  -13.2180   19.8070 C   0  0  0  0  0  3  0  0  0  0  0  0
  -28.6650  -12.9310   20.8990 C   0  0  0  0  0  2  0  0  0  0  0  0
  -30.0030  -13.2320   20.3530 N   0  0  0  0  0  0  0  0  0  0  0  0
  -31.7240  -14.6780   19.9130 O   0  0  0  0  0  0  0  0  0  0  0  0
  -29.9920  -15.3390   21.1710 N   0  0  0  0  0  0  0  0  0  0  0  0
  -29.2990  -14.9590   21.8010 H   0  0  0  0  0  0  0  0  0  0  0  0
  -25.2000  -13.8230   20.5070 C   0  0  0  0  0  0  0  0  0  0  0  0
  -24.1330  -13.0470   20.8820 C   0  0  0  0  0  0  0  0  0  0  0  0
  -24.6030  -11.6960   20.8590 C   0  0  0  0  0  0  0  0  0  0  0  0
  -26.2510  -12.9460   20.2830 N   0  0  0  0  0  0  0  0  0  0  0  0
  -25.8920  -11.6610   20.5460 N   0  0  0  0  0  0  0  0  0  0  0  0
  -23.8830  -10.4290   21.0540 C   0  0  0  0  0  0  0  0  0  0  0  0
  -24.3320   -9.4610   21.9780 C   0  0  0  0  0  3  0  0  0  0  0  0
  -23.6180   -8.2580   22.1590 C   0  0  0  0  0  3  0  0  0  0  0  0
  -22.4360   -8.0170   21.4210 C   0  0  0  0  0  0  0  0  0  0  0  0
  -22.0020   -8.9770   20.4900 C   0  0  0  0  0  3  0  0  0  0  0  0
  -22.7180  -10.1720   20.3050 C   0  0  0  0  0  3  0  0  0  0  0  0
  -21.6870   -6.8690   21.5170 O   0  0  0  0  0  0  0  0  0  0  0  0
  -21.6780   -6.1120   22.6630 C   0  0  0  0  0  0  0  0  0  0  0  0
  -21.2860   -6.6480   23.9090 C   0  0  0  0  0  3  0  0  0  0  0  0
  -21.2190   -5.8150   25.0440 C   0  0  0  0  0  3  0  0  0  0  0  0
  -21.5330   -4.4460   24.9350 C   0  0  0  0  0  0  0  0  0  0  0  0
  -21.9140   -3.9110   23.6930 C   0  0  0  0  0  3  0  0  0  0  0  0
  -21.9820   -4.7410   22.5600 C   0  0  0  0  0  0  0  0  0  0  0  0
  -22.3280   -4.2120   21.3620 F   0  0  0  0  0  0  0  0  0  0  0  0
  -21.4660   -3.6460   26.0240 F   0  0  0  0  0  0  0  0  0  0  0  0
  -22.7330  -13.5230   21.1530 C   0  0  0  0  0  0  0  0  0  0  0  0
  -22.0030  -12.8300   22.0190 N   0  0  0  0  0  0  0  0  0  0  0  0
  -22.2920  -14.5420   20.6260 O   0  0  0  0  0  0  0  0  0  0  0  0
  -22.3670  -12.0130   22.4840 H   0  0  0  0  0  0  0  0  0  0  0  0
  -21.0650  -13.1400   22.2350 H   0  0  0  0  0  0  0  0  0  0  0  0
  -25.3730  -15.1910   20.3150 N   0  0  0  0  0  0  0  0  0  0  0  0
  -24.6270  -15.8750   20.4010 H   0  0  0  0  0  0  0  0  0  0  0  0
  -26.2400  -15.5930   19.9800 H   0  0  0  0  0  0  0  0  0  0  0  0
  -28.4530  -26.8150   20.0070 O   0  0  0  0  0  0  0  0  0  0  0  0
  -24.6130  -31.8930   23.1980 C   0  0  0  0  0  0  0  0  0  0  0  0
  -27.2450  -27.4750   20.0550 C   0  0  0  0  0  0  0  0  0  0  0  0
  -23.3860  -30.4800   21.5800 C   0  0  0  0  0  3  0  0  0  0  0  0
  -24.8200  -28.9380   20.1380 C   0  0  0  0  0  0  0  0  0  0  0  0
  -25.9050  -30.8450   21.3450 C   0  0  0  0  0  2  0  0  0  0  0  0
  -25.9830  -29.4760   20.7070 C   0  0  0  0  0  0  0  0  0  0  0  0
  -27.1910  -28.7480   20.6690 C   0  0  0  0  0  3  0  0  0  0  0  0
  -26.0570  -26.9290   19.5240 C   0  0  0  0  0  3  0  0  0  0  0  0
  -24.8520  -27.6600   19.5530 C   0  0  0  0  0  3  0  0  0  0  0  0
  -23.5720  -29.7880   20.2030 C   0  0  0  0  0  2  0  0  0  0  0  0
  -24.6530  -31.0890   22.0970 N   0  0  0  0  0  0  0  0  0  0  0  0
  -23.5390  -32.1670   23.7500 O   0  0  0  0  0  0  0  0  0  0  0  0
  -22.7510  -29.4640   22.5570 C   0  0  0  0  0  0  0  0  0  0  0  0
  -21.4280  -29.2720   22.4410 N   0  0  0  0  0  0  0  0  0  0  0  0
  -23.4450  -28.8520   23.3700 O   0  0  0  0  0  0  0  0  0  0  0  0
  -20.9290  -29.8180   21.7520 H   0  0  0  0  0  0  0  0  0  0  0  0
  -18.0650  -28.0620   22.9680 C   0  0  0  0  0  0  0  0  0  0  0  0
  -20.6220  -28.3380   23.2240 C   0  0  0  0  0  3  0  0  0  0  0  0
  -20.7310  -26.9020   22.6630 C   0  0  0  0  0  2  0  0  0  0  0  0
  -19.6270  -26.5630   21.6560 C   0  0  0  0  0  2  0  0  0  0  0  0
  -18.2460  -26.7070   22.3010 C   0  0  0  0  0  2  0  0  0  0  0  0
  -19.1800  -28.8330   23.3850 C   0  0  0  0  0  0  0  0  0  0  0  0
  -18.9590  -30.1010   23.9680 C   0  0  0  0  0  3  0  0  0  0  0  0
  -17.6520  -30.5970   24.1340 C   0  0  0  0  0  3  0  0  0  0  0  0
  -16.5510  -29.8230   23.7330 C   0  0  0  0  0  3  0  0  0  0  0  0
  -16.7580  -28.5570   23.1560 C   0  0  0  0  0  3  0  0  0  0  0  0
  -25.9080  -32.5270   23.7980 C   0  0  0  0  0  3  0  0  0  0  0  0
  -25.5930  -33.9190   24.1440 N   0  0  0  0  0  0  0  0  0  0  0  0
  -25.9140  -34.9810   23.3940 C   0  0  0  0  0  0  0  0  0  0  0  0
  -26.5770  -34.8940   22.3580 O   0  0  0  0  0  0  0  0  0  0  0  0
  -24.9920  -34.0590   24.9420 H   0  0  0  0  0  0  0  0  0  0  0  0
  -24.1770  -36.7740   23.0700 C   0  0  0  0  0  1  0  0  0  0  0  0
  -25.4210  -36.3600   23.8730 C   0  0  0  0  0  3  0  0  0  0  0  0
  -27.5550  -37.2420   24.7090 C   0  0  0  0  0  1  0  0  0  0  0  0
  -26.4480  -37.4200   23.7720 N   0  0  0  0  0  0  0  0  0  0  0  0
  -26.0390  -38.3350   23.9320 H   0  0  0  0  0  0  0  0  0  0  0  0
  -26.4580  -31.7490   25.0580 C   0  0  1  0  0  0  0  0  0  0  0  0
  -25.3900  -31.5010   26.1470 C   0  0  0  0  0  1  0  0  0  0  0  0
  -27.0430  -30.3790   24.6450 C   0  0  0  0  0  1  0  0  0  0  0  0
  -27.6180  -32.5480   25.6960 C   0  0  0  0  0  1  0  0  0  0  0  0
  1  4  1  0
  2  1  2  0
  2  5  1  0
  4  8  1  0
  4  3  2  0
  5  6  2  0
  6  3  1  0
  6 53  1  0
  7  5  1  0
  8 10  1  0
  9  8  2  0
 10 11  1  0
 12 11  1  0
 12 13  1  0
 14 23  1  0
 14 13  1  0
 15 23  1  0
 16 21  1  0
 17 18  1  0
 17 16  1  0
 19 18  1  0
 19 28  1  0
 19 20  1  0
 21 15  1  0
 21 20  1  0
 22 15  2  0
 23 24  1  0
 25 26  2  0
 26 45  1  0
 27 26  1  0
 27 30  1  0
 28 25  1  0
 28 29  1  0
 29 27  2  0
 30 31  1  0
 31 32  2  0
 33 36  1  0
 33 32  1  0
 34 33  2  0
 35 34  1  0
 35 30  2  0
 36 37  1  0
 37 38  1  0
 38 39  2  0
 40 39  1  0
 40 44  1  0
 41 40  2  0
 42 37  2  0
 42 41  1  0
 43 42  1  0
 45 46  1  0
 46 49  1  0
 46 48  1  0
 47 45  2  0
 50 51  1  0
 50 25  1  0
 52 50  1  0
 53 55  1  0
 54 65  2  0
 55 60  1  0
 56 64  1  0
 56 66  1  0
 57 63  1  0
 57 59  1  0
 58 64  1  0
 59 58  1  0
 60 59  2  0
 61 62  1  0
 61 55  2  0
 62 57  2  0
 63 56  1  0
 64 54  1  0
 66 68  2  0
 67 66  1  0
 69 67  1  0
 70 79  2  0
 70 75  1  0
 71 67  1  0
 71 75  1  0
 72 71  1  0
 73 74  1  0
 73 72  1  0
 74 70  1  0
 75 76  2  0
 76 77  1  0
 78 77  2  0
 79 78  1  0
 80 54  1  0
 80 81  1  0
 80 90  1  0
 81 84  1  0
 82 86  1  0
 82 81  1  0
 83 82  2  0
 86 85  1  0
 88 86  1  0
 88 89  1  0
 88 87  1  0
 90 93  1  1
 90 91  1  0
 92 90  1  0
M  ISO  4   6 101  15 100  23 100  53 101
M  END
>  <TORSDO>  (3) 
F 22

>  <SCORE>  (3) 
-13.120

>  <name>  (3) 
2

>  <ligand_id>  (3) 
2

>  <original_smiles>  (3) 
[H]c1c([H])c([H])c2c(c1[H])C([H])([H])C([H])([H])C([H])([H])C2([H])N([H])C(=O)C1([H])N(C(=O)C([H])(N([H])C(=O)C([H])(N([H])C([H])([H])[H])C([H])([H])[H])C(C([H])([H])[H])(C([H])([H])[H])C([H])([H])[H])C([H])([H])c2c([H])c(Oc3c([H])c(C(=O)C([H])([H])C([H])([H])C([H])([H])C([H])([H])C([H])([H])N([H])C(=O)N4C([H])([H])C([H])([H])C([H])([H])C([H])(n5nc(-c6c([H])c([H])c(Oc7c([H])c([H])c(F)c([H])c7F)c([H])c6[H])c(C(=O)N([H])[H])c5N([H])[H])C4([H])[H])c([H])c([H])c3C([H])([H])[H])c([H])c([H])c2C1([H])[H]

>  <smiles>  (3) 
[H]c1c([H])c([H])c2c(c1[H])C([H])([H])C([H])([H])C([H])([H])C2([H])N([H])C(=O)C1([H])N(C(=O)C([H])(N([H])C(=O)C([H])(N([H])C([H])([H])[H])C([H])([H])[H])C(C([H])([H])[H])(C([H])([H])[H])C([H])([H])[H])C([H])([H])c2c([H])c(Oc3c([H])c(C(=O)C([H])([H])C([H])([H])C([H])([H])C([H])([H])C([H])([H])N([H])C(=O)N4C([H])([H])C([H])([H])C([H])([H])C([H])(n5nc(-c6c([H])c([H])c(Oc7c([H])c([H])c(F)c([H])c7F)c([H])c6[H])c(C(=O)N([H])[H])c5N([H])[H])C4([H])[H])c([H])c([H])c3C([H])([H])[H])c([H])c([H])c2C1([H])[H]

$$$$
3:0:0
     RDKit          3D

 94102  0  0  1  0  0  0  0  0999 V2000
  -27.5040  -23.4460   19.7020 C   0  0  0  0  0  3  0  0  0  0  0  0
  -29.7400  -22.2830   20.8020 C   0  0  0  0  0  3  0  0  0  0  0  0
  -27.7250  -21.9750   19.7130 C   0  0  0  0  0  0  0  0  0  0  0  0
  -28.8700  -21.2370   20.2820 C   0  0  0  0  0  0  0  0  0  0  0  0
  -28.3750  -24.4820   20.2160 C   0  0  0  0  0  0  0  0  0  0  0  0
  -29.5180  -23.7540   20.7700 C   0  0  0  0  0  0  0  0  0  0  0  0
  -30.5120  -24.5140   21.2870 F   0  0  0  0  0  0  0  0  0  0  0  0
  -26.6550  -21.2000   19.0220 C   0  0  0  0  0  0  0  0  0  0  0  0
  -25.9990  -20.3070   19.5630 O   0  0  0  0  0  0  0  0  0  0  0  0
  -26.1240  -20.3290   16.6570 C   0  0  0  0  0  1  0  0  0  0  0  0
  -26.4290  -21.5470   17.5460 C   0  0  0  0  0  2  0  0  0  0  0  0
  -29.6570  -19.3610   18.6280 C   0  0  0  0  0  1  0  0  0  0  0  0
  -29.1310  -19.5150   20.0690 C   0  0  0  0  0  3  0  0  0  0  0  0
  -29.8610  -18.3050   20.9030 N   0  0  0  0  0  4  0  0  0  0  0  0
  -30.8470  -18.4040   20.7380 H   0  0  0  0  0  0  0  0  0  0  0  0
  -29.7420  -18.5240   21.8790 H   0  0  0  0  0  0  0  0  0  0  0  0
  -29.5320  -16.6940   20.7630 C   0  0  0  0  0  2  0  0  0  0  0  0
  -30.5070  -15.2640   20.8220 C   0  0  0  0  0  0  0  0  0  0  0  0
  -30.6440  -12.8160   20.0130 C   0  0  0  0  0  2  0  0  0  0  0  0
  -29.8350  -12.6630   18.6990 C   0  0  0  0  0  2  0  0  0  0  0  0
  -28.3450  -12.3950   18.9870 C   0  0  0  0  0  2  0  0  0  0  0  0
  -27.7930  -13.3270   20.0960 C   0  0  0  0  0  3  0  0  0  0  0  0
  -28.7390  -13.4310   21.3040 C   0  0  0  0  0  2  0  0  0  0  0  0
  -30.0310  -13.9290   20.8150 N   0  0  0  0  0  0  0  0  0  0  0  0
  -31.7360  -15.3480   20.6770 O   0  0  0  0  0  0  0  0  0  0  0  0
  -25.3590  -13.8550   20.6500 C   0  0  0  0  0  0  0  0  0  0  0  0
  -24.2840  -13.0640   20.9480 C   0  0  0  0  0  0  0  0  0  0  0  0
  -24.7730  -11.7220   20.9680 C   0  0  0  0  0  0  0  0  0  0  0  0
  -26.4310  -12.9950   20.4950 N   0  0  0  0  0  0  0  0  0  0  0  0
  -26.0860  -11.7060   20.7570 N   0  0  0  0  0  0  0  0  0  0  0  0
  -24.0520  -10.4490   21.1180 C   0  0  0  0  0  0  0  0  0  0  0  0
  -24.4450   -9.4890   22.0740 C   0  0  0  0  0  3  0  0  0  0  0  0
  -23.7250   -8.2820   22.2140 C   0  0  0  0  0  3  0  0  0  0  0  0
  -22.5980   -8.0290   21.3950 C   0  0  0  0  0  0  0  0  0  0  0  0
  -22.2250   -8.9810   20.4290 C   0  0  0  0  0  3  0  0  0  0  0  0
  -22.9450  -10.1780   20.2890 C   0  0  0  0  0  3  0  0  0  0  0  0
  -21.8550   -6.8730   21.4380 O   0  0  0  0  0  0  0  0  0  0  0  0
  -21.7660   -6.1180   22.5790 C   0  0  0  0  0  0  0  0  0  0  0  0
  -21.2750   -6.6520   23.7910 C   0  0  0  0  0  3  0  0  0  0  0  0
  -21.1350   -5.8210   24.9210 C   0  0  0  0  0  3  0  0  0  0  0  0
  -21.4760   -4.4580   24.8390 C   0  0  0  0  0  0  0  0  0  0  0  0
  -21.9610   -3.9230   23.6320 C   0  0  0  0  0  3  0  0  0  0  0  0
  -22.1020   -4.7510   22.5040 C   0  0  0  0  0  0  0  0  0  0  0  0
  -22.5480   -4.2270   21.3380 F   0  0  0  0  0  0  0  0  0  0  0  0
  -21.3350   -3.6570   25.9220 F   0  0  0  0  0  0  0  0  0  0  0  0
  -22.8620  -13.5190   21.0980 C   0  0  0  0  0  0  0  0  0  0  0  0
  -22.0800  -12.8280   21.9190 N   0  0  0  0  0  0  0  0  0  0  0  0
  -22.4510  -14.5270   20.5230 O   0  0  0  0  0  0  0  0  0  0  0  0
  -22.4230  -12.0170   22.4100 H   0  0  0  0  0  0  0  0  0  0  0  0
  -21.1220  -13.1140   22.0550 H   0  0  0  0  0  0  0  0  0  0  0  0
  -25.5120  -15.2260   20.4680 N   0  0  0  0  0  0  0  0  0  0  0  0
  -24.7200  -15.8600   20.5000 H   0  0  0  0  0  0  0  0  0  0  0  0
  -26.3600  -15.6720   20.1400 H   0  0  0  0  0  0  0  0  0  0  0  0
  -28.2990  -26.0060   20.0990 O   0  0  0  0  0  0  0  0  0  0  0  0
  -24.6420  -31.8470   23.0910 C   0  0  0  0  0  0  0  0  0  0  0  0
  -27.2120  -27.0080   20.0800 C   0  0  0  0  0  0  0  0  0  0  0  0
  -23.4380  -30.4270   21.4790 C   0  0  0  0  0  3  0  0  0  0  0  0
  -24.8820  -28.8270   20.0550 C   0  0  0  0  0  0  0  0  0  0  0  0
  -25.9950  -30.6720   21.2960 C   0  0  0  0  0  2  0  0  0  0  0  0
  -26.0680  -29.2590   20.6560 C   0  0  0  0  0  0  0  0  0  0  0  0
  -27.2250  -28.3680   20.6490 C   0  0  0  0  0  3  0  0  0  0  0  0
  -25.9940  -26.7160   19.4240 C   0  0  0  0  0  3  0  0  0  0  0  0
  -24.8660  -27.5740   19.4210 C   0  0  0  0  0  3  0  0  0  0  0  0
  -23.6530  -29.7310   20.1070 C   0  0  0  0  0  2  0  0  0  0  0  0
  -24.7130  -31.0100   22.0070 N   0  0  0  0  0  0  0  0  0  0  0  0
  -23.5570  -32.1300   23.6250 O   0  0  0  0  0  0  0  0  0  0  0  0
  -22.7700  -29.4300   22.4620 C   0  0  0  0  0  0  0  0  0  0  0  0
  -21.4380  -29.2650   22.3650 N   0  0  0  0  0  0  0  0  0  0  0  0
  -23.4540  -28.8090   23.2770 O   0  0  0  0  0  0  0  0  0  0  0  0
  -20.9400  -29.8160   21.6800 H   0  0  0  0  0  0  0  0  0  0  0  0
  -18.0660  -28.0640   22.9520 C   0  0  0  0  0  0  0  0  0  0  0  0
  -20.6320  -28.3290   23.1570 C   0  0  0  0  0  3  0  0  0  0  0  0
  -20.7200  -26.8970   22.5800 C   0  0  0  0  0  2  0  0  0  0  0  0
  -19.5920  -26.5730   21.5940 C   0  0  0  0  0  2  0  0  0  0  0  0
  -18.2270  -26.7170   22.2700 C   0  0  0  0  0  2  0  0  0  0  0  0
  -19.1950  -28.8280   23.3540 C   0  0  0  0  0  0  0  0  0  0  0  0
  -18.9880  -30.0870   23.9580 C   0  0  0  0  0  3  0  0  0  0  0  0
  -17.6880  -30.5850   24.1600 C   0  0  0  0  0  3  0  0  0  0  0  0
  -16.5740  -29.8190   23.7730 C   0  0  0  0  0  3  0  0  0  0  0  0
  -16.7640  -28.5600   23.1750 C   0  0  0  0  0  3  0  0  0  0  0  0
  -25.9150  -32.5060   23.7010 C   0  0  0  0  0  3  0  0  0  0  0  0
  -25.5770  -33.8910   24.0690 N   0  0  0  0  0  0  0  0  0  0  0  0
  -25.8790  -34.9750   23.3400 C   0  0  0  0  0  0  0  0  0  0  0  0
  -26.5370  -34.9130   22.2990 O   0  0  0  0  0  0  0  0  0  0  0  0
  -24.9830  -34.0120   24.8770 H   0  0  0  0  0  0  0  0  0  0  0  0
  -24.1230  -36.7580   23.0590 C   0  0  0  0  0  1  0  0  0  0  0  0
  -25.3760  -36.3430   23.8460 C   0  0  0  0  0  3  0  0  0  0  0  0
  -27.5020  -37.2380   24.6890 C   0  0  0  0  0  1  0  0  0  0  0  0
  -26.3910  -37.4150   23.7560 N   0  0  0  0  0  0  0  0  0  0  0  0
  -25.9730  -38.3250   23.9310 H   0  0  0  0  0  0  0  0  0  0  0  0
  -26.4690  -31.7290   24.9610 C   0  0  1  0  0  0  0  0  0  0  0  0
  -25.4000  -31.4640   26.0480 C   0  0  0  0  0  1  0  0  0  0  0  0
  -27.0660  -30.3640   24.5520 C   0  0  0  0  0  1  0  0  0  0  0  0
  -27.6190  -32.5350   25.6100 C   0  0  0  0  0  1  0  0  0  0  0  0
  1  3  2  0
  1  5  1  0
  3  4  1  0
  4  2  2  0
  5  6  2  0
  6  2  1  0
  6  7  1  0
  8  9  2  0
  8  3  1  0
 10 11  1  0
 11  8  1  0
 13 12  1  0
 13  4  1  0
 13 14  1  0
 14 16  1  0
 15 14  1  0
 17 18  1  0
 17 14  1  0
 19 24  1  0
 20 21  1  0
 20 19  1  0
 22 21  1  0
 22 29  1  0
 22 23  1  0
 24 18  1  0
 24 23  1  0
 25 18  2  0
 26 27  2  0
 27 28  1  0
 27 46  1  0
 28 31  1  0
 29 26  1  0
 29 30  1  0
 30 28  2  0
 31 32  1  0
 32 33  2  0
 34 37  1  0
 34 33  1  0
 35 34  2  0
 36 35  1  0
 36 31  2  0
 37 38  1  0
 38 39  1  0
 39 40  2  0
 41 40  1  0
 41 45  1  0
 42 41  2  0
 43 38  2  0
 43 42  1  0
 44 43  1  0
 46 47  1  0
 47 50  1  0
 47 49  1  0
 48 46  2  0
 51 52  1  0
 51 26  1  0
 53 51  1  0
 54  5  1  0
 55 66  2  0
 56 54  1  0
 56 61  1  0
 57 65  1  0
 57 67  1  0
 58 64  1  0
 58 60  1  0
 59 65  1  0
 60 59  1  0
 61 60  2  0
 62 56  2  0
 63 62  1  0
 63 58  2  0
 64 57  1  0
 65 55  1  0
 67 69  2  0
 68 67  1  0
 70 68  1  0
 71 80  2  0
 71 76  1  0
 72 68  1  0
 72 76  1  0
 73 72  1  0
 74 75  1  0
 74 73  1  0
 75 71  1  0
 76 77  2  0
 77 78  1  0
 79 78  2  0
 80 79  1  0
 81 55  1  0
 81 82  1  0
 81 91  1  0
 82 85  1  0
 83 87  1  0
 83 82  1  0
 84 83  2  0
 87 86  1  0
 89 87  1  0
 89 90  1  0
 89 88  1  0
 91 94  1  1
 91 92  1  0
 93 91  1  0
M  ISO  4   5 101  17 100  18 100  54 101
M  END
>  <TORSDO>  (4) 
F 21

>  <SCORE>  (4) 
-12.821

>  <name>  (4) 
3

>  <ligand_id>  (4) 
3

>  <original_smiles>  (4) 
[H]c1c([H])c([H])c2c(c1[H])C([H])([H])C([H])([H])C([H])([H])C2([H])N([H])C(=O)C1([H])N(C(=O)C([H])(N([H])C(=O)C([H])(N([H])C([H])([H])[H])C([H])([H])[H])C(C([H])([H])[H])(C([H])([H])[H])C([H])([H])[H])C([H])([H])c2c([H])c(Oc3c([H])c(C(=O)C([H])([H])C([H])([H])[H])c(C([H])(C([H])([H])[H])[N+]([H])([H])C([H])([H])C(=O)N4C([H])([H])C([H])([H])C([H])([H])C([H])(n5nc(-c6c([H])c([H])c(Oc7c([H])c([H])c(F)c([H])c7F)c([H])c6[H])c(C(=O)N([H])[H])c5N([H])[H])C4([H])[H])c([H])c3F)c([H])c([H])c2C1([H])[H]

>  <smiles>  (4) 
[H]c1c([H])c([H])c2c(c1[H])C([H])([H])C([H])([H])C([H])([H])C2([H])N([H])C(=O)C1([H])N(C(=O)C([H])(N([H])C(=O)C([H])(N([H])C([H])([H])[H])C([H])([H])[H])C(C([H])([H])[H])(C([H])([H])[H])C([H])([H])[H])C([H])([H])c2c([H])c(Oc3c([H])c(C(=O)C([H])([H])C([H])([H])[H])c(C([H])(C([H])([H])[H])[N+]([H])([H])C([H])([H])C(=O)N4C([H])([H])C([H])([H])C([H])([H])C([H])(n5nc(-c6c([H])c([H])c(Oc7c([H])c([H])c(F)c([H])c7F)c([H])c6[H])c(C(=O)N([H])[H])c5N([H])[H])C4([H])[H])c([H])c3F)c([H])c([H])c2C1([H])[H]

$$$$
4:0:0
     RDKit          3D

 89 97  0  0  1  0  0  0  0  0999 V2000
  -30.6980  -17.6250   18.7140 C   0  0  0  0  0  3  0  0  0  0  0  0
  -30.3150  -19.0400   18.6130 C   0  0  0  0  0  3  0  0  0  0  0  0
  -30.0350  -16.5720   19.4600 C   0  0  0  0  0  0  0  0  0  0  0  0
  -29.1890  -19.6700   19.2570 C   0  0  0  0  0  0  0  0  0  0  0  0
  -28.9180  -17.2030   20.1600 C   0  0  0  0  0  0  0  0  0  0  0  0
  -28.5070  -18.6310   20.0210 C   0  0  0  0  0  0  0  0  0  0  0  0
  -28.1500  -16.3550   21.1610 C   0  0  0  0  0  1  0  0  0  0  0  0
  -30.6770  -15.0460   19.5780 C   0  0  0  0  0  0  0  0  0  0  0  0
  -30.5550  -12.5480   19.0370 C   0  0  0  0  0  2  0  0  0  0  0  0
  -29.5950  -12.2670   17.8540 C   0  0  0  0  0  2  0  0  0  0  0  0
  -28.1570  -12.0730   18.3650 C   0  0  0  0  0  2  0  0  0  0  0  0
  -27.7570  -13.1600   19.3940 C   0  0  0  0  0  3  0  0  0  0  0  0
  -28.8430  -13.3960   20.4610 C   0  0  0  0  0  2  0  0  0  0  0  0
  -30.0750  -13.7790   19.7580 N   0  0  0  0  0  0  0  0  0  0  0  0
  -31.8740  -14.9670   19.2670 O   0  0  0  0  0  0  0  0  0  0  0  0
  -25.5000  -13.8300   20.3740 C   0  0  0  0  0  0  0  0  0  0  0  0
  -24.4180  -13.1010   20.7880 C   0  0  0  0  0  0  0  0  0  0  0  0
  -24.7870  -11.7280   20.6440 C   0  0  0  0  0  0  0  0  0  0  0  0
  -26.4540  -12.9040   19.9920 N   0  0  0  0  0  0  0  0  0  0  0  0
  -26.0440  -11.6300   20.2250 N   0  0  0  0  0  0  0  0  0  0  0  0
  -23.9930  -10.5050   20.8240 C   0  0  0  0  0  0  0  0  0  0  0  0
  -24.4530   -9.4320   21.6210 C   0  0  0  0  0  3  0  0  0  0  0  0
  -23.6590   -8.2780   21.7950 C   0  0  0  0  0  3  0  0  0  0  0  0
  -22.3900   -8.1880   21.1750 C   0  0  0  0  0  0  0  0  0  0  0  0
  -21.9460   -9.2490   20.3670 C   0  0  0  0  0  3  0  0  0  0  0  0
  -22.7390  -10.3960   20.1890 C   0  0  0  0  0  3  0  0  0  0  0  0
  -21.5620   -7.0950   21.2680 O   0  0  0  0  0  0  0  0  0  0  0  0
  -21.6280   -6.2290   22.3300 C   0  0  0  0  0  0  0  0  0  0  0  0
  -21.4490   -6.6670   23.6610 C   0  0  0  0  0  3  0  0  0  0  0  0
  -21.4540   -5.7340   24.7170 C   0  0  0  0  0  3  0  0  0  0  0  0
  -21.6280   -4.3630   24.4450 C   0  0  0  0  0  0  0  0  0  0  0  0
  -21.8010   -3.9250   23.1200 C   0  0  0  0  0  3  0  0  0  0  0  0
  -21.7980   -4.8550   22.0660 C   0  0  0  0  0  0  0  0  0  0  0  0
  -21.9430   -4.4240   20.7900 F   0  0  0  0  0  0  0  0  0  0  0  0
  -21.6270   -3.4650   25.4570 F   0  0  0  0  0  0  0  0  0  0  0  0
  -23.0840  -13.6510   21.1980 C   0  0  0  0  0  0  0  0  0  0  0  0
  -22.3890  -12.9660   22.0980 N   0  0  0  0  0  0  0  0  0  0  0  0
  -22.6720  -14.7230   20.7560 O   0  0  0  0  0  0  0  0  0  0  0  0
  -22.7350  -12.0950   22.4710 H   0  0  0  0  0  0  0  0  0  0  0  0
  -21.4970  -13.3160   22.4170 H   0  0  0  0  0  0  0  0  0  0  0  0
  -25.7470  -15.1950   20.2670 N   0  0  0  0  0  0  0  0  0  0  0  0
  -25.0440  -15.8910   20.4920 H   0  0  0  0  0  0  0  0  0  0  0  0
  -26.6020  -15.5970   19.9030 H   0  0  0  0  0  0  0  0  0  0  0  0
  -26.1510  -18.6890   20.0050 C   0  0  0  0  0  1  0  0  0  0  0  0
  -27.3650  -19.0570   20.6540 O   0  0  0  0  0  0  0  0  0  0  0  0
  -28.5750  -21.2280   18.8970 C   0  0  0  0  0  2  0  0  0  0  0  0
  -28.9490  -22.8720   19.3370 C   0  0  0  0  0  3  0  0  0  0  0  0
  -28.0040  -24.3110   19.0180 C   0  0  0  0  0  3  0  0  0  0  0  0
  -28.2390  -25.8780   19.2850 O   0  0  0  0  0  0  0  0  0  0  0  0
  -24.5130  -31.2830   22.8230 C   0  0  0  0  0  0  0  0  0  0  0  0
  -27.1720  -26.8840   19.3260 C   0  0  0  0  0  0  0  0  0  0  0  0
  -23.3230  -29.9760   21.1080 C   0  0  0  0  0  3  0  0  0  0  0  0
  -24.7890  -28.5870   19.5080 C   0  0  0  0  0  0  0  0  0  0  0  0
  -25.8640  -30.3480   20.8940 C   0  0  0  0  0  2  0  0  0  0  0  0
  -25.9740  -29.0130   20.1200 C   0  0  0  0  0  0  0  0  0  0  0  0
  -27.1640  -28.1810   20.0100 C   0  0  0  0  0  3  0  0  0  0  0  0
  -25.9560  -26.5890   18.6760 C   0  0  0  0  0  3  0  0  0  0  0  0
  -24.7990  -27.3950   18.7680 C   0  0  0  0  0  3  0  0  0  0  0  0
  -23.5300  -29.4280   19.6700 C   0  0  0  0  0  2  0  0  0  0  0  0
  -24.5880  -30.5560   21.6640 N   0  0  0  0  0  0  0  0  0  0  0  0
  -23.4320  -31.4730   23.4030 O   0  0  0  0  0  0  0  0  0  0  0  0
  -22.7180  -28.8630   22.0020 C   0  0  0  0  0  0  0  0  0  0  0  0
  -21.3950  -28.6400   21.9010 N   0  0  0  0  0  0  0  0  0  0  0  0
  -23.4410  -28.2050   22.7530 O   0  0  0  0  0  0  0  0  0  0  0  0
  -20.8620  -29.2270   21.2760 H   0  0  0  0  0  0  0  0  0  0  0  0
  -18.0970  -27.2110   22.3740 C   0  0  0  0  0  0  0  0  0  0  0  0
  -20.6430  -27.6010   22.6120 C   0  0  0  0  0  3  0  0  0  0  0  0
  -20.8110  -26.2250   21.9280 C   0  0  0  0  0  2  0  0  0  0  0  0
  -19.7060  -25.9190   20.9110 C   0  0  0  0  0  2  0  0  0  0  0  0
  -18.3330  -25.9330   21.5890 C   0  0  0  0  0  2  0  0  0  0  0  0
  -19.1790  -28.0020   22.8400 C   0  0  0  0  0  0  0  0  0  0  0  0
  -18.9010  -29.1990   23.5360 C   0  0  0  0  0  3  0  0  0  0  0  0
  -17.5730  -29.6070   23.7670 C   0  0  0  0  0  3  0  0  0  0  0  0
  -16.5060  -28.8110   23.3150 C   0  0  0  0  0  3  0  0  0  0  0  0
  -16.7680  -27.6140   22.6260 C   0  0  0  0  0  3  0  0  0  0  0  0
  -25.7780  -31.9270   23.4680 C   0  0  0  0  0  3  0  0  0  0  0  0
  -26.3740  -31.0700   24.6520 C   0  0  1  0  0  0  0  0  0  0  0  0
  -25.3320  -30.6870   25.7300 C   0  0  0  0  0  1  0  0  0  0  0  0
  -27.0010  -29.7610   24.1230 C   0  0  0  0  0  1  0  0  0  0  0  0
  -27.5130  -31.8550   25.3440 C   0  0  0  0  0  1  0  0  0  0  0  0
  -25.4070  -33.2680   23.9470 N   0  0  0  0  0  0  0  0  0  0  0  0
  -25.6840  -34.4140   23.3100 C   0  0  0  0  0  0  0  0  0  0  0  0
  -26.3450  -34.4540   22.2700 O   0  0  0  0  0  0  0  0  0  0  0  0
  -24.8160  -33.3070   24.7650 H   0  0  0  0  0  0  0  0  0  0  0  0
  -23.8730  -36.1590   23.1800 C   0  0  0  0  0  1  0  0  0  0  0  0
  -25.1450  -35.7230   23.9240 C   0  0  0  0  0  3  0  0  0  0  0  0
  -27.2540  -36.6110   24.8180 C   0  0  0  0  0  1  0  0  0  0  0  0
  -26.1300  -36.8280   23.9120 N   0  0  0  0  0  0  0  0  0  0  0  0
  -25.6880  -37.7090   24.1610 H   0  0  0  0  0  0  0  0  0  0  0  0
  1  3  1  0
  2  1  2  0
  2  4  1  0
  3  8  1  0
  3  5  2  0
  4  6  2  0
  5  7  1  0
  6  5  1  0
  6 45  1  0
  8 14  1  0
  9 14  1  0
 10 11  1  0
 10  9  1  0
 12 11  1  0
 12 19  1  0
 12 13  1  0
 14 13  1  0
 15  8  2  0
 16 17  2  0
 17 36  1  0
 18 17  1  0
 18 21  1  0
 19 20  1  0
 19 16  1  0
 20 18  2  0
 21 22  1  0
 22 23  2  0
 24 27  1  0
 24 23  1  0
 25 24  2  0
 26 25  1  0
 26 21  2  0
 27 28  1  0
 28 29  1  0
 29 30  2  0
 31 30  1  0
 31 35  1  0
 32 31  2  0
 33 28  2  0
 33 32  1  0
 34 33  1  0
 36 37  1  0
 37 40  1  0
 37 39  1  0
 38 36  2  0
 41 16  1  0
 41 42  1  0
 43 41  1  0
 44 45  1  0
 46  4  1  0
 46 47  1  0
 48 49  1  0
 48 47  2  0
 49 51  1  0
 50 61  2  0
 51 56  1  0
 52 60  1  0
 52 62  1  0
 53 59  1  0
 53 55  1  0
 54 60  1  0
 55 54  1  0
 56 55  2  0
 57 58  1  0
 57 51  2  0
 58 53  2  0
 59 52  1  0
 60 50  1  0
 62 64  2  0
 63 62  1  0
 65 63  1  0
 66 75  2  0
 66 71  1  0
 67 63  1  0
 67 71  1  0
 68 67  1  0
 69 70  1  0
 69 68  1  0
 70 66  1  0
 71 72  2  0
 72 73  1  0
 74 73  2  0
 75 74  1  0
 76 50  1  0
 76 81  1  0
 76 77  1  0
 77 80  1  1
 77 78  1  0
 79 77  1  0
 81 84  1  0
 82 86  1  0
 82 81  1  0
 83 82  2  0
 86 85  1  0
 88 86  1  0
 88 89  1  0
 88 87  1  0
M  ISO  4   3 100   8 100  48 101  49 101
M  END
>  <TORSDO>  (5) 
F 20

>  <SCORE>  (5) 
-12.003

>  <name>  (5) 
4

>  <ligand_id>  (5) 
4

>  <original_smiles>  (5) 
[H]c1c([H])c([H])c2c(c1[H])C([H])([H])C([H])([H])C([H])([H])C2([H])N([H])C(=O)C1([H])N(C(=O)C([H])(N([H])C(=O)C([H])(N([H])C([H])([H])[H])C([H])([H])[H])C(C([H])([H])[H])(C([H])([H])[H])C([H])([H])[H])C([H])([H])c2c([H])c(OC([H])([H])C([H])([H])C([H])([H])c3c([H])c([H])c(C(=O)N4C([H])([H])C([H])([H])C([H])([H])C([H])(n5nc(-c6c([H])c([H])c(Oc7c([H])c([H])c(F)c([H])c7F)c([H])c6[H])c(C(=O)N([H])[H])c5N([H])[H])C4([H])[H])c(C([H])([H])[H])c3OC([H])([H])[H])c([H])c([H])c2C1([H])[H]

>  <smiles>  (5) 
[H]c1c([H])c([H])c2c(c1[H])C([H])([H])C([H])([H])C([H])([H])C2([H])N([H])C(=O)C1([H])N(C(=O)C([H])(N([H])C(=O)C([H])(N([H])C([H])([H])[H])C([H])([H])[H])C(C([H])([H])[H])(C([H])([H])[H])C([H])([H])[H])C([H])([H])c2c([H])c(OC([H])([H])C([H])([H])C([H])([H])c3c([H])c([H])c(C(=O)N4C([H])([H])C([H])([H])C([H])([H])C([H])(n5nc(-c6c([H])c([H])c(Oc7c([H])c([H])c(F)c([H])c7F)c([H])c6[H])c(C(=O)N([H])[H])c5N([H])[H])C4([H])[H])c(C([H])([H])[H])c3OC([H])([H])[H])c([H])c([H])c2C1([H])[H]

$$$$
5:0:0
     RDKit          3D

 93101  0  0  1  0  0  0  0  0999 V2000
  -30.2680  -24.0070   20.5420 C   0  0  0  0  0  3  0  0  0  0  0  0
  -29.1870  -23.0930   20.3940 C   0  0  0  0  0  0  0  0  0  0  0  0
  -29.6030  -21.5330   20.3250 C   0  0  0  0  0  0  0  0  0  0  0  0
  -31.6210  -23.6880   20.5480 C   0  0  0  0  0  0  0  0  0  0  0  0
  -31.0290  -21.3610   20.2570 C   0  0  0  0  0  0  0  0  0  0  0  0
  -31.9920  -22.3690   20.3740 C   0  0  0  0  0  0  0  0  0  0  0  0
  -31.5860  -20.1520   20.0590 F   0  0  0  0  0  0  0  0  0  0  0  0
  -33.3090  -22.0460   20.3310 F   0  0  0  0  0  0  0  0  0  0  0  0
  -32.5890  -24.6830   20.6990 N   0  0  0  0  0  0  0  0  0  0  0  0
  -32.3300  -25.5500   21.1600 H   0  0  0  0  0  0  0  0  0  0  0  0
  -33.5320  -24.3810   20.9270 H   0  0  0  0  0  0  0  0  0  0  0  0
  -28.9640  -19.8860   20.3210 C   0  0  0  0  0  3  0  0  0  0  0  0
  -29.8640  -18.2750   20.2640 C   0  0  0  0  0  3  0  0  0  0  0  0
  -30.2660  -15.3580   20.0940 C   0  0  0  0  0  0  0  0  0  0  0  0
  -30.2340  -12.9290   19.1660 C   0  0  0  0  0  2  0  0  0  0  0  0
  -29.2670  -12.7220   17.9730 C   0  0  0  0  0  2  0  0  0  0  0  0
  -27.8450  -12.4160   18.4740 C   0  0  0  0  0  2  0  0  0  0  0  0
  -27.4260  -13.3530   19.6340 C   0  0  0  0  0  3  0  0  0  0  0  0
  -28.5180  -13.5070   20.7130 C   0  0  0  0  0  2  0  0  0  0  0  0
  -29.7070  -14.0490   20.0330 N   0  0  0  0  0  0  0  0  0  0  0  0
  -31.4770  -15.3650   19.8270 O   0  0  0  0  0  0  0  0  0  0  0  0
  -29.5100  -16.6340   20.2480 N   0  0  0  0  0  0  0  0  0  0  0  0
  -28.5280  -16.4530   20.3980 H   0  0  0  0  0  0  0  0  0  0  0  0
  -25.0860  -13.8580   20.5040 C   0  0  0  0  0  0  0  0  0  0  0  0
  -24.0530  -13.0570   20.9030 C   0  0  0  0  0  0  0  0  0  0  0  0
  -24.5390  -11.7150   20.8240 C   0  0  0  0  0  0  0  0  0  0  0  0
  -26.1290  -13.0050   20.1950 N   0  0  0  0  0  0  0  0  0  0  0  0
  -25.8160  -11.7080   20.4550 N   0  0  0  0  0  0  0  0  0  0  0  0
  -23.8390  -10.4380   21.0180 C   0  0  0  0  0  0  0  0  0  0  0  0
  -24.3010   -9.4740   21.9400 C   0  0  0  0  0  3  0  0  0  0  0  0
  -23.5980   -8.2650   22.1240 C   0  0  0  0  0  3  0  0  0  0  0  0
  -22.4180   -8.0100   21.3860 C   0  0  0  0  0  0  0  0  0  0  0  0
  -21.9740   -8.9630   20.4520 C   0  0  0  0  0  3  0  0  0  0  0  0
  -22.6780  -10.1640   20.2660 C   0  0  0  0  0  3  0  0  0  0  0  0
  -21.6830   -6.8530   21.4810 O   0  0  0  0  0  0  0  0  0  0  0  0
  -21.6480   -6.1140   22.6360 C   0  0  0  0  0  0  0  0  0  0  0  0
  -21.1690   -6.6540   23.8500 C   0  0  0  0  0  3  0  0  0  0  0  0
  -21.0860   -5.8400   24.9980 C   0  0  0  0  0  3  0  0  0  0  0  0
  -21.4700   -4.4860   24.9320 C   0  0  0  0  0  0  0  0  0  0  0  0
  -21.9400   -3.9460   23.7220 C   0  0  0  0  0  3  0  0  0  0  0  0
  -22.0260   -4.7580   22.5770 C   0  0  0  0  0  0  0  0  0  0  0  0
  -22.4600   -4.2270   21.4090 F   0  0  0  0  0  0  0  0  0  0  0  0
  -21.3810   -3.7020   26.0320 F   0  0  0  0  0  0  0  0  0  0  0  0
  -22.6620  -13.5070   21.2380 C   0  0  0  0  0  0  0  0  0  0  0  0
  -21.9830  -12.7900   22.1250 N   0  0  0  0  0  0  0  0  0  0  0  0
  -22.1870  -14.5320   20.7480 O   0  0  0  0  0  0  0  0  0  0  0  0
  -22.3830  -11.9610   22.5410 H   0  0  0  0  0  0  0  0  0  0  0  0
  -21.0500  -13.0720   22.3930 H   0  0  0  0  0  0  0  0  0  0  0  0
  -25.2190  -15.2350   20.3450 N   0  0  0  0  0  0  0  0  0  0  0  0
  -24.4430  -15.8710   20.4930 H   0  0  0  0  0  0  0  0  0  0  0  0
  -26.0300  -15.6880   19.9470 H   0  0  0  0  0  0  0  0  0  0  0  0
  -27.8760  -24.2370   20.3590 C   0  0  0  0  0  2  0  0  0  0  0  0
  -28.0260  -25.8980   20.3760 O   0  0  0  0  0  0  0  0  0  0  0  0
  -24.5150  -31.9410   23.2460 C   0  0  0  0  0  0  0  0  0  0  0  0
  -27.0000  -26.9810   20.3030 C   0  0  0  0  0  0  0  0  0  0  0  0
  -23.2880  -30.5160   21.6560 C   0  0  0  0  0  3  0  0  0  0  0  0
  -24.7070  -28.8710   20.2460 C   0  0  0  0  0  0  0  0  0  0  0  0
  -25.8530  -30.7110   21.4640 C   0  0  0  0  0  2  0  0  0  0  0  0
  -25.9060  -29.2870   20.8370 C   0  0  0  0  0  0  0  0  0  0  0  0
  -27.0460  -28.3650   20.8360 C   0  0  0  0  0  3  0  0  0  0  0  0
  -25.7700  -26.7130   19.6640 C   0  0  0  0  0  3  0  0  0  0  0  0
  -24.6640  -27.6050   19.6360 C   0  0  0  0  0  3  0  0  0  0  0  0
  -23.4920  -29.8000   20.2920 C   0  0  0  0  0  2  0  0  0  0  0  0
  -24.5750  -31.0850   22.1740 N   0  0  0  0  0  0  0  0  0  0  0  0
  -23.4360  -32.2480   23.7780 O   0  0  0  0  0  0  0  0  0  0  0  0
  -22.6050  -29.5470   22.6550 C   0  0  0  0  0  0  0  0  0  0  0  0
  -21.2830  -29.3370   22.5130 N   0  0  0  0  0  0  0  0  0  0  0  0
  -23.2700  -28.9820   23.5260 O   0  0  0  0  0  0  0  0  0  0  0  0
  -20.7980  -29.8440   21.7850 H   0  0  0  0  0  0  0  0  0  0  0  0
  -17.9400  -27.9950   22.9620 C   0  0  0  0  0  0  0  0  0  0  0  0
  -20.4710  -28.4120   23.3100 C   0  0  0  0  0  3  0  0  0  0  0  0
  -20.6660  -26.9520   22.8370 C   0  0  0  0  0  2  0  0  0  0  0  0
  -19.6260  -26.5080   21.8040 C   0  0  0  0  0  2  0  0  0  0  0  0
  -18.2130  -26.6190   22.3800 C   0  0  0  0  0  2  0  0  0  0  0  0
  -18.9990  -28.8440   23.3830 C   0  0  0  0  0  0  0  0  0  0  0  0
  -18.6900  -30.1250   23.8880 C   0  0  0  0  0  3  0  0  0  0  0  0
  -17.3540  -30.5610   23.9750 C   0  0  0  0  0  3  0  0  0  0  0  0
  -16.3090  -29.7140   23.5680 C   0  0  0  0  0  3  0  0  0  0  0  0
  -16.6030  -28.4330   23.0680 C   0  0  0  0  0  3  0  0  0  0  0  0
  -25.7990  -32.5900   23.8470 C   0  0  0  0  0  3  0  0  0  0  0  0
  -26.3140  -31.8550   25.1450 C   0  0  1  0  0  0  0  0  0  0  0  0
  -25.2220  -31.6530   26.2240 C   0  0  0  0  0  1  0  0  0  0  0  0
  -26.8900  -30.4620   24.8010 C   0  0  0  0  0  1  0  0  0  0  0  0
  -27.4710  -32.6620   25.7810 C   0  0  0  0  0  1  0  0  0  0  0  0
  -25.4950  -33.9990   24.1510 N   0  0  0  0  0  0  0  0  0  0  0  0
  -25.8110  -35.0400   23.3700 C   0  0  0  0  0  0  0  0  0  0  0  0
  -26.4520  -34.9150   22.3230 O   0  0  0  0  0  0  0  0  0  0  0  0
  -24.9220  -34.1710   24.9650 H   0  0  0  0  0  0  0  0  0  0  0  0
  -24.0780  -36.8390   23.0470 C   0  0  0  0  0  1  0  0  0  0  0  0
  -25.3480  -36.4420   23.8170 C   0  0  0  0  0  3  0  0  0  0  0  0
  -27.5100  -37.3470   24.5550 C   0  0  0  0  0  1  0  0  0  0  0  0
  -26.3790  -37.4900   23.6410 N   0  0  0  0  0  0  0  0  0  0  0  0
  -25.9790  -38.4150   23.7710 H   0  0  0  0  0  0  0  0  0  0  0  0
  1  4  1  0
  2  1  2  0
  3  2  1  0
  4  9  1  0
  5  3  2  0
  5  6  1  0
  6  4  2  0
  7  5  1  0
  8  6  1  0
  9 11  1  0
  9 10  1  0
 12  3  1  0
 13 12  2  0
 14 22  1  0
 15 20  1  0
 16 17  1  0
 16 15  1  0
 18 17  1  0
 18 27  1  0
 18 19  1  0
 20 14  1  0
 20 19  1  0
 21 14  2  0
 22 13  1  0
 22 23  1  0
 24 25  2  0
 25 44  1  0
 26 25  1  0
 26 29  1  0
 27 28  1  0
 27 24  1  0
 28 26  2  0
 29 30  1  0
 30 31  2  0
 32 35  1  0
 32 31  1  0
 33 32  2  0
 34 33  1  0
 34 29  2  0
 35 36  1  0
 36 37  1  0
 37 38  2  0
 39 38  1  0
 39 43  1  0
 40 39  2  0
 41 36  2  0
 41 40  1  0
 42 41  1  0
 44 45  1  0
 45 48  1  0
 45 47  1  0
 46 44  2  0
 49 50  1  0
 49 24  1  0
 51 49  1  0
 52 53  1  0
 52  2  1  0
 54 65  2  0
 55 53  1  0
 55 60  1  0
 56 64  1  0
 56 66  1  0
 57 63  1  0
 57 59  1  0
 58 64  1  0
 59 58  1  0
 60 59  2  0
 61 55  2  0
 62 61  1  0
 62 57  2  0
 63 56  1  0
 64 54  1  0
 66 68  2  0
 67 66  1  0
 69 67  1  0
 70 79  2  0
 70 75  1  0
 71 67  1  0
 71 75  1  0
 72 71  1  0
 73 74  1  0
 73 72  1  0
 74 70  1  0
 75 76  2  0
 76 77  1  0
 78 77  2  0
 79 78  1  0
 80 54  1  0
 80 85  1  0
 80 81  1  0
 81 84  1  1
 81 82  1  0
 83 81  1  0
 85 88  1  0
 86 90  1  0
 86 85  1  0
 87 86  2  0
 90 89  1  0
 92 93  1  0
 92 90  1  0
 92 91  1  0
M  ISO  4  14 100  22 100  52 101  53 101
M  END
>  <TORSDO>  (6) 
F 20

>  <SCORE>  (6) 
-16.295

>  <name>  (6) 
5

>  <ligand_id>  (6) 
5

>  <original_smiles>  (6) 
[H]c1c([H])c([H])c2c(c1[H])C([H])([H])C([H])([H])C([H])([H])C2([H])N([H])C(=O)C1([H])N(C(=O)C([H])(N([H])C(=O)C([H])(N([H])C([H])([H])[H])C([H])([H])[H])C(C([H])([H])[H])(C([H])([H])[H])C([H])([H])[H])C([H])([H])c2c([H])c(OC([H])([H])c3c([H])c(N([H])[H])c(F)c(F)c3C([H])([H])C([H])([H])N([H])C(=O)N3C([H])([H])C([H])([H])C([H])([H])C([H])(n4nc(-c5c([H])c([H])c(Oc6c([H])c([H])c(F)c([H])c6F)c([H])c5[H])c(C(=O)N([H])[H])c4N([H])[H])C3([H])[H])c([H])c([H])c2C1([H])[H]

>  <smiles>  (6) 
[H]c1c([H])c([H])c2c(c1[H])C([H])([H])C([H])([H])C([H])([H])C2([H])N([H])C(=O)C1([H])N(C(=O)C([H])(N([H])C(=O)C([H])(N([H])C([H])([H])[H])C([H])([H])[H])C(C([H])([H])[H])(C([H])([H])[H])C([H])([H])[H])C([H])([H])c2c([H])c(OC([H])([H])c3c([H])c(N([H])[H])c(F)c(F)c3C([H])([H])C([H])([H])N([H])C(=O)N3C([H])([H])C([H])([H])C([H])([H])C([H])(n4nc(-c5c([H])c([H])c(Oc6c([H])c([H])c(F)c([H])c6F)c([H])c5[H])c(C(=O)N([H])[H])c4N([H])[H])C3([H])[H])c([H])c([H])c2C1([H])[H]

$$$$
6:0:0
     RDKit          3D

 97105  0  0  1  0  0  0  0  0999 V2000
  -29.7740  -22.5640   18.5230 C   0  0  0  0  0  3  0  0  0  0  0  0
  -31.1500  -22.4610   18.2720 C   0  0  0  0  0  3  0  0  0  0  0  0
  -31.3610  -20.8600   20.0790 C   0  0  0  0  0  3  0  0  0  0  0  0
  -29.2530  -22.0710   19.7450 C   0  0  0  0  0  0  0  0  0  0  0  0
  -31.9650  -21.7350   19.1550 C   0  0  0  0  0  0  0  0  0  0  0  0
  -29.9570  -20.8320   20.2370 C   0  0  0  0  0  0  0  0  0  0  0  0
  -28.7820  -23.3890   20.5510 C   0  0  0  0  0  0  0  0  0  0  0  0
  -28.9590  -23.4290   21.7720 O   0  0  0  0  0  0  0  0  0  0  0  0
  -28.0330  -24.7070   19.8760 C   0  0  0  0  0  2  0  0  0  0  0  0
  -28.2840  -26.1830   20.2990 O   0  0  0  0  0  0  0  0  0  0  0  0
  -24.6520  -31.8690   23.2220 C   0  0  0  0  0  0  0  0  0  0  0  0
  -27.2450  -27.1720   20.1900 C   0  0  0  0  0  0  0  0  0  0  0  0
  -23.4610  -30.4690   21.5810 C   0  0  0  0  0  3  0  0  0  0  0  0
  -24.9170  -28.9070   20.1530 C   0  0  0  0  0  0  0  0  0  0  0  0
  -26.0150  -30.7410   21.4270 C   0  0  0  0  0  2  0  0  0  0  0  0
  -26.0920  -29.3530   20.7720 C   0  0  0  0  0  0  0  0  0  0  0  0
  -27.2560  -28.4990   20.7800 C   0  0  0  0  0  3  0  0  0  0  0  0
  -26.0540  -26.8420   19.5060 C   0  0  0  0  0  3  0  0  0  0  0  0
  -24.9100  -27.6650   19.5060 C   0  0  0  0  0  3  0  0  0  0  0  0
  -23.6850  -29.7970   20.2010 C   0  0  0  0  0  2  0  0  0  0  0  0
  -24.7290  -31.0500   22.1290 N   0  0  0  0  0  0  0  0  0  0  0  0
  -23.5640  -32.1520   23.7460 O   0  0  0  0  0  0  0  0  0  0  0  0
  -22.7900  -29.4570   22.5420 C   0  0  0  0  0  0  0  0  0  0  0  0
  -21.4610  -29.2850   22.4200 N   0  0  0  0  0  0  0  0  0  0  0  0
  -23.4650  -28.8270   23.3620 O   0  0  0  0  0  0  0  0  0  0  0  0
  -20.9710  -29.8410   21.7340 H   0  0  0  0  0  0  0  0  0  0  0  0
  -18.0820  -28.0850   22.9370 C   0  0  0  0  0  0  0  0  0  0  0  0
  -20.6420  -28.3470   23.1930 C   0  0  0  0  0  3  0  0  0  0  0  0
  -20.7430  -26.9160   22.6160 C   0  0  0  0  0  2  0  0  0  0  0  0
  -19.6380  -26.5930   21.6070 C   0  0  0  0  0  2  0  0  0  0  0  0
  -18.2580  -26.7370   22.2550 C   0  0  0  0  0  2  0  0  0  0  0  0
  -19.2030  -28.8470   23.3630 C   0  0  0  0  0  0  0  0  0  0  0  0
  -18.9870  -30.1050   23.9640 C   0  0  0  0  0  3  0  0  0  0  0  0
  -17.6830  -30.6060   24.1410 C   0  0  0  0  0  3  0  0  0  0  0  0
  -16.5770  -29.8430   23.7290 C   0  0  0  0  0  3  0  0  0  0  0  0
  -16.7770  -28.5840   23.1360 C   0  0  0  0  0  3  0  0  0  0  0  0
  -25.9280  -32.5100   23.8480 C   0  0  0  0  0  3  0  0  0  0  0  0
  -26.4480  -31.7420   25.1260 C   0  0  1  0  0  0  0  0  0  0  0  0
  -25.3520  -31.5030   26.1910 C   0  0  0  0  0  1  0  0  0  0  0  0
  -27.0360  -30.3630   24.7440 C   0  0  0  0  0  1  0  0  0  0  0  0
  -27.5940  -32.5430   25.7890 C   0  0  0  0  0  1  0  0  0  0  0  0
  -25.6070  -33.9070   24.1840 N   0  0  0  0  0  0  0  0  0  0  0  0
  -25.9180  -34.9680   23.4280 C   0  0  0  0  0  0  0  0  0  0  0  0
  -26.5740  -34.8760   22.3870 O   0  0  0  0  0  0  0  0  0  0  0  0
  -25.0210  -34.0520   24.9940 H   0  0  0  0  0  0  0  0  0  0  0  0
  -24.1620  -36.7440   23.1220 C   0  0  0  0  0  1  0  0  0  0  0  0
  -25.4260  -36.3510   23.9010 C   0  0  0  0  0  3  0  0  0  0  0  0
  -27.5680  -37.2610   24.6830 C   0  0  0  0  0  1  0  0  0  0  0  0
  -26.4430  -37.4150   23.7660 N   0  0  0  0  0  0  0  0  0  0  0  0
  -26.0280  -38.3300   23.9230 H   0  0  0  0  0  0  0  0  0  0  0  0
  -33.4680  -21.9060   19.1110 C   0  0  0  0  0  2  0  0  0  0  0  0
  -33.8560  -23.3110   19.6140 C   0  0  0  0  0  2  0  0  0  0  0  0
  -35.7280  -24.9440   20.2110 C   0  0  0  0  0  1  0  0  0  0  0  0
  -35.3680  -23.5190   19.7680 C   0  0  0  0  0  2  0  0  0  0  0  0
  -29.4180  -19.3500   20.7040 C   0  0  0  0  0  2  0  0  0  0  0  0
  -30.1480  -17.9080   20.1880 C   0  0  0  0  0  3  0  0  0  0  0  0
  -30.0980  -17.9010   18.7130 N   0  0  0  0  0  4  0  0  0  0  0  0
  -29.1650  -17.7300   18.3860 H   0  0  0  0  0  0  0  0  0  0  0  0
  -30.7080  -17.2010   18.3290 H   0  0  0  0  0  0  0  0  0  0  0  0
  -30.3880  -18.7960   18.3580 H   0  0  0  0  0  0  0  0  0  0  0  0
  -29.8090  -16.3590   20.7750 C   0  0  0  0  0  2  0  0  0  0  0  0
  -30.5980  -14.9560   20.3710 C   0  0  0  0  0  0  0  0  0  0  0  0
  -30.4680  -12.6320   19.3640 C   0  0  0  0  0  2  0  0  0  0  0  0
  -29.5410  -12.6770   18.1290 C   0  0  0  0  0  2  0  0  0  0  0  0
  -28.0650  -12.4870   18.5380 C   0  0  0  0  0  2  0  0  0  0  0  0
  -27.6740  -13.3600   19.7580 C   0  0  0  0  0  3  0  0  0  0  0  0
  -28.7260  -13.2900   20.8840 C   0  0  0  0  0  2  0  0  0  0  0  0
  -30.0160  -13.6910   20.3100 N   0  0  0  0  0  0  0  0  0  0  0  0
  -31.7730  -15.0390   19.9970 O   0  0  0  0  0  0  0  0  0  0  0  0
  -25.2860  -13.9470   20.4760 C   0  0  0  0  0  0  0  0  0  0  0  0
  -24.2190  -13.1790   20.8480 C   0  0  0  0  0  0  0  0  0  0  0  0
  -24.6800  -11.8270   20.8290 C   0  0  0  0  0  0  0  0  0  0  0  0
  -26.3290  -13.0670   20.2450 N   0  0  0  0  0  0  0  0  0  0  0  0
  -25.9730  -11.7850   20.5230 N   0  0  0  0  0  0  0  0  0  0  0  0
  -23.9470  -10.5690   21.0220 C   0  0  0  0  0  0  0  0  0  0  0  0
  -24.3770   -9.6000   21.9560 C   0  0  0  0  0  3  0  0  0  0  0  0
  -23.6430   -8.4090   22.1420 C   0  0  0  0  0  3  0  0  0  0  0  0
  -22.4640   -8.1760   21.3940 C   0  0  0  0  0  0  0  0  0  0  0  0
  -22.0540   -9.1320   20.4490 C   0  0  0  0  0  3  0  0  0  0  0  0
  -22.7870  -10.3150   20.2620 C   0  0  0  0  0  3  0  0  0  0  0  0
  -21.7010   -7.0370   21.4890 O   0  0  0  0  0  0  0  0  0  0  0  0
  -21.6610   -6.2890   22.6390 C   0  0  0  0  0  0  0  0  0  0  0  0
  -21.2610   -6.8450   23.8750 C   0  0  0  0  0  3  0  0  0  0  0  0
  -21.1690   -6.0260   25.0180 C   0  0  0  0  0  3  0  0  0  0  0  0
  -21.4630   -4.6510   24.9250 C   0  0  0  0  0  0  0  0  0  0  0  0
  -21.8540   -4.0960   23.6940 C   0  0  0  0  0  3  0  0  0  0  0  0
  -21.9510   -4.9130   22.5530 C   0  0  0  0  0  0  0  0  0  0  0  0
  -22.3090   -4.3680   21.3650 F   0  0  0  0  0  0  0  0  0  0  0  0
  -21.3660   -3.8620   26.0200 F   0  0  0  0  0  0  0  0  0  0  0  0
  -22.8220  -13.6620   21.1050 C   0  0  0  0  0  0  0  0  0  0  0  0
  -22.0830  -12.9790   21.9740 N   0  0  0  0  0  0  0  0  0  0  0  0
  -22.3880  -14.6800   20.5660 O   0  0  0  0  0  0  0  0  0  0  0  0
  -22.4440  -12.1620   22.4420 H   0  0  0  0  0  0  0  0  0  0  0  0
  -21.1410  -13.2830   22.1780 H   0  0  0  0  0  0  0  0  0  0  0  0
  -25.4500  -15.3180   20.2930 N   0  0  0  0  0  0  0  0  0  0  0  0
  -24.6780  -15.9670   20.3950 H   0  0  0  0  0  0  0  0  0  0  0  0
  -26.2960  -15.7610   19.9620 H   0  0  0  0  0  0  0  0  0  0  0  0
  1  4  1  0
  2  1  2  0
  2  5  1  0
  3  6  1  0
  4  6  2  3
  4  7  1  0
  5  3  2  0
  6 55  1  0
  7  8  2  0
  9 10  1  0
  9  7  1  0
 11 22  2  0
 12 10  1  0
 12 17  1  0
 13 21  1  0
 13 23  1  0
 14 20  1  0
 14 16  1  0
 15 21  1  0
 16 17  2  0
 16 15  1  0
 18 19  1  0
 18 12  2  0
 19 14  2  0
 20 13  1  0
 21 11  1  0
 23 25  2  0
 24 23  1  0
 26 24  1  0
 27 36  2  0
 27 32  1  0
 28 24  1  0
 28 32  1  0
 29 28  1  0
 30 31  1  0
 30 29  1  0
 31 27  1  0
 32 33  2  0
 33 34  1  0
 35 34  2  0
 36 35  1  0
 37 11  1  0
 37 42  1  0
 37 38  1  0
 38 41  1  1
 38 39  1  0
 40 38  1  0
 42 45  1  0
 43 47  1  0
 43 42  1  0
 44 43  2  0
 47 46  1  0
 49 47  1  0
 49 50  1  0
 49 48  1  0
 51  5  1  0
 51 52  1  0
 52 54  1  0
 54 53  1  0
 56 55  1  0
 56 61  1  0
 57 56  1  0
 58 57  1  0
 59 57  1  0
 60 57  1  0
 62 61  1  0
 63 68  1  0
 64 65  1  0
 64 63  1  0
 66 65  1  0
 66 73  1  0
 66 67  1  0
 68 62  1  0
 68 67  1  0
 69 62  2  0
 70 71  2  0
 71 90  1  0
 72 71  1  0
 72 75  1  0
 73 70  1  0
 73 74  1  0
 74 72  2  0
 75 76  1  0
 76 77  2  0
 78 81  1  0
 78 77  1  0
 79 78  2  0
 80 79  1  0
 80 75  2  0
 81 82  1  0
 82 83  1  0
 83 84  2  0
 85 84  1  0
 85 89  1  0
 86 85  2  0
 87 82  2  0
 87 86  1  0
 88 87  1  0
 90 91  1  0
 91 94  1  0
 91 93  1  0
 92 90  2  0
 95 96  1  0
 95 70  1  0
 97 95  1  0
M  ISO  4   9 101  10 101  61 100  62 100
M  END
>  <TORSDO>  (7) 
F 25

>  <SCORE>  (7) 
-12.902

>  <name>  (7) 
6

>  <ligand_id>  (7) 
6

>  <original_smiles>  (7) 
[H]c1c([H])c([H])c2c(c1[H])C([H])([H])C([H])([H])C([H])([H])C2([H])N([H])C(=O)C1([H])N(C(=O)C([H])(N([H])C(=O)C([H])(N([H])C([H])([H])[H])C([H])([H])[H])C(C([H])([H])[H])(C([H])([H])[H])C([H])([H])[H])C([H])([H])c2c([H])c(OC([H])([H])C(=O)c3c([H])c([H])c(C([H])([H])C([H])([H])C([H])([H])C([H])([H])[H])c([H])c3C([H])([H])C([H])(C([H])([H])C(=O)N3C([H])([H])C([H])([H])C([H])([H])C([H])(n4nc(-c5c([H])c([H])c(Oc6c([H])c([H])c(F)c([H])c6F)c([H])c5[H])c(C(=O)N([H])[H])c4N([H])[H])C3([H])[H])[N+]([H])([H])[H])c([H])c([H])c2C1([H])[H]

>  <smiles>  (7) 
[H]c1c([H])c([H])c2c(c1[H])C([H])([H])C([H])([H])C([H])([H])C2([H])N([H])C(=O)C1([H])N(C(=O)C([H])(N([H])C(=O)C([H])(N([H])C([H])([H])[H])C([H])([H])[H])C(C([H])([H])[H])(C([H])([H])[H])C([H])([H])[H])C([H])([H])c2c([H])c(OC([H])([H])C(=O)c3c([H])c([H])c(C([H])([H])C([H])([H])C([H])([H])C([H])([H])[H])c([H])c3C([H])([H])C([H])(C([H])([H])C(=O)N3C([H])([H])C([H])([H])C([H])([H])C([H])(n4nc(-c5c([H])c([H])c(Oc6c([H])c([H])c(F)c([H])c6F)c([H])c5[H])c(C(=O)N([H])[H])c4N([H])[H])C3([H])[H])[N+]([H])([H])[H])c([H])c([H])c2C1([H])[H]

$$$$
7:0:0
     RDKit          3D

 89 97  0  0  1  0  0  0  0  0999 V2000
  -28.1560  -20.5520   20.1140 C   0  0  0  0  0  3  0  0  0  0  0  0
  -28.3030  -19.0880   20.0920 C   0  0  0  0  0  3  0  0  0  0  0  0
  -30.3480  -20.6850   20.8660 C   0  0  0  0  0  3  0  0  0  0  0  0
  -29.1830  -21.4870   20.4970 C   0  0  0  0  0  0  0  0  0  0  0  0
  -29.4740  -18.2820   20.4210 C   0  0  0  0  0  0  0  0  0  0  0  0
  -30.5030  -19.2100   20.8340 C   0  0  0  0  0  0  0  0  0  0  0  0
  -29.1640  -16.4850   18.6540 C   0  0  0  0  0  1  0  0  0  0  0  0
  -29.4520  -16.5850   20.1720 C   0  0  0  0  0  3  0  0  0  0  0  0
  -30.4400  -15.2070   20.4650 C   0  0  0  0  0  0  0  0  0  0  0  0
  -30.4890  -12.7620   19.6800 C   0  0  0  0  0  2  0  0  0  0  0  0
  -29.6140  -12.5880   18.4080 C   0  0  0  0  0  2  0  0  0  0  0  0
  -28.1230  -12.3970   18.7670 C   0  0  0  0  0  2  0  0  0  0  0  0
  -27.6470  -13.3450   19.8980 C   0  0  0  0  0  3  0  0  0  0  0  0
  -28.6560  -13.4380   21.0580 C   0  0  0  0  0  2  0  0  0  0  0  0
  -29.9380  -13.8880   20.4990 N   0  0  0  0  0  0  0  0  0  0  0  0
  -31.6680  -15.2810   20.3240 O   0  0  0  0  0  0  0  0  0  0  0  0
  -25.2520  -13.9140   20.5820 C   0  0  0  0  0  0  0  0  0  0  0  0
  -24.1800  -13.1390   20.9240 C   0  0  0  0  0  0  0  0  0  0  0  0
  -24.6490  -11.7880   20.9140 C   0  0  0  0  0  0  0  0  0  0  0  0
  -26.3020  -13.0370   20.3660 N   0  0  0  0  0  0  0  0  0  0  0  0
  -25.9500  -11.7540   20.6370 N   0  0  0  0  0  0  0  0  0  0  0  0
  -23.9210  -10.5250   21.0910 C   0  0  0  0  0  0  0  0  0  0  0  0
  -24.3320   -9.5600   22.0360 C   0  0  0  0  0  3  0  0  0  0  0  0
  -23.6040   -8.3620   22.2010 C   0  0  0  0  0  3  0  0  0  0  0  0
  -22.4500   -8.1190   21.4180 C   0  0  0  0  0  0  0  0  0  0  0  0
  -22.0580   -9.0730   20.4610 C   0  0  0  0  0  3  0  0  0  0  0  0
  -22.7870  -10.2630   20.2970 C   0  0  0  0  0  3  0  0  0  0  0  0
  -21.6960   -6.9710   21.4880 O   0  0  0  0  0  0  0  0  0  0  0  0
  -21.6190   -6.2310   22.6410 C   0  0  0  0  0  0  0  0  0  0  0  0
  -21.1370   -6.7800   23.8500 C   0  0  0  0  0  3  0  0  0  0  0  0
  -21.0110   -5.9650   24.9920 C   0  0  0  0  0  3  0  0  0  0  0  0
  -21.3530   -4.6010   24.9260 C   0  0  0  0  0  0  0  0  0  0  0  0
  -21.8270   -4.0510   23.7220 C   0  0  0  0  0  3  0  0  0  0  0  0
  -21.9580   -4.8650   22.5820 C   0  0  0  0  0  0  0  0  0  0  0  0
  -22.3940   -4.3250   21.4190 F   0  0  0  0  0  0  0  0  0  0  0  0
  -21.2230   -3.8150   26.0220 F   0  0  0  0  0  0  0  0  0  0  0  0
  -22.7740  -13.6110   21.1480 C   0  0  0  0  0  0  0  0  0  0  0  0
  -22.0220  -12.9190   21.9960 N   0  0  0  0  0  0  0  0  0  0  0  0
  -22.3480  -14.6310   20.6060 O   0  0  0  0  0  0  0  0  0  0  0  0
  -22.3800  -12.0940   22.4570 H   0  0  0  0  0  0  0  0  0  0  0  0
  -21.0770  -13.2160   22.1890 H   0  0  0  0  0  0  0  0  0  0  0  0
  -25.4230  -15.2850   20.4090 N   0  0  0  0  0  0  0  0  0  0  0  0
  -24.6590  -15.9450   20.5030 H   0  0  0  0  0  0  0  0  0  0  0  0
  -26.2850  -15.7210   20.1160 H   0  0  0  0  0  0  0  0  0  0  0  0
  -31.7070  -18.6800   21.2050 O   0  0  0  0  0  0  0  0  0  0  0  0
  -32.3530  -19.3290   21.4700 H   0  0  0  0  0  0  0  0  0  0  0  0
  -29.1760  -23.2020   20.5420 C   0  0  0  0  0  3  0  0  0  0  0  0
  -28.0400  -24.4880   20.2270 C   0  0  0  0  0  3  0  0  0  0  0  0
  -28.2450  -26.0820   20.3390 O   0  0  0  0  0  0  0  0  0  0  0  0
  -24.6030  -31.9070   23.2560 C   0  0  0  0  0  0  0  0  0  0  0  0
  -27.1980  -27.1090   20.2580 C   0  0  0  0  0  0  0  0  0  0  0  0
  -23.4170  -30.5110   21.6080 C   0  0  0  0  0  3  0  0  0  0  0  0
  -24.8760  -28.9150   20.1970 C   0  0  0  0  0  0  0  0  0  0  0  0
  -25.9780  -30.7500   21.4670 C   0  0  0  0  0  2  0  0  0  0  0  0
  -26.0550  -29.3470   20.8170 C   0  0  0  0  0  0  0  0  0  0  0  0
  -27.2120  -28.4630   20.8260 C   0  0  0  0  0  3  0  0  0  0  0  0
  -25.9900  -26.8020   19.5930 C   0  0  0  0  0  3  0  0  0  0  0  0
  -24.8630  -27.6610   19.5660 C   0  0  0  0  0  3  0  0  0  0  0  0
  -23.6510  -29.8220   20.2350 C   0  0  0  0  0  2  0  0  0  0  0  0
  -24.6870  -31.0810   22.1650 N   0  0  0  0  0  0  0  0  0  0  0  0
  -23.5130  -32.1950   23.7750 O   0  0  0  0  0  0  0  0  0  0  0  0
  -22.7230  -29.5130   22.5690 C   0  0  0  0  0  0  0  0  0  0  0  0
  -21.3950  -29.3380   22.4320 N   0  0  0  0  0  0  0  0  0  0  0  0
  -23.3830  -28.8930   23.4050 O   0  0  0  0  0  0  0  0  0  0  0  0
  -20.9160  -29.8910   21.7370 H   0  0  0  0  0  0  0  0  0  0  0  0
  -18.0130  -28.1230   22.9090 C   0  0  0  0  0  0  0  0  0  0  0  0
  -20.5700  -28.4000   23.1960 C   0  0  0  0  0  3  0  0  0  0  0  0
  -20.6800  -26.9670   22.6270 C   0  0  0  0  0  2  0  0  0  0  0  0
  -19.5890  -26.6360   21.6030 C   0  0  0  0  0  2  0  0  0  0  0  0
  -18.2020  -26.7750   22.2350 C   0  0  0  0  0  2  0  0  0  0  0  0
  -19.1240  -28.8930   23.3460 C   0  0  0  0  0  0  0  0  0  0  0  0
  -18.8910  -30.1520   23.9420 C   0  0  0  0  0  3  0  0  0  0  0  0
  -17.5810  -30.6440   24.0960 C   0  0  0  0  0  3  0  0  0  0  0  0
  -16.4850  -29.8730   23.6730 C   0  0  0  0  0  3  0  0  0  0  0  0
  -16.7010  -28.6120   23.0890 C   0  0  0  0  0  3  0  0  0  0  0  0
  -25.8750  -32.5480   23.8960 C   0  0  0  0  0  3  0  0  0  0  0  0
  -26.3620  -31.7920   25.1940 C   0  0  1  0  0  0  0  0  0  0  0  0
  -25.2490  -31.5760   26.2470 C   0  0  0  0  0  1  0  0  0  0  0  0
  -26.9430  -30.4050   24.8380 C   0  0  0  0  0  1  0  0  0  0  0  0
  -27.5070  -32.5870   25.8640 C   0  0  0  0  0  1  0  0  0  0  0  0
  -25.5630  -33.9530   24.2100 N   0  0  0  0  0  0  0  0  0  0  0  0
  -25.9120  -35.0020   23.4540 C   0  0  0  0  0  0  0  0  0  0  0  0
  -26.5930  -34.8890   22.4310 O   0  0  0  0  0  0  0  0  0  0  0  0
  -24.9610  -34.1130   25.0030 H   0  0  0  0  0  0  0  0  0  0  0  0
  -24.2100  -36.8180   23.0680 C   0  0  0  0  0  1  0  0  0  0  0  0
  -25.4330  -36.3980   23.9010 C   0  0  0  0  0  3  0  0  0  0  0  0
  -27.5590  -37.2700   24.7700 C   0  0  0  0  0  1  0  0  0  0  0  0
  -26.4790  -37.4410   23.8020 N   0  0  0  0  0  0  0  0  0  0  0  0
  -26.0810  -38.3670   23.9350 H   0  0  0  0  0  0  0  0  0  0  0  0
  1  4  1  0
  2  1  2  0
  2  5  1  0
  4 47  1  0
  4  3  2  0
  5  6  2  0
  6  3  1  0
  6 45  1  0
  8  7  1  0
  8  5  1  0
  8  9  1  0
  9 15  1  0
 10 15  1  0
 11 12  1  0
 11 10  1  0
 13 12  1  0
 13 20  1  0
 13 14  1  0
 15 14  1  0
 16  9  2  0
 17 18  2  0
 18 37  1  0
 19 18  1  0
 19 22  1  0
 20 17  1  0
 20 21  1  0
 21 19  2  0
 22 23  1  0
 23 24  2  0
 25 28  1  0
 25 24  1  0
 26 25  2  0
 27 26  1  0
 27 22  2  0
 28 29  1  0
 29 30  1  0
 30 31  2  0
 32 31  1  0
 32 36  1  0
 33 32  2  0
 34 29  2  0
 34 33  1  0
 35 34  1  0
 37 38  1  0
 38 41  1  0
 38 40  1  0
 39 37  2  0
 42 43  1  0
 42 17  1  0
 44 42  1  0
 45 46  1  0
 48 49  1  0
 48 47  2  0
 50 61  2  0
 51 49  1  0
 51 56  1  0
 52 60  1  0
 52 62  1  0
 53 59  1  0
 53 55  1  0
 54 60  1  0
 55 56  2  0
 55 54  1  0
 57 51  2  0
 58 57  1  0
 58 53  2  0
 59 52  1  0
 60 50  1  0
 62 64  2  0
 63 62  1  0
 65 63  1  0
 66 75  2  0
 66 71  1  0
 67 63  1  0
 67 71  1  0
 68 67  1  0
 69 70  1  0
 69 68  1  0
 70 66  1  0
 71 72  2  0
 72 73  1  0
 74 73  2  0
 75 74  1  0
 76 50  1  0
 76 81  1  0
 76 77  1  0
 77 80  1  1
 77 78  1  0
 79 77  1  0
 81 84  1  0
 82 86  1  0
 82 81  1  0
 83 82  2  0
 86 85  1  0
 88 86  1  0
 88 89  1  0
 88 87  1  0
M  ISO  4   8 100   9 100  48 101  49 101
M  END
>  <TORSDO>  (8) 
F 20

>  <SCORE>  (8) 
-15.848

>  <name>  (8) 
7

>  <ligand_id>  (8) 
7

>  <original_smiles>  (8) 
[H]Oc1c([H])c(C([H])([H])C([H])([H])Oc2c([H])c([H])c3c(c2[H])C([H])([H])N(C(=O)C([H])(N([H])C(=O)C([H])(N([H])C([H])([H])[H])C([H])([H])[H])C(C([H])([H])[H])(C([H])([H])[H])C([H])([H])[H])C([H])(C(=O)N([H])C2([H])c4c([H])c([H])c([H])c([H])c4C([H])([H])C([H])([H])C2([H])[H])C3([H])[H])c([H])c([H])c1C([H])(C(=O)N1C([H])([H])C([H])([H])C([H])([H])C([H])(n2nc(-c3c([H])c([H])c(Oc4c([H])c([H])c(F)c([H])c4F)c([H])c3[H])c(C(=O)N([H])[H])c2N([H])[H])C1([H])[H])C([H])([H])[H]

>  <smiles>  (8) 
[H]Oc1c([H])c(C([H])([H])C([H])([H])Oc2c([H])c([H])c3c(c2[H])C([H])([H])N(C(=O)C([H])(N([H])C(=O)C([H])(N([H])C([H])([H])[H])C([H])([H])[H])C(C([H])([H])[H])(C([H])([H])[H])C([H])([H])[H])C([H])(C(=O)N([H])C2([H])c4c([H])c([H])c([H])c([H])c4C([H])([H])C([H])([H])C2([H])[H])C3([H])[H])c([H])c([H])c1C([H])(C(=O)N1C([H])([H])C([H])([H])C([H])([H])C([H])(n2nc(-c3c([H])c([H])c(Oc4c([H])c([H])c(F)c([H])c4F)c([H])c3[H])c(C(=O)N([H])[H])c2N([H])[H])C1([H])[H])C([H])([H])[H]

$$$$
8:0:0
     RDKit          3D

 95103  0  0  1  0  0  0  0  0999 V2000
  -29.4310  -21.5730   20.3070 C   0  0  0  0  0  0  0  0  0  0  0  0
  -30.5860  -21.7710   20.6910 O   0  0  0  0  0  0  0  0  0  0  0  0
  -27.2730  -18.1430   19.8090 C   0  0  0  0  0  2  0  0  0  0  0  0
  -27.8270  -19.5310   19.3920 C   0  0  0  0  0  2  0  0  0  0  0  0
  -28.1680  -16.9090   19.4710 C   0  0  0  0  0  2  0  0  0  0  0  0
  -29.0610  -19.8830   20.2300 C   0  0  0  0  0  3  0  0  0  0  0  0
  -29.5350  -16.8210   20.1860 C   0  0  0  0  0  3  0  0  0  0  0  0
  -30.0910  -18.4750   20.0680 C   0  0  0  0  0  3  0  0  0  0  0  0
  -30.3360  -15.2940   19.8940 C   0  0  0  0  0  0  0  0  0  0  0  0
  -30.3350  -12.8250   19.1090 C   0  0  0  0  0  2  0  0  0  0  0  0
  -29.3570  -12.5740   17.9320 C   0  0  0  0  0  2  0  0  0  0  0  0
  -27.9300  -12.2930   18.4440 C   0  0  0  0  0  2  0  0  0  0  0  0
  -27.5130  -13.2930   19.5490 C   0  0  0  0  0  3  0  0  0  0  0  0
  -28.6130  -13.4690   20.6250 C   0  0  0  0  0  2  0  0  0  0  0  0
  -29.8210  -13.9690   19.9440 N   0  0  0  0  0  0  0  0  0  0  0  0
  -31.5190  -15.3220   19.5270 O   0  0  0  0  0  0  0  0  0  0  0  0
  -25.1830  -13.8560   20.4440 C   0  0  0  0  0  0  0  0  0  0  0  0
  -24.1460  -13.0810   20.8770 C   0  0  0  0  0  0  0  0  0  0  0  0
  -24.6040  -11.7330   20.7850 C   0  0  0  0  0  0  0  0  0  0  0  0
  -26.2120  -12.9850   20.1270 N   0  0  0  0  0  0  0  0  0  0  0  0
  -25.8740  -11.6970   20.3960 N   0  0  0  0  0  0  0  0  0  0  0  0
  -23.8760  -10.4750   20.9790 C   0  0  0  0  0  0  0  0  0  0  0  0
  -24.3230   -9.4990   21.8950 C   0  0  0  0  0  3  0  0  0  0  0  0
  -23.5910   -8.3060   22.0790 C   0  0  0  0  0  3  0  0  0  0  0  0
  -22.4000   -8.0850   21.3500 C   0  0  0  0  0  0  0  0  0  0  0  0
  -21.9730   -9.0500   20.4220 C   0  0  0  0  0  3  0  0  0  0  0  0
  -22.7030  -10.2340   20.2340 C   0  0  0  0  0  3  0  0  0  0  0  0
  -21.6370   -6.9470   21.4460 O   0  0  0  0  0  0  0  0  0  0  0  0
  -21.5760   -6.2200   22.6080 C   0  0  0  0  0  0  0  0  0  0  0  0
  -21.0710   -6.7720   23.8060 C   0  0  0  0  0  3  0  0  0  0  0  0
  -20.9640   -5.9700   24.9590 C   0  0  0  0  0  3  0  0  0  0  0  0
  -21.3490   -4.6160   24.9150 C   0  0  0  0  0  0  0  0  0  0  0  0
  -21.8470   -4.0640   23.7210 C   0  0  0  0  0  3  0  0  0  0  0  0
  -21.9570   -4.8640   22.5710 C   0  0  0  0  0  0  0  0  0  0  0  0
  -22.4160   -4.3220   21.4170 F   0  0  0  0  0  0  0  0  0  0  0  0
  -21.2370   -3.8430   26.0200 F   0  0  0  0  0  0  0  0  0  0  0  0
  -22.7750  -13.5680   21.2440 C   0  0  0  0  0  0  0  0  0  0  0  0
  -22.1030  -12.8690   22.1530 N   0  0  0  0  0  0  0  0  0  0  0  0
  -22.3180  -14.6070   20.7680 O   0  0  0  0  0  0  0  0  0  0  0  0
  -22.4840  -12.0280   22.5590 H   0  0  0  0  0  0  0  0  0  0  0  0
  -21.1890  -13.1820   22.4440 H   0  0  0  0  0  0  0  0  0  0  0  0
  -25.3080  -15.2250   20.2650 N   0  0  0  0  0  0  0  0  0  0  0  0
  -24.5220  -15.8550   20.3910 H   0  0  0  0  0  0  0  0  0  0  0  0
  -26.1070  -15.6760   19.8390 H   0  0  0  0  0  0  0  0  0  0  0  0
  -31.2950  -18.6370   20.9000 N   0  0  0  0  0  4  0  0  0  0  0  0
  -31.0660  -18.5780   21.8750 H   0  0  0  0  0  0  0  0  0  0  0  0
  -31.7220  -19.5310   20.7260 H   0  0  0  0  0  0  0  0  0  0  0  0
  -31.9690  -17.9210   20.6830 H   0  0  0  0  0  0  0  0  0  0  0  0
  -28.5410  -23.0400   19.8780 C   0  0  0  0  0  3  0  0  0  0  0  0
  -28.9740  -23.2900   18.4900 N   0  0  0  0  0  4  0  0  0  0  0  0
  -28.8610  -22.4670   17.9260 H   0  0  0  0  0  0  0  0  0  0  0  0
  -28.4430  -24.0310   18.0670 H   0  0  0  0  0  0  0  0  0  0  0  0
  -29.9480  -23.5410   18.4810 H   0  0  0  0  0  0  0  0  0  0  0  0
  -28.4570  -24.5960   20.7050 C   0  0  0  0  0  2  0  0  0  0  0  0
  -28.4660  -26.1610   20.2870 O   0  0  0  0  0  0  0  0  0  0  0  0
  -24.6610  -31.9140   23.2700 C   0  0  0  0  0  0  0  0  0  0  0  0
  -27.3790  -27.1520   20.3180 C   0  0  0  0  0  0  0  0  0  0  0  0
  -23.5290  -30.5030   21.5980 C   0  0  0  0  0  3  0  0  0  0  0  0
  -25.0350  -28.9310   20.2160 C   0  0  0  0  0  0  0  0  0  0  0  0
  -26.0880  -30.7840   21.5010 C   0  0  0  0  0  2  0  0  0  0  0  0
  -26.1990  -29.3800   20.8540 C   0  0  0  0  0  0  0  0  0  0  0  0
  -27.3740  -28.5140   20.8710 C   0  0  0  0  0  3  0  0  0  0  0  0
  -26.1790  -26.8240   19.6500 C   0  0  0  0  0  3  0  0  0  0  0  0
  -25.0450  -27.6710   19.5980 C   0  0  0  0  0  3  0  0  0  0  0  0
  -23.7990  -29.8240   20.2270 C   0  0  0  0  0  2  0  0  0  0  0  0
  -24.7790  -31.0930   22.1780 N   0  0  0  0  0  0  0  0  0  0  0  0
  -23.5570  -32.1800   23.7700 O   0  0  0  0  0  0  0  0  0  0  0  0
  -22.8360  -29.4920   22.5450 C   0  0  0  0  0  0  0  0  0  0  0  0
  -21.5100  -29.3170   22.3990 N   0  0  0  0  0  0  0  0  0  0  0  0
  -23.4970  -28.8630   23.3750 O   0  0  0  0  0  0  0  0  0  0  0  0
  -21.0330  -29.8800   21.7090 H   0  0  0  0  0  0  0  0  0  0  0  0
  -18.1230  -28.1250   22.9000 C   0  0  0  0  0  0  0  0  0  0  0  0
  -20.6880  -28.3650   23.1470 C   0  0  0  0  0  3  0  0  0  0  0  0
  -20.7750  -26.9510   22.5280 C   0  0  0  0  0  2  0  0  0  0  0  0
  -19.6620  -26.6700   21.5140 C   0  0  0  0  0  2  0  0  0  0  0  0
  -18.2910  -26.7950   22.1840 C   0  0  0  0  0  2  0  0  0  0  0  0
  -19.2500  -28.8710   23.3370 C   0  0  0  0  0  0  0  0  0  0  0  0
  -19.0400  -30.1150   23.9720 C   0  0  0  0  0  3  0  0  0  0  0  0
  -17.7390  -30.6150   24.1680 C   0  0  0  0  0  3  0  0  0  0  0  0
  -16.6280  -29.8660   23.7450 C   0  0  0  0  0  3  0  0  0  0  0  0
  -16.8200  -28.6210   23.1160 C   0  0  0  0  0  3  0  0  0  0  0  0
  -25.9080  -32.5770   23.9320 C   0  0  0  0  0  3  0  0  0  0  0  0
  -25.5730  -33.9820   24.2270 N   0  0  0  0  0  0  0  0  0  0  0  0
  -25.9130  -35.0290   23.4620 C   0  0  0  0  0  0  0  0  0  0  0  0
  -26.6080  -34.9150   22.4480 O   0  0  0  0  0  0  0  0  0  0  0  0
  -24.9610  -34.1440   25.0140 H   0  0  0  0  0  0  0  0  0  0  0  0
  -24.1840  -36.8090   23.0440 C   0  0  0  0  0  1  0  0  0  0  0  0
  -25.4110  -36.4230   23.8870 C   0  0  0  0  0  3  0  0  0  0  0  0
  -27.5100  -37.3460   24.7660 C   0  0  0  0  0  1  0  0  0  0  0  0
  -26.4410  -37.4800   23.7800 N   0  0  0  0  0  0  0  0  0  0  0  0
  -26.0240  -38.4000   23.8900 H   0  0  0  0  0  0  0  0  0  0  0  0
  -26.3730  -31.8420   25.2490 C   0  0  1  0  0  0  0  0  0  0  0  0
  -25.2330  -31.6090   26.2690 C   0  0  0  0  0  1  0  0  0  0  0  0
  -26.9950  -30.4650   24.9220 C   0  0  0  0  0  1  0  0  0  0  0  0
  -27.4800  -32.6670   25.9470 C   0  0  0  0  0  1  0  0  0  0  0  0
  1  2  2  0
  4  3  1  0
  4  6  1  0
  5  3  1  0
  5  7  1  0
  6  1  1  0
  7  9  1  0
  8  7  1  0
  8  6  1  0
  8 45  1  0
  9 15  1  0
 10 15  1  0
 11 12  1  0
 11 10  1  0
 13 12  1  0
 13 20  1  0
 13 14  1  0
 15 14  1  0
 16  9  2  0
 17 18  2  0
 18 37  1  0
 19 18  1  0
 19 22  1  0
 20 21  1  0
 20 17  1  0
 21 19  2  0
 22 23  1  0
 23 24  2  0
 25 28  1  0
 25 24  1  0
 26 25  2  0
 27 26  1  0
 27 22  2  0
 28 29  1  0
 29 30  1  0
 30 31  2  0
 32 31  1  0
 32 36  1  0
 33 32  2  0
 34 29  2  0
 34 33  1  0
 35 34  1  0
 37 38  1  0
 38 41  1  0
 38 40  1  0
 39 37  2  0
 42 43  1  0
 42 17  1  0
 44 42  1  0
 45 46  1  0
 47 45  1  0
 48 45  1  0
 49  1  1  0
 49 54  1  0
 50 49  1  0
 51 50  1  0
 52 50  1  0
 53 50  1  0
 55 57  1  0
 55 54  1  0
 56 67  2  0
 57 62  1  0
 58 66  1  0
 58 68  1  0
 59 65  1  0
 59 61  1  0
 60 66  1  0
 61 62  2  0
 61 60  1  0
 63 57  2  0
 64 63  1  0
 64 59  2  0
 65 58  1  0
 66 56  1  0
 68 70  2  0
 69 68  1  0
 71 69  1  0
 72 81  2  0
 72 77  1  0
 73 69  1  0
 73 77  1  0
 74 73  1  0
 75 76  1  0
 75 74  1  0
 76 72  1  0
 77 78  2  0
 78 79  1  0
 80 79  2  0
 81 80  1  0
 82 56  1  0
 82 83  1  0
 82 92  1  0
 83 86  1  0
 84 88  1  0
 84 83  1  0
 85 84  2  0
 88 87  1  0
 90 88  1  0
 90 91  1  0
 90 89  1  0
 92 95  1  1
 92 93  1  0
 94 92  1  0
M  ISO  4   7 100   9 100  54 101  55 101
M  END
>  <TORSDO>  (9) 
F 21

>  <SCORE>  (9) 
-16.569

>  <name>  (9) 
8

>  <ligand_id>  (9) 
8

>  <original_smiles>  (9) 
[H]c1c([H])c([H])c2c(c1[H])C([H])([H])C([H])([H])C([H])([H])C2([H])N([H])C(=O)C1([H])N(C(=O)C([H])(N([H])C(=O)C([H])(N([H])C([H])([H])[H])C([H])([H])[H])C(C([H])([H])[H])(C([H])([H])[H])C([H])([H])[H])C([H])([H])c2c([H])c(OC([H])([H])C([H])(C(=O)C3([H])C([H])([H])C([H])([H])C([H])([H])C([H])(C(=O)N4C([H])([H])C([H])([H])C([H])([H])C([H])(n5nc(-c6c([H])c([H])c(Oc7c([H])c([H])c(F)c([H])c7F)c([H])c6[H])c(C(=O)N([H])[H])c5N([H])[H])C4([H])[H])C3([H])[N+]([H])([H])[H])[N+]([H])([H])[H])c([H])c([H])c2C1([H])[H]

>  <smiles>  (9) 
[H]c1c([H])c([H])c2c(c1[H])C([H])([H])C([H])([H])C([H])([H])C2([H])N([H])C(=O)C1([H])N(C(=O)C([H])(N([H])C(=O)C([H])(N([H])C([H])([H])[H])C([H])([H])[H])C(C([H])([H])[H])(C([H])([H])[H])C([H])([H])[H])C([H])([H])c2c([H])c(OC([H])([H])C([H])(C(=O)C3([H])C([H])([H])C([H])([H])C([H])([H])C([H])(C(=O)N4C([H])([H])C([H])([H])C([H])([H])C([H])(n5nc(-c6c([H])c([H])c(Oc7c([H])c([H])c(F)c([H])c7F)c([H])c6[H])c(C(=O)N([H])[H])c5N([H])[H])C4([H])[H])C3([H])[N+]([H])([H])[H])[N+]([H])([H])[H])c([H])c([H])c2C1([H])[H]

$$$$
9:0:0
     RDKit          3D

 91 99  0  0  1  0  0  0  0  0999 V2000
  -28.2950  -21.1780   21.2300 C   0  0  0  0  0  3  0  0  0  0  0  0
  -28.0630  -22.5930   21.0920 C   0  0  0  0  0  3  0  0  0  0  0  0
  -29.9270  -21.2530   19.5280 C   0  0  0  0  0  3  0  0  0  0  0  0
  -29.2050  -20.4020   20.4360 C   0  0  0  0  0  0  0  0  0  0  0  0
  -28.7090  -23.4270   20.1310 C   0  0  0  0  0  0  0  0  0  0  0  0
  -29.6970  -22.6890   19.3770 C   0  0  0  0  0  0  0  0  0  0  0  0
  -30.5240  -23.4140   18.3280 C   0  0  0  0  0  1  0  0  0  0  0  0
  -29.2490  -18.7990   20.6160 C   0  0  0  0  0  0  0  0  0  0  0  0
  -28.3630  -18.3060   21.3200 O   0  0  0  0  0  0  0  0  0  0  0  0
  -31.7000  -18.0570   20.5970 C   0  0  0  0  0  1  0  0  0  0  0  0
  -30.3160  -17.6850   20.0310 C   0  0  0  0  0  3  0  0  0  0  0  0
  -30.7280  -14.9830   19.9580 C   0  0  0  0  0  0  0  0  0  0  0  0
  -30.4750  -12.6930   18.9430 C   0  0  0  0  0  2  0  0  0  0  0  0
  -29.4700  -12.7460   17.7720 C   0  0  0  0  0  2  0  0  0  0  0  0
  -28.0350  -12.5350   18.2850 C   0  0  0  0  0  2  0  0  0  0  0  0
  -27.7190  -13.4090   19.5270 C   0  0  0  0  0  3  0  0  0  0  0  0
  -28.8430  -13.3570   20.5860 C   0  0  0  0  0  2  0  0  0  0  0  0
  -30.0910  -13.7500   19.9190 N   0  0  0  0  0  0  0  0  0  0  0  0
  -31.8810  -15.0450   19.5250 O   0  0  0  0  0  0  0  0  0  0  0  0
  -30.0250  -16.1580   20.2840 N   0  0  0  0  0  0  0  0  0  0  0  0
  -29.0970  -15.9930   20.6460 H   0  0  0  0  0  0  0  0  0  0  0  0
  -25.3920  -13.9680   20.4390 C   0  0  0  0  0  0  0  0  0  0  0  0
  -24.3510  -13.1820   20.8460 C   0  0  0  0  0  0  0  0  0  0  0  0
  -24.8020  -11.8300   20.7270 C   0  0  0  0  0  0  0  0  0  0  0  0
  -26.4120  -13.0970   20.0940 N   0  0  0  0  0  0  0  0  0  0  0  0
  -26.0710  -11.8030   20.3320 N   0  0  0  0  0  0  0  0  0  0  0  0
  -24.0810  -10.5650   20.9110 C   0  0  0  0  0  0  0  0  0  0  0  0
  -24.5000   -9.6080   21.8620 C   0  0  0  0  0  3  0  0  0  0  0  0
  -23.7770   -8.4080   22.0350 C   0  0  0  0  0  3  0  0  0  0  0  0
  -22.6230   -8.1550   21.2560 C   0  0  0  0  0  0  0  0  0  0  0  0
  -22.2240   -9.1000   20.2940 C   0  0  0  0  0  3  0  0  0  0  0  0
  -22.9470  -10.2920   20.1200 C   0  0  0  0  0  3  0  0  0  0  0  0
  -21.8730   -7.0060   21.3360 O   0  0  0  0  0  0  0  0  0  0  0  0
  -21.7060   -6.3390   22.5220 C   0  0  0  0  0  0  0  0  0  0  0  0
  -21.1120   -6.9540   23.6460 C   0  0  0  0  0  3  0  0  0  0  0  0
  -20.8950   -6.2110   24.8230 C   0  0  0  0  0  3  0  0  0  0  0  0
  -21.2610   -4.8520   24.8760 C   0  0  0  0  0  0  0  0  0  0  0  0
  -21.8460   -4.2360   23.7560 C   0  0  0  0  0  3  0  0  0  0  0  0
  -22.0640   -4.9770   22.5820 C   0  0  0  0  0  0  0  0  0  0  0  0
  -22.6100   -4.3740   21.4980 F   0  0  0  0  0  0  0  0  0  0  0  0
  -21.0460   -4.1360   26.0050 F   0  0  0  0  0  0  0  0  0  0  0  0
  -22.9770  -13.6510   21.2270 C   0  0  0  0  0  0  0  0  0  0  0  0
  -22.3010  -12.9240   22.1090 N   0  0  0  0  0  0  0  0  0  0  0  0
  -22.5150  -14.7000   20.7800 O   0  0  0  0  0  0  0  0  0  0  0  0
  -22.6890  -12.0750   22.4930 H   0  0  0  0  0  0  0  0  0  0  0  0
  -21.3810  -13.2190   22.4030 H   0  0  0  0  0  0  0  0  0  0  0  0
  -25.5490  -15.3450   20.3110 N   0  0  0  0  0  0  0  0  0  0  0  0
  -24.7920  -15.9890   20.5140 H   0  0  0  0  0  0  0  0  0  0  0  0
  -26.3680  -15.8040   19.9320 H   0  0  0  0  0  0  0  0  0  0  0  0
  -28.0440  -24.8660   19.7120 C   0  0  0  0  0  2  0  0  0  0  0  0
  -28.3350  -26.3020   20.1820 O   0  0  0  0  0  0  0  0  0  0  0  0
  -24.6850  -31.8970   23.2110 C   0  0  0  0  0  0  0  0  0  0  0  0
  -27.2850  -27.2840   20.0890 C   0  0  0  0  0  0  0  0  0  0  0  0
  -23.4850  -30.5210   21.5550 C   0  0  0  0  0  3  0  0  0  0  0  0
  -24.9380  -28.9930   20.0950 C   0  0  0  0  0  0  0  0  0  0  0  0
  -26.0340  -30.8140   21.3830 C   0  0  0  0  0  2  0  0  0  0  0  0
  -26.1140  -29.4380   20.7090 C   0  0  0  0  0  0  0  0  0  0  0  0
  -27.2870  -28.5980   20.6990 C   0  0  0  0  0  3  0  0  0  0  0  0
  -26.0880  -26.9560   19.4070 C   0  0  0  0  0  3  0  0  0  0  0  0
  -24.9350  -27.7610   19.4290 C   0  0  0  0  0  3  0  0  0  0  0  0
  -23.7030  -29.8710   20.1640 C   0  0  0  0  0  2  0  0  0  0  0  0
  -24.7540  -31.0960   22.1040 N   0  0  0  0  0  0  0  0  0  0  0  0
  -23.6000  -32.1640   23.7500 O   0  0  0  0  0  0  0  0  0  0  0  0
  -22.8210  -29.4900   22.5030 C   0  0  0  0  0  0  0  0  0  0  0  0
  -21.4940  -29.3060   22.3740 N   0  0  0  0  0  0  0  0  0  0  0  0
  -23.4990  -28.8590   23.3160 O   0  0  0  0  0  0  0  0  0  0  0  0
  -21.0020  -29.8680   21.6920 H   0  0  0  0  0  0  0  0  0  0  0  0
  -18.1230  -28.0820   22.8800 C   0  0  0  0  0  0  0  0  0  0  0  0
  -20.6830  -28.3520   23.1340 C   0  0  0  0  0  3  0  0  0  0  0  0
  -20.7870  -26.9310   22.5350 C   0  0  0  0  0  2  0  0  0  0  0  0
  -19.6790  -26.6190   21.5230 C   0  0  0  0  0  2  0  0  0  0  0  0
  -18.3020  -26.7460   22.1780 C   0  0  0  0  0  2  0  0  0  0  0  0
  -19.2410  -28.8440   23.3140 C   0  0  0  0  0  0  0  0  0  0  0  0
  -19.0190  -30.0940   23.9310 C   0  0  0  0  0  3  0  0  0  0  0  0
  -17.7120  -30.5830   24.1160 C   0  0  0  0  0  3  0  0  0  0  0  0
  -16.6090  -29.8190   23.6960 C   0  0  0  0  0  3  0  0  0  0  0  0
  -16.8160  -28.5710   23.0860 C   0  0  0  0  0  3  0  0  0  0  0  0
  -25.9640  -32.5300   23.8390 C   0  0  0  0  0  3  0  0  0  0  0  0
  -26.4790  -31.7520   25.1130 C   0  0  1  0  0  0  0  0  0  0  0  0
  -25.3840  -31.5000   26.1760 C   0  0  0  0  0  1  0  0  0  0  0  0
  -27.0720  -30.3790   24.7180 C   0  0  0  0  0  1  0  0  0  0  0  0
  -27.6220  -32.5480   25.7850 C   0  0  0  0  0  1  0  0  0  0  0  0
  -25.6490  -33.9260   24.1830 N   0  0  0  0  0  0  0  0  0  0  0  0
  -25.9550  -34.9860   23.4240 C   0  0  0  0  0  0  0  0  0  0  0  0
  -26.6000  -34.8930   22.3760 O   0  0  0  0  0  0  0  0  0  0  0  0
  -25.0780  -34.0700   25.0030 H   0  0  0  0  0  0  0  0  0  0  0  0
  -24.2050  -36.7690   23.1250 C   0  0  0  0  0  1  0  0  0  0  0  0
  -25.4700  -36.3680   23.9020 C   0  0  0  0  0  3  0  0  0  0  0  0
  -27.6130  -37.2750   24.6910 C   0  0  0  0  0  1  0  0  0  0  0  0
  -26.4920  -37.4300   23.7680 N   0  0  0  0  0  0  0  0  0  0  0  0
  -26.0800  -38.3470   23.9190 H   0  0  0  0  0  0  0  0  0  0  0  0
  2  1  1  0
  3  4  1  0
  4  8  1  0
  4  1  2  0
  5  2  2  0
  6  3  2  0
  6  5  1  0
  7  6  1  0
  8  9  2  0
 11 20  1  0
 11 10  1  0
 11  8  1  0
 12 20  1  0
 13 18  1  0
 14 15  1  0
 14 13  1  0
 16 15  1  0
 16 25  1  0
 16 17  1  0
 18 12  1  0
 18 17  1  0
 19 12  2  0
 20 21  1  0
 22 23  2  0
 23 42  1  0
 24 23  1  0
 24 27  1  0
 25 26  1  0
 25 22  1  0
 26 24  2  0
 27 28  1  0
 28 29  2  0
 30 33  1  0
 30 29  1  0
 31 30  2  0
 32 31  1  0
 32 27  2  0
 33 34  1  0
 34 39  2  0
 34 35  1  0
 35 36  2  0
 36 37  1  0
 37 41  1  0
 38 37  2  0
 39 38  1  0
 40 39  1  0
 42 43  1  0
 43 46  1  0
 43 45  1  0
 44 42  2  0
 47 22  1  0
 47 48  1  0
 49 47  1  0
 50  5  1  0
 50 51  1  0
 52 63  2  0
 53 51  1  0
 53 58  1  0
 54 62  1  0
 54 64  1  0
 55 61  1  0
 55 57  1  0
 56 62  1  0
 57 56  1  0
 58 57  2  0
 59 60  1  0
 59 53  2  0
 60 55  2  0
 61 54  1  0
 62 52  1  0
 64 66  2  0
 65 64  1  0
 67 65  1  0
 68 77  2  0
 68 73  1  0
 69 65  1  0
 69 73  1  0
 70 69  1  0
 71 72  1  0
 71 70  1  0
 72 68  1  0
 73 74  2  0
 74 75  1  0
 76 75  2  0
 77 76  1  0
 78 52  1  0
 78 83  1  0
 78 79  1  0
 79 82  1  1
 79 80  1  0
 81 79  1  0
 83 86  1  0
 84 88  1  0
 84 83  1  0
 85 84  2  0
 88 87  1  0
 90 88  1  0
 90 91  1  0
 90 89  1  0
M  ISO  4  12 100  20 100  50 101  51 101
M  END
>  <TORSDO>  (10) 
F 19

>  <SCORE>  (10) 
-13.584

>  <name>  (10) 
9

>  <ligand_id>  (10) 
9

>  <original_smiles>  (10) 
[H]c1c([H])c([H])c2c(c1[H])C([H])([H])C([H])([H])C([H])([H])C2([H])N([H])C(=O)C1([H])N(C(=O)C([H])(N([H])C(=O)C([H])(N([H])C([H])([H])[H])C([H])([H])[H])C(C([H])([H])[H])(C([H])([H])[H])C([H])([H])[H])C([H])([H])c2c([H])c(OC([H])([H])c3c([H])c([H])c(C(=O)C([H])(N([H])C(=O)N4C([H])([H])C([H])([H])C([H])([H])C([H])(n5nc(-c6c([H])c([H])c(Oc7c([H])c([H])c(F)c([H])c7F)c([H])c6[H])c(C(=O)N([H])[H])c5N([H])[H])C4([H])[H])C([H])([H])[H])c([H])c3C([H])([H])[H])c([H])c([H])c2C1([H])[H]

>  <smiles>  (10) 
[H]c1c([H])c([H])c2c(c1[H])C([H])([H])C([H])([H])C([H])([H])C2([H])N([H])C(=O)C1([H])N(C(=O)C([H])(N([H])C(=O)C([H])(N([H])C([H])([H])[H])C([H])([H])[H])C(C([H])([H])[H])(C([H])([H])[H])C([H])([H])[H])C([H])([H])c2c([H])c(OC([H])([H])c3c([H])c([H])c(C(=O)C([H])(N([H])C(=O)N4C([H])([H])C([H])([H])C([H])([H])C([H])(n5nc(-c6c([H])c([H])c(Oc7c([H])c([H])c(F)c([H])c7F)c([H])c6[H])c(C(=O)N([H])[H])c5N([H])[H])C4([H])[H])C([H])([H])[H])c([H])c3C([H])([H])[H])c([H])c([H])c2C1([H])[H]

$$$$
10:0:0
     RDKit          3D

 89 97  0  0  1  0  0  0  0  0999 V2000
  -29.3590  -21.7750   18.9070 C   0  0  0  0  0  3  0  0  0  0  0  0
  -29.0050  -23.2480   18.9670 C   0  0  0  0  0  3  0  0  0  0  0  0
  -28.8030  -21.5250   21.0450 C   0  0  0  0  0  3  0  0  0  0  0  0
  -29.3190  -20.6910   19.9210 C   0  0  0  0  0  0  0  0  0  0  0  0
  -28.4470  -23.0200   21.1230 C   0  0  0  0  0  0  0  0  0  0  0  0
  -28.4860  -24.0830   20.0720 C   0  0  0  0  0  0  0  0  0  0  0  0
  -28.0380  -23.5120   22.4990 C   0  0  0  0  0  1  0  0  0  0  0  0
  -29.8920  -18.9840   19.6340 C   0  0  0  0  0  0  0  0  0  0  0  0
  -30.5430  -18.9350   18.5870 O   0  0  0  0  0  0  0  0  0  0  0  0
  -30.4120  -17.5170   21.7350 C   0  0  0  0  0  1  0  0  0  0  0  0
  -28.2980  -17.0710   20.4920 C   0  0  0  0  0  1  0  0  0  0  0  0
  -29.8100  -17.2910   20.3330 C   0  0  1  0  0  0  0  0  0  0  0  0
  -30.5050  -15.6250   19.8560 C   0  0  0  0  0  0  0  0  0  0  0  0
  -30.4960  -13.1150   18.9470 C   0  0  0  0  0  2  0  0  0  0  0  0
  -29.5140  -12.8270   17.7740 C   0  0  0  0  0  2  0  0  0  0  0  0
  -28.1040  -12.4980   18.2960 C   0  0  0  0  0  2  0  0  0  0  0  0
  -27.6970  -13.4520   19.4410 C   0  0  0  0  0  3  0  0  0  0  0  0
  -28.8090  -13.6480   20.4980 C   0  0  0  0  0  2  0  0  0  0  0  0
  -29.9740  -14.2630   19.8140 N   0  0  0  0  0  0  0  0  0  0  0  0
  -31.6940  -15.5550   19.4900 O   0  0  0  0  0  0  0  0  0  0  0  0
  -25.3800  -13.9880   20.3480 C   0  0  0  0  0  0  0  0  0  0  0  0
  -24.3400  -13.2090   20.7670 C   0  0  0  0  0  0  0  0  0  0  0  0
  -24.8000  -11.8590   20.6860 C   0  0  0  0  0  0  0  0  0  0  0  0
  -26.4070  -13.1170   20.0300 N   0  0  0  0  0  0  0  0  0  0  0  0
  -26.0730  -11.8280   20.3000 N   0  0  0  0  0  0  0  0  0  0  0  0
  -24.0760  -10.5990   20.8970 C   0  0  0  0  0  0  0  0  0  0  0  0
  -24.5220   -9.6350   21.8270 C   0  0  0  0  0  3  0  0  0  0  0  0
  -23.7930   -8.4440   22.0280 C   0  0  0  0  0  3  0  0  0  0  0  0
  -22.6040   -8.2060   21.3000 C   0  0  0  0  0  0  0  0  0  0  0  0
  -22.1760   -9.1580   20.3590 C   0  0  0  0  0  3  0  0  0  0  0  0
  -22.9060  -10.3420   20.1550 C   0  0  0  0  0  3  0  0  0  0  0  0
  -21.8460   -7.0660   21.4110 O   0  0  0  0  0  0  0  0  0  0  0  0
  -21.7820   -6.3560   22.5830 C   0  0  0  0  0  0  0  0  0  0  0  0
  -21.2930   -6.9300   23.7760 C   0  0  0  0  0  3  0  0  0  0  0  0
  -21.1780   -6.1450   24.9400 C   0  0  0  0  0  3  0  0  0  0  0  0
  -21.5430   -4.7860   24.9120 C   0  0  0  0  0  0  0  0  0  0  0  0
  -22.0240   -4.2100   23.7230 C   0  0  0  0  0  3  0  0  0  0  0  0
  -22.1400   -4.9930   22.5610 C   0  0  0  0  0  0  0  0  0  0  0  0
  -22.5850   -4.4280   21.4130 F   0  0  0  0  0  0  0  0  0  0  0  0
  -21.4240   -4.0290   26.0280 F   0  0  0  0  0  0  0  0  0  0  0  0
  -22.9640  -13.6930   21.1210 C   0  0  0  0  0  0  0  0  0  0  0  0
  -22.2770  -12.9890   22.0130 N   0  0  0  0  0  0  0  0  0  0  0  0
  -22.5110  -14.7310   20.6420 O   0  0  0  0  0  0  0  0  0  0  0  0
  -22.6590  -12.1510   22.4260 H   0  0  0  0  0  0  0  0  0  0  0  0
  -21.3540  -13.2960   22.2890 H   0  0  0  0  0  0  0  0  0  0  0  0
  -25.5240  -15.3590   20.1840 N   0  0  0  0  0  0  0  0  0  0  0  0
  -24.7680  -16.0070   20.3830 H   0  0  0  0  0  0  0  0  0  0  0  0
  -26.3620  -15.8190   19.8560 H   0  0  0  0  0  0  0  0  0  0  0  0
  -28.3810  -25.6810   20.1420 O   0  0  0  0  0  0  0  0  0  0  0  0
  -24.6850  -31.7900   23.0650 C   0  0  0  0  0  0  0  0  0  0  0  0
  -27.3300  -26.8030   20.1050 C   0  0  0  0  0  0  0  0  0  0  0  0
  -23.5340  -30.3820   21.4050 C   0  0  0  0  0  3  0  0  0  0  0  0
  -25.0230  -28.7590   20.0140 C   0  0  0  0  0  0  0  0  0  0  0  0
  -26.1090  -30.5720   21.3190 C   0  0  0  0  0  2  0  0  0  0  0  0
  -26.1990  -29.1470   20.6670 C   0  0  0  0  0  0  0  0  0  0  0  0
  -27.3360  -28.1920   20.6830 C   0  0  0  0  0  3  0  0  0  0  0  0
  -26.1210  -26.6080   19.3940 C   0  0  0  0  0  3  0  0  0  0  0  0
  -25.0190  -27.5150   19.3560 C   0  0  0  0  0  3  0  0  0  0  0  0
  -23.8020  -29.6890   20.0370 C   0  0  0  0  0  2  0  0  0  0  0  0
  -24.7980  -30.9470   21.9820 N   0  0  0  0  0  0  0  0  0  0  0  0
  -23.5820  -32.0750   23.5620 O   0  0  0  0  0  0  0  0  0  0  0  0
  -22.8200  -29.3930   22.3650 C   0  0  0  0  0  0  0  0  0  0  0  0
  -21.4840  -29.2630   22.2550 N   0  0  0  0  0  0  0  0  0  0  0  0
  -23.4780  -28.7400   23.1780 O   0  0  0  0  0  0  0  0  0  0  0  0
  -21.0050  -29.8400   21.5790 H   0  0  0  0  0  0  0  0  0  0  0  0
  -18.0790  -28.1340   22.8220 C   0  0  0  0  0  0  0  0  0  0  0  0
  -20.6520  -28.3240   23.0170 C   0  0  0  0  0  3  0  0  0  0  0  0
  -20.6950  -26.9090   22.3930 C   0  0  0  0  0  2  0  0  0  0  0  0
  -19.5570  -26.6530   21.4000 C   0  0  0  0  0  2  0  0  0  0  0  0
  -18.1990  -26.8080   22.0900 C   0  0  0  0  0  2  0  0  0  0  0  0
  -19.2290  -28.8530   23.2440 C   0  0  0  0  0  0  0  0  0  0  0  0
  -19.0590  -30.0920   23.8970 C   0  0  0  0  0  3  0  0  0  0  0  0
  -17.7720  -30.6160   24.1260 C   0  0  0  0  0  3  0  0  0  0  0  0
  -16.6370  -29.8940   23.7170 C   0  0  0  0  0  3  0  0  0  0  0  0
  -16.7920  -28.6550   23.0720 C   0  0  0  0  0  3  0  0  0  0  0  0
  -25.9320  -32.4510   23.7240 C   0  0  0  0  0  3  0  0  0  0  0  0
  -25.5870  -33.8430   24.0730 N   0  0  0  0  0  0  0  0  0  0  0  0
  -25.9230  -34.9230   23.3560 C   0  0  0  0  0  0  0  0  0  0  0  0
  -26.6170  -34.8550   22.3380 O   0  0  0  0  0  0  0  0  0  0  0  0
  -24.9730  -33.9680   24.8640 H   0  0  0  0  0  0  0  0  0  0  0  0
  -24.2000  -36.7290   23.0050 C   0  0  0  0  0  1  0  0  0  0  0  0
  -25.4160  -36.2990   23.8410 C   0  0  0  0  0  3  0  0  0  0  0  0
  -27.5060  -37.1850   24.7830 C   0  0  0  0  0  1  0  0  0  0  0  0
  -26.4470  -37.3590   23.7910 N   0  0  0  0  0  0  0  0  0  0  0  0
  -26.0300  -38.2750   23.9300 H   0  0  0  0  0  0  0  0  0  0  0  0
  -26.4290  -31.6850   25.0130 C   0  0  1  0  0  0  0  0  0  0  0  0
  -25.3150  -31.4270   26.0560 C   0  0  0  0  0  1  0  0  0  0  0  0
  -27.0440  -30.3160   24.6440 C   0  0  0  0  0  1  0  0  0  0  0  0
  -27.5530  -32.4940   25.7040 C   0  0  0  0  0  1  0  0  0  0  0  0
  1  2  2  0
  1  4  1  0
  2  6  1  0
  3  5  1  0
  4  3  2  0
  5  7  1  0
  6 49  1  0
  6  5  2  0
  8  4  1  0
  8 12  1  0
  9  8  2  0
 12 11  1  1
 12 10  1  0
 13 12  1  0
 14 19  1  0
 15 16  1  0
 15 14  1  0
 17 16  1  0
 17 24  1  0
 17 18  1  0
 19 13  1  0
 19 18  1  0
 20 13  2  0
 21 22  2  0
 22 41  1  0
 23 22  1  0
 23 26  1  0
 24 25  1  0
 24 21  1  0
 25 23  2  0
 26 27  1  0
 27 28  2  0
 29 32  1  0
 29 28  1  0
 30 29  2  0
 31 30  1  0
 31 26  2  0
 32 33  1  0
 33 34  1  0
 34 35  2  0
 36 35  1  0
 36 40  1  0
 37 36  2  0
 38 33  2  0
 38 37  1  0
 39 38  1  0
 41 42  1  0
 42 45  1  0
 42 44  1  0
 43 41  2  0
 46 21  1  0
 46 47  1  0
 48 46  1  0
 50 61  2  0
 51 49  1  0
 51 56  1  0
 52 60  1  0
 52 62  1  0
 53 59  1  0
 53 55  1  0
 54 60  1  0
 55 56  2  0
 55 54  1  0
 57 51  2  0
 58 57  1  0
 58 53  2  0
 59 52  1  0
 60 50  1  0
 62 64  2  0
 63 62  1  0
 65 63  1  0
 66 75  2  0
 66 71  1  0
 67 63  1  0
 67 71  1  0
 68 67  1  0
 69 70  1  0
 69 68  1  0
 70 66  1  0
 71 72  2  0
 72 73  1  0
 74 73  2  0
 75 74  1  0
 76 50  1  0
 76 77  1  0
 76 86  1  0
 77 80  1  0
 78 82  1  0
 78 77  1  0
 79 78  2  0
 82 81  1  0
 84 82  1  0
 84 85  1  0
 84 83  1  0
 86 89  1  1
 86 87  1  0
 88 86  1  0
M  ISO  4   6 101  12 100  13 100  49 101
M  END
>  <TORSDO>  (11) 
F 18

>  <SCORE>  (11) 
-15.451

>  <name>  (11) 
10

>  <ligand_id>  (11) 
10

>  <original_smiles>  (11) 
[H]c1c([H])c([H])c2c(c1[H])C([H])([H])C([H])([H])C([H])([H])C2([H])N([H])C(=O)C1([H])N(C(=O)C([H])(N([H])C(=O)C([H])(N([H])C([H])([H])[H])C([H])([H])[H])C(C([H])([H])[H])(C([H])([H])[H])C([H])([H])[H])C([H])([H])c2c([H])c(Oc3c([H])c([H])c(C(=O)C(C(=O)N4C([H])([H])C([H])([H])C([H])([H])C([H])(n5nc(-c6c([H])c([H])c(Oc7c([H])c([H])c(F)c([H])c7F)c([H])c6[H])c(C(=O)N([H])[H])c5N([H])[H])C4([H])[H])(C([H])([H])[H])C([H])([H])[H])c([H])c3C([H])([H])[H])c([H])c([H])c2C1([H])[H]

>  <smiles>  (11) 
[H]c1c([H])c([H])c2c(c1[H])C([H])([H])C([H])([H])C([H])([H])C2([H])N([H])C(=O)C1([H])N(C(=O)C([H])(N([H])C(=O)C([H])(N([H])C([H])([H])[H])C([H])([H])[H])C(C([H])([H])[H])(C([H])([H])[H])C([H])([H])[H])C([H])([H])c2c([H])c(Oc3c([H])c([H])c(C(=O)C(C(=O)N4C([H])([H])C([H])([H])C([H])([H])C([H])(n5nc(-c6c([H])c([H])c(Oc7c([H])c([H])c(F)c([H])c7F)c([H])c6[H])c(C(=O)N([H])[H])c5N([H])[H])C4([H])[H])(C([H])([H])[H])C([H])([H])[H])c([H])c3C([H])([H])[H])c([H])c([H])c2C1([H])[H]

$$$$
11:0:0
     RDKit          3D

 92100  0  0  1  0  0  0  0  0999 V2000
  -29.4270  -22.7640   18.4480 C   0  0  0  0  0  3  0  0  0  0  0  0
  -29.5350  -23.9880   17.7520 C   0  0  0  0  0  3  0  0  0  0  0  0
  -28.4590  -23.9710   20.3240 C   0  0  0  0  0  3  0  0  0  0  0  0
  -28.8880  -22.7040   19.7530 C   0  0  0  0  0  0  0  0  0  0  0  0
  -29.1210  -25.2120   18.3300 C   0  0  0  0  0  0  0  0  0  0  0  0
  -28.5680  -25.2390   19.6310 C   0  0  0  0  0  0  0  0  0  0  0  0
  -28.7800  -21.3270   20.4710 C   0  0  0  0  0  0  0  0  0  0  0  0
  -28.1530  -21.2220   21.5260 O   0  0  0  0  0  0  0  0  0  0  0  0
  -29.4820  -20.0080   19.9000 C   0  0  0  0  0  2  0  0  0  0  0  0
  -29.2060  -18.5490   20.5500 C   0  0  0  0  0  3  0  0  0  0  0  0
  -30.1020  -17.2990   20.0510 C   0  0  0  0  0  3  0  0  0  0  0  0
  -30.5970  -14.7460   20.3090 C   0  0  0  0  0  0  0  0  0  0  0  0
  -30.3860  -12.4910   19.2830 C   0  0  0  0  0  2  0  0  0  0  0  0
  -29.4490  -12.6390   18.0640 C   0  0  0  0  0  2  0  0  0  0  0  0
  -27.9770  -12.4670   18.4800 C   0  0  0  0  0  2  0  0  0  0  0  0
  -27.6180  -13.3100   19.7340 C   0  0  0  0  0  3  0  0  0  0  0  0
  -28.6770  -13.1790   20.8510 C   0  0  0  0  0  2  0  0  0  0  0  0
  -29.9780  -13.5210   20.2650 N   0  0  0  0  0  0  0  0  0  0  0  0
  -31.7710  -14.8610   19.9520 O   0  0  0  0  0  0  0  0  0  0  0  0
  -29.8100  -15.8720   20.5080 N   0  0  0  0  0  0  0  0  0  0  0  0
  -28.8660  -15.6920   20.8220 H   0  0  0  0  0  0  0  0  0  0  0  0
  -25.2280  -13.9010   20.4390 C   0  0  0  0  0  0  0  0  0  0  0  0
  -24.1630  -13.1270   20.8130 C   0  0  0  0  0  0  0  0  0  0  0  0
  -24.6290  -11.7770   20.7970 C   0  0  0  0  0  0  0  0  0  0  0  0
  -26.2740  -13.0210   20.2190 N   0  0  0  0  0  0  0  0  0  0  0  0
  -25.9200  -11.7380   20.4930 N   0  0  0  0  0  0  0  0  0  0  0  0
  -23.9010  -10.5170   20.9940 C   0  0  0  0  0  0  0  0  0  0  0  0
  -24.3290   -9.5580   21.9360 C   0  0  0  0  0  3  0  0  0  0  0  0
  -23.6040   -8.3600   22.1220 C   0  0  0  0  0  3  0  0  0  0  0  0
  -22.4330   -8.1140   21.3630 C   0  0  0  0  0  0  0  0  0  0  0  0
  -22.0250   -9.0610   20.4060 C   0  0  0  0  0  3  0  0  0  0  0  0
  -22.7530  -10.2510   20.2210 C   0  0  0  0  0  3  0  0  0  0  0  0
  -21.6790   -6.9690   21.4580 O   0  0  0  0  0  0  0  0  0  0  0  0
  -21.6210   -6.2390   22.6170 C   0  0  0  0  0  0  0  0  0  0  0  0
  -21.1880   -6.8040   23.8360 C   0  0  0  0  0  3  0  0  0  0  0  0
  -21.0830   -6.0000   24.9890 C   0  0  0  0  0  3  0  0  0  0  0  0
  -21.3960   -4.6280   24.9210 C   0  0  0  0  0  0  0  0  0  0  0  0
  -21.8170   -4.0620   23.7070 C   0  0  0  0  0  3  0  0  0  0  0  0
  -21.9290   -4.8650   22.5580 C   0  0  0  0  0  0  0  0  0  0  0  0
  -22.3160   -4.3080   21.3850 F   0  0  0  0  0  0  0  0  0  0  0  0
  -21.2840   -3.8520   26.0260 F   0  0  0  0  0  0  0  0  0  0  0  0
  -22.7670  -13.6040   21.0730 C   0  0  0  0  0  0  0  0  0  0  0  0
  -22.0370  -12.9150   21.9450 N   0  0  0  0  0  0  0  0  0  0  0  0
  -22.3290  -14.6220   20.5390 O   0  0  0  0  0  0  0  0  0  0  0  0
  -22.4020  -12.0920   22.4000 H   0  0  0  0  0  0  0  0  0  0  0  0
  -21.0960  -13.2150   22.1620 H   0  0  0  0  0  0  0  0  0  0  0  0
  -25.3840  -15.2690   20.2420 N   0  0  0  0  0  0  0  0  0  0  0  0
  -24.5890  -15.9000   20.2630 H   0  0  0  0  0  0  0  0  0  0  0  0
  -26.2250  -15.7070   19.8850 H   0  0  0  0  0  0  0  0  0  0  0  0
  -30.6040  -26.7090   17.2690 C   0  0  0  0  0  1  0  0  0  0  0  0
  -29.2710  -26.4030   17.6590 O   0  0  0  0  0  0  0  0  0  0  0  0
  -28.3770  -26.5190   20.2090 O   0  0  0  0  0  0  0  0  0  0  0  0
  -24.6110  -31.8650   23.1970 C   0  0  0  0  0  0  0  0  0  0  0  0
  -27.2350  -27.3280   20.1040 C   0  0  0  0  0  0  0  0  0  0  0  0
  -23.4080  -30.4690   21.5500 C   0  0  0  0  0  3  0  0  0  0  0  0
  -24.8570  -28.9200   20.1110 C   0  0  0  0  0  0  0  0  0  0  0  0
  -25.9440  -30.7920   21.3660 C   0  0  0  0  0  2  0  0  0  0  0  0
  -26.0210  -29.4160   20.7090 C   0  0  0  0  0  0  0  0  0  0  0  0
  -27.2070  -28.6290   20.6980 C   0  0  0  0  0  3  0  0  0  0  0  0
  -26.0500  -26.8740   19.4870 C   0  0  0  0  0  3  0  0  0  0  0  0
  -24.8730  -27.6540   19.4920 C   0  0  0  0  0  3  0  0  0  0  0  0
  -23.6220  -29.7930   20.1670 C   0  0  0  0  0  2  0  0  0  0  0  0
  -24.6730  -31.0600   22.0960 N   0  0  0  0  0  0  0  0  0  0  0  0
  -23.5290  -32.1370   23.7330 O   0  0  0  0  0  0  0  0  0  0  0  0
  -22.7490  -29.4510   22.5110 C   0  0  0  0  0  0  0  0  0  0  0  0
  -21.4200  -29.2830   22.3940 N   0  0  0  0  0  0  0  0  0  0  0  0
  -23.4300  -28.8180   23.3190 O   0  0  0  0  0  0  0  0  0  0  0  0
  -20.9300  -29.8500   21.7190 H   0  0  0  0  0  0  0  0  0  0  0  0
  -18.0430  -28.0940   22.9070 C   0  0  0  0  0  0  0  0  0  0  0  0
  -20.6040  -28.3430   23.1620 C   0  0  0  0  0  3  0  0  0  0  0  0
  -20.6990  -26.9160   22.5760 C   0  0  0  0  0  2  0  0  0  0  0  0
  -19.5890  -26.6030   21.5670 C   0  0  0  0  0  2  0  0  0  0  0  0
  -18.2120  -26.7490   22.2190 C   0  0  0  0  0  2  0  0  0  0  0  0
  -19.1670  -28.8480   23.3360 C   0  0  0  0  0  0  0  0  0  0  0  0
  -18.9560  -30.1050   23.9430 C   0  0  0  0  0  3  0  0  0  0  0  0
  -17.6550  -30.6090   24.1230 C   0  0  0  0  0  3  0  0  0  0  0  0
  -16.5460  -29.8530   23.7080 C   0  0  0  0  0  3  0  0  0  0  0  0
  -16.7400  -28.5970   23.1060 C   0  0  0  0  0  3  0  0  0  0  0  0
  -25.8950  -32.4950   23.8250 C   0  0  0  0  0  3  0  0  0  0  0  0
  -25.5840  -33.8930   24.1620 N   0  0  0  0  0  0  0  0  0  0  0  0
  -25.9220  -34.9510   23.4120 C   0  0  0  0  0  0  0  0  0  0  0  0
  -26.5960  -34.8510   22.3820 O   0  0  0  0  0  0  0  0  0  0  0  0
  -24.9820  -34.0440   24.9590 H   0  0  0  0  0  0  0  0  0  0  0  0
  -24.1990  -36.7510   23.0670 C   0  0  0  0  0  1  0  0  0  0  0  0
  -25.4380  -36.3370   23.8780 C   0  0  0  0  0  3  0  0  0  0  0  0
  -27.5780  -37.2100   24.7120 C   0  0  0  0  0  1  0  0  0  0  0  0
  -26.4720  -37.3910   23.7750 N   0  0  0  0  0  0  0  0  0  0  0  0
  -26.0680  -38.3090   23.9350 H   0  0  0  0  0  0  0  0  0  0  0  0
  -26.4080  -31.7210   25.1010 C   0  0  1  0  0  0  0  0  0  0  0  0
  -25.3120  -31.4870   26.1680 C   0  0  0  0  0  1  0  0  0  0  0  0
  -26.9900  -30.3430   24.7090 C   0  0  0  0  0  1  0  0  0  0  0  0
  -27.5580  -32.5110   25.7650 C   0  0  0  0  0  1  0  0  0  0  0  0
  1  4  1  0
  2  5  1  0
  2  1  2  0
  4  3  2  0
  4  7  1  0
  5  6  2  0
  6 52  1  0
  6  3  1  0
  7  8  2  0
  9  7  1  0
  9 10  1  0
 11 20  1  0
 11 10  2  0
 12 20  1  0
 13 18  1  0
 14 15  1  0
 14 13  1  0
 16 15  1  0
 16 25  1  0
 16 17  1  0
 18 12  1  0
 18 17  1  0
 19 12  2  0
 20 21  1  0
 22 23  2  0
 23 42  1  0
 24 23  1  0
 24 27  1  0
 25 22  1  0
 25 26  1  0
 26 24  2  0
 27 28  1  0
 28 29  2  0
 30 33  1  0
 30 29  1  0
 31 30  2  0
 32 31  1  0
 32 27  2  0
 33 34  1  0
 34 35  1  0
 35 36  2  0
 37 36  1  0
 37 41  1  0
 38 37  2  0
 39 34  2  0
 39 38  1  0
 40 39  1  0
 42 43  1  0
 43 46  1  0
 43 45  1  0
 44 42  2  0
 47 48  1  0
 47 22  1  0
 49 47  1  0
 50 51  1  0
 51  5  1  0
 53 64  2  0
 54 52  1  0
 54 59  1  0
 55 63  1  0
 55 65  1  0
 56 62  1  0
 56 58  1  0
 57 63  1  0
 58 57  1  0
 59 58  2  0
 60 61  1  0
 60 54  2  0
 61 56  2  0
 62 55  1  0
 63 53  1  0
 65 67  2  0
 66 65  1  0
 68 66  1  0
 69 78  2  0
 69 74  1  0
 70 66  1  0
 70 74  1  0
 71 70  1  0
 72 73  1  0
 72 71  1  0
 73 69  1  0
 74 75  2  0
 75 76  1  0
 77 76  2  0
 78 77  1  0
 79 53  1  0
 79 80  1  0
 79 89  1  0
 80 83  1  0
 81 85  1  0
 81 80  1  0
 82 81  2  0
 85 84  1  0
 87 85  1  0
 87 88  1  0
 87 86  1  0
 89 92  1  1
 89 90  1  0
 91 89  1  0
M  ISO  4   6 101  12 100  20 100  52 101
M  END
>  <TORSDO>  (12) 
F 21

>  <SCORE>  (12) 
-13.383

>  <name>  (12) 
11

>  <ligand_id>  (12) 
11

>  <original_smiles>  (12) 
[H]c1c([H])c([H])c2c(c1[H])C([H])([H])C([H])([H])C([H])([H])C2([H])N([H])C(=O)C1([H])N(C(=O)C([H])(N([H])C(=O)C([H])(N([H])C([H])([H])[H])C([H])([H])[H])C(C([H])([H])[H])(C([H])([H])[H])C([H])([H])[H])C([H])([H])c2c([H])c(Oc3c([H])c(C(=O)C([H])([H])C([H])([H])C([H])([H])N([H])C(=O)N4C([H])([H])C([H])([H])C([H])([H])C([H])(n5nc(-c6c([H])c([H])c(Oc7c([H])c([H])c(F)c([H])c7F)c([H])c6[H])c(C(=O)N([H])[H])c5N([H])[H])C4([H])[H])c([H])c([H])c3OC([H])([H])[H])c([H])c([H])c2C1([H])[H]

>  <smiles>  (12) 
[H]c1c([H])c([H])c2c(c1[H])C([H])([H])C([H])([H])C([H])([H])C2([H])N([H])C(=O)C1([H])N(C(=O)C([H])(N([H])C(=O)C([H])(N([H])C([H])([H])[H])C([H])([H])[H])C(C([H])([H])[H])(C([H])([H])[H])C([H])([H])[H])C([H])([H])c2c([H])c(Oc3c([H])c(C(=O)C([H])([H])C([H])([H])C([H])([H])N([H])C(=O)N4C([H])([H])C([H])([H])C([H])([H])C([H])(n5nc(-c6c([H])c([H])c(Oc7c([H])c([H])c(F)c([H])c7F)c([H])c6[H])c(C(=O)N([H])[H])c5N([H])[H])C4([H])[H])c([H])c([H])c3OC([H])([H])[H])c([H])c([H])c2C1([H])[H]

$$$$
12:0:0
     RDKit          3D

 90 98  0  0  1  0  0  0  0  0999 V2000
  -27.2160  -22.5330   20.5830 C   0  0  0  0  0  3  0  0  0  0  0  0
  -27.5330  -23.8750   20.8780 C   0  0  0  0  0  3  0  0  0  0  0  0
  -29.8300  -23.1290   20.8960 C   0  0  0  0  0  3  0  0  0  0  0  0
  -28.1480  -21.4690   20.4030 C   0  0  0  0  0  0  0  0  0  0  0  0
  -29.5530  -21.6130   20.6190 C   0  0  0  0  0  0  0  0  0  0  0  0
  -28.8520  -24.3450   21.0180 C   0  0  0  0  0  0  0  0  0  0  0  0
  -28.9600  -25.8640   21.3100 O   0  0  0  0  0  0  0  0  0  0  0  0
  -24.9330  -31.9510   23.5490 C   0  0  0  0  0  0  0  0  0  0  0  0
  -27.9430  -26.9610   21.1380 C   0  0  0  0  0  0  0  0  0  0  0  0
  -23.9860  -30.4420   21.8520 C   0  0  0  0  0  3  0  0  0  0  0  0
  -25.6350  -28.7990   20.7130 C   0  0  0  0  0  0  0  0  0  0  0  0
  -26.5480  -30.6940   22.0280 C   0  0  0  0  0  2  0  0  0  0  0  0
  -26.7240  -29.2520   21.4640 C   0  0  0  0  0  0  0  0  0  0  0  0
  -27.8750  -28.3530   21.6530 C   0  0  0  0  0  3  0  0  0  0  0  0
  -26.8320  -26.6770   20.3120 C   0  0  0  0  0  3  0  0  0  0  0  0
  -25.7160  -27.5310   20.1160 C   0  0  0  0  0  3  0  0  0  0  0  0
  -24.4000  -29.6900   20.5570 C   0  0  0  0  0  2  0  0  0  0  0  0
  -25.1700  -31.0620   22.5290 N   0  0  0  0  0  0  0  0  0  0  0  0
  -23.7800  -32.2410   23.9120 O   0  0  0  0  0  0  0  0  0  0  0  0
  -23.1890  -29.4840   22.7790 C   0  0  0  0  0  0  0  0  0  0  0  0
  -21.8700  -29.3440   22.5450 N   0  0  0  0  0  0  0  0  0  0  0  0
  -23.7660  -28.8630   23.6750 O   0  0  0  0  0  0  0  0  0  0  0  0
  -21.4570  -29.8940   21.8050 H   0  0  0  0  0  0  0  0  0  0  0  0
  -18.4070  -28.3240   22.9100 C   0  0  0  0  0  0  0  0  0  0  0  0
  -20.9670  -28.4400   23.2640 C   0  0  0  0  0  3  0  0  0  0  0  0
  -21.0070  -27.0160   22.6600 C   0  0  0  0  0  2  0  0  0  0  0  0
  -19.9240  -26.7780   21.6010 C   0  0  0  0  0  2  0  0  0  0  0  0
  -18.5320  -26.9840   22.2030 C   0  0  0  0  0  2  0  0  0  0  0  0
  -19.5500  -29.0140   23.3950 C   0  0  0  0  0  0  0  0  0  0  0  0
  -19.3790  -30.2700   24.0180 C   0  0  0  0  0  3  0  0  0  0  0  0
  -18.0980  -30.8350   24.1590 C   0  0  0  0  0  3  0  0  0  0  0  0
  -16.9690  -30.1410   23.6910 C   0  0  0  0  0  3  0  0  0  0  0  0
  -17.1230  -28.8860   23.0730 C   0  0  0  0  0  3  0  0  0  0  0  0
  -26.0980  -32.6630   24.3000 C   0  0  0  0  0  3  0  0  0  0  0  0
  -26.4870  -31.9510   25.6550 C   0  0  1  0  0  0  0  0  0  0  0  0
  -25.2730  -31.6210   26.5570 C   0  0  0  0  0  1  0  0  0  0  0  0
  -27.2390  -30.6270   25.3890 C   0  0  0  0  0  1  0  0  0  0  0  0
  -27.4540  -32.8520   26.4590 C   0  0  0  0  0  1  0  0  0  0  0  0
  -25.6910  -34.0550   24.5620 N   0  0  0  0  0  0  0  0  0  0  0  0
  -26.0430  -35.1130   23.8170 C   0  0  0  0  0  0  0  0  0  0  0  0
  -26.8050  -35.0240   22.8530 O   0  0  0  0  0  0  0  0  0  0  0  0
  -25.0230  -34.1940   25.3050 H   0  0  0  0  0  0  0  0  0  0  0  0
  -24.2560  -36.8120   23.3040 C   0  0  0  0  0  1  0  0  0  0  0  0
  -25.4590  -36.4890   24.2040 C   0  0  0  0  0  3  0  0  0  0  0  0
  -27.4920  -37.5030   25.1370 C   0  0  0  0  0  1  0  0  0  0  0  0
  -26.4430  -37.5910   24.1250 N   0  0  0  0  0  0  0  0  0  0  0  0
  -25.9840  -38.4930   24.2220 H   0  0  0  0  0  0  0  0  0  0  0  0
  -27.5410  -20.2040   19.8020 C   0  0  0  0  0  2  0  0  0  0  0  0
  -27.4560  -18.8460   17.5980 C   0  0  0  0  0  1  0  0  0  0  0  0
  -28.2240  -19.8570   18.4560 C   0  0  0  0  0  2  0  0  0  0  0  0
  -30.5350  -20.1700   20.2440 C   0  0  0  0  0  2  0  0  0  0  0  0
  -30.8840  -18.5390   21.0020 C   0  0  0  0  0  2  0  0  0  0  0  0
  -31.4670  -15.6010   20.4720 C   0  0  0  0  0  0  0  0  0  0  0  0
  -31.4070  -13.2140   19.4230 C   0  0  0  0  0  2  0  0  0  0  0  0
  -30.5040  -13.0660   18.1730 C   0  0  0  0  0  2  0  0  0  0  0  0
  -29.0380  -12.8190   18.5670 C   0  0  0  0  0  2  0  0  0  0  0  0
  -28.5910  -13.7370   19.7310 C   0  0  0  0  0  3  0  0  0  0  0  0
  -29.6190  -13.7910   20.8780 C   0  0  0  0  0  2  0  0  0  0  0  0
  -30.8590  -14.3210   20.2870 N   0  0  0  0  0  0  0  0  0  0  0  0
  -32.7040  -15.5380   20.3870 O   0  0  0  0  0  0  0  0  0  0  0  0
  -30.7330  -16.9100   20.5370 N   0  0  0  0  0  0  0  0  0  0  0  0
  -29.7570  -16.7130   20.3630 H   0  0  0  0  0  0  0  0  0  0  0  0
  -26.2180  -14.3460   20.4320 C   0  0  0  0  0  0  0  0  0  0  0  0
  -25.1200  -13.5920   20.7420 C   0  0  0  0  0  0  0  0  0  0  0  0
  -25.5480  -12.2300   20.6870 C   0  0  0  0  0  0  0  0  0  0  0  0
  -27.2400  -13.4450   20.1950 N   0  0  0  0  0  0  0  0  0  0  0  0
  -26.8500  -12.1640   20.4270 N   0  0  0  0  0  0  0  0  0  0  0  0
  -24.7750  -10.9880   20.8100 C   0  0  0  0  0  0  0  0  0  0  0  0
  -25.1030  -10.0070   21.7720 C   0  0  0  0  0  3  0  0  0  0  0  0
  -24.3290   -8.8320   21.8870 C   0  0  0  0  0  3  0  0  0  0  0  0
  -23.2120   -8.6310   21.0410 C   0  0  0  0  0  0  0  0  0  0  0  0
  -22.9040   -9.5990   20.0710 C   0  0  0  0  0  3  0  0  0  0  0  0
  -23.6780  -10.7650   19.9530 C   0  0  0  0  0  3  0  0  0  0  0  0
  -22.4160   -7.5100   21.0640 O   0  0  0  0  0  0  0  0  0  0  0  0
  -22.1590   -6.8370   22.2300 C   0  0  0  0  0  0  0  0  0  0  0  0
  -21.5650   -7.4720   23.3420 C   0  0  0  0  0  3  0  0  0  0  0  0
  -21.2530   -6.7230   24.4940 C   0  0  0  0  0  3  0  0  0  0  0  0
  -21.5250   -5.3420   24.5350 C   0  0  0  0  0  0  0  0  0  0  0  0
  -22.1120   -4.7100   23.4260 C   0  0  0  0  0  3  0  0  0  0  0  0
  -22.4260   -5.4530   22.2750 C   0  0  0  0  0  0  0  0  0  0  0  0
  -22.9700   -4.8340   21.2000 F   0  0  0  0  0  0  0  0  0  0  0  0
  -21.2180   -4.6230   25.6390 F   0  0  0  0  0  0  0  0  0  0  0  0
  -23.7290  -14.1070   20.9680 C   0  0  0  0  0  0  0  0  0  0  0  0
  -22.9560  -13.4390   21.8170 N   0  0  0  0  0  0  0  0  0  0  0  0
  -23.3360  -15.1370   20.4230 O   0  0  0  0  0  0  0  0  0  0  0  0
  -23.2880  -12.6110   22.2890 H   0  0  0  0  0  0  0  0  0  0  0  0
  -22.0220  -13.7720   22.0070 H   0  0  0  0  0  0  0  0  0  0  0  0
  -26.4280  -15.7140   20.2970 N   0  0  0  0  0  0  0  0  0  0  0  0
  -25.6820  -16.3900   20.4100 H   0  0  0  0  0  0  0  0  0  0  0  0
  -27.2960  -16.1350   20.0010 H   0  0  0  0  0  0  0  0  0  0  0  0
  1  2  1  0
  2  6  2  0
  3  6  1  0
  4  1  2  0
  4  5  1  0
  5  3  2  0
  6  7  1  0
  8 19  2  0
  9  7  1  0
  9 14  1  0
 10 18  1  0
 10 20  1  0
 11 13  1  0
 12 18  1  0
 13 14  2  0
 13 12  1  0
 15  9  2  0
 16 15  1  0
 16 11  2  0
 17 11  1  0
 17 10  1  0
 18  8  1  0
 20 22  2  0
 21 20  1  0
 23 21  1  0
 24 33  2  0
 24 29  1  0
 25 21  1  0
 25 29  1  0
 26 25  1  0
 27 28  1  0
 27 26  1  0
 28 24  1  0
 29 30  2  0
 30 31  1  0
 32 31  2  0
 33 32  1  0
 34  8  1  0
 34 39  1  0
 34 35  1  0
 35 38  1  1
 35 36  1  0
 37 35  1  0
 39 42  1  0
 40 44  1  0
 40 39  1  0
 41 40  2  0
 44 43  1  0
 46 44  1  0
 46 47  1  0
 46 45  1  0
 48  4  1  0
 49 50  1  0
 50 48  1  0
 51  5  1  0
 51 52  1  0
 53 61  1  0
 54 59  1  0
 55 56  1  0
 55 54  1  0
 57 56  1  0
 57 66  1  0
 57 58  1  0
 59 53  1  0
 59 58  1  0
 60 53  2  0
 61 52  1  0
 62 61  1  0
 63 64  2  0
 64 83  1  0
 65 64  1  0
 65 68  1  0
 66 67  1  0
 66 63  1  0
 67 65  2  0
 68 69  1  0
 69 70  2  0
 71 74  1  0
 71 70  1  0
 72 71  2  0
 73 72  1  0
 73 68  2  0
 74 75  1  0
 75 80  2  0
 75 76  1  0
 76 77  2  0
 77 78  1  0
 78 82  1  0
 79 78  2  0
 80 79  1  0
 81 80  1  0
 83 84  1  0
 84 87  1  0
 84 86  1  0
 85 83  2  0
 88 89  1  0
 88 63  1  0
 90 88  1  0
M  ISO  4   6 101   7 101  53 100  61 100
M  END
>  <TORSDO>  (13) 
F 20

>  <SCORE>  (13) 
-12.704

>  <name>  (13) 
12

>  <ligand_id>  (13) 
12

>  <original_smiles>  (13) 
[H]c1c([H])c([H])c2c(c1[H])C([H])([H])C([H])([H])C([H])([H])C2([H])N([H])C(=O)C1([H])N(C(=O)C([H])(N([H])C(=O)C([H])(N([H])C([H])([H])[H])C([H])([H])[H])C(C([H])([H])[H])(C([H])([H])[H])C([H])([H])[H])C([H])([H])c2c([H])c(Oc3c([H])c([H])c(C([H])([H])C([H])([H])C([H])([H])[H])c(C([H])([H])C([H])([H])N([H])C(=O)N4C([H])([H])C([H])([H])C([H])([H])C([H])(n5nc(-c6c([H])c([H])c(Oc7c([H])c([H])c(F)c([H])c7F)c([H])c6[H])c(C(=O)N([H])[H])c5N([H])[H])C4([H])[H])c3[H])c([H])c([H])c2C1([H])[H]

>  <smiles>  (13) 
[H]c1c([H])c([H])c2c(c1[H])C([H])([H])C([H])([H])C([H])([H])C2([H])N([H])C(=O)C1([H])N(C(=O)C([H])(N([H])C(=O)C([H])(N([H])C([H])([H])[H])C([H])([H])[H])C(C([H])([H])[H])(C([H])([H])[H])C([H])([H])[H])C([H])([H])c2c([H])c(Oc3c([H])c([H])c(C([H])([H])C([H])([H])C([H])([H])[H])c(C([H])([H])C([H])([H])N([H])C(=O)N4C([H])([H])C([H])([H])C([H])([H])C([H])(n5nc(-c6c([H])c([H])c(Oc7c([H])c([H])c(F)c([H])c7F)c([H])c6[H])c(C(=O)N([H])[H])c5N([H])[H])C4([H])[H])c3[H])c([H])c([H])c2C1([H])[H]

$$$$
13:0:0
     RDKit          3D

 93102  0  0  1  0  0  0  0  0999 V2000
  -28.3270  -19.8010   21.4230 C   0  0  0  0  0  3  0  0  0  0  0  0
  -28.7570  -18.4930   21.0730 C   0  0  0  0  0  2  0  0  0  0  0  0
  -29.9510  -19.3820   19.1400 C   0  0  0  0  0  3  0  0  0  0  0  0
  -28.7210  -20.8870   20.6170 C   0  0  0  0  0  0  0  0  0  0  0  0
  -29.5730  -18.2560   19.9310 C   0  0  0  0  0  0  0  0  0  0  0  0
  -29.5140  -20.6720   19.4940 C   0  0  0  0  0  0  0  0  0  0  0  0
  -28.4640  -22.3290   20.7300 C   0  0  0  0  0  3  0  0  0  0  0  0
  -29.0760  -22.9580   19.7050 C   0  0  0  0  0  0  0  0  0  0  0  0
  -29.8120  -21.9830   18.7930 C   0  0  0  0  0  3  0  0  0  0  0  0
  -30.2210  -15.8200   20.4130 C   0  0  0  0  0  3  0  0  0  0  0  0
  -30.0950  -16.8960   19.5810 C   0  0  0  0  0  0  0  0  0  0  0  0
  -30.9330  -14.6100   19.9750 C   0  0  0  0  0  0  0  0  0  0  0  0
  -30.5640  -12.4130   18.9420 C   0  0  0  0  0  2  0  0  0  0  0  0
  -29.5650  -12.5990   17.7810 C   0  0  0  0  0  2  0  0  0  0  0  0
  -28.1190  -12.4550   18.2920 C   0  0  0  0  0  2  0  0  0  0  0  0
  -27.8420  -13.3100   19.5580 C   0  0  0  0  0  3  0  0  0  0  0  0
  -28.9620  -13.1530   20.6090 C   0  0  0  0  0  2  0  0  0  0  0  0
  -30.2480  -13.4330   19.9580 N   0  0  0  0  0  0  0  0  0  0  0  0
  -32.0710  -14.6940   19.5030 O   0  0  0  0  0  0  0  0  0  0  0  0
  -25.5050  -13.8880   20.4590 C   0  0  0  0  0  0  0  0  0  0  0  0
  -24.4630  -13.1030   20.8750 C   0  0  0  0  0  0  0  0  0  0  0  0
  -24.9170  -11.7540   20.7670 C   0  0  0  0  0  0  0  0  0  0  0  0
  -26.5280  -13.0160   20.1240 N   0  0  0  0  0  0  0  0  0  0  0  0
  -26.1830  -11.7240   20.3680 N   0  0  0  0  0  0  0  0  0  0  0  0
  -24.2010  -10.4850   20.9640 C   0  0  0  0  0  0  0  0  0  0  0  0
  -24.6490   -9.5200   21.8920 C   0  0  0  0  0  3  0  0  0  0  0  0
  -23.9340   -8.3170   22.0770 C   0  0  0  0  0  3  0  0  0  0  0  0
  -22.7550   -8.0720   21.3340 C   0  0  0  0  0  0  0  0  0  0  0  0
  -22.3260   -9.0260   20.3950 C   0  0  0  0  0  3  0  0  0  0  0  0
  -23.0420  -10.2200   20.2070 C   0  0  0  0  0  3  0  0  0  0  0  0
  -22.0090   -6.9210   21.4280 O   0  0  0  0  0  0  0  0  0  0  0  0
  -21.9180   -6.2170   22.6010 C   0  0  0  0  0  0  0  0  0  0  0  0
  -21.3990   -6.7950   23.7800 C   0  0  0  0  0  3  0  0  0  0  0  0
  -21.2600   -6.0140   24.9450 C   0  0  0  0  0  3  0  0  0  0  0  0
  -21.6290   -4.6560   24.9310 C   0  0  0  0  0  0  0  0  0  0  0  0
  -22.1410   -4.0760   23.7560 C   0  0  0  0  0  3  0  0  0  0  0  0
  -22.2820   -4.8550   22.5940 C   0  0  0  0  0  0  0  0  0  0  0  0
  -22.7560   -4.2860   21.4590 F   0  0  0  0  0  0  0  0  0  0  0  0
  -21.4870   -3.9030   26.0460 F   0  0  0  0  0  0  0  0  0  0  0  0
  -23.0900  -13.5720   21.2600 C   0  0  0  0  0  0  0  0  0  0  0  0
  -22.4190  -12.8460   22.1460 N   0  0  0  0  0  0  0  0  0  0  0  0
  -22.6220  -14.6180   20.8100 O   0  0  0  0  0  0  0  0  0  0  0  0
  -22.8120  -11.9990   22.5310 H   0  0  0  0  0  0  0  0  0  0  0  0
  -21.5000  -13.1400   22.4450 H   0  0  0  0  0  0  0  0  0  0  0  0
  -25.6630  -15.2630   20.3180 N   0  0  0  0  0  0  0  0  0  0  0  0
  -24.9130  -15.9180   20.5100 H   0  0  0  0  0  0  0  0  0  0  0  0
  -26.5020  -15.7100   19.9710 H   0  0  0  0  0  0  0  0  0  0  0  0
  -30.4420  -16.8000   18.2840 O   0  0  0  0  0  0  0  0  0  0  0  0
  -30.2020  -17.6190   17.8680 H   0  0  0  0  0  0  0  0  0  0  0  0
  -29.0980  -24.4230   19.4250 C   0  0  0  0  0  0  0  0  0  0  0  0
  -29.6070  -24.8680   18.3890 O   0  0  0  0  0  0  0  0  0  0  0  0
  -28.4890  -25.4180   20.4350 C   0  0  0  0  0  2  0  0  0  0  0  0
  -28.5920  -26.7900   19.9810 O   0  0  0  0  0  0  0  0  0  0  0  0
  -24.6210  -31.8020   23.1210 C   0  0  0  0  0  0  0  0  0  0  0  0
  -27.4120  -27.5030   19.9720 C   0  0  0  0  0  0  0  0  0  0  0  0
  -23.4700  -30.4050   21.4370 C   0  0  0  0  0  3  0  0  0  0  0  0
  -24.9780  -28.9450   19.9880 C   0  0  0  0  0  0  0  0  0  0  0  0
  -25.9850  -30.8430   21.2660 C   0  0  0  0  0  2  0  0  0  0  0  0
  -26.1160  -29.4900   20.5940 C   0  0  0  0  0  0  0  0  0  0  0  0
  -27.3400  -28.7790   20.5770 C   0  0  0  0  0  3  0  0  0  0  0  0
  -26.2590  -26.9770   19.3490 C   0  0  0  0  0  3  0  0  0  0  0  0
  -25.0450  -27.6890   19.3600 C   0  0  0  0  0  3  0  0  0  0  0  0
  -23.7090  -29.7640   20.0440 C   0  0  0  0  0  2  0  0  0  0  0  0
  -24.7100  -31.0310   22.0000 N   0  0  0  0  0  0  0  0  0  0  0  0
  -23.5290  -32.0290   23.6590 O   0  0  0  0  0  0  0  0  0  0  0  0
  -22.8430  -29.3420   22.3690 C   0  0  0  0  0  0  0  0  0  0  0  0
  -21.5250  -29.1250   22.2290 N   0  0  0  0  0  0  0  0  0  0  0  0
  -23.5400  -28.7160   23.1720 O   0  0  0  0  0  0  0  0  0  0  0  0
  -21.0230  -29.6850   21.5530 H   0  0  0  0  0  0  0  0  0  0  0  0
  -18.1790  -27.8410   22.6890 C   0  0  0  0  0  0  0  0  0  0  0  0
  -20.7300  -28.1460   22.9700 C   0  0  0  0  0  3  0  0  0  0  0  0
  -20.8640  -26.7370   22.3500 C   0  0  0  0  0  2  0  0  0  0  0  0
  -19.7690  -26.4210   21.3250 C   0  0  0  0  0  2  0  0  0  0  0  0
  -18.3850  -26.5170   21.9730 C   0  0  0  0  0  2  0  0  0  0  0  0
  -19.2810  -28.6140   23.1430 C   0  0  0  0  0  0  0  0  0  0  0  0
  -19.0350  -29.8540   23.7710 C   0  0  0  0  0  3  0  0  0  0  0  0
  -17.7200  -30.3220   23.9510 C   0  0  0  0  0  3  0  0  0  0  0  0
  -16.6330  -29.5460   23.5140 C   0  0  0  0  0  3  0  0  0  0  0  0
  -16.8630  -28.3080   22.8890 C   0  0  0  0  0  3  0  0  0  0  0  0
  -25.8840  -32.4560   23.7650 C   0  0  0  0  0  3  0  0  0  0  0  0
  -26.4090  -31.6770   25.0330 C   0  0  1  0  0  0  0  0  0  0  0  0
  -25.3140  -31.3880   26.0840 C   0  0  0  0  0  1  0  0  0  0  0  0
  -27.0360  -30.3250   24.6210 C   0  0  0  0  0  1  0  0  0  0  0  0
  -27.5290  -32.4930   25.7220 C   0  0  0  0  0  1  0  0  0  0  0  0
  -25.5360  -33.8410   24.1130 N   0  0  0  0  0  0  0  0  0  0  0  0
  -25.8500  -34.9120   23.3730 C   0  0  0  0  0  0  0  0  0  0  0  0
  -26.5340  -34.8420   22.3480 O   0  0  0  0  0  0  0  0  0  0  0  0
  -24.9290  -33.9680   24.9090 H   0  0  0  0  0  0  0  0  0  0  0  0
  -24.0830  -36.6650   23.0200 C   0  0  0  0  0  1  0  0  0  0  0  0
  -25.3210  -36.2800   23.8450 C   0  0  0  0  0  3  0  0  0  0  0  0
  -27.4160  -37.2070   24.7270 C   0  0  0  0  0  1  0  0  0  0  0  0
  -26.3280  -37.3600   23.7640 N   0  0  0  0  0  0  0  0  0  0  0  0
  -25.8960  -38.2680   23.9150 H   0  0  0  0  0  0  0  0  0  0  0  0
  2  1  1  0
  3  6  1  0
  3  5  2  0
  4  7  1  0
  4  1  2  0
  5  2  1  0
  6  4  1  0
  8  7  2  0
  9  6  2  0
  9  8  1  0
 11  5  1  0
 11 10  2  0
 12 10  1  0
 13 18  1  0
 14 15  1  0
 14 13  1  0
 16 15  1  0
 16 23  1  0
 16 17  1  0
 18 12  1  0
 18 17  1  0
 19 12  2  0
 20 21  2  0
 21 40  1  0
 22 21  1  0
 22 25  1  0
 23 24  1  0
 23 20  1  0
 24 22  2  0
 25 26  1  0
 26 27  2  0
 28 31  1  0
 28 27  1  0
 29 28  2  0
 30 29  1  0
 30 25  2  0
 31 32  1  0
 32 33  1  0
 33 34  2  0
 35 34  1  0
 35 39  1  0
 36 35  2  0
 37 32  2  0
 37 36  1  0
 38 37  1  0
 40 41  1  0
 41 44  1  0
 41 43  1  0
 42 40  2  0
 45 20  1  0
 45 46  1  0
 47 45  1  0
 48 11  1  0
 49 48  1  0
 50  8  1  0
 50 52  1  0
 51 50  2  0
 53 52  1  0
 54 65  2  0
 55 53  1  0
 55 60  1  0
 56 64  1  0
 56 66  1  0
 57 63  1  0
 57 59  1  0
 58 64  1  0
 59 58  1  0
 60 59  2  0
 61 62  1  0
 61 55  2  0
 62 57  2  0
 63 56  1  0
 64 54  1  0
 66 68  2  0
 67 66  1  0
 69 67  1  0
 70 79  2  0
 70 75  1  0
 71 67  1  0
 71 75  1  0
 72 71  1  0
 73 74  1  0
 73 72  1  0
 74 70  1  0
 75 76  2  0
 76 77  1  0
 78 77  2  0
 79 78  1  0
 80 54  1  0
 80 85  1  0
 80 81  1  0
 81 84  1  1
 81 82  1  0
 83 81  1  0
 85 88  1  0
 86 90  1  0
 86 85  1  0
 87 86  2  0
 90 89  1  0
 92 90  1  0
 92 93  1  0
 92 91  1  0
M  ISO  4  10 100  12 100  52 101  53 101
M  END
>  <TORSDO>  (14) 
F 20

>  <SCORE>  (14) 
-12.501

>  <name>  (14) 
13

>  <ligand_id>  (14) 
13

>  <original_smiles>  (14) 
[H]OC(=C([H])C(=O)N1C([H])([H])C([H])([H])C([H])([H])C([H])(n2nc(-c3c([H])c([H])c(Oc4c([H])c([H])c(F)c([H])c4F)c([H])c3[H])c(C(=O)N([H])[H])c2N([H])[H])C1([H])[H])c1c([H])c([H])c2c(c1[H])C([H])([H])C(C(=O)C([H])([H])Oc1c([H])c([H])c3c(c1[H])C([H])([H])N(C(=O)C([H])(N([H])C(=O)C([H])(N([H])C([H])([H])[H])C([H])([H])[H])C(C([H])([H])[H])(C([H])([H])[H])C([H])([H])[H])C([H])(C(=O)N([H])C1([H])c4c([H])c([H])c([H])c([H])c4C([H])([H])C([H])([H])C1([H])[H])C3([H])[H])=C2[H]

>  <smiles>  (14) 
[H]OC(=C([H])C(=O)N1C([H])([H])C([H])([H])C([H])([H])C([H])(n2nc(-c3c([H])c([H])c(Oc4c([H])c([H])c(F)c([H])c4F)c([H])c3[H])c(C(=O)N([H])[H])c2N([H])[H])C1([H])[H])c1c([H])c([H])c2c(c1[H])C([H])([H])C(C(=O)C([H])([H])Oc1c([H])c([H])c3c(c1[H])C([H])([H])N(C(=O)C([H])(N([H])C(=O)C([H])(N([H])C([H])([H])[H])C([H])([H])[H])C(C([H])([H])[H])(C([H])([H])[H])C([H])([H])[H])C([H])(C(=O)N([H])C1([H])c4c([H])c([H])c([H])c([H])c4C([H])([H])C([H])([H])C1([H])[H])C3([H])[H])=C2[H]

$$$$
14:0:0
     RDKit          3D

 93101  0  0  1  0  0  0  0  0999 V2000
  -30.0220  -23.7660   20.2650 C   0  0  0  0  0  3  0  0  0  0  0  0
  -29.7990  -25.1090   19.9160 C   0  0  0  0  0  3  0  0  0  0  0  0
  -27.4160  -24.7670   20.1280 C   0  0  0  0  0  3  0  0  0  0  0  0
  -28.9470  -22.8740   20.5070 C   0  0  0  0  0  0  0  0  0  0  0  0
  -27.6200  -23.4000   20.4400 C   0  0  0  0  0  0  0  0  0  0  0  0
  -28.4980  -25.6270   19.8340 C   0  0  0  0  0  0  0  0  0  0  0  0
  -29.2750  -21.4460   20.8630 C   0  0  0  0  0  0  0  0  0  0  0  0
  -28.6460  -20.7760   21.6870 O   0  0  0  0  0  0  0  0  0  0  0  0
  -30.4660  -20.7930   20.1390 C   0  0  0  0  0  2  0  0  0  0  0  0
  -30.2070  -19.3680   19.6120 C   0  0  0  0  0  2  0  0  0  0  0  0
  -30.6270  -18.2040   20.5300 C   0  0  0  0  0  2  0  0  0  0  0  0
  -30.2920  -16.8810   19.8170 C   0  0  0  0  0  2  0  0  0  0  0  0
  -31.2350  -14.6420   20.0830 C   0  0  0  0  0  0  0  0  0  0  0  0
  -30.8880  -12.4490   19.0280 C   0  0  0  0  0  2  0  0  0  0  0  0
  -29.9400  -12.6540   17.8270 C   0  0  0  0  0  2  0  0  0  0  0  0
  -28.4620  -12.5930   18.2660 C   0  0  0  0  0  2  0  0  0  0  0  0
  -28.1670  -13.4760   19.5070 C   0  0  0  0  0  3  0  0  0  0  0  0
  -29.2200  -13.2270   20.6130 C   0  0  0  0  0  2  0  0  0  0  0  0
  -30.5590  -13.4650   20.0410 N   0  0  0  0  0  0  0  0  0  0  0  0
  -32.3180  -14.8300   19.5220 O   0  0  0  0  0  0  0  0  0  0  0  0
  -30.5260  -15.6610   20.5890 N   0  0  0  0  0  0  0  0  0  0  0  0
  -29.7500  -15.3740   21.1670 H   0  0  0  0  0  0  0  0  0  0  0  0
  -25.8040  -14.2020   20.2440 C   0  0  0  0  0  0  0  0  0  0  0  0
  -24.7080  -13.4800   20.6340 C   0  0  0  0  0  0  0  0  0  0  0  0
  -25.1040  -12.1080   20.5980 C   0  0  0  0  0  0  0  0  0  0  0  0
  -26.8060  -13.2720   20.0010 N   0  0  0  0  0  0  0  0  0  0  0  0
  -26.3840  -12.0080   20.2640 N   0  0  0  0  0  0  0  0  0  0  0  0
  -24.3250  -10.8810   20.8070 C   0  0  0  0  0  0  0  0  0  0  0  0
  -24.6980   -9.9260   21.7790 C   0  0  0  0  0  3  0  0  0  0  0  0
  -23.9230   -8.7620   21.9740 C   0  0  0  0  0  3  0  0  0  0  0  0
  -22.7610   -8.5450   21.1960 C   0  0  0  0  0  0  0  0  0  0  0  0
  -22.4070   -9.4880   20.2140 C   0  0  0  0  0  3  0  0  0  0  0  0
  -23.1830  -10.6420   20.0180 C   0  0  0  0  0  3  0  0  0  0  0  0
  -21.9650   -7.4290   21.2940 O   0  0  0  0  0  0  0  0  0  0  0  0
  -21.8140   -6.7540   22.4780 C   0  0  0  0  0  0  0  0  0  0  0  0
  -21.3140   -7.3870   23.6360 C   0  0  0  0  0  3  0  0  0  0  0  0
  -21.1090   -6.6410   24.8140 C   0  0  0  0  0  3  0  0  0  0  0  0
  -21.3940   -5.2630   24.8340 C   0  0  0  0  0  0  0  0  0  0  0  0
  -21.8890   -4.6300   23.6790 C   0  0  0  0  0  3  0  0  0  0  0  0
  -22.0950   -5.3740   22.5040 C   0  0  0  0  0  0  0  0  0  0  0  0
  -22.5500   -4.7540   21.3890 F   0  0  0  0  0  0  0  0  0  0  0  0
  -21.1910   -4.5440   25.9620 F   0  0  0  0  0  0  0  0  0  0  0  0
  -23.3390  -14.0210   20.9320 C   0  0  0  0  0  0  0  0  0  0  0  0
  -22.5970  -13.3620   21.8160 N   0  0  0  0  0  0  0  0  0  0  0  0
  -22.9340  -15.0630   20.4190 O   0  0  0  0  0  0  0  0  0  0  0  0
  -22.9330  -12.5210   22.2590 H   0  0  0  0  0  0  0  0  0  0  0  0
  -21.6790  -13.7090   22.0580 H   0  0  0  0  0  0  0  0  0  0  0  0
  -26.0310  -15.5620   20.0600 N   0  0  0  0  0  0  0  0  0  0  0  0
  -25.3050  -16.2600   20.1870 H   0  0  0  0  0  0  0  0  0  0  0  0
  -26.8980  -15.9560   19.7180 H   0  0  0  0  0  0  0  0  0  0  0  0
  -25.5740  -23.0110   21.8970 C   0  0  0  0  0  1  0  0  0  0  0  0
  -26.3620  -22.5640   20.6600 C   0  0  0  0  0  2  0  0  0  0  0  0
  -28.3690  -26.9560   19.4860 O   0  0  0  0  0  0  0  0  0  0  0  0
  -24.5320  -31.7400   23.0750 C   0  0  0  0  0  0  0  0  0  0  0  0
  -27.1730  -27.6290   19.5910 C   0  0  0  0  0  0  0  0  0  0  0  0
  -23.3210  -30.5020   21.3050 C   0  0  0  0  0  3  0  0  0  0  0  0
  -24.7740  -29.1070   19.7370 C   0  0  0  0  0  0  0  0  0  0  0  0
  -25.8410  -30.8810   21.1390 C   0  0  0  0  0  2  0  0  0  0  0  0
  -25.9250  -29.5750   20.3810 C   0  0  0  0  0  0  0  0  0  0  0  0
  -27.1260  -28.8380   20.3140 C   0  0  0  0  0  3  0  0  0  0  0  0
  -26.0130  -27.1760   18.9280 C   0  0  0  0  0  3  0  0  0  0  0  0
  -24.8090  -27.9020   19.0100 C   0  0  0  0  0  3  0  0  0  0  0  0
  -23.5300  -29.9560   19.8660 C   0  0  0  0  0  2  0  0  0  0  0  0
  -24.5830  -31.0510   21.9000 N   0  0  0  0  0  0  0  0  0  0  0  0
  -23.4520  -31.9590   23.6410 O   0  0  0  0  0  0  0  0  0  0  0  0
  -22.6740  -29.3930   22.1650 C   0  0  0  0  0  0  0  0  0  0  0  0
  -21.3420  -29.2580   22.0620 N   0  0  0  0  0  0  0  0  0  0  0  0
  -23.3640  -28.6620   22.8810 O   0  0  0  0  0  0  0  0  0  0  0  0
  -20.8460  -29.9040   21.4630 H   0  0  0  0  0  0  0  0  0  0  0  0
  -17.9410  -28.1890   22.6400 C   0  0  0  0  0  0  0  0  0  0  0  0
  -20.5220  -28.2590   22.7460 C   0  0  0  0  0  3  0  0  0  0  0  0
  -20.4880  -26.9300   21.9560 C   0  0  0  0  0  2  0  0  0  0  0  0
  -19.2990  -26.8290   20.9960 C   0  0  0  0  0  2  0  0  0  0  0  0
  -17.9790  -26.9500   21.7610 C   0  0  0  0  0  2  0  0  0  0  0  0
  -19.1340  -28.8130   23.0890 C   0  0  0  0  0  0  0  0  0  0  0  0
  -19.0420  -29.9830   23.8750 C   0  0  0  0  0  3  0  0  0  0  0  0
  -17.7900  -30.5250   24.2150 C   0  0  0  0  0  3  0  0  0  0  0  0
  -16.6110  -29.8950   23.7800 C   0  0  0  0  0  3  0  0  0  0  0  0
  -16.6880  -28.7290   22.9980 C   0  0  0  0  0  3  0  0  0  0  0  0
  -25.8220  -32.3050   23.7490 C   0  0  0  0  0  3  0  0  0  0  0  0
  -25.5430  -33.6930   24.1390 N   0  0  0  0  0  0  0  0  0  0  0  0
  -25.9030  -34.7700   23.4290 C   0  0  0  0  0  0  0  0  0  0  0  0
  -26.5790  -34.6980   22.3990 O   0  0  0  0  0  0  0  0  0  0  0  0
  -24.9480  -33.8250   24.9430 H   0  0  0  0  0  0  0  0  0  0  0  0
  -24.2070  -36.6050   23.1540 C   0  0  0  0  0  1  0  0  0  0  0  0
  -25.4420  -36.1470   23.9460 C   0  0  0  0  0  3  0  0  0  0  0  0
  -27.5910  -36.9600   24.8110 C   0  0  0  0  0  1  0  0  0  0  0  0
  -26.4920  -37.1850   23.8750 N   0  0  0  0  0  0  0  0  0  0  0  0
  -26.1020  -38.1050   24.0590 H   0  0  0  0  0  0  0  0  0  0  0  0
  -26.2990  -31.4580   24.9910 C   0  0  1  0  0  0  0  0  0  0  0  0
  -25.1860  -31.1960   26.0320 C   0  0  0  0  0  1  0  0  0  0  0  0
  -26.8510  -30.0850   24.5350 C   0  0  0  0  0  1  0  0  0  0  0  0
  -27.4580  -32.1870   25.7100 C   0  0  0  0  0  1  0  0  0  0  0  0
  1  4  1  0
  2  1  2  0
  3  5  1  0
  4  7  1  0
  5  4  2  0
  5 52  1  0
  6  2  1  0
  6  3  2  0
  7  8  2  0
  9  7  1  0
 10  9  1  0
 10 11  1  0
 12 11  1  0
 12 21  1  0
 13 21  1  0
 14 19  1  0
 15 16  1  0
 15 14  1  0
 17 16  1  0
 17 26  1  0
 17 18  1  0
 19 13  1  0
 19 18  1  0
 20 13  2  0
 21 22  1  0
 23 24  2  0
 24 43  1  0
 25 24  1  0
 25 28  1  0
 26 23  1  0
 26 27  1  0
 27 25  2  0
 28 29  1  0
 29 30  2  0
 31 34  1  0
 31 30  1  0
 32 31  2  0
 33 32  1  0
 33 28  2  0
 34 35  1  0
 35 40  2  0
 35 36  1  0
 36 37  2  0
 37 38  1  0
 38 42  1  0
 39 38  2  0
 40 39  1  0
 41 40  1  0
 43 44  1  0
 44 47  1  0
 44 46  1  0
 45 43  2  0
 48 49  1  0
 48 23  1  0
 50 48  1  0
 52 51  1  0
 53 55  1  0
 53  6  1  0
 54 65  2  0
 55 60  1  0
 56 64  1  0
 56 66  1  0
 57 63  1  0
 57 59  1  0
 58 64  1  0
 59 58  1  0
 60 59  2  0
 61 62  1  0
 61 55  2  0
 62 57  2  0
 63 56  1  0
 64 54  1  0
 66 68  2  0
 67 66  1  0
 69 67  1  0
 70 79  2  0
 70 75  1  0
 71 67  1  0
 71 75  1  0
 72 71  1  0
 73 74  1  0
 73 72  1  0
 74 70  1  0
 75 76  2  0
 76 77  1  0
 78 77  2  0
 79 78  1  0
 80 54  1  0
 80 81  1  0
 80 90  1  0
 81 84  1  0
 82 86  1  0
 82 81  1  0
 83 82  2  0
 86 85  1  0
 88 86  1  0
 88 89  1  0
 88 87  1  0
 90 93  1  1
 90 91  1  0
 92 90  1  0
M  ISO  4   6 101  13 100  21 100  53 101
M  END
>  <TORSDO>  (15) 
F 22

>  <SCORE>  (15) 
-11.599

>  <name>  (15) 
14

>  <ligand_id>  (15) 
14

>  <original_smiles>  (15) 
[H]c1c([H])c([H])c2c(c1[H])C([H])([H])C([H])([H])C([H])([H])C2([H])N([H])C(=O)C1([H])N(C(=O)C([H])(N([H])C(=O)C([H])(N([H])C([H])([H])[H])C([H])([H])[H])C(C([H])([H])[H])(C([H])([H])[H])C([H])([H])[H])C([H])([H])c2c([H])c(Oc3c([H])c([H])c(C(=O)C([H])([H])C([H])([H])C([H])([H])C([H])([H])N([H])C(=O)N4C([H])([H])C([H])([H])C([H])([H])C([H])(n5nc(-c6c([H])c([H])c(Oc7c([H])c([H])c(F)c([H])c7F)c([H])c6[H])c(C(=O)N([H])[H])c5N([H])[H])C4([H])[H])c(C([H])([H])C([H])([H])[H])c3[H])c([H])c([H])c2C1([H])[H]

>  <smiles>  (15) 
[H]c1c([H])c([H])c2c(c1[H])C([H])([H])C([H])([H])C([H])([H])C2([H])N([H])C(=O)C1([H])N(C(=O)C([H])(N([H])C(=O)C([H])(N([H])C([H])([H])[H])C([H])([H])[H])C(C([H])([H])[H])(C([H])([H])[H])C([H])([H])[H])C([H])([H])c2c([H])c(Oc3c([H])c([H])c(C(=O)C([H])([H])C([H])([H])C([H])([H])C([H])([H])N([H])C(=O)N4C([H])([H])C([H])([H])C([H])([H])C([H])(n5nc(-c6c([H])c([H])c(Oc7c([H])c([H])c(F)c([H])c7F)c([H])c6[H])c(C(=O)N([H])[H])c5N([H])[H])C4([H])[H])c(C([H])([H])C([H])([H])[H])c3[H])c([H])c([H])c2C1([H])[H]

$$$$
15:0:0
     RDKit          3D

 90 98  0  0  1  0  0  0  0  0999 V2000
  -30.4760  -20.9950   19.0420 C   0  0  0  0  0  3  0  0  0  0  0  0
  -30.7010  -22.3220   18.5980 C   0  0  0  0  0  3  0  0  0  0  0  0
  -28.7740  -21.8960   20.5030 C   0  0  0  0  0  3  0  0  0  0  0  0
  -29.5100  -20.6910   20.0200 C   0  0  0  0  0  0  0  0  0  0  0  0
  -28.9670  -23.3100   20.0620 C   0  0  0  0  0  0  0  0  0  0  0  0
  -29.9800  -23.4460   19.0810 C   0  0  0  0  0  0  0  0  0  0  0  0
  -30.2730  -24.6720   18.5580 O   0  0  0  0  0  0  0  0  0  0  0  0
  -30.9590  -24.6450   17.8990 H   0  0  0  0  0  0  0  0  0  0  0  0
  -29.3180  -19.1100   20.4820 C   0  0  0  0  0  3  0  0  0  0  0  0
  -30.1410  -17.7240   19.9090 C   0  0  0  0  0  3  0  0  0  0  0  0
  -30.5980  -14.9940   19.9980 C   0  0  0  0  0  0  0  0  0  0  0  0
  -30.3890  -12.6870   18.9260 C   0  0  0  0  0  2  0  0  0  0  0  0
  -29.3710  -12.6940   17.7610 C   0  0  0  0  0  2  0  0  0  0  0  0
  -27.9330  -12.4710   18.2720 C   0  0  0  0  0  2  0  0  0  0  0  0
  -27.6270  -13.3200   19.5330 C   0  0  0  0  0  3  0  0  0  0  0  0
  -28.7590  -13.2190   20.5720 C   0  0  0  0  0  2  0  0  0  0  0  0
  -29.9810  -13.7310   19.9210 N   0  0  0  0  0  0  0  0  0  0  0  0
  -31.7340  -15.0590   19.5060 O   0  0  0  0  0  0  0  0  0  0  0  0
  -29.1250  -16.1860   21.6160 C   0  0  0  0  0  1  0  0  0  0  0  0
  -29.9090  -16.2100   20.3760 N   0  0  0  0  0  0  0  0  0  0  0  0
  -25.3030  -13.8790   20.4430 C   0  0  0  0  0  0  0  0  0  0  0  0
  -24.2640  -13.0950   20.8600 C   0  0  0  0  0  0  0  0  0  0  0  0
  -24.7200  -11.7460   20.7590 C   0  0  0  0  0  0  0  0  0  0  0  0
  -26.3240  -13.0080   20.1050 N   0  0  0  0  0  0  0  0  0  0  0  0
  -25.9860  -11.7150   20.3560 N   0  0  0  0  0  0  0  0  0  0  0  0
  -24.0040  -10.4790   20.9620 C   0  0  0  0  0  0  0  0  0  0  0  0
  -24.4650   -9.5070   21.8750 C   0  0  0  0  0  3  0  0  0  0  0  0
  -23.7440   -8.3060   22.0630 C   0  0  0  0  0  3  0  0  0  0  0  0
  -22.5510   -8.0720   21.3390 C   0  0  0  0  0  0  0  0  0  0  0  0
  -22.1110   -9.0350   20.4150 C   0  0  0  0  0  3  0  0  0  0  0  0
  -22.8320  -10.2250   20.2230 C   0  0  0  0  0  3  0  0  0  0  0  0
  -21.8020   -6.9240   21.4390 O   0  0  0  0  0  0  0  0  0  0  0  0
  -21.7490   -6.1960   22.6010 C   0  0  0  0  0  0  0  0  0  0  0  0
  -21.3020   -6.7640   23.8130 C   0  0  0  0  0  3  0  0  0  0  0  0
  -21.1940   -5.9620   24.9670 C   0  0  0  0  0  3  0  0  0  0  0  0
  -21.5270   -4.5960   24.9110 C   0  0  0  0  0  0  0  0  0  0  0  0
  -21.9730   -4.0290   23.7050 C   0  0  0  0  0  3  0  0  0  0  0  0
  -22.0790   -4.8270   22.5510 C   0  0  0  0  0  0  0  0  0  0  0  0
  -22.4870   -4.2710   21.3850 F   0  0  0  0  0  0  0  0  0  0  0  0
  -21.4180   -3.8250   26.0180 F   0  0  0  0  0  0  0  0  0  0  0  0
  -22.8920  -13.5690   21.2420 C   0  0  0  0  0  0  0  0  0  0  0  0
  -22.2220  -12.8510   22.1370 N   0  0  0  0  0  0  0  0  0  0  0  0
  -22.4260  -14.6120   20.7850 O   0  0  0  0  0  0  0  0  0  0  0  0
  -22.6150  -12.0100   22.5350 H   0  0  0  0  0  0  0  0  0  0  0  0
  -21.3050  -13.1500   22.4350 H   0  0  0  0  0  0  0  0  0  0  0  0
  -25.4560  -15.2540   20.3000 N   0  0  0  0  0  0  0  0  0  0  0  0
  -24.7020  -15.9040   20.4950 H   0  0  0  0  0  0  0  0  0  0  0  0
  -26.2820  -15.7120   19.9350 H   0  0  0  0  0  0  0  0  0  0  0  0
  -28.0670  -24.6220   20.5370 C   0  0  0  0  0  2  0  0  0  0  0  0
  -28.3590  -26.1460   20.3160 O   0  0  0  0  0  0  0  0  0  0  0  0
  -24.6410  -31.8630   23.2000 C   0  0  0  0  0  0  0  0  0  0  0  0
  -27.2930  -27.1220   20.2730 C   0  0  0  0  0  0  0  0  0  0  0  0
  -23.4710  -30.4370   21.5640 C   0  0  0  0  0  3  0  0  0  0  0  0
  -24.9510  -28.8530   20.1830 C   0  0  0  0  0  0  0  0  0  0  0  0
  -26.0250  -30.7190   21.4280 C   0  0  0  0  0  2  0  0  0  0  0  0
  -26.1190  -29.3150   20.8040 C   0  0  0  0  0  0  0  0  0  0  0  0
  -27.2900  -28.4660   20.8330 C   0  0  0  0  0  3  0  0  0  0  0  0
  -26.0990  -26.7690   19.6050 C   0  0  0  0  0  3  0  0  0  0  0  0
  -24.9540  -27.5920   19.5700 C   0  0  0  0  0  3  0  0  0  0  0  0
  -23.7180  -29.7440   20.1970 C   0  0  0  0  0  2  0  0  0  0  0  0
  -24.7310  -31.0300   22.1190 N   0  0  0  0  0  0  0  0  0  0  0  0
  -23.5480  -32.1460   23.7120 O   0  0  0  0  0  0  0  0  0  0  0  0
  -22.7880  -29.4380   22.5320 C   0  0  0  0  0  0  0  0  0  0  0  0
  -21.4580  -29.2780   22.4110 N   0  0  0  0  0  0  0  0  0  0  0  0
  -23.4570  -28.8090   23.3540 O   0  0  0  0  0  0  0  0  0  0  0  0
  -20.9720  -29.8390   21.7250 H   0  0  0  0  0  0  0  0  0  0  0  0
  -18.0660  -28.1200   22.9430 C   0  0  0  0  0  0  0  0  0  0  0  0
  -20.6320  -28.3510   23.1890 C   0  0  0  0  0  3  0  0  0  0  0  0
  -20.7100  -26.9170   22.6140 C   0  0  0  0  0  2  0  0  0  0  0  0
  -19.5950  -26.6080   21.6100 C   0  0  0  0  0  2  0  0  0  0  0  0
  -18.2200  -26.7700   22.2660 C   0  0  0  0  0  2  0  0  0  0  0  0
  -19.1980  -28.8690   23.3640 C   0  0  0  0  0  0  0  0  0  0  0  0
  -18.9980  -30.1300   23.9630 C   0  0  0  0  0  3  0  0  0  0  0  0
  -17.7010  -30.6460   24.1450 C   0  0  0  0  0  3  0  0  0  0  0  0
  -16.5840  -29.8960   23.7380 C   0  0  0  0  0  3  0  0  0  0  0  0
  -16.7680  -28.6340   23.1440 C   0  0  0  0  0  3  0  0  0  0  0  0
  -25.9080  -32.5160   23.8340 C   0  0  0  0  0  3  0  0  0  0  0  0
  -26.4110  -31.7640   25.1270 C   0  0  1  0  0  0  0  0  0  0  0  0
  -25.3070  -31.5350   26.1850 C   0  0  0  0  0  1  0  0  0  0  0  0
  -27.0100  -30.3860   24.7650 C   0  0  0  0  0  1  0  0  0  0  0  0
  -27.5480  -32.5740   25.7950 C   0  0  0  0  0  1  0  0  0  0  0  0
  -25.5810  -33.9160   24.1500 N   0  0  0  0  0  0  0  0  0  0  0  0
  -25.9160  -34.9690   23.3940 C   0  0  0  0  0  0  0  0  0  0  0  0
  -26.6010  -34.8650   22.3720 O   0  0  0  0  0  0  0  0  0  0  0  0
  -24.9770  -34.0690   24.9440 H   0  0  0  0  0  0  0  0  0  0  0  0
  -24.1910  -36.7600   23.0000 C   0  0  0  0  0  1  0  0  0  0  0  0
  -25.4160  -36.3580   23.8380 C   0  0  0  0  0  3  0  0  0  0  0  0
  -27.5290  -37.2540   24.7130 C   0  0  0  0  0  1  0  0  0  0  0  0
  -26.4460  -37.4140   23.7460 N   0  0  0  0  0  0  0  0  0  0  0  0
  -26.0330  -38.3330   23.8810 H   0  0  0  0  0  0  0  0  0  0  0  0
  1  4  1  0
  2  1  2  0
  2  6  1  0
  4  9  1  0
  4  3  2  0
  5  3  1  0
  5 49  1  0
  6  5  2  0
  7  6  1  0
  8  7  1  0
 10 20  1  0
 10  9  2  0
 11 20  1  0
 12 17  1  0
 13 14  1  0
 13 12  1  0
 15 14  1  0
 15 24  1  0
 15 16  1  0
 17 11  1  0
 17 16  1  0
 18 11  2  0
 20 19  1  0
 21 22  2  0
 22 41  1  0
 23 22  1  0
 23 26  1  0
 24 25  1  0
 24 21  1  0
 25 23  2  0
 26 27  1  0
 27 28  2  0
 29 32  1  0
 29 28  1  0
 30 29  2  0
 31 30  1  0
 31 26  2  0
 32 33  1  0
 33 34  1  0
 34 35  2  0
 36 35  1  0
 36 40  1  0
 37 36  2  0
 38 33  2  0
 38 37  1  0
 39 38  1  0
 41 42  1  0
 42 45  1  0
 42 44  1  0
 43 41  2  0
 46 21  1  0
 46 47  1  0
 48 46  1  0
 50 49  1  0
 51 62  2  0
 52 50  1  0
 52 57  1  0
 53 61  1  0
 53 63  1  0
 54 60  1  0
 54 56  1  0
 55 61  1  0
 56 57  2  0
 56 55  1  0
 58 52  2  0
 59 58  1  0
 59 54  2  0
 60 53  1  0
 61 51  1  0
 63 65  2  0
 64 63  1  0
 66 64  1  0
 67 76  2  0
 67 72  1  0
 68 64  1  0
 68 72  1  0
 69 68  1  0
 70 71  1  0
 70 69  1  0
 71 67  1  0
 72 73  2  0
 73 74  1  0
 75 74  2  0
 76 75  1  0
 77 51  1  0
 77 82  1  0
 77 78  1  0
 78 81  1  1
 78 79  1  0
 80 78  1  0
 82 85  1  0
 83 87  1  0
 83 82  1  0
 84 83  2  0
 87 86  1  0
 89 87  1  0
 89 90  1  0
 89 88  1  0
M  ISO  4  11 100  20 100  49 101  50 101
M  END
>  <TORSDO>  (16) 
F 20

>  <SCORE>  (16) 
-14.101

>  <name>  (16) 
15

>  <ligand_id>  (16) 
15

>  <original_smiles>  (16) 
[H]Oc1c([H])c([H])c(C([H])([H])C([H])([H])N(C(=O)N2C([H])([H])C([H])([H])C([H])([H])C([H])(n3nc(-c4c([H])c([H])c(Oc5c([H])c([H])c(F)c([H])c5F)c([H])c4[H])c(C(=O)N([H])[H])c3N([H])[H])C2([H])[H])C([H])([H])[H])c([H])c1C([H])([H])Oc1c([H])c([H])c2c(c1[H])C([H])([H])N(C(=O)C([H])(N([H])C(=O)C([H])(N([H])C([H])([H])[H])C([H])([H])[H])C(C([H])([H])[H])(C([H])([H])[H])C([H])([H])[H])C([H])(C(=O)N([H])C1([H])c3c([H])c([H])c([H])c([H])c3C([H])([H])C([H])([H])C1([H])[H])C2([H])[H]

>  <smiles>  (16) 
[H]Oc1c([H])c([H])c(C([H])([H])C([H])([H])N(C(=O)N2C([H])([H])C([H])([H])C([H])([H])C([H])(n3nc(-c4c([H])c([H])c(Oc5c([H])c([H])c(F)c([H])c5F)c([H])c4[H])c(C(=O)N([H])[H])c3N([H])[H])C2([H])[H])C([H])([H])[H])c([H])c1C([H])([H])Oc1c([H])c([H])c2c(c1[H])C([H])([H])N(C(=O)C([H])(N([H])C(=O)C([H])(N([H])C([H])([H])[H])C([H])([H])[H])C(C([H])([H])[H])(C([H])([H])[H])C([H])([H])[H])C([H])(C(=O)N([H])C1([H])c3c([H])c([H])c([H])c([H])c3C([H])([H])C([H])([H])C1([H])[H])C2([H])[H]

$$$$
16:0:0
     RDKit          3D

 96104  0  0  1  0  0  0  0  0999 V2000
  -31.5580  -21.3510   20.8080 C   0  0  0  0  0  3  0  0  0  0  0  0
  -30.2680  -21.5920   21.3470 C   0  0  0  0  0  3  0  0  0  0  0  0
  -31.6770  -20.7920   19.5000 C   0  0  0  0  0  0  0  0  0  0  0  0
  -29.1970  -21.3210   20.4750 C   0  0  0  0  0  3  0  0  0  0  0  0
  -30.5210  -20.1760   18.9310 C   0  0  0  0  0  0  0  0  0  0  0  0
  -29.4630  -19.9380   19.8320 C   0  0  0  0  0  3  0  0  0  0  0  0
  -32.9900  -20.8450   18.7960 C   0  0  0  0  0  0  0  0  0  0  0  0
  -33.4480  -19.9150   18.1260 O   0  0  0  0  0  0  0  0  0  0  0  0
  -34.1380  -22.7300   17.5160 C   0  0  0  0  0  1  0  0  0  0  0  0
  -33.7750  -22.1570   18.8960 C   0  0  0  0  0  2  0  0  0  0  0  0
  -28.7240  -22.8290   19.7730 C   0  0  0  0  0  2  0  0  0  0  0  0
  -28.1890  -24.3780   20.4620 C   0  0  0  0  0  2  0  0  0  0  0  0
  -28.2910  -25.9470   20.0330 O   0  0  0  0  0  0  0  0  0  0  0  0
  -24.6790  -31.8110   23.0760 C   0  0  0  0  0  0  0  0  0  0  0  0
  -27.2410  -26.9860   20.0610 C   0  0  0  0  0  0  0  0  0  0  0  0
  -23.4820  -30.4130   21.4390 C   0  0  0  0  0  3  0  0  0  0  0  0
  -24.9300  -28.8190   20.0160 C   0  0  0  0  0  0  0  0  0  0  0  0
  -26.0430  -30.6510   21.2760 C   0  0  0  0  0  2  0  0  0  0  0  0
  -26.1170  -29.2440   20.6260 C   0  0  0  0  0  0  0  0  0  0  0  0
  -27.2720  -28.3490   20.6180 C   0  0  0  0  0  3  0  0  0  0  0  0
  -26.0220  -26.6920   19.4170 C   0  0  0  0  0  3  0  0  0  0  0  0
  -24.9020  -27.5610   19.3910 C   0  0  0  0  0  3  0  0  0  0  0  0
  -23.7080  -29.7320   20.0620 C   0  0  0  0  0  2  0  0  0  0  0  0
  -24.7560  -30.9840   21.9850 N   0  0  0  0  0  0  0  0  0  0  0  0
  -23.5910  -32.0940   23.6040 O   0  0  0  0  0  0  0  0  0  0  0  0
  -22.7960  -29.4120   22.4050 C   0  0  0  0  0  0  0  0  0  0  0  0
  -21.4620  -29.2650   22.3010 N   0  0  0  0  0  0  0  0  0  0  0  0
  -23.4690  -28.7690   23.2130 O   0  0  0  0  0  0  0  0  0  0  0  0
  -20.9740  -29.8330   21.6230 H   0  0  0  0  0  0  0  0  0  0  0  0
  -18.0710  -28.1060   22.8640 C   0  0  0  0  0  0  0  0  0  0  0  0
  -20.6400  -28.3290   23.0760 C   0  0  0  0  0  3  0  0  0  0  0  0
  -20.7080  -26.9050   22.4750 C   0  0  0  0  0  2  0  0  0  0  0  0
  -19.5780  -26.6160   21.4810 C   0  0  0  0  0  2  0  0  0  0  0  0
  -18.2120  -26.7680   22.1590 C   0  0  0  0  0  2  0  0  0  0  0  0
  -19.2110  -28.8470   23.2800 C   0  0  0  0  0  0  0  0  0  0  0  0
  -19.0220  -30.1000   23.9030 C   0  0  0  0  0  3  0  0  0  0  0  0
  -17.7280  -30.6120   24.1110 C   0  0  0  0  0  3  0  0  0  0  0  0
  -16.6040  -29.8700   23.7100 C   0  0  0  0  0  3  0  0  0  0  0  0
  -16.7760  -28.6190   23.0920 C   0  0  0  0  0  3  0  0  0  0  0  0
  -25.9510  -32.4540   23.7050 C   0  0  0  0  0  3  0  0  0  0  0  0
  -26.4860  -31.6630   24.9640 C   0  0  1  0  0  0  0  0  0  0  0  0
  -25.4060  -31.3990   26.0400 C   0  0  0  0  0  1  0  0  0  0  0  0
  -27.0740  -30.2960   24.5470 C   0  0  0  0  0  1  0  0  0  0  0  0
  -27.6410  -32.4520   25.6260 C   0  0  0  0  0  1  0  0  0  0  0  0
  -25.6210  -33.8400   24.0800 N   0  0  0  0  0  0  0  0  0  0  0  0
  -25.9350  -34.9240   23.3560 C   0  0  0  0  0  0  0  0  0  0  0  0
  -26.5960  -34.8630   22.3170 O   0  0  0  0  0  0  0  0  0  0  0  0
  -25.0290  -33.9590   24.8880 H   0  0  0  0  0  0  0  0  0  0  0  0
  -24.1810  -36.7110   23.0910 C   0  0  0  0  0  1  0  0  0  0  0  0
  -25.4390  -36.2940   23.8670 C   0  0  0  0  0  3  0  0  0  0  0  0
  -27.5790  -37.1770   24.6880 C   0  0  0  0  0  1  0  0  0  0  0  0
  -26.4590  -37.3620   23.7700 N   0  0  0  0  0  0  0  0  0  0  0  0
  -26.0440  -38.2720   23.9560 H   0  0  0  0  0  0  0  0  0  0  0  0
  -30.3950  -19.7800   17.4660 C   0  0  0  0  0  2  0  0  0  0  0  0
  -30.3650  -20.9980   16.5280 C   0  0  0  0  0  2  0  0  0  0  0  0
  -30.1850  -21.7960   14.1100 C   0  0  0  0  0  1  0  0  0  0  0  0
  -30.3250  -20.5930   15.0470 C   0  0  0  0  0  2  0  0  0  0  0  0
  -29.7690  -18.3830   20.5540 C   0  0  0  0  0  2  0  0  0  0  0  0
  -29.1670  -16.7540   18.5260 C   0  0  0  0  0  1  0  0  0  0  0  0
  -29.5340  -16.6960   20.0140 C   0  0  0  0  0  3  0  0  0  0  0  0
  -30.4280  -15.2060   20.1840 C   0  0  0  0  0  0  0  0  0  0  0  0
  -30.4190  -12.7570   19.3750 C   0  0  0  0  0  2  0  0  0  0  0  0
  -29.4900  -12.5840   18.1450 C   0  0  0  0  0  2  0  0  0  0  0  0
  -28.0320  -12.3440   18.5830 C   0  0  0  0  0  2  0  0  0  0  0  0
  -27.5960  -13.3090   19.7120 C   0  0  0  0  0  3  0  0  0  0  0  0
  -28.6490  -13.4280   20.8300 C   0  0  0  0  0  2  0  0  0  0  0  0
  -29.9000  -13.8910   20.2120 N   0  0  0  0  0  0  0  0  0  0  0  0
  -31.6550  -15.2240   20.0050 O   0  0  0  0  0  0  0  0  0  0  0  0
  -25.2320  -13.8960   20.4730 C   0  0  0  0  0  0  0  0  0  0  0  0
  -24.1650  -13.1310   20.8520 C   0  0  0  0  0  0  0  0  0  0  0  0
  -24.6210  -11.7750   20.8240 C   0  0  0  0  0  0  0  0  0  0  0  0
  -26.2670  -13.0100   20.2290 N   0  0  0  0  0  0  0  0  0  0  0  0
  -25.9110  -11.7300   20.5060 N   0  0  0  0  0  0  0  0  0  0  0  0
  -23.8850  -10.5200   21.0240 C   0  0  0  0  0  0  0  0  0  0  0  0
  -24.3230   -9.5430   21.9470 C   0  0  0  0  0  3  0  0  0  0  0  0
  -23.5850   -8.3550   22.1350 C   0  0  0  0  0  3  0  0  0  0  0  0
  -22.3940   -8.1340   21.4040 C   0  0  0  0  0  0  0  0  0  0  0  0
  -21.9740   -9.0990   20.4720 C   0  0  0  0  0  3  0  0  0  0  0  0
  -22.7120  -10.2790   20.2810 C   0  0  0  0  0  3  0  0  0  0  0  0
  -21.6280   -6.9980   21.5020 O   0  0  0  0  0  0  0  0  0  0  0  0
  -21.6050   -6.2420   22.6460 C   0  0  0  0  0  0  0  0  0  0  0  0
  -21.2540   -6.7930   23.8980 C   0  0  0  0  0  3  0  0  0  0  0  0
  -21.1780   -5.9650   25.0360 C   0  0  0  0  0  3  0  0  0  0  0  0
  -21.4430   -4.5870   24.9230 C   0  0  0  0  0  0  0  0  0  0  0  0
  -21.7890   -4.0350   23.6780 C   0  0  0  0  0  3  0  0  0  0  0  0
  -21.8680   -4.8610   22.5420 C   0  0  0  0  0  0  0  0  0  0  0  0
  -22.1810   -4.3200   21.3390 F   0  0  0  0  0  0  0  0  0  0  0  0
  -21.3640   -3.7900   26.0150 F   0  0  0  0  0  0  0  0  0  0  0  0
  -22.7720  -13.6200   21.1220 C   0  0  0  0  0  0  0  0  0  0  0  0
  -22.0420  -12.9400   21.9990 N   0  0  0  0  0  0  0  0  0  0  0  0
  -22.3410  -14.6420   20.5920 O   0  0  0  0  0  0  0  0  0  0  0  0
  -22.4030  -12.1130   22.4510 H   0  0  0  0  0  0  0  0  0  0  0  0
  -21.1070  -13.2520   22.2220 H   0  0  0  0  0  0  0  0  0  0  0  0
  -25.4070  -15.2650   20.2890 N   0  0  0  0  0  0  0  0  0  0  0  0
  -24.6470  -15.9270   20.4020 H   0  0  0  0  0  0  0  0  0  0  0  0
  -26.2610  -15.6950   19.9550 H   0  0  0  0  0  0  0  0  0  0  0  0
  1  2  2  0
  3  1  1  0
  4 11  1  0
  4  2  1  0
  5  3  2  0
  5  6  1  0
  6  4  1  0
  6 58  1  0
  7 10  1  0
  7  3  1  0
  8  7  2  0
  9 10  1  0
 11 12  1  0
 13 15  1  0
 13 12  1  0
 14 25  2  0
 15 20  1  0
 16 24  1  0
 16 26  1  0
 17 23  1  0
 17 19  1  0
 18 24  1  0
 19 18  1  0
 20 19  2  0
 21 15  2  0
 22 21  1  0
 22 17  2  0
 23 16  1  0
 24 14  1  0
 26 28  2  0
 27 26  1  0
 29 27  1  0
 30 39  2  0
 30 35  1  0
 31 27  1  0
 31 35  1  0
 32 31  1  0
 33 34  1  0
 33 32  1  0
 34 30  1  0
 35 36  2  0
 36 37  1  0
 38 37  2  0
 39 38  1  0
 40 14  1  0
 40 45  1  0
 40 41  1  0
 41 44  1  1
 41 42  1  0
 43 41  1  0
 45 48  1  0
 46 50  1  0
 46 45  1  0
 47 46  2  0
 50 49  1  0
 52 50  1  0
 52 53  1  0
 52 51  1  0
 54  5  1  0
 55 54  1  0
 56 57  1  0
 57 55  1  0
 60 59  1  0
 60 61  1  0
 60 58  1  0
 61 67  1  0
 62 67  1  0
 63 64  1  0
 63 62  1  0
 65 64  1  0
 65 72  1  0
 65 66  1  0
 67 66  1  0
 68 61  2  0
 69 70  2  0
 70 89  1  0
 71 70  1  0
 71 74  1  0
 72 69  1  0
 72 73  1  0
 73 71  2  0
 74 75  1  0
 75 76  2  0
 77 80  1  0
 77 76  1  0
 78 77  2  0
 79 78  1  0
 79 74  2  0
 80 81  1  0
 81 82  1  0
 82 83  2  0
 84 83  1  0
 84 88  1  0
 85 84  2  0
 86 81  2  0
 86 85  1  0
 87 86  1  0
 89 90  1  0
 90 93  1  0
 90 92  1  0
 91 89  2  0
 94 95  1  0
 94 69  1  0
 96 94  1  0
M  ISO  4  12 101  13 101  60 100  61 100
M  END
>  <TORSDO>  (17) 
F 25

>  <SCORE>  (17) 
-13.945

>  <name>  (17) 
16

>  <ligand_id>  (17) 
16

>  <original_smiles>  (17) 
[H]c1c([H])c([H])c2c(c1[H])C([H])([H])C([H])([H])C([H])([H])C2([H])N([H])C(=O)C1([H])N(C(=O)C([H])(N([H])C(=O)C([H])(N([H])C([H])([H])[H])C([H])([H])[H])C(C([H])([H])[H])(C([H])([H])[H])C([H])([H])[H])C([H])([H])c2c([H])c(OC([H])([H])C([H])([H])c3c([H])c([H])c(C(=O)C([H])([H])C([H])([H])[H])c(C([H])([H])C([H])([H])C([H])([H])C([H])([H])[H])c3C([H])([H])C([H])(C(=O)N3C([H])([H])C([H])([H])C([H])([H])C([H])(n4nc(-c5c([H])c([H])c(Oc6c([H])c([H])c(F)c([H])c6F)c([H])c5[H])c(C(=O)N([H])[H])c4N([H])[H])C3([H])[H])C([H])([H])[H])c([H])c([H])c2C1([H])[H]

>  <smiles>  (17) 
[H]c1c([H])c([H])c2c(c1[H])C([H])([H])C([H])([H])C([H])([H])C2([H])N([H])C(=O)C1([H])N(C(=O)C([H])(N([H])C(=O)C([H])(N([H])C([H])([H])[H])C([H])([H])[H])C(C([H])([H])[H])(C([H])([H])[H])C([H])([H])[H])C([H])([H])c2c([H])c(OC([H])([H])C([H])([H])c3c([H])c([H])c(C(=O)C([H])([H])C([H])([H])[H])c(C([H])([H])C([H])([H])C([H])([H])C([H])([H])[H])c3C([H])([H])C([H])(C(=O)N3C([H])([H])C([H])([H])C([H])([H])C([H])(n4nc(-c5c([H])c([H])c(Oc6c([H])c([H])c(F)c([H])c6F)c([H])c5[H])c(C(=O)N([H])[H])c4N([H])[H])C3([H])[H])C([H])([H])[H])c([H])c([H])c2C1([H])[H]

$$$$
17:0:0
     RDKit          3D

 91 99  0  0  1  0  0  0  0  0999 V2000
  -29.1350  -23.1970   20.0790 C   0  0  0  0  0  3  0  0  0  0  0  0
  -27.5330  -21.4460   20.5200 C   0  0  0  0  0  3  0  0  0  0  0  0
  -28.8860  -21.6580   20.2040 C   0  0  0  0  0  0  0  0  0  0  0  0
  -26.9300  -23.8850   20.7440 C   0  0  0  0  0  0  0  0  0  0  0  0
  -28.1770  -24.4170   20.2850 C   0  0  0  0  0  0  0  0  0  0  0  0
  -26.6220  -22.4940   20.7950 C   0  0  0  0  0  0  0  0  0  0  0  0
  -25.3710  -22.1380   21.1870 F   0  0  0  0  0  0  0  0  0  0  0  0
  -25.9240  -24.7120   21.2430 N   0  0  0  0  0  0  0  0  0  0  0  0
  -25.9150  -25.6780   20.9390 H   0  0  0  0  0  0  0  0  0  0  0  0
  -25.0030  -24.2930   21.3140 H   0  0  0  0  0  0  0  0  0  0  0  0
  -28.3510  -25.9730   20.1980 O   0  0  0  0  0  0  0  0  0  0  0  0
  -24.6960  -31.9370   23.2030 C   0  0  0  0  0  0  0  0  0  0  0  0
  -27.3560  -27.1100   20.1430 C   0  0  0  0  0  0  0  0  0  0  0  0
  -23.5460  -30.5510   21.5250 C   0  0  0  0  0  3  0  0  0  0  0  0
  -25.0420  -28.9970   20.0840 C   0  0  0  0  0  0  0  0  0  0  0  0
  -26.1120  -30.7880   21.4270 C   0  0  0  0  0  2  0  0  0  0  0  0
  -26.2110  -29.3870   20.7510 C   0  0  0  0  0  0  0  0  0  0  0  0
  -27.3560  -28.4610   20.7660 C   0  0  0  0  0  3  0  0  0  0  0  0
  -26.1830  -26.9220   19.3730 C   0  0  0  0  0  3  0  0  0  0  0  0
  -25.0570  -27.7860   19.3750 C   0  0  0  0  0  3  0  0  0  0  0  0
  -23.8070  -29.8970   20.1390 C   0  0  0  0  0  2  0  0  0  0  0  0
  -24.8050  -31.1200   22.1060 N   0  0  0  0  0  0  0  0  0  0  0  0
  -23.5960  -32.2010   23.7140 O   0  0  0  0  0  0  0  0  0  0  0  0
  -22.8550  -29.5280   22.4650 C   0  0  0  0  0  0  0  0  0  0  0  0
  -21.5260  -29.3540   22.3300 N   0  0  0  0  0  0  0  0  0  0  0  0
  -23.5200  -28.8930   23.2870 O   0  0  0  0  0  0  0  0  0  0  0  0
  -21.0410  -29.9170   21.6460 H   0  0  0  0  0  0  0  0  0  0  0  0
  -18.1460  -28.1350   22.8410 C   0  0  0  0  0  0  0  0  0  0  0  0
  -20.7100  -28.3900   23.0770 C   0  0  0  0  0  3  0  0  0  0  0  0
  -20.8000  -26.9800   22.4500 C   0  0  0  0  0  2  0  0  0  0  0  0
  -19.6840  -26.6970   21.4390 C   0  0  0  0  0  2  0  0  0  0  0  0
  -18.3120  -26.8160   22.1080 C   0  0  0  0  0  2  0  0  0  0  0  0
  -19.2710  -28.8830   23.2820 C   0  0  0  0  0  0  0  0  0  0  0  0
  -19.0580  -30.1180   23.9330 C   0  0  0  0  0  3  0  0  0  0  0  0
  -17.7550  -30.6070   24.1430 C   0  0  0  0  0  3  0  0  0  0  0  0
  -16.6450  -29.8580   23.7140 C   0  0  0  0  0  3  0  0  0  0  0  0
  -16.8420  -28.6230   23.0700 C   0  0  0  0  0  3  0  0  0  0  0  0
  -25.9480  -32.5910   23.8620 C   0  0  0  0  0  3  0  0  0  0  0  0
  -26.4250  -31.8370   25.1670 C   0  0  1  0  0  0  0  0  0  0  0  0
  -25.2960  -31.6040   26.1990 C   0  0  0  0  0  1  0  0  0  0  0  0
  -27.0310  -30.4580   24.8210 C   0  0  0  0  0  1  0  0  0  0  0  0
  -27.5450  -32.6480   25.8600 C   0  0  0  0  0  1  0  0  0  0  0  0
  -25.6150  -33.9910   24.1820 N   0  0  0  0  0  0  0  0  0  0  0  0
  -25.9400  -35.0500   23.4280 C   0  0  0  0  0  0  0  0  0  0  0  0
  -26.6140  -34.9520   22.4000 O   0  0  0  0  0  0  0  0  0  0  0  0
  -25.0140  -34.1390   24.9790 H   0  0  0  0  0  0  0  0  0  0  0  0
  -24.1880  -36.8270   23.0870 C   0  0  0  0  0  1  0  0  0  0  0  0
  -25.4430  -36.4360   23.8860 C   0  0  0  0  0  3  0  0  0  0  0  0
  -27.5710  -37.3570   24.6960 C   0  0  0  0  0  1  0  0  0  0  0  0
  -26.4620  -37.5020   23.7580 N   0  0  0  0  0  0  0  0  0  0  0  0
  -26.0450  -38.4180   23.8990 H   0  0  0  0  0  0  0  0  0  0  0  0
  -29.8620  -20.1800   20.2870 C   0  0  0  0  0  2  0  0  0  0  0  0
  -29.7580  -18.4780   19.6240 C   0  0  0  0  0  2  0  0  0  0  0  0
  -30.7300  -15.6100   19.8150 C   0  0  0  0  0  0  0  0  0  0  0  0
  -30.6330  -13.1620   18.8900 C   0  0  0  0  0  2  0  0  0  0  0  0
  -29.6380  -12.9770   17.7110 C   0  0  0  0  0  2  0  0  0  0  0  0
  -28.2170  -12.7040   18.2280 C   0  0  0  0  0  2  0  0  0  0  0  0
  -27.8510  -13.6400   19.4060 C   0  0  0  0  0  3  0  0  0  0  0  0
  -28.9680  -13.7330   20.4670 C   0  0  0  0  0  2  0  0  0  0  0  0
  -30.1590  -14.2890   19.7920 N   0  0  0  0  0  0  0  0  0  0  0  0
  -31.8740  -15.6090   19.3300 O   0  0  0  0  0  0  0  0  0  0  0  0
  -29.4050  -16.8640   21.5100 C   0  0  0  0  0  1  0  0  0  0  0  0
  -30.0460  -16.9040   20.1950 N   0  0  0  0  0  0  0  0  0  0  0  0
  -25.5460  -14.2130   20.3280 C   0  0  0  0  0  0  0  0  0  0  0  0
  -24.4950  -13.4450   20.7410 C   0  0  0  0  0  0  0  0  0  0  0  0
  -24.9300  -12.0880   20.6340 C   0  0  0  0  0  0  0  0  0  0  0  0
  -26.5520  -13.3280   19.9860 N   0  0  0  0  0  0  0  0  0  0  0  0
  -26.1970  -12.0400   20.2350 N   0  0  0  0  0  0  0  0  0  0  0  0
  -24.1910  -10.8330   20.8300 C   0  0  0  0  0  0  0  0  0  0  0  0
  -24.5990   -9.8730   21.7820 C   0  0  0  0  0  3  0  0  0  0  0  0
  -23.8570   -8.6870   21.9660 C   0  0  0  0  0  3  0  0  0  0  0  0
  -22.6910   -8.4520   21.2000 C   0  0  0  0  0  0  0  0  0  0  0  0
  -22.3010   -9.4000   20.2380 C   0  0  0  0  0  3  0  0  0  0  0  0
  -23.0430  -10.5770   20.0510 C   0  0  0  0  0  3  0  0  0  0  0  0
  -21.9230   -7.3160   21.2930 O   0  0  0  0  0  0  0  0  0  0  0  0
  -21.7700   -6.6460   22.4800 C   0  0  0  0  0  0  0  0  0  0  0  0
  -21.2400   -7.2740   23.6280 C   0  0  0  0  0  3  0  0  0  0  0  0
  -21.0350   -6.5300   24.8060 C   0  0  0  0  0  3  0  0  0  0  0  0
  -21.3480   -5.1580   24.8370 C   0  0  0  0  0  0  0  0  0  0  0  0
  -21.8710   -4.5290   23.6930 C   0  0  0  0  0  3  0  0  0  0  0  0
  -22.0770   -5.2710   22.5170 C   0  0  0  0  0  0  0  0  0  0  0  0
  -22.5600   -4.6550   21.4110 F   0  0  0  0  0  0  0  0  0  0  0  0
  -21.1450   -4.4410   25.9680 F   0  0  0  0  0  0  0  0  0  0  0  0
  -23.1290  -13.9390   21.1180 C   0  0  0  0  0  0  0  0  0  0  0  0
  -22.4450  -13.2310   22.0100 N   0  0  0  0  0  0  0  0  0  0  0  0
  -22.6810  -14.9880   20.6590 O   0  0  0  0  0  0  0  0  0  0  0  0
  -22.8240  -12.3810   22.4010 H   0  0  0  0  0  0  0  0  0  0  0  0
  -21.5320  -13.5430   22.3050 H   0  0  0  0  0  0  0  0  0  0  0  0
  -25.7250  -15.5870   20.1870 N   0  0  0  0  0  0  0  0  0  0  0  0
  -24.9820  -16.2510   20.3780 H   0  0  0  0  0  0  0  0  0  0  0  0
  -26.5600  -16.0220   19.8180 H   0  0  0  0  0  0  0  0  0  0  0  0
  1  3  2  0
  1  5  1  0
  2  6  2  0
  3 52  1  0
  3  2  1  0
  4  6  1  0
  4  8  1  0
  5  4  2  0
  6  7  1  0
  8 10  1  0
  9  8  1  0
 11  5  1  0
 12 23  2  0
 13 11  1  0
 13 18  1  0
 14 22  1  0
 14 24  1  0
 15 21  1  0
 15 17  1  0
 16 22  1  0
 17 18  2  0
 17 16  1  0
 19 20  1  0
 19 13  2  0
 20 15  2  0
 21 14  1  0
 22 12  1  0
 24 26  2  0
 25 24  1  0
 27 25  1  0
 28 37  2  0
 28 33  1  0
 29 25  1  0
 29 33  1  0
 30 29  1  0
 31 32  1  0
 31 30  1  0
 32 28  1  0
 33 34  2  0
 34 35  1  0
 36 35  2  0
 37 36  1  0
 38 12  1  0
 38 43  1  0
 38 39  1  0
 39 42  1  1
 39 40  1  0
 41 39  1  0
 43 46  1  0
 44 48  1  0
 44 43  1  0
 45 44  2  0
 48 47  1  0
 50 48  1  0
 50 51  1  0
 50 49  1  0
 53 63  1  0
 53 52  1  0
 54 63  1  0
 55 60  1  0
 56 57  1  0
 56 55  1  0
 58 57  1  0
 58 67  1  0
 58 59  1  0
 60 54  1  0
 60 59  1  0
 61 54  2  0
 63 62  1  0
 64 65  2  0
 65 84  1  0
 66 65  1  0
 66 69  1  0
 67 68  1  0
 67 64  1  0
 68 66  2  0
 69 70  1  0
 70 71  2  0
 72 75  1  0
 72 71  1  0
 73 72  2  0
 74 73  1  0
 74 69  2  0
 75 76  1  0
 76 81  2  0
 76 77  1  0
 77 78  2  0
 78 79  1  0
 79 83  1  0
 80 79  2  0
 81 80  1  0
 82 81  1  0
 84 85  1  0
 85 88  1  0
 85 87  1  0
 86 84  2  0
 89 64  1  0
 89 90  1  0
 91 89  1  0
M  ISO  4   5 101  11 101  54 100  63 100
M  END
>  <TORSDO>  (18) 
F 19

>  <SCORE>  (18) 
-13.640

>  <name>  (18) 
17

>  <ligand_id>  (18) 
17

>  <original_smiles>  (18) 
[H]c1c([H])c([H])c2c(c1[H])C([H])([H])C([H])([H])C([H])([H])C2([H])N([H])C(=O)C1([H])N(C(=O)C([H])(N([H])C(=O)C([H])(N([H])C([H])([H])[H])C([H])([H])[H])C(C([H])([H])[H])(C([H])([H])[H])C([H])([H])[H])C([H])([H])c2c([H])c(Oc3c([H])c(C([H])([H])C([H])([H])N(C(=O)N4C([H])([H])C([H])([H])C([H])([H])C([H])(n5nc(-c6c([H])c([H])c(Oc7c([H])c([H])c(F)c([H])c7F)c([H])c6[H])c(C(=O)N([H])[H])c5N([H])[H])C4([H])[H])C([H])([H])[H])c([H])c(F)c3N([H])[H])c([H])c([H])c2C1([H])[H]

>  <smiles>  (18) 
[H]c1c([H])c([H])c2c(c1[H])C([H])([H])C([H])([H])C([H])([H])C2([H])N([H])C(=O)C1([H])N(C(=O)C([H])(N([H])C(=O)C([H])(N([H])C([H])([H])[H])C([H])([H])[H])C(C([H])([H])[H])(C([H])([H])[H])C([H])([H])[H])C([H])([H])c2c([H])c(Oc3c([H])c(C([H])([H])C([H])([H])N(C(=O)N4C([H])([H])C([H])([H])C([H])([H])C([H])(n5nc(-c6c([H])c([H])c(Oc7c([H])c([H])c(F)c([H])c7F)c([H])c6[H])c(C(=O)N([H])[H])c5N([H])[H])C4([H])[H])C([H])([H])[H])c([H])c(F)c3N([H])[H])c([H])c([H])c2C1([H])[H]

$$$$
18:0:0
     RDKit          3D

 91 99  0  0  1  0  0  0  0  0999 V2000
  -29.9060  -23.1530   18.1810 C   0  0  0  0  0  3  0  0  0  0  0  0
  -29.6900  -21.8410   18.6820 C   0  0  0  0  0  0  0  0  0  0  0  0
  -28.9920  -21.5840   19.8960 C   0  0  0  0  0  0  0  0  0  0  0  0
  -28.4130  -22.9400   20.4320 C   0  0  0  0  0  0  0  0  0  0  0  0
  -29.4270  -24.3680   18.7510 C   0  0  0  0  0  0  0  0  0  0  0  0
  -28.5390  -24.3930   19.8580 C   0  0  0  0  0  0  0  0  0  0  0  0
  -30.2340  -20.7040   17.8360 C   0  0  0  0  0  1  0  0  0  0  0  0
  -27.6350  -22.8270   21.7310 C   0  0  0  0  0  1  0  0  0  0  0  0
  -31.2860  -25.7220   18.1070 C   0  0  0  0  0  1  0  0  0  0  0  0
  -29.8630  -25.5710   18.2310 O   0  0  0  0  0  0  0  0  0  0  0  0
  -28.2570  -25.8430   20.3450 O   0  0  0  0  0  0  0  0  0  0  0  0
  -24.6240  -31.8290   23.1600 C   0  0  0  0  0  0  0  0  0  0  0  0
  -27.2230  -26.9160   20.1700 C   0  0  0  0  0  0  0  0  0  0  0  0
  -23.4310  -30.4060   21.5340 C   0  0  0  0  0  3  0  0  0  0  0  0
  -24.8880  -28.7790   20.1190 C   0  0  0  0  0  0  0  0  0  0  0  0
  -25.9890  -30.6340   21.3690 C   0  0  0  0  0  2  0  0  0  0  0  0
  -26.0700  -29.2040   20.7400 C   0  0  0  0  0  0  0  0  0  0  0  0
  -27.2140  -28.2910   20.7430 C   0  0  0  0  0  3  0  0  0  0  0  0
  -26.0050  -26.6460   19.4990 C   0  0  0  0  0  3  0  0  0  0  0  0
  -24.8850  -27.5280   19.4740 C   0  0  0  0  0  3  0  0  0  0  0  0
  -23.6560  -29.6870   20.1690 C   0  0  0  0  0  2  0  0  0  0  0  0
  -24.7060  -30.9840   22.0760 N   0  0  0  0  0  0  0  0  0  0  0  0
  -23.5360  -32.1220   23.6800 O   0  0  0  0  0  0  0  0  0  0  0  0
  -22.7320  -29.4320   22.5200 C   0  0  0  0  0  0  0  0  0  0  0  0
  -21.4000  -29.2830   22.4050 N   0  0  0  0  0  0  0  0  0  0  0  0
  -23.4000  -28.8130   23.3510 O   0  0  0  0  0  0  0  0  0  0  0  0
  -20.9220  -29.8290   21.7030 H   0  0  0  0  0  0  0  0  0  0  0  0
  -18.0170  -28.0760   22.9470 C   0  0  0  0  0  0  0  0  0  0  0  0
  -20.5780  -28.3500   23.1880 C   0  0  0  0  0  3  0  0  0  0  0  0
  -20.6740  -26.9140   22.6220 C   0  0  0  0  0  2  0  0  0  0  0  0
  -19.5670  -26.5850   21.6150 C   0  0  0  0  0  2  0  0  0  0  0  0
  -18.1890  -26.7290   22.2700 C   0  0  0  0  0  2  0  0  0  0  0  0
  -19.1380  -28.8440   23.3650 C   0  0  0  0  0  0  0  0  0  0  0  0
  -18.9230  -30.1050   23.9610 C   0  0  0  0  0  3  0  0  0  0  0  0
  -17.6190  -30.6010   24.1380 C   0  0  0  0  0  3  0  0  0  0  0  0
  -16.5130  -29.8350   23.7350 C   0  0  0  0  0  3  0  0  0  0  0  0
  -16.7120  -28.5740   23.1460 C   0  0  0  0  0  3  0  0  0  0  0  0
  -25.8930  -32.4780   23.7860 C   0  0  0  0  0  3  0  0  0  0  0  0
  -26.4230  -31.7020   25.0560 C   0  0  1  0  0  0  0  0  0  0  0  0
  -25.3410  -31.4540   26.1330 C   0  0  0  0  0  1  0  0  0  0  0  0
  -27.0030  -30.3250   24.6590 C   0  0  0  0  0  1  0  0  0  0  0  0
  -27.5810  -32.4870   25.7140 C   0  0  0  0  0  1  0  0  0  0  0  0
  -25.5710  -33.8740   24.1390 N   0  0  0  0  0  0  0  0  0  0  0  0
  -25.8860  -34.9450   23.3970 C   0  0  0  0  0  0  0  0  0  0  0  0
  -26.5470  -34.8650   22.3580 O   0  0  0  0  0  0  0  0  0  0  0  0
  -24.9790  -34.0090   24.9460 H   0  0  0  0  0  0  0  0  0  0  0  0
  -24.1350  -36.7300   23.0990 C   0  0  0  0  0  1  0  0  0  0  0  0
  -25.3940  -36.3250   23.8830 C   0  0  0  0  0  3  0  0  0  0  0  0
  -27.5360  -37.2070   24.6950 C   0  0  0  0  0  1  0  0  0  0  0  0
  -26.4180  -37.3860   23.7730 N   0  0  0  0  0  0  0  0  0  0  0  0
  -26.0100  -38.3000   23.9500 H   0  0  0  0  0  0  0  0  0  0  0  0
  -28.9230  -19.8860   20.4550 C   0  0  0  0  0  3  0  0  0  0  0  0
  -29.7210  -18.2920   19.9570 C   0  0  0  0  0  3  0  0  0  0  0  0
  -30.3290  -15.3540   20.2400 C   0  0  0  0  0  0  0  0  0  0  0  0
  -30.3490  -12.8910   19.3690 C   0  0  0  0  0  2  0  0  0  0  0  0
  -29.4220  -12.6040   18.1560 C   0  0  0  0  0  2  0  0  0  0  0  0
  -27.9780  -12.3280   18.6100 C   0  0  0  0  0  2  0  0  0  0  0  0
  -27.5190  -13.3160   19.7110 C   0  0  0  0  0  3  0  0  0  0  0  0
  -28.5700  -13.4810   20.8300 C   0  0  0  0  0  2  0  0  0  0  0  0
  -29.7820  -14.0300   20.1940 N   0  0  0  0  0  0  0  0  0  0  0  0
  -31.5450  -15.3470   19.9970 O   0  0  0  0  0  0  0  0  0  0  0  0
  -29.5600  -16.6430   20.3470 N   0  0  0  0  0  0  0  0  0  0  0  0
  -28.6020  -16.4230   20.5830 H   0  0  0  0  0  0  0  0  0  0  0  0
  -25.1510  -13.8790   20.4760 C   0  0  0  0  0  0  0  0  0  0  0  0
  -24.0910  -13.1040   20.8530 C   0  0  0  0  0  0  0  0  0  0  0  0
  -24.5600  -11.7530   20.8290 C   0  0  0  0  0  0  0  0  0  0  0  0
  -26.1950  -13.0020   20.2320 N   0  0  0  0  0  0  0  0  0  0  0  0
  -25.8500  -11.7180   20.5170 N   0  0  0  0  0  0  0  0  0  0  0  0
  -23.8360  -10.4910   21.0290 C   0  0  0  0  0  0  0  0  0  0  0  0
  -24.2750   -9.5200   21.9560 C   0  0  0  0  0  3  0  0  0  0  0  0
  -23.5460   -8.3270   22.1420 C   0  0  0  0  0  3  0  0  0  0  0  0
  -22.3630   -8.0940   21.3990 C   0  0  0  0  0  0  0  0  0  0  0  0
  -21.9460   -9.0500   20.4580 C   0  0  0  0  0  3  0  0  0  0  0  0
  -22.6760  -10.2360   20.2690 C   0  0  0  0  0  3  0  0  0  0  0  0
  -21.6050   -6.9530   21.4990 O   0  0  0  0  0  0  0  0  0  0  0  0
  -21.5790   -6.2020   22.6470 C   0  0  0  0  0  0  0  0  0  0  0  0
  -21.1980   -6.7520   23.8900 C   0  0  0  0  0  3  0  0  0  0  0  0
  -21.1140   -5.9290   25.0290 C   0  0  0  0  0  3  0  0  0  0  0  0
  -21.4100   -4.5560   24.9300 C   0  0  0  0  0  0  0  0  0  0  0  0
  -21.7850   -4.0040   23.6930 C   0  0  0  0  0  3  0  0  0  0  0  0
  -21.8680   -4.8260   22.5540 C   0  0  0  0  0  0  0  0  0  0  0  0
  -22.2120   -4.2840   21.3610 F   0  0  0  0  0  0  0  0  0  0  0  0
  -21.3230   -3.7620   26.0220 F   0  0  0  0  0  0  0  0  0  0  0  0
  -22.6920  -13.5810   21.1110 C   0  0  0  0  0  0  0  0  0  0  0  0
  -21.9580  -12.8910   21.9790 N   0  0  0  0  0  0  0  0  0  0  0  0
  -22.2570  -14.5990   20.5770 O   0  0  0  0  0  0  0  0  0  0  0  0
  -22.3250  -12.0710   22.4380 H   0  0  0  0  0  0  0  0  0  0  0  0
  -21.0140  -13.1890   22.1830 H   0  0  0  0  0  0  0  0  0  0  0  0
  -25.3070  -15.2490   20.2920 N   0  0  0  0  0  0  0  0  0  0  0  0
  -24.5370  -15.8980   20.4150 H   0  0  0  0  0  0  0  0  0  0  0  0
  -26.1370  -15.6860   19.9110 H   0  0  0  0  0  0  0  0  0  0  0  0
  1  2  2  0
  1  5  1  0
  2  3  1  0
  3  4  2  0
  3 52  1  0
  4  8  1  0
  5  6  2  0
  6 11  1  0
  6  4  1  0
  7  2  1  0
  9 10  1  0
 10  5  1  0
 12 23  2  0
 13 11  1  0
 13 18  1  0
 14 22  1  0
 14 24  1  0
 15 21  1  0
 15 17  1  0
 16 22  1  0
 17 18  2  0
 17 16  1  0
 19 13  2  0
 20 19  1  0
 20 15  2  0
 21 14  1  0
 22 12  1  0
 24 26  2  0
 25 24  1  0
 27 25  1  0
 28 37  2  0
 28 33  1  0
 29 25  1  0
 29 33  1  0
 30 29  1  0
 31 32  1  0
 31 30  1  0
 32 28  1  0
 33 34  2  0
 34 35  1  0
 36 35  2  0
 37 36  1  0
 38 12  1  0
 38 43  1  0
 38 39  1  0
 39 42  1  1
 39 40  1  0
 41 39  1  0
 43 46  1  0
 44 48  1  0
 44 43  1  0
 45 44  2  0
 48 47  1  0
 50 48  1  0
 50 51  1  0
 50 49  1  0
 53 62  1  0
 53 52  2  0
 54 62  1  0
 55 60  1  0
 56 57  1  0
 56 55  1  0
 58 57  1  0
 58 67  1  0
 58 59  1  0
 60 54  1  0
 60 59  1  0
 61 54  2  0
 62 63  1  0
 64 65  2  0
 65 84  1  0
 66 65  1  0
 66 69  1  0
 67 64  1  0
 67 68  1  0
 68 66  2  0
 69 70  1  0
 70 71  2  0
 72 75  1  0
 72 71  1  0
 73 72  2  0
 74 73  1  0
 74 69  2  0
 75 76  1  0
 76 77  1  0
 77 78  2  0
 79 78  1  0
 79 83  1  0
 80 79  2  0
 81 76  2  0
 81 80  1  0
 82 81  1  0
 84 85  1  0
 85 88  1  0
 85 87  1  0
 86 84  2  0
 89 90  1  0
 89 64  1  0
 91 89  1  0
M  ISO  4   6 101  11 101  54 100  62 100
M  END
>  <TORSDO>  (19) 
F 19

>  <SCORE>  (19) 
-15.305

>  <name>  (19) 
18

>  <ligand_id>  (19) 
18

>  <original_smiles>  (19) 
[H]c1c([H])c([H])c2c(c1[H])C([H])([H])C([H])([H])C([H])([H])C2([H])N([H])C(=O)C1([H])N(C(=O)C([H])(N([H])C(=O)C([H])(N([H])C([H])([H])[H])C([H])([H])[H])C(C([H])([H])[H])(C([H])([H])[H])C([H])([H])[H])C([H])([H])c2c([H])c(Oc3c(OC([H])([H])[H])c([H])c(C([H])([H])[H])c(C([H])([H])C([H])([H])N([H])C(=O)N4C([H])([H])C([H])([H])C([H])([H])C([H])(n5nc(-c6c([H])c([H])c(Oc7c([H])c([H])c(F)c([H])c7F)c([H])c6[H])c(C(=O)N([H])[H])c5N([H])[H])C4([H])[H])c3C([H])([H])[H])c([H])c([H])c2C1([H])[H]

>  <smiles>  (19) 
[H]c1c([H])c([H])c2c(c1[H])C([H])([H])C([H])([H])C([H])([H])C2([H])N([H])C(=O)C1([H])N(C(=O)C([H])(N([H])C(=O)C([H])(N([H])C([H])([H])[H])C([H])([H])[H])C(C([H])([H])[H])(C([H])([H])[H])C([H])([H])[H])C([H])([H])c2c([H])c(Oc3c(OC([H])([H])[H])c([H])c(C([H])([H])[H])c(C([H])([H])C([H])([H])N([H])C(=O)N4C([H])([H])C([H])([H])C([H])([H])C([H])(n5nc(-c6c([H])c([H])c(Oc7c([H])c([H])c(F)c([H])c7F)c([H])c6[H])c(C(=O)N([H])[H])c5N([H])[H])C4([H])[H])c3C([H])([H])[H])c([H])c([H])c2C1([H])[H]

$$$$
19:0:0
     RDKit          3D

 94102  0  0  1  0  0  0  0  0999 V2000
  -29.8830  -21.7740   19.5210 C   0  0  0  0  0  3  0  0  0  0  0  0
  -30.0670  -17.5940   19.0660 C   0  0  0  0  0  3  0  0  0  0  0  0
  -29.7950  -19.0210   18.8480 C   0  0  0  0  0  3  0  0  0  0  0  0
  -30.1580  -19.4120   21.1040 C   0  0  0  0  0  3  0  0  0  0  0  0
  -30.4570  -16.9310   20.3020 C   0  0  0  0  0  0  0  0  0  0  0  0
  -30.4550  -17.9730   21.3470 C   0  0  0  0  0  0  0  0  0  0  0  0
  -29.8390  -20.0790   19.8400 C   0  0  0  0  0  0  0  0  0  0  0  0
  -31.0830  -15.3890   20.3050 C   0  0  0  0  0  0  0  0  0  0  0  0
  -30.9690  -12.9670   19.4950 C   0  0  0  0  0  2  0  0  0  0  0  0
  -30.0650  -12.8710   18.2430 C   0  0  0  0  0  2  0  0  0  0  0  0
  -28.6140  -12.6040   18.6710 C   0  0  0  0  0  2  0  0  0  0  0  0
  -28.1790  -13.5520   19.8210 C   0  0  0  0  0  3  0  0  0  0  0  0
  -29.2200  -13.6610   20.9550 C   0  0  0  0  0  2  0  0  0  0  0  0
  -30.4760  -14.1090   20.3400 N   0  0  0  0  0  0  0  0  0  0  0  0
  -32.2950  -15.3300   20.0460 O   0  0  0  0  0  0  0  0  0  0  0  0
  -25.8390  -14.0940   20.6570 C   0  0  0  0  0  0  0  0  0  0  0  0
  -24.7800  -13.3040   21.0180 C   0  0  0  0  0  0  0  0  0  0  0  0
  -25.2430  -11.9570   20.9140 C   0  0  0  0  0  0  0  0  0  0  0  0
  -26.8650  -13.2200   20.3410 N   0  0  0  0  0  0  0  0  0  0  0  0
  -26.5260  -11.9320   20.5760 N   0  0  0  0  0  0  0  0  0  0  0  0
  -24.5190  -10.6870   21.0590 C   0  0  0  0  0  0  0  0  0  0  0  0
  -24.7610   -9.8110   22.1420 C   0  0  0  0  0  3  0  0  0  0  0  0
  -24.0280   -8.6090   22.2650 C   0  0  0  0  0  3  0  0  0  0  0  0
  -23.0440   -8.2760   21.3060 C   0  0  0  0  0  0  0  0  0  0  0  0
  -22.8260   -9.1390   20.2200 C   0  0  0  0  0  3  0  0  0  0  0  0
  -23.5560  -10.3330   20.0930 C   0  0  0  0  0  3  0  0  0  0  0  0
  -22.2970   -7.1220   21.3320 O   0  0  0  0  0  0  0  0  0  0  0  0
  -21.7860   -6.6240   22.5010 C   0  0  0  0  0  0  0  0  0  0  0  0
  -20.9360   -7.3900   23.3280 C   0  0  0  0  0  3  0  0  0  0  0  0
  -20.3730   -6.8150   24.4850 C   0  0  0  0  0  3  0  0  0  0  0  0
  -20.6510   -5.4730   24.8130 C   0  0  0  0  0  0  0  0  0  0  0  0
  -21.4920   -4.7080   23.9860 C   0  0  0  0  0  3  0  0  0  0  0  0
  -22.0570   -5.2820   22.8340 C   0  0  0  0  0  0  0  0  0  0  0  0
  -22.8490   -4.5330   22.0310 F   0  0  0  0  0  0  0  0  0  0  0  0
  -20.1080   -4.9180   25.9230 F   0  0  0  0  0  0  0  0  0  0  0  0
  -23.3980  -13.7780   21.3370 C   0  0  0  0  0  0  0  0  0  0  0  0
  -22.6790  -13.0380   22.1800 N   0  0  0  0  0  0  0  0  0  0  0  0
  -22.9620  -14.8340   20.8870 O   0  0  0  0  0  0  0  0  0  0  0  0
  -23.0520  -12.1880   22.5660 H   0  0  0  0  0  0  0  0  0  0  0  0
  -21.7510  -13.3360   22.4420 H   0  0  0  0  0  0  0  0  0  0  0  0
  -26.0130  -15.4650   20.5430 N   0  0  0  0  0  0  0  0  0  0  0  0
  -25.2630  -16.1270   20.7230 H   0  0  0  0  0  0  0  0  0  0  0  0
  -26.8540  -15.9110   20.1960 H   0  0  0  0  0  0  0  0  0  0  0  0
  -30.9340  -17.6020   22.7230 C   0  0  0  0  0  0  0  0  0  0  0  0
  -31.5410  -16.5540   22.9500 O   0  0  0  0  0  0  0  0  0  0  0  0
  -30.0880  -17.7800   25.1310 C   0  0  0  0  0  1  0  0  0  0  0  0
  -30.6710  -18.5420   23.9190 C   0  0  0  0  0  2  0  0  0  0  0  0
  -30.8380  -22.0270   18.3990 N   0  0  0  0  0  4  0  0  0  0  0  0
  -30.5660  -21.5990   17.5310 H   0  0  0  0  0  0  0  0  0  0  0  0
  -31.7700  -21.7180   18.6140 H   0  0  0  0  0  0  0  0  0  0  0  0
  -30.9190  -23.0110   18.2140 H   0  0  0  0  0  0  0  0  0  0  0  0
  -28.6380  -22.9880   19.4130 C   0  0  0  0  0  2  0  0  0  0  0  0
  -28.5710  -24.6310   20.0350 C   0  0  0  0  0  2  0  0  0  0  0  0
  -28.4990  -26.1400   19.4860 O   0  0  0  0  0  0  0  0  0  0  0  0
  -24.6230  -31.6160   22.9090 C   0  0  0  0  0  0  0  0  0  0  0  0
  -27.3810  -27.0820   19.6280 C   0  0  0  0  0  0  0  0  0  0  0  0
  -23.4640  -30.1910   21.2770 C   0  0  0  0  0  3  0  0  0  0  0  0
  -24.9550  -28.7290   19.7740 C   0  0  0  0  0  0  0  0  0  0  0  0
  -26.0000  -30.6040   21.0300 C   0  0  0  0  0  2  0  0  0  0  0  0
  -26.1390  -29.2210   20.3400 C   0  0  0  0  0  0  0  0  0  0  0  0
  -27.3500  -28.4200   20.2380 C   0  0  0  0  0  3  0  0  0  0  0  0
  -26.1580  -26.7100   19.0440 C   0  0  0  0  0  3  0  0  0  0  0  0
  -24.9790  -27.4900   19.1160 C   0  0  0  0  0  3  0  0  0  0  0  0
  -23.6840  -29.5590   19.8810 C   0  0  0  0  0  2  0  0  0  0  0  0
  -24.7200  -30.8240   21.7940 N   0  0  0  0  0  0  0  0  0  0  0  0
  -23.5370  -31.8090   23.4820 O   0  0  0  0  0  0  0  0  0  0  0  0
  -22.8830  -29.1210   22.2360 C   0  0  0  0  0  0  0  0  0  0  0  0
  -21.5650  -28.8660   22.1540 N   0  0  0  0  0  0  0  0  0  0  0  0
  -23.6250  -28.5240   23.0210 O   0  0  0  0  0  0  0  0  0  0  0  0
  -21.0160  -29.4100   21.5050 H   0  0  0  0  0  0  0  0  0  0  0  0
  -18.3010  -27.3890   22.7710 C   0  0  0  0  0  0  0  0  0  0  0  0
  -20.8430  -27.8500   22.9240 C   0  0  0  0  0  3  0  0  0  0  0  0
  -21.0270  -26.4470   22.2990 C   0  0  0  0  0  2  0  0  0  0  0  0
  -19.9020  -26.0560   21.3340 C   0  0  0  0  0  2  0  0  0  0  0  0
  -18.5530  -26.0690   22.0590 C   0  0  0  0  0  2  0  0  0  0  0  0
  -19.3750  -28.2290   23.1640 C   0  0  0  0  0  0  0  0  0  0  0  0
  -19.0880  -29.4580   23.7950 C   0  0  0  0  0  3  0  0  0  0  0  0
  -17.7560  -29.8520   24.0350 C   0  0  0  0  0  3  0  0  0  0  0  0
  -16.6960  -29.0110   23.6530 C   0  0  0  0  0  3  0  0  0  0  0  0
  -16.9710  -27.7820   23.0270 C   0  0  0  0  0  3  0  0  0  0  0  0
  -25.8690  -32.3330   23.5100 C   0  0  0  0  0  3  0  0  0  0  0  0
  -25.4450  -33.6570   23.9920 N   0  0  0  0  0  0  0  0  0  0  0  0
  -25.6360  -34.8080   23.3320 C   0  0  0  0  0  0  0  0  0  0  0  0
  -26.2500  -34.8660   22.2610 O   0  0  0  0  0  0  0  0  0  0  0  0
  -24.9020  -33.6750   24.8450 H   0  0  0  0  0  0  0  0  0  0  0  0
  -23.7140  -36.4350   23.2860 C   0  0  0  0  0  1  0  0  0  0  0  0
  -25.0580  -36.0980   23.9540 C   0  0  0  0  0  3  0  0  0  0  0  0
  -27.1570  -37.1420   24.6830 C   0  0  0  0  0  1  0  0  0  0  0  0
  -25.9650  -37.2610   23.8490 N   0  0  0  0  0  0  0  0  0  0  0  0
  -25.4850  -38.1160   24.1080 H   0  0  0  0  0  0  0  0  0  0  0  0
  -26.5450  -31.5180   24.6830 C   0  0  1  0  0  0  0  0  0  0  0  0
  -25.5660  -31.0990   25.8050 C   0  0  0  0  0  1  0  0  0  0  0  0
  -27.2140  -30.2320   24.1490 C   0  0  0  0  0  1  0  0  0  0  0  0
  -27.6720  -32.3570   25.3260 C   0  0  0  0  0  1  0  0  0  0  0  0
  1 52  1  0
  1  7  1  0
  2  5  1  0
  3  2  2  0
  3  7  1  0
  4  6  1  0
  5  8  1  0
  5  6  2  0
  6 44  1  0
  7  4  2  0
  8 14  1  0
  9 14  1  0
 10 11  1  0
 10  9  1  0
 12 11  1  0
 12 19  1  0
 12 13  1  0
 14 13  1  0
 15  8  2  0
 16 17  2  0
 17 36  1  0
 18 17  1  0
 18 21  1  0
 19 20  1  0
 19 16  1  0
 20 18  2  0
 21 22  1  0
 22 23  2  0
 24 27  1  0
 24 23  1  0
 25 24  2  0
 26 25  1  0
 26 21  2  0
 27 28  1  0
 28 33  2  0
 28 29  1  0
 29 30  2  0
 30 31  1  0
 31 35  1  0
 32 31  2  0
 33 32  1  0
 34 33  1  0
 36 37  1  0
 37 40  1  0
 37 39  1  0
 38 36  2  0
 41 16  1  0
 41 42  1  0
 43 41  1  0
 44 45  2  0
 44 47  1  0
 47 46  1  0
 48 50  1  0
 48  1  1  0
 49 48  1  0
 51 48  1  0
 52 53  1  0
 54 56  1  0
 54 53  1  0
 55 66  2  0
 56 61  1  0
 57 65  1  0
 57 67  1  0
 58 64  1  0
 58 60  1  0
 59 65  1  0
 60 59  1  0
 61 60  2  0
 62 63  1  0
 62 56  2  0
 63 58  2  0
 64 57  1  0
 65 55  1  0
 67 69  2  0
 68 67  1  0
 70 68  1  0
 71 80  2  0
 71 76  1  0
 72 68  1  0
 72 76  1  0
 73 72  1  0
 74 75  1  0
 74 73  1  0
 75 71  1  0
 76 77  2  0
 77 78  1  0
 79 78  2  0
 80 79  1  0
 81 55  1  0
 81 82  1  0
 81 91  1  0
 82 85  1  0
 83 87  1  0
 83 82  1  0
 84 83  2  0
 87 86  1  0
 89 87  1  0
 89 90  1  0
 89 88  1  0
 91 94  1  1
 91 92  1  0
 93 91  1  0
M  ISO  4   5 100   8 100  53 101  54 101
M  END
>  <TORSDO>  (20) 
F 22

>  <SCORE>  (20) 
-8.451

>  <name>  (20) 
19

>  <ligand_id>  (20) 
19

>  <original_smiles>  (20) 
[H]c1c([H])c([H])c2c(c1[H])C([H])([H])C([H])([H])C([H])([H])C2([H])N([H])C(=O)C1([H])N(C(=O)C([H])(N([H])C(=O)C([H])(N([H])C([H])([H])[H])C([H])([H])[H])C(C([H])([H])[H])(C([H])([H])[H])C([H])([H])[H])C([H])([H])c2c([H])c(OC([H])([H])C([H])([H])C([H])(c3c([H])c([H])c(C(=O)N4C([H])([H])C([H])([H])C([H])([H])C([H])(n5nc(-c6c([H])c([H])c(Oc7c([H])c([H])c(F)c([H])c7F)c([H])c6[H])c(C(=O)N([H])[H])c5N([H])[H])C4([H])[H])c(C(=O)C([H])([H])C([H])([H])[H])c3[H])[N+]([H])([H])[H])c([H])c([H])c2C1([H])[H]

>  <smiles>  (20) 
[H]c1c([H])c([H])c2c(c1[H])C([H])([H])C([H])([H])C([H])([H])C2([H])N([H])C(=O)C1([H])N(C(=O)C([H])(N([H])C(=O)C([H])(N([H])C([H])([H])[H])C([H])([H])[H])C(C([H])([H])[H])(C([H])([H])[H])C([H])([H])[H])C([H])([H])c2c([H])c(OC([H])([H])C([H])([H])C([H])(c3c([H])c([H])c(C(=O)N4C([H])([H])C([H])([H])C([H])([H])C([H])(n5nc(-c6c([H])c([H])c(Oc7c([H])c([H])c(F)c([H])c7F)c([H])c6[H])c(C(=O)N([H])[H])c5N([H])[H])C4([H])[H])c(C(=O)C([H])([H])C([H])([H])[H])c3[H])[N+]([H])([H])[H])c([H])c([H])c2C1([H])[H]

$$$$
20:0:0
     RDKit          3D

 90 98  0  0  1  0  0  0  0  0999 V2000
  -27.4110  -22.6280   20.7810 C   0  0  0  0  0  3  0  0  0  0  0  0
  -27.3010  -24.0670   20.7000 C   0  0  0  0  0  3  0  0  0  0  0  0
  -29.6190  -22.6990   19.9430 C   0  0  0  0  0  3  0  0  0  0  0  0
  -28.5640  -21.8570   20.4160 C   0  0  0  0  0  0  0  0  0  0  0  0
  -29.5140  -24.1500   19.8590 C   0  0  0  0  0  0  0  0  0  0  0  0
  -28.3460  -24.9160   20.2260 C   0  0  0  0  0  0  0  0  0  0  0  0
  -30.7260  -24.9220   19.3730 C   0  0  0  0  0  1  0  0  0  0  0  0
  -28.3340  -26.3750   20.1720 O   0  0  0  0  0  0  0  0  0  0  0  0
  -24.6470  -31.9170   23.2370 C   0  0  0  0  0  0  0  0  0  0  0  0
  -27.2150  -27.2630   20.1760 C   0  0  0  0  0  0  0  0  0  0  0  0
  -23.4330  -30.5260   21.5990 C   0  0  0  0  0  3  0  0  0  0  0  0
  -24.8710  -28.9570   20.1640 C   0  0  0  0  0  0  0  0  0  0  0  0
  -25.9780  -30.8090   21.4130 C   0  0  0  0  0  2  0  0  0  0  0  0
  -26.0480  -29.4200   20.7660 C   0  0  0  0  0  0  0  0  0  0  0  0
  -27.2180  -28.5850   20.7610 C   0  0  0  0  0  3  0  0  0  0  0  0
  -26.0190  -26.8840   19.5310 C   0  0  0  0  0  3  0  0  0  0  0  0
  -24.8650  -27.6980   19.5350 C   0  0  0  0  0  3  0  0  0  0  0  0
  -23.6420  -29.8480   20.2170 C   0  0  0  0  0  2  0  0  0  0  0  0
  -24.7050  -31.1050   22.1390 N   0  0  0  0  0  0  0  0  0  0  0  0
  -23.5650  -32.1980   23.7770 O   0  0  0  0  0  0  0  0  0  0  0  0
  -22.7660  -29.5140   22.5640 C   0  0  0  0  0  0  0  0  0  0  0  0
  -21.4380  -29.3400   22.4420 N   0  0  0  0  0  0  0  0  0  0  0  0
  -23.4440  -28.8890   23.3830 O   0  0  0  0  0  0  0  0  0  0  0  0
  -20.9480  -29.8960   21.7550 H   0  0  0  0  0  0  0  0  0  0  0  0
  -18.0640  -28.1310   22.9510 C   0  0  0  0  0  0  0  0  0  0  0  0
  -20.6220  -28.4010   23.2140 C   0  0  0  0  0  3  0  0  0  0  0  0
  -20.7270  -26.9690   22.6400 C   0  0  0  0  0  2  0  0  0  0  0  0
  -19.6240  -26.6420   21.6280 C   0  0  0  0  0  2  0  0  0  0  0  0
  -18.2440  -26.7830   22.2750 C   0  0  0  0  0  2  0  0  0  0  0  0
  -19.1810  -28.8980   23.3780 C   0  0  0  0  0  0  0  0  0  0  0  0
  -18.9580  -30.1580   23.9730 C   0  0  0  0  0  3  0  0  0  0  0  0
  -17.6520  -30.6540   24.1420 C   0  0  0  0  0  3  0  0  0  0  0  0
  -16.5490  -29.8850   23.7300 C   0  0  0  0  0  3  0  0  0  0  0  0
  -16.7560  -28.6250   23.1410 C   0  0  0  0  0  3  0  0  0  0  0  0
  -25.9310  -32.5480   23.8560 C   0  0  0  0  0  3  0  0  0  0  0  0
  -26.4540  -31.7710   25.1270 C   0  0  1  0  0  0  0  0  0  0  0  0
  -25.3670  -31.5310   26.2000 C   0  0  0  0  0  1  0  0  0  0  0  0
  -27.0350  -30.3940   24.7300 C   0  0  0  0  0  1  0  0  0  0  0  0
  -27.6100  -32.5620   25.7850 C   0  0  0  0  0  1  0  0  0  0  0  0
  -25.6220  -33.9450   24.2000 N   0  0  0  0  0  0  0  0  0  0  0  0
  -25.9380  -35.0060   23.4440 C   0  0  0  0  0  0  0  0  0  0  0  0
  -26.5870  -34.9110   22.3990 O   0  0  0  0  0  0  0  0  0  0  0  0
  -25.0420  -34.0910   25.0120 H   0  0  0  0  0  0  0  0  0  0  0  0
  -24.1950  -36.7970   23.1460 C   0  0  0  0  0  1  0  0  0  0  0  0
  -25.4580  -36.3910   23.9220 C   0  0  0  0  0  3  0  0  0  0  0  0
  -27.6100  -37.2810   24.7040 C   0  0  0  0  0  1  0  0  0  0  0  0
  -26.4840  -37.4480   23.7880 N   0  0  0  0  0  0  0  0  0  0  0  0
  -26.0780  -38.3660   23.9480 H   0  0  0  0  0  0  0  0  0  0  0  0
  -28.5320  -20.2350   20.6330 C   0  0  0  0  0  3  0  0  0  0  0  0
  -29.5610  -18.9910   20.2100 C   0  0  0  0  0  3  0  0  0  0  0  0
  -29.5810  -16.1190   20.4200 C   0  0  0  0  0  0  0  0  0  0  0  0
  -29.1180  -17.4510   20.5460 C   0  0  0  0  0  0  0  0  0  0  0  0
  -30.5220  -14.9410   20.0700 C   0  0  0  0  0  0  0  0  0  0  0  0
  -30.3950  -12.6090   19.1150 C   0  0  0  0  0  2  0  0  0  0  0  0
  -29.4120  -12.6220   17.9200 C   0  0  0  0  0  2  0  0  0  0  0  0
  -27.9590  -12.4210   18.3950 C   0  0  0  0  0  2  0  0  0  0  0  0
  -27.6070  -13.3120   19.6160 C   0  0  0  0  0  3  0  0  0  0  0  0
  -28.7030  -13.2630   20.6970 C   0  0  0  0  0  2  0  0  0  0  0  0
  -29.9660  -13.6690   20.0660 N   0  0  0  0  0  0  0  0  0  0  0  0
  -31.7010  -15.0360   19.6930 O   0  0  0  0  0  0  0  0  0  0  0  0
  -25.2590  -13.8780   20.4680 C   0  0  0  0  0  0  0  0  0  0  0  0
  -24.2080  -13.0940   20.8610 C   0  0  0  0  0  0  0  0  0  0  0  0
  -24.6690  -11.7440   20.7770 C   0  0  0  0  0  0  0  0  0  0  0  0
  -26.2890  -13.0050   20.1600 N   0  0  0  0  0  0  0  0  0  0  0  0
  -25.9460  -11.7150   20.4110 N   0  0  0  0  0  0  0  0  0  0  0  0
  -23.9500  -10.4780   20.9680 C   0  0  0  0  0  0  0  0  0  0  0  0
  -24.3840   -9.5150   21.9060 C   0  0  0  0  0  3  0  0  0  0  0  0
  -23.6660   -8.3150   22.0850 C   0  0  0  0  0  3  0  0  0  0  0  0
  -22.4970   -8.0670   21.3260 C   0  0  0  0  0  0  0  0  0  0  0  0
  -22.0810   -9.0170   20.3770 C   0  0  0  0  0  3  0  0  0  0  0  0
  -22.8010  -10.2100   20.1970 C   0  0  0  0  0  3  0  0  0  0  0  0
  -21.7490   -6.9170   21.4120 O   0  0  0  0  0  0  0  0  0  0  0  0
  -21.6490   -6.2100   22.5840 C   0  0  0  0  0  0  0  0  0  0  0  0
  -21.1510   -6.7960   23.7680 C   0  0  0  0  0  3  0  0  0  0  0  0
  -21.0010   -6.0140   24.9300 C   0  0  0  0  0  3  0  0  0  0  0  0
  -21.3370   -4.6480   24.9090 C   0  0  0  0  0  0  0  0  0  0  0  0
  -21.8270   -4.0610   23.7290 C   0  0  0  0  0  3  0  0  0  0  0  0
  -21.9800   -4.8400   22.5690 C   0  0  0  0  0  0  0  0  0  0  0  0
  -22.4330   -4.2640   21.4290 F   0  0  0  0  0  0  0  0  0  0  0  0
  -21.1850   -3.8940   26.0240 F   0  0  0  0  0  0  0  0  0  0  0  0
  -22.8240  -13.5650   21.2050 C   0  0  0  0  0  0  0  0  0  0  0  0
  -22.1350  -12.8490   22.0850 N   0  0  0  0  0  0  0  0  0  0  0  0
  -22.3660  -14.6020   20.7280 O   0  0  0  0  0  0  0  0  0  0  0  0
  -22.5200  -12.0110   22.4950 H   0  0  0  0  0  0  0  0  0  0  0  0
  -21.2070  -13.1440   22.3550 H   0  0  0  0  0  0  0  0  0  0  0  0
  -25.4200  -15.2540   20.3270 N   0  0  0  0  0  0  0  0  0  0  0  0
  -24.6750  -15.9100   20.5270 H   0  0  0  0  0  0  0  0  0  0  0  0
  -26.3010  -15.7080   20.1130 H   0  0  0  0  0  0  0  0  0  0  0  0
  -27.9080  -17.5400   21.1130 O   0  0  0  0  0  0  0  0  0  0  0  0
  -27.6790  -18.4580   21.1640 H   0  0  0  0  0  0  0  0  0  0  0  0
  2  1  1  0
  3  4  1  0
  4 49  1  0
  4  1  2  0
  5  3  2  0
  5  6  1  0
  6  2  2  0
  7  5  1  0
  8 10  1  0
  8  6  1  0
  9 20  2  0
 10 15  1  0
 11 19  1  0
 11 21  1  0
 12 18  1  0
 12 14  1  0
 13 19  1  0
 14 13  1  0
 15 14  2  0
 16 17  1  0
 16 10  2  0
 17 12  2  0
 18 11  1  0
 19  9  1  0
 21 23  2  0
 22 21  1  0
 24 22  1  0
 25 34  2  0
 25 30  1  0
 26 22  1  0
 26 30  1  0
 27 26  1  0
 28 29  1  0
 28 27  1  0
 29 25  1  0
 30 31  2  0
 31 32  1  0
 33 32  2  0
 34 33  1  0
 35  9  1  0
 35 40  1  0
 35 36  1  0
 36 39  1  1
 36 37  1  0
 38 36  1  0
 40 43  1  0
 41 45  1  0
 41 40  1  0
 42 41  2  0
 45 44  1  0
 47 45  1  0
 47 48  1  0
 47 46  1  0
 50 52  1  0
 50 49  2  0
 51 52  2  0
 52 89  1  0
 53 51  2  0
 54 59  1  0
 55 56  1  0
 55 54  1  0
 57 56  1  0
 57 64  1  0
 57 58  1  0
 59 53  1  0
 59 58  1  0
 60 53  2  0
 61 62  2  0
 62 81  1  0
 63 62  1  0
 63 66  1  0
 64 65  1  0
 64 61  1  0
 65 63  2  0
 66 67  1  0
 67 68  2  0
 69 72  1  0
 69 68  1  0
 70 69  2  0
 71 70  1  0
 71 66  2  0
 72 73  1  0
 73 74  1  0
 74 75  2  0
 76 75  1  0
 76 80  1  0
 77 76  2  0
 78 73  2  0
 78 77  1  0
 79 78  1  0
 81 82  1  0
 82 85  1  0
 82 84  1  0
 83 81  2  0
 86 61  1  0
 86 87  1  0
 88 86  1  0
 89 90  1  0
M  ISO  4   6 101   8 101  51 100  53 100
M  END
>  <TORSDO>  (21) 
F 20

>  <SCORE>  (21) 
-14.011

>  <name>  (21) 
20

>  <ligand_id>  (21) 
20

>  <original_smiles>  (21) 
[H]OC(=C([H])C(=O)N1C([H])([H])C([H])([H])C([H])([H])C([H])(n2nc(-c3c([H])c([H])c(Oc4c([H])c([H])c(F)c([H])c4F)c([H])c3[H])c(C(=O)N([H])[H])c2N([H])[H])C1([H])[H])C([H])([H])C([H])([H])c1c([H])c([H])c(Oc2c([H])c([H])c3c(c2[H])C([H])([H])N(C(=O)C([H])(N([H])C(=O)C([H])(N([H])C([H])([H])[H])C([H])([H])[H])C(C([H])([H])[H])(C([H])([H])[H])C([H])([H])[H])C([H])(C(=O)N([H])C2([H])c4c([H])c([H])c([H])c([H])c4C([H])([H])C([H])([H])C2([H])[H])C3([H])[H])c(C([H])([H])[H])c1[H]

>  <smiles>  (21) 
[H]OC(=C([H])C(=O)N1C([H])([H])C([H])([H])C([H])([H])C([H])(n2nc(-c3c([H])c([H])c(Oc4c([H])c([H])c(F)c([H])c4F)c([H])c3[H])c(C(=O)N([H])[H])c2N([H])[H])C1([H])[H])C([H])([H])C([H])([H])c1c([H])c([H])c(Oc2c([H])c([H])c3c(c2[H])C([H])([H])N(C(=O)C([H])(N([H])C(=O)C([H])(N([H])C([H])([H])[H])C([H])([H])[H])C(C([H])([H])[H])(C([H])([H])[H])C([H])([H])[H])C([H])(C(=O)N([H])C2([H])c4c([H])c([H])c([H])c([H])c4C([H])([H])C([H])([H])C2([H])[H])C3([H])[H])c(C([H])([H])[H])c1[H]

$$$$
21:0:0
     RDKit          3D

 92100  0  0  1  0  0  0  0  0999 V2000
  -28.8900  -16.9220   20.0230 C   0  0  0  0  0  3  0  0  0  0  0  0
  -28.5060  -18.3110   19.9360 C   0  0  0  0  0  3  0  0  0  0  0  0
  -30.2350  -16.4630   20.2110 C   0  0  0  0  0  0  0  0  0  0  0  0
  -29.4180  -19.3950   20.0840 C   0  0  0  0  0  0  0  0  0  0  0  0
  -31.1680  -17.5750   20.3540 C   0  0  0  0  0  0  0  0  0  0  0  0
  -30.7420  -18.9630   20.3770 C   0  0  0  0  0  0  0  0  0  0  0  0
  -30.6890  -14.9460   19.9910 C   0  0  0  0  0  0  0  0  0  0  0  0
  -30.3100  -12.6400   19.0920 C   0  0  0  0  0  2  0  0  0  0  0  0
  -29.3570  -12.6850   17.8790 C   0  0  0  0  0  2  0  0  0  0  0  0
  -27.9090  -12.4860   18.3550 C   0  0  0  0  0  2  0  0  0  0  0  0
  -27.5560  -13.3960   19.5610 C   0  0  0  0  0  3  0  0  0  0  0  0
  -28.6640  -13.4570   20.6410 C   0  0  0  0  0  2  0  0  0  0  0  0
  -29.9400  -13.7740   19.9920 N   0  0  0  0  0  0  0  0  0  0  0  0
  -31.8510  -14.8080   19.6290 O   0  0  0  0  0  0  0  0  0  0  0  0
  -25.2040  -13.9450   20.4170 C   0  0  0  0  0  0  0  0  0  0  0  0
  -24.1670  -13.1510   20.8240 C   0  0  0  0  0  0  0  0  0  0  0  0
  -24.6440  -11.8070   20.7550 C   0  0  0  0  0  0  0  0  0  0  0  0
  -26.2480  -13.0810   20.1240 N   0  0  0  0  0  0  0  0  0  0  0  0
  -25.9210  -11.7900   20.3950 N   0  0  0  0  0  0  0  0  0  0  0  0
  -23.9390  -10.5330   20.9570 C   0  0  0  0  0  0  0  0  0  0  0  0
  -24.3930   -9.5760   21.8920 C   0  0  0  0  0  3  0  0  0  0  0  0
  -23.6830   -8.3690   22.0770 C   0  0  0  0  0  3  0  0  0  0  0  0
  -22.5070   -8.1140   21.3340 C   0  0  0  0  0  0  0  0  0  0  0  0
  -22.0770   -9.0570   20.3840 C   0  0  0  0  0  3  0  0  0  0  0  0
  -22.7880  -10.2540   20.1950 C   0  0  0  0  0  3  0  0  0  0  0  0
  -21.7690   -6.9580   21.4310 O   0  0  0  0  0  0  0  0  0  0  0  0
  -21.6990   -6.2460   22.6020 C   0  0  0  0  0  0  0  0  0  0  0  0
  -21.2170   -6.8200   23.7970 C   0  0  0  0  0  3  0  0  0  0  0  0
  -21.0970   -6.0320   24.9600 C   0  0  0  0  0  3  0  0  0  0  0  0
  -21.4500   -4.6700   24.9240 C   0  0  0  0  0  0  0  0  0  0  0  0
  -21.9240   -4.0940   23.7330 C   0  0  0  0  0  3  0  0  0  0  0  0
  -22.0450   -4.8800   22.5730 C   0  0  0  0  0  0  0  0  0  0  0  0
  -22.4790   -4.3150   21.4210 F   0  0  0  0  0  0  0  0  0  0  0  0
  -21.3330   -3.9110   26.0400 F   0  0  0  0  0  0  0  0  0  0  0  0
  -22.7740  -13.6070   21.1520 C   0  0  0  0  0  0  0  0  0  0  0  0
  -22.0880  -12.8900   22.0350 N   0  0  0  0  0  0  0  0  0  0  0  0
  -22.3030  -14.6290   20.6560 O   0  0  0  0  0  0  0  0  0  0  0  0
  -22.4800  -12.0620   22.4580 H   0  0  0  0  0  0  0  0  0  0  0  0
  -21.1560  -13.1760   22.2950 H   0  0  0  0  0  0  0  0  0  0  0  0
  -25.3360  -15.3220   20.2430 N   0  0  0  0  0  0  0  0  0  0  0  0
  -24.5600  -15.9580   20.3930 H   0  0  0  0  0  0  0  0  0  0  0  0
  -26.1670  -15.7870   19.9010 H   0  0  0  0  0  0  0  0  0  0  0  0
  -31.6970  -20.3350   21.9850 C   0  0  0  0  0  1  0  0  0  0  0  0
  -31.6670  -19.9450   20.6160 O   0  0  0  0  0  0  0  0  0  0  0  0
  -29.1010  -20.9100   19.6190 C   0  0  0  0  0  3  0  0  0  0  0  0
  -28.6600  -22.1930   20.5320 C   0  0  0  0  0  3  0  0  0  0  0  0
  -28.7170  -23.7210   19.9090 C   0  0  0  0  0  3  0  0  0  0  0  0
  -27.9890  -25.0080   20.6120 C   0  0  0  0  0  3  0  0  0  0  0  0
  -28.1960  -26.4480   20.1740 O   0  0  0  0  0  0  0  0  0  0  0  0
  -24.5540  -31.9560   23.2760 C   0  0  0  0  0  0  0  0  0  0  0  0
  -27.1060  -27.3540   20.1750 C   0  0  0  0  0  0  0  0  0  0  0  0
  -23.3280  -30.5750   21.6370 C   0  0  0  0  0  3  0  0  0  0  0  0
  -24.7570  -29.0190   20.1890 C   0  0  0  0  0  0  0  0  0  0  0  0
  -25.8700  -30.8740   21.4310 C   0  0  0  0  0  2  0  0  0  0  0  0
  -25.9400  -29.4920   20.7710 C   0  0  0  0  0  0  0  0  0  0  0  0
  -27.1200  -28.6750   20.7440 C   0  0  0  0  0  3  0  0  0  0  0  0
  -25.9030  -26.9570   19.5560 C   0  0  0  0  0  3  0  0  0  0  0  0
  -24.7460  -27.7620   19.5650 C   0  0  0  0  0  3  0  0  0  0  0  0
  -23.5260  -29.9020   20.2540 C   0  0  0  0  0  2  0  0  0  0  0  0
  -24.6040  -31.1540   22.1700 N   0  0  0  0  0  0  0  0  0  0  0  0
  -23.4760  -32.2330   23.8230 O   0  0  0  0  0  0  0  0  0  0  0  0
  -22.6650  -29.5600   22.6000 C   0  0  0  0  0  0  0  0  0  0  0  0
  -21.3390  -29.3790   22.4740 N   0  0  0  0  0  0  0  0  0  0  0  0
  -23.3450  -28.9370   23.4200 O   0  0  0  0  0  0  0  0  0  0  0  0
  -20.8520  -29.9310   21.7810 H   0  0  0  0  0  0  0  0  0  0  0  0
  -17.9690  -28.1500   22.9600 C   0  0  0  0  0  0  0  0  0  0  0  0
  -20.5220  -28.4390   23.2440 C   0  0  0  0  0  3  0  0  0  0  0  0
  -20.6460  -27.0060   22.6770 C   0  0  0  0  0  2  0  0  0  0  0  0
  -19.5540  -26.6650   21.6580 C   0  0  0  0  0  2  0  0  0  0  0  0
  -18.1660  -26.7990   22.2910 C   0  0  0  0  0  2  0  0  0  0  0  0
  -19.0760  -28.9260   23.3940 C   0  0  0  0  0  0  0  0  0  0  0  0
  -18.8400  -30.1880   23.9820 C   0  0  0  0  0  3  0  0  0  0  0  0
  -17.5290  -30.6760   24.1370 C   0  0  0  0  0  3  0  0  0  0  0  0
  -16.4360  -29.8960   23.7190 C   0  0  0  0  0  3  0  0  0  0  0  0
  -16.6570  -28.6350   23.1390 C   0  0  0  0  0  3  0  0  0  0  0  0
  -25.8450  -32.5780   23.8920 C   0  0  0  0  0  3  0  0  0  0  0  0
  -25.5510  -33.9830   24.2110 N   0  0  0  0  0  0  0  0  0  0  0  0
  -25.8960  -35.0280   23.4460 C   0  0  0  0  0  0  0  0  0  0  0  0
  -26.5610  -34.9090   22.4130 O   0  0  0  0  0  0  0  0  0  0  0  0
  -24.9600  -34.1530   25.0130 H   0  0  0  0  0  0  0  0  0  0  0  0
  -24.1900  -36.8430   23.0880 C   0  0  0  0  0  1  0  0  0  0  0  0
  -25.4290  -36.4260   23.8960 C   0  0  0  0  0  3  0  0  0  0  0  0
  -27.5770  -37.2900   24.7150 C   0  0  0  0  0  1  0  0  0  0  0  0
  -26.4740  -37.4650   23.7730 N   0  0  0  0  0  0  0  0  0  0  0  0
  -26.0790  -38.3910   23.9180 H   0  0  0  0  0  0  0  0  0  0  0  0
  -26.3500  -31.8130   25.1760 C   0  0  1  0  0  0  0  0  0  0  0  0
  -25.2540  -31.5990   26.2450 C   0  0  0  0  0  1  0  0  0  0  0  0
  -26.9140  -30.4230   24.7990 C   0  0  0  0  0  1  0  0  0  0  0  0
  -27.5150  -32.5970   25.8270 C   0  0  0  0  0  1  0  0  0  0  0  0
  -32.7010  -17.3960   20.3910 C   0  0  0  0  0  2  0  0  0  0  0  0
  -33.0890  -17.1700   17.8230 C   0  0  0  0  0  1  0  0  0  0  0  0
  -33.4140  -17.9280   19.1190 C   0  0  0  0  0  2  0  0  0  0  0  0
  1  3  1  0
  2  1  2  0
  2  4  1  0
  3  5  2  0
  4  6  2  0
  5  6  1  0
  5 90  1  0
  6 44  1  0
  7 13  1  0
  7  3  1  0
  8 13  1  0
  9 10  1  0
  9  8  1  0
 11 10  1  0
 11 18  1  0
 11 12  1  0
 13 12  1  0
 14  7  2  0
 15 16  2  0
 16 35  1  0
 17 16  1  0
 17 20  1  0
 18 19  1  0
 18 15  1  0
 19 17  2  0
 20 21  1  0
 21 22  2  0
 23 26  1  0
 23 22  1  0
 24 23  2  0
 25 24  1  0
 25 20  2  0
 26 27  1  0
 27 28  1  0
 28 29  2  0
 30 29  1  0
 30 34  1  0
 31 30  2  0
 32 27  2  0
 32 31  1  0
 33 32  1  0
 35 36  1  0
 36 39  1  0
 36 38  1  0
 37 35  2  0
 40 41  1  0
 40 15  1  0
 42 40  1  0
 44 43  1  0
 45  4  1  0
 45 46  2  0
 47 46  1  0
 47 48  2  0
 49 51  1  0
 49 48  1  0
 50 61  2  0
 51 56  1  0
 52 60  1  0
 52 62  1  0
 53 59  1  0
 53 55  1  0
 54 60  1  0
 55 54  1  0
 56 55  2  0
 57 58  1  0
 57 51  2  0
 58 53  2  0
 59 52  1  0
 60 50  1  0
 62 64  2  0
 63 62  1  0
 65 63  1  0
 66 75  2  0
 66 71  1  0
 67 63  1  0
 67 71  1  0
 68 67  1  0
 69 70  1  0
 69 68  1  0
 70 66  1  0
 71 72  2  0
 72 73  1  0
 74 73  2  0
 75 74  1  0
 76 50  1  0
 76 77  1  0
 76 86  1  0
 77 80  1  0
 78 82  1  0
 78 77  1  0
 79 78  2  0
 82 81  1  0
 84 82  1  0
 84 85  1  0
 84 83  1  0
 86 89  1  1
 86 87  1  0
 88 86  1  0
 91 92  1  0
 92 90  1  0
M  ISO  4   3 100   7 100  48 101  49 101
M  END
>  <TORSDO>  (22) 
F 23

>  <SCORE>  (22) 
-12.958

>  <name>  (22) 
21

>  <ligand_id>  (22) 
21

>  <original_smiles>  (22) 
[H]c1c([H])c([H])c2c(c1[H])C([H])([H])C([H])([H])C([H])([H])C2([H])N([H])C(=O)C1([H])N(C(=O)C([H])(N([H])C(=O)C([H])(N([H])C([H])([H])[H])C([H])([H])[H])C(C([H])([H])[H])(C([H])([H])[H])C([H])([H])[H])C([H])([H])c2c([H])c(OC([H])([H])C([H])([H])C([H])([H])C([H])([H])c3c([H])c([H])c(C(=O)N4C([H])([H])C([H])([H])C([H])([H])C([H])(n5nc(-c6c([H])c([H])c(Oc7c([H])c([H])c(F)c([H])c7F)c([H])c6[H])c(C(=O)N([H])[H])c5N([H])[H])C4([H])[H])c(C([H])([H])C([H])([H])C([H])([H])[H])c3OC([H])([H])[H])c([H])c([H])c2C1([H])[H]

>  <smiles>  (22) 
[H]c1c([H])c([H])c2c(c1[H])C([H])([H])C([H])([H])C([H])([H])C2([H])N([H])C(=O)C1([H])N(C(=O)C([H])(N([H])C(=O)C([H])(N([H])C([H])([H])[H])C([H])([H])[H])C(C([H])([H])[H])(C([H])([H])[H])C([H])([H])[H])C([H])([H])c2c([H])c(OC([H])([H])C([H])([H])C([H])([H])C([H])([H])c3c([H])c([H])c(C(=O)N4C([H])([H])C([H])([H])C([H])([H])C([H])(n5nc(-c6c([H])c([H])c(Oc7c([H])c([H])c(F)c([H])c7F)c([H])c6[H])c(C(=O)N([H])[H])c5N([H])[H])C4([H])[H])c(C([H])([H])C([H])([H])C([H])([H])[H])c3OC([H])([H])[H])c([H])c([H])c2C1([H])[H]

$$$$
22:0:0
     RDKit          3D

 91 99  0  0  1  0  0  0  0  0999 V2000
  -28.5900  -22.8520   19.2880 C   0  0  0  0  0  3  0  0  0  0  0  0
  -28.3190  -24.2540   19.1790 C   0  0  0  0  0  3  0  0  0  0  0  0
  -29.0100  -23.1390   21.6340 C   0  0  0  0  0  3  0  0  0  0  0  0
  -28.9780  -22.2560   20.5190 C   0  0  0  0  0  0  0  0  0  0  0  0
  -28.7080  -24.5320   21.5380 C   0  0  0  0  0  0  0  0  0  0  0  0
  -28.3870  -25.1390   20.2950 C   0  0  0  0  0  0  0  0  0  0  0  0
  -28.7870  -25.3940   22.7860 C   0  0  0  0  0  1  0  0  0  0  0  0
  -29.5050  -20.8100   20.6620 C   0  0  0  0  0  0  0  0  0  0  0  0
  -30.5510  -20.5800   21.2770 O   0  0  0  0  0  0  0  0  0  0  0  0
  -28.6960  -19.5770   20.1380 C   0  0  0  0  0  2  0  0  0  0  0  0
  -29.3820  -18.1670   19.7840 C   0  0  0  0  0  2  0  0  0  0  0  0
  -30.0250  -17.2020   20.8750 C   0  0  0  0  0  2  0  0  0  0  0  0
  -30.5870  -14.6600   20.4150 C   0  0  0  0  0  0  0  0  0  0  0  0
  -30.3950  -12.4190   19.3560 C   0  0  0  0  0  2  0  0  0  0  0  0
  -29.4410  -12.5340   18.1470 C   0  0  0  0  0  2  0  0  0  0  0  0
  -27.9670  -12.3810   18.5790 C   0  0  0  0  0  2  0  0  0  0  0  0
  -27.6130  -13.2450   19.8170 C   0  0  0  0  0  3  0  0  0  0  0  0
  -28.6760  -13.0880   20.9270 C   0  0  0  0  0  2  0  0  0  0  0  0
  -29.9790  -13.4360   20.3400 N   0  0  0  0  0  0  0  0  0  0  0  0
  -31.7550  -14.8220   20.0510 O   0  0  0  0  0  0  0  0  0  0  0  0
  -29.7720  -15.7180   20.7290 N   0  0  0  0  0  0  0  0  0  0  0  0
  -28.8370  -15.4330   20.9800 H   0  0  0  0  0  0  0  0  0  0  0  0
  -25.2200  -13.8520   20.5350 C   0  0  0  0  0  0  0  0  0  0  0  0
  -24.1530  -13.0810   20.9100 C   0  0  0  0  0  0  0  0  0  0  0  0
  -24.6130  -11.7290   20.8840 C   0  0  0  0  0  0  0  0  0  0  0  0
  -26.2640  -12.9680   20.3050 N   0  0  0  0  0  0  0  0  0  0  0  0
  -25.9030  -11.6870   20.5750 N   0  0  0  0  0  0  0  0  0  0  0  0
  -23.8850  -10.4690   21.0750 C   0  0  0  0  0  0  0  0  0  0  0  0
  -24.3260   -9.4920   21.9940 C   0  0  0  0  0  3  0  0  0  0  0  0
  -23.5960   -8.2960   22.1730 C   0  0  0  0  0  3  0  0  0  0  0  0
  -22.4110   -8.0710   21.4350 C   0  0  0  0  0  0  0  0  0  0  0  0
  -21.9900   -9.0360   20.5030 C   0  0  0  0  0  3  0  0  0  0  0  0
  -22.7200  -10.2220   20.3220 C   0  0  0  0  0  3  0  0  0  0  0  0
  -21.6500   -6.9310   21.5270 O   0  0  0  0  0  0  0  0  0  0  0  0
  -21.6280   -6.1710   22.6690 C   0  0  0  0  0  0  0  0  0  0  0  0
  -21.2410   -6.7100   23.9160 C   0  0  0  0  0  3  0  0  0  0  0  0
  -21.1640   -5.8770   25.0490 C   0  0  0  0  0  3  0  0  0  0  0  0
  -21.4640   -4.5050   24.9370 C   0  0  0  0  0  0  0  0  0  0  0  0
  -21.8450   -3.9670   23.6960 C   0  0  0  0  0  3  0  0  0  0  0  0
  -21.9220   -4.7970   22.5650 C   0  0  0  0  0  0  0  0  0  0  0  0
  -22.2680   -4.2680   21.3670 F   0  0  0  0  0  0  0  0  0  0  0  0
  -21.3820   -3.7030   26.0250 F   0  0  0  0  0  0  0  0  0  0  0  0
  -22.7560  -13.5600   21.1810 C   0  0  0  0  0  0  0  0  0  0  0  0
  -22.0280  -12.8690   22.0500 N   0  0  0  0  0  0  0  0  0  0  0  0
  -22.3170  -14.5840   20.6540 O   0  0  0  0  0  0  0  0  0  0  0  0
  -22.3950  -12.0410   22.4960 H   0  0  0  0  0  0  0  0  0  0  0  0
  -21.0910  -13.1740   22.2750 H   0  0  0  0  0  0  0  0  0  0  0  0
  -25.3860  -15.2210   20.3500 N   0  0  0  0  0  0  0  0  0  0  0  0
  -24.6130  -15.8740   20.4440 H   0  0  0  0  0  0  0  0  0  0  0  0
  -26.2200  -15.6550   19.9770 H   0  0  0  0  0  0  0  0  0  0  0  0
  -28.3500  -26.5440   20.1520 O   0  0  0  0  0  0  0  0  0  0  0  0
  -24.5810  -31.8710   23.2270 C   0  0  0  0  0  0  0  0  0  0  0  0
  -27.1860  -27.3160   20.1800 C   0  0  0  0  0  0  0  0  0  0  0  0
  -23.3680  -30.4690   21.5870 C   0  0  0  0  0  3  0  0  0  0  0  0
  -24.8140  -28.9050   20.1680 C   0  0  0  0  0  0  0  0  0  0  0  0
  -25.9030  -30.7850   21.4010 C   0  0  0  0  0  2  0  0  0  0  0  0
  -25.9780  -29.4020   20.7650 C   0  0  0  0  0  0  0  0  0  0  0  0
  -27.1660  -28.6160   20.7650 C   0  0  0  0  0  3  0  0  0  0  0  0
  -26.0020  -26.8560   19.5670 C   0  0  0  0  0  3  0  0  0  0  0  0
  -24.8250  -27.6360   19.5600 C   0  0  0  0  0  3  0  0  0  0  0  0
  -23.5790  -29.7830   20.2080 C   0  0  0  0  0  2  0  0  0  0  0  0
  -24.6350  -31.0620   22.1280 N   0  0  0  0  0  0  0  0  0  0  0  0
  -23.5000  -32.1490   23.7670 O   0  0  0  0  0  0  0  0  0  0  0  0
  -22.7130  -29.4570   22.5530 C   0  0  0  0  0  0  0  0  0  0  0  0
  -21.3870  -29.2770   22.4280 N   0  0  0  0  0  0  0  0  0  0  0  0
  -23.3970  -28.8350   23.3710 O   0  0  0  0  0  0  0  0  0  0  0  0
  -20.8960  -29.8240   21.7350 H   0  0  0  0  0  0  0  0  0  0  0  0
  -18.0150  -28.0850   22.9380 C   0  0  0  0  0  0  0  0  0  0  0  0
  -20.5720  -28.3430   23.2050 C   0  0  0  0  0  3  0  0  0  0  0  0
  -20.6750  -26.9110   22.6310 C   0  0  0  0  0  2  0  0  0  0  0  0
  -19.5710  -26.5870   21.6190 C   0  0  0  0  0  2  0  0  0  0  0  0
  -18.1900  -26.7340   22.2630 C   0  0  0  0  0  2  0  0  0  0  0  0
  -19.1350  -28.8480   23.3660 C   0  0  0  0  0  0  0  0  0  0  0  0
  -18.9150  -30.1130   23.9520 C   0  0  0  0  0  3  0  0  0  0  0  0
  -17.6110  -30.6150   24.1200 C   0  0  0  0  0  3  0  0  0  0  0  0
  -16.5060  -29.8490   23.7080 C   0  0  0  0  0  3  0  0  0  0  0  0
  -16.7100  -28.5870   23.1230 C   0  0  0  0  0  3  0  0  0  0  0  0
  -25.8680  -32.4990   23.8450 C   0  0  0  0  0  3  0  0  0  0  0  0
  -26.3890  -31.7270   25.1190 C   0  0  1  0  0  0  0  0  0  0  0  0
  -25.2980  -31.4920   26.1890 C   0  0  0  0  0  1  0  0  0  0  0  0
  -26.9650  -30.3490   24.7220 C   0  0  0  0  0  1  0  0  0  0  0  0
  -27.5430  -32.5180   25.7790 C   0  0  0  0  0  1  0  0  0  0  0  0
  -25.5660  -33.8960   24.1770 N   0  0  0  0  0  0  0  0  0  0  0  0
  -25.8890  -34.9490   23.4140 C   0  0  0  0  0  0  0  0  0  0  0  0
  -26.5460  -34.8460   22.3750 O   0  0  0  0  0  0  0  0  0  0  0  0
  -24.9880  -34.0520   24.9900 H   0  0  0  0  0  0  0  0  0  0  0  0
  -24.1520  -36.7360   23.0810 C   0  0  0  0  0  1  0  0  0  0  0  0
  -25.4040  -36.3360   23.8770 C   0  0  0  0  0  3  0  0  0  0  0  0
  -27.5450  -37.2240   24.6800 C   0  0  0  0  0  1  0  0  0  0  0  0
  -26.4310  -37.3940   23.7500 N   0  0  0  0  0  0  0  0  0  0  0  0
  -26.0220  -38.3110   23.9110 H   0  0  0  0  0  0  0  0  0  0  0  0
  1  4  1  0
  2  1  2  0
  2  6  1  0
  4  8  1  0
  4  3  2  0
  5  3  1  0
  5  7  1  0
  6  5  2  0
  8  9  2  0
 10  8  1  0
 11 10  1  0
 11 12  1  0
 13 21  1  0
 14 19  1  0
 15 16  1  0
 15 14  1  0
 17 16  1  0
 17 26  1  0
 17 18  1  0
 19 13  1  0
 19 18  1  0
 20 13  2  0
 21 12  1  0
 21 22  1  0
 23 24  2  0
 24 43  1  0
 25 24  1  0
 25 28  1  0
 26 23  1  0
 26 27  1  0
 27 25  2  0
 28 29  1  0
 29 30  2  0
 31 34  1  0
 31 30  1  0
 32 31  2  0
 33 32  1  0
 33 28  2  0
 34 35  1  0
 35 36  1  0
 36 37  2  0
 38 37  1  0
 38 42  1  0
 39 38  2  0
 40 35  2  0
 40 39  1  0
 41 40  1  0
 43 44  1  0
 44 47  1  0
 44 46  1  0
 45 43  2  0
 48 49  1  0
 48 23  1  0
 50 48  1  0
 51 53  1  0
 51  6  1  0
 52 63  2  0
 53 58  1  0
 54 62  1  0
 54 64  1  0
 55 61  1  0
 55 57  1  0
 56 62  1  0
 57 58  2  0
 57 56  1  0
 59 53  2  0
 60 59  1  0
 60 55  2  0
 61 54  1  0
 62 52  1  0
 64 66  2  0
 65 64  1  0
 67 65  1  0
 68 77  2  0
 68 73  1  0
 69 65  1  0
 69 73  1  0
 70 69  1  0
 71 72  1  0
 71 70  1  0
 72 68  1  0
 73 74  2  0
 74 75  1  0
 76 75  2  0
 77 76  1  0
 78 52  1  0
 78 83  1  0
 78 79  1  0
 79 82  1  1
 79 80  1  0
 81 79  1  0
 83 86  1  0
 84 88  1  0
 84 83  1  0
 85 84  2  0
 88 87  1  0
 90 88  1  0
 90 91  1  0
 90 89  1  0
M  ISO  4   6 101  13 100  21 100  51 101
M  END
>  <TORSDO>  (23) 
F 20

>  <SCORE>  (23) 
-14.021

>  <name>  (23) 
22

>  <ligand_id>  (23) 
22

>  <original_smiles>  (23) 
[H]c1c([H])c([H])c2c(c1[H])C([H])([H])C([H])([H])C([H])([H])C2([H])N([H])C(=O)C1([H])N(C(=O)C([H])(N([H])C(=O)C([H])(N([H])C([H])([H])[H])C([H])([H])[H])C(C([H])([H])[H])(C([H])([H])[H])C([H])([H])[H])C([H])([H])c2c([H])c(Oc3c([H])c([H])c(C(=O)C([H])([H])C([H])([H])C([H])([H])N([H])C(=O)N4C([H])([H])C([H])([H])C([H])([H])C([H])(n5nc(-c6c([H])c([H])c(Oc7c([H])c([H])c(F)c([H])c7F)c([H])c6[H])c(C(=O)N([H])[H])c5N([H])[H])C4([H])[H])c([H])c3C([H])([H])[H])c([H])c([H])c2C1([H])[H]

>  <smiles>  (23) 
[H]c1c([H])c([H])c2c(c1[H])C([H])([H])C([H])([H])C([H])([H])C2([H])N([H])C(=O)C1([H])N(C(=O)C([H])(N([H])C(=O)C([H])(N([H])C([H])([H])[H])C([H])([H])[H])C(C([H])([H])[H])(C([H])([H])[H])C([H])([H])[H])C([H])([H])c2c([H])c(Oc3c([H])c([H])c(C(=O)C([H])([H])C([H])([H])C([H])([H])N([H])C(=O)N4C([H])([H])C([H])([H])C([H])([H])C([H])(n5nc(-c6c([H])c([H])c(Oc7c([H])c([H])c(F)c([H])c7F)c([H])c6[H])c(C(=O)N([H])[H])c5N([H])[H])C4([H])[H])c([H])c3C([H])([H])[H])c([H])c([H])c2C1([H])[H]

$$$$
23:0:0
     RDKit          3D

 88 96  0  0  1  0  0  0  0  0999 V2000
  -29.0990  -21.5310   21.3620 C   0  0  0  0  0  3  0  0  0  0  0  0
  -28.7710  -23.0300   21.3900 C   0  0  0  0  0  3  0  0  0  0  0  0
  -28.4500  -21.4290   19.2700 C   0  0  0  0  0  3  0  0  0  0  0  0
  -28.9880  -20.4810   20.3030 C   0  0  0  0  0  0  0  0  0  0  0  0
  -28.1190  -22.9400   19.2780 C   0  0  0  0  0  0  0  0  0  0  0  0
  -28.2240  -23.9700   20.3640 C   0  0  0  0  0  0  0  0  0  0  0  0
  -27.6470  -23.4890   17.9440 C   0  0  0  0  0  1  0  0  0  0  0  0
  -29.4050  -17.2620   20.3180 C   0  0  0  0  0  3  0  0  0  0  0  0
  -29.6690  -18.7820   20.2080 C   0  0  0  0  0  0  0  0  0  0  0  0
  -30.2380  -15.7530   20.1720 C   0  0  0  0  0  0  0  0  0  0  0  0
  -30.3460  -13.1980   19.3710 C   0  0  0  0  0  2  0  0  0  0  0  0
  -29.4420  -12.8060   18.1650 C   0  0  0  0  0  2  0  0  0  0  0  0
  -28.0270  -12.4370   18.6340 C   0  0  0  0  0  2  0  0  0  0  0  0
  -27.5240  -13.4260   19.7100 C   0  0  0  0  0  3  0  0  0  0  0  0
  -28.5650  -13.7470   20.8060 C   0  0  0  0  0  2  0  0  0  0  0  0
  -29.7350  -14.3730   20.1500 N   0  0  0  0  0  0  0  0  0  0  0  0
  -31.4610  -15.6690   19.9450 O   0  0  0  0  0  0  0  0  0  0  0  0
  -25.1800  -13.9180   20.5460 C   0  0  0  0  0  0  0  0  0  0  0  0
  -24.1380  -13.1220   20.9240 C   0  0  0  0  0  0  0  0  0  0  0  0
  -24.6200  -11.7780   20.8560 C   0  0  0  0  0  0  0  0  0  0  0  0
  -26.2250  -13.0630   20.2560 N   0  0  0  0  0  0  0  0  0  0  0  0
  -25.9050  -11.7660   20.5120 N   0  0  0  0  0  0  0  0  0  0  0  0
  -23.9070  -10.5050   21.0400 C   0  0  0  0  0  0  0  0  0  0  0  0
  -24.3480   -9.5350   21.9670 C   0  0  0  0  0  3  0  0  0  0  0  0
  -23.6310   -8.3320   22.1420 C   0  0  0  0  0  3  0  0  0  0  0  0
  -22.4580   -8.0890   21.3880 C   0  0  0  0  0  0  0  0  0  0  0  0
  -22.0350   -9.0480   20.4490 C   0  0  0  0  0  3  0  0  0  0  0  0
  -22.7540  -10.2420   20.2730 C   0  0  0  0  0  3  0  0  0  0  0  0
  -21.7110   -6.9380   21.4710 O   0  0  0  0  0  0  0  0  0  0  0  0
  -21.6480   -6.2020   22.6280 C   0  0  0  0  0  0  0  0  0  0  0  0
  -21.1680   -6.7530   23.8350 C   0  0  0  0  0  3  0  0  0  0  0  0
  -21.0550   -5.9420   24.9830 C   0  0  0  0  0  3  0  0  0  0  0  0
  -21.4120   -4.5820   24.9220 C   0  0  0  0  0  0  0  0  0  0  0  0
  -21.8850   -4.0310   23.7190 C   0  0  0  0  0  3  0  0  0  0  0  0
  -21.9990   -4.8380   22.5740 C   0  0  0  0  0  0  0  0  0  0  0  0
  -22.4360   -4.2960   21.4120 F   0  0  0  0  0  0  0  0  0  0  0  0
  -21.2970   -3.8010   26.0220 F   0  0  0  0  0  0  0  0  0  0  0  0
  -22.7420  -13.5810   21.2280 C   0  0  0  0  0  0  0  0  0  0  0  0
  -22.0390  -12.8690   22.1020 N   0  0  0  0  0  0  0  0  0  0  0  0
  -22.2860  -14.6080   20.7270 O   0  0  0  0  0  0  0  0  0  0  0  0
  -22.4240  -12.0400   22.5290 H   0  0  0  0  0  0  0  0  0  0  0  0
  -21.1040  -13.1590   22.3470 H   0  0  0  0  0  0  0  0  0  0  0  0
  -25.3230  -15.2940   20.3920 N   0  0  0  0  0  0  0  0  0  0  0  0
  -24.5530  -15.9380   20.5370 H   0  0  0  0  0  0  0  0  0  0  0  0
  -26.1570  -15.7500   20.0420 H   0  0  0  0  0  0  0  0  0  0  0  0
  -30.9530  -19.0030   19.9050 O   0  0  0  0  0  0  0  0  0  0  0  0
  -31.0690  -19.9430   19.8380 H   0  0  0  0  0  0  0  0  0  0  0  0
  -28.1530  -25.5980   20.3720 O   0  0  0  0  0  0  0  0  0  0  0  0
  -24.6190  -31.9050   23.2740 C   0  0  0  0  0  0  0  0  0  0  0  0
  -27.1410  -26.7810   20.3440 C   0  0  0  0  0  0  0  0  0  0  0  0
  -23.4340  -30.4970   21.6450 C   0  0  0  0  0  3  0  0  0  0  0  0
  -24.8800  -28.8270   20.2560 C   0  0  0  0  0  0  0  0  0  0  0  0
  -26.0120  -30.6250   21.5350 C   0  0  0  0  0  2  0  0  0  0  0  0
  -26.0710  -29.1830   20.8960 C   0  0  0  0  0  0  0  0  0  0  0  0
  -27.1830  -28.1870   20.9090 C   0  0  0  0  0  3  0  0  0  0  0  0
  -25.9180  -26.6370   19.6400 C   0  0  0  0  0  3  0  0  0  0  0  0
  -24.8420  -27.5790   19.6050 C   0  0  0  0  0  3  0  0  0  0  0  0
  -23.6770  -29.7840   20.2820 C   0  0  0  0  0  2  0  0  0  0  0  0
  -24.7130  -31.0440   22.2040 N   0  0  0  0  0  0  0  0  0  0  0  0
  -23.5250  -32.2140   23.7770 O   0  0  0  0  0  0  0  0  0  0  0  0
  -22.7090  -29.5320   22.6220 C   0  0  0  0  0  0  0  0  0  0  0  0
  -21.3790  -29.3740   22.4870 N   0  0  0  0  0  0  0  0  0  0  0  0
  -23.3580  -28.9210   23.4740 O   0  0  0  0  0  0  0  0  0  0  0  0
  -20.9050  -29.9170   21.7780 H   0  0  0  0  0  0  0  0  0  0  0  0
  -17.9910  -28.1570   22.9800 C   0  0  0  0  0  0  0  0  0  0  0  0
  -20.5460  -28.4470   23.2640 C   0  0  0  0  0  3  0  0  0  0  0  0
  -20.6610  -27.0050   22.7150 C   0  0  0  0  0  2  0  0  0  0  0  0
  -19.5730  -26.6600   21.6930 C   0  0  0  0  0  2  0  0  0  0  0  0
  -18.1840  -26.8020   22.3200 C   0  0  0  0  0  2  0  0  0  0  0  0
  -19.0990  -28.9350   23.4090 C   0  0  0  0  0  0  0  0  0  0  0  0
  -18.8610  -30.2000   23.9900 C   0  0  0  0  0  3  0  0  0  0  0  0
  -17.5490  -30.6860   24.1450 C   0  0  0  0  0  3  0  0  0  0  0  0
  -16.4560  -29.9070   23.7290 C   0  0  0  0  0  3  0  0  0  0  0  0
  -16.6780  -28.6440   23.1530 C   0  0  0  0  0  3  0  0  0  0  0  0
  -25.8820  -32.5570   23.9150 C   0  0  0  0  0  3  0  0  0  0  0  0
  -25.5620  -33.9630   24.2360 N   0  0  0  0  0  0  0  0  0  0  0  0
  -25.8810  -35.0210   23.4770 C   0  0  0  0  0  0  0  0  0  0  0  0
  -26.5300  -34.9160   22.4340 O   0  0  0  0  0  0  0  0  0  0  0  0
  -24.9810  -34.1170   25.0460 H   0  0  0  0  0  0  0  0  0  0  0  0
  -24.1340  -36.8150   23.1820 C   0  0  0  0  0  1  0  0  0  0  0  0
  -25.4070  -36.4150   23.9440 C   0  0  0  0  0  3  0  0  0  0  0  0
  -27.5630  -37.3260   24.6910 C   0  0  0  0  0  1  0  0  0  0  0  0
  -26.4320  -37.4710   23.7800 N   0  0  0  0  0  0  0  0  0  0  0  0
  -26.0260  -38.3930   23.9210 H   0  0  0  0  0  0  0  0  0  0  0  0
  -26.3680  -31.8120   25.2210 C   0  0  1  0  0  0  0  0  0  0  0  0
  -25.2540  -31.6020   26.2730 C   0  0  0  0  0  1  0  0  0  0  0  0
  -26.9510  -30.4220   24.8820 C   0  0  0  0  0  1  0  0  0  0  0  0
  -27.5110  -32.6140   25.8870 C   0  0  0  0  0  1  0  0  0  0  0  0
  1  2  1  0
  3  5  2  0
  3  4  1  0
  4  1  2  0
  5  6  1  0
  6 48  1  0
  6  2  2  0
  7  5  1  0
  9  4  1  0
  9  8  2  0
 10  8  1  0
 11 16  1  0
 12 13  1  0
 12 11  1  0
 14 13  1  0
 14 21  1  0
 14 15  1  0
 16 10  1  0
 16 15  1  0
 17 10  2  0
 18 19  2  0
 19 38  1  0
 20 19  1  0
 20 23  1  0
 21 22  1  0
 21 18  1  0
 22 20  2  0
 23 24  1  0
 24 25  2  0
 26 29  1  0
 26 25  1  0
 27 26  2  0
 28 27  1  0
 28 23  2  0
 29 30  1  0
 30 31  1  0
 31 32  2  0
 33 32  1  0
 33 37  1  0
 34 33  2  0
 35 30  2  0
 35 34  1  0
 36 35  1  0
 38 39  1  0
 39 42  1  0
 39 41  1  0
 40 38  2  0
 43 44  1  0
 43 18  1  0
 45 43  1  0
 46  9  1  0
 47 46  1  0
 49 60  2  0
 50 48  1  0
 50 55  1  0
 51 59  1  0
 51 61  1  0
 52 58  1  0
 52 54  1  0
 53 59  1  0
 54 55  2  0
 54 53  1  0
 56 50  2  0
 57 56  1  0
 57 52  2  0
 58 51  1  0
 59 49  1  0
 61 63  2  0
 62 61  1  0
 64 62  1  0
 65 74  2  0
 65 70  1  0
 66 62  1  0
 66 70  1  0
 67 66  1  0
 68 69  1  0
 68 67  1  0
 69 65  1  0
 70 71  2  0
 71 72  1  0
 73 72  2  0
 74 73  1  0
 75 49  1  0
 75 76  1  0
 75 85  1  0
 76 79  1  0
 77 81  1  0
 77 76  1  0
 78 77  2  0
 81 80  1  0
 83 84  1  0
 83 81  1  0
 83 82  1  0
 85 88  1  1
 85 86  1  0
 87 85  1  0
M  ISO  4   6 101   8 100  10 100  48 101
M  END
>  <TORSDO>  (24) 
F 18

>  <SCORE>  (24) 
-15.672

>  <name>  (24) 
23

>  <ligand_id>  (24) 
23

>  <original_smiles>  (24) 
[H]OC(=C([H])C(=O)N1C([H])([H])C([H])([H])C([H])([H])C([H])(n2nc(-c3c([H])c([H])c(Oc4c([H])c([H])c(F)c([H])c4F)c([H])c3[H])c(C(=O)N([H])[H])c2N([H])[H])C1([H])[H])c1c([H])c([H])c(Oc2c([H])c([H])c3c(c2[H])C([H])([H])N(C(=O)C([H])(N([H])C(=O)C([H])(N([H])C([H])([H])[H])C([H])([H])[H])C(C([H])([H])[H])(C([H])([H])[H])C([H])([H])[H])C([H])(C(=O)N([H])C2([H])c4c([H])c([H])c([H])c([H])c4C([H])([H])C([H])([H])C2([H])[H])C3([H])[H])c(C([H])([H])[H])c1[H]

>  <smiles>  (24) 
[H]OC(=C([H])C(=O)N1C([H])([H])C([H])([H])C([H])([H])C([H])(n2nc(-c3c([H])c([H])c(Oc4c([H])c([H])c(F)c([H])c4F)c([H])c3[H])c(C(=O)N([H])[H])c2N([H])[H])C1([H])[H])c1c([H])c([H])c(Oc2c([H])c([H])c3c(c2[H])C([H])([H])N(C(=O)C([H])(N([H])C(=O)C([H])(N([H])C([H])([H])[H])C([H])([H])[H])C(C([H])([H])[H])(C([H])([H])[H])C([H])([H])[H])C([H])(C(=O)N([H])C2([H])c4c([H])c([H])c([H])c([H])c4C([H])([H])C([H])([H])C2([H])[H])C3([H])[H])c(C([H])([H])[H])c1[H]

$$$$
24:0:0
     RDKit          3D

 88 96  0  0  1  0  0  0  0  0999 V2000
  -26.6150  -21.8970   20.0300 C   0  0  0  0  0  3  0  0  0  0  0  0
  -26.9420  -23.2900   20.0950 C   0  0  0  0  0  3  0  0  0  0  0  0
  -29.1810  -22.4540   20.0820 C   0  0  0  0  0  3  0  0  0  0  0  0
  -28.9240  -20.8210   20.0200 C   0  0  0  0  0  0  0  0  0  0  0  0
  -27.4950  -20.7560   19.9860 C   0  0  0  0  0  0  0  0  0  0  0  0
  -28.2530  -23.8220   20.1210 C   0  0  0  0  0  0  0  0  0  0  0  0
  -26.8160  -19.4010   19.8940 C   0  0  0  0  0  1  0  0  0  0  0  0
  -29.6650  -17.5840   19.9870 C   0  0  0  0  0  3  0  0  0  0  0  0
  -29.8310  -19.1600   19.9670 C   0  0  0  0  0  0  0  0  0  0  0  0
  -30.5290  -16.0380   19.8870 C   0  0  0  0  0  0  0  0  0  0  0  0
  -30.6970  -13.4290   19.1370 C   0  0  0  0  0  2  0  0  0  0  0  0
  -29.7780  -12.9240   17.9800 C   0  0  0  0  0  2  0  0  0  0  0  0
  -28.3970  -12.5110   18.5070 C   0  0  0  0  0  2  0  0  0  0  0  0
  -27.8910  -13.5240   19.5540 C   0  0  0  0  0  3  0  0  0  0  0  0
  -28.9490  -13.9440   20.6030 C   0  0  0  0  0  2  0  0  0  0  0  0
  -30.0640  -14.6250   19.8900 N   0  0  0  0  0  0  0  0  0  0  0  0
  -31.7540  -15.9410   19.6530 O   0  0  0  0  0  0  0  0  0  0  0  0
  -25.5980  -13.9990   20.5230 C   0  0  0  0  0  0  0  0  0  0  0  0
  -24.5660  -13.2000   20.9210 C   0  0  0  0  0  0  0  0  0  0  0  0
  -25.0300  -11.8540   20.7840 C   0  0  0  0  0  0  0  0  0  0  0  0
  -26.6200  -13.1460   20.1540 N   0  0  0  0  0  0  0  0  0  0  0  0
  -26.2980  -11.8430   20.3790 N   0  0  0  0  0  0  0  0  0  0  0  0
  -24.3110  -10.5830   20.9570 C   0  0  0  0  0  0  0  0  0  0  0  0
  -24.7240   -9.6220   21.9060 C   0  0  0  0  0  3  0  0  0  0  0  0
  -24.0000   -8.4210   22.0710 C   0  0  0  0  0  3  0  0  0  0  0  0
  -22.8490   -8.1720   21.2850 C   0  0  0  0  0  0  0  0  0  0  0  0
  -22.4550   -9.1230   20.3260 C   0  0  0  0  0  3  0  0  0  0  0  0
  -23.1800  -10.3150   20.1600 C   0  0  0  0  0  3  0  0  0  0  0  0
  -22.0990   -7.0220   21.3560 O   0  0  0  0  0  0  0  0  0  0  0  0
  -21.9020   -6.3640   22.5430 C   0  0  0  0  0  0  0  0  0  0  0  0
  -21.2560   -6.9800   23.6380 C   0  0  0  0  0  3  0  0  0  0  0  0
  -21.0130   -6.2430   24.8150 C   0  0  0  0  0  3  0  0  0  0  0  0
  -21.4040   -4.8940   24.8960 C   0  0  0  0  0  0  0  0  0  0  0  0
  -22.0420   -4.2780   23.8050 C   0  0  0  0  0  3  0  0  0  0  0  0
  -22.2870   -5.0110   22.6310 C   0  0  0  0  0  0  0  0  0  0  0  0
  -22.8840   -4.4070   21.5740 F   0  0  0  0  0  0  0  0  0  0  0  0
  -21.1640   -4.1840   26.0240 F   0  0  0  0  0  0  0  0  0  0  0  0
  -23.1910  -13.6620   21.3040 C   0  0  0  0  0  0  0  0  0  0  0  0
  -22.5270  -12.9340   22.1910 N   0  0  0  0  0  0  0  0  0  0  0  0
  -22.7220  -14.7060   20.8530 O   0  0  0  0  0  0  0  0  0  0  0  0
  -22.9260  -12.0890   22.5740 H   0  0  0  0  0  0  0  0  0  0  0  0
  -21.6080  -13.2250   22.4960 H   0  0  0  0  0  0  0  0  0  0  0  0
  -25.7500  -15.3780   20.4110 N   0  0  0  0  0  0  0  0  0  0  0  0
  -24.9900  -16.0190   20.6190 H   0  0  0  0  0  0  0  0  0  0  0  0
  -26.5620  -15.8360   20.0220 H   0  0  0  0  0  0  0  0  0  0  0  0
  -31.1220  -19.4970   19.8750 O   0  0  0  0  0  0  0  0  0  0  0  0
  -31.1740  -20.4440   19.9210 H   0  0  0  0  0  0  0  0  0  0  0  0
  -28.3660  -25.4830   20.1940 O   0  0  0  0  0  0  0  0  0  0  0  0
  -24.8140  -31.8790   23.2210 C   0  0  0  0  0  0  0  0  0  0  0  0
  -27.4010  -26.7530   20.1880 C   0  0  0  0  0  0  0  0  0  0  0  0
  -23.6630  -30.5050   21.5430 C   0  0  0  0  0  3  0  0  0  0  0  0
  -25.1400  -28.8650   20.1310 C   0  0  0  0  0  0  0  0  0  0  0  0
  -26.2480  -30.6200   21.4800 C   0  0  0  0  0  2  0  0  0  0  0  0
  -26.3250  -29.1840   20.8030 C   0  0  0  0  0  0  0  0  0  0  0  0
  -27.4320  -28.1600   20.8010 C   0  0  0  0  0  3  0  0  0  0  0  0
  -26.1890  -26.6950   19.4420 C   0  0  0  0  0  3  0  0  0  0  0  0
  -25.1180  -27.6470   19.4280 C   0  0  0  0  0  3  0  0  0  0  0  0
  -23.9340  -29.8260   20.1670 C   0  0  0  0  0  2  0  0  0  0  0  0
  -24.9320  -31.0380   22.1340 N   0  0  0  0  0  0  0  0  0  0  0  0
  -23.7100  -32.1710   23.7140 O   0  0  0  0  0  0  0  0  0  0  0  0
  -22.9260  -29.5160   22.4880 C   0  0  0  0  0  0  0  0  0  0  0  0
  -21.5960  -29.3630   22.3370 N   0  0  0  0  0  0  0  0  0  0  0  0
  -23.5660  -28.8830   23.3300 O   0  0  0  0  0  0  0  0  0  0  0  0
  -21.1280  -29.9220   21.6370 H   0  0  0  0  0  0  0  0  0  0  0  0
  -18.1960  -28.1640   22.8190 C   0  0  0  0  0  0  0  0  0  0  0  0
  -20.7600  -28.4100   23.0810 C   0  0  0  0  0  3  0  0  0  0  0  0
  -20.8500  -26.9950   22.4620 C   0  0  0  0  0  2  0  0  0  0  0  0
  -19.7440  -26.7120   21.4410 C   0  0  0  0  0  2  0  0  0  0  0  0
  -18.3650  -26.8410   22.0930 C   0  0  0  0  0  2  0  0  0  0  0  0
  -19.3210  -28.9080   23.2690 C   0  0  0  0  0  0  0  0  0  0  0  0
  -19.1070  -30.1440   23.9180 C   0  0  0  0  0  3  0  0  0  0  0  0
  -17.8040  -30.6380   24.1150 C   0  0  0  0  0  3  0  0  0  0  0  0
  -16.6950  -29.8920   23.6770 C   0  0  0  0  0  3  0  0  0  0  0  0
  -16.8920  -28.6570   23.0350 C   0  0  0  0  0  3  0  0  0  0  0  0
  -26.0600  -32.5290   23.8960 C   0  0  0  0  0  3  0  0  0  0  0  0
  -25.7330  -33.9340   24.2170 N   0  0  0  0  0  0  0  0  0  0  0  0
  -26.0590  -34.9960   23.4670 C   0  0  0  0  0  0  0  0  0  0  0  0
  -26.7210  -34.8970   22.4310 O   0  0  0  0  0  0  0  0  0  0  0  0
  -25.1380  -34.0820   25.0190 H   0  0  0  0  0  0  0  0  0  0  0  0
  -24.3070  -36.7870   23.1710 C   0  0  0  0  0  1  0  0  0  0  0  0
  -25.5810  -36.3870   23.9360 C   0  0  0  0  0  3  0  0  0  0  0  0
  -27.7270  -37.3120   24.6960 C   0  0  0  0  0  1  0  0  0  0  0  0
  -26.6000  -37.4490   23.7770 N   0  0  0  0  0  0  0  0  0  0  0  0
  -26.1880  -38.3680   23.9170 H   0  0  0  0  0  0  0  0  0  0  0  0
  -26.5090  -31.7780   25.2120 C   0  0  1  0  0  0  0  0  0  0  0  0
  -25.3650  -31.5640   26.2320 C   0  0  0  0  0  1  0  0  0  0  0  0
  -27.1040  -30.3900   24.8850 C   0  0  0  0  0  1  0  0  0  0  0  0
  -27.6320  -32.5770   25.9150 C   0  0  0  0  0  1  0  0  0  0  0  0
  1  2  1  0
  2  6  2  0
  3  6  1  0
  4  3  2  0
  5  4  1  0
  5  1  2  0
  6 48  1  0
  7  5  1  0
  9  8  2  0
  9  4  1  0
 10 16  1  0
 10  8  1  0
 11 16  1  0
 12 13  1  0
 12 11  1  0
 14 13  1  0
 14 21  1  0
 14 15  1  0
 16 15  1  0
 17 10  2  0
 18 19  2  0
 19 38  1  0
 20 19  1  0
 20 23  1  0
 21 22  1  0
 21 18  1  0
 22 20  2  0
 23 24  1  0
 24 25  2  0
 26 29  1  0
 26 25  1  0
 27 26  2  0
 28 27  1  0
 28 23  2  0
 29 30  1  0
 30 35  2  0
 30 31  1  0
 31 32  2  0
 32 33  1  0
 33 37  1  0
 34 33  2  0
 35 34  1  0
 36 35  1  0
 38 39  1  0
 39 42  1  0
 39 41  1  0
 40 38  2  0
 43 18  1  0
 43 44  1  0
 45 43  1  0
 46 47  1  0
 46  9  1  0
 49 60  2  0
 50 48  1  0
 50 55  1  0
 51 59  1  0
 51 61  1  0
 52 58  1  0
 52 54  1  0
 53 59  1  0
 54 53  1  0
 55 54  2  0
 56 50  2  0
 57 56  1  0
 57 52  2  0
 58 51  1  0
 59 49  1  0
 61 63  2  0
 62 61  1  0
 64 62  1  0
 65 74  2  0
 65 70  1  0
 66 62  1  0
 66 70  1  0
 67 66  1  0
 68 69  1  0
 68 67  1  0
 69 65  1  0
 70 71  2  0
 71 72  1  0
 73 72  2  0
 74 73  1  0
 75 49  1  0
 75 76  1  0
 75 85  1  0
 76 79  1  0
 77 81  1  0
 77 76  1  0
 78 77  2  0
 81 80  1  0
 83 84  1  0
 83 81  1  0
 83 82  1  0
 85 88  1  1
 85 86  1  0
 87 85  1  0
M  ISO  4   6 101   8 100  10 100  48 101
M  END
>  <TORSDO>  (25) 
F 18

>  <SCORE>  (25) 
-14.565

>  <name>  (25) 
24

>  <ligand_id>  (25) 
24

>  <original_smiles>  (25) 
[H]OC(=C([H])C(=O)N1C([H])([H])C([H])([H])C([H])([H])C([H])(n2nc(-c3c([H])c([H])c(Oc4c([H])c([H])c(F)c([H])c4F)c([H])c3[H])c(C(=O)N([H])[H])c2N([H])[H])C1([H])[H])c1c([H])c(Oc2c([H])c([H])c3c(c2[H])C([H])([H])N(C(=O)C([H])(N([H])C(=O)C([H])(N([H])C([H])([H])[H])C([H])([H])[H])C(C([H])([H])[H])(C([H])([H])[H])C([H])([H])[H])C([H])(C(=O)N([H])C2([H])c4c([H])c([H])c([H])c([H])c4C([H])([H])C([H])([H])C2([H])[H])C3([H])[H])c([H])c([H])c1C([H])([H])[H]

>  <smiles>  (25) 
[H]OC(=C([H])C(=O)N1C([H])([H])C([H])([H])C([H])([H])C([H])(n2nc(-c3c([H])c([H])c(Oc4c([H])c([H])c(F)c([H])c4F)c([H])c3[H])c(C(=O)N([H])[H])c2N([H])[H])C1([H])[H])c1c([H])c(Oc2c([H])c([H])c3c(c2[H])C([H])([H])N(C(=O)C([H])(N([H])C(=O)C([H])(N([H])C([H])([H])[H])C([H])([H])[H])C(C([H])([H])[H])(C([H])([H])[H])C([H])([H])[H])C([H])(C(=O)N([H])C2([H])c4c([H])c([H])c([H])c([H])c4C([H])([H])C([H])([H])C2([H])[H])C3([H])[H])c([H])c([H])c1C([H])([H])[H]

$$$$
25:0:0
     RDKit          3D

 97105  0  0  1  0  0  0  0  0999 V2000
  -29.8650  -20.2250   20.5250 C   0  0  0  0  0  2  0  0  0  0  0  0
  -28.9570  -21.7320   22.4050 C   0  0  0  0  0  1  0  0  0  0  0  0
  -29.0390  -21.5200   20.8700 C   0  0  0  0  0  3  0  0  0  0  0  0
  -29.5580  -22.7320   20.1530 N   0  0  0  0  0  4  0  0  0  0  0  0
  -30.5650  -22.7290   20.2160 H   0  0  0  0  0  0  0  0  0  0  0  0
  -29.3470  -22.6150   19.1710 H   0  0  0  0  0  0  0  0  0  0  0  0
  -29.0800  -24.0860   20.5820 C   0  0  0  0  0  2  0  0  0  0  0  0
  -28.6710  -24.9940   19.3980 C   0  0  0  0  0  2  0  0  0  0  0  0
  -28.5390  -26.3670   19.8360 O   0  0  0  0  0  0  0  0  0  0  0  0
  -24.7270  -31.5140   22.9870 C   0  0  0  0  0  0  0  0  0  0  0  0
  -27.3310  -27.0520   19.8470 C   0  0  0  0  0  0  0  0  0  0  0  0
  -23.5120  -30.1450   21.3280 C   0  0  0  0  0  3  0  0  0  0  0  0
  -24.9490  -28.5950   19.8960 C   0  0  0  0  0  0  0  0  0  0  0  0
  -26.0500  -30.4620   21.1500 C   0  0  0  0  0  2  0  0  0  0  0  0
  -26.1180  -29.0990   20.4820 C   0  0  0  0  0  0  0  0  0  0  0  0
  -27.3080  -28.3360   20.4460 C   0  0  0  0  0  3  0  0  0  0  0  0
  -26.1350  -26.5600   19.2720 C   0  0  0  0  0  3  0  0  0  0  0  0
  -24.9520  -27.3280   19.2920 C   0  0  0  0  0  3  0  0  0  0  0  0
  -23.7200  -29.4700   19.9470 C   0  0  0  0  0  2  0  0  0  0  0  0
  -24.7810  -30.7210   21.8810 N   0  0  0  0  0  0  0  0  0  0  0  0
  -23.6470  -31.7890   23.5300 O   0  0  0  0  0  0  0  0  0  0  0  0
  -22.8500  -29.1180   22.2780 C   0  0  0  0  0  0  0  0  0  0  0  0
  -21.5230  -28.9640   22.1570 N   0  0  0  0  0  0  0  0  0  0  0  0
  -23.5300  -28.4630   23.0710 O   0  0  0  0  0  0  0  0  0  0  0  0
  -21.0400  -29.5430   21.4870 H   0  0  0  0  0  0  0  0  0  0  0  0
  -18.1180  -27.8770   22.7070 C   0  0  0  0  0  0  0  0  0  0  0  0
  -20.6870  -28.0300   22.9090 C   0  0  0  0  0  3  0  0  0  0  0  0
  -20.7220  -26.6170   22.2830 C   0  0  0  0  0  2  0  0  0  0  0  0
  -19.5810  -26.3720   21.2890 C   0  0  0  0  0  2  0  0  0  0  0  0
  -18.2240  -26.5480   21.9800 C   0  0  0  0  0  2  0  0  0  0  0  0
  -19.2750  -28.5820   23.1280 C   0  0  0  0  0  0  0  0  0  0  0  0
  -19.1220  -29.8300   23.7680 C   0  0  0  0  0  3  0  0  0  0  0  0
  -17.8440  -30.3740   23.9870 C   0  0  0  0  0  3  0  0  0  0  0  0
  -16.6980  -29.6630   23.5810 C   0  0  0  0  0  3  0  0  0  0  0  0
  -16.8370  -28.4170   22.9490 C   0  0  0  0  0  3  0  0  0  0  0  0
  -26.0160  -32.1300   23.6150 C   0  0  0  0  0  3  0  0  0  0  0  0
  -25.6960  -33.5090   24.0120 N   0  0  0  0  0  0  0  0  0  0  0  0
  -26.0360  -34.5980   23.3100 C   0  0  0  0  0  0  0  0  0  0  0  0
  -26.7160  -34.5430   22.2790 O   0  0  0  0  0  0  0  0  0  0  0  0
  -25.1020  -33.6240   24.8210 H   0  0  0  0  0  0  0  0  0  0  0  0
  -24.3190  -36.4110   23.0240 C   0  0  0  0  0  1  0  0  0  0  0  0
  -25.5460  -35.9610   23.8320 C   0  0  0  0  0  3  0  0  0  0  0  0
  -27.6650  -36.7960   24.7590 C   0  0  0  0  0  1  0  0  0  0  0  0
  -26.5880  -37.0130   23.7960 N   0  0  0  0  0  0  0  0  0  0  0  0
  -26.1800  -37.9260   23.9830 H   0  0  0  0  0  0  0  0  0  0  0  0
  -26.5620  -31.3020   24.8430 C   0  0  1  0  0  0  0  0  0  0  0  0
  -25.4890  -30.9950   25.9150 C   0  0  0  0  0  1  0  0  0  0  0  0
  -27.1580  -29.9540   24.3720 C   0  0  0  0  0  1  0  0  0  0  0  0
  -27.7110  -32.0770   25.5280 C   0  0  0  0  0  1  0  0  0  0  0  0
  -29.0660  -18.8760   20.5880 C   0  0  0  0  0  2  0  0  0  0  0  0
  -31.2900  -16.1560   22.2090 C   0  0  0  0  0  3  0  0  0  0  0  0
  -30.5900  -15.2640   20.0530 C   0  0  0  0  0  0  0  0  0  0  0  0
  -31.3310  -15.1340   21.2560 C   0  0  0  0  0  0  0  0  0  0  0  0
  -30.5610  -17.3320   21.9830 C   0  0  0  0  0  0  0  0  0  0  0  0
  -29.8570  -16.4780   19.7910 C   0  0  0  0  0  0  0  0  0  0  0  0
  -29.8600  -17.5430   20.7640 C   0  0  0  0  0  0  0  0  0  0  0  0
  -30.5600  -18.3450   23.1090 C   0  0  0  0  0  1  0  0  0  0  0  0
  -30.7430  -14.1780   19.0120 C   0  0  0  0  0  0  0  0  0  0  0  0
  -29.9190  -12.1940   17.8210 C   0  0  0  0  0  2  0  0  0  0  0  0
  -28.7450  -12.5990   16.9160 C   0  0  0  0  0  2  0  0  0  0  0  0
  -27.4180  -12.4720   17.6830 C   0  0  0  0  0  2  0  0  0  0  0  0
  -27.4640  -13.1720   19.0690 C   0  0  0  0  0  3  0  0  0  0  0  0
  -28.7570  -12.8410   19.8560 C   0  0  0  0  0  2  0  0  0  0  0  0
  -29.9120  -13.1000   18.9820 N   0  0  0  0  0  0  0  0  0  0  0  0
  -31.6480  -14.3390   18.1920 O   0  0  0  0  0  0  0  0  0  0  0  0
  -25.3590  -13.7860   20.4090 C   0  0  0  0  0  0  0  0  0  0  0  0
  -24.3600  -13.0240   20.9450 C   0  0  0  0  0  0  0  0  0  0  0  0
  -24.7060  -11.6680   20.6650 C   0  0  0  0  0  0  0  0  0  0  0  0
  -26.2560  -12.8970   19.8400 N   0  0  0  0  0  0  0  0  0  0  0  0
  -25.8770  -11.6090   20.0470 N   0  0  0  0  0  0  0  0  0  0  0  0
  -23.9560  -10.4240   20.9010 C   0  0  0  0  0  0  0  0  0  0  0  0
  -24.4510   -9.4200   21.7670 C   0  0  0  0  0  3  0  0  0  0  0  0
  -23.7070   -8.2420   21.9950 C   0  0  0  0  0  3  0  0  0  0  0  0
  -22.4520   -8.0600   21.3620 C   0  0  0  0  0  0  0  0  0  0  0  0
  -21.9770   -9.0510   20.4890 C   0  0  0  0  0  3  0  0  0  0  0  0
  -22.7190  -10.2220   20.2590 C   0  0  0  0  0  3  0  0  0  0  0  0
  -21.6740   -6.9360   21.5020 O   0  0  0  0  0  0  0  0  0  0  0  0
  -21.6550   -6.2130   22.6660 C   0  0  0  0  0  0  0  0  0  0  0  0
  -21.2390   -6.7810   23.8900 C   0  0  0  0  0  3  0  0  0  0  0  0
  -21.1730   -5.9850   25.0510 C   0  0  0  0  0  3  0  0  0  0  0  0
  -21.5100   -4.6190   24.9850 C   0  0  0  0  0  0  0  0  0  0  0  0
  -21.9160   -4.0470   23.7670 C   0  0  0  0  0  3  0  0  0  0  0  0
  -21.9860   -4.8440   22.6090 C   0  0  0  0  0  0  0  0  0  0  0  0
  -22.3580   -4.2860   21.4320 F   0  0  0  0  0  0  0  0  0  0  0  0
  -21.4370   -3.8510   26.0970 F   0  0  0  0  0  0  0  0  0  0  0  0
  -23.1100  -13.5260   21.6100 C   0  0  0  0  0  0  0  0  0  0  0  0
  -22.6220  -12.8100   22.6160 N   0  0  0  0  0  0  0  0  0  0  0  0
  -22.5890  -14.5860   21.2630 O   0  0  0  0  0  0  0  0  0  0  0  0
  -23.0720  -11.9500   22.8990 H   0  0  0  0  0  0  0  0  0  0  0  0
  -21.7960  -13.1170   23.1110 H   0  0  0  0  0  0  0  0  0  0  0  0
  -25.5860  -15.1570   20.3390 N   0  0  0  0  0  0  0  0  0  0  0  0
  -24.9260  -15.8400   20.6980 H   0  0  0  0  0  0  0  0  0  0  0  0
  -26.4050  -15.5740   19.9110 H   0  0  0  0  0  0  0  0  0  0  0  0
  -33.5620  -13.9890   20.8000 C   0  0  0  0  0  1  0  0  0  0  0  0
  -32.2300  -13.9390   21.5640 C   0  0  0  0  0  2  0  0  0  0  0  0
  -29.7560  -17.6140   17.4940 C   0  0  0  0  0  1  0  0  0  0  0  0
  -29.0820  -16.6370   18.4670 C   0  0  0  0  0  2  0  0  0  0  0  0
  1 50  1  0
  1  3  1  0
  3  2  1  0
  4  5  1  0
  4  7  1  0
  4  3  1  0
  6  4  1  0
  8  9  1  0
  8  7  1  0
  9 11  1  0
 10 21  2  0
 11 16  1  0
 12 20  1  0
 12 22  1  0
 13 19  1  0
 13 15  1  0
 14 20  1  0
 15 14  1  0
 16 15  2  0
 17 18  1  0
 17 11  2  0
 18 13  2  0
 19 12  1  0
 20 10  1  0
 22 24  2  0
 23 22  1  0
 25 23  1  0
 26 35  2  0
 26 31  1  0
 27 23  1  0
 27 31  1  0
 28 27  1  0
 29 30  1  0
 29 28  1  0
 30 26  1  0
 31 32  2  0
 32 33  1  0
 34 33  2  0
 35 34  1  0
 36 10  1  0
 36 37  1  0
 36 46  1  0
 37 40  1  0
 38 42  1  0
 38 37  1  0
 39 38  2  0
 42 41  1  0
 44 42  1  0
 44 45  1  0
 44 43  1  0
 46 49  1  1
 46 47  1  0
 48 46  1  0
 50 56  1  0
 52 53  1  0
 53 95  1  0
 53 51  2  0
 54 51  1  0
 54 57  1  0
 55 52  2  0
 55 56  1  0
 56 54  2  0
 58 52  1  0
 59 64  1  0
 60 61  1  0
 60 59  1  0
 62 61  1  0
 62 69  1  0
 62 63  1  0
 64 58  1  0
 64 63  1  0
 65 58  2  0
 66 67  2  0
 67 86  1  0
 68 71  1  0
 68 67  1  0
 69 70  1  0
 69 66  1  0
 70 68  2  0
 71 72  1  0
 72 73  2  0
 74 77  1  0
 74 73  1  0
 75 74  2  0
 76 75  1  0
 76 71  2  0
 77 78  1  0
 78 79  1  0
 79 80  2  0
 81 80  1  0
 81 85  1  0
 82 81  2  0
 83 78  2  0
 83 82  1  0
 84 83  1  0
 86 87  1  0
 87 89  1  0
 87 90  1  0
 88 86  2  0
 91 66  1  0
 91 92  1  0
 93 91  1  0
 94 95  1  0
 96 97  1  0
 97 55  1  0
M  ISO  4   8 101   9 101  52 100  58 100
M  END
>  <TORSDO>  (26) 
F 24

>  <SCORE>  (26) 
-8.241

>  <name>  (26) 
25

>  <ligand_id>  (26) 
25

>  <original_smiles>  (26) 
[H]c1c([H])c([H])c2c(c1[H])C([H])([H])C([H])([H])C([H])([H])C2([H])N([H])C(=O)C1([H])N(C(=O)C([H])(N([H])C(=O)C([H])(N([H])C([H])([H])[H])C([H])([H])[H])C(C([H])([H])[H])(C([H])([H])[H])C([H])([H])[H])C([H])([H])c2c([H])c(OC([H])([H])C([H])([H])[N+]([H])([H])C([H])(C([H])([H])[H])C([H])([H])C([H])([H])c3c(C([H])([H])[H])c([H])c(C([H])([H])C([H])([H])[H])c(C(=O)N4C([H])([H])C([H])([H])C([H])([H])C([H])(n5nc(-c6c([H])c([H])c(Oc7c([H])c([H])c(F)c([H])c7F)c([H])c6[H])c(C(=O)N([H])[H])c5N([H])[H])C4([H])[H])c3C([H])([H])C([H])([H])[H])c([H])c([H])c2C1([H])[H]

>  <smiles>  (26) 
[H]c1c([H])c([H])c2c(c1[H])C([H])([H])C([H])([H])C([H])([H])C2([H])N([H])C(=O)C1([H])N(C(=O)C([H])(N([H])C(=O)C([H])(N([H])C([H])([H])[H])C([H])([H])[H])C(C([H])([H])[H])(C([H])([H])[H])C([H])([H])[H])C([H])([H])c2c([H])c(OC([H])([H])C([H])([H])[N+]([H])([H])C([H])(C([H])([H])[H])C([H])([H])C([H])([H])c3c(C([H])([H])[H])c([H])c(C([H])([H])C([H])([H])[H])c(C(=O)N4C([H])([H])C([H])([H])C([H])([H])C([H])(n5nc(-c6c([H])c([H])c(Oc7c([H])c([H])c(F)c([H])c7F)c([H])c6[H])c(C(=O)N([H])[H])c5N([H])[H])C4([H])[H])c3C([H])([H])C([H])([H])[H])c([H])c([H])c2C1([H])[H]

$$$$
26:0:0
     RDKit          3D

 91 99  0  0  1  0  0  0  0  0999 V2000
  -27.7540  -22.4460   21.6140 C   0  0  0  0  0  3  0  0  0  0  0  0
  -27.0790  -23.5310   22.2030 C   0  0  0  0  0  3  0  0  0  0  0  0
  -28.8320  -24.0040   20.0950 C   0  0  0  0  0  3  0  0  0  0  0  0
  -28.6680  -22.6430   20.5610 C   0  0  0  0  0  0  0  0  0  0  0  0
  -27.2680  -24.8680   21.7620 C   0  0  0  0  0  0  0  0  0  0  0  0
  -28.1230  -25.1360   20.6520 C   0  0  0  0  0  0  0  0  0  0  0  0
  -29.4970  -21.4390   20.0660 C   0  0  0  0  0  0  0  0  0  0  0  0
  -30.6220  -21.6140   19.5900 O   0  0  0  0  0  0  0  0  0  0  0  0
  -28.9400  -19.9520   20.0750 C   0  0  0  0  0  2  0  0  0  0  0  0
  -29.7990  -18.7540   20.7130 C   0  0  0  0  0  2  0  0  0  0  0  0
  -29.6760  -17.2740   20.1010 C   0  0  0  0  0  2  0  0  0  0  0  0
  -29.9650  -15.9960   21.0290 C   0  0  0  0  0  2  0  0  0  0  0  0
  -30.6080  -14.6830   20.4010 C   0  0  0  0  0  0  0  0  0  0  0  0
  -30.3660  -12.4430   19.3320 C   0  0  0  0  0  2  0  0  0  0  0  0
  -29.4290  -12.5730   18.1120 C   0  0  0  0  0  2  0  0  0  0  0  0
  -27.9540  -12.4250   18.5370 C   0  0  0  0  0  2  0  0  0  0  0  0
  -27.6020  -13.2920   19.7770 C   0  0  0  0  0  3  0  0  0  0  0  0
  -28.6570  -13.1290   20.8910 C   0  0  0  0  0  2  0  0  0  0  0  0
  -29.9660  -13.4700   20.3200 N   0  0  0  0  0  0  0  0  0  0  0  0
  -31.7390  -14.8020   19.9220 O   0  0  0  0  0  0  0  0  0  0  0  0
  -25.2100  -13.9050   20.4810 C   0  0  0  0  0  0  0  0  0  0  0  0
  -24.1380  -13.1400   20.8530 C   0  0  0  0  0  0  0  0  0  0  0  0
  -24.5930  -11.7870   20.8350 C   0  0  0  0  0  0  0  0  0  0  0  0
  -26.2510  -13.0180   20.2580 N   0  0  0  0  0  0  0  0  0  0  0  0
  -25.8850  -11.7380   20.5310 N   0  0  0  0  0  0  0  0  0  0  0  0
  -23.8590  -10.5300   21.0350 C   0  0  0  0  0  0  0  0  0  0  0  0
  -24.2950   -9.5580   21.9620 C   0  0  0  0  0  3  0  0  0  0  0  0
  -23.5620   -8.3670   22.1490 C   0  0  0  0  0  3  0  0  0  0  0  0
  -22.3770   -8.1380   21.4090 C   0  0  0  0  0  0  0  0  0  0  0  0
  -21.9590   -9.0990   20.4710 C   0  0  0  0  0  3  0  0  0  0  0  0
  -22.6940  -10.2820   20.2810 C   0  0  0  0  0  3  0  0  0  0  0  0
  -21.6140   -7.0000   21.5060 O   0  0  0  0  0  0  0  0  0  0  0  0
  -21.5870   -6.2470   22.6530 C   0  0  0  0  0  0  0  0  0  0  0  0
  -21.2110   -6.7970   23.8970 C   0  0  0  0  0  3  0  0  0  0  0  0
  -21.1310   -5.9720   25.0360 C   0  0  0  0  0  3  0  0  0  0  0  0
  -21.4140   -4.5970   24.9330 C   0  0  0  0  0  0  0  0  0  0  0  0
  -21.7840   -4.0460   23.6920 C   0  0  0  0  0  3  0  0  0  0  0  0
  -21.8660   -4.8690   22.5550 C   0  0  0  0  0  0  0  0  0  0  0  0
  -22.2020   -4.3280   21.3590 F   0  0  0  0  0  0  0  0  0  0  0  0
  -21.3300   -3.8020   26.0250 F   0  0  0  0  0  0  0  0  0  0  0  0
  -22.7420  -13.6280   21.1170 C   0  0  0  0  0  0  0  0  0  0  0  0
  -22.0090  -12.9450   21.9890 N   0  0  0  0  0  0  0  0  0  0  0  0
  -22.3110  -14.6510   20.5860 O   0  0  0  0  0  0  0  0  0  0  0  0
  -22.3700  -12.1180   22.4410 H   0  0  0  0  0  0  0  0  0  0  0  0
  -21.0720  -13.2530   22.2080 H   0  0  0  0  0  0  0  0  0  0  0  0
  -25.3820  -15.2730   20.2930 N   0  0  0  0  0  0  0  0  0  0  0  0
  -24.6220  -15.9360   20.3990 H   0  0  0  0  0  0  0  0  0  0  0  0
  -26.2440  -15.7060   19.9840 H   0  0  0  0  0  0  0  0  0  0  0  0
  -25.6550  -25.6900   23.3650 C   0  0  0  0  0  1  0  0  0  0  0  0
  -26.6710  -25.9350   22.4020 O   0  0  0  0  0  0  0  0  0  0  0  0
  -28.2940  -26.4680   20.1730 O   0  0  0  0  0  0  0  0  0  0  0  0
  -24.5910  -31.8820   23.1850 C   0  0  0  0  0  0  0  0  0  0  0  0
  -27.2050  -27.3510   20.1040 C   0  0  0  0  0  0  0  0  0  0  0  0
  -23.3860  -30.4890   21.5380 C   0  0  0  0  0  3  0  0  0  0  0  0
  -24.8390  -28.9490   20.0990 C   0  0  0  0  0  0  0  0  0  0  0  0
  -25.9230  -30.8150   21.3540 C   0  0  0  0  0  2  0  0  0  0  0  0
  -26.0060  -29.4410   20.7000 C   0  0  0  0  0  0  0  0  0  0  0  0
  -27.1930  -28.6510   20.6980 C   0  0  0  0  0  3  0  0  0  0  0  0
  -26.0250  -26.9150   19.4650 C   0  0  0  0  0  3  0  0  0  0  0  0
  -24.8500  -27.6920   19.4730 C   0  0  0  0  0  3  0  0  0  0  0  0
  -23.5990  -29.8190   20.1540 C   0  0  0  0  0  2  0  0  0  0  0  0
  -24.6510  -31.0790   22.0820 N   0  0  0  0  0  0  0  0  0  0  0  0
  -23.5080  -32.1570   23.7220 O   0  0  0  0  0  0  0  0  0  0  0  0
  -22.7250  -29.4690   22.4950 C   0  0  0  0  0  0  0  0  0  0  0  0
  -21.3960  -29.3030   22.3760 N   0  0  0  0  0  0  0  0  0  0  0  0
  -23.4050  -28.8320   23.3030 O   0  0  0  0  0  0  0  0  0  0  0  0
  -20.9070  -29.8700   21.6980 H   0  0  0  0  0  0  0  0  0  0  0  0
  -18.0130  -28.1360   22.8990 C   0  0  0  0  0  0  0  0  0  0  0  0
  -20.5760  -28.3670   23.1460 C   0  0  0  0  0  3  0  0  0  0  0  0
  -20.6580  -26.9400   22.5560 C   0  0  0  0  0  2  0  0  0  0  0  0
  -19.5430  -26.6400   21.5490 C   0  0  0  0  0  2  0  0  0  0  0  0
  -18.1700  -26.7920   22.2070 C   0  0  0  0  0  2  0  0  0  0  0  0
  -19.1430  -28.8830   23.3250 C   0  0  0  0  0  0  0  0  0  0  0  0
  -18.9420  -30.1410   23.9330 C   0  0  0  0  0  3  0  0  0  0  0  0
  -17.6440  -30.6530   24.1180 C   0  0  0  0  0  3  0  0  0  0  0  0
  -16.5290  -29.9040   23.7060 C   0  0  0  0  0  3  0  0  0  0  0  0
  -16.7140  -28.6460   23.1030 C   0  0  0  0  0  3  0  0  0  0  0  0
  -25.8740  -32.5120   23.8090 C   0  0  0  0  0  3  0  0  0  0  0  0
  -25.5640  -33.9060   24.1530 N   0  0  0  0  0  0  0  0  0  0  0  0
  -25.8960  -34.9670   23.4060 C   0  0  0  0  0  0  0  0  0  0  0  0
  -26.5660  -34.8740   22.3730 O   0  0  0  0  0  0  0  0  0  0  0  0
  -24.9690  -34.0520   24.9560 H   0  0  0  0  0  0  0  0  0  0  0  0
  -24.1660  -36.7630   23.0700 C   0  0  0  0  0  1  0  0  0  0  0  0
  -25.4080  -36.3500   23.8770 C   0  0  0  0  0  3  0  0  0  0  0  0
  -27.5450  -37.2260   24.7140 C   0  0  0  0  0  1  0  0  0  0  0  0
  -26.4400  -37.4050   23.7740 N   0  0  0  0  0  0  0  0  0  0  0  0
  -26.0340  -38.3230   23.9330 H   0  0  0  0  0  0  0  0  0  0  0  0
  -26.3940  -31.7290   25.0780 C   0  0  1  0  0  0  0  0  0  0  0  0
  -25.3050  -31.4840   26.1480 C   0  0  0  0  0  1  0  0  0  0  0  0
  -26.9750  -30.3540   24.6730 C   0  0  0  0  0  1  0  0  0  0  0  0
  -27.5490  -32.5170   25.7420 C   0  0  0  0  0  1  0  0  0  0  0  0
  1  2  1  0
  3  4  1  0
  3  6  2  0
  4  1  2  0
  5  2  2  0
  5 50  1  0
  6  5  1  0
  7  9  1  0
  7  4  1  0
  8  7  2  0
  9 10  1  0
 11 10  1  0
 11 12  1  0
 13 12  1  0
 14 19  1  0
 15 16  1  0
 15 14  1  0
 17 16  1  0
 17 24  1  0
 17 18  1  0
 19 13  1  0
 19 18  1  0
 20 13  2  0
 21 22  2  0
 22 41  1  0
 23 22  1  0
 23 26  1  0
 24 21  1  0
 24 25  1  0
 25 23  2  0
 26 27  1  0
 27 28  2  0
 29 32  1  0
 29 28  1  0
 30 29  2  0
 31 30  1  0
 31 26  2  0
 32 33  1  0
 33 34  1  0
 34 35  2  0
 36 35  1  0
 36 40  1  0
 37 36  2  0
 38 33  2  0
 38 37  1  0
 39 38  1  0
 41 42  1  0
 42 45  1  0
 42 44  1  0
 43 41  2  0
 46 47  1  0
 46 21  1  0
 48 46  1  0
 50 49  1  0
 51  6  1  0
 52 63  2  0
 53 51  1  0
 53 58  1  0
 54 62  1  0
 54 64  1  0
 55 61  1  0
 55 57  1  0
 56 62  1  0
 57 56  1  0
 58 57  2  0
 59 60  1  0
 59 53  2  0
 60 55  2  0
 61 54  1  0
 62 52  1  0
 64 66  2  0
 65 64  1  0
 67 65  1  0
 68 77  2  0
 68 73  1  0
 69 65  1  0
 69 73  1  0
 70 69  1  0
 71 72  1  0
 71 70  1  0
 72 68  1  0
 73 74  2  0
 74 75  1  0
 76 75  2  0
 77 76  1  0
 78 52  1  0
 78 79  1  0
 78 88  1  0
 79 82  1  0
 80 84  1  0
 80 79  1  0
 81 80  2  0
 84 83  1  0
 86 84  1  0
 86 87  1  0
 86 85  1  0
 88 91  1  1
 88 89  1  0
 90 88  1  0
M  ISO  4   6 101  12 100  13 100  51 101
M  END
>  <TORSDO>  (27) 
F 22

>  <SCORE>  (27) 
-13.030

>  <name>  (27) 
26

>  <ligand_id>  (27) 
26

>  <original_smiles>  (27) 
[H]c1c([H])c([H])c2c(c1[H])C([H])([H])C([H])([H])C([H])([H])C2([H])N([H])C(=O)C1([H])N(C(=O)C([H])(N([H])C(=O)C([H])(N([H])C([H])([H])[H])C([H])([H])[H])C(C([H])([H])[H])(C([H])([H])[H])C([H])([H])[H])C([H])([H])c2c([H])c(Oc3c([H])c(C(=O)C([H])([H])C([H])([H])C([H])([H])C([H])([H])C(=O)N4C([H])([H])C([H])([H])C([H])([H])C([H])(n5nc(-c6c([H])c([H])c(Oc7c([H])c([H])c(F)c([H])c7F)c([H])c6[H])c(C(=O)N([H])[H])c5N([H])[H])C4([H])[H])c([H])c([H])c3OC([H])([H])[H])c([H])c([H])c2C1([H])[H]

>  <smiles>  (27) 
[H]c1c([H])c([H])c2c(c1[H])C([H])([H])C([H])([H])C([H])([H])C2([H])N([H])C(=O)C1([H])N(C(=O)C([H])(N([H])C(=O)C([H])(N([H])C([H])([H])[H])C([H])([H])[H])C(C([H])([H])[H])(C([H])([H])[H])C([H])([H])[H])C([H])([H])c2c([H])c(Oc3c([H])c(C(=O)C([H])([H])C([H])([H])C([H])([H])C([H])([H])C(=O)N4C([H])([H])C([H])([H])C([H])([H])C([H])(n5nc(-c6c([H])c([H])c(Oc7c([H])c([H])c(F)c([H])c7F)c([H])c6[H])c(C(=O)N([H])[H])c5N([H])[H])C4([H])[H])c([H])c([H])c3OC([H])([H])[H])c([H])c([H])c2C1([H])[H]

$$$$
27:0:0
     RDKit          3D

 89 97  0  0  1  0  0  0  0  0999 V2000
  -27.4740  -20.8000   20.2000 C   0  0  0  0  0  3  0  0  0  0  0  0
  -26.5600  -21.8970   20.3360 C   0  0  0  0  0  3  0  0  0  0  0  0
  -29.0860  -22.5430   20.0180 C   0  0  0  0  0  3  0  0  0  0  0  0
  -28.8740  -20.9040   20.0670 C   0  0  0  0  0  0  0  0  0  0  0  0
  -26.8290  -23.3190   20.3320 C   0  0  0  0  0  0  0  0  0  0  0  0
  -28.1280  -23.8850   20.1240 C   0  0  0  0  0  0  0  0  0  0  0  0
  -29.5830  -17.6800   20.0960 C   0  0  0  0  0  3  0  0  0  0  0  0
  -29.7670  -19.2470   20.0030 C   0  0  0  0  0  0  0  0  0  0  0  0
  -30.4340  -16.1270   20.0120 C   0  0  0  0  0  0  0  0  0  0  0  0
  -30.6180  -13.5150   19.2830 C   0  0  0  0  0  2  0  0  0  0  0  0
  -29.7380  -13.0020   18.1020 C   0  0  0  0  0  2  0  0  0  0  0  0
  -28.3380  -12.6010   18.5870 C   0  0  0  0  0  2  0  0  0  0  0  0
  -27.8020  -13.6150   19.6170 C   0  0  0  0  0  3  0  0  0  0  0  0
  -28.8280  -14.0390   20.6960 C   0  0  0  0  0  2  0  0  0  0  0  0
  -29.9660  -14.7140   20.0140 N   0  0  0  0  0  0  0  0  0  0  0  0
  -31.6650  -16.0220   19.8160 O   0  0  0  0  0  0  0  0  0  0  0  0
  -25.4630  -14.0890   20.4740 C   0  0  0  0  0  0  0  0  0  0  0  0
  -24.4240  -13.2870   20.8520 C   0  0  0  0  0  0  0  0  0  0  0  0
  -24.9110  -11.9450   20.7770 C   0  0  0  0  0  0  0  0  0  0  0  0
  -26.5100  -13.2370   20.1760 N   0  0  0  0  0  0  0  0  0  0  0  0
  -26.1960  -11.9380   20.4270 N   0  0  0  0  0  0  0  0  0  0  0  0
  -24.2020  -10.6700   20.9610 C   0  0  0  0  0  0  0  0  0  0  0  0
  -24.6240   -9.7170   21.9140 C   0  0  0  0  0  3  0  0  0  0  0  0
  -23.9100   -8.5110   22.0880 C   0  0  0  0  0  3  0  0  0  0  0  0
  -22.7600   -8.2470   21.3070 C   0  0  0  0  0  0  0  0  0  0  0  0
  -22.3540   -9.1890   20.3440 C   0  0  0  0  0  3  0  0  0  0  0  0
  -23.0690  -10.3870   20.1700 C   0  0  0  0  0  3  0  0  0  0  0  0
  -22.0200   -7.0930   21.3900 O   0  0  0  0  0  0  0  0  0  0  0  0
  -21.8950   -6.3980   22.5660 C   0  0  0  0  0  0  0  0  0  0  0  0
  -21.3080   -6.9750   23.7140 C   0  0  0  0  0  3  0  0  0  0  0  0
  -21.1370   -6.2040   24.8800 C   0  0  0  0  0  3  0  0  0  0  0  0
  -21.5400   -4.8550   24.8990 C   0  0  0  0  0  0  0  0  0  0  0  0
  -22.1200   -4.2770   23.7560 C   0  0  0  0  0  3  0  0  0  0  0  0
  -22.2930   -5.0450   22.5920 C   0  0  0  0  0  0  0  0  0  0  0  0
  -22.8320   -4.4780   21.4860 F   0  0  0  0  0  0  0  0  0  0  0  0
  -21.3690   -4.1120   26.0170 F   0  0  0  0  0  0  0  0  0  0  0  0
  -23.0280  -13.7400   21.1600 C   0  0  0  0  0  0  0  0  0  0  0  0
  -22.3350  -13.0330   22.0440 N   0  0  0  0  0  0  0  0  0  0  0  0
  -22.5650  -14.7600   20.6530 O   0  0  0  0  0  0  0  0  0  0  0  0
  -22.7250  -12.2070   22.4750 H   0  0  0  0  0  0  0  0  0  0  0  0
  -21.3990  -13.3210   22.2950 H   0  0  0  0  0  0  0  0  0  0  0  0
  -25.6020  -15.4650   20.3220 N   0  0  0  0  0  0  0  0  0  0  0  0
  -24.8290  -16.1040   20.4780 H   0  0  0  0  0  0  0  0  0  0  0  0
  -26.4300  -15.9200   19.9610 H   0  0  0  0  0  0  0  0  0  0  0  0
  -31.0470  -19.5660   19.7740 O   0  0  0  0  0  0  0  0  0  0  0  0
  -31.1060  -20.5120   19.7360 H   0  0  0  0  0  0  0  0  0  0  0  0
  -24.4760  -23.7760   20.7260 C   0  0  0  0  0  1  0  0  0  0  0  0
  -25.8160  -24.2260   20.5600 O   0  0  0  0  0  0  0  0  0  0  0  0
  -28.2370  -25.5550   20.1080 O   0  0  0  0  0  0  0  0  0  0  0  0
  -24.7460  -31.9570   23.2220 C   0  0  0  0  0  0  0  0  0  0  0  0
  -27.2830  -26.8380   20.1260 C   0  0  0  0  0  0  0  0  0  0  0  0
  -23.5720  -30.5870   21.5590 C   0  0  0  0  0  3  0  0  0  0  0  0
  -25.0300  -28.9600   20.1130 C   0  0  0  0  0  0  0  0  0  0  0  0
  -26.1570  -30.6960   21.4650 C   0  0  0  0  0  2  0  0  0  0  0  0
  -26.2210  -29.2650   20.7780 C   0  0  0  0  0  0  0  0  0  0  0  0
  -27.3210  -28.2350   20.7600 C   0  0  0  0  0  3  0  0  0  0  0  0
  -26.0730  -26.8080   19.3730 C   0  0  0  0  0  3  0  0  0  0  0  0
  -25.0010  -27.7590   19.3870 C   0  0  0  0  0  3  0  0  0  0  0  0
  -23.8230  -29.9200   20.1760 C   0  0  0  0  0  2  0  0  0  0  0  0
  -24.8490  -31.1170   22.1330 N   0  0  0  0  0  0  0  0  0  0  0  0
  -23.6500  -32.2450   23.7330 O   0  0  0  0  0  0  0  0  0  0  0  0
  -22.8490  -29.5930   22.5090 C   0  0  0  0  0  0  0  0  0  0  0  0
  -21.5200  -29.4240   22.3640 N   0  0  0  0  0  0  0  0  0  0  0  0
  -23.4970  -28.9700   23.3510 O   0  0  0  0  0  0  0  0  0  0  0  0
  -21.0400  -29.9740   21.6650 H   0  0  0  0  0  0  0  0  0  0  0  0
  -18.1360  -28.1900   22.8700 C   0  0  0  0  0  0  0  0  0  0  0  0
  -20.6990  -28.4660   23.1180 C   0  0  0  0  0  3  0  0  0  0  0  0
  -20.7980  -27.0480   22.5090 C   0  0  0  0  0  2  0  0  0  0  0  0
  -19.6930  -26.7510   21.4920 C   0  0  0  0  0  2  0  0  0  0  0  0
  -18.3130  -26.8660   22.1440 C   0  0  0  0  0  2  0  0  0  0  0  0
  -19.2540  -28.9490   23.3110 C   0  0  0  0  0  0  0  0  0  0  0  0
  -19.0300  -30.1870   23.9480 C   0  0  0  0  0  3  0  0  0  0  0  0
  -17.7230  -30.6690   24.1490 C   0  0  0  0  0  3  0  0  0  0  0  0
  -16.6210  -29.9100   23.7220 C   0  0  0  0  0  3  0  0  0  0  0  0
  -16.8260  -28.6700   23.0900 C   0  0  0  0  0  3  0  0  0  0  0  0
  -26.0020  -32.6060   23.8820 C   0  0  0  0  0  3  0  0  0  0  0  0
  -26.4860  -31.8400   25.1780 C   0  0  1  0  0  0  0  0  0  0  0  0
  -25.3660  -31.6060   26.2190 C   0  0  0  0  0  1  0  0  0  0  0  0
  -27.0820  -30.4610   24.8230 C   0  0  0  0  0  1  0  0  0  0  0  0
  -27.6200  -32.6390   25.8640 C   0  0  0  0  0  1  0  0  0  0  0  0
  -25.6720  -34.0040   24.2270 N   0  0  0  0  0  0  0  0  0  0  0  0
  -25.9630  -35.0770   23.4790 C   0  0  0  0  0  0  0  0  0  0  0  0
  -26.5910  -34.9950   22.4200 O   0  0  0  0  0  0  0  0  0  0  0  0
  -25.1070  -34.1380   25.0530 H   0  0  0  0  0  0  0  0  0  0  0  0
  -24.1830  -36.8510   23.2620 C   0  0  0  0  0  1  0  0  0  0  0  0
  -25.4850  -36.4590   23.9780 C   0  0  0  0  0  3  0  0  0  0  0  0
  -27.6490  -37.3990   24.6710 C   0  0  0  0  0  1  0  0  0  0  0  0
  -26.4880  -37.5350   23.7950 N   0  0  0  0  0  0  0  0  0  0  0  0
  -26.0710  -38.4480   23.9610 H   0  0  0  0  0  0  0  0  0  0  0  0
  1  2  1  0
  3  4  1  0
  3  6  2  0
  4  1  2  0
  5  2  2  0
  5 48  1  0
  6  5  1  0
  8  4  1  0
  8  7  2  0
  9 15  1  0
  9  7  1  0
 10 15  1  0
 11 12  1  0
 11 10  1  0
 13 12  1  0
 13 20  1  0
 13 14  1  0
 15 14  1  0
 16  9  2  0
 17 18  2  0
 18 37  1  0
 19 18  1  0
 19 22  1  0
 20 21  1  0
 20 17  1  0
 21 19  2  0
 22 23  1  0
 23 24  2  0
 25 28  1  0
 25 24  1  0
 26 25  2  0
 27 26  1  0
 27 22  2  0
 28 29  1  0
 29 34  2  0
 29 30  1  0
 30 31  2  0
 31 32  1  0
 32 36  1  0
 33 32  2  0
 34 33  1  0
 35 34  1  0
 37 38  1  0
 38 41  1  0
 38 40  1  0
 39 37  2  0
 42 17  1  0
 42 43  1  0
 44 42  1  0
 45  8  1  0
 46 45  1  0
 48 47  1  0
 49  6  1  0
 49 51  1  0
 50 61  2  0
 51 56  1  0
 52 60  1  0
 52 62  1  0
 53 59  1  0
 53 55  1  0
 54 60  1  0
 55 54  1  0
 56 55  2  0
 57 58  1  0
 57 51  2  0
 58 53  2  0
 59 52  1  0
 60 50  1  0
 62 64  2  0
 63 62  1  0
 65 63  1  0
 66 75  2  0
 66 71  1  0
 67 63  1  0
 67 71  1  0
 68 67  1  0
 69 70  1  0
 69 68  1  0
 70 66  1  0
 71 72  2  0
 72 73  1  0
 74 73  2  0
 75 74  1  0
 76 50  1  0
 76 81  1  0
 76 77  1  0
 77 80  1  1
 77 78  1  0
 79 77  1  0
 81 84  1  0
 82 86  1  0
 82 81  1  0
 83 82  2  0
 86 85  1  0
 88 89  1  0
 88 86  1  0
 88 87  1  0
M  ISO  4   6 101   7 100   9 100  49 101
M  END
>  <TORSDO>  (28) 
F 19

>  <SCORE>  (28) 
-14.915

>  <name>  (28) 
27

>  <ligand_id>  (28) 
27

>  <original_smiles>  (28) 
[H]OC(=C([H])C(=O)N1C([H])([H])C([H])([H])C([H])([H])C([H])(n2nc(-c3c([H])c([H])c(Oc4c([H])c([H])c(F)c([H])c4F)c([H])c3[H])c(C(=O)N([H])[H])c2N([H])[H])C1([H])[H])c1c([H])c([H])c(OC([H])([H])[H])c(Oc2c([H])c([H])c3c(c2[H])C([H])([H])N(C(=O)C([H])(N([H])C(=O)C([H])(N([H])C([H])([H])[H])C([H])([H])[H])C(C([H])([H])[H])(C([H])([H])[H])C([H])([H])[H])C([H])(C(=O)N([H])C2([H])c4c([H])c([H])c([H])c([H])c4C([H])([H])C([H])([H])C2([H])[H])C3([H])[H])c1[H]

>  <smiles>  (28) 
[H]OC(=C([H])C(=O)N1C([H])([H])C([H])([H])C([H])([H])C([H])(n2nc(-c3c([H])c([H])c(Oc4c([H])c([H])c(F)c([H])c4F)c([H])c3[H])c(C(=O)N([H])[H])c2N([H])[H])C1([H])[H])c1c([H])c([H])c(OC([H])([H])[H])c(Oc2c([H])c([H])c3c(c2[H])C([H])([H])N(C(=O)C([H])(N([H])C(=O)C([H])(N([H])C([H])([H])[H])C([H])([H])[H])C(C([H])([H])[H])(C([H])([H])[H])C([H])([H])[H])C([H])(C(=O)N([H])C2([H])c4c([H])c([H])c([H])c([H])c4C([H])([H])C([H])([H])C2([H])[H])C3([H])[H])c1[H]

$$$$
28:0:0
     RDKit          3D

 92100  0  0  1  0  0  0  0  0999 V2000
  -27.1350  -22.6720   19.2790 C   0  0  0  0  0  3  0  0  0  0  0  0
  -25.7820  -22.9030   19.5950 C   0  0  0  0  0  3  0  0  0  0  0  0
  -26.4680  -24.5930   21.2050 C   0  0  0  0  0  3  0  0  0  0  0  0
  -28.1580  -23.3140   20.0140 C   0  0  0  0  0  0  0  0  0  0  0  0
  -25.4600  -23.7910   20.6390 C   0  0  0  0  0  0  0  0  0  0  0  0
  -27.7430  -24.6530   20.5800 C   0  0  0  0  0  0  0  0  0  0  0  0
  -28.9020  -22.0780   20.7430 C   0  0  0  0  0  0  0  0  0  0  0  0
  -29.1860  -22.2050   21.9350 O   0  0  0  0  0  0  0  0  0  0  0  0
  -29.3690  -20.6250   20.0630 C   0  0  0  0  0  2  0  0  0  0  0  0
  -29.0890  -19.0420   20.6060 C   0  0  0  0  0  3  0  0  0  0  0  0
  -30.0810  -17.7110   20.2650 C   0  0  0  0  0  3  0  0  0  0  0  0
  -30.5180  -14.9910   20.2480 C   0  0  0  0  0  0  0  0  0  0  0  0
  -30.3930  -12.6500   19.2760 C   0  0  0  0  0  2  0  0  0  0  0  0
  -29.4530  -12.6380   18.0440 C   0  0  0  0  0  2  0  0  0  0  0  0
  -27.9850  -12.4410   18.4690 C   0  0  0  0  0  2  0  0  0  0  0  0
  -27.5990  -13.3300   19.6840 C   0  0  0  0  0  3  0  0  0  0  0  0
  -28.6600  -13.3140   20.8020 C   0  0  0  0  0  2  0  0  0  0  0  0
  -29.9260  -13.7310   20.1940 N   0  0  0  0  0  0  0  0  0  0  0  0
  -31.7090  -15.0630   19.9240 O   0  0  0  0  0  0  0  0  0  0  0  0
  -29.7420  -16.1710   20.4580 N   0  0  0  0  0  0  0  0  0  0  0  0
  -28.7790  -15.9770   20.6900 H   0  0  0  0  0  0  0  0  0  0  0  0
  -25.2240  -13.9050   20.4330 C   0  0  0  0  0  0  0  0  0  0  0  0
  -24.1650  -13.1300   20.8150 C   0  0  0  0  0  0  0  0  0  0  0  0
  -24.6310  -11.7790   20.7850 C   0  0  0  0  0  0  0  0  0  0  0  0
  -26.2650  -13.0300   20.1910 N   0  0  0  0  0  0  0  0  0  0  0  0
  -25.9220  -11.7430   20.4680 N   0  0  0  0  0  0  0  0  0  0  0  0
  -23.9080  -10.5160   20.9860 C   0  0  0  0  0  0  0  0  0  0  0  0
  -24.3450   -9.5550   21.9230 C   0  0  0  0  0  3  0  0  0  0  0  0
  -23.6210   -8.3570   22.1110 C   0  0  0  0  0  3  0  0  0  0  0  0
  -22.4470   -8.1140   21.3610 C   0  0  0  0  0  0  0  0  0  0  0  0
  -22.0280   -9.0640   20.4130 C   0  0  0  0  0  3  0  0  0  0  0  0
  -22.7550  -10.2520   20.2230 C   0  0  0  0  0  3  0  0  0  0  0  0
  -21.6930   -6.9700   21.4580 O   0  0  0  0  0  0  0  0  0  0  0  0
  -21.6430   -6.2350   22.6160 C   0  0  0  0  0  0  0  0  0  0  0  0
  -21.2180   -6.7980   23.8390 C   0  0  0  0  0  3  0  0  0  0  0  0
  -21.1160   -5.9900   24.9880 C   0  0  0  0  0  3  0  0  0  0  0  0
  -21.4310   -4.6190   24.9180 C   0  0  0  0  0  0  0  0  0  0  0  0
  -21.8520   -4.0550   23.6990 C   0  0  0  0  0  3  0  0  0  0  0  0
  -21.9550   -4.8610   22.5530 C   0  0  0  0  0  0  0  0  0  0  0  0
  -22.3390   -4.3090   21.3750 F   0  0  0  0  0  0  0  0  0  0  0  0
  -21.3280   -3.8410   26.0190 F   0  0  0  0  0  0  0  0  0  0  0  0
  -22.7690  -13.6050   21.0930 C   0  0  0  0  0  0  0  0  0  0  0  0
  -22.0490  -12.9120   21.9660 N   0  0  0  0  0  0  0  0  0  0  0  0
  -22.3260  -14.6250   20.5690 O   0  0  0  0  0  0  0  0  0  0  0  0
  -22.4220  -12.0850   22.4130 H   0  0  0  0  0  0  0  0  0  0  0  0
  -21.1100  -13.2120   22.1970 H   0  0  0  0  0  0  0  0  0  0  0  0
  -25.3770  -15.2760   20.2450 N   0  0  0  0  0  0  0  0  0  0  0  0
  -24.5960  -15.9150   20.3440 H   0  0  0  0  0  0  0  0  0  0  0  0
  -26.2020  -15.7190   19.8670 H   0  0  0  0  0  0  0  0  0  0  0  0
  -23.2230  -24.2410   20.0210 C   0  0  0  0  0  1  0  0  0  0  0  0
  -24.1680  -23.9940   21.0550 O   0  0  0  0  0  0  0  0  0  0  0  0
  -28.1590  -26.0520   20.2690 O   0  0  0  0  0  0  0  0  0  0  0  0
  -24.6310  -31.8520   23.1950 C   0  0  0  0  0  0  0  0  0  0  0  0
  -27.2030  -27.1430   20.1520 C   0  0  0  0  0  0  0  0  0  0  0  0
  -23.4360  -30.4700   21.5400 C   0  0  0  0  0  3  0  0  0  0  0  0
  -24.9050  -28.9240   20.0940 C   0  0  0  0  0  0  0  0  0  0  0  0
  -25.9990  -30.7340   21.4000 C   0  0  0  0  0  2  0  0  0  0  0  0
  -26.0800  -29.3430   20.7350 C   0  0  0  0  0  0  0  0  0  0  0  0
  -27.2280  -28.4620   20.7650 C   0  0  0  0  0  3  0  0  0  0  0  0
  -26.0380  -26.8760   19.4030 C   0  0  0  0  0  3  0  0  0  0  0  0
  -24.9000  -27.7000   19.4110 C   0  0  0  0  0  3  0  0  0  0  0  0
  -23.6640  -29.8040   20.1560 C   0  0  0  0  0  2  0  0  0  0  0  0
  -24.7080  -31.0360   22.0990 N   0  0  0  0  0  0  0  0  0  0  0  0
  -23.5420  -32.1360   23.7160 O   0  0  0  0  0  0  0  0  0  0  0  0
  -22.7530  -29.4570   22.4970 C   0  0  0  0  0  0  0  0  0  0  0  0
  -21.4210  -29.2990   22.3790 N   0  0  0  0  0  0  0  0  0  0  0  0
  -23.4260  -28.8100   23.3030 O   0  0  0  0  0  0  0  0  0  0  0  0
  -20.9240  -29.9150   21.7460 H   0  0  0  0  0  0  0  0  0  0  0  0
  -18.0410  -28.1010   22.8380 C   0  0  0  0  0  0  0  0  0  0  0  0
  -20.5970  -28.3540   23.1340 C   0  0  0  0  0  3  0  0  0  0  0  0
  -20.6930  -26.9250   22.5450 C   0  0  0  0  0  2  0  0  0  0  0  0
  -19.6170  -26.6320   21.4970 C   0  0  0  0  0  2  0  0  0  0  0  0
  -18.2190  -26.7790   22.1020 C   0  0  0  0  0  2  0  0  0  0  0  0
  -19.1580  -28.8480   23.3020 C   0  0  0  0  0  0  0  0  0  0  0  0
  -18.9380  -30.0950   23.9290 C   0  0  0  0  0  3  0  0  0  0  0  0
  -17.6340  -30.5950   24.1060 C   0  0  0  0  0  3  0  0  0  0  0  0
  -16.5340  -29.8490   23.6590 C   0  0  0  0  0  3  0  0  0  0  0  0
  -16.7370  -28.6050   23.0350 C   0  0  0  0  0  3  0  0  0  0  0  0
  -25.9060  -32.4870   23.8300 C   0  0  0  0  0  3  0  0  0  0  0  0
  -25.5950  -33.8860   24.1650 N   0  0  0  0  0  0  0  0  0  0  0  0
  -25.9200  -34.9460   23.4120 C   0  0  0  0  0  0  0  0  0  0  0  0
  -26.5850  -34.8480   22.3780 O   0  0  0  0  0  0  0  0  0  0  0  0
  -25.0100  -34.0400   24.9730 H   0  0  0  0  0  0  0  0  0  0  0  0
  -24.1890  -36.7420   23.0780 C   0  0  0  0  0  1  0  0  0  0  0  0
  -25.4330  -36.3320   23.8830 C   0  0  0  0  0  3  0  0  0  0  0  0
  -27.5670  -37.2160   24.7150 C   0  0  0  0  0  1  0  0  0  0  0  0
  -26.4630  -37.3890   23.7750 N   0  0  0  0  0  0  0  0  0  0  0  0
  -26.0530  -38.3070   23.9270 H   0  0  0  0  0  0  0  0  0  0  0  0
  -26.4080  -31.7160   25.1130 C   0  0  1  0  0  0  0  0  0  0  0  0
  -25.3010  -31.4870   26.1680 C   0  0  0  0  0  1  0  0  0  0  0  0
  -26.9920  -30.3350   24.7350 C   0  0  0  0  0  1  0  0  0  0  0  0
  -27.5530  -32.5090   25.7850 C   0  0  0  0  0  1  0  0  0  0  0  0
  1  2  2  0
  1  4  1  0
  2  5  1  0
  4  6  2  3
  4  7  1  0
  5 51  1  0
  5  3  2  0
  6  3  1  0
  7  8  2  0
  9 10  1  0
  9  7  1  0
 11 20  1  0
 11 10  2  0
 12 20  1  0
 13 18  1  0
 14 15  1  0
 14 13  1  0
 16 15  1  0
 16 25  1  0
 16 17  1  0
 18 12  1  0
 18 17  1  0
 19 12  2  0
 20 21  1  0
 22 23  2  0
 23 42  1  0
 24 23  1  0
 24 27  1  0
 25 22  1  0
 25 26  1  0
 26 24  2  0
 27 28  1  0
 28 29  2  0
 30 33  1  0
 30 29  1  0
 31 30  2  0
 32 31  1  0
 32 27  2  0
 33 34  1  0
 34 35  1  0
 35 36  2  0
 37 36  1  0
 37 41  1  0
 38 37  2  0
 39 34  2  0
 39 38  1  0
 40 39  1  0
 42 43  1  0
 43 46  1  0
 43 45  1  0
 44 42  2  0
 47 48  1  0
 47 22  1  0
 49 47  1  0
 50 51  1  0
 52  6  1  0
 53 64  2  0
 54 52  1  0
 54 59  1  0
 55 63  1  0
 55 65  1  0
 56 62  1  0
 56 58  1  0
 57 63  1  0
 58 59  2  0
 58 57  1  0
 60 61  1  0
 60 54  2  0
 61 56  2  0
 62 55  1  0
 63 53  1  0
 65 67  2  0
 66 65  1  0
 68 66  1  0
 69 78  2  0
 69 74  1  0
 70 66  1  0
 70 74  1  0
 71 70  1  0
 72 73  1  0
 72 71  1  0
 73 69  1  0
 74 75  2  0
 75 76  1  0
 77 76  2  0
 78 77  1  0
 79 53  1  0
 79 80  1  0
 79 89  1  0
 80 83  1  0
 81 85  1  0
 81 80  1  0
 82 81  2  0
 85 84  1  0
 87 85  1  0
 87 88  1  0
 87 86  1  0
 89 92  1  1
 89 90  1  0
 91 89  1  0
M  ISO  4   6 101  12 100  20 100  52 101
M  END
>  <TORSDO>  (29) 
F 21

>  <SCORE>  (29) 
-14.911

>  <name>  (29) 
28

>  <ligand_id>  (29) 
28

>  <original_smiles>  (29) 
[H]c1c([H])c([H])c2c(c1[H])C([H])([H])C([H])([H])C([H])([H])C2([H])N([H])C(=O)C1([H])N(C(=O)C([H])(N([H])C(=O)C([H])(N([H])C([H])([H])[H])C([H])([H])[H])C(C([H])([H])[H])(C([H])([H])[H])C([H])([H])[H])C([H])([H])c2c([H])c(Oc3c([H])c(OC([H])([H])[H])c([H])c([H])c3C(=O)C([H])([H])C([H])([H])C([H])([H])N([H])C(=O)N3C([H])([H])C([H])([H])C([H])([H])C([H])(n4nc(-c5c([H])c([H])c(Oc6c([H])c([H])c(F)c([H])c6F)c([H])c5[H])c(C(=O)N([H])[H])c4N([H])[H])C3([H])[H])c([H])c([H])c2C1([H])[H]

>  <smiles>  (29) 
[H]c1c([H])c([H])c2c(c1[H])C([H])([H])C([H])([H])C([H])([H])C2([H])N([H])C(=O)C1([H])N(C(=O)C([H])(N([H])C(=O)C([H])(N([H])C([H])([H])[H])C([H])([H])[H])C(C([H])([H])[H])(C([H])([H])[H])C([H])([H])[H])C([H])([H])c2c([H])c(Oc3c([H])c(OC([H])([H])[H])c([H])c([H])c3C(=O)C([H])([H])C([H])([H])C([H])([H])N([H])C(=O)N3C([H])([H])C([H])([H])C([H])([H])C([H])(n4nc(-c5c([H])c([H])c(Oc6c([H])c([H])c(F)c([H])c6F)c([H])c5[H])c(C(=O)N([H])[H])c4N([H])[H])C3([H])[H])c([H])c([H])c2C1([H])[H]

$$$$
29:0:0
     RDKit          3D

 92100  0  0  1  0  0  0  0  0999 V2000
  -28.9420  -23.1870   19.5940 C   0  0  0  0  0  3  0  0  0  0  0  0
  -28.0660  -22.9000   22.1300 C   0  0  0  0  0  3  0  0  0  0  0  0
  -29.0260  -21.7270   20.1520 C   0  0  0  0  0  0  0  0  0  0  0  0
  -28.0170  -24.2130   21.5750 C   0  0  0  0  0  0  0  0  0  0  0  0
  -28.4310  -24.5130   20.2480 C   0  0  0  0  0  0  0  0  0  0  0  0
  -28.5330  -21.7290   21.4730 C   0  0  0  0  0  0  0  0  0  0  0  0
  -28.4690  -20.5530   22.1430 F   0  0  0  0  0  0  0  0  0  0  0  0
  -27.5710  -25.2420   22.4030 N   0  0  0  0  0  0  0  0  0  0  0  0
  -26.9670  -25.0090   23.1850 H   0  0  0  0  0  0  0  0  0  0  0  0
  -27.3210  -26.1190   21.9560 H   0  0  0  0  0  0  0  0  0  0  0  0
  -30.1130  -20.3180   18.1560 C   0  0  0  0  0  1  0  0  0  0  0  0
  -29.3970  -20.1130   19.4950 C   0  0  0  0  0  3  0  0  0  0  0  0
  -30.0810  -18.5570   20.1840 C   0  0  0  0  0  2  0  0  0  0  0  0
  -30.6870  -15.6100   19.7770 C   0  0  0  0  0  0  0  0  0  0  0  0
  -30.6340  -13.1420   18.9110 C   0  0  0  0  0  2  0  0  0  0  0  0
  -29.6490  -12.8780   17.7450 C   0  0  0  0  0  2  0  0  0  0  0  0
  -28.2300  -12.6030   18.2760 C   0  0  0  0  0  2  0  0  0  0  0  0
  -27.8340  -13.5890   19.4020 C   0  0  0  0  0  3  0  0  0  0  0  0
  -28.9430  -13.7760   20.4580 C   0  0  0  0  0  2  0  0  0  0  0  0
  -30.1170  -14.2990   19.7350 N   0  0  0  0  0  0  0  0  0  0  0  0
  -31.9090  -15.5890   19.5710 O   0  0  0  0  0  0  0  0  0  0  0  0
  -29.9180  -16.8970   19.8500 N   0  0  0  0  0  0  0  0  0  0  0  0
  -28.9360  -16.6640   19.8300 H   0  0  0  0  0  0  0  0  0  0  0  0
  -25.5310  -14.1670   20.3230 C   0  0  0  0  0  0  0  0  0  0  0  0
  -24.4790  -13.4000   20.7360 C   0  0  0  0  0  0  0  0  0  0  0  0
  -24.9170  -12.0430   20.6410 C   0  0  0  0  0  0  0  0  0  0  0  0
  -26.5380  -13.2810   19.9910 N   0  0  0  0  0  0  0  0  0  0  0  0
  -26.1860  -11.9940   20.2500 N   0  0  0  0  0  0  0  0  0  0  0  0
  -24.1780  -10.7900   20.8410 C   0  0  0  0  0  0  0  0  0  0  0  0
  -24.6180   -9.8080   21.7560 C   0  0  0  0  0  3  0  0  0  0  0  0
  -23.8750   -8.6220   21.9450 C   0  0  0  0  0  3  0  0  0  0  0  0
  -22.6790   -8.4090   21.2210 C   0  0  0  0  0  0  0  0  0  0  0  0
  -22.2580   -9.3790   20.2940 C   0  0  0  0  0  3  0  0  0  0  0  0
  -23.0010  -10.5570   20.1010 C   0  0  0  0  0  3  0  0  0  0  0  0
  -21.9070   -7.2770   21.3210 O   0  0  0  0  0  0  0  0  0  0  0  0
  -21.8440   -6.5490   22.4830 C   0  0  0  0  0  0  0  0  0  0  0  0
  -21.3970   -7.1180   23.6950 C   0  0  0  0  0  3  0  0  0  0  0  0
  -21.2830   -6.3160   24.8490 C   0  0  0  0  0  3  0  0  0  0  0  0
  -21.6040   -4.9480   24.7900 C   0  0  0  0  0  0  0  0  0  0  0  0
  -22.0420   -4.3780   23.5820 C   0  0  0  0  0  3  0  0  0  0  0  0
  -22.1580   -5.1760   22.4300 C   0  0  0  0  0  0  0  0  0  0  0  0
  -22.5610   -4.6170   21.2630 F   0  0  0  0  0  0  0  0  0  0  0  0
  -21.4860   -4.1750   25.8960 F   0  0  0  0  0  0  0  0  0  0  0  0
  -23.1090  -13.8950   21.0980 C   0  0  0  0  0  0  0  0  0  0  0  0
  -22.4270  -13.2000   22.0020 N   0  0  0  0  0  0  0  0  0  0  0  0
  -22.6580  -14.9330   20.6160 O   0  0  0  0  0  0  0  0  0  0  0  0
  -22.8070  -12.3600   22.4110 H   0  0  0  0  0  0  0  0  0  0  0  0
  -21.5110  -13.5130   22.2890 H   0  0  0  0  0  0  0  0  0  0  0  0
  -25.7060  -15.5390   20.1690 N   0  0  0  0  0  0  0  0  0  0  0  0
  -24.9560  -16.1990   20.3450 H   0  0  0  0  0  0  0  0  0  0  0  0
  -26.5260  -15.9730   19.7680 H   0  0  0  0  0  0  0  0  0  0  0  0
  -28.4210  -26.0210   19.8480 O   0  0  0  0  0  0  0  0  0  0  0  0
  -24.6900  -31.8630   23.0570 C   0  0  0  0  0  0  0  0  0  0  0  0
  -27.3680  -27.0990   19.9210 C   0  0  0  0  0  0  0  0  0  0  0  0
  -23.5220  -30.4620   21.4060 C   0  0  0  0  0  3  0  0  0  0  0  0
  -25.0060  -28.9230   19.9400 C   0  0  0  0  0  0  0  0  0  0  0  0
  -26.0780  -30.7490   21.2340 C   0  0  0  0  0  2  0  0  0  0  0  0
  -26.1880  -29.3480   20.5590 C   0  0  0  0  0  0  0  0  0  0  0  0
  -27.3610  -28.4570   20.5280 C   0  0  0  0  0  3  0  0  0  0  0  0
  -26.1490  -26.8400   19.2530 C   0  0  0  0  0  3  0  0  0  0  0  0
  -25.0120  -27.6910   19.2650 C   0  0  0  0  0  3  0  0  0  0  0  0
  -23.7590  -29.8080   20.0150 C   0  0  0  0  0  2  0  0  0  0  0  0
  -24.7840  -31.0550   21.9520 N   0  0  0  0  0  0  0  0  0  0  0  0
  -23.6000  -32.1040   23.6000 O   0  0  0  0  0  0  0  0  0  0  0  0
  -22.8740  -29.4260   22.3620 C   0  0  0  0  0  0  0  0  0  0  0  0
  -21.5520  -29.2010   22.2370 N   0  0  0  0  0  0  0  0  0  0  0  0
  -23.5680  -28.8270   23.1870 O   0  0  0  0  0  0  0  0  0  0  0  0
  -21.0410  -29.7440   21.5530 H   0  0  0  0  0  0  0  0  0  0  0  0
  -18.2370  -27.8020   22.7140 C   0  0  0  0  0  0  0  0  0  0  0  0
  -20.7750  -28.2160   22.9990 C   0  0  0  0  0  3  0  0  0  0  0  0
  -20.9630  -26.7930   22.4220 C   0  0  0  0  0  2  0  0  0  0  0  0
  -19.8900  -26.4120   21.3960 C   0  0  0  0  0  2  0  0  0  0  0  0
  -18.4980  -26.4700   22.0300 C   0  0  0  0  0  2  0  0  0  0  0  0
  -19.3060  -28.6290   23.1550 C   0  0  0  0  0  0  0  0  0  0  0  0
  -19.0070  -29.8690   23.7570 C   0  0  0  0  0  3  0  0  0  0  0  0
  -17.6720  -30.2880   23.9210 C   0  0  0  0  0  3  0  0  0  0  0  0
  -16.6200  -29.4620   23.4930 C   0  0  0  0  0  3  0  0  0  0  0  0
  -16.9020  -28.2200   22.8970 C   0  0  0  0  0  3  0  0  0  0  0  0
  -25.9470  -32.5400   23.6850 C   0  0  0  0  0  3  0  0  0  0  0  0
  -26.4890  -31.7730   24.9550 C   0  0  1  0  0  0  0  0  0  0  0  0
  -25.4050  -31.4960   26.0230 C   0  0  0  0  0  1  0  0  0  0  0  0
  -27.1130  -30.4160   24.5600 C   0  0  0  0  0  1  0  0  0  0  0  0
  -27.6150  -32.5970   25.6220 C   0  0  0  0  0  1  0  0  0  0  0  0
  -25.5870  -33.9230   24.0460 N   0  0  0  0  0  0  0  0  0  0  0  0
  -25.8830  -35.0090   23.3200 C   0  0  0  0  0  0  0  0  0  0  0  0
  -26.5530  -34.9550   22.2850 O   0  0  0  0  0  0  0  0  0  0  0  0
  -24.9950  -34.0330   24.8560 H   0  0  0  0  0  0  0  0  0  0  0  0
  -24.1010  -36.7660   23.0260 C   0  0  0  0  0  1  0  0  0  0  0  0
  -25.3580  -36.3720   23.8200 C   0  0  0  0  0  3  0  0  0  0  0  0
  -27.4680  -37.3050   24.6660 C   0  0  0  0  0  1  0  0  0  0  0  0
  -26.3570  -37.4610   23.7300 N   0  0  0  0  0  0  0  0  0  0  0  0
  -25.9220  -38.3630   23.9040 H   0  0  0  0  0  0  0  0  0  0  0  0
  1  3  2  0
  1  5  1  0
  3  6  1  0
  4  2  1  0
  4  8  1  0
  5  4  2  0
  6  2  2  0
  6  7  1  0
  8  9  1  0
 10  8  1  0
 12 11  1  0
 12  3  1  0
 12 13  1  0
 14 22  1  0
 15 20  1  0
 16 17  1  0
 16 15  1  0
 18 17  1  0
 18 27  1  0
 18 19  1  0
 20 14  1  0
 20 19  1  0
 21 14  2  0
 22 13  1  0
 23 22  1  0
 24 25  2  0
 25 44  1  0
 26 25  1  0
 26 29  1  0
 27 28  1  0
 27 24  1  0
 28 26  2  0
 29 30  1  0
 30 31  2  0
 32 35  1  0
 32 31  1  0
 33 32  2  0
 34 33  1  0
 34 29  2  0
 35 36  1  0
 36 37  1  0
 37 38  2  0
 39 38  1  0
 39 43  1  0
 40 39  2  0
 41 36  2  0
 41 40  1  0
 42 41  1  0
 44 45  1  0
 45 48  1  0
 45 47  1  0
 46 44  2  0
 49 24  1  0
 49 50  1  0
 51 49  1  0
 52 54  1  0
 52  5  1  0
 53 64  2  0
 54 59  1  0
 55 63  1  0
 55 65  1  0
 56 62  1  0
 56 58  1  0
 57 63  1  0
 58 57  1  0
 59 58  2  0
 60 61  1  0
 60 54  2  0
 61 56  2  0
 62 55  1  0
 63 53  1  0
 65 67  2  0
 66 65  1  0
 68 66  1  0
 69 78  2  0
 69 74  1  0
 70 66  1  0
 70 74  1  0
 71 70  1  0
 72 73  1  0
 72 71  1  0
 73 69  1  0
 74 75  2  0
 75 76  1  0
 77 76  2  0
 78 77  1  0
 79 53  1  0
 79 84  1  0
 79 80  1  0
 80 83  1  1
 80 81  1  0
 82 80  1  0
 84 87  1  0
 85 89  1  0
 85 84  1  0
 86 85  2  0
 89 88  1  0
 91 89  1  0
 91 92  1  0
 91 90  1  0
M  ISO  4   5 101  14 100  22 100  52 101
M  END
>  <TORSDO>  (30) 
F 19

>  <SCORE>  (30) 
-14.512

>  <name>  (30) 
29

>  <ligand_id>  (30) 
29

>  <original_smiles>  (30) 
[H]c1c([H])c([H])c2c(c1[H])C([H])([H])C([H])([H])C([H])([H])C2([H])N([H])C(=O)C1([H])N(C(=O)C([H])(N([H])C(=O)C([H])(N([H])C([H])([H])[H])C([H])([H])[H])C(C([H])([H])[H])(C([H])([H])[H])C([H])([H])[H])C([H])([H])c2c([H])c(Oc3c([H])c(C([H])(C([H])([H])[H])C([H])([H])N([H])C(=O)N4C([H])([H])C([H])([H])C([H])([H])C([H])(n5nc(-c6c([H])c([H])c(Oc7c([H])c([H])c(F)c([H])c7F)c([H])c6[H])c(C(=O)N([H])[H])c5N([H])[H])C4([H])[H])c(F)c([H])c3N([H])[H])c([H])c([H])c2C1([H])[H]

>  <smiles>  (30) 
[H]c1c([H])c([H])c2c(c1[H])C([H])([H])C([H])([H])C([H])([H])C2([H])N([H])C(=O)C1([H])N(C(=O)C([H])(N([H])C(=O)C([H])(N([H])C([H])([H])[H])C([H])([H])[H])C(C([H])([H])[H])(C([H])([H])[H])C([H])([H])[H])C([H])([H])c2c([H])c(Oc3c([H])c(C([H])(C([H])([H])[H])C([H])([H])N([H])C(=O)N4C([H])([H])C([H])([H])C([H])([H])C([H])(n5nc(-c6c([H])c([H])c(Oc7c([H])c([H])c(F)c([H])c7F)c([H])c6[H])c(C(=O)N([H])[H])c5N([H])[H])C4([H])[H])c(F)c([H])c3N([H])[H])c([H])c([H])c2C1([H])[H]

$$$$
30:0:0
     RDKit          3D

 94102  0  0  1  0  0  0  0  0999 V2000
  -29.2830  -23.6860   20.3620 C   0  0  0  0  0  3  0  0  0  0  0  0
  -29.2430  -24.8740   19.6090 C   0  0  0  0  0  3  0  0  0  0  0  0
  -28.0340  -25.9560   21.4230 C   0  0  0  0  0  3  0  0  0  0  0  0
  -28.6920  -23.6160   21.6440 C   0  0  0  0  0  0  0  0  0  0  0  0
  -28.6060  -26.0130   20.1290 C   0  0  0  0  0  0  0  0  0  0  0  0
  -28.0470  -24.7620   22.1850 C   0  0  0  0  0  0  0  0  0  0  0  0
  -26.7240  -25.7730   23.9390 C   0  0  0  0  0  1  0  0  0  0  0  0
  -27.4730  -24.6700   23.4380 O   0  0  0  0  0  0  0  0  0  0  0  0
  -28.7010  -22.3180   22.3770 C   0  0  0  0  0  0  0  0  0  0  0  0
  -27.7350  -21.8740   23.0060 O   0  0  0  0  0  0  0  0  0  0  0  0
  -30.0040  -21.5160   22.3570 C   0  0  0  0  0  2  0  0  0  0  0  0
  -29.8780  -20.2270   21.5350 C   0  0  0  0  0  2  0  0  0  0  0  0
  -31.1180  -19.3340   21.6580 C   0  0  0  0  0  2  0  0  0  0  0  0
  -30.8260  -17.9190   21.1540 C   0  0  0  0  0  2  0  0  0  0  0  0
  -31.9370  -16.9120   21.4750 C   0  0  0  0  0  2  0  0  0  0  0  0
  -31.7000  -14.8530   20.0930 C   0  0  0  0  0  0  0  0  0  0  0  0
  -31.2240  -12.7030   18.9900 C   0  0  0  0  0  2  0  0  0  0  0  0
  -30.2610  -12.8500   17.8000 C   0  0  0  0  0  2  0  0  0  0  0  0
  -28.7990  -12.7900   18.2710 C   0  0  0  0  0  2  0  0  0  0  0  0
  -28.5180  -13.7530   19.4540 C   0  0  0  0  0  3  0  0  0  0  0  0
  -29.5770  -13.5820   20.5640 C   0  0  0  0  0  2  0  0  0  0  0  0
  -30.9240  -13.7490   19.9750 N   0  0  0  0  0  0  0  0  0  0  0  0
  -32.6240  -15.1380   19.3240 O   0  0  0  0  0  0  0  0  0  0  0  0
  -31.4470  -15.5730   21.1880 N   0  0  0  0  0  0  0  0  0  0  0  0
  -30.7520  -15.1940   21.8130 H   0  0  0  0  0  0  0  0  0  0  0  0
  -26.1930  -14.5280   20.2600 C   0  0  0  0  0  0  0  0  0  0  0  0
  -25.0810  -13.8300   20.6440 C   0  0  0  0  0  0  0  0  0  0  0  0
  -25.4320  -12.4480   20.5570 C   0  0  0  0  0  0  0  0  0  0  0  0
  -27.1590  -13.5760   19.9690 N   0  0  0  0  0  0  0  0  0  0  0  0
  -26.7040  -12.3180   20.2000 N   0  0  0  0  0  0  0  0  0  0  0  0
  -24.6160  -11.2410   20.7360 C   0  0  0  0  0  0  0  0  0  0  0  0
  -24.9590  -10.2530   21.6850 C   0  0  0  0  0  3  0  0  0  0  0  0
  -24.1480   -9.1080   21.8510 C   0  0  0  0  0  3  0  0  0  0  0  0
  -22.9810   -8.9450   21.0670 C   0  0  0  0  0  0  0  0  0  0  0  0
  -22.6570   -9.9220   20.1090 C   0  0  0  0  0  3  0  0  0  0  0  0
  -23.4670  -11.0570   19.9410 C   0  0  0  0  0  3  0  0  0  0  0  0
  -22.1480   -7.8550   21.1430 O   0  0  0  0  0  0  0  0  0  0  0  0
  -21.9430   -7.1860   22.3220 C   0  0  0  0  0  0  0  0  0  0  0  0
  -21.4450   -7.8370   23.4720 C   0  0  0  0  0  3  0  0  0  0  0  0
  -21.1810   -7.0980   24.6410 C   0  0  0  0  0  3  0  0  0  0  0  0
  -21.4080   -5.7090   24.6640 C   0  0  0  0  0  0  0  0  0  0  0  0
  -21.9030   -5.0580   23.5200 C   0  0  0  0  0  3  0  0  0  0  0  0
  -22.1670   -5.7940   22.3510 C   0  0  0  0  0  0  0  0  0  0  0  0
  -22.6210   -5.1580   21.2450 F   0  0  0  0  0  0  0  0  0  0  0  0
  -21.1500   -4.9960   25.7850 F   0  0  0  0  0  0  0  0  0  0  0  0
  -23.7350  -14.4050   20.9850 C   0  0  0  0  0  0  0  0  0  0  0  0
  -22.9940  -13.7460   21.8680 N   0  0  0  0  0  0  0  0  0  0  0  0
  -23.3540  -15.4730   20.5070 O   0  0  0  0  0  0  0  0  0  0  0  0
  -23.3140  -12.8800   22.2750 H   0  0  0  0  0  0  0  0  0  0  0  0
  -22.0940  -14.1120   22.1430 H   0  0  0  0  0  0  0  0  0  0  0  0
  -26.4570  -15.8870   20.1170 N   0  0  0  0  0  0  0  0  0  0  0  0
  -25.7480  -16.5940   20.2810 H   0  0  0  0  0  0  0  0  0  0  0  0
  -27.3330  -16.2720   19.7890 H   0  0  0  0  0  0  0  0  0  0  0  0
  -28.5330  -27.1490   19.3530 O   0  0  0  0  0  0  0  0  0  0  0  0
  -24.8050  -31.7880   23.1980 C   0  0  0  0  0  0  0  0  0  0  0  0
  -27.3740  -27.8750   19.4520 C   0  0  0  0  0  0  0  0  0  0  0  0
  -23.5440  -30.5780   21.4470 C   0  0  0  0  0  3  0  0  0  0  0  0
  -24.9540  -29.2740   19.7680 C   0  0  0  0  0  0  0  0  0  0  0  0
  -26.0460  -31.0290   21.1790 C   0  0  0  0  0  2  0  0  0  0  0  0
  -26.1250  -29.7580   20.3630 C   0  0  0  0  0  0  0  0  0  0  0  0
  -27.3430  -29.0650   20.2060 C   0  0  0  0  0  3  0  0  0  0  0  0
  -26.1920  -27.3960   18.8490 C   0  0  0  0  0  3  0  0  0  0  0  0
  -24.9780  -28.0900   19.0090 C   0  0  0  0  0  3  0  0  0  0  0  0
  -23.6950  -30.0820   19.9840 C   0  0  0  0  0  2  0  0  0  0  0  0
  -24.8190  -31.1380   22.0000 N   0  0  0  0  0  0  0  0  0  0  0  0
  -23.7470  -31.9660   23.8180 O   0  0  0  0  0  0  0  0  0  0  0  0
  -22.9600  -29.4290   22.2980 C   0  0  0  0  0  0  0  0  0  0  0  0
  -21.6420  -29.2030   22.1720 N   0  0  0  0  0  0  0  0  0  0  0  0
  -23.6880  -28.7470   23.0240 O   0  0  0  0  0  0  0  0  0  0  0  0
  -21.1140  -29.8090   21.5590 H   0  0  0  0  0  0  0  0  0  0  0  0
  -18.3420  -27.7870   22.5370 C   0  0  0  0  0  0  0  0  0  0  0  0
  -20.8810  -28.1530   22.8450 C   0  0  0  0  0  3  0  0  0  0  0  0
  -21.0610  -26.7940   22.1310 C   0  0  0  0  0  2  0  0  0  0  0  0
  -19.9760  -26.5120   21.0860 C   0  0  0  0  0  2  0  0  0  0  0  0
  -18.5900  -26.5200   21.7360 C   0  0  0  0  0  2  0  0  0  0  0  0
  -19.4180  -28.5610   23.0450 C   0  0  0  0  0  0  0  0  0  0  0  0
  -19.1310  -29.7500   23.7530 C   0  0  0  0  0  3  0  0  0  0  0  0
  -17.8030  -30.1620   23.9600 C   0  0  0  0  0  3  0  0  0  0  0  0
  -16.7410  -29.3820   23.4710 C   0  0  0  0  0  3  0  0  0  0  0  0
  -17.0100  -28.1960   22.7640 C   0  0  0  0  0  3  0  0  0  0  0  0
  -26.1100  -32.3600   23.8340 C   0  0  0  0  0  3  0  0  0  0  0  0
  -25.7980  -33.6970   24.3560 N   0  0  0  0  0  0  0  0  0  0  0  0
  -26.1120  -34.8450   23.7410 C   0  0  0  0  0  0  0  0  0  0  0  0
  -26.7700  -34.8880   22.6970 O   0  0  0  0  0  0  0  0  0  0  0  0
  -25.2130  -33.7370   25.1780 H   0  0  0  0  0  0  0  0  0  0  0  0
  -24.3700  -36.6550   23.6440 C   0  0  0  0  0  1  0  0  0  0  0  0
  -25.6190  -36.1530   24.3860 C   0  0  0  0  0  3  0  0  0  0  0  0
  -27.7540  -36.9290   25.3180 C   0  0  0  0  0  1  0  0  0  0  0  0
  -26.6450  -37.2190   24.4130 N   0  0  0  0  0  0  0  0  0  0  0  0
  -26.2340  -38.1070   24.6870 H   0  0  0  0  0  0  0  0  0  0  0  0
  -26.7030  -31.4390   24.9690 C   0  0  1  0  0  0  0  0  0  0  0  0
  -25.6710  -31.0440   26.0510 C   0  0  0  0  0  1  0  0  0  0  0  0
  -27.2820  -30.1360   24.3690 C   0  0  0  0  0  1  0  0  0  0  0  0
  -27.8770  -32.1640   25.6700 C   0  0  0  0  0  1  0  0  0  0  0  0
  1  4  1  0
  2  5  1  0
  2  1  2  0
  3  6  1  0
  4  6  2  0
  4  9  1  0
  5  3  2  0
  6  8  1  0
  8  7  1  0
  9 10  2  0
 11  9  1  0
 12 13  1  0
 12 11  1  0
 14 15  1  0
 14 13  1  0
 16 24  1  0
 17 22  1  0
 18 19  1  0
 18 17  1  0
 20 19  1  0
 20 29  1  0
 20 21  1  0
 22 16  1  0
 22 21  1  0
 23 16  2  0
 24 15  1  0
 24 25  1  0
 26 27  2  0
 27 46  1  0
 28 27  1  0
 28 31  1  0
 29 30  1  0
 29 26  1  0
 30 28  2  0
 31 32  1  0
 32 33  2  0
 34 37  1  0
 34 33  1  0
 35 34  2  0
 36 35  1  0
 36 31  2  0
 37 38  1  0
 38 43  2  0
 38 39  1  0
 39 40  2  0
 40 41  1  0
 41 45  1  0
 42 41  2  0
 43 42  1  0
 44 43  1  0
 46 47  1  0
 47 50  1  0
 47 49  1  0
 48 46  2  0
 51 26  1  0
 51 52  1  0
 53 51  1  0
 54 56  1  0
 54  5  1  0
 55 66  2  0
 56 61  1  0
 57 65  1  0
 57 67  1  0
 58 64  1  0
 58 60  1  0
 59 65  1  0
 60 59  1  0
 61 60  2  0
 62 63  1  0
 62 56  2  0
 63 58  2  0
 64 57  1  0
 65 55  1  0
 67 69  2  0
 68 67  1  0
 70 68  1  0
 71 80  2  0
 71 76  1  0
 72 68  1  0
 72 76  1  0
 73 72  1  0
 74 75  1  0
 74 73  1  0
 75 71  1  0
 76 77  2  0
 77 78  1  0
 79 78  2  0
 80 79  1  0
 81 55  1  0
 81 82  1  0
 81 91  1  0
 82 85  1  0
 83 82  1  0
 83 87  1  0
 84 83  2  0
 87 86  1  0
 87 89  1  0
 89 90  1  0
 89 88  1  0
 91 94  1  1
 91 92  1  0
 93 91  1  0
M  ISO  4   5 101  16 100  24 100  54 101
M  END
>  <TORSDO>  (31) 
F 23

>  <SCORE>  (31) 
-8.009

>  <name>  (31) 
30

>  <ligand_id>  (31) 
30

>  <original_smiles>  (31) 
[H]c1c([H])c([H])c2c(c1[H])C([H])([H])C([H])([H])C([H])([H])C2([H])N([H])C(=O)C1([H])N(C(=O)C([H])(N([H])C(=O)C([H])(N([H])C([H])([H])[H])C([H])([H])[H])C(C([H])([H])[H])(C([H])([H])[H])C([H])([H])[H])C([H])([H])c2c([H])c(Oc3c([H])c([H])c(C(=O)C([H])([H])C([H])([H])C([H])([H])C([H])([H])C([H])([H])N([H])C(=O)N4C([H])([H])C([H])([H])C([H])([H])C([H])(n5nc(-c6c([H])c([H])c(Oc7c([H])c([H])c(F)c([H])c7F)c([H])c6[H])c(C(=O)N([H])[H])c5N([H])[H])C4([H])[H])c(OC([H])([H])[H])c3[H])c([H])c([H])c2C1([H])[H]

>  <smiles>  (31) 
[H]c1c([H])c([H])c2c(c1[H])C([H])([H])C([H])([H])C([H])([H])C2([H])N([H])C(=O)C1([H])N(C(=O)C([H])(N([H])C(=O)C([H])(N([H])C([H])([H])[H])C([H])([H])[H])C(C([H])([H])[H])(C([H])([H])[H])C([H])([H])[H])C([H])([H])c2c([H])c(Oc3c([H])c([H])c(C(=O)C([H])([H])C([H])([H])C([H])([H])C([H])([H])C([H])([H])N([H])C(=O)N4C([H])([H])C([H])([H])C([H])([H])C([H])(n5nc(-c6c([H])c([H])c(Oc7c([H])c([H])c(F)c([H])c7F)c([H])c6[H])c(C(=O)N([H])[H])c5N([H])[H])C4([H])[H])c(OC([H])([H])[H])c3[H])c([H])c([H])c2C1([H])[H]

$$$$
31:0:0
     RDKit          3D

 91 99  0  0  1  0  0  0  0  0999 V2000
  -27.3860  -24.7980   20.9430 C   0  0  0  0  0  3  0  0  0  0  0  0
  -27.0870  -23.4490   21.2380 C   0  0  0  0  0  3  0  0  0  0  0  0
  -29.3230  -24.0070   19.7550 C   0  0  0  0  0  3  0  0  0  0  0  0
  -29.0600  -22.5550   20.0440 C   0  0  0  0  0  0  0  0  0  0  0  0
  -28.5030  -25.1870   20.1760 C   0  0  0  0  0  0  0  0  0  0  0  0
  -27.8820  -22.3440   20.8150 C   0  0  0  0  0  0  0  0  0  0  0  0
  -29.9600  -21.2550   19.6040 C   0  0  0  0  0  0  0  0  0  0  0  0
  -30.9600  -21.4730   18.9150 O   0  0  0  0  0  0  0  0  0  0  0  0
  -29.7120  -19.6300   19.9540 C   0  0  0  0  0  3  0  0  0  0  0  0
  -30.7260  -18.3230   19.5240 C   0  0  0  0  0  3  0  0  0  0  0  0
  -31.3230  -15.6100   19.6340 C   0  0  0  0  0  0  0  0  0  0  0  0
  -31.2740  -13.2170   18.7780 C   0  0  0  0  0  2  0  0  0  0  0  0
  -30.2490  -13.0660   17.6290 C   0  0  0  0  0  2  0  0  0  0  0  0
  -28.8430  -12.7810   18.1900 C   0  0  0  0  0  2  0  0  0  0  0  0
  -28.4770  -13.7170   19.3710 C   0  0  0  0  0  3  0  0  0  0  0  0
  -29.6190  -13.8390   20.4030 C   0  0  0  0  0  2  0  0  0  0  0  0
  -30.8030  -14.3140   19.6750 N   0  0  0  0  0  0  0  0  0  0  0  0
  -32.4870  -15.7260   19.2350 O   0  0  0  0  0  0  0  0  0  0  0  0
  -30.5040  -16.7680   19.8270 N   0  0  0  0  0  0  0  0  0  0  0  0
  -29.5690  -16.5380   20.1340 H   0  0  0  0  0  0  0  0  0  0  0  0
  -26.1960  -14.1850   20.4280 C   0  0  0  0  0  0  0  0  0  0  0  0
  -25.1860  -13.3630   20.8450 C   0  0  0  0  0  0  0  0  0  0  0  0
  -25.6530  -12.0280   20.6400 C   0  0  0  0  0  0  0  0  0  0  0  0
  -27.2090  -13.3500   19.9910 N   0  0  0  0  0  0  0  0  0  0  0  0
  -26.9010  -12.0420   20.1820 N   0  0  0  0  0  0  0  0  0  0  0  0
  -24.9600  -10.7430   20.7970 C   0  0  0  0  0  0  0  0  0  0  0  0
  -25.3720   -9.7920   21.7560 C   0  0  0  0  0  3  0  0  0  0  0  0
  -24.6760   -8.5720   21.9000 C   0  0  0  0  0  3  0  0  0  0  0  0
  -23.5540   -8.2940   21.0850 C   0  0  0  0  0  0  0  0  0  0  0  0
  -23.1620   -9.2340   20.1150 C   0  0  0  0  0  3  0  0  0  0  0  0
  -23.8590  -10.4440   19.9680 C   0  0  0  0  0  3  0  0  0  0  0  0
  -22.8320   -7.1250   21.1370 O   0  0  0  0  0  0  0  0  0  0  0  0
  -22.5490   -6.5070   22.3280 C   0  0  0  0  0  0  0  0  0  0  0  0
  -21.8320   -7.1600   23.3540 C   0  0  0  0  0  3  0  0  0  0  0  0
  -21.5020   -6.4640   24.5350 C   0  0  0  0  0  3  0  0  0  0  0  0
  -21.8790   -5.1170   24.6880 C   0  0  0  0  0  0  0  0  0  0  0  0
  -22.5900   -4.4640   23.6650 C   0  0  0  0  0  3  0  0  0  0  0  0
  -22.9200   -5.1560   22.4870 C   0  0  0  0  0  0  0  0  0  0  0  0
  -23.5860   -4.5170   21.4960 F   0  0  0  0  0  0  0  0  0  0  0  0
  -21.5570   -4.4460   25.8180 F   0  0  0  0  0  0  0  0  0  0  0  0
  -23.8260  -13.7920   21.3130 C   0  0  0  0  0  0  0  0  0  0  0  0
  -23.2160  -13.0250   22.2100 N   0  0  0  0  0  0  0  0  0  0  0  0
  -23.3180  -14.8400   20.9190 O   0  0  0  0  0  0  0  0  0  0  0  0
  -23.6450  -12.1770   22.5490 H   0  0  0  0  0  0  0  0  0  0  0  0
  -22.3100  -13.2920   22.5640 H   0  0  0  0  0  0  0  0  0  0  0  0
  -26.3270  -15.5690   20.3560 N   0  0  0  0  0  0  0  0  0  0  0  0
  -25.5690  -16.1930   20.6100 H   0  0  0  0  0  0  0  0  0  0  0  0
  -27.1070  -16.0520   19.9310 H   0  0  0  0  0  0  0  0  0  0  0  0
  -26.3310  -20.7920   21.8430 C   0  0  0  0  0  1  0  0  0  0  0  0
  -27.5450  -21.0460   21.1440 O   0  0  0  0  0  0  0  0  0  0  0  0
  -28.7160  -26.6390   19.9720 O   0  0  0  0  0  0  0  0  0  0  0  0
  -25.1940  -32.1380   23.4880 C   0  0  0  0  0  0  0  0  0  0  0  0
  -27.6820  -27.6530   20.0480 C   0  0  0  0  0  0  0  0  0  0  0  0
  -23.9560  -30.8830   21.7660 C   0  0  0  0  0  3  0  0  0  0  0  0
  -25.3690  -29.4200   20.1900 C   0  0  0  0  0  0  0  0  0  0  0  0
  -26.5080  -31.1440   21.5760 C   0  0  0  0  0  2  0  0  0  0  0  0
  -26.5610  -29.8040   20.8180 C   0  0  0  0  0  0  0  0  0  0  0  0
  -27.7170  -28.9350   20.7370 C   0  0  0  0  0  3  0  0  0  0  0  0
  -26.4710  -27.3870   19.3740 C   0  0  0  0  0  3  0  0  0  0  0  0
  -25.3370  -28.2250   19.4530 C   0  0  0  0  0  3  0  0  0  0  0  0
  -24.1480  -30.3160   20.3330 C   0  0  0  0  0  2  0  0  0  0  0  0
  -25.2400  -31.4060   22.3330 N   0  0  0  0  0  0  0  0  0  0  0  0
  -24.1200  -32.3840   24.0580 O   0  0  0  0  0  0  0  0  0  0  0  0
  -23.2890  -29.8060   22.6570 C   0  0  0  0  0  0  0  0  0  0  0  0
  -21.9630  -29.6280   22.5180 N   0  0  0  0  0  0  0  0  0  0  0  0
  -23.9680  -29.1330   23.4380 O   0  0  0  0  0  0  0  0  0  0  0  0
  -21.4700  -30.2220   21.8660 H   0  0  0  0  0  0  0  0  0  0  0  0
  -18.5920  -28.3750   22.9600 C   0  0  0  0  0  0  0  0  0  0  0  0
  -21.1520  -28.6320   23.2250 C   0  0  0  0  0  3  0  0  0  0  0  0
  -21.2560  -27.2470   22.5450 C   0  0  0  0  0  2  0  0  0  0  0  0
  -20.1470  -26.9950   21.5180 C   0  0  0  0  0  2  0  0  0  0  0  0
  -18.7700  -27.0810   22.1820 C   0  0  0  0  0  2  0  0  0  0  0  0
  -19.7100  -29.1110   23.4360 C   0  0  0  0  0  0  0  0  0  0  0  0
  -19.4880  -30.3210   24.1260 C   0  0  0  0  0  3  0  0  0  0  0  0
  -18.1810  -30.7980   24.3440 C   0  0  0  0  0  3  0  0  0  0  0  0
  -17.0780  -30.0590   23.8830 C   0  0  0  0  0  3  0  0  0  0  0  0
  -17.2840  -28.8490   23.1970 C   0  0  0  0  0  3  0  0  0  0  0  0
  -26.4880  -32.7160   24.1390 C   0  0  0  0  0  3  0  0  0  0  0  0
  -26.9590  -31.9020   25.4080 C   0  0  1  0  0  0  0  0  0  0  0  0
  -25.8420  -31.6730   26.4520 C   0  0  0  0  0  1  0  0  0  0  0  0
  -27.5100  -30.5160   25.0000 C   0  0  0  0  0  1  0  0  0  0  0  0
  -28.1210  -32.6490   26.1060 C   0  0  0  0  0  1  0  0  0  0  0  0
  -26.2200  -34.1180   24.5010 N   0  0  0  0  0  0  0  0  0  0  0  0
  -26.5810  -35.1790   23.7680 C   0  0  0  0  0  0  0  0  0  0  0  0
  -27.2420  -35.0790   22.7300 O   0  0  0  0  0  0  0  0  0  0  0  0
  -25.6330  -34.2700   25.3080 H   0  0  0  0  0  0  0  0  0  0  0  0
  -24.9000  -37.0310   23.4820 C   0  0  0  0  0  1  0  0  0  0  0  0
  -26.1430  -36.5720   24.2620 C   0  0  0  0  0  3  0  0  0  0  0  0
  -28.3100  -37.3860   25.0810 C   0  0  0  0  0  1  0  0  0  0  0  0
  -27.2040  -37.5970   24.1520 N   0  0  0  0  0  0  0  0  0  0  0  0
  -26.8260  -38.5270   24.3150 H   0  0  0  0  0  0  0  0  0  0  0  0
  1  2  1  0
  3  4  2  0
  3  5  1  0
  4  6  1  0
  5  1  2  0
  6 50  1  0
  6  2  2  0
  7  9  1  0
  7  4  1  0
  8  7  2  0
 10 19  1  0
 10  9  2  0
 11 17  1  0
 11 19  1  0
 12 17  1  0
 13 14  1  0
 13 12  1  0
 15 14  1  0
 15 24  1  0
 15 16  1  0
 17 16  1  0
 18 11  2  0
 19 20  1  0
 21 22  2  0
 22 41  1  0
 23 26  1  0
 23 22  1  0
 24 25  1  0
 24 21  1  0
 25 23  2  0
 26 27  1  0
 27 28  2  0
 29 32  1  0
 29 28  1  0
 30 29  2  0
 31 30  1  0
 31 26  2  0
 32 33  1  0
 33 38  2  0
 33 34  1  0
 34 35  2  0
 35 36  1  0
 36 40  1  0
 37 36  2  0
 38 37  1  0
 39 38  1  0
 41 42  1  0
 42 44  1  0
 42 45  1  0
 43 41  2  0
 46 21  1  0
 46 47  1  0
 48 46  1  0
 50 49  1  0
 51 53  1  0
 51  5  1  0
 52 63  2  0
 53 58  1  0
 54 62  1  0
 54 64  1  0
 55 61  1  0
 55 57  1  0
 56 62  1  0
 57 56  1  0
 58 57  2  0
 59 60  1  0
 59 53  2  0
 60 55  2  0
 61 54  1  0
 62 52  1  0
 64 66  2  0
 65 64  1  0
 67 65  1  0
 68 77  2  0
 68 73  1  0
 69 65  1  0
 69 73  1  0
 70 69  1  0
 71 72  1  0
 71 70  1  0
 72 68  1  0
 73 74  2  0
 74 75  1  0
 76 75  2  0
 77 76  1  0
 78 52  1  0
 78 83  1  0
 78 79  1  0
 79 82  1  1
 79 80  1  0
 81 79  1  0
 83 86  1  0
 84 88  1  0
 84 83  1  0
 85 84  2  0
 88 87  1  0
 90 88  1  0
 90 91  1  0
 90 89  1  0
M  ISO  4   5 101  11 100  19 100  51 101
M  END
>  <TORSDO>  (32) 
F 20

>  <SCORE>  (32) 
-5.267

>  <name>  (32) 
31

>  <ligand_id>  (32) 
31

>  <original_smiles>  (32) 
[H]c1c([H])c([H])c2c(c1[H])C([H])([H])C([H])([H])C([H])([H])C2([H])N([H])C(=O)C1([H])N(C(=O)C([H])(N([H])C(=O)C([H])(N([H])C([H])([H])[H])C([H])([H])[H])C(C([H])([H])[H])(C([H])([H])[H])C([H])([H])[H])C([H])([H])c2c([H])c(Oc3c([H])c([H])c(OC([H])([H])[H])c(C(=O)C([H])([H])C([H])([H])N([H])C(=O)N4C([H])([H])C([H])([H])C([H])([H])C([H])(n5nc(-c6c([H])c([H])c(Oc7c([H])c([H])c(F)c([H])c7F)c([H])c6[H])c(C(=O)N([H])[H])c5N([H])[H])C4([H])[H])c3[H])c([H])c([H])c2C1([H])[H]

>  <smiles>  (32) 
[H]c1c([H])c([H])c2c(c1[H])C([H])([H])C([H])([H])C([H])([H])C2([H])N([H])C(=O)C1([H])N(C(=O)C([H])(N([H])C(=O)C([H])(N([H])C([H])([H])[H])C([H])([H])[H])C(C([H])([H])[H])(C([H])([H])[H])C([H])([H])[H])C([H])([H])c2c([H])c(Oc3c([H])c([H])c(OC([H])([H])[H])c(C(=O)C([H])([H])C([H])([H])N([H])C(=O)N4C([H])([H])C([H])([H])C([H])([H])C([H])(n5nc(-c6c([H])c([H])c(Oc7c([H])c([H])c(F)c([H])c7F)c([H])c6[H])c(C(=O)N([H])[H])c5N([H])[H])C4([H])[H])c3[H])c([H])c([H])c2C1([H])[H]

$$$$
32:0:0
     RDKit          3D

 94102  0  0  1  0  0  0  0  0999 V2000
  -28.9780  -22.9900   21.2600 C   0  0  0  0  0  3  0  0  0  0  0  0
  -28.6440  -23.0460   18.8850 C   0  0  0  0  0  3  0  0  0  0  0  0
  -28.9670  -22.2720   20.0320 C   0  0  0  0  0  0  0  0  0  0  0  0
  -28.7190  -24.4020   21.3180 C   0  0  0  0  0  0  0  0  0  0  0  0
  -28.4160  -24.4510   18.9250 C   0  0  0  0  0  0  0  0  0  0  0  0
  -28.4370  -25.1730   20.1480 C   0  0  0  0  0  0  0  0  0  0  0  0
  -28.8190  -25.1220   22.6530 C   0  0  0  0  0  1  0  0  0  0  0  0
  -28.2220  -25.1770   17.6040 C   0  0  0  0  0  1  0  0  0  0  0  0
  -30.8960  -20.7410   19.3790 C   0  0  0  0  0  1  0  0  0  0  0  0
  -29.4240  -20.7680   19.8140 C   0  0  0  0  0  3  0  0  0  0  0  0
  -29.1940  -19.7200   20.8790 N   0  0  0  0  0  4  0  0  0  0  0  0
  -29.8810  -19.8110   21.6090 H   0  0  0  0  0  0  0  0  0  0  0  0
  -28.3070  -19.9560   21.2960 H   0  0  0  0  0  0  0  0  0  0  0  0
  -29.0470  -18.2550   20.4640 C   0  0  0  0  0  3  0  0  0  0  0  0
  -30.1890  -17.2030   20.8390 C   0  0  0  0  0  3  0  0  0  0  0  0
  -30.6000  -14.6550   20.4100 C   0  0  0  0  0  0  0  0  0  0  0  0
  -30.3690  -12.4190   19.3380 C   0  0  0  0  0  2  0  0  0  0  0  0
  -29.4350  -12.5530   18.1150 C   0  0  0  0  0  2  0  0  0  0  0  0
  -27.9600  -12.4000   18.5380 C   0  0  0  0  0  2  0  0  0  0  0  0
  -27.6010  -13.2710   19.7720 C   0  0  0  0  0  3  0  0  0  0  0  0
  -28.6510  -13.1160   20.8940 C   0  0  0  0  0  2  0  0  0  0  0  0
  -29.9620  -13.4450   20.3180 N   0  0  0  0  0  0  0  0  0  0  0  0
  -31.7700  -14.7920   20.0470 O   0  0  0  0  0  0  0  0  0  0  0  0
  -29.8230  -15.7380   20.7360 N   0  0  0  0  0  0  0  0  0  0  0  0
  -28.8720  -15.5070   20.9810 H   0  0  0  0  0  0  0  0  0  0  0  0
  -25.2070  -13.8870   20.4660 C   0  0  0  0  0  0  0  0  0  0  0  0
  -24.1360  -13.1210   20.8390 C   0  0  0  0  0  0  0  0  0  0  0  0
  -24.5920  -11.7670   20.8220 C   0  0  0  0  0  0  0  0  0  0  0  0
  -26.2490  -13.0000   20.2480 N   0  0  0  0  0  0  0  0  0  0  0  0
  -25.8840  -11.7210   20.5240 N   0  0  0  0  0  0  0  0  0  0  0  0
  -23.8590  -10.5110   21.0180 C   0  0  0  0  0  0  0  0  0  0  0  0
  -24.2880   -9.5450   21.9560 C   0  0  0  0  0  3  0  0  0  0  0  0
  -23.5570   -8.3520   22.1400 C   0  0  0  0  0  3  0  0  0  0  0  0
  -22.3820   -8.1160   21.3860 C   0  0  0  0  0  0  0  0  0  0  0  0
  -21.9710   -9.0700   20.4380 C   0  0  0  0  0  3  0  0  0  0  0  0
  -22.7030  -10.2550   20.2540 C   0  0  0  0  0  3  0  0  0  0  0  0
  -21.6220   -6.9760   21.4790 O   0  0  0  0  0  0  0  0  0  0  0  0
  -21.5790   -6.2320   22.6300 C   0  0  0  0  0  0  0  0  0  0  0  0
  -21.1750   -6.7880   23.8640 C   0  0  0  0  0  3  0  0  0  0  0  0
  -21.0800   -5.9710   25.0080 C   0  0  0  0  0  3  0  0  0  0  0  0
  -21.3770   -4.5980   24.9190 C   0  0  0  0  0  0  0  0  0  0  0  0
  -21.7760   -4.0400   23.6920 C   0  0  0  0  0  3  0  0  0  0  0  0
  -21.8740   -4.8550   22.5500 C   0  0  0  0  0  0  0  0  0  0  0  0
  -22.2380   -4.3100   21.3650 F   0  0  0  0  0  0  0  0  0  0  0  0
  -21.2800   -3.8100   26.0160 F   0  0  0  0  0  0  0  0  0  0  0  0
  -22.7390  -13.6060   21.0970 C   0  0  0  0  0  0  0  0  0  0  0  0
  -22.0030  -12.9210   21.9650 N   0  0  0  0  0  0  0  0  0  0  0  0
  -22.3070  -14.6280   20.5620 O   0  0  0  0  0  0  0  0  0  0  0  0
  -22.3650  -12.0950   22.4190 H   0  0  0  0  0  0  0  0  0  0  0  0
  -21.0650  -13.2280   22.1810 H   0  0  0  0  0  0  0  0  0  0  0  0
  -25.3760  -15.2540   20.2720 N   0  0  0  0  0  0  0  0  0  0  0  0
  -24.5960  -15.8990   20.3400 H   0  0  0  0  0  0  0  0  0  0  0  0
  -26.2050  -15.6760   19.8760 H   0  0  0  0  0  0  0  0  0  0  0  0
  -28.3910  -26.5860   20.1760 O   0  0  0  0  0  0  0  0  0  0  0  0
  -24.6060  -31.8770   23.2290 C   0  0  0  0  0  0  0  0  0  0  0  0
  -27.2200  -27.3510   20.1740 C   0  0  0  0  0  0  0  0  0  0  0  0
  -23.3940  -30.4800   21.5900 C   0  0  0  0  0  3  0  0  0  0  0  0
  -24.8420  -28.9320   20.1590 C   0  0  0  0  0  0  0  0  0  0  0  0
  -25.9270  -30.8140   21.3910 C   0  0  0  0  0  2  0  0  0  0  0  0
  -26.0060  -29.4370   20.7500 C   0  0  0  0  0  0  0  0  0  0  0  0
  -27.1960  -28.6580   20.7440 C   0  0  0  0  0  3  0  0  0  0  0  0
  -26.0280  -26.8780   19.5800 C   0  0  0  0  0  3  0  0  0  0  0  0
  -24.8530  -27.6570   19.5680 C   0  0  0  0  0  3  0  0  0  0  0  0
  -23.6010  -29.8020   20.2080 C   0  0  0  0  0  2  0  0  0  0  0  0
  -24.6620  -31.0750   22.1280 N   0  0  0  0  0  0  0  0  0  0  0  0
  -23.5260  -32.1500   23.7720 O   0  0  0  0  0  0  0  0  0  0  0  0
  -22.7410  -29.4610   22.5520 C   0  0  0  0  0  0  0  0  0  0  0  0
  -21.4160  -29.2770   22.4260 N   0  0  0  0  0  0  0  0  0  0  0  0
  -23.4240  -28.8370   23.3690 O   0  0  0  0  0  0  0  0  0  0  0  0
  -20.9240  -29.8280   21.7370 H   0  0  0  0  0  0  0  0  0  0  0  0
  -18.0450  -28.0730   22.9310 C   0  0  0  0  0  0  0  0  0  0  0  0
  -20.6030  -28.3360   23.1990 C   0  0  0  0  0  3  0  0  0  0  0  0
  -20.7090  -26.9060   22.6220 C   0  0  0  0  0  2  0  0  0  0  0  0
  -19.6060  -26.5820   21.6090 C   0  0  0  0  0  2  0  0  0  0  0  0
  -18.2250  -26.7240   22.2540 C   0  0  0  0  0  2  0  0  0  0  0  0
  -19.1640  -28.8370   23.3600 C   0  0  0  0  0  0  0  0  0  0  0  0
  -18.9410  -30.0990   23.9520 C   0  0  0  0  0  3  0  0  0  0  0  0
  -17.6370  -30.5980   24.1190 C   0  0  0  0  0  3  0  0  0  0  0  0
  -16.5330  -29.8300   23.7080 C   0  0  0  0  0  3  0  0  0  0  0  0
  -16.7390  -28.5700   23.1180 C   0  0  0  0  0  3  0  0  0  0  0  0
  -25.8930  -32.5090   23.8460 C   0  0  0  0  0  3  0  0  0  0  0  0
  -26.4170  -31.7330   25.1170 C   0  0  1  0  0  0  0  0  0  0  0  0
  -25.3310  -31.4910   26.1910 C   0  0  0  0  0  1  0  0  0  0  0  0
  -27.0000  -30.3570   24.7170 C   0  0  0  0  0  1  0  0  0  0  0  0
  -27.5710  -32.5270   25.7750 C   0  0  0  0  0  1  0  0  0  0  0  0
  -25.5830  -33.9050   24.1830 N   0  0  0  0  0  0  0  0  0  0  0  0
  -25.9070  -34.9610   23.4260 C   0  0  0  0  0  0  0  0  0  0  0  0
  -26.5690  -34.8620   22.3880 O   0  0  0  0  0  0  0  0  0  0  0  0
  -24.9930  -34.0550   24.9900 H   0  0  0  0  0  0  0  0  0  0  0  0
  -24.1690  -36.7500   23.0970 C   0  0  0  0  0  1  0  0  0  0  0  0
  -25.4210  -36.3460   23.8930 C   0  0  0  0  0  3  0  0  0  0  0  0
  -27.5620  -37.2340   24.7030 C   0  0  0  0  0  1  0  0  0  0  0  0
  -26.4480  -37.4030   23.7720 N   0  0  0  0  0  0  0  0  0  0  0  0
  -26.0420  -38.3200   23.9290 H   0  0  0  0  0  0  0  0  0  0  0  0
  1  4  1  0
  2  5  2  0
  2  3  1  0
  3  1  2  0
  4  7  1  0
  5  6  1  0
  6 54  1  0
  6  4  2  0
  8  5  1  0
 10  9  1  0
 10  3  1  0
 10 11  1  0
 11 13  1  0
 11 12  1  0
 14 15  2  0
 14 11  1  0
 16 24  1  0
 17 22  1  0
 18 19  1  0
 18 17  1  0
 20 19  1  0
 20 29  1  0
 20 21  1  0
 22 16  1  0
 22 21  1  0
 23 16  2  0
 24 15  1  0
 24 25  1  0
 26 27  2  0
 27 46  1  0
 28 27  1  0
 28 31  1  0
 29 26  1  0
 29 30  1  0
 30 28  2  0
 31 32  1  0
 32 33  2  0
 34 37  1  0
 34 33  1  0
 35 34  2  0
 36 35  1  0
 36 31  2  0
 37 38  1  0
 38 39  1  0
 39 40  2  0
 41 40  1  0
 41 45  1  0
 42 41  2  0
 43 38  2  0
 43 42  1  0
 44 43  1  0
 46 47  1  0
 47 50  1  0
 47 49  1  0
 48 46  2  0
 51 52  1  0
 51 26  1  0
 53 51  1  0
 55 66  2  0
 56 54  1  0
 56 61  1  0
 57 65  1  0
 57 67  1  0
 58 64  1  0
 58 60  1  0
 59 65  1  0
 60 59  1  0
 61 60  2  0
 62 56  2  0
 63 62  1  0
 63 58  2  0
 64 57  1  0
 65 55  1  0
 67 69  2  0
 68 67  1  0
 70 68  1  0
 71 80  2  0
 71 76  1  0
 72 68  1  0
 72 76  1  0
 73 72  1  0
 74 75  1  0
 74 73  1  0
 75 71  1  0
 76 77  2  0
 77 78  1  0
 79 78  2  0
 80 79  1  0
 81 55  1  0
 81 86  1  0
 81 82  1  0
 82 85  1  1
 82 83  1  0
 84 82  1  0
 86 89  1  0
 87 91  1  0
 87 86  1  0
 88 87  2  0
 91 90  1  0
 93 91  1  0
 93 94  1  0
 93 92  1  0
M  ISO  4   6 101  16 100  24 100  54 101
M  END
>  <TORSDO>  (33) 
F 20

>  <SCORE>  (33) 
-14.029

>  <name>  (33) 
32

>  <ligand_id>  (33) 
32

>  <original_smiles>  (33) 
[H]c1c([H])c([H])c2c(c1[H])C([H])([H])C([H])([H])C([H])([H])C2([H])N([H])C(=O)C1([H])N(C(=O)C([H])(N([H])C(=O)C([H])(N([H])C([H])([H])[H])C([H])([H])[H])C(C([H])([H])[H])(C([H])([H])[H])C([H])([H])[H])C([H])([H])c2c([H])c(Oc3c(C([H])([H])[H])c([H])c(C([H])(C([H])([H])[H])[N+]([H])([H])C([H])([H])C([H])([H])N([H])C(=O)N4C([H])([H])C([H])([H])C([H])([H])C([H])(n5nc(-c6c([H])c([H])c(Oc7c([H])c([H])c(F)c([H])c7F)c([H])c6[H])c(C(=O)N([H])[H])c5N([H])[H])C4([H])[H])c([H])c3C([H])([H])[H])c([H])c([H])c2C1([H])[H]

>  <smiles>  (33) 
[H]c1c([H])c([H])c2c(c1[H])C([H])([H])C([H])([H])C([H])([H])C2([H])N([H])C(=O)C1([H])N(C(=O)C([H])(N([H])C(=O)C([H])(N([H])C([H])([H])[H])C([H])([H])[H])C(C([H])([H])[H])(C([H])([H])[H])C([H])([H])[H])C([H])([H])c2c([H])c(Oc3c(C([H])([H])[H])c([H])c(C([H])(C([H])([H])[H])[N+]([H])([H])C([H])([H])C([H])([H])N([H])C(=O)N4C([H])([H])C([H])([H])C([H])([H])C([H])(n5nc(-c6c([H])c([H])c(Oc7c([H])c([H])c(F)c([H])c7F)c([H])c6[H])c(C(=O)N([H])[H])c5N([H])[H])C4([H])[H])c([H])c3C([H])([H])[H])c([H])c([H])c2C1([H])[H]

$$$$
33:0:0
     RDKit          3D

 93101  0  0  1  0  0  0  0  0999 V2000
  -28.6300  -21.8250   19.1630 C   0  0  0  0  0  0  0  0  0  0  0  0
  -28.6080  -22.8980   19.9720 N   0  0  0  0  0  0  0  0  0  0  0  0
  -28.4640  -21.9330   17.9450 O   0  0  0  0  0  0  0  0  0  0  0  0
  -28.7180  -22.7500   20.9650 H   0  0  0  0  0  0  0  0  0  0  0  0
  -28.2210  -19.3260   19.1600 C   0  0  0  0  0  3  0  0  0  0  0  0
  -29.6620  -20.2260   20.8890 C   0  0  0  0  0  3  0  0  0  0  0  0
  -28.4660  -18.0180   19.6290 C   0  0  0  0  0  3  0  0  0  0  0  0
  -29.9060  -18.9120   21.3620 C   0  0  0  0  0  3  0  0  0  0  0  0
  -28.8210  -20.4520   19.7740 C   0  0  0  0  0  0  0  0  0  0  0  0
  -29.3190  -17.7870   20.7300 C   0  0  0  0  0  0  0  0  0  0  0  0
  -30.3170  -16.2030   22.5160 C   0  0  0  0  0  1  0  0  0  0  0  0
  -29.6180  -16.3300   21.1470 C   0  0  0  0  0  3  0  0  0  0  0  0
  -31.0230  -14.5120   19.9730 C   0  0  0  0  0  0  0  0  0  0  0  0
  -30.5150  -12.4370   18.7570 C   0  0  0  0  0  2  0  0  0  0  0  0
  -29.5050  -12.7480   17.6330 C   0  0  0  0  0  2  0  0  0  0  0  0
  -28.0630  -12.6420   18.1660 C   0  0  0  0  0  2  0  0  0  0  0  0
  -27.8530  -13.4200   19.4940 C   0  0  0  0  0  3  0  0  0  0  0  0
  -28.9780  -13.1130   20.5070 C   0  0  0  0  0  2  0  0  0  0  0  0
  -30.2560  -13.3950   19.8430 N   0  0  0  0  0  0  0  0  0  0  0  0
  -32.1660  -14.5800   19.5240 O   0  0  0  0  0  0  0  0  0  0  0  0
  -30.3770  -15.6880   20.0700 N   0  0  0  0  0  0  0  0  0  0  0  0
  -30.9060  -16.3900   19.5740 H   0  0  0  0  0  0  0  0  0  0  0  0
  -25.5400  -14.0740   20.4060 C   0  0  0  0  0  0  0  0  0  0  0  0
  -24.4690  -13.3220   20.8070 C   0  0  0  0  0  0  0  0  0  0  0  0
  -24.8710  -11.9580   20.6740 C   0  0  0  0  0  0  0  0  0  0  0  0
  -26.5300  -13.1690   20.0560 N   0  0  0  0  0  0  0  0  0  0  0  0
  -26.1350  -11.8880   20.2740 N   0  0  0  0  0  0  0  0  0  0  0  0
  -24.1090  -10.7140   20.8460 C   0  0  0  0  0  0  0  0  0  0  0  0
  -24.5570   -9.6870   21.7050 C   0  0  0  0  0  3  0  0  0  0  0  0
  -23.7970   -8.5090   21.8690 C   0  0  0  0  0  3  0  0  0  0  0  0
  -22.5750   -8.3510   21.1730 C   0  0  0  0  0  0  0  0  0  0  0  0
  -22.1450   -9.3660   20.3020 C   0  0  0  0  0  3  0  0  0  0  0  0
  -22.9050  -10.5360   20.1360 C   0  0  0  0  0  3  0  0  0  0  0  0
  -21.7830   -7.2300   21.2510 O   0  0  0  0  0  0  0  0  0  0  0  0
  -21.7580   -6.4440   22.3750 C   0  0  0  0  0  0  0  0  0  0  0  0
  -21.4290   -6.9680   23.6440 C   0  0  0  0  0  3  0  0  0  0  0  0
  -21.3460   -6.1110   24.7590 C   0  0  0  0  0  3  0  0  0  0  0  0
  -21.5810   -4.7320   24.6090 C   0  0  0  0  0  0  0  0  0  0  0  0
  -21.9040   -4.2070   23.3450 C   0  0  0  0  0  3  0  0  0  0  0  0
  -21.9880   -5.0610   22.2300 C   0  0  0  0  0  0  0  0  0  0  0  0
  -22.2790   -4.5470   21.0110 F   0  0  0  0  0  0  0  0  0  0  0  0
  -21.4950   -3.9070   25.6780 F   0  0  0  0  0  0  0  0  0  0  0  0
  -23.1150  -13.8350   21.2030 C   0  0  0  0  0  0  0  0  0  0  0  0
  -22.4300  -13.1300   22.0980 N   0  0  0  0  0  0  0  0  0  0  0  0
  -22.6750  -14.8920   20.7540 O   0  0  0  0  0  0  0  0  0  0  0  0
  -22.8000  -12.2730   22.4820 H   0  0  0  0  0  0  0  0  0  0  0  0
  -21.5250  -13.4540   22.4070 H   0  0  0  0  0  0  0  0  0  0  0  0
  -25.7470  -15.4450   20.2870 N   0  0  0  0  0  0  0  0  0  0  0  0
  -25.0170  -16.1210   20.4810 H   0  0  0  0  0  0  0  0  0  0  0  0
  -26.5860  -15.8650   19.9110 H   0  0  0  0  0  0  0  0  0  0  0  0
  -28.4580  -24.2800   19.4760 C   0  0  0  0  0  2  0  0  0  0  0  0
  -28.2860  -25.3250   20.6020 C   0  0  0  0  0  2  0  0  0  0  0  0
  -28.3930  -26.6840   20.1340 O   0  0  0  0  0  0  0  0  0  0  0  0
  -24.6320  -31.8930   23.2070 C   0  0  0  0  0  0  0  0  0  0  0  0
  -27.2290  -27.4250   20.1310 C   0  0  0  0  0  0  0  0  0  0  0  0
  -23.4060  -30.4910   21.5800 C   0  0  0  0  0  3  0  0  0  0  0  0
  -24.8420  -28.9410   20.1480 C   0  0  0  0  0  0  0  0  0  0  0  0
  -25.9320  -30.8420   21.3560 C   0  0  0  0  0  2  0  0  0  0  0  0
  -26.0080  -29.4680   20.7200 C   0  0  0  0  0  0  0  0  0  0  0  0
  -27.2070  -28.7190   20.7000 C   0  0  0  0  0  3  0  0  0  0  0  0
  -26.0470  -26.9130   19.5560 C   0  0  0  0  0  3  0  0  0  0  0  0
  -24.8570  -27.6650   19.5600 C   0  0  0  0  0  3  0  0  0  0  0  0
  -23.6010  -29.8050   20.2010 C   0  0  0  0  0  2  0  0  0  0  0  0
  -24.6760  -31.0900   22.1060 N   0  0  0  0  0  0  0  0  0  0  0  0
  -23.5570  -32.1720   23.7560 O   0  0  0  0  0  0  0  0  0  0  0  0
  -22.7600  -29.4770   22.5500 C   0  0  0  0  0  0  0  0  0  0  0  0
  -21.4330  -29.3030   22.4380 N   0  0  0  0  0  0  0  0  0  0  0  0
  -23.4480  -28.8470   23.3570 O   0  0  0  0  0  0  0  0  0  0  0  0
  -20.9390  -29.8630   21.7560 H   0  0  0  0  0  0  0  0  0  0  0  0
  -18.0580  -28.1300   22.9680 C   0  0  0  0  0  0  0  0  0  0  0  0
  -20.6190  -28.3720   23.2180 C   0  0  0  0  0  3  0  0  0  0  0  0
  -20.7080  -26.9400   22.6440 C   0  0  0  0  0  2  0  0  0  0  0  0
  -19.5960  -26.6220   21.6390 C   0  0  0  0  0  2  0  0  0  0  0  0
  -18.2200  -26.7780   22.2950 C   0  0  0  0  0  2  0  0  0  0  0  0
  -19.1850  -28.8860   23.3870 C   0  0  0  0  0  0  0  0  0  0  0  0
  -18.9800  -30.1530   23.9750 C   0  0  0  0  0  3  0  0  0  0  0  0
  -17.6800  -30.6640   24.1510 C   0  0  0  0  0  3  0  0  0  0  0  0
  -16.5680  -29.9050   23.7490 C   0  0  0  0  0  3  0  0  0  0  0  0
  -16.7570  -28.6390   23.1640 C   0  0  0  0  0  3  0  0  0  0  0  0
  -25.9260  -32.5210   23.8140 C   0  0  0  0  0  3  0  0  0  0  0  0
  -26.4670  -31.7360   25.0710 C   0  0  1  0  0  0  0  0  0  0  0  0
  -25.3940  -31.4810   26.1550 C   0  0  0  0  0  1  0  0  0  0  0  0
  -27.0480  -30.3660   24.6510 C   0  0  0  0  0  1  0  0  0  0  0  0
  -27.6270  -32.5270   25.7230 C   0  0  0  0  0  1  0  0  0  0  0  0
  -25.6200  -33.9150   24.1630 N   0  0  0  0  0  0  0  0  0  0  0  0
  -25.9430  -34.9750   23.4120 C   0  0  0  0  0  0  0  0  0  0  0  0
  -26.6010  -34.8830   22.3720 O   0  0  0  0  0  0  0  0  0  0  0  0
  -25.0310  -34.0590   24.9700 H   0  0  0  0  0  0  0  0  0  0  0  0
  -24.2090  -36.7700   23.0910 C   0  0  0  0  0  1  0  0  0  0  0  0
  -25.4580  -36.3580   23.8890 C   0  0  0  0  0  3  0  0  0  0  0  0
  -27.5990  -37.2330   24.7120 C   0  0  0  0  0  1  0  0  0  0  0  0
  -26.4890  -37.4120   23.7790 N   0  0  0  0  0  0  0  0  0  0  0  0
  -26.0840  -38.3310   23.9430 H   0  0  0  0  0  0  0  0  0  0  0  0
  1  9  1  0
  1  2  1  0
  2  4  1  0
  3  1  2  0
  5  7  2  0
  5  9  1  0
  6  8  1  0
  7 10  1  0
  9  6  2  0
 10 12  1  0
 10  8  2  0
 12 11  1  0
 13 21  1  0
 14 19  1  0
 15 16  1  0
 15 14  1  0
 17 16  1  0
 17 26  1  0
 17 18  1  0
 19 13  1  0
 19 18  1  0
 20 13  2  0
 21 12  1  0
 22 21  1  0
 23 24  2  0
 24 43  1  0
 25 24  1  0
 25 28  1  0
 26 27  1  0
 26 23  1  0
 27 25  2  0
 28 29  1  0
 29 30  2  0
 31 34  1  0
 31 30  1  0
 32 31  2  0
 33 32  1  0
 33 28  2  0
 34 35  1  0
 35 36  1  0
 36 37  2  0
 38 37  1  0
 38 42  1  0
 39 38  2  0
 40 35  2  0
 40 39  1  0
 41 40  1  0
 43 44  1  0
 44 47  1  0
 44 46  1  0
 45 43  2  0
 48 23  1  0
 48 49  1  0
 50 48  1  0
 51  2  1  0
 51 52  1  0
 53 52  1  0
 54 65  2  0
 55 53  1  0
 55 60  1  0
 56 64  1  0
 56 66  1  0
 57 63  1  0
 57 59  1  0
 58 64  1  0
 59 58  1  0
 60 59  2  0
 61 62  1  0
 61 55  2  0
 62 57  2  0
 63 56  1  0
 64 54  1  0
 66 68  2  0
 67 66  1  0
 69 67  1  0
 70 79  2  0
 70 75  1  0
 71 67  1  0
 71 75  1  0
 72 71  1  0
 73 74  1  0
 73 72  1  0
 74 70  1  0
 75 76  2  0
 76 77  1  0
 78 77  2  0
 79 78  1  0
 80 54  1  0
 80 85  1  0
 80 81  1  0
 81 84  1  1
 81 82  1  0
 83 81  1  0
 85 88  1  0
 86 90  1  0
 86 85  1  0
 87 86  2  0
 90 89  1  0
 92 90  1  0
 92 93  1  0
 92 91  1  0
M  ISO  4  13 100  21 100  52 101  53 101
M  END
>  <TORSDO>  (34) 
F 20

>  <SCORE>  (34) 
-13.011

>  <name>  (34) 
33

>  <ligand_id>  (34) 
33

>  <original_smiles>  (34) 
[H]c1c([H])c([H])c2c(c1[H])C([H])([H])C([H])([H])C([H])([H])C2([H])N([H])C(=O)C1([H])N(C(=O)C([H])(N([H])C(=O)C([H])(N([H])C([H])([H])[H])C([H])([H])[H])C(C([H])([H])[H])(C([H])([H])[H])C([H])([H])[H])C([H])([H])c2c([H])c(OC([H])([H])C([H])([H])N([H])C(=O)c3c([H])c([H])c(C([H])(N([H])C(=O)N4C([H])([H])C([H])([H])C([H])([H])C([H])(n5nc(-c6c([H])c([H])c(Oc7c([H])c([H])c(F)c([H])c7F)c([H])c6[H])c(C(=O)N([H])[H])c5N([H])[H])C4([H])[H])C([H])([H])[H])c([H])c3[H])c([H])c([H])c2C1([H])[H]

>  <smiles>  (34) 
[H]c1c([H])c([H])c2c(c1[H])C([H])([H])C([H])([H])C([H])([H])C2([H])N([H])C(=O)C1([H])N(C(=O)C([H])(N([H])C(=O)C([H])(N([H])C([H])([H])[H])C([H])([H])[H])C(C([H])([H])[H])(C([H])([H])[H])C([H])([H])[H])C([H])([H])c2c([H])c(OC([H])([H])C([H])([H])N([H])C(=O)c3c([H])c([H])c(C([H])(N([H])C(=O)N4C([H])([H])C([H])([H])C([H])([H])C([H])(n5nc(-c6c([H])c([H])c(Oc7c([H])c([H])c(F)c([H])c7F)c([H])c6[H])c(C(=O)N([H])[H])c5N([H])[H])C4([H])[H])C([H])([H])[H])c([H])c3[H])c([H])c([H])c2C1([H])[H]

$$$$
34:0:0
     RDKit          3D

 91 99  0  0  1  0  0  0  0  0999 V2000
  -29.0700  -16.5870   19.3090 C   0  0  0  0  0  3  0  0  0  0  0  0
  -30.5830  -17.8400   20.7010 C   0  0  0  0  0  3  0  0  0  0  0  0
  -30.1710  -16.4770   20.1730 C   0  0  0  0  0  0  0  0  0  0  0  0
  -28.2670  -17.7410   19.1720 C   0  0  0  0  0  0  0  0  0  0  0  0
  -29.8230  -19.1420   20.4850 C   0  0  0  0  0  0  0  0  0  0  0  0
  -28.5460  -18.9210   19.8850 C   0  0  0  0  0  0  0  0  0  0  0  0
  -30.8970  -15.0050   20.1200 C   0  0  0  0  0  0  0  0  0  0  0  0
  -30.5400  -12.7630   18.9430 C   0  0  0  0  0  2  0  0  0  0  0  0
  -29.5570  -13.0020   17.7700 C   0  0  0  0  0  2  0  0  0  0  0  0
  -28.1130  -12.7550   18.2650 C   0  0  0  0  0  2  0  0  0  0  0  0
  -27.8080  -13.5390   19.5690 C   0  0  0  0  0  3  0  0  0  0  0  0
  -28.9380  -13.4110   20.6230 C   0  0  0  0  0  2  0  0  0  0  0  0
  -30.2130  -13.7830   19.9890 N   0  0  0  0  0  0  0  0  0  0  0  0
  -32.1050  -14.9690   19.8640 O   0  0  0  0  0  0  0  0  0  0  0  0
  -25.4990  -14.2110   20.4070 C   0  0  0  0  0  0  0  0  0  0  0  0
  -24.3940  -13.4800   20.7900 C   0  0  0  0  0  0  0  0  0  0  0  0
  -24.8000  -12.1170   20.7260 C   0  0  0  0  0  0  0  0  0  0  0  0
  -26.4810  -13.2830   20.1140 N   0  0  0  0  0  0  0  0  0  0  0  0
  -26.0760  -12.0170   20.3700 N   0  0  0  0  0  0  0  0  0  0  0  0
  -24.0220  -10.8900   20.9240 C   0  0  0  0  0  0  0  0  0  0  0  0
  -24.4410   -9.8930   21.8320 C   0  0  0  0  0  3  0  0  0  0  0  0
  -23.6720   -8.7250   22.0070 C   0  0  0  0  0  3  0  0  0  0  0  0
  -22.4730   -8.5510   21.2730 C   0  0  0  0  0  0  0  0  0  0  0  0
  -22.0690   -9.5450   20.3670 C   0  0  0  0  0  3  0  0  0  0  0  0
  -22.8370  -10.7060   20.1890 C   0  0  0  0  0  3  0  0  0  0  0  0
  -21.6710   -7.4320   21.3660 O   0  0  0  0  0  0  0  0  0  0  0  0
  -21.6340   -6.6690   22.4980 C   0  0  0  0  0  0  0  0  0  0  0  0
  -21.2710   -7.2090   23.7560 C   0  0  0  0  0  3  0  0  0  0  0  0
  -21.1950   -6.3750   24.8880 C   0  0  0  0  0  3  0  0  0  0  0  0
  -21.4480   -4.9990   24.7650 C   0  0  0  0  0  0  0  0  0  0  0  0
  -21.7860   -4.4490   23.5200 C   0  0  0  0  0  3  0  0  0  0  0  0
  -21.8830   -5.2840   22.3880 C   0  0  0  0  0  0  0  0  0  0  0  0
  -22.1960   -4.7500   21.1840 F   0  0  0  0  0  0  0  0  0  0  0  0
  -21.3620   -4.1900   25.8520 F   0  0  0  0  0  0  0  0  0  0  0  0
  -23.0360  -14.0470   21.0910 C   0  0  0  0  0  0  0  0  0  0  0  0
  -22.2690  -13.3900   21.9660 N   0  0  0  0  0  0  0  0  0  0  0  0
  -22.6500  -15.1010   20.6040 O   0  0  0  0  0  0  0  0  0  0  0  0
  -22.5600  -12.5240   22.3790 H   0  0  0  0  0  0  0  0  0  0  0  0
  -21.3830  -13.8010   22.2210 H   0  0  0  0  0  0  0  0  0  0  0  0
  -25.7230  -15.5670   20.2740 N   0  0  0  0  0  0  0  0  0  0  0  0
  -24.9270  -16.1920   20.2490 H   0  0  0  0  0  0  0  0  0  0  0  0
  -26.5230  -15.9420   19.7700 H   0  0  0  0  0  0  0  0  0  0  0  0
  -25.7330  -18.0660   18.6290 C   0  0  0  0  0  1  0  0  0  0  0  0
  -27.1770  -17.8020   18.0930 C   0  0  0  0  0  2  0  0  0  0  0  0
  -26.9800  -20.5220   20.7840 C   0  0  0  0  0  1  0  0  0  0  0  0
  -27.6430  -19.9360   19.6630 O   0  0  0  0  0  0  0  0  0  0  0  0
  -30.2310  -20.7960   20.3720 C   0  0  0  0  0  2  0  0  0  0  0  0
  -30.4800  -22.0860   21.4300 C   0  0  0  0  0  2  0  0  0  0  0  0
  -29.4740  -23.4640   21.4040 C   0  0  0  0  0  2  0  0  0  0  0  0
  -29.6280  -24.9630   20.6370 C   0  0  0  0  0  2  0  0  0  0  0  0
  -29.2700  -26.3770   21.1260 O   0  0  0  0  0  0  0  0  0  0  0  0
  -24.9130  -31.7050   23.4050 C   0  0  0  0  0  0  0  0  0  0  0  0
  -28.1150  -27.1770   20.8250 C   0  0  0  0  0  0  0  0  0  0  0  0
  -23.9630  -30.1860   21.6980 C   0  0  0  0  0  3  0  0  0  0  0  0
  -25.6570  -28.6800   20.4750 C   0  0  0  0  0  0  0  0  0  0  0  0
  -26.4890  -30.6580   21.7480 C   0  0  0  0  0  2  0  0  0  0  0  0
  -26.7250  -29.2640   21.1640 C   0  0  0  0  0  0  0  0  0  0  0  0
  -27.9530  -28.5310   21.3120 C   0  0  0  0  0  3  0  0  0  0  0  0
  -27.0200  -26.6740   20.0850 C   0  0  0  0  0  3  0  0  0  0  0  0
  -25.8170  -27.4040   19.9110 C   0  0  0  0  0  3  0  0  0  0  0  0
  -24.3640  -29.4750   20.3750 C   0  0  0  0  0  2  0  0  0  0  0  0
  -25.1320  -30.8730   22.3430 N   0  0  0  0  0  0  0  0  0  0  0  0
  -23.7670  -31.9250   23.8290 O   0  0  0  0  0  0  0  0  0  0  0  0
  -23.2560  -29.1710   22.6310 C   0  0  0  0  0  0  0  0  0  0  0  0
  -21.9560  -28.9130   22.3860 N   0  0  0  0  0  0  0  0  0  0  0  0
  -23.8820  -28.6160   23.5340 O   0  0  0  0  0  0  0  0  0  0  0  0
  -21.5180  -29.3730   21.6020 H   0  0  0  0  0  0  0  0  0  0  0  0
  -18.6080  -27.5570   22.6690 C   0  0  0  0  0  0  0  0  0  0  0  0
  -21.1220  -27.9550   23.1170 C   0  0  0  0  0  3  0  0  0  0  0  0
  -21.3400  -26.5230   22.5770 C   0  0  0  0  0  2  0  0  0  0  0  0
  -20.3350  -26.1290   21.4910 C   0  0  0  0  0  2  0  0  0  0  0  0
  -18.9020  -26.2160   22.0200 C   0  0  0  0  0  2  0  0  0  0  0  0
  -19.6490  -28.3810   23.1670 C   0  0  0  0  0  0  0  0  0  0  0  0
  -19.3200  -29.6370   23.7270 C   0  0  0  0  0  3  0  0  0  0  0  0
  -17.9850  -30.0730   23.7880 C   0  0  0  0  0  3  0  0  0  0  0  0
  -16.9540  -29.2470   23.2990 C   0  0  0  0  0  3  0  0  0  0  0  0
  -17.2680  -27.9920   22.7470 C   0  0  0  0  0  3  0  0  0  0  0  0
  -26.0850  -32.4410   24.1290 C   0  0  0  0  0  3  0  0  0  0  0  0
  -25.6830  -33.8400   24.3340 N   0  0  0  0  0  0  0  0  0  0  0  0
  -26.0410  -34.8610   23.5430 C   0  0  0  0  0  0  0  0  0  0  0  0
  -26.8090  -34.7280   22.5850 O   0  0  0  0  0  0  0  0  0  0  0  0
  -25.0160  -34.0160   25.0730 H   0  0  0  0  0  0  0  0  0  0  0  0
  -24.2750  -36.5410   22.9230 C   0  0  0  0  0  1  0  0  0  0  0  0
  -25.4560  -36.2530   23.8620 C   0  0  0  0  0  3  0  0  0  0  0  0
  -27.4740  -37.2910   24.8010 C   0  0  0  0  0  1  0  0  0  0  0  0
  -26.4510  -37.3450   23.7620 N   0  0  0  0  0  0  0  0  0  0  0  0
  -25.9940  -38.2530   23.8130 H   0  0  0  0  0  0  0  0  0  0  0  0
  -26.4880  -31.7730   25.5010 C   0  0  1  0  0  0  0  0  0  0  0  0
  -25.3010  -31.5500   26.4660 C   0  0  0  0  0  1  0  0  0  0  0  0
  -27.1670  -30.4030   25.2690 C   0  0  0  0  0  1  0  0  0  0  0  0
  -27.5220  -32.6610   26.2270 C   0  0  0  0  0  1  0  0  0  0  0  0
  1  3  1  0
  3  2  2  0
  4  1  2  0
  4  6  1  0
  5  2  1  0
  6  5  2  0
  7  3  1  0
  8 13  1  0
  9 10  1  0
  9  8  1  0
 11 10  1  0
 11 18  1  0
 11 12  1  0
 13  7  1  0
 13 12  1  0
 14  7  2  0
 15 16  2  0
 16 35  1  0
 17 16  1  0
 17 20  1  0
 18 19  1  0
 18 15  1  0
 19 17  2  0
 20 21  1  0
 21 22  2  0
 23 26  1  0
 23 22  1  0
 24 23  2  0
 25 24  1  0
 25 20  2  0
 26 27  1  0
 27 28  1  0
 28 29  2  0
 30 29  1  0
 30 34  1  0
 31 30  2  0
 32 27  2  0
 32 31  1  0
 33 32  1  0
 35 36  1  0
 36 39  1  0
 36 38  1  0
 37 35  2  0
 40 15  1  0
 41 40  1  0
 42 40  1  0
 44 43  1  0
 44  4  1  0
 46  6  1  0
 46 45  1  0
 47  5  1  0
 47 48  1  0
 49 48  1  0
 50 51  1  0
 50 49  1  0
 52 63  2  0
 53 51  1  0
 53 58  1  0
 54 62  1  0
 54 64  1  0
 55 57  1  0
 56 62  1  0
 57 58  2  0
 57 56  1  0
 59 53  2  0
 60 59  1  0
 60 55  2  0
 61 55  1  0
 61 54  1  0
 62 52  1  0
 64 66  2  0
 65 64  1  0
 67 65  1  0
 68 77  2  0
 68 73  1  0
 69 65  1  0
 69 73  1  0
 70 69  1  0
 71 72  1  0
 71 70  1  0
 72 68  1  0
 73 74  2  0
 74 75  1  0
 76 75  2  0
 77 76  1  0
 78 52  1  0
 78 79  1  0
 78 88  1  0
 79 82  1  0
 80 84  1  0
 80 79  1  0
 81 80  2  0
 84 83  1  0
 86 87  1  0
 86 84  1  0
 86 85  1  0
 88 91  1  1
 88 89  1  0
 90 88  1  0
M  ISO  4   3 100   7 100  50 101  51 101
M  END
>  <TORSDO>  (35) 
F 22

>  <SCORE>  (35) 
-10.355

>  <name>  (35) 
34

>  <ligand_id>  (35) 
34

>  <original_smiles>  (35) 
[H]c1c([H])c([H])c2c(c1[H])C([H])([H])C([H])([H])C([H])([H])C2([H])N([H])C(=O)C1([H])N(C(=O)C([H])(N([H])C(=O)C([H])(N([H])C([H])([H])[H])C([H])([H])[H])C(C([H])([H])[H])(C([H])([H])[H])C([H])([H])[H])C([H])([H])c2c([H])c(OC([H])([H])C([H])([H])C([H])([H])C([H])([H])c3c([H])c(C(=O)N4C([H])([H])C([H])([H])C([H])([H])C([H])(n5nc(-c6c([H])c([H])c(Oc7c([H])c([H])c(F)c([H])c7F)c([H])c6[H])c(C(=O)N([H])[H])c5N([H])[H])C4([H])[H])c([H])c(C([H])([H])C([H])([H])[H])c3OC([H])([H])[H])c([H])c([H])c2C1([H])[H]

>  <smiles>  (35) 
[H]c1c([H])c([H])c2c(c1[H])C([H])([H])C([H])([H])C([H])([H])C2([H])N([H])C(=O)C1([H])N(C(=O)C([H])(N([H])C(=O)C([H])(N([H])C([H])([H])[H])C([H])([H])[H])C(C([H])([H])[H])(C([H])([H])[H])C([H])([H])[H])C([H])([H])c2c([H])c(OC([H])([H])C([H])([H])C([H])([H])C([H])([H])c3c([H])c(C(=O)N4C([H])([H])C([H])([H])C([H])([H])C([H])(n5nc(-c6c([H])c([H])c(Oc7c([H])c([H])c(F)c([H])c7F)c([H])c6[H])c(C(=O)N([H])[H])c5N([H])[H])C4([H])[H])c([H])c(C([H])([H])C([H])([H])[H])c3OC([H])([H])[H])c([H])c([H])c2C1([H])[H]

$$$$
36:0:0
     RDKit          3D

 91 99  0  0  1  0  0  0  0  0999 V2000
  -29.7220  -19.9620   20.3690 C   0  0  0  0  0  3  0  0  0  0  0  0
  -29.2140  -21.1790   20.7680 C   0  0  0  0  0  3  0  0  0  0  0  0
  -29.8290  -18.6740   21.1960 C   0  0  0  0  0  0  0  0  0  0  0  0
  -29.2490  -18.5660   22.2790 O   0  0  0  0  0  0  0  0  0  0  0  0
  -31.9920  -17.1710   18.6430 C   0  0  0  0  0  3  0  0  0  0  0  0
  -31.7560  -17.8300   19.8670 C   0  0  0  0  0  3  0  0  0  0  0  0
  -30.9610  -16.3540   18.1430 C   0  0  0  0  0  2  0  0  0  0  0  0
  -30.6050  -17.4800   20.6200 C   0  0  0  0  0  3  0  0  0  0  0  0
  -30.0500  -16.1500   20.4060 C   0  0  0  0  0  3  0  0  0  0  0  0
  -29.8750  -16.0330   18.9920 C   0  0  0  0  0  3  0  0  0  0  0  0
  -28.5220  -15.8520   18.3290 C   0  0  0  0  0  1  0  0  0  0  0  0
  -30.7880  -14.8860   20.9760 C   0  0  0  0  0  0  0  0  0  0  0  0
  -30.7240  -12.5290   20.2260 C   0  0  0  0  0  2  0  0  0  0  0  0
  -29.9200  -12.4700   18.9120 C   0  0  0  0  0  2  0  0  0  0  0  0
  -28.4110  -12.3190   19.1990 C   0  0  0  0  0  2  0  0  0  0  0  0
  -27.8920  -13.2640   20.3190 C   0  0  0  0  0  3  0  0  0  0  0  0
  -28.8430  -13.3330   21.5240 C   0  0  0  0  0  2  0  0  0  0  0  0
  -30.1820  -13.6520   21.0160 N   0  0  0  0  0  0  0  0  0  0  0  0
  -32.0180  -14.9440   21.0400 O   0  0  0  0  0  0  0  0  0  0  0  0
  -25.4460  -13.8470   20.8180 C   0  0  0  0  0  0  0  0  0  0  0  0
  -24.3580  -13.0650   21.0900 C   0  0  0  0  0  0  0  0  0  0  0  0
  -24.8380  -11.7200   21.1190 C   0  0  0  0  0  0  0  0  0  0  0  0
  -26.5160  -12.9740   20.6950 N   0  0  0  0  0  0  0  0  0  0  0  0
  -26.1500  -11.6920   20.9380 N   0  0  0  0  0  0  0  0  0  0  0  0
  -24.1140  -10.4510   21.2530 C   0  0  0  0  0  0  0  0  0  0  0  0
  -24.4780   -9.4930   22.2240 C   0  0  0  0  0  3  0  0  0  0  0  0
  -23.7550   -8.2870   22.3450 C   0  0  0  0  0  3  0  0  0  0  0  0
  -22.6550   -8.0310   21.4930 C   0  0  0  0  0  0  0  0  0  0  0  0
  -22.3140   -8.9770   20.5100 C   0  0  0  0  0  3  0  0  0  0  0  0
  -23.0380  -10.1740   20.3870 C   0  0  0  0  0  3  0  0  0  0  0  0
  -21.9100   -6.8770   21.5220 O   0  0  0  0  0  0  0  0  0  0  0  0
  -21.7700   -6.1410   22.6710 C   0  0  0  0  0  0  0  0  0  0  0  0
  -21.2180   -6.6930   23.8470 C   0  0  0  0  0  3  0  0  0  0  0  0
  -21.0270   -5.8820   24.9840 C   0  0  0  0  0  3  0  0  0  0  0  0
  -21.3790   -4.5190   24.9430 C   0  0  0  0  0  0  0  0  0  0  0  0
  -21.9250   -3.9670   23.7710 C   0  0  0  0  0  3  0  0  0  0  0  0
  -22.1160   -4.7750   22.6380 C   0  0  0  0  0  0  0  0  0  0  0  0
  -22.6230   -4.2330   21.5040 F   0  0  0  0  0  0  0  0  0  0  0  0
  -21.1900   -3.7370   26.0310 F   0  0  0  0  0  0  0  0  0  0  0  0
  -22.9360  -13.5270   21.2230 C   0  0  0  0  0  0  0  0  0  0  0  0
  -22.1410  -12.8360   22.0340 N   0  0  0  0  0  0  0  0  0  0  0  0
  -22.5340  -14.5370   20.6450 O   0  0  0  0  0  0  0  0  0  0  0  0
  -22.4760  -12.0200   22.5230 H   0  0  0  0  0  0  0  0  0  0  0  0
  -21.1820  -13.1290   22.1660 H   0  0  0  0  0  0  0  0  0  0  0  0
  -25.6110  -15.2190   20.6480 N   0  0  0  0  0  0  0  0  0  0  0  0
  -24.8370  -15.8700   20.7010 H   0  0  0  0  0  0  0  0  0  0  0  0
  -26.5000  -15.6720   20.4790 H   0  0  0  0  0  0  0  0  0  0  0  0
  -28.9430  -22.4280   19.8470 C   0  0  0  0  0  2  0  0  0  0  0  0
  -29.1580  -23.9360   20.3450 C   0  0  0  0  0  3  0  0  0  0  0  0
  -28.2480  -25.0410   19.6280 C   0  0  0  0  0  3  0  0  0  0  0  0
  -28.4080  -26.5040   19.8660 O   0  0  0  0  0  0  0  0  0  0  0  0
  -24.5760  -31.7380   23.0480 C   0  0  0  0  0  0  0  0  0  0  0  0
  -27.2710  -27.3380   19.8200 C   0  0  0  0  0  0  0  0  0  0  0  0
  -23.3860  -30.3410   21.3960 C   0  0  0  0  0  3  0  0  0  0  0  0
  -24.8560  -28.8850   19.8950 C   0  0  0  0  0  0  0  0  0  0  0  0
  -25.9100  -30.7450   21.1740 C   0  0  0  0  0  2  0  0  0  0  0  0
  -26.0200  -29.3880   20.4900 C   0  0  0  0  0  0  0  0  0  0  0  0
  -27.2270  -28.6240   20.4480 C   0  0  0  0  0  3  0  0  0  0  0  0
  -26.0860  -26.9130   19.1720 C   0  0  0  0  0  3  0  0  0  0  0  0
  -24.8930  -27.6540   19.2260 C   0  0  0  0  0  3  0  0  0  0  0  0
  -23.5920  -29.7130   19.9930 C   0  0  0  0  0  2  0  0  0  0  0  0
  -24.6430  -30.9580   21.9290 N   0  0  0  0  0  0  0  0  0  0  0  0
  -23.4950  -31.9650   23.6090 O   0  0  0  0  0  0  0  0  0  0  0  0
  -22.7780  -29.2770   22.3410 C   0  0  0  0  0  0  0  0  0  0  0  0
  -21.4580  -29.0470   22.2260 N   0  0  0  0  0  0  0  0  0  0  0  0
  -23.4920  -28.6630   23.1390 O   0  0  0  0  0  0  0  0  0  0  0  0
  -20.9390  -29.5980   21.5570 H   0  0  0  0  0  0  0  0  0  0  0  0
  -18.1420  -27.6890   22.7230 C   0  0  0  0  0  0  0  0  0  0  0  0
  -20.6880  -28.0610   22.9860 C   0  0  0  0  0  3  0  0  0  0  0  0
  -20.8520  -26.6440   22.3890 C   0  0  0  0  0  2  0  0  0  0  0  0
  -19.7610  -26.2860   21.3750 C   0  0  0  0  0  2  0  0  0  0  0  0
  -18.3780  -26.3580   22.0270 C   0  0  0  0  0  2  0  0  0  0  0  0
  -19.2270  -28.4940   23.1590 C   0  0  0  0  0  0  0  0  0  0  0  0
  -18.9530  -29.7380   23.7690 C   0  0  0  0  0  3  0  0  0  0  0  0
  -17.6270  -30.1760   23.9480 C   0  0  0  0  0  3  0  0  0  0  0  0
  -16.5570  -29.3670   23.5280 C   0  0  0  0  0  3  0  0  0  0  0  0
  -16.8160  -28.1240   22.9210 C   0  0  0  0  0  3  0  0  0  0  0  0
  -25.8500  -32.3970   23.6590 C   0  0  0  0  0  3  0  0  0  0  0  0
  -25.4970  -33.7710   24.0440 N   0  0  0  0  0  0  0  0  0  0  0  0
  -25.7960  -34.8630   23.3290 C   0  0  0  0  0  0  0  0  0  0  0  0
  -26.4690  -34.8210   22.2950 O   0  0  0  0  0  0  0  0  0  0  0  0
  -24.9000  -33.8750   24.8520 H   0  0  0  0  0  0  0  0  0  0  0  0
  -24.0250  -36.6230   23.0320 C   0  0  0  0  0  1  0  0  0  0  0  0
  -25.2660  -36.2160   23.8410 C   0  0  0  0  0  3  0  0  0  0  0  0
  -27.3650  -37.1200   24.7400 C   0  0  0  0  0  1  0  0  0  0  0  0
  -26.2720  -37.3010   23.7880 N   0  0  0  0  0  0  0  0  0  0  0  0
  -25.8390  -38.2020   23.9680 H   0  0  0  0  0  0  0  0  0  0  0  0
  -26.4240  -31.6050   24.8980 C   0  0  1  0  0  0  0  0  0  0  0  0
  -25.3690  -31.2980   25.9850 C   0  0  0  0  0  1  0  0  0  0  0  0
  -27.0420  -30.2600   24.4500 C   0  0  0  0  0  1  0  0  0  0  0  0
  -27.5650  -32.4170   25.5550 C   0  0  0  0  0  1  0  0  0  0  0  0
  1  2  2  0
  1  3  1  0
  3  4  2  0
  5  6  2  0
  6  8  1  0
  7  5  1  0
  7 10  1  0
  8  3  1  0
  9  8  1  0
  9 12  1  0
 10 11  1  0
 10  9  1  0
 12 18  1  0
 12 19  2  0
 13 18  1  0
 14 15  1  0
 14 13  1  0
 16 15  1  0
 16 23  1  0
 16 17  1  0
 18 17  1  0
 20 21  2  0
 21 22  1  0
 21 40  1  0
 22 25  1  0
 23 20  1  0
 23 24  1  0
 24 22  2  0
 25 26  1  0
 26 27  2  0
 28 31  1  0
 28 27  1  0
 29 28  2  0
 30 29  1  0
 30 25  2  0
 31 32  1  0
 32 33  1  0
 33 34  2  0
 35 34  1  0
 35 39  1  0
 36 35  2  0
 37 32  2  0
 37 36  1  0
 38 37  1  0
 40 41  1  0
 41 44  1  0
 41 43  1  0
 42 40  2  0
 45 46  1  0
 45 20  1  0
 47 45  1  0
 48 49  1  0
 48  2  1  0
 50 51  1  0
 50 49  2  0
 52 63  2  0
 53 51  1  0
 53 58  1  0
 54 62  1  0
 54 64  1  0
 55 61  1  0
 55 57  1  0
 56 62  1  0
 57 56  1  0
 58 57  2  0
 59 60  1  0
 59 53  2  0
 60 55  2  0
 61 54  1  0
 62 52  1  0
 64 66  2  0
 65 64  1  0
 67 65  1  0
 68 77  2  0
 68 73  1  0
 69 65  1  0
 69 73  1  0
 70 69  1  0
 71 72  1  0
 71 70  1  0
 72 68  1  0
 73 74  2  0
 74 75  1  0
 76 75  2  0
 77 76  1  0
 78 52  1  0
 78 79  1  0
 78 88  1  0
 79 82  1  0
 80 84  1  0
 80 79  1  0
 81 80  2  0
 84 83  1  0
 86 84  1  0
 86 87  1  0
 86 85  1  0
 88 91  1  1
 88 89  1  0
 90 88  1  0
M  ISO  4   9 100  12 100  50 101  51 101
M  END
>  <TORSDO>  (36) 
F 21

>  <SCORE>  (36) 
-10.527

>  <name>  (36) 
36

>  <ligand_id>  (36) 
36

>  <original_smiles>  (36) 
[H]C(C(=O)c1c([H])c([H])c([H])c(C([H])([H])[H])c1C(=O)N1C([H])([H])C([H])([H])C([H])([H])C([H])(n2nc(-c3c([H])c([H])c(Oc4c([H])c([H])c(F)c([H])c4F)c([H])c3[H])c(C(=O)N([H])[H])c2N([H])[H])C1([H])[H])=C([H])C([H])([H])C([H])([H])C([H])([H])Oc1c([H])c([H])c2c(c1[H])C([H])([H])N(C(=O)C([H])(N([H])C(=O)C([H])(N([H])C([H])([H])[H])C([H])([H])[H])C(C([H])([H])[H])(C([H])([H])[H])C([H])([H])[H])C([H])(C(=O)N([H])C1([H])c3c([H])c([H])c([H])c([H])c3C([H])([H])C([H])([H])C1([H])[H])C2([H])[H]

>  <smiles>  (36) 
[H]C(C(=O)c1c([H])c([H])c([H])c(C([H])([H])[H])c1C(=O)N1C([H])([H])C([H])([H])C([H])([H])C([H])(n2nc(-c3c([H])c([H])c(Oc4c([H])c([H])c(F)c([H])c4F)c([H])c3[H])c(C(=O)N([H])[H])c2N([H])[H])C1([H])[H])=C([H])C([H])([H])C([H])([H])C([H])([H])Oc1c([H])c([H])c2c(c1[H])C([H])([H])N(C(=O)C([H])(N([H])C(=O)C([H])(N([H])C([H])([H])[H])C([H])([H])[H])C(C([H])([H])[H])(C([H])([H])[H])C([H])([H])[H])C([H])(C(=O)N([H])C1([H])c3c([H])c([H])c([H])c([H])c3C([H])([H])C([H])([H])C1([H])[H])C2([H])[H]

$$$$
37:0:0
     RDKit          3D

 92100  0  0  1  0  0  0  0  0999 V2000
  -29.0200  -21.2190   20.5890 C   0  0  0  0  0  3  0  0  0  0  0  0
  -28.8570  -22.5240   18.5710 C   0  0  0  0  0  3  0  0  0  0  0  0
  -29.4070  -19.8560   19.9330 C   0  0  0  0  0  0  0  0  0  0  0  0
  -28.7160  -22.6210   19.9680 C   0  0  0  0  0  0  0  0  0  0  0  0
  -29.1810  -21.3190   17.8800 C   0  0  0  0  0  0  0  0  0  0  0  0
  -29.4260  -20.0560   18.5170 C   0  0  0  0  0  0  0  0  0  0  0  0
  -29.2710  -21.4180   16.3570 C   0  0  0  0  0  1  0  0  0  0  0  0
  -29.7450  -18.9780   17.6870 N   0  0  0  0  0  0  0  0  0  0  0  0
  -30.2100  -18.1750   18.0930 H   0  0  0  0  0  0  0  0  0  0  0  0
  -30.0220  -19.1660   16.7300 H   0  0  0  0  0  0  0  0  0  0  0  0
  -29.7810  -16.8530   20.1390 C   0  0  0  0  0  3  0  0  0  0  0  0
  -29.9520  -18.2960   20.4790 C   0  0  0  0  0  0  0  0  0  0  0  0
  -30.5520  -15.4150   20.4240 C   0  0  0  0  0  0  0  0  0  0  0  0
  -30.5830  -12.9160   19.6680 C   0  0  0  0  0  2  0  0  0  0  0  0
  -29.7290  -12.6150   18.4100 C   0  0  0  0  0  2  0  0  0  0  0  0
  -28.2660  -12.3360   18.7980 C   0  0  0  0  0  2  0  0  0  0  0  0
  -27.7410  -13.3510   19.8410 C   0  0  0  0  0  3  0  0  0  0  0  0
  -28.7300  -13.6020   20.9950 C   0  0  0  0  0  2  0  0  0  0  0  0
  -29.9820  -14.1000   20.3910 N   0  0  0  0  0  0  0  0  0  0  0  0
  -31.7920  -15.3330   20.3980 O   0  0  0  0  0  0  0  0  0  0  0  0
  -25.3450  -13.9160   20.4980 C   0  0  0  0  0  0  0  0  0  0  0  0
  -24.2660  -13.1450   20.8340 C   0  0  0  0  0  0  0  0  0  0  0  0
  -24.7360  -11.7960   20.8540 C   0  0  0  0  0  0  0  0  0  0  0  0
  -26.3970  -13.0380   20.3120 N   0  0  0  0  0  0  0  0  0  0  0  0
  -26.0420  -11.7580   20.6010 N   0  0  0  0  0  0  0  0  0  0  0  0
  -24.0010  -10.5370   21.0380 C   0  0  0  0  0  0  0  0  0  0  0  0
  -24.3890   -9.5870   22.0080 C   0  0  0  0  0  3  0  0  0  0  0  0
  -23.6500   -8.3950   22.1820 C   0  0  0  0  0  3  0  0  0  0  0  0
  -22.5090   -8.1460   21.3820 C   0  0  0  0  0  0  0  0  0  0  0  0
  -22.1410   -9.0820   20.3990 C   0  0  0  0  0  3  0  0  0  0  0  0
  -22.8820  -10.2640   20.2250 C   0  0  0  0  0  3  0  0  0  0  0  0
  -21.7500   -7.0010   21.4560 O   0  0  0  0  0  0  0  0  0  0  0  0
  -21.6480   -6.2780   22.6170 C   0  0  0  0  0  0  0  0  0  0  0  0
  -21.1600   -6.8500   23.8130 C   0  0  0  0  0  3  0  0  0  0  0  0
  -21.0110   -6.0550   24.9650 C   0  0  0  0  0  3  0  0  0  0  0  0
  -21.3410   -4.6860   24.9240 C   0  0  0  0  0  0  0  0  0  0  0  0
  -21.8240   -4.1140   23.7330 C   0  0  0  0  0  3  0  0  0  0  0  0
  -21.9750   -4.9070   22.5830 C   0  0  0  0  0  0  0  0  0  0  0  0
  -22.4210   -4.3460   21.4330 F   0  0  0  0  0  0  0  0  0  0  0  0
  -21.1900   -3.9190   26.0290 F   0  0  0  0  0  0  0  0  0  0  0  0
  -22.8590  -13.6280   21.0230 C   0  0  0  0  0  0  0  0  0  0  0  0
  -22.0810  -12.9580   21.8670 N   0  0  0  0  0  0  0  0  0  0  0  0
  -22.4510  -14.6380   20.4510 O   0  0  0  0  0  0  0  0  0  0  0  0
  -22.4170  -12.1440   22.3590 H   0  0  0  0  0  0  0  0  0  0  0  0
  -21.1350  -13.2720   22.0270 H   0  0  0  0  0  0  0  0  0  0  0  0
  -25.5180  -15.2840   20.3000 N   0  0  0  0  0  0  0  0  0  0  0  0
  -24.7540  -15.9470   20.3820 H   0  0  0  0  0  0  0  0  0  0  0  0
  -26.3910  -15.7170   20.0310 H   0  0  0  0  0  0  0  0  0  0  0  0
  -30.9090  -18.5290   21.3870 O   0  0  0  0  0  0  0  0  0  0  0  0
  -31.0590  -19.4670   21.4060 H   0  0  0  0  0  0  0  0  0  0  0  0
  -28.0520  -24.1590   20.5610 C   0  0  0  0  0  2  0  0  0  0  0  0
  -28.2630  -25.7840   20.2260 O   0  0  0  0  0  0  0  0  0  0  0  0
  -24.6220  -31.8410   23.1560 C   0  0  0  0  0  0  0  0  0  0  0  0
  -27.2450  -26.8950   20.2400 C   0  0  0  0  0  0  0  0  0  0  0  0
  -23.4640  -30.4210   21.5160 C   0  0  0  0  0  3  0  0  0  0  0  0
  -24.9420  -28.7940   20.1470 C   0  0  0  0  0  0  0  0  0  0  0  0
  -26.0350  -30.6240   21.4150 C   0  0  0  0  0  2  0  0  0  0  0  0
  -26.1230  -29.2010   20.7800 C   0  0  0  0  0  0  0  0  0  0  0  0
  -27.2720  -28.2760   20.7940 C   0  0  0  0  0  3  0  0  0  0  0  0
  -26.0250  -26.6450   19.5690 C   0  0  0  0  0  3  0  0  0  0  0  0
  -24.9210  -27.5360   19.5230 C   0  0  0  0  0  3  0  0  0  0  0  0
  -23.7240  -29.7200   20.1550 C   0  0  0  0  0  2  0  0  0  0  0  0
  -24.7280  -30.9920   22.0810 N   0  0  0  0  0  0  0  0  0  0  0  0
  -23.5210  -32.1320   23.6520 O   0  0  0  0  0  0  0  0  0  0  0  0
  -22.7510  -29.4370   22.4810 C   0  0  0  0  0  0  0  0  0  0  0  0
  -21.4180  -29.2960   22.3590 N   0  0  0  0  0  0  0  0  0  0  0  0
  -23.4060  -28.7980   23.3090 O   0  0  0  0  0  0  0  0  0  0  0  0
  -20.9400  -29.8630   21.6710 H   0  0  0  0  0  0  0  0  0  0  0  0
  -18.0100  -28.1740   22.9060 C   0  0  0  0  0  0  0  0  0  0  0  0
  -20.5800  -28.3710   23.1290 C   0  0  0  0  0  3  0  0  0  0  0  0
  -20.6360  -26.9450   22.5310 C   0  0  0  0  0  2  0  0  0  0  0  0
  -19.5090  -26.6680   21.5310 C   0  0  0  0  0  2  0  0  0  0  0  0
  -18.1420  -26.8340   22.2010 C   0  0  0  0  0  2  0  0  0  0  0  0
  -19.1550  -28.9030   23.3250 C   0  0  0  0  0  0  0  0  0  0  0  0
  -18.9760  -30.1570   23.9500 C   0  0  0  0  0  3  0  0  0  0  0  0
  -17.6860  -30.6820   24.1550 C   0  0  0  0  0  3  0  0  0  0  0  0
  -16.5570  -29.9510   23.7490 C   0  0  0  0  0  3  0  0  0  0  0  0
  -16.7190  -28.6990   23.1290 C   0  0  0  0  0  3  0  0  0  0  0  0
  -25.8770  -32.4970   23.8070 C   0  0  0  0  0  3  0  0  0  0  0  0
  -26.3650  -31.7450   25.1070 C   0  0  1  0  0  0  0  0  0  0  0  0
  -25.2490  -31.5190   26.1520 C   0  0  0  0  0  1  0  0  0  0  0  0
  -26.9630  -30.3630   24.7610 C   0  0  0  0  0  1  0  0  0  0  0  0
  -27.4970  -32.5520   25.7880 C   0  0  0  0  0  1  0  0  0  0  0  0
  -25.5450  -33.8980   24.1260 N   0  0  0  0  0  0  0  0  0  0  0  0
  -25.8940  -34.9590   23.3870 C   0  0  0  0  0  0  0  0  0  0  0  0
  -26.5910  -34.8630   22.3750 O   0  0  0  0  0  0  0  0  0  0  0  0
  -24.9310  -34.0460   24.9130 H   0  0  0  0  0  0  0  0  0  0  0  0
  -24.1820  -36.7650   22.9990 C   0  0  0  0  0  1  0  0  0  0  0  0
  -25.3960  -36.3470   23.8430 C   0  0  0  0  0  3  0  0  0  0  0  0
  -27.4990  -37.2300   24.7530 C   0  0  0  0  0  1  0  0  0  0  0  0
  -26.4320  -37.4000   23.7700 N   0  0  0  0  0  0  0  0  0  0  0  0
  -26.0220  -38.3200   23.9010 H   0  0  0  0  0  0  0  0  0  0  0  0
  2  4  2  0
  3 12  1  0
  3  1  2  0
  4 51  1  0
  4  1  1  0
  5  6  2  0
  5  2  1  0
  6  3  1  0
  7  5  1  0
  8  9  1  0
  8  6  1  0
 10  8  1  0
 11 13  1  0
 11 12  2  0
 12 49  1  0
 14 19  1  0
 15 16  1  0
 15 14  1  0
 17 16  1  0
 17 24  1  0
 17 18  1  0
 19 13  1  0
 19 18  1  0
 20 13  2  0
 21 22  2  0
 22 23  1  0
 22 41  1  0
 23 26  1  0
 24 21  1  0
 24 25  1  0
 25 23  2  0
 26 27  1  0
 27 28  2  0
 29 32  1  0
 29 28  1  0
 30 29  2  0
 31 30  1  0
 31 26  2  0
 32 33  1  0
 33 34  1  0
 34 35  2  0
 36 35  1  0
 36 40  1  0
 37 36  2  0
 38 33  2  0
 38 37  1  0
 39 38  1  0
 41 42  1  0
 42 45  1  0
 42 44  1  0
 43 41  2  0
 46 47  1  0
 46 21  1  0
 48 46  1  0
 49 50  1  0
 52 54  1  0
 52 51  1  0
 53 64  2  0
 54 59  1  0
 55 63  1  0
 55 65  1  0
 56 62  1  0
 56 58  1  0
 57 63  1  0
 58 59  2  0
 58 57  1  0
 60 54  2  0
 61 60  1  0
 61 56  2  0
 62 55  1  0
 63 53  1  0
 65 67  2  0
 66 65  1  0
 68 66  1  0
 69 78  2  0
 69 74  1  0
 70 66  1  0
 70 74  1  0
 71 70  1  0
 72 73  1  0
 72 71  1  0
 73 69  1  0
 74 75  2  0
 75 76  1  0
 77 76  2  0
 78 77  1  0
 79 53  1  0
 79 84  1  0
 79 80  1  0
 80 83  1  1
 80 81  1  0
 82 80  1  0
 84 87  1  0
 85 89  1  0
 85 84  1  0
 86 85  2  0
 89 88  1  0
 91 89  1  0
 91 92  1  0
 91 90  1  0
M  ISO  4  11 100  13 100  51 101  52 101
M  END
>  <TORSDO>  (37) 
F 20

>  <SCORE>  (37) 
-15.509

>  <name>  (37) 
37

>  <ligand_id>  (37) 
37

>  <original_smiles>  (37) 
[H]OC(=C([H])C(=O)N1C([H])([H])C([H])([H])C([H])([H])C([H])(n2nc(-c3c([H])c([H])c(Oc4c([H])c([H])c(F)c([H])c4F)c([H])c3[H])c(C(=O)N([H])[H])c2N([H])[H])C1([H])[H])c1c([H])c(C([H])([H])Oc2c([H])c([H])c3c(c2[H])C([H])([H])N(C(=O)C([H])(N([H])C(=O)C([H])(N([H])C([H])([H])[H])C([H])([H])[H])C(C([H])([H])[H])(C([H])([H])[H])C([H])([H])[H])C([H])(C(=O)N([H])C2([H])c4c([H])c([H])c([H])c([H])c4C([H])([H])C([H])([H])C2([H])[H])C3([H])[H])c([H])c(C([H])([H])[H])c1N([H])[H]

>  <smiles>  (37) 
[H]OC(=C([H])C(=O)N1C([H])([H])C([H])([H])C([H])([H])C([H])(n2nc(-c3c([H])c([H])c(Oc4c([H])c([H])c(F)c([H])c4F)c([H])c3[H])c(C(=O)N([H])[H])c2N([H])[H])C1([H])[H])c1c([H])c(C([H])([H])Oc2c([H])c([H])c3c(c2[H])C([H])([H])N(C(=O)C([H])(N([H])C(=O)C([H])(N([H])C([H])([H])[H])C([H])([H])[H])C(C([H])([H])[H])(C([H])([H])[H])C([H])([H])[H])C([H])(C(=O)N([H])C2([H])c4c([H])c([H])c([H])c([H])c4C([H])([H])C([H])([H])C2([H])[H])C3([H])[H])c([H])c(C([H])([H])[H])c1N([H])[H]

$$$$
38:0:0
     RDKit          3D

 90 98  0  0  1  0  0  0  0  0999 V2000
  -28.9860  -22.3760   21.4820 C   0  0  0  0  0  3  0  0  0  0  0  0
  -28.7410  -23.8260   21.4240 C   0  0  0  0  0  3  0  0  0  0  0  0
  -28.3060  -23.6470   19.1690 C   0  0  0  0  0  3  0  0  0  0  0  0
  -28.9440  -21.4120   20.3940 C   0  0  0  0  0  0  0  0  0  0  0  0
  -28.3610  -24.6030   20.2670 C   0  0  0  0  0  0  0  0  0  0  0  0
  -28.5570  -22.1810   19.2190 C   0  0  0  0  0  0  0  0  0  0  0  0
  -28.3870  -21.5030   18.0610 F   0  0  0  0  0  0  0  0  0  0  0  0
  -29.1030  -19.7490   20.6770 C   0  0  0  0  0  0  0  0  0  0  0  0
  -28.6500  -19.3880   21.7670 O   0  0  0  0  0  0  0  0  0  0  0  0
  -29.3390  -18.5170   18.4140 C   0  0  0  0  0  1  0  0  0  0  0  0
  -31.3360  -18.7370   19.8970 C   0  0  0  0  0  1  0  0  0  0  0  0
  -29.8290  -18.4190   19.8690 C   0  0  1  0  0  0  0  0  0  0  0  0
  -29.6690  -16.7210   20.3630 C   0  0  0  0  0  2  0  0  0  0  0  0
  -30.4670  -15.2510   19.9170 C   0  0  0  0  0  0  0  0  0  0  0  0
  -30.3930  -12.8540   18.9580 C   0  0  0  0  0  2  0  0  0  0  0  0
  -29.3920  -12.7550   17.7790 C   0  0  0  0  0  2  0  0  0  0  0  0
  -27.9580  -12.5120   18.2850 C   0  0  0  0  0  2  0  0  0  0  0  0
  -27.6030  -13.4150   19.4930 C   0  0  0  0  0  3  0  0  0  0  0  0
  -28.7190  -13.4550   20.5560 C   0  0  0  0  0  2  0  0  0  0  0  0
  -29.9340  -13.9400   19.8900 N   0  0  0  0  0  0  0  0  0  0  0  0
  -31.6380  -15.3010   19.5150 O   0  0  0  0  0  0  0  0  0  0  0  0
  -25.2800  -13.9580   20.4010 C   0  0  0  0  0  0  0  0  0  0  0  0
  -24.2420  -13.1740   20.8160 C   0  0  0  0  0  0  0  0  0  0  0  0
  -24.7030  -11.8230   20.7220 C   0  0  0  0  0  0  0  0  0  0  0  0
  -26.3040  -13.0890   20.0680 N   0  0  0  0  0  0  0  0  0  0  0  0
  -25.9710  -11.7970   20.3270 N   0  0  0  0  0  0  0  0  0  0  0  0
  -23.9830  -10.5590   20.9290 C   0  0  0  0  0  0  0  0  0  0  0  0
  -24.4400   -9.5890   21.8500 C   0  0  0  0  0  3  0  0  0  0  0  0
  -23.7210   -8.3890   22.0420 C   0  0  0  0  0  3  0  0  0  0  0  0
  -22.5310   -8.1520   21.3130 C   0  0  0  0  0  0  0  0  0  0  0  0
  -22.0950   -9.1070   20.3790 C   0  0  0  0  0  3  0  0  0  0  0  0
  -22.8150  -10.2980   20.1860 C   0  0  0  0  0  3  0  0  0  0  0  0
  -21.7780   -7.0060   21.4200 O   0  0  0  0  0  0  0  0  0  0  0  0
  -21.7160   -6.2900   22.5870 C   0  0  0  0  0  0  0  0  0  0  0  0
  -21.2710   -6.8710   23.7950 C   0  0  0  0  0  3  0  0  0  0  0  0
  -21.1590   -6.0800   24.9560 C   0  0  0  0  0  3  0  0  0  0  0  0
  -21.4790   -4.7090   24.9100 C   0  0  0  0  0  0  0  0  0  0  0  0
  -21.9160   -4.1290   23.7060 C   0  0  0  0  0  3  0  0  0  0  0  0
  -22.0310   -4.9170   22.5480 C   0  0  0  0  0  0  0  0  0  0  0  0
  -22.4340   -4.3480   21.3860 F   0  0  0  0  0  0  0  0  0  0  0  0
  -21.3610   -3.9470   26.0220 F   0  0  0  0  0  0  0  0  0  0  0  0
  -22.8650  -13.6410   21.1850 C   0  0  0  0  0  0  0  0  0  0  0  0
  -22.1940  -12.9220   22.0780 N   0  0  0  0  0  0  0  0  0  0  0  0
  -22.3960  -14.6790   20.7170 O   0  0  0  0  0  0  0  0  0  0  0  0
  -22.5920  -12.0860   22.4780 H   0  0  0  0  0  0  0  0  0  0  0  0
  -21.2700  -13.2090   22.3680 H   0  0  0  0  0  0  0  0  0  0  0  0
  -25.4290  -15.3340   20.2530 N   0  0  0  0  0  0  0  0  0  0  0  0
  -24.6580  -15.9710   20.4260 H   0  0  0  0  0  0  0  0  0  0  0  0
  -26.2420  -15.7930   19.8630 H   0  0  0  0  0  0  0  0  0  0  0  0
  -28.3240  -26.1140   20.2150 O   0  0  0  0  0  0  0  0  0  0  0  0
  -24.6380  -31.8930   23.2170 C   0  0  0  0  0  0  0  0  0  0  0  0
  -27.2330  -27.0950   20.2150 C   0  0  0  0  0  0  0  0  0  0  0  0
  -23.4460  -30.4810   21.5820 C   0  0  0  0  0  3  0  0  0  0  0  0
  -24.9020  -28.8890   20.1680 C   0  0  0  0  0  0  0  0  0  0  0  0
  -26.0020  -30.7380   21.4180 C   0  0  0  0  0  2  0  0  0  0  0  0
  -26.0800  -29.3280   20.7830 C   0  0  0  0  0  0  0  0  0  0  0  0
  -27.2390  -28.4480   20.7870 C   0  0  0  0  0  3  0  0  0  0  0  0
  -26.0260  -26.7780   19.5550 C   0  0  0  0  0  3  0  0  0  0  0  0
  -24.8930  -27.6320   19.5380 C   0  0  0  0  0  3  0  0  0  0  0  0
  -23.6730  -29.7920   20.2080 C   0  0  0  0  0  2  0  0  0  0  0  0
  -24.7160  -31.0640   22.1270 N   0  0  0  0  0  0  0  0  0  0  0  0
  -23.5500  -32.1740   23.7420 O   0  0  0  0  0  0  0  0  0  0  0  0
  -22.7680  -29.4810   22.5520 C   0  0  0  0  0  0  0  0  0  0  0  0
  -21.4400  -29.3080   22.4290 N   0  0  0  0  0  0  0  0  0  0  0  0
  -23.4420  -28.8630   23.3780 O   0  0  0  0  0  0  0  0  0  0  0  0
  -20.9510  -29.8620   21.7390 H   0  0  0  0  0  0  0  0  0  0  0  0
  -18.0650  -28.0870   22.9440 C   0  0  0  0  0  0  0  0  0  0  0  0
  -20.6240  -28.3670   23.2020 C   0  0  0  0  0  3  0  0  0  0  0  0
  -20.7300  -26.9350   22.6290 C   0  0  0  0  0  2  0  0  0  0  0  0
  -19.6280  -26.6060   21.6180 C   0  0  0  0  0  2  0  0  0  0  0  0
  -18.2480  -26.7400   22.2660 C   0  0  0  0  0  2  0  0  0  0  0  0
  -19.1800  -28.8590   23.3690 C   0  0  0  0  0  0  0  0  0  0  0  0
  -18.9510  -30.1180   23.9650 C   0  0  0  0  0  3  0  0  0  0  0  0
  -17.6440  -30.6070   24.1380 C   0  0  0  0  0  3  0  0  0  0  0  0
  -16.5440  -29.8340   23.7270 C   0  0  0  0  0  3  0  0  0  0  0  0
  -16.7550  -28.5760   23.1360 C   0  0  0  0  0  3  0  0  0  0  0  0
  -25.9100  -32.5410   23.8430 C   0  0  0  0  0  3  0  0  0  0  0  0
  -26.4280  -31.7770   25.1240 C   0  0  1  0  0  0  0  0  0  0  0  0
  -25.3340  -31.5360   26.1910 C   0  0  0  0  0  1  0  0  0  0  0  0
  -27.0220  -30.4030   24.7400 C   0  0  0  0  0  1  0  0  0  0  0  0
  -27.5710  -32.5780   25.7910 C   0  0  0  0  0  1  0  0  0  0  0  0
  -25.5850  -33.9370   24.1840 N   0  0  0  0  0  0  0  0  0  0  0  0
  -25.9000  -35.0010   23.4330 C   0  0  0  0  0  0  0  0  0  0  0  0
  -26.5600  -34.9120   22.3940 O   0  0  0  0  0  0  0  0  0  0  0  0
  -25.0010  -34.0800   24.9940 H   0  0  0  0  0  0  0  0  0  0  0  0
  -24.1520  -36.7850   23.1160 C   0  0  0  0  0  1  0  0  0  0  0  0
  -25.4080  -36.3850   23.9070 C   0  0  0  0  0  3  0  0  0  0  0  0
  -27.5440  -37.2850   24.7170 C   0  0  0  0  0  1  0  0  0  0  0  0
  -26.4300  -37.4480   23.7880 N   0  0  0  0  0  0  0  0  0  0  0  0
  -26.0160  -38.3630   23.9480 H   0  0  0  0  0  0  0  0  0  0  0  0
  2  1  1  0
  3  6  2  0
  3  5  1  0
  4  8  1  0
  4  1  2  0
  5  2  2  0
  6  4  1  0
  7  6  1  0
  8  9  2  0
 12 10  1  6
 12 11  1  0
 12 13  1  0
 12  8  1  0
 14 13  1  0
 15 20  1  0
 16 17  1  0
 16 15  1  0
 18 17  1  0
 18 25  1  0
 18 19  1  0
 20 14  1  0
 20 19  1  0
 21 14  2  0
 22 23  2  0
 23 42  1  0
 24 23  1  0
 24 27  1  0
 25 26  1  0
 25 22  1  0
 26 24  2  0
 27 28  1  0
 28 29  2  0
 30 33  1  0
 30 29  1  0
 31 30  2  0
 32 31  1  0
 32 27  2  0
 33 34  1  0
 34 35  1  0
 35 36  2  0
 37 36  1  0
 37 41  1  0
 38 37  2  0
 39 34  2  0
 39 38  1  0
 40 39  1  0
 42 43  1  0
 43 46  1  0
 43 45  1  0
 44 42  2  0
 47 22  1  0
 47 48  1  0
 49 47  1  0
 50  5  1  0
 51 62  2  0
 52 50  1  0
 52 57  1  0
 53 61  1  0
 53 63  1  0
 54 60  1  0
 54 56  1  0
 55 61  1  0
 56 57  2  0
 56 55  1  0
 58 52  2  0
 59 58  1  0
 59 54  2  0
 60 53  1  0
 61 51  1  0
 63 65  2  0
 64 63  1  0
 66 64  1  0
 67 76  2  0
 67 72  1  0
 68 64  1  0
 68 72  1  0
 69 68  1  0
 70 71  1  0
 70 69  1  0
 71 67  1  0
 72 73  2  0
 73 74  1  0
 75 74  2  0
 76 75  1  0
 77 51  1  0
 77 82  1  0
 77 78  1  0
 78 81  1  1
 78 79  1  0
 80 78  1  0
 82 85  1  0
 83 87  1  0
 83 82  1  0
 84 83  2  0
 87 86  1  0
 89 87  1  0
 89 90  1  0
 89 88  1  0
M  ISO  4   5 101  13 100  14 100  50 101
M  END
>  <TORSDO>  (38) 
F 19

>  <SCORE>  (38) 
-14.928

>  <name>  (38) 
38

>  <ligand_id>  (38) 
38

>  <original_smiles>  (38) 
[H]c1c([H])c([H])c2c(c1[H])C([H])([H])C([H])([H])C([H])([H])C2([H])N([H])C(=O)C1([H])N(C(=O)C([H])(N([H])C(=O)C([H])(N([H])C([H])([H])[H])C([H])([H])[H])C(C([H])([H])[H])(C([H])([H])[H])C([H])([H])[H])C([H])([H])c2c([H])c(Oc3c([H])c([H])c(C(=O)C(C([H])([H])[H])(C([H])([H])[H])C([H])([H])C(=O)N4C([H])([H])C([H])([H])C([H])([H])C([H])(n5nc(-c6c([H])c([H])c(Oc7c([H])c([H])c(F)c([H])c7F)c([H])c6[H])c(C(=O)N([H])[H])c5N([H])[H])C4([H])[H])c(F)c3[H])c([H])c([H])c2C1([H])[H]

>  <smiles>  (38) 
[H]c1c([H])c([H])c2c(c1[H])C([H])([H])C([H])([H])C([H])([H])C2([H])N([H])C(=O)C1([H])N(C(=O)C([H])(N([H])C(=O)C([H])(N([H])C([H])([H])[H])C([H])([H])[H])C(C([H])([H])[H])(C([H])([H])[H])C([H])([H])[H])C([H])([H])c2c([H])c(Oc3c([H])c([H])c(C(=O)C(C([H])([H])[H])(C([H])([H])[H])C([H])([H])C(=O)N4C([H])([H])C([H])([H])C([H])([H])C([H])(n5nc(-c6c([H])c([H])c(Oc7c([H])c([H])c(F)c([H])c7F)c([H])c6[H])c(C(=O)N([H])[H])c5N([H])[H])C4([H])[H])c(F)c3[H])c([H])c([H])c2C1([H])[H]

$$$$
39:0:0
     RDKit          3D

 90 98  0  0  1  0  0  0  0  0999 V2000
  -30.8280  -18.4600   18.1080 C   0  0  0  0  0  3  0  0  0  0  0  0
  -30.6670  -17.2320   18.7630 C   0  0  0  0  0  3  0  0  0  0  0  0
  -29.5060  -18.3960   20.5450 C   0  0  0  0  0  3  0  0  0  0  0  0
  -30.3540  -19.6740   18.6470 C   0  0  0  0  0  0  0  0  0  0  0  0
  -29.6590  -19.6930   19.8970 C   0  0  0  0  0  0  0  0  0  0  0  0
  -30.0180  -17.1470   20.0110 C   0  0  0  0  0  0  0  0  0  0  0  0
  -30.6590  -20.9060   17.8080 C   0  0  0  0  0  1  0  0  0  0  0  0
  -30.5990  -14.6720   20.4080 C   0  0  0  0  0  0  0  0  0  0  0  0
  -30.3670  -12.4120   19.4110 C   0  0  0  0  0  2  0  0  0  0  0  0
  -29.4480  -12.5320   18.1760 C   0  0  0  0  0  2  0  0  0  0  0  0
  -27.9710  -12.3810   18.5890 C   0  0  0  0  0  2  0  0  0  0  0  0
  -27.5980  -13.2620   19.8110 C   0  0  0  0  0  3  0  0  0  0  0  0
  -28.6420  -13.1460   20.9430 C   0  0  0  0  0  2  0  0  0  0  0  0
  -29.9550  -13.4600   20.3700 N   0  0  0  0  0  0  0  0  0  0  0  0
  -31.7900  -14.7480   20.0920 O   0  0  0  0  0  0  0  0  0  0  0  0
  -29.8460  -15.8120   20.6210 N   0  0  0  0  0  0  0  0  0  0  0  0
  -28.9610  -15.6570   21.0800 H   0  0  0  0  0  0  0  0  0  0  0  0
  -25.2020  -13.8670   20.5050 C   0  0  0  0  0  0  0  0  0  0  0  0
  -24.1290  -13.0990   20.8690 C   0  0  0  0  0  0  0  0  0  0  0  0
  -24.5890  -11.7460   20.8550 C   0  0  0  0  0  0  0  0  0  0  0  0
  -26.2460  -12.9830   20.2880 N   0  0  0  0  0  0  0  0  0  0  0  0
  -25.8830  -11.7030   20.5610 N   0  0  0  0  0  0  0  0  0  0  0  0
  -23.8580  -10.4870   21.0470 C   0  0  0  0  0  0  0  0  0  0  0  0
  -24.2800   -9.5240   21.9890 C   0  0  0  0  0  3  0  0  0  0  0  0
  -23.5490   -8.3300   22.1690 C   0  0  0  0  0  3  0  0  0  0  0  0
  -22.3810   -8.0910   21.4070 C   0  0  0  0  0  0  0  0  0  0  0  0
  -21.9770   -9.0440   20.4540 C   0  0  0  0  0  3  0  0  0  0  0  0
  -22.7090  -10.2280   20.2730 C   0  0  0  0  0  3  0  0  0  0  0  0
  -21.6230   -6.9490   21.4950 O   0  0  0  0  0  0  0  0  0  0  0  0
  -21.5670   -6.2100   22.6500 C   0  0  0  0  0  0  0  0  0  0  0  0
  -21.1450   -6.7700   23.8750 C   0  0  0  0  0  3  0  0  0  0  0  0
  -21.0360   -5.9570   25.0210 C   0  0  0  0  0  3  0  0  0  0  0  0
  -21.3380   -4.5840   24.9420 C   0  0  0  0  0  0  0  0  0  0  0  0
  -21.7550   -4.0240   23.7220 C   0  0  0  0  0  3  0  0  0  0  0  0
  -21.8650   -4.8340   22.5780 C   0  0  0  0  0  0  0  0  0  0  0  0
  -22.2460   -4.2840   21.4000 F   0  0  0  0  0  0  0  0  0  0  0  0
  -21.2270   -3.8010   26.0410 F   0  0  0  0  0  0  0  0  0  0  0  0
  -22.7310  -13.5820   21.1190 C   0  0  0  0  0  0  0  0  0  0  0  0
  -21.9880  -12.8960   21.9800 N   0  0  0  0  0  0  0  0  0  0  0  0
  -22.3030  -14.6050   20.5850 O   0  0  0  0  0  0  0  0  0  0  0  0
  -22.3460  -12.0700   22.4370 H   0  0  0  0  0  0  0  0  0  0  0  0
  -21.0490  -13.2030   22.1880 H   0  0  0  0  0  0  0  0  0  0  0  0
  -25.3700  -15.2360   20.3180 N   0  0  0  0  0  0  0  0  0  0  0  0
  -24.5980  -15.8870   20.4070 H   0  0  0  0  0  0  0  0  0  0  0  0
  -26.2180  -15.6720   19.9790 H   0  0  0  0  0  0  0  0  0  0  0  0
  -29.1130  -21.0280   20.5940 C   0  0  0  0  0  3  0  0  0  0  0  0
  -28.9830  -22.4520   19.8430 C   0  0  0  0  0  3  0  0  0  0  0  0
  -28.5190  -23.7990   20.5830 C   0  0  0  0  0  3  0  0  0  0  0  0
  -28.5140  -25.1390   19.6970 C   0  0  0  0  0  3  0  0  0  0  0  0
  -28.3940  -26.4910   20.3010 O   0  0  0  0  0  0  0  0  0  0  0  0
  -24.6110  -31.8720   23.2440 C   0  0  0  0  0  0  0  0  0  0  0  0
  -27.2460  -27.3000   20.2170 C   0  0  0  0  0  0  0  0  0  0  0  0
  -23.4190  -30.4670   21.6000 C   0  0  0  0  0  3  0  0  0  0  0  0
  -24.8760  -28.9130   20.1870 C   0  0  0  0  0  0  0  0  0  0  0  0
  -25.9580  -30.7870   21.4300 C   0  0  0  0  0  2  0  0  0  0  0  0
  -26.0410  -29.4070   20.7870 C   0  0  0  0  0  0  0  0  0  0  0  0
  -27.2240  -28.6100   20.7930 C   0  0  0  0  0  3  0  0  0  0  0  0
  -26.0520  -26.8510   19.6080 C   0  0  0  0  0  3  0  0  0  0  0  0
  -24.8850  -27.6410   19.5910 C   0  0  0  0  0  3  0  0  0  0  0  0
  -23.6400  -29.7870   20.2240 C   0  0  0  0  0  2  0  0  0  0  0  0
  -24.6810  -31.0610   22.1480 N   0  0  0  0  0  0  0  0  0  0  0  0
  -23.5250  -32.1490   23.7720 O   0  0  0  0  0  0  0  0  0  0  0  0
  -22.7530  -29.4530   22.5610 C   0  0  0  0  0  0  0  0  0  0  0  0
  -21.4280  -29.2740   22.4290 N   0  0  0  0  0  0  0  0  0  0  0  0
  -23.4290  -28.8280   23.3830 O   0  0  0  0  0  0  0  0  0  0  0  0
  -20.9410  -29.8280   21.7370 H   0  0  0  0  0  0  0  0  0  0  0  0
  -18.0510  -28.0810   22.9220 C   0  0  0  0  0  0  0  0  0  0  0  0
  -20.6070  -28.3390   23.2010 C   0  0  0  0  0  3  0  0  0  0  0  0
  -20.7100  -26.9060   22.6280 C   0  0  0  0  0  2  0  0  0  0  0  0
  -19.6120  -26.5820   21.6110 C   0  0  0  0  0  2  0  0  0  0  0  0
  -18.2280  -26.7300   22.2500 C   0  0  0  0  0  2  0  0  0  0  0  0
  -19.1680  -28.8420   23.3540 C   0  0  0  0  0  0  0  0  0  0  0  0
  -18.9480  -30.1060   23.9440 C   0  0  0  0  0  3  0  0  0  0  0  0
  -17.6430  -30.6090   24.1040 C   0  0  0  0  0  3  0  0  0  0  0  0
  -16.5400  -29.8430   23.6890 C   0  0  0  0  0  3  0  0  0  0  0  0
  -16.7430  -28.5810   23.1040 C   0  0  0  0  0  3  0  0  0  0  0  0
  -25.8900  -32.5100   23.8700 C   0  0  0  0  0  3  0  0  0  0  0  0
  -26.3990  -31.7460   25.1550 C   0  0  1  0  0  0  0  0  0  0  0  0
  -25.3000  -31.5150   26.2170 C   0  0  0  0  0  1  0  0  0  0  0  0
  -26.9840  -30.3660   24.7740 C   0  0  0  0  0  1  0  0  0  0  0  0
  -27.5460  -32.5450   25.8200 C   0  0  0  0  0  1  0  0  0  0  0  0
  -25.5760  -33.9090   24.1950 N   0  0  0  0  0  0  0  0  0  0  0  0
  -25.9090  -34.9600   23.4350 C   0  0  0  0  0  0  0  0  0  0  0  0
  -26.5820  -34.8540   22.4060 O   0  0  0  0  0  0  0  0  0  0  0  0
  -24.9820  -34.0650   24.9970 H   0  0  0  0  0  0  0  0  0  0  0  0
  -24.1800  -36.7480   23.0690 C   0  0  0  0  0  1  0  0  0  0  0  0
  -25.4190  -36.3490   23.8870 C   0  0  0  0  0  3  0  0  0  0  0  0
  -27.5480  -37.2400   24.7230 C   0  0  0  0  0  1  0  0  0  0  0  0
  -26.4510  -37.4040   23.7740 N   0  0  0  0  0  0  0  0  0  0  0  0
  -26.0440  -38.3240   23.9150 H   0  0  0  0  0  0  0  0  0  0  0  0
  1  4  2  0
  1  2  1  0
  2  6  2  0
  4  5  1  0
  5  3  2  0
  5 46  1  0
  6  3  1  0
  6 16  1  0
  7  4  1  0
  8 16  1  0
  9 14  1  0
 10 11  1  0
 10  9  1  0
 12 11  1  0
 12 21  1  0
 12 13  1  0
 14  8  1  0
 14 13  1  0
 15  8  2  0
 16 17  1  0
 18 19  2  0
 19 38  1  0
 20 19  1  0
 20 23  1  0
 21 18  1  0
 21 22  1  0
 22 20  2  0
 23 24  1  0
 24 25  2  0
 26 29  1  0
 26 25  1  0
 27 26  2  0
 28 27  1  0
 28 23  2  0
 29 30  1  0
 30 31  1  0
 31 32  2  0
 33 32  1  0
 33 37  1  0
 34 33  2  0
 35 30  2  0
 35 34  1  0
 36 35  1  0
 38 39  1  0
 39 42  1  0
 39 41  1  0
 40 38  2  0
 43 44  1  0
 43 18  1  0
 45 43  1  0
 47 48  1  0
 47 46  2  0
 49 50  1  0
 49 48  2  0
 51 62  2  0
 52 50  1  0
 52 57  1  0
 53 61  1  0
 53 63  1  0
 54 60  1  0
 54 56  1  0
 55 61  1  0
 56 57  2  0
 56 55  1  0
 58 52  2  0
 59 58  1  0
 59 54  2  0
 60 53  1  0
 61 51  1  0
 63 65  2  0
 64 63  1  0
 66 64  1  0
 67 76  2  0
 67 72  1  0
 68 64  1  0
 68 72  1  0
 69 68  1  0
 70 71  1  0
 70 69  1  0
 71 67  1  0
 72 73  2  0
 73 74  1  0
 75 74  2  0
 76 75  1  0
 77 51  1  0
 77 82  1  0
 77 78  1  0
 78 81  1  1
 78 79  1  0
 80 78  1  0
 82 85  1  0
 83 87  1  0
 83 82  1  0
 84 83  2  0
 87 86  1  0
 89 87  1  0
 89 90  1  0
 89 88  1  0
M  ISO  4   8 100  16 100  49 101  50 101
M  END
>  <TORSDO>  (39) 
F 20

>  <SCORE>  (39) 
-13.832

>  <name>  (39) 
39

>  <ligand_id>  (39) 
39

>  <original_smiles>  (39) 
[H]c1c([H])c([H])c2c(c1[H])C([H])([H])C([H])([H])C([H])([H])C2([H])N([H])C(=O)C1([H])N(C(=O)C([H])(N([H])C(=O)C([H])(N([H])C([H])([H])[H])C([H])([H])[H])C(C([H])([H])[H])(C([H])([H])[H])C([H])([H])[H])C([H])([H])c2c([H])c(OC([H])([H])C([H])([H])C([H])([H])C([H])([H])c3c([H])c(N([H])C(=O)N4C([H])([H])C([H])([H])C([H])([H])C([H])(n5nc(-c6c([H])c([H])c(Oc7c([H])c([H])c(F)c([H])c7F)c([H])c6[H])c(C(=O)N([H])[H])c5N([H])[H])C4([H])[H])c([H])c([H])c3C([H])([H])[H])c([H])c([H])c2C1([H])[H]

>  <smiles>  (39) 
[H]c1c([H])c([H])c2c(c1[H])C([H])([H])C([H])([H])C([H])([H])C2([H])N([H])C(=O)C1([H])N(C(=O)C([H])(N([H])C(=O)C([H])(N([H])C([H])([H])[H])C([H])([H])[H])C(C([H])([H])[H])(C([H])([H])[H])C([H])([H])[H])C([H])([H])c2c([H])c(OC([H])([H])C([H])([H])C([H])([H])C([H])([H])c3c([H])c(N([H])C(=O)N4C([H])([H])C([H])([H])C([H])([H])C([H])(n5nc(-c6c([H])c([H])c(Oc7c([H])c([H])c(F)c([H])c7F)c([H])c6[H])c(C(=O)N([H])[H])c5N([H])[H])C4([H])[H])c([H])c([H])c3C([H])([H])[H])c([H])c([H])c2C1([H])[H]

$$$$
40:0:0
     RDKit          3D

 94102  0  0  1  0  0  0  0  0999 V2000
  -29.6260  -19.9220   18.5080 C   0  0  0  0  0  3  0  0  0  0  0  0
  -29.4810  -21.0880   17.7360 C   0  0  0  0  0  3  0  0  0  0  0  0
  -29.3780  -21.2850   20.5010 C   0  0  0  0  0  3  0  0  0  0  0  0
  -29.1940  -22.5020   19.7390 C   0  0  0  0  0  0  0  0  0  0  0  0
  -29.5950  -19.9860   19.9120 C   0  0  0  0  0  0  0  0  0  0  0  0
  -29.2950  -22.3610   18.3200 C   0  0  0  0  0  0  0  0  0  0  0  0
  -29.2670  -23.4340   17.4270 N   0  0  0  0  0  0  0  0  0  0  0  0
  -29.5350  -23.2290   16.4680 H   0  0  0  0  0  0  0  0  0  0  0  0
  -29.6660  -24.3170   17.7240 H   0  0  0  0  0  0  0  0  0  0  0  0
  -29.0120  -23.8760   20.4430 C   0  0  0  0  0  0  0  0  0  0  0  0
  -29.5850  -24.1210   21.5110 O   0  0  0  0  0  0  0  0  0  0  0  0
  -28.0150  -24.9690   19.8730 C   0  0  0  0  0  2  0  0  0  0  0  0
  -28.1870  -26.3740   20.3310 O   0  0  0  0  0  0  0  0  0  0  0  0
  -24.5130  -31.8680   23.2580 C   0  0  0  0  0  0  0  0  0  0  0  0
  -27.0750  -27.2350   20.2580 C   0  0  0  0  0  0  0  0  0  0  0  0
  -23.2910  -30.4560   21.6450 C   0  0  0  0  0  3  0  0  0  0  0  0
  -24.7220  -28.8730   20.2370 C   0  0  0  0  0  0  0  0  0  0  0  0
  -25.8340  -30.7440   21.4520 C   0  0  0  0  0  2  0  0  0  0  0  0
  -25.8980  -29.3550   20.8280 C   0  0  0  0  0  0  0  0  0  0  0  0
  -27.0740  -28.5460   20.8340 C   0  0  0  0  0  3  0  0  0  0  0  0
  -25.8780  -26.8180   19.6300 C   0  0  0  0  0  3  0  0  0  0  0  0
  -24.7150  -27.6090   19.6320 C   0  0  0  0  0  3  0  0  0  0  0  0
  -23.4940  -29.7600   20.2740 C   0  0  0  0  0  2  0  0  0  0  0  0
  -24.5650  -31.0400   22.1750 N   0  0  0  0  0  0  0  0  0  0  0  0
  -23.4340  -32.1670   23.7890 O   0  0  0  0  0  0  0  0  0  0  0  0
  -22.6210  -29.4610   22.6210 C   0  0  0  0  0  0  0  0  0  0  0  0
  -21.2960  -29.2790   22.4840 N   0  0  0  0  0  0  0  0  0  0  0  0
  -23.2920  -28.8560   23.4610 O   0  0  0  0  0  0  0  0  0  0  0  0
  -20.8140  -29.8200   21.7800 H   0  0  0  0  0  0  0  0  0  0  0  0
  -17.9190  -28.0760   22.9660 C   0  0  0  0  0  0  0  0  0  0  0  0
  -20.4700  -28.3610   23.2710 C   0  0  0  0  0  3  0  0  0  0  0  0
  -20.5900  -26.9130   22.7410 C   0  0  0  0  0  2  0  0  0  0  0  0
  -19.5070  -26.5510   21.7200 C   0  0  0  0  0  2  0  0  0  0  0  0
  -18.1140  -26.7080   22.3350 C   0  0  0  0  0  2  0  0  0  0  0  0
  -19.0250  -28.8590   23.3910 C   0  0  0  0  0  0  0  0  0  0  0  0
  -18.7900  -30.1370   23.9410 C   0  0  0  0  0  3  0  0  0  0  0  0
  -17.4790  -30.6360   24.0700 C   0  0  0  0  0  3  0  0  0  0  0  0
  -16.3870  -29.8520   23.6600 C   0  0  0  0  0  3  0  0  0  0  0  0
  -16.6060  -28.5740   23.1140 C   0  0  0  0  0  3  0  0  0  0  0  0
  -25.8030  -32.4970   23.8680 C   0  0  0  0  0  3  0  0  0  0  0  0
  -25.5110  -33.9040   24.1720 N   0  0  0  0  0  0  0  0  0  0  0  0
  -25.8430  -34.9390   23.3880 C   0  0  0  0  0  0  0  0  0  0  0  0
  -26.5000  -34.8070   22.3510 O   0  0  0  0  0  0  0  0  0  0  0  0
  -24.9260  -34.0820   24.9750 H   0  0  0  0  0  0  0  0  0  0  0  0
  -24.1190  -36.7350   23.0280 C   0  0  0  0  0  1  0  0  0  0  0  0
  -25.3750  -36.3410   23.8220 C   0  0  0  0  0  3  0  0  0  0  0  0
  -27.5320  -37.2320   24.5860 C   0  0  0  0  0  1  0  0  0  0  0  0
  -26.4110  -37.3830   23.6610 N   0  0  0  0  0  0  0  0  0  0  0  0
  -26.0140  -38.3100   23.7930 H   0  0  0  0  0  0  0  0  0  0  0  0
  -26.3100  -31.7440   25.1590 C   0  0  1  0  0  0  0  0  0  0  0  0
  -25.2140  -31.5370   26.2300 C   0  0  0  0  0  1  0  0  0  0  0  0
  -26.8800  -30.3530   24.7940 C   0  0  0  0  0  1  0  0  0  0  0  0
  -27.4700  -32.5380   25.8070 C   0  0  0  0  0  1  0  0  0  0  0  0
  -29.8000  -18.6740   20.7530 C   0  0  0  0  0  3  0  0  0  0  0  0
  -30.0220  -17.2530   20.0310 C   0  0  0  0  0  3  0  0  0  0  0  0
  -31.4050  -16.1740   21.8640 C   0  0  0  0  0  1  0  0  0  0  0  0
  -28.9670  -15.7870   21.8340 C   0  0  0  0  0  1  0  0  0  0  0  0
  -30.2010  -15.9200   20.9210 C   0  0  1  0  0  0  0  0  0  0  0  0
  -30.5990  -14.5860   20.0930 C   0  0  0  0  0  0  0  0  0  0  0  0
  -30.2550  -12.4000   18.9220 C   0  0  0  0  0  2  0  0  0  0  0  0
  -29.2450  -12.5680   17.7630 C   0  0  0  0  0  2  0  0  0  0  0  0
  -27.7940  -12.4080   18.2590 C   0  0  0  0  0  2  0  0  0  0  0  0
  -27.5230  -13.2070   19.5610 C   0  0  0  0  0  3  0  0  0  0  0  0
  -28.6420  -12.9540   20.5900 C   0  0  0  0  0  2  0  0  0  0  0  0
  -29.9140  -13.3840   19.9850 N   0  0  0  0  0  0  0  0  0  0  0  0
  -31.6590  -14.6870   19.4680 O   0  0  0  0  0  0  0  0  0  0  0  0
  -25.1670  -13.7960   20.4010 C   0  0  0  0  0  0  0  0  0  0  0  0
  -24.1210  -13.0190   20.8180 C   0  0  0  0  0  0  0  0  0  0  0  0
  -24.5810  -11.6690   20.7500 C   0  0  0  0  0  0  0  0  0  0  0  0
  -26.1990  -12.9200   20.1070 N   0  0  0  0  0  0  0  0  0  0  0  0
  -25.8530  -11.6330   20.3750 N   0  0  0  0  0  0  0  0  0  0  0  0
  -23.8660  -10.4040   20.9680 C   0  0  0  0  0  0  0  0  0  0  0  0
  -24.3350   -9.4360   21.8820 C   0  0  0  0  0  3  0  0  0  0  0  0
  -23.6170   -8.2370   22.0860 C   0  0  0  0  0  3  0  0  0  0  0  0
  -22.4180   -7.9980   21.3740 C   0  0  0  0  0  0  0  0  0  0  0  0
  -21.9680   -8.9550   20.4470 C   0  0  0  0  0  3  0  0  0  0  0  0
  -22.6860  -10.1450   20.2410 C   0  0  0  0  0  3  0  0  0  0  0  0
  -21.6700   -6.8510   21.4880 O   0  0  0  0  0  0  0  0  0  0  0  0
  -21.6560   -6.1130   22.6430 C   0  0  0  0  0  0  0  0  0  0  0  0
  -21.2590   -6.6710   23.8780 C   0  0  0  0  0  3  0  0  0  0  0  0
  -21.1920   -5.8590   25.0290 C   0  0  0  0  0  3  0  0  0  0  0  0
  -21.5110   -4.4910   24.9470 C   0  0  0  0  0  0  0  0  0  0  0  0
  -21.9000   -3.9320   23.7160 C   0  0  0  0  0  3  0  0  0  0  0  0
  -21.9690   -4.7410   22.5680 C   0  0  0  0  0  0  0  0  0  0  0  0
  -22.3250   -4.1920   21.3810 F   0  0  0  0  0  0  0  0  0  0  0  0
  -21.4390   -3.7110   26.0490 F   0  0  0  0  0  0  0  0  0  0  0  0
  -22.7390  -13.4920   21.1690 C   0  0  0  0  0  0  0  0  0  0  0  0
  -22.0590  -12.7900   22.0690 N   0  0  0  0  0  0  0  0  0  0  0  0
  -22.2730  -14.5210   20.6820 O   0  0  0  0  0  0  0  0  0  0  0  0
  -22.4480  -11.9590   22.4890 H   0  0  0  0  0  0  0  0  0  0  0  0
  -21.1350  -13.0930   22.3440 H   0  0  0  0  0  0  0  0  0  0  0  0
  -25.3160  -15.1690   20.2270 N   0  0  0  0  0  0  0  0  0  0  0  0
  -24.5550  -15.8200   20.3900 H   0  0  0  0  0  0  0  0  0  0  0  0
  -26.1510  -15.6140   19.8650 H   0  0  0  0  0  0  0  0  0  0  0  0
  1  5  1  0
  2  6  1  0
  2  1  2  0
  4 10  1  0
  4  3  1  0
  5  3  2  0
  5 54  1  0
  6  4  2  0
  7  9  1  0
  7  6  1  0
  8  7  1  0
 10 11  2  0
 12 13  1  0
 12 10  1  0
 14 25  2  0
 15 13  1  0
 15 20  1  0
 16 24  1  0
 16 26  1  0
 17 23  1  0
 17 19  1  0
 18 24  1  0
 19 20  2  0
 19 18  1  0
 21 22  1  0
 21 15  2  0
 22 17  2  0
 23 16  1  0
 24 14  1  0
 26 28  2  0
 27 26  1  0
 29 27  1  0
 30 39  2  0
 30 35  1  0
 31 27  1  0
 31 35  1  0
 32 31  1  0
 33 34  1  0
 33 32  1  0
 34 30  1  0
 35 36  2  0
 36 37  1  0
 38 37  2  0
 39 38  1  0
 40 14  1  0
 40 41  1  0
 40 50  1  0
 41 44  1  0
 42 46  1  0
 42 41  1  0
 43 42  2  0
 46 45  1  0
 48 49  1  0
 48 46  1  0
 48 47  1  0
 50 53  1  1
 50 51  1  0
 52 50  1  0
 55 54  2  0
 55 58  1  0
 58 57  1  1
 58 56  1  0
 59 58  1  0
 60 65  1  0
 61 62  1  0
 61 60  1  0
 63 62  1  0
 63 70  1  0
 63 64  1  0
 65 59  1  0
 65 64  1  0
 66 59  2  0
 67 68  2  0
 68 87  1  0
 69 68  1  0
 69 72  1  0
 70 71  1  0
 70 67  1  0
 71 69  2  0
 72 73  1  0
 73 74  2  0
 75 78  1  0
 75 74  1  0
 76 75  2  0
 77 76  1  0
 77 72  2  0
 78 79  1  0
 79 80  1  0
 80 81  2  0
 82 81  1  0
 82 86  1  0
 83 82  2  0
 84 79  2  0
 84 83  1  0
 85 84  1  0
 87 88  1  0
 88 91  1  0
 88 90  1  0
 89 87  2  0
 92 93  1  0
 92 67  1  0
 94 92  1  0
M  ISO  4  12 101  13 101  58 100  59 100
M  END
>  <TORSDO>  (40) 
F 22

>  <SCORE>  (40) 
-12.110

>  <name>  (40) 
40

>  <ligand_id>  (40) 
40

>  <original_smiles>  (40) 
[H]c1c([H])c([H])c2c(c1[H])C([H])([H])C([H])([H])C([H])([H])C2([H])N([H])C(=O)C1([H])N(C(=O)C([H])(N([H])C(=O)C([H])(N([H])C([H])([H])[H])C([H])([H])[H])C(C([H])([H])[H])(C([H])([H])[H])C([H])([H])[H])C([H])([H])c2c([H])c(OC([H])([H])C(=O)c3c([H])c(C([H])([H])C([H])([H])C(C(=O)N4C([H])([H])C([H])([H])C([H])([H])C([H])(n5nc(-c6c([H])c([H])c(Oc7c([H])c([H])c(F)c([H])c7F)c([H])c6[H])c(C(=O)N([H])[H])c5N([H])[H])C4([H])[H])(C([H])([H])[H])C([H])([H])[H])c([H])c([H])c3N([H])[H])c([H])c([H])c2C1([H])[H]

>  <smiles>  (40) 
[H]c1c([H])c([H])c2c(c1[H])C([H])([H])C([H])([H])C([H])([H])C2([H])N([H])C(=O)C1([H])N(C(=O)C([H])(N([H])C(=O)C([H])(N([H])C([H])([H])[H])C([H])([H])[H])C(C([H])([H])[H])(C([H])([H])[H])C([H])([H])[H])C([H])([H])c2c([H])c(OC([H])([H])C(=O)c3c([H])c(C([H])([H])C([H])([H])C(C(=O)N4C([H])([H])C([H])([H])C([H])([H])C([H])(n5nc(-c6c([H])c([H])c(Oc7c([H])c([H])c(F)c([H])c7F)c([H])c6[H])c(C(=O)N([H])[H])c5N([H])[H])C4([H])[H])(C([H])([H])[H])C([H])([H])[H])c([H])c([H])c3N([H])[H])c([H])c([H])c2C1([H])[H]

$$$$
41:0:0
     RDKit          3D

 94102  0  0  1  0  0  0  0  0999 V2000
  -27.9780  -24.7030   20.2510 C   0  0  0  0  0  3  0  0  0  0  0  0
  -29.8180  -23.1040   20.3260 C   0  0  0  0  0  3  0  0  0  0  0  0
  -30.2280  -25.3850   19.6090 C   0  0  0  0  0  3  0  0  0  0  0  0
  -28.4450  -23.3890   20.5070 C   0  0  0  0  0  0  0  0  0  0  0  0
  -28.8670  -25.7130   19.8000 C   0  0  0  0  0  0  0  0  0  0  0  0
  -30.7180  -24.0880   19.8870 C   0  0  0  0  0  0  0  0  0  0  0  0
  -33.0110  -24.7380   19.6440 C   0  0  0  0  0  1  0  0  0  0  0  0
  -32.0360  -23.7090   19.7690 O   0  0  0  0  0  0  0  0  0  0  0  0
  -27.4990  -22.3240   20.9590 C   0  0  0  0  0  0  0  0  0  0  0  0
  -26.2770  -22.4840   21.0180 O   0  0  0  0  0  0  0  0  0  0  0  0
  -28.0930  -20.9810   21.4110 C   0  0  0  0  0  2  0  0  0  0  0  0
  -28.6540  -20.1000   20.2640 C   0  0  0  0  0  2  0  0  0  0  0  0
  -29.9560  -19.3550   20.6690 C   0  0  0  0  0  2  0  0  0  0  0  0
  -29.9540  -17.8660   20.2810 C   0  0  0  0  0  2  0  0  0  0  0  0
  -30.9220  -16.9980   21.1100 C   0  0  0  0  0  2  0  0  0  0  0  0
  -31.1060  -14.6630   20.1980 C   0  0  0  0  0  0  0  0  0  0  0  0
  -30.7320  -12.5060   19.0670 C   0  0  0  0  0  2  0  0  0  0  0  0
  -29.7540  -12.6810   17.8900 C   0  0  0  0  0  2  0  0  0  0  0  0
  -28.2940  -12.5570   18.3640 C   0  0  0  0  0  2  0  0  0  0  0  0
  -27.9960  -13.4410   19.6030 C   0  0  0  0  0  3  0  0  0  0  0  0
  -29.0720  -13.2390   20.6950 C   0  0  0  0  0  2  0  0  0  0  0  0
  -30.3980  -13.5060   20.0920 N   0  0  0  0  0  0  0  0  0  0  0  0
  -32.1460  -14.8820   19.5710 O   0  0  0  0  0  0  0  0  0  0  0  0
  -30.5490  -15.5890   20.9930 N   0  0  0  0  0  0  0  0  0  0  0  0
  -29.7130  -15.3080   21.4830 H   0  0  0  0  0  0  0  0  0  0  0  0
  -25.6440  -14.1090   20.4140 C   0  0  0  0  0  0  0  0  0  0  0  0
  -24.5680  -13.3630   20.8080 C   0  0  0  0  0  0  0  0  0  0  0  0
  -24.9830  -11.9970   20.7290 C   0  0  0  0  0  0  0  0  0  0  0  0
  -26.6520  -13.2020   20.1230 N   0  0  0  0  0  0  0  0  0  0  0  0
  -26.2580  -11.9240   20.3720 N   0  0  0  0  0  0  0  0  0  0  0  0
  -24.2260  -10.7510   20.9240 C   0  0  0  0  0  0  0  0  0  0  0  0
  -24.6360   -9.7800   21.8640 C   0  0  0  0  0  3  0  0  0  0  0  0
  -23.8770   -8.6050   22.0580 C   0  0  0  0  0  3  0  0  0  0  0  0
  -22.6970   -8.3890   21.3020 C   0  0  0  0  0  0  0  0  0  0  0  0
  -22.3110   -9.3510   20.3500 C   0  0  0  0  0  3  0  0  0  0  0  0
  -23.0680  -10.5190   20.1570 C   0  0  0  0  0  3  0  0  0  0  0  0
  -21.9170   -7.2610   21.3940 O   0  0  0  0  0  0  0  0  0  0  0  0
  -21.8100   -6.5590   22.5670 C   0  0  0  0  0  0  0  0  0  0  0  0
  -21.3390   -7.1610   23.7550 C   0  0  0  0  0  3  0  0  0  0  0  0
  -21.1760   -6.3820   24.9180 C   0  0  0  0  0  3  0  0  0  0  0  0
  -21.4720   -5.0050   24.8890 C   0  0  0  0  0  0  0  0  0  0  0  0
  -21.9360   -4.4050   23.7060 C   0  0  0  0  0  3  0  0  0  0  0  0
  -22.1010   -5.1810   22.5460 C   0  0  0  0  0  0  0  0  0  0  0  0
  -22.5290   -4.5950   21.4000 F   0  0  0  0  0  0  0  0  0  0  0  0
  -21.3060   -4.2560   26.0010 F   0  0  0  0  0  0  0  0  0  0  0  0
  -23.1930  -13.8720   21.1420 C   0  0  0  0  0  0  0  0  0  0  0  0
  -22.4900  -13.1840   22.0340 N   0  0  0  0  0  0  0  0  0  0  0  0
  -22.7600  -14.9130   20.6490 O   0  0  0  0  0  0  0  0  0  0  0  0
  -22.8630  -12.3450   22.4540 H   0  0  0  0  0  0  0  0  0  0  0  0
  -21.5670  -13.4950   22.2930 H   0  0  0  0  0  0  0  0  0  0  0  0
  -25.8400  -15.4790   20.2550 N   0  0  0  0  0  0  0  0  0  0  0  0
  -25.0850  -16.1360   20.4170 H   0  0  0  0  0  0  0  0  0  0  0  0
  -26.6450  -15.9030   19.8140 H   0  0  0  0  0  0  0  0  0  0  0  0
  -28.5170  -27.0170   19.4990 O   0  0  0  0  0  0  0  0  0  0  0  0
  -24.6580  -31.8020   23.1510 C   0  0  0  0  0  0  0  0  0  0  0  0
  -27.2860  -27.6000   19.7190 C   0  0  0  0  0  0  0  0  0  0  0  0
  -23.4160  -30.4470   21.4980 C   0  0  0  0  0  3  0  0  0  0  0  0
  -24.8410  -29.0190   19.9370 C   0  0  0  0  0  0  0  0  0  0  0  0
  -25.9200  -30.8860   21.2030 C   0  0  0  0  0  2  0  0  0  0  0  0
  -26.0120  -29.5460   20.5010 C   0  0  0  0  0  0  0  0  0  0  0  0
  -27.2310  -28.8400   20.3940 C   0  0  0  0  0  3  0  0  0  0  0  0
  -26.1000  -27.0950   19.1400 C   0  0  0  0  0  3  0  0  0  0  0  0
  -24.8800  -27.7890   19.2600 C   0  0  0  0  0  3  0  0  0  0  0  0
  -23.5800  -29.8440   20.0770 C   0  0  0  0  0  2  0  0  0  0  0  0
  -24.6860  -31.0560   22.0100 N   0  0  0  0  0  0  0  0  0  0  0  0
  -23.5960  -32.0130   23.7560 O   0  0  0  0  0  0  0  0  0  0  0  0
  -22.8410  -29.3590   22.4310 C   0  0  0  0  0  0  0  0  0  0  0  0
  -21.5260  -29.1120   22.3190 N   0  0  0  0  0  0  0  0  0  0  0  0
  -23.5720  -28.7420   23.2090 O   0  0  0  0  0  0  0  0  0  0  0  0
  -20.9980  -29.6670   21.6600 H   0  0  0  0  0  0  0  0  0  0  0  0
  -18.2500  -27.6470   22.7320 C   0  0  0  0  0  0  0  0  0  0  0  0
  -20.7710  -28.1110   23.0680 C   0  0  0  0  0  3  0  0  0  0  0  0
  -21.0040  -26.6960   22.4900 C   0  0  0  0  0  2  0  0  0  0  0  0
  -19.9560  -26.2880   21.4490 C   0  0  0  0  0  2  0  0  0  0  0  0
  -18.5520  -26.3180   22.0600 C   0  0  0  0  0  2  0  0  0  0  0  0
  -19.2930  -28.4960   23.1890 C   0  0  0  0  0  0  0  0  0  0  0  0
  -18.9560  -29.7350   23.7760 C   0  0  0  0  0  3  0  0  0  0  0  0
  -17.6100  -30.1260   23.9110 C   0  0  0  0  0  3  0  0  0  0  0  0
  -16.5830  -29.2770   23.4670 C   0  0  0  0  0  3  0  0  0  0  0  0
  -16.9040  -28.0390   22.8810 C   0  0  0  0  0  3  0  0  0  0  0  0
  -25.9560  -32.4370   23.7410 C   0  0  0  0  0  3  0  0  0  0  0  0
  -25.6400  -33.8230   24.1090 N   0  0  0  0  0  0  0  0  0  0  0  0
  -25.9620  -34.8970   23.3760 C   0  0  0  0  0  0  0  0  0  0  0  0
  -26.6260  -34.8250   22.3370 O   0  0  0  0  0  0  0  0  0  0  0  0
  -25.0480  -33.9530   24.9160 H   0  0  0  0  0  0  0  0  0  0  0  0
  -24.2190  -36.6840   23.0670 C   0  0  0  0  0  1  0  0  0  0  0  0
  -25.4620  -36.2670   23.8690 C   0  0  0  0  0  3  0  0  0  0  0  0
  -27.5890  -37.1440   24.7260 C   0  0  0  0  0  1  0  0  0  0  0  0
  -26.4860  -37.3310   23.7870 N   0  0  0  0  0  0  0  0  0  0  0  0
  -26.0720  -38.2420   23.9620 H   0  0  0  0  0  0  0  0  0  0  0  0
  -26.5260  -31.6480   24.9840 C   0  0  1  0  0  0  0  0  0  0  0  0
  -25.4710  -31.3710   26.0800 C   0  0  0  0  0  1  0  0  0  0  0  0
  -27.1200  -30.2880   24.5430 C   0  0  0  0  0  1  0  0  0  0  0  0
  -27.6850  -32.4460   25.6270 C   0  0  0  0  0  1  0  0  0  0  0  0
  1  4  1  0
  2  4  2  0
  3  5  1  0
  3  6  2  0
  4  9  1  0
  5  1  2  0
  6  2  1  0
  7  8  1  0
  8  6  1  0
  9 10  2  0
  9 11  1  0
 12 13  1  0
 12 11  1  0
 14 13  1  0
 14 15  1  0
 16 24  1  0
 17 22  1  0
 18 19  1  0
 18 17  1  0
 20 19  1  0
 20 29  1  0
 20 21  1  0
 22 16  1  0
 22 21  1  0
 23 16  2  0
 24 15  1  0
 24 25  1  0
 26 27  2  0
 27 46  1  0
 28 27  1  0
 28 31  1  0
 29 30  1  0
 29 26  1  0
 30 28  2  0
 31 32  1  0
 32 33  2  0
 34 37  1  0
 34 33  1  0
 35 34  2  0
 36 35  1  0
 36 31  2  0
 37 38  1  0
 38 39  1  0
 39 40  2  0
 41 40  1  0
 41 45  1  0
 42 41  2  0
 43 38  2  0
 43 42  1  0
 44 43  1  0
 46 47  1  0
 47 50  1  0
 47 49  1  0
 48 46  2  0
 51 26  1  0
 51 52  1  0
 53 51  1  0
 54 56  1  0
 54  5  1  0
 55 66  2  0
 56 61  1  0
 57 65  1  0
 57 67  1  0
 58 64  1  0
 58 60  1  0
 59 65  1  0
 60 59  1  0
 61 60  2  0
 62 63  1  0
 62 56  2  0
 63 58  2  0
 64 57  1  0
 65 55  1  0
 67 69  2  0
 68 67  1  0
 70 68  1  0
 71 80  2  0
 71 76  1  0
 72 68  1  0
 72 76  1  0
 73 72  1  0
 74 75  1  0
 74 73  1  0
 75 71  1  0
 76 77  2  0
 77 78  1  0
 79 78  2  0
 80 79  1  0
 81 55  1  0
 81 82  1  0
 81 91  1  0
 82 85  1  0
 83 87  1  0
 83 82  1  0
 84 83  2  0
 87 86  1  0
 89 87  1  0
 89 90  1  0
 89 88  1  0
 91 94  1  1
 91 92  1  0
 93 91  1  0
M  ISO  4   5 101  16 100  24 100  54 101
M  END
>  <TORSDO>  (41) 
F 23

>  <SCORE>  (41) 
-11.858

>  <name>  (41) 
41

>  <ligand_id>  (41) 
41

>  <original_smiles>  (41) 
[H]c1c([H])c([H])c2c(c1[H])C([H])([H])C([H])([H])C([H])([H])C2([H])N([H])C(=O)C1([H])N(C(=O)C([H])(N([H])C(=O)C([H])(N([H])C([H])([H])[H])C([H])([H])[H])C(C([H])([H])[H])(C([H])([H])[H])C([H])([H])[H])C([H])([H])c2c([H])c(Oc3c([H])c(OC([H])([H])[H])c([H])c(C(=O)C([H])([H])C([H])([H])C([H])([H])C([H])([H])C([H])([H])N([H])C(=O)N4C([H])([H])C([H])([H])C([H])([H])C([H])(n5nc(-c6c([H])c([H])c(Oc7c([H])c([H])c(F)c([H])c7F)c([H])c6[H])c(C(=O)N([H])[H])c5N([H])[H])C4([H])[H])c3[H])c([H])c([H])c2C1([H])[H]

>  <smiles>  (41) 
[H]c1c([H])c([H])c2c(c1[H])C([H])([H])C([H])([H])C([H])([H])C2([H])N([H])C(=O)C1([H])N(C(=O)C([H])(N([H])C(=O)C([H])(N([H])C([H])([H])[H])C([H])([H])[H])C(C([H])([H])[H])(C([H])([H])[H])C([H])([H])[H])C([H])([H])c2c([H])c(Oc3c([H])c(OC([H])([H])[H])c([H])c(C(=O)C([H])([H])C([H])([H])C([H])([H])C([H])([H])C([H])([H])N([H])C(=O)N4C([H])([H])C([H])([H])C([H])([H])C([H])(n5nc(-c6c([H])c([H])c(Oc7c([H])c([H])c(F)c([H])c7F)c([H])c6[H])c(C(=O)N([H])[H])c5N([H])[H])C4([H])[H])c3[H])c([H])c([H])c2C1([H])[H]

$$$$
42:0:0
     RDKit          3D

 88 96  0  0  1  0  0  0  0  0999 V2000
  -29.9580  -21.5560   19.6880 C   0  0  0  0  0  3  0  0  0  0  0  0
  -30.3600  -20.0770   19.6970 C   0  0  0  0  0  3  0  0  0  0  0  0
  -27.8580  -20.9790   20.1720 C   0  0  0  0  0  3  0  0  0  0  0  0
  -28.6450  -22.2060   19.9560 C   0  0  0  0  0  0  0  0  0  0  0  0
  -29.5420  -18.8530   19.9230 C   0  0  0  0  0  0  0  0  0  0  0  0
  -28.2320  -19.5110   20.1670 C   0  0  0  0  0  0  0  0  0  0  0  0
  -27.0760  -18.5750   20.4790 C   0  0  0  0  0  1  0  0  0  0  0  0
  -27.9230  -23.8850   19.7630 C   0  0  0  0  0  2  0  0  0  0  0  0
  -28.1300  -25.5330   20.1860 O   0  0  0  0  0  0  0  0  0  0  0  0
  -24.4310  -31.6450   23.0300 C   0  0  0  0  0  0  0  0  0  0  0  0
  -27.1370  -26.6980   20.0820 C   0  0  0  0  0  0  0  0  0  0  0  0
  -23.2980  -30.2110   21.3840 C   0  0  0  0  0  3  0  0  0  0  0  0
  -24.8080  -28.6140   19.9900 C   0  0  0  0  0  0  0  0  0  0  0  0
  -25.8690  -30.4460   21.2850 C   0  0  0  0  0  2  0  0  0  0  0  0
  -25.9830  -29.0220   20.6350 C   0  0  0  0  0  0  0  0  0  0  0  0
  -27.1340  -28.0870   20.6560 C   0  0  0  0  0  3  0  0  0  0  0  0
  -25.9290  -26.4830   19.3780 C   0  0  0  0  0  3  0  0  0  0  0  0
  -24.8150  -27.3710   19.3380 C   0  0  0  0  0  3  0  0  0  0  0  0
  -23.5700  -29.5200   20.0160 C   0  0  0  0  0  2  0  0  0  0  0  0
  -24.5540  -30.7980   21.9530 N   0  0  0  0  0  0  0  0  0  0  0  0
  -23.3250  -31.9150   23.5280 O   0  0  0  0  0  0  0  0  0  0  0  0
  -22.6030  -29.2120   22.3480 C   0  0  0  0  0  0  0  0  0  0  0  0
  -21.2740  -29.0390   22.2260 N   0  0  0  0  0  0  0  0  0  0  0  0
  -23.2720  -28.5910   23.1780 O   0  0  0  0  0  0  0  0  0  0  0  0
  -20.7860  -29.5920   21.5360 H   0  0  0  0  0  0  0  0  0  0  0  0
  -17.9030  -27.7890   22.7400 C   0  0  0  0  0  0  0  0  0  0  0  0
  -20.4600  -28.0890   22.9940 C   0  0  0  0  0  3  0  0  0  0  0  0
  -20.5780  -26.6610   22.4120 C   0  0  0  0  0  2  0  0  0  0  0  0
  -19.4770  -26.3290   21.3990 C   0  0  0  0  0  2  0  0  0  0  0  0
  -18.0960  -26.4490   22.0480 C   0  0  0  0  0  2  0  0  0  0  0  0
  -19.0130  -28.5660   23.1690 C   0  0  0  0  0  0  0  0  0  0  0  0
  -18.7770  -29.8160   23.7810 C   0  0  0  0  0  3  0  0  0  0  0  0
  -17.4650  -30.2920   23.9640 C   0  0  0  0  0  3  0  0  0  0  0  0
  -16.3700  -29.5150   23.5480 C   0  0  0  0  0  3  0  0  0  0  0  0
  -16.5900  -28.2650   22.9430 C   0  0  0  0  0  3  0  0  0  0  0  0
  -25.6710  -32.3270   23.6820 C   0  0  0  0  0  3  0  0  0  0  0  0
  -26.1850  -31.5740   24.9730 C   0  0  1  0  0  0  0  0  0  0  0  0
  -25.0780  -31.3070   26.0210 C   0  0  0  0  0  1  0  0  0  0  0  0
  -26.8140  -30.2110   24.6060 C   0  0  0  0  0  1  0  0  0  0  0  0
  -27.3010  -32.4020   25.6510 C   0  0  0  0  0  1  0  0  0  0  0  0
  -25.3060  -33.7160   24.0240 N   0  0  0  0  0  0  0  0  0  0  0  0
  -25.6090  -34.7950   23.2900 C   0  0  0  0  0  0  0  0  0  0  0  0
  -26.2830  -34.7300   22.2600 O   0  0  0  0  0  0  0  0  0  0  0  0
  -24.7060  -33.8380   24.8260 H   0  0  0  0  0  0  0  0  0  0  0  0
  -23.8210  -36.5450   22.9810 C   0  0  0  0  0  1  0  0  0  0  0  0
  -25.0820  -36.1640   23.7730 C   0  0  0  0  0  3  0  0  0  0  0  0
  -27.1950  -37.1100   24.5930 C   0  0  0  0  0  1  0  0  0  0  0  0
  -26.0790  -37.2530   23.6640 N   0  0  0  0  0  0  0  0  0  0  0  0
  -25.6440  -38.1560   23.8280 H   0  0  0  0  0  0  0  0  0  0  0  0
  -29.8800  -17.0610   20.2140 C   0  0  0  0  0  3  0  0  0  0  0  0
  -30.5090  -15.4940   19.4850 C   0  0  0  0  0  0  0  0  0  0  0  0
  -30.3750  -13.0340   18.4880 C   0  0  0  0  0  2  0  0  0  0  0  0
  -29.2930  -12.8290   17.3890 C   0  0  0  0  0  2  0  0  0  0  0  0
  -27.9230  -12.5180   18.0130 C   0  0  0  0  0  2  0  0  0  0  0  0
  -27.6340  -13.4460   19.2130 C   0  0  0  0  0  3  0  0  0  0  0  0
  -28.8240  -13.5710   20.1870 C   0  0  0  0  0  2  0  0  0  0  0  0
  -29.9580  -14.1510   19.4380 N   0  0  0  0  0  0  0  0  0  0  0  0
  -31.6430  -15.4680   18.9710 O   0  0  0  0  0  0  0  0  0  0  0  0
  -25.4460  -14.0140   20.3800 C   0  0  0  0  0  0  0  0  0  0  0  0
  -24.4120  -13.2510   20.8410 C   0  0  0  0  0  0  0  0  0  0  0  0
  -24.7930  -11.8920   20.6190 C   0  0  0  0  0  0  0  0  0  0  0  0
  -26.3870  -13.1260   19.8960 N   0  0  0  0  0  0  0  0  0  0  0  0
  -26.0190  -11.8340   20.1050 N   0  0  0  0  0  0  0  0  0  0  0  0
  -24.0320  -10.6490   20.8080 C   0  0  0  0  0  0  0  0  0  0  0  0
  -24.5120   -9.6040   21.6290 C   0  0  0  0  0  3  0  0  0  0  0  0
  -23.7500   -8.4300   21.8110 C   0  0  0  0  0  3  0  0  0  0  0  0
  -22.4940   -8.2910   21.1730 C   0  0  0  0  0  0  0  0  0  0  0  0
  -22.0320   -9.3240   20.3380 C   0  0  0  0  0  3  0  0  0  0  0  0
  -22.7940  -10.4900   20.1540 C   0  0  0  0  0  3  0  0  0  0  0  0
  -21.6980   -7.1750   21.2730 O   0  0  0  0  0  0  0  0  0  0  0  0
  -21.6910   -6.3930   22.3990 C   0  0  0  0  0  0  0  0  0  0  0  0
  -21.3870   -6.9240   23.6730 C   0  0  0  0  0  3  0  0  0  0  0  0
  -21.3210   -6.0720   24.7930 C   0  0  0  0  0  3  0  0  0  0  0  0
  -21.5500   -4.6910   24.6440 C   0  0  0  0  0  0  0  0  0  0  0  0
  -21.8470   -4.1600   23.3770 C   0  0  0  0  0  3  0  0  0  0  0  0
  -21.9140   -5.0090   22.2570 C   0  0  0  0  0  0  0  0  0  0  0  0
  -22.1800   -4.4880   21.0350 F   0  0  0  0  0  0  0  0  0  0  0  0
  -21.4790   -3.8720   25.7180 F   0  0  0  0  0  0  0  0  0  0  0  0
  -23.0990  -13.7590   21.3610 C   0  0  0  0  0  0  0  0  0  0  0  0
  -22.4790  -13.0290   22.2800 N   0  0  0  0  0  0  0  0  0  0  0  0
  -22.6390  -14.8370   20.9870 O   0  0  0  0  0  0  0  0  0  0  0  0
  -22.8670  -12.1560   22.6060 H   0  0  0  0  0  0  0  0  0  0  0  0
  -21.6020  -13.3490   22.6680 H   0  0  0  0  0  0  0  0  0  0  0  0
  -25.6550  -15.3880   20.3020 N   0  0  0  0  0  0  0  0  0  0  0  0
  -24.9450  -16.0550   20.5830 H   0  0  0  0  0  0  0  0  0  0  0  0
  -26.4490  -15.8200   19.8490 H   0  0  0  0  0  0  0  0  0  0  0  0
  -30.3980  -15.9320   22.5340 C   0  0  0  0  0  1  0  0  0  0  0  0
  -30.6240  -17.1160   21.5770 C   0  0  0  0  0  2  0  0  0  0  0  0
  1  2  2  0
  1  4  1  0
  2  5  1  0
  4  3  2  0
  5  6  2  0
  5 50  1  0
  6  3  1  0
  6  7  1  0
  8  4  1  0
  8  9  1  0
 10 21  2  0
 11  9  1  0
 11 16  1  0
 12 20  1  0
 12 22  1  0
 13 19  1  0
 13 15  1  0
 14 20  1  0
 15 16  2  0
 15 14  1  0
 17 11  2  0
 18 17  1  0
 18 13  2  0
 19 12  1  0
 20 10  1  0
 22 24  2  0
 23 22  1  0
 25 23  1  0
 26 35  2  0
 26 31  1  0
 27 23  1  0
 27 31  1  0
 28 27  1  0
 29 30  1  0
 29 28  1  0
 30 26  1  0
 31 32  2  0
 32 33  1  0
 34 33  2  0
 35 34  1  0
 36 10  1  0
 36 41  1  0
 36 37  1  0
 37 40  1  1
 37 38  1  0
 39 37  1  0
 41 44  1  0
 42 46  1  0
 42 41  1  0
 43 42  2  0
 46 45  1  0
 48 46  1  0
 48 49  1  0
 48 47  1  0
 50 88  1  0
 51 50  1  0
 52 57  1  0
 53 54  1  0
 53 52  1  0
 55 54  1  0
 55 62  1  0
 55 56  1  0
 57 51  1  0
 57 56  1  0
 58 51  2  0
 59 60  2  0
 60 79  1  0
 61 64  1  0
 61 60  1  0
 62 63  1  0
 62 59  1  0
 63 61  2  0
 64 65  1  0
 65 66  2  0
 67 70  1  0
 67 66  1  0
 68 67  2  0
 69 68  1  0
 69 64  2  0
 70 71  1  0
 71 72  1  0
 72 73  2  0
 74 73  1  0
 74 78  1  0
 75 74  2  0
 76 71  2  0
 76 75  1  0
 77 76  1  0
 79 80  1  0
 80 82  1  0
 80 83  1  0
 81 79  2  0
 84 59  1  0
 84 85  1  0
 86 84  1  0
 88 87  1  0
M  ISO  4   8 101   9 101  50 100  51 100
M  END
>  <TORSDO>  (42) 
F 19

>  <SCORE>  (42) 
-13.725

>  <name>  (42) 
42

>  <ligand_id>  (42) 
42

>  <original_smiles>  (42) 
[H]c1c([H])c([H])c2c(c1[H])C([H])([H])C([H])([H])C([H])([H])C2([H])N([H])C(=O)C1([H])N(C(=O)C([H])(N([H])C(=O)C([H])(N([H])C([H])([H])[H])C([H])([H])[H])C(C([H])([H])[H])(C([H])([H])[H])C([H])([H])[H])C([H])([H])c2c([H])c(OC([H])([H])c3c([H])c([H])c(C([H])(C(=O)N4C([H])([H])C([H])([H])C([H])([H])C([H])(n5nc(-c6c([H])c([H])c(Oc7c([H])c([H])c(F)c([H])c7F)c([H])c6[H])c(C(=O)N([H])[H])c5N([H])[H])C4([H])[H])C([H])([H])C([H])([H])[H])c(C([H])([H])[H])c3[H])c([H])c([H])c2C1([H])[H]

>  <smiles>  (42) 
[H]c1c([H])c([H])c2c(c1[H])C([H])([H])C([H])([H])C([H])([H])C2([H])N([H])C(=O)C1([H])N(C(=O)C([H])(N([H])C(=O)C([H])(N([H])C([H])([H])[H])C([H])([H])[H])C(C([H])([H])[H])(C([H])([H])[H])C([H])([H])[H])C([H])([H])c2c([H])c(OC([H])([H])c3c([H])c([H])c(C([H])(C(=O)N4C([H])([H])C([H])([H])C([H])([H])C([H])(n5nc(-c6c([H])c([H])c(Oc7c([H])c([H])c(F)c([H])c7F)c([H])c6[H])c(C(=O)N([H])[H])c5N([H])[H])C4([H])[H])C([H])([H])C([H])([H])[H])c(C([H])([H])[H])c3[H])c([H])c([H])c2C1([H])[H]

$$$$
43:0:0
     RDKit          3D

 88 94  0  0  1  0  0  0  0  0999 V2000
  -28.6220  -20.9790   19.1370 C   0  0  0  0  0  3  0  0  0  0  0  0
  -28.3000  -22.5200   19.1040 C   0  0  0  0  0  3  0  0  0  0  0  0
  -29.2730  -20.0090   20.1270 C   0  0  0  0  0  3  0  0  0  0  0  0
  -29.4720  -21.1770   21.1010 C   0  0  0  0  0  0  0  0  0  0  0  0
  -28.4690  -23.6920   20.0690 C   0  0  0  0  0  0  0  0  0  0  0  0
  -29.1680  -22.7400   21.0610 C   0  0  0  0  0  0  0  0  0  0  0  0
  -30.1170  -20.7200   22.4010 C   0  0  0  0  0  1  0  0  0  0  0  0
  -28.0950  -17.6540   19.4520 C   0  0  0  0  0  1  0  0  0  0  0  0
  -29.3630  -18.0080   20.2460 C   0  0  0  0  0  1  0  0  0  0  0  0
  -30.3380  -16.2500   20.1710 C   0  0  0  0  0  2  0  0  0  0  0  0
  -30.6340  -13.6010   19.4280 C   0  0  0  0  0  2  0  0  0  0  0  0
  -29.7840  -13.0270   18.2430 C   0  0  0  0  0  2  0  0  0  0  0  0
  -28.3920  -12.5740   18.7080 C   0  0  0  0  0  2  0  0  0  0  0  0
  -27.8140  -13.5840   19.7170 C   0  0  0  0  0  3  0  0  0  0  0  0
  -28.8170  -14.0520   20.8060 C   0  0  0  0  0  2  0  0  0  0  0  0
  -29.9400  -14.7920   20.1500 N   0  0  0  0  0  0  0  0  0  0  0  0
  -31.5780  -16.1790   19.9950 O   0  0  0  0  0  1  0  0  0  0  0  0
  -25.4660  -14.0490   20.5420 C   0  0  0  0  0  0  0  0  0  0  0  0
  -24.4220  -13.2500   20.9030 C   0  0  0  0  0  0  0  0  0  0  0  0
  -24.9050  -11.9060   20.8260 C   0  0  0  0  0  0  0  0  0  0  0  0
  -26.5170  -13.2000   20.2560 N   0  0  0  0  0  0  0  0  0  0  0  0
  -26.1950  -11.8990   20.4910 N   0  0  0  0  0  0  0  0  0  0  0  0
  -24.1890  -10.6340   20.9920 C   0  0  0  0  0  0  0  0  0  0  0  0
  -24.5930   -9.6730   21.9450 C   0  0  0  0  0  3  0  0  0  0  0  0
  -23.8710   -8.4700   22.1020 C   0  0  0  0  0  3  0  0  0  0  0  0
  -22.7290   -8.2180   21.3050 C   0  0  0  0  0  0  0  0  0  0  0  0
  -22.3430   -9.1660   20.3430 C   0  0  0  0  0  3  0  0  0  0  0  0
  -23.0650  -10.3610   20.1840 C   0  0  0  0  0  3  0  0  0  0  0  0
  -21.9820   -7.0650   21.3700 O   0  0  0  0  0  0  0  0  0  0  0  0
  -21.8290   -6.3700   22.5430 C   0  0  0  0  0  0  0  0  0  0  0  0
  -21.2460   -6.9570   23.6860 C   0  0  0  0  0  3  0  0  0  0  0  0
  -21.0450   -6.1870   24.8490 C   0  0  0  0  0  3  0  0  0  0  0  0
  -21.4170   -4.8300   24.8680 C   0  0  0  0  0  0  0  0  0  0  0  0
  -21.9920   -4.2410   23.7280 C   0  0  0  0  0  3  0  0  0  0  0  0
  -22.1950   -5.0090   22.5680 C   0  0  0  0  0  0  0  0  0  0  0  0
  -22.7300   -4.4310   21.4660 F   0  0  0  0  0  0  0  0  0  0  0  0
  -21.2160   -4.0870   25.9820 F   0  0  0  0  0  0  0  0  0  0  0  0
  -23.0240  -13.7070   21.1970 C   0  0  0  0  0  0  0  0  0  0  0  0
  -22.3140  -12.9960   22.0640 N   0  0  0  0  0  0  0  0  0  0  0  0
  -22.5710  -14.7350   20.6930 O   0  0  0  0  0  0  0  0  0  0  0  0
  -22.6950  -12.1660   22.4940 H   0  0  0  0  0  0  0  0  0  0  0  0
  -21.3760  -13.2860   22.3020 H   0  0  0  0  0  0  0  0  0  0  0  0
  -25.6070  -15.4270   20.4020 N   0  0  0  0  0  0  0  0  0  0  0  0
  -24.8350  -16.0660   20.5490 H   0  0  0  0  0  0  0  0  0  0  0  0
  -26.4480  -15.8860   20.0790 H   0  0  0  0  0  0  0  0  0  0  0  0
  -30.4120  -24.5470   21.9850 C   0  0  0  0  0  1  0  0  0  0  0  0
  -29.6510  -23.3610   22.1900 O   0  0  0  0  0  0  0  0  0  0  0  0
  -28.3250  -25.3980   19.9780 O   0  0  0  0  0  0  0  0  0  0  0  0
  -24.8330  -31.8870   23.1340 C   0  0  0  0  0  0  0  0  0  0  0  0
  -27.3260  -26.6790   20.0210 C   0  0  0  0  0  0  0  0  0  0  0  0
  -23.6300  -30.5070   21.4970 C   0  0  0  0  0  3  0  0  0  0  0  0
  -25.0610  -28.8450   20.0410 C   0  0  0  0  0  0  0  0  0  0  0  0
  -26.2150  -30.5990   21.3550 C   0  0  0  0  0  2  0  0  0  0  0  0
  -26.2700  -29.1520   20.6750 C   0  0  0  0  0  0  0  0  0  0  0  0
  -27.3690  -28.1050   20.6290 C   0  0  0  0  0  3  0  0  0  0  0  0
  -26.0770  -26.6470   19.3280 C   0  0  0  0  0  3  0  0  0  0  0  0
  -25.0160  -27.6220   19.3440 C   0  0  0  0  0  3  0  0  0  0  0  0
  -23.8600  -29.8170   20.1170 C   0  0  0  0  0  2  0  0  0  0  0  0
  -24.9200  -31.0370   22.0470 N   0  0  0  0  0  0  0  0  0  0  0  0
  -23.7430  -32.1810   23.6590 O   0  0  0  0  0  0  0  0  0  0  0  0
  -22.9170  -29.5290   22.4710 C   0  0  0  0  0  0  0  0  0  0  0  0
  -21.5830  -29.3670   22.3600 N   0  0  0  0  0  0  0  0  0  0  0  0
  -23.5800  -28.9080   23.3050 O   0  0  0  0  0  0  0  0  0  0  0  0
  -21.0920  -29.9170   21.6680 H   0  0  0  0  0  0  0  0  0  0  0  0
  -18.2190  -28.0840   22.8880 C   0  0  0  0  0  0  0  0  0  0  0  0
  -20.7750  -28.4120   23.1320 C   0  0  0  0  0  3  0  0  0  0  0  0
  -20.9020  -26.9840   22.5510 C   0  0  0  0  0  2  0  0  0  0  0  0
  -19.8030  -26.6430   21.5410 C   0  0  0  0  0  2  0  0  0  0  0  0
  -18.4220  -26.7480   22.1950 C   0  0  0  0  0  2  0  0  0  0  0  0
  -19.3220  -28.8730   23.3130 C   0  0  0  0  0  0  0  0  0  0  0  0
  -19.0710  -30.1180   23.9290 C   0  0  0  0  0  3  0  0  0  0  0  0
  -17.7540  -30.5770   24.1200 C   0  0  0  0  0  3  0  0  0  0  0  0
  -16.6670  -29.7880   23.7060 C   0  0  0  0  0  3  0  0  0  0  0  0
  -16.9000  -28.5420   23.0960 C   0  0  0  0  0  3  0  0  0  0  0  0
  -26.0940  -32.5440   23.7710 C   0  0  0  0  0  3  0  0  0  0  0  0
  -25.7490  -33.9230   24.1830 N   0  0  0  0  0  0  0  0  0  0  0  0
  -26.0400  -35.0360   23.4950 C   0  0  0  0  0  0  0  0  0  0  0  0
  -26.6780  -35.0110   22.4400 O   0  0  0  0  0  0  0  0  0  0  0  0
  -25.1730  -34.0120   25.0070 H   0  0  0  0  0  0  0  0  0  0  0  0
  -24.2770  -36.8330   23.3260 C   0  0  0  0  0  1  0  0  0  0  0  0
  -25.5540  -36.3890   24.0600 C   0  0  0  0  0  3  0  0  0  0  0  0
  -27.6940  -37.2760   24.8830 C   0  0  0  0  0  1  0  0  0  0  0  0
  -26.5690  -37.4640   23.9710 N   0  0  0  0  0  0  0  0  0  0  0  0
  -26.1540  -38.3730   24.1560 H   0  0  0  0  0  0  0  0  0  0  0  0
  -26.6420  -31.7460   25.0210 C   0  0  1  0  0  0  0  0  0  0  0  0
  -25.5690  -31.4610   26.0990 C   0  0  0  0  0  1  0  0  0  0  0  0
  -27.2410  -30.3880   24.5960 C   0  0  0  0  0  1  0  0  0  0  0  0
  -27.7910  -32.5390   25.6880 C   0  0  0  0  0  1  0  0  0  0  0  0
  1  3  1  0
  2  1  2  0
  2  5  1  0
  3  4  2  0
  4  7  1  0
  5  6  2  0
  6  4  1  0
  6 47  1  0
  8  9  1  0
 11 16  1  0
 12 13  1  0
 12 11  1  0
 14 13  1  0
 14 21  1  0
 14 15  1  0
 16 10  1  0
 16 15  1  0
 17 10  1  0
 18 19  2  0
 19 38  1  0
 20 19  1  0
 20 23  1  0
 21 22  1  0
 21 18  1  0
 22 20  2  0
 23 24  1  0
 24 25  2  0
 26 29  1  0
 26 25  1  0
 27 26  2  0
 28 27  1  0
 28 23  2  0
 29 30  1  0
 30 35  2  0
 30 31  1  0
 31 32  2  0
 32 33  1  0
 33 37  1  0
 34 33  2  0
 35 34  1  0
 36 35  1  0
 38 39  1  0
 39 42  1  0
 39 41  1  0
 40 38  2  0
 43 18  1  0
 43 44  1  0
 45 43  1  0
 46 47  1  0
 48 50  1  0
 48  5  1  0
 49 60  2  0
 50 55  1  0
 51 59  1  0
 51 61  1  0
 52 58  1  0
 52 54  1  0
 53 59  1  0
 54 53  1  0
 55 54  2  0
 56 57  1  0
 56 50  2  0
 57 52  2  0
 58 51  1  0
 59 49  1  0
 61 63  2  0
 62 61  1  0
 64 62  1  0
 65 74  2  0
 65 70  1  0
 66 62  1  0
 66 70  1  0
 67 66  1  0
 68 69  1  0
 68 67  1  0
 69 65  1  0
 70 71  2  0
 71 72  1  0
 73 72  2  0
 74 73  1  0
 75 49  1  0
 75 76  1  0
 75 85  1  0
 76 79  1  0
 77 81  1  0
 77 76  1  0
 78 77  2  0
 81 80  1  0
 83 81  1  0
 83 84  1  0
 83 82  1  0
 85 88  1  1
 85 86  1  0
 87 85  1  0
M  ISO  4   5 101   9 100  10 100  48 101
M  END
>  <TORSDO>  (43) 
F 18

>  <SCORE>  (43) 
-15.859

>  <name>  (43) 
43

>  <ligand_id>  (43) 
43

>  <original_smiles>  (43) 
[H]c1c([H])c([H])c2c(c1[H])C([H])([H])C([H])([H])C([H])([H])C2([H])N([H])C(=O)C1([H])N(C(=O)C([H])(N([H])C(=O)C([H])(N([H])C([H])([H])[H])C([H])([H])[H])C(C([H])([H])[H])(C([H])([H])[H])C([H])([H])[H])C([H])([H])c2c([H])c(Oc3c([H])c([H])c(C([H])(C(=O)N4C([H])([H])C([H])([H])C([H])([H])C([H])(n5nc(-c6c([H])c([H])c(Oc7c([H])c([H])c(F)c([H])c7F)c([H])c6[H])c(C(=O)N([H])[H])c5N([H])[H])C4([H])[H])C([H])([H])[H])c(C([H])([H])[H])c3OC([H])([H])[H])c([H])c([H])c2C1([H])[H]

>  <smiles>  (43) 
[H]c1c([H])c([H])c2c(c1[H])C([H])([H])C([H])([H])C([H])([H])C2([H])N([H])C(=O)C1([H])N(C(=O)C([H])(N([H])C(=O)C([H])(N([H])C([H])([H])[H])C([H])([H])[H])C(C([H])([H])[H])(C([H])([H])[H])C([H])([H])[H])C([H])([H])c2c([H])c(Oc3c([H])c([H])c(C([H])(C(=O)N4C([H])([H])C([H])([H])C([H])([H])C([H])(n5nc(-c6c([H])c([H])c(Oc7c([H])c([H])c(F)c([H])c7F)c([H])c6[H])c(C(=O)N([H])[H])c5N([H])[H])C4([H])[H])C([H])([H])[H])c(C([H])([H])[H])c3OC([H])([H])[H])c([H])c([H])c2C1([H])[H]

$$$$
44:0:0
     RDKit          3D

 90 98  0  0  1  0  0  0  0  0999 V2000
  -28.7460  -21.5970   18.5100 C   0  0  0  0  0  3  0  0  0  0  0  0
  -28.3600  -22.7840   17.8270 C   0  0  0  0  0  3  0  0  0  0  0  0
  -28.7430  -22.9740   20.4870 C   0  0  0  0  0  3  0  0  0  0  0  0
  -28.9780  -21.5370   19.9000 C   0  0  0  0  0  0  0  0  0  0  0  0
  -28.1720  -24.0700   18.4180 C   0  0  0  0  0  0  0  0  0  0  0  0
  -28.3250  -24.3220   19.8050 C   0  0  0  0  0  0  0  0  0  0  0  0
  -29.3400  -19.9400   20.5280 C   0  0  0  0  0  0  0  0  0  0  0  0
  -29.1620  -19.8230   21.7440 O   0  0  0  0  0  0  0  0  0  0  0  0
  -29.9510  -18.4210   19.8210 C   0  0  0  0  0  2  0  0  0  0  0  0
  -30.5480  -15.4730   20.0820 C   0  0  0  0  0  0  0  0  0  0  0  0
  -30.5220  -13.0000   19.2340 C   0  0  0  0  0  2  0  0  0  0  0  0
  -29.5930  -12.7670   18.0130 C   0  0  0  0  0  2  0  0  0  0  0  0
  -28.1540  -12.4830   18.4740 C   0  0  0  0  0  2  0  0  0  0  0  0
  -27.7130  -13.4520   19.5980 C   0  0  0  0  0  3  0  0  0  0  0  0
  -28.7710  -13.6290   20.7100 C   0  0  0  0  0  2  0  0  0  0  0  0
  -29.9870  -14.1530   20.0620 N   0  0  0  0  0  0  0  0  0  0  0  0
  -31.7520  -15.4540   19.7840 O   0  0  0  0  0  0  0  0  0  0  0  0
  -29.8050  -16.7720   20.2370 N   0  0  0  0  0  0  0  0  0  0  0  0
  -28.8660  -16.5880   20.5570 H   0  0  0  0  0  0  0  0  0  0  0  0
  -25.3560  -14.0090   20.3820 C   0  0  0  0  0  0  0  0  0  0  0  0
  -24.2980  -13.2350   20.7670 C   0  0  0  0  0  0  0  0  0  0  0  0
  -24.7630  -11.8850   20.7340 C   0  0  0  0  0  0  0  0  0  0  0  0
  -26.3930  -13.1320   20.1260 N   0  0  0  0  0  0  0  0  0  0  0  0
  -26.0510  -11.8480   20.4070 N   0  0  0  0  0  0  0  0  0  0  0  0
  -24.0350  -10.6240   20.9350 C   0  0  0  0  0  0  0  0  0  0  0  0
  -24.4650   -9.6630   21.8780 C   0  0  0  0  0  3  0  0  0  0  0  0
  -23.7330   -8.4710   22.0690 C   0  0  0  0  0  3  0  0  0  0  0  0
  -22.5570   -8.2300   21.3200 C   0  0  0  0  0  0  0  0  0  0  0  0
  -22.1460   -9.1780   20.3680 C   0  0  0  0  0  3  0  0  0  0  0  0
  -22.8770  -10.3620   20.1740 C   0  0  0  0  0  3  0  0  0  0  0  0
  -21.7980   -7.0890   21.4210 O   0  0  0  0  0  0  0  0  0  0  0  0
  -21.7390   -6.3650   22.5830 C   0  0  0  0  0  0  0  0  0  0  0  0
  -21.2970   -6.9370   23.7970 C   0  0  0  0  0  3  0  0  0  0  0  0
  -21.1880   -6.1380   24.9530 C   0  0  0  0  0  3  0  0  0  0  0  0
  -21.5060   -4.7680   24.8960 C   0  0  0  0  0  0  0  0  0  0  0  0
  -21.9390   -4.1960   23.6860 C   0  0  0  0  0  3  0  0  0  0  0  0
  -22.0520   -4.9920   22.5340 C   0  0  0  0  0  0  0  0  0  0  0  0
  -22.4490   -4.4300   21.3660 F   0  0  0  0  0  0  0  0  0  0  0  0
  -21.3930   -3.9990   26.0030 F   0  0  0  0  0  0  0  0  0  0  0  0
  -22.9050  -13.7170   21.0460 C   0  0  0  0  0  0  0  0  0  0  0  0
  -22.1850  -13.0280   21.9240 N   0  0  0  0  0  0  0  0  0  0  0  0
  -22.4670  -14.7390   20.5220 O   0  0  0  0  0  0  0  0  0  0  0  0
  -22.5560  -12.2020   22.3700 H   0  0  0  0  0  0  0  0  0  0  0  0
  -21.2500  -13.3320   22.1560 H   0  0  0  0  0  0  0  0  0  0  0  0
  -25.5180  -15.3790   20.1970 N   0  0  0  0  0  0  0  0  0  0  0  0
  -24.7510  -16.0330   20.3050 H   0  0  0  0  0  0  0  0  0  0  0  0
  -26.3520  -15.8090   19.8170 H   0  0  0  0  0  0  0  0  0  0  0  0
  -28.9240  -25.5920   16.8110 C   0  0  0  0  0  1  0  0  0  0  0  0
  -27.8400  -25.1120   17.5940 O   0  0  0  0  0  0  0  0  0  0  0  0
  -28.2610  -25.8270   20.2200 O   0  0  0  0  0  0  0  0  0  0  0  0
  -24.6720  -31.8560   23.1210 C   0  0  0  0  0  0  0  0  0  0  0  0
  -27.2490  -26.9430   20.0960 C   0  0  0  0  0  0  0  0  0  0  0  0
  -23.4820  -30.4460   21.4910 C   0  0  0  0  0  3  0  0  0  0  0  0
  -24.9370  -28.8430   20.0580 C   0  0  0  0  0  0  0  0  0  0  0  0
  -26.0480  -30.6630   21.3340 C   0  0  0  0  0  2  0  0  0  0  0  0
  -26.1240  -29.2470   20.6790 C   0  0  0  0  0  0  0  0  0  0  0  0
  -27.2670  -28.3160   20.6760 C   0  0  0  0  0  3  0  0  0  0  0  0
  -26.0270  -26.7060   19.4250 C   0  0  0  0  0  3  0  0  0  0  0  0
  -24.9160  -27.5950   19.4110 C   0  0  0  0  0  3  0  0  0  0  0  0
  -23.7120  -29.7590   20.1140 C   0  0  0  0  0  2  0  0  0  0  0  0
  -24.7570  -31.0180   22.0350 N   0  0  0  0  0  0  0  0  0  0  0  0
  -23.5820  -32.1370   23.6470 O   0  0  0  0  0  0  0  0  0  0  0  0
  -22.7980  -29.4510   22.4640 C   0  0  0  0  0  0  0  0  0  0  0  0
  -21.4670  -29.2810   22.3540 N   0  0  0  0  0  0  0  0  0  0  0  0
  -23.4740  -28.8300   23.2890 O   0  0  0  0  0  0  0  0  0  0  0  0
  -20.9740  -29.8330   21.6670 H   0  0  0  0  0  0  0  0  0  0  0  0
  -18.0990  -28.0410   22.8920 C   0  0  0  0  0  0  0  0  0  0  0  0
  -20.6580  -28.3370   23.1340 C   0  0  0  0  0  3  0  0  0  0  0  0
  -20.7690  -26.9040   22.5630 C   0  0  0  0  0  2  0  0  0  0  0  0
  -19.6630  -26.5680   21.5570 C   0  0  0  0  0  2  0  0  0  0  0  0
  -18.2850  -26.6950   22.2120 C   0  0  0  0  0  2  0  0  0  0  0  0
  -19.2110  -28.8180   23.3100 C   0  0  0  0  0  0  0  0  0  0  0  0
  -18.9790  -30.0750   23.9120 C   0  0  0  0  0  3  0  0  0  0  0  0
  -17.6680  -30.5550   24.0930 C   0  0  0  0  0  3  0  0  0  0  0  0
  -16.5710  -29.7770   23.6860 C   0  0  0  0  0  3  0  0  0  0  0  0
  -16.7870  -28.5200   23.0930 C   0  0  0  0  0  3  0  0  0  0  0  0
  -25.9390  -32.5130   23.7470 C   0  0  0  0  0  3  0  0  0  0  0  0
  -26.4640  -31.7490   25.0260 C   0  0  1  0  0  0  0  0  0  0  0  0
  -25.3740  -31.5040   26.0970 C   0  0  0  0  0  1  0  0  0  0  0  0
  -27.0600  -30.3770   24.6450 C   0  0  0  0  0  1  0  0  0  0  0  0
  -27.6080  -32.5560   25.6850 C   0  0  0  0  0  1  0  0  0  0  0  0
  -25.6050  -33.9060   24.0960 N   0  0  0  0  0  0  0  0  0  0  0  0
  -25.9220  -34.9810   23.3610 C   0  0  0  0  0  0  0  0  0  0  0  0
  -26.5880  -34.9040   22.3260 O   0  0  0  0  0  0  0  0  0  0  0  0
  -25.0120  -34.0380   24.9020 H   0  0  0  0  0  0  0  0  0  0  0  0
  -24.1830  -36.7760   23.0450 C   0  0  0  0  0  1  0  0  0  0  0  0
  -25.4260  -36.3580   23.8490 C   0  0  0  0  0  3  0  0  0  0  0  0
  -27.5490  -37.2460   24.7080 C   0  0  0  0  0  1  0  0  0  0  0  0
  -26.4510  -37.4200   23.7610 N   0  0  0  0  0  0  0  0  0  0  0  0
  -26.0360  -38.3340   23.9220 H   0  0  0  0  0  0  0  0  0  0  0  0
  1  4  1  0
  2  5  1  0
  2  1  2  0
  4  3  2  0
  4  7  1  0
  5  6  2  0
  6 50  1  0
  6  3  1  0
  7  8  2  0
  9 18  1  0
  9  7  1  0
 10 18  1  0
 11 16  1  0
 12 13  1  0
 12 11  1  0
 14 13  1  0
 14 23  1  0
 14 15  1  0
 16 10  1  0
 16 15  1  0
 17 10  2  0
 18 19  1  0
 20 21  2  0
 21 40  1  0
 22 21  1  0
 22 25  1  0
 23 20  1  0
 23 24  1  0
 24 22  2  0
 25 26  1  0
 26 27  2  0
 28 31  1  0
 28 27  1  0
 29 28  2  0
 30 29  1  0
 30 25  2  0
 31 32  1  0
 32 33  1  0
 33 34  2  0
 35 34  1  0
 35 39  1  0
 36 35  2  0
 37 32  2  0
 37 36  1  0
 38 37  1  0
 40 41  1  0
 41 44  1  0
 41 43  1  0
 42 40  2  0
 45 46  1  0
 45 20  1  0
 47 45  1  0
 48 49  1  0
 49  5  1  0
 51 62  2  0
 52 50  1  0
 52 57  1  0
 53 61  1  0
 53 63  1  0
 54 60  1  0
 54 56  1  0
 55 61  1  0
 56 55  1  0
 57 56  2  0
 58 52  2  0
 59 58  1  0
 59 54  2  0
 60 53  1  0
 61 51  1  0
 63 65  2  0
 64 63  1  0
 66 64  1  0
 67 76  2  0
 67 72  1  0
 68 64  1  0
 68 72  1  0
 69 68  1  0
 70 71  1  0
 70 69  1  0
 71 67  1  0
 72 73  2  0
 73 74  1  0
 75 74  2  0
 76 75  1  0
 77 51  1  0
 77 82  1  0
 77 78  1  0
 78 81  1  1
 78 79  1  0
 80 78  1  0
 82 85  1  0
 83 87  1  0
 83 82  1  0
 84 83  2  0
 87 86  1  0
 89 87  1  0
 89 90  1  0
 89 88  1  0
M  ISO  4   6 101  10 100  18 100  50 101
M  END
>  <TORSDO>  (44) 
F 19

>  <SCORE>  (44) 
-14.819

>  <name>  (44) 
44

>  <ligand_id>  (44) 
44

>  <original_smiles>  (44) 
[H]c1c([H])c([H])c2c(c1[H])C([H])([H])C([H])([H])C([H])([H])C2([H])N([H])C(=O)C1([H])N(C(=O)C([H])(N([H])C(=O)C([H])(N([H])C([H])([H])[H])C([H])([H])[H])C(C([H])([H])[H])(C([H])([H])[H])C([H])([H])[H])C([H])([H])c2c([H])c(Oc3c([H])c(C(=O)C([H])([H])N([H])C(=O)N4C([H])([H])C([H])([H])C([H])([H])C([H])(n5nc(-c6c([H])c([H])c(Oc7c([H])c([H])c(F)c([H])c7F)c([H])c6[H])c(C(=O)N([H])[H])c5N([H])[H])C4([H])[H])c([H])c([H])c3OC([H])([H])[H])c([H])c([H])c2C1([H])[H]

>  <smiles>  (44) 
[H]c1c([H])c([H])c2c(c1[H])C([H])([H])C([H])([H])C([H])([H])C2([H])N([H])C(=O)C1([H])N(C(=O)C([H])(N([H])C(=O)C([H])(N([H])C([H])([H])[H])C([H])([H])[H])C(C([H])([H])[H])(C([H])([H])[H])C([H])([H])[H])C([H])([H])c2c([H])c(Oc3c([H])c(C(=O)C([H])([H])N([H])C(=O)N4C([H])([H])C([H])([H])C([H])([H])C([H])(n5nc(-c6c([H])c([H])c(Oc7c([H])c([H])c(F)c([H])c7F)c([H])c6[H])c(C(=O)N([H])[H])c5N([H])[H])C4([H])[H])c([H])c([H])c3OC([H])([H])[H])c([H])c([H])c2C1([H])[H]

$$$$
45:0:0
     RDKit          3D

 91 99  0  0  1  0  0  0  0  0999 V2000
  -29.4850  -20.4860   19.7800 C   0  0  0  0  0  2  0  0  0  0  0  0
  -30.1850  -17.7330   19.9090 C   0  0  0  0  0  3  0  0  0  0  0  0
  -30.0770  -19.0850   21.9040 C   0  0  0  0  0  3  0  0  0  0  0  0
  -30.6830  -16.5200   20.6190 C   0  0  0  0  0  0  0  0  0  0  0  0
  -29.8880  -19.0580   20.5140 C   0  0  0  0  0  0  0  0  0  0  0  0
  -30.6550  -18.0090   22.6190 C   0  0  0  0  0  0  0  0  0  0  0  0
  -31.0000  -16.7680   21.9900 C   0  0  0  0  0  0  0  0  0  0  0  0
  -31.8860  -15.7780   22.7610 C   0  0  0  0  0  1  0  0  0  0  0  0
  -31.1550  -15.1370   19.9460 C   0  0  0  0  0  0  0  0  0  0  0  0
  -30.7850  -12.8510   18.9110 C   0  0  0  0  0  2  0  0  0  0  0  0
  -29.8070  -12.9470   17.7170 C   0  0  0  0  0  2  0  0  0  0  0  0
  -28.3510  -12.8240   18.1970 C   0  0  0  0  0  2  0  0  0  0  0  0
  -28.0620  -13.7070   19.4380 C   0  0  0  0  0  3  0  0  0  0  0  0
  -29.1610  -13.5900   20.5180 C   0  0  0  0  0  2  0  0  0  0  0  0
  -30.4470  -13.9300   19.8890 N   0  0  0  0  0  0  0  0  0  0  0  0
  -32.2730  -15.1380   19.4230 O   0  0  0  0  0  0  0  0  0  0  0  0
  -25.7280  -14.3840   20.2460 C   0  0  0  0  0  0  0  0  0  0  0  0
  -24.6440  -13.6540   20.6520 C   0  0  0  0  0  0  0  0  0  0  0  0
  -25.0500  -12.2850   20.6090 C   0  0  0  0  0  0  0  0  0  0  0  0
  -26.7260  -13.4630   19.9760 N   0  0  0  0  0  0  0  0  0  0  0  0
  -26.3280  -12.1950   20.2590 N   0  0  0  0  0  0  0  0  0  0  0  0
  -24.2730  -11.0540   20.8230 C   0  0  0  0  0  0  0  0  0  0  0  0
  -24.6910  -10.0690   21.7430 C   0  0  0  0  0  3  0  0  0  0  0  0
  -23.9170   -8.9060   21.9460 C   0  0  0  0  0  3  0  0  0  0  0  0
  -22.7110   -8.7200   21.2300 C   0  0  0  0  0  0  0  0  0  0  0  0
  -22.3120   -9.6940   20.2990 C   0  0  0  0  0  3  0  0  0  0  0  0
  -23.0840  -10.8490   20.0940 C   0  0  0  0  0  3  0  0  0  0  0  0
  -21.9060   -7.6130   21.3470 O   0  0  0  0  0  0  0  0  0  0  0  0
  -21.8450   -6.8860   22.5090 C   0  0  0  0  0  0  0  0  0  0  0  0
  -21.4960   -7.4770   23.7430 C   0  0  0  0  0  3  0  0  0  0  0  0
  -21.3800   -6.6770   24.8990 C   0  0  0  0  0  3  0  0  0  0  0  0
  -21.6010   -5.2890   24.8210 C   0  0  0  0  0  0  0  0  0  0  0  0
  -21.9420   -4.6980   23.5910 C   0  0  0  0  0  3  0  0  0  0  0  0
  -22.0610   -5.4940   22.4390 C   0  0  0  0  0  0  0  0  0  0  0  0
  -22.3700   -4.9150   21.2530 F   0  0  0  0  0  0  0  0  0  0  0  0
  -21.4800   -4.5190   25.9290 F   0  0  0  0  0  0  0  0  0  0  0  0
  -23.2790  -14.1920   20.9650 C   0  0  0  0  0  0  0  0  0  0  0  0
  -22.5580  -13.5450   21.8750 N   0  0  0  0  0  0  0  0  0  0  0  0
  -22.8600  -15.2200   20.4350 O   0  0  0  0  0  0  0  0  0  0  0  0
  -22.9030  -12.7140   22.3310 H   0  0  0  0  0  0  0  0  0  0  0  0
  -21.6420  -13.8910   22.1210 H   0  0  0  0  0  0  0  0  0  0  0  0
  -25.9440  -15.7470   20.0600 N   0  0  0  0  0  0  0  0  0  0  0  0
  -25.2170  -16.4370   20.2110 H   0  0  0  0  0  0  0  0  0  0  0  0
  -26.8140  -16.1530   19.7370 H   0  0  0  0  0  0  0  0  0  0  0  0
  -29.8520  -17.7580   25.0130 C   0  0  0  0  0  1  0  0  0  0  0  0
  -30.9640  -18.2700   24.0890 C   0  0  0  0  0  2  0  0  0  0  0  0
  -28.8320  -21.8620   20.5250 C   0  0  0  0  0  2  0  0  0  0  0  0
  -28.9380  -23.4310   19.9810 C   0  0  0  0  0  0  0  0  0  0  0  0
  -29.7890  -23.6750   19.1220 O   0  0  0  0  0  0  0  0  0  0  0  0
  -28.0000  -24.6940   20.5150 C   0  0  0  0  0  2  0  0  0  0  0  0
  -28.3330  -26.2040   20.2710 O   0  0  0  0  0  0  0  0  0  0  0  0
  -24.5710  -31.8630   23.1640 C   0  0  0  0  0  0  0  0  0  0  0  0
  -27.2750  -27.1800   20.2060 C   0  0  0  0  0  0  0  0  0  0  0  0
  -23.4240  -30.4380   21.5140 C   0  0  0  0  0  3  0  0  0  0  0  0
  -24.9220  -28.8850   20.1200 C   0  0  0  0  0  0  0  0  0  0  0  0
  -25.9740  -30.7520   21.3840 C   0  0  0  0  0  2  0  0  0  0  0  0
  -26.0830  -29.3560   20.7460 C   0  0  0  0  0  0  0  0  0  0  0  0
  -27.2640  -28.5200   20.7720 C   0  0  0  0  0  3  0  0  0  0  0  0
  -26.0940  -26.8190   19.5240 C   0  0  0  0  0  3  0  0  0  0  0  0
  -24.9430  -27.6330   19.4890 C   0  0  0  0  0  3  0  0  0  0  0  0
  -23.6780  -29.7580   20.1420 C   0  0  0  0  0  2  0  0  0  0  0  0
  -24.6770  -31.0410   22.0750 N   0  0  0  0  0  0  0  0  0  0  0  0
  -23.4710  -32.1270   23.6730 O   0  0  0  0  0  0  0  0  0  0  0  0
  -22.7490  -29.4230   22.4690 C   0  0  0  0  0  0  0  0  0  0  0  0
  -21.4240  -29.2370   22.3320 N   0  0  0  0  0  0  0  0  0  0  0  0
  -23.4200  -28.8050   23.3000 O   0  0  0  0  0  0  0  0  0  0  0  0
  -20.9360  -29.7890   21.6390 H   0  0  0  0  0  0  0  0  0  0  0  0
  -18.0580  -27.9820   22.7890 C   0  0  0  0  0  0  0  0  0  0  0  0
  -20.6090  -28.2870   23.0930 C   0  0  0  0  0  3  0  0  0  0  0  0
  -20.7420  -26.8560   22.5240 C   0  0  0  0  0  2  0  0  0  0  0  0
  -19.6590  -26.5100   21.4970 C   0  0  0  0  0  2  0  0  0  0  0  0
  -18.2650  -26.6350   22.1190 C   0  0  0  0  0  2  0  0  0  0  0  0
  -19.1590  -28.7640   23.2320 C   0  0  0  0  0  0  0  0  0  0  0  0
  -18.9110  -30.0210   23.8230 C   0  0  0  0  0  3  0  0  0  0  0  0
  -17.5960  -30.5000   23.9730 C   0  0  0  0  0  3  0  0  0  0  0  0
  -16.5090  -29.7180   23.5430 C   0  0  0  0  0  3  0  0  0  0  0  0
  -16.7420  -28.4590   22.9600 C   0  0  0  0  0  3  0  0  0  0  0  0
  -25.8270  -32.5260   23.8090 C   0  0  0  0  0  3  0  0  0  0  0  0
  -25.4820  -33.9200   24.1330 N   0  0  0  0  0  0  0  0  0  0  0  0
  -25.8110  -34.9820   23.3840 C   0  0  0  0  0  0  0  0  0  0  0  0
  -26.5040  -34.8920   22.3690 O   0  0  0  0  0  0  0  0  0  0  0  0
  -24.8680  -34.0620   24.9210 H   0  0  0  0  0  0  0  0  0  0  0  0
  -24.0550  -36.7470   23.0070 C   0  0  0  0  0  1  0  0  0  0  0  0
  -25.2910  -36.3640   23.8340 C   0  0  0  0  0  3  0  0  0  0  0  0
  -27.4010  -37.2890   24.6880 C   0  0  0  0  0  1  0  0  0  0  0  0
  -26.3060  -37.4370   23.7330 N   0  0  0  0  0  0  0  0  0  0  0  0
  -25.8810  -38.3490   23.8740 H   0  0  0  0  0  0  0  0  0  0  0  0
  -26.3300  -31.7710   25.1010 C   0  0  1  0  0  0  0  0  0  0  0  0
  -25.2210  -31.5170   26.1500 C   0  0  0  0  0  1  0  0  0  0  0  0
  -26.9440  -30.4010   24.7310 C   0  0  0  0  0  1  0  0  0  0  0  0
  -27.4560  -32.5870   25.7790 C   0  0  0  0  0  1  0  0  0  0  0  0
  1  5  1  0
  1 47  1  0
  2  5  2  0
  2  4  1  0
  3  6  2  0
  4  7  2  0
  5  3  1  0
  6 46  1  0
  7  6  1  0
  7  8  1  0
  9  4  1  0
 10 15  1  0
 11 12  1  0
 11 10  1  0
 13 12  1  0
 13 20  1  0
 13 14  1  0
 15  9  1  0
 15 14  1  0
 16  9  2  0
 17 18  2  0
 18 37  1  0
 19 18  1  0
 19 22  1  0
 20 17  1  0
 20 21  1  0
 21 19  2  0
 22 23  1  0
 23 24  2  0
 25 28  1  0
 25 24  1  0
 26 25  2  0
 27 26  1  0
 27 22  2  0
 28 29  1  0
 29 30  1  0
 30 31  2  0
 32 31  1  0
 32 36  1  0
 33 32  2  0
 34 29  2  0
 34 33  1  0
 35 34  1  0
 37 38  1  0
 38 41  1  0
 38 40  1  0
 39 37  2  0
 42 43  1  0
 42 17  1  0
 44 42  1  0
 46 45  1  0
 48 50  1  0
 48 47  1  0
 49 48  2  0
 51 50  1  0
 52 63  2  0
 53 51  1  0
 53 58  1  0
 54 62  1  0
 54 64  1  0
 55 61  1  0
 55 57  1  0
 56 62  1  0
 57 58  2  0
 57 56  1  0
 59 53  2  0
 60 59  1  0
 60 55  2  0
 61 54  1  0
 62 52  1  0
 64 66  2  0
 65 64  1  0
 67 65  1  0
 68 77  2  0
 68 73  1  0
 69 65  1  0
 69 73  1  0
 70 69  1  0
 71 72  1  0
 71 70  1  0
 72 68  1  0
 73 74  2  0
 74 75  1  0
 76 75  2  0
 77 76  1  0
 78 52  1  0
 78 79  1  0
 78 88  1  0
 79 82  1  0
 80 84  1  0
 80 79  1  0
 81 80  2  0
 84 83  1  0
 86 84  1  0
 86 87  1  0
 86 85  1  0
 88 91  1  1
 88 89  1  0
 90 88  1  0
M  ISO  4   4 100   9 100  50 101  51 101
M  END
>  <TORSDO>  (45) 
F 21

>  <SCORE>  (45) 
-7.386

>  <name>  (45) 
45

>  <ligand_id>  (45) 
45

>  <original_smiles>  (45) 
[H]c1c([H])c([H])c2c(c1[H])C([H])([H])C([H])([H])C([H])([H])C2([H])N([H])C(=O)C1([H])N(C(=O)C([H])(N([H])C(=O)C([H])(N([H])C([H])([H])[H])C([H])([H])[H])C(C([H])([H])[H])(C([H])([H])[H])C([H])([H])[H])C([H])([H])c2c([H])c(OC([H])([H])C(=O)C([H])([H])C([H])([H])c3c([H])c(C(=O)N4C([H])([H])C([H])([H])C([H])([H])C([H])(n5nc(-c6c([H])c([H])c(Oc7c([H])c([H])c(F)c([H])c7F)c([H])c6[H])c(C(=O)N([H])[H])c5N([H])[H])C4([H])[H])c(C([H])([H])[H])c(C([H])([H])C([H])([H])[H])c3[H])c([H])c([H])c2C1([H])[H]

>  <smiles>  (45) 
[H]c1c([H])c([H])c2c(c1[H])C([H])([H])C([H])([H])C([H])([H])C2([H])N([H])C(=O)C1([H])N(C(=O)C([H])(N([H])C(=O)C([H])(N([H])C([H])([H])[H])C([H])([H])[H])C(C([H])([H])[H])(C([H])([H])[H])C([H])([H])[H])C([H])([H])c2c([H])c(OC([H])([H])C(=O)C([H])([H])C([H])([H])c3c([H])c(C(=O)N4C([H])([H])C([H])([H])C([H])([H])C([H])(n5nc(-c6c([H])c([H])c(Oc7c([H])c([H])c(F)c([H])c7F)c([H])c6[H])c(C(=O)N([H])[H])c5N([H])[H])C4([H])[H])c(C([H])([H])[H])c(C([H])([H])C([H])([H])[H])c3[H])c([H])c([H])c2C1([H])[H]

$$$$
46:0:0
     RDKit          3D

 90 99  0  0  1  0  0  0  0  0999 V2000
  -31.3830  -19.9900   22.2960 C   0  0  0  0  0  3  0  0  0  0  0  0
  -30.8630  -21.2880   22.1410 C   0  0  0  0  0  3  0  0  0  0  0  0
  -30.9110  -18.8840   21.5660 C   0  0  0  0  0  3  0  0  0  0  0  0
  -29.8360  -21.6030   21.2310 C   0  0  0  0  0  0  0  0  0  0  0  0
  -29.3410  -20.4520   20.4410 C   0  0  0  0  0  0  0  0  0  0  0  0
  -29.8760  -18.9340   20.6060 C   0  0  0  0  0  0  0  0  0  0  0  0
  -29.4290  -23.2370   21.2540 C   0  0  0  0  0  2  0  0  0  0  0  0
  -28.2260  -21.2050   19.5550 C   0  0  0  0  0  2  0  0  0  0  0  0
  -28.1840  -22.9050   19.3140 C   0  0  0  0  0  2  0  0  0  0  0  0
  -28.2050  -24.0760   20.4940 C   0  0  1  0  0  0  0  0  0  0  0  0
  -26.9370  -23.8920   21.3420 C   0  0  0  0  0  1  0  0  0  0  0  0
  -28.0700  -17.0450   20.3450 C   0  0  0  0  0  1  0  0  0  0  0  0
  -29.5520  -17.2530   20.0560 C   0  0  0  0  0  3  0  0  0  0  0  0
  -30.3820  -15.6030   20.1390 C   0  0  0  0  0  0  0  0  0  0  0  0
  -30.4540  -13.0750   19.3390 C   0  0  0  0  0  2  0  0  0  0  0  0
  -29.5480  -12.7380   18.1190 C   0  0  0  0  0  2  0  0  0  0  0  0
  -28.1150  -12.3970   18.5660 C   0  0  0  0  0  2  0  0  0  0  0  0
  -27.6170  -13.3910   19.6400 C   0  0  0  0  0  3  0  0  0  0  0  0
  -28.6550  -13.6700   20.7510 C   0  0  0  0  0  2  0  0  0  0  0  0
  -29.8650  -14.2440   20.1200 N   0  0  0  0  0  0  0  0  0  0  0  0
  -31.6140  -15.5480   19.9780 O   0  0  0  0  0  0  0  0  0  0  0  0
  -25.2540  -13.9270   20.4390 C   0  0  0  0  0  0  0  0  0  0  0  0
  -24.2030  -13.1460   20.8180 C   0  0  0  0  0  0  0  0  0  0  0  0
  -24.6820  -11.8010   20.7860 C   0  0  0  0  0  0  0  0  0  0  0  0
  -26.3020  -13.0610   20.1750 N   0  0  0  0  0  0  0  0  0  0  0  0
  -25.9720  -11.7740   20.4600 N   0  0  0  0  0  0  0  0  0  0  0  0
  -23.9630  -10.5370   20.9850 C   0  0  0  0  0  0  0  0  0  0  0  0
  -24.4060   -9.5750   21.9180 C   0  0  0  0  0  3  0  0  0  0  0  0
  -23.6810   -8.3790   22.1060 C   0  0  0  0  0  3  0  0  0  0  0  0
  -22.5020   -8.1360   21.3640 C   0  0  0  0  0  0  0  0  0  0  0  0
  -22.0800   -9.0880   20.4180 C   0  0  0  0  0  3  0  0  0  0  0  0
  -22.8040  -10.2750   20.2260 C   0  0  0  0  0  3  0  0  0  0  0  0
  -21.7510   -6.9910   21.4630 O   0  0  0  0  0  0  0  0  0  0  0  0
  -21.7110   -6.2500   22.6180 C   0  0  0  0  0  0  0  0  0  0  0  0
  -21.2930   -6.8090   23.8460 C   0  0  0  0  0  3  0  0  0  0  0  0
  -21.1990   -5.9950   24.9930 C   0  0  0  0  0  3  0  0  0  0  0  0
  -21.5180   -4.6270   24.9140 C   0  0  0  0  0  0  0  0  0  0  0  0
  -21.9300   -4.0680   23.6910 C   0  0  0  0  0  3  0  0  0  0  0  0
  -22.0240   -4.8780   22.5470 C   0  0  0  0  0  0  0  0  0  0  0  0
  -22.4010   -4.3310   21.3660 F   0  0  0  0  0  0  0  0  0  0  0  0
  -21.4210   -3.8430   26.0140 F   0  0  0  0  0  0  0  0  0  0  0  0
  -22.8050  -13.6180   21.0920 C   0  0  0  0  0  0  0  0  0  0  0  0
  -22.0880  -12.9290   21.9710 N   0  0  0  0  0  0  0  0  0  0  0  0
  -22.3590  -14.6340   20.5600 O   0  0  0  0  0  0  0  0  0  0  0  0
  -22.4640  -12.1130   22.4290 H   0  0  0  0  0  0  0  0  0  0  0  0
  -21.1460  -13.2220   22.1890 H   0  0  0  0  0  0  0  0  0  0  0  0
  -25.3880  -15.2980   20.2690 N   0  0  0  0  0  0  0  0  0  0  0  0
  -24.6260  -15.9440   20.4390 H   0  0  0  0  0  0  0  0  0  0  0  0
  -26.2510  -15.7620   20.0220 H   0  0  0  0  0  0  0  0  0  0  0  0
  -28.2650  -25.7870   20.3710 O   0  0  0  0  0  0  0  0  0  0  0  0
  -24.6640  -31.9050   23.2670 C   0  0  0  0  0  0  0  0  0  0  0  0
  -27.2340  -26.9090   20.3270 C   0  0  0  0  0  0  0  0  0  0  0  0
  -23.4820  -30.4930   21.6350 C   0  0  0  0  0  3  0  0  0  0  0  0
  -24.9380  -28.8510   20.2430 C   0  0  0  0  0  0  0  0  0  0  0  0
  -26.0550  -30.6740   21.5090 C   0  0  0  0  0  2  0  0  0  0  0  0
  -26.1260  -29.2450   20.8730 C   0  0  0  0  0  0  0  0  0  0  0  0
  -27.2610  -28.2990   20.8830 C   0  0  0  0  0  3  0  0  0  0  0  0
  -26.0160  -26.6980   19.6360 C   0  0  0  0  0  3  0  0  0  0  0  0
  -24.9140  -27.6000   19.6030 C   0  0  0  0  0  3  0  0  0  0  0  0
  -23.7250  -29.7870   20.2690 C   0  0  0  0  0  2  0  0  0  0  0  0
  -24.7570  -31.0550   22.1900 N   0  0  0  0  0  0  0  0  0  0  0  0
  -23.5680  -32.2040   23.7720 O   0  0  0  0  0  0  0  0  0  0  0  0
  -22.7710  -29.5170   22.6090 C   0  0  0  0  0  0  0  0  0  0  0  0
  -21.4400  -29.3570   22.4760 N   0  0  0  0  0  0  0  0  0  0  0  0
  -23.4240  -28.9010   23.4550 O   0  0  0  0  0  0  0  0  0  0  0  0
  -20.9630  -29.9070   21.7740 H   0  0  0  0  0  0  0  0  0  0  0  0
  -18.0510  -28.1450   22.9660 C   0  0  0  0  0  0  0  0  0  0  0  0
  -20.6080  -28.4260   23.2490 C   0  0  0  0  0  3  0  0  0  0  0  0
  -20.7200  -26.9860   22.6940 C   0  0  0  0  0  2  0  0  0  0  0  0
  -19.6290  -26.6480   21.6730 C   0  0  0  0  0  2  0  0  0  0  0  0
  -18.2410  -26.7910   22.3020 C   0  0  0  0  0  2  0  0  0  0  0  0
  -19.1620  -28.9200   23.3960 C   0  0  0  0  0  0  0  0  0  0  0  0
  -18.9280  -30.1830   23.9800 C   0  0  0  0  0  3  0  0  0  0  0  0
  -17.6160  -30.6730   24.1370 C   0  0  0  0  0  3  0  0  0  0  0  0
  -16.5220  -29.8960   23.7190 C   0  0  0  0  0  3  0  0  0  0  0  0
  -16.7390  -28.6340   23.1390 C   0  0  0  0  0  3  0  0  0  0  0  0
  -25.9260  -32.5550   23.9070 C   0  0  0  0  0  3  0  0  0  0  0  0
  -25.6080  -33.9600   24.2260 N   0  0  0  0  0  0  0  0  0  0  0  0
  -25.9320  -35.0150   23.4670 C   0  0  0  0  0  0  0  0  0  0  0  0
  -26.5930  -34.9070   22.4300 O   0  0  0  0  0  0  0  0  0  0  0  0
  -25.0220  -34.1160   25.0330 H   0  0  0  0  0  0  0  0  0  0  0  0
  -24.1900  -36.8080   23.1450 C   0  0  0  0  0  1  0  0  0  0  0  0
  -25.4520  -36.4080   23.9260 C   0  0  0  0  0  3  0  0  0  0  0  0
  -27.6020  -37.3170   24.6960 C   0  0  0  0  0  1  0  0  0  0  0  0
  -26.4770  -37.4650   23.7770 N   0  0  0  0  0  0  0  0  0  0  0  0
  -26.0700  -38.3860   23.9200 H   0  0  0  0  0  0  0  0  0  0  0  0
  -26.4110  -31.8080   25.2120 C   0  0  1  0  0  0  0  0  0  0  0  0
  -25.2930  -31.6030   26.2640 C   0  0  0  0  0  1  0  0  0  0  0  0
  -26.9930  -30.4190   24.8680 C   0  0  0  0  0  1  0  0  0  0  0  0
  -27.5540  -32.6090   25.8790 C   0  0  0  0  0  1  0  0  0  0  0  0
  2  1  1  0
  3  1  2  0
  4  7  1  0
  4  2  2  0
  5  6  2  0
  5  4  1  0
  6  3  1  0
  8  5  1  0
  9  8  1  0
  9 10  1  0
 10  7  1  0
 10 11  1  1
 13 14  1  0
 13 12  1  0
 13  6  1  0
 15 20  1  0
 16 17  1  0
 16 15  1  0
 18 17  1  0
 18 25  1  0
 18 19  1  0
 20 14  1  0
 20 19  1  0
 21 14  2  0
 22 23  2  0
 23 42  1  0
 24 23  1  0
 24 27  1  0
 25 22  1  0
 25 26  1  0
 26 24  2  0
 27 28  1  0
 28 29  2  0
 30 33  1  0
 30 29  1  0
 31 30  2  0
 32 31  1  0
 32 27  2  0
 33 34  1  0
 34 35  1  0
 35 36  2  0
 37 36  1  0
 37 41  1  0
 38 37  2  0
 39 34  2  0
 39 38  1  0
 40 39  1  0
 42 43  1  0
 43 46  1  0
 43 45  1  0
 44 42  2  0
 47 22  1  0
 47 48  1  0
 49 47  1  0
 50 10  1  0
 51 62  2  0
 52 50  1  0
 52 57  1  0
 53 61  1  0
 53 63  1  0
 54 60  1  0
 54 56  1  0
 55 61  1  0
 56 57  2  0
 56 55  1  0
 58 52  2  0
 59 58  1  0
 59 54  2  0
 60 53  1  0
 61 51  1  0
 63 65  2  0
 64 63  1  0
 66 64  1  0
 67 76  2  0
 67 72  1  0
 68 64  1  0
 68 72  1  0
 69 68  1  0
 70 71  1  0
 70 69  1  0
 71 67  1  0
 72 73  2  0
 73 74  1  0
 75 74  2  0
 76 75  1  0
 77 51  1  0
 77 78  1  0
 77 87  1  0
 78 81  1  0
 79 83  1  0
 79 78  1  0
 80 79  2  0
 83 82  1  0
 85 86  1  0
 85 83  1  0
 85 84  1  0
 87 90  1  1
 87 88  1  0
 89 87  1  0
M  ISO  4  10 101  13 100  14 100  50 101
M  END
>  <TORSDO>  (46) 
F 17

>  <SCORE>  (46) 
-17.230

>  <name>  (46) 
46

>  <ligand_id>  (46) 
46

>  <original_smiles>  (46) 
[H]c1c([H])c([H])c2c(c1[H])C([H])([H])C([H])([H])C([H])([H])C2([H])N([H])C(=O)C1([H])N(C(=O)C([H])(N([H])C(=O)C([H])(N([H])C([H])([H])[H])C([H])([H])[H])C(C([H])([H])[H])(C([H])([H])[H])C([H])([H])[H])C([H])([H])c2c([H])c(OC3(C([H])([H])[H])C([H])([H])c4c([H])c([H])c([H])c(C([H])(C(=O)N5C([H])([H])C([H])([H])C([H])([H])C([H])(n6nc(-c7c([H])c([H])c(Oc8c([H])c([H])c(F)c([H])c8F)c([H])c7[H])c(C(=O)N([H])[H])c6N([H])[H])C5([H])[H])C([H])([H])[H])c4C([H])([H])C3([H])[H])c([H])c([H])c2C1([H])[H]

>  <smiles>  (46) 
[H]c1c([H])c([H])c2c(c1[H])C([H])([H])C([H])([H])C([H])([H])C2([H])N([H])C(=O)C1([H])N(C(=O)C([H])(N([H])C(=O)C([H])(N([H])C([H])([H])[H])C([H])([H])[H])C(C([H])([H])[H])(C([H])([H])[H])C([H])([H])[H])C([H])([H])c2c([H])c(OC3(C([H])([H])[H])C([H])([H])c4c([H])c([H])c([H])c(C([H])(C(=O)N5C([H])([H])C([H])([H])C([H])([H])C([H])(n6nc(-c7c([H])c([H])c(Oc8c([H])c([H])c(F)c([H])c8F)c([H])c7[H])c(C(=O)N([H])[H])c6N([H])[H])C5([H])[H])C([H])([H])[H])c4C([H])([H])C3([H])[H])c([H])c([H])c2C1([H])[H]

$$$$
47:0:0
     RDKit          3D

 95104  0  0  1  0  0  0  0  0999 V2000
  -26.3060  -21.3270   17.9100 C   0  0  0  0  0  3  0  0  0  0  0  0
  -26.7030  -22.5950   17.4780 C   0  0  0  0  0  3  0  0  0  0  0  0
  -26.9360  -20.7120   19.0030 C   0  0  0  0  0  0  0  0  0  0  0  0
  -28.0580  -21.3180   19.6450 C   0  0  0  0  0  0  0  0  0  0  0  0
  -28.2370  -22.7530   19.3880 C   0  0  0  0  0  0  0  0  0  0  0  0
  -27.6340  -23.3330   18.2360 C   0  0  0  0  0  0  0  0  0  0  0  0
  -26.2600  -19.4450   19.5030 C   0  0  0  0  0  1  0  0  0  0  0  0
  -27.4210  -25.2240   16.7440 C   0  0  0  0  0  1  0  0  0  0  0  0
  -27.9830  -24.6280   17.9090 O   0  0  0  0  0  0  0  0  0  0  0  0
  -28.9230  -20.4120   20.6150 C   0  0  0  0  0  2  0  0  0  0  0  0
  -30.7620  -14.6630   20.1090 C   0  0  0  0  0  0  0  0  0  0  0  0
  -30.4650  -12.4230   19.0690 C   0  0  0  0  0  2  0  0  0  0  0  0
  -29.4810  -12.5410   17.8860 C   0  0  0  0  0  2  0  0  0  0  0  0
  -28.0270  -12.3870   18.3720 C   0  0  0  0  0  2  0  0  0  0  0  0
  -27.7130  -13.2590   19.6190 C   0  0  0  0  0  3  0  0  0  0  0  0
  -28.8170  -13.1460   20.6930 C   0  0  0  0  0  2  0  0  0  0  0  0
  -30.0950  -13.4660   20.0470 N   0  0  0  0  0  0  0  0  0  0  0  0
  -31.9400  -14.7420   19.7460 O   0  0  0  0  0  0  0  0  0  0  0  0
  -28.8200  -17.9170   19.3720 C   0  0  0  0  0  2  0  0  0  0  0  0
  -30.4280  -18.2520   21.2290 C   0  0  0  0  0  2  0  0  0  0  0  0
  -29.6450  -16.6160   19.0730 C   0  0  0  0  0  2  0  0  0  0  0  0
  -30.1610  -16.7010   21.4630 C   0  0  0  0  0  2  0  0  0  0  0  0
  -29.6150  -19.0200   20.1260 C   0  0  0  0  0  3  0  0  0  0  0  0
  -30.0180  -15.8200   20.2700 N   0  0  0  0  0  0  0  0  0  0  0  0
  -25.3600  -13.8590   20.4450 C   0  0  0  0  0  0  0  0  0  0  0  0
  -24.3020  -13.0860   20.8410 C   0  0  0  0  0  0  0  0  0  0  0  0
  -24.7550  -11.7320   20.7760 C   0  0  0  0  0  0  0  0  0  0  0  0
  -26.3880  -12.9750   20.1590 N   0  0  0  0  0  0  0  0  0  0  0  0
  -26.0330  -11.6910   20.4210 N   0  0  0  0  0  0  0  0  0  0  0  0
  -24.0290  -10.4720   20.9760 C   0  0  0  0  0  0  0  0  0  0  0  0
  -24.4710   -9.5020   21.9030 C   0  0  0  0  0  3  0  0  0  0  0  0
  -23.7450   -8.3070   22.0900 C   0  0  0  0  0  3  0  0  0  0  0  0
  -22.5610   -8.0730   21.3510 C   0  0  0  0  0  0  0  0  0  0  0  0
  -22.1370   -9.0310   20.4150 C   0  0  0  0  0  3  0  0  0  0  0  0
  -22.8640  -10.2170   20.2240 C   0  0  0  0  0  3  0  0  0  0  0  0
  -21.8040   -6.9300   21.4500 O   0  0  0  0  0  0  0  0  0  0  0  0
  -21.7420   -6.2050   22.6130 C   0  0  0  0  0  0  0  0  0  0  0  0
  -21.2910   -6.7740   23.8240 C   0  0  0  0  0  3  0  0  0  0  0  0
  -21.1780   -5.9740   24.9790 C   0  0  0  0  0  3  0  0  0  0  0  0
  -21.5070   -4.6070   24.9240 C   0  0  0  0  0  0  0  0  0  0  0  0
  -21.9540   -4.0380   23.7180 C   0  0  0  0  0  3  0  0  0  0  0  0
  -22.0680   -4.8350   22.5660 C   0  0  0  0  0  0  0  0  0  0  0  0
  -22.4770   -4.2770   21.4010 F   0  0  0  0  0  0  0  0  0  0  0  0
  -21.3930   -3.8370   26.0310 F   0  0  0  0  0  0  0  0  0  0  0  0
  -22.9190  -13.5680   21.1700 C   0  0  0  0  0  0  0  0  0  0  0  0
  -22.2200  -12.8630   22.0510 N   0  0  0  0  0  0  0  0  0  0  0  0
  -22.4690  -14.6040   20.6820 O   0  0  0  0  0  0  0  0  0  0  0  0
  -22.5980  -12.0250   22.4680 H   0  0  0  0  0  0  0  0  0  0  0  0
  -21.2930  -13.1670   22.3130 H   0  0  0  0  0  0  0  0  0  0  0  0
  -25.5280  -15.2310   20.2840 N   0  0  0  0  0  0  0  0  0  0  0  0
  -24.7830  -15.8960   20.4580 H   0  0  0  0  0  0  0  0  0  0  0  0
  -26.3890  -15.6650   19.9740 H   0  0  0  0  0  0  0  0  0  0  0  0
  -28.9680  -23.7950   20.3020 C   0  0  0  0  0  2  0  0  0  0  0  0
  -28.1370  -25.0980   20.7600 C   0  0  0  0  0  2  0  0  0  0  0  0
  -28.3680  -26.4680   20.2290 O   0  0  0  0  0  0  0  0  0  0  0  0
  -24.6010  -31.8630   23.2460 C   0  0  0  0  0  0  0  0  0  0  0  0
  -27.2590  -27.3270   20.2080 C   0  0  0  0  0  0  0  0  0  0  0  0
  -23.4180  -30.4630   21.5930 C   0  0  0  0  0  3  0  0  0  0  0  0
  -24.8870  -28.9230   20.1770 C   0  0  0  0  0  0  0  0  0  0  0  0
  -25.9560  -30.7970   21.4280 C   0  0  0  0  0  2  0  0  0  0  0  0
  -26.0500  -29.4210   20.7800 C   0  0  0  0  0  0  0  0  0  0  0  0
  -27.2430  -28.6360   20.7800 C   0  0  0  0  0  3  0  0  0  0  0  0
  -26.0750  -26.8810   19.5820 C   0  0  0  0  0  3  0  0  0  0  0  0
  -24.9010  -27.6570   19.5670 C   0  0  0  0  0  3  0  0  0  0  0  0
  -23.6460  -29.7920   20.2140 C   0  0  0  0  0  2  0  0  0  0  0  0
  -24.6770  -31.0590   22.1460 N   0  0  0  0  0  0  0  0  0  0  0  0
  -23.5120  -32.1340   23.7730 O   0  0  0  0  0  0  0  0  0  0  0  0
  -22.7520  -29.4410   22.5450 C   0  0  0  0  0  0  0  0  0  0  0  0
  -21.4250  -29.2750   22.4230 N   0  0  0  0  0  0  0  0  0  0  0  0
  -23.4310  -28.8010   23.3530 O   0  0  0  0  0  0  0  0  0  0  0  0
  -20.9380  -29.8410   21.7420 H   0  0  0  0  0  0  0  0  0  0  0  0
  -18.0380  -28.1100   22.9330 C   0  0  0  0  0  0  0  0  0  0  0  0
  -20.6020  -28.3360   23.1860 C   0  0  0  0  0  3  0  0  0  0  0  0
  -20.6820  -26.9120   22.5900 C   0  0  0  0  0  2  0  0  0  0  0  0
  -19.5680  -26.6160   21.5810 C   0  0  0  0  0  2  0  0  0  0  0  0
  -18.1930  -26.7680   22.2370 C   0  0  0  0  0  2  0  0  0  0  0  0
  -19.1690  -28.8530   23.3640 C   0  0  0  0  0  0  0  0  0  0  0  0
  -18.9690  -30.1110   23.9760 C   0  0  0  0  0  3  0  0  0  0  0  0
  -17.6710  -30.6230   24.1590 C   0  0  0  0  0  3  0  0  0  0  0  0
  -16.5550  -29.8770   23.7430 C   0  0  0  0  0  3  0  0  0  0  0  0
  -16.7390  -28.6220   23.1350 C   0  0  0  0  0  3  0  0  0  0  0  0
  -25.8760  -32.4990   23.8810 C   0  0  0  0  0  3  0  0  0  0  0  0
  -26.3770  -31.7340   25.1670 C   0  0  1  0  0  0  0  0  0  0  0  0
  -25.2720  -31.5000   26.2230 C   0  0  0  0  0  1  0  0  0  0  0  0
  -26.9660  -30.3540   24.7880 C   0  0  0  0  0  1  0  0  0  0  0  0
  -27.5190  -32.5300   25.8390 C   0  0  0  0  0  1  0  0  0  0  0  0
  -25.5610  -33.8980   24.2040 N   0  0  0  0  0  0  0  0  0  0  0  0
  -25.8950  -34.9480   23.4420 C   0  0  0  0  0  0  0  0  0  0  0  0
  -26.5700  -34.8420   22.4150 O   0  0  0  0  0  0  0  0  0  0  0  0
  -24.9630  -34.0540   25.0010 H   0  0  0  0  0  0  0  0  0  0  0  0
  -24.1640  -36.7350   23.0700 C   0  0  0  0  0  1  0  0  0  0  0  0
  -25.4010  -36.3380   23.8910 C   0  0  0  0  0  3  0  0  0  0  0  0
  -27.5260  -37.2320   24.7340 C   0  0  0  0  0  1  0  0  0  0  0  0
  -26.4320  -37.3920   23.7800 N   0  0  0  0  0  0  0  0  0  0  0  0
  -26.0220  -38.3130   23.9180 H   0  0  0  0  0  0  0  0  0  0  0  0
  1  3  1  0
  2  1  2  0
  2  6  1  0
  3  7  1  0
  3  4  2  0
  4 10  1  0
  5  4  1  0
  5 53  1  0
  6  5  2  0
  8  9  1  0
  9  6  1  0
 11 24  1  0
 12 17  1  0
 13 14  1  0
 13 12  1  0
 15 14  1  0
 15 28  1  0
 15 16  1  0
 17 11  1  0
 17 16  1  0
 18 11  2  0
 19 23  1  0
 20 22  1  0
 21 19  1  0
 21 24  1  0
 23 10  1  0
 23 20  1  0
 24 22  1  0
 25 26  2  0
 26 45  1  0
 27 26  1  0
 27 30  1  0
 28 29  1  0
 28 25  1  0
 29 27  2  0
 30 31  1  0
 31 32  2  0
 33 36  1  0
 33 32  1  0
 34 33  2  0
 35 34  1  0
 35 30  2  0
 36 37  1  0
 37 38  1  0
 38 39  2  0
 40 39  1  0
 40 44  1  0
 41 40  2  0
 42 37  2  0
 42 41  1  0
 43 42  1  0
 45 46  1  0
 46 49  1  0
 46 48  1  0
 47 45  2  0
 50 25  1  0
 50 51  1  0
 52 50  1  0
 53 54  1  0
 55 54  1  0
 56 67  2  0
 57 55  1  0
 57 62  1  0
 58 66  1  0
 58 68  1  0
 59 65  1  0
 59 61  1  0
 60 66  1  0
 61 62  2  0
 61 60  1  0
 63 57  2  0
 64 63  1  0
 64 59  2  0
 65 58  1  0
 66 56  1  0
 68 70  2  0
 69 68  1  0
 71 69  1  0
 72 81  2  0
 72 77  1  0
 73 69  1  0
 73 77  1  0
 74 73  1  0
 75 76  1  0
 75 74  1  0
 76 72  1  0
 77 78  2  0
 78 79  1  0
 80 79  2  0
 81 80  1  0
 82 56  1  0
 82 87  1  0
 82 83  1  0
 83 86  1  1
 83 84  1  0
 85 83  1  0
 87 90  1  0
 88 92  1  0
 88 87  1  0
 89 88  2  0
 92 91  1  0
 94 92  1  0
 94 95  1  0
 94 93  1  0
M  ISO  4  11 100  24 100  54 101  55 101
M  END
>  <TORSDO>  (47) 
F 20

>  <SCORE>  (47) 
-13.267

>  <name>  (47) 
47

>  <ligand_id>  (47) 
47

>  <original_smiles>  (47) 
[H]c1c([H])c([H])c2c(c1[H])C([H])([H])C([H])([H])C([H])([H])C2([H])N([H])C(=O)C1([H])N(C(=O)C([H])(N([H])C(=O)C([H])(N([H])C([H])([H])[H])C([H])([H])[H])C(C([H])([H])[H])(C([H])([H])[H])C([H])([H])[H])C([H])([H])c2c([H])c(OC([H])([H])C([H])([H])c3c(OC([H])([H])[H])c([H])c([H])c(C([H])([H])[H])c3C([H])([H])C3([H])C([H])([H])C([H])([H])N(C(=O)N4C([H])([H])C([H])([H])C([H])([H])C([H])(n5nc(-c6c([H])c([H])c(Oc7c([H])c([H])c(F)c([H])c7F)c([H])c6[H])c(C(=O)N([H])[H])c5N([H])[H])C4([H])[H])C([H])([H])C3([H])[H])c([H])c([H])c2C1([H])[H]

>  <smiles>  (47) 
[H]c1c([H])c([H])c2c(c1[H])C([H])([H])C([H])([H])C([H])([H])C2([H])N([H])C(=O)C1([H])N(C(=O)C([H])(N([H])C(=O)C([H])(N([H])C([H])([H])[H])C([H])([H])[H])C(C([H])([H])[H])(C([H])([H])[H])C([H])([H])[H])C([H])([H])c2c([H])c(OC([H])([H])C([H])([H])c3c(OC([H])([H])[H])c([H])c([H])c(C([H])([H])[H])c3C([H])([H])C3([H])C([H])([H])C([H])([H])N(C(=O)N4C([H])([H])C([H])([H])C([H])([H])C([H])(n5nc(-c6c([H])c([H])c(Oc7c([H])c([H])c(F)c([H])c7F)c([H])c6[H])c(C(=O)N([H])[H])c5N([H])[H])C4([H])[H])C([H])([H])C3([H])[H])c([H])c([H])c2C1([H])[H]

$$$$
48:0:0
     RDKit          3D

 87 93  0  0  1  0  0  0  0  0999 V2000
  -28.6840  -18.8310   20.8120 C   0  0  0  0  0  3  0  0  0  0  0  0
  -28.2950  -20.3610   20.8270 C   0  0  0  0  0  3  0  0  0  0  0  0
  -29.6040  -17.9680   19.9570 C   0  0  0  0  0  0  0  0  0  0  0  0
  -28.6880  -21.6120   20.0320 C   0  0  0  0  0  3  0  0  0  0  0  0
  -30.0140  -19.2150   19.1470 C   0  0  0  0  0  0  0  0  0  0  0  0
  -29.6220  -20.7570   19.1720 C   0  0  0  0  0  0  0  0  0  0  0  0
  -31.0070  -18.9010   18.0380 C   0  0  0  0  0  1  0  0  0  0  0  0
  -30.2140  -16.1780   19.9320 C   0  0  0  0  0  0  0  0  0  0  0  0
  -30.3810  -13.5230   19.2140 C   0  0  0  0  0  2  0  0  0  0  0  0
  -29.5070  -12.9620   18.0450 C   0  0  0  0  0  2  0  0  0  0  0  0
  -28.1250  -12.5270   18.5450 C   0  0  0  0  0  2  0  0  0  0  0  0
  -27.5850  -13.5450   19.5680 C   0  0  0  0  0  3  0  0  0  0  0  0
  -28.6120  -14.0320   20.6280 C   0  0  0  0  0  2  0  0  0  0  0  0
  -29.7220  -14.7490   19.9280 N   0  0  0  0  0  0  0  0  0  0  0  0
  -31.4400  -16.0000   19.7310 O   0  0  0  0  0  0  0  0  0  0  0  0
  -25.2680  -14.0150   20.4640 C   0  0  0  0  0  0  0  0  0  0  0  0
  -24.2310  -13.2180   20.8560 C   0  0  0  0  0  0  0  0  0  0  0  0
  -24.7070  -11.8730   20.7690 C   0  0  0  0  0  0  0  0  0  0  0  0
  -26.3050  -13.1600   20.1480 N   0  0  0  0  0  0  0  0  0  0  0  0
  -25.9870  -11.8600   20.3960 N   0  0  0  0  0  0  0  0  0  0  0  0
  -23.9890  -10.6030   20.9590 C   0  0  0  0  0  0  0  0  0  0  0  0
  -24.4240   -9.6380   21.8930 C   0  0  0  0  0  3  0  0  0  0  0  0
  -23.6990   -8.4400   22.0760 C   0  0  0  0  0  3  0  0  0  0  0  0
  -22.5260   -8.1960   21.3230 C   0  0  0  0  0  0  0  0  0  0  0  0
  -22.1110   -9.1490   20.3770 C   0  0  0  0  0  3  0  0  0  0  0  0
  -22.8360  -10.3380   20.1930 C   0  0  0  0  0  3  0  0  0  0  0  0
  -21.7740   -7.0490   21.4130 O   0  0  0  0  0  0  0  0  0  0  0  0
  -21.6770   -6.3410   22.5840 C   0  0  0  0  0  0  0  0  0  0  0  0
  -21.1340   -6.9120   23.7560 C   0  0  0  0  0  3  0  0  0  0  0  0
  -20.9880   -6.1290   24.9190 C   0  0  0  0  0  3  0  0  0  0  0  0
  -21.3750   -4.7750   24.9100 C   0  0  0  0  0  0  0  0  0  0  0  0
  -21.9100   -4.2030   23.7420 C   0  0  0  0  0  3  0  0  0  0  0  0
  -22.0570   -4.9830   22.5820 C   0  0  0  0  0  0  0  0  0  0  0  0
  -22.5540   -4.4210   21.4540 F   0  0  0  0  0  0  0  0  0  0  0  0
  -21.2280   -4.0210   26.0230 F   0  0  0  0  0  0  0  0  0  0  0  0
  -22.8450  -13.6830   21.1890 C   0  0  0  0  0  0  0  0  0  0  0  0
  -22.1590  -12.9790   22.0790 N   0  0  0  0  0  0  0  0  0  0  0  0
  -22.3810  -14.7100   20.6910 O   0  0  0  0  0  0  0  0  0  0  0  0
  -22.5540  -12.1500   22.5020 H   0  0  0  0  0  0  0  0  0  0  0  0
  -21.2290  -13.2690   22.3440 H   0  0  0  0  0  0  0  0  0  0  0  0
  -25.4160  -15.3910   20.3150 N   0  0  0  0  0  0  0  0  0  0  0  0
  -24.6530  -16.0410   20.4770 H   0  0  0  0  0  0  0  0  0  0  0  0
  -26.2510  -15.8430   19.9650 H   0  0  0  0  0  0  0  0  0  0  0  0
  -31.0160  -22.5760   18.5550 C   0  0  0  0  0  1  0  0  0  0  0  0
  -30.2180  -21.4670   18.1540 O   0  0  0  0  0  0  0  0  0  0  0  0
  -27.9160  -23.4590   19.9420 C   0  0  0  0  0 15  0  0  0  0  0  0
  -28.1260  -25.3150   20.1300 O   0  0  0  0  0  1  0  0  0  0  0  0
  -24.7060  -31.8650   23.1800 C   0  0  0  0  0  0  0  0  0  0  0  0
  -27.1930  -26.6440   20.1050 C   0  0  0  0  0  0  0  0  0  0  0  0
  -23.5100  -30.4850   21.5390 C   0  0  0  0  0  3  0  0  0  0  0  0
  -24.9460  -28.8210   20.0940 C   0  0  0  0  0  0  0  0  0  0  0  0
  -26.0980  -30.5700   21.4140 C   0  0  0  0  0  2  0  0  0  0  0  0
  -26.1530  -29.1240   20.7340 C   0  0  0  0  0  0  0  0  0  0  0  0
  -27.2490  -28.0730   20.7020 C   0  0  0  0  0  3  0  0  0  0  0  0
  -25.9510  -26.6160   19.4050 C   0  0  0  0  0  3  0  0  0  0  0  0
  -24.8980  -27.5960   19.4010 C   0  0  0  0  0  3  0  0  0  0  0  0
  -23.7480  -29.7960   20.1600 C   0  0  0  0  0  2  0  0  0  0  0  0
  -24.7990  -31.0130   22.0960 N   0  0  0  0  0  0  0  0  0  0  0  0
  -23.6130  -32.1630   23.6980 O   0  0  0  0  0  0  0  0  0  0  0  0
  -22.7880  -29.5090   22.5090 C   0  0  0  0  0  0  0  0  0  0  0  0
  -21.4590  -29.3330   22.3720 N   0  0  0  0  0  0  0  0  0  0  0  0
  -23.4410  -28.9070   23.3640 O   0  0  0  0  0  0  0  0  0  0  0  0
  -20.9780  -29.8700   21.6640 H   0  0  0  0  0  0  0  0  0  0  0  0
  -18.0930  -28.0350   22.8570 C   0  0  0  0  0  0  0  0  0  0  0  0
  -20.6430  -28.3790   23.1380 C   0  0  0  0  0  3  0  0  0  0  0  0
  -20.7880  -26.9470   22.5710 C   0  0  0  0  0  2  0  0  0  0  0  0
  -19.7060  -26.5910   21.5460 C   0  0  0  0  0  2  0  0  0  0  0  0
  -18.3140  -26.6940   22.1780 C   0  0  0  0  0  2  0  0  0  0  0  0
  -19.1850  -28.8330   23.2920 C   0  0  0  0  0  0  0  0  0  0  0  0
  -18.9180  -30.0820   23.8950 C   0  0  0  0  0  3  0  0  0  0  0  0
  -17.5960  -30.5350   24.0610 C   0  0  0  0  0  3  0  0  0  0  0  0
  -16.5200  -29.7360   23.6360 C   0  0  0  0  0  3  0  0  0  0  0  0
  -16.7690  -28.4880   23.0410 C   0  0  0  0  0  3  0  0  0  0  0  0
  -25.9640  -32.5210   23.8260 C   0  0  0  0  0  3  0  0  0  0  0  0
  -25.6360  -33.9180   24.1800 N   0  0  0  0  0  0  0  0  0  0  0  0
  -25.9350  -34.9990   23.4440 C   0  0  0  0  0  0  0  0  0  0  0  0
  -26.5670  -34.9230   22.3880 O   0  0  0  0  0  0  0  0  0  0  0  0
  -25.0660  -34.0490   25.0030 H   0  0  0  0  0  0  0  0  0  0  0  0
  -24.1770  -36.7940   23.2210 C   0  0  0  0  0  1  0  0  0  0  0  0
  -25.4640  -36.3790   23.9530 C   0  0  0  0  0  3  0  0  0  0  0  0
  -27.6250  -37.2870   24.6940 C   0  0  0  0  0  1  0  0  0  0  0  0
  -26.4790  -37.4460   23.8030 N   0  0  0  0  0  0  0  0  0  0  0  0
  -26.0680  -38.3600   23.9730 H   0  0  0  0  0  0  0  0  0  0  0  0
  -26.4640  -31.7550   25.1150 C   0  0  1  0  0  0  0  0  0  0  0  0
  -25.3590  -31.5220   26.1730 C   0  0  0  0  0  1  0  0  0  0  0  0
  -27.0520  -30.3740   24.7530 C   0  0  0  0  0  1  0  0  0  0  0  0
  -27.6090  -32.5520   25.7850 C   0  0  0  0  0  1  0  0  0  0  0  0
  1  2  1  0
  3  1  2  0
  4  2  2  0
  5  6  2  0
  5  3  1  0
  6  4  1  0
  7  5  1  0
  8  3  1  0
  9 14  1  0
 10 11  1  0
 10  9  1  0
 12 11  1  0
 12 19  1  0
 12 13  1  0
 14  8  1  0
 14 13  1  0
 15  8  2  0
 16 17  2  0
 17 36  1  0
 18 17  1  0
 18 21  1  0
 19 20  1  0
 19 16  1  0
 20 18  2  0
 21 22  1  0
 22 23  2  0
 24 27  1  0
 24 23  1  0
 25 24  2  0
 26 25  1  0
 26 21  2  0
 27 28  1  0
 28 29  1  0
 29 30  2  0
 31 30  1  0
 31 35  1  0
 32 31  2  0
 33 28  2  0
 33 32  1  0
 34 33  1  0
 36 37  1  0
 37 40  1  0
 37 39  1  0
 38 36  2  0
 41 16  1  0
 41 42  1  0
 43 41  1  0
 45 44  1  0
 45  6  1  0
 48 59  2  0
 49 47  1  0
 49 54  1  0
 50 58  1  0
 50 60  1  0
 51 57  1  0
 51 53  1  0
 52 58  1  0
 53 52  1  0
 54 53  2  0
 55 49  2  0
 56 55  1  0
 56 51  2  0
 57 50  1  0
 58 48  1  0
 60 62  2  0
 61 60  1  0
 63 61  1  0
 64 73  2  0
 64 69  1  0
 65 61  1  0
 65 69  1  0
 66 65  1  0
 67 68  1  0
 67 66  1  0
 68 64  1  0
 69 70  2  0
 70 71  1  0
 72 71  2  0
 73 72  1  0
 74 48  1  0
 74 75  1  0
 74 84  1  0
 75 78  1  0
 76 80  1  0
 76 75  1  0
 77 76  2  0
 80 79  1  0
 82 80  1  0
 82 83  1  0
 82 81  1  0
 84 87  1  1
 84 85  1  0
 86 84  1  0
M  ISO  4   3 100   8 100  46 101  47 101
M  END
>  <TORSDO>  (48) 
F 18

>  <SCORE>  (48) 
-15.742

>  <name>  (48) 
48

>  <ligand_id>  (48) 
48

>  <original_smiles>  (48) 
[H]c1c([H])c([H])c2c(c1[H])C([H])([H])C([H])([H])C([H])([H])C2([H])N([H])C(=O)C1([H])N(C(=O)C([H])(N([H])C(=O)C([H])(N([H])C([H])([H])[H])C([H])([H])[H])C(C([H])([H])[H])(C([H])([H])[H])C([H])([H])[H])C([H])([H])c2c([H])c(OC([H])([H])c3c([H])c([H])c(C(=O)N4C([H])([H])C([H])([H])C([H])([H])C([H])(n5nc(-c6c([H])c([H])c(Oc7c([H])c([H])c(F)c([H])c7F)c([H])c6[H])c(C(=O)N([H])[H])c5N([H])[H])C4([H])[H])c(C([H])([H])[H])c3OC([H])([H])[H])c([H])c([H])c2C1([H])[H]

>  <smiles>  (48) 
[H]c1c([H])c([H])c2c(c1[H])C([H])([H])C([H])([H])C([H])([H])C2([H])N([H])C(=O)C1([H])N(C(=O)C([H])(N([H])C(=O)C([H])(N([H])C([H])([H])[H])C([H])([H])[H])C(C([H])([H])[H])(C([H])([H])[H])C([H])([H])[H])C([H])([H])c2c([H])c(OC([H])([H])c3c([H])c([H])c(C(=O)N4C([H])([H])C([H])([H])C([H])([H])C([H])(n5nc(-c6c([H])c([H])c(Oc7c([H])c([H])c(F)c([H])c7F)c([H])c6[H])c(C(=O)N([H])[H])c5N([H])[H])C4([H])[H])c(C([H])([H])[H])c3OC([H])([H])[H])c([H])c([H])c2C1([H])[H]

$$$$
49:0:0
     RDKit          3D

 89 97  0  0  1  0  0  0  0  0999 V2000
  -28.5490  -21.4510   21.0970 C   0  0  0  0  0  3  0  0  0  0  0  0
  -28.2020  -22.9420   21.1900 C   0  0  0  0  0  3  0  0  0  0  0  0
  -28.9520  -23.2530   19.1240 C   0  0  0  0  0  3  0  0  0  0  0  0
  -29.1640  -20.6530   19.9960 C   0  0  0  0  0  0  0  0  0  0  0  0
  -28.3410  -24.0560   20.2050 C   0  0  0  0  0  0  0  0  0  0  0  0
  -29.3100  -21.7800   19.0220 C   0  0  0  0  0  0  0  0  0  0  0  0
  -29.7610  -18.9430   19.7310 C   0  0  0  0  0  0  0  0  0  0  0  0
  -30.4670  -18.9130   18.7190 O   0  0  0  0  0  0  0  0  0  0  0  0
  -29.8420  -17.3530   21.8950 C   0  0  0  0  0  1  0  0  0  0  0  0
  -29.6670  -17.2300   20.3730 C   0  0  0  0  0  3  0  0  0  0  0  0
  -30.4280  -15.6000   19.9260 C   0  0  0  0  0  0  0  0  0  0  0  0
  -30.4300  -13.1060   18.9930 C   0  0  0  0  0  2  0  0  0  0  0  0
  -29.4400  -12.8360   17.8220 C   0  0  0  0  0  2  0  0  0  0  0  0
  -28.0360  -12.5020   18.3510 C   0  0  0  0  0  2  0  0  0  0  0  0
  -27.6350  -13.4470   19.5060 C   0  0  0  0  0  3  0  0  0  0  0  0
  -28.7470  -13.6440   20.5600 C   0  0  0  0  0  2  0  0  0  0  0  0
  -29.9120  -14.2400   19.8730 N   0  0  0  0  0  0  0  0  0  0  0  0
  -31.6200  -15.5560   19.5670 O   0  0  0  0  0  0  0  0  0  0  0  0
  -25.3330  -13.9690   20.4510 C   0  0  0  0  0  0  0  0  0  0  0  0
  -24.2960  -13.1820   20.8660 C   0  0  0  0  0  0  0  0  0  0  0  0
  -24.7560  -11.8320   20.7600 C   0  0  0  0  0  0  0  0  0  0  0  0
  -26.3510  -13.1020   20.1040 N   0  0  0  0  0  0  0  0  0  0  0  0
  -26.0240  -11.8070   20.3570 N   0  0  0  0  0  0  0  0  0  0  0  0
  -24.0370  -10.5670   20.9600 C   0  0  0  0  0  0  0  0  0  0  0  0
  -24.4930   -9.5920   21.8740 C   0  0  0  0  0  3  0  0  0  0  0  0
  -23.7680   -8.3950   22.0650 C   0  0  0  0  0  3  0  0  0  0  0  0
  -22.5730   -8.1640   21.3410 C   0  0  0  0  0  0  0  0  0  0  0  0
  -22.1370   -9.1290   20.4160 C   0  0  0  0  0  3  0  0  0  0  0  0
  -22.8610  -10.3170   20.2240 C   0  0  0  0  0  3  0  0  0  0  0  0
  -21.8190   -7.0210   21.4420 O   0  0  0  0  0  0  0  0  0  0  0  0
  -21.7620   -6.2960   22.6060 C   0  0  0  0  0  0  0  0  0  0  0  0
  -21.3040   -6.8630   23.8150 C   0  0  0  0  0  3  0  0  0  0  0  0
  -21.1950   -6.0640   24.9710 C   0  0  0  0  0  3  0  0  0  0  0  0
  -21.5330   -4.6990   24.9180 C   0  0  0  0  0  0  0  0  0  0  0  0
  -21.9840   -4.1300   23.7140 C   0  0  0  0  0  3  0  0  0  0  0  0
  -22.0940   -4.9260   22.5600 C   0  0  0  0  0  0  0  0  0  0  0  0
  -22.5090   -4.3690   21.3960 F   0  0  0  0  0  0  0  0  0  0  0  0
  -21.4210   -3.9290   26.0260 F   0  0  0  0  0  0  0  0  0  0  0  0
  -22.9240  -13.6550   21.2420 C   0  0  0  0  0  0  0  0  0  0  0  0
  -22.2560  -12.9440   22.1420 N   0  0  0  0  0  0  0  0  0  0  0  0
  -22.4550  -14.6920   20.7710 O   0  0  0  0  0  0  0  0  0  0  0  0
  -22.6500  -12.1060   22.5420 H   0  0  0  0  0  0  0  0  0  0  0  0
  -21.3370  -13.2420   22.4380 H   0  0  0  0  0  0  0  0  0  0  0  0
  -25.4890  -15.3460   20.3070 N   0  0  0  0  0  0  0  0  0  0  0  0
  -24.7340  -15.9970   20.4960 H   0  0  0  0  0  0  0  0  0  0  0  0
  -26.3130  -15.7930   19.9280 H   0  0  0  0  0  0  0  0  0  0  0  0
  -29.8860  -21.4640   17.8250 O   0  0  0  0  0  0  0  0  0  0  0  0
  -30.2110  -20.5630   17.8130 H   0  0  0  0  0  0  0  0  0  0  0  0
  -28.2520  -25.6520   20.3170 O   0  0  0  0  0  0  0  0  0  0  0  0
  -24.6580  -31.8510   23.1720 C   0  0  0  0  0  0  0  0  0  0  0  0
  -27.2180  -26.7870   20.2690 C   0  0  0  0  0  0  0  0  0  0  0  0
  -23.4750  -30.4220   21.5570 C   0  0  0  0  0  3  0  0  0  0  0  0
  -24.9300  -28.7640   20.1720 C   0  0  0  0  0  0  0  0  0  0  0  0
  -26.0490  -30.5910   21.4290 C   0  0  0  0  0  2  0  0  0  0  0  0
  -26.1190  -29.1520   20.8010 C   0  0  0  0  0  0  0  0  0  0  0  0
  -27.2460  -28.1870   20.8210 C   0  0  0  0  0  3  0  0  0  0  0  0
  -25.9980  -26.5920   19.5760 C   0  0  0  0  0  3  0  0  0  0  0  0
  -24.9030  -27.5100   19.5370 C   0  0  0  0  0  3  0  0  0  0  0  0
  -23.7160  -29.7040   20.1970 C   0  0  0  0  0  2  0  0  0  0  0  0
  -24.7500  -30.9870   22.1050 N   0  0  0  0  0  0  0  0  0  0  0  0
  -23.5650  -32.1530   23.6810 O   0  0  0  0  0  0  0  0  0  0  0  0
  -22.7680  -29.4540   22.5420 C   0  0  0  0  0  0  0  0  0  0  0  0
  -21.4380  -29.2880   22.4170 N   0  0  0  0  0  0  0  0  0  0  0  0
  -23.4280  -28.8480   23.3900 O   0  0  0  0  0  0  0  0  0  0  0  0
  -20.9570  -29.8250   21.7100 H   0  0  0  0  0  0  0  0  0  0  0  0
  -18.0610  -28.0560   22.9300 C   0  0  0  0  0  0  0  0  0  0  0  0
  -20.6160  -28.3610   23.2050 C   0  0  0  0  0  3  0  0  0  0  0  0
  -20.7380  -26.9170   22.6650 C   0  0  0  0  0  2  0  0  0  0  0  0
  -19.6480  -26.5570   21.6500 C   0  0  0  0  0  2  0  0  0  0  0  0
  -18.2600  -26.6970   22.2800 C   0  0  0  0  0  2  0  0  0  0  0  0
  -19.1660  -28.8440   23.3490 C   0  0  0  0  0  0  0  0  0  0  0  0
  -18.9230  -30.1130   23.9210 C   0  0  0  0  0  3  0  0  0  0  0  0
  -17.6090  -30.5940   24.0740 C   0  0  0  0  0  3  0  0  0  0  0  0
  -16.5190  -29.8050   23.6690 C   0  0  0  0  0  3  0  0  0  0  0  0
  -16.7460  -28.5370   23.1030 C   0  0  0  0  0  3  0  0  0  0  0  0
  -25.9210  -32.5160   23.8000 C   0  0  0  0  0  3  0  0  0  0  0  0
  -26.4380  -31.7620   25.0890 C   0  0  1  0  0  0  0  0  0  0  0  0
  -25.3430  -31.5250   26.1570 C   0  0  0  0  0  1  0  0  0  0  0  0
  -27.0350  -30.3850   24.7240 C   0  0  0  0  0  1  0  0  0  0  0  0
  -27.5800  -32.5720   25.7480 C   0  0  0  0  0  1  0  0  0  0  0  0
  -25.5850  -33.9120   24.1390 N   0  0  0  0  0  0  0  0  0  0  0  0
  -25.9060  -34.9830   23.4020 C   0  0  0  0  0  0  0  0  0  0  0  0
  -26.5750  -34.9000   22.3690 O   0  0  0  0  0  0  0  0  0  0  0  0
  -24.9870  -34.0480   24.9410 H   0  0  0  0  0  0  0  0  0  0  0  0
  -24.1670  -36.7780   23.0810 C   0  0  0  0  0  1  0  0  0  0  0  0
  -25.4120  -36.3640   23.8830 C   0  0  0  0  0  3  0  0  0  0  0  0
  -27.5350  -37.2610   24.7300 C   0  0  0  0  0  1  0  0  0  0  0  0
  -26.4380  -37.4270   23.7830 N   0  0  0  0  0  0  0  0  0  0  0  0
  -26.0250  -38.3440   23.9320 H   0  0  0  0  0  0  0  0  0  0  0  0
  1  2  1  0
  3  5  1  0
  4  1  2  0
  5 49  1  0
  5  2  2  0
  6  3  2  0
  6  4  1  0
  7  4  1  0
  7 10  1  0
  8  7  2  0
 10  9  1  0
 11 10  1  0
 12 17  1  0
 13 14  1  0
 13 12  1  0
 15 14  1  0
 15 22  1  0
 15 16  1  0
 17 11  1  0
 17 16  1  0
 18 11  2  0
 19 20  2  0
 20 39  1  0
 21 20  1  0
 21 24  1  0
 22 23  1  0
 22 19  1  0
 23 21  2  0
 24 25  1  0
 25 26  2  0
 27 30  1  0
 27 26  1  0
 28 27  2  0
 29 28  1  0
 29 24  2  0
 30 31  1  0
 31 32  1  0
 32 33  2  0
 34 33  1  0
 34 38  1  0
 35 34  2  0
 36 31  2  0
 36 35  1  0
 37 36  1  0
 39 40  1  0
 40 43  1  0
 40 42  1  0
 41 39  2  0
 44 19  1  0
 44 45  1  0
 46 44  1  0
 47  6  1  0
 48 47  1  0
 50 61  2  0
 51 49  1  0
 51 56  1  0
 52 60  1  0
 52 62  1  0
 53 59  1  0
 53 55  1  0
 54 60  1  0
 55 56  2  0
 55 54  1  0
 57 51  2  0
 58 57  1  0
 58 53  2  0
 59 52  1  0
 60 50  1  0
 62 64  2  0
 63 62  1  0
 65 63  1  0
 66 75  2  0
 66 71  1  0
 67 63  1  0
 67 71  1  0
 68 67  1  0
 69 70  1  0
 69 68  1  0
 70 66  1  0
 71 72  2  0
 72 73  1  0
 74 73  2  0
 75 74  1  0
 76 50  1  0
 76 81  1  0
 76 77  1  0
 77 80  1  1
 77 78  1  0
 79 77  1  0
 81 84  1  0
 82 86  1  0
 82 81  1  0
 83 82  2  0
 86 85  1  0
 88 86  1  0
 88 89  1  0
 88 87  1  0
M  ISO  4   5 101  10 100  11 100  49 101
M  END
>  <TORSDO>  (49) 
F 19

>  <SCORE>  (49) 
-15.448

>  <name>  (49) 
49

>  <ligand_id>  (49) 
49

>  <original_smiles>  (49) 
[H]Oc1c([H])c(Oc2c([H])c([H])c3c(c2[H])C([H])([H])N(C(=O)C([H])(N([H])C(=O)C([H])(N([H])C([H])([H])[H])C([H])([H])[H])C(C([H])([H])[H])(C([H])([H])[H])C([H])([H])[H])C([H])(C(=O)N([H])C2([H])c4c([H])c([H])c([H])c([H])c4C([H])([H])C([H])([H])C2([H])[H])C3([H])[H])c([H])c([H])c1C(=O)C([H])(C(=O)N1C([H])([H])C([H])([H])C([H])([H])C([H])(n2nc(-c3c([H])c([H])c(Oc4c([H])c([H])c(F)c([H])c4F)c([H])c3[H])c(C(=O)N([H])[H])c2N([H])[H])C1([H])[H])C([H])([H])[H]

>  <smiles>  (49) 
[H]Oc1c([H])c(Oc2c([H])c([H])c3c(c2[H])C([H])([H])N(C(=O)C([H])(N([H])C(=O)C([H])(N([H])C([H])([H])[H])C([H])([H])[H])C(C([H])([H])[H])(C([H])([H])[H])C([H])([H])[H])C([H])(C(=O)N([H])C2([H])c4c([H])c([H])c([H])c([H])c4C([H])([H])C([H])([H])C2([H])[H])C3([H])[H])c([H])c([H])c1C(=O)C([H])(C(=O)N1C([H])([H])C([H])([H])C([H])([H])C([H])(n2nc(-c3c([H])c([H])c(Oc4c([H])c([H])c(F)c([H])c4F)c([H])c3[H])c(C(=O)N([H])[H])c2N([H])[H])C1([H])[H])C([H])([H])[H]

$$$$
50:0:0
     RDKit          3D

 90 98  0  0  1  0  0  0  0  0999 V2000
  -28.3400  -18.4830   19.8540 C   0  0  0  0  0  3  0  0  0  0  0  0
  -27.4210  -19.5530   19.7270 C   0  0  0  0  0  3  0  0  0  0  0  0
  -30.0620  -20.1640   19.7480 C   0  0  0  0  0  3  0  0  0  0  0  0
  -29.7330  -18.6620   19.9320 C   0  0  0  0  0  0  0  0  0  0  0  0
  -29.1160  -21.3650   19.5080 C   0  0  0  0  0  0  0  0  0  0  0  0
  -27.7740  -20.9280   19.5910 C   0  0  0  0  0  0  0  0  0  0  0  0
  -29.8990  -16.9790   21.9050 C   0  0  0  0  0  1  0  0  0  0  0  0
  -31.9610  -17.8350   20.9640 C   0  0  0  0  0  1  0  0  0  0  0  0
  -30.5870  -17.2610   20.5380 C   0  0  2  0  0  0  0  0  0  0  0  0
  -31.0090  -15.6640   19.8730 C   0  0  0  0  0  0  0  0  0  0  0  0
  -30.9400  -13.1590   19.1150 C   0  0  0  0  0  2  0  0  0  0  0  0
  -30.0160  -12.8890   17.8990 C   0  0  0  0  0  2  0  0  0  0  0  0
  -28.5720  -12.6300   18.3550 C   0  0  0  0  0  2  0  0  0  0  0  0
  -28.1400  -13.6500   19.4380 C   0  0  0  0  0  3  0  0  0  0  0  0
  -29.1940  -13.8600   20.5490 C   0  0  0  0  0  2  0  0  0  0  0  0
  -30.4300  -14.3500   19.9090 N   0  0  0  0  0  0  0  0  0  0  0  0
  -32.1210  -15.6100   19.3200 O   0  0  0  0  0  0  0  0  0  0  0  0
  -25.8410  -14.2590   20.3560 C   0  0  0  0  0  0  0  0  0  0  0  0
  -24.7690  -13.5060   20.7490 C   0  0  0  0  0  0  0  0  0  0  0  0
  -25.1700  -12.1430   20.6040 C   0  0  0  0  0  0  0  0  0  0  0  0
  -26.8230  -13.3570   19.9900 N   0  0  0  0  0  0  0  0  0  0  0  0
  -26.4350  -12.0710   20.2010 N   0  0  0  0  0  0  0  0  0  0  0  0
  -24.3960  -10.9050   20.7730 C   0  0  0  0  0  0  0  0  0  0  0  0
  -24.8020   -9.8970   21.6750 C   0  0  0  0  0  3  0  0  0  0  0  0
  -24.0300   -8.7230   21.8310 C   0  0  0  0  0  3  0  0  0  0  0  0
  -22.8370   -8.5560   21.0870 C   0  0  0  0  0  0  0  0  0  0  0  0
  -22.4550   -9.5500   20.1690 C   0  0  0  0  0  3  0  0  0  0  0  0
  -23.2250  -10.7140   20.0130 C   0  0  0  0  0  3  0  0  0  0  0  0
  -22.0410   -7.4370   21.1500 O   0  0  0  0  0  0  0  0  0  0  0  0
  -21.9160   -6.7080   22.3060 C   0  0  0  0  0  0  0  0  0  0  0  0
  -21.4300   -7.2840   23.5010 C   0  0  0  0  0  3  0  0  0  0  0  0
  -21.2500   -6.4810   24.6460 C   0  0  0  0  0  3  0  0  0  0  0  0
  -21.5490   -5.1070   24.5950 C   0  0  0  0  0  0  0  0  0  0  0  0
  -22.0260   -4.5310   23.4050 C   0  0  0  0  0  3  0  0  0  0  0  0
  -22.2080   -5.3300   22.2640 C   0  0  0  0  0  0  0  0  0  0  0  0
  -22.6490   -4.7660   21.1120 F   0  0  0  0  0  0  0  0  0  0  0  0
  -21.3700   -4.3350   25.6930 F   0  0  0  0  0  0  0  0  0  0  0  0
  -23.4200  -14.0280   21.1400 C   0  0  0  0  0  0  0  0  0  0  0  0
  -22.7210  -13.3140   22.0160 N   0  0  0  0  0  0  0  0  0  0  0  0
  -22.9950  -15.0970   20.7080 O   0  0  0  0  0  0  0  0  0  0  0  0
  -23.0830  -12.4460   22.3850 H   0  0  0  0  0  0  0  0  0  0  0  0
  -21.8150  -13.6390   22.3200 H   0  0  0  0  0  0  0  0  0  0  0  0
  -26.0550  -15.6280   20.2560 N   0  0  0  0  0  0  0  0  0  0  0  0
  -25.3310  -16.3040   20.4710 H   0  0  0  0  0  0  0  0  0  0  0  0
  -26.8880  -16.0500   19.8680 H   0  0  0  0  0  0  0  0  0  0  0  0
  -26.0340  -21.9220   20.8040 C   0  0  0  0  0  1  0  0  0  0  0  0
  -26.7940  -21.8860   19.6010 O   0  0  0  0  0  0  0  0  0  0  0  0
  -29.3670  -23.0870   19.2780 C   0  0  0  0  0  3  0  0  0  0  0  0
  -28.2620  -24.5150   19.0810 C   0  0  0  0  0  3  0  0  0  0  0  0
  -28.4040  -26.1600   19.2360 O   0  0  0  0  0  0  0  0  0  0  0  0
  -24.6590  -31.5090   22.9900 C   0  0  0  0  0  0  0  0  0  0  0  0
  -27.3300  -27.1980   19.3070 C   0  0  0  0  0  0  0  0  0  0  0  0
  -23.4700  -30.2840   21.2170 C   0  0  0  0  0  3  0  0  0  0  0  0
  -24.9400  -28.9550   19.5500 C   0  0  0  0  0  0  0  0  0  0  0  0
  -26.0140  -30.6460   21.0220 C   0  0  0  0  0  2  0  0  0  0  0  0
  -26.1290  -29.3400   20.1820 C   0  0  0  0  0  0  0  0  0  0  0  0
  -27.3150  -28.4900   20.0300 C   0  0  0  0  0  3  0  0  0  0  0  0
  -26.1030  -26.9680   18.6390 C   0  0  0  0  0  3  0  0  0  0  0  0
  -24.9510  -27.7960   18.7560 C   0  0  0  0  0  3  0  0  0  0  0  0
  -23.6810  -29.7970   19.7570 C   0  0  0  0  0  2  0  0  0  0  0  0
  -24.7370  -30.8340   21.7990 N   0  0  0  0  0  0  0  0  0  0  0  0
  -23.5780  -31.6730   23.5780 O   0  0  0  0  0  0  0  0  0  0  0  0
  -22.8580  -29.1370   22.0620 C   0  0  0  0  0  0  0  0  0  0  0  0
  -21.5270  -28.9520   21.9850 N   0  0  0  0  0  0  0  0  0  0  0  0
  -23.5870  -28.4190   22.7530 O   0  0  0  0  0  0  0  0  0  0  0  0
  -20.9920  -29.5790   21.3990 H   0  0  0  0  0  0  0  0  0  0  0  0
  -18.2050  -27.5990   22.5310 C   0  0  0  0  0  0  0  0  0  0  0  0
  -20.7730  -27.8860   22.6540 C   0  0  0  0  0  3  0  0  0  0  0  0
  -20.8540  -26.5650   21.8560 C   0  0  0  0  0  2  0  0  0  0  0  0
  -19.6860  -26.3770   20.8820 C   0  0  0  0  0  2  0  0  0  0  0  0
  -18.3510  -26.3830   21.6340 C   0  0  0  0  0  2  0  0  0  0  0  0
  -19.3400  -28.3160   22.9970 C   0  0  0  0  0  0  0  0  0  0  0  0
  -19.1440  -29.4570   23.8030 C   0  0  0  0  0  3  0  0  0  0  0  0
  -17.8460  -29.8880   24.1400 C   0  0  0  0  0  3  0  0  0  0  0  0
  -16.7270  -29.1680   23.6880 C   0  0  0  0  0  3  0  0  0  0  0  0
  -16.9080  -28.0230   22.8900 C   0  0  0  0  0  3  0  0  0  0  0  0
  -25.9220  -32.1240   23.6640 C   0  0  0  0  0  3  0  0  0  0  0  0
  -26.4350  -31.2860   24.8990 C   0  0  1  0  0  0  0  0  0  0  0  0
  -25.3360  -30.9840   25.9470 C   0  0  0  0  0  1  0  0  0  0  0  0
  -27.0240  -29.9310   24.4430 C   0  0  0  0  0  1  0  0  0  0  0  0
  -27.5850  -32.0450   25.6050 C   0  0  0  0  0  1  0  0  0  0  0  0
  -25.5900  -33.4970   24.0870 N   0  0  0  0  0  0  0  0  0  0  0  0
  -25.8980  -34.6060   23.4010 C   0  0  0  0  0  0  0  0  0  0  0  0
  -26.5540  -34.5840   22.3580 O   0  0  0  0  0  0  0  0  0  0  0  0
  -25.0010  -33.5840   24.9020 H   0  0  0  0  0  0  0  0  0  0  0  0
  -24.1430  -36.3980   23.2010 C   0  0  0  0  0  1  0  0  0  0  0  0
  -25.4030  -35.9560   23.9610 C   0  0  0  0  0  3  0  0  0  0  0  0
  -27.5360  -36.8160   24.8250 C   0  0  0  0  0  1  0  0  0  0  0  0
  -26.4230  -37.0280   23.9030 N   0  0  0  0  0  0  0  0  0  0  0  0
  -26.0080  -37.9320   24.1130 H   0  0  0  0  0  0  0  0  0  0  0  0
  1  4  1  0
  2  1  2  0
  3  4  2  0
  4  9  1  0
  5  6  2  0
  5  3  1  0
  6 47  1  0
  6  2  1  0
  9  8  1  1
  9  7  1  0
 10 16  1  0
 10  9  1  0
 11 16  1  0
 12 13  1  0
 12 11  1  0
 14 13  1  0
 14 21  1  0
 14 15  1  0
 16 15  1  0
 17 10  2  0
 18 19  2  0
 19 38  1  0
 20 19  1  0
 20 23  1  0
 21 22  1  0
 21 18  1  0
 22 20  2  0
 23 24  1  0
 24 25  2  0
 26 29  1  0
 26 25  1  0
 27 26  2  0
 28 27  1  0
 28 23  2  0
 29 30  1  0
 30 31  1  0
 31 32  2  0
 33 32  1  0
 33 37  1  0
 34 33  2  0
 35 30  2  0
 35 34  1  0
 36 35  1  0
 38 39  1  0
 39 42  1  0
 39 41  1  0
 40 38  2  0
 43 18  1  0
 43 44  1  0
 45 43  1  0
 47 46  1  0
 48  5  1  0
 49 50  1  0
 49 48  2  0
 50 52  1  0
 51 62  2  0
 52 57  1  0
 53 61  1  0
 53 63  1  0
 54 60  1  0
 54 56  1  0
 55 61  1  0
 56 55  1  0
 57 56  2  0
 58 59  1  0
 58 52  2  0
 59 54  2  0
 60 53  1  0
 61 51  1  0
 63 65  2  0
 64 63  1  0
 66 64  1  0
 67 76  2  0
 67 72  1  0
 68 64  1  0
 68 72  1  0
 69 68  1  0
 70 71  1  0
 70 69  1  0
 71 67  1  0
 72 73  2  0
 73 74  1  0
 75 74  2  0
 76 75  1  0
 77 51  1  0
 77 82  1  0
 77 78  1  0
 78 81  1  1
 78 79  1  0
 80 78  1  0
 82 85  1  0
 83 87  1  0
 83 82  1  0
 84 83  2  0
 87 86  1  0
 89 87  1  0
 89 90  1  0
 89 88  1  0
M  ISO  4   9 100  10 100  49 101  50 101
M  END
>  <TORSDO>  (50) 
F 20

>  <SCORE>  (50) 
-12.529

>  <name>  (50) 
50

>  <ligand_id>  (50) 
50

>  <original_smiles>  (50) 
[H]c1c([H])c([H])c2c(c1[H])C([H])([H])C([H])([H])C([H])([H])C2([H])N([H])C(=O)C1([H])N(C(=O)C([H])(N([H])C(=O)C([H])(N([H])C([H])([H])[H])C([H])([H])[H])C(C([H])([H])[H])(C([H])([H])[H])C([H])([H])[H])C([H])([H])c2c([H])c(OC([H])([H])C([H])([H])c3c([H])c(C(C(=O)N4C([H])([H])C([H])([H])C([H])([H])C([H])(n5nc(-c6c([H])c([H])c(Oc7c([H])c([H])c(F)c([H])c7F)c([H])c6[H])c(C(=O)N([H])[H])c5N([H])[H])C4([H])[H])(C([H])([H])[H])C([H])([H])[H])c([H])c([H])c3OC([H])([H])[H])c([H])c([H])c2C1([H])[H]

>  <smiles>  (50) 
[H]c1c([H])c([H])c2c(c1[H])C([H])([H])C([H])([H])C([H])([H])C2([H])N([H])C(=O)C1([H])N(C(=O)C([H])(N([H])C(=O)C([H])(N([H])C([H])([H])[H])C([H])([H])[H])C(C([H])([H])[H])(C([H])([H])[H])C([H])([H])[H])C([H])([H])c2c([H])c(OC([H])([H])C([H])([H])c3c([H])c(C(C(=O)N4C([H])([H])C([H])([H])C([H])([H])C([H])(n5nc(-c6c([H])c([H])c(Oc7c([H])c([H])c(F)c([H])c7F)c([H])c6[H])c(C(=O)N([H])[H])c5N([H])[H])C4([H])[H])(C([H])([H])[H])C([H])([H])[H])c([H])c([H])c3OC([H])([H])[H])c([H])c([H])c2C1([H])[H]

$$$$
51:0:0
     RDKit          3D

 95103  0  0  1  0  0  0  0  0999 V2000
  -27.6660  -21.6900   21.6150 C   0  0  0  0  0  3  0  0  0  0  0  0
  -29.5840  -21.7880   20.1220 C   0  0  0  0  0  3  0  0  0  0  0  0
  -27.6700  -23.0950   21.7120 C   0  0  0  0  0  3  0  0  0  0  0  0
  -29.5950  -23.1960   20.2280 C   0  0  0  0  0  3  0  0  0  0  0  0
  -28.6170  -21.0260   20.8130 C   0  0  0  0  0  0  0  0  0  0  0  0
  -28.6260  -23.8650   21.0130 C   0  0  0  0  0  0  0  0  0  0  0  0
  -28.5470  -19.5090   20.6660 C   0  0  0  0  0  2  0  0  0  0  0  0
  -29.6900  -18.7240   21.3490 C   0  0  0  0  0  2  0  0  0  0  0  0
  -30.4830  -17.8270   20.3830 C   0  0  0  0  0  2  0  0  0  0  0  0
  -31.3820  -16.7890   21.0830 C   0  0  0  0  0  2  0  0  0  0  0  0
  -32.5290  -14.7010   20.3530 C   0  0  0  0  0  0  0  0  0  0  0  0
  -32.1840  -12.3410   19.7720 C   0  0  0  0  0  2  0  0  0  0  0  0
  -31.3320  -12.2760   18.4860 C   0  0  0  0  0  2  0  0  0  0  0  0
  -29.8280  -12.3090   18.8260 C   0  0  0  0  0  2  0  0  0  0  0  0
  -29.4580  -13.4450   19.8160 C   0  0  0  0  0  3  0  0  0  0  0  0
  -30.4310  -13.4670   21.0180 C   0  0  0  0  0  2  0  0  0  0  0  0
  -31.7980  -13.5640   20.4860 N   0  0  0  0  0  0  0  0  0  0  0  0
  -33.7120  -14.7100   20.0110 O   0  0  0  0  0  0  0  0  0  0  0  0
  -31.8130  -15.8020   20.0990 N   0  0  0  0  0  0  0  0  0  0  0  0
  -32.2210  -16.2770   19.3070 H   0  0  0  0  0  0  0  0  0  0  0  0
  -27.1340  -14.3560   20.4440 C   0  0  0  0  0  0  0  0  0  0  0  0
  -25.9630  -13.7260   20.7720 C   0  0  0  0  0  0  0  0  0  0  0  0
  -26.2490  -12.3270   20.7530 C   0  0  0  0  0  0  0  0  0  0  0  0
  -28.0660  -13.3480   20.2480 N   0  0  0  0  0  0  0  0  0  0  0  0
  -27.5340  -12.1220   20.4900 N   0  0  0  0  0  0  0  0  0  0  0  0
  -25.3630  -11.1680   20.9120 C   0  0  0  0  0  0  0  0  0  0  0  0
  -25.5620  -10.2210   21.9410 C   0  0  0  0  0  3  0  0  0  0  0  0
  -24.6860   -9.1240   22.0840 C   0  0  0  0  0  3  0  0  0  0  0  0
  -23.5950   -8.9680   21.1970 C   0  0  0  0  0  0  0  0  0  0  0  0
  -23.4130   -9.9000   20.1610 C   0  0  0  0  0  3  0  0  0  0  0  0
  -24.2890  -10.9890   20.0170 C   0  0  0  0  0  3  0  0  0  0  0  0
  -22.7060   -7.9210   21.2450 O   0  0  0  0  0  0  0  0  0  0  0  0
  -22.3230   -7.3550   22.4350 C   0  0  0  0  0  0  0  0  0  0  0  0
  -21.7120   -8.1130   23.4570 C   0  0  0  0  0  3  0  0  0  0  0  0
  -21.2710   -7.4790   24.6370 C   0  0  0  0  0  3  0  0  0  0  0  0
  -21.4300   -6.0890   24.7910 C   0  0  0  0  0  0  0  0  0  0  0  0
  -22.0340   -5.3310   23.7710 C   0  0  0  0  0  3  0  0  0  0  0  0
  -22.4760   -5.9630   22.5960 C   0  0  0  0  0  0  0  0  0  0  0  0
  -23.0380   -5.2260   21.6080 F   0  0  0  0  0  0  0  0  0  0  0  0
  -21.0000   -5.4780   25.9190 F   0  0  0  0  0  0  0  0  0  0  0  0
  -24.6300  -14.3780   21.0000 C   0  0  0  0  0  0  0  0  0  0  0  0
  -23.8060  -13.8030   21.8690 N   0  0  0  0  0  0  0  0  0  0  0  0
  -24.3310  -15.4320   20.4410 O   0  0  0  0  0  0  0  0  0  0  0  0
  -24.0630  -12.9520   22.3460 H   0  0  0  0  0  0  0  0  0  0  0  0
  -22.9100  -14.2250   22.0650 H   0  0  0  0  0  0  0  0  0  0  0  0
  -27.4780  -15.6930   20.2760 N   0  0  0  0  0  0  0  0  0  0  0  0
  -26.8030  -16.4440   20.3640 H   0  0  0  0  0  0  0  0  0  0  0  0
  -28.3970  -16.0120   19.9970 H   0  0  0  0  0  0  0  0  0  0  0  0
  -28.5830  -25.3910   21.1510 C   0  0  0  0  0  3  0  0  0  0  0  0
  -29.2820  -25.7900   22.3860 N   0  0  0  0  0  4  0  0  0  0  0  0
  -30.2500  -25.5230   22.3540 H   0  0  0  0  0  0  0  0  0  0  0  0
  -28.8600  -25.3530   23.1850 H   0  0  0  0  0  0  0  0  0  0  0  0
  -29.2310  -26.7870   22.5050 H   0  0  0  0  0  0  0  0  0  0  0  0
  -29.1330  -26.1810   19.9370 C   0  0  0  0  0  2  0  0  0  0  0  0
  -29.0610  -27.5920   20.1920 O   0  0  0  0  0  0  0  0  0  0  0  0
  -24.8970  -32.0530   23.8330 C   0  0  0  0  0  0  0  0  0  0  0  0
  -27.8250  -28.2060   20.2560 C   0  0  0  0  0  0  0  0  0  0  0  0
  -23.7930  -30.8280   21.9890 C   0  0  0  0  0  3  0  0  0  0  0  0
  -25.3490  -29.5670   20.4140 C   0  0  0  0  0  0  0  0  0  0  0  0
  -26.2990  -31.3370   21.9010 C   0  0  0  0  0  2  0  0  0  0  0  0
  -26.4660  -30.0690   21.0900 C   0  0  0  0  0  0  0  0  0  0  0  0
  -27.7060  -29.3980   21.0060 C   0  0  0  0  0  3  0  0  0  0  0  0
  -26.6830  -27.7140   19.5800 C   0  0  0  0  0  3  0  0  0  0  0  0
  -25.4520  -28.3880   19.6590 C   0  0  0  0  0  3  0  0  0  0  0  0
  -24.0620  -30.3500   20.5380 C   0  0  0  0  0  2  0  0  0  0  0  0
  -25.0130  -31.4130   22.6350 N   0  0  0  0  0  0  0  0  0  0  0  0
  -23.7930  -32.1970   24.3770 O   0  0  0  0  0  0  0  0  0  0  0  0
  -23.1800  -29.6550   22.7880 C   0  0  0  0  0  0  0  0  0  0  0  0
  -21.8970  -29.3610   22.5270 N   0  0  0  0  0  0  0  0  0  0  0  0
  -23.8600  -29.0170   23.5960 O   0  0  0  0  0  0  0  0  0  0  0  0
  -21.4070  -29.9360   21.8550 H   0  0  0  0  0  0  0  0  0  0  0  0
  -18.6670  -27.7430   22.5250 C   0  0  0  0  0  0  0  0  0  0  0  0
  -21.1230  -28.2770   23.1290 C   0  0  0  0  0  3  0  0  0  0  0  0
  -21.4710  -26.9180   22.4810 C   0  0  0  0  0  2  0  0  0  0  0  0
  -20.5440  -26.5480   21.3200 C   0  0  0  0  0  2  0  0  0  0  0  0
  -19.0890  -26.4790   21.7940 C   0  0  0  0  0  2  0  0  0  0  0  0
  -19.6230  -28.5950   23.1380 C   0  0  0  0  0  0  0  0  0  0  0  0
  -19.1810  -29.7750   23.7740 C   0  0  0  0  0  3  0  0  0  0  0  0
  -17.8130  -30.1070   23.8050 C   0  0  0  0  0  3  0  0  0  0  0  0
  -16.8690  -29.2520   23.2110 C   0  0  0  0  0  3  0  0  0  0  0  0
  -17.2960  -28.0710   22.5770 C   0  0  0  0  0  3  0  0  0  0  0  0
  -26.1380  -32.6560   24.5620 C   0  0  0  0  0  3  0  0  0  0  0  0
  -26.5610  -31.8400   25.8450 C   0  0  1  0  0  0  0  0  0  0  0  0
  -25.3850  -31.5310   26.8010 C   0  0  0  0  0  1  0  0  0  0  0  0
  -27.2130  -30.4960   25.4460 C   0  0  0  0  0  1  0  0  0  0  0  0
  -27.6280  -32.6310   26.6400 C   0  0  0  0  0  1  0  0  0  0  0  0
  -25.8140  -34.0450   24.9110 N   0  0  0  0  0  0  0  0  0  0  0  0
  -26.2160  -35.1170   24.2160 C   0  0  0  0  0  0  0  0  0  0  0  0
  -26.9710  -35.0380   23.2410 O   0  0  0  0  0  0  0  0  0  0  0  0
  -25.1550  -34.1810   25.6630 H   0  0  0  0  0  0  0  0  0  0  0  0
  -24.5420  -36.9380   23.7660 C   0  0  0  0  0  1  0  0  0  0  0  0
  -25.7020  -36.4950   24.6720 C   0  0  0  0  0  3  0  0  0  0  0  0
  -27.7680  -37.3190   25.7110 C   0  0  0  0  0  1  0  0  0  0  0  0
  -26.7490  -37.5390   24.6880 N   0  0  0  0  0  0  0  0  0  0  0  0
  -26.3400  -38.4570   24.8400 H   0  0  0  0  0  0  0  0  0  0  0  0
  1  3  1  0
  2  4  2  0
  2  5  1  0
  4  6  1  0
  5  1  2  0
  6 49  1  0
  6  3  2  0
  7  5  1  0
  7  8  1  0
  9 10  1  0
  9  8  1  0
 11 17  1  0
 12 17  1  0
 13 14  1  0
 13 12  1  0
 15 14  1  0
 15 24  1  0
 15 16  1  0
 17 16  1  0
 18 11  2  0
 19 11  1  0
 19 10  1  0
 20 19  1  0
 21 22  2  0
 22 41  1  0
 23 22  1  0
 23 26  1  0
 24 21  1  0
 24 25  1  0
 25 23  2  0
 26 27  1  0
 27 28  2  0
 29 32  1  0
 29 28  1  0
 30 29  2  0
 31 30  1  0
 31 26  2  0
 32 33  1  0
 33 38  2  0
 33 34  1  0
 34 35  2  0
 35 36  1  0
 36 40  1  0
 37 36  2  0
 38 37  1  0
 39 38  1  0
 41 42  1  0
 42 45  1  0
 42 44  1  0
 43 41  2  0
 46 47  1  0
 46 21  1  0
 48 46  1  0
 49 54  1  0
 49 50  1  0
 50 53  1  0
 50 52  1  0
 51 50  1  0
 54 55  1  0
 55 57  1  0
 56 67  2  0
 57 62  1  0
 58 66  1  0
 58 68  1  0
 59 65  1  0
 59 61  1  0
 60 66  1  0
 61 60  1  0
 62 61  2  0
 63 64  1  0
 63 57  2  0
 64 59  2  0
 65 58  1  0
 66 56  1  0
 68 70  2  0
 69 68  1  0
 71 69  1  0
 72 81  2  0
 72 77  1  0
 73 69  1  0
 73 77  1  0
 74 73  1  0
 75 76  1  0
 75 74  1  0
 76 72  1  0
 77 78  2  0
 78 79  1  0
 80 79  2  0
 81 80  1  0
 82 56  1  0
 82 87  1  0
 82 83  1  0
 83 86  1  1
 83 84  1  0
 85 83  1  0
 87 90  1  0
 88 92  1  0
 88 87  1  0
 89 88  2  0
 92 91  1  0
 92 94  1  0
 94 95  1  0
 94 93  1  0
M  ISO  4  11 100  19 100  54 101  55 101
M  END
>  <TORSDO>  (51) 
F 23

>  <SCORE>  (51) 
-9.342

>  <name>  (51) 
51

>  <ligand_id>  (51) 
51

>  <original_smiles>  (51) 
[H]c1c([H])c([H])c2c(c1[H])C([H])([H])C([H])([H])C([H])([H])C2([H])N([H])C(=O)C1([H])N(C(=O)C([H])(N([H])C(=O)C([H])(N([H])C([H])([H])[H])C([H])([H])[H])C(C([H])([H])[H])(C([H])([H])[H])C([H])([H])[H])C([H])([H])c2c([H])c(OC([H])([H])C([H])(c3c([H])c([H])c(C([H])([H])C([H])([H])C([H])([H])C([H])([H])N([H])C(=O)N4C([H])([H])C([H])([H])C([H])([H])C([H])(n5nc(-c6c([H])c([H])c(Oc7c([H])c([H])c(F)c([H])c7F)c([H])c6[H])c(C(=O)N([H])[H])c5N([H])[H])C4([H])[H])c([H])c3[H])[N+]([H])([H])[H])c([H])c([H])c2C1([H])[H]

>  <smiles>  (51) 
[H]c1c([H])c([H])c2c(c1[H])C([H])([H])C([H])([H])C([H])([H])C2([H])N([H])C(=O)C1([H])N(C(=O)C([H])(N([H])C(=O)C([H])(N([H])C([H])([H])[H])C([H])([H])[H])C(C([H])([H])[H])(C([H])([H])[H])C([H])([H])[H])C([H])([H])c2c([H])c(OC([H])([H])C([H])(c3c([H])c([H])c(C([H])([H])C([H])([H])C([H])([H])C([H])([H])N([H])C(=O)N4C([H])([H])C([H])([H])C([H])([H])C([H])(n5nc(-c6c([H])c([H])c(Oc7c([H])c([H])c(F)c([H])c7F)c([H])c6[H])c(C(=O)N([H])[H])c5N([H])[H])C4([H])[H])c([H])c3[H])[N+]([H])([H])[H])c([H])c([H])c2C1([H])[H]

$$$$
52:0:0
     RDKit          3D

 99108  0  0  1  0  0  0  0  0999 V2000
  -29.4290  -21.3090   20.8300 C   0  0  0  0  0  0  0  0  0  0  0  0
  -29.8210  -20.0990   20.2620 N   0  0  0  0  0  0  0  0  0  0  0  0
  -29.2830  -21.3700   22.0530 O   0  0  0  0  0  0  0  0  0  0  0  0
  -30.0210  -20.2050   19.2710 H   0  0  0  0  0  0  0  0  0  0  0  0
  -28.5000  -24.9570   18.4070 C   0  0  0  0  0  3  0  0  0  0  0  0
  -28.8430  -23.7300   17.8060 C   0  0  0  0  0  3  0  0  0  0  0  0
  -28.7850  -23.9060   20.5650 C   0  0  0  0  0  3  0  0  0  0  0  0
  -29.1320  -22.6040   19.9810 C   0  0  0  0  0  0  0  0  0  0  0  0
  -28.4900  -25.1180   19.8040 C   0  0  0  0  0  0  0  0  0  0  0  0
  -29.2100  -22.5830   18.5570 C   0  0  0  0  0  0  0  0  0  0  0  0
  -30.3460  -21.6190   16.6820 C   0  0  0  0  0  1  0  0  0  0  0  0
  -29.6560  -21.4430   17.9200 O   0  0  0  0  0  0  0  0  0  0  0  0
  -28.3580  -26.4510   20.3160 O   0  0  0  0  0  0  0  0  0  0  0  0
  -24.6040  -31.9250   23.2380 C   0  0  0  0  0  0  0  0  0  0  0  0
  -27.2330  -27.3100   20.2070 C   0  0  0  0  0  0  0  0  0  0  0  0
  -23.4050  -30.5170   21.6000 C   0  0  0  0  0  3  0  0  0  0  0  0
  -24.8620  -28.9480   20.1810 C   0  0  0  0  0  0  0  0  0  0  0  0
  -25.9480  -30.8170   21.4320 C   0  0  0  0  0  2  0  0  0  0  0  0
  -26.0260  -29.4320   20.7880 C   0  0  0  0  0  0  0  0  0  0  0  0
  -27.2070  -28.6220   20.7950 C   0  0  0  0  0  3  0  0  0  0  0  0
  -26.0460  -26.8930   19.5650 C   0  0  0  0  0  3  0  0  0  0  0  0
  -24.8780  -27.6890   19.5600 C   0  0  0  0  0  3  0  0  0  0  0  0
  -23.6260  -29.8270   20.2240 C   0  0  0  0  0  2  0  0  0  0  0  0
  -24.6690  -31.1080   22.1450 N   0  0  0  0  0  0  0  0  0  0  0  0
  -23.5190  -32.2050   23.7710 O   0  0  0  0  0  0  0  0  0  0  0  0
  -22.7360  -29.5110   22.5680 C   0  0  0  0  0  0  0  0  0  0  0  0
  -21.4100  -29.3350   22.4410 N   0  0  0  0  0  0  0  0  0  0  0  0
  -23.4100  -28.8920   23.3950 O   0  0  0  0  0  0  0  0  0  0  0  0
  -20.9210  -29.8950   21.7570 H   0  0  0  0  0  0  0  0  0  0  0  0
  -18.0340  -28.1220   22.9270 C   0  0  0  0  0  0  0  0  0  0  0  0
  -20.5900  -28.3990   23.2120 C   0  0  0  0  0  3  0  0  0  0  0  0
  -20.7010  -26.9630   22.6480 C   0  0  0  0  0  2  0  0  0  0  0  0
  -19.6070  -26.6260   21.6280 C   0  0  0  0  0  2  0  0  0  0  0  0
  -18.2220  -26.7690   22.2630 C   0  0  0  0  0  2  0  0  0  0  0  0
  -19.1450  -28.8940   23.3590 C   0  0  0  0  0  0  0  0  0  0  0  0
  -18.9160  -30.1590   23.9410 C   0  0  0  0  0  3  0  0  0  0  0  0
  -17.6080  -30.6530   24.0980 C   0  0  0  0  0  3  0  0  0  0  0  0
  -16.5100  -29.8800   23.6810 C   0  0  0  0  0  3  0  0  0  0  0  0
  -16.7240  -28.6170   23.1030 C   0  0  0  0  0  3  0  0  0  0  0  0
  -25.8820  -32.5620   23.8630 C   0  0  0  0  0  3  0  0  0  0  0  0
  -26.3910  -31.7980   25.1480 C   0  0  1  0  0  0  0  0  0  0  0  0
  -25.2950  -31.5680   26.2140 C   0  0  0  0  0  1  0  0  0  0  0  0
  -26.9740  -30.4170   24.7690 C   0  0  0  0  0  1  0  0  0  0  0  0
  -27.5410  -32.5940   25.8090 C   0  0  0  0  0  1  0  0  0  0  0  0
  -25.5700  -33.9630   24.1870 N   0  0  0  0  0  0  0  0  0  0  0  0
  -25.9110  -35.0160   23.4320 C   0  0  0  0  0  0  0  0  0  0  0  0
  -26.5860  -34.9090   22.4040 O   0  0  0  0  0  0  0  0  0  0  0  0
  -24.9630  -34.1170   24.9790 H   0  0  0  0  0  0  0  0  0  0  0  0
  -24.1890  -36.8170   23.0690 C   0  0  0  0  0  1  0  0  0  0  0  0
  -25.4270  -36.4080   23.8860 C   0  0  0  0  0  3  0  0  0  0  0  0
  -27.5600  -37.2910   24.7220 C   0  0  0  0  0  1  0  0  0  0  0  0
  -26.4610  -37.4580   23.7720 N   0  0  0  0  0  0  0  0  0  0  0  0
  -26.0590  -38.3800   23.9140 H   0  0  0  0  0  0  0  0  0  0  0  0
  -30.1920  -18.7250   20.8760 C   0  0  0  0  0  2  0  0  0  0  0  0
  -29.6320  -17.3780   18.6920 C   0  0  0  0  0  2  0  0  0  0  0  0
  -28.3760  -18.1380   18.2130 C   0  0  0  0  0  2  0  0  0  0  0  0
  -28.0510  -17.4730   20.4530 C   0  0  0  0  0  2  0  0  0  0  0  0
  -29.5680  -17.3460   20.2370 C   0  0  2  0  0  0  0  0  0  0  0  0
  -26.0930  -18.3740   19.2290 C   0  0  0  0  0  1  0  0  0  0  0  0
  -27.5560  -18.3940   19.4200 N   0  0  2  0  0  4  0  0  0  0  0  0
  -27.7920  -19.3210   19.7420 H   0  0  0  0  0  0  0  0  0  0  0  0
  -30.6290  -14.8480   20.3680 C   0  0  0  0  0  0  0  0  0  0  0  0
  -30.4370  -12.5800   19.3210 C   0  0  0  0  0  2  0  0  0  0  0  0
  -29.4890  -12.6630   18.1010 C   0  0  0  0  0  2  0  0  0  0  0  0
  -28.0210  -12.4760   18.5310 C   0  0  0  0  0  2  0  0  0  0  0  0
  -27.6510  -13.3200   19.7800 C   0  0  0  0  0  3  0  0  0  0  0  0
  -28.7250  -13.2130   20.8890 C   0  0  0  0  0  2  0  0  0  0  0  0
  -30.0190  -13.6080   20.3090 N   0  0  0  0  0  0  0  0  0  0  0  0
  -31.7510  -15.0030   19.8830 O   0  0  0  0  0  0  0  0  0  0  0  0
  -29.8860  -15.9380   20.8100 N   0  0  0  0  0  0  0  0  0  0  0  0
  -29.1410  -15.6160   21.4130 H   0  0  0  0  0  0  0  0  0  0  0  0
  -25.2530  -13.8670   20.5260 C   0  0  0  0  0  0  0  0  0  0  0  0
  -24.1990  -13.0900   20.9130 C   0  0  0  0  0  0  0  0  0  0  0  0
  -24.6750  -11.7440   20.8650 C   0  0  0  0  0  0  0  0  0  0  0  0
  -26.3070  -13.0060   20.2740 N   0  0  0  0  0  0  0  0  0  0  0  0
  -25.9630  -11.7200   20.5370 N   0  0  0  0  0  0  0  0  0  0  0  0
  -23.9560  -10.4760   21.0500 C   0  0  0  0  0  0  0  0  0  0  0  0
  -24.4000   -9.5080   21.9770 C   0  0  0  0  0  3  0  0  0  0  0  0
  -23.6820   -8.3070   22.1540 C   0  0  0  0  0  3  0  0  0  0  0  0
  -22.5090   -8.0630   21.4040 C   0  0  0  0  0  0  0  0  0  0  0  0
  -22.0830   -9.0200   20.4660 C   0  0  0  0  0  3  0  0  0  0  0  0
  -22.8010  -10.2130   20.2880 C   0  0  0  0  0  3  0  0  0  0  0  0
  -21.7650   -6.9080   21.4890 O   0  0  0  0  0  0  0  0  0  0  0  0
  -21.7200   -6.1660   22.6410 C   0  0  0  0  0  0  0  0  0  0  0  0
  -21.2790   -6.7160   23.8650 C   0  0  0  0  0  3  0  0  0  0  0  0
  -21.1870   -5.9020   25.0110 C   0  0  0  0  0  3  0  0  0  0  0  0
  -21.5230   -4.5370   24.9310 C   0  0  0  0  0  0  0  0  0  0  0  0
  -21.9570   -3.9850   23.7120 C   0  0  0  0  0  3  0  0  0  0  0  0
  -22.0530   -4.7990   22.5710 C   0  0  0  0  0  0  0  0  0  0  0  0
  -22.4530   -4.2590   21.3930 F   0  0  0  0  0  0  0  0  0  0  0  0
  -21.4260   -3.7510   26.0290 F   0  0  0  0  0  0  0  0  0  0  0  0
  -22.8010  -13.5620   21.1900 C   0  0  0  0  0  0  0  0  0  0  0  0
  -22.0700  -12.8680   22.0530 N   0  0  0  0  0  0  0  0  0  0  0  0
  -22.3630  -14.5870   20.6670 O   0  0  0  0  0  0  0  0  0  0  0  0
  -22.4260  -12.0390   22.5070 H   0  0  0  0  0  0  0  0  0  0  0  0
  -21.1330  -13.1780   22.2660 H   0  0  0  0  0  0  0  0  0  0  0  0
  -25.3870  -15.2330   20.3250 N   0  0  0  0  0  0  0  0  0  0  0  0
  -24.5120  -15.7470   20.3300 H   0  0  0  0  0  0  0  0  0  0  0  0
  -25.9530  -15.4600   19.5220 H   0  0  0  0  0  0  0  0  0  0  0  0
  1  3  2  0
  2  1  1  0
  2 54  1  0
  4  2  1  0
  5  9  1  0
  6  5  2  0
  6 10  1  0
  8  7  1  0
  8  1  1  0
  9 13  1  0
  9  7  2  0
 10  8  2  0
 11 12  1  0
 12 10  1  0
 14 25  2  0
 15 13  1  0
 15 20  1  0
 16 24  1  0
 16 26  1  0
 17 23  1  0
 17 19  1  0
 18 24  1  0
 19 20  2  0
 19 18  1  0
 21 15  2  0
 22 21  1  0
 22 17  2  0
 23 16  1  0
 24 14  1  0
 26 28  2  0
 27 26  1  0
 29 27  1  0
 30 39  2  0
 30 35  1  0
 31 27  1  0
 31 35  1  0
 32 31  1  0
 33 34  1  0
 33 32  1  0
 34 30  1  0
 35 36  2  0
 36 37  1  0
 38 37  2  0
 39 38  1  0
 40 14  1  0
 40 45  1  0
 40 41  1  0
 41 44  1  1
 41 42  1  0
 43 41  1  0
 45 48  1  0
 46 50  1  0
 46 45  1  0
 47 46  2  0
 50 49  1  0
 52 50  1  0
 52 53  1  0
 52 51  1  0
 55 58  1  0
 56 55  1  0
 56 60  1  0
 58 57  1  0
 58 70  1  0
 58 54  1  1
 59 60  1  0
 60 61  1  1
 60 57  1  0
 62 70  1  0
 63 68  1  0
 64 65  1  0
 64 63  1  0
 66 65  1  0
 66 75  1  0
 66 67  1  0
 68 62  1  0
 68 67  1  0
 69 62  2  0
 70 71  1  0
 72 73  2  0
 73 92  1  0
 74 73  1  0
 74 77  1  0
 75 72  1  0
 75 76  1  0
 76 74  2  0
 77 78  1  0
 78 79  2  0
 80 83  1  0
 80 79  1  0
 81 80  2  0
 82 81  1  0
 82 77  2  0
 83 84  1  0
 84 85  1  0
 85 86  2  0
 87 86  1  0
 87 91  1  0
 88 87  2  0
 89 84  2  0
 89 88  1  0
 90 89  1  0
 92 93  1  0
 93 96  1  0
 93 95  1  0
 94 92  2  0
 97 98  1  0
 97 72  1  0
 99 97  1  0
M  ISO  4   9 101  13 101  62 100  70 100
M  END
>  <TORSDO>  (52) 
F 20

>  <SCORE>  (52) 
-13.978

>  <name>  (52) 
52

>  <ligand_id>  (52) 
52

>  <original_smiles>  (52) 
[H]c1c([H])c([H])c2c(c1[H])C([H])([H])C([H])([H])C([H])([H])C2([H])N([H])C(=O)C1([H])N(C(=O)C([H])(N([H])C(=O)C([H])(N([H])C([H])([H])[H])C([H])([H])[H])C(C([H])([H])[H])(C([H])([H])[H])C([H])([H])[H])C([H])([H])c2c([H])c(Oc3c([H])c([H])c(OC([H])([H])[H])c(C(=O)N([H])C([H])([H])C4(N([H])C(=O)N5C([H])([H])C([H])([H])C([H])([H])C([H])(n6nc(-c7c([H])c([H])c(Oc8c([H])c([H])c(F)c([H])c8F)c([H])c7[H])c(C(=O)N([H])[H])c6N([H])[H])C5([H])[H])C([H])([H])C([H])([H])[N+]([H])(C([H])([H])[H])C4([H])[H])c3[H])c([H])c([H])c2C1([H])[H]

>  <smiles>  (52) 
[H]c1c([H])c([H])c2c(c1[H])C([H])([H])C([H])([H])C([H])([H])C2([H])N([H])C(=O)C1([H])N(C(=O)C([H])(N([H])C(=O)C([H])(N([H])C([H])([H])[H])C([H])([H])[H])C(C([H])([H])[H])(C([H])([H])[H])C([H])([H])[H])C([H])([H])c2c([H])c(Oc3c([H])c([H])c(OC([H])([H])[H])c(C(=O)N([H])C([H])([H])C4(N([H])C(=O)N5C([H])([H])C([H])([H])C([H])([H])C([H])(n6nc(-c7c([H])c([H])c(Oc8c([H])c([H])c(F)c([H])c8F)c([H])c7[H])c(C(=O)N([H])[H])c6N([H])[H])C5([H])[H])C([H])([H])C([H])([H])[N+]([H])(C([H])([H])[H])C4([H])[H])c3[H])c([H])c([H])c2C1([H])[H]

$$$$
53:0:0
     RDKit          3D

 97105  0  0  1  0  0  0  0  0999 V2000
  -31.4860  -20.7150   18.8340 C   0  0  0  0  0  3  0  0  0  0  0  0
  -30.4610  -21.1860   17.9880 C   0  0  0  0  0  3  0  0  0  0  0  0
  -29.7820  -20.0630   20.4120 C   0  0  0  0  0  0  0  0  0  0  0  0
  -31.1530  -20.1510   20.0820 C   0  0  0  0  0  0  0  0  0  0  0  0
  -29.1740  -21.4330   18.5140 C   0  0  0  0  0  0  0  0  0  0  0  0
  -29.0050  -21.3420   19.9150 C   0  0  0  0  0  0  0  0  0  0  0  0
  -28.1300  -22.0590   17.6090 C   0  0  0  0  0  1  0  0  0  0  0  0
  -29.7900  -17.0430   20.8980 C   0  0  0  0  0  0  0  0  0  0  0  0
  -29.3430  -18.4640   20.7820 C   0  0  0  0  0  0  0  0  0  0  0  0
  -30.7160  -15.6900   20.8810 C   0  0  0  0  0  0  0  0  0  0  0  0
  -30.8500  -13.2050   20.1190 C   0  0  0  0  0  2  0  0  0  0  0  0
  -30.0710  -12.9420   18.8040 C   0  0  0  0  0  2  0  0  0  0  0  0
  -28.5910  -12.6440   19.0990 C   0  0  0  0  0  2  0  0  0  0  0  0
  -28.0000  -13.6280   20.1380 C   0  0  0  0  0  3  0  0  0  0  0  0
  -28.9200  -13.8450   21.3560 C   0  0  0  0  0  2  0  0  0  0  0  0
  -30.2030  -14.3580   20.8530 N   0  0  0  0  0  0  0  0  0  0  0  0
  -31.9550  -15.6830   20.7690 O   0  0  0  0  0  0  0  0  0  0  0  0
  -25.5640  -14.1450   20.6840 C   0  0  0  0  0  0  0  0  0  0  0  0
  -24.4850  -13.3490   20.9490 C   0  0  0  0  0  0  0  0  0  0  0  0
  -24.9720  -12.0060   20.9550 C   0  0  0  0  0  0  0  0  0  0  0  0
  -26.6360  -13.2870   20.5250 N   0  0  0  0  0  0  0  0  0  0  0  0
  -26.2880  -11.9940   20.7610 N   0  0  0  0  0  0  0  0  0  0  0  0
  -24.2520  -10.7310   21.0720 C   0  0  0  0  0  0  0  0  0  0  0  0
  -24.6100   -9.7620   22.0360 C   0  0  0  0  0  3  0  0  0  0  0  0
  -23.8850   -8.5560   22.1410 C   0  0  0  0  0  3  0  0  0  0  0  0
  -22.7880   -8.3100   21.2830 C   0  0  0  0  0  0  0  0  0  0  0  0
  -22.4480   -9.2670   20.3090 C   0  0  0  0  0  3  0  0  0  0  0  0
  -23.1760  -10.4640   20.2010 C   0  0  0  0  0  3  0  0  0  0  0  0
  -22.0420   -7.1560   21.2960 O   0  0  0  0  0  0  0  0  0  0  0  0
  -21.8830   -6.4110   22.4380 C   0  0  0  0  0  0  0  0  0  0  0  0
  -21.3430   -6.9660   23.6190 C   0  0  0  0  0  3  0  0  0  0  0  0
  -21.1340   -6.1500   24.7490 C   0  0  0  0  0  3  0  0  0  0  0  0
  -21.4570   -4.7810   24.6980 C   0  0  0  0  0  0  0  0  0  0  0  0
  -21.9900   -4.2260   23.5220 C   0  0  0  0  0  3  0  0  0  0  0  0
  -22.2000   -5.0390   22.3940 C   0  0  0  0  0  0  0  0  0  0  0  0
  -22.6950   -4.4950   21.2560 F   0  0  0  0  0  0  0  0  0  0  0  0
  -21.2500   -3.9940   25.7790 F   0  0  0  0  0  0  0  0  0  0  0  0
  -23.0610  -13.8040   21.0890 C   0  0  0  0  0  0  0  0  0  0  0  0
  -22.2670  -13.1030   21.8910 N   0  0  0  0  0  0  0  0  0  0  0  0
  -22.6580  -14.8190   20.5230 O   0  0  0  0  0  0  0  0  0  0  0  0
  -22.6040  -12.2840   22.3750 H   0  0  0  0  0  0  0  0  0  0  0  0
  -21.3090  -13.3920   22.0240 H   0  0  0  0  0  0  0  0  0  0  0  0
  -25.7230  -15.5200   20.5380 N   0  0  0  0  0  0  0  0  0  0  0  0
  -24.9440  -16.1660   20.6180 H   0  0  0  0  0  0  0  0  0  0  0  0
  -26.6050  -15.9870   20.3640 H   0  0  0  0  0  0  0  0  0  0  0  0
  -28.0600  -18.5690   21.1460 O   0  0  0  0  0  0  0  0  0  0  0  0
  -27.8230  -19.4840   21.0650 H   0  0  0  0  0  0  0  0  0  0  0  0
  -32.2410  -19.5280   20.9480 C   0  0  0  0  0  2  0  0  0  0  0  0
  -33.1610  -20.6040   21.5560 C   0  0  0  0  0  2  0  0  0  0  0  0
  -34.4070  -20.0310   22.2400 C   0  0  0  0  0  0  0  0  0  0  0  0
  -35.0920  -20.8420   23.0360 N   0  0  0  0  0  0  0  0  0  0  0  0
  -34.7590  -18.8660   22.0680 O   0  0  0  0  0  0  0  0  0  0  0  0
  -34.8010  -21.8010   23.1700 H   0  0  0  0  0  0  0  0  0  0  0  0
  -35.9140  -20.5060   23.5200 H   0  0  0  0  0  0  0  0  0  0  0  0
  -28.9550  -23.0120   20.4540 C   0  0  0  0  0  3  0  0  0  0  0  0
  -28.1520  -24.5180   19.8250 C   0  0  0  0  0  3  0  0  0  0  0  0
  -28.3090  -26.1500   20.0410 O   0  0  0  0  0  0  0  0  0  0  0  0
  -24.7180  -31.9910   23.1720 C   0  0  0  0  0  0  0  0  0  0  0  0
  -27.2790  -27.2290   19.9840 C   0  0  0  0  0  0  0  0  0  0  0  0
  -23.5050  -30.6040   21.5390 C   0  0  0  0  0  3  0  0  0  0  0  0
  -24.9420  -29.0600   20.0380 C   0  0  0  0  0  0  0  0  0  0  0  0
  -26.0600  -30.8710   21.3250 C   0  0  0  0  0  2  0  0  0  0  0  0
  -26.1380  -29.4770   20.6360 C   0  0  0  0  0  0  0  0  0  0  0  0
  -27.2970  -28.5810   20.5880 C   0  0  0  0  0  3  0  0  0  0  0  0
  -26.0540  -26.9680   19.3310 C   0  0  0  0  0  3  0  0  0  0  0  0
  -24.9240  -27.8280   19.3650 C   0  0  0  0  0  3  0  0  0  0  0  0
  -23.7070  -29.9530   20.1430 C   0  0  0  0  0  2  0  0  0  0  0  0
  -24.7840  -31.1820   22.0650 N   0  0  0  0  0  0  0  0  0  0  0  0
  -23.6390  -32.2490   23.7300 O   0  0  0  0  0  0  0  0  0  0  0  0
  -22.8590  -29.5750   22.5050 C   0  0  0  0  0  0  0  0  0  0  0  0
  -21.5320  -29.3750   22.4060 N   0  0  0  0  0  0  0  0  0  0  0  0
  -23.5600  -28.9560   23.3110 O   0  0  0  0  0  0  0  0  0  0  0  0
  -21.0180  -29.9280   21.7350 H   0  0  0  0  0  0  0  0  0  0  0  0
  -18.2030  -28.0280   22.9340 C   0  0  0  0  0  0  0  0  0  0  0  0
  -20.7520  -28.4030   23.1820 C   0  0  0  0  0  3  0  0  0  0  0  0
  -20.9090  -26.9760   22.6050 C   0  0  0  0  0  2  0  0  0  0  0  0
  -19.8170  -26.6090   21.5970 C   0  0  0  0  0  2  0  0  0  0  0  0
  -18.4340  -26.6910   22.2510 C   0  0  0  0  0  2  0  0  0  0  0  0
  -19.2910  -28.8400   23.3560 C   0  0  0  0  0  0  0  0  0  0  0  0
  -19.0190  -30.0860   23.9590 C   0  0  0  0  0  3  0  0  0  0  0  0
  -17.6930  -30.5260   24.1400 C   0  0  0  0  0  3  0  0  0  0  0  0
  -16.6220  -29.7130   23.7310 C   0  0  0  0  0  3  0  0  0  0  0  0
  -16.8770  -28.4660   23.1340 C   0  0  0  0  0  3  0  0  0  0  0  0
  -25.9950  -32.6470   23.7810 C   0  0  0  0  0  3  0  0  0  0  0  0
  -25.6470  -34.0210   24.1890 N   0  0  0  0  0  0  0  0  0  0  0  0
  -25.9540  -35.1290   23.5010 C   0  0  0  0  0  0  0  0  0  0  0  0
  -26.6210  -35.1030   22.4630 O   0  0  0  0  0  0  0  0  0  0  0  0
  -25.0500  -34.1120   24.9990 H   0  0  0  0  0  0  0  0  0  0  0  0
  -24.1920  -36.9140   23.2680 C   0  0  0  0  0  1  0  0  0  0  0  0
  -25.4440  -36.4780   24.0480 C   0  0  0  0  0  3  0  0  0  0  0  0
  -27.5660  -37.3500   24.9240 C   0  0  0  0  0  1  0  0  0  0  0  0
  -26.4560  -37.5560   23.9990 N   0  0  0  0  0  0  0  0  0  0  0  0
  -26.0330  -38.4570   24.2050 H   0  0  0  0  0  0  0  0  0  0  0  0
  -26.5760  -31.8470   25.0130 C   0  0  1  0  0  0  0  0  0  0  0  0
  -25.5270  -31.5460   26.1110 C   0  0  0  0  0  1  0  0  0  0  0  0
  -27.1780  -30.4990   24.5610 C   0  0  0  0  0  1  0  0  0  0  0  0
  -27.7300  -32.6480   25.6600 C   0  0  0  0  0  1  0  0  0  0  0  0
  1  4  1  0
  2  5  1  0
  2  1  2  0
  3  9  1  0
  4  3  2  0
  4 48  1  0
  5  6  2  0
  6  3  1  0
  6 55  1  0
  7  5  1  0
  9  8  2  0
  9 46  1  0
 10  8  2  0
 11 16  1  0
 12 13  1  0
 12 11  1  0
 14 13  1  0
 14 21  1  0
 14 15  1  0
 16 10  1  0
 16 15  1  0
 17 10  2  0
 18 19  2  0
 19 20  1  0
 19 38  1  0
 20 23  1  0
 21 18  1  0
 21 22  1  0
 22 20  2  0
 23 24  1  0
 24 25  2  0
 26 29  1  0
 26 25  1  0
 27 26  2  0
 28 27  1  0
 28 23  2  0
 29 30  1  0
 30 31  1  0
 31 32  2  0
 33 32  1  0
 33 37  1  0
 34 33  2  0
 35 30  2  0
 35 34  1  0
 36 35  1  0
 38 39  1  0
 39 42  1  0
 39 41  1  0
 40 38  2  0
 43 44  1  0
 43 18  1  0
 45 43  1  0
 47 46  1  0
 48 49  1  0
 49 50  1  0
 50 51  1  0
 51 53  1  0
 51 54  1  0
 52 50  2  0
 56 57  1  0
 56 55  2  0
 58 69  2  0
 59 57  1  0
 59 64  1  0
 60 68  1  0
 60 70  1  0
 61 67  1  0
 61 63  1  0
 62 68  1  0
 63 62  1  0
 64 63  2  0
 65 66  1  0
 65 59  2  0
 66 61  2  0
 67 60  1  0
 68 58  1  0
 70 72  2  0
 71 70  1  0
 73 71  1  0
 74 83  2  0
 74 79  1  0
 75 71  1  0
 75 79  1  0
 76 75  1  0
 77 78  1  0
 77 76  1  0
 78 74  1  0
 79 80  2  0
 80 81  1  0
 82 81  2  0
 83 82  1  0
 84 58  1  0
 84 85  1  0
 84 94  1  0
 85 88  1  0
 86 90  1  0
 86 85  1  0
 87 86  2  0
 90 89  1  0
 92 90  1  0
 92 93  1  0
 92 91  1  0
 94 97  1  1
 94 95  1  0
 96 94  1  0
M  ISO  4   8 100  10 100  56 101  57 101
M  END
>  <TORSDO>  (53) 
F 23

>  <SCORE>  (53) 
-14.359

>  <name>  (53) 
53

>  <ligand_id>  (53) 
53

>  <original_smiles>  (53) 
[H]OC(=C([H])C(=O)N1C([H])([H])C([H])([H])C([H])([H])C([H])(n2nc(-c3c([H])c([H])c(Oc4c([H])c([H])c(F)c([H])c4F)c([H])c3[H])c(C(=O)N([H])[H])c2N([H])[H])C1([H])[H])c1c(C([H])([H])C([H])([H])Oc2c([H])c([H])c3c(c2[H])C([H])([H])N(C(=O)C([H])(N([H])C(=O)C([H])(N([H])C([H])([H])[H])C([H])([H])[H])C(C([H])([H])[H])(C([H])([H])[H])C([H])([H])[H])C([H])(C(=O)N([H])C2([H])c4c([H])c([H])c([H])c([H])c4C([H])([H])C([H])([H])C2([H])[H])C3([H])[H])c(C([H])([H])[H])c([H])c([H])c1C([H])([H])C([H])([H])C(=O)N([H])[H]

>  <smiles>  (53) 
[H]OC(=C([H])C(=O)N1C([H])([H])C([H])([H])C([H])([H])C([H])(n2nc(-c3c([H])c([H])c(Oc4c([H])c([H])c(F)c([H])c4F)c([H])c3[H])c(C(=O)N([H])[H])c2N([H])[H])C1([H])[H])c1c(C([H])([H])C([H])([H])Oc2c([H])c([H])c3c(c2[H])C([H])([H])N(C(=O)C([H])(N([H])C(=O)C([H])(N([H])C([H])([H])[H])C([H])([H])[H])C(C([H])([H])[H])(C([H])([H])[H])C([H])([H])[H])C([H])(C(=O)N([H])C2([H])c4c([H])c([H])c([H])c([H])c4C([H])([H])C([H])([H])C2([H])[H])C3([H])[H])c(C([H])([H])[H])c([H])c([H])c1C([H])([H])C([H])([H])C(=O)N([H])[H]

$$$$
54:0:0
     RDKit          3D

 93101  0  0  1  0  0  0  0  0999 V2000
  -29.3480  -17.5600   18.6730 C   0  0  0  0  0  3  0  0  0  0  0  0
  -29.0180  -18.8250   19.1700 C   0  0  0  0  0  3  0  0  0  0  0  0
  -29.5820  -17.9900   21.3860 C   0  0  0  0  0  3  0  0  0  0  0  0
  -29.8260  -16.4990   19.4860 C   0  0  0  0  0  0  0  0  0  0  0  0
  -29.8670  -16.6000   20.9250 C   0  0  0  0  0  0  0  0  0  0  0  0
  -29.1820  -19.1400   20.5230 C   0  0  0  0  0  0  0  0  0  0  0  0
  -30.4850  -15.3750   21.7850 C   0  0  0  0  0  0  0  0  0  0  0  0
  -30.6940  -12.8700   21.4580 C   0  0  0  0  0  2  0  0  0  0  0  0
  -30.1100  -12.3340   20.1300 C   0  0  0  0  0  2  0  0  0  0  0  0
  -28.5790  -12.1920   20.1730 C   0  0  0  0  0  2  0  0  0  0  0  0
  -27.8450  -13.3140   20.9550 C   0  0  0  0  0  3  0  0  0  0  0  0
  -28.5800  -13.7060   22.2460 C   0  0  0  0  0  2  0  0  0  0  0  0
  -29.9440  -14.0910   21.8610 N   0  0  0  0  0  0  0  0  0  0  0  0
  -31.6820  -15.4780   22.0620 O   0  0  0  0  0  0  0  0  0  0  0  0
  -25.3460  -13.8240   21.1800 C   0  0  0  0  0  0  0  0  0  0  0  0
  -24.2510  -13.0150   21.3240 C   0  0  0  0  0  0  0  0  0  0  0  0
  -24.7540  -11.6820   21.4200 C   0  0  0  0  0  0  0  0  0  0  0  0
  -26.4440  -12.9790   21.1850 N   0  0  0  0  0  0  0  0  0  0  0  0
  -26.0810  -11.6890   21.4030 N   0  0  0  0  0  0  0  0  0  0  0  0
  -24.0460  -10.3940   21.4660 C   0  0  0  0  0  0  0  0  0  0  0  0
  -24.3060   -9.4450   22.4780 C   0  0  0  0  0  3  0  0  0  0  0  0
  -23.5990   -8.2230   22.5140 C   0  0  0  0  0  3  0  0  0  0  0  0
  -22.6170   -7.9420   21.5330 C   0  0  0  0  0  0  0  0  0  0  0  0
  -22.3790   -8.8800   20.5140 C   0  0  0  0  0  3  0  0  0  0  0  0
  -23.0890  -10.0930   20.4760 C   0  0  0  0  0  3  0  0  0  0  0  0
  -21.8990   -6.7710   21.4750 O   0  0  0  0  0  0  0  0  0  0  0  0
  -21.6300   -6.0340   22.6000 C   0  0  0  0  0  0  0  0  0  0  0  0
  -20.9540   -6.5890   23.7090 C   0  0  0  0  0  3  0  0  0  0  0  0
  -20.6340   -5.7780   24.8160 C   0  0  0  0  0  3  0  0  0  0  0  0
  -20.9810   -4.4130   24.8150 C   0  0  0  0  0  0  0  0  0  0  0  0
  -21.6490   -3.8580   23.7090 C   0  0  0  0  0  3  0  0  0  0  0  0
  -21.9700   -4.6670   22.6050 C   0  0  0  0  0  0  0  0  0  0  0  0
  -22.5950   -4.1220   21.5330 F   0  0  0  0  0  0  0  0  0  0  0  0
  -20.6680   -3.6330   25.8740 F   0  0  0  0  0  0  0  0  0  0  0  0
  -22.8140  -13.4450   21.2710 C   0  0  0  0  0  0  0  0  0  0  0  0
  -21.9390  -12.7430   21.9820 N   0  0  0  0  0  0  0  0  0  0  0  0
  -22.4690  -14.4390   20.6350 O   0  0  0  0  0  0  0  0  0  0  0  0
  -22.2260  -11.9410   22.5230 H   0  0  0  0  0  0  0  0  0  0  0  0
  -20.9650  -13.0120   21.9840 H   0  0  0  0  0  0  0  0  0  0  0  0
  -25.5080  -15.1950   21.0180 N   0  0  0  0  0  0  0  0  0  0  0  0
  -24.7210  -15.8320   20.9680 H   0  0  0  0  0  0  0  0  0  0  0  0
  -26.4010  -15.6640   20.9340 H   0  0  0  0  0  0  0  0  0  0  0  0
  -30.4740  -15.3980   18.7040 C   0  0  0  0  0  0  0  0  0  0  0  0
  -31.7040  -15.2720   18.6600 O   0  0  0  0  0  0  0  0  0  0  0  0
  -29.6150  -14.4240   17.8360 C   0  0  0  0  0  0  0  0  0  0  0  0
  -30.0660  -13.9650   16.7790 O   0  0  0  0  0  0  0  0  0  0  0  0
  -27.6010  -12.8300   17.5900 C   0  0  0  0  0  1  0  0  0  0  0  0
  -28.2180  -14.0270   18.3360 C   0  0  0  0  0  2  0  0  0  0  0  0
  -28.9820  -20.7220   20.8900 C   0  0  0  0  0  2  0  0  0  0  0  0
  -28.4390  -21.8830   19.8020 C   0  0  0  0  0  2  0  0  0  0  0  0
  -28.6800  -23.5360   19.8990 C   0  0  0  0  0  3  0  0  0  0  0  0
  -27.7510  -24.6750   19.1050 C   0  0  0  0  0  3  0  0  0  0  0  0
  -28.0110  -26.1950   18.9900 O   0  0  0  0  0  0  0  0  0  0  0  0
  -24.8730  -31.5830   22.8470 C   0  0  0  0  0  0  0  0  0  0  0  0
  -26.9580  -27.1630   19.1170 C   0  0  0  0  0  0  0  0  0  0  0  0
  -23.4420  -30.3250   21.2820 C   0  0  0  0  0  3  0  0  0  0  0  0
  -24.6620  -28.8800   19.5440 C   0  0  0  0  0  0  0  0  0  0  0  0
  -25.9480  -30.6120   20.7870 C   0  0  0  0  0  2  0  0  0  0  0  0
  -25.9160  -29.2810   20.0230 C   0  0  0  0  0  0  0  0  0  0  0  0
  -27.0620  -28.4370   19.7980 C   0  0  0  0  0  3  0  0  0  0  0  0
  -25.6770  -26.8660   18.5970 C   0  0  0  0  0  3  0  0  0  0  0  0
  -24.5520  -27.6870   18.8160 C   0  0  0  0  0  3  0  0  0  0  0  0
  -23.4620  -29.7660   19.8340 C   0  0  0  0  0  2  0  0  0  0  0  0
  -24.7810  -30.8570   21.6910 N   0  0  0  0  0  0  0  0  0  0  0  0
  -23.8740  -31.8200   23.5430 O   0  0  0  0  0  0  0  0  0  0  0  0
  -22.8960  -29.2380   22.2420 C   0  0  0  0  0  0  0  0  0  0  0  0
  -21.5660  -29.0420   22.2520 N   0  0  0  0  0  0  0  0  0  0  0  0
  -23.6690  -28.5760   22.9410 O   0  0  0  0  0  0  0  0  0  0  0  0
  -20.9970  -29.6330   21.6610 H   0  0  0  0  0  0  0  0  0  0  0  0
  -18.2970  -27.6500   22.9520 C   0  0  0  0  0  0  0  0  0  0  0  0
  -20.8520  -28.0380   23.0460 C   0  0  0  0  0  3  0  0  0  0  0  0
  -20.9840  -26.6330   22.4160 C   0  0  0  0  0  2  0  0  0  0  0  0
  -19.8290  -26.2830   21.4720 C   0  0  0  0  0  2  0  0  0  0  0  0
  -18.4920  -26.3330   22.2170 C   0  0  0  0  0  2  0  0  0  0  0  0
  -19.4040  -28.4570   23.3270 C   0  0  0  0  0  0  0  0  0  0  0  0
  -19.1660  -29.6850   23.9810 C   0  0  0  0  0  3  0  0  0  0  0  0
  -17.8520  -30.1100   24.2600 C   0  0  0  0  0  3  0  0  0  0  0  0
  -16.7610  -29.3000   23.8990 C   0  0  0  0  0  3  0  0  0  0  0  0
  -16.9840  -28.0730   23.2510 C   0  0  0  0  0  3  0  0  0  0  0  0
  -26.2330  -32.1670   23.3370 C   0  0  0  0  0  3  0  0  0  0  0  0
  -25.9630  -33.4830   23.9370 N   0  0  0  0  0  0  0  0  0  0  0  0
  -26.2540  -34.6590   23.3630 C   0  0  0  0  0  0  0  0  0  0  0  0
  -26.8460  -34.7460   22.2840 O   0  0  0  0  0  0  0  0  0  0  0  0
  -25.4290  -33.4870   24.7930 H   0  0  0  0  0  0  0  0  0  0  0  0
  -24.5460  -36.5070   23.4570 C   0  0  0  0  0  1  0  0  0  0  0  0
  -25.8210  -35.9390   24.1030 C   0  0  0  0  0  3  0  0  0  0  0  0
  -28.0180  -36.6300   24.9590 C   0  0  0  0  0  1  0  0  0  0  0  0
  -26.8670  -36.9860   24.1310 N   0  0  0  0  0  0  0  0  0  0  0  0
  -26.4900  -37.8650   24.4740 H   0  0  0  0  0  0  0  0  0  0  0  0
  -26.9730  -31.2310   24.3710 C   0  0  1  0  0  0  0  0  0  0  0  0
  -26.0850  -30.7910   25.5600 C   0  0  0  0  0  1  0  0  0  0  0  0
  -27.4960  -29.9500   23.6810 C   0  0  0  0  0  1  0  0  0  0  0  0
  -28.2100  -31.9590   24.9450 C   0  0  0  0  0  1  0  0  0  0  0  0
  1  2  2  0
  1  4  1  0
  2  6  1  0
  4  5  2  0
  5  3  1  0
  5  7  1  0
  6 49  1  0
  6  3  2  0
  7 13  1  0
  7 14  2  0
  8 13  1  0
  9 10  1  0
  9  8  1  0
 11 10  1  0
 11 18  1  0
 11 12  1  0
 13 12  1  0
 15 18  1  0
 15 16  2  0
 16 17  1  0
 17 20  1  0
 18 19  1  0
 19 17  2  0
 20 21  1  0
 21 22  2  0
 23 22  1  0
 24 23  2  0
 25 24  1  0
 25 20  2  0
 26 23  1  0
 26 27  1  0
 27 32  2  0
 27 28  1  0
 28 29  2  0
 30 29  1  0
 30 34  1  0
 31 30  2  0
 32 31  1  0
 33 32  1  0
 35 16  1  0
 35 36  1  0
 36 39  1  0
 36 38  1  0
 37 35  2  0
 40 15  1  0
 41 40  1  0
 42 40  1  0
 43  4  1  0
 44 43  2  0
 45 48  1  0
 45 43  1  0
 46 45  2  0
 47 48  1  0
 50 51  1  0
 50 49  1  0
 52 51  2  0
 53 52  1  0
 53 55  1  0
 54 65  2  0
 55 60  1  0
 56 64  1  0
 56 66  1  0
 57 63  1  0
 57 59  1  0
 58 64  1  0
 59 58  1  0
 60 59  2  0
 61 62  1  0
 61 55  2  0
 62 57  2  0
 63 56  1  0
 64 54  1  0
 66 67  1  0
 66 68  2  0
 69 67  1  0
 70 79  2  0
 70 75  1  0
 71 67  1  0
 71 75  1  0
 72 71  1  0
 73 74  1  0
 73 72  1  0
 74 70  1  0
 75 76  2  0
 76 77  1  0
 78 77  2  0
 79 78  1  0
 80 54  1  0
 80 81  1  0
 80 90  1  0
 81 84  1  0
 82 81  1  0
 82 86  1  0
 83 82  2  0
 86 85  1  0
 86 88  1  0
 88 89  1  0
 88 87  1  0
 90 93  1  1
 90 91  1  0
 92 90  1  0
M  ISO  4   5 100   7 100  52 101  53 101
M  END
>  <TORSDO>  (54) 
F 23

>  <SCORE>  (54) 
-5.241

>  <name>  (54) 
54

>  <ligand_id>  (54) 
54

>  <original_smiles>  (54) 
[H]c1c([H])c([H])c2c(c1[H])C([H])([H])C([H])([H])C([H])([H])C2([H])N([H])C(=O)C1([H])N(C(=O)C([H])(N([H])C(=O)C([H])(N([H])C([H])([H])[H])C([H])([H])[H])C(C([H])([H])[H])(C([H])([H])[H])C([H])([H])[H])C([H])([H])c2c([H])c(OC([H])([H])C([H])([H])C([H])([H])C([H])([H])c3c([H])c([H])c(C(=O)C(=O)C([H])([H])C([H])([H])[H])c(C(=O)N4C([H])([H])C([H])([H])C([H])([H])C([H])(n5nc(-c6c([H])c([H])c(Oc7c([H])c([H])c(F)c([H])c7F)c([H])c6[H])c(C(=O)N([H])[H])c5N([H])[H])C4([H])[H])c3[H])c([H])c([H])c2C1([H])[H]

>  <smiles>  (54) 
[H]c1c([H])c([H])c2c(c1[H])C([H])([H])C([H])([H])C([H])([H])C2([H])N([H])C(=O)C1([H])N(C(=O)C([H])(N([H])C(=O)C([H])(N([H])C([H])([H])[H])C([H])([H])[H])C(C([H])([H])[H])(C([H])([H])[H])C([H])([H])[H])C([H])([H])c2c([H])c(OC([H])([H])C([H])([H])C([H])([H])C([H])([H])c3c([H])c([H])c(C(=O)C(=O)C([H])([H])C([H])([H])[H])c(C(=O)N4C([H])([H])C([H])([H])C([H])([H])C([H])(n5nc(-c6c([H])c([H])c(Oc7c([H])c([H])c(F)c([H])c7F)c([H])c6[H])c(C(=O)N([H])[H])c5N([H])[H])C4([H])[H])c3[H])c([H])c([H])c2C1([H])[H]

$$$$
55:0:0
     RDKit          3D

 97105  0  0  1  0  0  0  0  0999 V2000
  -31.5490  -22.2350   23.1460 C   0  0  0  0  0  1  0  0  0  0  0  0
  -30.7760  -21.9080   21.8510 C   0  0  0  0  0  3  0  0  0  0  0  0
  -29.2760  -23.9820   22.2460 C   0  0  0  0  0  3  0  0  0  0  0  0
  -28.7270  -25.2040   21.7890 C   0  0  0  0  0  3  0  0  0  0  0  0
  -29.3910  -24.6470   19.5210 C   0  0  0  0  0  3  0  0  0  0  0  0
  -29.9470  -23.1080   21.3540 C   0  0  0  0  0  0  0  0  0  0  0  0
  -28.8220  -25.5630   20.4280 C   0  0  0  0  0  0  0  0  0  0  0  0
  -29.9520  -23.4370   19.9760 C   0  0  0  0  0  0  0  0  0  0  0  0
  -30.5580  -22.6150   19.0860 F   0  0  0  0  0  0  0  0  0  0  0  0
  -28.5650  -26.8400   19.9840 O   0  0  0  0  0  0  0  0  0  0  0  0
  -24.6250  -31.8550   23.1780 C   0  0  0  0  0  0  0  0  0  0  0  0
  -27.3450  -27.4550   20.1180 C   0  0  0  0  0  0  0  0  0  0  0  0
  -23.4420  -30.4330   21.5330 C   0  0  0  0  0  3  0  0  0  0  0  0
  -24.9190  -28.9000   20.1280 C   0  0  0  0  0  0  0  0  0  0  0  0
  -25.9580  -30.8300   21.3390 C   0  0  0  0  0  2  0  0  0  0  0  0
  -26.0640  -29.4530   20.7190 C   0  0  0  0  0  0  0  0  0  0  0  0
  -27.2790  -28.7340   20.7110 C   0  0  0  0  0  3  0  0  0  0  0  0
  -26.1860  -26.9040   19.5340 C   0  0  0  0  0  3  0  0  0  0  0  0
  -24.9720  -27.6200   19.5410 C   0  0  0  0  0  3  0  0  0  0  0  0
  -23.6650  -29.7440   20.1590 C   0  0  0  0  0  2  0  0  0  0  0  0
  -24.6920  -31.0560   22.0760 N   0  0  0  0  0  0  0  0  0  0  0  0
  -23.5390  -32.1160   23.7140 O   0  0  0  0  0  0  0  0  0  0  0  0
  -22.7990  -29.4120   22.4960 C   0  0  0  0  0  0  0  0  0  0  0  0
  -21.4730  -29.2330   22.3770 N   0  0  0  0  0  0  0  0  0  0  0  0
  -23.4880  -28.7800   23.3010 O   0  0  0  0  0  0  0  0  0  0  0  0
  -20.9790  -29.7910   21.6950 H   0  0  0  0  0  0  0  0  0  0  0  0
  -18.0960  -28.0690   22.9220 C   0  0  0  0  0  0  0  0  0  0  0  0
  -20.6610  -28.2920   23.1470 C   0  0  0  0  0  3  0  0  0  0  0  0
  -20.7370  -26.8700   22.5430 C   0  0  0  0  0  2  0  0  0  0  0  0
  -19.6110  -26.5790   21.5450 C   0  0  0  0  0  2  0  0  0  0  0  0
  -18.2430  -26.7300   22.2180 C   0  0  0  0  0  2  0  0  0  0  0  0
  -19.2320  -28.8100   23.3430 C   0  0  0  0  0  0  0  0  0  0  0  0
  -19.0400  -30.0650   23.9600 C   0  0  0  0  0  3  0  0  0  0  0  0
  -17.7450  -30.5790   24.1590 C   0  0  0  0  0  3  0  0  0  0  0  0
  -16.6240  -29.8340   23.7530 C   0  0  0  0  0  3  0  0  0  0  0  0
  -16.8010  -28.5810   23.1400 C   0  0  0  0  0  3  0  0  0  0  0  0
  -25.9030  -32.4990   23.8020 C   0  0  0  0  0  3  0  0  0  0  0  0
  -25.5850  -33.9000   24.1120 N   0  0  0  0  0  0  0  0  0  0  0  0
  -25.9190  -34.9430   23.3400 C   0  0  0  0  0  0  0  0  0  0  0  0
  -26.5970  -34.8280   22.3150 O   0  0  0  0  0  0  0  0  0  0  0  0
  -24.9840  -34.0610   24.9060 H   0  0  0  0  0  0  0  0  0  0  0  0
  -24.1920  -36.7250   22.9390 C   0  0  0  0  0  1  0  0  0  0  0  0
  -25.4220  -36.3350   23.7730 C   0  0  0  0  0  3  0  0  0  0  0  0
  -27.5390  -37.2390   24.6260 C   0  0  0  0  0  1  0  0  0  0  0  0
  -26.4530  -37.3890   23.6610 N   0  0  0  0  0  0  0  0  0  0  0  0
  -26.0410  -38.3090   23.7900 H   0  0  0  0  0  0  0  0  0  0  0  0
  -26.4170  -31.7440   25.0900 C   0  0  1  0  0  0  0  0  0  0  0  0
  -25.3160  -31.5070   26.1520 C   0  0  0  0  0  1  0  0  0  0  0  0
  -27.0140  -30.3680   24.7120 C   0  0  0  0  0  1  0  0  0  0  0  0
  -27.5570  -32.5530   25.7530 C   0  0  0  0  0  1  0  0  0  0  0  0
  -30.0030  -20.6390   21.9390 N   0  0  0  0  0  4  0  0  0  0  0  0
  -29.4940  -20.6080   22.8090 H   0  0  0  0  0  0  0  0  0  0  0  0
  -29.3200  -20.6680   21.1990 H   0  0  0  0  0  0  0  0  0  0  0  0
  -30.8090  -19.3910   21.7770 C   0  0  0  0  0  2  0  0  0  0  0  0
  -29.9620  -18.1420   21.3990 C   0  0  0  0  0  2  0  0  0  0  0  0
  -30.8010  -16.8730   21.0310 C   0  0  0  0  0  2  0  0  0  0  0  0
  -30.0180  -15.7860   20.2230 C   0  0  0  0  0  3  0  0  0  0  0  0
  -30.8100  -14.4690   19.9640 C   0  0  0  0  0  0  0  0  0  0  0  0
  -30.5360  -12.2160   19.0080 C   0  0  0  0  0  2  0  0  0  0  0  0
  -29.5580  -12.3520   17.8160 C   0  0  0  0  0  2  0  0  0  0  0  0
  -28.0840  -12.2520   18.2770 C   0  0  0  0  0  2  0  0  0  0  0  0
  -27.7770  -13.1380   19.5140 C   0  0  0  0  0  3  0  0  0  0  0  0
  -28.8690  -12.9780   20.5940 C   0  0  0  0  0  2  0  0  0  0  0  0
  -30.1780  -13.2610   19.9850 N   0  0  0  0  0  0  0  0  0  0  0  0
  -31.9500  -14.5960   19.5040 O   0  0  0  0  0  0  0  0  0  0  0  0
  -25.4340  -13.7890   20.3530 C   0  0  0  0  0  0  0  0  0  0  0  0
  -24.3680  -13.0340   20.7650 C   0  0  0  0  0  0  0  0  0  0  0  0
  -24.7960  -11.6750   20.6880 C   0  0  0  0  0  0  0  0  0  0  0  0
  -26.4430  -12.8870   20.0530 N   0  0  0  0  0  0  0  0  0  0  0  0
  -26.0670  -11.6100   20.3130 N   0  0  0  0  0  0  0  0  0  0  0  0
  -24.0520  -10.4270   20.8930 C   0  0  0  0  0  0  0  0  0  0  0  0
  -24.4790   -9.4610   21.8310 C   0  0  0  0  0  3  0  0  0  0  0  0
  -23.7410   -8.2740   22.0200 C   0  0  0  0  0  3  0  0  0  0  0  0
  -22.5600   -8.0460   21.2740 C   0  0  0  0  0  0  0  0  0  0  0  0
  -22.1560   -8.9980   20.3220 C   0  0  0  0  0  3  0  0  0  0  0  0
  -22.8950  -10.1770   20.1300 C   0  0  0  0  0  3  0  0  0  0  0  0
  -21.7890   -6.9140   21.3760 O   0  0  0  0  0  0  0  0  0  0  0  0
  -21.6990   -6.2090   22.5480 C   0  0  0  0  0  0  0  0  0  0  0  0
  -21.2130   -6.7970   23.7370 C   0  0  0  0  0  3  0  0  0  0  0  0
  -21.0710   -6.0140   24.9000 C   0  0  0  0  0  3  0  0  0  0  0  0
  -21.4050   -4.6460   24.8750 C   0  0  0  0  0  0  0  0  0  0  0  0
  -21.8830   -4.0590   23.6910 C   0  0  0  0  0  3  0  0  0  0  0  0
  -22.0270   -4.8390   22.5290 C   0  0  0  0  0  0  0  0  0  0  0  0
  -22.4680   -4.2640   21.3850 F   0  0  0  0  0  0  0  0  0  0  0  0
  -21.2610   -3.8930   25.9910 F   0  0  0  0  0  0  0  0  0  0  0  0
  -22.9970  -13.5390   21.1130 C   0  0  0  0  0  0  0  0  0  0  0  0
  -22.2940  -12.8380   21.9960 N   0  0  0  0  0  0  0  0  0  0  0  0
  -22.5610  -14.5860   20.6390 O   0  0  0  0  0  0  0  0  0  0  0  0
  -22.6640  -11.9940   22.4060 H   0  0  0  0  0  0  0  0  0  0  0  0
  -21.3720  -13.1510   22.2650 H   0  0  0  0  0  0  0  0  0  0  0  0
  -25.6150  -15.1580   20.1880 N   0  0  0  0  0  0  0  0  0  0  0  0
  -24.8500  -15.8100   20.3250 H   0  0  0  0  0  0  0  0  0  0  0  0
  -26.4260  -15.5910   19.7710 H   0  0  0  0  0  0  0  0  0  0  0  0
  -29.6890  -16.3360   18.8910 N   0  0  0  0  0  4  0  0  0  0  0  0
  -30.5420  -16.5710   18.4140 H   0  0  0  0  0  0  0  0  0  0  0  0
  -29.1100  -17.1520   18.9530 H   0  0  0  0  0  0  0  0  0  0  0  0
  -29.2140  -15.6520   18.3310 H   0  0  0  0  0  0  0  0  0  0  0  0
  2 51  1  0
  2  1  1  0
  4  3  1  0
  5  8  2  0
  5  7  1  0
  6  2  1  0
  6  3  2  0
  7  4  2  0
  8  6  1  0
  9  8  1  0
 10 12  1  0
 10  7  1  0
 11 22  2  0
 12 17  1  0
 13 21  1  0
 13 23  1  0
 14 20  1  0
 14 16  1  0
 15 21  1  0
 16 15  1  0
 17 16  2  0
 18 19  1  0
 18 12  2  0
 19 14  2  0
 20 13  1  0
 21 11  1  0
 23 25  2  0
 24 23  1  0
 26 24  1  0
 27 36  2  0
 27 32  1  0
 28 24  1  0
 28 32  1  0
 29 28  1  0
 30 31  1  0
 30 29  1  0
 31 27  1  0
 32 33  2  0
 33 34  1  0
 35 34  2  0
 36 35  1  0
 37 11  1  0
 37 38  1  0
 37 47  1  0
 38 41  1  0
 39 43  1  0
 39 38  1  0
 40 39  2  0
 43 42  1  0
 45 43  1  0
 45 46  1  0
 45 44  1  0
 47 50  1  1
 47 48  1  0
 49 47  1  0
 51 52  1  0
 53 51  1  0
 54 51  1  0
 55 54  1  0
 56 55  1  0
 57 56  1  0
 58 64  1  0
 58 57  1  0
 59 64  1  0
 60 61  1  0
 60 59  1  0
 62 61  1  0
 62 69  1  0
 62 63  1  0
 64 63  1  0
 65 58  2  0
 66 67  2  0
 67 86  1  0
 68 67  1  0
 68 71  1  0
 69 70  1  0
 69 66  1  0
 70 68  2  0
 71 72  1  0
 72 73  2  0
 74 77  1  0
 74 73  1  0
 75 74  2  0
 76 75  1  0
 76 71  2  0
 77 78  1  0
 78 79  1  0
 79 80  2  0
 81 80  1  0
 81 85  1  0
 82 81  2  0
 83 78  2  0
 83 82  1  0
 84 83  1  0
 86 87  1  0
 87 90  1  0
 87 89  1  0
 88 86  2  0
 91 92  1  0
 91 66  1  0
 93 91  1  0
 94 96  1  0
 94 57  1  0
 95 94  1  0
 97 94  1  0
M  ISO  4   7 101  10 101  57 100  58 100
M  END
>  <TORSDO>  (55) 
F 23

>  <SCORE>  (55) 
-12.449

>  <name>  (55) 
55

>  <ligand_id>  (55) 
55

>  <original_smiles>  (55) 
[H]c1c([H])c([H])c2c(c1[H])C([H])([H])C([H])([H])C([H])([H])C2([H])N([H])C(=O)C1([H])N(C(=O)C([H])(N([H])C(=O)C([H])(N([H])C([H])([H])[H])C([H])([H])[H])C(C([H])([H])[H])(C([H])([H])[H])C([H])([H])[H])C([H])([H])c2c([H])c(Oc3c([H])c([H])c(C([H])(C([H])([H])[H])[N+]([H])([H])C([H])([H])C([H])([H])C([H])([H])C([H])(C(=O)N4C([H])([H])C([H])([H])C([H])([H])C([H])(n5nc(-c6c([H])c([H])c(Oc7c([H])c([H])c(F)c([H])c7F)c([H])c6[H])c(C(=O)N([H])[H])c5N([H])[H])C4([H])[H])[N+]([H])([H])[H])c(F)c3[H])c([H])c([H])c2C1([H])[H]

>  <smiles>  (55) 
[H]c1c([H])c([H])c2c(c1[H])C([H])([H])C([H])([H])C([H])([H])C2([H])N([H])C(=O)C1([H])N(C(=O)C([H])(N([H])C(=O)C([H])(N([H])C([H])([H])[H])C([H])([H])[H])C(C([H])([H])[H])(C([H])([H])[H])C([H])([H])[H])C([H])([H])c2c([H])c(Oc3c([H])c([H])c(C([H])(C([H])([H])[H])[N+]([H])([H])C([H])([H])C([H])([H])C([H])([H])C([H])(C(=O)N4C([H])([H])C([H])([H])C([H])([H])C([H])(n5nc(-c6c([H])c([H])c(Oc7c([H])c([H])c(F)c([H])c7F)c([H])c6[H])c(C(=O)N([H])[H])c5N([H])[H])C4([H])[H])[N+]([H])([H])[H])c(F)c3[H])c([H])c([H])c2C1([H])[H]

$$$$
56:0:0
     RDKit          3D

 91 99  0  0  1  0  0  0  0  0999 V2000
  -29.8480  -17.1590   18.6130 C   0  0  0  0  0  3  0  0  0  0  0  0
  -29.7440  -18.2290   20.7640 C   0  0  0  0  0  3  0  0  0  0  0  0
  -29.9730  -16.9040   19.9990 C   0  0  0  0  0  0  0  0  0  0  0  0
  -29.6970  -18.4500   18.0300 C   0  0  0  0  0  0  0  0  0  0  0  0
  -29.4710  -19.6510   20.2040 C   0  0  0  0  0  0  0  0  0  0  0  0
  -29.5770  -19.6460   18.7970 C   0  0  0  0  0  0  0  0  0  0  0  0
  -30.5860  -15.3680   20.3420 C   0  0  0  0  0  0  0  0  0  0  0  0
  -30.5130  -12.9410   19.4080 C   0  0  0  0  0  2  0  0  0  0  0  0
  -29.6100  -12.7900   18.1560 C   0  0  0  0  0  2  0  0  0  0  0  0
  -28.1520  -12.5180   18.5690 C   0  0  0  0  0  2  0  0  0  0  0  0
  -27.6920  -13.4640   19.7060 C   0  0  0  0  0  3  0  0  0  0  0  0
  -28.7270  -13.5980   20.8360 C   0  0  0  0  0  2  0  0  0  0  0  0
  -29.9740  -14.0870   20.2300 N   0  0  0  0  0  0  0  0  0  0  0  0
  -31.8210  -15.2820   20.2740 O   0  0  0  0  0  0  0  0  0  0  0  0
  -25.3160  -14.0140   20.4430 C   0  0  0  0  0  0  0  0  0  0  0  0
  -24.2520  -13.2360   20.7980 C   0  0  0  0  0  0  0  0  0  0  0  0
  -24.7220  -11.8890   20.7810 C   0  0  0  0  0  0  0  0  0  0  0  0
  -26.3630  -13.1420   20.2080 N   0  0  0  0  0  0  0  0  0  0  0  0
  -26.0180  -11.8580   20.4840 N   0  0  0  0  0  0  0  0  0  0  0  0
  -23.9960  -10.6260   20.9680 C   0  0  0  0  0  0  0  0  0  0  0  0
  -24.4090   -9.6650   21.9170 C   0  0  0  0  0  3  0  0  0  0  0  0
  -23.6790   -8.4710   22.0920 C   0  0  0  0  0  3  0  0  0  0  0  0
  -22.5200   -8.2260   21.3180 C   0  0  0  0  0  0  0  0  0  0  0  0
  -22.1260   -9.1750   20.3580 C   0  0  0  0  0  3  0  0  0  0  0  0
  -22.8590  -10.3610   20.1810 C   0  0  0  0  0  3  0  0  0  0  0  0
  -21.7640   -7.0810   21.3980 O   0  0  0  0  0  0  0  0  0  0  0  0
  -21.7000   -6.3390   22.5510 C   0  0  0  0  0  0  0  0  0  0  0  0
  -21.2640   -6.8950   23.7710 C   0  0  0  0  0  3  0  0  0  0  0  0
  -21.1480   -6.0810   24.9170 C   0  0  0  0  0  3  0  0  0  0  0  0
  -21.4580   -4.7110   24.8400 C   0  0  0  0  0  0  0  0  0  0  0  0
  -21.8880   -4.1530   23.6240 C   0  0  0  0  0  3  0  0  0  0  0  0
  -22.0090   -4.9660   22.4820 C   0  0  0  0  0  0  0  0  0  0  0  0
  -22.4020   -4.4170   21.3070 F   0  0  0  0  0  0  0  0  0  0  0  0
  -21.3420   -3.9270   25.9370 F   0  0  0  0  0  0  0  0  0  0  0  0
  -22.8460  -13.7120   21.0350 C   0  0  0  0  0  0  0  0  0  0  0  0
  -22.1060  -13.0300   21.9020 N   0  0  0  0  0  0  0  0  0  0  0  0
  -22.4140  -14.7250   20.4870 O   0  0  0  0  0  0  0  0  0  0  0  0
  -22.4660  -12.2120   22.3710 H   0  0  0  0  0  0  0  0  0  0  0  0
  -21.1600  -13.3280   22.0980 H   0  0  0  0  0  0  0  0  0  0  0  0
  -25.4800  -15.3850   20.2640 N   0  0  0  0  0  0  0  0  0  0  0  0
  -24.7110  -16.0380   20.3650 H   0  0  0  0  0  0  0  0  0  0  0  0
  -26.3400  -15.8240   19.9690 H   0  0  0  0  0  0  0  0  0  0  0  0
  -30.8870  -21.3670   17.9070 C   0  0  0  0  0  1  0  0  0  0  0  0
  -29.5790  -20.8550   18.1530 O   0  0  0  0  0  0  0  0  0  0  0  0
  -29.7040  -18.5420   16.5000 C   0  0  0  0  0  2  0  0  0  0  0  0
  -27.2030  -19.1930   16.5580 C   0  0  0  0  0  1  0  0  0  0  0  0
  -28.5720  -19.3980   15.8900 C   0  0  0  0  0  2  0  0  0  0  0  0
  -29.0670  -21.1910   20.9310 C   0  0  0  0  0  2  0  0  0  0  0  0
  -28.9630  -22.8760   20.2930 C   0  0  0  0  0  3  0  0  0  0  0  0
  -28.2690  -24.4170   20.9020 C   0  0  0  0  0  3  0  0  0  0  0  0
  -28.4350  -26.0120   20.5530 O   0  0  0  0  0  0  0  0  0  0  0  0
  -24.6880  -31.9590   23.2760 C   0  0  0  0  0  0  0  0  0  0  0  0
  -27.3870  -27.0590   20.4920 C   0  0  0  0  0  0  0  0  0  0  0  0
  -23.5540  -30.5010   21.6480 C   0  0  0  0  0  3  0  0  0  0  0  0
  -25.0600  -28.8800   20.3130 C   0  0  0  0  0  0  0  0  0  0  0  0
  -26.1180  -30.7570   21.5570 C   0  0  0  0  0  2  0  0  0  0  0  0
  -26.2260  -29.3320   20.9480 C   0  0  0  0  0  0  0  0  0  0  0  0
  -27.3880  -28.4430   21.0050 C   0  0  0  0  0  3  0  0  0  0  0  0
  -26.1940  -26.7500   19.8040 C   0  0  0  0  0  3  0  0  0  0  0  0
  -25.0670  -27.6070   19.7200 C   0  0  0  0  0  3  0  0  0  0  0  0
  -23.8280  -29.7800   20.2990 C   0  0  0  0  0  2  0  0  0  0  0  0
  -24.8060  -31.1030   22.2120 N   0  0  0  0  0  0  0  0  0  0  0  0
  -23.5830  -32.2450   23.7660 O   0  0  0  0  0  0  0  0  0  0  0  0
  -22.8560  -29.5190   22.6260 C   0  0  0  0  0  0  0  0  0  0  0  0
  -21.5320  -29.3320   22.4750 N   0  0  0  0  0  0  0  0  0  0  0  0
  -23.5110  -28.9240   23.4860 O   0  0  0  0  0  0  0  0  0  0  0  0
  -21.0560  -29.8560   21.7540 H   0  0  0  0  0  0  0  0  0  0  0  0
  -18.1510  -28.1060   22.9500 C   0  0  0  0  0  0  0  0  0  0  0  0
  -20.7040  -28.4030   23.2520 C   0  0  0  0  0  3  0  0  0  0  0  0
  -20.8290  -26.9590   22.7110 C   0  0  0  0  0  2  0  0  0  0  0  0
  -19.7490  -26.6030   21.6860 C   0  0  0  0  0  2  0  0  0  0  0  0
  -18.3550  -26.7450   22.3030 C   0  0  0  0  0  2  0  0  0  0  0  0
  -19.2550  -28.8900   23.3820 C   0  0  0  0  0  0  0  0  0  0  0  0
  -19.0080  -30.1600   23.9470 C   0  0  0  0  0  3  0  0  0  0  0  0
  -17.6940  -30.6460   24.0860 C   0  0  0  0  0  3  0  0  0  0  0  0
  -16.6060  -29.8580   23.6720 C   0  0  0  0  0  3  0  0  0  0  0  0
  -16.8360  -28.5900   23.1070 C   0  0  0  0  0  3  0  0  0  0  0  0
  -25.9360  -32.6380   23.9220 C   0  0  0  0  0  3  0  0  0  0  0  0
  -25.5880  -34.0380   24.2150 N   0  0  0  0  0  0  0  0  0  0  0  0
  -25.9230  -35.0890   23.4560 C   0  0  0  0  0  0  0  0  0  0  0  0
  -26.6220  -34.9840   22.4450 O   0  0  0  0  0  0  0  0  0  0  0  0
  -24.9660  -34.1890   24.9960 H   0  0  0  0  0  0  0  0  0  0  0  0
  -24.1800  -36.8590   23.0360 C   0  0  0  0  0  1  0  0  0  0  0  0
  -25.4040  -36.4780   23.8850 C   0  0  0  0  0  3  0  0  0  0  0  0
  -27.5010  -37.4080   24.7650 C   0  0  0  0  0  1  0  0  0  0  0  0
  -26.4250  -37.5440   23.7880 N   0  0  0  0  0  0  0  0  0  0  0  0
  -26.0040  -38.4620   23.9040 H   0  0  0  0  0  0  0  0  0  0  0  0
  -26.4250  -31.9110   25.2370 C   0  0  1  0  0  0  0  0  0  0  0  0
  -25.2980  -31.6760   26.2710 C   0  0  0  0  0  1  0  0  0  0  0  0
  -27.0540  -30.5370   24.9100 C   0  0  0  0  0  1  0  0  0  0  0  0
  -27.5330  -32.7500   25.9170 C   0  0  0  0  0  1  0  0  0  0  0  0
  1  3  1  0
  3  7  1  0
  3  2  2  0
  4  1  2  0
  4  6  1  0
  5  2  1  0
  5 48  1  0
  6  5  2  0
  8 13  1  0
  9 10  1  0
  9  8  1  0
 11 10  1  0
 11 18  1  0
 11 12  1  0
 13  7  1  0
 13 12  1  0
 14  7  2  0
 15 16  2  0
 16 35  1  0
 17 16  1  0
 17 20  1  0
 18 15  1  0
 18 19  1  0
 19 17  2  0
 20 21  1  0
 21 22  2  0
 23 26  1  0
 23 22  1  0
 24 23  2  0
 25 24  1  0
 25 20  2  0
 26 27  1  0
 27 28  1  0
 28 29  2  0
 30 29  1  0
 30 34  1  0
 31 30  2  0
 32 27  2  0
 32 31  1  0
 33 32  1  0
 35 36  1  0
 36 39  1  0
 36 38  1  0
 37 35  2  0
 40 41  1  0
 40 15  1  0
 42 40  1  0
 43 44  1  0
 44  6  1  0
 45  4  1  0
 47 45  1  0
 47 46  1  0
 49 50  2  0
 49 48  1  0
 51 50  1  0
 52 63  2  0
 53 51  1  0
 53 58  1  0
 54 62  1  0
 54 64  1  0
 55 57  1  0
 56 62  1  0
 57 58  2  0
 57 56  1  0
 59 53  2  0
 60 59  1  0
 60 55  2  0
 61 55  1  0
 61 54  1  0
 62 52  1  0
 64 66  2  0
 65 64  1  0
 67 65  1  0
 68 77  2  0
 68 73  1  0
 69 65  1  0
 69 73  1  0
 70 69  1  0
 71 72  1  0
 71 70  1  0
 72 68  1  0
 73 74  2  0
 74 75  1  0
 76 75  2  0
 77 76  1  0
 78 52  1  0
 78 79  1  0
 78 88  1  0
 79 82  1  0
 80 84  1  0
 80 79  1  0
 81 80  2  0
 84 83  1  0
 86 84  1  0
 86 87  1  0
 86 85  1  0
 88 91  1  1
 88 89  1  0
 90 88  1  0
M  ISO  4   3 100   7 100  50 101  51 101
M  END
>  <TORSDO>  (56) 
F 22

>  <SCORE>  (56) 
-14.269

>  <name>  (56) 
56

>  <ligand_id>  (56) 
56

>  <original_smiles>  (56) 
[H]c1c([H])c([H])c2c(c1[H])C([H])([H])C([H])([H])C([H])([H])C2([H])N([H])C(=O)C1([H])N(C(=O)C([H])(N([H])C(=O)C([H])(N([H])C([H])([H])[H])C([H])([H])[H])C(C([H])([H])[H])(C([H])([H])[H])C([H])([H])[H])C([H])([H])c2c([H])c(OC([H])([H])C([H])([H])C([H])([H])c3c([H])c(C(=O)N4C([H])([H])C([H])([H])C([H])([H])C([H])(n5nc(-c6c([H])c([H])c(Oc7c([H])c([H])c(F)c([H])c7F)c([H])c6[H])c(C(=O)N([H])[H])c5N([H])[H])C4([H])[H])c([H])c(C([H])([H])C([H])([H])C([H])([H])[H])c3OC([H])([H])[H])c([H])c([H])c2C1([H])[H]

>  <smiles>  (56) 
[H]c1c([H])c([H])c2c(c1[H])C([H])([H])C([H])([H])C([H])([H])C2([H])N([H])C(=O)C1([H])N(C(=O)C([H])(N([H])C(=O)C([H])(N([H])C([H])([H])[H])C([H])([H])[H])C(C([H])([H])[H])(C([H])([H])[H])C([H])([H])[H])C([H])([H])c2c([H])c(OC([H])([H])C([H])([H])C([H])([H])c3c([H])c(C(=O)N4C([H])([H])C([H])([H])C([H])([H])C([H])(n5nc(-c6c([H])c([H])c(Oc7c([H])c([H])c(F)c([H])c7F)c([H])c6[H])c(C(=O)N([H])[H])c5N([H])[H])C4([H])[H])c([H])c(C([H])([H])C([H])([H])C([H])([H])[H])c3OC([H])([H])[H])c([H])c([H])c2C1([H])[H]

$$$$
57:0:0
     RDKit          3D

 90 98  0  0  1  0  0  0  0  0999 V2000
  -28.6840  -19.5700   19.5000 C   0  0  0  0  0  3  0  0  0  0  0  0
  -28.3880  -20.9880   19.4000 C   0  0  0  0  0  3  0  0  0  0  0  0
  -30.1600  -20.0300   21.2810 C   0  0  0  0  0  3  0  0  0  0  0  0
  -29.6260  -19.0120   20.4230 C   0  0  0  0  0  0  0  0  0  0  0  0
  -28.9930  -22.0120   20.2070 C   0  0  0  0  0  0  0  0  0  0  0  0
  -29.8720  -21.4480   21.1890 C   0  0  0  0  0  0  0  0  0  0  0  0
  -30.6210  -22.3750   22.1280 C   0  0  0  0  0  1  0  0  0  0  0  0
  -29.7800  -16.2340   20.4720 C   0  0  0  0  0  3  0  0  0  0  0  0
  -30.2600  -17.5600   20.3700 C   0  0  0  0  0  0  0  0  0  0  0  0
  -30.5830  -14.9180   20.3110 C   0  0  0  0  0  0  0  0  0  0  0  0
  -30.3970  -12.5900   19.3730 C   0  0  0  0  0  2  0  0  0  0  0  0
  -29.4690  -12.6060   18.1360 C   0  0  0  0  0  2  0  0  0  0  0  0
  -28.0030  -12.4140   18.5650 C   0  0  0  0  0  2  0  0  0  0  0  0
  -27.6090  -13.3230   19.7580 C   0  0  0  0  0  3  0  0  0  0  0  0
  -28.6650  -13.3080   20.8820 C   0  0  0  0  0  2  0  0  0  0  0  0
  -29.9520  -13.6800   20.2850 N   0  0  0  0  0  0  0  0  0  0  0  0
  -31.7860  -14.9130   20.0290 O   0  0  0  0  0  0  0  0  0  0  0  0
  -25.2300  -13.8950   20.5090 C   0  0  0  0  0  0  0  0  0  0  0  0
  -24.1690  -13.1150   20.8810 C   0  0  0  0  0  0  0  0  0  0  0  0
  -24.6380  -11.7660   20.8440 C   0  0  0  0  0  0  0  0  0  0  0  0
  -26.2740  -13.0210   20.2610 N   0  0  0  0  0  0  0  0  0  0  0  0
  -25.9280  -11.7350   20.5300 N   0  0  0  0  0  0  0  0  0  0  0  0
  -23.9160  -10.5010   21.0320 C   0  0  0  0  0  0  0  0  0  0  0  0
  -24.3460   -9.5370   21.9720 C   0  0  0  0  0  3  0  0  0  0  0  0
  -23.6210   -8.3370   22.1480 C   0  0  0  0  0  3  0  0  0  0  0  0
  -22.4550   -8.0940   21.3840 C   0  0  0  0  0  0  0  0  0  0  0  0
  -22.0450   -9.0450   20.4350 C   0  0  0  0  0  3  0  0  0  0  0  0
  -22.7690  -10.2360   20.2560 C   0  0  0  0  0  3  0  0  0  0  0  0
  -21.7030   -6.9470   21.4700 O   0  0  0  0  0  0  0  0  0  0  0  0
  -21.6370   -6.2130   22.6270 C   0  0  0  0  0  0  0  0  0  0  0  0
  -21.1710   -6.7710   23.8380 C   0  0  0  0  0  3  0  0  0  0  0  0
  -21.0550   -5.9640   24.9860 C   0  0  0  0  0  3  0  0  0  0  0  0
  -21.3940   -4.5980   24.9250 C   0  0  0  0  0  0  0  0  0  0  0  0
  -21.8530   -4.0400   23.7190 C   0  0  0  0  0  3  0  0  0  0  0  0
  -21.9720   -4.8440   22.5730 C   0  0  0  0  0  0  0  0  0  0  0  0
  -22.3950   -4.2970   21.4080 F   0  0  0  0  0  0  0  0  0  0  0  0
  -21.2750   -3.8200   26.0260 F   0  0  0  0  0  0  0  0  0  0  0  0
  -22.7710  -13.5880   21.1550 C   0  0  0  0  0  0  0  0  0  0  0  0
  -22.0450  -12.8860   22.0180 N   0  0  0  0  0  0  0  0  0  0  0  0
  -22.3310  -14.6140   20.6390 O   0  0  0  0  0  0  0  0  0  0  0  0
  -22.4140  -12.0560   22.4570 H   0  0  0  0  0  0  0  0  0  0  0  0
  -21.1080  -13.1860   22.2450 H   0  0  0  0  0  0  0  0  0  0  0  0
  -25.3870  -15.2670   20.3360 N   0  0  0  0  0  0  0  0  0  0  0  0
  -24.6150  -15.9160   20.4520 H   0  0  0  0  0  0  0  0  0  0  0  0
  -26.2290  -15.7130   19.9960 H   0  0  0  0  0  0  0  0  0  0  0  0
  -31.5660  -17.7300   20.1170 O   0  0  0  0  0  0  0  0  0  0  0  0
  -31.7100  -18.6620   20.0030 H   0  0  0  0  0  0  0  0  0  0  0  0
  -28.9350  -23.6070   19.8300 C   0  0  0  0  0  3  0  0  0  0  0  0
  -28.0680  -24.8210   20.5350 C   0  0  0  0  0  3  0  0  0  0  0  0
  -28.2880  -26.3120   20.2220 O   0  0  0  0  0  0  0  0  0  0  0  0
  -24.6060  -31.9050   23.2150 C   0  0  0  0  0  0  0  0  0  0  0  0
  -27.2060  -27.2420   20.1980 C   0  0  0  0  0  0  0  0  0  0  0  0
  -23.4120  -30.5010   21.5760 C   0  0  0  0  0  3  0  0  0  0  0  0
  -24.8670  -28.9360   20.1580 C   0  0  0  0  0  0  0  0  0  0  0  0
  -25.9600  -30.7930   21.4090 C   0  0  0  0  0  2  0  0  0  0  0  0
  -26.0410  -29.4020   20.7640 C   0  0  0  0  0  0  0  0  0  0  0  0
  -27.2150  -28.5700   20.7650 C   0  0  0  0  0  3  0  0  0  0  0  0
  -26.0110  -26.8610   19.5530 C   0  0  0  0  0  3  0  0  0  0  0  0
  -24.8600  -27.6770   19.5390 C   0  0  0  0  0  3  0  0  0  0  0  0
  -23.6360  -29.8240   20.1980 C   0  0  0  0  0  2  0  0  0  0  0  0
  -24.6790  -31.0870   22.1220 N   0  0  0  0  0  0  0  0  0  0  0  0
  -23.5190  -32.1840   23.7420 O   0  0  0  0  0  0  0  0  0  0  0  0
  -22.7410  -29.4900   22.5370 C   0  0  0  0  0  0  0  0  0  0  0  0
  -21.4120  -29.3180   22.4120 N   0  0  0  0  0  0  0  0  0  0  0  0
  -23.4160  -28.8620   23.3580 O   0  0  0  0  0  0  0  0  0  0  0  0
  -20.9250  -29.8760   21.7250 H   0  0  0  0  0  0  0  0  0  0  0  0
  -18.0290  -28.1380   22.9330 C   0  0  0  0  0  0  0  0  0  0  0  0
  -20.5920  -28.3820   23.1840 C   0  0  0  0  0  3  0  0  0  0  0  0
  -20.6790  -26.9520   22.6000 C   0  0  0  0  0  2  0  0  0  0  0  0
  -19.5680  -26.6420   21.5920 C   0  0  0  0  0  2  0  0  0  0  0  0
  -18.1920  -26.7920   22.2480 C   0  0  0  0  0  2  0  0  0  0  0  0
  -19.1550  -28.8920   23.3590 C   0  0  0  0  0  0  0  0  0  0  0  0
  -18.9490  -30.1520   23.9610 C   0  0  0  0  0  3  0  0  0  0  0  0
  -17.6480  -30.6580   24.1410 C   0  0  0  0  0  3  0  0  0  0  0  0
  -16.5360  -29.9030   23.7310 C   0  0  0  0  0  3  0  0  0  0  0  0
  -16.7280  -28.6440   23.1320 C   0  0  0  0  0  3  0  0  0  0  0  0
  -25.8820  -32.5440   23.8420 C   0  0  0  0  0  3  0  0  0  0  0  0
  -26.3890  -31.7830   25.1290 C   0  0  1  0  0  0  0  0  0  0  0  0
  -25.2870  -31.5520   26.1910 C   0  0  0  0  0  1  0  0  0  0  0  0
  -26.9770  -30.4030   24.7550 C   0  0  0  0  0  1  0  0  0  0  0  0
  -27.5350  -32.5830   25.7940 C   0  0  0  0  0  1  0  0  0  0  0  0
  -25.5680  -33.9450   24.1660 N   0  0  0  0  0  0  0  0  0  0  0  0
  -25.9010  -34.9960   23.4050 C   0  0  0  0  0  0  0  0  0  0  0  0
  -26.5730  -34.8890   22.3760 O   0  0  0  0  0  0  0  0  0  0  0  0
  -24.9710  -34.1020   24.9640 H   0  0  0  0  0  0  0  0  0  0  0  0
  -24.1810  -36.7950   23.0350 C   0  0  0  0  0  1  0  0  0  0  0  0
  -25.4130  -36.3860   23.8580 C   0  0  0  0  0  3  0  0  0  0  0  0
  -27.5380  -37.2700   24.7130 C   0  0  0  0  0  1  0  0  0  0  0  0
  -26.4500  -37.4370   23.7550 N   0  0  0  0  0  0  0  0  0  0  0  0
  -26.0440  -38.3590   23.8930 H   0  0  0  0  0  0  0  0  0  0  0  0
  1  4  1  0
  2  1  2  0
  2  5  1  0
  4  3  2  0
  5  6  2  0
  6  3  1  0
  6  7  1  0
  9  4  1  0
  9  8  2  0
 10  8  1  0
 11 16  1  0
 12 13  1  0
 12 11  1  0
 14 13  1  0
 14 21  1  0
 14 15  1  0
 16 10  1  0
 16 15  1  0
 17 10  2  0
 18 19  2  0
 19 38  1  0
 20 19  1  0
 20 23  1  0
 21 18  1  0
 21 22  1  0
 22 20  2  0
 23 24  1  0
 24 25  2  0
 26 29  1  0
 26 25  1  0
 27 26  2  0
 28 27  1  0
 28 23  2  0
 29 30  1  0
 30 31  1  0
 31 32  2  0
 33 32  1  0
 33 37  1  0
 34 33  2  0
 35 30  2  0
 35 34  1  0
 36 35  1  0
 38 39  1  0
 39 42  1  0
 39 41  1  0
 40 38  2  0
 43 44  1  0
 43 18  1  0
 45 43  1  0
 46  9  1  0
 47 46  1  0
 48  5  1  0
 48 49  2  0
 50 49  1  0
 51 62  2  0
 52 50  1  0
 52 57  1  0
 53 61  1  0
 53 63  1  0
 54 60  1  0
 54 56  1  0
 55 61  1  0
 56 57  2  0
 56 55  1  0
 58 52  2  0
 59 58  1  0
 59 54  2  0
 60 53  1  0
 61 51  1  0
 63 65  2  0
 64 63  1  0
 66 64  1  0
 67 76  2  0
 67 72  1  0
 68 64  1  0
 68 72  1  0
 69 68  1  0
 70 71  1  0
 70 69  1  0
 71 67  1  0
 72 73  2  0
 73 74  1  0
 75 74  2  0
 76 75  1  0
 77 51  1  0
 77 82  1  0
 77 78  1  0
 78 81  1  1
 78 79  1  0
 80 78  1  0
 82 85  1  0
 83 87  1  0
 83 82  1  0
 84 83  2  0
 87 86  1  0
 89 87  1  0
 89 90  1  0
 89 88  1  0
M  ISO  4   8 100  10 100  49 101  50 101
M  END
>  <TORSDO>  (57) 
F 20

>  <SCORE>  (57) 
-14.189

>  <name>  (57) 
57

>  <ligand_id>  (57) 
57

>  <original_smiles>  (57) 
[H]OC(=C([H])C(=O)N1C([H])([H])C([H])([H])C([H])([H])C([H])(n2nc(-c3c([H])c([H])c(Oc4c([H])c([H])c(F)c([H])c4F)c([H])c3[H])c(C(=O)N([H])[H])c2N([H])[H])C1([H])[H])c1c([H])c([H])c(C([H])([H])C([H])([H])Oc2c([H])c([H])c3c(c2[H])C([H])([H])N(C(=O)C([H])(N([H])C(=O)C([H])(N([H])C([H])([H])[H])C([H])([H])[H])C(C([H])([H])[H])(C([H])([H])[H])C([H])([H])[H])C([H])(C(=O)N([H])C2([H])c4c([H])c([H])c([H])c([H])c4C([H])([H])C([H])([H])C2([H])[H])C3([H])[H])c(C([H])([H])[H])c1[H]

>  <smiles>  (57) 
[H]OC(=C([H])C(=O)N1C([H])([H])C([H])([H])C([H])([H])C([H])(n2nc(-c3c([H])c([H])c(Oc4c([H])c([H])c(F)c([H])c4F)c([H])c3[H])c(C(=O)N([H])[H])c2N([H])[H])C1([H])[H])c1c([H])c([H])c(C([H])([H])C([H])([H])Oc2c([H])c([H])c3c(c2[H])C([H])([H])N(C(=O)C([H])(N([H])C(=O)C([H])(N([H])C([H])([H])[H])C([H])([H])[H])C(C([H])([H])[H])(C([H])([H])[H])C([H])([H])[H])C([H])(C(=O)N([H])C2([H])c4c([H])c([H])c([H])c([H])c4C([H])([H])C([H])([H])C2([H])[H])C3([H])[H])c(C([H])([H])[H])c1[H]

$$$$
58:0:0
     RDKit          3D

 90 98  0  0  1  0  0  0  0  0999 V2000
  -30.8380  -23.7600   21.2930 C   0  0  0  0  0  3  0  0  0  0  0  0
  -30.3920  -22.4520   21.0070 C   0  0  0  0  0  3  0  0  0  0  0  0
  -30.0620  -24.9060   21.0150 C   0  0  0  0  0  3  0  0  0  0  0  0
  -29.1260  -22.1920   20.4440 C   0  0  0  0  0  0  0  0  0  0  0  0
  -28.3260  -23.4510   20.1480 C   0  0  0  0  0  0  0  0  0  0  0  0
  -28.7850  -24.8630   20.4130 C   0  0  0  0  0  0  0  0  0  0  0  0
  -26.9610  -23.3090   19.4930 C   0  0  0  0  0  1  0  0  0  0  0  0
  -28.7450  -20.5930   20.4140 C   0  0  0  0  0  0  0  0  0  0  0  0
  -27.6040  -20.2930   20.7730 O   0  0  0  0  0  0  0  0  0  0  0  0
  -29.6680  -19.2650   19.9450 C   0  0  0  0  0  2  0  0  0  0  0  0
  -29.9720  -17.7850   20.7670 C   0  0  0  0  0  2  0  0  0  0  0  0
  -30.5490  -15.0540   20.2280 C   0  0  0  0  0  0  0  0  0  0  0  0
  -30.4450  -12.6870   19.2770 C   0  0  0  0  0  2  0  0  0  0  0  0
  -29.5000  -12.5960   18.0550 C   0  0  0  0  0  2  0  0  0  0  0  0
  -28.0410  -12.3820   18.5010 C   0  0  0  0  0  2  0  0  0  0  0  0
  -27.6360  -13.3260   19.6640 C   0  0  0  0  0  3  0  0  0  0  0  0
  -28.6980  -13.3600   20.7810 C   0  0  0  0  0  2  0  0  0  0  0  0
  -29.9530  -13.7920   20.1510 N   0  0  0  0  0  0  0  0  0  0  0  0
  -31.7670  -15.1020   20.0250 O   0  0  0  0  0  0  0  0  0  0  0  0
  -29.7570  -16.2500   20.3330 N   0  0  0  0  0  0  0  0  0  0  0  0
  -28.7770  -16.0130   20.3080 H   0  0  0  0  0  0  0  0  0  0  0  0
  -25.2680  -13.9260   20.4210 C   0  0  0  0  0  0  0  0  0  0  0  0
  -24.2010  -13.1610   20.8010 C   0  0  0  0  0  0  0  0  0  0  0  0
  -24.6560  -11.8070   20.7760 C   0  0  0  0  0  0  0  0  0  0  0  0
  -26.3020  -13.0380   20.1760 N   0  0  0  0  0  0  0  0  0  0  0  0
  -25.9450  -11.7600   20.4590 N   0  0  0  0  0  0  0  0  0  0  0  0
  -23.9200  -10.5520   20.9780 C   0  0  0  0  0  0  0  0  0  0  0  0
  -24.3480   -9.5850   21.9140 C   0  0  0  0  0  3  0  0  0  0  0  0
  -23.6110   -8.3960   22.1020 C   0  0  0  0  0  3  0  0  0  0  0  0
  -22.4320   -8.1660   21.3550 C   0  0  0  0  0  0  0  0  0  0  0  0
  -22.0230   -9.1210   20.4080 C   0  0  0  0  0  3  0  0  0  0  0  0
  -22.7600  -10.3020   20.2170 C   0  0  0  0  0  3  0  0  0  0  0  0
  -21.6660   -7.0290   21.4540 O   0  0  0  0  0  0  0  0  0  0  0  0
  -21.6200   -6.2920   22.6100 C   0  0  0  0  0  0  0  0  0  0  0  0
  -21.2190   -6.8580   23.8400 C   0  0  0  0  0  3  0  0  0  0  0  0
  -21.1170   -6.0470   24.9880 C   0  0  0  0  0  3  0  0  0  0  0  0
  -21.4060   -4.6720   24.9080 C   0  0  0  0  0  0  0  0  0  0  0  0
  -21.8000   -4.1050   23.6830 C   0  0  0  0  0  3  0  0  0  0  0  0
  -21.9030   -4.9130   22.5370 C   0  0  0  0  0  0  0  0  0  0  0  0
  -22.2620   -4.3580   21.3540 F   0  0  0  0  0  0  0  0  0  0  0  0
  -21.3020   -3.8910   26.0080 F   0  0  0  0  0  0  0  0  0  0  0  0
  -22.8070  -13.6520   21.0710 C   0  0  0  0  0  0  0  0  0  0  0  0
  -22.0770  -12.9700   21.9470 N   0  0  0  0  0  0  0  0  0  0  0  0
  -22.3770  -14.6750   20.5410 O   0  0  0  0  0  0  0  0  0  0  0  0
  -22.4400  -12.1440   22.3980 H   0  0  0  0  0  0  0  0  0  0  0  0
  -21.1410  -13.2790   22.1670 H   0  0  0  0  0  0  0  0  0  0  0  0
  -25.4400  -15.2940   20.2330 N   0  0  0  0  0  0  0  0  0  0  0  0
  -24.6790  -15.9540   20.3570 H   0  0  0  0  0  0  0  0  0  0  0  0
  -26.2760  -15.7260   19.8620 H   0  0  0  0  0  0  0  0  0  0  0  0
  -28.3780  -26.2330   20.0060 O   0  0  0  0  0  0  0  0  0  0  0  0
  -24.6550  -31.8570   23.1920 C   0  0  0  0  0  0  0  0  0  0  0  0
  -27.2410  -27.1110   20.1820 C   0  0  0  0  0  0  0  0  0  0  0  0
  -23.4530  -30.4500   21.5620 C   0  0  0  0  0  3  0  0  0  0  0  0
  -24.8980  -28.8570   20.1540 C   0  0  0  0  0  0  0  0  0  0  0  0
  -26.0050  -30.7160   21.3850 C   0  0  0  0  0  2  0  0  0  0  0  0
  -26.0800  -29.3100   20.7560 C   0  0  0  0  0  0  0  0  0  0  0  0
  -27.2480  -28.4550   20.7500 C   0  0  0  0  0  3  0  0  0  0  0  0
  -26.0310  -26.7650   19.5430 C   0  0  0  0  0  3  0  0  0  0  0  0
  -24.8860  -27.5960   19.5370 C   0  0  0  0  0  3  0  0  0  0  0  0
  -23.6730  -29.7600   20.1890 C   0  0  0  0  0  2  0  0  0  0  0  0
  -24.7250  -31.0330   22.1010 N   0  0  0  0  0  0  0  0  0  0  0  0
  -23.5700  -32.1390   23.7230 O   0  0  0  0  0  0  0  0  0  0  0  0
  -22.7800  -29.4450   22.5310 C   0  0  0  0  0  0  0  0  0  0  0  0
  -21.4510  -29.2750   22.4150 N   0  0  0  0  0  0  0  0  0  0  0  0
  -23.4590  -28.8200   23.3500 O   0  0  0  0  0  0  0  0  0  0  0  0
  -20.9600  -29.8300   21.7280 H   0  0  0  0  0  0  0  0  0  0  0  0
  -18.0740  -28.0750   22.9470 C   0  0  0  0  0  0  0  0  0  0  0  0
  -20.6350  -28.3380   23.1920 C   0  0  0  0  0  3  0  0  0  0  0  0
  -20.7320  -26.9070   22.6140 C   0  0  0  0  0  2  0  0  0  0  0  0
  -19.6210  -26.5860   21.6100 C   0  0  0  0  0  2  0  0  0  0  0  0
  -18.2460  -26.7270   22.2660 C   0  0  0  0  0  2  0  0  0  0  0  0
  -19.1960  -28.8380   23.3670 C   0  0  0  0  0  0  0  0  0  0  0  0
  -18.9800  -30.0980   23.9650 C   0  0  0  0  0  3  0  0  0  0  0  0
  -17.6760  -30.5950   24.1470 C   0  0  0  0  0  3  0  0  0  0  0  0
  -16.5690  -29.8300   23.7410 C   0  0  0  0  0  3  0  0  0  0  0  0
  -16.7700  -28.5720   23.1470 C   0  0  0  0  0  3  0  0  0  0  0  0
  -25.9320  -32.4990   23.8130 C   0  0  0  0  0  3  0  0  0  0  0  0
  -26.4610  -31.7230   25.0820 C   0  0  1  0  0  0  0  0  0  0  0  0
  -25.3780  -31.4730   26.1570 C   0  0  0  0  0  1  0  0  0  0  0  0
  -27.0470  -30.3500   24.6820 C   0  0  0  0  0  1  0  0  0  0  0  0
  -27.6120  -32.5180   25.7400 C   0  0  0  0  0  1  0  0  0  0  0  0
  -25.6130  -33.8930   24.1620 N   0  0  0  0  0  0  0  0  0  0  0  0
  -25.9240  -34.9590   23.4120 C   0  0  0  0  0  0  0  0  0  0  0  0
  -26.5790  -34.8720   22.3700 O   0  0  0  0  0  0  0  0  0  0  0  0
  -25.0330  -34.0330   24.9770 H   0  0  0  0  0  0  0  0  0  0  0  0
  -24.1730  -36.7400   23.1070 C   0  0  0  0  0  1  0  0  0  0  0  0
  -25.4320  -36.3390   23.8920 C   0  0  0  0  0  3  0  0  0  0  0  0
  -27.5760  -37.2350   24.6910 C   0  0  0  0  0  1  0  0  0  0  0  0
  -26.4530  -37.4030   23.7720 N   0  0  0  0  0  0  0  0  0  0  0  0
  -26.0430  -38.3180   23.9400 H   0  0  0  0  0  0  0  0  0  0  0  0
  2  1  2  0
  3  1  1  0
  4  2  1  0
  5  6  1  0
  5  4  2  0
  6  3  2  0
  7  5  1  0
  8  4  1  0
  8  9  2  0
 10  8  1  0
 10 11  1  0
 12 20  1  0
 13 18  1  0
 14 15  1  0
 14 13  1  0
 16 15  1  0
 16 25  1  0
 16 17  1  0
 18 12  1  0
 18 17  1  0
 19 12  2  0
 20 11  1  0
 21 20  1  0
 22 23  2  0
 23 42  1  0
 24 23  1  0
 24 27  1  0
 25 22  1  0
 25 26  1  0
 26 24  2  0
 27 28  1  0
 28 29  2  0
 30 33  1  0
 30 29  1  0
 31 30  2  0
 32 31  1  0
 32 27  2  0
 33 34  1  0
 34 35  1  0
 35 36  2  0
 37 36  1  0
 37 41  1  0
 38 37  2  0
 39 34  2  0
 39 38  1  0
 40 39  1  0
 42 43  1  0
 43 46  1  0
 43 45  1  0
 44 42  2  0
 47 48  1  0
 47 22  1  0
 49 47  1  0
 50 52  1  0
 50  6  1  0
 51 62  2  0
 52 57  1  0
 53 61  1  0
 53 63  1  0
 54 60  1  0
 54 56  1  0
 55 61  1  0
 56 55  1  0
 57 56  2  0
 58 52  2  0
 59 58  1  0
 59 54  2  0
 60 53  1  0
 61 51  1  0
 63 65  2  0
 64 63  1  0
 66 64  1  0
 67 76  2  0
 67 72  1  0
 68 64  1  0
 68 72  1  0
 69 68  1  0
 70 71  1  0
 70 69  1  0
 71 67  1  0
 72 73  2  0
 73 74  1  0
 75 74  2  0
 76 75  1  0
 77 51  1  0
 77 82  1  0
 77 78  1  0
 78 81  1  1
 78 79  1  0
 80 78  1  0
 82 85  1  0
 83 87  1  0
 83 82  1  0
 84 83  2  0
 87 86  1  0
 89 87  1  0
 89 90  1  0
 89 88  1  0
M  ISO  4   6 101  12 100  20 100  50 101
M  END
>  <TORSDO>  (58) 
F 19

>  <SCORE>  (58) 
-14.818

>  <name>  (58) 
58

>  <ligand_id>  (58) 
58

>  <original_smiles>  (58) 
[H]c1c([H])c(Oc2c([H])c([H])c3c(c2[H])C([H])([H])N(C(=O)C([H])(N([H])C(=O)C([H])(N([H])C([H])([H])[H])C([H])([H])[H])C(C([H])([H])[H])(C([H])([H])[H])C([H])([H])[H])C([H])(C(=O)N([H])C2([H])c4c([H])c([H])c([H])c([H])c4C([H])([H])C([H])([H])C2([H])[H])C3([H])[H])c(C([H])([H])[H])c(C(=O)C([H])([H])C([H])([H])N([H])C(=O)N2C([H])([H])C([H])([H])C([H])([H])C([H])(n3nc(-c4c([H])c([H])c(Oc5c([H])c([H])c(F)c([H])c5F)c([H])c4[H])c(C(=O)N([H])[H])c3N([H])[H])C2([H])[H])c1[H]

>  <smiles>  (58) 
[H]c1c([H])c(Oc2c([H])c([H])c3c(c2[H])C([H])([H])N(C(=O)C([H])(N([H])C(=O)C([H])(N([H])C([H])([H])[H])C([H])([H])[H])C(C([H])([H])[H])(C([H])([H])[H])C([H])([H])[H])C([H])(C(=O)N([H])C2([H])c4c([H])c([H])c([H])c([H])c4C([H])([H])C([H])([H])C2([H])[H])C3([H])[H])c(C([H])([H])[H])c(C(=O)C([H])([H])C([H])([H])N([H])C(=O)N2C([H])([H])C([H])([H])C([H])([H])C([H])(n3nc(-c4c([H])c([H])c(Oc5c([H])c([H])c(F)c([H])c5F)c([H])c4[H])c(C(=O)N([H])[H])c3N([H])[H])C2([H])[H])c1[H]

$$$$
59:0:0
     RDKit          3D

 96104  0  0  1  0  0  0  0  0999 V2000
  -28.9600  -21.7220   20.3330 C   0  0  0  0  0  3  0  0  0  0  0  0
  -27.4390  -22.3860   18.6130 C   0  0  0  0  0  3  0  0  0  0  0  0
  -29.0570  -23.1320   20.6040 C   0  0  0  0  0  0  0  0  0  0  0  0
  -28.1800  -21.1320   19.3140 C   0  0  0  0  0  0  0  0  0  0  0  0
  -27.4030  -23.9840   18.8700 C   0  0  0  0  0  0  0  0  0  0  0  0
  -28.2900  -24.1890   19.9680 C   0  0  0  0  0  0  0  0  0  0  0  0
  -30.1020  -23.4940   21.6040 C   0  0  0  0  0  0  0  0  0  0  0  0
  -29.9480  -24.3000   22.5250 O   0  0  0  0  0  0  0  0  0  0  0  0
  -31.4540  -22.7890   21.4340 C   0  0  0  0  0  2  0  0  0  0  0  0
  -33.3200  -22.3650   19.7310 C   0  0  0  0  0  1  0  0  0  0  0  0
  -32.2720  -23.3590   20.2580 C   0  0  0  0  0  2  0  0  0  0  0  0
  -27.7250  -25.8990   21.4940 C   0  0  0  0  0  1  0  0  0  0  0  0
  -28.4840  -25.4940   20.3550 O   0  0  0  0  0  0  0  0  0  0  0  0
  -26.8170  -25.3270   18.1590 O   0  0  0  0  0  0  0  0  0  0  0  0
  -24.8890  -31.3740   22.7300 C   0  0  0  0  0  0  0  0  0  0  0  0
  -26.0330  -26.6120   18.5870 C   0  0  0  0  0  0  0  0  0  0  0  0
  -23.2040  -30.3620   21.2560 C   0  0  0  0  0  3  0  0  0  0  0  0
  -24.0860  -28.8390   19.3350 C   0  0  0  0  0  0  0  0  0  0  0  0
  -25.6840  -30.2960   20.5370 C   0  0  0  0  0  2  0  0  0  0  0  0
  -25.4260  -28.9740   19.7140 C   0  0  0  0  0  0  0  0  0  0  0  0
  -26.3830  -27.8930   19.3230 C   0  0  0  0  0  3  0  0  0  0  0  0
  -24.6820  -26.7160   18.1730 C   0  0  0  0  0  3  0  0  0  0  0  0
  -23.7460  -27.7350   18.5370 C   0  0  0  0  0  3  0  0  0  0  0  0
  -23.0450  -29.8780   19.7850 C   0  0  0  0  0  2  0  0  0  0  0  0
  -24.6320  -30.7030   21.5560 N   0  0  0  0  0  0  0  0  0  0  0  0
  -23.9840  -31.6750   23.5310 O   0  0  0  0  0  0  0  0  0  0  0  0
  -22.6150  -29.3030   22.2270 C   0  0  0  0  0  0  0  0  0  0  0  0
  -21.2810  -29.1260   22.2400 N   0  0  0  0  0  0  0  0  0  0  0  0
  -23.3690  -28.6400   22.9450 O   0  0  0  0  0  0  0  0  0  0  0  0
  -20.7190  -29.7090   21.6370 H   0  0  0  0  0  0  0  0  0  0  0  0
  -18.0180  -27.6510   22.8580 C   0  0  0  0  0  0  0  0  0  0  0  0
  -20.5580  -28.1210   23.0320 C   0  0  0  0  0  3  0  0  0  0  0  0
  -20.7530  -26.7080   22.4360 C   0  0  0  0  0  2  0  0  0  0  0  0
  -19.6420  -26.3050   21.4620 C   0  0  0  0  0  2  0  0  0  0  0  0
  -18.2760  -26.3300   22.1550 C   0  0  0  0  0  2  0  0  0  0  0  0
  -19.0860  -28.5010   23.2570 C   0  0  0  0  0  0  0  0  0  0  0  0
  -18.7840  -29.7310   23.8800 C   0  0  0  0  0  3  0  0  0  0  0  0
  -17.4490  -30.1130   24.1070 C   0  0  0  0  0  3  0  0  0  0  0  0
  -16.3970  -29.2620   23.7240 C   0  0  0  0  0  3  0  0  0  0  0  0
  -16.6830  -28.0330   23.1030 C   0  0  0  0  0  3  0  0  0  0  0  0
  -26.3340  -31.8030   23.1280 C   0  0  0  0  0  3  0  0  0  0  0  0
  -27.1220  -30.6720   23.8990 C   0  0  1  0  0  0  0  0  0  0  0  0
  -26.3580  -30.0970   25.1150 C   0  0  0  0  0  1  0  0  0  0  0  0
  -27.4580  -29.4950   22.9580 C   0  0  0  0  0  1  0  0  0  0  0  0
  -28.4770  -31.2250   24.3980 C   0  0  0  0  0  1  0  0  0  0  0  0
  -26.2440  -33.0090   23.9730 N   0  0  0  0  0  0  0  0  0  0  0  0
  -26.5370  -34.2540   23.5740 C   0  0  0  0  0  0  0  0  0  0  0  0
  -26.9700  -34.5030   22.4470 O   0  0  0  0  0  0  0  0  0  0  0  0
  -25.8590  -32.8840   24.8980 H   0  0  0  0  0  0  0  0  0  0  0  0
  -25.0120  -36.1460   24.2330 C   0  0  0  0  0  1  0  0  0  0  0  0
  -26.3150  -35.4050   24.5770 C   0  0  0  0  0  3  0  0  0  0  0  0
  -28.6510  -35.8180   25.2170 C   0  0  0  0  0  1  0  0  0  0  0  0
  -27.4330  -36.3730   24.6310 N   0  0  0  0  0  0  0  0  0  0  0  0
  -27.1680  -37.1960   25.1640 H   0  0  0  0  0  0  0  0  0  0  0  0
  -28.3010  -19.2590   19.1230 C   0  0  0  0  0  3  0  0  0  0  0  0
  -26.9650  -18.9270   18.6180 N   0  0  0  0  0  4  0  0  0  0  0  0
  -26.2870  -19.0530   19.3460 H   0  0  0  0  0  0  0  0  0  0  0  0
  -26.9230  -17.9830   18.2800 H   0  0  0  0  0  0  0  0  0  0  0  0
  -26.7370  -19.5430   17.8600 H   0  0  0  0  0  0  0  0  0  0  0  0
  -28.8980  -17.6660   20.1060 C   0  0  0  0  0  2  0  0  0  0  0  0
  -29.8580  -16.0340   19.9300 C   0  0  0  0  0  0  0  0  0  0  0  0
  -30.2460  -13.4250   19.3690 C   0  0  0  0  0  2  0  0  0  0  0  0
  -29.3910  -12.8390   18.2040 C   0  0  0  0  0  2  0  0  0  0  0  0
  -28.0100  -12.3830   18.6990 C   0  0  0  0  0  2  0  0  0  0  0  0
  -27.4150  -13.4150   19.6850 C   0  0  0  0  0  3  0  0  0  0  0  0
  -28.4150  -13.9220   20.7510 C   0  0  0  0  0  2  0  0  0  0  0  0
  -29.5240  -14.6030   20.0450 N   0  0  0  0  0  0  0  0  0  0  0  0
  -31.0680  -16.0660   19.6270 O   0  0  0  0  0  0  0  0  0  0  0  0
  -25.1060  -13.8150   20.6490 C   0  0  0  0  0  0  0  0  0  0  0  0
  -24.0980  -12.9780   21.0370 C   0  0  0  0  0  0  0  0  0  0  0  0
  -24.6040  -11.6490   20.8850 C   0  0  0  0  0  0  0  0  0  0  0  0
  -26.1490  -12.9960   20.2640 N   0  0  0  0  0  0  0  0  0  0  0  0
  -25.8700  -11.6820   20.4770 N   0  0  0  0  0  0  0  0  0  0  0  0
  -23.9280  -10.3540   21.0430 C   0  0  0  0  0  0  0  0  0  0  0  0
  -24.4090   -9.3700   21.9350 C   0  0  0  0  0  3  0  0  0  0  0  0
  -23.7260   -8.1450   22.0850 C   0  0  0  0  0  3  0  0  0  0  0  0
  -22.5490   -7.8940   21.3410 C   0  0  0  0  0  0  0  0  0  0  0  0
  -22.0850   -8.8680   20.4380 C   0  0  0  0  0  3  0  0  0  0  0  0
  -22.7690  -10.0850   20.2860 C   0  0  0  0  0  3  0  0  0  0  0  0
  -21.8320   -6.7230   21.4040 O   0  0  0  0  0  0  0  0  0  0  0  0
  -21.8200   -5.9440   22.5330 C   0  0  0  0  0  0  0  0  0  0  0  0
  -21.3260   -6.4250   23.7660 C   0  0  0  0  0  3  0  0  0  0  0  0
  -21.2650   -5.5690   24.8830 C   0  0  0  0  0  3  0  0  0  0  0  0
  -21.6920   -4.2320   24.7700 C   0  0  0  0  0  0  0  0  0  0  0  0
  -22.1790   -3.7490   23.5440 C   0  0  0  0  0  3  0  0  0  0  0  0
  -22.2410   -4.6020   22.4270 C   0  0  0  0  0  0  0  0  0  0  0  0
  -22.6920   -4.1250   21.2420 F   0  0  0  0  0  0  0  0  0  0  0  0
  -21.6270   -3.4070   25.8420 F   0  0  0  0  0  0  0  0  0  0  0  0
  -22.7110  -13.3940   21.4280 C   0  0  0  0  0  0  0  0  0  0  0  0
  -22.0600  -12.6280   22.2960 N   0  0  0  0  0  0  0  0  0  0  0  0
  -22.2100  -14.4320   20.9960 O   0  0  0  0  0  0  0  0  0  0  0  0
  -22.4770  -11.7860   22.6630 H   0  0  0  0  0  0  0  0  0  0  0  0
  -21.1310  -12.8900   22.5960 H   0  0  0  0  0  0  0  0  0  0  0  0
  -25.2160  -15.2010   20.5550 N   0  0  0  0  0  0  0  0  0  0  0  0
  -24.4410  -15.8220   20.7630 H   0  0  0  0  0  0  0  0  0  0  0  0
  -26.0260  -15.6800   20.1830 H   0  0  0  0  0  0  0  0  0  0  0  0
  1  3  1  0
  2  5  2  0
  2  4  1  0
  3  7  1  0
  4  1  2  0
  5  6  1  0
  6 13  1  0
  6  3  2  0
  7  8  2  0
  9  7  1  0
 10 11  1  0
 11  9  1  0
 13 12  1  0
 14 16  1  0
 14  5  1  0
 15 26  2  0
 16 21  1  0
 17 25  1  0
 17 27  1  0
 18 20  1  0
 18 24  1  0
 19 25  1  0
 20 19  1  0
 21 20  2  0
 22 23  1  0
 22 16  2  0
 23 18  2  0
 24 17  1  0
 25 15  1  0
 27 28  1  0
 27 29  2  0
 30 28  1  0
 31 40  2  0
 31 36  1  0
 32 28  1  0
 32 36  1  0
 33 32  1  0
 34 35  1  0
 34 33  1  0
 35 31  1  0
 36 37  2  0
 37 38  1  0
 39 38  2  0
 40 39  1  0
 41 15  1  0
 41 42  1  0
 41 46  1  0
 42 45  1  1
 42 43  1  0
 44 42  1  0
 46 49  1  0
 47 46  1  0
 47 51  1  0
 48 47  2  0
 51 50  1  0
 51 53  1  0
 53 54  1  0
 53 52  1  0
 55  4  1  0
 55 60  1  0
 56 55  1  0
 56 57  1  0
 58 56  1  0
 59 56  1  0
 61 67  1  0
 61 60  1  0
 62 67  1  0
 63 64  1  0
 63 62  1  0
 65 64  1  0
 65 72  1  0
 65 66  1  0
 67 66  1  0
 68 61  2  0
 69 70  2  0
 70 89  1  0
 71 70  1  0
 71 74  1  0
 72 73  1  0
 72 69  1  0
 73 71  2  0
 74 75  1  0
 75 76  2  0
 77 80  1  0
 77 76  1  0
 78 77  2  0
 79 78  1  0
 79 74  2  0
 80 81  1  0
 81 82  1  0
 82 83  2  0
 84 83  1  0
 84 88  1  0
 85 84  2  0
 86 81  2  0
 86 85  1  0
 87 86  1  0
 89 90  1  0
 90 93  1  0
 90 92  1  0
 91 89  2  0
 94 69  1  0
 94 95  1  0
 96 94  1  0
M  ISO  4   5 101  14 101  60 100  61 100
M  END
>  <TORSDO>  (59) 
F 23

>  <SCORE>  (59) 
-12.164

>  <name>  (59) 
59

>  <ligand_id>  (59) 
59

>  <original_smiles>  (59) 
[H]c1c([H])c([H])c2c(c1[H])C([H])([H])C([H])([H])C([H])([H])C2([H])N([H])C(=O)C1([H])N(C(=O)C([H])(N([H])C(=O)C([H])(N([H])C([H])([H])[H])C([H])([H])[H])C(C([H])([H])[H])(C([H])([H])[H])C([H])([H])[H])C([H])([H])c2c([H])c(Oc3c([H])c(C([H])(C([H])([H])C(=O)N4C([H])([H])C([H])([H])C([H])([H])C([H])(n5nc(-c6c([H])c([H])c(Oc7c([H])c([H])c(F)c([H])c7F)c([H])c6[H])c(C(=O)N([H])[H])c5N([H])[H])C4([H])[H])[N+]([H])([H])[H])c([H])c(C(=O)C([H])([H])C([H])([H])C([H])([H])[H])c3OC([H])([H])[H])c([H])c([H])c2C1([H])[H]

>  <smiles>  (59) 
[H]c1c([H])c([H])c2c(c1[H])C([H])([H])C([H])([H])C([H])([H])C2([H])N([H])C(=O)C1([H])N(C(=O)C([H])(N([H])C(=O)C([H])(N([H])C([H])([H])[H])C([H])([H])[H])C(C([H])([H])[H])(C([H])([H])[H])C([H])([H])[H])C([H])([H])c2c([H])c(Oc3c([H])c(C([H])(C([H])([H])C(=O)N4C([H])([H])C([H])([H])C([H])([H])C([H])(n5nc(-c6c([H])c([H])c(Oc7c([H])c([H])c(F)c([H])c7F)c([H])c6[H])c(C(=O)N([H])[H])c5N([H])[H])C4([H])[H])[N+]([H])([H])[H])c([H])c(C(=O)C([H])([H])C([H])([H])C([H])([H])[H])c3OC([H])([H])[H])c([H])c([H])c2C1([H])[H]

$$$$
60:0:0
     RDKit          3D

 92100  0  0  1  0  0  0  0  0999 V2000
  -28.2840  -21.3940   21.1050 C   0  0  0  0  0  3  0  0  0  0  0  0
  -27.9530  -22.9030   21.1420 C   0  0  0  0  0  3  0  0  0  0  0  0
  -29.3760  -21.6980   19.2250 C   0  0  0  0  0  3  0  0  0  0  0  0
  -29.0740  -20.5540   20.1440 C   0  0  0  0  0  0  0  0  0  0  0  0
  -29.0450  -23.1970   19.2400 C   0  0  0  0  0  0  0  0  0  0  0  0
  -28.2770  -24.0330   20.2100 C   0  0  0  0  0  0  0  0  0  0  0  0
  -29.6330  -23.9740   18.0770 C   0  0  0  0  0  1  0  0  0  0  0  0
  -29.6940  -18.8290   20.0200 C   0  0  0  0  0  0  0  0  0  0  0  0
  -29.4300  -17.3230   20.2490 C   0  0  0  0  0  0  0  0  0  0  0  0
  -30.2700  -15.8160   20.0560 C   0  0  0  0  0  0  0  0  0  0  0  0
  -30.4060  -13.2530   19.2760 C   0  0  0  0  0  2  0  0  0  0  0  0
  -29.4910  -12.8400   18.0820 C   0  0  0  0  0  2  0  0  0  0  0  0
  -28.0860  -12.4570   18.5710 C   0  0  0  0  0  2  0  0  0  0  0  0
  -27.5900  -13.4500   19.6430 C   0  0  0  0  0  3  0  0  0  0  0  0
  -28.6400  -13.7690   20.7320 C   0  0  0  0  0  2  0  0  0  0  0  0
  -29.7910  -14.4240   20.0630 N   0  0  0  0  0  0  0  0  0  0  0  0
  -31.4870  -15.7420   19.7860 O   0  0  0  0  0  0  0  0  0  0  0  0
  -25.2680  -13.9560   20.5250 C   0  0  0  0  0  0  0  0  0  0  0  0
  -24.2290  -13.1620   20.9260 C   0  0  0  0  0  0  0  0  0  0  0  0
  -24.6990  -11.8140   20.8330 C   0  0  0  0  0  0  0  0  0  0  0  0
  -26.2960  -13.0920   20.2020 N   0  0  0  0  0  0  0  0  0  0  0  0
  -25.9750  -11.7970   20.4580 N   0  0  0  0  0  0  0  0  0  0  0  0
  -23.9840  -10.5420   21.0150 C   0  0  0  0  0  0  0  0  0  0  0  0
  -24.4300   -9.5690   21.9360 C   0  0  0  0  0  3  0  0  0  0  0  0
  -23.7130   -8.3660   22.1090 C   0  0  0  0  0  3  0  0  0  0  0  0
  -22.5350   -8.1260   21.3620 C   0  0  0  0  0  0  0  0  0  0  0  0
  -22.1080   -9.0890   20.4300 C   0  0  0  0  0  3  0  0  0  0  0  0
  -22.8260  -10.2830   20.2540 C   0  0  0  0  0  3  0  0  0  0  0  0
  -21.7880   -6.9750   21.4470 O   0  0  0  0  0  0  0  0  0  0  0  0
  -21.7140   -6.2480   22.6080 C   0  0  0  0  0  0  0  0  0  0  0  0
  -21.2080   -6.8030   23.8040 C   0  0  0  0  0  3  0  0  0  0  0  0
  -21.0850   -6.0020   24.9560 C   0  0  0  0  0  3  0  0  0  0  0  0
  -21.4570   -4.6450   24.9130 C   0  0  0  0  0  0  0  0  0  0  0  0
  -21.9560   -4.0880   23.7220 C   0  0  0  0  0  3  0  0  0  0  0  0
  -22.0810   -4.8880   22.5730 C   0  0  0  0  0  0  0  0  0  0  0  0
  -22.5420   -4.3420   21.4220 F   0  0  0  0  0  0  0  0  0  0  0  0
  -21.3310   -3.8720   26.0170 F   0  0  0  0  0  0  0  0  0  0  0  0
  -22.8400  -13.6230   21.2540 C   0  0  0  0  0  0  0  0  0  0  0  0
  -22.1450  -12.9060   22.1290 N   0  0  0  0  0  0  0  0  0  0  0  0
  -22.3860  -14.6590   20.7690 O   0  0  0  0  0  0  0  0  0  0  0  0
  -22.5280  -12.0690   22.5410 H   0  0  0  0  0  0  0  0  0  0  0  0
  -21.2120  -13.1980   22.3890 H   0  0  0  0  0  0  0  0  0  0  0  0
  -25.4270  -15.3320   20.3570 N   0  0  0  0  0  0  0  0  0  0  0  0
  -24.5530  -15.8020   20.5740 H   0  0  0  0  0  0  0  0  0  0  0  0
  -25.6340  -15.5180   19.3820 H   0  0  0  0  0  0  0  0  0  0  0  0
  -28.0600  -17.1720   20.7810 N   0  0  0  0  0  4  0  0  0  0  0  0
  -27.5580  -18.0330   20.6880 H   0  0  0  0  0  0  0  0  0  0  0  0
  -27.5370  -16.4670   20.2930 H   0  0  0  0  0  0  0  0  0  0  0  0
  -28.0830  -16.9320   21.7550 H   0  0  0  0  0  0  0  0  0  0  0  0
  -30.9340  -19.0020   19.5510 O   0  0  0  0  0  0  0  0  0  0  0  0
  -31.0920  -19.9380   19.5040 H   0  0  0  0  0  0  0  0  0  0  0  0
  -28.1890  -25.6570   20.2910 O   0  0  0  0  0  0  0  0  0  0  0  0
  -24.6640  -31.9310   23.2570 C   0  0  0  0  0  0  0  0  0  0  0  0
  -27.1740  -26.8380   20.2690 C   0  0  0  0  0  0  0  0  0  0  0  0
  -23.4710  -30.5350   21.6210 C   0  0  0  0  0  3  0  0  0  0  0  0
  -24.9100  -28.8780   20.2090 C   0  0  0  0  0  0  0  0  0  0  0  0
  -26.0490  -30.6680   21.4980 C   0  0  0  0  0  2  0  0  0  0  0  0
  -26.1050  -29.2320   20.8460 C   0  0  0  0  0  0  0  0  0  0  0  0
  -27.2180  -28.2380   20.8470 C   0  0  0  0  0  3  0  0  0  0  0  0
  -25.9490  -26.6970   19.5700 C   0  0  0  0  0  3  0  0  0  0  0  0
  -24.8710  -27.6370   19.5470 C   0  0  0  0  0  3  0  0  0  0  0  0
  -23.7080  -29.8350   20.2510 C   0  0  0  0  0  2  0  0  0  0  0  0
  -24.7520  -31.0790   22.1770 N   0  0  0  0  0  0  0  0  0  0  0  0
  -23.5720  -32.2340   23.7680 O   0  0  0  0  0  0  0  0  0  0  0  0
  -22.7540  -29.5600   22.5950 C   0  0  0  0  0  0  0  0  0  0  0  0
  -21.4250  -29.3920   22.4570 N   0  0  0  0  0  0  0  0  0  0  0  0
  -23.4060  -28.9520   23.4460 O   0  0  0  0  0  0  0  0  0  0  0  0
  -20.9480  -29.9330   21.7500 H   0  0  0  0  0  0  0  0  0  0  0  0
  -18.0460  -28.1450   22.9370 C   0  0  0  0  0  0  0  0  0  0  0  0
  -20.5990  -28.4550   23.2290 C   0  0  0  0  0  3  0  0  0  0  0  0
  -20.7270  -27.0170   22.6750 C   0  0  0  0  0  2  0  0  0  0  0  0
  -19.6440  -26.6660   21.6490 C   0  0  0  0  0  2  0  0  0  0  0  0
  -18.2520  -26.7930   22.2740 C   0  0  0  0  0  2  0  0  0  0  0  0
  -19.1470  -28.9310   23.3710 C   0  0  0  0  0  0  0  0  0  0  0  0
  -18.8970  -30.1910   23.9580 C   0  0  0  0  0  3  0  0  0  0  0  0
  -17.5810  -30.6670   24.1100 C   0  0  0  0  0  3  0  0  0  0  0  0
  -16.4950  -29.8790   23.6900 C   0  0  0  0  0  3  0  0  0  0  0  0
  -16.7280  -28.6200   23.1090 C   0  0  0  0  0  3  0  0  0  0  0  0
  -25.9290  -32.5780   23.8960 C   0  0  0  0  0  3  0  0  0  0  0  0
  -26.4190  -31.8260   25.1960 C   0  0  1  0  0  0  0  0  0  0  0  0
  -25.3080  -31.6120   26.2510 C   0  0  0  0  0  1  0  0  0  0  0  0
  -27.0000  -30.4360   24.8480 C   0  0  0  0  0  1  0  0  0  0  0  0
  -27.5650  -32.6220   25.8630 C   0  0  0  0  0  1  0  0  0  0  0  0
  -25.6120  -33.9830   24.2240 N   0  0  0  0  0  0  0  0  0  0  0  0
  -25.9260  -35.0430   23.4670 C   0  0  0  0  0  0  0  0  0  0  0  0
  -26.5670  -34.9410   22.4190 O   0  0  0  0  0  0  0  0  0  0  0  0
  -25.0350  -34.1340   25.0390 H   0  0  0  0  0  0  0  0  0  0  0  0
  -24.1810  -36.8410   23.1900 C   0  0  0  0  0  1  0  0  0  0  0  0
  -25.4590  -36.4360   23.9430 C   0  0  0  0  0  3  0  0  0  0  0  0
  -27.6140  -37.3520   24.6870 C   0  0  0  0  0  1  0  0  0  0  0  0
  -26.4850  -37.4880   23.7700 N   0  0  0  0  0  0  0  0  0  0  0  0
  -26.0830  -38.4130   23.8940 H   0  0  0  0  0  0  0  0  0  0  0  0
  1  2  1  0
  3  5  2  0
  3  4  1  0
  4  1  2  0
  5  6  1  0
  6 52  1  0
  6  2  2  0
  7  5  1  0
  8  4  1  0
  8  9  2  0
  9 46  1  0
 10 16  1  0
 10  9  1  0
 11 16  1  0
 12 13  1  0
 12 11  1  0
 14 13  1  0
 14 21  1  0
 14 15  1  0
 16 15  1  0
 17 10  2  0
 18 19  2  0
 19 38  1  0
 20 19  1  0
 20 23  1  0
 21 22  1  0
 21 18  1  0
 22 20  2  0
 23 24  1  0
 24 25  2  0
 26 29  1  0
 26 25  1  0
 27 26  2  0
 28 27  1  0
 28 23  2  0
 29 30  1  0
 30 31  1  0
 31 32  2  0
 33 32  1  0
 33 37  1  0
 34 33  2  0
 35 30  2  0
 35 34  1  0
 36 35  1  0
 38 39  1  0
 39 42  1  0
 39 41  1  0
 40 38  2  0
 43 18  1  0
 43 44  1  0
 45 43  1  0
 46 49  1  0
 47 46  1  0
 48 46  1  0
 50  8  1  0
 51 50  1  0
 53 64  2  0
 54 52  1  0
 54 59  1  0
 55 63  1  0
 55 65  1  0
 56 62  1  0
 56 58  1  0
 57 63  1  0
 58 59  2  0
 58 57  1  0
 60 54  2  0
 61 60  1  0
 61 56  2  0
 62 55  1  0
 63 53  1  0
 65 67  2  0
 66 65  1  0
 68 66  1  0
 69 78  2  0
 69 74  1  0
 70 66  1  0
 70 74  1  0
 71 70  1  0
 72 73  1  0
 72 71  1  0
 73 69  1  0
 74 75  2  0
 75 76  1  0
 77 76  2  0
 78 77  1  0
 79 53  1  0
 79 84  1  0
 79 80  1  0
 80 83  1  1
 80 81  1  0
 82 80  1  0
 84 87  1  0
 85 89  1  0
 85 84  1  0
 86 85  2  0
 89 88  1  0
 91 92  1  0
 91 89  1  0
 91 90  1  0
M  ISO  4   6 101   9 100  10 100  52 101
M  END
>  <TORSDO>  (60) 
F 19

>  <SCORE>  (60) 
-15.520

>  <name>  (60) 
60

>  <ligand_id>  (60) 
60

>  <original_smiles>  (60) 
[H]OC(=C(C(=O)N1C([H])([H])C([H])([H])C([H])([H])C([H])(n2nc(-c3c([H])c([H])c(Oc4c([H])c([H])c(F)c([H])c4F)c([H])c3[H])c(C(=O)N([H])[H])c2N([H])[H])C1([H])[H])[N+]([H])([H])[H])c1c([H])c([H])c(Oc2c([H])c([H])c3c(c2[H])C([H])([H])N(C(=O)C([H])(N([H])C(=O)C([H])(N([H])C([H])([H])[H])C([H])([H])[H])C(C([H])([H])[H])(C([H])([H])[H])C([H])([H])[H])C([H])(C(=O)N([H])C2([H])c4c([H])c([H])c([H])c([H])c4C([H])([H])C([H])([H])C2([H])[H])C3([H])[H])c(C([H])([H])[H])c1[H]

>  <smiles>  (60) 
[H]OC(=C(C(=O)N1C([H])([H])C([H])([H])C([H])([H])C([H])(n2nc(-c3c([H])c([H])c(Oc4c([H])c([H])c(F)c([H])c4F)c([H])c3[H])c(C(=O)N([H])[H])c2N([H])[H])C1([H])[H])[N+]([H])([H])[H])c1c([H])c([H])c(Oc2c([H])c([H])c3c(c2[H])C([H])([H])N(C(=O)C([H])(N([H])C(=O)C([H])(N([H])C([H])([H])[H])C([H])([H])[H])C(C([H])([H])[H])(C([H])([H])[H])C([H])([H])[H])C([H])(C(=O)N([H])C2([H])c4c([H])c([H])c([H])c([H])c4C([H])([H])C([H])([H])C2([H])[H])C3([H])[H])c(C([H])([H])[H])c1[H]

$$$$
61:0:0
     RDKit          3D

 92100  0  0  1  0  0  0  0  0999 V2000
  -30.5760  -21.0990   20.0040 C   0  0  0  0  0  3  0  0  0  0  0  0
  -30.4470  -22.4910   19.8150 C   0  0  0  0  0  3  0  0  0  0  0  0
  -29.5430  -21.2970   22.1970 C   0  0  0  0  0  3  0  0  0  0  0  0
  -30.1420  -20.4950   21.2030 C   0  0  0  0  0  0  0  0  0  0  0  0
  -29.8860  -23.3040   20.8250 C   0  0  0  0  0  0  0  0  0  0  0  0
  -29.4200  -22.6930   22.0140 C   0  0  0  0  0  0  0  0  0  0  0  0
  -28.8710  -23.4510   23.0080 O   0  0  0  0  0  0  0  0  0  0  0  0
  -28.6230  -22.9390   23.7720 H   0  0  0  0  0  0  0  0  0  0  0  0
  -30.3760  -19.0020   21.4330 C   0  0  0  0  0  2  0  0  0  0  0  0
  -29.4960  -18.0870   20.5510 C   0  0  0  0  0  2  0  0  0  0  0  0
  -30.2490  -16.8980   19.9100 C   0  0  0  0  0  2  0  0  0  0  0  0
  -30.8010  -14.5290   20.2190 C   0  0  0  0  0  0  0  0  0  0  0  0
  -30.4420  -12.4070   19.0450 C   0  0  0  0  0  2  0  0  0  0  0  0
  -29.4740  -12.6810   17.8750 C   0  0  0  0  0  2  0  0  0  0  0  0
  -28.0070  -12.5690   18.3380 C   0  0  0  0  0  2  0  0  0  0  0  0
  -27.7230  -13.3570   19.6460 C   0  0  0  0  0  3  0  0  0  0  0  0
  -28.8060  -13.0740   20.7160 C   0  0  0  0  0  2  0  0  0  0  0  0
  -30.1200  -13.3590   20.1190 N   0  0  0  0  0  0  0  0  0  0  0  0
  -31.9410  -14.6850   19.7700 O   0  0  0  0  0  0  0  0  0  0  0  0
  -30.0520  -15.5920   20.5570 N   0  0  0  0  0  0  0  0  0  0  0  0
  -29.1340  -15.3910   20.9270 H   0  0  0  0  0  0  0  0  0  0  0  0
  -25.3370  -13.9770   20.3920 C   0  0  0  0  0  0  0  0  0  0  0  0
  -24.2730  -13.2080   20.7820 C   0  0  0  0  0  0  0  0  0  0  0  0
  -24.7310  -11.8550   20.7490 C   0  0  0  0  0  0  0  0  0  0  0  0
  -26.3770  -13.0910   20.1490 N   0  0  0  0  0  0  0  0  0  0  0  0
  -26.0140  -11.8110   20.4190 N   0  0  0  0  0  0  0  0  0  0  0  0
  -24.0050  -10.5960   20.9570 C   0  0  0  0  0  0  0  0  0  0  0  0
  -24.4430   -9.6400   21.9000 C   0  0  0  0  0  3  0  0  0  0  0  0
  -23.7210   -8.4430   22.0950 C   0  0  0  0  0  3  0  0  0  0  0  0
  -22.5460   -8.1940   21.3450 C   0  0  0  0  0  0  0  0  0  0  0  0
  -22.1280   -9.1390   20.3930 C   0  0  0  0  0  3  0  0  0  0  0  0
  -22.8500  -10.3270   20.1960 C   0  0  0  0  0  3  0  0  0  0  0  0
  -21.7930   -7.0490   21.4490 O   0  0  0  0  0  0  0  0  0  0  0  0
  -21.7340   -6.3300   22.6160 C   0  0  0  0  0  0  0  0  0  0  0  0
  -21.2630   -6.9010   23.8190 C   0  0  0  0  0  3  0  0  0  0  0  0
  -21.1530   -6.1060   24.9780 C   0  0  0  0  0  3  0  0  0  0  0  0
  -21.5020   -4.7430   24.9340 C   0  0  0  0  0  0  0  0  0  0  0  0
  -21.9640   -4.1720   23.7350 C   0  0  0  0  0  3  0  0  0  0  0  0
  -22.0770   -4.9650   22.5790 C   0  0  0  0  0  0  0  0  0  0  0  0
  -22.5020   -4.4050   21.4210 F   0  0  0  0  0  0  0  0  0  0  0  0
  -21.3900   -3.9770   26.0450 F   0  0  0  0  0  0  0  0  0  0  0  0
  -22.8810  -13.6890   21.0770 C   0  0  0  0  0  0  0  0  0  0  0  0
  -22.1680  -12.9960   21.9590 N   0  0  0  0  0  0  0  0  0  0  0  0
  -22.4350  -14.7140   20.5640 O   0  0  0  0  0  0  0  0  0  0  0  0
  -22.5390  -12.1670   22.3980 H   0  0  0  0  0  0  0  0  0  0  0  0
  -21.2370  -13.3030   22.1990 H   0  0  0  0  0  0  0  0  0  0  0  0
  -25.5040  -15.3460   20.2060 N   0  0  0  0  0  0  0  0  0  0  0  0
  -24.7480  -16.0090   20.3330 H   0  0  0  0  0  0  0  0  0  0  0  0
  -26.3580  -15.7830   19.8840 H   0  0  0  0  0  0  0  0  0  0  0  0
  -29.8560  -24.8240   20.6470 C   0  0  0  0  0  2  0  0  0  0  0  0
  -28.5090  -25.3930   20.1590 C   0  0  0  0  0  2  0  0  0  0  0  0
  -28.5650  -26.8250   20.1790 O   0  0  0  0  0  0  0  0  0  0  0  0
  -24.6660  -31.8780   23.2900 C   0  0  0  0  0  0  0  0  0  0  0  0
  -27.3690  -27.5110   20.1670 C   0  0  0  0  0  0  0  0  0  0  0  0
  -23.4780  -30.4820   21.6280 C   0  0  0  0  0  3  0  0  0  0  0  0
  -24.9500  -28.9790   20.1890 C   0  0  0  0  0  0  0  0  0  0  0  0
  -25.9970  -30.8780   21.4350 C   0  0  0  0  0  2  0  0  0  0  0  0
  -26.1000  -29.5150   20.7810 C   0  0  0  0  0  0  0  0  0  0  0  0
  -27.3110  -28.7900   20.7650 C   0  0  0  0  0  3  0  0  0  0  0  0
  -26.2000  -26.9850   19.5700 C   0  0  0  0  0  3  0  0  0  0  0  0
  -24.9960  -27.7140   19.5770 C   0  0  0  0  0  3  0  0  0  0  0  0
  -23.6970  -29.8230   20.2400 C   0  0  0  0  0  2  0  0  0  0  0  0
  -24.7320  -31.0930   22.1770 N   0  0  0  0  0  0  0  0  0  0  0  0
  -23.5820  -32.1310   23.8330 O   0  0  0  0  0  0  0  0  0  0  0  0
  -22.8370  -29.4420   22.5760 C   0  0  0  0  0  0  0  0  0  0  0  0
  -21.5170  -29.2420   22.4370 N   0  0  0  0  0  0  0  0  0  0  0  0
  -23.5260  -28.8200   23.3890 O   0  0  0  0  0  0  0  0  0  0  0  0
  -21.0230  -29.7970   21.7520 H   0  0  0  0  0  0  0  0  0  0  0  0
  -18.1580  -27.9910   22.8920 C   0  0  0  0  0  0  0  0  0  0  0  0
  -20.7090  -28.2870   23.1940 C   0  0  0  0  0  3  0  0  0  0  0  0
  -20.8410  -26.8620   22.6110 C   0  0  0  0  0  2  0  0  0  0  0  0
  -19.7560  -26.5270   21.5830 C   0  0  0  0  0  2  0  0  0  0  0  0
  -18.3640  -26.6470   22.2110 C   0  0  0  0  0  2  0  0  0  0  0  0
  -19.2610  -28.7680   23.3400 C   0  0  0  0  0  0  0  0  0  0  0  0
  -19.0160  -30.0230   23.9350 C   0  0  0  0  0  3  0  0  0  0  0  0
  -17.7020  -30.5030   24.0910 C   0  0  0  0  0  3  0  0  0  0  0  0
  -16.6140  -29.7240   23.6600 C   0  0  0  0  0  3  0  0  0  0  0  0
  -16.8440  -28.4700   23.0650 C   0  0  0  0  0  3  0  0  0  0  0  0
  -25.9450  -32.5140   23.9180 C   0  0  0  0  0  3  0  0  0  0  0  0
  -25.6310  -33.9130   24.2400 N   0  0  0  0  0  0  0  0  0  0  0  0
  -25.9500  -34.9610   23.4710 C   0  0  0  0  0  0  0  0  0  0  0  0
  -26.6110  -34.8540   22.4340 O   0  0  0  0  0  0  0  0  0  0  0  0
  -25.0400  -34.0700   25.0450 H   0  0  0  0  0  0  0  0  0  0  0  0
  -24.2000  -36.7340   23.1250 C   0  0  0  0  0  1  0  0  0  0  0  0
  -25.4570  -36.3480   23.9230 C   0  0  0  0  0  3  0  0  0  0  0  0
  -27.5910  -37.2630   24.7190 C   0  0  0  0  0  1  0  0  0  0  0  0
  -26.4770  -37.4100   23.7860 N   0  0  0  0  0  0  0  0  0  0  0  0
  -26.0620  -38.3270   23.9300 H   0  0  0  0  0  0  0  0  0  0  0  0
  -26.4570  -31.7460   25.1970 C   0  0  1  0  0  0  0  0  0  0  0  0
  -25.3570  -31.5050   26.2570 C   0  0  0  0  0  1  0  0  0  0  0  0
  -27.0480  -30.3720   24.8060 C   0  0  0  0  0  1  0  0  0  0  0  0
  -27.6000  -32.5450   25.8680 C   0  0  0  0  0  1  0  0  0  0  0  0
  1  4  1  0
  2  1  2  0
  2  5  1  0
  4  9  1  0
  4  3  2  0
  5  6  2  0
  6  3  1  0
  6  7  1  0
  7  8  1  0
 10  9  1  0
 11 10  1  0
 11 20  1  0
 12 20  1  0
 13 18  1  0
 14 15  1  0
 14 13  1  0
 16 15  1  0
 16 25  1  0
 16 17  1  0
 18 12  1  0
 18 17  1  0
 19 12  2  0
 20 21  1  0
 22 23  2  0
 23 42  1  0
 24 23  1  0
 24 27  1  0
 25 22  1  0
 25 26  1  0
 26 24  2  0
 27 28  1  0
 28 29  2  0
 30 33  1  0
 30 29  1  0
 31 30  2  0
 32 31  1  0
 32 27  2  0
 33 34  1  0
 34 35  1  0
 35 36  2  0
 37 36  1  0
 37 41  1  0
 38 37  2  0
 39 34  2  0
 39 38  1  0
 40 39  1  0
 42 43  1  0
 43 46  1  0
 43 45  1  0
 44 42  2  0
 47 48  1  0
 47 22  1  0
 49 47  1  0
 50  5  1  0
 51 52  1  0
 51 50  1  0
 53 64  2  0
 54 52  1  0
 54 59  1  0
 55 63  1  0
 55 65  1  0
 56 62  1  0
 56 58  1  0
 57 63  1  0
 58 57  1  0
 59 58  2  0
 60 61  1  0
 60 54  2  0
 61 56  2  0
 62 55  1  0
 63 53  1  0
 65 67  2  0
 66 65  1  0
 68 66  1  0
 69 78  2  0
 69 74  1  0
 70 66  1  0
 70 74  1  0
 71 70  1  0
 72 73  1  0
 72 71  1  0
 73 69  1  0
 74 75  2  0
 75 76  1  0
 77 76  2  0
 78 77  1  0
 79 53  1  0
 79 80  1  0
 79 89  1  0
 80 83  1  0
 81 85  1  0
 81 80  1  0
 82 81  2  0
 85 84  1  0
 87 85  1  0
 87 88  1  0
 87 86  1  0
 89 92  1  1
 89 90  1  0
 91 89  1  0
M  ISO  4  12 100  20 100  51 101  52 101
M  END
>  <TORSDO>  (61) 
F 22

>  <SCORE>  (61) 
-13.318

>  <name>  (61) 
61

>  <ligand_id>  (61) 
61

>  <original_smiles>  (61) 
[H]Oc1c([H])c(C([H])([H])C([H])([H])C([H])([H])N([H])C(=O)N2C([H])([H])C([H])([H])C([H])([H])C([H])(n3nc(-c4c([H])c([H])c(Oc5c([H])c([H])c(F)c([H])c5F)c([H])c4[H])c(C(=O)N([H])[H])c3N([H])[H])C2([H])[H])c([H])c([H])c1C([H])([H])C([H])([H])Oc1c([H])c([H])c2c(c1[H])C([H])([H])N(C(=O)C([H])(N([H])C(=O)C([H])(N([H])C([H])([H])[H])C([H])([H])[H])C(C([H])([H])[H])(C([H])([H])[H])C([H])([H])[H])C([H])(C(=O)N([H])C1([H])c3c([H])c([H])c([H])c([H])c3C([H])([H])C([H])([H])C1([H])[H])C2([H])[H]

>  <smiles>  (61) 
[H]Oc1c([H])c(C([H])([H])C([H])([H])C([H])([H])N([H])C(=O)N2C([H])([H])C([H])([H])C([H])([H])C([H])(n3nc(-c4c([H])c([H])c(Oc5c([H])c([H])c(F)c([H])c5F)c([H])c4[H])c(C(=O)N([H])[H])c3N([H])[H])C2([H])[H])c([H])c([H])c1C([H])([H])C([H])([H])Oc1c([H])c([H])c2c(c1[H])C([H])([H])N(C(=O)C([H])(N([H])C(=O)C([H])(N([H])C([H])([H])[H])C([H])([H])[H])C(C([H])([H])[H])(C([H])([H])[H])C([H])([H])[H])C([H])(C(=O)N([H])C1([H])c3c([H])c([H])c([H])c([H])c3C([H])([H])C([H])([H])C1([H])[H])C2([H])[H]

$$$$
62:0:0
     RDKit          3D

 88 94  0  0  1  0  0  0  0  0999 V2000
  -28.9380  -20.9620   21.3270 C   0  0  0  0  0  3  0  0  0  0  0  0
  -28.6280  -22.5040   21.3340 C   0  0  0  0  0  3  0  0  0  0  0  0
  -29.0650  -19.8750   20.2640 C   0  0  0  0  0  3  0  0  0  0  0  0
  -28.7380  -20.9190   19.1840 C   0  0  0  0  0  0  0  0  0  0  0  0
  -28.2930  -23.5640   20.2870 C   0  0  0  0  0  0  0  0  0  0  0  0
  -28.4560  -22.4930   19.1840 C   0  0  0  0  0  0  0  0  0  0  0  0
  -27.2160  -19.8150   17.4840 C   0  0  0  0  0  1  0  0  0  0  0  0
  -28.6510  -20.2430   17.8200 C   0  0  0  0  0  2  0  0  0  0  0  0
  -28.8250  -24.2770   17.6030 C   0  0  0  0  0  1  0  0  0  0  0  0
  -28.3370  -22.9690   17.8930 O   0  0  0  0  0  0  0  0  0  0  0  0
  -28.1790  -25.2730   20.3310 O   0  0  0  0  0  0  0  0  0  0  0  0
  -24.6990  -31.8890   23.2270 C   0  0  0  0  0  0  0  0  0  0  0  0
  -27.1970  -26.5690   20.3090 C   0  0  0  0  0  0  0  0  0  0  0  0
  -23.5140  -30.4760   21.6060 C   0  0  0  0  0  3  0  0  0  0  0  0
  -24.9560  -28.7610   20.2250 C   0  0  0  0  0  0  0  0  0  0  0  0
  -26.1030  -30.5380   21.5110 C   0  0  0  0  0  2  0  0  0  0  0  0
  -26.1550  -29.0720   20.8720 C   0  0  0  0  0  0  0  0  0  0  0  0
  -27.2450  -28.0120   20.8770 C   0  0  0  0  0  3  0  0  0  0  0  0
  -25.9600  -26.5320   19.5940 C   0  0  0  0  0  3  0  0  0  0  0  0
  -24.9110  -27.5190   19.5610 C   0  0  0  0  0  3  0  0  0  0  0  0
  -23.7620  -29.7450   20.2510 C   0  0  0  0  0  2  0  0  0  0  0  0
  -24.7990  -31.0080   22.1660 N   0  0  0  0  0  0  0  0  0  0  0  0
  -23.6030  -32.2100   23.7220 O   0  0  0  0  0  0  0  0  0  0  0  0
  -22.7730  -29.5310   22.5920 C   0  0  0  0  0  0  0  0  0  0  0  0
  -21.4390  -29.3860   22.4630 N   0  0  0  0  0  0  0  0  0  0  0  0
  -23.4150  -28.9230   23.4520 O   0  0  0  0  0  0  0  0  0  0  0  0
  -20.9680  -29.9250   21.7490 H   0  0  0  0  0  0  0  0  0  0  0  0
  -18.0460  -28.1690   22.9750 C   0  0  0  0  0  0  0  0  0  0  0  0
  -20.6040  -28.4620   23.2440 C   0  0  0  0  0  3  0  0  0  0  0  0
  -20.7150  -27.0180   22.6990 C   0  0  0  0  0  2  0  0  0  0  0  0
  -19.6230  -26.6740   21.6810 C   0  0  0  0  0  2  0  0  0  0  0  0
  -18.2370  -26.8150   22.3150 C   0  0  0  0  0  2  0  0  0  0  0  0
  -19.1580  -28.9500   23.3980 C   0  0  0  0  0  0  0  0  0  0  0  0
  -18.9190  -30.2130   23.9820 C   0  0  0  0  0  3  0  0  0  0  0  0
  -17.6080  -30.6980   24.1450 C   0  0  0  0  0  3  0  0  0  0  0  0
  -16.5140  -29.9170   23.7330 C   0  0  0  0  0  3  0  0  0  0  0  0
  -16.7340  -28.6540   23.1560 C   0  0  0  0  0  3  0  0  0  0  0  0
  -25.9550  -32.5540   23.8720 C   0  0  0  0  0  3  0  0  0  0  0  0
  -26.4470  -31.8070   25.1750 C   0  0  1  0  0  0  0  0  0  0  0  0
  -25.3380  -31.5970   26.2340 C   0  0  0  0  0  1  0  0  0  0  0  0
  -27.0300  -30.4170   24.8370 C   0  0  0  0  0  1  0  0  0  0  0  0
  -27.5920  -32.6080   25.8410 C   0  0  0  0  0  1  0  0  0  0  0  0
  -25.6270  -33.9570   24.2030 N   0  0  0  0  0  0  0  0  0  0  0  0
  -25.9370  -35.0260   23.4550 C   0  0  0  0  0  0  0  0  0  0  0  0
  -26.5800  -34.9340   22.4080 O   0  0  0  0  0  0  0  0  0  0  0  0
  -25.0490  -34.1000   25.0180 H   0  0  0  0  0  0  0  0  0  0  0  0
  -24.1780  -36.8160   23.1970 C   0  0  0  0  0  1  0  0  0  0  0  0
  -25.4630  -36.4150   23.9410 C   0  0  0  0  0  3  0  0  0  0  0  0
  -27.6270  -37.3290   24.6650 C   0  0  0  0  0  1  0  0  0  0  0  0
  -26.4780  -37.4790   23.7750 N   0  0  0  0  0  0  0  0  0  0  0  0
  -26.0710  -38.3960   23.9390 H   0  0  0  0  0  0  0  0  0  0  0  0
  -29.1720  -17.8730   20.3390 C   0  0  0  0  0 15  0  0  0  0  0  0
  -30.0890  -16.1060   20.1090 C   0  0  0  0  0  2  0  0  0  0  0  0
  -30.3410  -13.4700   19.3070 C   0  0  0  0  0  2  0  0  0  0  0  0
  -29.4530  -12.9210   18.1380 C   0  0  0  0  0  2  0  0  0  0  0  0
  -28.0710  -12.4770   18.6380 C   0  0  0  0  0  2  0  0  0  0  0  0
  -27.5320  -13.4810   19.6730 C   0  0  0  0  0  3  0  0  0  0  0  0
  -28.5660  -13.9130   20.7460 C   0  0  0  0  0  2  0  0  0  0  0  0
  -29.6760  -14.6530   20.0720 N   0  0  0  0  0  0  0  0  0  0  0  0
  -31.3190  -16.0260   19.8670 O   0  0  0  0  0  1  0  0  0  0  0  0
  -25.2000  -13.9510   20.5380 C   0  0  0  0  0  0  0  0  0  0  0  0
  -24.1610  -13.1530   20.9200 C   0  0  0  0  0  0  0  0  0  0  0  0
  -24.6420  -11.8090   20.8380 C   0  0  0  0  0  0  0  0  0  0  0  0
  -26.2430  -13.0990   20.2340 N   0  0  0  0  0  0  0  0  0  0  0  0
  -25.9250  -11.7990   20.4810 N   0  0  0  0  0  0  0  0  0  0  0  0
  -23.9260  -10.5370   21.0230 C   0  0  0  0  0  0  0  0  0  0  0  0
  -24.3690   -9.5630   21.9460 C   0  0  0  0  0  3  0  0  0  0  0  0
  -23.6480   -8.3620   22.1220 C   0  0  0  0  0  3  0  0  0  0  0  0
  -22.4680   -8.1260   21.3780 C   0  0  0  0  0  0  0  0  0  0  0  0
  -22.0430   -9.0870   20.4440 C   0  0  0  0  0  3  0  0  0  0  0  0
  -22.7660  -10.2800   20.2660 C   0  0  0  0  0  3  0  0  0  0  0  0
  -21.7180   -6.9780   21.4630 O   0  0  0  0  0  0  0  0  0  0  0  0
  -21.6530   -6.2430   22.6200 C   0  0  0  0  0  0  0  0  0  0  0  0
  -21.1860   -6.8000   23.8310 C   0  0  0  0  0  3  0  0  0  0  0  0
  -21.0710   -5.9930   24.9800 C   0  0  0  0  0  3  0  0  0  0  0  0
  -21.4130   -4.6280   24.9190 C   0  0  0  0  0  0  0  0  0  0  0  0
  -21.8730   -4.0690   23.7130 C   0  0  0  0  0  3  0  0  0  0  0  0
  -21.9890   -4.8750   22.5660 C   0  0  0  0  0  0  0  0  0  0  0  0
  -22.4130   -4.3270   21.4010 F   0  0  0  0  0  0  0  0  0  0  0  0
  -21.2950   -3.8490   26.0200 F   0  0  0  0  0  0  0  0  0  0  0  0
  -22.7710  -13.6120   21.2420 C   0  0  0  0  0  0  0  0  0  0  0  0
  -22.0770  -12.8960   22.1190 N   0  0  0  0  0  0  0  0  0  0  0  0
  -22.3100  -14.6430   20.7530 O   0  0  0  0  0  0  0  0  0  0  0  0
  -22.4650  -12.0630   22.5350 H   0  0  0  0  0  0  0  0  0  0  0  0
  -21.1460  -13.1870   22.3810 H   0  0  0  0  0  0  0  0  0  0  0  0
  -25.3400  -15.3290   20.3890 N   0  0  0  0  0  0  0  0  0  0  0  0
  -24.5660  -15.9660   20.5430 H   0  0  0  0  0  0  0  0  0  0  0  0
  -26.1730  -15.7910   20.0480 H   0  0  0  0  0  0  0  0  0  0  0  0
  1  2  1  0
  3  1  2  0
  4  6  2  0
  4  3  1  0
  5 11  1  0
  5  2  2  0
  6  5  1  0
  7  8  1  0
  8  4  1  0
  9 10  1  0
 10  6  1  0
 12 23  2  0
 13 11  1  0
 13 18  1  0
 14 22  1  0
 14 24  1  0
 15 21  1  0
 15 17  1  0
 16 22  1  0
 17 18  2  0
 17 16  1  0
 19 13  2  0
 20 19  1  0
 20 15  2  0
 21 14  1  0
 22 12  1  0
 24 26  2  0
 25 24  1  0
 27 25  1  0
 28 37  2  0
 28 33  1  0
 29 25  1  0
 29 33  1  0
 30 29  1  0
 31 32  1  0
 31 30  1  0
 32 28  1  0
 33 34  2  0
 34 35  1  0
 36 35  2  0
 37 36  1  0
 38 12  1  0
 38 43  1  0
 38 39  1  0
 39 42  1  1
 39 40  1  0
 41 39  1  0
 43 46  1  0
 44 48  1  0
 44 43  1  0
 45 44  2  0
 48 47  1  0
 50 51  1  0
 50 48  1  0
 50 49  1  0
 54 59  1  0
 55 56  1  0
 55 54  1  0
 57 56  1  0
 57 64  1  0
 57 58  1  0
 59 53  1  0
 59 58  1  0
 60 53  1  0
 61 62  2  0
 62 81  1  0
 63 62  1  0
 63 66  1  0
 64 65  1  0
 64 61  1  0
 65 63  2  0
 66 67  1  0
 67 68  2  0
 69 72  1  0
 69 68  1  0
 70 69  2  0
 71 70  1  0
 71 66  2  0
 72 73  1  0
 73 74  1  0
 74 75  2  0
 76 75  1  0
 76 80  1  0
 77 76  2  0
 78 73  2  0
 78 77  1  0
 79 78  1  0
 81 82  1  0
 82 85  1  0
 82 84  1  0
 83 81  2  0
 86 61  1  0
 86 87  1  0
 88 86  1  0
M  ISO  4   5 101  11 101  52 100  53 100
M  END
>  <TORSDO>  (62) 
F 19

>  <SCORE>  (62) 
-15.747

>  <name>  (62) 
62

>  <ligand_id>  (62) 
62

>  <original_smiles>  (62) 
[H]c1c([H])c([H])c2c(c1[H])C([H])([H])C([H])([H])C([H])([H])C2([H])N([H])C(=O)C1([H])N(C(=O)C([H])(N([H])C(=O)C([H])(N([H])C([H])([H])[H])C([H])([H])[H])C(C([H])([H])[H])(C([H])([H])[H])C([H])([H])[H])C([H])([H])c2c([H])c(Oc3c([H])c([H])c(C([H])([H])C(=O)N4C([H])([H])C([H])([H])C([H])([H])C([H])(n5nc(-c6c([H])c([H])c(Oc7c([H])c([H])c(F)c([H])c7F)c([H])c6[H])c(C(=O)N([H])[H])c5N([H])[H])C4([H])[H])c(C([H])([H])C([H])([H])[H])c3OC([H])([H])[H])c([H])c([H])c2C1([H])[H]

>  <smiles>  (62) 
[H]c1c([H])c([H])c2c(c1[H])C([H])([H])C([H])([H])C([H])([H])C2([H])N([H])C(=O)C1([H])N(C(=O)C([H])(N([H])C(=O)C([H])(N([H])C([H])([H])[H])C([H])([H])[H])C(C([H])([H])[H])(C([H])([H])[H])C([H])([H])[H])C([H])([H])c2c([H])c(Oc3c([H])c([H])c(C([H])([H])C(=O)N4C([H])([H])C([H])([H])C([H])([H])C([H])(n5nc(-c6c([H])c([H])c(Oc7c([H])c([H])c(F)c([H])c7F)c([H])c6[H])c(C(=O)N([H])[H])c5N([H])[H])C4([H])[H])c(C([H])([H])C([H])([H])[H])c3OC([H])([H])[H])c([H])c([H])c2C1([H])[H]

$$$$
63:0:0
     RDKit          3D

 91 99  0  0  1  0  0  0  0  0999 V2000
  -29.1480  -17.0580   19.0170 C   0  0  0  0  0  3  0  0  0  0  0  0
  -29.9930  -16.9140   20.1350 C   0  0  0  0  0  0  0  0  0  0  0  0
  -28.5250  -18.2610   18.5910 C   0  0  0  0  0  0  0  0  0  0  0  0
  -30.1680  -18.2880   20.8190 C   0  0  0  0  0  0  0  0  0  0  0  0
  -29.5250  -19.6430   20.4340 C   0  0  0  0  0  0  0  0  0  0  0  0
  -28.7040  -19.5030   19.2860 C   0  0  0  0  0  0  0  0  0  0  0  0
  -31.0690  -18.3280   22.0370 C   0  0  0  0  0  1  0  0  0  0  0  0
  -30.7110  -15.3940   20.2600 C   0  0  0  0  0  0  0  0  0  0  0  0
  -30.5690  -13.0220   19.2320 C   0  0  0  0  0  2  0  0  0  0  0  0
  -29.6260  -12.9570   18.0030 C   0  0  0  0  0  2  0  0  0  0  0  0
  -28.1690  -12.7180   18.4410 C   0  0  0  0  0  2  0  0  0  0  0  0
  -27.7690  -13.6090   19.6430 C   0  0  0  0  0  3  0  0  0  0  0  0
  -28.8380  -13.6440   20.7520 C   0  0  0  0  0  2  0  0  0  0  0  0
  -30.0890  -14.1200   20.1410 N   0  0  0  0  0  0  0  0  0  0  0  0
  -31.9430  -15.3270   20.1430 O   0  0  0  0  0  0  0  0  0  0  0  0
  -25.4120  -14.2020   20.4030 C   0  0  0  0  0  0  0  0  0  0  0  0
  -24.3370  -13.4380   20.7620 C   0  0  0  0  0  0  0  0  0  0  0  0
  -24.7840  -12.0810   20.7250 C   0  0  0  0  0  0  0  0  0  0  0  0
  -26.4400  -13.3100   20.1540 N   0  0  0  0  0  0  0  0  0  0  0  0
  -26.0760  -12.0290   20.4190 N   0  0  0  0  0  0  0  0  0  0  0  0
  -24.0380  -10.8290   20.9050 C   0  0  0  0  0  0  0  0  0  0  0  0
  -24.4440   -9.8540   21.8420 C   0  0  0  0  0  3  0  0  0  0  0  0
  -23.6970   -8.6670   22.0090 C   0  0  0  0  0  3  0  0  0  0  0  0
  -22.5300   -8.4480   21.2390 C   0  0  0  0  0  0  0  0  0  0  0  0
  -22.1440   -9.4110   20.2910 C   0  0  0  0  0  3  0  0  0  0  0  0
  -22.8910  -10.5890   20.1210 C   0  0  0  0  0  3  0  0  0  0  0  0
  -21.7570   -7.3150   21.3160 O   0  0  0  0  0  0  0  0  0  0  0  0
  -21.6940   -6.5640   22.4620 C   0  0  0  0  0  0  0  0  0  0  0  0
  -21.2650   -7.1110   23.6900 C   0  0  0  0  0  3  0  0  0  0  0  0
  -21.1480   -6.2860   24.8270 C   0  0  0  0  0  3  0  0  0  0  0  0
  -21.4500   -4.9150   24.7360 C   0  0  0  0  0  0  0  0  0  0  0  0
  -21.8730   -4.3660   23.5120 C   0  0  0  0  0  3  0  0  0  0  0  0
  -21.9910   -5.1890   22.3780 C   0  0  0  0  0  0  0  0  0  0  0  0
  -22.3780   -4.6500   21.1960 F   0  0  0  0  0  0  0  0  0  0  0  0
  -21.3320   -4.1200   25.8250 F   0  0  0  0  0  0  0  0  0  0  0  0
  -22.9450  -13.9340   21.0250 C   0  0  0  0  0  0  0  0  0  0  0  0
  -22.2080  -13.2560   21.8960 N   0  0  0  0  0  0  0  0  0  0  0  0
  -22.5220  -14.9590   20.4920 O   0  0  0  0  0  0  0  0  0  0  0  0
  -22.5650  -12.4270   22.3490 H   0  0  0  0  0  0  0  0  0  0  0  0
  -21.2730  -13.5700   22.1140 H   0  0  0  0  0  0  0  0  0  0  0  0
  -25.5960  -15.5720   20.2390 N   0  0  0  0  0  0  0  0  0  0  0  0
  -24.8420  -16.2360   20.3660 H   0  0  0  0  0  0  0  0  0  0  0  0
  -26.4630  -16.0090   19.9520 H   0  0  0  0  0  0  0  0  0  0  0  0
  -27.0390  -19.2810   16.6170 C   0  0  0  0  0  1  0  0  0  0  0  0
  -27.6730  -18.0710   17.3220 C   0  0  0  0  0  2  0  0  0  0  0  0
  -28.0540  -20.6260   18.8750 O   0  0  0  0  0  0  0  0  0  0  0  0
  -28.2490  -21.3670   19.4360 H   0  0  0  0  0  0  0  0  0  0  0  0
  -29.4820  -21.2150   21.2070 C   0  0  0  0  0  2  0  0  0  0  0  0
  -29.4650  -22.9340   20.6490 C   0  0  0  0  0  3  0  0  0  0  0  0
  -28.6910  -24.4410   21.2610 C   0  0  0  0  0  3  0  0  0  0  0  0
  -28.8480  -26.0600   21.0170 O   0  0  0  0  0  0  0  0  0  0  0  0
  -24.8510  -32.0250   23.3950 C   0  0  0  0  0  0  0  0  0  0  0  0
  -27.7790  -27.0860   20.8870 C   0  0  0  0  0  0  0  0  0  0  0  0
  -23.8250  -30.4860   21.7700 C   0  0  0  0  0  3  0  0  0  0  0  0
  -25.4230  -28.8520   20.5630 C   0  0  0  0  0  0  0  0  0  0  0  0
  -26.3860  -30.7910   21.7850 C   0  0  0  0  0  2  0  0  0  0  0  0
  -26.5500  -29.3480   21.2300 C   0  0  0  0  0  0  0  0  0  0  0  0
  -27.7280  -28.4860   21.3590 C   0  0  0  0  0  3  0  0  0  0  0  0
  -26.6170  -26.7280   20.1690 C   0  0  0  0  0  3  0  0  0  0  0  0
  -25.4800  -27.5620   20.0120 C   0  0  0  0  0  3  0  0  0  0  0  0
  -24.1750  -29.7270   20.4610 C   0  0  0  0  0  2  0  0  0  0  0  0
  -25.0380  -31.1320   22.3690 N   0  0  0  0  0  0  0  0  0  0  0  0
  -23.7190  -32.3040   23.8200 O   0  0  0  0  0  0  0  0  0  0  0  0
  -23.0980  -29.5260   22.7470 C   0  0  0  0  0  0  0  0  0  0  0  0
  -21.7850  -29.3080   22.5430 N   0  0  0  0  0  0  0  0  0  0  0  0
  -23.7250  -28.9740   23.6560 O   0  0  0  0  0  0  0  0  0  0  0  0
  -21.3330  -29.8040   21.7880 H   0  0  0  0  0  0  0  0  0  0  0  0
  -18.4020  -28.0560   22.9340 C   0  0  0  0  0  0  0  0  0  0  0  0
  -20.9400  -28.3890   23.3140 C   0  0  0  0  0  3  0  0  0  0  0  0
  -21.0980  -26.9350   22.8130 C   0  0  0  0  0  2  0  0  0  0  0  0
  -20.0560  -26.5430   21.7610 C   0  0  0  0  0  2  0  0  0  0  0  0
  -18.6400  -26.6840   22.3280 C   0  0  0  0  0  2  0  0  0  0  0  0
  -19.4820  -28.8640   23.3830 C   0  0  0  0  0  0  0  0  0  0  0  0
  -19.2050  -30.1430   23.9110 C   0  0  0  0  0  3  0  0  0  0  0  0
  -17.8820  -30.6180   23.9940 C   0  0  0  0  0  3  0  0  0  0  0  0
  -16.8170  -29.8090   23.5600 C   0  0  0  0  0  3  0  0  0  0  0  0
  -17.0770  -28.5310   23.0360 C   0  0  0  0  0  3  0  0  0  0  0  0
  -26.0520  -32.7510   24.0730 C   0  0  0  0  0  3  0  0  0  0  0  0
  -25.6560  -34.1510   24.3160 N   0  0  0  0  0  0  0  0  0  0  0  0
  -25.9810  -35.1870   23.5320 C   0  0  0  0  0  0  0  0  0  0  0  0
  -26.7070  -35.0700   22.5410 O   0  0  0  0  0  0  0  0  0  0  0  0
  -25.0120  -34.3090   25.0770 H   0  0  0  0  0  0  0  0  0  0  0  0
  -24.1870  -36.8820   23.0310 C   0  0  0  0  0  1  0  0  0  0  0  0
  -25.4140  -36.5730   23.9040 C   0  0  0  0  0  3  0  0  0  0  0  0
  -27.4690  -37.6040   24.7680 C   0  0  0  0  0  1  0  0  0  0  0  0
  -26.4010  -37.6680   23.7740 N   0  0  0  0  0  0  0  0  0  0  0  0
  -25.9470  -38.5750   23.8540 H   0  0  0  0  0  0  0  0  0  0  0  0
  -26.5030  -32.0730   25.4250 C   0  0  1  0  0  0  0  0  0  0  0  0
  -25.3380  -31.8040   26.4080 C   0  0  0  0  0  1  0  0  0  0  0  0
  -27.2080  -30.7230   25.1580 C   0  0  0  0  0  1  0  0  0  0  0  0
  -27.5360  -32.9730   26.1430 C   0  0  0  0  0  1  0  0  0  0  0  0
  1  2  1  0
  2  8  1  0
  2  4  2  0
  3  1  2  0
  3  6  1  0
  4  7  1  0
  5  4  1  0
  5 48  1  0
  6  5  2  0
  9 14  1  0
 10 11  1  0
 10  9  1  0
 12 11  1  0
 12 19  1  0
 12 13  1  0
 14  8  1  0
 14 13  1  0
 15  8  2  0
 16 17  2  0
 17 36  1  0
 18 17  1  0
 18 21  1  0
 19 16  1  0
 19 20  1  0
 20 18  2  0
 21 22  1  0
 22 23  2  0
 24 27  1  0
 24 23  1  0
 25 24  2  0
 26 25  1  0
 26 21  2  0
 27 28  1  0
 28 29  1  0
 29 30  2  0
 31 30  1  0
 31 35  1  0
 32 31  2  0
 33 28  2  0
 33 32  1  0
 34 33  1  0
 36 37  1  0
 37 40  1  0
 37 39  1  0
 38 36  2  0
 41 42  1  0
 41 16  1  0
 43 41  1  0
 44 45  1  0
 45  3  1  0
 46  6  1  0
 46 47  1  0
 49 48  1  0
 49 50  2  0
 51 50  1  0
 52 63  2  0
 53 51  1  0
 53 58  1  0
 54 62  1  0
 54 64  1  0
 55 57  1  0
 56 62  1  0
 57 58  2  0
 57 56  1  0
 59 53  2  0
 60 59  1  0
 60 55  2  0
 61 55  1  0
 61 54  1  0
 62 52  1  0
 64 66  2  0
 65 64  1  0
 67 65  1  0
 68 77  2  0
 68 73  1  0
 69 65  1  0
 69 73  1  0
 70 69  1  0
 71 72  1  0
 71 70  1  0
 72 68  1  0
 73 74  2  0
 74 75  1  0
 76 75  2  0
 77 76  1  0
 78 52  1  0
 78 79  1  0
 78 88  1  0
 79 82  1  0
 80 84  1  0
 80 79  1  0
 81 80  2  0
 84 83  1  0
 86 87  1  0
 86 84  1  0
 86 85  1  0
 88 91  1  1
 88 89  1  0
 90 88  1  0
M  ISO  4   2 100   8 100  50 101  51 101
M  END
>  <TORSDO>  (63) 
F 21

>  <SCORE>  (63) 
-14.181

>  <name>  (63) 
63

>  <ligand_id>  (63) 
63

>  <original_smiles>  (63) 
[H]Oc1c(C([H])([H])C([H])([H])[H])c([H])c(C(=O)N2C([H])([H])C([H])([H])C([H])([H])C([H])(n3nc(-c4c([H])c([H])c(Oc5c([H])c([H])c(F)c([H])c5F)c([H])c4[H])c(C(=O)N([H])[H])c3N([H])[H])C2([H])[H])c(C([H])([H])[H])c1C([H])([H])C([H])([H])C([H])([H])Oc1c([H])c([H])c2c(c1[H])C([H])([H])N(C(=O)C([H])(N([H])C(=O)C([H])(N([H])C([H])([H])[H])C([H])([H])[H])C(C([H])([H])[H])(C([H])([H])[H])C([H])([H])[H])C([H])(C(=O)N([H])C1([H])c3c([H])c([H])c([H])c([H])c3C([H])([H])C([H])([H])C1([H])[H])C2([H])[H]

>  <smiles>  (63) 
[H]Oc1c(C([H])([H])C([H])([H])[H])c([H])c(C(=O)N2C([H])([H])C([H])([H])C([H])([H])C([H])(n3nc(-c4c([H])c([H])c(Oc5c([H])c([H])c(F)c([H])c5F)c([H])c4[H])c(C(=O)N([H])[H])c3N([H])[H])C2([H])[H])c(C([H])([H])[H])c1C([H])([H])C([H])([H])C([H])([H])Oc1c([H])c([H])c2c(c1[H])C([H])([H])N(C(=O)C([H])(N([H])C(=O)C([H])(N([H])C([H])([H])[H])C([H])([H])[H])C(C([H])([H])[H])(C([H])([H])[H])C([H])([H])[H])C([H])(C(=O)N([H])C1([H])c3c([H])c([H])c([H])c([H])c3C([H])([H])C([H])([H])C1([H])[H])C2([H])[H]

$$$$
64:0:0
     RDKit          3D

 90 98  0  0  1  0  0  0  0  0999 V2000
  -28.4820  -22.0590   18.6270 C   0  0  0  0  0  3  0  0  0  0  0  0
  -28.1820  -23.2100   17.8650 C   0  0  0  0  0  3  0  0  0  0  0  0
  -28.6390  -23.5210   20.5550 C   0  0  0  0  0  3  0  0  0  0  0  0
  -28.7670  -22.1300   20.0030 C   0  0  0  0  0  0  0  0  0  0  0  0
  -28.1230  -24.5150   18.4110 C   0  0  0  0  0  0  0  0  0  0  0  0
  -28.2790  -24.7670   19.8010 C   0  0  0  0  0  0  0  0  0  0  0  0
  -27.9600  -25.5540   17.5380 O   0  0  0  0  0  0  0  0  0  0  0  0
  -27.9400  -25.2770   16.6290 H   0  0  0  0  0  0  0  0  0  0  0  0
  -28.2590  -26.1810   20.2540 O   0  0  0  0  0  0  0  0  0  0  0  0
  -24.6190  -31.8930   23.2290 C   0  0  0  0  0  0  0  0  0  0  0  0
  -27.1820  -27.1540   20.1850 C   0  0  0  0  0  0  0  0  0  0  0  0
  -23.4080  -30.4910   21.6050 C   0  0  0  0  0  3  0  0  0  0  0  0
  -24.8450  -28.9090   20.1750 C   0  0  0  0  0  0  0  0  0  0  0  0
  -25.9620  -30.7530   21.4190 C   0  0  0  0  0  2  0  0  0  0  0  0
  -26.0320  -29.3570   20.7680 C   0  0  0  0  0  0  0  0  0  0  0  0
  -27.1960  -28.4960   20.7540 C   0  0  0  0  0  3  0  0  0  0  0  0
  -25.9530  -26.8030   19.5820 C   0  0  0  0  0  3  0  0  0  0  0  0
  -24.8190  -27.6450   19.5680 C   0  0  0  0  0  3  0  0  0  0  0  0
  -23.6200  -29.8090   20.2270 C   0  0  0  0  0  2  0  0  0  0  0  0
  -24.6840  -31.0680   22.1380 N   0  0  0  0  0  0  0  0  0  0  0  0
  -23.5370  -32.1790   23.7630 O   0  0  0  0  0  0  0  0  0  0  0  0
  -22.7370  -29.4870   22.5760 C   0  0  0  0  0  0  0  0  0  0  0  0
  -21.4110  -29.2970   22.4440 N   0  0  0  0  0  0  0  0  0  0  0  0
  -23.4110  -28.8800   23.4120 O   0  0  0  0  0  0  0  0  0  0  0  0
  -20.9230  -29.8380   21.7450 H   0  0  0  0  0  0  0  0  0  0  0  0
  -18.0480  -28.0320   22.9190 C   0  0  0  0  0  0  0  0  0  0  0  0
  -20.5960  -28.3590   23.2210 C   0  0  0  0  0  3  0  0  0  0  0  0
  -20.7380  -26.9170   22.6810 C   0  0  0  0  0  2  0  0  0  0  0  0
  -19.6610  -26.5470   21.6560 C   0  0  0  0  0  2  0  0  0  0  0  0
  -18.2660  -26.6740   22.2750 C   0  0  0  0  0  2  0  0  0  0  0  0
  -19.1430  -28.8300   23.3490 C   0  0  0  0  0  0  0  0  0  0  0  0
  -18.8840  -30.0980   23.9120 C   0  0  0  0  0  3  0  0  0  0  0  0
  -17.5650  -30.5710   24.0500 C   0  0  0  0  0  3  0  0  0  0  0  0
  -16.4860  -29.7720   23.6350 C   0  0  0  0  0  3  0  0  0  0  0  0
  -16.7270  -28.5040   23.0760 C   0  0  0  0  0  3  0  0  0  0  0  0
  -25.9000  -32.5340   23.8440 C   0  0  0  0  0  3  0  0  0  0  0  0
  -26.4150  -31.7750   25.1310 C   0  0  1  0  0  0  0  0  0  0  0  0
  -25.3240  -31.5510   26.2030 C   0  0  0  0  0  1  0  0  0  0  0  0
  -26.9950  -30.3920   24.7570 C   0  0  0  0  0  1  0  0  0  0  0  0
  -27.5680  -32.5750   25.7810 C   0  0  0  0  0  1  0  0  0  0  0  0
  -25.5880  -33.9360   24.1680 N   0  0  0  0  0  0  0  0  0  0  0  0
  -25.9250  -34.9890   23.4110 C   0  0  0  0  0  0  0  0  0  0  0  0
  -26.5960  -34.8810   22.3810 O   0  0  0  0  0  0  0  0  0  0  0  0
  -24.9930  -34.0920   24.9680 H   0  0  0  0  0  0  0  0  0  0  0  0
  -24.2150  -36.7990   23.0490 C   0  0  0  0  0  1  0  0  0  0  0  0
  -25.4460  -36.3810   23.8670 C   0  0  0  0  0  3  0  0  0  0  0  0
  -27.5780  -37.2530   24.7200 C   0  0  0  0  0  1  0  0  0  0  0  0
  -26.4870  -37.4270   23.7640 N   0  0  0  0  0  0  0  0  0  0  0  0
  -26.0850  -38.3500   23.9040 H   0  0  0  0  0  0  0  0  0  0  0  0
  -29.2880  -20.7280   20.7350 C   0  0  0  0  0  2  0  0  0  0  0  0
  -29.1110  -19.1130   20.2010 C   0  0  0  0  0  3  0  0  0  0  0  0
  -30.0150  -17.7650   20.7300 C   0  0  0  0  0  3  0  0  0  0  0  0
  -30.4800  -15.0360   20.3870 C   0  0  0  0  0  0  0  0  0  0  0  0
  -30.4080  -12.6890   19.4090 C   0  0  0  0  0  2  0  0  0  0  0  0
  -29.4780  -12.6250   18.1760 C   0  0  0  0  0  2  0  0  0  0  0  0
  -28.0180  -12.3800   18.6050 C   0  0  0  0  0  2  0  0  0  0  0  0
  -27.5900  -13.2890   19.7860 C   0  0  0  0  0  3  0  0  0  0  0  0
  -28.6420  -13.3160   20.9120 C   0  0  0  0  0  2  0  0  0  0  0  0
  -29.9010  -13.7680   20.3040 N   0  0  0  0  0  0  0  0  0  0  0  0
  -31.6920  -15.1100   20.1550 O   0  0  0  0  0  0  0  0  0  0  0  0
  -29.6860  -16.2170   20.5290 N   0  0  0  0  0  0  0  0  0  0  0  0
  -28.7050  -16.0030   20.6200 H   0  0  0  0  0  0  0  0  0  0  0  0
  -25.1930  -13.8160   20.5030 C   0  0  0  0  0  0  0  0  0  0  0  0
  -24.1430  -13.0190   20.8670 C   0  0  0  0  0  0  0  0  0  0  0  0
  -24.6380  -11.6790   20.8490 C   0  0  0  0  0  0  0  0  0  0  0  0
  -26.2570  -12.9610   20.2780 N   0  0  0  0  0  0  0  0  0  0  0  0
  -25.9340  -11.6710   20.5520 N   0  0  0  0  0  0  0  0  0  0  0  0
  -23.9390  -10.4010   21.0370 C   0  0  0  0  0  0  0  0  0  0  0  0
  -24.3800   -9.4500   21.9840 C   0  0  0  0  0  3  0  0  0  0  0  0
  -23.6780   -8.2380   22.1600 C   0  0  0  0  0  3  0  0  0  0  0  0
  -22.5210   -7.9690   21.3920 C   0  0  0  0  0  0  0  0  0  0  0  0
  -22.0990   -8.9090   20.4360 C   0  0  0  0  0  3  0  0  0  0  0  0
  -22.8020  -10.1130   20.2570 C   0  0  0  0  0  3  0  0  0  0  0  0
  -21.7910   -6.8080   21.4780 O   0  0  0  0  0  0  0  0  0  0  0  0
  -21.7370   -6.0770   22.6360 C   0  0  0  0  0  0  0  0  0  0  0  0
  -21.2610   -6.6280   23.8460 C   0  0  0  0  0  3  0  0  0  0  0  0
  -21.1580   -5.8200   24.9960 C   0  0  0  0  0  3  0  0  0  0  0  0
  -21.5200   -4.4620   24.9370 C   0  0  0  0  0  0  0  0  0  0  0  0
  -21.9890   -3.9090   23.7320 C   0  0  0  0  0  3  0  0  0  0  0  0
  -22.0940   -4.7130   22.5850 C   0  0  0  0  0  0  0  0  0  0  0  0
  -22.5260   -4.1710   21.4210 F   0  0  0  0  0  0  0  0  0  0  0  0
  -21.4140   -3.6830   26.0400 F   0  0  0  0  0  0  0  0  0  0  0  0
  -22.7320  -13.4660   21.1170 C   0  0  0  0  0  0  0  0  0  0  0  0
  -22.0090  -12.7540   21.9740 N   0  0  0  0  0  0  0  0  0  0  0  0
  -22.2800  -14.4800   20.5890 O   0  0  0  0  0  0  0  0  0  0  0  0
  -22.3880  -11.9340   22.4230 H   0  0  0  0  0  0  0  0  0  0  0  0
  -21.0610  -13.0350   22.1860 H   0  0  0  0  0  0  0  0  0  0  0  0
  -25.3260  -15.1890   20.3180 N   0  0  0  0  0  0  0  0  0  0  0  0
  -24.5420  -15.8250   20.4110 H   0  0  0  0  0  0  0  0  0  0  0  0
  -26.1580  -15.6390   19.9590 H   0  0  0  0  0  0  0  0  0  0  0  0
  1  4  1  0
  2  5  1  0
  2  1  2  0
  4  3  2  0
  4 50  1  0
  5  6  2  0
  6  9  1  0
  6  3  1  0
  7  5  1  0
  8  7  1  0
 10 21  2  0
 11  9  1  0
 11 16  1  0
 12 20  1  0
 12 22  1  0
 13 19  1  0
 13 15  1  0
 14 20  1  0
 15 14  1  0
 16 15  2  0
 17 11  2  0
 18 17  1  0
 18 13  2  0
 19 12  1  0
 20 10  1  0
 22 24  2  0
 23 22  1  0
 25 23  1  0
 26 35  2  0
 26 31  1  0
 27 23  1  0
 27 31  1  0
 28 27  1  0
 29 30  1  0
 29 28  1  0
 30 26  1  0
 31 32  2  0
 32 33  1  0
 34 33  2  0
 35 34  1  0
 36 10  1  0
 36 41  1  0
 36 37  1  0
 37 40  1  1
 37 38  1  0
 39 37  1  0
 41 44  1  0
 42 46  1  0
 42 41  1  0
 43 42  2  0
 46 45  1  0
 48 46  1  0
 48 49  1  0
 48 47  1  0
 51 52  2  0
 51 50  1  0
 53 61  1  0
 54 59  1  0
 55 56  1  0
 55 54  1  0
 57 56  1  0
 57 66  1  0
 57 58  1  0
 59 53  1  0
 59 58  1  0
 60 53  2  0
 61 62  1  0
 61 52  1  0
 63 64  2  0
 64 83  1  0
 65 64  1  0
 65 68  1  0
 66 63  1  0
 66 67  1  0
 67 65  2  0
 68 69  1  0
 69 70  2  0
 71 74  1  0
 71 70  1  0
 72 71  2  0
 73 72  1  0
 73 68  2  0
 74 75  1  0
 75 76  1  0
 76 77  2  0
 78 77  1  0
 78 82  1  0
 79 78  2  0
 80 75  2  0
 80 79  1  0
 81 80  1  0
 83 84  1  0
 84 87  1  0
 84 86  1  0
 85 83  2  0
 88 89  1  0
 88 63  1  0
 90 88  1  0
M  ISO  4   6 101   9 101  53 100  61 100
M  END
>  <TORSDO>  (64) 
F 20

>  <SCORE>  (64) 
-15.125

>  <name>  (64) 
64

>  <ligand_id>  (64) 
64

>  <original_smiles>  (64) 
[H]Oc1c([H])c([H])c(C([H])([H])C([H])([H])C([H])([H])N([H])C(=O)N2C([H])([H])C([H])([H])C([H])([H])C([H])(n3nc(-c4c([H])c([H])c(Oc5c([H])c([H])c(F)c([H])c5F)c([H])c4[H])c(C(=O)N([H])[H])c3N([H])[H])C2([H])[H])c([H])c1Oc1c([H])c([H])c2c(c1[H])C([H])([H])N(C(=O)C([H])(N([H])C(=O)C([H])(N([H])C([H])([H])[H])C([H])([H])[H])C(C([H])([H])[H])(C([H])([H])[H])C([H])([H])[H])C([H])(C(=O)N([H])C1([H])c3c([H])c([H])c([H])c([H])c3C([H])([H])C([H])([H])C1([H])[H])C2([H])[H]

>  <smiles>  (64) 
[H]Oc1c([H])c([H])c(C([H])([H])C([H])([H])C([H])([H])N([H])C(=O)N2C([H])([H])C([H])([H])C([H])([H])C([H])(n3nc(-c4c([H])c([H])c(Oc5c([H])c([H])c(F)c([H])c5F)c([H])c4[H])c(C(=O)N([H])[H])c3N([H])[H])C2([H])[H])c([H])c1Oc1c([H])c([H])c2c(c1[H])C([H])([H])N(C(=O)C([H])(N([H])C(=O)C([H])(N([H])C([H])([H])[H])C([H])([H])[H])C(C([H])([H])[H])(C([H])([H])[H])C([H])([H])[H])C([H])(C(=O)N([H])C1([H])c3c([H])c([H])c([H])c([H])c3C([H])([H])C([H])([H])C1([H])[H])C2([H])[H]

$$$$
65:0:0
     RDKit          3D

 90 98  0  0  1  0  0  0  0  0999 V2000
  -29.0440  -19.0770   19.4220 C   0  0  0  0  0  3  0  0  0  0  0  0
  -28.8150  -20.5390   19.3910 C   0  0  0  0  0  3  0  0  0  0  0  0
  -30.6250  -19.3540   21.0780 C   0  0  0  0  0  3  0  0  0  0  0  0
  -29.9640  -18.3390   20.2800 C   0  0  0  0  0  0  0  0  0  0  0  0
  -29.4530  -21.5360   20.2290 C   0  0  0  0  0  0  0  0  0  0  0  0
  -30.3980  -20.8090   21.0620 C   0  0  0  0  0  0  0  0  0  0  0  0
  -28.3800  -16.4800   20.7210 C   0  0  0  0  0  1  0  0  0  0  0  0
  -30.3910  -16.5680   22.1320 C   0  0  0  0  0  1  0  0  0  0  0  0
  -29.9030  -16.6590   20.6690 C   0  0  2  0  0  0  0  0  0  0  0  0
  -30.6290  -15.2200   20.0040 C   0  0  0  0  0  0  0  0  0  0  0  0
  -30.5420  -12.8620   18.9320 C   0  0  0  0  0  2  0  0  0  0  0  0
  -29.5040  -12.7820   17.7810 C   0  0  0  0  0  2  0  0  0  0  0  0
  -28.0790  -12.5120   18.3050 C   0  0  0  0  0  2  0  0  0  0  0  0
  -27.7520  -13.3740   19.5470 C   0  0  0  0  0  3  0  0  0  0  0  0
  -28.9050  -13.3170   20.5790 C   0  0  0  0  0  2  0  0  0  0  0  0
  -30.0930  -13.9030   19.9230 N   0  0  0  0  0  0  0  0  0  0  0  0
  -31.7750  -15.2940   19.5410 O   0  0  0  0  0  0  0  0  0  0  0  0
  -25.4110  -13.9320   20.4380 C   0  0  0  0  0  0  0  0  0  0  0  0
  -24.3770  -13.1490   20.8590 C   0  0  0  0  0  0  0  0  0  0  0  0
  -24.8390  -11.8020   20.7590 C   0  0  0  0  0  0  0  0  0  0  0  0
  -26.4460  -13.0650   20.1200 N   0  0  0  0  0  0  0  0  0  0  0  0
  -26.1090  -11.7750   20.3730 N   0  0  0  0  0  0  0  0  0  0  0  0
  -24.1200  -10.5380   20.9510 C   0  0  0  0  0  0  0  0  0  0  0  0
  -24.5690   -9.5680   21.8740 C   0  0  0  0  0  3  0  0  0  0  0  0
  -23.8480   -8.3700   22.0570 C   0  0  0  0  0  3  0  0  0  0  0  0
  -22.6650   -8.1320   21.3170 C   0  0  0  0  0  0  0  0  0  0  0  0
  -22.2370   -9.0910   20.3830 C   0  0  0  0  0  3  0  0  0  0  0  0
  -22.9570  -10.2830   20.1970 C   0  0  0  0  0  3  0  0  0  0  0  0
  -21.9150   -6.9860   21.4110 O   0  0  0  0  0  0  0  0  0  0  0  0
  -21.8290   -6.2760   22.5830 C   0  0  0  0  0  0  0  0  0  0  0  0
  -21.3270   -6.8540   23.7690 C   0  0  0  0  0  3  0  0  0  0  0  0
  -21.1930   -6.0690   24.9310 C   0  0  0  0  0  3  0  0  0  0  0  0
  -21.5510   -4.7060   24.9070 C   0  0  0  0  0  0  0  0  0  0  0  0
  -22.0470   -4.1300   23.7260 C   0  0  0  0  0  3  0  0  0  0  0  0
  -22.1830   -4.9120   22.5660 C   0  0  0  0  0  0  0  0  0  0  0  0
  -22.6420   -4.3460   21.4240 F   0  0  0  0  0  0  0  0  0  0  0  0
  -21.4150   -3.9510   26.0220 F   0  0  0  0  0  0  0  0  0  0  0  0
  -23.0010  -13.6220   21.2340 C   0  0  0  0  0  0  0  0  0  0  0  0
  -22.3310  -12.9090   22.1310 N   0  0  0  0  0  0  0  0  0  0  0  0
  -22.5320  -14.6600   20.7660 O   0  0  0  0  0  0  0  0  0  0  0  0
  -22.7230  -12.0710   22.5330 H   0  0  0  0  0  0  0  0  0  0  0  0
  -21.4090  -13.2060   22.4210 H   0  0  0  0  0  0  0  0  0  0  0  0
  -25.5290  -15.3050   20.2720 N   0  0  0  0  0  0  0  0  0  0  0  0
  -24.7590  -15.9360   20.4630 H   0  0  0  0  0  0  0  0  0  0  0  0
  -26.3600  -15.7790   19.9440 H   0  0  0  0  0  0  0  0  0  0  0  0
  -31.1700  -21.5320   21.9220 O   0  0  0  0  0  0  0  0  0  0  0  0
  -30.9570  -22.4580   21.9230 H   0  0  0  0  0  0  0  0  0  0  0  0
  -29.3910  -23.2450   20.1060 C   0  0  0  0  0  3  0  0  0  0  0  0
  -28.1760  -24.4790   20.2400 C   0  0  0  0  0  3  0  0  0  0  0  0
  -28.3600  -26.0740   20.2540 O   0  0  0  0  0  0  0  0  0  0  0  0
  -24.6340  -31.8550   23.1640 C   0  0  0  0  0  0  0  0  0  0  0  0
  -27.2880  -27.0740   20.1980 C   0  0  0  0  0  0  0  0  0  0  0  0
  -23.4650  -30.4340   21.5270 C   0  0  0  0  0  3  0  0  0  0  0  0
  -24.9420  -28.8470   20.1300 C   0  0  0  0  0  0  0  0  0  0  0  0
  -26.0230  -30.7020   21.3880 C   0  0  0  0  0  2  0  0  0  0  0  0
  -26.1160  -29.2970   20.7450 C   0  0  0  0  0  0  0  0  0  0  0  0
  -27.2870  -28.4310   20.7540 C   0  0  0  0  0  3  0  0  0  0  0  0
  -26.0780  -26.7430   19.5460 C   0  0  0  0  0  3  0  0  0  0  0  0
  -24.9410  -27.5860   19.5130 C   0  0  0  0  0  3  0  0  0  0  0  0
  -23.7070  -29.7420   20.1580 C   0  0  0  0  0  2  0  0  0  0  0  0
  -24.7270  -31.0220   22.0800 N   0  0  0  0  0  0  0  0  0  0  0  0
  -23.5390  -32.1370   23.6760 O   0  0  0  0  0  0  0  0  0  0  0  0
  -22.7800  -29.4350   22.4930 C   0  0  0  0  0  0  0  0  0  0  0  0
  -21.4570  -29.2370   22.3420 N   0  0  0  0  0  0  0  0  0  0  0  0
  -23.4430  -28.8370   23.3440 O   0  0  0  0  0  0  0  0  0  0  0  0
  -20.9770  -29.7710   21.6320 H   0  0  0  0  0  0  0  0  0  0  0  0
  -18.0970  -27.9470   22.7720 C   0  0  0  0  0  0  0  0  0  0  0  0
  -20.6380  -28.2950   23.1100 C   0  0  0  0  0  3  0  0  0  0  0  0
  -20.7990  -26.8530   22.5770 C   0  0  0  0  0  2  0  0  0  0  0  0
  -19.7400  -26.4710   21.5380 C   0  0  0  0  0  2  0  0  0  0  0  0
  -18.3350  -26.5880   22.1340 C   0  0  0  0  0  2  0  0  0  0  0  0
  -19.1780  -28.7550   23.2150 C   0  0  0  0  0  0  0  0  0  0  0  0
  -18.9000  -30.0220   23.7710 C   0  0  0  0  0  3  0  0  0  0  0  0
  -17.5750  -30.4840   23.8870 C   0  0  0  0  0  3  0  0  0  0  0  0
  -16.5090  -29.6740   23.4590 C   0  0  0  0  0  3  0  0  0  0  0  0
  -16.7710  -28.4070   22.9080 C   0  0  0  0  0  3  0  0  0  0  0  0
  -25.8970  -32.5120   23.8010 C   0  0  0  0  0  3  0  0  0  0  0  0
  -26.4040  -31.7540   25.0900 C   0  0  1  0  0  0  0  0  0  0  0  0
  -25.2990  -31.5100   26.1450 C   0  0  0  0  0  1  0  0  0  0  0  0
  -27.0090  -30.3820   24.7200 C   0  0  0  0  0  1  0  0  0  0  0  0
  -27.5350  -32.5670   25.7630 C   0  0  0  0  0  1  0  0  0  0  0  0
  -25.5630  -33.9080   24.1280 N   0  0  0  0  0  0  0  0  0  0  0  0
  -25.8980  -34.9710   23.3850 C   0  0  0  0  0  0  0  0  0  0  0  0
  -26.5830  -34.8790   22.3640 O   0  0  0  0  0  0  0  0  0  0  0  0
  -24.9540  -34.0510   24.9210 H   0  0  0  0  0  0  0  0  0  0  0  0
  -24.1720  -36.7640   23.0080 C   0  0  0  0  0  1  0  0  0  0  0  0
  -25.3930  -36.3540   23.8450 C   0  0  0  0  0  3  0  0  0  0  0  0
  -27.4980  -37.2420   24.7450 C   0  0  0  0  0  1  0  0  0  0  0  0
  -26.4240  -37.4120   23.7700 N   0  0  0  0  0  0  0  0  0  0  0  0
  -26.0100  -38.3300   23.9110 H   0  0  0  0  0  0  0  0  0  0  0  0
  1  4  1  0
  2  1  2  0
  2  5  1  0
  4  9  1  0
  4  3  2  0
  5  6  2  0
  6  3  1  0
  6 46  1  0
  9  7  1  1
  9  8  1  0
 10  9  1  0
 11 16  1  0
 12 13  1  0
 12 11  1  0
 14 13  1  0
 14 21  1  0
 14 15  1  0
 16 10  1  0
 16 15  1  0
 17 10  2  0
 18 19  2  0
 19 38  1  0
 20 19  1  0
 20 23  1  0
 21 22  1  0
 21 18  1  0
 22 20  2  0
 23 24  1  0
 24 25  2  0
 26 29  1  0
 26 25  1  0
 27 26  2  0
 28 27  1  0
 28 23  2  0
 29 30  1  0
 30 31  1  0
 31 32  2  0
 33 32  1  0
 33 37  1  0
 34 33  2  0
 35 30  2  0
 35 34  1  0
 36 35  1  0
 38 39  1  0
 39 42  1  0
 39 41  1  0
 40 38  2  0
 43 18  1  0
 43 44  1  0
 45 43  1  0
 46 47  1  0
 48  5  1  0
 48 49  2  0
 49 50  1  0
 51 62  2  0
 52 50  1  0
 52 57  1  0
 53 61  1  0
 53 63  1  0
 54 60  1  0
 54 56  1  0
 55 61  1  0
 56 57  2  0
 56 55  1  0
 58 52  2  0
 59 58  1  0
 59 54  2  0
 60 53  1  0
 61 51  1  0
 63 65  2  0
 64 63  1  0
 66 64  1  0
 67 76  2  0
 67 72  1  0
 68 64  1  0
 68 72  1  0
 69 68  1  0
 70 71  1  0
 70 69  1  0
 71 67  1  0
 72 73  2  0
 73 74  1  0
 75 74  2  0
 76 75  1  0
 77 51  1  0
 77 82  1  0
 77 78  1  0
 78 81  1  1
 78 79  1  0
 80 78  1  0
 82 85  1  0
 83 87  1  0
 83 82  1  0
 84 83  2  0
 87 86  1  0
 89 87  1  0
 89 90  1  0
 89 88  1  0
M  ISO  4   9 100  10 100  49 101  50 101
M  END
>  <TORSDO>  (65) 
F 20

>  <SCORE>  (65) 
-15.886

>  <name>  (65) 
65

>  <ligand_id>  (65) 
65

>  <original_smiles>  (65) 
[H]Oc1c([H])c(C(C(=O)N2C([H])([H])C([H])([H])C([H])([H])C([H])(n3nc(-c4c([H])c([H])c(Oc5c([H])c([H])c(F)c([H])c5F)c([H])c4[H])c(C(=O)N([H])[H])c3N([H])[H])C2([H])[H])(C([H])([H])[H])C([H])([H])[H])c([H])c([H])c1C([H])([H])C([H])([H])Oc1c([H])c([H])c2c(c1[H])C([H])([H])N(C(=O)C([H])(N([H])C(=O)C([H])(N([H])C([H])([H])[H])C([H])([H])[H])C(C([H])([H])[H])(C([H])([H])[H])C([H])([H])[H])C([H])(C(=O)N([H])C1([H])c3c([H])c([H])c([H])c([H])c3C([H])([H])C([H])([H])C1([H])[H])C2([H])[H]

>  <smiles>  (65) 
[H]Oc1c([H])c(C(C(=O)N2C([H])([H])C([H])([H])C([H])([H])C([H])(n3nc(-c4c([H])c([H])c(Oc5c([H])c([H])c(F)c([H])c5F)c([H])c4[H])c(C(=O)N([H])[H])c3N([H])[H])C2([H])[H])(C([H])([H])[H])C([H])([H])[H])c([H])c([H])c1C([H])([H])C([H])([H])Oc1c([H])c([H])c2c(c1[H])C([H])([H])N(C(=O)C([H])(N([H])C(=O)C([H])(N([H])C([H])([H])[H])C([H])([H])[H])C(C([H])([H])[H])(C([H])([H])[H])C([H])([H])[H])C([H])(C(=O)N([H])C1([H])c3c([H])c([H])c([H])c([H])c3C([H])([H])C([H])([H])C1([H])[H])C2([H])[H]

$$$$
66:0:0
     RDKit          3D

 97106  0  0  1  0  0  0  0  0999 V2000
  -30.1320  -24.9500   23.3770 C   0  0  0  0  0  3  0  0  0  0  0  0
  -30.3730  -26.3060   23.1550 C   0  0  0  0  0  3  0  0  0  0  0  0
  -29.6300  -24.1250   22.3520 C   0  0  0  0  0  0  0  0  0  0  0  0
  -29.3710  -24.6580   21.0440 C   0  0  0  0  0  0  0  0  0  0  0  0
  -29.9800  -26.8850   21.9440 C   0  0  0  0  0  0  0  0  0  0  0  0
  -29.3480  -26.1240   20.9240 C   0  0  0  0  0  0  0  0  0  0  0  0
  -28.3230  -22.6780   23.9480 C   0  0  0  0  0  1  0  0  0  0  0  0
  -30.5570  -21.8460   23.0750 C   0  0  0  0  0  1  0  0  0  0  0  0
  -29.3020  -22.6830   22.7600 C   0  0  0  0  0  3  0  0  0  0  0  0
  -30.2580  -28.2100   21.7570 O   0  0  0  0  0  0  0  0  0  0  0  0
  -30.7860  -28.5790   22.4570 H   0  0  0  0  0  0  0  0  0  0  0  0
  -28.8440  -26.9080   19.8740 O   0  0  0  0  0  0  0  0  0  0  0  0
  -24.6410  -31.8710   23.1680 C   0  0  0  0  0  0  0  0  0  0  0  0
  -27.6630  -27.6640   19.9940 C   0  0  0  0  0  0  0  0  0  0  0  0
  -23.5660  -30.4230   21.4790 C   0  0  0  0  0  3  0  0  0  0  0  0
  -25.1520  -29.0460   20.0180 C   0  0  0  0  0  0  0  0  0  0  0  0
  -26.0620  -30.9740   21.3130 C   0  0  0  0  0  2  0  0  0  0  0  0
  -26.2660  -29.6240   20.6370 C   0  0  0  0  0  0  0  0  0  0  0  0
  -27.5210  -28.9460   20.6180 C   0  0  0  0  0  3  0  0  0  0  0  0
  -26.5200  -27.1350   19.3580 C   0  0  0  0  0  3  0  0  0  0  0  0
  -25.2810  -27.8070   19.3680 C   0  0  0  0  0  3  0  0  0  0  0  0
  -23.8410  -29.8060   20.0820 C   0  0  0  0  0  2  0  0  0  0  0  0
  -24.7730  -31.1070   22.0450 N   0  0  0  0  0  0  0  0  0  0  0  0
  -23.5360  -32.0360   23.7070 O   0  0  0  0  0  0  0  0  0  0  0  0
  -22.9960  -29.3240   22.4060 C   0  0  0  0  0  0  0  0  0  0  0  0
  -21.6830  -29.0570   22.2860 N   0  0  0  0  0  0  0  0  0  0  0  0
  -23.7300  -28.7180   23.1900 O   0  0  0  0  0  0  0  0  0  0  0  0
  -21.1460  -29.6030   21.6260 H   0  0  0  0  0  0  0  0  0  0  0  0
  -18.4060  -27.6150   22.7980 C   0  0  0  0  0  0  0  0  0  0  0  0
  -20.9470  -28.0310   23.0270 C   0  0  0  0  0  3  0  0  0  0  0  0
  -21.1280  -26.6390   22.3800 C   0  0  0  0  0  2  0  0  0  0  0  0
  -20.0260  -26.2940   21.3730 C   0  0  0  0  0  2  0  0  0  0  0  0
  -18.6530  -26.3150   22.0510 C   0  0  0  0  0  2  0  0  0  0  0  0
  -19.4810  -28.4290   23.2420 C   0  0  0  0  0  0  0  0  0  0  0  0
  -19.1940  -29.6440   23.8990 C   0  0  0  0  0  3  0  0  0  0  0  0
  -17.8620  -30.0500   24.1140 C   0  0  0  0  0  3  0  0  0  0  0  0
  -16.8020  -29.2340   23.6830 C   0  0  0  0  0  3  0  0  0  0  0  0
  -17.0750  -28.0160   23.0340 C   0  0  0  0  0  3  0  0  0  0  0  0
  -25.8620  -32.5930   23.8170 C   0  0  0  0  0  3  0  0  0  0  0  0
  -25.4600  -33.9770   24.1000 N   0  0  0  0  0  0  0  0  0  0  0  0
  -25.7630  -35.0320   23.3300 C   0  0  0  0  0  0  0  0  0  0  0  0
  -26.4780  -34.9460   22.3290 O   0  0  0  0  0  0  0  0  0  0  0  0
  -24.8240  -34.1160   24.8730 H   0  0  0  0  0  0  0  0  0  0  0  0
  -23.9490  -36.7130   22.8680 C   0  0  0  0  0  1  0  0  0  0  0  0
  -25.1800  -36.4000   23.7340 C   0  0  0  0  0  3  0  0  0  0  0  0
  -27.2310  -37.4240   24.6170 C   0  0  0  0  0  1  0  0  0  0  0  0
  -26.1550  -37.5090   23.6320 N   0  0  0  0  0  0  0  0  0  0  0  0
  -25.6930  -38.4070   23.7450 H   0  0  0  0  0  0  0  0  0  0  0  0
  -26.3760  -31.8830   25.1290 C   0  0  1  0  0  0  0  0  0  0  0  0
  -25.2620  -31.6060   26.1650 C   0  0  0  0  0  1  0  0  0  0  0  0
  -27.0520  -30.5330   24.7920 C   0  0  0  0  0  1  0  0  0  0  0  0
  -27.4540  -32.7600   25.8100 C   0  0  0  0  0  1  0  0  0  0  0  0
  -29.1420  -23.6140   19.8780 C   0  0  0  0  0  2  0  0  0  0  0  0
  -30.0320  -22.2550   19.8610 C   0  0  0  0  0  3  0  0  0  0  0  0
  -29.3420  -20.8030   19.7850 C   0  0  0  0  0  3  0  0  0  0  0  0
  -31.4200  -15.0640   19.9070 C   0  0  0  0  0  0  0  0  0  0  0  0
  -31.0870  -12.7610   19.0130 C   0  0  0  0  0  2  0  0  0  0  0  0
  -30.1420  -12.8000   17.7940 C   0  0  0  0  0  2  0  0  0  0  0  0
  -28.6720  -12.7070   18.2500 C   0  0  0  0  0  2  0  0  0  0  0  0
  -28.3440  -13.6700   19.4240 C   0  0  0  0  0  3  0  0  0  0  0  0
  -29.4140  -13.6090   20.5330 C   0  0  0  0  0  2  0  0  0  0  0  0
  -30.7040  -13.8890   19.8950 N   0  0  0  0  0  0  0  0  0  0  0  0
  -32.6130  -15.0290   19.5810 O   0  0  0  0  0  0  0  0  0  0  0  0
  -30.5020  -18.6480   18.6760 C   0  0  0  0  0  2  0  0  0  0  0  0
  -29.5110  -18.3550   20.8610 C   0  0  0  0  0  2  0  0  0  0  0  0
  -31.3050  -17.3110   18.8950 C   0  0  0  0  0  2  0  0  0  0  0  0
  -30.3300  -17.0200   21.0780 C   0  0  0  0  0  2  0  0  0  0  0  0
  -30.1920  -19.4420   19.9690 C   0  0  0  0  0  3  0  0  0  0  0  0
  -30.7550  -16.2930   19.8500 N   0  0  0  0  0  0  0  0  0  0  0  0
  -26.0160  -14.3730   20.2350 C   0  0  0  0  0  0  0  0  0  0  0  0
  -24.9200  -13.6490   20.6180 C   0  0  0  0  0  0  0  0  0  0  0  0
  -25.3070  -12.2760   20.5480 C   0  0  0  0  0  0  0  0  0  0  0  0
  -27.0020  -13.4430   19.9500 N   0  0  0  0  0  0  0  0  0  0  0  0
  -26.5850  -12.1750   20.2010 N   0  0  0  0  0  0  0  0  0  0  0  0
  -24.5180  -11.0510   20.7340 C   0  0  0  0  0  0  0  0  0  0  0  0
  -24.8860  -10.0700   21.6810 C   0  0  0  0  0  3  0  0  0  0  0  0
  -24.0990   -8.9110   21.8560 C   0  0  0  0  0  3  0  0  0  0  0  0
  -22.9290   -8.7240   21.0800 C   0  0  0  0  0  0  0  0  0  0  0  0
  -22.5800   -9.6920   20.1220 C   0  0  0  0  0  3  0  0  0  0  0  0
  -23.3670  -10.8430   19.9470 C   0  0  0  0  0  3  0  0  0  0  0  0
  -22.1190   -7.6170   21.1610 O   0  0  0  0  0  0  0  0  0  0  0  0
  -21.9520   -6.9330   22.3380 C   0  0  0  0  0  0  0  0  0  0  0  0
  -21.4770   -7.5660   23.5070 C   0  0  0  0  0  3  0  0  0  0  0  0
  -21.2520   -6.8130   24.6760 C   0  0  0  0  0  3  0  0  0  0  0  0
  -21.4930   -5.4250   24.6760 C   0  0  0  0  0  0  0  0  0  0  0  0
  -21.9590   -4.7910   23.5130 C   0  0  0  0  0  3  0  0  0  0  0  0
  -22.1860   -5.5430   22.3460 C   0  0  0  0  0  0  0  0  0  0  0  0
  -22.6140   -4.9230   21.2200 F   0  0  0  0  0  0  0  0  0  0  0  0
  -21.2700   -4.6990   25.7970 F   0  0  0  0  0  0  0  0  0  0  0  0
  -23.5580  -14.1960   20.9370 C   0  0  0  0  0  0  0  0  0  0  0  0
  -22.8250  -13.5340   21.8260 N   0  0  0  0  0  0  0  0  0  0  0  0
  -23.1570  -15.2440   20.4350 O   0  0  0  0  0  0  0  0  0  0  0  0
  -23.1620  -12.6860   22.2540 H   0  0  0  0  0  0  0  0  0  0  0  0
  -21.9110  -13.8820   22.0800 H   0  0  0  0  0  0  0  0  0  0  0  0
  -26.2520  -15.7350   20.0810 N   0  0  0  0  0  0  0  0  0  0  0  0
  -25.5330  -16.4330   20.2390 H   0  0  0  0  0  0  0  0  0  0  0  0
  -27.1280  -16.1310   19.7620 H   0  0  0  0  0  0  0  0  0  0  0  0
  2  1  1  0
  3  9  1  0
  3  1  2  0
  4  3  1  0
  5  2  2  0
  6  4  2  0
  6  5  1  0
  9  8  1  0
  9  7  1  0
 10  5  1  0
 10 11  1  0
 12 14  1  0
 12  6  1  0
 13 24  2  0
 14 19  1  0
 15 23  1  0
 15 25  1  0
 16 22  1  0
 16 18  1  0
 17 23  1  0
 18 17  1  0
 19 18  2  0
 20 21  1  0
 20 14  2  0
 21 16  2  0
 22 15  1  0
 23 13  1  0
 25 27  2  0
 26 25  1  0
 28 26  1  0
 29 38  2  0
 29 34  1  0
 30 26  1  0
 30 34  1  0
 31 30  1  0
 32 33  1  0
 32 31  1  0
 33 29  1  0
 34 35  2  0
 35 36  1  0
 37 36  2  0
 38 37  1  0
 39 13  1  0
 39 40  1  0
 39 49  1  0
 40 43  1  0
 41 45  1  0
 41 40  1  0
 42 41  2  0
 45 44  1  0
 47 45  1  0
 47 48  1  0
 47 46  1  0
 49 52  1  1
 49 50  1  0
 51 49  1  0
 53  4  1  0
 54 53  1  0
 55 54  2  0
 57 62  1  0
 58 59  1  0
 58 57  1  0
 60 59  1  0
 60 73  1  0
 60 61  1  0
 62 56  1  0
 62 61  1  0
 63 56  2  0
 64 66  1  0
 64 68  1  0
 65 67  1  0
 66 69  1  0
 68 55  1  0
 68 65  1  0
 69 56  1  0
 69 67  1  0
 70 71  2  0
 71 90  1  0
 72 71  1  0
 72 75  1  0
 73 74  1  0
 73 70  1  0
 74 72  2  0
 75 76  1  0
 76 77  2  0
 78 81  1  0
 78 77  1  0
 79 78  2  0
 80 79  1  0
 80 75  2  0
 81 82  1  0
 82 87  2  0
 82 83  1  0
 83 84  2  0
 85 84  1  0
 85 89  1  0
 86 85  2  0
 87 86  1  0
 88 87  1  0
 90 91  1  0
 91 94  1  0
 91 93  1  0
 92 90  2  0
 95 70  1  0
 95 96  1  0
 97 95  1  0
M  ISO  4   6 101  12 101  56 100  69 100
M  END
>  <TORSDO>  (66) 
F 21

>  <SCORE>  (66) 
-9.351

>  <name>  (66) 
66

>  <ligand_id>  (66) 
66

>  <original_smiles>  (66) 
[H]Oc1c([H])c([H])c(C([H])(C([H])([H])[H])C([H])([H])[H])c(C([H])([H])C([H])([H])C([H])([H])C2([H])C([H])([H])C([H])([H])N(C(=O)N3C([H])([H])C([H])([H])C([H])([H])C([H])(n4nc(-c5c([H])c([H])c(Oc6c([H])c([H])c(F)c([H])c6F)c([H])c5[H])c(C(=O)N([H])[H])c4N([H])[H])C3([H])[H])C([H])([H])C2([H])[H])c1Oc1c([H])c([H])c2c(c1[H])C([H])([H])N(C(=O)C([H])(N([H])C(=O)C([H])(N([H])C([H])([H])[H])C([H])([H])[H])C(C([H])([H])[H])(C([H])([H])[H])C([H])([H])[H])C([H])(C(=O)N([H])C1([H])c3c([H])c([H])c([H])c([H])c3C([H])([H])C([H])([H])C1([H])[H])C2([H])[H]

>  <smiles>  (66) 
[H]Oc1c([H])c([H])c(C([H])(C([H])([H])[H])C([H])([H])[H])c(C([H])([H])C([H])([H])C([H])([H])C2([H])C([H])([H])C([H])([H])N(C(=O)N3C([H])([H])C([H])([H])C([H])([H])C([H])(n4nc(-c5c([H])c([H])c(Oc6c([H])c([H])c(F)c([H])c6F)c([H])c5[H])c(C(=O)N([H])[H])c4N([H])[H])C3([H])[H])C([H])([H])C2([H])[H])c1Oc1c([H])c([H])c2c(c1[H])C([H])([H])N(C(=O)C([H])(N([H])C(=O)C([H])(N([H])C([H])([H])[H])C([H])([H])[H])C(C([H])([H])[H])(C([H])([H])[H])C([H])([H])[H])C([H])(C(=O)N([H])C1([H])c3c([H])c([H])c([H])c([H])c3C([H])([H])C([H])([H])C1([H])[H])C2([H])[H]

$$$$
67:0:0
     RDKit          3D

 92100  0  0  1  0  0  0  0  0999 V2000
  -29.5080  -21.3360   21.4650 C   0  0  0  0  0  0  0  0  0  0  0  0
  -29.2970  -22.4380   20.6230 N   0  0  0  0  0  0  0  0  0  0  0  0
  -29.4170  -21.5700   22.6710 O   0  0  0  0  0  0  0  0  0  0  0  0
  -29.2910  -22.2800   19.6250 H   0  0  0  0  0  0  0  0  0  0  0  0
  -29.8550  -18.8070   22.1300 C   0  0  0  0  0  3  0  0  0  0  0  0
  -30.1560  -17.4090   21.9190 C   0  0  0  0  0  3  0  0  0  0  0  0
  -30.1400  -19.2370   19.8360 C   0  0  0  0  0  3  0  0  0  0  0  0
  -29.8430  -19.8110   21.1060 C   0  0  0  0  0  0  0  0  0  0  0  0
  -30.5090  -16.8110   20.6700 C   0  0  0  0  0  0  0  0  0  0  0  0
  -30.5090  -17.8280   19.5980 C   0  0  0  0  0  0  0  0  0  0  0  0
  -31.1440  -15.3220   20.6490 C   0  0  0  0  0  0  0  0  0  0  0  0
  -31.0320  -12.8960   19.9460 C   0  0  0  0  0  2  0  0  0  0  0  0
  -30.2030  -12.5900   18.6720 C   0  0  0  0  0  2  0  0  0  0  0  0
  -28.6800  -12.5820   18.9270 C   0  0  0  0  0  2  0  0  0  0  0  0
  -28.1970  -13.6050   19.9950 C   0  0  0  0  0  3  0  0  0  0  0  0
  -29.1650  -13.7430   21.1840 C   0  0  0  0  0  2  0  0  0  0  0  0
  -30.4880  -14.0890   20.6520 N   0  0  0  0  0  0  0  0  0  0  0  0
  -32.3690  -15.2770   20.4820 O   0  0  0  0  0  0  0  0  0  0  0  0
  -25.7860  -14.2240   20.5790 C   0  0  0  0  0  0  0  0  0  0  0  0
  -24.6850  -13.4680   20.8730 C   0  0  0  0  0  0  0  0  0  0  0  0
  -25.1300  -12.1080   20.8810 C   0  0  0  0  0  0  0  0  0  0  0  0
  -26.8290  -13.3310   20.4210 N   0  0  0  0  0  0  0  0  0  0  0  0
  -26.4390  -12.0540   20.6750 N   0  0  0  0  0  0  0  0  0  0  0  0
  -24.3750  -10.8560   21.0180 C   0  0  0  0  0  0  0  0  0  0  0  0
  -24.7320   -9.8760   21.9720 C   0  0  0  0  0  3  0  0  0  0  0  0
  -23.9770   -8.6900   22.0960 C   0  0  0  0  0  3  0  0  0  0  0  0
  -22.8530   -8.4720   21.2650 C   0  0  0  0  0  0  0  0  0  0  0  0
  -22.5160   -9.4370   20.2990 C   0  0  0  0  0  3  0  0  0  0  0  0
  -23.2710  -10.6150   20.1720 C   0  0  0  0  0  3  0  0  0  0  0  0
  -22.0740   -7.3420   21.3040 O   0  0  0  0  0  0  0  0  0  0  0  0
  -21.8800   -6.6370   22.4640 C   0  0  0  0  0  0  0  0  0  0  0  0
  -21.2950   -7.2270   23.6050 C   0  0  0  0  0  3  0  0  0  0  0  0
  -21.0530   -6.4500   24.7570 C   0  0  0  0  0  3  0  0  0  0  0  0
  -21.3910   -5.0830   24.7680 C   0  0  0  0  0  0  0  0  0  0  0  0
  -21.9680   -4.4920   23.6310 C   0  0  0  0  0  3  0  0  0  0  0  0
  -22.2130   -5.2670   22.4830 C   0  0  0  0  0  0  0  0  0  0  0  0
  -22.7530   -4.6870   21.3830 F   0  0  0  0  0  0  0  0  0  0  0  0
  -21.1520   -4.3340   25.8690 F   0  0  0  0  0  0  0  0  0  0  0  0
  -23.2790  -13.9650   21.0380 C   0  0  0  0  0  0  0  0  0  0  0  0
  -22.4900  -13.3080   21.8760 N   0  0  0  0  0  0  0  0  0  0  0  0
  -22.8920  -14.9810   20.4590 O   0  0  0  0  0  0  0  0  0  0  0  0
  -22.8080  -12.4850   22.3710 H   0  0  0  0  0  0  0  0  0  0  0  0
  -21.5440  -13.6220   22.0280 H   0  0  0  0  0  0  0  0  0  0  0  0
  -25.9860  -15.5910   20.4070 N   0  0  0  0  0  0  0  0  0  0  0  0
  -25.2270  -16.2670   20.4640 H   0  0  0  0  0  0  0  0  0  0  0  0
  -26.8790  -16.0200   20.2010 H   0  0  0  0  0  0  0  0  0  0  0  0
  -30.0470  -18.3190   17.0970 C   0  0  0  0  0  1  0  0  0  0  0  0
  -31.1380  -16.1360   17.6600 C   0  0  0  0  0  1  0  0  0  0  0  0
  -30.9350  -17.5750   18.1230 C   0  0  0  0  0  3  0  0  0  0  0  0
  -28.9570  -23.8930   21.0890 C   0  0  0  0  0  3  0  0  0  0  0  0
  -28.7370  -25.1620   20.0480 C   0  0  0  0  0  3  0  0  0  0  0  0
  -28.6180  -26.6400   20.4300 O   0  0  0  0  0  0  0  0  0  0  0  0
  -24.6350  -31.9790   23.2920 C   0  0  0  0  0  0  0  0  0  0  0  0
  -27.4810  -27.4970   20.2790 C   0  0  0  0  0  0  0  0  0  0  0  0
  -23.5260  -30.5840   21.5760 C   0  0  0  0  0  3  0  0  0  0  0  0
  -25.0790  -29.1060   20.1560 C   0  0  0  0  0  0  0  0  0  0  0  0
  -26.0520  -30.9800   21.4800 C   0  0  0  0  0  2  0  0  0  0  0  0
  -26.2060  -29.6070   20.8130 C   0  0  0  0  0  0  0  0  0  0  0  0
  -27.4060  -28.8150   20.8660 C   0  0  0  0  0  3  0  0  0  0  0  0
  -26.3310  -27.0780   19.5690 C   0  0  0  0  0  3  0  0  0  0  0  0
  -25.1550  -27.8550   19.5180 C   0  0  0  0  0  3  0  0  0  0  0  0
  -23.8130  -29.9490   20.1870 C   0  0  0  0  0  2  0  0  0  0  0  0
  -24.7510  -31.2000   22.1770 N   0  0  0  0  0  0  0  0  0  0  0  0
  -23.5290  -32.2080   23.8070 O   0  0  0  0  0  0  0  0  0  0  0  0
  -22.8690  -29.5280   22.4980 C   0  0  0  0  0  0  0  0  0  0  0  0
  -21.5460  -29.3300   22.3570 N   0  0  0  0  0  0  0  0  0  0  0  0
  -23.5530  -28.8890   23.3040 O   0  0  0  0  0  0  0  0  0  0  0  0
  -21.0470  -29.9020   21.6920 H   0  0  0  0  0  0  0  0  0  0  0  0
  -18.1870  -28.0770   22.8340 C   0  0  0  0  0  0  0  0  0  0  0  0
  -20.7430  -28.3490   23.0930 C   0  0  0  0  0  3  0  0  0  0  0  0
  -20.8550  -26.9450   22.4570 C   0  0  0  0  0  2  0  0  0  0  0  0
  -19.7490  -26.6550   21.4390 C   0  0  0  0  0  2  0  0  0  0  0  0
  -18.3720  -26.7600   22.1000 C   0  0  0  0  0  2  0  0  0  0  0  0
  -19.3020  -28.8290   23.2900 C   0  0  0  0  0  0  0  0  0  0  0  0
  -19.0780  -30.0610   23.9420 C   0  0  0  0  0  3  0  0  0  0  0  0
  -17.7710  -30.5430   24.1400 C   0  0  0  0  0  3  0  0  0  0  0  0
  -16.6710  -29.7870   23.6970 C   0  0  0  0  0  3  0  0  0  0  0  0
  -16.8820  -28.5540   23.0540 C   0  0  0  0  0  3  0  0  0  0  0  0
  -25.8780  -32.6440   23.9590 C   0  0  0  0  0  3  0  0  0  0  0  0
  -26.3450  -31.9150   25.2790 C   0  0  1  0  0  0  0  0  0  0  0  0
  -25.2080  -31.6920   26.3010 C   0  0  0  0  0  1  0  0  0  0  0  0
  -26.9680  -30.5380   24.9550 C   0  0  0  0  0  1  0  0  0  0  0  0
  -27.4440  -32.7490   25.9830 C   0  0  0  0  0  1  0  0  0  0  0  0
  -25.5420  -34.0490   24.2350 N   0  0  0  0  0  0  0  0  0  0  0  0
  -25.8930  -35.0900   23.4650 C   0  0  0  0  0  0  0  0  0  0  0  0
  -26.6070  -34.9720   22.4660 O   0  0  0  0  0  0  0  0  0  0  0  0
  -24.9220  -34.2130   25.0160 H   0  0  0  0  0  0  0  0  0  0  0  0
  -24.1600  -36.8550   23.0030 C   0  0  0  0  0  1  0  0  0  0  0  0
  -25.3710  -36.4780   23.8700 C   0  0  0  0  0  3  0  0  0  0  0  0
  -27.4520  -37.4210   24.7770 C   0  0  0  0  0  1  0  0  0  0  0  0
  -26.3920  -37.5430   23.7770 N   0  0  0  0  0  0  0  0  0  0  0  0
  -25.9640  -38.4590   23.8880 H   0  0  0  0  0  0  0  0  0  0  0  0
  1  3  2  0
  2 50  1  0
  2  1  1  0
  4  2  1  0
  6  5  1  0
  7  8  1  0
  8  1  1  0
  8  5  2  0
  9  6  2  0
 10  7  2  0
 10  9  1  0
 11 17  1  0
 11  9  1  0
 12 17  1  0
 13 14  1  0
 13 12  1  0
 15 14  1  0
 15 22  1  0
 15 16  1  0
 17 16  1  0
 18 11  2  0
 19 20  2  0
 20 21  1  0
 20 39  1  0
 21 24  1  0
 22 19  1  0
 22 23  1  0
 23 21  2  0
 24 25  1  0
 25 26  2  0
 27 30  1  0
 27 26  1  0
 28 27  2  0
 29 28  1  0
 29 24  2  0
 30 31  1  0
 31 36  2  0
 31 32  1  0
 32 33  2  0
 33 34  1  0
 34 38  1  0
 35 34  2  0
 36 35  1  0
 37 36  1  0
 39 40  1  0
 40 43  1  0
 40 42  1  0
 41 39  2  0
 44 45  1  0
 44 19  1  0
 46 44  1  0
 47 49  1  0
 48 49  1  0
 49 10  1  0
 51 52  1  0
 51 50  2  0
 53 64  2  0
 54 52  1  0
 54 59  1  0
 55 63  1  0
 55 65  1  0
 56 62  1  0
 56 58  1  0
 57 63  1  0
 58 59  2  0
 58 57  1  0
 60 54  2  0
 61 60  1  0
 61 56  2  0
 62 55  1  0
 63 53  1  0
 65 67  2  0
 66 65  1  0
 68 66  1  0
 69 78  2  0
 69 74  1  0
 70 66  1  0
 70 74  1  0
 71 70  1  0
 72 73  1  0
 72 71  1  0
 73 69  1  0
 74 75  2  0
 75 76  1  0
 77 76  2  0
 78 77  1  0
 79 53  1  0
 79 84  1  0
 79 80  1  0
 80 83  1  1
 80 81  1  0
 82 80  1  0
 84 87  1  0
 85 89  1  0
 85 84  1  0
 86 85  2  0
 89 88  1  0
 91 89  1  0
 91 92  1  0
 91 90  1  0
M  ISO  4   9 100  11 100  51 101  52 101
M  END
>  <TORSDO>  (67) 
F 20

>  <SCORE>  (67) 
-12.231

>  <name>  (67) 
67

>  <ligand_id>  (67) 
67

>  <original_smiles>  (67) 
[H]c1c([H])c([H])c2c(c1[H])C([H])([H])C([H])([H])C([H])([H])C2([H])N([H])C(=O)C1([H])N(C(=O)C([H])(N([H])C(=O)C([H])(N([H])C([H])([H])[H])C([H])([H])[H])C(C([H])([H])[H])(C([H])([H])[H])C([H])([H])[H])C([H])([H])c2c([H])c(OC([H])([H])C([H])([H])N([H])C(=O)c3c([H])c([H])c(C(=O)N4C([H])([H])C([H])([H])C([H])([H])C([H])(n5nc(-c6c([H])c([H])c(Oc7c([H])c([H])c(F)c([H])c7F)c([H])c6[H])c(C(=O)N([H])[H])c5N([H])[H])C4([H])[H])c(C([H])(C([H])([H])[H])C([H])([H])[H])c3[H])c([H])c([H])c2C1([H])[H]

>  <smiles>  (67) 
[H]c1c([H])c([H])c2c(c1[H])C([H])([H])C([H])([H])C([H])([H])C2([H])N([H])C(=O)C1([H])N(C(=O)C([H])(N([H])C(=O)C([H])(N([H])C([H])([H])[H])C([H])([H])[H])C(C([H])([H])[H])(C([H])([H])[H])C([H])([H])[H])C([H])([H])c2c([H])c(OC([H])([H])C([H])([H])N([H])C(=O)c3c([H])c([H])c(C(=O)N4C([H])([H])C([H])([H])C([H])([H])C([H])(n5nc(-c6c([H])c([H])c(Oc7c([H])c([H])c(F)c([H])c7F)c([H])c6[H])c(C(=O)N([H])[H])c5N([H])[H])C4([H])[H])c(C([H])(C([H])([H])[H])C([H])([H])[H])c3[H])c([H])c([H])c2C1([H])[H]

$$$$
68:0:0
     RDKit          3D

 93101  0  0  1  0  0  0  0  0999 V2000
  -27.1050  -20.8510   19.5020 C   0  0  0  0  0  1  0  0  0  0  0  0
  -28.6450  -20.8300   19.4710 C   0  0  0  0  0  3  0  0  0  0  0  0
  -30.1740  -18.7120   18.8720 C   0  0  0  0  0  3  0  0  0  0  0  0
  -28.6150  -18.3290   20.5980 C   0  0  0  0  0  3  0  0  0  0  0  0
  -30.0000  -16.3310   19.8010 C   0  0  0  0  0  0  0  0  0  0  0  0
  -29.1890  -19.3060   19.7150 C   0  0  0  0  0  0  0  0  0  0  0  0
  -30.5560  -17.3170   18.8940 C   0  0  0  0  0  0  0  0  0  0  0  0
  -29.0020  -16.9290   20.6520 C   0  0  0  0  0  0  0  0  0  0  0  0
  -28.3790  -16.1640   21.5770 F   0  0  0  0  0  0  0  0  0  0  0  0
  -30.5850  -14.8350   19.8770 C   0  0  0  0  0  0  0  0  0  0  0  0
  -30.2720  -12.5260   18.9490 C   0  0  0  0  0  2  0  0  0  0  0  0
  -29.2730  -12.5670   17.7730 C   0  0  0  0  0  2  0  0  0  0  0  0
  -27.8250  -12.4020   18.2820 C   0  0  0  0  0  2  0  0  0  0  0  0
  -27.5260  -13.2910   19.5160 C   0  0  0  0  0  3  0  0  0  0  0  0
  -28.6540  -13.2410   20.5620 C   0  0  0  0  0  2  0  0  0  0  0  0
  -29.8950  -13.6230   19.8810 N   0  0  0  0  0  0  0  0  0  0  0  0
  -31.7990  -14.7430   19.6680 O   0  0  0  0  0  0  0  0  0  0  0  0
  -25.2150  -13.8690   20.4370 C   0  0  0  0  0  0  0  0  0  0  0  0
  -24.1640  -13.0990   20.8370 C   0  0  0  0  0  0  0  0  0  0  0  0
  -24.6080  -11.7420   20.7480 C   0  0  0  0  0  0  0  0  0  0  0  0
  -26.2260  -12.9870   20.0980 N   0  0  0  0  0  0  0  0  0  0  0  0
  -25.8760  -11.6990   20.3580 N   0  0  0  0  0  0  0  0  0  0  0  0
  -23.8750  -10.4880   20.9540 C   0  0  0  0  0  0  0  0  0  0  0  0
  -24.3260   -9.5110   21.8690 C   0  0  0  0  0  3  0  0  0  0  0  0
  -23.5920   -8.3220   22.0640 C   0  0  0  0  0  3  0  0  0  0  0  0
  -22.3930   -8.1030   21.3470 C   0  0  0  0  0  0  0  0  0  0  0  0
  -21.9590   -9.0680   20.4210 C   0  0  0  0  0  3  0  0  0  0  0  0
  -22.6930  -10.2470   20.2220 C   0  0  0  0  0  3  0  0  0  0  0  0
  -21.6340   -6.9600   21.4520 O   0  0  0  0  0  0  0  0  0  0  0  0
  -21.5860   -6.2260   22.6110 C   0  0  0  0  0  0  0  0  0  0  0  0
  -21.1890   -6.7980   23.8400 C   0  0  0  0  0  3  0  0  0  0  0  0
  -21.0850   -5.9910   24.9920 C   0  0  0  0  0  3  0  0  0  0  0  0
  -21.3780   -4.6170   24.9160 C   0  0  0  0  0  0  0  0  0  0  0  0
  -21.7690   -4.0430   23.6930 C   0  0  0  0  0  3  0  0  0  0  0  0
  -21.8700   -4.8470   22.5440 C   0  0  0  0  0  0  0  0  0  0  0  0
  -22.2300   -4.2870   21.3620 F   0  0  0  0  0  0  0  0  0  0  0  0
  -21.2750   -3.8410   26.0210 F   0  0  0  0  0  0  0  0  0  0  0  0
  -22.7910  -13.5810   21.1970 C   0  0  0  0  0  0  0  0  0  0  0  0
  -22.1070  -12.8830   22.0950 N   0  0  0  0  0  0  0  0  0  0  0  0
  -22.3380  -14.6180   20.7140 O   0  0  0  0  0  0  0  0  0  0  0  0
  -22.4870  -12.0430   22.5050 H   0  0  0  0  0  0  0  0  0  0  0  0
  -21.1870  -13.1910   22.3750 H   0  0  0  0  0  0  0  0  0  0  0  0
  -25.3980  -15.2430   20.3200 N   0  0  0  0  0  0  0  0  0  0  0  0
  -24.6970  -15.8880   20.6640 H   0  0  0  0  0  0  0  0  0  0  0  0
  -26.3080  -15.6690   20.1990 H   0  0  0  0  0  0  0  0  0  0  0  0
  -31.4900  -16.9520   17.9540 O   0  0  0  0  0  0  0  0  0  0  0  0
  -31.9970  -17.6790   17.5960 H   0  0  0  0  0  0  0  0  0  0  0  0
  -29.1720  -22.0680   20.2490 N   0  0  0  0  0  4  0  0  0  0  0  0
  -28.8280  -22.0360   21.1980 H   0  0  0  0  0  0  0  0  0  0  0  0
  -30.1580  -21.8690   20.3300 H   0  0  0  0  0  0  0  0  0  0  0  0
  -29.1470  -23.5420   19.6880 C   0  0  0  0  0  2  0  0  0  0  0  0
  -28.1160  -24.7120   20.2210 C   0  0  0  0  0  2  0  0  0  0  0  0
  -28.3420  -26.2320   20.0880 O   0  0  0  0  0  0  0  0  0  0  0  0
  -24.5500  -31.7670   23.1260 C   0  0  0  0  0  0  0  0  0  0  0  0
  -27.2480  -27.1520   20.0790 C   0  0  0  0  0  0  0  0  0  0  0  0
  -23.3930  -30.3630   21.4650 C   0  0  0  0  0  3  0  0  0  0  0  0
  -24.8850  -28.8260   20.0550 C   0  0  0  0  0  0  0  0  0  0  0  0
  -25.9430  -30.6800   21.3360 C   0  0  0  0  0  2  0  0  0  0  0  0
  -26.0490  -29.2970   20.6740 C   0  0  0  0  0  0  0  0  0  0  0  0
  -27.2360  -28.4760   20.6710 C   0  0  0  0  0  3  0  0  0  0  0  0
  -26.0580  -26.7810   19.4140 C   0  0  0  0  0  3  0  0  0  0  0  0
  -24.9020  -27.5820   19.4100 C   0  0  0  0  0  3  0  0  0  0  0  0
  -23.6440  -29.6990   20.0870 C   0  0  0  0  0  2  0  0  0  0  0  0
  -24.6470  -30.9560   22.0300 N   0  0  0  0  0  0  0  0  0  0  0  0
  -23.4560  -32.0390   23.6390 O   0  0  0  0  0  0  0  0  0  0  0  0
  -22.7160  -29.3420   22.4100 C   0  0  0  0  0  0  0  0  0  0  0  0
  -21.3920  -29.1640   22.2700 N   0  0  0  0  0  0  0  0  0  0  0  0
  -23.3890  -28.7110   23.2280 O   0  0  0  0  0  0  0  0  0  0  0  0
  -20.9120  -29.7240   21.5820 H   0  0  0  0  0  0  0  0  0  0  0  0
  -18.0170  -27.9360   22.7330 C   0  0  0  0  0  0  0  0  0  0  0  0
  -20.5740  -28.2130   23.0210 C   0  0  0  0  0  3  0  0  0  0  0  0
  -20.6870  -26.7850   22.4390 C   0  0  0  0  0  2  0  0  0  0  0  0
  -19.5960  -26.4620   21.4110 C   0  0  0  0  0  2  0  0  0  0  0  0
  -18.2060  -26.5930   22.0440 C   0  0  0  0  0  2  0  0  0  0  0  0
  -19.1280  -28.7030   23.1760 C   0  0  0  0  0  0  0  0  0  0  0  0
  -18.8920  -29.9580   23.7800 C   0  0  0  0  0  3  0  0  0  0  0  0
  -17.5830  -30.4500   23.9340 C   0  0  0  0  0  3  0  0  0  0  0  0
  -16.4890  -29.6820   23.5050 C   0  0  0  0  0  3  0  0  0  0  0  0
  -16.7050  -28.4260   22.9110 C   0  0  0  0  0  3  0  0  0  0  0  0
  -25.8120  -32.4210   23.7710 C   0  0  0  0  0  3  0  0  0  0  0  0
  -25.4690  -33.8080   24.1220 N   0  0  0  0  0  0  0  0  0  0  0  0
  -25.7780  -34.8820   23.3860 C   0  0  0  0  0  0  0  0  0  0  0  0
  -26.4480  -34.8120   22.3540 O   0  0  0  0  0  0  0  0  0  0  0  0
  -24.8710  -33.9300   24.9280 H   0  0  0  0  0  0  0  0  0  0  0  0
  -24.0040  -36.6390   23.0690 C   0  0  0  0  0  1  0  0  0  0  0  0
  -25.2610  -36.2530   23.8660 C   0  0  0  0  0  3  0  0  0  0  0  0
  -27.3810  -37.1740   24.6950 C   0  0  0  0  0  1  0  0  0  0  0  0
  -26.2690  -37.3300   23.7610 N   0  0  0  0  0  0  0  0  0  0  0  0
  -25.8470  -38.2400   23.9250 H   0  0  0  0  0  0  0  0  0  0  0  0
  -26.3230  -31.6420   25.0460 C   0  0  1  0  0  0  0  0  0  0  0  0
  -25.2210  -31.3700   26.0980 C   0  0  0  0  0  1  0  0  0  0  0  0
  -26.9330  -30.2790   24.6470 C   0  0  0  0  0  1  0  0  0  0  0  0
  -27.4560  -32.4450   25.7300 C   0  0  0  0  0  1  0  0  0  0  0  0
  2  1  1  0
  2  6  1  0
  2 48  1  0
  3  7  2  0
  3  6  1  0
  4  8  1  0
  5 10  1  0
  5  8  2  0
  6  4  2  0
  7  5  1  0
  8  9  1  0
 10 16  1  0
 11 16  1  0
 12 13  1  0
 12 11  1  0
 14 13  1  0
 14 21  1  0
 14 15  1  0
 16 15  1  0
 17 10  2  0
 18 19  2  0
 19 38  1  0
 20 19  1  0
 20 23  1  0
 21 22  1  0
 21 18  1  0
 22 20  2  0
 23 24  1  0
 24 25  2  0
 26 29  1  0
 26 25  1  0
 27 26  2  0
 28 27  1  0
 28 23  2  0
 29 30  1  0
 30 31  1  0
 31 32  2  0
 33 32  1  0
 33 37  1  0
 34 33  2  0
 35 30  2  0
 35 34  1  0
 36 35  1  0
 38 39  1  0
 39 42  1  0
 39 41  1  0
 40 38  2  0
 43 18  1  0
 43 44  1  0
 45 43  1  0
 46  7  1  0
 47 46  1  0
 48 50  1  0
 48 49  1  0
 51 52  1  0
 51 48  1  0
 53 52  1  0
 54 65  2  0
 55 53  1  0
 55 60  1  0
 56 64  1  0
 56 66  1  0
 57 63  1  0
 57 59  1  0
 58 64  1  0
 59 58  1  0
 60 59  2  0
 61 55  2  0
 62 61  1  0
 62 57  2  0
 63 56  1  0
 64 54  1  0
 66 68  2  0
 67 66  1  0
 69 67  1  0
 70 79  2  0
 70 75  1  0
 71 67  1  0
 71 75  1  0
 72 71  1  0
 73 74  1  0
 73 72  1  0
 74 70  1  0
 75 76  2  0
 76 77  1  0
 78 77  2  0
 79 78  1  0
 80 54  1  0
 80 81  1  0
 80 90  1  0
 81 84  1  0
 82 86  1  0
 82 81  1  0
 83 82  2  0
 86 85  1  0
 88 86  1  0
 88 89  1  0
 88 87  1  0
 90 93  1  1
 90 91  1  0
 92 90  1  0
M  ISO  4   5 100  10 100  52 101  53 101
M  END
>  <TORSDO>  (68) 
F 21

>  <SCORE>  (68) 
-13.122

>  <name>  (68) 
68

>  <ligand_id>  (68) 
68

>  <original_smiles>  (68) 
[H]Oc1c([H])c(C([H])(C([H])([H])[H])[N+]([H])([H])C([H])([H])C([H])([H])Oc2c([H])c([H])c3c(c2[H])C([H])([H])N(C(=O)C([H])(N([H])C(=O)C([H])(N([H])C([H])([H])[H])C([H])([H])[H])C(C([H])([H])[H])(C([H])([H])[H])C([H])([H])[H])C([H])(C(=O)N([H])C2([H])c4c([H])c([H])c([H])c([H])c4C([H])([H])C([H])([H])C2([H])[H])C3([H])[H])c([H])c(F)c1C(=O)N1C([H])([H])C([H])([H])C([H])([H])C([H])(n2nc(-c3c([H])c([H])c(Oc4c([H])c([H])c(F)c([H])c4F)c([H])c3[H])c(C(=O)N([H])[H])c2N([H])[H])C1([H])[H]

>  <smiles>  (68) 
[H]Oc1c([H])c(C([H])(C([H])([H])[H])[N+]([H])([H])C([H])([H])C([H])([H])Oc2c([H])c([H])c3c(c2[H])C([H])([H])N(C(=O)C([H])(N([H])C(=O)C([H])(N([H])C([H])([H])[H])C([H])([H])[H])C(C([H])([H])[H])(C([H])([H])[H])C([H])([H])[H])C([H])(C(=O)N([H])C2([H])c4c([H])c([H])c([H])c([H])c4C([H])([H])C([H])([H])C2([H])[H])C3([H])[H])c([H])c(F)c1C(=O)N1C([H])([H])C([H])([H])C([H])([H])C([H])(n2nc(-c3c([H])c([H])c(Oc4c([H])c([H])c(F)c([H])c4F)c([H])c3[H])c(C(=O)N([H])[H])c2N([H])[H])C1([H])[H]

$$$$
69:0:0
     RDKit          3D

 90 98  0  0  1  0  0  0  0  0999 V2000
  -29.0480  -19.7400   19.2660 C   0  0  0  0  0  3  0  0  0  0  0  0
  -30.1900  -17.4920   20.3010 C   0  0  0  0  0  0  0  0  0  0  0  0
  -29.3720  -18.2520   19.3150 C   0  0  0  0  0  0  0  0  0  0  0  0
  -29.4440  -20.8550   20.1530 C   0  0  0  0  0  0  0  0  0  0  0  0
  -30.6070  -18.6070   21.1920 C   0  0  0  0  0  0  0  0  0  0  0  0
  -30.2570  -20.0910   21.1280 C   0  0  0  0  0  0  0  0  0  0  0  0
  -30.8150  -20.8660   22.0900 F   0  0  0  0  0  0  0  0  0  0  0  0
  -30.8230  -15.8560   20.2170 C   0  0  0  0  0  0  0  0  0  0  0  0
  -30.8600  -13.3520   19.3750 C   0  0  0  0  0  2  0  0  0  0  0  0
  -29.9740  -13.0330   18.1400 C   0  0  0  0  0  2  0  0  0  0  0  0
  -28.5400  -12.6950   18.5730 C   0  0  0  0  0  2  0  0  0  0  0  0
  -28.0350  -13.6720   19.6600 C   0  0  0  0  0  3  0  0  0  0  0  0
  -29.0570  -13.9440   20.7840 C   0  0  0  0  0  2  0  0  0  0  0  0
  -30.2610  -14.5210   20.1540 N   0  0  0  0  0  0  0  0  0  0  0  0
  -32.0490  -15.7590   20.0390 O   0  0  0  0  0  0  0  0  0  0  0  0
  -25.6630  -14.1750   20.4160 C   0  0  0  0  0  0  0  0  0  0  0  0
  -24.6110  -13.3790   20.7710 C   0  0  0  0  0  0  0  0  0  0  0  0
  -25.1010  -12.0370   20.7380 C   0  0  0  0  0  0  0  0  0  0  0  0
  -26.7190  -13.3190   20.1710 N   0  0  0  0  0  0  0  0  0  0  0  0
  -26.3960  -12.0250   20.4350 N   0  0  0  0  0  0  0  0  0  0  0  0
  -24.3890  -10.7630   20.9190 C   0  0  0  0  0  0  0  0  0  0  0  0
  -24.7680   -9.8370   21.9160 C   0  0  0  0  0  3  0  0  0  0  0  0
  -24.0530   -8.6310   22.0830 C   0  0  0  0  0  3  0  0  0  0  0  0
  -22.9440   -8.3430   21.2520 C   0  0  0  0  0  0  0  0  0  0  0  0
  -22.5850   -9.2570   20.2460 C   0  0  0  0  0  3  0  0  0  0  0  0
  -23.3020  -10.4530   20.0770 C   0  0  0  0  0  3  0  0  0  0  0  0
  -22.2070   -7.1850   21.3230 O   0  0  0  0  0  0  0  0  0  0  0  0
  -21.9860   -6.5450   22.5170 C   0  0  0  0  0  0  0  0  0  0  0  0
  -21.3660   -7.1940   23.6060 C   0  0  0  0  0  3  0  0  0  0  0  0
  -21.0950   -6.4790   24.7910 C   0  0  0  0  0  3  0  0  0  0  0  0
  -21.4340   -5.1160   24.8840 C   0  0  0  0  0  0  0  0  0  0  0  0
  -22.0480   -4.4670   23.7980 C   0  0  0  0  0  3  0  0  0  0  0  0
  -22.3200   -5.1800   22.6160 C   0  0  0  0  0  0  0  0  0  0  0  0
  -22.8910   -4.5440   21.5650 F   0  0  0  0  0  0  0  0  0  0  0  0
  -21.1680   -4.4260   26.0180 F   0  0  0  0  0  0  0  0  0  0  0  0
  -23.2060  -13.8350   21.0260 C   0  0  0  0  0  0  0  0  0  0  0  0
  -22.4910  -13.1520   21.9110 N   0  0  0  0  0  0  0  0  0  0  0  0
  -22.7500  -14.8360   20.4730 O   0  0  0  0  0  0  0  0  0  0  0  0
  -22.8750  -12.3430   22.3790 H   0  0  0  0  0  0  0  0  0  0  0  0
  -21.5470  -13.4410   22.1280 H   0  0  0  0  0  0  0  0  0  0  0  0
  -25.8090  -15.5490   20.2530 N   0  0  0  0  0  0  0  0  0  0  0  0
  -25.0350  -16.1930   20.3770 H   0  0  0  0  0  0  0  0  0  0  0  0
  -26.6650  -16.0100   19.9740 H   0  0  0  0  0  0  0  0  0  0  0  0
  -27.3370  -17.0940   18.3500 C   0  0  0  0  0  1  0  0  0  0  0  0
  -28.8130  -17.4530   18.1470 C   0  0  0  0  0  2  0  0  0  0  0  0
  -30.8170  -17.6280   23.5290 C   0  0  0  0  0  1  0  0  0  0  0  0
  -31.5550  -18.2090   22.3180 C   0  0  0  0  0  2  0  0  0  0  0  0
  -29.3690  -22.6810   19.9610 C   0  0  0  0  0  3  0  0  0  0  0  0
  -28.2450  -24.2000   19.9310 C   0  0  0  0  0  3  0  0  0  0  0  0
  -28.4100  -25.9180   19.9420 O   0  0  0  0  0  0  0  0  0  0  0  0
  -24.7810  -31.9020   23.1260 C   0  0  0  0  0  0  0  0  0  0  0  0
  -27.3940  -27.0640   19.9360 C   0  0  0  0  0  0  0  0  0  0  0  0
  -23.6060  -30.5390   21.4490 C   0  0  0  0  0  3  0  0  0  0  0  0
  -25.0750  -28.9900   19.9660 C   0  0  0  0  0  0  0  0  0  0  0  0
  -26.1750  -30.7690   21.3040 C   0  0  0  0  0  2  0  0  0  0  0  0
  -26.2650  -29.3700   20.5980 C   0  0  0  0  0  0  0  0  0  0  0  0
  -27.4130  -28.4340   20.5500 C   0  0  0  0  0  3  0  0  0  0  0  0
  -26.1660  -26.8710   19.2590 C   0  0  0  0  0  3  0  0  0  0  0  0
  -25.0580  -27.7670   19.2740 C   0  0  0  0  0  3  0  0  0  0  0  0
  -23.8450  -29.9020   20.0520 C   0  0  0  0  0  2  0  0  0  0  0  0
  -24.8760  -31.1000   22.0140 N   0  0  0  0  0  0  0  0  0  0  0  0
  -23.6870  -32.1570   23.6600 O   0  0  0  0  0  0  0  0  0  0  0  0
  -22.9270  -29.5070   22.3890 C   0  0  0  0  0  0  0  0  0  0  0  0
  -21.5960  -29.3380   22.2820 N   0  0  0  0  0  0  0  0  0  0  0  0
  -23.6080  -28.8580   23.1860 O   0  0  0  0  0  0  0  0  0  0  0  0
  -21.0940  -29.9140   21.6190 H   0  0  0  0  0  0  0  0  0  0  0  0
  -18.2310  -28.0810   22.8210 C   0  0  0  0  0  0  0  0  0  0  0  0
  -20.7950  -28.3600   23.0280 C   0  0  0  0  0  3  0  0  0  0  0  0
  -20.8900  -26.9570   22.3850 C   0  0  0  0  0  2  0  0  0  0  0  0
  -19.7650  -26.6730   21.3840 C   0  0  0  0  0  2  0  0  0  0  0  0
  -18.4000  -26.7720   22.0710 C   0  0  0  0  0  2  0  0  0  0  0  0
  -19.3540  -28.8350   23.2560 C   0  0  0  0  0  0  0  0  0  0  0  0
  -19.1370  -30.0600   23.9240 C   0  0  0  0  0  3  0  0  0  0  0  0
  -17.8320  -30.5330   24.1550 C   0  0  0  0  0  3  0  0  0  0  0  0
  -16.7240  -29.7780   23.7310 C   0  0  0  0  0  3  0  0  0  0  0  0
  -16.9250  -28.5530   23.0710 C   0  0  0  0  0  3  0  0  0  0  0  0
  -26.0380  -32.5540   23.7780 C   0  0  0  0  0  3  0  0  0  0  0  0
  -26.5720  -31.7520   25.0290 C   0  0  1  0  0  0  0  0  0  0  0  0
  -25.4870  -31.4600   26.0930 C   0  0  0  0  0  1  0  0  0  0  0  0
  -27.1790  -30.3970   24.6020 C   0  0  0  0  0  1  0  0  0  0  0  0
  -27.7100  -32.5450   25.7130 C   0  0  0  0  0  1  0  0  0  0  0  0
  -25.6870  -33.9300   24.1780 N   0  0  0  0  0  0  0  0  0  0  0  0
  -25.9680  -35.0340   23.4730 C   0  0  0  0  0  0  0  0  0  0  0  0
  -26.6090  -35.0030   22.4200 O   0  0  0  0  0  0  0  0  0  0  0  0
  -25.1100  -34.0240   25.0010 H   0  0  0  0  0  0  0  0  0  0  0  0
  -24.1730  -36.7940   23.2820 C   0  0  0  0  0  1  0  0  0  0  0  0
  -25.4600  -36.3860   24.0190 C   0  0  0  0  0  3  0  0  0  0  0  0
  -27.5980  -37.3070   24.8040 C   0  0  0  0  0  1  0  0  0  0  0  0
  -26.4550  -37.4770   23.9120 N   0  0  0  0  0  0  0  0  0  0  0  0
  -26.0260  -38.3760   24.1140 H   0  0  0  0  0  0  0  0  0  0  0  0
  1  3  2  0
  1  4  1  0
  2  5  2  0
  3  2  1  0
  4  6  2  0
  5 47  1  0
  6  5  1  0
  6  7  1  0
  8  2  1  0
  9 14  1  0
 10 11  1  0
 10  9  1  0
 12 11  1  0
 12 19  1  0
 12 13  1  0
 14  8  1  0
 14 13  1  0
 15  8  2  0
 16 17  2  0
 17 36  1  0
 18 17  1  0
 18 21  1  0
 19 16  1  0
 19 20  1  0
 20 18  2  0
 21 22  1  0
 22 23  2  0
 24 27  1  0
 24 23  1  0
 25 24  2  0
 26 25  1  0
 26 21  2  0
 27 28  1  0
 28 33  2  0
 28 29  1  0
 29 30  2  0
 30 31  1  0
 31 35  1  0
 32 31  2  0
 33 32  1  0
 34 33  1  0
 36 37  1  0
 37 40  1  0
 37 39  1  0
 38 36  2  0
 41 42  1  0
 41 16  1  0
 43 41  1  0
 45 44  1  0
 45  3  1  0
 47 46  1  0
 48  4  1  0
 49 50  1  0
 49 48  2  0
 51 62  2  0
 52 50  1  0
 52 57  1  0
 53 61  1  0
 53 63  1  0
 54 60  1  0
 54 56  1  0
 55 61  1  0
 56 55  1  0
 57 56  2  0
 58 59  1  0
 58 52  2  0
 59 54  2  0
 60 53  1  0
 61 51  1  0
 63 65  2  0
 64 63  1  0
 66 64  1  0
 67 76  2  0
 67 72  1  0
 68 64  1  0
 68 72  1  0
 69 68  1  0
 70 71  1  0
 70 69  1  0
 71 67  1  0
 72 73  2  0
 73 74  1  0
 75 74  2  0
 76 75  1  0
 77 51  1  0
 77 82  1  0
 77 78  1  0
 78 81  1  1
 78 79  1  0
 80 78  1  0
 82 85  1  0
 83 87  1  0
 83 82  1  0
 84 83  2  0
 87 86  1  0
 89 87  1  0
 89 90  1  0
 89 88  1  0
M  ISO  4   2 100   8 100  49 101  50 101
M  END
>  <TORSDO>  (69) 
F 20

>  <SCORE>  (69) 
-13.751

>  <name>  (69) 
69

>  <ligand_id>  (69) 
69

>  <original_smiles>  (69) 
[H]c1c([H])c([H])c2c(c1[H])C([H])([H])C([H])([H])C([H])([H])C2([H])N([H])C(=O)C1([H])N(C(=O)C([H])(N([H])C(=O)C([H])(N([H])C([H])([H])[H])C([H])([H])[H])C(C([H])([H])[H])(C([H])([H])[H])C([H])([H])[H])C([H])([H])c2c([H])c(OC([H])([H])C([H])([H])c3c([H])c(C([H])([H])C([H])([H])[H])c(C(=O)N4C([H])([H])C([H])([H])C([H])([H])C([H])(n5nc(-c6c([H])c([H])c(Oc7c([H])c([H])c(F)c([H])c7F)c([H])c6[H])c(C(=O)N([H])[H])c5N([H])[H])C4([H])[H])c(C([H])([H])C([H])([H])[H])c3F)c([H])c([H])c2C1([H])[H]

>  <smiles>  (69) 
[H]c1c([H])c([H])c2c(c1[H])C([H])([H])C([H])([H])C([H])([H])C2([H])N([H])C(=O)C1([H])N(C(=O)C([H])(N([H])C(=O)C([H])(N([H])C([H])([H])[H])C([H])([H])[H])C(C([H])([H])[H])(C([H])([H])[H])C([H])([H])[H])C([H])([H])c2c([H])c(OC([H])([H])C([H])([H])c3c([H])c(C([H])([H])C([H])([H])[H])c(C(=O)N4C([H])([H])C([H])([H])C([H])([H])C([H])(n5nc(-c6c([H])c([H])c(Oc7c([H])c([H])c(F)c([H])c7F)c([H])c6[H])c(C(=O)N([H])[H])c5N([H])[H])C4([H])[H])c(C([H])([H])C([H])([H])[H])c3F)c([H])c([H])c2C1([H])[H]

$$$$
70:0:0
     RDKit          3D

 95103  0  0  1  0  0  0  0  0999 V2000
  -29.0930  -20.6720   20.8790 C   0  0  0  0  0  2  0  0  0  0  0  0
  -29.0840  -22.0350   20.1420 C   0  0  0  0  0  0  0  0  0  0  0  0
  -29.2780  -23.1500   20.8720 N   0  0  0  0  0  0  0  0  0  0  0  0
  -28.9170  -22.0840   18.9230 O   0  0  0  0  0  0  0  0  0  0  0  0
  -29.4040  -23.0230   21.8680 H   0  0  0  0  0  0  0  0  0  0  0  0
  -29.4860  -24.5230   20.3670 C   0  0  0  0  0  2  0  0  0  0  0  0
  -28.1860  -25.2760   20.0030 C   0  0  0  0  0  2  0  0  0  0  0  0
  -28.3770  -26.7080   19.8710 O   0  0  0  0  0  0  0  0  0  0  0  0
  -24.6270  -31.7800   23.2020 C   0  0  0  0  0  0  0  0  0  0  0  0
  -27.2230  -27.4760   19.8760 C   0  0  0  0  0  0  0  0  0  0  0  0
  -23.3970  -30.4440   21.5270 C   0  0  0  0  0  3  0  0  0  0  0  0
  -24.8290  -28.9970   19.9880 C   0  0  0  0  0  0  0  0  0  0  0  0
  -25.9160  -30.8300   21.2900 C   0  0  0  0  0  2  0  0  0  0  0  0
  -25.9990  -29.4920   20.5790 C   0  0  0  0  0  0  0  0  0  0  0  0
  -27.2000  -28.7440   20.5110 C   0  0  0  0  0  3  0  0  0  0  0  0
  -26.0340  -27.0130   19.2670 C   0  0  0  0  0  3  0  0  0  0  0  0
  -24.8460  -27.7660   19.3170 C   0  0  0  0  0  3  0  0  0  0  0  0
  -23.5820  -29.8430   20.1060 C   0  0  0  0  0  2  0  0  0  0  0  0
  -24.6670  -31.0310   22.0640 N   0  0  0  0  0  0  0  0  0  0  0  0
  -23.5560  -32.0180   23.7770 O   0  0  0  0  0  0  0  0  0  0  0  0
  -22.7770  -29.3720   22.4490 C   0  0  0  0  0  0  0  0  0  0  0  0
  -21.4540  -29.1710   22.3300 N   0  0  0  0  0  0  0  0  0  0  0  0
  -23.4810  -28.7270   23.2300 O   0  0  0  0  0  0  0  0  0  0  0  0
  -20.9470  -29.7420   21.6680 H   0  0  0  0  0  0  0  0  0  0  0  0
  -18.1050  -27.9010   22.8120 C   0  0  0  0  0  0  0  0  0  0  0  0
  -20.6600  -28.1910   23.0720 C   0  0  0  0  0  3  0  0  0  0  0  0
  -20.7830  -26.7870   22.4360 C   0  0  0  0  0  2  0  0  0  0  0  0
  -19.6750  -26.4860   21.4220 C   0  0  0  0  0  2  0  0  0  0  0  0
  -18.2980  -26.5830   22.0830 C   0  0  0  0  0  2  0  0  0  0  0  0
  -19.2140  -28.6630   23.2630 C   0  0  0  0  0  0  0  0  0  0  0  0
  -18.9790  -29.9000   23.9050 C   0  0  0  0  0  3  0  0  0  0  0  0
  -17.6670  -30.3690   24.1050 C   0  0  0  0  0  3  0  0  0  0  0  0
  -16.5730  -29.6020   23.6700 C   0  0  0  0  0  3  0  0  0  0  0  0
  -16.7930  -28.3710   23.0270 C   0  0  0  0  0  3  0  0  0  0  0  0
  -25.9200  -32.3930   23.8240 C   0  0  0  0  0  3  0  0  0  0  0  0
  -25.6130  -33.7710   24.2230 N   0  0  0  0  0  0  0  0  0  0  0  0
  -25.8920  -34.8560   23.4910 C   0  0  0  0  0  0  0  0  0  0  0  0
  -26.5120  -34.8030   22.4250 O   0  0  0  0  0  0  0  0  0  0  0  0
  -25.0640  -33.8860   25.0630 H   0  0  0  0  0  0  0  0  0  0  0  0
  -24.0980  -36.6070   23.3150 C   0  0  0  0  0  1  0  0  0  0  0  0
  -25.4050  -36.2180   24.0240 C   0  0  0  0  0  3  0  0  0  0  0  0
  -27.5710  -37.1310   24.7290 C   0  0  0  0  0  1  0  0  0  0  0  0
  -26.4000  -37.3010   23.8710 N   0  0  0  0  0  0  0  0  0  0  0  0
  -25.9860  -38.2060   24.0760 H   0  0  0  0  0  0  0  0  0  0  0  0
  -26.4700  -31.5690   25.0520 C   0  0  1  0  0  0  0  0  0  0  0  0
  -25.3890  -31.2430   26.1070 C   0  0  0  0  0  1  0  0  0  0  0  0
  -27.0860  -30.2340   24.5770 C   0  0  0  0  0  1  0  0  0  0  0  0
  -27.6040  -32.3580   25.7470 C   0  0  0  0  0  1  0  0  0  0  0  0
  -29.7550  -19.5250   20.0560 C   0  0  0  0  0  2  0  0  0  0  0  0
  -30.5670  -15.5370   21.7220 C   0  0  0  0  0  3  0  0  0  0  0  0
  -30.2910  -15.6730   20.3530 C   0  0  0  0  0  0  0  0  0  0  0  0
  -30.5430  -16.6580   22.5690 C   0  0  0  0  0  0  0  0  0  0  0  0
  -29.8960  -16.9410   19.8330 C   0  0  0  0  0  0  0  0  0  0  0  0
  -29.9070  -18.1050   20.6730 C   0  0  0  0  0  0  0  0  0  0  0  0
  -30.2400  -17.9350   22.0450 C   0  0  0  0  0  0  0  0  0  0  0  0
  -29.5290  -17.0670   18.3510 C   0  0  0  0  0  1  0  0  0  0  0  0
  -30.3390  -19.0090   22.8640 F   0  0  0  0  0  0  0  0  0  0  0  0
  -30.6730  -14.5330   19.4460 C   0  0  0  0  0  0  0  0  0  0  0  0
  -30.0890  -12.4560   18.2770 C   0  0  0  0  0  2  0  0  0  0  0  0
  -28.9890  -12.7860   17.2530 C   0  0  0  0  0  2  0  0  0  0  0  0
  -27.5990  -12.6520   17.9030 C   0  0  0  0  0  2  0  0  0  0  0  0
  -27.4950  -13.4050   19.2540 C   0  0  0  0  0  3  0  0  0  0  0  0
  -28.7090  -13.1170   20.1630 C   0  0  0  0  0  2  0  0  0  0  0  0
  -29.9350  -13.3930   19.3990 N   0  0  0  0  0  0  0  0  0  0  0  0
  -31.6430  -14.7330   18.7070 O   0  0  0  0  0  0  0  0  0  0  0  0
  -25.2450  -13.9950   20.3560 C   0  0  0  0  0  0  0  0  0  0  0  0
  -24.2400  -13.2160   20.8630 C   0  0  0  0  0  0  0  0  0  0  0  0
  -24.6720  -11.8630   20.7070 C   0  0  0  0  0  0  0  0  0  0  0  0
  -26.2290  -13.1180   19.9290 N   0  0  0  0  0  0  0  0  0  0  0  0
  -25.8970  -11.8280   20.1930 N   0  0  0  0  0  0  0  0  0  0  0  0
  -23.9690  -10.5980   20.9670 C   0  0  0  0  0  0  0  0  0  0  0  0
  -24.4660   -9.6540   21.8940 C   0  0  0  0  0  3  0  0  0  0  0  0
  -23.7640   -8.4540   22.1390 C   0  0  0  0  0  3  0  0  0  0  0  0
  -22.5530   -8.1870   21.4590 C   0  0  0  0  0  0  0  0  0  0  0  0
  -22.0740   -9.1180   20.5190 C   0  0  0  0  0  3  0  0  0  0  0  0
  -22.7770  -10.3090   20.2740 C   0  0  0  0  0  3  0  0  0  0  0  0
  -21.8160   -7.0380   21.6150 O   0  0  0  0  0  0  0  0  0  0  0  0
  -21.7340   -6.3940   22.8250 C   0  0  0  0  0  0  0  0  0  0  0  0
  -21.2660   -7.0470   23.9860 C   0  0  0  0  0  3  0  0  0  0  0  0
  -21.1320   -6.3280   25.1910 C   0  0  0  0  0  3  0  0  0  0  0  0
  -21.4540   -4.9590   25.2340 C   0  0  0  0  0  0  0  0  0  0  0  0
  -21.9160   -4.3070   24.0780 C   0  0  0  0  0  3  0  0  0  0  0  0
  -22.0520   -5.0230   22.8750 C   0  0  0  0  0  0  0  0  0  0  0  0
  -22.4770   -4.3830   21.7590 F   0  0  0  0  0  0  0  0  0  0  0  0
  -21.3150   -4.2680   26.3890 F   0  0  0  0  0  0  0  0  0  0  0  0
  -22.9120  -13.6890   21.3820 C   0  0  0  0  0  0  0  0  0  0  0  0
  -22.3570  -12.9930   22.3680 N   0  0  0  0  0  0  0  0  0  0  0  0
  -22.3840  -14.7110   20.9460 O   0  0  0  0  0  0  0  0  0  0  0  0
  -22.8020  -12.1690   22.7430 H   0  0  0  0  0  0  0  0  0  0  0  0
  -21.4750  -13.2880   22.7620 H   0  0  0  0  0  0  0  0  0  0  0  0
  -25.4040  -15.3680   20.2060 N   0  0  0  0  0  0  0  0  0  0  0  0
  -24.6760  -16.0320   20.4480 H   0  0  0  0  0  0  0  0  0  0  0  0
  -26.2180  -15.7970   19.7800 H   0  0  0  0  0  0  0  0  0  0  0  0
  -32.2890  -15.7590   24.1740 C   0  0  0  0  0  1  0  0  0  0  0  0
  -30.9340  -16.4650   24.0250 C   0  0  0  0  0  2  0  0  0  0  0  0
  2  3  1  0
  2  1  1  0
  3  5  1  0
  4  2  2  0
  6  3  1  0
  7  6  1  0
  8 10  1  0
  8  7  1  0
  9 20  2  0
 10 15  1  0
 11 19  1  0
 11 21  1  0
 12 18  1  0
 12 14  1  0
 13 19  1  0
 14 13  1  0
 15 14  2  0
 16 17  1  0
 16 10  2  0
 17 12  2  0
 18 11  1  0
 19  9  1  0
 21 23  2  0
 22 21  1  0
 24 22  1  0
 25 34  2  0
 25 30  1  0
 26 22  1  0
 26 30  1  0
 27 26  1  0
 28 29  1  0
 28 27  1  0
 29 25  1  0
 30 31  2  0
 31 32  1  0
 33 32  2  0
 34 33  1  0
 35  9  1  0
 35 36  1  0
 35 45  1  0
 36 39  1  0
 37 41  1  0
 37 36  1  0
 38 37  2  0
 41 40  1  0
 43 41  1  0
 43 44  1  0
 43 42  1  0
 45 48  1  1
 45 46  1  0
 47 45  1  0
 49 54  1  0
 49  1  1  0
 50 52  1  0
 51 50  2  0
 52 95  1  0
 53 51  1  0
 53 54  2  0
 54 55  1  0
 55 52  2  0
 55 57  1  0
 56 53  1  0
 58 51  1  0
 59 64  1  0
 60 61  1  0
 60 59  1  0
 62 61  1  0
 62 69  1  0
 62 63  1  0
 64 58  1  0
 64 63  1  0
 65 58  2  0
 66 67  2  0
 67 86  1  0
 68 67  1  0
 68 71  1  0
 69 70  1  0
 69 66  1  0
 70 68  2  0
 71 72  1  0
 72 73  2  0
 74 77  1  0
 74 73  1  0
 75 74  2  0
 76 75  1  0
 76 71  2  0
 77 78  1  0
 78 83  2  0
 78 79  1  0
 79 80  2  0
 80 81  1  0
 81 85  1  0
 82 81  2  0
 83 82  1  0
 84 83  1  0
 86 87  1  0
 87 89  1  0
 87 90  1  0
 88 86  2  0
 91 66  1  0
 91 92  1  0
 93 91  1  0
 95 94  1  0
M  ISO  4   7 101   8 101  51 100  58 100
M  END
>  <TORSDO>  (70) 
F 22

>  <SCORE>  (70) 
-3.656

>  <name>  (70) 
70

>  <ligand_id>  (70) 
70

>  <original_smiles>  (70) 
[H]c1c([H])c([H])c2c(c1[H])C([H])([H])C([H])([H])C([H])([H])C2([H])N([H])C(=O)C1([H])N(C(=O)C([H])(N([H])C(=O)C([H])(N([H])C([H])([H])[H])C([H])([H])[H])C(C([H])([H])[H])(C([H])([H])[H])C([H])([H])[H])C([H])([H])c2c([H])c(OC([H])([H])C([H])([H])N([H])C(=O)C([H])([H])C([H])([H])c3c(F)c(C([H])([H])C([H])([H])[H])c([H])c(C(=O)N4C([H])([H])C([H])([H])C([H])([H])C([H])(n5nc(-c6c([H])c([H])c(Oc7c([H])c([H])c(F)c([H])c7F)c([H])c6[H])c(C(=O)N([H])[H])c5N([H])[H])C4([H])[H])c3C([H])([H])[H])c([H])c([H])c2C1([H])[H]

>  <smiles>  (70) 
[H]c1c([H])c([H])c2c(c1[H])C([H])([H])C([H])([H])C([H])([H])C2([H])N([H])C(=O)C1([H])N(C(=O)C([H])(N([H])C(=O)C([H])(N([H])C([H])([H])[H])C([H])([H])[H])C(C([H])([H])[H])(C([H])([H])[H])C([H])([H])[H])C([H])([H])c2c([H])c(OC([H])([H])C([H])([H])N([H])C(=O)C([H])([H])C([H])([H])c3c(F)c(C([H])([H])C([H])([H])[H])c([H])c(C(=O)N4C([H])([H])C([H])([H])C([H])([H])C([H])(n5nc(-c6c([H])c([H])c(Oc7c([H])c([H])c(F)c([H])c7F)c([H])c6[H])c(C(=O)N([H])[H])c5N([H])[H])C4([H])[H])c3C([H])([H])[H])c([H])c([H])c2C1([H])[H]

$$$$
71:0:0
     RDKit          3D

 98106  0  0  1  0  0  0  0  0999 V2000
  -28.7710  -24.2630   17.4890 C   0  0  0  0  0  3  0  0  0  0  0  0
  -28.0810  -23.2060   19.5680 C   0  0  0  0  0  3  0  0  0  0  0  0
  -28.3240  -23.1070   18.1750 C   0  0  0  0  0  0  0  0  0  0  0  0
  -28.8850  -25.5000   18.1560 C   0  0  0  0  0  0  0  0  0  0  0  0
  -28.5690  -25.5880   19.5300 C   0  0  0  0  0  0  0  0  0  0  0  0
  -28.2100  -24.4290   20.2420 C   0  0  0  0  0  0  0  0  0  0  0  0
  -27.9320  -24.5000   21.5670 F   0  0  0  0  0  0  0  0  0  0  0  0
  -29.2690  -26.6410   17.4480 N   0  0  0  0  0  0  0  0  0  0  0  0
  -29.1500  -26.6520   16.4400 H   0  0  0  0  0  0  0  0  0  0  0  0
  -29.0680  -27.5380   17.8800 H   0  0  0  0  0  0  0  0  0  0  0  0
  -28.1220  -21.7990   17.4880 C   0  0  0  0  0  0  0  0  0  0  0  0
  -28.2100  -21.7720   15.9640 C   0  0  0  0  0  1  0  0  0  0  0  0
  -27.8730  -20.7650   18.1910 N   0  0  0  0  0  0  0  0  0  0  0  0
  -27.7720  -19.4380   17.6220 C   0  0  0  0  0  2  0  0  0  0  0  0
  -27.9410  -18.4150   18.7550 C   0  0  0  0  0  2  0  0  0  0  0  0
  -29.3290  -18.4880   19.4220 C   0  0  0  0  0  2  0  0  0  0  0  0
  -29.5450  -17.4070   20.4850 C   0  0  0  0  0  2  0  0  0  0  0  0
  -31.0110  -17.3460   20.9540 C   0  0  0  0  0  2  0  0  0  0  0  0
  -31.3270  -16.1730   21.9040 C   0  0  0  0  0  2  0  0  0  0  0  0
  -31.1410  -14.1940   20.3860 C   0  0  0  0  0  0  0  0  0  0  0  0
  -30.6290  -12.2340   18.9800 C   0  0  0  0  0  2  0  0  0  0  0  0
  -29.6820  -12.5920   17.8200 C   0  0  0  0  0  2  0  0  0  0  0  0
  -28.2120  -12.5130   18.2700 C   0  0  0  0  0  2  0  0  0  0  0  0
  -27.9530  -13.2850   19.5900 C   0  0  0  0  0  3  0  0  0  0  0  0
  -28.9960  -12.8950   20.6600 C   0  0  0  0  0  2  0  0  0  0  0  0
  -30.3460  -13.1310   20.1080 N   0  0  0  0  0  0  0  0  0  0  0  0
  -32.1530  -14.4810   19.7380 O   0  0  0  0  0  0  0  0  0  0  0  0
  -30.7530  -14.9110   21.4460 N   0  0  0  0  0  0  0  0  0  0  0  0
  -29.9410  -14.5720   21.9400 H   0  0  0  0  0  0  0  0  0  0  0  0
  -25.5760  -14.0000   20.2840 C   0  0  0  0  0  0  0  0  0  0  0  0
  -24.4800  -13.2740   20.6680 C   0  0  0  0  0  0  0  0  0  0  0  0
  -24.8880  -11.9060   20.6590 C   0  0  0  0  0  0  0  0  0  0  0  0
  -26.5880  -13.0750   20.0700 N   0  0  0  0  0  0  0  0  0  0  0  0
  -26.1750  -11.8120   20.3470 N   0  0  0  0  0  0  0  0  0  0  0  0
  -24.1170  -10.6740   20.8710 C   0  0  0  0  0  0  0  0  0  0  0  0
  -24.5070   -9.7140   21.8300 C   0  0  0  0  0  3  0  0  0  0  0  0
  -23.7390   -8.5470   22.0290 C   0  0  0  0  0  3  0  0  0  0  0  0
  -22.5670   -8.3320   21.2670 C   0  0  0  0  0  0  0  0  0  0  0  0
  -22.1940   -9.2800   20.2980 C   0  0  0  0  0  3  0  0  0  0  0  0
  -22.9620  -10.4400   20.0990 C   0  0  0  0  0  3  0  0  0  0  0  0
  -21.7730   -7.2160   21.3730 O   0  0  0  0  0  0  0  0  0  0  0  0
  -21.6720   -6.5120   22.5460 C   0  0  0  0  0  0  0  0  0  0  0  0
  -21.2320   -7.1190   23.7440 C   0  0  0  0  0  3  0  0  0  0  0  0
  -21.0760   -6.3440   24.9100 C   0  0  0  0  0  3  0  0  0  0  0  0
  -21.3500   -4.9640   24.8820 C   0  0  0  0  0  0  0  0  0  0  0  0
  -21.7840   -4.3570   23.6900 C   0  0  0  0  0  3  0  0  0  0  0  0
  -21.9410   -5.1290   22.5250 C   0  0  0  0  0  0  0  0  0  0  0  0
  -22.3390   -4.5340   21.3740 F   0  0  0  0  0  0  0  0  0  0  0  0
  -21.1940   -4.2180   26.0000 F   0  0  0  0  0  0  0  0  0  0  0  0
  -23.1020  -13.8080   20.9370 C   0  0  0  0  0  0  0  0  0  0  0  0
  -22.3540  -13.1560   21.8200 N   0  0  0  0  0  0  0  0  0  0  0  0
  -22.6990  -14.8380   20.3990 O   0  0  0  0  0  0  0  0  0  0  0  0
  -22.6940  -12.3220   22.2760 H   0  0  0  0  0  0  0  0  0  0  0  0
  -21.4290  -13.4950   22.0440 H   0  0  0  0  0  0  0  0  0  0  0  0
  -25.7930  -15.3590   20.0860 N   0  0  0  0  0  0  0  0  0  0  0  0
  -25.0570  -16.0480   20.1940 H   0  0  0  0  0  0  0  0  0  0  0  0
  -26.6670  -15.7610   19.7700 H   0  0  0  0  0  0  0  0  0  0  0  0
  -28.5160  -26.8080   20.1550 O   0  0  0  0  0  0  0  0  0  0  0  0
  -24.5670  -31.8740   23.2050 C   0  0  0  0  0  0  0  0  0  0  0  0
  -27.3120  -27.4820   20.1570 C   0  0  0  0  0  0  0  0  0  0  0  0
  -23.4020  -30.4670   21.5400 C   0  0  0  0  0  3  0  0  0  0  0  0
  -24.8930  -28.9460   20.1440 C   0  0  0  0  0  0  0  0  0  0  0  0
  -25.9280  -30.8480   21.3900 C   0  0  0  0  0  2  0  0  0  0  0  0
  -26.0350  -29.4800   20.7540 C   0  0  0  0  0  0  0  0  0  0  0  0
  -27.2440  -28.7530   20.7640 C   0  0  0  0  0  3  0  0  0  0  0  0
  -26.1410  -26.9540   19.5540 C   0  0  0  0  0  3  0  0  0  0  0  0
  -24.9390  -27.6780   19.5460 C   0  0  0  0  0  3  0  0  0  0  0  0
  -23.6420  -29.7920   20.1640 C   0  0  0  0  0  2  0  0  0  0  0  0
  -24.6490  -31.0760   22.1040 N   0  0  0  0  0  0  0  0  0  0  0  0
  -23.4740  -32.1390   23.7240 O   0  0  0  0  0  0  0  0  0  0  0  0
  -22.7430  -29.4360   22.4840 C   0  0  0  0  0  0  0  0  0  0  0  0
  -21.4220  -29.2480   22.3300 N   0  0  0  0  0  0  0  0  0  0  0  0
  -23.4150  -28.8120   23.3080 O   0  0  0  0  0  0  0  0  0  0  0  0
  -20.9420  -29.8040   21.6360 H   0  0  0  0  0  0  0  0  0  0  0  0
  -18.0450  -28.0480   22.7640 C   0  0  0  0  0  0  0  0  0  0  0  0
  -20.5960  -28.3050   23.0830 C   0  0  0  0  0  3  0  0  0  0  0  0
  -20.7100  -26.8770   22.5030 C   0  0  0  0  0  2  0  0  0  0  0  0
  -19.6260  -26.5570   21.4680 C   0  0  0  0  0  2  0  0  0  0  0  0
  -18.2340  -26.7010   22.0890 C   0  0  0  0  0  2  0  0  0  0  0  0
  -19.1540  -28.8090   23.2170 C   0  0  0  0  0  0  0  0  0  0  0  0
  -18.9240  -30.0710   23.8050 C   0  0  0  0  0  3  0  0  0  0  0  0
  -17.6160  -30.5710   23.9500 C   0  0  0  0  0  3  0  0  0  0  0  0
  -16.5200  -29.8060   23.5150 C   0  0  0  0  0  3  0  0  0  0  0  0
  -16.7350  -28.5470   22.9260 C   0  0  0  0  0  3  0  0  0  0  0  0
  -25.8380  -32.5130   23.8480 C   0  0  0  0  0  3  0  0  0  0  0  0
  -25.5160  -33.9100   24.1620 N   0  0  0  0  0  0  0  0  0  0  0  0
  -25.8750  -34.9600   23.4120 C   0  0  0  0  0  0  0  0  0  0  0  0
  -26.5810  -34.8550   22.4050 O   0  0  0  0  0  0  0  0  0  0  0  0
  -24.8890  -34.0650   24.9380 H   0  0  0  0  0  0  0  0  0  0  0  0
  -24.1620  -36.7510   22.9810 C   0  0  0  0  0  1  0  0  0  0  0  0
  -25.3670  -36.3490   23.8460 C   0  0  0  0  0  3  0  0  0  0  0  0
  -27.4650  -37.2330   24.7670 C   0  0  0  0  0  1  0  0  0  0  0  0
  -26.4030  -37.4010   23.7770 N   0  0  0  0  0  0  0  0  0  0  0  0
  -25.9920  -38.3210   23.9080 H   0  0  0  0  0  0  0  0  0  0  0  0
  -26.3330  -31.7470   25.1350 C   0  0  1  0  0  0  0  0  0  0  0  0
  -25.2200  -31.5060   26.1810 C   0  0  0  0  0  1  0  0  0  0  0  0
  -26.9330  -30.3730   24.7570 C   0  0  0  0  0  1  0  0  0  0  0  0
  -27.4630  -32.5510   25.8180 C   0  0  0  0  0  1  0  0  0  0  0  0
  1  4  2  0
  1  3  1  0
  2  6  1  0
  3  2  2  0
  4  5  1  0
  5 58  1  0
  5  6  2  0
  6  7  1  0
  8 10  1  0
  8  4  1  0
  9  8  1  0
 11  3  1  0
 11 13  2  0
 12 11  1  0
 14 13  1  0
 14 15  1  0
 15 16  1  0
 16 17  1  0
 17 18  1  0
 18 19  1  0
 20 28  1  0
 21 26  1  0
 22 23  1  0
 22 21  1  0
 24 23  1  0
 24 33  1  0
 24 25  1  0
 26 20  1  0
 26 25  1  0
 27 20  2  0
 28 19  1  0
 28 29  1  0
 30 31  2  0
 31 50  1  0
 32 31  1  0
 32 35  1  0
 33 30  1  0
 33 34  1  0
 34 32  2  0
 35 36  1  0
 36 37  2  0
 38 41  1  0
 38 37  1  0
 39 38  2  0
 40 39  1  0
 40 35  2  0
 41 42  1  0
 42 43  1  0
 43 44  2  0
 45 44  1  0
 45 49  1  0
 46 45  2  0
 47 42  2  0
 47 46  1  0
 48 47  1  0
 50 51  1  0
 51 54  1  0
 51 53  1  0
 52 50  2  0
 55 56  1  0
 55 30  1  0
 57 55  1  0
 58 60  1  0
 59 70  2  0
 60 65  1  0
 61 69  1  0
 61 71  1  0
 62 68  1  0
 62 64  1  0
 63 69  1  0
 64 65  2  0
 64 63  1  0
 66 60  2  0
 67 66  1  0
 67 62  2  0
 68 61  1  0
 69 59  1  0
 71 73  2  0
 72 71  1  0
 74 72  1  0
 75 84  2  0
 75 80  1  0
 76 72  1  0
 76 80  1  0
 77 76  1  0
 78 79  1  0
 78 77  1  0
 79 75  1  0
 80 81  2  0
 81 82  1  0
 83 82  2  0
 84 83  1  0
 85 59  1  0
 85 86  1  0
 85 95  1  0
 86 89  1  0
 87 91  1  0
 87 86  1  0
 88 87  2  0
 91 90  1  0
 93 91  1  0
 93 94  1  0
 93 92  1  0
 95 98  1  1
 95 96  1  0
 97 95  1  0
M  ISO  4   5 101  20 100  28 100  58 101
M  END
>  <TORSDO>  (71) 
F 24

>  <SCORE>  (71) 
-11.134

>  <name>  (71) 
71

>  <ligand_id>  (71) 
71

>  <original_smiles>  (71) 
[H]c1c([H])c([H])c2c(c1[H])C([H])([H])C([H])([H])C([H])([H])C2([H])N([H])C(=O)C1([H])N(C(=O)C([H])(N([H])C(=O)C([H])(N([H])C([H])([H])[H])C([H])([H])[H])C(C([H])([H])[H])(C([H])([H])[H])C([H])([H])[H])C([H])([H])c2c([H])c(Oc3c(F)c([H])c(C(=NC([H])([H])C([H])([H])C([H])([H])C([H])([H])C([H])([H])C([H])([H])N([H])C(=O)N4C([H])([H])C([H])([H])C([H])([H])C([H])(n5nc(-c6c([H])c([H])c(Oc7c([H])c([H])c(F)c([H])c7F)c([H])c6[H])c(C(=O)N([H])[H])c5N([H])[H])C4([H])[H])C([H])([H])[H])c([H])c3N([H])[H])c([H])c([H])c2C1([H])[H]

>  <smiles>  (71) 
[H]c1c([H])c([H])c2c(c1[H])C([H])([H])C([H])([H])C([H])([H])C2([H])N([H])C(=O)C1([H])N(C(=O)C([H])(N([H])C(=O)C([H])(N([H])C([H])([H])[H])C([H])([H])[H])C(C([H])([H])[H])(C([H])([H])[H])C([H])([H])[H])C([H])([H])c2c([H])c(Oc3c(F)c([H])c(C(=NC([H])([H])C([H])([H])C([H])([H])C([H])([H])C([H])([H])C([H])([H])N([H])C(=O)N4C([H])([H])C([H])([H])C([H])([H])C([H])(n5nc(-c6c([H])c([H])c(Oc7c([H])c([H])c(F)c([H])c7F)c([H])c6[H])c(C(=O)N([H])[H])c5N([H])[H])C4([H])[H])C([H])([H])[H])c([H])c3N([H])[H])c([H])c([H])c2C1([H])[H]

$$$$
72:0:0
     RDKit          3D

 89 97  0  0  1  0  0  0  0  0999 V2000
  -29.5110  -21.5940   20.9370 C   0  0  0  0  0  3  0  0  0  0  0  0
  -29.2560  -23.1080   20.9610 C   0  0  0  0  0  3  0  0  0  0  0  0
  -27.9110  -22.9380   19.2270 C   0  0  0  0  0  3  0  0  0  0  0  0
  -29.0080  -20.5090   20.0460 C   0  0  0  0  0  0  0  0  0  0  0  0
  -28.1590  -21.4160   19.1900 C   0  0  0  0  0  0  0  0  0  0  0  0
  -28.4010  -24.0160   20.1320 C   0  0  0  0  0  0  0  0  0  0  0  0
  -29.5290  -17.2230   20.0190 C   0  0  0  0  0  0  0  0  0  0  0  0
  -29.0010  -18.6830   20.1160 C   0  0  0  0  0  0  0  0  0  0  0  0
  -30.4120  -15.7580   19.8220 C   0  0  0  0  0  0  0  0  0  0  0  0
  -30.5280  -13.1890   19.0780 C   0  0  0  0  0  2  0  0  0  0  0  0
  -29.5810  -12.7730   17.9120 C   0  0  0  0  0  2  0  0  0  0  0  0
  -28.1850  -12.4090   18.4380 C   0  0  0  0  0  2  0  0  0  0  0  0
  -27.7170  -13.4160   19.5140 C   0  0  0  0  0  3  0  0  0  0  0  0
  -28.7950  -13.7560   20.5680 C   0  0  0  0  0  2  0  0  0  0  0  0
  -29.9380  -14.3710   19.8590 N   0  0  0  0  0  0  0  0  0  0  0  0
  -31.6250  -15.7000   19.5270 O   0  0  0  0  0  0  0  0  0  0  0  0
  -25.4190  -13.9150   20.4680 C   0  0  0  0  0  0  0  0  0  0  0  0
  -24.3850  -13.1210   20.8760 C   0  0  0  0  0  0  0  0  0  0  0  0
  -24.8500  -11.7740   20.7580 C   0  0  0  0  0  0  0  0  0  0  0  0
  -26.4400  -13.0550   20.1120 N   0  0  0  0  0  0  0  0  0  0  0  0
  -26.1170  -11.7570   20.3540 N   0  0  0  0  0  0  0  0  0  0  0  0
  -24.1330  -10.5040   20.9490 C   0  0  0  0  0  0  0  0  0  0  0  0
  -24.5670   -9.5420   21.8870 C   0  0  0  0  0  3  0  0  0  0  0  0
  -23.8460   -8.3410   22.0670 C   0  0  0  0  0  3  0  0  0  0  0  0
  -22.6760   -8.0950   21.3100 C   0  0  0  0  0  0  0  0  0  0  0  0
  -22.2610   -9.0460   20.3620 C   0  0  0  0  0  3  0  0  0  0  0  0
  -22.9830  -10.2370   20.1790 C   0  0  0  0  0  3  0  0  0  0  0  0
  -21.9260   -6.9460   21.3980 O   0  0  0  0  0  0  0  0  0  0  0  0
  -21.7990   -6.2590   22.5790 C   0  0  0  0  0  0  0  0  0  0  0  0
  -21.2480   -6.8570   23.7330 C   0  0  0  0  0  3  0  0  0  0  0  0
  -21.0700   -6.0950   24.9050 C   0  0  0  0  0  3  0  0  0  0  0  0
  -21.4340   -4.7350   24.9230 C   0  0  0  0  0  0  0  0  0  0  0  0
  -21.9780   -4.1370   23.7730 C   0  0  0  0  0  3  0  0  0  0  0  0
  -22.1560   -4.8950   22.6040 C   0  0  0  0  0  0  0  0  0  0  0  0
  -22.6610   -4.3080   21.4930 F   0  0  0  0  0  0  0  0  0  0  0  0
  -21.2570   -4.0000   26.0460 F   0  0  0  0  0  0  0  0  0  0  0  0
  -23.0110  -13.5860   21.2580 C   0  0  0  0  0  0  0  0  0  0  0  0
  -22.3460  -12.8640   22.1520 N   0  0  0  0  0  0  0  0  0  0  0  0
  -22.5390  -14.6260   20.7990 O   0  0  0  0  0  0  0  0  0  0  0  0
  -22.7430  -12.0230   22.5430 H   0  0  0  0  0  0  0  0  0  0  0  0
  -21.4280  -13.1580   22.4510 H   0  0  0  0  0  0  0  0  0  0  0  0
  -25.5710  -15.2930   20.3400 N   0  0  0  0  0  0  0  0  0  0  0  0
  -24.8260  -15.9440   20.5600 H   0  0  0  0  0  0  0  0  0  0  0  0
  -26.4200  -15.7540   20.0340 H   0  0  0  0  0  0  0  0  0  0  0  0
  -27.7480  -18.5230   20.5520 O   0  0  0  0  0  0  0  0  0  0  0  0
  -27.3750  -19.3910   20.6480 H   0  0  0  0  0  0  0  0  0  0  0  0
  -25.8760  -20.7160   18.3000 C   0  0  0  0  0  1  0  0  0  0  0  0
  -27.3950  -20.7200   18.0720 C   0  0  0  0  0  2  0  0  0  0  0  0
  -28.3010  -25.6390   20.1820 O   0  0  0  0  0  0  0  0  0  0  0  0
  -24.6970  -31.8390   23.1900 C   0  0  0  0  0  0  0  0  0  0  0  0
  -27.2760  -26.8050   20.1680 C   0  0  0  0  0  0  0  0  0  0  0  0
  -23.5320  -30.4570   21.5230 C   0  0  0  0  0  3  0  0  0  0  0  0
  -24.9980  -28.8290   20.1070 C   0  0  0  0  0  0  0  0  0  0  0  0
  -26.1090  -30.6090   21.4330 C   0  0  0  0  0  2  0  0  0  0  0  0
  -26.1840  -29.1830   20.7630 C   0  0  0  0  0  0  0  0  0  0  0  0
  -27.3030  -28.1990   20.7620 C   0  0  0  0  0  3  0  0  0  0  0  0
  -26.0590  -26.6620   19.4540 C   0  0  0  0  0  3  0  0  0  0  0  0
  -24.9740  -27.5940   19.4320 C   0  0  0  0  0  3  0  0  0  0  0  0
  -23.7880  -29.7760   20.1460 C   0  0  0  0  0  2  0  0  0  0  0  0
  -24.8030  -31.0020   22.1010 N   0  0  0  0  0  0  0  0  0  0  0  0
  -23.5980  -32.1280   23.6930 O   0  0  0  0  0  0  0  0  0  0  0  0
  -22.8100  -29.4650   22.4740 C   0  0  0  0  0  0  0  0  0  0  0  0
  -21.4800  -29.3070   22.3340 N   0  0  0  0  0  0  0  0  0  0  0  0
  -23.4600  -28.8340   23.3120 O   0  0  0  0  0  0  0  0  0  0  0  0
  -21.0060  -29.8660   21.6380 H   0  0  0  0  0  0  0  0  0  0  0  0
  -18.0830  -28.1220   22.8440 C   0  0  0  0  0  0  0  0  0  0  0  0
  -20.6490  -28.3580   23.0850 C   0  0  0  0  0  3  0  0  0  0  0  0
  -20.7290  -26.9420   22.4700 C   0  0  0  0  0  2  0  0  0  0  0  0
  -19.6140  -26.6610   21.4570 C   0  0  0  0  0  2  0  0  0  0  0  0
  -18.2400  -26.7960   22.1200 C   0  0  0  0  0  2  0  0  0  0  0  0
  -19.2130  -28.8630   23.2830 C   0  0  0  0  0  0  0  0  0  0  0  0
  -19.0080  -30.1030   23.9260 C   0  0  0  0  0  3  0  0  0  0  0  0
  -17.7080  -30.6030   24.1300 C   0  0  0  0  0  3  0  0  0  0  0  0
  -16.5940  -29.8600   23.7040 C   0  0  0  0  0  3  0  0  0  0  0  0
  -16.7830  -28.6210   23.0670 C   0  0  0  0  0  3  0  0  0  0  0  0
  -25.9510  -32.4860   23.8520 C   0  0  0  0  0  3  0  0  0  0  0  0
  -26.4190  -31.7310   25.1590 C   0  0  1  0  0  0  0  0  0  0  0  0
  -25.2880  -31.5140   26.1930 C   0  0  0  0  0  1  0  0  0  0  0  0
  -27.0100  -30.3450   24.8190 C   0  0  0  0  0  1  0  0  0  0  0  0
  -27.5490  -32.5300   25.8490 C   0  0  0  0  0  1  0  0  0  0  0  0
  -25.6280  -33.8890   24.1770 N   0  0  0  0  0  0  0  0  0  0  0  0
  -25.9490  -34.9510   23.4230 C   0  0  0  0  0  0  0  0  0  0  0  0
  -26.6040  -34.8520   22.3830 O   0  0  0  0  0  0  0  0  0  0  0  0
  -25.0420  -34.0390   24.9850 H   0  0  0  0  0  0  0  0  0  0  0  0
  -24.1910  -36.7360   23.1380 C   0  0  0  0  0  1  0  0  0  0  0  0
  -25.4700  -36.3420   23.8950 C   0  0  0  0  0  3  0  0  0  0  0  0
  -27.6220  -37.2670   24.6380 C   0  0  0  0  0  1  0  0  0  0  0  0
  -26.4870  -37.4040   23.7300 N   0  0  0  0  0  0  0  0  0  0  0  0
  -26.0750  -38.3230   23.8750 H   0  0  0  0  0  0  0  0  0  0  0  0
  1  2  1  0
  3  6  1  0
  4  8  1  0
  4  1  2  0
  5  3  2  0
  5  4  1  0
  6 49  1  0
  6  2  2  0
  7  8  2  0
  8 45  1  0
  9 15  1  0
  9  7  2  0
 10 15  1  0
 11 12  1  0
 11 10  1  0
 13 12  1  0
 13 20  1  0
 13 14  1  0
 15 14  1  0
 16  9  2  0
 17 18  2  0
 18 37  1  0
 19 18  1  0
 19 22  1  0
 20 21  1  0
 20 17  1  0
 21 19  2  0
 22 23  1  0
 23 24  2  0
 25 28  1  0
 25 24  1  0
 26 25  2  0
 27 26  1  0
 27 22  2  0
 28 29  1  0
 29 34  2  0
 29 30  1  0
 30 31  2  0
 31 32  1  0
 32 36  1  0
 33 32  2  0
 34 33  1  0
 35 34  1  0
 37 38  1  0
 38 41  1  0
 38 40  1  0
 39 37  2  0
 42 17  1  0
 42 43  1  0
 44 42  1  0
 45 46  1  0
 48 47  1  0
 48  5  1  0
 50 61  2  0
 51 49  1  0
 51 56  1  0
 52 60  1  0
 52 62  1  0
 53 59  1  0
 53 55  1  0
 54 60  1  0
 55 54  1  0
 56 55  2  0
 57 51  2  0
 58 57  1  0
 58 53  2  0
 59 52  1  0
 60 50  1  0
 62 64  2  0
 63 62  1  0
 65 63  1  0
 66 75  2  0
 66 71  1  0
 67 63  1  0
 67 71  1  0
 68 67  1  0
 69 70  1  0
 69 68  1  0
 70 66  1  0
 71 72  2  0
 72 73  1  0
 74 73  2  0
 75 74  1  0
 76 50  1  0
 76 81  1  0
 76 77  1  0
 77 80  1  1
 77 78  1  0
 79 77  1  0
 81 84  1  0
 82 86  1  0
 82 81  1  0
 83 82  2  0
 86 85  1  0
 88 89  1  0
 88 86  1  0
 88 87  1  0
M  ISO  4   6 101   7 100   9 100  49 101
M  END
>  <TORSDO>  (72) 
F 19

>  <SCORE>  (72) 
-15.374

>  <name>  (72) 
72

>  <ligand_id>  (72) 
72

>  <original_smiles>  (72) 
[H]OC(=C([H])C(=O)N1C([H])([H])C([H])([H])C([H])([H])C([H])(n2nc(-c3c([H])c([H])c(Oc4c([H])c([H])c(F)c([H])c4F)c([H])c3[H])c(C(=O)N([H])[H])c2N([H])[H])C1([H])[H])c1c([H])c([H])c(Oc2c([H])c([H])c3c(c2[H])C([H])([H])N(C(=O)C([H])(N([H])C(=O)C([H])(N([H])C([H])([H])[H])C([H])([H])[H])C(C([H])([H])[H])(C([H])([H])[H])C([H])([H])[H])C([H])(C(=O)N([H])C2([H])c4c([H])c([H])c([H])c([H])c4C([H])([H])C([H])([H])C2([H])[H])C3([H])[H])c([H])c1C([H])([H])C([H])([H])[H]

>  <smiles>  (72) 
[H]OC(=C([H])C(=O)N1C([H])([H])C([H])([H])C([H])([H])C([H])(n2nc(-c3c([H])c([H])c(Oc4c([H])c([H])c(F)c([H])c4F)c([H])c3[H])c(C(=O)N([H])[H])c2N([H])[H])C1([H])[H])c1c([H])c([H])c(Oc2c([H])c([H])c3c(c2[H])C([H])([H])N(C(=O)C([H])(N([H])C(=O)C([H])(N([H])C([H])([H])[H])C([H])([H])[H])C(C([H])([H])[H])(C([H])([H])[H])C([H])([H])[H])C([H])(C(=O)N([H])C2([H])c4c([H])c([H])c([H])c([H])c4C([H])([H])C([H])([H])C2([H])[H])C3([H])[H])c([H])c1C([H])([H])C([H])([H])[H]

$$$$
73:0:0
     RDKit          3D

 93101  0  0  1  0  0  0  0  0999 V2000
  -28.5360  -21.3540   22.1700 C   0  0  0  0  0  1  0  0  0  0  0  0
  -29.1430  -21.4470   20.7610 C   0  0  0  0  0  3  0  0  0  0  0  0
  -30.8070  -20.2510   19.2280 C   0  0  0  0  0  3  0  0  0  0  0  0
  -31.4570  -19.1130   18.7210 C   0  0  0  0  0  3  0  0  0  0  0  0
  -30.0480  -18.9010   21.0900 C   0  0  0  0  0  3  0  0  0  0  0  0
  -30.0450  -20.1840   20.4070 C   0  0  0  0  0  0  0  0  0  0  0  0
  -31.3740  -17.8450   19.3410 C   0  0  0  0  0  0  0  0  0  0  0  0
  -30.7030  -17.6970   20.5970 C   0  0  0  0  0  0  0  0  0  0  0  0
  -30.8820  -16.1320   17.5470 C   0  0  0  0  0  1  0  0  0  0  0  0
  -31.9400  -16.7070   18.4980 C   0  0  0  0  0  2  0  0  0  0  0  0
  -30.4820  -16.3050   21.3630 C   0  0  0  0  0  2  0  0  0  0  0  0
  -31.2840  -14.9370   21.0860 C   0  0  0  0  0  0  0  0  0  0  0  0
  -31.1090  -12.6750   20.0350 C   0  0  0  0  0  2  0  0  0  0  0  0
  -30.3050  -12.8050   18.7210 C   0  0  0  0  0  2  0  0  0  0  0  0
  -28.7860  -12.7400   18.9820 C   0  0  0  0  0  2  0  0  0  0  0  0
  -28.3390  -13.6310   20.1700 C   0  0  0  0  0  3  0  0  0  0  0  0
  -29.2640  -13.4450   21.3910 C   0  0  0  0  0  2  0  0  0  0  0  0
  -30.6360  -13.7300   20.9560 N   0  0  0  0  0  0  0  0  0  0  0  0
  -32.5020  -14.9930   20.8820 O   0  0  0  0  0  0  0  0  0  0  0  0
  -25.9160  -14.3580   20.6240 C   0  0  0  0  0  0  0  0  0  0  0  0
  -24.7790  -13.6410   20.8800 C   0  0  0  0  0  0  0  0  0  0  0  0
  -25.1750  -12.2690   20.9130 C   0  0  0  0  0  0  0  0  0  0  0  0
  -26.9340  -13.4220   20.5110 N   0  0  0  0  0  0  0  0  0  0  0  0
  -26.4870  -12.1640   20.7500 N   0  0  0  0  0  0  0  0  0  0  0  0
  -24.3710  -11.0450   21.0310 C   0  0  0  0  0  0  0  0  0  0  0  0
  -24.6860  -10.0420   21.9740 C   0  0  0  0  0  3  0  0  0  0  0  0
  -23.8870   -8.8840   22.0810 C   0  0  0  0  0  3  0  0  0  0  0  0
  -22.7570   -8.7220   21.2430 C   0  0  0  0  0  0  0  0  0  0  0  0
  -22.4620   -9.7130   20.2910 C   0  0  0  0  0  3  0  0  0  0  0  0
  -23.2620  -10.8620   20.1810 C   0  0  0  0  0  3  0  0  0  0  0  0
  -21.9380   -7.6190   21.2600 O   0  0  0  0  0  0  0  0  0  0  0  0
  -21.7780   -6.8580   22.3900 C   0  0  0  0  0  0  0  0  0  0  0  0
  -21.3150   -7.4120   23.6030 C   0  0  0  0  0  3  0  0  0  0  0  0
  -21.0990   -6.5800   24.7190 C   0  0  0  0  0  3  0  0  0  0  0  0
  -21.3360   -5.1950   24.6230 C   0  0  0  0  0  0  0  0  0  0  0  0
  -21.7930   -4.6420   23.4150 C   0  0  0  0  0  3  0  0  0  0  0  0
  -22.0100   -5.4710   22.2990 C   0  0  0  0  0  0  0  0  0  0  0  0
  -22.4290   -4.9280   21.1310 F   0  0  0  0  0  0  0  0  0  0  0  0
  -21.1210   -4.3940   25.6930 F   0  0  0  0  0  0  0  0  0  0  0  0
  -23.3840  -14.1880   20.9900 C   0  0  0  0  0  0  0  0  0  0  0  0
  -22.5360  -13.5490   21.7870 N   0  0  0  0  0  0  0  0  0  0  0  0
  -23.0540  -15.2170   20.4020 O   0  0  0  0  0  0  0  0  0  0  0  0
  -22.8130  -12.7160   22.2850 H   0  0  0  0  0  0  0  0  0  0  0  0
  -21.5960  -13.9000   21.9040 H   0  0  0  0  0  0  0  0  0  0  0  0
  -26.1670  -15.7160   20.4560 N   0  0  0  0  0  0  0  0  0  0  0  0
  -25.4260  -16.4070   20.4770 H   0  0  0  0  0  0  0  0  0  0  0  0
  -27.0680  -16.1110   20.2170 H   0  0  0  0  0  0  0  0  0  0  0  0
  -29.7480  -22.8330   20.5560 N   0  0  0  0  0  4  0  0  0  0  0  0
  -30.2330  -23.1000   21.3970 H   0  0  0  0  0  0  0  0  0  0  0  0
  -30.4740  -22.6860   19.8730 H   0  0  0  0  0  0  0  0  0  0  0  0
  -28.9180  -24.0090   20.0100 C   0  0  0  0  0  2  0  0  0  0  0  0
  -28.6510  -25.2920   20.9340 C   0  0  0  0  0  2  0  0  0  0  0  0
  -28.6540  -26.6690   20.3620 O   0  0  0  0  0  0  0  0  0  0  0  0
  -24.6650  -31.9520   23.2980 C   0  0  0  0  0  0  0  0  0  0  0  0
  -27.4880  -27.4470   20.3550 C   0  0  0  0  0  0  0  0  0  0  0  0
  -23.5400  -30.5010   21.6440 C   0  0  0  0  0  3  0  0  0  0  0  0
  -25.0690  -28.9750   20.2720 C   0  0  0  0  0  0  0  0  0  0  0  0
  -26.0700  -30.9000   21.5090 C   0  0  0  0  0  2  0  0  0  0  0  0
  -26.2080  -29.5160   20.8820 C   0  0  0  0  0  0  0  0  0  0  0  0
  -27.4220  -28.7650   20.9060 C   0  0  0  0  0  3  0  0  0  0  0  0
  -26.3260  -26.9490   19.7330 C   0  0  0  0  0  3  0  0  0  0  0  0
  -25.1300  -27.6970   19.6880 C   0  0  0  0  0  3  0  0  0  0  0  0
  -23.8050  -29.8120   20.2790 C   0  0  0  0  0  2  0  0  0  0  0  0
  -24.7760  -31.1370   22.2080 N   0  0  0  0  0  0  0  0  0  0  0  0
  -23.5620  -32.2020   23.8070 O   0  0  0  0  0  0  0  0  0  0  0  0
  -22.8880  -29.4760   22.6030 C   0  0  0  0  0  0  0  0  0  0  0  0
  -21.5640  -29.2830   22.4720 N   0  0  0  0  0  0  0  0  0  0  0  0
  -23.5720  -28.8560   23.4190 O   0  0  0  0  0  0  0  0  0  0  0  0
  -21.0710  -29.8360   21.7840 H   0  0  0  0  0  0  0  0  0  0  0  0
  -18.1920  -28.0820   22.9970 C   0  0  0  0  0  0  0  0  0  0  0  0
  -20.7540  -28.3340   23.2370 C   0  0  0  0  0  3  0  0  0  0  0  0
  -20.8480  -26.9130   22.6350 C   0  0  0  0  0  2  0  0  0  0  0  0
  -19.7320  -26.6100   21.6300 C   0  0  0  0  0  2  0  0  0  0  0  0
  -18.3580  -26.7450   22.2950 C   0  0  0  0  0  2  0  0  0  0  0  0
  -19.3180  -28.8350   23.4250 C   0  0  0  0  0  0  0  0  0  0  0  0
  -19.1090  -30.0870   24.0440 C   0  0  0  0  0  3  0  0  0  0  0  0
  -17.8090  -30.5880   24.2350 C   0  0  0  0  0  3  0  0  0  0  0  0
  -16.6970  -29.8330   23.8230 C   0  0  0  0  0  3  0  0  0  0  0  0
  -16.8900  -28.5800   23.2110 C   0  0  0  0  0  3  0  0  0  0  0  0
  -25.9140  -32.6290   23.9440 C   0  0  0  0  0  3  0  0  0  0  0  0
  -25.5620  -34.0240   24.2380 N   0  0  0  0  0  0  0  0  0  0  0  0
  -25.8950  -35.0730   23.4740 C   0  0  0  0  0  0  0  0  0  0  0  0
  -26.6010  -34.9680   22.4660 O   0  0  0  0  0  0  0  0  0  0  0  0
  -24.9330  -34.1770   25.0130 H   0  0  0  0  0  0  0  0  0  0  0  0
  -24.1310  -36.8140   23.0430 C   0  0  0  0  0  1  0  0  0  0  0  0
  -25.3620  -36.4570   23.8910 C   0  0  0  0  0  3  0  0  0  0  0  0
  -27.4520  -37.4130   24.7540 C   0  0  0  0  0  1  0  0  0  0  0  0
  -26.3710  -37.5340   23.7800 N   0  0  0  0  0  0  0  0  0  0  0  0
  -25.9390  -38.4460   23.8980 H   0  0  0  0  0  0  0  0  0  0  0  0
  -26.4130  -31.8950   25.2490 C   0  0  1  0  0  0  0  0  0  0  0  0
  -25.2970  -31.6520   26.2920 C   0  0  0  0  0  1  0  0  0  0  0  0
  -27.0400  -30.5250   24.9000 C   0  0  0  0  0  1  0  0  0  0  0  0
  -27.5280  -32.7290   25.9250 C   0  0  0  0  0  1  0  0  0  0  0  0
  2  1  1  0
  3  6  1  0
  4  3  2  0
  4  7  1  0
  6  2  1  0
  6  5  2  0
  7  8  2  0
  8  5  1  0
  8 11  1  0
  9 10  1  0
 10  7  1  0
 12 11  1  0
 13 18  1  0
 14 15  1  0
 14 13  1  0
 16 15  1  0
 16 23  1  0
 16 17  1  0
 18 12  1  0
 18 17  1  0
 19 12  2  0
 20 21  2  0
 21 22  1  0
 21 40  1  0
 22 25  1  0
 23 20  1  0
 23 24  1  0
 24 22  2  0
 25 26  1  0
 26 27  2  0
 28 31  1  0
 28 27  1  0
 29 28  2  0
 30 29  1  0
 30 25  2  0
 31 32  1  0
 32 33  1  0
 33 34  2  0
 35 34  1  0
 35 39  1  0
 36 35  2  0
 37 32  2  0
 37 36  1  0
 38 37  1  0
 40 41  1  0
 41 44  1  0
 41 43  1  0
 42 40  2  0
 45 46  1  0
 45 20  1  0
 47 45  1  0
 48  2  1  0
 48 49  1  0
 50 48  1  0
 51 48  1  0
 51 52  1  0
 53 52  1  0
 54 65  2  0
 55 53  1  0
 55 60  1  0
 56 64  1  0
 56 66  1  0
 57 63  1  0
 57 59  1  0
 58 64  1  0
 59 60  2  0
 59 58  1  0
 61 55  2  0
 62 61  1  0
 62 57  2  0
 63 56  1  0
 64 54  1  0
 66 68  2  0
 67 66  1  0
 69 67  1  0
 70 79  2  0
 70 75  1  0
 71 67  1  0
 71 75  1  0
 72 71  1  0
 73 74  1  0
 73 72  1  0
 74 70  1  0
 75 76  2  0
 76 77  1  0
 78 77  2  0
 79 78  1  0
 80 54  1  0
 80 81  1  0
 80 90  1  0
 81 84  1  0
 82 86  1  0
 82 81  1  0
 83 82  2  0
 86 85  1  0
 88 86  1  0
 88 89  1  0
 88 87  1  0
 90 93  1  1
 90 91  1  0
 92 90  1  0
M  ISO  4  11 100  12 100  52 101  53 101
M  END
>  <TORSDO>  (73) 
F 22

>  <SCORE>  (73) 
-11.358

>  <name>  (73) 
73

>  <ligand_id>  (73) 
73

>  <original_smiles>  (73) 
[H]c1c([H])c([H])c2c(c1[H])C([H])([H])C([H])([H])C([H])([H])C2([H])N([H])C(=O)C1([H])N(C(=O)C([H])(N([H])C(=O)C([H])(N([H])C([H])([H])[H])C([H])([H])[H])C(C([H])([H])[H])(C([H])([H])[H])C([H])([H])[H])C([H])([H])c2c([H])c(OC([H])([H])C([H])([H])[N+]([H])([H])C([H])(c3c([H])c([H])c(C([H])([H])C([H])([H])[H])c(C([H])([H])C(=O)N4C([H])([H])C([H])([H])C([H])([H])C([H])(n5nc(-c6c([H])c([H])c(Oc7c([H])c([H])c(F)c([H])c7F)c([H])c6[H])c(C(=O)N([H])[H])c5N([H])[H])C4([H])[H])c3[H])C([H])([H])[H])c([H])c([H])c2C1([H])[H]

>  <smiles>  (73) 
[H]c1c([H])c([H])c2c(c1[H])C([H])([H])C([H])([H])C([H])([H])C2([H])N([H])C(=O)C1([H])N(C(=O)C([H])(N([H])C(=O)C([H])(N([H])C([H])([H])[H])C([H])([H])[H])C(C([H])([H])[H])(C([H])([H])[H])C([H])([H])[H])C([H])([H])c2c([H])c(OC([H])([H])C([H])([H])[N+]([H])([H])C([H])(c3c([H])c([H])c(C([H])([H])C([H])([H])[H])c(C([H])([H])C(=O)N4C([H])([H])C([H])([H])C([H])([H])C([H])(n5nc(-c6c([H])c([H])c(Oc7c([H])c([H])c(F)c([H])c7F)c([H])c6[H])c(C(=O)N([H])[H])c5N([H])[H])C4([H])[H])c3[H])C([H])([H])[H])c([H])c([H])c2C1([H])[H]

$$$$
74:0:0
     RDKit          3D

 94102  0  0  1  0  0  0  0  0999 V2000
  -29.3190  -19.4660   19.8820 C   0  0  0  0  0  0  0  0  0  0  0  0
  -29.6320  -20.8270   19.8660 N   0  0  0  0  0  0  0  0  0  0  0  0
  -28.1820  -19.1330   20.2190 O   0  0  0  0  0  0  0  0  0  0  0  0
  -30.5680  -21.0680   19.5710 H   0  0  0  0  0  0  0  0  0  0  0  0
  -30.3330  -18.2630   19.4750 C   0  0  0  0  0  2  0  0  0  0  0  0
  -31.8020  -15.1900   21.6450 C   0  0  0  0  0  3  0  0  0  0  0  0
  -31.6670  -17.1820   22.9710 C   0  0  0  0  0  3  0  0  0  0  0  0
  -31.2950  -15.8240   20.4790 C   0  0  0  0  0  0  0  0  0  0  0  0
  -31.9410  -15.8210   22.8830 C   0  0  0  0  0  0  0  0  0  0  0  0
  -31.2340  -17.9070   21.8470 C   0  0  0  0  0  0  0  0  0  0  0  0
  -30.9320  -17.2740   20.5890 C   0  0  0  0  0  0  0  0  0  0  0  0
  -31.1870  -19.4150   22.0780 C   0  0  0  0  0  1  0  0  0  0  0  0
  -31.4090  -14.8730   19.2420 C   0  0  0  0  0  0  0  0  0  0  0  0
  -30.7900  -12.7550   18.0090 C   0  0  0  0  0  2  0  0  0  0  0  0
  -29.6100  -12.9680   17.0340 C   0  0  0  0  0  2  0  0  0  0  0  0
  -28.2610  -12.8060   17.7590 C   0  0  0  0  0  2  0  0  0  0  0  0
  -28.2190  -13.6020   19.0860 C   0  0  0  0  0  3  0  0  0  0  0  0
  -29.4740  -13.3430   19.9380 C   0  0  0  0  0  2  0  0  0  0  0  0
  -30.6580  -13.7100   19.1390 N   0  0  0  0  0  0  0  0  0  0  0  0
  -32.2970  -15.0960   18.4150 O   0  0  0  0  0  0  0  0  0  0  0  0
  -26.1710  -14.2520   20.4920 C   0  0  0  0  0  0  0  0  0  0  0  0
  -25.1220  -13.5190   20.9790 C   0  0  0  0  0  0  0  0  0  0  0  0
  -25.3720  -12.1660   20.5930 C   0  0  0  0  0  0  0  0  0  0  0  0
  -26.9950  -13.3470   19.8410 N   0  0  0  0  0  0  0  0  0  0  0  0
  -26.5350  -12.0750   19.9590 N   0  0  0  0  0  0  0  0  0  0  0  0
  -24.5410  -10.9640   20.7360 C   0  0  0  0  0  0  0  0  0  0  0  0
  -25.0010   -9.8250   21.4330 C   0  0  0  0  0  3  0  0  0  0  0  0
  -24.1750   -8.6890   21.5720 C   0  0  0  0  0  3  0  0  0  0  0  0
  -22.8740   -8.6850   21.0150 C   0  0  0  0  0  0  0  0  0  0  0  0
  -22.4290   -9.8130   20.3030 C   0  0  0  0  0  3  0  0  0  0  0  0
  -23.2540  -10.9410   20.1610 C   0  0  0  0  0  3  0  0  0  0  0  0
  -22.0110   -7.6180   21.0780 O   0  0  0  0  0  0  0  0  0  0  0  0
  -21.9960   -6.7680   22.1550 C   0  0  0  0  0  0  0  0  0  0  0  0
  -21.7960   -7.2360   23.4710 C   0  0  0  0  0  3  0  0  0  0  0  0
  -21.7180   -6.3200   24.5410 C   0  0  0  0  0  3  0  0  0  0  0  0
  -21.8290   -4.9390   24.2950 C   0  0  0  0  0  0  0  0  0  0  0  0
  -22.0230   -4.4700   22.9830 C   0  0  0  0  0  3  0  0  0  0  0  0
  -22.1020   -5.3820   21.9160 C   0  0  0  0  0  0  0  0  0  0  0  0
  -22.2670   -4.9240   20.6520 F   0  0  0  0  0  0  0  0  0  0  0  0
  -21.7470   -4.0590   25.3190 F   0  0  0  0  0  0  0  0  0  0  0  0
  -23.9080  -14.0560   21.6790 C   0  0  0  0  0  0  0  0  0  0  0  0
  -23.3470  -13.2910   22.6080 N   0  0  0  0  0  0  0  0  0  0  0  0
  -23.4760  -15.1820   21.4370 O   0  0  0  0  0  0  0  0  0  0  0  0
  -23.7120  -12.3730   22.8200 H   0  0  0  0  0  0  0  0  0  0  0  0
  -22.5420  -13.6270   23.1170 H   0  0  0  0  0  0  0  0  0  0  0  0
  -26.4810  -15.6070   20.5260 N   0  0  0  0  0  0  0  0  0  0  0  0
  -25.8720  -16.2960   20.9530 H   0  0  0  0  0  0  0  0  0  0  0  0
  -27.3090  -16.0160   20.1120 H   0  0  0  0  0  0  0  0  0  0  0  0
  -31.2850  -14.6600   25.0330 C   0  0  0  0  0  1  0  0  0  0  0  0
  -32.4340  -15.0580   24.1000 C   0  0  0  0  0  2  0  0  0  0  0  0
  -28.7020  -22.0080   20.2040 C   0  0  0  0  0  2  0  0  0  0  0  0
  -29.1990  -23.5670   20.2550 C   0  0  0  0  0  3  0  0  0  0  0  0
  -28.0890  -24.7590   20.1520 C   0  0  0  0  0  3  0  0  0  0  0  0
  -28.3660  -26.2490   20.2110 O   0  0  0  0  0  0  0  0  0  0  0  0
  -24.6720  -31.8170   23.1360 C   0  0  0  0  0  0  0  0  0  0  0  0
  -27.2730  -27.1600   20.1420 C   0  0  0  0  0  0  0  0  0  0  0  0
  -23.4700  -30.3990   21.5160 C   0  0  0  0  0  3  0  0  0  0  0  0
  -24.9190  -28.8250   20.1080 C   0  0  0  0  0  0  0  0  0  0  0  0
  -26.0160  -30.6970   21.3330 C   0  0  0  0  0  2  0  0  0  0  0  0
  -26.0950  -29.3050   20.7000 C   0  0  0  0  0  0  0  0  0  0  0  0
  -27.2750  -28.4880   20.7030 C   0  0  0  0  0  3  0  0  0  0  0  0
  -26.0680  -26.7570   19.5210 C   0  0  0  0  0  3  0  0  0  0  0  0
  -24.9120  -27.5580   19.5090 C   0  0  0  0  0  3  0  0  0  0  0  0
  -23.6860  -29.7070   20.1450 C   0  0  0  0  0  2  0  0  0  0  0  0
  -24.7390  -30.9920   22.0500 N   0  0  0  0  0  0  0  0  0  0  0  0
  -23.5870  -32.1030   23.6660 O   0  0  0  0  0  0  0  0  0  0  0  0
  -22.8020  -29.3970   22.4890 C   0  0  0  0  0  0  0  0  0  0  0  0
  -21.4800  -29.1960   22.3470 N   0  0  0  0  0  0  0  0  0  0  0  0
  -23.4740  -28.8030   23.3360 O   0  0  0  0  0  0  0  0  0  0  0  0
  -20.9940  -29.7280   21.6390 H   0  0  0  0  0  0  0  0  0  0  0  0
  -18.1230  -27.9170   22.7960 C   0  0  0  0  0  0  0  0  0  0  0  0
  -20.6640  -28.2630   23.1280 C   0  0  0  0  0  3  0  0  0  0  0  0
  -20.8240  -26.8150   22.6120 C   0  0  0  0  0  2  0  0  0  0  0  0
  -19.7630  -26.4210   21.5790 C   0  0  0  0  0  2  0  0  0  0  0  0
  -18.3580  -26.5500   22.1760 C   0  0  0  0  0  2  0  0  0  0  0  0
  -19.2060  -28.7280   23.2280 C   0  0  0  0  0  0  0  0  0  0  0  0
  -18.9330  -30.0040   23.7660 C   0  0  0  0  0  3  0  0  0  0  0  0
  -17.6090  -30.4710   23.8730 C   0  0  0  0  0  3  0  0  0  0  0  0
  -16.5400  -29.6590   23.4570 C   0  0  0  0  0  3  0  0  0  0  0  0
  -16.7970  -28.3830   22.9240 C   0  0  0  0  0  3  0  0  0  0  0  0
  -25.9520  -32.4620   23.7510 C   0  0  0  0  0  3  0  0  0  0  0  0
  -25.6120  -33.8350   24.1510 N   0  0  0  0  0  0  0  0  0  0  0  0
  -25.9050  -34.9320   23.4380 C   0  0  0  0  0  0  0  0  0  0  0  0
  -26.5570  -34.8940   22.3910 O   0  0  0  0  0  0  0  0  0  0  0  0
  -25.0300  -33.9370   24.9690 H   0  0  0  0  0  0  0  0  0  0  0  0
  -24.1180  -36.6890   23.2130 C   0  0  0  0  0  1  0  0  0  0  0  0
  -25.3940  -36.2860   23.9710 C   0  0  0  0  0  3  0  0  0  0  0  0
  -27.5310  -37.1930   24.7690 C   0  0  0  0  0  1  0  0  0  0  0  0
  -26.3930  -37.3720   23.8720 N   0  0  0  0  0  0  0  0  0  0  0  0
  -25.9670  -38.2730   24.0760 H   0  0  0  0  0  0  0  0  0  0  0  0
  -26.5230  -31.6530   24.9790 C   0  0  1  0  0  0  0  0  0  0  0  0
  -25.4630  -31.3160   26.0530 C   0  0  0  0  0  1  0  0  0  0  0  0
  -27.1570  -30.3210   24.5150 C   0  0  0  0  0  1  0  0  0  0  0  0
  -27.6530  -32.4640   25.6570 C   0  0  0  0  0  1  0  0  0  0  0  0
  1  3  2  0
  2  1  1  0
  2 51  1  0
  4  2  1  0
  5  1  1  0
  5 11  1  0
  6  9  1  0
  8 11  1  0
  8  6  2  0
  9  7  2  0
  9 50  1  0
 10 12  1  0
 10  7  1  0
 11 10  2  0
 13  8  1  0
 14 19  1  0
 15 16  1  0
 15 14  1  0
 17 16  1  0
 17 24  1  0
 17 18  1  0
 19 13  1  0
 19 18  1  0
 20 13  2  0
 21 46  1  0
 21 22  2  0
 22 41  1  0
 23 26  1  0
 23 22  1  0
 24 25  1  0
 24 21  1  0
 25 23  2  0
 26 27  1  0
 27 28  2  0
 29 32  1  0
 29 28  1  0
 30 29  2  0
 31 30  1  0
 31 26  2  0
 32 33  1  0
 33 34  1  0
 34 35  2  0
 36 35  1  0
 36 40  1  0
 37 36  2  0
 38 33  2  0
 38 37  1  0
 39 38  1  0
 41 42  1  0
 42 44  1  0
 42 45  1  0
 43 41  2  0
 46 47  1  0
 48 46  1  0
 50 49  1  0
 51 52  1  0
 53 54  1  0
 53 52  2  0
 55 66  2  0
 56 54  1  0
 56 61  1  0
 57 65  1  0
 57 67  1  0
 58 64  1  0
 58 60  1  0
 59 65  1  0
 60 61  2  0
 60 59  1  0
 62 56  2  0
 63 62  1  0
 63 58  2  0
 64 57  1  0
 65 55  1  0
 67 69  2  0
 68 67  1  0
 70 68  1  0
 71 80  2  0
 71 76  1  0
 72 68  1  0
 72 76  1  0
 73 72  1  0
 74 75  1  0
 74 73  1  0
 75 71  1  0
 76 77  2  0
 77 78  1  0
 79 78  2  0
 80 79  1  0
 81 55  1  0
 81 82  1  0
 81 91  1  0
 82 85  1  0
 83 87  1  0
 83 82  1  0
 84 83  2  0
 87 86  1  0
 89 87  1  0
 89 90  1  0
 89 88  1  0
 91 94  1  1
 91 92  1  0
 93 91  1  0
M  ISO  4   8 100  13 100  53 101  54 101
M  END
>  <TORSDO>  (74) 
F 22

>  <SCORE>  (74) 
5.657

>  <name>  (74) 
74

>  <ligand_id>  (74) 
74

>  <original_smiles>  (74) 
[H]c1c([H])c([H])c2c(c1[H])C([H])([H])C([H])([H])C([H])([H])C2([H])N([H])C(=O)C1([H])N(C(=O)C([H])(N([H])C(=O)C([H])(N([H])C([H])([H])[H])C([H])([H])[H])C(C([H])([H])[H])(C([H])([H])[H])C([H])([H])[H])C([H])([H])c2c([H])c(OC([H])([H])C([H])([H])C([H])([H])N([H])C(=O)C([H])([H])c3c(C(=O)N4C([H])([H])C([H])([H])C([H])([H])C([H])(n5nc(-c6c([H])c([H])c(Oc7c([H])c([H])c(F)c([H])c7F)c([H])c6[H])c(C(=O)N([H])[H])c5N([H])[H])C4([H])[H])c([H])c(C([H])([H])C([H])([H])[H])c([H])c3C([H])([H])[H])c([H])c([H])c2C1([H])[H]

>  <smiles>  (74) 
[H]c1c([H])c([H])c2c(c1[H])C([H])([H])C([H])([H])C([H])([H])C2([H])N([H])C(=O)C1([H])N(C(=O)C([H])(N([H])C(=O)C([H])(N([H])C([H])([H])[H])C([H])([H])[H])C(C([H])([H])[H])(C([H])([H])[H])C([H])([H])[H])C([H])([H])c2c([H])c(OC([H])([H])C([H])([H])C([H])([H])N([H])C(=O)C([H])([H])c3c(C(=O)N4C([H])([H])C([H])([H])C([H])([H])C([H])(n5nc(-c6c([H])c([H])c(Oc7c([H])c([H])c(F)c([H])c7F)c([H])c6[H])c(C(=O)N([H])[H])c5N([H])[H])C4([H])[H])c([H])c(C([H])([H])C([H])([H])[H])c([H])c3C([H])([H])[H])c([H])c([H])c2C1([H])[H]

$$$$
75:0:0
     RDKit          3D

 93101  0  0  1  0  0  0  0  0999 V2000
  -30.2080  -21.4740   17.0820 C   0  0  0  0  0  3  0  0  0  0  0  0
  -29.6500  -20.7000   18.0930 C   0  0  0  0  0  3  0  0  0  0  0  0
  -29.9070  -23.4610   18.4510 C   0  0  0  0  0  0  0  0  0  0  0  0
  -30.4060  -22.8380   17.2740 C   0  0  0  0  0  0  0  0  0  0  0  0
  -29.2620  -21.2240   19.3510 C   0  0  0  0  0  0  0  0  0  0  0  0
  -29.2220  -22.7130   19.4770 C   0  0  0  0  0  0  0  0  0  0  0  0
  -31.1260  -23.5860   16.1580 C   0  0  0  0  0  1  0  0  0  0  0  0
  -30.1540  -24.9190   18.5750 C   0  0  0  0  0  3  0  0  0  0  0  0
  -29.8930  -25.7500   17.7000 O   0  0  0  0  0  0  0  0  0  0  0  0
  -28.9660  -20.0400   20.3950 C   0  0  0  0  0  2  0  0  0  0  0  0
  -29.4160  -18.4880   20.0110 C   0  0  0  0  0  2  0  0  0  0  0  0
  -29.7790  -17.3070   21.0640 C   0  0  0  0  0  2  0  0  0  0  0  0
  -30.5080  -14.7600   20.4780 C   0  0  0  0  0  0  0  0  0  0  0  0
  -30.3990  -12.4890   19.4210 C   0  0  0  0  0  2  0  0  0  0  0  0
  -29.4580  -12.5560   18.1960 C   0  0  0  0  0  2  0  0  0  0  0  0
  -27.9850  -12.3540   18.6180 C   0  0  0  0  0  2  0  0  0  0  0  0
  -27.5970  -13.2340   19.8390 C   0  0  0  0  0  3  0  0  0  0  0  0
  -28.6470  -13.1100   20.9630 C   0  0  0  0  0  2  0  0  0  0  0  0
  -29.9340  -13.5120   20.3830 N   0  0  0  0  0  0  0  0  0  0  0  0
  -31.7010  -14.9190   20.2070 O   0  0  0  0  0  0  0  0  0  0  0  0
  -29.6380  -15.8220   20.7000 N   0  0  0  0  0  0  0  0  0  0  0  0
  -28.6910  -15.4880   20.7940 H   0  0  0  0  0  0  0  0  0  0  0  0
  -25.2000  -13.8390   20.5280 C   0  0  0  0  0  0  0  0  0  0  0  0
  -24.1290  -13.0690   20.8980 C   0  0  0  0  0  0  0  0  0  0  0  0
  -24.5920  -11.7190   20.8790 C   0  0  0  0  0  0  0  0  0  0  0  0
  -26.2470  -12.9550   20.3150 N   0  0  0  0  0  0  0  0  0  0  0  0
  -25.8860  -11.6750   20.5850 N   0  0  0  0  0  0  0  0  0  0  0  0
  -23.8660  -10.4590   21.0720 C   0  0  0  0  0  0  0  0  0  0  0  0
  -24.3070   -9.4920   22.0020 C   0  0  0  0  0  3  0  0  0  0  0  0
  -23.5880   -8.2910   22.1790 C   0  0  0  0  0  3  0  0  0  0  0  0
  -22.4130   -8.0530   21.4300 C   0  0  0  0  0  0  0  0  0  0  0  0
  -21.9900   -9.0090   20.4900 C   0  0  0  0  0  3  0  0  0  0  0  0
  -22.7090  -10.2030   20.3100 C   0  0  0  0  0  3  0  0  0  0  0  0
  -21.6590   -6.9080   21.5230 O   0  0  0  0  0  0  0  0  0  0  0  0
  -21.6340   -6.1530   22.6670 C   0  0  0  0  0  0  0  0  0  0  0  0
  -21.2430   -6.6940   23.9110 C   0  0  0  0  0  3  0  0  0  0  0  0
  -21.1660   -5.8660   25.0480 C   0  0  0  0  0  3  0  0  0  0  0  0
  -21.4680   -4.4940   24.9410 C   0  0  0  0  0  0  0  0  0  0  0  0
  -21.8460   -3.9500   23.7010 C   0  0  0  0  0  3  0  0  0  0  0  0
  -21.9270   -4.7770   22.5670 C   0  0  0  0  0  0  0  0  0  0  0  0
  -22.2730   -4.2440   21.3710 F   0  0  0  0  0  0  0  0  0  0  0  0
  -21.3860   -3.6940   26.0300 F   0  0  0  0  0  0  0  0  0  0  0  0
  -22.7290  -13.5510   21.1490 C   0  0  0  0  0  0  0  0  0  0  0  0
  -21.9850  -12.8630   22.0110 N   0  0  0  0  0  0  0  0  0  0  0  0
  -22.3000  -14.5730   20.6180 O   0  0  0  0  0  0  0  0  0  0  0  0
  -22.3340  -12.0350   22.4740 H   0  0  0  0  0  0  0  0  0  0  0  0
  -21.0440  -13.1730   22.2110 H   0  0  0  0  0  0  0  0  0  0  0  0
  -25.3630  -15.2060   20.3240 N   0  0  0  0  0  0  0  0  0  0  0  0
  -24.5870  -15.8550   20.3960 H   0  0  0  0  0  0  0  0  0  0  0  0
  -26.2000  -15.6390   19.9540 H   0  0  0  0  0  0  0  0  0  0  0  0
  -28.3310  -23.5430   20.5320 C   0  0  0  0  0  2  0  0  0  0  0  0
  -28.4000  -25.1430   20.9780 C   0  0  0  0  0  2  0  0  0  0  0  0
  -28.3600  -26.4150   20.1730 O   0  0  0  0  0  0  0  0  0  0  0  0
  -24.6440  -31.8790   23.2250 C   0  0  0  0  0  0  0  0  0  0  0  0
  -27.2520  -27.2810   20.2020 C   0  0  0  0  0  0  0  0  0  0  0  0
  -23.4420  -30.4720   21.5900 C   0  0  0  0  0  3  0  0  0  0  0  0
  -24.8980  -28.9180   20.1630 C   0  0  0  0  0  0  0  0  0  0  0  0
  -25.9870  -30.7880   21.4130 C   0  0  0  0  0  2  0  0  0  0  0  0
  -26.0700  -29.4070   20.7590 C   0  0  0  0  0  0  0  0  0  0  0  0
  -27.2520  -28.6020   20.7620 C   0  0  0  0  0  3  0  0  0  0  0  0
  -26.0670  -26.8530   19.5770 C   0  0  0  0  0  3  0  0  0  0  0  0
  -24.9040  -27.6480   19.5610 C   0  0  0  0  0  3  0  0  0  0  0  0
  -23.6590  -29.7900   20.2100 C   0  0  0  0  0  2  0  0  0  0  0  0
  -24.7090  -31.0650   22.1310 N   0  0  0  0  0  0  0  0  0  0  0  0
  -23.5600  -32.1570   23.7590 O   0  0  0  0  0  0  0  0  0  0  0  0
  -22.7840  -29.4560   22.5510 C   0  0  0  0  0  0  0  0  0  0  0  0
  -21.4590  -29.2730   22.4220 N   0  0  0  0  0  0  0  0  0  0  0  0
  -23.4620  -28.8360   23.3730 O   0  0  0  0  0  0  0  0  0  0  0  0
  -20.9710  -29.8130   21.7230 H   0  0  0  0  0  0  0  0  0  0  0  0
  -18.0870  -28.0550   22.9120 C   0  0  0  0  0  0  0  0  0  0  0  0
  -20.6430  -28.3350   23.1940 C   0  0  0  0  0  3  0  0  0  0  0  0
  -20.7620  -26.9030   22.6260 C   0  0  0  0  0  2  0  0  0  0  0  0
  -19.6670  -26.5640   21.6080 C   0  0  0  0  0  2  0  0  0  0  0  0
  -18.2800  -26.7050   22.2420 C   0  0  0  0  0  2  0  0  0  0  0  0
  -19.1990  -28.8280   23.3430 C   0  0  0  0  0  0  0  0  0  0  0  0
  -18.9670  -30.0940   23.9260 C   0  0  0  0  0  3  0  0  0  0  0  0
  -17.6580  -30.5870   24.0810 C   0  0  0  0  0  3  0  0  0  0  0  0
  -16.5620  -29.8090   23.6700 C   0  0  0  0  0  3  0  0  0  0  0  0
  -16.7770  -28.5450   23.0910 C   0  0  0  0  0  3  0  0  0  0  0  0
  -25.9270  -32.5150   23.8430 C   0  0  0  0  0  3  0  0  0  0  0  0
  -25.6160  -33.9120   24.1800 N   0  0  0  0  0  0  0  0  0  0  0  0
  -25.9430  -34.9690   23.4230 C   0  0  0  0  0  0  0  0  0  0  0  0
  -26.6050  -34.8690   22.3870 O   0  0  0  0  0  0  0  0  0  0  0  0
  -25.0290  -34.0670   24.9860 H   0  0  0  0  0  0  0  0  0  0  0  0
  -24.2010  -36.7480   23.0930 C   0  0  0  0  0  1  0  0  0  0  0  0
  -25.4540  -36.3530   23.8900 C   0  0  0  0  0  3  0  0  0  0  0  0
  -27.5960  -37.2400   24.6980 C   0  0  0  0  0  1  0  0  0  0  0  0
  -26.4820  -37.4110   23.7680 N   0  0  0  0  0  0  0  0  0  0  0  0
  -26.0770  -38.3290   23.9230 H   0  0  0  0  0  0  0  0  0  0  0  0
  -26.4520  -31.7420   25.1160 C   0  0  1  0  0  0  0  0  0  0  0  0
  -25.3580  -31.5000   26.1820 C   0  0  0  0  0  1  0  0  0  0  0  0
  -27.0440  -30.3680   24.7260 C   0  0  0  0  0  1  0  0  0  0  0  0
  -27.6060  -32.5370   25.7700 C   0  0  0  0  0  1  0  0  0  0  0  0
  1  4  2  0
  1  2  1  0
  2  5  2  0
  3  8  1  0
  3  6  2  0
  4  3  1  0
  5  6  1  0
  5 10  1  0
  6 51  1  0
  7  4  1  0
  9  8  2  0
 11 10  1  0
 11 12  1  0
 13 21  1  0
 14 19  1  0
 15 16  1  0
 15 14  1  0
 17 16  1  0
 17 26  1  0
 17 18  1  0
 19 13  1  0
 19 18  1  0
 20 13  2  0
 21 22  1  0
 21 12  1  0
 23 24  2  0
 24 43  1  0
 25 24  1  0
 25 28  1  0
 26 23  1  0
 26 27  1  0
 27 25  2  0
 28 29  1  0
 29 30  2  0
 31 34  1  0
 31 30  1  0
 32 31  2  0
 33 32  1  0
 33 28  2  0
 34 35  1  0
 35 36  1  0
 36 37  2  0
 38 37  1  0
 38 42  1  0
 39 38  2  0
 40 35  2  0
 40 39  1  0
 41 40  1  0
 43 44  1  0
 44 47  1  0
 44 46  1  0
 45 43  2  0
 48 49  1  0
 48 23  1  0
 50 48  1  0
 51 52  1  0
 53 55  1  0
 53 52  1  0
 54 65  2  0
 55 60  1  0
 56 64  1  0
 56 66  1  0
 57 63  1  0
 57 59  1  0
 58 64  1  0
 59 60  2  0
 59 58  1  0
 61 55  2  0
 62 61  1  0
 62 57  2  0
 63 56  1  0
 64 54  1  0
 66 68  2  0
 67 66  1  0
 69 67  1  0
 70 79  2  0
 70 75  1  0
 71 67  1  0
 71 75  1  0
 72 71  1  0
 73 74  1  0
 73 72  1  0
 74 70  1  0
 75 76  2  0
 76 77  1  0
 78 77  2  0
 79 78  1  0
 80 54  1  0
 80 81  1  0
 80 90  1  0
 81 84  1  0
 82 86  1  0
 82 81  1  0
 83 82  2  0
 86 85  1  0
 88 86  1  0
 88 89  1  0
 88 87  1  0
 90 93  1  1
 90 91  1  0
 92 90  1  0
M  ISO  4  13 100  21 100  52 101  53 101
M  END
>  <TORSDO>  (75) 
F 22

>  <SCORE>  (75) 
-13.089

>  <name>  (75) 
75

>  <ligand_id>  (75) 
75

>  <original_smiles>  (75) 
[H]C(=O)c1c(C([H])([H])[H])c([H])c([H])c(C([H])([H])C([H])([H])C([H])([H])N([H])C(=O)N2C([H])([H])C([H])([H])C([H])([H])C([H])(n3nc(-c4c([H])c([H])c(Oc5c([H])c([H])c(F)c([H])c5F)c([H])c4[H])c(C(=O)N([H])[H])c3N([H])[H])C2([H])[H])c1C([H])([H])C([H])([H])Oc1c([H])c([H])c2c(c1[H])C([H])([H])N(C(=O)C([H])(N([H])C(=O)C([H])(N([H])C([H])([H])[H])C([H])([H])[H])C(C([H])([H])[H])(C([H])([H])[H])C([H])([H])[H])C([H])(C(=O)N([H])C1([H])c3c([H])c([H])c([H])c([H])c3C([H])([H])C([H])([H])C1([H])[H])C2([H])[H]

>  <smiles>  (75) 
[H]C(=O)c1c(C([H])([H])[H])c([H])c([H])c(C([H])([H])C([H])([H])C([H])([H])N([H])C(=O)N2C([H])([H])C([H])([H])C([H])([H])C([H])(n3nc(-c4c([H])c([H])c(Oc5c([H])c([H])c(F)c([H])c5F)c([H])c4[H])c(C(=O)N([H])[H])c3N([H])[H])C2([H])[H])c1C([H])([H])C([H])([H])Oc1c([H])c([H])c2c(c1[H])C([H])([H])N(C(=O)C([H])(N([H])C(=O)C([H])(N([H])C([H])([H])[H])C([H])([H])[H])C(C([H])([H])[H])(C([H])([H])[H])C([H])([H])[H])C([H])(C(=O)N([H])C1([H])c3c([H])c([H])c([H])c([H])c3C([H])([H])C([H])([H])C1([H])[H])C2([H])[H]

$$$$
76:0:0
     RDKit          3D

 93101  0  0  1  0  0  0  0  0999 V2000
  -30.3410  -19.4420   21.8400 C   0  0  0  0  0  3  0  0  0  0  0  0
  -28.9430  -20.4630   20.1600 C   0  0  0  0  0  3  0  0  0  0  0  0
  -29.6020  -19.2100   20.6630 C   0  0  0  0  0  0  0  0  0  0  0  0
  -30.4980  -20.7230   22.4300 C   0  0  0  0  0  0  0  0  0  0  0  0
  -29.0360  -21.8380   20.7630 C   0  0  0  0  0  0  0  0  0  0  0  0
  -29.8740  -21.8840   21.9000 C   0  0  0  0  0  0  0  0  0  0  0  0
  -29.8690  -16.4080   20.6600 C   0  0  0  0  0  2  0  0  0  0  0  0
  -29.7990  -17.7130   20.0640 C   0  0  0  0  0  3  0  0  0  0  0  0
  -30.4900  -15.0650   20.1330 C   0  0  0  0  0  0  0  0  0  0  0  0
  -30.2900  -12.7060   19.2000 C   0  0  0  0  0  2  0  0  0  0  0  0
  -29.3290  -12.6910   17.9900 C   0  0  0  0  0  2  0  0  0  0  0  0
  -27.8830  -12.4710   18.4650 C   0  0  0  0  0  2  0  0  0  0  0  0
  -27.5200  -13.3730   19.6740 C   0  0  0  0  0  3  0  0  0  0  0  0
  -28.6120  -13.3910   20.7660 C   0  0  0  0  0  2  0  0  0  0  0  0
  -29.8660  -13.8060   20.1280 N   0  0  0  0  0  0  0  0  0  0  0  0
  -31.6410  -15.0590   19.6820 O   0  0  0  0  0  0  0  0  0  0  0  0
  -25.1740  -13.9230   20.5210 C   0  0  0  0  0  0  0  0  0  0  0  0
  -24.1260  -13.1380   20.9140 C   0  0  0  0  0  0  0  0  0  0  0  0
  -24.5900  -11.7890   20.8370 C   0  0  0  0  0  0  0  0  0  0  0  0
  -26.2060  -13.0530   20.2190 N   0  0  0  0  0  0  0  0  0  0  0  0
  -25.8690  -11.7620   20.4750 N   0  0  0  0  0  0  0  0  0  0  0  0
  -23.8710  -10.5220   21.0290 C   0  0  0  0  0  0  0  0  0  0  0  0
  -24.3270   -9.5430   21.9380 C   0  0  0  0  0  3  0  0  0  0  0  0
  -23.6050   -8.3430   22.1210 C   0  0  0  0  0  3  0  0  0  0  0  0
  -22.4120   -8.1150   21.3940 C   0  0  0  0  0  0  0  0  0  0  0  0
  -21.9740   -9.0830   20.4740 C   0  0  0  0  0  3  0  0  0  0  0  0
  -22.6970  -10.2740   20.2900 C   0  0  0  0  0  3  0  0  0  0  0  0
  -21.6600   -6.9680   21.4880 O   0  0  0  0  0  0  0  0  0  0  0  0
  -21.6340   -6.2150   22.6330 C   0  0  0  0  0  0  0  0  0  0  0  0
  -21.2080   -6.7510   23.8690 C   0  0  0  0  0  3  0  0  0  0  0  0
  -21.1300   -5.9240   25.0070 C   0  0  0  0  0  3  0  0  0  0  0  0
  -21.4690   -4.5600   24.9110 C   0  0  0  0  0  0  0  0  0  0  0  0
  -21.8870   -4.0230   23.6810 C   0  0  0  0  0  3  0  0  0  0  0  0
  -21.9670   -4.8470   22.5460 C   0  0  0  0  0  0  0  0  0  0  0  0
  -22.3510   -4.3200   21.3580 F   0  0  0  0  0  0  0  0  0  0  0  0
  -21.3870   -3.7630   26.0020 F   0  0  0  0  0  0  0  0  0  0  0  0
  -22.7410  -13.6090   21.2490 C   0  0  0  0  0  0  0  0  0  0  0  0
  -22.0440  -12.8920   22.1230 N   0  0  0  0  0  0  0  0  0  0  0  0
  -22.2870  -14.6480   20.7700 O   0  0  0  0  0  0  0  0  0  0  0  0
  -22.4250  -12.0530   22.5320 H   0  0  0  0  0  0  0  0  0  0  0  0
  -21.1150  -13.1880   22.3860 H   0  0  0  0  0  0  0  0  0  0  0  0
  -25.3330  -15.2980   20.3690 N   0  0  0  0  0  0  0  0  0  0  0  0
  -24.5770  -15.9540   20.5350 H   0  0  0  0  0  0  0  0  0  0  0  0
  -26.1800  -15.7450   20.0380 H   0  0  0  0  0  0  0  0  0  0  0  0
  -30.1090  -17.8070   18.7650 O   0  0  0  0  0  0  0  0  0  0  0  0
  -30.1420  -18.7310   18.5500 H   0  0  0  0  0  0  0  0  0  0  0  0
  -32.8600  -21.0260   23.3080 C   0  0  0  0  0  1  0  0  0  0  0  0
  -31.3830  -20.8190   23.6680 C   0  0  0  0  0  2  0  0  0  0  0  0
  -30.0560  -23.0860   22.5220 O   0  0  0  0  0  0  0  0  0  0  0  0
  -30.6860  -23.0370   23.2330 H   0  0  0  0  0  0  0  0  0  0  0  0
  -28.1620  -23.2320   20.4500 C   0  0  0  0  0  2  0  0  0  0  0  0
  -28.6530  -24.8010   19.9850 C   0  0  0  0  0  2  0  0  0  0  0  0
  -28.4490  -26.2580   20.5450 O   0  0  0  0  0  0  0  0  0  0  0  0
  -24.7010  -31.9630   23.2710 C   0  0  0  0  0  0  0  0  0  0  0  0
  -27.3750  -27.2080   20.3650 C   0  0  0  0  0  0  0  0  0  0  0  0
  -23.5450  -30.5310   21.6290 C   0  0  0  0  0  3  0  0  0  0  0  0
  -25.0330  -28.9410   20.2490 C   0  0  0  0  0  0  0  0  0  0  0  0
  -26.0960  -30.8120   21.5100 C   0  0  0  0  0  2  0  0  0  0  0  0
  -26.1920  -29.4080   20.8790 C   0  0  0  0  0  0  0  0  0  0  0  0
  -27.3570  -28.5540   20.9230 C   0  0  0  0  0  3  0  0  0  0  0  0
  -26.1950  -26.8430   19.6850 C   0  0  0  0  0  3  0  0  0  0  0  0
  -25.0490  -27.6750   19.6360 C   0  0  0  0  0  3  0  0  0  0  0  0
  -23.7970  -29.8310   20.2640 C   0  0  0  0  0  2  0  0  0  0  0  0
  -24.7990  -31.1270   22.1920 N   0  0  0  0  0  0  0  0  0  0  0  0
  -23.6030  -32.2470   23.7740 O   0  0  0  0  0  0  0  0  0  0  0  0
  -22.8530  -29.5380   22.5960 C   0  0  0  0  0  0  0  0  0  0  0  0
  -21.5310  -29.3470   22.4390 N   0  0  0  0  0  0  0  0  0  0  0  0
  -23.5110  -28.9400   23.4510 O   0  0  0  0  0  0  0  0  0  0  0  0
  -21.0560  -29.8810   21.7240 H   0  0  0  0  0  0  0  0  0  0  0  0
  -18.1560  -28.1050   22.8750 C   0  0  0  0  0  0  0  0  0  0  0  0
  -20.7020  -28.4130   23.2060 C   0  0  0  0  0  3  0  0  0  0  0  0
  -20.8420  -26.9710   22.6650 C   0  0  0  0  0  2  0  0  0  0  0  0
  -19.7730  -26.6110   21.6270 C   0  0  0  0  0  2  0  0  0  0  0  0
  -18.3720  -26.7460   22.2300 C   0  0  0  0  0  2  0  0  0  0  0  0
  -19.2510  -28.8940   23.3190 C   0  0  0  0  0  0  0  0  0  0  0  0
  -18.9950  -30.1620   23.8830 C   0  0  0  0  0  3  0  0  0  0  0  0
  -17.6780  -30.6430   24.0070 C   0  0  0  0  0  3  0  0  0  0  0  0
  -16.5980  -29.8530   23.5790 C   0  0  0  0  0  3  0  0  0  0  0  0
  -16.8380  -28.5850   23.0190 C   0  0  0  0  0  3  0  0  0  0  0  0
  -25.9620  -32.6190   23.9150 C   0  0  0  0  0  3  0  0  0  0  0  0
  -25.6270  -34.0180   24.2290 N   0  0  0  0  0  0  0  0  0  0  0  0
  -25.9460  -35.0710   23.4650 C   0  0  0  0  0  0  0  0  0  0  0  0
  -26.6170  -34.9690   22.4350 O   0  0  0  0  0  0  0  0  0  0  0  0
  -25.0300  -34.1700   25.0280 H   0  0  0  0  0  0  0  0  0  0  0  0
  -24.1870  -36.8370   23.1130 C   0  0  0  0  0  1  0  0  0  0  0  0
  -25.4440  -36.4580   23.9140 C   0  0  0  0  0  3  0  0  0  0  0  0
  -27.5690  -37.3910   24.7160 C   0  0  0  0  0  1  0  0  0  0  0  0
  -26.4580  -37.5260   23.7770 N   0  0  0  0  0  0  0  0  0  0  0  0
  -26.0390  -38.4420   23.9120 H   0  0  0  0  0  0  0  0  0  0  0  0
  -26.4560  -31.8690   25.2140 C   0  0  1  0  0  0  0  0  0  0  0  0
  -25.3390  -31.6250   26.2550 C   0  0  0  0  0  1  0  0  0  0  0  0
  -27.0720  -30.4980   24.8560 C   0  0  0  0  0  1  0  0  0  0  0  0
  -27.5760  -32.6880   25.8970 C   0  0  0  0  0  1  0  0  0  0  0  0
  1  4  1  0
  2  3  1  0
  2  5  2  0
  3  1  2  0
  4 48  1  0
  5  6  1  0
  6  4  2  0
  6 49  1  0
  8  7  1  0
  8  3  1  0
  9  7  1  0
 10 15  1  0
 11 12  1  0
 11 10  1  0
 13 12  1  0
 13 20  1  0
 13 14  1  0
 15  9  1  0
 15 14  1  0
 16  9  2  0
 17 18  2  0
 18 37  1  0
 19 18  1  0
 19 22  1  0
 20 21  1  0
 20 17  1  0
 21 19  2  0
 22 23  1  0
 23 24  2  0
 25 28  1  0
 25 24  1  0
 26 25  2  0
 27 26  1  0
 27 22  2  0
 28 29  1  0
 29 30  1  0
 30 31  2  0
 32 31  1  0
 32 36  1  0
 33 32  2  0
 34 29  2  0
 34 33  1  0
 35 34  1  0
 37 38  1  0
 38 41  1  0
 38 40  1  0
 39 37  2  0
 42 17  1  0
 42 43  1  0
 44 42  1  0
 45  8  1  0
 46 45  1  0
 47 48  1  0
 49 50  1  0
 51  5  1  0
 52 51  1  0
 52 53  1  0
 54 65  2  0
 55 53  1  0
 55 60  1  0
 56 64  1  0
 56 66  1  0
 57 63  1  0
 57 59  1  0
 58 64  1  0
 59 60  2  0
 59 58  1  0
 61 55  2  0
 62 61  1  0
 62 57  2  0
 63 56  1  0
 64 54  1  0
 66 68  2  0
 67 66  1  0
 69 67  1  0
 70 79  2  0
 70 75  1  0
 71 67  1  0
 71 75  1  0
 72 71  1  0
 73 74  1  0
 73 72  1  0
 74 70  1  0
 75 76  2  0
 76 77  1  0
 78 77  2  0
 79 78  1  0
 80 54  1  0
 80 81  1  0
 80 90  1  0
 81 84  1  0
 82 86  1  0
 82 81  1  0
 83 82  2  0
 86 85  1  0
 88 89  1  0
 88 86  1  0
 88 87  1  0
 90 93  1  1
 90 91  1  0
 92 90  1  0
M  ISO  4   7 100   9 100  52 101  53 101
M  END
>  <TORSDO>  (76) 
F 22

>  <SCORE>  (76) 
-14.571

>  <name>  (76) 
76

>  <ligand_id>  (76) 
76

>  <original_smiles>  (76) 
[H]OC(=C([H])C(=O)N1C([H])([H])C([H])([H])C([H])([H])C([H])(n2nc(-c3c([H])c([H])c(Oc4c([H])c([H])c(F)c([H])c4F)c([H])c3[H])c(C(=O)N([H])[H])c2N([H])[H])C1([H])[H])c1c([H])c(C([H])([H])C([H])([H])[H])c(O[H])c(C([H])([H])C([H])([H])Oc2c([H])c([H])c3c(c2[H])C([H])([H])N(C(=O)C([H])(N([H])C(=O)C([H])(N([H])C([H])([H])[H])C([H])([H])[H])C(C([H])([H])[H])(C([H])([H])[H])C([H])([H])[H])C([H])(C(=O)N([H])C2([H])c4c([H])c([H])c([H])c([H])c4C([H])([H])C([H])([H])C2([H])[H])C3([H])[H])c1[H]

>  <smiles>  (76) 
[H]OC(=C([H])C(=O)N1C([H])([H])C([H])([H])C([H])([H])C([H])(n2nc(-c3c([H])c([H])c(Oc4c([H])c([H])c(F)c([H])c4F)c([H])c3[H])c(C(=O)N([H])[H])c2N([H])[H])C1([H])[H])c1c([H])c(C([H])([H])C([H])([H])[H])c(O[H])c(C([H])([H])C([H])([H])Oc2c([H])c([H])c3c(c2[H])C([H])([H])N(C(=O)C([H])(N([H])C(=O)C([H])(N([H])C([H])([H])[H])C([H])([H])[H])C(C([H])([H])[H])(C([H])([H])[H])C([H])([H])[H])C([H])(C(=O)N([H])C2([H])c4c([H])c([H])c([H])c([H])c4C([H])([H])C([H])([H])C2([H])[H])C3([H])[H])c1[H]

$$$$
77:0:0
     RDKit          3D

 89 97  0  0  1  0  0  0  0  0999 V2000
  -29.1140  -20.2040   21.5030 C   0  0  0  0  0  3  0  0  0  0  0  0
  -28.7280  -21.4450   22.0740 C   0  0  0  0  0  3  0  0  0  0  0  0
  -29.2620  -21.4120   19.4330 C   0  0  0  0  0  3  0  0  0  0  0  0
  -29.4560  -20.0330   20.1440 C   0  0  0  0  0  0  0  0  0  0  0  0
  -28.5960  -22.6860   21.3780 C   0  0  0  0  0  0  0  0  0  0  0  0
  -28.8180  -22.8100   19.9800 C   0  0  0  0  0  0  0  0  0  0  0  0
  -28.1750  -23.9040   22.1810 C   0  0  0  0  0  1  0  0  0  0  0  0
  -29.8850  -17.0470   20.2120 C   0  0  0  0  0  3  0  0  0  0  0  0
  -30.0540  -18.4590   19.7580 C   0  0  0  0  0  0  0  0  0  0  0  0
  -30.6390  -15.6000   19.9480 C   0  0  0  0  0  0  0  0  0  0  0  0
  -30.6000  -13.0870   19.2180 C   0  0  0  0  0  2  0  0  0  0  0  0
  -29.6800  -12.8220   17.9970 C   0  0  0  0  0  2  0  0  0  0  0  0
  -28.2360  -12.5610   18.4550 C   0  0  0  0  0  2  0  0  0  0  0  0
  -27.7880  -13.5740   19.5360 C   0  0  0  0  0  3  0  0  0  0  0  0
  -28.8410  -13.7980   20.6450 C   0  0  0  0  0  2  0  0  0  0  0  0
  -30.0730  -14.2800   19.9970 N   0  0  0  0  0  0  0  0  0  0  0  0
  -31.8360  -15.5280   19.6260 O   0  0  0  0  0  0  0  0  0  0  0  0
  -25.4420  -14.1640   20.3290 C   0  0  0  0  0  0  0  0  0  0  0  0
  -24.3760  -13.4050   20.7190 C   0  0  0  0  0  0  0  0  0  0  0  0
  -24.8240  -12.0480   20.6880 C   0  0  0  0  0  0  0  0  0  0  0  0
  -26.4670  -13.2740   20.0710 N   0  0  0  0  0  0  0  0  0  0  0  0
  -26.1090  -11.9940   20.3550 N   0  0  0  0  0  0  0  0  0  0  0  0
  -24.0790  -10.7990   20.9010 C   0  0  0  0  0  0  0  0  0  0  0  0
  -24.5050   -9.8330   21.8400 C   0  0  0  0  0  3  0  0  0  0  0  0
  -23.7580   -8.6520   22.0420 C   0  0  0  0  0  3  0  0  0  0  0  0
  -22.5720   -8.4270   21.3050 C   0  0  0  0  0  0  0  0  0  0  0  0
  -22.1630   -9.3810   20.3550 C   0  0  0  0  0  3  0  0  0  0  0  0
  -22.9110  -10.5520   20.1520 C   0  0  0  0  0  3  0  0  0  0  0  0
  -21.7970   -7.2980   21.4130 O   0  0  0  0  0  0  0  0  0  0  0  0
  -21.7580   -6.5610   22.5700 C   0  0  0  0  0  0  0  0  0  0  0  0
  -21.3380   -7.1200   23.7950 C   0  0  0  0  0  3  0  0  0  0  0  0
  -21.2440   -6.3090   24.9430 C   0  0  0  0  0  3  0  0  0  0  0  0
  -21.5640   -4.9400   24.8670 C   0  0  0  0  0  0  0  0  0  0  0  0
  -21.9780   -4.3810   23.6450 C   0  0  0  0  0  3  0  0  0  0  0  0
  -22.0720   -5.1880   22.4990 C   0  0  0  0  0  0  0  0  0  0  0  0
  -22.4510   -4.6390   21.3200 F   0  0  0  0  0  0  0  0  0  0  0  0
  -21.4670   -4.1590   25.9670 F   0  0  0  0  0  0  0  0  0  0  0  0
  -22.9910  -13.9060   21.0070 C   0  0  0  0  0  0  0  0  0  0  0  0
  -22.2680  -13.2350   21.8960 N   0  0  0  0  0  0  0  0  0  0  0  0
  -22.5620  -14.9310   20.4790 O   0  0  0  0  0  0  0  0  0  0  0  0
  -22.6310  -12.4090   22.3460 H   0  0  0  0  0  0  0  0  0  0  0  0
  -21.3420  -13.5590   22.1380 H   0  0  0  0  0  0  0  0  0  0  0  0
  -25.6200  -15.5330   20.1470 N   0  0  0  0  0  0  0  0  0  0  0  0
  -24.8580  -16.1900   20.2820 H   0  0  0  0  0  0  0  0  0  0  0  0
  -26.4680  -15.9720   19.8110 H   0  0  0  0  0  0  0  0  0  0  0  0
  -31.0260  -18.6280   18.8540 O   0  0  0  0  0  0  0  0  0  0  0  0
  -31.1780  -19.5610   18.7660 H   0  0  0  0  0  0  0  0  0  0  0  0
  -28.3580  -24.3550   19.2190 C   0  0  0  0  0  2  0  0  0  0  0  0
  -28.4220  -25.9820   19.6350 O   0  0  0  0  0  0  0  0  0  0  0  0
  -24.7280  -31.7300   22.9170 C   0  0  0  0  0  0  0  0  0  0  0  0
  -27.3820  -27.0760   19.5840 C   0  0  0  0  0  0  0  0  0  0  0  0
  -23.5400  -30.3630   21.2510 C   0  0  0  0  0  3  0  0  0  0  0  0
  -25.0100  -28.8920   19.6970 C   0  0  0  0  0  0  0  0  0  0  0  0
  -26.0900  -30.6810   21.0340 C   0  0  0  0  0  2  0  0  0  0  0  0
  -26.1990  -29.3040   20.3070 C   0  0  0  0  0  0  0  0  0  0  0  0
  -27.3700  -28.4160   20.2340 C   0  0  0  0  0  3  0  0  0  0  0  0
  -26.1590  -26.8400   18.9130 C   0  0  0  0  0  3  0  0  0  0  0  0
  -25.0180  -27.6860   18.9760 C   0  0  0  0  0  3  0  0  0  0  0  0
  -23.7540  -29.7560   19.8350 C   0  0  0  0  0  2  0  0  0  0  0  0
  -24.8080  -30.9520   21.7890 N   0  0  0  0  0  0  0  0  0  0  0  0
  -23.6450  -31.9440   23.4890 O   0  0  0  0  0  0  0  0  0  0  0  0
  -22.9210  -29.2940   22.1890 C   0  0  0  0  0  0  0  0  0  0  0  0
  -21.5990  -29.0590   22.0850 N   0  0  0  0  0  0  0  0  0  0  0  0
  -23.6370  -28.6780   22.9830 O   0  0  0  0  0  0  0  0  0  0  0  0
  -21.0700  -29.6110   21.4230 H   0  0  0  0  0  0  0  0  0  0  0  0
  -18.3100  -27.6100   22.5940 C   0  0  0  0  0  0  0  0  0  0  0  0
  -20.8500  -28.0430   22.8330 C   0  0  0  0  0  3  0  0  0  0  0  0
  -21.0370  -26.6400   22.2080 C   0  0  0  0  0  2  0  0  0  0  0  0
  -19.9450  -26.2790   21.1970 C   0  0  0  0  0  2  0  0  0  0  0  0
  -18.5680  -26.3030   21.8650 C   0  0  0  0  0  2  0  0  0  0  0  0
  -19.3800  -28.4340   23.0350 C   0  0  0  0  0  0  0  0  0  0  0  0
  -19.0810  -29.6530   23.6850 C   0  0  0  0  0  3  0  0  0  0  0  0
  -17.7470  -30.0510   23.8920 C   0  0  0  0  0  3  0  0  0  0  0  0
  -16.6930  -29.2270   23.4620 C   0  0  0  0  0  3  0  0  0  0  0  0
  -16.9740  -28.0080   22.8210 C   0  0  0  0  0  3  0  0  0  0  0  0
  -25.9880  -32.4020   23.5430 C   0  0  0  0  0  3  0  0  0  0  0  0
  -26.5750  -31.5930   24.7660 C   0  0  1  0  0  0  0  0  0  0  0  0
  -25.5290  -31.2610   25.8570 C   0  0  0  0  0  1  0  0  0  0  0  0
  -27.2000  -30.2610   24.2970 C   0  0  0  0  0  1  0  0  0  0  0  0
  -27.7160  -32.4020   25.4270 C   0  0  0  0  0  1  0  0  0  0  0  0
  -25.6140  -33.7620   23.9720 N   0  0  0  0  0  0  0  0  0  0  0  0
  -25.9040  -34.8870   23.3030 C   0  0  0  0  0  0  0  0  0  0  0  0
  -26.5730  -34.8870   22.2660 O   0  0  0  0  0  0  0  0  0  0  0  0
  -25.0120  -33.8290   24.7790 H   0  0  0  0  0  0  0  0  0  0  0  0
  -24.1100  -36.6450   23.0990 C   0  0  0  0  0  1  0  0  0  0  0  0
  -25.3710  -36.2200   23.8690 C   0  0  0  0  0  3  0  0  0  0  0  0
  -27.4720  -37.1280   24.7630 C   0  0  0  0  0  1  0  0  0  0  0  0
  -26.3640  -37.3170   23.8300 N   0  0  0  0  0  0  0  0  0  0  0  0
  -25.9240  -38.2100   24.0350 H   0  0  0  0  0  0  0  0  0  0  0  0
  1  2  1  0
  3  6  2  0
  3  4  1  0
  4  1  2  0
  5  2  2  0
  5  7  1  0
  6  5  1  0
  9  4  1  0
  9  8  2  0
 10 16  1  0
 10  8  1  0
 11 16  1  0
 12 13  1  0
 12 11  1  0
 14 13  1  0
 14 21  1  0
 14 15  1  0
 16 15  1  0
 17 10  2  0
 18 19  2  0
 19 38  1  0
 20 19  1  0
 20 23  1  0
 21 18  1  0
 21 22  1  0
 22 20  2  0
 23 24  1  0
 24 25  2  0
 26 29  1  0
 26 25  1  0
 27 26  2  0
 28 27  1  0
 28 23  2  0
 29 30  1  0
 30 31  1  0
 31 32  2  0
 33 32  1  0
 33 37  1  0
 34 33  2  0
 35 30  2  0
 35 34  1  0
 36 35  1  0
 38 39  1  0
 39 42  1  0
 39 41  1  0
 40 38  2  0
 43 44  1  0
 43 18  1  0
 45 43  1  0
 46  9  1  0
 47 46  1  0
 48 49  1  0
 48  6  1  0
 50 61  2  0
 51 49  1  0
 51 56  1  0
 52 60  1  0
 52 62  1  0
 53 59  1  0
 53 55  1  0
 54 60  1  0
 55 54  1  0
 56 55  2  0
 57 58  1  0
 57 51  2  0
 58 53  2  0
 59 52  1  0
 60 50  1  0
 62 64  2  0
 63 62  1  0
 65 63  1  0
 66 75  2  0
 66 71  1  0
 67 63  1  0
 67 71  1  0
 68 67  1  0
 69 70  1  0
 69 68  1  0
 70 66  1  0
 71 72  2  0
 72 73  1  0
 74 73  2  0
 75 74  1  0
 76 50  1  0
 76 81  1  0
 76 77  1  0
 77 80  1  1
 77 78  1  0
 79 77  1  0
 81 84  1  0
 82 86  1  0
 82 81  1  0
 83 82  2  0
 86 85  1  0
 88 86  1  0
 88 89  1  0
 88 87  1  0
M  ISO  4   8 100  10 100  48 101  49 101
M  END
>  <TORSDO>  (77) 
F 19

>  <SCORE>  (77) 
-14.380

>  <name>  (77) 
77

>  <ligand_id>  (77) 
77

>  <original_smiles>  (77) 
[H]OC(=C([H])C(=O)N1C([H])([H])C([H])([H])C([H])([H])C([H])(n2nc(-c3c([H])c([H])c(Oc4c([H])c([H])c(F)c([H])c4F)c([H])c3[H])c(C(=O)N([H])[H])c2N([H])[H])C1([H])[H])c1c([H])c([H])c(C([H])([H])[H])c(C([H])([H])Oc2c([H])c([H])c3c(c2[H])C([H])([H])N(C(=O)C([H])(N([H])C(=O)C([H])(N([H])C([H])([H])[H])C([H])([H])[H])C(C([H])([H])[H])(C([H])([H])[H])C([H])([H])[H])C([H])(C(=O)N([H])C2([H])c4c([H])c([H])c([H])c([H])c4C([H])([H])C([H])([H])C2([H])[H])C3([H])[H])c1[H]

>  <smiles>  (77) 
[H]OC(=C([H])C(=O)N1C([H])([H])C([H])([H])C([H])([H])C([H])(n2nc(-c3c([H])c([H])c(Oc4c([H])c([H])c(F)c([H])c4F)c([H])c3[H])c(C(=O)N([H])[H])c2N([H])[H])C1([H])[H])c1c([H])c([H])c(C([H])([H])[H])c(C([H])([H])Oc2c([H])c([H])c3c(c2[H])C([H])([H])N(C(=O)C([H])(N([H])C(=O)C([H])(N([H])C([H])([H])[H])C([H])([H])[H])C(C([H])([H])[H])(C([H])([H])[H])C([H])([H])[H])C([H])(C(=O)N([H])C2([H])c4c([H])c([H])c([H])c([H])c4C([H])([H])C([H])([H])C2([H])[H])C3([H])[H])c1[H]

$$$$
78:0:0
     RDKit          3D

 91 99  0  0  1  0  0  0  0  0999 V2000
  -30.4730  -20.8040   20.6250 C   0  0  0  0  0  3  0  0  0  0  0  0
  -30.7140  -19.3540   20.6450 C   0  0  0  0  0  3  0  0  0  0  0  0
  -28.3340  -20.4710   19.8550 C   0  0  0  0  0  3  0  0  0  0  0  0
  -29.2580  -21.5150   20.2680 C   0  0  0  0  0  0  0  0  0  0  0  0
  -29.7810  -18.2950   20.3100 C   0  0  0  0  0  0  0  0  0  0  0  0
  -28.5680  -18.9980   19.8690 C   0  0  0  0  0  0  0  0  0  0  0  0
  -28.6900  -16.3350   21.6190 C   0  0  0  0  0  1  0  0  0  0  0  0
  -31.0620  -16.7080   21.8890 C   0  0  0  0  0  1  0  0  0  0  0  0
  -29.9580  -16.6330   20.7990 C   0  0  2  0  0  0  0  0  0  0  0  0
  -30.4720  -15.1690   19.9960 C   0  0  0  0  0  0  0  0  0  0  0  0
  -30.3330  -12.8030   18.9430 C   0  0  0  0  0  2  0  0  0  0  0  0
  -29.3150  -12.7280   17.7750 C   0  0  0  0  0  2  0  0  0  0  0  0
  -27.8860  -12.4690   18.2900 C   0  0  0  0  0  2  0  0  0  0  0  0
  -27.5560  -13.3460   19.5230 C   0  0  0  0  0  3  0  0  0  0  0  0
  -28.6890  -13.2990   20.5650 C   0  0  0  0  0  2  0  0  0  0  0  0
  -29.8950  -13.8660   19.9230 N   0  0  0  0  0  0  0  0  0  0  0  0
  -31.5840  -15.2050   19.4470 O   0  0  0  0  0  0  0  0  0  0  0  0
  -25.2300  -13.9000   20.4290 C   0  0  0  0  0  0  0  0  0  0  0  0
  -24.1930  -13.1170   20.8530 C   0  0  0  0  0  0  0  0  0  0  0  0
  -24.6510  -11.7670   20.7540 C   0  0  0  0  0  0  0  0  0  0  0  0
  -26.2540  -13.0290   20.0990 N   0  0  0  0  0  0  0  0  0  0  0  0
  -25.9180  -11.7380   20.3570 N   0  0  0  0  0  0  0  0  0  0  0  0
  -23.9310  -10.5030   20.9580 C   0  0  0  0  0  0  0  0  0  0  0  0
  -24.3970   -9.5250   21.8650 C   0  0  0  0  0  3  0  0  0  0  0  0
  -23.6750   -8.3270   22.0580 C   0  0  0  0  0  3  0  0  0  0  0  0
  -22.4730   -8.0990   21.3470 C   0  0  0  0  0  0  0  0  0  0  0  0
  -22.0260   -9.0650   20.4290 C   0  0  0  0  0  3  0  0  0  0  0  0
  -22.7490  -10.2550   20.2320 C   0  0  0  0  0  3  0  0  0  0  0  0
  -21.7200   -6.9540   21.4500 O   0  0  0  0  0  0  0  0  0  0  0  0
  -21.6810   -6.2230   22.6100 C   0  0  0  0  0  0  0  0  0  0  0  0
  -21.2770   -6.7910   23.8370 C   0  0  0  0  0  3  0  0  0  0  0  0
  -21.1830   -5.9860   24.9900 C   0  0  0  0  0  3  0  0  0  0  0  0
  -21.4840   -4.6120   24.9170 C   0  0  0  0  0  0  0  0  0  0  0  0
  -21.8830   -4.0440   23.6950 C   0  0  0  0  0  3  0  0  0  0  0  0
  -21.9770   -4.8450   22.5440 C   0  0  0  0  0  0  0  0  0  0  0  0
  -22.3410   -4.2880   21.3640 F   0  0  0  0  0  0  0  0  0  0  0  0
  -21.3890   -3.8370   26.0220 F   0  0  0  0  0  0  0  0  0  0  0  0
  -22.8190  -13.5910   21.2290 C   0  0  0  0  0  0  0  0  0  0  0  0
  -22.1500  -12.8790   22.1290 N   0  0  0  0  0  0  0  0  0  0  0  0
  -22.3510  -14.6290   20.7630 O   0  0  0  0  0  0  0  0  0  0  0  0
  -22.5430  -12.0390   22.5290 H   0  0  0  0  0  0  0  0  0  0  0  0
  -21.2320  -13.1780   22.4240 H   0  0  0  0  0  0  0  0  0  0  0  0
  -25.3720  -15.2750   20.2720 N   0  0  0  0  0  0  0  0  0  0  0  0
  -24.6130  -15.9180   20.4670 H   0  0  0  0  0  0  0  0  0  0  0  0
  -26.2000  -15.7410   19.9180 H   0  0  0  0  0  0  0  0  0  0  0  0
  -29.1780  -23.2060   20.3730 C   0  0  0  0  0  0  0  0  0  0  0  0
  -30.2440  -23.7280   20.7190 O   0  0  0  0  0  0  0  0  0  0  0  0
  -27.9860  -24.4010   20.1280 C   0  0  0  0  0  2  0  0  0  0  0  0
  -28.2380  -25.9880   20.3080 O   0  0  0  0  0  0  0  0  0  0  0  0
  -24.6250  -31.8520   23.2260 C   0  0  0  0  0  0  0  0  0  0  0  0
  -27.2020  -27.0310   20.2380 C   0  0  0  0  0  0  0  0  0  0  0  0
  -23.4320  -30.4470   21.5900 C   0  0  0  0  0  3  0  0  0  0  0  0
  -24.8860  -28.8470   20.1810 C   0  0  0  0  0  0  0  0  0  0  0  0
  -25.9940  -30.6830   21.4410 C   0  0  0  0  0  2  0  0  0  0  0  0
  -26.0690  -29.2770   20.7950 C   0  0  0  0  0  0  0  0  0  0  0  0
  -27.2240  -28.3880   20.7990 C   0  0  0  0  0  3  0  0  0  0  0  0
  -25.9880  -26.7270   19.5820 C   0  0  0  0  0  3  0  0  0  0  0  0
  -24.8660  -27.5900   19.5560 C   0  0  0  0  0  3  0  0  0  0  0  0
  -23.6620  -29.7570   20.2190 C   0  0  0  0  0  2  0  0  0  0  0  0
  -24.7050  -31.0190   22.1400 N   0  0  0  0  0  0  0  0  0  0  0  0
  -23.5360  -32.1430   23.7450 O   0  0  0  0  0  0  0  0  0  0  0  0
  -22.7420  -29.4530   22.5590 C   0  0  0  0  0  0  0  0  0  0  0  0
  -21.4120  -29.2940   22.4370 N   0  0  0  0  0  0  0  0  0  0  0  0
  -23.4070  -28.8270   23.3870 O   0  0  0  0  0  0  0  0  0  0  0  0
  -20.9280  -29.8490   21.7440 H   0  0  0  0  0  0  0  0  0  0  0  0
  -18.0230  -28.1090   22.9550 C   0  0  0  0  0  0  0  0  0  0  0  0
  -20.5840  -28.3620   23.2120 C   0  0  0  0  0  3  0  0  0  0  0  0
  -20.6770  -26.9280   22.6400 C   0  0  0  0  0  2  0  0  0  0  0  0
  -19.5700  -26.6090   21.6290 C   0  0  0  0  0  2  0  0  0  0  0  0
  -18.1910  -26.7600   22.2770 C   0  0  0  0  0  2  0  0  0  0  0  0
  -19.1460  -28.8690   23.3790 C   0  0  0  0  0  0  0  0  0  0  0  0
  -18.9330  -30.1310   23.9750 C   0  0  0  0  0  3  0  0  0  0  0  0
  -17.6300  -30.6340   24.1500 C   0  0  0  0  0  3  0  0  0  0  0  0
  -16.5210  -29.8730   23.7390 C   0  0  0  0  0  3  0  0  0  0  0  0
  -16.7190  -28.6130   23.1480 C   0  0  0  0  0  3  0  0  0  0  0  0
  -25.8980  -32.4950   23.8570 C   0  0  0  0  0  3  0  0  0  0  0  0
  -26.4060  -31.7310   25.1410 C   0  0  1  0  0  0  0  0  0  0  0  0
  -25.3060  -31.4980   26.2040 C   0  0  0  0  0  1  0  0  0  0  0  0
  -26.9910  -30.3500   24.7660 C   0  0  0  0  0  1  0  0  0  0  0  0
  -27.5520  -32.5280   25.8060 C   0  0  0  0  0  1  0  0  0  0  0  0
  -25.5780  -33.8930   24.1910 N   0  0  0  0  0  0  0  0  0  0  0  0
  -25.8970  -34.9540   23.4360 C   0  0  0  0  0  0  0  0  0  0  0  0
  -26.5540  -34.8580   22.3970 O   0  0  0  0  0  0  0  0  0  0  0  0
  -24.9920  -34.0400   24.9990 H   0  0  0  0  0  0  0  0  0  0  0  0
  -24.1470  -36.7390   23.1310 C   0  0  0  0  0  1  0  0  0  0  0  0
  -25.4120  -36.3400   23.9070 C   0  0  0  0  0  3  0  0  0  0  0  0
  -27.5610  -37.2440   24.6830 C   0  0  0  0  0  1  0  0  0  0  0  0
  -26.4340  -37.4010   23.7680 N   0  0  0  0  0  0  0  0  0  0  0  0
  -26.0250  -38.3180   23.9250 H   0  0  0  0  0  0  0  0  0  0  0  0
  -27.5220  -18.2290   19.4500 O   0  0  0  0  0  0  0  0  0  0  0  0
  -26.7630  -18.7400   19.1920 H   0  0  0  0  0  0  0  0  0  0  0  0
  1  2  1  0
  3  6  2  0
  3  4  1  0
  4 46  1  0
  4  1  2  0
  5  2  2  0
  5  9  1  0
  6  5  1  0
  9  7  1  1
  9  8  1  0
 10  9  1  0
 11 16  1  0
 12 13  1  0
 12 11  1  0
 14 13  1  0
 14 21  1  0
 14 15  1  0
 16 10  1  0
 16 15  1  0
 17 10  2  0
 18 19  2  0
 19 38  1  0
 20 19  1  0
 20 23  1  0
 21 22  1  0
 21 18  1  0
 22 20  2  0
 23 24  1  0
 24 25  2  0
 26 29  1  0
 26 25  1  0
 27 26  2  0
 28 27  1  0
 28 23  2  0
 29 30  1  0
 30 31  1  0
 31 32  2  0
 33 32  1  0
 33 37  1  0
 34 33  2  0
 35 30  2  0
 35 34  1  0
 36 35  1  0
 38 39  1  0
 39 42  1  0
 39 41  1  0
 40 38  2  0
 43 18  1  0
 43 44  1  0
 45 43  1  0
 46 47  2  0
 48 49  1  0
 48 46  1  0
 50 61  2  0
 51 49  1  0
 51 56  1  0
 52 60  1  0
 52 62  1  0
 53 59  1  0
 53 55  1  0
 54 60  1  0
 55 56  2  0
 55 54  1  0
 57 51  2  0
 58 57  1  0
 58 53  2  0
 59 52  1  0
 60 50  1  0
 62 64  2  0
 63 62  1  0
 65 63  1  0
 66 75  2  0
 66 71  1  0
 67 63  1  0
 67 71  1  0
 68 67  1  0
 69 70  1  0
 69 68  1  0
 70 66  1  0
 71 72  2  0
 72 73  1  0
 74 73  2  0
 75 74  1  0
 76 50  1  0
 76 81  1  0
 76 77  1  0
 77 80  1  1
 77 78  1  0
 79 77  1  0
 81 84  1  0
 82 86  1  0
 82 81  1  0
 83 82  2  0
 86 85  1  0
 88 86  1  0
 88 89  1  0
 88 87  1  0
 90  6  1  0
 91 90  1  0
M  ISO  4   9 100  10 100  48 101  49 101
M  END
>  <TORSDO>  (78) 
F 20

>  <SCORE>  (78) 
-15.237

>  <name>  (78) 
78

>  <ligand_id>  (78) 
78

>  <original_smiles>  (78) 
[H]Oc1c([H])c(C(=O)C([H])([H])Oc2c([H])c([H])c3c(c2[H])C([H])([H])N(C(=O)C([H])(N([H])C(=O)C([H])(N([H])C([H])([H])[H])C([H])([H])[H])C(C([H])([H])[H])(C([H])([H])[H])C([H])([H])[H])C([H])(C(=O)N([H])C2([H])c4c([H])c([H])c([H])c([H])c4C([H])([H])C([H])([H])C2([H])[H])C3([H])[H])c([H])c([H])c1C(C(=O)N1C([H])([H])C([H])([H])C([H])([H])C([H])(n2nc(-c3c([H])c([H])c(Oc4c([H])c([H])c(F)c([H])c4F)c([H])c3[H])c(C(=O)N([H])[H])c2N([H])[H])C1([H])[H])(C([H])([H])[H])C([H])([H])[H]

>  <smiles>  (78) 
[H]Oc1c([H])c(C(=O)C([H])([H])Oc2c([H])c([H])c3c(c2[H])C([H])([H])N(C(=O)C([H])(N([H])C(=O)C([H])(N([H])C([H])([H])[H])C([H])([H])[H])C(C([H])([H])[H])(C([H])([H])[H])C([H])([H])[H])C([H])(C(=O)N([H])C2([H])c4c([H])c([H])c([H])c([H])c4C([H])([H])C([H])([H])C2([H])[H])C3([H])[H])c([H])c([H])c1C(C(=O)N1C([H])([H])C([H])([H])C([H])([H])C([H])(n2nc(-c3c([H])c([H])c(Oc4c([H])c([H])c(F)c([H])c4F)c([H])c3[H])c(C(=O)N([H])[H])c2N([H])[H])C1([H])[H])(C([H])([H])[H])C([H])([H])[H]

$$$$
79:0:0
     RDKit          3D

 92100  0  0  1  0  0  0  0  0999 V2000
  -30.1630  -19.4810   21.9760 C   0  0  0  0  0  3  0  0  0  0  0  0
  -30.2180  -20.7590   22.5740 C   0  0  0  0  0  3  0  0  0  0  0  0
  -28.9370  -20.4930   20.1560 C   0  0  0  0  0  3  0  0  0  0  0  0
  -29.5690  -19.2480   20.7180 C   0  0  0  0  0  0  0  0  0  0  0  0
  -28.9300  -21.8670   20.7740 C   0  0  0  0  0  0  0  0  0  0  0  0
  -29.6440  -21.9170   21.9950 C   0  0  0  0  0  0  0  0  0  0  0  0
  -29.7610  -23.1170   22.6920 N   0  0  0  0  0  0  0  0  0  0  0  0
  -30.5030  -23.2100   23.3790 H   0  0  0  0  0  0  0  0  0  0  0  0
  -29.5750  -23.9840   22.1990 H   0  0  0  0  0  0  0  0  0  0  0  0
  -29.9210  -16.4600   20.7260 C   0  0  0  0  0  2  0  0  0  0  0  0
  -29.8390  -17.7600   20.1260 C   0  0  0  0  0  3  0  0  0  0  0  0
  -30.5770  -15.1240   20.2220 C   0  0  0  0  0  0  0  0  0  0  0  0
  -30.4300  -12.7550   19.3050 C   0  0  0  0  0  2  0  0  0  0  0  0
  -29.5000  -12.7100   18.0700 C   0  0  0  0  0  2  0  0  0  0  0  0
  -28.0440  -12.4820   18.5100 C   0  0  0  0  0  2  0  0  0  0  0  0
  -27.6380  -13.4020   19.6910 C   0  0  0  0  0  3  0  0  0  0  0  0
  -28.6970  -13.4470   20.8140 C   0  0  0  0  0  2  0  0  0  0  0  0
  -29.9670  -13.8610   20.2080 N   0  0  0  0  0  0  0  0  0  0  0  0
  -31.7400  -15.1280   19.7990 O   0  0  0  0  0  0  0  0  0  0  0  0
  -25.2600  -13.9440   20.4570 C   0  0  0  0  0  0  0  0  0  0  0  0
  -24.2080  -13.1550   20.8340 C   0  0  0  0  0  0  0  0  0  0  0  0
  -24.6920  -11.8110   20.8000 C   0  0  0  0  0  0  0  0  0  0  0  0
  -26.3110  -13.0810   20.2010 N   0  0  0  0  0  0  0  0  0  0  0  0
  -25.9800  -11.7920   20.4770 N   0  0  0  0  0  0  0  0  0  0  0  0
  -23.9830  -10.5390   20.9960 C   0  0  0  0  0  0  0  0  0  0  0  0
  -24.4290   -9.5790   21.9310 C   0  0  0  0  0  3  0  0  0  0  0  0
  -23.7150   -8.3760   22.1170 C   0  0  0  0  0  3  0  0  0  0  0  0
  -22.5420   -8.1230   21.3670 C   0  0  0  0  0  0  0  0  0  0  0  0
  -22.1150   -9.0710   20.4210 C   0  0  0  0  0  3  0  0  0  0  0  0
  -22.8290  -10.2650   20.2340 C   0  0  0  0  0  3  0  0  0  0  0  0
  -21.7990   -6.9710   21.4610 O   0  0  0  0  0  0  0  0  0  0  0  0
  -21.7580   -6.2340   22.6180 C   0  0  0  0  0  0  0  0  0  0  0  0
  -21.3190   -6.7890   23.8410 C   0  0  0  0  0  3  0  0  0  0  0  0
  -21.2260   -5.9760   24.9880 C   0  0  0  0  0  3  0  0  0  0  0  0
  -21.5630   -4.6120   24.9150 C   0  0  0  0  0  0  0  0  0  0  0  0
  -21.9950   -4.0570   23.6970 C   0  0  0  0  0  3  0  0  0  0  0  0
  -22.0890   -4.8650   22.5520 C   0  0  0  0  0  0  0  0  0  0  0  0
  -22.4870   -4.3210   21.3770 F   0  0  0  0  0  0  0  0  0  0  0  0
  -21.4670   -3.8290   26.0150 F   0  0  0  0  0  0  0  0  0  0  0  0
  -22.8080  -13.6170   21.1170 C   0  0  0  0  0  0  0  0  0  0  0  0
  -22.0940  -12.9130   21.9870 N   0  0  0  0  0  0  0  0  0  0  0  0
  -22.3580  -14.6390   20.6020 O   0  0  0  0  0  0  0  0  0  0  0  0
  -22.4720  -12.0890   22.4300 H   0  0  0  0  0  0  0  0  0  0  0  0
  -21.1570  -13.2100   22.2210 H   0  0  0  0  0  0  0  0  0  0  0  0
  -25.4040  -15.3180   20.2850 N   0  0  0  0  0  0  0  0  0  0  0  0
  -24.6300  -15.9610   20.4220 H   0  0  0  0  0  0  0  0  0  0  0  0
  -26.2470  -15.7750   19.9630 H   0  0  0  0  0  0  0  0  0  0  0  0
  -30.1820  -17.8640   18.8340 O   0  0  0  0  0  0  0  0  0  0  0  0
  -30.1750  -18.7850   18.6100 H   0  0  0  0  0  0  0  0  0  0  0  0
  -28.0390  -23.2290   20.3770 C   0  0  0  0  0  2  0  0  0  0  0  0
  -28.4890  -24.7980   19.8760 C   0  0  0  0  0  2  0  0  0  0  0  0
  -28.3040  -26.2590   20.4330 O   0  0  0  0  0  0  0  0  0  0  0  0
  -24.6210  -31.9620   23.2570 C   0  0  0  0  0  0  0  0  0  0  0  0
  -27.2320  -27.2170   20.2730 C   0  0  0  0  0  0  0  0  0  0  0  0
  -23.4350  -30.5440   21.6230 C   0  0  0  0  0  3  0  0  0  0  0  0
  -24.8950  -28.9600   20.2090 C   0  0  0  0  0  0  0  0  0  0  0  0
  -25.9860  -30.8170   21.4670 C   0  0  0  0  0  2  0  0  0  0  0  0
  -26.0660  -29.4170   20.8240 C   0  0  0  0  0  0  0  0  0  0  0  0
  -27.2280  -28.5580   20.8410 C   0  0  0  0  0  3  0  0  0  0  0  0
  -26.0390  -26.8610   19.6100 C   0  0  0  0  0  3  0  0  0  0  0  0
  -24.8960  -27.6980   19.5850 C   0  0  0  0  0  3  0  0  0  0  0  0
  -23.6620  -29.8530   20.2500 C   0  0  0  0  0  2  0  0  0  0  0  0
  -24.7010  -31.1320   22.1700 N   0  0  0  0  0  0  0  0  0  0  0  0
  -23.5320  -32.2460   23.7800 O   0  0  0  0  0  0  0  0  0  0  0  0
  -22.7580  -29.5450   22.5940 C   0  0  0  0  0  0  0  0  0  0  0  0
  -21.4310  -29.3640   22.4650 N   0  0  0  0  0  0  0  0  0  0  0  0
  -23.4300  -28.9340   23.4280 O   0  0  0  0  0  0  0  0  0  0  0  0
  -20.9450  -29.9110   21.7680 H   0  0  0  0  0  0  0  0  0  0  0  0
  -18.0590  -28.1430   22.9640 C   0  0  0  0  0  0  0  0  0  0  0  0
  -20.6130  -28.4290   23.2420 C   0  0  0  0  0  3  0  0  0  0  0  0
  -20.7290  -26.9920   22.6810 C   0  0  0  0  0  2  0  0  0  0  0  0
  -19.6360  -26.6510   21.6640 C   0  0  0  0  0  2  0  0  0  0  0  0
  -18.2490  -26.7890   22.3000 C   0  0  0  0  0  2  0  0  0  0  0  0
  -19.1680  -28.9200   23.3920 C   0  0  0  0  0  0  0  0  0  0  0  0
  -18.9340  -30.1840   23.9750 C   0  0  0  0  0  3  0  0  0  0  0  0
  -17.6230  -30.6720   24.1330 C   0  0  0  0  0  3  0  0  0  0  0  0
  -16.5290  -29.8930   23.7200 C   0  0  0  0  0  3  0  0  0  0  0  0
  -16.7470  -28.6300   23.1430 C   0  0  0  0  0  3  0  0  0  0  0  0
  -25.8940  -32.6110   23.8820 C   0  0  0  0  0  3  0  0  0  0  0  0
  -25.5730  -34.0130   24.2030 N   0  0  0  0  0  0  0  0  0  0  0  0
  -25.9060  -35.0660   23.4460 C   0  0  0  0  0  0  0  0  0  0  0  0
  -26.5790  -34.9620   22.4170 O   0  0  0  0  0  0  0  0  0  0  0  0
  -24.9750  -34.1670   25.0010 H   0  0  0  0  0  0  0  0  0  0  0  0
  -24.1770  -36.8600   23.0840 C   0  0  0  0  0  1  0  0  0  0  0  0
  -25.4160  -36.4560   23.8990 C   0  0  0  0  0  3  0  0  0  0  0  0
  -27.5430  -37.3530   24.7400 C   0  0  0  0  0  1  0  0  0  0  0  0
  -26.4460  -37.5120   23.7880 N   0  0  0  0  0  0  0  0  0  0  0  0
  -26.0360  -38.4300   23.9280 H   0  0  0  0  0  0  0  0  0  0  0  0
  -26.4040  -31.8590   25.1750 C   0  0  1  0  0  0  0  0  0  0  0  0
  -25.3040  -31.6290   26.2360 C   0  0  0  0  0  1  0  0  0  0  0  0
  -26.9980  -30.4790   24.8080 C   0  0  0  0  0  1  0  0  0  0  0  0
  -27.5430  -32.6700   25.8380 C   0  0  0  0  0  1  0  0  0  0  0  0
  1  2  1  0
  3  4  1  0
  3  5  2  0
  4  1  2  0
  5  6  1  0
  6  2  2  0
  6  7  1  0
  7  8  1  0
  9  7  1  0
 11  4  1  0
 11 10  1  0
 12 10  1  0
 13 18  1  0
 14 15  1  0
 14 13  1  0
 16 15  1  0
 16 23  1  0
 16 17  1  0
 18 12  1  0
 18 17  1  0
 19 12  2  0
 20 21  2  0
 21 40  1  0
 22 21  1  0
 22 25  1  0
 23 20  1  0
 23 24  1  0
 24 22  2  0
 25 26  1  0
 26 27  2  0
 28 31  1  0
 28 27  1  0
 29 28  2  0
 30 29  1  0
 30 25  2  0
 31 32  1  0
 32 33  1  0
 33 34  2  0
 35 34  1  0
 35 39  1  0
 36 35  2  0
 37 32  2  0
 37 36  1  0
 38 37  1  0
 40 41  1  0
 41 44  1  0
 41 43  1  0
 42 40  2  0
 45 46  1  0
 45 20  1  0
 47 45  1  0
 48 11  1  0
 49 48  1  0
 50  5  1  0
 51 50  1  0
 51 52  1  0
 53 64  2  0
 54 52  1  0
 54 59  1  0
 55 63  1  0
 55 65  1  0
 56 62  1  0
 56 58  1  0
 57 63  1  0
 58 59  2  0
 58 57  1  0
 60 54  2  0
 61 60  1  0
 61 56  2  0
 62 55  1  0
 63 53  1  0
 65 67  2  0
 66 65  1  0
 68 66  1  0
 69 78  2  0
 69 74  1  0
 70 66  1  0
 70 74  1  0
 71 70  1  0
 72 73  1  0
 72 71  1  0
 73 69  1  0
 74 75  2  0
 75 76  1  0
 77 76  2  0
 78 77  1  0
 79 53  1  0
 79 80  1  0
 79 89  1  0
 80 83  1  0
 81 85  1  0
 81 80  1  0
 82 81  2  0
 85 84  1  0
 87 85  1  0
 87 88  1  0
 87 86  1  0
 89 92  1  1
 89 90  1  0
 91 89  1  0
M  ISO  4  10 100  12 100  51 101  52 101
M  END
>  <TORSDO>  (79) 
F 21

>  <SCORE>  (79) 
-14.438

>  <name>  (79) 
79

>  <ligand_id>  (79) 
79

>  <original_smiles>  (79) 
[H]OC(=C([H])C(=O)N1C([H])([H])C([H])([H])C([H])([H])C([H])(n2nc(-c3c([H])c([H])c(Oc4c([H])c([H])c(F)c([H])c4F)c([H])c3[H])c(C(=O)N([H])[H])c2N([H])[H])C1([H])[H])c1c([H])c([H])c(N([H])[H])c(C([H])([H])C([H])([H])Oc2c([H])c([H])c3c(c2[H])C([H])([H])N(C(=O)C([H])(N([H])C(=O)C([H])(N([H])C([H])([H])[H])C([H])([H])[H])C(C([H])([H])[H])(C([H])([H])[H])C([H])([H])[H])C([H])(C(=O)N([H])C2([H])c4c([H])c([H])c([H])c([H])c4C([H])([H])C([H])([H])C2([H])[H])C3([H])[H])c1[H]

>  <smiles>  (79) 
[H]OC(=C([H])C(=O)N1C([H])([H])C([H])([H])C([H])([H])C([H])(n2nc(-c3c([H])c([H])c(Oc4c([H])c([H])c(F)c([H])c4F)c([H])c3[H])c(C(=O)N([H])[H])c2N([H])[H])C1([H])[H])c1c([H])c([H])c(N([H])[H])c(C([H])([H])C([H])([H])Oc2c([H])c([H])c3c(c2[H])C([H])([H])N(C(=O)C([H])(N([H])C(=O)C([H])(N([H])C([H])([H])[H])C([H])([H])[H])C(C([H])([H])[H])(C([H])([H])[H])C([H])([H])[H])C([H])(C(=O)N([H])C2([H])c4c([H])c([H])c([H])c([H])c4C([H])([H])C([H])([H])C2([H])[H])C3([H])[H])c1[H]

$$$$
80:0:0
     RDKit          3D

 88 96  0  0  1  0  0  0  0  0999 V2000
  -30.2380  -18.3260   18.9270 C   0  0  0  0  0  3  0  0  0  0  0  0
  -29.9040  -19.7990   18.8390 C   0  0  0  0  0  3  0  0  0  0  0  0
  -30.4650  -17.4420   20.0900 C   0  0  0  0  0  0  0  0  0  0  0  0
  -29.7340  -20.8120   19.8990 C   0  0  0  0  0  0  0  0  0  0  0  0
  -30.2940  -18.4440   21.1820 C   0  0  0  0  0  0  0  0  0  0  0  0
  -29.9920  -19.9470   21.0840 C   0  0  0  0  0  0  0  0  0  0  0  0
  -30.5160  -17.9040   22.5850 C   0  0  0  0  0  1  0  0  0  0  0  0
  -31.0690  -15.7950   20.0450 C   0  0  0  0  0  0  0  0  0  0  0  0
  -31.0760  -13.2690   19.2790 C   0  0  0  0  0  2  0  0  0  0  0  0
  -30.1700  -12.9390   18.0610 C   0  0  0  0  0  2  0  0  0  0  0  0
  -28.7370  -12.6250   18.5160 C   0  0  0  0  0  2  0  0  0  0  0  0
  -28.2590  -13.6210   19.5980 C   0  0  0  0  0  3  0  0  0  0  0  0
  -29.3020  -13.8850   20.7030 C   0  0  0  0  0  2  0  0  0  0  0  0
  -30.5060  -14.4550   20.0580 N   0  0  0  0  0  0  0  0  0  0  0  0
  -32.2840  -15.6830   19.8010 O   0  0  0  0  0  0  0  0  0  0  0  0
  -25.9300  -14.1610   20.4570 C   0  0  0  0  0  0  0  0  0  0  0  0
  -24.8680  -13.3830   20.8220 C   0  0  0  0  0  0  0  0  0  0  0  0
  -25.3150  -12.0290   20.7220 C   0  0  0  0  0  0  0  0  0  0  0  0
  -26.9510  -13.2850   20.1400 N   0  0  0  0  0  0  0  0  0  0  0  0
  -26.5980  -11.9920   20.3690 N   0  0  0  0  0  0  0  0  0  0  0  0
  -24.5740  -10.7710   20.8790 C   0  0  0  0  0  0  0  0  0  0  0  0
  -24.9300   -9.8180   21.8580 C   0  0  0  0  0  3  0  0  0  0  0  0
  -24.1840   -8.6270   22.0060 C   0  0  0  0  0  3  0  0  0  0  0  0
  -23.0670   -8.3820   21.1710 C   0  0  0  0  0  0  0  0  0  0  0  0
  -22.7300   -9.3240   20.1830 C   0  0  0  0  0  3  0  0  0  0  0  0
  -23.4770  -10.5040   20.0350 C   0  0  0  0  0  3  0  0  0  0  0  0
  -22.3010   -7.2420   21.2240 O   0  0  0  0  0  0  0  0  0  0  0  0
  -22.0140   -6.6210   22.4120 C   0  0  0  0  0  0  0  0  0  0  0  0
  -21.3400   -7.2890   23.4590 C   0  0  0  0  0  3  0  0  0  0  0  0
  -21.0040   -6.5920   24.6370 C   0  0  0  0  0  3  0  0  0  0  0  0
  -21.3310   -5.2290   24.7680 C   0  0  0  0  0  0  0  0  0  0  0  0
  -21.9960   -4.5620   23.7240 C   0  0  0  0  0  3  0  0  0  0  0  0
  -22.3340   -5.2550   22.5490 C   0  0  0  0  0  0  0  0  0  0  0  0
  -22.9560   -4.6010   21.5390 F   0  0  0  0  0  0  0  0  0  0  0  0
  -21.0020   -4.5580   25.8970 F   0  0  0  0  0  0  0  0  0  0  0  0
  -23.4870  -13.8700   21.1460 C   0  0  0  0  0  0  0  0  0  0  0  0
  -22.7750  -13.1600   22.0130 N   0  0  0  0  0  0  0  0  0  0  0  0
  -23.0510  -14.9150   20.6660 O   0  0  0  0  0  0  0  0  0  0  0  0
  -23.1420  -12.3140   22.4230 H   0  0  0  0  0  0  0  0  0  0  0  0
  -21.8480  -13.4690   22.2720 H   0  0  0  0  0  0  0  0  0  0  0  0
  -26.1090  -15.5360   20.3360 N   0  0  0  0  0  0  0  0  0  0  0  0
  -25.3580  -16.1970   20.5040 H   0  0  0  0  0  0  0  0  0  0  0  0
  -26.9620  -15.9810   20.0170 H   0  0  0  0  0  0  0  0  0  0  0  0
  -31.2760  -21.2400   22.5490 C   0  0  0  0  0  1  0  0  0  0  0  0
  -30.0140  -20.6470   22.2630 O   0  0  0  0  0  0  0  0  0  0  0  0
  -29.6840  -22.6410   19.7370 C   0  0  0  0  0  3  0  0  0  0  0  0
  -28.5650  -24.1610   19.6550 C   0  0  0  0  0  3  0  0  0  0  0  0
  -28.7260  -25.8720   19.7790 O   0  0  0  0  0  0  0  0  0  0  0  0
  -25.0450  -31.6610   23.2330 C   0  0  0  0  0  0  0  0  0  0  0  0
  -27.7110  -27.0180   19.8120 C   0  0  0  0  0  0  0  0  0  0  0  0
  -23.8950  -30.3960   21.4650 C   0  0  0  0  0  3  0  0  0  0  0  0
  -25.3870  -28.9360   19.9140 C   0  0  0  0  0  0  0  0  0  0  0  0
  -26.4650  -30.6340   21.3700 C   0  0  0  0  0  2  0  0  0  0  0  0
  -26.5670  -29.2800   20.5850 C   0  0  0  0  0  0  0  0  0  0  0  0
  -27.7170  -28.3480   20.5050 C   0  0  0  0  0  3  0  0  0  0  0  0
  -26.4960  -26.8640   19.1020 C   0  0  0  0  0  3  0  0  0  0  0  0
  -25.3850  -27.7550   19.1520 C   0  0  0  0  0  3  0  0  0  0  0  0
  -24.1540  -29.8410   20.0350 C   0  0  0  0  0  2  0  0  0  0  0  0
  -25.1570  -30.9230   22.0790 N   0  0  0  0  0  0  0  0  0  0  0  0
  -23.9440  -31.8850   23.7650 O   0  0  0  0  0  0  0  0  0  0  0  0
  -23.2050  -29.3110   22.3330 C   0  0  0  0  0  0  0  0  0  0  0  0
  -21.8760  -29.1420   22.1880 N   0  0  0  0  0  0  0  0  0  0  0  0
  -23.8730  -28.6220   23.1070 O   0  0  0  0  0  0  0  0  0  0  0  0
  -21.3860  -29.7520   21.5470 H   0  0  0  0  0  0  0  0  0  0  0  0
  -18.5120  -27.8280   22.5690 C   0  0  0  0  0  0  0  0  0  0  0  0
  -21.0660  -28.1220   22.8640 C   0  0  0  0  0  3  0  0  0  0  0  0
  -21.1970  -26.7510   22.1590 C   0  0  0  0  0  2  0  0  0  0  0  0
  -20.1050  -26.5040   21.1150 C   0  0  0  0  0  2  0  0  0  0  0  0
  -18.7200  -26.5560   21.7640 C   0  0  0  0  0  2  0  0  0  0  0  0
  -19.6130  -28.5720   23.0720 C   0  0  0  0  0  0  0  0  0  0  0  0
  -19.3640  -29.7620   23.7880 C   0  0  0  0  0  3  0  0  0  0  0  0
  -18.0480  -30.2100   24.0060 C   0  0  0  0  0  3  0  0  0  0  0  0
  -16.9610  -29.4630   23.5170 C   0  0  0  0  0  3  0  0  0  0  0  0
  -17.1940  -28.2740   22.8040 C   0  0  0  0  0  3  0  0  0  0  0  0
  -26.2940  -32.2730   23.9370 C   0  0  0  0  0  3  0  0  0  0  0  0
  -26.7760  -31.4300   25.1830 C   0  0  1  0  0  0  0  0  0  0  0  0
  -25.6550  -31.1320   26.2070 C   0  0  0  0  0  1  0  0  0  0  0  0
  -27.3720  -30.0750   24.7390 C   0  0  0  0  0  1  0  0  0  0  0  0
  -27.9090  -32.1850   25.9180 C   0  0  0  0  0  1  0  0  0  0  0  0
  -25.9520  -33.6430   24.3630 N   0  0  0  0  0  0  0  0  0  0  0  0
  -26.2550  -34.7600   23.6870 C   0  0  0  0  0  0  0  0  0  0  0  0
  -26.9120  -34.7460   22.6420 O   0  0  0  0  0  0  0  0  0  0  0  0
  -25.3650  -33.7260   25.1800 H   0  0  0  0  0  0  0  0  0  0  0  0
  -24.4800  -36.5410   23.5150 C   0  0  0  0  0  1  0  0  0  0  0  0
  -25.7550  -36.1060   24.2550 C   0  0  0  0  0  3  0  0  0  0  0  0
  -27.8910  -36.9910   25.0850 C   0  0  0  0  0  1  0  0  0  0  0  0
  -26.7610  -37.1900   24.1820 N   0  0  0  0  0  0  0  0  0  0  0  0
  -26.3380  -38.0870   24.3980 H   0  0  0  0  0  0  0  0  0  0  0  0
  1  3  1  0
  2  1  2  0
  2  4  1  0
  3  5  2  0
  4  6  2  0
  5  7  1  0
  6  5  1  0
  6 45  1  0
  8 14  1  0
  8  3  1  0
  9 14  1  0
 10 11  1  0
 10  9  1  0
 12 11  1  0
 12 19  1  0
 12 13  1  0
 14 13  1  0
 15  8  2  0
 16 17  2  0
 17 36  1  0
 18 17  1  0
 18 21  1  0
 19 20  1  0
 19 16  1  0
 20 18  2  0
 21 22  1  0
 22 23  2  0
 24 27  1  0
 24 23  1  0
 25 24  2  0
 26 25  1  0
 26 21  2  0
 27 28  1  0
 28 33  2  0
 28 29  1  0
 29 30  2  0
 30 31  1  0
 31 35  1  0
 32 31  2  0
 33 32  1  0
 34 33  1  0
 36 37  1  0
 37 40  1  0
 37 39  1  0
 38 36  2  0
 41 16  1  0
 41 42  1  0
 43 41  1  0
 45 44  1  0
 46  4  1  0
 47 46  2  0
 47 48  1  0
 48 50  1  0
 49 60  2  0
 50 55  1  0
 51 59  1  0
 51 61  1  0
 52 58  1  0
 52 54  1  0
 53 59  1  0
 54 53  1  0
 55 54  2  0
 56 57  1  0
 56 50  2  0
 57 52  2  0
 58 51  1  0
 59 49  1  0
 61 63  2  0
 62 61  1  0
 64 62  1  0
 65 74  2  0
 65 70  1  0
 66 62  1  0
 66 70  1  0
 67 66  1  0
 68 69  1  0
 68 67  1  0
 69 65  1  0
 70 71  2  0
 71 72  1  0
 73 72  2  0
 74 73  1  0
 75 49  1  0
 75 80  1  0
 75 76  1  0
 76 79  1  1
 76 77  1  0
 78 76  1  0
 80 83  1  0
 81 85  1  0
 81 80  1  0
 82 81  2  0
 85 84  1  0
 87 85  1  0
 87 88  1  0
 87 86  1  0
M  ISO  4   3 100   8 100  47 101  48 101
M  END
>  <TORSDO>  (80) 
F 19

>  <SCORE>  (80) 
-13.982

>  <name>  (80) 
80

>  <ligand_id>  (80) 
80

>  <original_smiles>  (80) 
[H]c1c([H])c([H])c2c(c1[H])C([H])([H])C([H])([H])C([H])([H])C2([H])N([H])C(=O)C1([H])N(C(=O)C([H])(N([H])C(=O)C([H])(N([H])C([H])([H])[H])C([H])([H])[H])C(C([H])([H])[H])(C([H])([H])[H])C([H])([H])[H])C([H])([H])c2c([H])c(OC([H])([H])C([H])([H])c3c([H])c([H])c(C(=O)N4C([H])([H])C([H])([H])C([H])([H])C([H])(n5nc(-c6c([H])c([H])c(Oc7c([H])c([H])c(F)c([H])c7F)c([H])c6[H])c(C(=O)N([H])[H])c5N([H])[H])C4([H])[H])c(C([H])([H])[H])c3OC([H])([H])[H])c([H])c([H])c2C1([H])[H]

>  <smiles>  (80) 
[H]c1c([H])c([H])c2c(c1[H])C([H])([H])C([H])([H])C([H])([H])C2([H])N([H])C(=O)C1([H])N(C(=O)C([H])(N([H])C(=O)C([H])(N([H])C([H])([H])[H])C([H])([H])[H])C(C([H])([H])[H])(C([H])([H])[H])C([H])([H])[H])C([H])([H])c2c([H])c(OC([H])([H])C([H])([H])c3c([H])c([H])c(C(=O)N4C([H])([H])C([H])([H])C([H])([H])C([H])(n5nc(-c6c([H])c([H])c(Oc7c([H])c([H])c(F)c([H])c7F)c([H])c6[H])c(C(=O)N([H])[H])c5N([H])[H])C4([H])[H])c(C([H])([H])[H])c3OC([H])([H])[H])c([H])c([H])c2C1([H])[H]

$$$$
81:0:0
     RDKit          3D

 96104  0  0  1  0  0  0  0  0999 V2000
  -31.6840  -25.8040   21.0940 C   0  0  0  0  0  3  0  0  0  0  0  0
  -32.6060  -24.7770   20.8170 C   0  0  0  0  0  3  0  0  0  0  0  0
  -30.2290  -24.9340   19.3480 C   0  0  0  0  0  3  0  0  0  0  0  0
  -30.4850  -25.8870   20.3600 C   0  0  0  0  0  0  0  0  0  0  0  0
  -31.1290  -23.8780   19.0710 C   0  0  0  0  0  0  0  0  0  0  0  0
  -32.3340  -23.8230   19.8150 C   0  0  0  0  0  0  0  0  0  0  0  0
  -33.2400  -22.8440   19.5750 F   0  0  0  0  0  0  0  0  0  0  0  0
  -31.6540  -23.2650   16.7070 C   0  0  0  0  0  1  0  0  0  0  0  0
  -29.3390  -22.8470   17.5160 C   0  0  0  0  0  1  0  0  0  0  0  0
  -30.8310  -22.8590   17.9480 C   0  0  2  0  0  0  0  0  0  0  0  0
  -31.2480  -21.4940   18.3580 N   0  0  0  0  0  4  0  0  0  0  0  0
  -31.2810  -20.9160   17.5330 H   0  0  0  0  0  0  0  0  0  0  0  0
  -32.1930  -21.5830   18.7090 H   0  0  0  0  0  0  0  0  0  0  0  0
  -30.4450  -20.7780   19.3820 C   0  0  0  0  0  2  0  0  0  0  0  0
  -31.0590  -19.3930   19.6370 C   0  0  0  0  0  2  0  0  0  0  0  0
  -30.2010  -18.4070   20.4640 C   0  0  0  0  0  2  0  0  0  0  0  0
  -30.9010  -17.0370   20.4740 C   0  0  0  0  0  2  0  0  0  0  0  0
  -30.0890  -15.7900   20.9250 C   0  0  0  0  0  2  0  0  0  0  0  0
  -30.7310  -14.4990   20.3720 C   0  0  0  0  0  0  0  0  0  0  0  0
  -30.3640  -12.3670   19.2100 C   0  0  0  0  0  2  0  0  0  0  0  0
  -29.4380  -12.6120   18.0020 C   0  0  0  0  0  2  0  0  0  0  0  0
  -27.9610  -12.4880   18.4260 C   0  0  0  0  0  2  0  0  0  0  0  0
  -27.6280  -13.3180   19.6970 C   0  0  0  0  0  3  0  0  0  0  0  0
  -28.6820  -13.1090   20.8080 C   0  0  0  0  0  2  0  0  0  0  0  0
  -30.0130  -13.3560   20.2380 N   0  0  0  0  0  0  0  0  0  0  0  0
  -31.8770  -14.5890   19.9210 O   0  0  0  0  0  0  0  0  0  0  0  0
  -25.2230  -13.9150   20.3960 C   0  0  0  0  0  0  0  0  0  0  0  0
  -24.1600  -13.1410   20.7730 C   0  0  0  0  0  0  0  0  0  0  0  0
  -24.6290  -11.7920   20.7610 C   0  0  0  0  0  0  0  0  0  0  0  0
  -26.2750  -13.0390   20.1800 N   0  0  0  0  0  0  0  0  0  0  0  0
  -25.9210  -11.7570   20.4580 N   0  0  0  0  0  0  0  0  0  0  0  0
  -23.9100  -10.5280   20.9660 C   0  0  0  0  0  0  0  0  0  0  0  0
  -24.3490   -9.5760   21.9110 C   0  0  0  0  0  3  0  0  0  0  0  0
  -23.6350   -8.3750   22.1040 C   0  0  0  0  0  3  0  0  0  0  0  0
  -22.4630   -8.1190   21.3530 C   0  0  0  0  0  0  0  0  0  0  0  0
  -22.0420   -9.0590   20.3970 C   0  0  0  0  0  3  0  0  0  0  0  0
  -22.7570  -10.2520   20.2020 C   0  0  0  0  0  3  0  0  0  0  0  0
  -21.7160   -6.9710   21.4560 O   0  0  0  0  0  0  0  0  0  0  0  0
  -21.6820   -6.2330   22.6120 C   0  0  0  0  0  0  0  0  0  0  0  0
  -21.2620   -6.7900   23.8400 C   0  0  0  0  0  3  0  0  0  0  0  0
  -21.1770   -5.9780   24.9880 C   0  0  0  0  0  3  0  0  0  0  0  0
  -21.5020   -4.6110   24.9100 C   0  0  0  0  0  0  0  0  0  0  0  0
  -21.9110   -4.0510   23.6870 C   0  0  0  0  0  3  0  0  0  0  0  0
  -21.9980   -4.8600   22.5410 C   0  0  0  0  0  0  0  0  0  0  0  0
  -22.3750   -4.3120   21.3600 F   0  0  0  0  0  0  0  0  0  0  0  0
  -21.4110   -3.8290   26.0120 F   0  0  0  0  0  0  0  0  0  0  0  0
  -22.7580  -13.6120   21.0360 C   0  0  0  0  0  0  0  0  0  0  0  0
  -22.0320  -12.9220   21.9090 N   0  0  0  0  0  0  0  0  0  0  0  0
  -22.3150  -14.6280   20.5020 O   0  0  0  0  0  0  0  0  0  0  0  0
  -22.4050  -12.1050   22.3680 H   0  0  0  0  0  0  0  0  0  0  0  0
  -21.0880  -13.2150   22.1180 H   0  0  0  0  0  0  0  0  0  0  0  0
  -25.3760  -15.2840   20.2020 N   0  0  0  0  0  0  0  0  0  0  0  0
  -24.6040  -15.9300   20.3130 H   0  0  0  0  0  0  0  0  0  0  0  0
  -26.2300  -15.7350   19.8960 H   0  0  0  0  0  0  0  0  0  0  0  0
  -29.4690  -26.9890   20.6440 C   0  0  0  0  0  2  0  0  0  0  0  0
  -28.2450  -26.6720   20.0010 O   0  0  0  0  0  0  0  0  0  0  0  0
  -24.5480  -31.8840   23.2440 C   0  0  0  0  0  0  0  0  0  0  0  0
  -27.1410  -27.4770   20.1080 C   0  0  0  0  0  0  0  0  0  0  0  0
  -23.3140  -30.4970   21.6070 C   0  0  0  0  0  3  0  0  0  0  0  0
  -24.7480  -28.9640   20.1620 C   0  0  0  0  0  0  0  0  0  0  0  0
  -25.8360  -30.8540   21.3810 C   0  0  0  0  0  2  0  0  0  0  0  0
  -25.9120  -29.4850   20.7420 C   0  0  0  0  0  0  0  0  0  0  0  0
  -27.1160  -28.7470   20.7250 C   0  0  0  0  0  3  0  0  0  0  0  0
  -25.9630  -26.9640   19.5320 C   0  0  0  0  0  3  0  0  0  0  0  0
  -24.7640  -27.6970   19.5570 C   0  0  0  0  0  3  0  0  0  0  0  0
  -23.5050  -29.8230   20.2220 C   0  0  0  0  0  2  0  0  0  0  0  0
  -24.5840  -31.0920   22.1360 N   0  0  0  0  0  0  0  0  0  0  0  0
  -23.4750  -32.1600   23.7990 O   0  0  0  0  0  0  0  0  0  0  0  0
  -22.6680  -29.4730   22.5690 C   0  0  0  0  0  0  0  0  0  0  0  0
  -21.3470  -29.2770   22.4340 N   0  0  0  0  0  0  0  0  0  0  0  0
  -23.3530  -28.8560   23.3880 O   0  0  0  0  0  0  0  0  0  0  0  0
  -20.8570  -29.8280   21.7430 H   0  0  0  0  0  0  0  0  0  0  0  0
  -17.9850  -28.0330   22.8830 C   0  0  0  0  0  0  0  0  0  0  0  0
  -20.5330  -28.3350   23.2010 C   0  0  0  0  0  3  0  0  0  0  0  0
  -20.6690  -26.8990   22.6470 C   0  0  0  0  0  2  0  0  0  0  0  0
  -19.5920  -26.5440   21.6170 C   0  0  0  0  0  2  0  0  0  0  0  0
  -18.1970  -26.6760   22.2330 C   0  0  0  0  0  2  0  0  0  0  0  0
  -19.0820  -28.8180   23.3230 C   0  0  0  0  0  0  0  0  0  0  0  0
  -18.8340  -30.0880   23.8880 C   0  0  0  0  0  3  0  0  0  0  0  0
  -17.5190  -30.5720   24.0210 C   0  0  0  0  0  3  0  0  0  0  0  0
  -16.4350  -29.7820   23.6010 C   0  0  0  0  0  3  0  0  0  0  0  0
  -16.6690  -28.5140   23.0380 C   0  0  0  0  0  3  0  0  0  0  0  0
  -25.8460  -32.5010   23.8520 C   0  0  0  0  0  3  0  0  0  0  0  0
  -25.5560  -33.9020   24.1840 N   0  0  0  0  0  0  0  0  0  0  0  0
  -25.8980  -34.9490   23.4210 C   0  0  0  0  0  0  0  0  0  0  0  0
  -26.5630  -34.8390   22.3880 O   0  0  0  0  0  0  0  0  0  0  0  0
  -24.9640  -34.0630   24.9840 H   0  0  0  0  0  0  0  0  0  0  0  0
  -24.1900  -36.7610   23.0640 C   0  0  0  0  0  1  0  0  0  0  0  0
  -25.4250  -36.3430   23.8780 C   0  0  0  0  0  3  0  0  0  0  0  0
  -27.5680  -37.1990   24.7150 C   0  0  0  0  0  1  0  0  0  0  0  0
  -26.4700  -37.3840   23.7700 N   0  0  0  0  0  0  0  0  0  0  0  0
  -26.0750  -38.3080   23.9180 H   0  0  0  0  0  0  0  0  0  0  0  0
  -26.3730  -31.7200   25.1170 C   0  0  1  0  0  0  0  0  0  0  0  0
  -25.2890  -31.4890   26.1960 C   0  0  0  0  0  1  0  0  0  0  0  0
  -26.9390  -30.3370   24.7130 C   0  0  0  0  0  1  0  0  0  0  0  0
  -27.5390  -32.5010   25.7680 C   0  0  0  0  0  1  0  0  0  0  0  0
  2  1  1  0
  3  4  1  0
  4 55  1  0
  4  1  2  0
  5  3  2  0
  5  6  1  0
  6  2  2  0
  7  6  1  0
 10  8  1  6
  9 10  1  0
 10 11  1  0
 10  5  1  0
 11 13  1  0
 11 14  1  0
 12 11  1  0
 14 15  1  0
 15 16  1  0
 16 17  1  0
 17 18  1  0
 19 18  1  0
 20 25  1  0
 21 22  1  0
 21 20  1  0
 23 22  1  0
 23 30  1  0
 23 24  1  0
 25 19  1  0
 25 24  1  0
 26 19  2  0
 27 28  2  0
 28 47  1  0
 29 28  1  0
 29 32  1  0
 30 27  1  0
 30 31  1  0
 31 29  2  0
 32 33  1  0
 33 34  2  0
 35 38  1  0
 35 34  1  0
 36 35  2  0
 37 36  1  0
 37 32  2  0
 38 39  1  0
 39 40  1  0
 40 41  2  0
 42 41  1  0
 42 46  1  0
 43 42  2  0
 44 39  2  0
 44 43  1  0
 45 44  1  0
 47 48  1  0
 48 51  1  0
 48 50  1  0
 49 47  2  0
 52 53  1  0
 52 27  1  0
 54 52  1  0
 56 58  1  0
 56 55  1  0
 57 68  2  0
 58 63  1  0
 59 67  1  0
 59 69  1  0
 60 66  1  0
 60 62  1  0
 61 67  1  0
 62 61  1  0
 63 62  2  0
 64 65  1  0
 64 58  2  0
 65 60  2  0
 66 59  1  0
 67 57  1  0
 69 71  2  0
 70 69  1  0
 72 70  1  0
 73 82  2  0
 73 78  1  0
 74 70  1  0
 74 78  1  0
 75 74  1  0
 76 77  1  0
 76 75  1  0
 77 73  1  0
 78 79  2  0
 79 80  1  0
 81 80  2  0
 82 81  1  0
 83 57  1  0
 83 84  1  0
 83 93  1  0
 84 87  1  0
 85 89  1  0
 85 84  1  0
 86 85  2  0
 89 88  1  0
 91 89  1  0
 91 92  1  0
 91 90  1  0
 93 96  1  1
 93 94  1  0
 95 93  1  0
M  ISO  4  18 100  19 100  55 101  56 101
M  END
>  <TORSDO>  (81) 
F 24

>  <SCORE>  (81) 
-11.977

>  <name>  (81) 
81

>  <ligand_id>  (81) 
81

>  <original_smiles>  (81) 
[H]c1c([H])c([H])c2c(c1[H])C([H])([H])C([H])([H])C([H])([H])C2([H])N([H])C(=O)C1([H])N(C(=O)C([H])(N([H])C(=O)C([H])(N([H])C([H])([H])[H])C([H])([H])[H])C(C([H])([H])[H])(C([H])([H])[H])C([H])([H])[H])C([H])([H])c2c([H])c(OC([H])([H])c3c([H])c([H])c(F)c(C(C([H])([H])[H])(C([H])([H])[H])[N+]([H])([H])C([H])([H])C([H])([H])C([H])([H])C([H])([H])C([H])([H])C(=O)N4C([H])([H])C([H])([H])C([H])([H])C([H])(n5nc(-c6c([H])c([H])c(Oc7c([H])c([H])c(F)c([H])c7F)c([H])c6[H])c(C(=O)N([H])[H])c5N([H])[H])C4([H])[H])c3[H])c([H])c([H])c2C1([H])[H]

>  <smiles>  (81) 
[H]c1c([H])c([H])c2c(c1[H])C([H])([H])C([H])([H])C([H])([H])C2([H])N([H])C(=O)C1([H])N(C(=O)C([H])(N([H])C(=O)C([H])(N([H])C([H])([H])[H])C([H])([H])[H])C(C([H])([H])[H])(C([H])([H])[H])C([H])([H])[H])C([H])([H])c2c([H])c(OC([H])([H])c3c([H])c([H])c(F)c(C(C([H])([H])[H])(C([H])([H])[H])[N+]([H])([H])C([H])([H])C([H])([H])C([H])([H])C([H])([H])C([H])([H])C(=O)N4C([H])([H])C([H])([H])C([H])([H])C([H])(n5nc(-c6c([H])c([H])c(Oc7c([H])c([H])c(F)c([H])c7F)c([H])c6[H])c(C(=O)N([H])[H])c5N([H])[H])C4([H])[H])c3[H])c([H])c([H])c2C1([H])[H]

$$$$
82:0:0
     RDKit          3D

 98107  0  0  1  0  0  0  0  0999 V2000
  -28.5130  -21.6800   19.9530 C   0  0  0  0  0  3  0  0  0  0  0  0
  -28.6110  -24.2640   19.7990 C   0  0  0  0  0  3  0  0  0  0  0  0
  -29.1040  -23.1800   21.9260 C   0  0  0  0  0  3  0  0  0  0  0  0
  -29.0850  -25.6180   21.7680 C   0  0  0  0  0  3  0  0  0  0  0  0
  -28.7840  -23.0700   20.5570 C   0  0  0  0  0  0  0  0  0  0  0  0
  -28.7490  -25.5460   20.4020 C   0  0  0  0  0  0  0  0  0  0  0  0
  -29.2550  -24.4450   22.5270 C   0  0  0  0  0  0  0  0  0  0  0  0
  -29.5590  -24.5310   23.8430 F   0  0  0  0  0  0  0  0  0  0  0  0
  -28.6060  -26.7170   19.6780 O   0  0  0  0  0  0  0  0  0  0  0  0
  -24.6160  -31.6320   23.0360 C   0  0  0  0  0  0  0  0  0  0  0  0
  -27.4170  -27.4100   19.7690 C   0  0  0  0  0  0  0  0  0  0  0  0
  -23.4600  -30.2430   21.3500 C   0  0  0  0  0  3  0  0  0  0  0  0
  -24.9640  -28.8190   19.8570 C   0  0  0  0  0  0  0  0  0  0  0  0
  -25.9660  -30.7100   21.1500 C   0  0  0  0  0  2  0  0  0  0  0  0
  -26.1040  -29.3670   20.4560 C   0  0  0  0  0  0  0  0  0  0  0  0
  -27.3370  -28.6710   20.4110 C   0  0  0  0  0  3  0  0  0  0  0  0
  -26.2600  -26.8780   19.1660 C   0  0  0  0  0  3  0  0  0  0  0  0
  -25.0350  -27.5730   19.2090 C   0  0  0  0  0  3  0  0  0  0  0  0
  -23.6870  -29.6270   19.9440 C   0  0  0  0  0  2  0  0  0  0  0  0
  -24.6990  -30.8750   21.9040 N   0  0  0  0  0  0  0  0  0  0  0  0
  -23.5270  -31.8400   23.5910 O   0  0  0  0  0  0  0  0  0  0  0  0
  -22.8570  -29.1600   22.2720 C   0  0  0  0  0  0  0  0  0  0  0  0
  -21.5380  -28.9320   22.1490 N   0  0  0  0  0  0  0  0  0  0  0  0
  -23.5720  -28.5290   23.0540 O   0  0  0  0  0  0  0  0  0  0  0  0
  -21.0160  -29.5080   21.5010 H   0  0  0  0  0  0  0  0  0  0  0  0
  -18.2250  -27.5630   22.5910 C   0  0  0  0  0  0  0  0  0  0  0  0
  -20.7680  -27.9280   22.8790 C   0  0  0  0  0  3  0  0  0  0  0  0
  -20.9400  -26.5280   22.2470 C   0  0  0  0  0  2  0  0  0  0  0  0
  -19.8530  -26.1890   21.2200 C   0  0  0  0  0  2  0  0  0  0  0  0
  -18.4630  -26.2520   21.8620 C   0  0  0  0  0  2  0  0  0  0  0  0
  -19.3080  -28.3580   23.0520 C   0  0  0  0  0  0  0  0  0  0  0  0
  -19.0330  -29.5870   23.6900 C   0  0  0  0  0  3  0  0  0  0  0  0
  -17.7070  -30.0230   23.8690 C   0  0  0  0  0  3  0  0  0  0  0  0
  -16.6390  -29.2280   23.4220 C   0  0  0  0  0  3  0  0  0  0  0  0
  -16.8980  -27.9980   22.7910 C   0  0  0  0  0  3  0  0  0  0  0  0
  -25.8790  -32.2900   23.6710 C   0  0  0  0  0  3  0  0  0  0  0  0
  -26.4430  -31.4910   24.9100 C   0  0  1  0  0  0  0  0  0  0  0  0
  -25.3720  -31.1740   25.9800 C   0  0  0  0  0  1  0  0  0  0  0  0
  -27.0710  -30.1510   24.4590 C   0  0  0  0  0  1  0  0  0  0  0  0
  -27.5720  -32.3020   25.5870 C   0  0  0  0  0  1  0  0  0  0  0  0
  -25.5170  -33.6600   24.0560 N   0  0  0  0  0  0  0  0  0  0  0  0
  -25.8140  -34.7550   23.3400 C   0  0  0  0  0  0  0  0  0  0  0  0
  -26.4900  -34.7180   22.3080 O   0  0  0  0  0  0  0  0  0  0  0  0
  -24.9170  -33.7630   24.8610 H   0  0  0  0  0  0  0  0  0  0  0  0
  -24.0150  -36.4880   23.0530 C   0  0  0  0  0  1  0  0  0  0  0  0
  -25.2730  -36.1040   23.8490 C   0  0  0  0  0  3  0  0  0  0  0  0
  -27.3690  -37.0420   24.7180 C   0  0  0  0  0  1  0  0  0  0  0  0
  -26.2640  -37.2000   23.7760 N   0  0  0  0  0  0  0  0  0  0  0  0
  -25.8210  -38.0980   23.9560 H   0  0  0  0  0  0  0  0  0  0  0  0
  -29.6840  -20.6310   19.9480 C   0  0  0  0  0  3  0  0  0  0  0  0
  -31.0130  -14.6360   19.9320 C   0  0  0  0  0  0  0  0  0  0  0  0
  -30.7260  -12.4310   18.8410 C   0  0  0  0  0  2  0  0  0  0  0  0
  -29.7200  -12.5510   17.6730 C   0  0  0  0  0  2  0  0  0  0  0  0
  -28.2660  -12.4050   18.1690 C   0  0  0  0  0  2  0  0  0  0  0  0
  -27.9710  -13.2780   19.4150 C   0  0  0  0  0  3  0  0  0  0  0  0
  -29.0750  -13.0610   20.4740 C   0  0  0  0  0  2  0  0  0  0  0  0
  -30.3520  -13.4380   19.8540 N   0  0  0  0  0  0  0  0  0  0  0  0
  -32.1590  -14.7510   19.4820 O   0  0  0  0  0  0  0  0  0  0  0  0
  -28.4980  -18.4650   20.7030 C   0  0  0  0  0  0  0  0  0  0  0  0
  -29.2450  -17.5390   21.6780 C   0  0  0  0  0  2  0  0  0  0  0  0
  -30.5470  -18.2460   19.2490 C   0  0  0  0  0  2  0  0  0  0  0  0
  -29.3510  -16.0610   21.2030 C   0  0  0  0  0  2  0  0  0  0  0  0
  -30.2350  -16.7450   18.9220 C   0  0  0  0  0  2  0  0  0  0  0  0
  -29.3030  -19.1400   19.5710 C   0  0  2  0  0  0  0  0  0  0  0  0
  -30.2350  -15.7670   20.0440 N   0  0  0  0  0  0  0  0  0  0  0  0
  -27.2830  -18.6480   20.8100 O   0  0  0  0  0  0  0  0  0  0  0  0
  -25.6040  -13.9020   20.2080 C   0  0  0  0  0  0  0  0  0  0  0  0
  -24.5540  -13.1360   20.6370 C   0  0  0  0  0  0  0  0  0  0  0  0
  -25.0160  -11.7850   20.6070 C   0  0  0  0  0  0  0  0  0  0  0  0
  -26.6390  -13.0160   19.9530 N   0  0  0  0  0  0  0  0  0  0  0  0
  -26.2920  -11.7400   20.2490 N   0  0  0  0  0  0  0  0  0  0  0  0
  -24.3030  -10.5240   20.8430 C   0  0  0  0  0  0  0  0  0  0  0  0
  -24.7120   -9.6240   21.8520 C   0  0  0  0  0  3  0  0  0  0  0  0
  -23.9990   -8.4260   22.0690 C   0  0  0  0  0  3  0  0  0  0  0  0
  -22.8640   -8.1210   21.2820 C   0  0  0  0  0  0  0  0  0  0  0  0
  -22.4780   -9.0100   20.2620 C   0  0  0  0  0  3  0  0  0  0  0  0
  -23.1920  -10.2000   20.0420 C   0  0  0  0  0  3  0  0  0  0  0  0
  -22.1260   -6.9700   21.4080 O   0  0  0  0  0  0  0  0  0  0  0  0
  -21.9410   -6.3650   22.6240 C   0  0  0  0  0  0  0  0  0  0  0  0
  -21.3500   -7.0410   23.7140 C   0  0  0  0  0  3  0  0  0  0  0  0
  -21.1140   -6.3580   24.9230 C   0  0  0  0  0  3  0  0  0  0  0  0
  -21.4580   -4.9980   25.0430 C   0  0  0  0  0  0  0  0  0  0  0  0
  -22.0430   -4.3220   23.9580 C   0  0  0  0  0  3  0  0  0  0  0  0
  -22.2800   -5.0020   22.7510 C   0  0  0  0  0  0  0  0  0  0  0  0
  -22.8230   -4.3390   21.7020 F   0  0  0  0  0  0  0  0  0  0  0  0
  -21.2250   -4.3390   26.2020 F   0  0  0  0  0  0  0  0  0  0  0  0
  -23.1690  -13.6140   20.9600 C   0  0  0  0  0  0  0  0  0  0  0  0
  -22.4890  -12.9390   21.8800 N   0  0  0  0  0  0  0  0  0  0  0  0
  -22.7000  -14.6220   20.4320 O   0  0  0  0  0  0  0  0  0  0  0  0
  -22.8840  -12.1230   22.3260 H   0  0  0  0  0  0  0  0  0  0  0  0
  -21.5600  -13.2400   22.1430 H   0  0  0  0  0  0  0  0  0  0  0  0
  -25.7540  -15.2680   19.9990 N   0  0  0  0  0  0  0  0  0  0  0  0
  -24.9860  -15.9170   20.1280 H   0  0  0  0  0  0  0  0  0  0  0  0
  -26.5720  -15.7010   19.5970 H   0  0  0  0  0  0  0  0  0  0  0  0
  -28.3980  -19.1390   18.4000 N   0  0  0  0  0  4  0  0  0  0  0  0
  -28.2480  -18.2010   18.0780 H   0  0  0  0  0  0  0  0  0  0  0  0
  -28.7600  -19.6860   17.6420 H   0  0  0  0  0  0  0  0  0  0  0  0
  -27.5000  -19.4940   18.6900 H   0  0  0  0  0  0  0  0  0  0  0  0
  1  5  1  0
  2  6  2  0
  2  5  1  0
  3  7  1  0
  4  7  2  0
  5  3  2  0
  6  4  1  0
  7  8  1  0
  9 11  1  0
  9  6  1  0
 10 21  2  0
 11 16  1  0
 12 20  1  0
 12 22  1  0
 13 19  1  0
 13 15  1  0
 14 20  1  0
 15 14  1  0
 16 15  2  0
 17 18  1  0
 17 11  2  0
 18 13  2  0
 19 12  1  0
 20 10  1  0
 22 24  2  0
 23 22  1  0
 25 23  1  0
 26 35  2  0
 26 31  1  0
 27 23  1  0
 27 31  1  0
 28 27  1  0
 29 30  1  0
 29 28  1  0
 30 26  1  0
 31 32  2  0
 32 33  1  0
 34 33  2  0
 35 34  1  0
 36 10  1  0
 36 41  1  0
 36 37  1  0
 37 40  1  1
 37 38  1  0
 39 37  1  0
 41 44  1  0
 42 46  1  0
 42 41  1  0
 43 42  2  0
 46 45  1  0
 48 46  1  0
 48 49  1  0
 48 47  1  0
 50  1  2  0
 51 65  1  0
 52 57  1  0
 53 54  1  0
 53 52  1  0
 55 54  1  0
 55 70  1  0
 55 56  1  0
 57 51  1  0
 57 56  1  0
 58 51  2  0
 59 66  2  0
 59 60  1  0
 61 64  1  0
 62 60  1  0
 63 61  1  0
 63 65  1  0
 64 50  1  0
 64 59  1  0
 65 62  1  0
 67 68  2  0
 68 87  1  0
 69 68  1  0
 69 72  1  0
 70 67  1  0
 70 71  1  0
 71 69  2  0
 72 73  1  0
 73 74  2  0
 75 78  1  0
 75 74  1  0
 76 75  2  0
 77 76  1  0
 77 72  2  0
 78 79  1  0
 79 84  2  0
 79 80  1  0
 80 81  2  0
 81 82  1  0
 82 86  1  0
 83 82  2  0
 84 83  1  0
 85 84  1  0
 87 88  1  0
 88 91  1  0
 88 90  1  0
 89 87  2  0
 92 93  1  0
 92 67  1  0
 94 92  1  0
 95 98  1  0
 64 95  1  6
 96 95  1  0
 97 95  1  0
M  ISO  4   6 101   9 101  51 100  65 100
M  END
>  <TORSDO>  (82) 
F 19

>  <SCORE>  (82) 
-12.802

>  <name>  (82) 
82

>  <ligand_id>  (82) 
82

>  <original_smiles>  (82) 
[H]c1c([H])c([H])c2c(c1[H])C([H])([H])C([H])([H])C([H])([H])C2([H])N([H])C(=O)C1([H])N(C(=O)C([H])(N([H])C(=O)C([H])(N([H])C([H])([H])[H])C([H])([H])[H])C(C([H])([H])[H])(C([H])([H])[H])C([H])([H])[H])C([H])([H])c2c([H])c(Oc3c([H])c(F)c([H])c(C([H])([H])C([H])([H])C4([N+]([H])([H])[H])C(=O)C([H])([H])C([H])([H])N(C(=O)N5C([H])([H])C([H])([H])C([H])([H])C([H])(n6nc(-c7c([H])c([H])c(Oc8c([H])c([H])c(F)c([H])c8F)c([H])c7[H])c(C(=O)N([H])[H])c6N([H])[H])C5([H])[H])C([H])([H])C4([H])[H])c3[H])c([H])c([H])c2C1([H])[H]

>  <smiles>  (82) 
[H]c1c([H])c([H])c2c(c1[H])C([H])([H])C([H])([H])C([H])([H])C2([H])N([H])C(=O)C1([H])N(C(=O)C([H])(N([H])C(=O)C([H])(N([H])C([H])([H])[H])C([H])([H])[H])C(C([H])([H])[H])(C([H])([H])[H])C([H])([H])[H])C([H])([H])c2c([H])c(Oc3c([H])c(F)c([H])c(C([H])([H])C([H])([H])C4([N+]([H])([H])[H])C(=O)C([H])([H])C([H])([H])N(C(=O)N5C([H])([H])C([H])([H])C([H])([H])C([H])(n6nc(-c7c([H])c([H])c(Oc8c([H])c([H])c(F)c([H])c8F)c([H])c7[H])c(C(=O)N([H])[H])c6N([H])[H])C5([H])[H])C([H])([H])C4([H])[H])c3[H])c([H])c([H])c2C1([H])[H]

$$$$
83:0:0
     RDKit          3D

 88 96  0  0  1  0  0  0  0  0999 V2000
  -30.0060  -21.7430   19.7800 C   0  0  0  0  0  3  0  0  0  0  0  0
  -27.5840  -22.9480   19.8920 C   0  0  0  0  0  3  0  0  0  0  0  0
  -29.0630  -20.5860   19.8270 C   0  0  0  0  0  0  0  0  0  0  0  0
  -27.8130  -21.4280   19.8920 C   0  0  0  0  0  0  0  0  0  0  0  0
  -29.7760  -23.2630   19.7940 C   0  0  0  0  0  0  0  0  0  0  0  0
  -28.5270  -24.0940   19.8340 C   0  0  0  0  0  0  0  0  0  0  0  0
  -26.5220  -20.6280   19.9820 C   0  0  0  0  0  1  0  0  0  0  0  0
  -29.1400  -18.7580   19.8210 C   0  0  0  0  0  0  0  0  0  0  0  0
  -29.6300  -17.2850   19.7170 C   0  0  0  0  0  0  0  0  0  0  0  0
  -30.5090  -15.8150   19.5350 C   0  0  0  0  0  0  0  0  0  0  0  0
  -30.6150  -13.2300   18.8490 C   0  0  0  0  0  2  0  0  0  0  0  0
  -29.6440  -12.7780   17.7190 C   0  0  0  0  0  2  0  0  0  0  0  0
  -28.2660  -12.4160   18.2930 C   0  0  0  0  0  2  0  0  0  0  0  0
  -27.8170  -13.4490   19.3500 C   0  0  0  0  0  3  0  0  0  0  0  0
  -28.9160  -13.8260   20.3670 C   0  0  0  0  0  2  0  0  0  0  0  0
  -30.0390  -14.4290   19.6140 N   0  0  0  0  0  0  0  0  0  0  0  0
  -31.7130  -15.7550   19.2110 O   0  0  0  0  0  0  0  0  0  0  0  0
  -25.5590  -13.9610   20.3950 C   0  0  0  0  0  0  0  0  0  0  0  0
  -24.5330  -13.1720   20.8310 C   0  0  0  0  0  0  0  0  0  0  0  0
  -24.9770  -11.8220   20.6750 C   0  0  0  0  0  0  0  0  0  0  0  0
  -26.5560  -13.0950   19.9880 N   0  0  0  0  0  0  0  0  0  0  0  0
  -26.2270  -11.7980   20.2220 N   0  0  0  0  0  0  0  0  0  0  0  0
  -24.2520  -10.5580   20.8690 C   0  0  0  0  0  0  0  0  0  0  0  0
  -24.6820   -9.5950   21.8080 C   0  0  0  0  0  3  0  0  0  0  0  0
  -23.9520   -8.4010   21.9940 C   0  0  0  0  0  3  0  0  0  0  0  0
  -22.7780   -8.1610   21.2410 C   0  0  0  0  0  0  0  0  0  0  0  0
  -22.3670   -9.1130   20.2910 C   0  0  0  0  0  3  0  0  0  0  0  0
  -23.0980  -10.2980   20.1030 C   0  0  0  0  0  3  0  0  0  0  0  0
  -22.0190   -7.0190   21.3360 O   0  0  0  0  0  0  0  0  0  0  0  0
  -21.8490   -6.3640   22.5300 C   0  0  0  0  0  0  0  0  0  0  0  0
  -21.2430   -6.9880   23.6420 C   0  0  0  0  0  3  0  0  0  0  0  0
  -21.0260   -6.2580   24.8270 C   0  0  0  0  0  3  0  0  0  0  0  0
  -21.4040   -4.9030   24.8990 C   0  0  0  0  0  0  0  0  0  0  0  0
  -22.0010   -4.2790   23.7890 C   0  0  0  0  0  3  0  0  0  0  0  0
  -22.2200   -5.0060   22.6070 C   0  0  0  0  0  0  0  0  0  0  0  0
  -22.7770   -4.3940   21.5350 F   0  0  0  0  0  0  0  0  0  0  0  0
  -21.1900   -4.1980   26.0340 F   0  0  0  0  0  0  0  0  0  0  0  0
  -23.1800  -13.6460   21.2710 C   0  0  0  0  0  0  0  0  0  0  0  0
  -22.5410  -12.9190   22.1780 N   0  0  0  0  0  0  0  0  0  0  0  0
  -22.7050  -14.7000   20.8480 O   0  0  0  0  0  0  0  0  0  0  0  0
  -22.9450  -12.0640   22.5380 H   0  0  0  0  0  0  0  0  0  0  0  0
  -21.6390  -13.2180   22.5180 H   0  0  0  0  0  0  0  0  0  0  0  0
  -25.7240  -15.3390   20.2820 N   0  0  0  0  0  0  0  0  0  0  0  0
  -24.9890  -15.9960   20.5200 H   0  0  0  0  0  0  0  0  0  0  0  0
  -26.5510  -15.7900   19.9090 H   0  0  0  0  0  0  0  0  0  0  0  0
  -30.9180  -24.0080   19.7840 O   0  0  0  0  0  0  0  0  0  0  0  0
  -30.7230  -24.9370   19.8730 H   0  0  0  0  0  0  0  0  0  0  0  0
  -28.4150  -25.7120   19.9170 O   0  0  0  0  0  0  0  0  0  0  0  0
  -24.7880  -31.8070   23.0910 C   0  0  0  0  0  0  0  0  0  0  0  0
  -27.3810  -26.8710   19.9390 C   0  0  0  0  0  0  0  0  0  0  0  0
  -23.6260  -30.4710   21.3840 C   0  0  0  0  0  3  0  0  0  0  0  0
  -25.0980  -28.8840   19.9270 C   0  0  0  0  0  0  0  0  0  0  0  0
  -26.2020  -30.6310   21.2990 C   0  0  0  0  0  2  0  0  0  0  0  0
  -26.2790  -29.2250   20.5930 C   0  0  0  0  0  0  0  0  0  0  0  0
  -27.4030  -28.2460   20.5690 C   0  0  0  0  0  3  0  0  0  0  0  0
  -26.1670  -26.7410   19.2180 C   0  0  0  0  0  3  0  0  0  0  0  0
  -25.0790  -27.6690   19.2180 C   0  0  0  0  0  3  0  0  0  0  0  0
  -23.8850  -29.8270   19.9890 C   0  0  0  0  0  2  0  0  0  0  0  0
  -24.8940  -31.0040   21.9780 N   0  0  0  0  0  0  0  0  0  0  0  0
  -23.6880  -32.0800   23.6010 O   0  0  0  0  0  0  0  0  0  0  0  0
  -22.9060  -29.4500   22.3070 C   0  0  0  0  0  0  0  0  0  0  0  0
  -21.5740  -29.3090   22.1750 N   0  0  0  0  0  0  0  0  0  0  0  0
  -23.5610  -28.7860   23.1140 O   0  0  0  0  0  0  0  0  0  0  0  0
  -21.0960  -29.8970   21.5060 H   0  0  0  0  0  0  0  0  0  0  0  0
  -18.1670  -28.1710   22.7260 C   0  0  0  0  0  0  0  0  0  0  0  0
  -20.7430  -28.3390   22.9020 C   0  0  0  0  0  3  0  0  0  0  0  0
  -20.7710  -26.9550   22.2120 C   0  0  0  0  0  2  0  0  0  0  0  0
  -19.6210  -26.7520   21.2200 C   0  0  0  0  0  2  0  0  0  0  0  0
  -18.2710  -26.8820   21.9300 C   0  0  0  0  0  2  0  0  0  0  0  0
  -19.3270  -28.8640   23.1680 C   0  0  0  0  0  0  0  0  0  0  0  0
  -19.1690  -30.0720   23.8810 C   0  0  0  0  0  3  0  0  0  0  0  0
  -17.8880  -30.5900   24.1500 C   0  0  0  0  0  3  0  0  0  0  0  0
  -16.7450  -29.8950   23.7180 C   0  0  0  0  0  3  0  0  0  0  0  0
  -16.8850  -28.6870   23.0140 C   0  0  0  0  0  3  0  0  0  0  0  0
  -26.0410  -32.4380   23.7720 C   0  0  0  0  0  3  0  0  0  0  0  0
  -25.7130  -33.8300   24.1420 N   0  0  0  0  0  0  0  0  0  0  0  0
  -26.0200  -34.9140   23.4180 C   0  0  0  0  0  0  0  0  0  0  0  0
  -26.6660  -34.8480   22.3690 O   0  0  0  0  0  0  0  0  0  0  0  0
  -25.1330  -33.9520   24.9600 H   0  0  0  0  0  0  0  0  0  0  0  0
  -24.2560  -36.7000   23.1960 C   0  0  0  0  0  1  0  0  0  0  0  0
  -25.5410  -36.2900   23.9320 C   0  0  0  0  0  3  0  0  0  0  0  0
  -27.6900  -37.2070   24.6950 C   0  0  0  0  0  1  0  0  0  0  0  0
  -26.5570  -37.3570   23.7860 N   0  0  0  0  0  0  0  0  0  0  0  0
  -26.1440  -38.2740   23.9370 H   0  0  0  0  0  0  0  0  0  0  0  0
  -26.5130  -31.6430   25.0520 C   0  0  1  0  0  0  0  0  0  0  0  0
  -25.3860  -31.3890   26.0810 C   0  0  0  0  0  1  0  0  0  0  0  0
  -27.1110  -30.2710   24.6680 C   0  0  0  0  0  1  0  0  0  0  0  0
  -27.6410  -32.4250   25.7660 C   0  0  0  0  0  1  0  0  0  0  0  0
  1  5  2  0
  1  3  1  0
  3  4  2  0
  4  2  1  0
  4  7  1  0
  5  6  1  0
  6  2  2  0
  6 48  1  0
  8  3  1  0
  9  8  3  0
 10 16  1  0
 10  9  1  0
 11 16  1  0
 12 13  1  0
 12 11  1  0
 14 13  1  0
 14 21  1  0
 14 15  1  0
 16 15  1  0
 17 10  2  0
 18 19  2  0
 19 38  1  0
 20 19  1  0
 20 23  1  0
 21 22  1  0
 21 18  1  0
 22 20  2  0
 23 24  1  0
 24 25  2  0
 26 29  1  0
 26 25  1  0
 27 26  2  0
 28 27  1  0
 28 23  2  0
 29 30  1  0
 30 35  2  0
 30 31  1  0
 31 32  2  0
 32 33  1  0
 33 37  1  0
 34 33  2  0
 35 34  1  0
 36 35  1  0
 38 39  1  0
 39 42  1  0
 39 41  1  0
 40 38  2  0
 43 18  1  0
 43 44  1  0
 45 43  1  0
 46  5  1  0
 46 47  1  0
 48 50  1  0
 49 60  2  0
 50 55  1  0
 51 59  1  0
 51 61  1  0
 52 58  1  0
 52 54  1  0
 53 59  1  0
 54 53  1  0
 55 54  2  0
 56 57  1  0
 56 50  2  0
 57 52  2  0
 58 51  1  0
 59 49  1  0
 61 63  2  0
 62 61  1  0
 64 62  1  0
 65 74  2  0
 65 70  1  0
 66 62  1  0
 66 70  1  0
 67 66  1  0
 68 69  1  0
 68 67  1  0
 69 65  1  0
 70 71  2  0
 71 72  1  0
 73 72  2  0
 74 73  1  0
 75 49  1  0
 75 76  1  0
 75 85  1  0
 76 79  1  0
 77 81  1  0
 77 76  1  0
 78 77  2  0
 81 80  1  0
 83 81  1  0
 83 84  1  0
 83 82  1  0
 85 88  1  1
 85 86  1  0
 87 85  1  0
M  ISO  4   6 101   9 100  10 100  48 101
M  END
>  <TORSDO>  (83) 
F 18

>  <SCORE>  (83) 
-13.707

>  <name>  (83) 
83

>  <ligand_id>  (83) 
83

>  <original_smiles>  (83) 
[H]Oc1c([H])c(C([H])=C([H])C(=O)N2C([H])([H])C([H])([H])C([H])([H])C([H])(n3nc(-c4c([H])c([H])c(Oc5c([H])c([H])c(F)c([H])c5F)c([H])c4[H])c(C(=O)N([H])[H])c3N([H])[H])C2([H])[H])c(C([H])([H])[H])c([H])c1Oc1c([H])c([H])c2c(c1[H])C([H])([H])N(C(=O)C([H])(N([H])C(=O)C([H])(N([H])C([H])([H])[H])C([H])([H])[H])C(C([H])([H])[H])(C([H])([H])[H])C([H])([H])[H])C([H])(C(=O)N([H])C1([H])c3c([H])c([H])c([H])c([H])c3C([H])([H])C([H])([H])C1([H])[H])C2([H])[H]

>  <smiles>  (83) 
[H]Oc1c([H])c(C([H])=C([H])C(=O)N2C([H])([H])C([H])([H])C([H])([H])C([H])(n3nc(-c4c([H])c([H])c(Oc5c([H])c([H])c(F)c([H])c5F)c([H])c4[H])c(C(=O)N([H])[H])c3N([H])[H])C2([H])[H])c(C([H])([H])[H])c([H])c1Oc1c([H])c([H])c2c(c1[H])C([H])([H])N(C(=O)C([H])(N([H])C(=O)C([H])(N([H])C([H])([H])[H])C([H])([H])[H])C(C([H])([H])[H])(C([H])([H])[H])C([H])([H])[H])C([H])(C(=O)N([H])C1([H])c3c([H])c([H])c([H])c([H])c3C([H])([H])C([H])([H])C1([H])[H])C2([H])[H]

$$$$
84:0:0
     RDKit          3D

 94 94  0  0  1  0  0  0  0  0999 V2000
  -23.7800  -25.2050   19.9570 C   0  0  0  0  0 15  0  0  0  0  0  0
  -25.7580  -20.8620   19.9470 C   0  0  0  0  0  3  0  0  0  0  0  0
  -27.3880  -22.0020   19.2370 C   0  0  0  0  0  3  0  0  0  0  0  0
  -24.8510  -22.1550   19.9700 C   0  0  0  0  0  3  0  0  0  0  0  0
  -26.4780  -23.3150   19.2630 C   0  0  0  0  0  3  0  0  0  0  0  0
  -27.2100  -20.5070   19.5870 C   0  0  0  0  0  3  0  0  0  0  0  0
  -25.0160  -23.6390   19.6360 C   0  0  0  0  0  3  0  0  0  0  0  0
  -29.4720  -17.8870   19.3200 C   0  0  0  0  0  2  0  0  0  0  0  0
  -28.1910  -18.8010   19.6890 C   0  0  0  0  0  2  0  0  0  0  0  0
  -30.5060  -16.3660   19.4450 C   0  0  0  0  0  0  0  0  0  0  0  0
  -31.0870  -13.7610   18.7780 C   0  0  0  0  0  2  0  0  0  0  0  0
  -30.2340  -13.1440   17.6280 C   0  0  0  0  0  2  0  0  0  0  0  0
  -28.8530  -12.7210   18.1510 C   0  0  0  0  0  2  0  0  0  0  0  0
  -28.3320  -13.7600   19.1690 C   0  0  0  0  0  3  0  0  0  0  0  0
  -29.3280  -14.1420   20.2520 C   0  0  0  0  0  2  0  0  0  0  0  0
  -30.3080  -14.9010   19.5070 N   0  0  0  0  0  0  0  0  0  0  0  0
  -31.7610  -16.3660   19.2390 O   0  0  0  0  0  0  0  0  0  0  0  0
  -26.1300  -14.3570   20.1770 C   0  0  0  0  0  0  0  0  0  0  0  0
  -25.0940  -13.6010   20.6290 C   0  0  0  0  0  0  0  0  0  0  0  0
  -25.5180  -12.2400   20.5230 C   0  0  0  0  0  0  0  0  0  0  0  0
  -27.0850  -13.4470   19.7830 N   0  0  0  0  0  0  0  0  0  0  0  0
  -26.7610  -12.1690   20.0730 N   0  0  0  0  0  0  0  0  0  0  0  0
  -24.7820  -10.9980   20.7470 C   0  0  0  0  0  0  0  0  0  0  0  0
  -25.1060  -10.1270   21.8100 C   0  0  0  0  0  3  0  0  0  0  0  0
  -24.3630   -8.9450   22.0110 C   0  0  0  0  0  3  0  0  0  0  0  0
  -23.2870   -8.6310   21.1470 C   0  0  0  0  0  0  0  0  0  0  0  0
  -22.9870   -9.4910   20.0770 C   0  0  0  0  0  3  0  0  0  0  0  0
  -23.7300  -10.6630   19.8740 C   0  0  0  0  0  3  0  0  0  0  0  0
  -22.5220   -7.4950   21.2510 O   0  0  0  0  0  0  0  0  0  0  0  0
  -22.1110   -7.0170   22.4690 C   0  0  0  0  0  0  0  0  0  0  0  0
  -21.3500   -7.8040   23.3610 C   0  0  0  0  0  3  0  0  0  0  0  0
  -20.8890   -7.2490   24.5720 C   0  0  0  0  0  3  0  0  0  0  0  0
  -21.1780   -5.9070   24.8860 C   0  0  0  0  0  0  0  0  0  0  0  0
  -21.9320   -5.1220   23.9970 C   0  0  0  0  0  3  0  0  0  0  0  0
  -22.3940   -5.6750   22.7900 C   0  0  0  0  0  0  0  0  0  0  0  0
  -23.1010   -4.9080   21.9260 F   0  0  0  0  0  0  0  0  0  0  0  0
  -20.7280   -5.3700   26.0440 F   0  0  0  0  0  0  0  0  0  0  0  0
  -23.7500  -14.1180   21.0350 C   0  0  0  0  0  0  0  0  0  0  0  0
  -23.1050  -13.4600   21.9880 N   0  0  0  0  0  0  0  0  0  0  0  0
  -23.2880  -15.1450   20.5370 O   0  0  0  0  0  0  0  0  0  0  0  0
  -23.4980  -12.6310   22.4100 H   0  0  0  0  0  0  0  0  0  0  0  0
  -22.2050  -13.7900   22.3040 H   0  0  0  0  0  0  0  0  0  0  0  0
  -26.3330  -15.7290   20.0390 N   0  0  0  0  0  0  0  0  0  0  0  0
  -25.6320  -16.4030   20.3300 H   0  0  0  0  0  0  0  0  0  0  0  0
  -27.1940  -16.1670   19.7370 H   0  0  0  0  0  0  0  0  0  0  0  0
  -27.3930  -18.0730   20.4800 O   0  0  0  0  0  0  0  0  0  0  0  0
  -26.6490  -18.6140   20.7110 H   0  0  0  0  0  0  0  0  0  0  0  0
  -22.6950  -27.0090   19.4790 C   0  0  0  0  0 15  0  0  0  0  0  0
  -21.2740  -29.5630   19.3690 C   0  0  0  0  0  1  0  0  0  0  0  0
  -21.9180  -28.6550   20.3510 N   0  0  0  0  0  2  0  0  0  0  0  0
  -21.0910  -28.1720   20.6800 H   0  0  0  0  0  0  0  0  0  0  0  0
  -22.2750  -29.6290   22.1300 C   0  0  0  0  0 15  0  0  0  0  0  0
  -24.0370  -29.1180   23.4820 C   0  0  0  0  0 15  0  0  0  0  0  0
  -25.8640  -28.5250   22.8550 O   0  0  0  0  0  1  0  0  0  0  0  0
  -24.5100  -31.6390   22.7400 C   0  0  0  0  0  0  0  0  0  0  0  0
  -26.7250  -27.8400   21.7810 C   0  0  0  0  0  3  0  0  0  0  0  0
  -24.2540  -29.2480   21.0010 C   0  0  0  0  0  2  0  0  0  0  0  0
  -25.8490  -28.8370   19.6220 C   0  0  0  0  0  3  0  0  0  0  0  0
  -26.2150  -30.8670   21.1580 C   0  0  0  0  0  2  0  0  0  0  0  0
  -26.6980  -29.5740   20.5110 C   0  0  0  0  0  3  0  0  0  0  0  0
  -27.5660  -28.8140   21.2860 C   0  0  0  0  0  2  0  0  0  0  0  0
  -26.4330  -26.8940   20.7180 C   0  0  0  0  0  2  0  0  0  0  0  0
  -25.9420  -27.4440   19.5320 C   0  0  0  0  0  2  0  0  0  0  0  0
  -24.5160  -29.3260   19.5170 C   0  0  0  0  0  2  0  0  0  0  0  0
  -24.8600  -30.6960   21.6720 N   0  0  0  0  0  0  0  0  0  0  0  0
  -23.3300  -31.8550   23.0770 O   0  0  0  0  0  0  0  0  0  0  0  0
  -23.7100  -27.4500   21.8780 C   0  0  0  0  0  2  0  0  0  0  0  0
  -22.4740  -27.1500   22.7170 N   0  0  0  0  0  0  0  0  0  0  0  0
  -24.3700  -26.7250   22.5550 O   0  0  0  0  0  1  0  0  0  0  0  0
  -22.7970  -26.3980   23.3120 H   0  0  0  0  0  0  0  0  0  0  0  0
  -18.2980  -28.0550   22.5200 C   0  0  0  0  0  0  0  0  0  0  0  0
  -20.8700  -27.3570   23.0660 C   0  0  0  0  0  3  0  0  0  0  0  0
  -20.4050  -26.1550   22.2900 C   0  0  0  0  0  2  0  0  0  0  0  0
  -19.4830  -26.4250   21.1090 C   0  0  0  0  0  2  0  0  0  0  0  0
  -18.1590  -26.8240   21.6670 C   0  0  0  0  0  2  0  0  0  0  0  0
  -19.5750  -28.4580   23.0830 C   0  0  0  0  0  0  0  0  0  0  0  0
  -19.4100  -29.6600   23.8790 C   0  0  0  0  0  3  0  0  0  0  0  0
  -18.1740  -30.3630   24.0460 C   0  0  0  0  0  3  0  0  0  0  0  0
  -16.9800  -29.8820   23.4890 C   0  0  0  0  0  3  0  0  0  0  0  0
  -17.0590  -28.7160   22.7290 C   0  0  0  0  0  3  0  0  0  0  0  0
  -25.5300  -32.2880   23.8200 C   0  0  0  0  0  3  0  0  0  0  0  0
  -25.1290  -33.6910   24.0440 N   0  0  0  0  0  0  0  0  0  0  0  0
  -25.7010  -34.7350   23.4410 C   0  0  0  0  0  0  0  0  0  0  0  0
  -26.6240  -34.6000   22.6370 O   0  0  0  0  0  0  0  0  0  0  0  0
  -24.3220  -33.8530   24.6260 H   0  0  0  0  0  0  0  0  0  0  0  0
  -24.1610  -36.5670   22.6710 C   0  0  0  0  0  1  0  0  0  0  0  0
  -25.1610  -36.1440   23.7570 C   0  0  0  0  0  3  0  0  0  0  0  0
  -27.0590  -37.0030   25.0580 C   0  0  0  0  0  1  0  0  0  0  0  0
  -26.2260  -37.1650   23.8700 N   0  0  0  0  0  0  0  0  0  0  0  0
  -25.8280  -38.1000   23.8850 H   0  0  0  0  0  0  0  0  0  0  0  0
  -25.6820  -31.6440   25.3010 C   0  0  1  0  0  0  0  0  0  0  0  0
  -24.3540  -31.4790   26.1100 C   0  0  0  0  0  1  0  0  0  0  0  0
  -26.4840  -30.3180   25.2730 C   0  0  0  0  0  1  0  0  0  0  0  0
  -26.5650  -32.5510   26.2080 C   0  0  0  0  0  1  0  0  0  0  0  0
  2  4  1  0
  3  5  2  0
  3  6  1  0
  5  7  1  0
  6  2  2  0
  7  4  2  0
  8 10  1  0
  8  9  1  0
  9 46  1  0
 10 16  1  0
 11 16  1  0
 12 13  1  0
 12 11  1  0
 14 13  1  0
 14 21  1  0
 14 15  1  0
 16 15  1  0
 17 10  2  0
 18 19  2  0
 19 38  1  0
 20 19  1  0
 20 23  1  0
 21 22  1  0
 21 18  1  0
 22 20  2  0
 23 24  1  0
 24 25  2  0
 26 29  1  0
 26 25  1  0
 27 26  2  0
 28 27  1  0
 28 23  2  0
 29 30  1  0
 30 35  2  0
 30 31  1  0
 31 32  2  0
 32 33  1  0
 33 37  1  0
 34 33  2  0
 35 34  1  0
 36 35  1  0
 38 39  1  0
 39 42  1  0
 39 41  1  0
 40 38  2  0
 43 18  1  0
 43 44  1  0
 45 43  1  0
 46 47  1  0
 49 50  1  0
 50 51  1  0
 55 66  2  0
 56 54  1  0
 57 65  1  0
 58 64  1  0
 58 60  1  0
 59 65  1  0
 60 59  1  0
 60 61  1  0
 61 56  1  0
 62 56  1  0
 63 58  1  0
 63 62  1  0
 64 57  1  0
 65 55  1  0
 67 69  1  0
 67 68  1  0
 68 70  1  0
 71 80  2  0
 71 76  1  0
 72 68  1  0
 72 76  1  0
 73 72  1  0
 74 75  1  0
 74 73  1  0
 75 71  1  0
 76 77  2  0
 77 78  1  0
 79 78  2  0
 80 79  1  0
 81 55  1  0
 81 82  1  0
 81 91  1  0
 82 85  1  0
 83 87  1  0
 83 82  1  0
 84 83  2  0
 87 86  1  0
 87 89  1  0
 89 90  1  0
 89 88  1  0
 91 92  1  1
 91 94  1  0
 93 91  1  0
M  ISO  4   8 100  10 100  53 101  54 101
M  END
>  <TORSDO>  (84) 
F 23

>  <SCORE>  (84) 
-8.407

>  <name>  (84) 
84

>  <ligand_id>  (84) 
84

>  <original_smiles>  (84) 
[H]OC(=C([H])C(=O)N1C([H])([H])C([H])([H])C([H])([H])C([H])(n2nc(-c3c([H])c([H])c(Oc4c([H])c([H])c(F)c([H])c4F)c([H])c3[H])c(C(=O)N([H])[H])c2N([H])[H])C1([H])[H])c1c([H])c([H])c(C([H])([H])C([H])([H])[N+]([H])(C([H])([H])[H])C([H])([H])C([H])([H])Oc2c([H])c([H])c3c(c2[H])C([H])([H])N(C(=O)C([H])(N([H])C(=O)C([H])(N([H])C([H])([H])[H])C([H])([H])[H])C(C([H])([H])[H])(C([H])([H])[H])C([H])([H])[H])C([H])(C(=O)N([H])C2([H])c4c([H])c([H])c([H])c([H])c4C([H])([H])C([H])([H])C2([H])[H])C3([H])[H])c([H])c1[H]

>  <smiles>  (84) 
[H]OC(=C([H])C(=O)N1C([H])([H])C([H])([H])C([H])([H])C([H])(n2nc(-c3c([H])c([H])c(Oc4c([H])c([H])c(F)c([H])c4F)c([H])c3[H])c(C(=O)N([H])[H])c2N([H])[H])C1([H])[H])c1c([H])c([H])c(C([H])([H])C([H])([H])[N+]([H])(C([H])([H])[H])C([H])([H])C([H])([H])Oc2c([H])c([H])c3c(c2[H])C([H])([H])N(C(=O)C([H])(N([H])C(=O)C([H])(N([H])C([H])([H])[H])C([H])([H])[H])C(C([H])([H])[H])(C([H])([H])[H])C([H])([H])[H])C([H])(C(=O)N([H])C2([H])c4c([H])c([H])c([H])c([H])c4C([H])([H])C([H])([H])C2([H])[H])C3([H])[H])c([H])c1[H]

$$$$
85:0:0
     RDKit          3D

 94102  0  0  1  0  0  0  0  0999 V2000
  -28.1350  -22.8360   20.7700 C   0  0  0  0  0  3  0  0  0  0  0  0
  -27.9030  -24.2410   20.9150 C   0  0  0  0  0  3  0  0  0  0  0  0
  -28.9010  -22.2980   19.7000 C   0  0  0  0  0  0  0  0  0  0  0  0
  -29.4120  -23.2510   18.7620 C   0  0  0  0  0  0  0  0  0  0  0  0
  -28.4300  -25.1910   19.9960 C   0  0  0  0  0  0  0  0  0  0  0  0
  -29.1800  -24.6560   18.9170 C   0  0  0  0  0  0  0  0  0  0  0  0
  -30.1990  -22.7860   17.5310 C   0  0  0  0  0  3  0  0  0  0  0  0
  -29.4260  -22.0450   16.7360 F   0  0  0  0  0  0  0  0  0  0  0  0
  -31.3010  -22.1080   17.8590 F   0  0  0  0  0  0  0  0  0  0  0  0
  -28.7940  -25.8600   16.9640 C   0  0  0  0  0  1  0  0  0  0  0  0
  -29.7090  -25.5280   18.0040 O   0  0  0  0  0  0  0  0  0  0  0  0
  -28.3790  -26.5900   20.1760 O   0  0  0  0  0  0  0  0  0  0  0  0
  -24.5900  -31.8850   23.2380 C   0  0  0  0  0  0  0  0  0  0  0  0
  -27.2130  -27.3600   20.1750 C   0  0  0  0  0  0  0  0  0  0  0  0
  -23.3790  -30.4830   21.6000 C   0  0  0  0  0  3  0  0  0  0  0  0
  -24.8340  -28.9370   20.1660 C   0  0  0  0  0  0  0  0  0  0  0  0
  -25.9090  -30.8220   21.4010 C   0  0  0  0  0  2  0  0  0  0  0  0
  -25.9930  -29.4380   20.7690 C   0  0  0  0  0  0  0  0  0  0  0  0
  -27.1830  -28.6550   20.7720 C   0  0  0  0  0  3  0  0  0  0  0  0
  -26.0370  -26.8980   19.5510 C   0  0  0  0  0  3  0  0  0  0  0  0
  -24.8550  -27.6710   19.5510 C   0  0  0  0  0  3  0  0  0  0  0  0
  -23.5880  -29.8010   20.2180 C   0  0  0  0  0  2  0  0  0  0  0  0
  -24.6450  -31.0820   22.1360 N   0  0  0  0  0  0  0  0  0  0  0  0
  -23.5090  -32.1610   23.7800 O   0  0  0  0  0  0  0  0  0  0  0  0
  -22.7260  -29.4680   22.5680 C   0  0  0  0  0  0  0  0  0  0  0  0
  -21.3990  -29.2900   22.4460 N   0  0  0  0  0  0  0  0  0  0  0  0
  -23.4070  -28.8450   23.3850 O   0  0  0  0  0  0  0  0  0  0  0  0
  -20.9080  -29.8490   21.7630 H   0  0  0  0  0  0  0  0  0  0  0  0
  -18.0270  -28.0870   22.9470 C   0  0  0  0  0  0  0  0  0  0  0  0
  -20.5850  -28.3510   23.2190 C   0  0  0  0  0  3  0  0  0  0  0  0
  -20.6920  -26.9210   22.6440 C   0  0  0  0  0  2  0  0  0  0  0  0
  -19.5890  -26.5950   21.6310 C   0  0  0  0  0  2  0  0  0  0  0  0
  -18.2060  -26.7380   22.2700 C   0  0  0  0  0  2  0  0  0  0  0  0
  -19.1430  -28.8510   23.3780 C   0  0  0  0  0  0  0  0  0  0  0  0
  -18.9230  -30.1130   23.9690 C   0  0  0  0  0  3  0  0  0  0  0  0
  -17.6170  -30.6150   24.1300 C   0  0  0  0  0  3  0  0  0  0  0  0
  -16.5150  -29.8460   23.7190 C   0  0  0  0  0  3  0  0  0  0  0  0
  -16.7200  -28.5850   23.1350 C   0  0  0  0  0  3  0  0  0  0  0  0
  -25.8780  -32.5170   23.8590 C   0  0  0  0  0  3  0  0  0  0  0  0
  -25.5770  -33.9180   24.1880 N   0  0  0  0  0  0  0  0  0  0  0  0
  -25.9070  -34.9680   23.4260 C   0  0  0  0  0  0  0  0  0  0  0  0
  -26.5720  -34.8600   22.3910 O   0  0  0  0  0  0  0  0  0  0  0  0
  -25.0040  -34.0780   25.0050 H   0  0  0  0  0  0  0  0  0  0  0  0
  -24.1800  -36.7610   23.0830 C   0  0  0  0  0  1  0  0  0  0  0  0
  -25.4250  -36.3560   23.8880 C   0  0  0  0  0  3  0  0  0  0  0  0
  -27.5630  -37.2340   24.7100 C   0  0  0  0  0  1  0  0  0  0  0  0
  -26.4580  -37.4060   23.7700 N   0  0  0  0  0  0  0  0  0  0  0  0
  -26.0520  -38.3230   23.9280 H   0  0  0  0  0  0  0  0  0  0  0  0
  -26.4000  -31.7450   25.1340 C   0  0  1  0  0  0  0  0  0  0  0  0
  -25.3100  -31.5030   26.2050 C   0  0  0  0  0  1  0  0  0  0  0  0
  -26.9780  -30.3660   24.7360 C   0  0  0  0  0  1  0  0  0  0  0  0
  -27.5590  -32.5350   25.7870 C   0  0  0  0  0  1  0  0  0  0  0  0
  -29.1340  -20.7470   19.4790 C   0  0  0  0  0  3  0  0  0  0  0  0
  -28.9140  -19.6820   20.6230 C   0  0  0  0  0  3  0  0  0  0  0  0
  -28.8960  -18.1350   20.2250 C   0  0  0  0  0  2  0  0  0  0  0  0
  -30.0990  -17.1820   20.6240 C   0  0  0  0  0  2  0  0  0  0  0  0
  -30.5820  -14.6370   20.3980 C   0  0  0  0  0  0  0  0  0  0  0  0
  -30.3710  -12.3960   19.3600 C   0  0  0  0  0  2  0  0  0  0  0  0
  -29.4340  -12.5200   18.1390 C   0  0  0  0  0  2  0  0  0  0  0  0
  -27.9600  -12.3760   18.5640 C   0  0  0  0  0  2  0  0  0  0  0  0
  -27.5960  -13.2590   19.7860 C   0  0  0  0  0  3  0  0  0  0  0  0
  -28.6450  -13.1030   20.9080 C   0  0  0  0  0  2  0  0  0  0  0  0
  -29.9590  -13.4220   20.3340 N   0  0  0  0  0  0  0  0  0  0  0  0
  -31.7550  -14.7870   20.0470 O   0  0  0  0  0  0  0  0  0  0  0  0
  -29.7780  -15.7120   20.6600 N   0  0  0  0  0  0  0  0  0  0  0  0
  -28.8270  -15.4730   20.9030 H   0  0  0  0  0  0  0  0  0  0  0  0
  -25.2040  -13.8770   20.4890 C   0  0  0  0  0  0  0  0  0  0  0  0
  -24.1330  -13.1100   20.8600 C   0  0  0  0  0  0  0  0  0  0  0  0
  -24.5920  -11.7570   20.8450 C   0  0  0  0  0  0  0  0  0  0  0  0
  -26.2460  -12.9890   20.2670 N   0  0  0  0  0  0  0  0  0  0  0  0
  -25.8830  -11.7110   20.5440 N   0  0  0  0  0  0  0  0  0  0  0  0
  -23.8630  -10.4980   21.0410 C   0  0  0  0  0  0  0  0  0  0  0  0
  -24.2940   -9.5290   21.9740 C   0  0  0  0  0  3  0  0  0  0  0  0
  -23.5640   -8.3350   22.1540 C   0  0  0  0  0  3  0  0  0  0  0  0
  -22.3880   -8.1010   21.4020 C   0  0  0  0  0  0  0  0  0  0  0  0
  -21.9770   -9.0590   20.4570 C   0  0  0  0  0  3  0  0  0  0  0  0
  -22.7080  -10.2440   20.2750 C   0  0  0  0  0  3  0  0  0  0  0  0
  -21.6260   -6.9610   21.4950 O   0  0  0  0  0  0  0  0  0  0  0  0
  -21.5920   -6.2120   22.6450 C   0  0  0  0  0  0  0  0  0  0  0  0
  -21.1880   -6.7650   23.8800 C   0  0  0  0  0  3  0  0  0  0  0  0
  -21.0940   -5.9420   25.0210 C   0  0  0  0  0  3  0  0  0  0  0  0
  -21.3990   -4.5700   24.9280 C   0  0  0  0  0  0  0  0  0  0  0  0
  -21.7950   -4.0190   23.6980 C   0  0  0  0  0  3  0  0  0  0  0  0
  -21.8880   -4.8370   22.5590 C   0  0  0  0  0  0  0  0  0  0  0  0
  -22.2510   -4.2970   21.3710 F   0  0  0  0  0  0  0  0  0  0  0  0
  -21.3020   -3.7790   26.0230 F   0  0  0  0  0  0  0  0  0  0  0  0
  -22.7350  -13.5930   21.1210 C   0  0  0  0  0  0  0  0  0  0  0  0
  -22.0010  -12.9020   21.9870 N   0  0  0  0  0  0  0  0  0  0  0  0
  -22.3010  -14.6140   20.5900 O   0  0  0  0  0  0  0  0  0  0  0  0
  -22.3610  -12.0720   22.4330 H   0  0  0  0  0  0  0  0  0  0  0  0
  -21.0640  -13.2070   22.2080 H   0  0  0  0  0  0  0  0  0  0  0  0
  -25.3770  -15.2450   20.2980 N   0  0  0  0  0  0  0  0  0  0  0  0
  -24.6150  -15.9090   20.3870 H   0  0  0  0  0  0  0  0  0  0  0  0
  -26.2260  -15.6670   19.9470 H   0  0  0  0  0  0  0  0  0  0  0  0
  1  2  1  0
  3  1  2  0
  4  6  2  0
  4  3  1  0
  5 12  1  0
  5  2  2  0
  6  5  1  0
  7  9  1  0
  7  4  1  0
  8  7  1  0
 10 11  1  0
 11  6  1  0
 13 24  2  0
 14 12  1  0
 14 19  1  0
 15 23  1  0
 15 25  1  0
 16 22  1  0
 16 18  1  0
 17 23  1  0
 18 19  2  0
 18 17  1  0
 20 14  2  0
 21 20  1  0
 21 16  2  0
 22 15  1  0
 23 13  1  0
 25 27  2  0
 26 25  1  0
 28 26  1  0
 29 38  2  0
 29 34  1  0
 30 26  1  0
 30 34  1  0
 31 30  1  0
 32 33  1  0
 32 31  1  0
 33 29  1  0
 34 35  2  0
 35 36  1  0
 37 36  2  0
 38 37  1  0
 39 13  1  0
 39 40  1  0
 39 49  1  0
 40 43  1  0
 41 45  1  0
 41 40  1  0
 42 41  2  0
 45 44  1  0
 47 45  1  0
 47 48  1  0
 47 46  1  0
 49 52  1  1
 49 50  1  0
 51 49  1  0
 53  3  1  0
 53 54  2  0
 55 54  1  0
 55 56  1  0
 56 65  1  0
 57 65  1  0
 58 63  1  0
 59 60  1  0
 59 58  1  0
 61 60  1  0
 61 70  1  0
 61 62  1  0
 63 57  1  0
 63 62  1  0
 64 57  2  0
 65 66  1  0
 67 68  2  0
 68 87  1  0
 69 68  1  0
 69 72  1  0
 70 67  1  0
 70 71  1  0
 71 69  2  0
 72 73  1  0
 73 74  2  0
 75 78  1  0
 75 74  1  0
 76 75  2  0
 77 76  1  0
 77 72  2  0
 78 79  1  0
 79 80  1  0
 80 81  2  0
 82 81  1  0
 82 86  1  0
 83 82  2  0
 84 79  2  0
 84 83  1  0
 85 84  1  0
 87 88  1  0
 88 91  1  0
 88 90  1  0
 89 87  2  0
 92 93  1  0
 92 67  1  0
 94 92  1  0
M  ISO  4   5 101  12 101  57 100  65 100
M  END
>  <TORSDO>  (85) 
F 22

>  <SCORE>  (85) 
-13.147

>  <name>  (85) 
85

>  <ligand_id>  (85) 
85

>  <original_smiles>  (85) 
[H]c1c([H])c([H])c2c(c1[H])C([H])([H])C([H])([H])C([H])([H])C2([H])N([H])C(=O)C1([H])N(C(=O)C([H])(N([H])C(=O)C([H])(N([H])C([H])([H])[H])C([H])([H])[H])C(C([H])([H])[H])(C([H])([H])[H])C([H])([H])[H])C([H])([H])c2c([H])c(Oc3c([H])c([H])c(C([H])([H])C([H])([H])C([H])([H])C([H])([H])N([H])C(=O)N4C([H])([H])C([H])([H])C([H])([H])C([H])(n5nc(-c6c([H])c([H])c(Oc7c([H])c([H])c(F)c([H])c7F)c([H])c6[H])c(C(=O)N([H])[H])c5N([H])[H])C4([H])[H])c(C([H])(F)F)c3OC([H])([H])[H])c([H])c([H])c2C1([H])[H]

>  <smiles>  (85) 
[H]c1c([H])c([H])c2c(c1[H])C([H])([H])C([H])([H])C([H])([H])C2([H])N([H])C(=O)C1([H])N(C(=O)C([H])(N([H])C(=O)C([H])(N([H])C([H])([H])[H])C([H])([H])[H])C(C([H])([H])[H])(C([H])([H])[H])C([H])([H])[H])C([H])([H])c2c([H])c(Oc3c([H])c([H])c(C([H])([H])C([H])([H])C([H])([H])C([H])([H])N([H])C(=O)N4C([H])([H])C([H])([H])C([H])([H])C([H])(n5nc(-c6c([H])c([H])c(Oc7c([H])c([H])c(F)c([H])c7F)c([H])c6[H])c(C(=O)N([H])[H])c5N([H])[H])C4([H])[H])c(C([H])(F)F)c3OC([H])([H])[H])c([H])c([H])c2C1([H])[H]

$$$$
86:0:0
     RDKit          3D

 91 99  0  0  1  0  0  0  0  0999 V2000
  -28.7470  -21.2960   20.2330 C   0  0  0  0  0  3  0  0  0  0  0  0
  -30.9270  -20.4030   19.6360 C   0  0  0  0  0  3  0  0  0  0  0  0
  -29.6220  -20.1460   20.1040 C   0  0  0  0  0  0  0  0  0  0  0  0
  -29.1440  -22.6480   19.8950 C   0  0  0  0  0  0  0  0  0  0  0  0
  -30.4720  -22.8170   19.4190 C   0  0  0  0  0  0  0  0  0  0  0  0
  -31.3420  -21.7050   19.3010 C   0  0  0  0  0  0  0  0  0  0  0  0
  -30.9910  -24.1850   18.9950 C   0  0  0  0  0  1  0  0  0  0  0  0
  -32.6040  -21.8810   18.8410 F   0  0  0  0  0  0  0  0  0  0  0  0
  -29.2140  -18.6860   20.4120 C   0  0  0  0  0  0  0  0  0  0  0  0
  -28.0570  -18.4170   20.7460 O   0  0  0  0  0  0  0  0  0  0  0  0
  -30.2490  -17.4830   20.3080 C   0  0  0  0  0  3  0  0  0  0  0  0
  -29.7870  -16.0140   20.7730 C   0  0  0  0  0  3  0  0  0  0  0  0
  -30.6100  -14.7300   20.3110 C   0  0  0  0  0  0  0  0  0  0  0  0
  -30.4240  -12.4740   19.2520 C   0  0  0  0  0  2  0  0  0  0  0  0
  -29.4560  -12.5900   18.0500 C   0  0  0  0  0  2  0  0  0  0  0  0
  -27.9950  -12.4040   18.5040 C   0  0  0  0  0  2  0  0  0  0  0  0
  -27.6470  -13.2740   19.7390 C   0  0  0  0  0  3  0  0  0  0  0  0
  -28.7230  -13.1470   20.8400 C   0  0  0  0  0  2  0  0  0  0  0  0
  -30.0200  -13.4920   20.2430 N   0  0  0  0  0  0  0  0  0  0  0  0
  -31.7620  -14.8850   19.8940 O   0  0  0  0  0  0  0  0  0  0  0  0
  -25.2790  -13.8760   20.5250 C   0  0  0  0  0  0  0  0  0  0  0  0
  -24.2150  -13.1010   20.9040 C   0  0  0  0  0  0  0  0  0  0  0  0
  -24.6720  -11.7490   20.8480 C   0  0  0  0  0  0  0  0  0  0  0  0
  -26.3110  -12.9920   20.2520 N   0  0  0  0  0  0  0  0  0  0  0  0
  -25.9540  -11.7090   20.5090 N   0  0  0  0  0  0  0  0  0  0  0  0
  -23.9460  -10.4870   21.0390 C   0  0  0  0  0  0  0  0  0  0  0  0
  -24.3860   -9.5150   21.9630 C   0  0  0  0  0  3  0  0  0  0  0  0
  -23.6610   -8.3160   22.1410 C   0  0  0  0  0  3  0  0  0  0  0  0
  -22.4830   -8.0820   21.3930 C   0  0  0  0  0  0  0  0  0  0  0  0
  -22.0620   -9.0430   20.4570 C   0  0  0  0  0  3  0  0  0  0  0  0
  -22.7880  -10.2340   20.2770 C   0  0  0  0  0  3  0  0  0  0  0  0
  -21.7280   -6.9370   21.4800 O   0  0  0  0  0  0  0  0  0  0  0  0
  -21.6750   -6.1970   22.6330 C   0  0  0  0  0  0  0  0  0  0  0  0
  -21.2260   -6.7480   23.8530 C   0  0  0  0  0  3  0  0  0  0  0  0
  -21.1220   -5.9330   24.9970 C   0  0  0  0  0  3  0  0  0  0  0  0
  -21.4560   -4.5680   24.9230 C   0  0  0  0  0  0  0  0  0  0  0  0
  -21.8990   -4.0160   23.7080 C   0  0  0  0  0  3  0  0  0  0  0  0
  -22.0060   -4.8290   22.5660 C   0  0  0  0  0  0  0  0  0  0  0  0
  -22.4120   -4.2880   21.3920 F   0  0  0  0  0  0  0  0  0  0  0  0
  -21.3490   -3.7820   26.0190 F   0  0  0  0  0  0  0  0  0  0  0  0
  -22.8250  -13.5790   21.2080 C   0  0  0  0  0  0  0  0  0  0  0  0
  -22.1100  -12.8680   22.0740 N   0  0  0  0  0  0  0  0  0  0  0  0
  -22.3800  -14.6140   20.7130 O   0  0  0  0  0  0  0  0  0  0  0  0
  -22.4830  -12.0320   22.4970 H   0  0  0  0  0  0  0  0  0  0  0  0
  -21.1760  -13.1660   22.3180 H   0  0  0  0  0  0  0  0  0  0  0  0
  -25.4500  -15.2470   20.3650 N   0  0  0  0  0  0  0  0  0  0  0  0
  -24.7050  -15.9160   20.5220 H   0  0  0  0  0  0  0  0  0  0  0  0
  -26.3120  -15.6820   20.0620 H   0  0  0  0  0  0  0  0  0  0  0  0
  -28.1420  -23.8800   19.8770 C   0  0  0  0  0  2  0  0  0  0  0  0
  -28.3730  -25.1740   20.7920 C   0  0  0  0  0  2  0  0  0  0  0  0
  -28.4000  -26.5520   20.2410 O   0  0  0  0  0  0  0  0  0  0  0  0
  -24.5820  -31.9160   23.2460 C   0  0  0  0  0  0  0  0  0  0  0  0
  -27.2530  -27.3520   20.2610 C   0  0  0  0  0  0  0  0  0  0  0  0
  -23.4050  -30.5040   21.5970 C   0  0  0  0  0  3  0  0  0  0  0  0
  -24.8790  -28.9390   20.2080 C   0  0  0  0  0  0  0  0  0  0  0  0
  -25.9420  -30.8350   21.4380 C   0  0  0  0  0  2  0  0  0  0  0  0
  -26.0380  -29.4490   20.8090 C   0  0  0  0  0  0  0  0  0  0  0  0
  -27.2310  -28.6700   20.8140 C   0  0  0  0  0  3  0  0  0  0  0  0
  -26.0700  -26.8780   19.6620 C   0  0  0  0  0  3  0  0  0  0  0  0
  -24.8950  -27.6600   19.6260 C   0  0  0  0  0  3  0  0  0  0  0  0
  -23.6390  -29.8140   20.2260 C   0  0  0  0  0  2  0  0  0  0  0  0
  -24.6630  -31.1010   22.1530 N   0  0  0  0  0  0  0  0  0  0  0  0
  -23.4900  -32.1940   23.7640 O   0  0  0  0  0  0  0  0  0  0  0  0
  -22.7290  -29.4940   22.5550 C   0  0  0  0  0  0  0  0  0  0  0  0
  -21.4010  -29.3340   22.4240 N   0  0  0  0  0  0  0  0  0  0  0  0
  -23.3990  -28.8590   23.3740 O   0  0  0  0  0  0  0  0  0  0  0  0
  -20.9210  -29.9030   21.7410 H   0  0  0  0  0  0  0  0  0  0  0  0
  -18.0000  -28.2130   22.9380 C   0  0  0  0  0  0  0  0  0  0  0  0
  -20.5670  -28.4020   23.1860 C   0  0  0  0  0  3  0  0  0  0  0  0
  -20.6260  -26.9790   22.5840 C   0  0  0  0  0  2  0  0  0  0  0  0
  -19.5050  -26.7030   21.5770 C   0  0  0  0  0  2  0  0  0  0  0  0
  -18.1340  -26.8700   22.2380 C   0  0  0  0  0  2  0  0  0  0  0  0
  -19.1420  -28.9390   23.3690 C   0  0  0  0  0  0  0  0  0  0  0  0
  -18.9610  -30.1970   23.9820 C   0  0  0  0  0  3  0  0  0  0  0  0
  -17.6710  -30.7280   24.1710 C   0  0  0  0  0  3  0  0  0  0  0  0
  -16.5430  -29.9960   23.7580 C   0  0  0  0  0  3  0  0  0  0  0  0
  -16.7090  -28.7420   23.1470 C   0  0  0  0  0  3  0  0  0  0  0  0
  -25.8540  -32.5520   23.8880 C   0  0  0  0  0  3  0  0  0  0  0  0
  -25.5410  -33.9550   24.1980 N   0  0  0  0  0  0  0  0  0  0  0  0
  -25.8940  -35.0000   23.4380 C   0  0  0  0  0  0  0  0  0  0  0  0
  -26.5850  -34.8840   22.4220 O   0  0  0  0  0  0  0  0  0  0  0  0
  -24.9230  -34.1170   24.9790 H   0  0  0  0  0  0  0  0  0  0  0  0
  -24.1830  -36.8000   23.0290 C   0  0  0  0  0  1  0  0  0  0  0  0
  -25.4030  -36.3950   23.8730 C   0  0  0  0  0  3  0  0  0  0  0  0
  -27.5200  -37.2770   24.7500 C   0  0  0  0  0  1  0  0  0  0  0  0
  -26.4420  -37.4430   23.7780 N   0  0  0  0  0  0  0  0  0  0  0  0
  -26.0380  -38.3660   23.9090 H   0  0  0  0  0  0  0  0  0  0  0  0
  -26.3420  -31.7940   25.1830 C   0  0  1  0  0  0  0  0  0  0  0  0
  -25.2270  -31.5670   26.2320 C   0  0  0  0  0  1  0  0  0  0  0  0
  -26.9290  -30.4120   24.8130 C   0  0  0  0  0  1  0  0  0  0  0  0
  -27.4780  -32.5930   25.8630 C   0  0  0  0  0  1  0  0  0  0  0  0
  2  3  2  0
  3  1  1  0
  3  9  1  0
  4  1  2  0
  5  4  1  0
  6  5  2  0
  6  2  1  0
  7  5  1  0
  8  6  1  0
  9 10  2  0
 11  9  1  0
 11 12  2  0
 13 12  1  0
 14 19  1  0
 15 16  1  0
 15 14  1  0
 17 16  1  0
 17 24  1  0
 17 18  1  0
 19 13  1  0
 19 18  1  0
 20 13  2  0
 21 22  2  0
 22 41  1  0
 23 22  1  0
 23 26  1  0
 24 25  1  0
 24 21  1  0
 25 23  2  0
 26 27  1  0
 27 28  2  0
 29 32  1  0
 29 28  1  0
 30 29  2  0
 31 30  1  0
 31 26  2  0
 32 33  1  0
 33 34  1  0
 34 35  2  0
 36 35  1  0
 36 40  1  0
 37 36  2  0
 38 33  2  0
 38 37  1  0
 39 38  1  0
 41 42  1  0
 42 45  1  0
 42 44  1  0
 43 41  2  0
 46 47  1  0
 46 21  1  0
 48 46  1  0
 49  4  1  0
 49 50  1  0
 51 53  1  0
 51 50  1  0
 52 63  2  0
 53 58  1  0
 54 62  1  0
 54 64  1  0
 55 61  1  0
 55 57  1  0
 56 62  1  0
 57 58  2  0
 57 56  1  0
 59 53  2  0
 60 59  1  0
 60 55  2  0
 61 54  1  0
 62 52  1  0
 64 66  2  0
 65 64  1  0
 67 65  1  0
 68 77  2  0
 68 73  1  0
 69 65  1  0
 69 73  1  0
 70 69  1  0
 71 72  1  0
 71 70  1  0
 72 68  1  0
 73 74  2  0
 74 75  1  0
 76 75  2  0
 77 76  1  0
 78 52  1  0
 78 79  1  0
 78 88  1  0
 79 82  1  0
 80 84  1  0
 80 79  1  0
 81 80  2  0
 84 83  1  0
 86 84  1  0
 86 87  1  0
 86 85  1  0
 88 91  1  1
 88 89  1  0
 90 88  1  0
M  ISO  4  12 100  13 100  50 101  51 101
M  END
>  <TORSDO>  (86) 
F 21

>  <SCORE>  (86) 
-13.555

>  <name>  (86) 
86

>  <ligand_id>  (86) 
86

>  <original_smiles>  (86) 
[H]c1c([H])c([H])c2c(c1[H])C([H])([H])C([H])([H])C([H])([H])C2([H])N([H])C(=O)C1([H])N(C(=O)C([H])(N([H])C(=O)C([H])(N([H])C([H])([H])[H])C([H])([H])[H])C(C([H])([H])[H])(C([H])([H])[H])C([H])([H])[H])C([H])([H])c2c([H])c(OC([H])([H])C([H])([H])c3c([H])c(C(=O)C([H])([H])C([H])([H])C(=O)N4C([H])([H])C([H])([H])C([H])([H])C([H])(n5nc(-c6c([H])c([H])c(Oc7c([H])c([H])c(F)c([H])c7F)c([H])c6[H])c(C(=O)N([H])[H])c5N([H])[H])C4([H])[H])c([H])c(F)c3C([H])([H])[H])c([H])c([H])c2C1([H])[H]

>  <smiles>  (86) 
[H]c1c([H])c([H])c2c(c1[H])C([H])([H])C([H])([H])C([H])([H])C2([H])N([H])C(=O)C1([H])N(C(=O)C([H])(N([H])C(=O)C([H])(N([H])C([H])([H])[H])C([H])([H])[H])C(C([H])([H])[H])(C([H])([H])[H])C([H])([H])[H])C([H])([H])c2c([H])c(OC([H])([H])C([H])([H])c3c([H])c(C(=O)C([H])([H])C([H])([H])C(=O)N4C([H])([H])C([H])([H])C([H])([H])C([H])(n5nc(-c6c([H])c([H])c(Oc7c([H])c([H])c(F)c([H])c7F)c([H])c6[H])c(C(=O)N([H])[H])c5N([H])[H])C4([H])[H])c([H])c(F)c3C([H])([H])[H])c([H])c([H])c2C1([H])[H]

$$$$
87:0:0
     RDKit          3D

 90 98  0  0  1  0  0  0  0  0999 V2000
  -28.7360  -20.3740   19.2150 C   0  0  0  0  0  3  0  0  0  0  0  0
  -28.3460  -21.8020   19.1600 C   0  0  0  0  0  3  0  0  0  0  0  0
  -29.6510  -20.7310   21.2840 C   0  0  0  0  0  3  0  0  0  0  0  0
  -29.4180  -19.6800   20.2910 C   0  0  0  0  0  0  0  0  0  0  0  0
  -28.5660  -22.8460   20.1540 C   0  0  0  0  0  0  0  0  0  0  0  0
  -29.2490  -22.1790   21.2550 C   0  0  0  0  0  0  0  0  0  0  0  0
  -29.6990  -16.7190   20.3720 C   0  0  0  0  0  3  0  0  0  0  0  0
  -30.0870  -18.1300   20.2670 C   0  0  0  0  0  0  0  0  0  0  0  0
  -30.5220  -15.3270   20.2490 C   0  0  0  0  0  0  0  0  0  0  0  0
  -30.4640  -12.8920   19.3840 C   0  0  0  0  0  2  0  0  0  0  0  0
  -29.5350  -12.7280   18.1540 C   0  0  0  0  0  2  0  0  0  0  0  0
  -28.0870  -12.4620   18.6010 C   0  0  0  0  0  2  0  0  0  0  0  0
  -27.6490  -13.4130   19.7430 C   0  0  0  0  0  3  0  0  0  0  0  0
  -28.7070  -13.5480   20.8570 C   0  0  0  0  0  2  0  0  0  0  0  0
  -29.9470  -14.0280   20.2300 N   0  0  0  0  0  0  0  0  0  0  0  0
  -31.7360  -15.2930   20.0020 O   0  0  0  0  0  0  0  0  0  0  0  0
  -25.2890  -13.9510   20.5440 C   0  0  0  0  0  0  0  0  0  0  0  0
  -24.2360  -13.1630   20.9170 C   0  0  0  0  0  0  0  0  0  0  0  0
  -24.7070  -11.8150   20.8580 C   0  0  0  0  0  0  0  0  0  0  0  0
  -26.3310  -13.0830   20.2680 N   0  0  0  0  0  0  0  0  0  0  0  0
  -25.9950  -11.7930   20.5260 N   0  0  0  0  0  0  0  0  0  0  0  0
  -23.9880  -10.5470   21.0370 C   0  0  0  0  0  0  0  0  0  0  0  0
  -24.4150   -9.5790   21.9720 C   0  0  0  0  0  3  0  0  0  0  0  0
  -23.6920   -8.3780   22.1410 C   0  0  0  0  0  3  0  0  0  0  0  0
  -22.5270   -8.1370   21.3760 C   0  0  0  0  0  0  0  0  0  0  0  0
  -22.1180   -9.0940   20.4300 C   0  0  0  0  0  3  0  0  0  0  0  0
  -22.8420  -10.2860   20.2580 C   0  0  0  0  0  3  0  0  0  0  0  0
  -21.7760   -6.9890   21.4530 O   0  0  0  0  0  0  0  0  0  0  0  0
  -21.6890   -6.2630   22.6140 C   0  0  0  0  0  0  0  0  0  0  0  0
  -21.1640   -6.8170   23.8020 C   0  0  0  0  0  3  0  0  0  0  0  0
  -21.0280   -6.0150   24.9520 C   0  0  0  0  0  3  0  0  0  0  0  0
  -21.4070   -4.6600   24.9160 C   0  0  0  0  0  0  0  0  0  0  0  0
  -21.9250   -4.1050   23.7320 C   0  0  0  0  0  3  0  0  0  0  0  0
  -22.0620   -4.9040   22.5840 C   0  0  0  0  0  0  0  0  0  0  0  0
  -22.5420   -4.3580   21.4400 F   0  0  0  0  0  0  0  0  0  0  0  0
  -21.2700   -3.8870   26.0190 F   0  0  0  0  0  0  0  0  0  0  0  0
  -22.8410  -13.6300   21.2110 C   0  0  0  0  0  0  0  0  0  0  0  0
  -22.1300  -12.9260   22.0850 N   0  0  0  0  0  0  0  0  0  0  0  0
  -22.3910  -14.6560   20.7020 O   0  0  0  0  0  0  0  0  0  0  0  0
  -22.5080  -12.0970   22.5180 H   0  0  0  0  0  0  0  0  0  0  0  0
  -21.1940  -13.2220   22.3250 H   0  0  0  0  0  0  0  0  0  0  0  0
  -25.4420  -15.3250   20.3880 N   0  0  0  0  0  0  0  0  0  0  0  0
  -24.6750  -15.9720   20.5250 H   0  0  0  0  0  0  0  0  0  0  0  0
  -26.2820  -15.7740   20.0440 H   0  0  0  0  0  0  0  0  0  0  0  0
  -31.3940  -18.3220   20.0510 O   0  0  0  0  0  0  0  0  0  0  0  0
  -31.5320  -19.2570   19.9610 H   0  0  0  0  0  0  0  0  0  0  0  0
  -30.1280  -22.4920   23.4810 C   0  0  0  0  0  1  0  0  0  0  0  0
  -29.4900  -23.0160   22.3240 O   0  0  0  0  0  0  0  0  0  0  0  0
  -27.8010  -24.4090   20.0700 C   0  0  0  0  0  2  0  0  0  0  0  0
  -28.2060  -25.9750   20.2580 O   0  0  0  0  0  0  0  0  0  0  0  0
  -24.6620  -31.8900   23.2830 C   0  0  0  0  0  0  0  0  0  0  0  0
  -27.2150  -27.0800   20.2000 C   0  0  0  0  0  0  0  0  0  0  0  0
  -23.4690  -30.5230   21.6210 C   0  0  0  0  0  3  0  0  0  0  0  0
  -24.9190  -28.9480   20.1770 C   0  0  0  0  0  0  0  0  0  0  0  0
  -26.0360  -30.7390   21.4840 C   0  0  0  0  0  2  0  0  0  0  0  0
  -26.1060  -29.3430   20.8070 C   0  0  0  0  0  0  0  0  0  0  0  0
  -27.2510  -28.4310   20.7960 C   0  0  0  0  0  3  0  0  0  0  0  0
  -25.9980  -26.8360   19.5210 C   0  0  0  0  0  3  0  0  0  0  0  0
  -24.8880  -27.7130   19.5140 C   0  0  0  0  0  3  0  0  0  0  0  0
  -23.7000  -29.8650   20.2350 C   0  0  0  0  0  2  0  0  0  0  0  0
  -24.7430  -31.0750   22.1830 N   0  0  0  0  0  0  0  0  0  0  0  0
  -23.5720  -32.1740   23.8060 O   0  0  0  0  0  0  0  0  0  0  0  0
  -22.7730  -29.5100   22.5690 C   0  0  0  0  0  0  0  0  0  0  0  0
  -21.4470  -29.3340   22.4240 N   0  0  0  0  0  0  0  0  0  0  0  0
  -23.4330  -28.8840   23.4010 O   0  0  0  0  0  0  0  0  0  0  0  0
  -20.9670  -29.8910   21.7300 H   0  0  0  0  0  0  0  0  0  0  0  0
  -18.0660  -28.1000   22.8820 C   0  0  0  0  0  0  0  0  0  0  0  0
  -20.6210  -28.3840   23.1770 C   0  0  0  0  0  3  0  0  0  0  0  0
  -20.7400  -26.9580   22.5940 C   0  0  0  0  0  2  0  0  0  0  0  0
  -19.6530  -26.6330   21.5640 C   0  0  0  0  0  2  0  0  0  0  0  0
  -18.2620  -26.7590   22.1930 C   0  0  0  0  0  2  0  0  0  0  0  0
  -19.1730  -28.8690   23.3290 C   0  0  0  0  0  0  0  0  0  0  0  0
  -18.9330  -30.1220   23.9350 C   0  0  0  0  0  3  0  0  0  0  0  0
  -17.6200  -30.6060   24.0960 C   0  0  0  0  0  3  0  0  0  0  0  0
  -16.5300  -29.8330   23.6620 C   0  0  0  0  0  3  0  0  0  0  0  0
  -16.7520  -28.5820   23.0610 C   0  0  0  0  0  3  0  0  0  0  0  0
  -25.9330  -32.5200   23.9280 C   0  0  0  0  0  3  0  0  0  0  0  0
  -26.4190  -31.7490   25.2180 C   0  0  1  0  0  0  0  0  0  0  0  0
  -25.3040  -31.5250   26.2660 C   0  0  0  0  0  1  0  0  0  0  0  0
  -26.9990  -30.3650   24.8500 C   0  0  0  0  0  1  0  0  0  0  0  0
  -27.5630  -32.5380   25.8990 C   0  0  0  0  0  1  0  0  0  0  0  0
  -25.6250  -33.9220   24.2600 N   0  0  0  0  0  0  0  0  0  0  0  0
  -25.9310  -34.9770   23.4940 C   0  0  0  0  0  0  0  0  0  0  0  0
  -26.5670  -34.8740   22.4420 O   0  0  0  0  0  0  0  0  0  0  0  0
  -25.0530  -34.0750   25.0790 H   0  0  0  0  0  0  0  0  0  0  0  0
  -24.1760  -36.7640   23.2230 C   0  0  0  0  0  1  0  0  0  0  0  0
  -25.4600  -36.3680   23.9680 C   0  0  0  0  0  3  0  0  0  0  0  0
  -27.6240  -37.2820   24.6910 C   0  0  0  0  0  1  0  0  0  0  0  0
  -26.4790  -37.4260   23.7930 N   0  0  0  0  0  0  0  0  0  0  0  0
  -26.0740  -38.3460   23.9440 H   0  0  0  0  0  0  0  0  0  0  0  0
  1  4  1  0
  2  1  2  0
  2  5  1  0
  4  3  2  0
  5  6  2  0
  6  3  1  0
  6 48  1  0
  8  4  1  0
  8  7  2  0
  9  7  1  0
 10 15  1  0
 11 12  1  0
 11 10  1  0
 13 12  1  0
 13 20  1  0
 13 14  1  0
 15  9  1  0
 15 14  1  0
 16  9  2  0
 17 18  2  0
 18 37  1  0
 19 18  1  0
 19 22  1  0
 20 21  1  0
 20 17  1  0
 21 19  2  0
 22 23  1  0
 23 24  2  0
 25 28  1  0
 25 24  1  0
 26 25  2  0
 27 26  1  0
 27 22  2  0
 28 29  1  0
 29 30  1  0
 30 31  2  0
 32 31  1  0
 32 36  1  0
 33 32  2  0
 34 29  2  0
 34 33  1  0
 35 34  1  0
 37 38  1  0
 38 41  1  0
 38 40  1  0
 39 37  2  0
 42 43  1  0
 42 17  1  0
 44 42  1  0
 45  8  1  0
 46 45  1  0
 48 47  1  0
 49  5  1  0
 49 50  1  0
 51 62  2  0
 52 50  1  0
 52 57  1  0
 53 61  1  0
 53 63  1  0
 54 60  1  0
 54 56  1  0
 55 61  1  0
 56 55  1  0
 57 56  2  0
 58 52  2  0
 59 58  1  0
 59 54  2  0
 60 53  1  0
 61 51  1  0
 63 65  2  0
 64 63  1  0
 66 64  1  0
 67 76  2  0
 67 72  1  0
 68 64  1  0
 68 72  1  0
 69 68  1  0
 70 71  1  0
 70 69  1  0
 71 67  1  0
 72 73  2  0
 73 74  1  0
 75 74  2  0
 76 75  1  0
 77 51  1  0
 77 82  1  0
 77 78  1  0
 78 81  1  1
 78 79  1  0
 80 78  1  0
 82 85  1  0
 83 87  1  0
 83 82  1  0
 84 83  2  0
 87 86  1  0
 89 90  1  0
 89 87  1  0
 89 88  1  0
M  ISO  4   7 100   9 100  49 101  50 101
M  END
>  <TORSDO>  (87) 
F 20

>  <SCORE>  (87) 
-14.888

>  <name>  (87) 
87

>  <ligand_id>  (87) 
87

>  <original_smiles>  (87) 
[H]OC(=C([H])C(=O)N1C([H])([H])C([H])([H])C([H])([H])C([H])(n2nc(-c3c([H])c([H])c(Oc4c([H])c([H])c(F)c([H])c4F)c([H])c3[H])c(C(=O)N([H])[H])c2N([H])[H])C1([H])[H])c1c([H])c([H])c(C([H])([H])Oc2c([H])c([H])c3c(c2[H])C([H])([H])N(C(=O)C([H])(N([H])C(=O)C([H])(N([H])C([H])([H])[H])C([H])([H])[H])C(C([H])([H])[H])(C([H])([H])[H])C([H])([H])[H])C([H])(C(=O)N([H])C2([H])c4c([H])c([H])c([H])c([H])c4C([H])([H])C([H])([H])C2([H])[H])C3([H])[H])c(OC([H])([H])[H])c1[H]

>  <smiles>  (87) 
[H]OC(=C([H])C(=O)N1C([H])([H])C([H])([H])C([H])([H])C([H])(n2nc(-c3c([H])c([H])c(Oc4c([H])c([H])c(F)c([H])c4F)c([H])c3[H])c(C(=O)N([H])[H])c2N([H])[H])C1([H])[H])c1c([H])c([H])c(C([H])([H])Oc2c([H])c([H])c3c(c2[H])C([H])([H])N(C(=O)C([H])(N([H])C(=O)C([H])(N([H])C([H])([H])[H])C([H])([H])[H])C(C([H])([H])[H])(C([H])([H])[H])C([H])([H])[H])C([H])(C(=O)N([H])C2([H])c4c([H])c([H])c([H])c([H])c4C([H])([H])C([H])([H])C2([H])[H])C3([H])[H])c(OC([H])([H])[H])c1[H]

$$$$
88:0:0
     RDKit          3D

 97105  0  0  1  0  0  0  0  0999 V2000
  -28.6750  -21.8750   20.5370 C   0  0  0  0  0  2  0  0  0  0  0  0
  -28.1610  -23.4350   22.4770 C   0  0  0  0  0  3  0  0  0  0  0  0
  -28.0920  -24.7140   23.0430 C   0  0  0  0  0  3  0  0  0  0  0  0
  -28.6610  -24.4220   20.3050 C   0  0  0  0  0  3  0  0  0  0  0  0
  -28.4950  -23.2740   21.1180 C   0  0  0  0  0  0  0  0  0  0  0  0
  -28.2930  -25.8580   22.2500 C   0  0  0  0  0  0  0  0  0  0  0  0
  -28.5340  -25.7190   20.8480 C   0  0  0  0  0  0  0  0  0  0  0  0
  -28.2110  -27.1940   22.9630 C   0  0  0  0  0  1  0  0  0  0  0  0
  -28.6080  -26.7950   19.9800 O   0  0  0  0  0  0  0  0  0  0  0  0
  -24.6600  -31.7130   23.0640 C   0  0  0  0  0  0  0  0  0  0  0  0
  -27.4510  -27.5180   19.8520 C   0  0  0  0  0  0  0  0  0  0  0  0
  -23.4890  -30.2980   21.4010 C   0  0  0  0  0  3  0  0  0  0  0  0
  -24.9880  -28.8820   19.8980 C   0  0  0  0  0  0  0  0  0  0  0  0
  -25.9810  -30.8050   21.1600 C   0  0  0  0  0  2  0  0  0  0  0  0
  -26.1260  -29.4680   20.4690 C   0  0  0  0  0  0  0  0  0  0  0  0
  -27.3690  -28.8110   20.4100 C   0  0  0  0  0  3  0  0  0  0  0  0
  -26.3060  -26.9420   19.2580 C   0  0  0  0  0  3  0  0  0  0  0  0
  -25.0740  -27.6250   19.2740 C   0  0  0  0  0  3  0  0  0  0  0  0
  -23.7010  -29.6640   19.9990 C   0  0  0  0  0  2  0  0  0  0  0  0
  -24.7300  -30.9470   21.9370 N   0  0  0  0  0  0  0  0  0  0  0  0
  -23.5750  -31.9170   23.6280 O   0  0  0  0  0  0  0  0  0  0  0  0
  -22.9030  -29.2230   22.3440 C   0  0  0  0  0  0  0  0  0  0  0  0
  -21.5880  -28.9790   22.2250 N   0  0  0  0  0  0  0  0  0  0  0  0
  -23.6290  -28.6170   23.1370 O   0  0  0  0  0  0  0  0  0  0  0  0
  -21.0660  -29.5200   21.5510 H   0  0  0  0  0  0  0  0  0  0  0  0
  -18.2870  -27.5960   22.7180 C   0  0  0  0  0  0  0  0  0  0  0  0
  -20.8290  -27.9860   22.9880 C   0  0  0  0  0  3  0  0  0  0  0  0
  -21.0070  -26.5750   22.3860 C   0  0  0  0  0  2  0  0  0  0  0  0
  -19.9210  -26.2130   21.3670 C   0  0  0  0  0  2  0  0  0  0  0  0
  -18.5350  -26.2700   22.0160 C   0  0  0  0  0  2  0  0  0  0  0  0
  -19.3640  -28.4090   23.1580 C   0  0  0  0  0  0  0  0  0  0  0  0
  -19.0790  -29.6490   23.7710 C   0  0  0  0  0  3  0  0  0  0  0  0
  -17.7500  -30.0790   23.9470 C   0  0  0  0  0  3  0  0  0  0  0  0
  -16.6870  -29.2640   23.5190 C   0  0  0  0  0  3  0  0  0  0  0  0
  -16.9560  -28.0240   22.9130 C   0  0  0  0  0  3  0  0  0  0  0  0
  -25.9280  -32.3840   23.6830 C   0  0  0  0  0  3  0  0  0  0  0  0
  -25.5630  -33.7570   24.0540 N   0  0  0  0  0  0  0  0  0  0  0  0
  -25.8390  -34.8410   23.3160 C   0  0  0  0  0  0  0  0  0  0  0  0
  -26.5020  -34.7950   22.2760 O   0  0  0  0  0  0  0  0  0  0  0  0
  -24.9800  -33.8660   24.8720 H   0  0  0  0  0  0  0  0  0  0  0  0
  -24.0190  -36.5490   23.0290 C   0  0  0  0  0  1  0  0  0  0  0  0
  -25.2940  -36.1930   23.8130 C   0  0  0  0  0  3  0  0  0  0  0  0
  -27.4030  -37.1560   24.6220 C   0  0  0  0  0  1  0  0  0  0  0  0
  -26.2720  -37.2990   23.7060 N   0  0  0  0  0  0  0  0  0  0  0  0
  -25.8250  -38.1920   23.8910 H   0  0  0  0  0  0  0  0  0  0  0  0
  -26.5010  -31.6010   24.9280 C   0  0  1  0  0  0  0  0  0  0  0  0
  -25.4380  -31.2820   26.0030 C   0  0  0  0  0  1  0  0  0  0  0  0
  -27.1340  -30.2650   24.4790 C   0  0  0  0  0  1  0  0  0  0  0  0
  -27.6270  -32.4230   25.5970 C   0  0  0  0  0  1  0  0  0  0  0  0
  -30.0600  -21.3770   20.7100 N   0  0  0  0  0  4  0  0  0  0  0  0
  -30.6830  -22.1660   20.6840 H   0  0  0  0  0  0  0  0  0  0  0  0
  -30.2700  -20.8090   19.9070 H   0  0  0  0  0  0  0  0  0  0  0  0
  -31.3110  -21.2580   22.8720 C   0  0  0  0  0  1  0  0  0  0  0  0
  -30.2990  -20.5730   21.9340 C   0  0  0  0  0  3  0  0  0  0  0  0
  -30.7270  -19.1330   21.5850 C   0  0  0  0  0  2  0  0  0  0  0  0
  -30.3910  -18.1440   22.7160 C   0  0  0  0  0  2  0  0  0  0  0  0
  -30.3470  -16.6770   22.2630 C   0  0  0  0  0  2  0  0  0  0  0  0
  -31.7410  -16.0780   21.9890 C   0  0  0  0  0  2  0  0  0  0  0  0
  -31.9630  -15.6020   20.5420 C   0  0  0  0  0  2  0  0  0  0  0  0
  -31.2150  -13.6280   19.2080 C   0  0  0  0  0  0  0  0  0  0  0  0
  -30.6140  -11.3590   18.4540 C   0  0  0  0  0  2  0  0  0  0  0  0
  -29.5030  -11.3290   17.3910 C   0  0  0  0  0  2  0  0  0  0  0  0
  -28.1110  -11.3520   18.0450 C   0  0  0  0  0  2  0  0  0  0  0  0
  -27.9720  -12.4880   19.0900 C   0  0  0  0  0  3  0  0  0  0  0  0
  -29.1580  -12.4680   20.0760 C   0  0  0  0  0  2  0  0  0  0  0  0
  -30.4200  -12.5360   19.3100 N   0  0  0  0  0  0  0  0  0  0  0  0
  -32.0500  -13.7970   18.3130 O   0  0  0  0  0  0  0  0  0  0  0  0
  -31.1320  -14.4400   20.2660 N   0  0  0  0  0  0  0  0  0  0  0  0
  -30.4630  -14.1780   20.9740 H   0  0  0  0  0  0  0  0  0  0  0  0
  -25.8560  -13.4340   20.2170 C   0  0  0  0  0  0  0  0  0  0  0  0
  -24.7560  -12.8220   20.7570 C   0  0  0  0  0  0  0  0  0  0  0  0
  -24.9810  -11.4170   20.6210 C   0  0  0  0  0  0  0  0  0  0  0  0
  -26.6890  -12.4120   19.7910 N   0  0  0  0  0  0  0  0  0  0  0  0
  -26.1750  -11.1900   20.0890 N   0  0  0  0  0  0  0  0  0  0  0  0
  -24.1060  -10.2750   20.9150 C   0  0  0  0  0  0  0  0  0  0  0  0
  -24.5080   -9.2420   21.7900 C   0  0  0  0  0  3  0  0  0  0  0  0
  -23.6410   -8.1640   22.0690 C   0  0  0  0  0  3  0  0  0  0  0  0
  -22.3570   -8.1130   21.4740 C   0  0  0  0  0  0  0  0  0  0  0  0
  -21.9720   -9.1330   20.5860 C   0  0  0  0  0  3  0  0  0  0  0  0
  -22.8390  -10.2020   20.3040 C   0  0  0  0  0  3  0  0  0  0  0  0
  -21.4560   -7.0940   21.6670 O   0  0  0  0  0  0  0  0  0  0  0  0
  -21.4140   -6.3850   22.8410 C   0  0  0  0  0  0  0  0  0  0  0  0
  -21.2050   -7.0150   24.0860 C   0  0  0  0  0  3  0  0  0  0  0  0
  -21.0960   -6.2420   25.2590 C   0  0  0  0  0  3  0  0  0  0  0  0
  -21.1890   -4.8380   25.1880 C   0  0  0  0  0  0  0  0  0  0  0  0
  -21.3930   -4.2080   23.9490 C   0  0  0  0  0  3  0  0  0  0  0  0
  -21.5030   -4.9790   22.7780 C   0  0  0  0  0  0  0  0  0  0  0  0
  -21.6770   -4.3650   21.5830 F   0  0  0  0  0  0  0  0  0  0  0  0
  -21.0780   -4.0940   26.3130 F   0  0  0  0  0  0  0  0  0  0  0  0
  -23.5220  -13.4970   21.2800 C   0  0  0  0  0  0  0  0  0  0  0  0
  -22.8720  -12.9010   22.2740 N   0  0  0  0  0  0  0  0  0  0  0  0
  -23.1510  -14.5860   20.8400 O   0  0  0  0  0  0  0  0  0  0  0  0
  -23.1880  -12.0190   22.6500 H   0  0  0  0  0  0  0  0  0  0  0  0
  -22.0480  -13.3340   22.6660 H   0  0  0  0  0  0  0  0  0  0  0  0
  -26.2060  -14.7700   20.0380 N   0  0  0  0  0  0  0  0  0  0  0  0
  -25.5860  -15.5310   20.2920 H   0  0  0  0  0  0  0  0  0  0  0  0
  -27.0550  -15.0840   19.5830 H   0  0  0  0  0  0  0  0  0  0  0  0
  1 50  1  0
  1  5  1  0
  2  3  1  0
  4  7  2  0
  4  5  1  0
  5  2  2  0
  6  8  1  0
  6  3  2  0
  7  6  1  0
  9  7  1  0
 10 21  2  0
 11  9  1  0
 11 16  1  0
 12 20  1  0
 12 22  1  0
 13 19  1  0
 13 15  1  0
 14 20  1  0
 15 14  1  0
 16 15  2  0
 17 18  1  0
 17 11  2  0
 18 13  2  0
 19 12  1  0
 20 10  1  0
 22 24  2  0
 23 22  1  0
 25 23  1  0
 26 35  2  0
 26 31  1  0
 27 23  1  0
 27 31  1  0
 28 27  1  0
 29 30  1  0
 29 28  1  0
 30 26  1  0
 31 32  2  0
 32 33  1  0
 34 33  2  0
 35 34  1  0
 36 10  1  0
 36 37  1  0
 36 46  1  0
 37 40  1  0
 38 42  1  0
 38 37  1  0
 39 38  2  0
 42 41  1  0
 44 42  1  0
 44 45  1  0
 44 43  1  0
 46 49  1  1
 46 47  1  0
 48 46  1  0
 50 54  1  0
 51 50  1  0
 52 50  1  0
 54 53  1  0
 55 54  1  0
 55 56  1  0
 57 56  1  0
 58 57  1  0
 59 58  1  0
 60 66  1  0
 60 68  1  0
 61 66  1  0
 62 63  1  0
 62 61  1  0
 64 63  1  0
 64 73  1  0
 64 65  1  0
 66 65  1  0
 67 60  2  0
 68 59  1  0
 68 69  1  0
 70 71  2  0
 71 90  1  0
 72 71  1  0
 72 75  1  0
 73 74  1  0
 73 70  1  0
 74 72  2  0
 75 76  1  0
 76 77  2  0
 78 81  1  0
 78 77  1  0
 79 78  2  0
 80 79  1  0
 80 75  2  0
 81 82  1  0
 82 83  1  0
 83 84  2  0
 85 84  1  0
 85 89  1  0
 86 85  2  0
 87 82  2  0
 87 86  1  0
 88 87  1  0
 90 91  1  0
 91 93  1  0
 91 94  1  0
 92 90  2  0
 95 70  1  0
 95 96  1  0
 97 95  1  0
M  ISO  4   7 101   9 101  60 100  68 100
M  END
>  <TORSDO>  (88) 
F 24

>  <SCORE>  (88) 
-9.031

>  <name>  (88) 
88

>  <ligand_id>  (88) 
88

>  <original_smiles>  (88) 
[H]c1c([H])c([H])c2c(c1[H])C([H])([H])C([H])([H])C([H])([H])C2([H])N([H])C(=O)C1([H])N(C(=O)C([H])(N([H])C(=O)C([H])(N([H])C([H])([H])[H])C([H])([H])[H])C(C([H])([H])[H])(C([H])([H])[H])C([H])([H])[H])C([H])([H])c2c([H])c(Oc3c([H])c(C([H])([H])[N+]([H])([H])C([H])(C([H])([H])[H])C([H])([H])C([H])([H])C([H])([H])C([H])([H])C([H])([H])N([H])C(=O)N4C([H])([H])C([H])([H])C([H])([H])C([H])(n5nc(-c6c([H])c([H])c(Oc7c([H])c([H])c(F)c([H])c7F)c([H])c6[H])c(C(=O)N([H])[H])c5N([H])[H])C4([H])[H])c([H])c([H])c3C([H])([H])[H])c([H])c([H])c2C1([H])[H]

>  <smiles>  (88) 
[H]c1c([H])c([H])c2c(c1[H])C([H])([H])C([H])([H])C([H])([H])C2([H])N([H])C(=O)C1([H])N(C(=O)C([H])(N([H])C(=O)C([H])(N([H])C([H])([H])[H])C([H])([H])[H])C(C([H])([H])[H])(C([H])([H])[H])C([H])([H])[H])C([H])([H])c2c([H])c(Oc3c([H])c(C([H])([H])[N+]([H])([H])C([H])(C([H])([H])[H])C([H])([H])C([H])([H])C([H])([H])C([H])([H])C([H])([H])N([H])C(=O)N4C([H])([H])C([H])([H])C([H])([H])C([H])(n5nc(-c6c([H])c([H])c(Oc7c([H])c([H])c(F)c([H])c7F)c([H])c6[H])c(C(=O)N([H])[H])c5N([H])[H])C4([H])[H])c([H])c([H])c3C([H])([H])[H])c([H])c([H])c2C1([H])[H]

$$$$
89:0:0
     RDKit          3D

 89 96  0  0  1  0  0  0  0  0999 V2000
  -28.1850  -20.5870   19.5870 C   0  0  0  0  0  3  0  0  0  0  0  0
  -27.7910  -22.1290   19.6020 C   0  0  0  0  0  3  0  0  0  0  0  0
  -30.2300  -21.0860   19.6810 C   0  0  0  0  0  3  0  0  0  0  0  0
  -29.4810  -19.7430   19.6200 C   0  0  0  0  0  3  0  0  0  0  0  0
  -28.5630  -23.4570   19.6780 C   0  0  0  0  0  0  0  0  0  0  0  0
  -29.8630  -22.6300   19.6930 C   0  0  0  0  0  0  0  0  0  0  0  0
  -30.9660  -23.4150   19.7430 F   0  0  0  0  0  0  0  0  0  0  0  0
  -29.8980  -17.8420   19.9680 C   0  0  0  0  0  2  0  0  0  0  0  0
  -29.6810  -17.7400   21.3130 C   0  0  0  0  0  3  0  0  0  0  0  0
  -29.1810  -18.8230   22.2670 C   0  0  0  0  0  1  0  0  0  0  0  0
  -30.5280  -16.2100   19.3560 C   0  0  0  0  0  0  0  0  0  0  0  0
  -30.5610  -13.5670   18.4680 C   0  0  0  0  0  2  0  0  0  0  0  0
  -29.5280  -13.0650   17.3950 C   0  0  0  0  0  2  0  0  0  0  0  0
  -28.2050  -12.6280   18.0360 C   0  0  0  0  0  2  0  0  0  0  0  0
  -27.8310  -13.6130   19.1560 C   0  0  0  0  0  3  0  0  0  0  0  0
  -29.0000  -13.9700   20.1100 C   0  0  0  0  0  2  0  0  0  0  0  0
  -30.0440  -14.7570   19.3580 N   0  0  0  0  0  0  0  0  0  0  0  0
  -31.6590  -16.0560   18.8290 O   0  0  0  0  0  0  0  0  0  0  0  0
  -25.6900  -14.1470   20.3940 C   0  0  0  0  0  0  0  0  0  0  0  0
  -24.6580  -13.3850   20.8620 C   0  0  0  0  0  0  0  0  0  0  0  0
  -25.0170  -12.0250   20.6000 C   0  0  0  0  0  0  0  0  0  0  0  0
  -26.6080  -13.2610   19.8670 N   0  0  0  0  0  0  0  0  0  0  0  0
  -26.2310  -11.9670   20.0510 N   0  0  0  0  0  0  0  0  0  0  0  0
  -24.2400  -10.7910   20.7870 C   0  0  0  0  0  0  0  0  0  0  0  0
  -24.6850   -9.7560   21.6400 C   0  0  0  0  0  3  0  0  0  0  0  0
  -23.9060   -8.5920   21.8210 C   0  0  0  0  0  3  0  0  0  0  0  0
  -22.6660   -8.4550   21.1520 C   0  0  0  0  0  0  0  0  0  0  0  0
  -22.2360   -9.4790   20.2900 C   0  0  0  0  0  3  0  0  0  0  0  0
  -23.0160  -10.6330   20.1060 C   0  0  0  0  0  3  0  0  0  0  0  0
  -21.8560   -7.3480   21.2460 O   0  0  0  0  0  0  0  0  0  0  0  0
  -21.7540   -6.6260   22.4080 C   0  0  0  0  0  0  0  0  0  0  0  0
  -21.3380   -7.2200   23.6190 C   0  0  0  0  0  3  0  0  0  0  0  0
  -21.1820   -6.4270   24.7750 C   0  0  0  0  0  3  0  0  0  0  0  0
  -21.4300   -5.0420   24.7180 C   0  0  0  0  0  0  0  0  0  0  0  0
  -21.8380   -4.4480   23.5100 C   0  0  0  0  0  3  0  0  0  0  0  0
  -21.9970   -5.2390   22.3590 C   0  0  0  0  0  0  0  0  0  0  0  0
  -22.3700   -4.6570   21.1930 F   0  0  0  0  0  0  0  0  0  0  0  0
  -21.2730   -4.2790   25.8250 F   0  0  0  0  0  0  0  0  0  0  0  0
  -23.3670  -13.9010   21.4250 C   0  0  0  0  0  0  0  0  0  0  0  0
  -22.7690  -13.1720   22.3580 N   0  0  0  0  0  0  0  0  0  0  0  0
  -22.9100  -14.9890   21.0740 O   0  0  0  0  0  0  0  0  0  0  0  0
  -23.1600  -12.2930   22.6630 H   0  0  0  0  0  0  0  0  0  0  0  0
  -21.9080  -13.4960   22.7740 H   0  0  0  0  0  0  0  0  0  0  0  0
  -25.9160  -15.5200   20.3440 N   0  0  0  0  0  0  0  0  0  0  0  0
  -25.2450  -16.1940   20.6960 H   0  0  0  0  0  0  0  0  0  0  0  0
  -26.7520  -15.9470   19.9680 H   0  0  0  0  0  0  0  0  0  0  0  0
  -29.9420  -16.6630   22.0610 O   0  0  0  0  0  0  0  0  0  0  0  0
  -29.7110  -16.8740   22.9570 H   0  0  0  0  0  0  0  0  0  0  0  0
  -28.3150  -25.1680   19.6650 O   0  0  0  0  0  0  0  0  0  0  0  0
  -24.5780  -31.5560   22.8360 C   0  0  0  0  0  0  0  0  0  0  0  0
  -27.2700  -26.4270   19.7110 C   0  0  0  0  0  0  0  0  0  0  0  0
  -23.4290  -30.1310   21.1980 C   0  0  0  0  0  3  0  0  0  0  0  0
  -24.9240  -28.5260   19.7360 C   0  0  0  0  0  0  0  0  0  0  0  0
  -26.0100  -30.3200   21.0540 C   0  0  0  0  0  2  0  0  0  0  0  0
  -26.1230  -28.8740   20.3680 C   0  0  0  0  0  0  0  0  0  0  0  0
  -27.2600  -27.8600   20.3170 C   0  0  0  0  0  3  0  0  0  0  0  0
  -26.0230  -26.3640   19.0150 C   0  0  0  0  0  3  0  0  0  0  0  0
  -24.9270  -27.3030   19.0360 C   0  0  0  0  0  3  0  0  0  0  0  0
  -23.6850  -29.4530   19.8160 C   0  0  0  0  0  2  0  0  0  0  0  0
  -24.6980  -30.7100   21.7470 N   0  0  0  0  0  0  0  0  0  0  0  0
  -23.4770  -31.8050   23.3640 O   0  0  0  0  0  0  0  0  0  0  0  0
  -22.7560  -29.1250   22.1730 C   0  0  0  0  0  0  0  0  0  0  0  0
  -21.4250  -28.9310   22.0830 N   0  0  0  0  0  0  0  0  0  0  0  0
  -23.4500  -28.5130   22.9890 O   0  0  0  0  0  0  0  0  0  0  0  0
  -20.9090  -29.4790   21.4080 H   0  0  0  0  0  0  0  0  0  0  0  0
  -18.1040  -27.5550   22.6490 C   0  0  0  0  0  0  0  0  0  0  0  0
  -20.6550  -27.9470   22.8560 C   0  0  0  0  0  3  0  0  0  0  0  0
  -20.8080  -26.5290   22.2550 C   0  0  0  0  0  2  0  0  0  0  0  0
  -19.7010  -26.1720   21.2590 C   0  0  0  0  0  2  0  0  0  0  0  0
  -18.3290  -26.2330   21.9350 C   0  0  0  0  0  2  0  0  0  0  0  0
  -19.1920  -28.3670   23.0670 C   0  0  0  0  0  0  0  0  0  0  0  0
  -18.9200  -29.5970   23.7030 C   0  0  0  0  0  3  0  0  0  0  0  0
  -17.5940  -30.0190   23.9190 C   0  0  0  0  0  3  0  0  0  0  0  0
  -16.5220  -29.2080   23.5110 C   0  0  0  0  0  3  0  0  0  0  0  0
  -16.7780  -27.9760   22.8830 C   0  0  0  0  0  3  0  0  0  0  0  0
  -25.8110  -32.2630   23.4770 C   0  0  0  0  0  3  0  0  0  0  0  0
  -25.4080  -33.6240   23.8950 N   0  0  0  0  0  0  0  0  0  0  0  0
  -25.6580  -34.7530   23.2160 C   0  0  0  0  0  0  0  0  0  0  0  0
  -26.3020  -34.7630   22.1650 O   0  0  0  0  0  0  0  0  0  0  0  0
  -24.8260  -33.6860   24.7170 H   0  0  0  0  0  0  0  0  0  0  0  0
  -23.8170  -36.4710   23.0620 C   0  0  0  0  0  1  0  0  0  0  0  0
  -25.1140  -36.0800   23.7910 C   0  0  0  0  0  3  0  0  0  0  0  0
  -27.2220  -37.0500   24.6010 C   0  0  0  0  0  1  0  0  0  0  0  0
  -26.0780  -37.2000   23.7060 N   0  0  0  0  0  0  0  0  0  0  0  0
  -25.6220  -38.0830   23.9170 H   0  0  0  0  0  0  0  0  0  0  0  0
  -26.3920  -31.4830   24.7210 C   0  0  1  0  0  0  0  0  0  0  0  0
  -25.3340  -31.1500   25.8000 C   0  0  0  0  0  1  0  0  0  0  0  0
  -27.0450  -30.1520   24.2910 C   0  0  0  0  0  1  0  0  0  0  0  0
  -27.5090  -32.3210   25.3880 C   0  0  0  0  0  1  0  0  0  0  0  0
  1  2  2  0
  1  4  1  0
  2  5  1  0
  3  6  1  0
  4  3  2  0
  5  6  2  0
  6  7  1  0
  8  9  1  0
  9 47  1  0
  9 10  1  0
 11 17  1  0
 11  8  1  0
 12 17  1  0
 13 14  1  0
 13 12  1  0
 15 14  1  0
 15 22  1  0
 15 16  1  0
 17 16  1  0
 18 11  2  0
 19 20  2  0
 20 39  1  0
 21 24  1  0
 21 20  1  0
 22 23  1  0
 22 19  1  0
 23 21  2  0
 24 25  1  0
 25 26  2  0
 27 30  1  0
 27 26  1  0
 28 27  2  0
 29 28  1  0
 29 24  2  0
 30 31  1  0
 31 32  1  0
 32 33  2  0
 34 33  1  0
 34 38  1  0
 35 34  2  0
 36 31  2  0
 36 35  1  0
 37 36  1  0
 39 40  1  0
 40 42  1  0
 40 43  1  0
 41 39  2  0
 44 19  1  0
 44 45  1  0
 46 44  1  0
 47 48  1  0
 49  5  1  0
 49 51  1  0
 50 61  2  0
 51 56  1  0
 52 60  1  0
 52 62  1  0
 53 59  1  0
 53 55  1  0
 54 60  1  0
 55 54  1  0
 56 55  2  0
 57 58  1  0
 57 51  2  0
 58 53  2  0
 59 52  1  0
 60 50  1  0
 62 64  2  0
 63 62  1  0
 65 63  1  0
 66 75  2  0
 66 71  1  0
 67 63  1  0
 67 71  1  0
 68 67  1  0
 69 70  1  0
 69 68  1  0
 70 66  1  0
 71 72  2  0
 72 73  1  0
 74 73  2  0
 75 74  1  0
 76 50  1  0
 76 77  1  0
 76 86  1  0
 77 80  1  0
 78 82  1  0
 78 77  1  0
 79 78  2  0
 82 81  1  0
 84 82  1  0
 84 85  1  0
 84 83  1  0
 86 89  1  1
 86 87  1  0
 88 86  1  0
M  ISO  4   5 101   8 100  11 100  49 101
M  END
>  <TORSDO>  (89) 
F 18

>  <SCORE>  (89) 
-11.903

>  <name>  (89) 
89

>  <ligand_id>  (89) 
89

>  <original_smiles>  (89) 
[H]OC(=C(C(=O)N1C([H])([H])C([H])([H])C([H])([H])C([H])(n2nc(-c3c([H])c([H])c(Oc4c([H])c([H])c(F)c([H])c4F)c([H])c3[H])c(C(=O)N([H])[H])c2N([H])[H])C1([H])[H])c1c([H])c([H])c(Oc2c([H])c([H])c3c(c2[H])C([H])([H])N(C(=O)C([H])(N([H])C(=O)C([H])(N([H])C([H])([H])[H])C([H])([H])[H])C(C([H])([H])[H])(C([H])([H])[H])C([H])([H])[H])C([H])(C(=O)N([H])C2([H])c4c([H])c([H])c([H])c([H])c4C([H])([H])C([H])([H])C2([H])[H])C3([H])[H])c(F)c1[H])C([H])([H])[H]

>  <smiles>  (89) 
[H]OC(=C(C(=O)N1C([H])([H])C([H])([H])C([H])([H])C([H])(n2nc(-c3c([H])c([H])c(Oc4c([H])c([H])c(F)c([H])c4F)c([H])c3[H])c(C(=O)N([H])[H])c2N([H])[H])C1([H])[H])c1c([H])c([H])c(Oc2c([H])c([H])c3c(c2[H])C([H])([H])N(C(=O)C([H])(N([H])C(=O)C([H])(N([H])C([H])([H])[H])C([H])([H])[H])C(C([H])([H])[H])(C([H])([H])[H])C([H])([H])[H])C([H])(C(=O)N([H])C2([H])c4c([H])c([H])c([H])c([H])c4C([H])([H])C([H])([H])C2([H])[H])C3([H])[H])c(F)c1[H])C([H])([H])[H]

$$$$
90:0:0
     RDKit          3D

 92101  0  0  1  0  0  0  0  0999 V2000
  -29.0290  -23.2480   20.1460 C   0  0  0  0  0  3  0  0  0  0  0  0
  -27.3710  -21.5240   20.4120 C   0  0  0  0  0  3  0  0  0  0  0  0
  -28.7530  -21.7040   20.2380 C   0  0  0  0  0  0  0  0  0  0  0  0
  -26.8030  -23.9630   20.7080 C   0  0  0  0  0  0  0  0  0  0  0  0
  -28.0760  -24.4840   20.2960 C   0  0  0  0  0  0  0  0  0  0  0  0
  -26.4640  -22.5810   20.6480 C   0  0  0  0  0  0  0  0  0  0  0  0
  -25.7390  -24.8180   21.3780 C   0  0  0  0  0  1  0  0  0  0  0  0
  -25.1800  -22.2250   20.9110 F   0  0  0  0  0  0  0  0  0  0  0  0
  -28.2770  -26.0410   20.2020 O   0  0  0  0  0  0  0  0  0  0  0  0
  -24.6770  -31.9870   23.3200 C   0  0  0  0  0  0  0  0  0  0  0  0
  -27.3030  -27.1980   20.1570 C   0  0  0  0  0  0  0  0  0  0  0  0
  -23.5230  -30.6540   21.6050 C   0  0  0  0  0  3  0  0  0  0  0  0
  -25.0020  -29.1070   20.1460 C   0  0  0  0  0  0  0  0  0  0  0  0
  -26.0950  -30.8650   21.5190 C   0  0  0  0  0  2  0  0  0  0  0  0
  -26.1820  -29.4790   20.8070 C   0  0  0  0  0  0  0  0  0  0  0  0
  -27.3210  -28.5450   20.7920 C   0  0  0  0  0  3  0  0  0  0  0  0
  -26.1120  -27.0210   19.4110 C   0  0  0  0  0  3  0  0  0  0  0  0
  -24.9940  -27.8980   19.4340 C   0  0  0  0  0  3  0  0  0  0  0  0
  -23.7820  -30.0290   20.2080 C   0  0  0  0  0  2  0  0  0  0  0  0
  -24.7870  -31.1960   22.2010 N   0  0  0  0  0  0  0  0  0  0  0  0
  -23.5770  -32.2470   23.8320 O   0  0  0  0  0  0  0  0  0  0  0  0
  -22.8180  -29.6150   22.5160 C   0  0  0  0  0  0  0  0  0  0  0  0
  -21.4930  -29.4390   22.3540 N   0  0  0  0  0  0  0  0  0  0  0  0
  -23.4700  -28.9720   23.3420 O   0  0  0  0  0  0  0  0  0  0  0  0
  -21.0190  -30.0090   21.6670 H   0  0  0  0  0  0  0  0  0  0  0  0
  -18.1080  -28.2000   22.7820 C   0  0  0  0  0  0  0  0  0  0  0  0
  -20.6660  -28.4620   23.0710 C   0  0  0  0  0  3  0  0  0  0  0  0
  -20.7730  -27.0600   22.4240 C   0  0  0  0  0  2  0  0  0  0  0  0
  -19.6770  -26.7860   21.3890 C   0  0  0  0  0  2  0  0  0  0  0  0
  -18.2920  -26.8910   22.0330 C   0  0  0  0  0  2  0  0  0  0  0  0
  -19.2210  -28.9450   23.2550 C   0  0  0  0  0  0  0  0  0  0  0  0
  -18.9890  -30.1680   23.9200 C   0  0  0  0  0  3  0  0  0  0  0  0
  -17.6800  -30.6480   24.1140 C   0  0  0  0  0  3  0  0  0  0  0  0
  -16.5810  -29.9000   23.6540 C   0  0  0  0  0  3  0  0  0  0  0  0
  -16.7970  -28.6790   22.9920 C   0  0  0  0  0  3  0  0  0  0  0  0
  -25.9310  -32.6110   24.0030 C   0  0  0  0  0  3  0  0  0  0  0  0
  -25.6110  -34.0120   24.3380 N   0  0  0  0  0  0  0  0  0  0  0  0
  -25.9330  -35.0750   23.5910 C   0  0  0  0  0  0  0  0  0  0  0  0
  -26.5910  -34.9830   22.5510 O   0  0  0  0  0  0  0  0  0  0  0  0
  -25.0150  -34.1550   25.1410 H   0  0  0  0  0  0  0  0  0  0  0  0
  -24.1740  -36.8610   23.3210 C   0  0  0  0  0  1  0  0  0  0  0  0
  -25.4560  -36.4620   24.0700 C   0  0  0  0  0  3  0  0  0  0  0  0
  -27.6130  -37.3810   24.8070 C   0  0  0  0  0  1  0  0  0  0  0  0
  -26.4730  -37.5260   23.9070 N   0  0  0  0  0  0  0  0  0  0  0  0
  -26.0620  -38.4440   24.0570 H   0  0  0  0  0  0  0  0  0  0  0  0
  -26.3810  -31.8330   25.3040 C   0  0  1  0  0  0  0  0  0  0  0  0
  -25.2360  -31.6060   26.3180 C   0  0  0  0  0  1  0  0  0  0  0  0
  -26.9660  -30.4470   24.9470 C   0  0  0  0  0  1  0  0  0  0  0  0
  -27.5080  -32.6170   26.0160 C   0  0  0  0  0  1  0  0  0  0  0  0
  -29.6960  -20.1980   20.3720 C   0  0  0  0  0  2  0  0  0  0  0  0
  -28.7480  -18.8560   17.7580 C   0  0  0  0  0  2  0  0  0  0  0  0
  -30.1190  -18.4210   18.2820 C   0  0  0  0  0  2  0  0  0  0  0  0
  -28.1920  -18.2200   19.0220 C   0  0  0  0  0  2  0  0  0  0  0  0
  -29.5520  -18.4810   19.7230 C   0  0  2  0  0  0  0  0  0  0  0  0
  -30.6600  -15.6940   20.1760 C   0  0  0  0  0  0  0  0  0  0  0  0
  -30.6870  -13.2020   19.4070 C   0  0  0  0  0  2  0  0  0  0  0  0
  -29.7980  -12.9730   18.1550 C   0  0  0  0  0  2  0  0  0  0  0  0
  -28.3460  -12.6810   18.5750 C   0  0  0  0  0  2  0  0  0  0  0  0
  -27.8650  -13.6580   19.6800 C   0  0  0  0  0  3  0  0  0  0  0  0
  -28.8910  -13.8470   20.8220 C   0  0  0  0  0  2  0  0  0  0  0  0
  -30.1310  -14.3620   20.2110 N   0  0  0  0  0  0  0  0  0  0  0  0
  -31.8440  -15.7080   19.8120 O   0  0  0  0  0  0  0  0  0  0  0  0
  -29.8980  -16.9630   20.4080 N   0  0  0  0  0  0  0  0  0  0  0  0
  -29.1300  -16.7210   21.0200 H   0  0  0  0  0  0  0  0  0  0  0  0
  -25.4870  -14.2030   20.4130 C   0  0  0  0  0  0  0  0  0  0  0  0
  -24.4230  -13.4240   20.7740 C   0  0  0  0  0  0  0  0  0  0  0  0
  -24.8950  -12.0730   20.7480 C   0  0  0  0  0  0  0  0  0  0  0  0
  -26.5340  -13.3320   20.1740 N   0  0  0  0  0  0  0  0  0  0  0  0
  -26.1900  -12.0440   20.4430 N   0  0  0  0  0  0  0  0  0  0  0  0
  -24.1700  -10.8090   20.9350 C   0  0  0  0  0  0  0  0  0  0  0  0
  -24.5500   -9.8780   21.9260 C   0  0  0  0  0  3  0  0  0  0  0  0
  -23.8220   -8.6800   22.0990 C   0  0  0  0  0  3  0  0  0  0  0  0
  -22.7020   -8.4060   21.2800 C   0  0  0  0  0  0  0  0  0  0  0  0
  -22.3420   -9.3250   20.2780 C   0  0  0  0  0  3  0  0  0  0  0  0
  -23.0710  -10.5140   20.1030 C   0  0  0  0  0  3  0  0  0  0  0  0
  -21.9520   -7.2560   21.3560 O   0  0  0  0  0  0  0  0  0  0  0  0
  -21.7800   -6.5870   22.5400 C   0  0  0  0  0  0  0  0  0  0  0  0
  -21.1880   -7.2010   23.6660 C   0  0  0  0  0  3  0  0  0  0  0  0
  -20.9710   -6.4540   24.8420 C   0  0  0  0  0  3  0  0  0  0  0  0
  -21.3360   -5.0960   24.8930 C   0  0  0  0  0  0  0  0  0  0  0  0
  -21.9200   -4.4800   23.7720 C   0  0  0  0  0  3  0  0  0  0  0  0
  -22.1390   -5.2240   22.5970 C   0  0  0  0  0  0  0  0  0  0  0  0
  -22.6860   -4.6220   21.5150 F   0  0  0  0  0  0  0  0  0  0  0  0
  -21.1190   -4.3770   26.0200 F   0  0  0  0  0  0  0  0  0  0  0  0
  -23.0240  -13.8990   21.0310 C   0  0  0  0  0  0  0  0  0  0  0  0
  -22.2850  -13.2080   21.8920 N   0  0  0  0  0  0  0  0  0  0  0  0
  -22.5910  -14.9260   20.5070 O   0  0  0  0  0  0  0  0  0  0  0  0
  -22.6420  -12.3780   22.3420 H   0  0  0  0  0  0  0  0  0  0  0  0
  -21.3480  -13.5160   22.1060 H   0  0  0  0  0  0  0  0  0  0  0  0
  -25.6530  -15.5740   20.2390 N   0  0  0  0  0  0  0  0  0  0  0  0
  -24.9070  -16.2460   20.3800 H   0  0  0  0  0  0  0  0  0  0  0  0
  -26.5100  -16.0020   19.9140 H   0  0  0  0  0  0  0  0  0  0  0  0
  1  3  2  0
  1  5  1  0
  2  6  2  0
  3 50  1  0
  3  2  1  0
  4  7  1  0
  5  4  2  0
  6  4  1  0
  6  8  1  0
  9  5  1  0
 10 21  2  0
 11  9  1  0
 11 16  1  0
 12 20  1  0
 12 22  1  0
 13 19  1  0
 13 15  1  0
 14 20  1  0
 15 14  1  0
 16 15  2  0
 17 18  1  0
 17 11  2  0
 18 13  2  0
 19 12  1  0
 20 10  1  0
 22 24  2  0
 23 22  1  0
 25 23  1  0
 26 35  2  0
 26 31  1  0
 27 23  1  0
 27 31  1  0
 28 27  1  0
 29 30  1  0
 29 28  1  0
 30 26  1  0
 31 32  2  0
 32 33  1  0
 34 33  2  0
 35 34  1  0
 36 10  1  0
 36 37  1  0
 36 46  1  0
 37 40  1  0
 38 42  1  0
 38 37  1  0
 39 38  2  0
 42 41  1  0
 44 45  1  0
 44 42  1  0
 44 43  1  0
 46 49  1  1
 46 47  1  0
 48 46  1  0
 51 52  1  0
 51 53  1  0
 52 54  1  0
 53 54  1  0
 54 50  1  1
 54 63  1  0
 55 61  1  0
 55 63  1  0
 56 61  1  0
 57 58  1  0
 57 56  1  0
 59 58  1  0
 59 68  1  0
 59 60  1  0
 61 60  1  0
 62 55  2  0
 63 64  1  0
 65 66  2  0
 66 85  1  0
 67 66  1  0
 67 70  1  0
 68 65  1  0
 68 69  1  0
 69 67  2  0
 70 71  1  0
 71 72  2  0
 73 76  1  0
 73 72  1  0
 74 73  2  0
 75 74  1  0
 75 70  2  0
 76 77  1  0
 77 82  2  0
 77 78  1  0
 78 79  2  0
 79 80  1  0
 80 84  1  0
 81 80  2  0
 82 81  1  0
 83 82  1  0
 85 86  1  0
 86 89  1  0
 86 88  1  0
 87 85  2  0
 90 91  1  0
 90 65  1  0
 92 90  1  0
M  ISO  4   5 101   9 101  55 100  63 100
M  END
>  <TORSDO>  (90) 
F 18

>  <SCORE>  (90) 
-14.691

>  <name>  (90) 
90

>  <ligand_id>  (90) 
90

>  <original_smiles>  (90) 
[H]c1c([H])c([H])c2c(c1[H])C([H])([H])C([H])([H])C([H])([H])C2([H])N([H])C(=O)C1([H])N(C(=O)C([H])(N([H])C(=O)C([H])(N([H])C([H])([H])[H])C([H])([H])[H])C(C([H])([H])[H])(C([H])([H])[H])C([H])([H])[H])C([H])([H])c2c([H])c(Oc3c([H])c(C([H])([H])C4(N([H])C(=O)N5C([H])([H])C([H])([H])C([H])([H])C([H])(n6nc(-c7c([H])c([H])c(Oc8c([H])c([H])c(F)c([H])c8F)c([H])c7[H])c(C(=O)N([H])[H])c6N([H])[H])C5([H])[H])C([H])([H])C([H])([H])C4([H])[H])c([H])c(F)c3C([H])([H])[H])c([H])c([H])c2C1([H])[H]

>  <smiles>  (90) 
[H]c1c([H])c([H])c2c(c1[H])C([H])([H])C([H])([H])C([H])([H])C2([H])N([H])C(=O)C1([H])N(C(=O)C([H])(N([H])C(=O)C([H])(N([H])C([H])([H])[H])C([H])([H])[H])C(C([H])([H])[H])(C([H])([H])[H])C([H])([H])[H])C([H])([H])c2c([H])c(Oc3c([H])c(C([H])([H])C4(N([H])C(=O)N5C([H])([H])C([H])([H])C([H])([H])C([H])(n6nc(-c7c([H])c([H])c(Oc8c([H])c([H])c(F)c([H])c8F)c([H])c7[H])c(C(=O)N([H])[H])c6N([H])[H])C5([H])[H])C([H])([H])C([H])([H])C4([H])[H])c([H])c(F)c3C([H])([H])[H])c([H])c([H])c2C1([H])[H]

$$$$
91:0:0
     RDKit          3D

 91 99  0  0  1  0  0  0  0  0999 V2000
  -29.9180  -22.3730   20.2380 C   0  0  0  0  0  3  0  0  0  0  0  0
  -30.3510  -20.9550   20.2890 C   0  0  0  0  0  3  0  0  0  0  0  0
  -28.5800  -22.8510   19.9620 C   0  0  0  0  0  0  0  0  0  0  0  0
  -29.5640  -19.7400   20.0730 C   0  0  0  0  0  0  0  0  0  0  0  0
  -27.7760  -21.6390   19.7580 C   0  0  0  0  0  0  0  0  0  0  0  0
  -28.2170  -20.2130   19.8170 C   0  0  0  0  0  0  0  0  0  0  0  0
  -27.2850  -19.2560   19.5890 F   0  0  0  0  0  0  0  0  0  0  0  0
  -30.9680  -18.1660   18.5930 C   0  0  0  0  0  1  0  0  0  0  0  0
  -30.2920  -18.1620   19.9760 C   0  0  0  0  0  0  0  0  0  0  0  0
  -30.5810  -15.3030   20.1250 C   0  0  0  0  0  0  0  0  0  0  0  0
  -30.4800  -12.8880   19.2250 C   0  0  0  0  0  2  0  0  0  0  0  0
  -29.5290  -12.7270   18.0140 C   0  0  0  0  0  2  0  0  0  0  0  0
  -28.0880  -12.4720   18.4870 C   0  0  0  0  0  2  0  0  0  0  0  0
  -27.6760  -13.4220   19.6410 C   0  0  0  0  0  3  0  0  0  0  0  0
  -28.7530  -13.5430   20.7390 C   0  0  0  0  0  2  0  0  0  0  0  0
  -29.9780  -14.0220   20.0800 N   0  0  0  0  0  0  0  0  0  0  0  0
  -31.7920  -15.2790   19.8650 O   0  0  0  0  0  0  0  0  0  0  0  0
  -29.8670  -16.5880   20.2370 N   0  0  0  0  0  4  0  0  0  0  0  0
  -28.8860  -16.4730   20.4470 H   0  0  0  0  0  0  0  0  0  0  0  0
  -25.3250  -13.9750   20.4600 C   0  0  0  0  0  0  0  0  0  0  0  0
  -24.2720  -13.1940   20.8480 C   0  0  0  0  0  0  0  0  0  0  0  0
  -24.7390  -11.8450   20.7930 C   0  0  0  0  0  0  0  0  0  0  0  0
  -26.3610  -13.1030   20.1810 N   0  0  0  0  0  0  0  0  0  0  0  0
  -26.0230  -11.8140   20.4500 N   0  0  0  0  0  0  0  0  0  0  0  0
  -24.0170  -10.5800   20.9880 C   0  0  0  0  0  0  0  0  0  0  0  0
  -24.4540   -9.6140   21.9220 C   0  0  0  0  0  3  0  0  0  0  0  0
  -23.7290   -8.4180   22.1070 C   0  0  0  0  0  3  0  0  0  0  0  0
  -22.5520   -8.1770   21.3590 C   0  0  0  0  0  0  0  0  0  0  0  0
  -22.1340   -9.1310   20.4140 C   0  0  0  0  0  3  0  0  0  0  0  0
  -22.8600  -10.3180   20.2270 C   0  0  0  0  0  3  0  0  0  0  0  0
  -21.7990   -7.0310   21.4520 O   0  0  0  0  0  0  0  0  0  0  0  0
  -21.7410   -6.3010   22.6120 C   0  0  0  0  0  0  0  0  0  0  0  0
  -21.2910   -6.8640   23.8260 C   0  0  0  0  0  3  0  0  0  0  0  0
  -21.1810   -6.0600   24.9790 C   0  0  0  0  0  3  0  0  0  0  0  0
  -21.5110   -4.6930   24.9170 C   0  0  0  0  0  0  0  0  0  0  0  0
  -21.9540   -4.1290   23.7080 C   0  0  0  0  0  3  0  0  0  0  0  0
  -22.0650   -4.9310   22.5580 C   0  0  0  0  0  0  0  0  0  0  0  0
  -22.4720   -4.3770   21.3900 F   0  0  0  0  0  0  0  0  0  0  0  0
  -21.3990   -3.9180   26.0210 F   0  0  0  0  0  0  0  0  0  0  0  0
  -22.8820  -13.6690   21.1510 C   0  0  0  0  0  0  0  0  0  0  0  0
  -22.1760  -12.9710   22.0340 N   0  0  0  0  0  0  0  0  0  0  0  0
  -22.4310  -14.6930   20.6420 O   0  0  0  0  0  0  0  0  0  0  0  0
  -22.5560  -12.1410   22.4680 H   0  0  0  0  0  0  0  0  0  0  0  0
  -21.2440  -13.2700   22.2810 H   0  0  0  0  0  0  0  0  0  0  0  0
  -25.4810  -15.3470   20.2910 N   0  0  0  0  0  0  0  0  0  0  0  0
  -24.7160  -15.9980   20.4340 H   0  0  0  0  0  0  0  0  0  0  0  0
  -26.3130  -15.7930   19.9270 H   0  0  0  0  0  0  0  0  0  0  0  0
  -26.1070  -21.6540   18.1080 C   0  0  0  0  0  1  0  0  0  0  0  0
  -26.4540  -21.8700   19.4690 O   0  0  0  0  0  0  0  0  0  0  0  0
  -27.9320  -24.4430   19.6960 C   0  0  0  0  0  2  0  0  0  0  0  0
  -28.2970  -25.9850   20.0510 O   0  0  0  0  0  0  0  0  0  0  0  0
  -24.6740  -31.8050   23.1390 C   0  0  0  0  0  0  0  0  0  0  0  0
  -27.2950  -27.0790   19.9950 C   0  0  0  0  0  0  0  0  0  0  0  0
  -23.5020  -30.4450   21.4570 C   0  0  0  0  0  3  0  0  0  0  0  0
  -24.9750  -28.9120   19.9920 C   0  0  0  0  0  0  0  0  0  0  0  0
  -26.0650  -30.6990   21.3260 C   0  0  0  0  0  2  0  0  0  0  0  0
  -26.1550  -29.3150   20.6300 C   0  0  0  0  0  0  0  0  0  0  0  0
  -27.3110  -28.4200   20.6100 C   0  0  0  0  0  3  0  0  0  0  0  0
  -26.0850  -26.8260   19.3070 C   0  0  0  0  0  3  0  0  0  0  0  0
  -24.9630  -27.6870   19.3120 C   0  0  0  0  0  3  0  0  0  0  0  0
  -23.7430  -29.8100   20.0610 C   0  0  0  0  0  2  0  0  0  0  0  0
  -24.7680  -31.0080   22.0290 N   0  0  0  0  0  0  0  0  0  0  0  0
  -23.5800  -32.0670   23.6650 O   0  0  0  0  0  0  0  0  0  0  0  0
  -22.8180  -29.4100   22.3870 C   0  0  0  0  0  0  0  0  0  0  0  0
  -21.4860  -29.2560   22.2740 N   0  0  0  0  0  0  0  0  0  0  0  0
  -23.4920  -28.7490   23.1820 O   0  0  0  0  0  0  0  0  0  0  0  0
  -20.9950  -29.8410   21.6120 H   0  0  0  0  0  0  0  0  0  0  0  0
  -18.0980  -28.0750   22.8090 C   0  0  0  0  0  0  0  0  0  0  0  0
  -20.6690  -28.2920   23.0170 C   0  0  0  0  0  3  0  0  0  0  0  0
  -20.7320  -26.8890   22.3690 C   0  0  0  0  0  2  0  0  0  0  0  0
  -19.6000  -26.6340   21.3700 C   0  0  0  0  0  2  0  0  0  0  0  0
  -18.2370  -26.7620   22.0580 C   0  0  0  0  0  2  0  0  0  0  0  0
  -19.2380  -28.8010   23.2460 C   0  0  0  0  0  0  0  0  0  0  0  0
  -19.0510  -30.0300   23.9140 C   0  0  0  0  0  3  0  0  0  0  0  0
  -17.7580  -30.5350   24.1450 C   0  0  0  0  0  3  0  0  0  0  0  0
  -16.6330  -29.8060   23.7210 C   0  0  0  0  0  3  0  0  0  0  0  0
  -16.8040  -28.5770   23.0600 C   0  0  0  0  0  3  0  0  0  0  0  0
  -25.9370  -32.4420   23.7950 C   0  0  0  0  0  3  0  0  0  0  0  0
  -26.4340  -31.6570   25.0720 C   0  0  1  0  0  0  0  0  0  0  0  0
  -25.3230  -31.4050   26.1200 C   0  0  0  0  0  1  0  0  0  0  0  0
  -27.0270  -30.2840   24.6820 C   0  0  0  0  0  1  0  0  0  0  0  0
  -27.5710  -32.4470   25.7620 C   0  0  0  0  0  1  0  0  0  0  0  0
  -25.6090  -33.8330   24.1510 N   0  0  0  0  0  0  0  0  0  0  0  0
  -25.9160  -34.9070   23.4120 C   0  0  0  0  0  0  0  0  0  0  0  0
  -26.5700  -34.8320   22.3680 O   0  0  0  0  0  0  0  0  0  0  0  0
  -25.0260  -33.9640   24.9650 H   0  0  0  0  0  0  0  0  0  0  0  0
  -24.1480  -36.6810   23.1470 C   0  0  0  0  0  1  0  0  0  0  0  0
  -25.4240  -36.2830   23.9070 C   0  0  0  0  0  3  0  0  0  0  0  0
  -27.5680  -37.1980   24.6790 C   0  0  0  0  0  1  0  0  0  0  0  0
  -26.4340  -37.3550   23.7720 N   0  0  0  0  0  0  0  0  0  0  0  0
  -26.0170  -38.2670   23.9410 H   0  0  0  0  0  0  0  0  0  0  0  0
  1  2  1  0
  3  1  2  0
  4  2  2  0
  5  6  2  0
  5  3  1  0
  6  4  1  0
  7  6  1  0
  8  9  1  0
  9  4  1  0
  9 18  2  0
 10 18  1  0
 11 16  1  0
 12 13  1  0
 12 11  1  0
 14 13  1  0
 14 23  1  0
 14 15  1  0
 16 10  1  0
 16 15  1  0
 17 10  2  0
 18 19  1  0
 20 21  2  0
 21 40  1  0
 22 21  1  0
 22 25  1  0
 23 24  1  0
 23 20  1  0
 24 22  2  0
 25 26  1  0
 26 27  2  0
 28 31  1  0
 28 27  1  0
 29 28  2  0
 30 29  1  0
 30 25  2  0
 31 32  1  0
 32 33  1  0
 33 34  2  0
 35 34  1  0
 35 39  1  0
 36 35  2  0
 37 32  2  0
 37 36  1  0
 38 37  1  0
 40 41  1  0
 41 44  1  0
 41 43  1  0
 42 40  2  0
 45 46  1  0
 45 20  1  0
 47 45  1  0
 48 49  1  0
 49  5  1  0
 50  3  1  0
 50 51  1  0
 52 63  2  0
 53 51  1  0
 53 58  1  0
 54 62  1  0
 54 64  1  0
 55 61  1  0
 55 57  1  0
 56 62  1  0
 57 56  1  0
 58 57  2  0
 59 60  1  0
 59 53  2  0
 60 55  2  0
 61 54  1  0
 62 52  1  0
 64 66  2  0
 65 64  1  0
 67 65  1  0
 68 77  2  0
 68 73  1  0
 69 65  1  0
 69 73  1  0
 70 69  1  0
 71 72  1  0
 71 70  1  0
 72 68  1  0
 73 74  2  0
 74 75  1  0
 76 75  2  0
 77 76  1  0
 78 52  1  0
 78 83  1  0
 78 79  1  0
 79 82  1  1
 79 80  1  0
 81 79  1  0
 83 86  1  0
 84 88  1  0
 84 83  1  0
 85 84  2  0
 88 87  1  0
 90 88  1  0
 90 91  1  0
 90 89  1  0
M  ISO  4  10 100  18 100  50 101  51 101
M  END
>  <TORSDO>  (91) 
F 19

>  <SCORE>  (91) 
-15.314

>  <name>  (91) 
91

>  <ligand_id>  (91) 
91

>  <original_smiles>  (91) 
[H]c1c([H])c([H])c2c(c1[H])C([H])([H])C([H])([H])C([H])([H])C2([H])N([H])C(=O)C1([H])N(C(=O)C([H])(N([H])C(=O)C([H])(N([H])C([H])([H])[H])C([H])([H])[H])C(C([H])([H])[H])(C([H])([H])[H])C([H])([H])[H])C([H])([H])c2c([H])c(OC([H])([H])c3c([H])c([H])c(C([H])(N([H])C(=O)N4C([H])([H])C([H])([H])C([H])([H])C([H])(n5nc(-c6c([H])c([H])c(Oc7c([H])c([H])c(F)c([H])c7F)c([H])c6[H])c(C(=O)N([H])[H])c5N([H])[H])C4([H])[H])C([H])([H])[H])c(F)c3OC([H])([H])[H])c([H])c([H])c2C1([H])[H]

>  <smiles>  (91) 
[H]c1c([H])c([H])c2c(c1[H])C([H])([H])C([H])([H])C([H])([H])C2([H])N([H])C(=O)C1([H])N(C(=O)C([H])(N([H])C(=O)C([H])(N([H])C([H])([H])[H])C([H])([H])[H])C(C([H])([H])[H])(C([H])([H])[H])C([H])([H])[H])C([H])([H])c2c([H])c(OC([H])([H])c3c([H])c([H])c(C([H])(N([H])C(=O)N4C([H])([H])C([H])([H])C([H])([H])C([H])(n5nc(-c6c([H])c([H])c(Oc7c([H])c([H])c(F)c([H])c7F)c([H])c6[H])c(C(=O)N([H])[H])c5N([H])[H])C4([H])[H])C([H])([H])[H])c(F)c3OC([H])([H])[H])c([H])c([H])c2C1([H])[H]

$$$$
92:0:0
     RDKit          3D

 95103  0  0  1  0  0  0  0  0999 V2000
  -29.1340  -21.6950   19.8430 C   0  0  0  0  0  2  0  0  0  0  0  0
  -28.6030  -20.0850   19.9800 C   0  0  0  0  0  2  0  0  0  0  0  0
  -29.3000  -17.3490   19.5660 C   0  0  0  0  0  3  0  0  0  0  0  0
  -31.0480  -17.5460   21.7010 C   0  0  0  0  0  3  0  0  0  0  0  0
  -29.9680  -16.0880   20.0080 C   0  0  0  0  0  0  0  0  0  0  0  0
  -29.4680  -18.6940   20.1970 C   0  0  0  0  0  0  0  0  0  0  0  0
  -30.8300  -16.2690   21.1330 C   0  0  0  0  0  0  0  0  0  0  0  0
  -30.4090  -18.7300   21.2480 C   0  0  0  0  0  0  0  0  0  0  0  0
  -30.2000  -14.7280   19.1970 C   0  0  0  0  0  0  0  0  0  0  0  0
  -29.7500  -12.4700   18.1930 C   0  0  0  0  0  2  0  0  0  0  0  0
  -28.5950  -12.5840   17.1730 C   0  0  0  0  0  2  0  0  0  0  0  0
  -27.2430  -12.3770   17.8710 C   0  0  0  0  0  2  0  0  0  0  0  0
  -27.1390  -13.1670   19.2030 C   0  0  0  0  0  3  0  0  0  0  0  0
  -28.4090  -13.0940   20.0820 C   0  0  0  0  0  2  0  0  0  0  0  0
  -29.5410  -13.5020   19.2500 N   0  0  0  0  0  0  0  0  0  0  0  0
  -31.1980  -14.7730   18.4750 O   0  0  0  0  0  0  0  0  0  0  0  0
  -24.9650  -13.6560   20.4440 C   0  0  0  0  0  0  0  0  0  0  0  0
  -23.9970  -12.8500   20.9620 C   0  0  0  0  0  0  0  0  0  0  0  0
  -24.4480  -11.5070   20.7600 C   0  0  0  0  0  0  0  0  0  0  0  0
  -25.9400  -12.8120   19.9450 N   0  0  0  0  0  0  0  0  0  0  0  0
  -25.6540  -11.5090   20.2050 N   0  0  0  0  0  0  0  0  0  0  0  0
  -23.7750  -10.2260   21.0140 C   0  0  0  0  0  0  0  0  0  0  0  0
  -24.2880   -9.2860   21.9370 C   0  0  0  0  0  3  0  0  0  0  0  0
  -23.6020   -8.0760   22.1810 C   0  0  0  0  0  3  0  0  0  0  0  0
  -22.3920   -7.7900   21.5050 C   0  0  0  0  0  0  0  0  0  0  0  0
  -21.9010   -8.7200   20.5740 C   0  0  0  0  0  3  0  0  0  0  0  0
  -22.5850   -9.9230   20.3280 C   0  0  0  0  0  3  0  0  0  0  0  0
  -21.6770   -6.6260   21.6550 O   0  0  0  0  0  0  0  0  0  0  0  0
  -21.6240   -5.9700   22.8580 C   0  0  0  0  0  0  0  0  0  0  0  0
  -21.1110   -6.5850   24.0200 C   0  0  0  0  0  3  0  0  0  0  0  0
  -21.0050   -5.8470   25.2150 C   0  0  0  0  0  3  0  0  0  0  0  0
  -21.4100   -4.4980   25.2520 C   0  0  0  0  0  0  0  0  0  0  0  0
  -21.9210   -3.8860   24.0920 C   0  0  0  0  0  3  0  0  0  0  0  0
  -22.0270   -4.6200   22.8980 C   0  0  0  0  0  0  0  0  0  0  0  0
  -22.5000   -4.0200   21.7790 F   0  0  0  0  0  0  0  0  0  0  0  0
  -21.3040   -3.7860   26.3980 F   0  0  0  0  0  0  0  0  0  0  0  0
  -22.6840  -13.2910   21.5330 C   0  0  0  0  0  0  0  0  0  0  0  0
  -22.1650  -12.5570   22.5070 N   0  0  0  0  0  0  0  0  0  0  0  0
  -22.1350  -14.3240   21.1470 O   0  0  0  0  0  0  0  0  0  0  0  0
  -22.6290  -11.7210   22.8320 H   0  0  0  0  0  0  0  0  0  0  0  0
  -21.3020  -12.8430   22.9430 H   0  0  0  0  0  0  0  0  0  0  0  0
  -25.0850  -15.0370   20.3290 N   0  0  0  0  0  0  0  0  0  0  0  0
  -24.3510  -15.6500   20.6580 H   0  0  0  0  0  0  0  0  0  0  0  0
  -25.8650  -15.5310   19.9180 H   0  0  0  0  0  0  0  0  0  0  0  0
  -32.9950  -14.8570   21.0260 C   0  0  0  0  0  1  0  0  0  0  0  0
  -31.6470  -15.1040   21.7220 C   0  0  0  0  0  2  0  0  0  0  0  0
  -31.2170  -20.0430   23.0890 C   0  0  0  0  0  1  0  0  0  0  0  0
  -30.6730  -19.9690   21.7820 O   0  0  0  0  0  0  0  0  0  0  0  0
  -28.3450  -23.0950   20.4080 C   0  0  0  0  0  3  0  0  0  0  0  0
  -26.9320  -22.7610   20.6870 N   0  0  0  0  0  4  0  0  0  0  0  0
  -26.4560  -23.5810   21.0190 H   0  0  0  0  0  0  0  0  0  0  0  0
  -26.8730  -22.0670   21.4120 H   0  0  0  0  0  0  0  0  0  0  0  0
  -26.4420  -22.4220   19.8750 H   0  0  0  0  0  0  0  0  0  0  0  0
  -28.3900  -24.6300   19.6800 C   0  0  0  0  0  2  0  0  0  0  0  0
  -28.2590  -26.0540   20.3130 O   0  0  0  0  0  0  0  0  0  0  0  0
  -24.5950  -31.7460   23.1780 C   0  0  0  0  0  0  0  0  0  0  0  0
  -27.1860  -27.0050   20.1930 C   0  0  0  0  0  0  0  0  0  0  0  0
  -23.4040  -30.3530   21.5300 C   0  0  0  0  0  3  0  0  0  0  0  0
  -24.8580  -28.7490   20.1420 C   0  0  0  0  0  0  0  0  0  0  0  0
  -25.9590  -30.6020   21.3880 C   0  0  0  0  0  2  0  0  0  0  0  0
  -26.0320  -29.1990   20.7600 C   0  0  0  0  0  0  0  0  0  0  0  0
  -27.1920  -28.3380   20.7730 C   0  0  0  0  0  3  0  0  0  0  0  0
  -25.9860  -26.6540   19.5340 C   0  0  0  0  0  3  0  0  0  0  0  0
  -24.8460  -27.4910   19.5210 C   0  0  0  0  0  3  0  0  0  0  0  0
  -23.6340  -29.6530   20.1610 C   0  0  0  0  0  2  0  0  0  0  0  0
  -24.6730  -30.9240   22.0890 N   0  0  0  0  0  0  0  0  0  0  0  0
  -23.5010  -32.0430   23.6850 O   0  0  0  0  0  0  0  0  0  0  0  0
  -22.7050  -29.3630   22.4930 C   0  0  0  0  0  0  0  0  0  0  0  0
  -21.3710  -29.2260   22.3790 N   0  0  0  0  0  0  0  0  0  0  0  0
  -23.3690  -28.7180   23.3100 O   0  0  0  0  0  0  0  0  0  0  0  0
  -20.8970  -29.8090   21.7010 H   0  0  0  0  0  0  0  0  0  0  0  0
  -17.9620  -28.1420   22.9300 C   0  0  0  0  0  0  0  0  0  0  0  0
  -20.5320  -28.3050   23.1510 C   0  0  0  0  0  3  0  0  0  0  0  0
  -20.5640  -26.8800   22.5510 C   0  0  0  0  0  2  0  0  0  0  0  0
  -19.4330  -26.6150   21.5520 C   0  0  0  0  0  2  0  0  0  0  0  0
  -18.0730  -26.8000   22.2290 C   0  0  0  0  0  2  0  0  0  0  0  0
  -19.1170  -28.8570   23.3510 C   0  0  0  0  0  0  0  0  0  0  0  0
  -18.9530  -30.1110   23.9780 C   0  0  0  0  0  3  0  0  0  0  0  0
  -17.6710  -30.6570   24.1740 C   0  0  0  0  0  3  0  0  0  0  0  0
  -16.5320  -29.9410   23.7620 C   0  0  0  0  0  3  0  0  0  0  0  0
  -16.6800  -28.6830   23.1510 C   0  0  0  0  0  3  0  0  0  0  0  0
  -25.8680  -32.3760   23.8160 C   0  0  0  0  0  3  0  0  0  0  0  0
  -26.3840  -31.5880   25.0870 C   0  0  1  0  0  0  0  0  0  0  0  0
  -25.2900  -31.3230   26.1440 C   0  0  0  0  0  1  0  0  0  0  0  0
  -26.9750  -30.2170   24.6880 C   0  0  0  0  0  1  0  0  0  0  0  0
  -27.5240  -32.3850   25.7680 C   0  0  0  0  0  1  0  0  0  0  0  0
  -25.5470  -33.7710   24.1700 N   0  0  0  0  0  0  0  0  0  0  0  0
  -25.8870  -34.8430   23.4440 C   0  0  0  0  0  0  0  0  0  0  0  0
  -26.5670  -34.7650   22.4180 O   0  0  0  0  0  0  0  0  0  0  0  0
  -24.9390  -33.9040   24.9640 H   0  0  0  0  0  0  0  0  0  0  0  0
  -24.1740  -36.6560   23.1140 C   0  0  0  0  0  1  0  0  0  0  0  0
  -25.3990  -36.2210   23.9320 C   0  0  0  0  0  3  0  0  0  0  0  0
  -27.5210  -37.0860   24.8230 C   0  0  0  0  0  1  0  0  0  0  0  0
  -26.4370  -37.2740   23.8620 N   0  0  0  0  0  0  0  0  0  0  0  0
  -26.0280  -38.1910   24.0150 H   0  0  0  0  0  0  0  0  0  0  0  0
  1  2  1  0
  1 49  1  0
  2  6  1  0
  3  5  2  0
  3  6  1  0
  5  7  1  0
  6  8  2  0
  7  4  2  0
  7 46  1  0
  8  4  1  0
  8 48  1  0
  9 15  1  0
  9  5  1  0
 10 15  1  0
 11 12  1  0
 11 10  1  0
 13 12  1  0
 13 20  1  0
 13 14  1  0
 15 14  1  0
 16  9  2  0
 17 18  2  0
 18 37  1  0
 19 18  1  0
 19 22  1  0
 20 21  1  0
 20 17  1  0
 21 19  2  0
 22 23  1  0
 23 24  2  0
 25 28  1  0
 25 24  1  0
 26 25  2  0
 27 26  1  0
 27 22  2  0
 28 29  1  0
 29 34  2  0
 29 30  1  0
 30 31  2  0
 31 32  1  0
 32 36  1  0
 33 32  2  0
 34 33  1  0
 35 34  1  0
 37 38  1  0
 38 40  1  0
 38 41  1  0
 39 37  2  0
 42 17  1  0
 42 43  1  0
 44 42  1  0
 45 46  1  0
 48 47  1  0
 49 54  1  0
 49 50  1  0
 50 51  1  0
 50 52  1  0
 53 50  1  0
 54 55  1  0
 56 67  2  0
 57 55  1  0
 57 62  1  0
 58 66  1  0
 58 68  1  0
 59 65  1  0
 59 61  1  0
 60 66  1  0
 61 62  2  0
 61 60  1  0
 63 57  2  0
 64 63  1  0
 64 59  2  0
 65 58  1  0
 66 56  1  0
 68 70  2  0
 69 68  1  0
 71 69  1  0
 72 81  2  0
 72 77  1  0
 73 69  1  0
 73 77  1  0
 74 73  1  0
 75 76  1  0
 75 74  1  0
 76 72  1  0
 77 78  2  0
 78 79  1  0
 80 79  2  0
 81 80  1  0
 82 56  1  0
 82 87  1  0
 82 83  1  0
 83 86  1  1
 83 84  1  0
 85 83  1  0
 87 90  1  0
 88 92  1  0
 88 87  1  0
 89 88  2  0
 92 91  1  0
 94 92  1  0
 94 95  1  0
 94 93  1  0
M  ISO  4   5 100   9 100  54 101  55 101
M  END
>  <TORSDO>  (92) 
F 23

>  <SCORE>  (92) 
-11.994

>  <name>  (92) 
92

>  <ligand_id>  (92) 
92

>  <original_smiles>  (92) 
[H]c1c([H])c([H])c2c(c1[H])C([H])([H])C([H])([H])C([H])([H])C2([H])N([H])C(=O)C1([H])N(C(=O)C([H])(N([H])C(=O)C([H])(N([H])C([H])([H])[H])C([H])([H])[H])C(C([H])([H])[H])(C([H])([H])[H])C([H])([H])[H])C([H])([H])c2c([H])c(OC([H])([H])C([H])(C([H])([H])C([H])([H])c3c([H])c(C(=O)N4C([H])([H])C([H])([H])C([H])([H])C([H])(n5nc(-c6c([H])c([H])c(Oc7c([H])c([H])c(F)c([H])c7F)c([H])c6[H])c(C(=O)N([H])[H])c5N([H])[H])C4([H])[H])c(C([H])([H])C([H])([H])[H])c([H])c3OC([H])([H])[H])[N+]([H])([H])[H])c([H])c([H])c2C1([H])[H]

>  <smiles>  (92) 
[H]c1c([H])c([H])c2c(c1[H])C([H])([H])C([H])([H])C([H])([H])C2([H])N([H])C(=O)C1([H])N(C(=O)C([H])(N([H])C(=O)C([H])(N([H])C([H])([H])[H])C([H])([H])[H])C(C([H])([H])[H])(C([H])([H])[H])C([H])([H])[H])C([H])([H])c2c([H])c(OC([H])([H])C([H])(C([H])([H])C([H])([H])c3c([H])c(C(=O)N4C([H])([H])C([H])([H])C([H])([H])C([H])(n5nc(-c6c([H])c([H])c(Oc7c([H])c([H])c(F)c([H])c7F)c([H])c6[H])c(C(=O)N([H])[H])c5N([H])[H])C4([H])[H])c(C([H])([H])C([H])([H])[H])c([H])c3OC([H])([H])[H])[N+]([H])([H])[H])c([H])c([H])c2C1([H])[H]

$$$$
93:0:0
     RDKit          3D

 89 97  0  0  1  0  0  0  0  0999 V2000
  -28.6330  -23.1560   19.0670 C   0  0  0  0  0  3  0  0  0  0  0  0
  -28.6250  -23.1490   21.2790 C   0  0  0  0  0  3  0  0  0  0  0  0
  -29.2170  -20.7040   20.1690 C   0  0  0  0  0  0  0  0  0  0  0  0
  -28.3940  -24.1220   20.1710 C   0  0  0  0  0  0  0  0  0  0  0  0
  -28.9920  -21.6710   19.0560 C   0  0  0  0  0  0  0  0  0  0  0  0
  -28.9820  -21.6570   21.2940 C   0  0  0  0  0  0  0  0  0  0  0  0
  -29.1770  -21.1580   17.8150 F   0  0  0  0  0  0  0  0  0  0  0  0
  -29.1720  -21.1360   22.5290 F   0  0  0  0  0  0  0  0  0  0  0  0
  -29.9780  -19.0410   20.0720 C   0  0  0  0  0  0  0  0  0  0  0  0
  -31.1520  -19.1930   19.7210 O   0  0  0  0  0  0  0  0  0  0  0  0
  -28.3860  -17.1580   20.6660 C   0  0  0  0  0  2  0  0  0  0  0  0
  -29.6630  -17.2880   20.2670 C   0  0  0  0  0  0  0  0  0  0  0  0
  -30.4710  -15.7750   20.1020 C   0  0  0  0  0  0  0  0  0  0  0  0
  -30.5690  -13.2420   19.2680 C   0  0  0  0  0  2  0  0  0  0  0  0
  -29.6330  -12.8730   18.0790 C   0  0  0  0  0  2  0  0  0  0  0  0
  -28.2210  -12.5100   18.5670 C   0  0  0  0  0  2  0  0  0  0  0  0
  -27.7510  -13.4790   19.6750 C   0  0  0  0  0  3  0  0  0  0  0  0
  -28.8260  -13.7240   20.7590 C   0  0  0  0  0  2  0  0  0  0  0  0
  -29.9730  -14.3940   20.0910 N   0  0  0  0  0  0  0  0  0  0  0  0
  -31.6880  -15.6950   19.8390 O   0  0  0  0  0  0  0  0  0  0  0  0
  -25.4070  -13.9700   20.5300 C   0  0  0  0  0  0  0  0  0  0  0  0
  -24.3710  -13.1720   20.9190 C   0  0  0  0  0  0  0  0  0  0  0  0
  -24.8520  -11.8290   20.8320 C   0  0  0  0  0  0  0  0  0  0  0  0
  -26.4530  -13.1170   20.2280 N   0  0  0  0  0  0  0  0  0  0  0  0
  -26.1340  -11.8190   20.4740 N   0  0  0  0  0  0  0  0  0  0  0  0
  -24.1410  -10.5550   21.0080 C   0  0  0  0  0  0  0  0  0  0  0  0
  -24.5770   -9.5870   21.9390 C   0  0  0  0  0  3  0  0  0  0  0  0
  -23.8600   -8.3820   22.1080 C   0  0  0  0  0  3  0  0  0  0  0  0
  -22.6930   -8.1380   21.3460 C   0  0  0  0  0  0  0  0  0  0  0  0
  -22.2760   -9.0950   20.4050 C   0  0  0  0  0  3  0  0  0  0  0  0
  -22.9940  -10.2900   20.2330 C   0  0  0  0  0  3  0  0  0  0  0  0
  -21.9470   -6.9860   21.4250 O   0  0  0  0  0  0  0  0  0  0  0  0
  -21.8440   -6.2730   22.5920 C   0  0  0  0  0  0  0  0  0  0  0  0
  -21.3250   -6.8470   23.7730 C   0  0  0  0  0  3  0  0  0  0  0  0
  -21.1740   -6.0580   24.9310 C   0  0  0  0  0  3  0  0  0  0  0  0
  -21.5310   -4.6970   24.9080 C   0  0  0  0  0  0  0  0  0  0  0  0
  -22.0430   -4.1230   23.7310 C   0  0  0  0  0  3  0  0  0  0  0  0
  -22.1970   -4.9090   22.5760 C   0  0  0  0  0  0  0  0  0  0  0  0
  -22.6710   -4.3440   21.4390 F   0  0  0  0  0  0  0  0  0  0  0  0
  -21.3800   -3.9370   26.0180 F   0  0  0  0  0  0  0  0  0  0  0  0
  -22.9810  -13.6280   21.2470 C   0  0  0  0  0  0  0  0  0  0  0  0
  -22.2930  -12.9120   22.1280 N   0  0  0  0  0  0  0  0  0  0  0  0
  -22.5170  -14.6580   20.7590 O   0  0  0  0  0  0  0  0  0  0  0  0
  -22.6850  -12.0810   22.5450 H   0  0  0  0  0  0  0  0  0  0  0  0
  -21.3600  -13.1970   22.3890 H   0  0  0  0  0  0  0  0  0  0  0  0
  -25.5320  -15.3460   20.3730 N   0  0  0  0  0  0  0  0  0  0  0  0
  -24.7430  -15.9670   20.5120 H   0  0  0  0  0  0  0  0  0  0  0  0
  -26.3310  -15.8090   19.9630 H   0  0  0  0  0  0  0  0  0  0  0  0
  -28.3130  -25.7340   20.1600 O   0  0  0  0  0  0  0  0  0  0  0  0
  -24.7450  -31.9070   23.1840 C   0  0  0  0  0  0  0  0  0  0  0  0
  -27.2790  -26.8810   20.1570 C   0  0  0  0  0  0  0  0  0  0  0  0
  -23.5470  -30.5050   21.5580 C   0  0  0  0  0  3  0  0  0  0  0  0
  -24.9870  -28.8720   20.1260 C   0  0  0  0  0  0  0  0  0  0  0  0
  -26.1200  -30.6750   21.4040 C   0  0  0  0  0  2  0  0  0  0  0  0
  -26.1840  -29.2440   20.7490 C   0  0  0  0  0  0  0  0  0  0  0  0
  -27.3110  -28.2750   20.7350 C   0  0  0  0  0  3  0  0  0  0  0  0
  -26.0470  -26.7080   19.4760 C   0  0  0  0  0  3  0  0  0  0  0  0
  -24.9540  -27.6290   19.4690 C   0  0  0  0  0  3  0  0  0  0  0  0
  -23.7740  -29.8130   20.1830 C   0  0  0  0  0  2  0  0  0  0  0  0
  -24.8280  -31.0620   22.1010 N   0  0  0  0  0  0  0  0  0  0  0  0
  -23.6570  -32.1970   23.7100 O   0  0  0  0  0  0  0  0  0  0  0  0
  -22.8520  -29.5200   22.5350 C   0  0  0  0  0  0  0  0  0  0  0  0
  -21.5230  -29.3410   22.4110 N   0  0  0  0  0  0  0  0  0  0  0  0
  -23.5210  -28.9120   23.3750 O   0  0  0  0  0  0  0  0  0  0  0  0
  -21.0330  -29.8800   21.7120 H   0  0  0  0  0  0  0  0  0  0  0  0
  -18.1580  -28.0700   22.9270 C   0  0  0  0  0  0  0  0  0  0  0  0
  -20.7130  -28.3960   23.1910 C   0  0  0  0  0  3  0  0  0  0  0  0
  -20.8440  -26.9600   22.6310 C   0  0  0  0  0  2  0  0  0  0  0  0
  -19.7530  -26.6060   21.6160 C   0  0  0  0  0  2  0  0  0  0  0  0
  -18.3660  -26.7240   22.2570 C   0  0  0  0  0  2  0  0  0  0  0  0
  -19.2590  -28.8630   23.3510 C   0  0  0  0  0  0  0  0  0  0  0  0
  -19.0080  -30.1190   23.9440 C   0  0  0  0  0  3  0  0  0  0  0  0
  -17.6900  -30.5860   24.1130 C   0  0  0  0  0  3  0  0  0  0  0  0
  -16.6050  -29.7930   23.7020 C   0  0  0  0  0  3  0  0  0  0  0  0
  -16.8400  -28.5360   23.1150 C   0  0  0  0  0  3  0  0  0  0  0  0
  -26.0130  -32.5640   23.8120 C   0  0  0  0  0  3  0  0  0  0  0  0
  -25.6800  -33.9570   24.1680 N   0  0  0  0  0  0  0  0  0  0  0  0
  -25.9680  -35.0340   23.4240 C   0  0  0  0  0  0  0  0  0  0  0  0
  -26.5990  -34.9610   22.3680 O   0  0  0  0  0  0  0  0  0  0  0  0
  -25.1120  -34.0860   24.9930 H   0  0  0  0  0  0  0  0  0  0  0  0
  -24.1900  -36.8050   23.1990 C   0  0  0  0  0  1  0  0  0  0  0  0
  -25.4830  -36.4110   23.9300 C   0  0  0  0  0  3  0  0  0  0  0  0
  -27.6410  -37.3360   24.6530 C   0  0  0  0  0  1  0  0  0  0  0  0
  -26.4860  -37.4860   23.7710 N   0  0  0  0  0  0  0  0  0  0  0  0
  -26.0700  -38.3960   23.9480 H   0  0  0  0  0  0  0  0  0  0  0  0
  -26.5390  -31.7980   25.0890 C   0  0  1  0  0  0  0  0  0  0  0  0
  -25.4520  -31.5510   26.1620 C   0  0  0  0  0  1  0  0  0  0  0  0
  -27.1310  -30.4230   24.7050 C   0  0  0  0  0  1  0  0  0  0  0  0
  -27.6870  -32.5990   25.7450 C   0  0  0  0  0  1  0  0  0  0  0  0
  1  4  1  0
  2  6  1  0
  3  6  2  0
  4  2  2  0
  5  1  2  0
  5  3  1  0
  6  8  1  0
  7  5  1  0
  9  3  1  0
  9 12  1  0
 10  9  2  0
 12 11  2  0
 13 12  1  0
 14 19  1  0
 15 16  1  0
 15 14  1  0
 17 16  1  0
 17 24  1  0
 17 18  1  0
 19 13  1  0
 19 18  1  0
 20 13  2  0
 21 22  2  0
 22 41  1  0
 23 22  1  0
 23 26  1  0
 24 25  1  0
 24 21  1  0
 25 23  2  0
 26 27  1  0
 27 28  2  0
 29 32  1  0
 29 28  1  0
 30 29  2  0
 31 30  1  0
 31 26  2  0
 32 33  1  0
 33 34  1  0
 34 35  2  0
 36 35  1  0
 36 40  1  0
 37 36  2  0
 38 33  2  0
 38 37  1  0
 39 38  1  0
 41 42  1  0
 42 45  1  0
 42 44  1  0
 43 41  2  0
 46 47  1  0
 46 21  1  0
 48 46  1  0
 49  4  1  0
 50 61  2  0
 51 49  1  0
 51 56  1  0
 52 60  1  0
 52 62  1  0
 53 59  1  0
 53 55  1  0
 54 60  1  0
 55 54  1  0
 56 55  2  0
 57 51  2  0
 58 57  1  0
 58 53  2  0
 59 52  1  0
 60 50  1  0
 62 64  2  0
 63 62  1  0
 65 63  1  0
 66 75  2  0
 66 71  1  0
 67 63  1  0
 67 71  1  0
 68 67  1  0
 69 70  1  0
 69 68  1  0
 70 66  1  0
 71 72  2  0
 72 73  1  0
 74 73  2  0
 75 74  1  0
 76 50  1  0
 76 77  1  0
 76 86  1  0
 77 80  1  0
 78 82  1  0
 78 77  1  0
 79 78  2  0
 82 81  1  0
 84 82  1  0
 84 85  1  0
 84 83  1  0
 86 89  1  1
 86 87  1  0
 88 86  1  0
M  ISO  4   4 101  12 100  13 100  49 101
M  END
>  <TORSDO>  (93) 
F 18

>  <SCORE>  (93) 
-15.889

>  <name>  (93) 
93

>  <ligand_id>  (93) 
93

>  <original_smiles>  (93) 
[H]C([H])=C(C(=O)c1c(F)c([H])c(Oc2c([H])c([H])c3c(c2[H])C([H])([H])N(C(=O)C([H])(N([H])C(=O)C([H])(N([H])C([H])([H])[H])C([H])([H])[H])C(C([H])([H])[H])(C([H])([H])[H])C([H])([H])[H])C([H])(C(=O)N([H])C2([H])c4c([H])c([H])c([H])c([H])c4C([H])([H])C([H])([H])C2([H])[H])C3([H])[H])c([H])c1F)C(=O)N1C([H])([H])C([H])([H])C([H])([H])C([H])(n2nc(-c3c([H])c([H])c(Oc4c([H])c([H])c(F)c([H])c4F)c([H])c3[H])c(C(=O)N([H])[H])c2N([H])[H])C1([H])[H]

>  <smiles>  (93) 
[H]C([H])=C(C(=O)c1c(F)c([H])c(Oc2c([H])c([H])c3c(c2[H])C([H])([H])N(C(=O)C([H])(N([H])C(=O)C([H])(N([H])C([H])([H])[H])C([H])([H])[H])C(C([H])([H])[H])(C([H])([H])[H])C([H])([H])[H])C([H])(C(=O)N([H])C2([H])c4c([H])c([H])c([H])c([H])c4C([H])([H])C([H])([H])C2([H])[H])C3([H])[H])c([H])c1F)C(=O)N1C([H])([H])C([H])([H])C([H])([H])C([H])(n2nc(-c3c([H])c([H])c(Oc4c([H])c([H])c(F)c([H])c4F)c([H])c3[H])c(C(=O)N([H])[H])c2N([H])[H])C1([H])[H]

$$$$
94:0:0
     RDKit          3D

 92101  0  0  1  0  0  0  0  0999 V2000
  -29.8080  -22.8900   19.1300 C   0  0  0  0  0  3  0  0  0  0  0  0
  -29.4930  -24.3030   19.1460 C   0  0  0  0  0  3  0  0  0  0  0  0
  -27.9910  -22.4780   20.5670 C   0  0  0  0  0  3  0  0  0  0  0  0
  -29.0970  -21.8850   19.8600 C   0  0  0  0  0  0  0  0  0  0  0  0
  -28.4280  -24.9100   19.8850 C   0  0  0  0  0  0  0  0  0  0  0  0
  -27.6650  -23.9150   20.6010 C   0  0  0  0  0  0  0  0  0  0  0  0
  -29.9330  -19.8410   21.4710 C   0  0  0  0  0  2  0  0  0  0  0  0
  -30.3390  -18.3190   21.4290 C   0  0  0  0  0  2  0  0  0  0  0  0
  -29.2020  -18.9310   19.4060 C   0  0  0  0  0  2  0  0  0  0  0  0
  -29.6930  -20.3490   20.0340 C   0  0  0  0  0  3  0  0  0  0  0  0
  -30.1340  -17.7230   20.0090 C   0  0  0  0  0  3  0  0  0  0  0  0
  -30.5550  -15.0140   19.8560 C   0  0  0  0  0  0  0  0  0  0  0  0
  -30.3640  -12.6690   18.9370 C   0  0  0  0  0  2  0  0  0  0  0  0
  -29.3550  -12.6470   17.7690 C   0  0  0  0  0  2  0  0  0  0  0  0
  -27.9190  -12.4520   18.2910 C   0  0  0  0  0  2  0  0  0  0  0  0
  -27.5950  -13.3780   19.4920 C   0  0  0  0  0  3  0  0  0  0  0  0
  -28.7180  -13.3760   20.5500 C   0  0  0  0  0  2  0  0  0  0  0  0
  -29.9520  -13.7640   19.8570 N   0  0  0  0  0  0  0  0  0  0  0  0
  -31.7430  -15.0800   19.5250 O   0  0  0  0  0  0  0  0  0  0  0  0
  -29.7760  -16.1900   20.0190 N   0  0  0  0  0  0  0  0  0  0  0  0
  -28.8020  -15.9950   20.1940 H   0  0  0  0  0  0  0  0  0  0  0  0
  -25.2840  -13.9800   20.4150 C   0  0  0  0  0  0  0  0  0  0  0  0
  -24.2320  -13.2120   20.8350 C   0  0  0  0  0  0  0  0  0  0  0  0
  -24.6640  -11.8550   20.7290 C   0  0  0  0  0  0  0  0  0  0  0  0
  -26.2890  -13.0900   20.0770 N   0  0  0  0  0  0  0  0  0  0  0  0
  -25.9290  -11.8040   20.3280 N   0  0  0  0  0  0  0  0  0  0  0  0
  -23.9270  -10.6010   20.9270 C   0  0  0  0  0  0  0  0  0  0  0  0
  -24.3810   -9.6090   21.8240 C   0  0  0  0  0  3  0  0  0  0  0  0
  -23.6410   -8.4210   22.0130 C   0  0  0  0  0  3  0  0  0  0  0  0
  -22.4330   -8.2160   21.3040 C   0  0  0  0  0  0  0  0  0  0  0  0
  -21.9980   -9.1980   20.3940 C   0  0  0  0  0  3  0  0  0  0  0  0
  -22.7400  -10.3760   20.2040 C   0  0  0  0  0  3  0  0  0  0  0  0
  -21.6610   -7.0840   21.4040 O   0  0  0  0  0  0  0  0  0  0  0  0
  -21.6360   -6.3300   22.5500 C   0  0  0  0  0  0  0  0  0  0  0  0
  -21.2020   -6.8630   23.7840 C   0  0  0  0  0  3  0  0  0  0  0  0
  -21.1240   -6.0340   24.9200 C   0  0  0  0  0  3  0  0  0  0  0  0
  -21.4690   -4.6720   24.8250 C   0  0  0  0  0  0  0  0  0  0  0  0
  -21.8960   -4.1400   23.5980 C   0  0  0  0  0  3  0  0  0  0  0  0
  -21.9770   -4.9650   22.4620 C   0  0  0  0  0  0  0  0  0  0  0  0
  -22.3680   -4.4400   21.2750 F   0  0  0  0  0  0  0  0  0  0  0  0
  -21.3870   -3.8740   25.9160 F   0  0  0  0  0  0  0  0  0  0  0  0
  -22.8650  -13.7060   21.2150 C   0  0  0  0  0  0  0  0  0  0  0  0
  -22.1840  -13.0000   22.1110 N   0  0  0  0  0  0  0  0  0  0  0  0
  -22.4140  -14.7530   20.7530 O   0  0  0  0  0  0  0  0  0  0  0  0
  -22.5640  -12.1530   22.5100 H   0  0  0  0  0  0  0  0  0  0  0  0
  -21.2710  -13.3150   22.4080 H   0  0  0  0  0  0  0  0  0  0  0  0
  -25.4590  -15.3530   20.2680 N   0  0  0  0  0  0  0  0  0  0  0  0
  -24.7060  -16.0100   20.4440 H   0  0  0  0  0  0  0  0  0  0  0  0
  -26.2740  -15.7910   19.8600 H   0  0  0  0  0  0  0  0  0  0  0  0
  -25.6880  -23.5300   21.9340 C   0  0  0  0  0  1  0  0  0  0  0  0
  -26.6400  -24.4240   21.3700 O   0  0  0  0  0  0  0  0  0  0  0  0
  -28.3420  -26.3720   19.9990 O   0  0  0  0  0  0  0  0  0  0  0  0
  -24.5410  -31.8130   23.1500 C   0  0  0  0  0  0  0  0  0  0  0  0
  -27.2070  -27.2430   20.0150 C   0  0  0  0  0  0  0  0  0  0  0  0
  -23.3630  -30.4440   21.4650 C   0  0  0  0  0  3  0  0  0  0  0  0
  -24.8390  -28.9190   20.0130 C   0  0  0  0  0  0  0  0  0  0  0  0
  -25.9070  -30.7620   21.3110 C   0  0  0  0  0  2  0  0  0  0  0  0
  -26.0050  -29.3840   20.6350 C   0  0  0  0  0  0  0  0  0  0  0  0
  -27.1850  -28.5590   20.6210 C   0  0  0  0  0  3  0  0  0  0  0  0
  -26.0160  -26.8650   19.3590 C   0  0  0  0  0  3  0  0  0  0  0  0
  -24.8530  -27.6710   19.3680 C   0  0  0  0  0  3  0  0  0  0  0  0
  -23.6000  -29.7990   20.0710 C   0  0  0  0  0  2  0  0  0  0  0  0
  -24.6230  -31.0280   22.0320 N   0  0  0  0  0  0  0  0  0  0  0  0
  -23.4490  -32.0670   23.6830 O   0  0  0  0  0  0  0  0  0  0  0  0
  -22.7000  -29.4050   22.4010 C   0  0  0  0  0  0  0  0  0  0  0  0
  -21.3710  -29.2320   22.2780 N   0  0  0  0  0  0  0  0  0  0  0  0
  -23.3800  -28.7550   23.1990 O   0  0  0  0  0  0  0  0  0  0  0  0
  -20.8770  -29.8100   21.6140 H   0  0  0  0  0  0  0  0  0  0  0  0
  -17.9930  -28.0430   22.8020 C   0  0  0  0  0  0  0  0  0  0  0  0
  -20.5590  -28.2690   23.0240 C   0  0  0  0  0  3  0  0  0  0  0  0
  -20.6330  -26.8640   22.3820 C   0  0  0  0  0  2  0  0  0  0  0  0
  -19.5060  -26.6010   21.3770 C   0  0  0  0  0  2  0  0  0  0  0  0
  -18.1410  -26.7270   22.0580 C   0  0  0  0  0  2  0  0  0  0  0  0
  -19.1280  -28.7760   23.2420 C   0  0  0  0  0  0  0  0  0  0  0  0
  -18.9340  -30.0100   23.8990 C   0  0  0  0  0  3  0  0  0  0  0  0
  -17.6360  -30.5100   24.1220 C   0  0  0  0  0  3  0  0  0  0  0  0
  -16.5160  -29.7740   23.6950 C   0  0  0  0  0  3  0  0  0  0  0  0
  -16.6950  -28.5430   23.0400 C   0  0  0  0  0  3  0  0  0  0  0  0
  -25.8090  -32.4480   23.7980 C   0  0  0  0  0  3  0  0  0  0  0  0
  -25.4890  -33.8430   24.1430 N   0  0  0  0  0  0  0  0  0  0  0  0
  -25.8190  -34.9080   23.4000 C   0  0  0  0  0  0  0  0  0  0  0  0
  -26.4940  -34.8200   22.3710 O   0  0  0  0  0  0  0  0  0  0  0  0
  -24.8990  -33.9850   24.9490 H   0  0  0  0  0  0  0  0  0  0  0  0
  -24.0870  -36.7000   23.0560 C   0  0  0  0  0  1  0  0  0  0  0  0
  -25.3230  -36.2880   23.8730 C   0  0  0  0  0  3  0  0  0  0  0  0
  -27.4400  -37.1820   24.7440 C   0  0  0  0  0  1  0  0  0  0  0  0
  -26.3510  -37.3490   23.7830 N   0  0  0  0  0  0  0  0  0  0  0  0
  -25.9380  -38.2640   23.9310 H   0  0  0  0  0  0  0  0  0  0  0  0
  -26.3090  -31.6690   25.0770 C   0  0  1  0  0  0  0  0  0  0  0  0
  -25.1980  -31.4110   26.1220 C   0  0  0  0  0  1  0  0  0  0  0  0
  -26.9100  -30.3010   24.6850 C   0  0  0  0  0  1  0  0  0  0  0  0
  -27.4390  -32.4660   25.7710 C   0  0  0  0  0  1  0  0  0  0  0  0
  1  2  2  0
  1  4  1  0
  2  5  1  0
  3  6  1  0
  4  3  2  0
  5 52  1  0
  5  6  2  0
  6 51  1  0
  8  7  1  0
  9 11  1  0
  9 10  1  0
 10  4  1  0
 10  7  1  0
 11 20  1  0
 11  8  1  0
 12 18  1  0
 12 20  1  0
 13 18  1  0
 14 15  1  0
 14 13  1  0
 16 15  1  0
 16 25  1  0
 16 17  1  0
 18 17  1  0
 19 12  2  0
 20 21  1  0
 22 23  2  0
 23 42  1  0
 24 23  1  0
 24 27  1  0
 25 26  1  0
 25 22  1  0
 26 24  2  0
 27 28  1  0
 28 29  2  0
 30 33  1  0
 30 29  1  0
 31 30  2  0
 32 31  1  0
 32 27  2  0
 33 34  1  0
 34 35  1  0
 35 36  2  0
 37 36  1  0
 37 41  1  0
 38 37  2  0
 39 34  2  0
 39 38  1  0
 40 39  1  0
 42 43  1  0
 43 46  1  0
 43 45  1  0
 44 42  2  0
 47 22  1  0
 47 48  1  0
 49 47  1  0
 51 50  1  0
 52 54  1  0
 53 64  2  0
 54 59  1  0
 55 63  1  0
 55 65  1  0
 56 62  1  0
 56 58  1  0
 57 63  1  0
 58 57  1  0
 59 58  2  0
 60 61  1  0
 60 54  2  0
 61 56  2  0
 62 55  1  0
 63 53  1  0
 65 67  2  0
 66 65  1  0
 68 66  1  0
 69 78  2  0
 69 74  1  0
 70 66  1  0
 70 74  1  0
 71 70  1  0
 72 73  1  0
 72 71  1  0
 73 69  1  0
 74 75  2  0
 75 76  1  0
 77 76  2  0
 78 77  1  0
 79 53  1  0
 79 80  1  0
 79 89  1  0
 80 83  1  0
 81 85  1  0
 81 80  1  0
 82 81  2  0
 85 84  1  0
 87 85  1  0
 87 88  1  0
 87 86  1  0
 89 92  1  1
 89 90  1  0
 91 89  1  0
M  ISO  4   5 101  12 100  20 100  52 101
M  END
>  <TORSDO>  (94) 
F 18

>  <SCORE>  (94) 
-14.407

>  <name>  (94) 
94

>  <ligand_id>  (94) 
94

>  <original_smiles>  (94) 
[H]c1c([H])c([H])c2c(c1[H])C([H])([H])C([H])([H])C([H])([H])C2([H])N([H])C(=O)C1([H])N(C(=O)C([H])(N([H])C(=O)C([H])(N([H])C([H])([H])[H])C([H])([H])[H])C(C([H])([H])[H])(C([H])([H])[H])C([H])([H])[H])C([H])([H])c2c([H])c(Oc3c([H])c([H])c(C4([H])C([H])([H])C([H])([H])C([H])(N([H])C(=O)N5C([H])([H])C([H])([H])C([H])([H])C([H])(n6nc(-c7c([H])c([H])c(Oc8c([H])c([H])c(F)c([H])c8F)c([H])c7[H])c(C(=O)N([H])[H])c6N([H])[H])C5([H])[H])C4([H])[H])c([H])c3OC([H])([H])[H])c([H])c([H])c2C1([H])[H]

>  <smiles>  (94) 
[H]c1c([H])c([H])c2c(c1[H])C([H])([H])C([H])([H])C([H])([H])C2([H])N([H])C(=O)C1([H])N(C(=O)C([H])(N([H])C(=O)C([H])(N([H])C([H])([H])[H])C([H])([H])[H])C(C([H])([H])[H])(C([H])([H])[H])C([H])([H])[H])C([H])([H])c2c([H])c(Oc3c([H])c([H])c(C4([H])C([H])([H])C([H])([H])C([H])(N([H])C(=O)N5C([H])([H])C([H])([H])C([H])([H])C([H])(n6nc(-c7c([H])c([H])c(Oc8c([H])c([H])c(F)c([H])c8F)c([H])c7[H])c(C(=O)N([H])[H])c6N([H])[H])C5([H])[H])C4([H])[H])c([H])c3OC([H])([H])[H])c([H])c([H])c2C1([H])[H]

$$$$
95:0:0
     RDKit          3D

 94102  0  0  1  0  0  0  0  0999 V2000
  -31.0770  -22.7600   20.6620 C   0  0  0  0  0  3  0  0  0  0  0  0
  -31.0410  -21.3750   20.9190 C   0  0  0  0  0  3  0  0  0  0  0  0
  -28.6840  -22.7330   20.2290 C   0  0  0  0  0  3  0  0  0  0  0  0
  -29.8990  -23.4600   20.3100 C   0  0  0  0  0  0  0  0  0  0  0  0
  -29.8280  -20.6610   20.8350 C   0  0  0  0  0  0  0  0  0  0  0  0
  -28.6350  -21.3400   20.4910 C   0  0  0  0  0  0  0  0  0  0  0  0
  -26.2780  -21.2250   20.0040 C   0  0  0  0  0  1  0  0  0  0  0  0
  -27.4770  -20.5930   20.4360 O   0  0  0  0  0  0  0  0  0  0  0  0
  -29.9620  -24.9390   20.0620 C   0  0  0  0  0  0  0  0  0  0  0  0
  -31.0130  -25.5880   20.1300 O   0  0  0  0  0  0  0  0  0  0  0  0
  -28.6510  -25.6450   19.6730 C   0  0  0  0  0  2  0  0  0  0  0  0
  -28.8040  -27.0640   19.5210 O   0  0  0  0  0  0  0  0  0  0  0  0
  -24.6590  -31.6300   23.0560 C   0  0  0  0  0  0  0  0  0  0  0  0
  -27.6030  -27.7350   19.5520 C   0  0  0  0  0  0  0  0  0  0  0  0
  -23.5560  -30.3470   21.2500 C   0  0  0  0  0  3  0  0  0  0  0  0
  -25.1170  -29.0730   19.6880 C   0  0  0  0  0  0  0  0  0  0  0  0
  -26.0550  -30.8850   21.1310 C   0  0  0  0  0  2  0  0  0  0  0  0
  -26.2350  -29.6040   20.3430 C   0  0  0  0  0  0  0  0  0  0  0  0
  -27.4830  -28.9460   20.2690 C   0  0  0  0  0  3  0  0  0  0  0  0
  -26.4680  -27.2200   18.8850 C   0  0  0  0  0  3  0  0  0  0  0  0
  -25.2270  -27.8800   18.9540 C   0  0  0  0  0  3  0  0  0  0  0  0
  -23.8190  -29.8400   19.8080 C   0  0  0  0  0  2  0  0  0  0  0  0
  -24.7730  -30.9620   21.8730 N   0  0  0  0  0  0  0  0  0  0  0  0
  -23.5580  -31.7730   23.6050 O   0  0  0  0  0  0  0  0  0  0  0  0
  -22.9630  -29.1870   22.0820 C   0  0  0  0  0  0  0  0  0  0  0  0
  -21.6450  -28.9680   21.9490 N   0  0  0  0  0  0  0  0  0  0  0  0
  -23.6840  -28.4920   22.8040 O   0  0  0  0  0  0  0  0  0  0  0  0
  -21.1230  -29.5860   21.3420 H   0  0  0  0  0  0  0  0  0  0  0  0
  -18.3110  -27.6550   22.4140 C   0  0  0  0  0  0  0  0  0  0  0  0
  -20.8760  -27.9100   22.6040 C   0  0  0  0  0  3  0  0  0  0  0  0
  -20.9650  -26.5860   21.8110 C   0  0  0  0  0  2  0  0  0  0  0  0
  -19.8190  -26.4030   20.8120 C   0  0  0  0  0  2  0  0  0  0  0  0
  -18.4680  -26.4260   21.5330 C   0  0  0  0  0  2  0  0  0  0  0  0
  -19.4420  -28.3600   22.9040 C   0  0  0  0  0  0  0  0  0  0  0  0
  -19.2410  -29.5170   23.6890 C   0  0  0  0  0  3  0  0  0  0  0  0
  -17.9410  -29.9660   23.9890 C   0  0  0  0  0  3  0  0  0  0  0  0
  -16.8250  -29.2550   23.5140 C   0  0  0  0  0  3  0  0  0  0  0  0
  -17.0110  -28.1000   22.7330 C   0  0  0  0  0  3  0  0  0  0  0  0
  -25.8980  -32.2650   23.7600 C   0  0  0  0  0  3  0  0  0  0  0  0
  -25.5440  -33.6460   24.1150 N   0  0  0  0  0  0  0  0  0  0  0  0
  -25.8840  -34.7250   23.3990 C   0  0  0  0  0  0  0  0  0  0  0  0
  -26.5990  -34.6650   22.3950 O   0  0  0  0  0  0  0  0  0  0  0  0
  -24.9130  -33.7650   24.8950 H   0  0  0  0  0  0  0  0  0  0  0  0
  -24.1260  -36.4820   23.0240 C   0  0  0  0  0  1  0  0  0  0  0  0
  -25.3450  -36.0890   23.8710 C   0  0  0  0  0  3  0  0  0  0  0  0
  -27.4260  -37.0040   24.8010 C   0  0  0  0  0  1  0  0  0  0  0  0
  -26.3560  -37.1680   23.8200 N   0  0  0  0  0  0  0  0  0  0  0  0
  -25.9230  -38.0750   23.9740 H   0  0  0  0  0  0  0  0  0  0  0  0
  -26.3680  -31.4630   25.0340 C   0  0  1  0  0  0  0  0  0  0  0  0
  -25.2290  -31.1740   26.0410 C   0  0  0  0  0  1  0  0  0  0  0  0
  -26.9930  -30.1080   24.6280 C   0  0  0  0  0  1  0  0  0  0  0  0
  -27.4710  -32.2540   25.7750 C   0  0  0  0  0  1  0  0  0  0  0  0
  -29.8080  -19.1650   21.1430 C   0  0  0  0  0  2  0  0  0  0  0  0
  -29.7810  -18.2670   19.8880 C   0  0  0  0  0  2  0  0  0  0  0  0
  -31.1420  -18.1240   19.1830 C   0  0  0  0  0  2  0  0  0  0  0  0
  -32.1600  -17.2610   19.9520 C   0  0  0  0  0  2  0  0  0  0  0  0
  -32.2070  -14.7830   19.7940 C   0  0  0  0  0  0  0  0  0  0  0  0
  -31.6890  -12.5210   18.9860 C   0  0  0  0  0  2  0  0  0  0  0  0
  -30.7510  -12.6220   17.7660 C   0  0  0  0  0  2  0  0  0  0  0  0
  -29.2780  -12.6890   18.2120 C   0  0  0  0  0  2  0  0  0  0  0  0
  -29.0340  -13.7420   19.3280 C   0  0  0  0  0  3  0  0  0  0  0  0
  -30.0810  -13.5980   20.4570 C   0  0  0  0  0  2  0  0  0  0  0  0
  -31.4200  -13.6770   19.8520 N   0  0  0  0  0  0  0  0  0  0  0  0
  -33.3160  -14.7950   19.2560 O   0  0  0  0  0  0  0  0  0  0  0  0
  -31.6380  -15.9190   20.2280 N   0  0  0  0  0  0  0  0  0  0  0  0
  -30.7280  -15.8430   20.6540 H   0  0  0  0  0  0  0  0  0  0  0  0
  -26.7810  -14.6920   20.1360 C   0  0  0  0  0  0  0  0  0  0  0  0
  -25.6150  -14.0820   20.5160 C   0  0  0  0  0  0  0  0  0  0  0  0
  -25.8550  -12.6780   20.4250 C   0  0  0  0  0  0  0  0  0  0  0  0
  -27.6680  -13.6670   19.8420 N   0  0  0  0  0  0  0  0  0  0  0  0
  -27.1130  -12.4480   20.0700 N   0  0  0  0  0  0  0  0  0  0  0  0
  -24.9460  -11.5380   20.5990 C   0  0  0  0  0  0  0  0  0  0  0  0
  -25.2350  -10.4940   21.5050 C   0  0  0  0  0  3  0  0  0  0  0  0
  -24.3360   -9.4170   21.6680 C   0  0  0  0  0  3  0  0  0  0  0  0
  -23.1340   -9.3790   20.9240 C   0  0  0  0  0  0  0  0  0  0  0  0
  -22.8620  -10.4080   20.0060 C   0  0  0  0  0  3  0  0  0  0  0  0
  -23.7590  -11.4760   19.8420 C   0  0  0  0  0  3  0  0  0  0  0  0
  -22.2140   -8.3610   20.9970 O   0  0  0  0  0  0  0  0  0  0  0  0
  -22.0170   -7.6520   22.1550 C   0  0  0  0  0  0  0  0  0  0  0  0
  -21.6420   -8.2830   23.3620 C   0  0  0  0  0  3  0  0  0  0  0  0
  -21.3820   -7.5090   24.5100 C   0  0  0  0  0  3  0  0  0  0  0  0
  -21.4850   -6.1060   24.4520 C   0  0  0  0  0  0  0  0  0  0  0  0
  -21.8530   -5.4760   23.2510 C   0  0  0  0  0  3  0  0  0  0  0  0
  -22.1160   -6.2470   22.1060 C   0  0  0  0  0  0  0  0  0  0  0  0
  -22.4490   -5.6330   20.9440 F   0  0  0  0  0  0  0  0  0  0  0  0
  -21.2270   -5.3610   25.5530 F   0  0  0  0  0  0  0  0  0  0  0  0
  -24.3180  -14.7610   20.8540 C   0  0  0  0  0  0  0  0  0  0  0  0
  -23.5280  -14.1670   21.7420 N   0  0  0  0  0  0  0  0  0  0  0  0
  -24.0210  -15.8500   20.3660 O   0  0  0  0  0  0  0  0  0  0  0  0
  -23.7820  -13.2850   22.1610 H   0  0  0  0  0  0  0  0  0  0  0  0
  -22.6570  -14.6030   22.0080 H   0  0  0  0  0  0  0  0  0  0  0  0
  -27.1570  -16.0240   19.9990 N   0  0  0  0  0  0  0  0  0  0  0  0
  -26.5110  -16.7900   20.1620 H   0  0  0  0  0  0  0  0  0  0  0  0
  -28.0590  -16.3320   19.6620 H   0  0  0  0  0  0  0  0  0  0  0  0
  1  2  1  0
  3  4  1  0
  3  6  2  0
  4  1  2  0
  5  2  2  0
  5 53  1  0
  6  5  1  0
  7  8  1  0
  8  6  1  0
  9 10  2  0
  9  4  1  0
 11  9  1  0
 12 14  1  0
 12 11  1  0
 13 24  2  0
 14 19  1  0
 15 23  1  0
 15 25  1  0
 16 22  1  0
 16 18  1  0
 17 23  1  0
 18 17  1  0
 19 18  2  0
 20 21  1  0
 20 14  2  0
 21 16  2  0
 22 15  1  0
 23 13  1  0
 25 27  2  0
 26 25  1  0
 28 26  1  0
 29 38  2  0
 29 34  1  0
 30 26  1  0
 30 34  1  0
 31 30  1  0
 32 33  1  0
 32 31  1  0
 33 29  1  0
 34 35  2  0
 35 36  1  0
 37 36  2  0
 38 37  1  0
 39 13  1  0
 39 40  1  0
 39 49  1  0
 40 43  1  0
 41 45  1  0
 41 40  1  0
 42 41  2  0
 45 44  1  0
 47 45  1  0
 47 48  1  0
 47 46  1  0
 49 52  1  1
 49 50  1  0
 51 49  1  0
 54 53  1  0
 55 54  1  0
 55 56  1  0
 56 65  1  0
 57 63  1  0
 57 65  1  0
 58 63  1  0
 59 60  1  0
 59 58  1  0
 61 60  1  0
 61 70  1  0
 61 62  1  0
 63 62  1  0
 64 57  2  0
 65 66  1  0
 67 68  2  0
 68 87  1  0
 69 68  1  0
 69 72  1  0
 70 71  1  0
 70 67  1  0
 71 69  2  0
 72 73  1  0
 73 74  2  0
 75 78  1  0
 75 74  1  0
 76 75  2  0
 77 76  1  0
 77 72  2  0
 78 79  1  0
 79 80  1  0
 80 81  2  0
 82 81  1  0
 82 86  1  0
 83 82  2  0
 84 79  2  0
 84 83  1  0
 85 84  1  0
 87 88  1  0
 88 91  1  0
 88 90  1  0
 89 87  2  0
 92 67  1  0
 92 93  1  0
 94 92  1  0
M  ISO  4  11 101  12 101  57 100  65 100
M  END
>  <TORSDO>  (95) 
F 23

>  <SCORE>  (95) 
-8.976

>  <name>  (95) 
95

>  <ligand_id>  (95) 
95

>  <original_smiles>  (95) 
[H]c1c([H])c([H])c2c(c1[H])C([H])([H])C([H])([H])C([H])([H])C2([H])N([H])C(=O)C1([H])N(C(=O)C([H])(N([H])C(=O)C([H])(N([H])C([H])([H])[H])C([H])([H])[H])C(C([H])([H])[H])(C([H])([H])[H])C([H])([H])[H])C([H])([H])c2c([H])c(OC([H])([H])C(=O)c3c([H])c([H])c(C([H])([H])C([H])([H])C([H])([H])C([H])([H])N([H])C(=O)N4C([H])([H])C([H])([H])C([H])([H])C([H])(n5nc(-c6c([H])c([H])c(Oc7c([H])c([H])c(F)c([H])c7F)c([H])c6[H])c(C(=O)N([H])[H])c5N([H])[H])C4([H])[H])c(OC([H])([H])[H])c3[H])c([H])c([H])c2C1([H])[H]

>  <smiles>  (95) 
[H]c1c([H])c([H])c2c(c1[H])C([H])([H])C([H])([H])C([H])([H])C2([H])N([H])C(=O)C1([H])N(C(=O)C([H])(N([H])C(=O)C([H])(N([H])C([H])([H])[H])C([H])([H])[H])C(C([H])([H])[H])(C([H])([H])[H])C([H])([H])[H])C([H])([H])c2c([H])c(OC([H])([H])C(=O)c3c([H])c([H])c(C([H])([H])C([H])([H])C([H])([H])C([H])([H])N([H])C(=O)N4C([H])([H])C([H])([H])C([H])([H])C([H])(n5nc(-c6c([H])c([H])c(Oc7c([H])c([H])c(F)c([H])c7F)c([H])c6[H])c(C(=O)N([H])[H])c5N([H])[H])C4([H])[H])c(OC([H])([H])[H])c3[H])c([H])c([H])c2C1([H])[H]

$$$$
96:0:0
     RDKit          3D

 95103  0  0  1  0  0  0  0  0999 V2000
  -31.6360  -20.5500   18.8040 C   0  0  0  0  0  3  0  0  0  0  0  0
  -30.6760  -19.8310   18.0490 C   0  0  0  0  0  0  0  0  0  0  0  0
  -29.5100  -19.3450   18.7040 C   0  0  0  0  0  0  0  0  0  0  0  0
  -29.5420  -19.3580   20.1160 C   0  0  0  0  0  3  0  0  0  0  0  0
  -29.9990  -20.6980   20.5780 C   0  0  0  0  0  3  0  0  0  0  0  0
  -31.2740  -21.0400   20.0780 C   0  0  0  0  0  0  0  0  0  0  0  0
  -30.9260  -19.5880   16.5720 C   0  0  0  0  0  1  0  0  0  0  0  0
  -32.0640  -21.9580   20.7060 O   0  0  0  0  0  0  0  0  0  0  0  0
  -32.9150  -22.0540   20.2910 H   0  0  0  0  0  0  0  0  0  0  0  0
  -30.2560  -17.9450   20.5690 C   0  0  0  0  0  2  0  0  0  0  0  0
  -29.7080  -16.4150   20.1670 C   0  0  0  0  0  2  0  0  0  0  0  0
  -30.5760  -15.0240   20.0280 C   0  0  0  0  0  0  0  0  0  0  0  0
  -30.3500  -12.7660   18.9310 C   0  0  0  0  0  2  0  0  0  0  0  0
  -29.3400  -12.8860   17.7640 C   0  0  0  0  0  2  0  0  0  0  0  0
  -27.8890  -12.7060   18.2550 C   0  0  0  0  0  2  0  0  0  0  0  0
  -27.5940  -13.5320   19.5350 C   0  0  0  0  0  3  0  0  0  0  0  0
  -28.7100  -13.3810   20.5880 C   0  0  0  0  0  2  0  0  0  0  0  0
  -29.9770  -13.7730   19.9590 N   0  0  0  0  0  0  0  0  0  0  0  0
  -31.7700  -15.0980   19.7210 O   0  0  0  0  0  0  0  0  0  0  0  0
  -25.2560  -14.1290   20.3910 C   0  0  0  0  0  0  0  0  0  0  0  0
  -24.1980  -13.3560   20.7930 C   0  0  0  0  0  0  0  0  0  0  0  0
  -24.6430  -12.0020   20.7100 C   0  0  0  0  0  0  0  0  0  0  0  0
  -26.2740  -13.2420   20.0840 N   0  0  0  0  0  0  0  0  0  0  0  0
  -25.9180  -11.9580   20.3400 N   0  0  0  0  0  0  0  0  0  0  0  0
  -23.9060  -10.7450   20.9030 C   0  0  0  0  0  0  0  0  0  0  0  0
  -24.3100   -9.7940   21.8660 C   0  0  0  0  0  3  0  0  0  0  0  0
  -23.5770   -8.6020   22.0490 C   0  0  0  0  0  3  0  0  0  0  0  0
  -22.4230   -8.3540   21.2680 C   0  0  0  0  0  0  0  0  0  0  0  0
  -22.0360   -9.2910   20.2950 C   0  0  0  0  0  3  0  0  0  0  0  0
  -22.7710  -10.4740   20.1100 C   0  0  0  0  0  3  0  0  0  0  0  0
  -21.6620   -7.2120   21.3610 O   0  0  0  0  0  0  0  0  0  0  0  0
  -21.5290   -6.5270   22.5430 C   0  0  0  0  0  0  0  0  0  0  0  0
  -20.9950   -7.1340   23.7000 C   0  0  0  0  0  3  0  0  0  0  0  0
  -20.8110   -6.3740   24.8730 C   0  0  0  0  0  3  0  0  0  0  0  0
  -21.1520   -5.0070   24.8870 C   0  0  0  0  0  0  0  0  0  0  0  0
  -21.6800   -4.4010   23.7330 C   0  0  0  0  0  3  0  0  0  0  0  0
  -21.8650   -5.1590   22.5640 C   0  0  0  0  0  0  0  0  0  0  0  0
  -22.3540   -4.5640   21.4480 F   0  0  0  0  0  0  0  0  0  0  0  0
  -20.9680   -4.2740   26.0080 F   0  0  0  0  0  0  0  0  0  0  0  0
  -22.8210  -13.8450   21.1380 C   0  0  0  0  0  0  0  0  0  0  0  0
  -22.1230  -13.1370   22.0190 N   0  0  0  0  0  0  0  0  0  0  0  0
  -22.3720  -14.8860   20.6610 O   0  0  0  0  0  0  0  0  0  0  0  0
  -22.5000  -12.2950   22.4300 H   0  0  0  0  0  0  0  0  0  0  0  0
  -21.1970  -13.4380   22.2850 H   0  0  0  0  0  0  0  0  0  0  0  0
  -25.4270  -15.5000   20.2400 N   0  0  0  0  0  0  0  0  0  0  0  0
  -24.6750  -16.1570   20.4100 H   0  0  0  0  0  0  0  0  0  0  0  0
  -26.2690  -15.9420   19.8940 H   0  0  0  0  0  0  0  0  0  0  0  0
  -28.3540  -18.6850   17.9600 C   0  0  0  0  0  2  0  0  0  0  0  0
  -27.2830  -19.7020   17.5270 C   0  0  0  0  0  2  0  0  0  0  0  0
  -24.8760  -19.9720   16.6850 C   0  0  0  0  0  1  0  0  0  0  0  0
  -26.0870  -19.0390   16.8180 C   0  0  0  0  0  2  0  0  0  0  0  0
  -29.0580  -21.9700   21.0160 C   0  0  0  0  0  2  0  0  0  0  0  0
  -29.3870  -23.5910   20.7230 C   0  0  0  0  0  3  0  0  0  0  0  0
  -28.2470  -24.8060   20.7000 C   0  0  0  0  0  3  0  0  0  0  0  0
  -28.4900  -26.3300   20.5860 O   0  0  0  0  0  0  0  0  0  0  0  0
  -24.6330  -31.9850   23.2560 C   0  0  0  0  0  0  0  0  0  0  0  0
  -27.3930  -27.2490   20.4720 C   0  0  0  0  0  0  0  0  0  0  0  0
  -23.4990  -30.4880   21.6580 C   0  0  0  0  0  3  0  0  0  0  0  0
  -25.0160  -28.9040   20.3260 C   0  0  0  0  0  0  0  0  0  0  0  0
  -26.0450  -30.8290   21.5220 C   0  0  0  0  0  2  0  0  0  0  0  0
  -26.1690  -29.4150   20.9320 C   0  0  0  0  0  0  0  0  0  0  0  0
  -27.3610  -28.6040   20.9840 C   0  0  0  0  0  3  0  0  0  0  0  0
  -26.2080  -26.8300   19.8250 C   0  0  0  0  0  3  0  0  0  0  0  0
  -25.0470  -27.6250   19.7520 C   0  0  0  0  0  3  0  0  0  0  0  0
  -23.7620  -29.7590   20.3130 C   0  0  0  0  0  2  0  0  0  0  0  0
  -24.7430  -31.1240   22.1990 N   0  0  0  0  0  0  0  0  0  0  0  0
  -23.5310  -32.2610   23.7530 O   0  0  0  0  0  0  0  0  0  0  0  0
  -22.8320  -29.5050   22.6520 C   0  0  0  0  0  0  0  0  0  0  0  0
  -21.5150  -29.2810   22.4980 N   0  0  0  0  0  0  0  0  0  0  0  0
  -23.5030  -28.9450   23.5220 O   0  0  0  0  0  0  0  0  0  0  0  0
  -21.0340  -29.7810   21.7640 H   0  0  0  0  0  0  0  0  0  0  0  0
  -18.1550  -28.0220   22.9890 C   0  0  0  0  0  0  0  0  0  0  0  0
  -20.7010  -28.3580   23.2940 C   0  0  0  0  0  3  0  0  0  0  0  0
  -20.8510  -26.9080   22.7800 C   0  0  0  0  0  2  0  0  0  0  0  0
  -19.7750  -26.5150   21.7620 C   0  0  0  0  0  2  0  0  0  0  0  0
  -18.3780  -26.6500   22.3730 C   0  0  0  0  0  2  0  0  0  0  0  0
  -19.2460  -28.8300   23.4070 C   0  0  0  0  0  0  0  0  0  0  0  0
  -18.9820  -30.1090   23.9440 C   0  0  0  0  0  3  0  0  0  0  0  0
  -17.6610  -30.5800   24.0680 C   0  0  0  0  0  3  0  0  0  0  0  0
  -16.5860  -29.7700   23.6660 C   0  0  0  0  0  3  0  0  0  0  0  0
  -16.8340  -28.4930   23.1300 C   0  0  0  0  0  3  0  0  0  0  0  0
  -25.8840  -32.6780   23.8750 C   0  0  0  0  0  3  0  0  0  0  0  0
  -26.3950  -31.9700   25.1910 C   0  0  1  0  0  0  0  0  0  0  0  0
  -25.2840  -31.7350   26.2430 C   0  0  0  0  0  1  0  0  0  0  0  0
  -27.0300  -30.5980   24.8650 C   0  0  0  0  0  1  0  0  0  0  0  0
  -27.5030  -32.8260   25.8470 C   0  0  0  0  0  1  0  0  0  0  0  0
  -25.5290  -34.0780   24.1520 N   0  0  0  0  0  0  0  0  0  0  0  0
  -25.8290  -35.1130   23.3570 C   0  0  0  0  0  0  0  0  0  0  0  0
  -26.5030  -34.9920   22.3290 O   0  0  0  0  0  0  0  0  0  0  0  0
  -24.9280  -34.2420   24.9460 H   0  0  0  0  0  0  0  0  0  0  0  0
  -24.0390  -36.8360   22.9570 C   0  0  0  0  0  1  0  0  0  0  0  0
  -25.3030  -36.5030   23.7660 C   0  0  0  0  0  3  0  0  0  0  0  0
  -27.4100  -37.4980   24.5400 C   0  0  0  0  0  1  0  0  0  0  0  0
  -26.2980  -37.5850   23.5980 N   0  0  0  0  0  0  0  0  0  0  0  0
  -25.8610  -38.4960   23.7050 H   0  0  0  0  0  0  0  0  0  0  0  0
  1  6  2  0
  2  3  2  0
  2  1  1  0
  3  4  1  0
  4 10  1  0
  4  5  1  0
  5 52  1  0
  6  5  1  0
  6  8  1  0
  7  2  1  0
  9  8  1  0
 11 10  1  0
 12 11  1  0
 13 18  1  0
 14 15  1  0
 14 13  1  0
 16 15  1  0
 16 23  1  0
 16 17  1  0
 18 12  1  0
 18 17  1  0
 19 12  2  0
 20 21  2  0
 21 40  1  0
 22 21  1  0
 22 25  1  0
 23 24  1  0
 23 20  1  0
 24 22  2  0
 25 26  1  0
 26 27  2  0
 28 31  1  0
 28 27  1  0
 29 28  2  0
 30 29  1  0
 30 25  2  0
 31 32  1  0
 32 37  2  0
 32 33  1  0
 33 34  2  0
 34 35  1  0
 35 39  1  0
 36 35  2  0
 37 36  1  0
 38 37  1  0
 40 41  1  0
 41 44  1  0
 41 43  1  0
 42 40  2  0
 45 20  1  0
 45 46  1  0
 47 45  1  0
 48  3  1  0
 49 48  1  0
 50 51  1  0
 51 49  1  0
 53 52  1  0
 54 53  2  0
 55 54  1  0
 56 67  2  0
 57 55  1  0
 57 62  1  0
 58 66  1  0
 58 68  1  0
 59 61  1  0
 60 66  1  0
 61 62  2  0
 61 60  1  0
 63 57  2  0
 64 63  1  0
 64 59  2  0
 65 59  1  0
 65 58  1  0
 66 56  1  0
 68 70  2  0
 69 68  1  0
 71 69  1  0
 72 81  2  0
 72 77  1  0
 73 69  1  0
 73 77  1  0
 74 73  1  0
 75 76  1  0
 75 74  1  0
 76 72  1  0
 77 78  2  0
 78 79  1  0
 80 79  2  0
 81 80  1  0
 82 56  1  0
 82 87  1  0
 82 83  1  0
 83 86  1  1
 83 84  1  0
 85 83  1  0
 87 90  1  0
 88 92  1  0
 88 87  1  0
 89 88  2  0
 92 91  1  0
 94 95  1  0
 94 92  1  0
 94 93  1  0
M  ISO  4  11 100  12 100  54 101  55 101
M  END
>  <TORSDO>  (96) 
F 25

>  <SCORE>  (96) 
-10.951

>  <name>  (96) 
96

>  <ligand_id>  (96) 
96

>  <original_smiles>  (96) 
[H]Oc1c([H])c(C([H])([H])[H])c(C([H])([H])C([H])([H])C([H])([H])C([H])([H])[H])c(C([H])([H])C([H])([H])C(=O)N2C([H])([H])C([H])([H])C([H])([H])C([H])(n3nc(-c4c([H])c([H])c(Oc5c([H])c([H])c(F)c([H])c5F)c([H])c4[H])c(C(=O)N([H])[H])c3N([H])[H])C2([H])[H])c1C([H])([H])C([H])([H])C([H])([H])Oc1c([H])c([H])c2c(c1[H])C([H])([H])N(C(=O)C([H])(N([H])C(=O)C([H])(N([H])C([H])([H])[H])C([H])([H])[H])C(C([H])([H])[H])(C([H])([H])[H])C([H])([H])[H])C([H])(C(=O)N([H])C1([H])c3c([H])c([H])c([H])c([H])c3C([H])([H])C([H])([H])C1([H])[H])C2([H])[H]

>  <smiles>  (96) 
[H]Oc1c([H])c(C([H])([H])[H])c(C([H])([H])C([H])([H])C([H])([H])C([H])([H])[H])c(C([H])([H])C([H])([H])C(=O)N2C([H])([H])C([H])([H])C([H])([H])C([H])(n3nc(-c4c([H])c([H])c(Oc5c([H])c([H])c(F)c([H])c5F)c([H])c4[H])c(C(=O)N([H])[H])c3N([H])[H])C2([H])[H])c1C([H])([H])C([H])([H])C([H])([H])Oc1c([H])c([H])c2c(c1[H])C([H])([H])N(C(=O)C([H])(N([H])C(=O)C([H])(N([H])C([H])([H])[H])C([H])([H])[H])C(C([H])([H])[H])(C([H])([H])[H])C([H])([H])[H])C([H])(C(=O)N([H])C1([H])c3c([H])c([H])c([H])c([H])c3C([H])([H])C([H])([H])C1([H])[H])C2([H])[H]

$$$$
97:0:0
     RDKit          3D

101109  0  0  1  0  0  0  0  0999 V2000
  -28.5140  -18.7020   19.0190 C   0  0  0  0  0  2  0  0  0  0  0  0
  -27.1110  -19.0650   18.4940 C   0  0  0  0  0  2  0  0  0  0  0  0
  -26.2560  -19.8720   19.5010 C   0  0  0  0  0  2  0  0  0  0  0  0
  -26.0260  -21.3660   19.1560 C   0  0  0  0  0  2  0  0  0  0  0  0
  -27.1800  -22.3120   19.5370 C   0  0  0  0  0  0  0  0  0  0  0  0
  -26.8720  -23.3790   20.2810 N   0  0  0  0  0  0  0  0  0  0  0  0
  -28.3240  -22.0970   19.1400 O   0  0  0  0  0  0  0  0  0  0  0  0
  -25.9000  -23.4870   20.5380 H   0  0  0  0  0  0  0  0  0  0  0  0
  -27.8140  -24.3740   20.8040 C   0  0  0  0  0  2  0  0  0  0  0  0
  -28.3830  -25.3200   19.7120 C   0  0  0  0  0  2  0  0  0  0  0  0
  -28.3940  -26.7020   20.1050 O   0  0  0  0  0  0  0  0  0  0  0  0
  -24.6190  -31.8730   23.2130 C   0  0  0  0  0  0  0  0  0  0  0  0
  -27.2130  -27.4230   20.0880 C   0  0  0  0  0  0  0  0  0  0  0  0
  -23.4050  -30.5090   21.5450 C   0  0  0  0  0  3  0  0  0  0  0  0
  -24.8430  -28.9730   20.1090 C   0  0  0  0  0  0  0  0  0  0  0  0
  -25.9320  -30.8410   21.3560 C   0  0  0  0  0  2  0  0  0  0  0  0
  -26.0040  -29.4690   20.7090 C   0  0  0  0  0  0  0  0  0  0  0  0
  -27.1900  -28.6980   20.6980 C   0  0  0  0  0  3  0  0  0  0  0  0
  -26.0250  -26.9450   19.4840 C   0  0  0  0  0  3  0  0  0  0  0  0
  -24.8470  -27.7100   19.4960 C   0  0  0  0  0  3  0  0  0  0  0  0
  -23.6260  -29.8720   20.1480 C   0  0  0  0  0  2  0  0  0  0  0  0
  -24.6720  -31.0870   22.1000 N   0  0  0  0  0  0  0  0  0  0  0  0
  -23.5400  -32.1470   23.7530 O   0  0  0  0  0  0  0  0  0  0  0  0
  -22.7450  -29.4740   22.4840 C   0  0  0  0  0  0  0  0  0  0  0  0
  -21.4180  -29.3100   22.3620 N   0  0  0  0  0  0  0  0  0  0  0  0
  -23.4250  -28.8260   23.2830 O   0  0  0  0  0  0  0  0  0  0  0  0
  -20.9290  -29.8950   21.6960 H   0  0  0  0  0  0  0  0  0  0  0  0
  -18.0350  -28.1390   22.8540 C   0  0  0  0  0  0  0  0  0  0  0  0
  -20.5930  -28.3740   23.1280 C   0  0  0  0  0  3  0  0  0  0  0  0
  -20.6800  -26.9460   22.5410 C   0  0  0  0  0  2  0  0  0  0  0  0
  -19.5760  -26.6450   21.5230 C   0  0  0  0  0  2  0  0  0  0  0  0
  -18.1960  -26.7950   22.1680 C   0  0  0  0  0  2  0  0  0  0  0  0
  -19.1580  -28.8890   23.2920 C   0  0  0  0  0  0  0  0  0  0  0  0
  -18.9490  -30.1510   23.8930 C   0  0  0  0  0  3  0  0  0  0  0  0
  -17.6450  -30.6570   24.0640 C   0  0  0  0  0  3  0  0  0  0  0  0
  -16.5370  -29.9100   23.6300 C   0  0  0  0  0  3  0  0  0  0  0  0
  -16.7330  -28.6530   23.0290 C   0  0  0  0  0  3  0  0  0  0  0  0
  -25.9100  -32.4830   23.8410 C   0  0  0  0  0  3  0  0  0  0  0  0
  -25.5970  -33.8620   24.2370 N   0  0  0  0  0  0  0  0  0  0  0  0
  -25.9040  -34.9480   23.5150 C   0  0  0  0  0  0  0  0  0  0  0  0
  -26.5560  -34.8940   22.4680 O   0  0  0  0  0  0  0  0  0  0  0  0
  -25.0230  -33.9770   25.0590 H   0  0  0  0  0  0  0  0  0  0  0  0
  -24.1470  -36.7300   23.2610 C   0  0  0  0  0  1  0  0  0  0  0  0
  -25.4100  -36.3110   24.0330 C   0  0  0  0  0  3  0  0  0  0  0  0
  -27.5560  -37.1820   24.8480 C   0  0  0  0  0  1  0  0  0  0  0  0
  -26.4260  -37.3820   23.9450 N   0  0  0  0  0  0  0  0  0  0  0  0
  -26.0140  -38.2880   24.1520 H   0  0  0  0  0  0  0  0  0  0  0  0
  -26.4520  -31.6520   25.0700 C   0  0  1  0  0  0  0  0  0  0  0  0
  -25.3800  -31.3570   26.1450 C   0  0  0  0  0  1  0  0  0  0  0  0
  -27.0250  -30.2970   24.5940 C   0  0  0  0  0  1  0  0  0  0  0  0
  -27.6150  -32.4130   25.7480 C   0  0  0  0  0  1  0  0  0  0  0  0
  -28.5660  -17.5810   20.0850 C   0  0  0  0  0  2  0  0  0  0  0  0
  -29.9740  -17.5050   20.7210 C   0  0  0  0  0  2  0  0  0  0  0  0
  -30.2170  -16.5500   21.9260 C   0  0  0  0  0  3  0  0  0  0  0  0
  -30.6830  -14.3740   20.6900 C   0  0  0  0  0  0  0  0  0  0  0  0
  -30.4310  -12.2850   19.3930 C   0  0  0  0  0  2  0  0  0  0  0  0
  -29.4950  -12.5570   18.1960 C   0  0  0  0  0  2  0  0  0  0  0  0
  -28.0090  -12.4230   18.5980 C   0  0  0  0  0  2  0  0  0  0  0  0
  -27.6710  -13.1960   19.8980 C   0  0  0  0  0  3  0  0  0  0  0  0
  -28.7020  -12.8580   20.9930 C   0  0  0  0  0  2  0  0  0  0  0  0
  -30.0440  -13.1950   20.4760 N   0  0  0  0  0  0  0  0  0  0  0  0
  -31.7230  -14.7090   20.1130 O   0  0  0  0  0  0  0  0  0  0  0  0
  -30.0350  -15.1480   21.5670 N   0  0  0  0  0  0  0  0  0  0  0  0
  -29.2710  -14.6770   22.0230 H   0  0  0  0  0  0  0  0  0  0  0  0
  -25.2590  -13.8180   20.5650 C   0  0  0  0  0  0  0  0  0  0  0  0
  -24.1840  -13.0460   20.9130 C   0  0  0  0  0  0  0  0  0  0  0  0
  -24.6370  -11.6910   20.8730 C   0  0  0  0  0  0  0  0  0  0  0  0
  -26.3070  -12.9320   20.3460 N   0  0  0  0  0  0  0  0  0  0  0  0
  -25.9310  -11.6490   20.5790 N   0  0  0  0  0  0  0  0  0  0  0  0
  -23.9020  -10.4320   21.0420 C   0  0  0  0  0  0  0  0  0  0  0  0
  -24.3600   -9.4250   21.9190 C   0  0  0  0  0  3  0  0  0  0  0  0
  -23.6310   -8.2260   22.0730 C   0  0  0  0  0  3  0  0  0  0  0  0
  -22.4280   -8.0300   21.3520 C   0  0  0  0  0  0  0  0  0  0  0  0
  -21.9900   -9.0260   20.4600 C   0  0  0  0  0  3  0  0  0  0  0  0
  -22.7200  -10.2160   20.3020 C   0  0  0  0  0  3  0  0  0  0  0  0
  -21.6640   -6.8900   21.4220 O   0  0  0  0  0  0  0  0  0  0  0  0
  -21.6890   -6.0760   22.5260 C   0  0  0  0  0  0  0  0  0  0  0  0
  -21.4040   -6.5660   23.8200 C   0  0  0  0  0  3  0  0  0  0  0  0
  -21.3630   -5.6790   24.9150 C   0  0  0  0  0  3  0  0  0  0  0  0
  -21.6030   -4.3060   24.7210 C   0  0  0  0  0  0  0  0  0  0  0  0
  -21.8810   -3.8150   23.4330 C   0  0  0  0  0  3  0  0  0  0  0  0
  -21.9190   -4.6970   22.3390 C   0  0  0  0  0  0  0  0  0  0  0  0
  -22.1670   -4.2150   21.0960 F   0  0  0  0  0  0  0  0  0  0  0  0
  -21.5600   -3.4540   25.7740 F   0  0  0  0  0  0  0  0  0  0  0  0
  -22.7860  -13.5270   21.1800 C   0  0  0  0  0  0  0  0  0  0  0  0
  -22.0490  -12.8280   22.0370 N   0  0  0  0  0  0  0  0  0  0  0  0
  -22.3510  -14.5550   20.6600 O   0  0  0  0  0  0  0  0  0  0  0  0
  -22.4190  -12.0100   22.4990 H   0  0  0  0  0  0  0  0  0  0  0  0
  -21.1040  -13.1210   22.2440 H   0  0  0  0  0  0  0  0  0  0  0  0
  -25.4230  -15.1910   20.4030 N   0  0  0  0  0  0  0  0  0  0  0  0
  -24.6320  -15.8250   20.4360 H   0  0  0  0  0  0  0  0  0  0  0  0
  -26.2840  -15.6540   20.1460 H   0  0  0  0  0  0  0  0  0  0  0  0
  -29.4630  -16.8250   23.2730 C   0  0  0  0  0  2  0  0  0  0  0  0
  -28.5500  -20.5350   23.4630 C   0  0  0  0  0  3  0  0  0  0  0  0
  -29.2590  -19.3320   23.3140 C   0  0  0  0  0  3  0  0  0  0  0  0
  -26.4930  -19.2690   23.7550 C   0  0  0  0  0  3  0  0  0  0  0  0
  -27.1660  -20.5060   23.7100 C   0  0  0  0  0  0  0  0  0  0  0  0
  -28.6030  -18.0850   23.3800 C   0  0  0  0  0  0  0  0  0  0  0  0
  -27.1970  -18.0550   23.5970 C   0  0  0  0  0  0  0  0  0  0  0  0
  -26.4160  -21.8030   23.9570 C   0  0  0  0  0  1  0  0  0  0  0  0
  -26.4070  -16.7580   23.6890 C   0  0  0  0  0  1  0  0  0  0  0  0
  1 52  1  0
  2  1  1  0
  2  3  1  0
  4  3  1  0
  4  5  1  0
  5  6  1  0
  6  8  1  0
  6  9  1  0
  7  5  2  0
 10 11  1  0
 10  9  1  0
 12 23  2  0
 13 11  1  0
 13 18  1  0
 14 22  1  0
 14 24  1  0
 15 21  1  0
 15 17  1  0
 16 22  1  0
 17 16  1  0
 18 17  2  0
 19 20  1  0
 19 13  2  0
 20 15  2  0
 21 14  1  0
 22 12  1  0
 24 26  2  0
 25 24  1  0
 27 25  1  0
 28 37  2  0
 28 33  1  0
 29 25  1  0
 29 33  1  0
 30 29  1  0
 31 32  1  0
 31 30  1  0
 32 28  1  0
 33 34  2  0
 34 35  1  0
 36 35  2  0
 37 36  1  0
 38 12  1  0
 38 39  1  0
 38 48  1  0
 39 42  1  0
 40 44  1  0
 40 39  1  0
 41 40  2  0
 44 43  1  0
 46 44  1  0
 46 47  1  0
 46 45  1  0
 48 51  1  1
 48 49  1  0
 50 48  1  0
 52 53  1  0
 54 53  1  0
 54 93  1  0
 55 63  1  0
 56 61  1  0
 57 58  1  0
 57 56  1  0
 59 58  1  0
 59 68  1  0
 59 60  1  0
 61 55  1  0
 61 60  1  0
 62 55  2  0
 63 54  1  0
 63 64  1  0
 65 66  2  0
 66 85  1  0
 67 66  1  0
 67 70  1  0
 68 65  1  0
 68 69  1  0
 69 67  2  0
 70 71  1  0
 71 72  2  0
 73 76  1  0
 73 72  1  0
 74 73  2  0
 75 74  1  0
 75 70  2  0
 76 77  1  0
 77 78  1  0
 78 79  2  0
 80 79  1  0
 80 84  1  0
 81 80  2  0
 82 77  2  0
 82 81  1  0
 83 82  1  0
 85 86  1  0
 86 89  1  0
 86 88  1  0
 87 85  2  0
 90 91  1  0
 90 65  1  0
 92 90  1  0
 93 98  1  0
 94 97  1  0
 95 98  1  0
 95 94  2  0
 97 96  2  0
 97100  1  0
 98 99  2  0
 99101  1  0
 99 96  1  0
M  ISO  4  10 101  11 101  55 100  63 100
M  END
>  <TORSDO>  (97) 
F 27

>  <SCORE>  (97) 
47.346

>  <name>  (97) 
97

>  <ligand_id>  (97) 
97

>  <original_smiles>  (97) 
[H]c1c([H])c([H])c2c(c1[H])C([H])([H])C([H])([H])C([H])([H])C2([H])N([H])C(=O)C1([H])N(C(=O)C([H])(N([H])C(=O)C([H])(N([H])C([H])([H])[H])C([H])([H])[H])C(C([H])([H])[H])(C([H])([H])[H])C([H])([H])[H])C([H])([H])c2c([H])c(OC([H])([H])C([H])([H])N([H])C(=O)C([H])([H])C([H])([H])C([H])([H])C([H])([H])C([H])([H])C([H])([H])C([H])(N([H])C(=O)N3C([H])([H])C([H])([H])C([H])([H])C([H])(n4nc(-c5c([H])c([H])c(Oc6c([H])c([H])c(F)c([H])c6F)c([H])c5[H])c(C(=O)N([H])[H])c4N([H])[H])C3([H])[H])C([H])([H])c3c([H])c([H])c(C([H])([H])[H])c([H])c3C([H])([H])[H])c([H])c([H])c2C1([H])[H]

>  <smiles>  (97) 
[H]c1c([H])c([H])c2c(c1[H])C([H])([H])C([H])([H])C([H])([H])C2([H])N([H])C(=O)C1([H])N(C(=O)C([H])(N([H])C(=O)C([H])(N([H])C([H])([H])[H])C([H])([H])[H])C(C([H])([H])[H])(C([H])([H])[H])C([H])([H])[H])C([H])([H])c2c([H])c(OC([H])([H])C([H])([H])N([H])C(=O)C([H])([H])C([H])([H])C([H])([H])C([H])([H])C([H])([H])C([H])([H])C([H])(N([H])C(=O)N3C([H])([H])C([H])([H])C([H])([H])C([H])(n4nc(-c5c([H])c([H])c(Oc6c([H])c([H])c(F)c([H])c6F)c([H])c5[H])c(C(=O)N([H])[H])c4N([H])[H])C3([H])[H])C([H])([H])c3c([H])c([H])c(C([H])([H])[H])c([H])c3C([H])([H])[H])c([H])c([H])c2C1([H])[H]

$$$$
98:0:0
     RDKit          3D

102110  0  0  1  0  0  0  0  0999 V2000
  -31.3260  -16.8400   21.7250 C   0  0  0  0  0  2  0  0  0  0  0  0
  -31.4470  -15.4850   22.4330 C   0  0  0  0  0  2  0  0  0  0  0  0
  -31.6190  -14.3180   21.4460 C   0  0  0  0  0  3  0  0  0  0  0  0
  -30.1850  -13.9530   19.4330 C   0  0  0  0  0  0  0  0  0  0  0  0
  -29.3750  -12.1960   17.9160 C   0  0  0  0  0  2  0  0  0  0  0  0
  -28.2040  -12.5760   17.0030 C   0  0  0  0  0  2  0  0  0  0  0  0
  -26.8590  -12.3910   17.7280 C   0  0  0  0  0  2  0  0  0  0  0  0
  -26.8410  -13.0660   19.1250 C   0  0  0  0  0  3  0  0  0  0  0  0
  -28.0850  -12.6810   19.9430 C   0  0  0  0  0  2  0  0  0  0  0  0
  -29.2900  -12.9860   19.1470 N   0  0  0  0  0  0  0  0  0  0  0  0
  -30.9480  -14.4640   18.6060 O   0  0  0  0  0  0  0  0  0  0  0  0
  -30.3600  -14.0680   20.7530 N   0  0  0  0  0  0  0  0  0  0  0  0
  -29.6500  -13.6020   21.3000 H   0  0  0  0  0  0  0  0  0  0  0  0
  -24.6200  -13.6070   20.3080 C   0  0  0  0  0  0  0  0  0  0  0  0
  -23.6570  -12.8030   20.8580 C   0  0  0  0  0  0  0  0  0  0  0  0
  -24.1260  -11.4620   20.6990 C   0  0  0  0  0  0  0  0  0  0  0  0
  -25.6120  -12.7550   19.8500 N   0  0  0  0  0  0  0  0  0  0  0  0
  -25.3300  -11.4580   20.1430 N   0  0  0  0  0  0  0  0  0  0  0  0
  -23.4730  -10.1810   20.9950 C   0  0  0  0  0  0  0  0  0  0  0  0
  -24.0370   -9.2590   21.9040 C   0  0  0  0  0  3  0  0  0  0  0  0
  -23.3820   -8.0390   22.1840 C   0  0  0  0  0  3  0  0  0  0  0  0
  -22.1520   -7.7340   21.5550 C   0  0  0  0  0  0  0  0  0  0  0  0
  -21.6070   -8.6440   20.6340 C   0  0  0  0  0  3  0  0  0  0  0  0
  -22.2610   -9.8560   20.3530 C   0  0  0  0  0  3  0  0  0  0  0  0
  -21.4590   -6.5640   21.7460 O   0  0  0  0  0  0  0  0  0  0  0  0
  -21.5400   -5.8610   22.9220 C   0  0  0  0  0  0  0  0  0  0  0  0
  -21.1130   -6.4120   24.1500 C   0  0  0  0  0  3  0  0  0  0  0  0
  -21.1490   -5.6310   25.3210 C   0  0  0  0  0  3  0  0  0  0  0  0
  -21.6010   -4.3000   25.2680 C   0  0  0  0  0  0  0  0  0  0  0  0
  -22.0220   -3.7490   24.0450 C   0  0  0  0  0  3  0  0  0  0  0  0
  -21.9880   -4.5260   22.8750 C   0  0  0  0  0  0  0  0  0  0  0  0
  -22.3740   -3.9830   21.6950 F   0  0  0  0  0  0  0  0  0  0  0  0
  -21.6300   -3.5470   26.3920 F   0  0  0  0  0  0  0  0  0  0  0  0
  -22.3320  -13.2420   21.4100 C   0  0  0  0  0  0  0  0  0  0  0  0
  -21.8050  -12.5140   22.3900 N   0  0  0  0  0  0  0  0  0  0  0  0
  -21.7780  -14.2630   21.0050 O   0  0  0  0  0  0  0  0  0  0  0  0
  -22.2710  -11.6890   22.7350 H   0  0  0  0  0  0  0  0  0  0  0  0
  -20.9220  -12.7860   22.7980 H   0  0  0  0  0  0  0  0  0  0  0  0
  -24.7250  -14.9850   20.1410 N   0  0  0  0  0  0  0  0  0  0  0  0
  -23.9930  -15.6250   20.4280 H   0  0  0  0  0  0  0  0  0  0  0  0
  -25.4920  -15.4460   19.6690 H   0  0  0  0  0  0  0  0  0  0  0  0
  -32.0170  -13.0040   22.1560 C   0  0  0  0  0  2  0  0  0  0  0  0
  -35.7280  -12.1780   21.8320 C   0  0  0  0  0  3  0  0  0  0  0  0
  -35.7250  -11.1900   20.8320 C   0  0  0  0  0  3  0  0  0  0  0  0
  -34.5190  -12.7660   22.2340 C   0  0  0  0  0  3  0  0  0  0  0  0
  -34.5200  -10.7930   20.2130 C   0  0  0  0  0  0  0  0  0  0  0  0
  -33.3040  -12.3830   21.6310 C   0  0  0  0  0  0  0  0  0  0  0  0
  -33.2950  -11.4070   20.5970 C   0  0  0  0  0  0  0  0  0  0  0  0
  -31.9730  -11.0010   19.9450 C   0  0  0  0  0  1  0  0  0  0  0  0
  -34.2110   -8.3150   19.7630 C   0  0  0  0  0  1  0  0  0  0  0  0
  -34.5860   -9.6810   19.1730 C   0  0  0  0  0  2  0  0  0  0  0  0
  -31.0250  -17.9860   22.6940 C   0  0  0  0  0  2  0  0  0  0  0  0
  -30.7420  -19.2840   21.9290 C   0  0  0  0  0  2  0  0  0  0  0  0
  -30.5180  -20.4290   22.8290 N   0  0  0  0  0  4  0  0  0  0  0  0
  -29.9150  -20.1430   23.5840 H   0  0  0  0  0  0  0  0  0  0  0  0
  -31.4010  -20.7160   23.2210 H   0  0  0  0  0  0  0  0  0  0  0  0
  -29.9090  -21.5790   22.1370 C   0  0  0  0  0  2  0  0  0  0  0  0
  -30.0750  -22.8890   22.9220 C   0  0  0  0  0  2  0  0  0  0  0  0
  -29.3670  -24.0480   22.2110 C   0  0  0  0  0  2  0  0  0  0  0  0
  -29.7670  -25.4320   22.7370 C   0  0  0  0  0  2  0  0  0  0  0  0
  -29.0360  -26.5420   21.9720 C   0  0  0  0  0  2  0  0  0  0  0  0
  -27.6360  -26.4350   22.2290 O   0  0  0  0  0  0  0  0  0  0  0  0
  -27.8440  -31.7070   27.0630 C   0  0  0  0  0  0  0  0  0  0  0  0
  -27.0310  -27.2070   23.1980 C   0  0  0  0  0  0  0  0  0  0  0  0
  -25.8030  -30.3000   27.0660 C   0  0  0  0  0  3  0  0  0  0  0  0
  -25.5640  -28.7070   25.0920 C   0  0  0  0  0  0  0  0  0  0  0  0
  -27.1560  -30.6270   24.9300 C   0  0  0  0  0  2  0  0  0  0  0  0
  -26.7270  -29.2360   24.5250 C   0  0  0  0  0  0  0  0  0  0  0  0
  -27.4680  -28.4940   23.5860 C   0  0  0  0  0  3  0  0  0  0  0  0
  -25.8570  -26.6830   23.7780 C   0  0  0  0  0  3  0  0  0  0  0  0
  -25.1240  -27.4210   24.7300 C   0  0  0  0  0  3  0  0  0  0  0  0
  -24.8350  -29.5840   26.0820 C   0  0  0  0  0  2  0  0  0  0  0  0
  -26.9950  -30.8940   26.3760 N   0  0  0  0  0  0  0  0  0  0  0  0
  -27.6220  -32.0090   28.2430 O   0  0  0  0  0  0  0  0  0  0  0  0
  -26.1780  -29.3120   28.1930 C   0  0  0  0  0  0  0  0  0  0  0  0
  -25.3160  -29.2220   29.2190 N   0  0  0  0  0  0  0  0  0  0  0  0
  -27.2060  -28.6310   28.1240 O   0  0  0  0  0  0  0  0  0  0  0  0
  -24.5080  -29.8300   29.2080 H   0  0  0  0  0  0  0  0  0  0  0  0
  -23.7960  -28.3160   32.3650 C   0  0  0  0  0  0  0  0  0  0  0  0
  -25.4390  -28.3300   30.3700 C   0  0  0  0  0  3  0  0  0  0  0  0
  -24.8950  -26.9210   30.0430 C   0  0  0  0  0  2  0  0  0  0  0  0
  -23.4210  -26.7380   30.4220 C   0  0  0  0  0  2  0  0  0  0  0  0
  -23.2190  -26.9830   31.9220 C   0  0  0  0  0  2  0  0  0  0  0  0
  -24.8290  -28.9540   31.6290 C   0  0  0  0  0  0  0  0  0  0  0  0
  -25.3110  -30.2060   32.0680 C   0  0  0  0  0  3  0  0  0  0  0  0
  -24.7790  -30.8190   33.2180 C   0  0  0  0  0  3  0  0  0  0  0  0
  -23.7670  -30.1760   33.9530 C   0  0  0  0  0  3  0  0  0  0  0  0
  -23.2810  -28.9260   33.5290 C   0  0  0  0  0  3  0  0  0  0  0  0
  -29.1180  -32.3170   26.3960 C   0  0  0  0  0  3  0  0  0  0  0  0
  -29.3030  -33.6660   26.9420 N   0  0  0  0  0  0  0  0  0  0  0  0
  -28.9250  -34.7940   26.3230 C   0  0  0  0  0  0  0  0  0  0  0  0
  -28.4490  -34.8070   25.1840 O   0  0  0  0  0  0  0  0  0  0  0  0
  -29.6350  -33.7300   27.8930 H   0  0  0  0  0  0  0  0  0  0  0  0
  -27.7620  -36.5420   27.7080 C   0  0  0  0  0  1  0  0  0  0  0  0
  -29.1040  -36.1180   27.0900 C   0  0  0  0  0  3  0  0  0  0  0  0
  -31.0210  -37.0150   25.8460 C   0  0  0  0  0  1  0  0  0  0  0  0
  -29.6330  -37.2150   26.2530 N   0  0  0  0  0  0  0  0  0  0  0  0
  -29.5710  -38.1040   26.7430 H   0  0  0  0  0  0  0  0  0  0  0  0
  -30.4130  -31.4390   26.6070 C   0  0  1  0  0  0  0  0  0  0  0  0
  -30.6630  -31.0480   28.0830 C   0  0  0  0  0  1  0  0  0  0  0  0
  -30.3220  -30.1360   25.7790 C   0  0  0  0  0  1  0  0  0  0  0  0
  -31.6570  -32.2040   26.1000 C   0  0  0  0  0  1  0  0  0  0  0  0
  1  2  1  0
  1 52  1  0
  3 42  1  0
  3  2  1  0
  4 12  1  0
  5 10  1  0
  6  7  1  0
  6  5  1  0
  8  7  1  0
  8 17  1  0
  8  9  1  0
 10  4  1  0
 10  9  1  0
 11  4  2  0
 12 13  1  0
 12  3  1  0
 14 15  2  0
 15 34  1  0
 16 15  1  0
 16 19  1  0
 17 18  1  0
 17 14  1  0
 18 16  2  0
 19 20  1  0
 20 21  2  0
 22 25  1  0
 22 21  1  0
 23 22  2  0
 24 23  1  0
 24 19  2  0
 25 26  1  0
 26 27  1  0
 27 28  2  0
 29 28  1  0
 29 33  1  0
 30 29  2  0
 31 26  2  0
 31 30  1  0
 32 31  1  0
 34 35  1  0
 35 37  1  0
 35 38  1  0
 36 34  2  0
 39 14  1  0
 39 40  1  0
 41 39  1  0
 43 45  1  0
 44 43  2  0
 46 48  2  0
 46 44  1  0
 47 42  1  0
 47 45  2  0
 48 47  1  0
 49 48  1  0
 51 50  1  0
 51 46  1  0
 53 52  1  0
 53 54  1  0
 54 56  1  0
 54 55  1  0
 57 54  1  0
 57 58  1  0
 59 60  1  0
 59 58  1  0
 61 62  1  0
 61 60  1  0
 62 64  1  0
 63 74  2  0
 64 69  2  0
 64 70  1  0
 65 75  1  0
 66 72  1  0
 67 73  1  0
 68 67  1  0
 68 66  2  0
 69 68  1  0
 70 71  2  0
 71 66  1  0
 72 65  1  0
 73 63  1  0
 73 65  1  0
 75 76  1  0
 77 75  2  0
 78 76  1  0
 79 88  1  0
 80 76  1  0
 80 84  1  0
 81 80  1  0
 81 82  1  0
 82 83  1  0
 83 79  1  0
 84 85  1  0
 84 79  2  0
 85 86  2  0
 86 87  1  0
 88 87  2  0
 89 99  1  0
 89 90  1  0
 89 63  1  0
 90 93  1  0
 91 90  1  0
 91 95  1  0
 92 91  2  0
 95 94  1  0
 96 97  1  0
 97 98  1  0
 97 95  1  0
 99100  1  1
101 99  1  0
102 99  1  0
M  ISO  4   4 100  12 100  61 101  62 101
M  END
>  <TORSDO>  (98) 
F 29

>  <SCORE>  (98) 
-4.946

>  <name>  (98) 
98

>  <ligand_id>  (98) 
98

>  <original_smiles>  (98) 
[H]c1c([H])c([H])c2c(c1[H])C([H])([H])C([H])([H])C([H])([H])C2([H])N([H])C(=O)C1([H])N(C(=O)C([H])(N([H])C(=O)C([H])(N([H])C([H])([H])[H])C([H])([H])[H])C(C([H])([H])[H])(C([H])([H])[H])C([H])([H])[H])C([H])([H])c2c([H])c(OC([H])([H])C([H])([H])C([H])([H])C([H])([H])C([H])([H])[N+]([H])([H])C([H])([H])C([H])([H])C([H])([H])C([H])([H])C([H])(N([H])C(=O)N3C([H])([H])C([H])([H])C([H])([H])C([H])(n4nc(-c5c([H])c([H])c(Oc6c([H])c([H])c(F)c([H])c6F)c([H])c5[H])c(C(=O)N([H])[H])c4N([H])[H])C3([H])[H])C([H])([H])c3c([H])c([H])c([H])c(C([H])([H])C([H])([H])[H])c3C([H])([H])[H])c([H])c([H])c2C1([H])[H]

>  <smiles>  (98) 
[H]c1c([H])c([H])c2c(c1[H])C([H])([H])C([H])([H])C([H])([H])C2([H])N([H])C(=O)C1([H])N(C(=O)C([H])(N([H])C(=O)C([H])(N([H])C([H])([H])[H])C([H])([H])[H])C(C([H])([H])[H])(C([H])([H])[H])C([H])([H])[H])C([H])([H])c2c([H])c(OC([H])([H])C([H])([H])C([H])([H])C([H])([H])C([H])([H])[N+]([H])([H])C([H])([H])C([H])([H])C([H])([H])C([H])([H])C([H])(N([H])C(=O)N3C([H])([H])C([H])([H])C([H])([H])C([H])(n4nc(-c5c([H])c([H])c(Oc6c([H])c([H])c(F)c([H])c6F)c([H])c5[H])c(C(=O)N([H])[H])c4N([H])[H])C3([H])[H])C([H])([H])c3c([H])c([H])c([H])c(C([H])([H])C([H])([H])[H])c3C([H])([H])[H])c([H])c([H])c2C1([H])[H]

$$$$
99:0:0
     RDKit          3D

 92100  0  0  1  0  0  0  0  0999 V2000
  -31.3070  -20.5820   19.1690 C   0  0  0  0  0  3  0  0  0  0  0  0
  -31.7670  -22.8410   18.4820 C   0  0  0  0  0  3  0  0  0  0  0  0
  -32.1390  -21.5040   18.5310 C   0  0  0  0  0  0  0  0  0  0  0  0
  -30.0560  -20.8950   19.7720 C   0  0  0  0  0  0  0  0  0  0  0  0
  -29.6580  -22.3740   19.7160 C   0  0  0  0  0  0  0  0  0  0  0  0
  -30.5550  -23.2730   19.0530 C   0  0  0  0  0  0  0  0  0  0  0  0
  -31.1610  -25.5810   18.6150 C   0  0  0  0  0  1  0  0  0  0  0  0
  -30.1780  -24.5910   18.9060 O   0  0  0  0  0  0  0  0  0  0  0  0
  -33.1460  -20.3760   16.5020 C   0  0  0  0  0  1  0  0  0  0  0  0
  -33.4210  -21.0530   17.8520 C   0  0  0  0  0  2  0  0  0  0  0  0
  -29.3890  -19.4880   20.3300 C   0  0  0  0  0  3  0  0  0  0  0  0
  -30.1730  -17.9680   20.1700 C   0  0  0  0  0  3  0  0  0  0  0  0
  -29.6700  -16.4130   20.6020 C   0  0  0  0  0  2  0  0  0  0  0  0
  -30.5090  -14.9930   20.3450 C   0  0  0  0  0  0  0  0  0  0  0  0
  -30.4090  -12.6420   19.3920 C   0  0  0  0  0  2  0  0  0  0  0  0
  -29.4780  -12.6400   18.1550 C   0  0  0  0  0  2  0  0  0  0  0  0
  -28.0080  -12.4370   18.5700 C   0  0  0  0  0  2  0  0  0  0  0  0
  -27.6060  -13.3310   19.7700 C   0  0  0  0  0  3  0  0  0  0  0  0
  -28.6590  -13.3150   20.8970 C   0  0  0  0  0  2  0  0  0  0  0  0
  -29.9420  -13.7180   20.3110 N   0  0  0  0  0  0  0  0  0  0  0  0
  -31.7040  -15.0630   20.0380 O   0  0  0  0  0  0  0  0  0  0  0  0
  -25.2180  -13.9030   20.4930 C   0  0  0  0  0  0  0  0  0  0  0  0
  -24.1530  -13.1260   20.8570 C   0  0  0  0  0  0  0  0  0  0  0  0
  -24.6210  -11.7760   20.8350 C   0  0  0  0  0  0  0  0  0  0  0  0
  -26.2660  -13.0260   20.2610 N   0  0  0  0  0  0  0  0  0  0  0  0
  -25.9150  -11.7420   20.5310 N   0  0  0  0  0  0  0  0  0  0  0  0
  -23.8950  -10.5130   21.0270 C   0  0  0  0  0  0  0  0  0  0  0  0
  -24.3150   -9.5540   21.9740 C   0  0  0  0  0  3  0  0  0  0  0  0
  -23.5890   -8.3560   22.1510 C   0  0  0  0  0  3  0  0  0  0  0  0
  -22.4280   -8.1090   21.3790 C   0  0  0  0  0  0  0  0  0  0  0  0
  -22.0290   -9.0570   20.4190 C   0  0  0  0  0  3  0  0  0  0  0  0
  -22.7570  -10.2460   20.2420 C   0  0  0  0  0  3  0  0  0  0  0  0
  -21.6720   -6.9660   21.4650 O   0  0  0  0  0  0  0  0  0  0  0  0
  -21.6030   -6.2330   22.6220 C   0  0  0  0  0  0  0  0  0  0  0  0
  -21.1450   -6.7960   23.8340 C   0  0  0  0  0  3  0  0  0  0  0  0
  -21.0250   -5.9900   24.9850 C   0  0  0  0  0  3  0  0  0  0  0  0
  -21.3530   -4.6230   24.9240 C   0  0  0  0  0  0  0  0  0  0  0  0
  -21.8030   -4.0590   23.7170 C   0  0  0  0  0  3  0  0  0  0  0  0
  -21.9270   -4.8620   22.5700 C   0  0  0  0  0  0  0  0  0  0  0  0
  -22.3420   -4.3090   21.4050 F   0  0  0  0  0  0  0  0  0  0  0  0
  -21.2300   -3.8460   26.0260 F   0  0  0  0  0  0  0  0  0  0  0  0
  -22.7520  -13.6000   21.1140 C   0  0  0  0  0  0  0  0  0  0  0  0
  -22.0180  -12.9000   21.9700 N   0  0  0  0  0  0  0  0  0  0  0  0
  -22.3160  -14.6240   20.5900 O   0  0  0  0  0  0  0  0  0  0  0  0
  -22.3890  -12.0730   22.4140 H   0  0  0  0  0  0  0  0  0  0  0  0
  -21.0770  -13.1940   22.1880 H   0  0  0  0  0  0  0  0  0  0  0  0
  -25.3780  -15.2740   20.3140 N   0  0  0  0  0  0  0  0  0  0  0  0
  -24.6090  -15.9280   20.4260 H   0  0  0  0  0  0  0  0  0  0  0  0
  -26.2330  -15.7160   20.0010 H   0  0  0  0  0  0  0  0  0  0  0  0
  -28.3160  -23.1930   20.1520 C   0  0  0  0  0  2  0  0  0  0  0  0
  -28.1710  -24.7710   20.7840 C   0  0  0  0  0  2  0  0  0  0  0  0
  -28.3140  -26.2230   20.2410 O   0  0  0  0  0  0  0  0  0  0  0  0
  -24.5930  -31.8660   23.2380 C   0  0  0  0  0  0  0  0  0  0  0  0
  -27.2330  -27.1700   20.2530 C   0  0  0  0  0  0  0  0  0  0  0  0
  -23.4180  -30.4550   21.5930 C   0  0  0  0  0  3  0  0  0  0  0  0
  -24.8900  -28.8810   20.1940 C   0  0  0  0  0  0  0  0  0  0  0  0
  -25.9700  -30.7430   21.4480 C   0  0  0  0  0  2  0  0  0  0  0  0
  -26.0610  -29.3470   20.8060 C   0  0  0  0  0  0  0  0  0  0  0  0
  -27.2380  -28.5100   20.8110 C   0  0  0  0  0  3  0  0  0  0  0  0
  -26.0350  -26.7930   19.6140 C   0  0  0  0  0  3  0  0  0  0  0  0
  -24.8880  -27.6150   19.5850 C   0  0  0  0  0  3  0  0  0  0  0  0
  -23.6580  -29.7710   20.2210 C   0  0  0  0  0  2  0  0  0  0  0  0
  -24.6800  -31.0430   22.1480 N   0  0  0  0  0  0  0  0  0  0  0  0
  -23.4990  -32.1450   23.7530 O   0  0  0  0  0  0  0  0  0  0  0  0
  -22.7340  -29.4490   22.5500 C   0  0  0  0  0  0  0  0  0  0  0  0
  -21.4080  -29.2740   22.4120 N   0  0  0  0  0  0  0  0  0  0  0  0
  -23.3990  -28.8270   23.3810 O   0  0  0  0  0  0  0  0  0  0  0  0
  -20.9250  -29.8300   21.7200 H   0  0  0  0  0  0  0  0  0  0  0  0
  -18.0240  -28.0710   22.8950 C   0  0  0  0  0  0  0  0  0  0  0  0
  -20.5820  -28.3370   23.1770 C   0  0  0  0  0  3  0  0  0  0  0  0
  -20.6870  -26.9030   22.6050 C   0  0  0  0  0  2  0  0  0  0  0  0
  -19.5910  -26.5800   21.5840 C   0  0  0  0  0  2  0  0  0  0  0  0
  -18.2060  -26.7220   22.2190 C   0  0  0  0  0  2  0  0  0  0  0  0
  -19.1390  -28.8360   23.3310 C   0  0  0  0  0  0  0  0  0  0  0  0
  -18.9130  -30.0960   23.9250 C   0  0  0  0  0  3  0  0  0  0  0  0
  -17.6060  -30.5920   24.0860 C   0  0  0  0  0  3  0  0  0  0  0  0
  -16.5060  -29.8260   23.6650 C   0  0  0  0  0  3  0  0  0  0  0  0
  -16.7150  -28.5670   23.0760 C   0  0  0  0  0  3  0  0  0  0  0  0
  -25.8600  -32.5110   23.8800 C   0  0  0  0  0  3  0  0  0  0  0  0
  -25.5400  -33.9140   24.1860 N   0  0  0  0  0  0  0  0  0  0  0  0
  -25.8840  -34.9590   23.4220 C   0  0  0  0  0  0  0  0  0  0  0  0
  -26.5670  -34.8450   22.4000 O   0  0  0  0  0  0  0  0  0  0  0  0
  -24.9320  -34.0780   24.9740 H   0  0  0  0  0  0  0  0  0  0  0  0
  -24.1640  -36.7550   23.0280 C   0  0  0  0  0  1  0  0  0  0  0  0
  -25.3940  -36.3560   23.8580 C   0  0  0  0  0  3  0  0  0  0  0  0
  -27.5180  -37.2480   24.7050 C   0  0  0  0  0  1  0  0  0  0  0  0
  -26.4290  -37.4060   23.7460 N   0  0  0  0  0  0  0  0  0  0  0  0
  -26.0230  -38.3290   23.8780 H   0  0  0  0  0  0  0  0  0  0  0  0
  -26.3480  -31.7610   25.1810 C   0  0  1  0  0  0  0  0  0  0  0  0
  -25.2330  -31.5420   26.2300 C   0  0  0  0  0  1  0  0  0  0  0  0
  -26.9370  -30.3760   24.8290 C   0  0  0  0  0  1  0  0  0  0  0  0
  -27.4860  -32.5660   25.8520 C   0  0  0  0  0  1  0  0  0  0  0  0
  1  4  1  0
  2  3  1  0
  2  6  2  0
  3  1  2  0
  4 11  1  0
  5  4  2  0
  5 50  1  0
  6  5  1  0
  7  8  1  0
  8  6  1  0
  9 10  1  0
 10  3  1  0
 12 11  2  0
 12 13  1  0
 14 13  1  0
 15 20  1  0
 16 17  1  0
 16 15  1  0
 18 17  1  0
 18 25  1  0
 18 19  1  0
 20 14  1  0
 20 19  1  0
 21 14  2  0
 22 23  2  0
 23 42  1  0
 24 23  1  0
 24 27  1  0
 25 22  1  0
 25 26  1  0
 26 24  2  0
 27 28  1  0
 28 29  2  0
 30 33  1  0
 30 29  1  0
 31 30  2  0
 32 31  1  0
 32 27  2  0
 33 34  1  0
 34 35  1  0
 35 36  2  0
 37 36  1  0
 37 41  1  0
 38 37  2  0
 39 34  2  0
 39 38  1  0
 40 39  1  0
 42 43  1  0
 43 46  1  0
 43 45  1  0
 44 42  2  0
 47 48  1  0
 47 22  1  0
 49 47  1  0
 50 51  1  0
 52 54  1  0
 52 51  1  0
 53 64  2  0
 54 59  1  0
 55 63  1  0
 55 65  1  0
 56 62  1  0
 56 58  1  0
 57 63  1  0
 58 59  2  0
 58 57  1  0
 60 54  2  0
 61 60  1  0
 61 56  2  0
 62 55  1  0
 63 53  1  0
 65 67  2  0
 66 65  1  0
 68 66  1  0
 69 78  2  0
 69 74  1  0
 70 66  1  0
 70 74  1  0
 71 70  1  0
 72 73  1  0
 72 71  1  0
 73 69  1  0
 74 75  2  0
 75 76  1  0
 77 76  2  0
 78 77  1  0
 79 53  1  0
 79 80  1  0
 79 89  1  0
 80 83  1  0
 81 85  1  0
 81 80  1  0
 82 81  2  0
 85 84  1  0
 87 85  1  0
 87 88  1  0
 87 86  1  0
 89 92  1  1
 89 90  1  0
 91 89  1  0
M  ISO  4  13 100  14 100  51 101  52 101
M  END
>  <TORSDO>  (99) 
F 23

>  <SCORE>  (99) 
-14.086

>  <name>  (99) 
99

>  <ligand_id>  (99) 
99

>  <original_smiles>  (99) 
[H]c1c([H])c([H])c2c(c1[H])C([H])([H])C([H])([H])C([H])([H])C2([H])N([H])C(=O)C1([H])N(C(=O)C([H])(N([H])C(=O)C([H])(N([H])C([H])([H])[H])C([H])([H])[H])C(C([H])([H])[H])(C([H])([H])[H])C([H])([H])[H])C([H])([H])c2c([H])c(OC([H])([H])C([H])([H])c3c(OC([H])([H])[H])c([H])c(C([H])([H])C([H])([H])[H])c([H])c3C([H])([H])C([H])([H])C([H])([H])C(=O)N3C([H])([H])C([H])([H])C([H])([H])C([H])(n4nc(-c5c([H])c([H])c(Oc6c([H])c([H])c(F)c([H])c6F)c([H])c5[H])c(C(=O)N([H])[H])c4N([H])[H])C3([H])[H])c([H])c([H])c2C1([H])[H]

>  <smiles>  (99) 
[H]c1c([H])c([H])c2c(c1[H])C([H])([H])C([H])([H])C([H])([H])C2([H])N([H])C(=O)C1([H])N(C(=O)C([H])(N([H])C(=O)C([H])(N([H])C([H])([H])[H])C([H])([H])[H])C(C([H])([H])[H])(C([H])([H])[H])C([H])([H])[H])C([H])([H])c2c([H])c(OC([H])([H])C([H])([H])c3c(OC([H])([H])[H])c([H])c(C([H])([H])C([H])([H])[H])c([H])c3C([H])([H])C([H])([H])C([H])([H])C(=O)N3C([H])([H])C([H])([H])C([H])([H])C([H])(n4nc(-c5c([H])c([H])c(Oc6c([H])c([H])c(F)c([H])c6F)c([H])c5[H])c(C(=O)N([H])[H])c4N([H])[H])C3([H])[H])c([H])c([H])c2C1([H])[H]

$$$$
