0:0:0
     RDKit          3D

 90 98  0  0  1  0  0  0  0  0999 V2000
  -28.5530  -22.6490   19.1700 C   0  0  0  0  0  3  0  0  0  0  0  0
  -28.2130  -24.0580   19.0750 C   0  0  0  0  0  3  0  0  0  0  0  0
  -29.2040  -24.4260   21.1800 C   0  0  0  0  0  3  0  0  0  0  0  0
  -29.2680  -22.0500   20.2610 C   0  0  0  0  0  0  0  0  0  0  0  0
  -28.5450  -25.0370   20.0660 C   0  0  0  0  0  0  0  0  0  0  0  0
  -29.5430  -23.0200   21.2960 C   0  0  0  0  0  0  0  0  0  0  0  0
  -29.8560  -21.5040   23.1070 C   0  0  0  0  0  1  0  0  0  0  0  0
  -30.2490  -22.6920   22.4290 O   0  0  0  0  0  0  0  0  0  0  0  0
  -28.4840  -26.4800   19.8790 O   0  0  0  0  0  0  0  0  0  0  0  0
  -24.7390  -31.8870   23.1060 C   0  0  0  0  0  0  0  0  0  0  0  0
  -27.3470  -27.3400   19.9180 C   0  0  0  0  0  0  0  0  0  0  0  0
  -23.5310  -30.5160   21.4450 C   0  0  0  0  0  3  0  0  0  0  0  0
  -24.9790  -28.9970   19.9650 C   0  0  0  0  0  0  0  0  0  0  0  0
  -26.0700  -30.8400   21.2440 C   0  0  0  0  0  2  0  0  0  0  0  0
  -26.1530  -29.4660   20.5640 C   0  0  0  0  0  0  0  0  0  0  0  0
  -27.3370  -28.6510   20.5280 C   0  0  0  0  0  3  0  0  0  0  0  0
  -26.1470  -26.9490   19.2900 C   0  0  0  0  0  3  0  0  0  0  0  0
  -24.9830  -27.7500   19.3160 C   0  0  0  0  0  3  0  0  0  0  0  0
  -23.7370  -29.8720   20.0480 C   0  0  0  0  0  2  0  0  0  0  0  0
  -24.8000  -31.1010   21.9880 N   0  0  0  0  0  0  0  0  0  0  0  0
  -23.6580  -32.1400   23.6600 O   0  0  0  0  0  0  0  0  0  0  0  0
  -22.8850  -29.4750   22.3920 C   0  0  0  0  0  0  0  0  0  0  0  0
  -21.5600  -29.2830   22.2730 N   0  0  0  0  0  0  0  0  0  0  0  0
  -23.5770  -28.8420   23.1930 O   0  0  0  0  0  0  0  0  0  0  0  0
  -21.0570  -29.8460   21.6010 H   0  0  0  0  0  0  0  0  0  0  0  0
  -18.2070  -28.0130   22.7720 C   0  0  0  0  0  0  0  0  0  0  0  0
  -20.7620  -28.3140   23.0290 C   0  0  0  0  0  3  0  0  0  0  0  0
  -20.8850  -26.8980   22.4220 C   0  0  0  0  0  2  0  0  0  0  0  0
  -19.7820  -26.5770   21.4090 C   0  0  0  0  0  2  0  0  0  0  0  0
  -18.4030  -26.6820   22.0650 C   0  0  0  0  0  2  0  0  0  0  0  0
  -19.3140  -28.7860   23.2120 C   0  0  0  0  0  0  0  0  0  0  0  0
  -19.0760  -30.0300   23.8350 C   0  0  0  0  0  3  0  0  0  0  0  0
  -17.7630  -30.5020   24.0220 C   0  0  0  0  0  3  0  0  0  0  0  0
  -16.6700  -29.7270   23.5980 C   0  0  0  0  0  3  0  0  0  0  0  0
  -16.8920  -28.4830   22.9800 C   0  0  0  0  0  3  0  0  0  0  0  0
  -26.0200  -32.5200   23.7300 C   0  0  0  0  0  3  0  0  0  0  0  0
  -26.5680  -31.7150   24.9730 C   0  0  1  0  0  0  0  0  0  0  0  0
  -25.4980  -31.4280   26.0510 C   0  0  0  0  0  1  0  0  0  0  0  0
  -27.1610  -30.3590   24.5270 C   0  0  0  0  0  1  0  0  0  0  0  0
  -27.7200  -32.5030   25.6400 C   0  0  0  0  0  1  0  0  0  0  0  0
  -25.6920  -33.9010   24.1190 N   0  0  0  0  0  0  0  0  0  0  0  0
  -25.9690  -34.9870   23.3860 C   0  0  0  0  0  0  0  0  0  0  0  0
  -26.5960  -34.9330   22.3250 O   0  0  0  0  0  0  0  0  0  0  0  0
  -25.1280  -34.0140   24.9490 H   0  0  0  0  0  0  0  0  0  0  0  0
  -24.1790  -36.7440   23.1840 C   0  0  0  0  0  1  0  0  0  0  0  0
  -25.4740  -36.3480   23.9120 C   0  0  0  0  0  3  0  0  0  0  0  0
  -27.6260  -37.2720   24.6540 C   0  0  0  0  0  1  0  0  0  0  0  0
  -26.4710  -37.4320   23.7730 N   0  0  0  0  0  0  0  0  0  0  0  0
  -26.0500  -38.3370   23.9650 H   0  0  0  0  0  0  0  0  0  0  0  0
  -29.9940  -20.5810   20.1350 C   0  0  0  0  0  2  0  0  0  0  0  0
  -29.4340  -19.0480   20.4480 C   0  0  0  0  0  3  0  0  0  0  0  0
  -30.4480  -17.7330   20.2770 C   0  0  0  0  0  3  0  0  0  0  0  0
  -30.8060  -15.0640   20.2520 C   0  0  0  0  0  0  0  0  0  0  0  0
  -30.6430  -12.7460   19.2810 C   0  0  0  0  0  2  0  0  0  0  0  0
  -29.6910  -12.7540   18.0640 C   0  0  0  0  0  2  0  0  0  0  0  0
  -28.2310  -12.5550   18.5160 C   0  0  0  0  0  2  0  0  0  0  0  0
  -27.8540  -13.4600   19.7210 C   0  0  0  0  0  3  0  0  0  0  0  0
  -28.9270  -13.4290   20.8290 C   0  0  0  0  0  2  0  0  0  0  0  0
  -30.1970  -13.8200   20.2080 N   0  0  0  0  0  0  0  0  0  0  0  0
  -31.9970  -15.1420   19.9330 O   0  0  0  0  0  0  0  0  0  0  0  0
  -30.0410  -16.2330   20.4390 N   0  0  0  0  0  0  0  0  0  0  0  0
  -29.0710  -16.0670   20.6600 H   0  0  0  0  0  0  0  0  0  0  0  0
  -25.4880  -14.0330   20.5130 C   0  0  0  0  0  0  0  0  0  0  0  0
  -24.4280  -13.2530   20.8870 C   0  0  0  0  0  0  0  0  0  0  0  0
  -24.8880  -11.9020   20.8190 C   0  0  0  0  0  0  0  0  0  0  0  0
  -26.5240  -13.1570   20.2350 N   0  0  0  0  0  0  0  0  0  0  0  0
  -26.1730  -11.8690   20.4840 N   0  0  0  0  0  0  0  0  0  0  0  0
  -24.1610  -10.6370   20.9950 C   0  0  0  0  0  0  0  0  0  0  0  0
  -24.5700   -9.6760   21.9450 C   0  0  0  0  0  3  0  0  0  0  0  0
  -23.8430   -8.4760   22.1080 C   0  0  0  0  0  3  0  0  0  0  0  0
  -22.6920   -8.2320   21.3210 C   0  0  0  0  0  0  0  0  0  0  0  0
  -22.3020   -9.1820   20.3620 C   0  0  0  0  0  3  0  0  0  0  0  0
  -23.0300  -10.3720   20.1960 C   0  0  0  0  0  3  0  0  0  0  0  0
  -21.9380   -7.0850   21.3940 O   0  0  0  0  0  0  0  0  0  0  0  0
  -21.7910   -6.3940   22.5700 C   0  0  0  0  0  0  0  0  0  0  0  0
  -21.2410   -6.9940   23.7230 C   0  0  0  0  0  3  0  0  0  0  0  0
  -21.0430   -6.2270   24.8900 C   0  0  0  0  0  3  0  0  0  0  0  0
  -21.3850   -4.8620   24.9020 C   0  0  0  0  0  0  0  0  0  0  0  0
  -21.9290   -4.2620   23.7530 C   0  0  0  0  0  3  0  0  0  0  0  0
  -22.1280   -5.0250   22.5890 C   0  0  0  0  0  0  0  0  0  0  0  0
  -22.6320   -4.4370   21.4770 F   0  0  0  0  0  0  0  0  0  0  0  0
  -21.1890   -4.1230   26.0190 F   0  0  0  0  0  0  0  0  0  0  0  0
  -23.0370  -13.7280   21.1920 C   0  0  0  0  0  0  0  0  0  0  0  0
  -22.3240  -13.0200   22.0610 N   0  0  0  0  0  0  0  0  0  0  0  0
  -22.5920  -14.7610   20.6940 O   0  0  0  0  0  0  0  0  0  0  0  0
  -22.6990  -12.1850   22.4850 H   0  0  0  0  0  0  0  0  0  0  0  0
  -21.3920  -13.3200   22.3070 H   0  0  0  0  0  0  0  0  0  0  0  0
  -25.6500  -15.4070   20.3590 N   0  0  0  0  0  0  0  0  0  0  0  0
  -24.8830  -16.0560   20.4920 H   0  0  0  0  0  0  0  0  0  0  0  0
  -26.4810  -15.8500   19.9880 H   0  0  0  0  0  0  0  0  0  0  0  0
  1  4  1  0
  2  1  2  0
  2  5  1  0
  3  6  1  0
  4  6  2  0
  5  3  2  0
  6  8  1  0
  8  7  1  0
  9 11  1  0
  9  5  1  0
 10 21  2  0
 11 16  1  0
 12 20  1  0
 12 22  1  0
 13 19  1  0
 13 15  1  0
 14 20  1  0
 15 14  1  0
 16 15  2  0
 17 18  1  0
 17 11  2  0
 18 13  2  0
 19 12  1  0
 20 10  1  0
 22 24  2  0
 23 22  1  0
 25 23  1  0
 26 35  2  0
 26 31  1  0
 27 23  1  0
 27 31  1  0
 28 27  1  0
 29 30  1  0
 29 28  1  0
 30 26  1  0
 31 32  2  0
 32 33  1  0
 34 33  2  0
 35 34  1  0
 36 10  1  0
 36 41  1  0
 36 37  1  0
 37 40  1  1
 37 38  1  0
 39 37  1  0
 41 44  1  0
 42 46  1  0
 42 41  1  0
 43 42  2  0
 46 45  1  0
 48 46  1  0
 48 49  1  0
 48 47  1  0
 50  4  1  0
 50 51  1  0
 52 61  1  0
 52 51  2  0
 53 61  1  0
 54 59  1  0
 55 56  1  0
 55 54  1  0
 57 56  1  0
 57 66  1  0
 57 58  1  0
 59 53  1  0
 59 58  1  0
 60 53  2  0
 61 62  1  0
 63 64  2  0
 64 83  1  0
 65 64  1  0
 65 68  1  0
 66 67  1  0
 66 63  1  0
 67 65  2  0
 68 69  1  0
 69 70  2  0
 71 74  1  0
 71 70  1  0
 72 71  2  0
 73 72  1  0
 73 68  2  0
 74 75  1  0
 75 80  2  0
 75 76  1  0
 76 77  2  0
 77 78  1  0
 78 82  1  0
 79 78  2  0
 80 79  1  0
 81 80  1  0
 83 84  1  0
 84 87  1  0
 84 86  1  0
 85 83  2  0
 88 89  1  0
 88 63  1  0
 90 88  1  0
M  ISO  4   5 101   9 101  53 100  61 100
M  END
>  <TORSDO>  (1) 
F 20

>  <SCORE>  (1) 
-13.556

>  <name>  (1) 
0

>  <ligand_id>  (1) 
0

>  <original_smiles>  (1) 
[H]c1c([H])c([H])c2c(c1[H])C([H])([H])C([H])([H])C([H])([H])C2([H])N([H])C(=O)C1([H])N(C(=O)C([H])(N([H])C(=O)C([H])(N([H])C([H])([H])[H])C([H])([H])[H])C(C([H])([H])[H])(C([H])([H])[H])C([H])([H])[H])C([H])([H])c2c([H])c(Oc3c([H])c([H])c(C([H])([H])C([H])([H])C([H])([H])N([H])C(=O)N4C([H])([H])C([H])([H])C([H])([H])C([H])(n5nc(-c6c([H])c([H])c(Oc7c([H])c([H])c(F)c([H])c7F)c([H])c6[H])c(C(=O)N([H])[H])c5N([H])[H])C4([H])[H])c(OC([H])([H])[H])c3[H])c([H])c([H])c2C1([H])[H]

>  <smiles>  (1) 
[H]c1c([H])c([H])c2c(c1[H])C([H])([H])C([H])([H])C([H])([H])C2([H])N([H])C(=O)C1([H])N(C(=O)C([H])(N([H])C(=O)C([H])(N([H])C([H])([H])[H])C([H])([H])[H])C(C([H])([H])[H])(C([H])([H])[H])C([H])([H])[H])C([H])([H])c2c([H])c(Oc3c([H])c([H])c(C([H])([H])C([H])([H])C([H])([H])N([H])C(=O)N4C([H])([H])C([H])([H])C([H])([H])C([H])(n5nc(-c6c([H])c([H])c(Oc7c([H])c([H])c(F)c([H])c7F)c([H])c6[H])c(C(=O)N([H])[H])c5N([H])[H])C4([H])[H])c(OC([H])([H])[H])c3[H])c([H])c([H])c2C1([H])[H]

$$$$
1:0:0
     RDKit          3D

 88 96  0  0  1  0  0  0  0  0999 V2000
  -29.6560  -21.8300   21.0940 C   0  0  0  0  0  3  0  0  0  0  0  0
  -29.3270  -23.3070   21.0960 C   0  0  0  0  0  3  0  0  0  0  0  0
  -27.6860  -22.9410   19.6360 C   0  0  0  0  0  3  0  0  0  0  0  0
  -29.0580  -20.6760   20.3850 C   0  0  0  0  0  0  0  0  0  0  0  0
  -28.2990  -24.0850   20.3770 C   0  0  0  0  0  0  0  0  0  0  0  0
  -28.0090  -21.4240   19.6250 C   0  0  0  0  0  0  0  0  0  0  0  0
  -29.7630  -18.9950   20.3960 C   0  0  0  0  0  0  0  0  0  0  0  0
  -30.9870  -19.0690   20.5460 O   0  0  0  0  0  0  0  0  0  0  0  0
  -29.3230  -17.2180   20.3360 C   0  0  0  0  0  2  0  0  0  0  0  0
  -30.2140  -15.6000   20.2180 C   0  0  0  0  0  0  0  0  0  0  0  0
  -30.3250  -13.0790   19.3760 C   0  0  0  0  0  2  0  0  0  0  0  0
  -29.4110  -12.7640   18.1580 C   0  0  0  0  0  2  0  0  0  0  0  0
  -27.9830  -12.4180   18.6110 C   0  0  0  0  0  2  0  0  0  0  0  0
  -27.4960  -13.3860   19.7130 C   0  0  0  0  0  3  0  0  0  0  0  0
  -28.5390  -13.6310   20.8240 C   0  0  0  0  0  2  0  0  0  0  0  0
  -29.7340  -14.2270   20.1910 N   0  0  0  0  0  0  0  0  0  0  0  0
  -31.4390  -15.5710   19.9910 O   0  0  0  0  0  0  0  0  0  0  0  0
  -25.1350  -13.8980   20.5070 C   0  0  0  0  0  0  0  0  0  0  0  0
  -24.0860  -13.1070   20.8810 C   0  0  0  0  0  0  0  0  0  0  0  0
  -24.5690  -11.7620   20.8360 C   0  0  0  0  0  0  0  0  0  0  0  0
  -26.1840  -13.0370   20.2410 N   0  0  0  0  0  0  0  0  0  0  0  0
  -25.8590  -11.7450   20.5100 N   0  0  0  0  0  0  0  0  0  0  0  0
  -23.8560  -10.4910   21.0270 C   0  0  0  0  0  0  0  0  0  0  0  0
  -24.2960   -9.5270   21.9620 C   0  0  0  0  0  3  0  0  0  0  0  0
  -23.5780   -8.3250   22.1430 C   0  0  0  0  0  3  0  0  0  0  0  0
  -22.4070   -8.0770   21.3880 C   0  0  0  0  0  0  0  0  0  0  0  0
  -21.9850   -9.0290   20.4440 C   0  0  0  0  0  3  0  0  0  0  0  0
  -22.7040  -10.2230   20.2610 C   0  0  0  0  0  3  0  0  0  0  0  0
  -21.6620   -6.9260   21.4770 O   0  0  0  0  0  0  0  0  0  0  0  0
  -21.6090   -6.1870   22.6330 C   0  0  0  0  0  0  0  0  0  0  0  0
  -21.1470   -6.7390   23.8480 C   0  0  0  0  0  3  0  0  0  0  0  0
  -21.0430   -5.9280   24.9950 C   0  0  0  0  0  3  0  0  0  0  0  0
  -21.3930   -4.5650   24.9290 C   0  0  0  0  0  0  0  0  0  0  0  0
  -21.8470   -4.0140   23.7180 C   0  0  0  0  0  3  0  0  0  0  0  0
  -21.9520   -4.8220   22.5730 C   0  0  0  0  0  0  0  0  0  0  0  0
  -22.3700   -4.2800   21.4040 F   0  0  0  0  0  0  0  0  0  0  0  0
  -21.2860   -3.7840   26.0280 F   0  0  0  0  0  0  0  0  0  0  0  0
  -22.6860  -13.5690   21.1620 C   0  0  0  0  0  0  0  0  0  0  0  0
  -21.9720  -12.8670   22.0340 N   0  0  0  0  0  0  0  0  0  0  0  0
  -22.2350  -14.5900   20.6420 O   0  0  0  0  0  0  0  0  0  0  0  0
  -22.3500  -12.0430   22.4780 H   0  0  0  0  0  0  0  0  0  0  0  0
  -21.0340  -13.1630   22.2640 H   0  0  0  0  0  0  0  0  0  0  0  0
  -25.2810  -15.2720   20.3400 N   0  0  0  0  0  0  0  0  0  0  0  0
  -24.5090  -15.9160   20.4730 H   0  0  0  0  0  0  0  0  0  0  0  0
  -26.1210  -15.7270   20.0070 H   0  0  0  0  0  0  0  0  0  0  0  0
  -26.3470  -21.1070   17.8940 C   0  0  0  0  0  1  0  0  0  0  0  0
  -27.3110  -20.5720   18.7920 O   0  0  0  0  0  0  0  0  0  0  0  0
  -28.1970  -25.6880   20.3310 O   0  0  0  0  0  0  0  0  0  0  0  0
  -24.6530  -31.9020   23.2470 C   0  0  0  0  0  0  0  0  0  0  0  0
  -27.1640  -26.8250   20.3120 C   0  0  0  0  0  0  0  0  0  0  0  0
  -23.4570  -30.4940   21.6220 C   0  0  0  0  0  3  0  0  0  0  0  0
  -24.8940  -28.8270   20.2300 C   0  0  0  0  0  0  0  0  0  0  0  0
  -26.0320  -30.6340   21.4980 C   0  0  0  0  0  2  0  0  0  0  0  0
  -26.0870  -29.1990   20.8620 C   0  0  0  0  0  0  0  0  0  0  0  0
  -27.2050  -28.2220   20.8730 C   0  0  0  0  0  3  0  0  0  0  0  0
  -25.9390  -26.6470   19.6210 C   0  0  0  0  0  3  0  0  0  0  0  0
  -24.8540  -27.5740   19.5900 C   0  0  0  0  0  3  0  0  0  0  0  0
  -23.6890  -29.7790   20.2610 C   0  0  0  0  0  2  0  0  0  0  0  0
  -24.7370  -31.0430   22.1740 N   0  0  0  0  0  0  0  0  0  0  0  0
  -23.5630  -32.2130   23.7560 O   0  0  0  0  0  0  0  0  0  0  0  0
  -22.7380  -29.5290   22.6030 C   0  0  0  0  0  0  0  0  0  0  0  0
  -21.4060  -29.3760   22.4710 N   0  0  0  0  0  0  0  0  0  0  0  0
  -23.3890  -28.9150   23.4510 O   0  0  0  0  0  0  0  0  0  0  0  0
  -20.9320  -29.9170   21.7620 H   0  0  0  0  0  0  0  0  0  0  0  0
  -18.0160  -28.1770   22.9740 C   0  0  0  0  0  0  0  0  0  0  0  0
  -20.5730  -28.4530   23.2520 C   0  0  0  0  0  3  0  0  0  0  0  0
  -20.6800  -27.0100   22.7030 C   0  0  0  0  0  2  0  0  0  0  0  0
  -19.5880  -26.6710   21.6840 C   0  0  0  0  0  2  0  0  0  0  0  0
  -18.2000  -26.8200   22.3150 C   0  0  0  0  0  2  0  0  0  0  0  0
  -19.1290  -28.9500   23.3990 C   0  0  0  0  0  0  0  0  0  0  0  0
  -18.9000  -30.2160   23.9800 C   0  0  0  0  0  3  0  0  0  0  0  0
  -17.5910  -30.7100   24.1380 C   0  0  0  0  0  3  0  0  0  0  0  0
  -16.4930  -29.9360   23.7260 C   0  0  0  0  0  3  0  0  0  0  0  0
  -16.7060  -28.6710   23.1520 C   0  0  0  0  0  3  0  0  0  0  0  0
  -25.9220  -32.5480   23.8810 C   0  0  0  0  0  3  0  0  0  0  0  0
  -26.4180  -31.7940   25.1780 C   0  0  1  0  0  0  0  0  0  0  0  0
  -25.3110  -31.5840   26.2380 C   0  0  0  0  0  1  0  0  0  0  0  0
  -26.9950  -30.4050   24.8280 C   0  0  0  0  0  1  0  0  0  0  0  0
  -27.5680  -32.5900   25.8400 C   0  0  0  0  0  1  0  0  0  0  0  0
  -25.6070  -33.9530   24.2090 N   0  0  0  0  0  0  0  0  0  0  0  0
  -25.9300  -35.0120   23.4530 C   0  0  0  0  0  0  0  0  0  0  0  0
  -26.5800  -34.9090   22.4100 O   0  0  0  0  0  0  0  0  0  0  0  0
  -25.0240  -34.1040   25.0180 H   0  0  0  0  0  0  0  0  0  0  0  0
  -24.1900  -36.8110   23.1550 C   0  0  0  0  0  1  0  0  0  0  0  0
  -25.4580  -36.4040   23.9240 C   0  0  0  0  0  3  0  0  0  0  0  0
  -27.6140  -37.3030   24.6860 C   0  0  0  0  0  1  0  0  0  0  0  0
  -26.4860  -37.4580   23.7710 N   0  0  0  0  0  0  0  0  0  0  0  0
  -26.0840  -38.3800   23.9190 H   0  0  0  0  0  0  0  0  0  0  0  0
  1  2  1  0
  3  5  1  0
  4  7  1  0
  4  1  2  0
  5  2  2  0
  6  3  2  0
  6  4  1  0
  7  8  2  0
  9  7  1  0
 10  9  1  0
 11 16  1  0
 12 13  1  0
 12 11  1  0
 14 13  1  0
 14 21  1  0
 14 15  1  0
 16 10  1  0
 16 15  1  0
 17 10  2  0
 18 19  2  0
 19 38  1  0
 20 19  1  0
 20 23  1  0
 21 18  1  0
 21 22  1  0
 22 20  2  0
 23 24  1  0
 24 25  2  0
 26 29  1  0
 26 25  1  0
 27 26  2  0
 28 27  1  0
 28 23  2  0
 29 30  1  0
 30 31  1  0
 31 32  2  0
 33 32  1  0
 33 37  1  0
 34 33  2  0
 35 30  2  0
 35 34  1  0
 36 35  1  0
 38 39  1  0
 39 42  1  0
 39 41  1  0
 40 38  2  0
 43 44  1  0
 43 18  1  0
 45 43  1  0
 46 47  1  0
 47  6  1  0
 48  5  1  0
 49 60  2  0
 50 48  1  0
 50 55  1  0
 51 59  1  0
 51 61  1  0
 52 58  1  0
 52 54  1  0
 53 59  1  0
 54 55  2  0
 54 53  1  0
 56 50  2  0
 57 56  1  0
 57 52  2  0
 58 51  1  0
 59 49  1  0
 61 63  2  0
 62 61  1  0
 64 62  1  0
 65 74  2  0
 65 70  1  0
 66 62  1  0
 66 70  1  0
 67 66  1  0
 68 69  1  0
 68 67  1  0
 69 65  1  0
 70 71  2  0
 71 72  1  0
 73 72  2  0
 74 73  1  0
 75 49  1  0
 75 80  1  0
 75 76  1  0
 76 79  1  1
 76 77  1  0
 78 76  1  0
 80 83  1  0
 81 85  1  0
 81 80  1  0
 82 81  2  0
 85 84  1  0
 87 88  1  0
 87 85  1  0
 87 86  1  0
M  ISO  4   5 101   9 100  10 100  48 101
M  END
>  <TORSDO>  (2) 
F 19

>  <SCORE>  (2) 
-15.558

>  <name>  (2) 
1

>  <ligand_id>  (2) 
1

>  <original_smiles>  (2) 
[H]c1c([H])c([H])c2c(c1[H])C([H])([H])C([H])([H])C([H])([H])C2([H])N([H])C(=O)C1([H])N(C(=O)C([H])(N([H])C(=O)C([H])(N([H])C([H])([H])[H])C([H])([H])[H])C(C([H])([H])[H])(C([H])([H])[H])C([H])([H])[H])C([H])([H])c2c([H])c(Oc3c([H])c([H])c(C(=O)C([H])([H])C(=O)N4C([H])([H])C([H])([H])C([H])([H])C([H])(n5nc(-c6c([H])c([H])c(Oc7c([H])c([H])c(F)c([H])c7F)c([H])c6[H])c(C(=O)N([H])[H])c5N([H])[H])C4([H])[H])c(OC([H])([H])[H])c3[H])c([H])c([H])c2C1([H])[H]

>  <smiles>  (2) 
[H]c1c([H])c([H])c2c(c1[H])C([H])([H])C([H])([H])C([H])([H])C2([H])N([H])C(=O)C1([H])N(C(=O)C([H])(N([H])C(=O)C([H])(N([H])C([H])([H])[H])C([H])([H])[H])C(C([H])([H])[H])(C([H])([H])[H])C([H])([H])[H])C([H])([H])c2c([H])c(Oc3c([H])c([H])c(C(=O)C([H])([H])C(=O)N4C([H])([H])C([H])([H])C([H])([H])C([H])(n5nc(-c6c([H])c([H])c(Oc7c([H])c([H])c(F)c([H])c7F)c([H])c6[H])c(C(=O)N([H])[H])c5N([H])[H])C4([H])[H])c(OC([H])([H])[H])c3[H])c([H])c([H])c2C1([H])[H]

$$$$
2:0:0
     RDKit          3D

 91 99  0  0  1  0  0  0  0  0999 V2000
  -27.8650  -24.4890   18.4650 C   0  0  0  0  0  3  0  0  0  0  0  0
  -27.8610  -23.1990   17.8880 C   0  0  0  0  0  3  0  0  0  0  0  0
  -28.7140  -23.4750   20.4820 C   0  0  0  0  0  3  0  0  0  0  0  0
  -28.7640  -22.0830   19.9030 C   0  0  0  0  0  0  0  0  0  0  0  0
  -28.2420  -24.7350   19.8030 C   0  0  0  0  0  0  0  0  0  0  0  0
  -28.2900  -22.0340   18.5700 C   0  0  0  0  0  0  0  0  0  0  0  0
  -29.2850  -20.7030   16.9260 C   0  0  0  0  0  1  0  0  0  0  0  0
  -28.2610  -20.8400   17.9020 O   0  0  0  0  0  0  0  0  0  0  0  0
  -28.2580  -26.1550   20.2500 O   0  0  0  0  0  0  0  0  0  0  0  0
  -24.6380  -31.8980   23.2560 C   0  0  0  0  0  0  0  0  0  0  0  0
  -27.1970  -27.1540   20.1800 C   0  0  0  0  0  0  0  0  0  0  0  0
  -23.4300  -30.5060   21.6220 C   0  0  0  0  0  3  0  0  0  0  0  0
  -24.8680  -28.9330   20.1810 C   0  0  0  0  0  0  0  0  0  0  0  0
  -25.9890  -30.7580   21.4460 C   0  0  0  0  0  2  0  0  0  0  0  0
  -26.0560  -29.3660   20.7830 C   0  0  0  0  0  0  0  0  0  0  0  0
  -27.2170  -28.4940   20.7640 C   0  0  0  0  0  3  0  0  0  0  0  0
  -25.9670  -26.8270   19.5680 C   0  0  0  0  0  3  0  0  0  0  0  0
  -24.8390  -27.6770   19.5590 C   0  0  0  0  0  3  0  0  0  0  0  0
  -23.6430  -29.8340   20.2410 C   0  0  0  0  0  2  0  0  0  0  0  0
  -24.7070  -31.0770   22.1620 N   0  0  0  0  0  0  0  0  0  0  0  0
  -23.5540  -32.1810   23.7890 O   0  0  0  0  0  0  0  0  0  0  0  0
  -22.7560  -29.4970   22.5860 C   0  0  0  0  0  0  0  0  0  0  0  0
  -21.4310  -29.3070   22.4520 N   0  0  0  0  0  0  0  0  0  0  0  0
  -23.4290  -28.8870   23.4200 O   0  0  0  0  0  0  0  0  0  0  0  0
  -20.9430  -29.8500   21.7530 H   0  0  0  0  0  0  0  0  0  0  0  0
  -18.0650  -28.0530   22.9340 C   0  0  0  0  0  0  0  0  0  0  0  0
  -20.6160  -28.3640   23.2240 C   0  0  0  0  0  3  0  0  0  0  0  0
  -20.7490  -26.9280   22.6660 C   0  0  0  0  0  2  0  0  0  0  0  0
  -19.6640  -26.5750   21.6440 C   0  0  0  0  0  2  0  0  0  0  0  0
  -18.2730  -26.7020   22.2730 C   0  0  0  0  0  2  0  0  0  0  0  0
  -19.1660  -28.8400   23.3670 C   0  0  0  0  0  0  0  0  0  0  0  0
  -18.9160  -30.1030   23.9480 C   0  0  0  0  0  3  0  0  0  0  0  0
  -17.6000  -30.5810   24.0960 C   0  0  0  0  0  3  0  0  0  0  0  0
  -16.5150  -29.7910   23.6780 C   0  0  0  0  0  3  0  0  0  0  0  0
  -16.7480  -28.5280   23.1040 C   0  0  0  0  0  3  0  0  0  0  0  0
  -25.9170  -32.5350   23.8780 C   0  0  0  0  0  3  0  0  0  0  0  0
  -26.4140  -31.7840   25.1750 C   0  0  1  0  0  0  0  0  0  0  0  0
  -25.3090  -31.5740   26.2360 C   0  0  0  0  0  1  0  0  0  0  0  0
  -26.9910  -30.3950   24.8190 C   0  0  0  0  0  1  0  0  0  0  0  0
  -27.5650  -32.5830   25.8320 C   0  0  0  0  0  1  0  0  0  0  0  0
  -25.6110  -33.9410   24.1900 N   0  0  0  0  0  0  0  0  0  0  0  0
  -25.9640  -34.9880   23.4280 C   0  0  0  0  0  0  0  0  0  0  0  0
  -26.6430  -34.8690   22.4060 O   0  0  0  0  0  0  0  0  0  0  0  0
  -25.0080  -34.1070   24.9820 H   0  0  0  0  0  0  0  0  0  0  0  0
  -24.2760  -36.8100   23.0240 C   0  0  0  0  0  1  0  0  0  0  0  0
  -25.4870  -36.3850   23.8700 C   0  0  0  0  0  3  0  0  0  0  0  0
  -27.6080  -37.2430   24.7610 C   0  0  0  0  0  1  0  0  0  0  0  0
  -26.5390  -37.4210   23.7820 N   0  0  0  0  0  0  0  0  0  0  0  0
  -26.1430  -38.3490   23.9080 H   0  0  0  0  0  0  0  0  0  0  0  0
  -29.4530  -20.6830   20.5300 C   0  0  0  0  0  2  0  0  0  0  0  0
  -29.0510  -19.0250   20.2900 C   0  0  0  0  0  2  0  0  0  0  0  0
  -30.5090  -15.0970   20.3510 C   0  0  0  0  0  0  0  0  0  0  0  0
  -30.4030  -12.7370   19.3970 C   0  0  0  0  0  2  0  0  0  0  0  0
  -29.4660  -12.6660   18.1700 C   0  0  0  0  0  2  0  0  0  0  0  0
  -28.0110  -12.4260   18.6140 C   0  0  0  0  0  2  0  0  0  0  0  0
  -27.5950  -13.3420   19.7940 C   0  0  0  0  0  3  0  0  0  0  0  0
  -28.6590  -13.3870   20.9110 C   0  0  0  0  0  2  0  0  0  0  0  0
  -29.9090  -13.8330   20.2830 N   0  0  0  0  0  0  0  0  0  0  0  0
  -31.7250  -15.1120   20.1290 O   0  0  0  0  0  0  0  0  0  0  0  0
  -30.0790  -17.7050   20.4420 C   0  0  0  0  0  0  0  0  0  0  0  0
  -29.7320  -16.3070   20.4330 N   0  0  0  0  0  0  0  0  0  0  0  0
  -31.2660  -18.0170   20.5470 O   0  0  0  0  0  0  0  0  0  0  0  0
  -28.7390  -16.1450   20.4450 H   0  0  0  0  0  0  0  0  0  0  0  0
  -25.2170  -13.8860   20.5580 C   0  0  0  0  0  0  0  0  0  0  0  0
  -24.1650  -13.0970   20.9280 C   0  0  0  0  0  0  0  0  0  0  0  0
  -24.6420  -11.7520   20.8820 C   0  0  0  0  0  0  0  0  0  0  0  0
  -26.2680  -13.0220   20.3030 N   0  0  0  0  0  0  0  0  0  0  0  0
  -25.9320  -11.7310   20.5630 N   0  0  0  0  0  0  0  0  0  0  0  0
  -23.9270  -10.4810   21.0620 C   0  0  0  0  0  0  0  0  0  0  0  0
  -24.3650   -9.5130   21.9930 C   0  0  0  0  0  3  0  0  0  0  0  0
  -23.6490   -8.3080   22.1630 C   0  0  0  0  0  3  0  0  0  0  0  0
  -22.4820   -8.0630   21.4010 C   0  0  0  0  0  0  0  0  0  0  0  0
  -22.0640   -9.0190   20.4600 C   0  0  0  0  0  3  0  0  0  0  0  0
  -22.7800  -10.2160   20.2890 C   0  0  0  0  0  3  0  0  0  0  0  0
  -21.7380   -6.9110   21.4810 O   0  0  0  0  0  0  0  0  0  0  0  0
  -21.6750   -6.1720   22.6350 C   0  0  0  0  0  0  0  0  0  0  0  0
  -21.1870   -6.7160   23.8430 C   0  0  0  0  0  3  0  0  0  0  0  0
  -21.0770   -5.9000   24.9870 C   0  0  0  0  0  3  0  0  0  0  0  0
  -21.4440   -4.5430   24.9240 C   0  0  0  0  0  0  0  0  0  0  0  0
  -21.9250   -3.9980   23.7190 C   0  0  0  0  0  3  0  0  0  0  0  0
  -22.0370   -4.8110   22.5790 C   0  0  0  0  0  0  0  0  0  0  0  0
  -22.4810   -4.2770   21.4150 F   0  0  0  0  0  0  0  0  0  0  0  0
  -21.3300   -3.7570   26.0210 F   0  0  0  0  0  0  0  0  0  0  0  0
  -22.7630  -13.5590   21.2050 C   0  0  0  0  0  0  0  0  0  0  0  0
  -22.0370  -12.8440   22.0590 N   0  0  0  0  0  0  0  0  0  0  0  0
  -22.3190  -14.5900   20.7010 O   0  0  0  0  0  0  0  0  0  0  0  0
  -22.4100  -12.0140   22.4940 H   0  0  0  0  0  0  0  0  0  0  0  0
  -21.0970  -13.1360   22.2820 H   0  0  0  0  0  0  0  0  0  0  0  0
  -25.3630  -15.2590   20.3890 N   0  0  0  0  0  0  0  0  0  0  0  0
  -24.5800  -15.8940   20.5010 H   0  0  0  0  0  0  0  0  0  0  0  0
  -26.1830  -15.7080   20.0050 H   0  0  0  0  0  0  0  0  0  0  0  0
  1  5  1  0
  2  1  2  0
  2  6  1  0
  4  3  1  0
  4 50  1  0
  5  9  1  0
  5  3  2  0
  6  4  2  0
  7  8  1  0
  8  6  1  0
 10 21  2  0
 11  9  1  0
 11 16  1  0
 12 20  1  0
 12 22  1  0
 13 19  1  0
 13 15  1  0
 14 20  1  0
 15 14  1  0
 16 15  2  0
 17 11  2  0
 18 17  1  0
 18 13  2  0
 19 12  1  0
 20 10  1  0
 22 24  2  0
 23 22  1  0
 25 23  1  0
 26 35  2  0
 26 31  1  0
 27 23  1  0
 27 31  1  0
 28 27  1  0
 29 30  1  0
 29 28  1  0
 30 26  1  0
 31 32  2  0
 32 33  1  0
 34 33  2  0
 35 34  1  0
 36 10  1  0
 36 41  1  0
 36 37  1  0
 37 40  1  1
 37 38  1  0
 39 37  1  0
 41 44  1  0
 42 46  1  0
 42 41  1  0
 43 42  2  0
 46 45  1  0
 48 46  1  0
 48 49  1  0
 48 47  1  0
 51 60  1  0
 51 50  1  0
 52 61  1  0
 53 58  1  0
 54 55  1  0
 54 53  1  0
 56 55  1  0
 56 67  1  0
 56 57  1  0
 58 52  1  0
 58 57  1  0
 59 52  2  0
 60 62  2  0
 61 60  1  0
 61 63  1  0
 64 65  2  0
 65 84  1  0
 66 65  1  0
 66 69  1  0
 67 64  1  0
 67 68  1  0
 68 66  2  0
 69 70  1  0
 70 71  2  0
 72 75  1  0
 72 71  1  0
 73 72  2  0
 74 73  1  0
 74 69  2  0
 75 76  1  0
 76 77  1  0
 77 78  2  0
 79 78  1  0
 79 83  1  0
 80 79  2  0
 81 76  2  0
 81 80  1  0
 82 81  1  0
 84 85  1  0
 85 88  1  0
 85 87  1  0
 86 84  2  0
 89 90  1  0
 89 64  1  0
 91 89  1  0
M  ISO  4   5 101   9 101  52 100  61 100
M  END
>  <TORSDO>  (3) 
F 19

>  <SCORE>  (3) 
-15.139

>  <name>  (3) 
2

>  <ligand_id>  (3) 
2

>  <original_smiles>  (3) 
[H]c1c([H])c([H])c2c(c1[H])C([H])([H])C([H])([H])C([H])([H])C2([H])N([H])C(=O)C1([H])N(C(=O)C([H])(N([H])C(=O)C([H])(N([H])C([H])([H])[H])C([H])([H])[H])C(C([H])([H])[H])(C([H])([H])[H])C([H])([H])[H])C([H])([H])c2c([H])c(Oc3c([H])c([H])c(OC([H])([H])[H])c(C([H])([H])C([H])([H])C(=O)N([H])C(=O)N4C([H])([H])C([H])([H])C([H])([H])C([H])(n5nc(-c6c([H])c([H])c(Oc7c([H])c([H])c(F)c([H])c7F)c([H])c6[H])c(C(=O)N([H])[H])c5N([H])[H])C4([H])[H])c3[H])c([H])c([H])c2C1([H])[H]

>  <smiles>  (3) 
[H]c1c([H])c([H])c2c(c1[H])C([H])([H])C([H])([H])C([H])([H])C2([H])N([H])C(=O)C1([H])N(C(=O)C([H])(N([H])C(=O)C([H])(N([H])C([H])([H])[H])C([H])([H])[H])C(C([H])([H])[H])(C([H])([H])[H])C([H])([H])[H])C([H])([H])c2c([H])c(Oc3c([H])c([H])c(OC([H])([H])[H])c(C([H])([H])C([H])([H])C(=O)N([H])C(=O)N4C([H])([H])C([H])([H])C([H])([H])C([H])(n5nc(-c6c([H])c([H])c(Oc7c([H])c([H])c(F)c([H])c7F)c([H])c6[H])c(C(=O)N([H])[H])c5N([H])[H])C4([H])[H])c3[H])c([H])c([H])c2C1([H])[H]

$$$$
3:0:0
     RDKit          3D

 87 95  0  0  1  0  0  0  0  0999 V2000
  -28.9740  -22.5070   20.4700 C   0  0  0  0  0  0  0  0  0  0  0  0
  -30.0420  -22.9500   20.9050 O   0  0  0  0  0  0  0  0  0  0  0  0
  -30.2300  -19.9070   20.8670 C   0  0  0  0  0  3  0  0  0  0  0  0
  -30.5410  -18.4270   20.8520 C   0  0  0  0  0  3  0  0  0  0  0  0
  -28.2760  -19.5270   19.8720 C   0  0  0  0  0  3  0  0  0  0  0  0
  -29.0690  -20.6890   20.3800 C   0  0  0  0  0  0  0  0  0  0  0  0
  -29.7660  -17.2730   20.3560 C   0  0  0  0  0  0  0  0  0  0  0  0
  -28.5740  -18.0170   19.8490 C   0  0  0  0  0  0  0  0  0  0  0  0
  -27.6240  -17.2510   19.2610 F   0  0  0  0  0  0  0  0  0  0  0  0
  -30.3430  -15.6170   20.2250 C   0  0  0  0  0  0  0  0  0  0  0  0
  -30.3790  -13.0940   19.4150 C   0  0  0  0  0  2  0  0  0  0  0  0
  -29.4980  -12.7500   18.1830 C   0  0  0  0  0  2  0  0  0  0  0  0
  -28.0650  -12.4150   18.6190 C   0  0  0  0  0  2  0  0  0  0  0  0
  -27.5560  -13.4050   19.6920 C   0  0  0  0  0  3  0  0  0  0  0  0
  -28.5770  -13.6950   20.8150 C   0  0  0  0  0  2  0  0  0  0  0  0
  -29.7780  -14.2760   20.1830 N   0  0  0  0  0  0  0  0  0  0  0  0
  -31.5710  -15.4920   20.0510 O   0  0  0  0  0  0  0  0  0  0  0  0
  -25.1850  -13.9070   20.4440 C   0  0  0  0  0  0  0  0  0  0  0  0
  -24.1350  -13.1130   20.8090 C   0  0  0  0  0  0  0  0  0  0  0  0
  -24.6270  -11.7700   20.7880 C   0  0  0  0  0  0  0  0  0  0  0  0
  -26.2430  -13.0510   20.2070 N   0  0  0  0  0  0  0  0  0  0  0  0
  -25.9220  -11.7590   20.4840 N   0  0  0  0  0  0  0  0  0  0  0  0
  -23.9170  -10.4960   20.9780 C   0  0  0  0  0  0  0  0  0  0  0  0
  -24.3420   -9.5460   21.9330 C   0  0  0  0  0  3  0  0  0  0  0  0
  -23.6260   -8.3420   22.1130 C   0  0  0  0  0  3  0  0  0  0  0  0
  -22.4720   -8.0790   21.3370 C   0  0  0  0  0  0  0  0  0  0  0  0
  -22.0660   -9.0180   20.3710 C   0  0  0  0  0  3  0  0  0  0  0  0
  -22.7830  -10.2130   20.1900 C   0  0  0  0  0  3  0  0  0  0  0  0
  -21.7300   -6.9260   21.4250 O   0  0  0  0  0  0  0  0  0  0  0  0
  -21.6510   -6.2080   22.5900 C   0  0  0  0  0  0  0  0  0  0  0  0
  -21.1450   -6.7720   23.7820 C   0  0  0  0  0  3  0  0  0  0  0  0
  -21.0170   -5.9780   24.9380 C   0  0  0  0  0  3  0  0  0  0  0  0
  -21.3850   -4.6190   24.9050 C   0  0  0  0  0  0  0  0  0  0  0  0
  -21.8830   -4.0530   23.7180 C   0  0  0  0  0  3  0  0  0  0  0  0
  -22.0110   -4.8450   22.5630 C   0  0  0  0  0  0  0  0  0  0  0  0
  -22.4720   -4.2900   21.4170 F   0  0  0  0  0  0  0  0  0  0  0  0
  -21.2540   -3.8540   26.0130 F   0  0  0  0  0  0  0  0  0  0  0  0
  -22.7280  -13.5680   21.0600 C   0  0  0  0  0  0  0  0  0  0  0  0
  -22.0060  -12.8710   21.9290 N   0  0  0  0  0  0  0  0  0  0  0  0
  -22.2800  -14.5790   20.5230 O   0  0  0  0  0  0  0  0  0  0  0  0
  -22.3840  -12.0540   22.3860 H   0  0  0  0  0  0  0  0  0  0  0  0
  -21.0610  -13.1570   22.1420 H   0  0  0  0  0  0  0  0  0  0  0  0
  -25.3250  -15.2800   20.2600 N   0  0  0  0  0  0  0  0  0  0  0  0
  -24.5420  -15.9160   20.3550 H   0  0  0  0  0  0  0  0  0  0  0  0
  -26.1640  -15.7360   19.9180 H   0  0  0  0  0  0  0  0  0  0  0  0
  -27.8780  -23.9420   20.1740 C   0  0  0  0  0  2  0  0  0  0  0  0
  -28.1220  -25.6500   20.3570 O   0  0  0  0  0  0  0  0  0  0  0  0
  -24.6460  -31.8830   23.2560 C   0  0  0  0  0  0  0  0  0  0  0  0
  -27.1550  -26.8430   20.2810 C   0  0  0  0  0  0  0  0  0  0  0  0
  -23.4510  -30.4880   21.6210 C   0  0  0  0  0  3  0  0  0  0  0  0
  -24.8920  -28.8440   20.2090 C   0  0  0  0  0  0  0  0  0  0  0  0
  -26.0260  -30.6400   21.4920 C   0  0  0  0  0  2  0  0  0  0  0  0
  -26.0860  -29.2110   20.8420 C   0  0  0  0  0  0  0  0  0  0  0  0
  -27.2060  -28.2360   20.8450 C   0  0  0  0  0  3  0  0  0  0  0  0
  -25.9310  -26.6700   19.5900 C   0  0  0  0  0  3  0  0  0  0  0  0
  -24.8500  -27.5980   19.5590 C   0  0  0  0  0  3  0  0  0  0  0  0
  -23.6860  -29.7910   20.2500 C   0  0  0  0  0  2  0  0  0  0  0  0
  -24.7320  -31.0350   22.1770 N   0  0  0  0  0  0  0  0  0  0  0  0
  -23.5540  -32.1850   23.7690 O   0  0  0  0  0  0  0  0  0  0  0  0
  -22.7370  -29.5100   22.5940 C   0  0  0  0  0  0  0  0  0  0  0  0
  -21.4060  -29.3520   22.4650 N   0  0  0  0  0  0  0  0  0  0  0  0
  -23.3920  -28.8890   23.4350 O   0  0  0  0  0  0  0  0  0  0  0  0
  -20.9280  -29.9030   21.7660 H   0  0  0  0  0  0  0  0  0  0  0  0
  -18.0180  -28.1380   22.9660 C   0  0  0  0  0  0  0  0  0  0  0  0
  -20.5770  -28.4200   23.2390 C   0  0  0  0  0  3  0  0  0  0  0  0
  -20.6860  -26.9820   22.6800 C   0  0  0  0  0  2  0  0  0  0  0  0
  -19.5910  -26.6460   21.6610 C   0  0  0  0  0  2  0  0  0  0  0  0
  -18.2050  -26.7870   22.2960 C   0  0  0  0  0  2  0  0  0  0  0  0
  -19.1310  -28.9110   23.3950 C   0  0  0  0  0  0  0  0  0  0  0  0
  -18.9000  -30.1720   23.9870 C   0  0  0  0  0  3  0  0  0  0  0  0
  -17.5900  -30.6620   24.1500 C   0  0  0  0  0  3  0  0  0  0  0  0
  -16.4930  -29.8890   23.7340 C   0  0  0  0  0  3  0  0  0  0  0  0
  -16.7080  -28.6280   23.1490 C   0  0  0  0  0  3  0  0  0  0  0  0
  -25.9140  -32.5280   23.8930 C   0  0  0  0  0  3  0  0  0  0  0  0
  -25.6020  -33.9350   24.2140 N   0  0  0  0  0  0  0  0  0  0  0  0
  -25.9180  -34.9890   23.4500 C   0  0  0  0  0  0  0  0  0  0  0  0
  -26.5620  -34.8810   22.4040 O   0  0  0  0  0  0  0  0  0  0  0  0
  -25.0290  -34.0920   25.0300 H   0  0  0  0  0  0  0  0  0  0  0  0
  -24.1740  -36.7840   23.1570 C   0  0  0  0  0  1  0  0  0  0  0  0
  -25.4490  -36.3830   23.9180 C   0  0  0  0  0  3  0  0  0  0  0  0
  -27.6110  -37.2890   24.6570 C   0  0  0  0  0  1  0  0  0  0  0  0
  -26.4740  -37.4380   23.7510 N   0  0  0  0  0  0  0  0  0  0  0  0
  -26.0700  -38.3590   23.8970 H   0  0  0  0  0  0  0  0  0  0  0  0
  -26.4010  -31.7780   25.1950 C   0  0  1  0  0  0  0  0  0  0  0  0
  -25.2900  -31.5750   26.2520 C   0  0  0  0  0  1  0  0  0  0  0  0
  -26.9760  -30.3860   24.8520 C   0  0  0  0  0  1  0  0  0  0  0  0
  -27.5480  -32.5750   25.8610 C   0  0  0  0  0  1  0  0  0  0  0  0
  1  2  2  0
  4  3  1  0
  5  6  1  0
  6  1  1  0
  6  3  2  0
  7  4  2  0
  8  5  2  0
  8  7  1  0
  9  8  1  0
 10  7  1  0
 11 16  1  0
 12 13  1  0
 12 11  1  0
 14 13  1  0
 14 21  1  0
 14 15  1  0
 16 10  1  0
 16 15  1  0
 17 10  2  0
 18 19  2  0
 19 38  1  0
 20 19  1  0
 20 23  1  0
 21 18  1  0
 21 22  1  0
 22 20  2  0
 23 24  1  0
 24 25  2  0
 26 29  1  0
 26 25  1  0
 27 26  2  0
 28 27  1  0
 28 23  2  0
 29 30  1  0
 30 31  1  0
 31 32  2  0
 33 32  1  0
 33 37  1  0
 34 33  2  0
 35 30  2  0
 35 34  1  0
 36 35  1  0
 38 39  1  0
 39 42  1  0
 39 41  1  0
 40 38  2  0
 43 44  1  0
 43 18  1  0
 45 43  1  0
 46 47  1  0
 46  1  1  0
 48 59  2  0
 49 47  1  0
 49 54  1  0
 50 58  1  0
 50 60  1  0
 51 57  1  0
 51 53  1  0
 52 58  1  0
 53 54  2  0
 53 52  1  0
 55 49  2  0
 56 55  1  0
 56 51  2  0
 57 50  1  0
 58 48  1  0
 60 62  2  0
 61 60  1  0
 63 61  1  0
 64 73  2  0
 64 69  1  0
 65 61  1  0
 65 69  1  0
 66 65  1  0
 67 68  1  0
 67 66  1  0
 68 64  1  0
 69 70  2  0
 70 71  1  0
 72 71  2  0
 73 72  1  0
 74 48  1  0
 74 75  1  0
 74 84  1  0
 75 78  1  0
 76 80  1  0
 76 75  1  0
 77 76  2  0
 80 79  1  0
 82 83  1  0
 82 80  1  0
 82 81  1  0
 84 87  1  1
 84 85  1  0
 86 84  1  0
M  ISO  4   7 100  10 100  46 101  47 101
M  END
>  <TORSDO>  (4) 
F 18

>  <SCORE>  (4) 
-16.875

>  <name>  (4) 
3

>  <ligand_id>  (4) 
3

>  <original_smiles>  (4) 
[H]c1c([H])c([H])c2c(c1[H])C([H])([H])C([H])([H])C([H])([H])C2([H])N([H])C(=O)C1([H])N(C(=O)C([H])(N([H])C(=O)C([H])(N([H])C([H])([H])[H])C([H])([H])[H])C(C([H])([H])[H])(C([H])([H])[H])C([H])([H])[H])C([H])([H])c2c([H])c(OC([H])([H])C(=O)c3c([H])c([H])c(C(=O)N4C([H])([H])C([H])([H])C([H])([H])C([H])(n5nc(-c6c([H])c([H])c(Oc7c([H])c([H])c(F)c([H])c7F)c([H])c6[H])c(C(=O)N([H])[H])c5N([H])[H])C4([H])[H])c(F)c3[H])c([H])c([H])c2C1([H])[H]

>  <smiles>  (4) 
[H]c1c([H])c([H])c2c(c1[H])C([H])([H])C([H])([H])C([H])([H])C2([H])N([H])C(=O)C1([H])N(C(=O)C([H])(N([H])C(=O)C([H])(N([H])C([H])([H])[H])C([H])([H])[H])C(C([H])([H])[H])(C([H])([H])[H])C([H])([H])[H])C([H])([H])c2c([H])c(OC([H])([H])C(=O)c3c([H])c([H])c(C(=O)N4C([H])([H])C([H])([H])C([H])([H])C([H])(n5nc(-c6c([H])c([H])c(Oc7c([H])c([H])c(F)c([H])c7F)c([H])c6[H])c(C(=O)N([H])[H])c5N([H])[H])C4([H])[H])c(F)c3[H])c([H])c([H])c2C1([H])[H]

$$$$
4:0:0
     RDKit          3D

 94102  0  0  1  0  0  0  0  0999 V2000
  -29.8090  -25.9110   16.1470 C   0  0  0  0  0  3  0  0  0  0  0  0
  -28.9450  -23.7850   16.9730 C   0  0  0  0  0  3  0  0  0  0  0  0
  -30.9450  -25.2550   15.6410 C   0  0  0  0  0  3  0  0  0  0  0  0
  -30.0880  -23.1280   16.4740 C   0  0  0  0  0  3  0  0  0  0  0  0
  -28.7660  -25.1630   16.7320 C   0  0  0  0  0  0  0  0  0  0  0  0
  -31.0340  -23.8480   15.7150 C   0  0  0  0  0  0  0  0  0  0  0  0
  -31.8690  -23.1760   14.8500 O   0  0  0  0  0  0  0  0  0  0  0  0
  -28.4710  -26.1830    9.3860 C   0  0  0  0  0  0  0  0  0  0  0  0
  -31.2820  -22.9800   13.6180 C   0  0  0  0  0  0  0  0  0  0  0  0
  -28.2480  -23.7270    9.5840 C   0  0  0  0  0  3  0  0  0  0  0  0
  -29.8480  -22.6010   11.2170 C   0  0  0  0  0  0  0  0  0  0  0  0
  -30.3390  -24.9240   10.4440 C   0  0  0  0  0  2  0  0  0  0  0  0
  -30.4680  -23.8300   11.4790 C   0  0  0  0  0  0  0  0  0  0  0  0
  -31.1840  -24.0290   12.6810 C   0  0  0  0  0  3  0  0  0  0  0  0
  -30.6750  -21.7350   13.3240 C   0  0  0  0  0  3  0  0  0  0  0  0
  -29.9460  -21.5460   12.1400 C   0  0  0  0  0  3  0  0  0  0  0  0
  -29.0950  -22.4700    9.9140 C   0  0  0  0  0  2  0  0  0  0  0  0
  -29.0000  -25.0040    9.8170 N   0  0  0  0  0  0  0  0  0  0  0  0
  -27.3980  -26.2150    8.7670 O   0  0  0  0  0  0  0  0  0  0  0  0
  -26.9180  -23.6490   10.3660 C   0  0  0  0  0  0  0  0  0  0  0  0
  -25.7990  -23.9100    9.6710 N   0  0  0  0  0  0  0  0  0  0  0  0
  -26.9030  -23.3350   11.5590 O   0  0  0  0  0  0  0  0  0  0  0  0
  -25.8940  -24.1670    8.6990 H   0  0  0  0  0  0  0  0  0  0  0  0
  -22.5870  -25.5600    9.5550 C   0  0  0  0  0  0  0  0  0  0  0  0
  -24.4320  -23.8660   10.1920 C   0  0  0  0  0  3  0  0  0  0  0  0
  -23.5870  -22.8140    9.4380 C   0  0  0  0  0  2  0  0  0  0  0  0
  -22.8110  -23.4000    8.2540 C   0  0  0  0  0  2  0  0  0  0  0  0
  -21.8670  -24.5090    8.7250 C   0  0  0  0  0  2  0  0  0  0  0  0
  -23.8000  -25.2620   10.2300 C   0  0  0  0  0  0  0  0  0  0  0  0
  -24.4480  -26.2840   10.9560 C   0  0  0  0  0  3  0  0  0  0  0  0
  -23.9020  -27.5810   11.0190 C   0  0  0  0  0  3  0  0  0  0  0  0
  -22.6930  -27.8650   10.3620 C   0  0  0  0  0  3  0  0  0  0  0  0
  -22.0370  -26.8560    9.6350 C   0  0  0  0  0  3  0  0  0  0  0  0
  -29.1990  -27.5410    9.6270 C   0  0  0  0  0  3  0  0  0  0  0  0
  -28.9920  -28.3720    8.4350 N   0  0  0  0  0  0  0  0  0  0  0  0
  -29.9770  -28.8490    7.6610 C   0  0  0  0  0  0  0  0  0  0  0  0
  -31.1720  -28.6930    7.9250 O   0  0  0  0  0  0  0  0  0  0  0  0
  -28.0380  -28.4990    8.1320 H   0  0  0  0  0  0  0  0  0  0  0  0
  -30.1470  -28.9200    5.1540 C   0  0  0  0  0  1  0  0  0  0  0  0
  -29.5690  -29.6220    6.3930 C   0  0  0  0  0  3  0  0  0  0  0  0
  -29.0290  -31.9240    7.0520 C   0  0  0  0  0  1  0  0  0  0  0  0
  -29.9940  -31.0390    6.4070 N   0  0  0  0  0  0  0  0  0  0  0  0
  -30.1490  -31.3770    5.4600 H   0  0  0  0  0  0  0  0  0  0  0  0
  -28.7050  -28.2910   10.9250 C   0  0  1  0  0  0  0  0  0  0  0  0
  -27.3480  -29.0120   10.7460 C   0  0  0  0  0  1  0  0  0  0  0  0
  -28.5610  -27.3010   12.1060 C   0  0  0  0  0  1  0  0  0  0  0  0
  -29.7540  -29.3430   11.3550 C   0  0  0  0  0  1  0  0  0  0  0  0
  -27.4110  -25.8130   16.9400 C   0  0  0  0  0  2  0  0  0  0  0  0
  -26.7370  -25.5070   18.2780 C   0  0  0  0  0  2  0  0  0  0  0  0
  -25.7660  -24.3150   18.2310 C   0  0  0  0  0  2  0  0  0  0  0  0
  -25.4130  -23.7940   19.6330 C   0  0  0  0  0  2  0  0  0  0  0  0
  -25.8480  -24.8810   21.8860 C   0  0  0  0  0  1  0  0  0  0  0  0
  -26.4710  -24.0920   20.7170 C   0  0  0  0  0  3  0  0  0  0  0  0
  -27.2270  -22.8310   21.1930 C   0  0  0  0  0  2  0  0  0  0  0  0
  -28.7540  -22.9200   21.0120 C   0  0  0  0  0  2  0  0  0  0  0  0
  -29.2670  -24.2890   20.5250 C   0  0  0  0  0  2  0  0  0  0  0  0
  -31.5780  -24.9230   19.8250 C   0  0  0  0  0  0  0  0  0  0  0  0
  -33.9250  -24.9370   19.0550 C   0  0  0  0  0  2  0  0  0  0  0  0
  -34.0680  -24.4000   17.6200 C   0  0  0  0  0  2  0  0  0  0  0  0
  -34.1820  -22.8640   17.6130 C   0  0  0  0  0  2  0  0  0  0  0  0
  -33.0740  -22.1800   18.4540 C   0  0  0  0  0  3  0  0  0  0  0  0
  -32.9770  -22.8320   19.8510 C   0  0  0  0  0  2  0  0  0  0  0  0
  -32.7710  -24.2900   19.6930 N   0  0  0  0  0  0  0  0  0  0  0  0
  -31.3190  -26.0300   19.3420 O   0  0  0  0  0  0  0  0  0  0  0  0
  -30.7190  -24.2630   20.5990 N   0  0  0  0  0  0  0  0  0  0  0  0
  -31.1150  -23.4680   21.0790 H   0  0  0  0  0  0  0  0  0  0  0  0
  -32.3920  -19.6940   18.3690 C   0  0  0  0  0  0  0  0  0  0  0  0
  -33.1210  -18.5410   18.4910 C   0  0  0  0  0  0  0  0  0  0  0  0
  -34.4680  -18.9510   18.7300 C   0  0  0  0  0  0  0  0  0  0  0  0
  -33.2910  -20.7360   18.5440 N   0  0  0  0  0  0  0  0  0  0  0  0
  -34.5400  -20.2740   18.8110 N   0  0  0  0  0  0  0  0  0  0  0  0
  -35.7030  -18.1630   18.8350 C   0  0  0  0  0  0  0  0  0  0  0  0
  -36.5380  -18.2470   19.9710 C   0  0  0  0  0  3  0  0  0  0  0  0
  -37.7130  -17.4700   20.0540 C   0  0  0  0  0  3  0  0  0  0  0  0
  -38.0610  -16.5940   18.9970 C   0  0  0  0  0  0  0  0  0  0  0  0
  -37.2380  -16.5300   17.8590 C   0  0  0  0  0  3  0  0  0  0  0  0
  -36.0720  -17.3090   17.7770 C   0  0  0  0  0  3  0  0  0  0  0  0
  -39.1940  -15.8180   18.9790 O   0  0  0  0  0  0  0  0  0  0  0  0
  -39.4160  -14.8470   19.9240 C   0  0  0  0  0  0  0  0  0  0  0  0
  -38.8180  -13.5710   19.8370 C   0  0  0  0  0  3  0  0  0  0  0  0
  -39.1290  -12.5820   20.7900 C   0  0  0  0  0  3  0  0  0  0  0  0
  -40.0400  -12.8630   21.8260 C   0  0  0  0  0  0  0  0  0  0  0  0
  -40.6410  -14.1310   21.9110 C   0  0  0  0  0  3  0  0  0  0  0  0
  -40.3300  -15.1200   20.9620 C   0  0  0  0  0  0  0  0  0  0  0  0
  -40.9270  -16.3330   21.0360 F   0  0  0  0  0  0  0  0  0  0  0  0
  -40.3450  -11.9090   22.7380 F   0  0  0  0  0  0  0  0  0  0  0  0
  -32.6180  -17.1390   18.3050 C   0  0  0  0  0  0  0  0  0  0  0  0
  -32.7830  -16.2900   19.3140 N   0  0  0  0  0  0  0  0  0  0  0  0
  -32.0350  -16.7980   17.2760 O   0  0  0  0  0  0  0  0  0  0  0  0
  -33.2480  -16.5740   20.1620 H   0  0  0  0  0  0  0  0  0  0  0  0
  -32.4390  -15.3440   19.2360 H   0  0  0  0  0  0  0  0  0  0  0  0
  -31.0490  -19.9390   18.1050 N   0  0  0  0  0  0  0  0  0  0  0  0
  -30.3880  -19.1860   17.9490 H   0  0  0  0  0  0  0  0  0  0  0  0
  -30.6350  -20.8570   18.0140 H   0  0  0  0  0  0  0  0  0  0  0  0
  1  5  1  0
  3  6  1  0
  3  1  2  0
  4  2  1  0
  5 48  1  0
  5  2  2  0
  6  4  2  0
  7  6  1  0
  8 18  1  0
  9  7  1  0
 10 18  1  0
 10 17  1  0
 10 20  1  0
 11 13  2  0
 11 16  1  0
 12 13  1  0
 13 14  1  0
 14  9  2  0
 15  9  1  0
 16 15  2  0
 17 11  1  0
 18 12  1  0
 19  8  2  0
 20 22  2  0
 21 20  1  0
 23 21  1  0
 24 33  2  0
 24 29  1  0
 25 21  1  0
 25 29  1  0
 26 25  1  0
 27 28  1  0
 27 26  1  0
 28 24  1  0
 29 30  2  0
 30 31  1  0
 32 31  2  0
 33 32  1  0
 34  8  1  0
 34 44  1  0
 35 34  1  0
 36 37  2  0
 36 35  1  0
 38 35  1  0
 40 39  1  0
 40 42  1  0
 40 36  1  0
 42 41  1  0
 43 42  1  0
 44 47  1  1
 44 46  1  0
 45 44  1  0
 48 49  1  0
 50 49  1  0
 50 51  1  0
 51 53  1  0
 53 54  1  0
 53 52  1  0
 55 54  1  0
 56 65  1  0
 56 55  1  0
 57 65  1  0
 58 63  1  0
 59 58  1  0
 60 59  1  0
 61 60  1  0
 61 70  1  0
 61 62  1  0
 63 57  1  0
 63 62  1  0
 64 57  2  0
 65 66  1  0
 67 68  2  0
 67 70  1  0
 68 69  1  0
 69 71  2  0
 69 72  1  0
 70 71  1  0
 72 73  1  0
 73 74  2  0
 75 74  1  0
 76 75  2  0
 77 76  1  0
 77 72  2  0
 78 75  1  0
 78 79  1  0
 79 84  1  0
 80 79  2  0
 80 81  1  0
 81 82  2  0
 82 83  1  0
 82 86  1  0
 84 85  1  0
 84 83  2  0
 87 68  1  0
 87 88  1  0
 88 90  1  0
 89 87  2  0
 91 88  1  0
 92 67  1  0
 93 92  1  0
 94 92  1  0
M  ISO  4   6 101   7 101  57 100  65 100
M  END
>  <TORSDO>  (5) 
F 24

>  <SCORE>  (5) 
-3.187

>  <name>  (5) 
4

>  <ligand_id>  (5) 
4

>  <original_smiles>  (5) 
[H]c1c([H])c([H])c2c(c1[H])C([H])([H])C([H])([H])C([H])([H])C2([H])N([H])C(=O)C1([H])N(C(=O)C([H])(N([H])C(=O)C([H])(N([H])C([H])([H])[H])C([H])([H])[H])C(C([H])([H])[H])(C([H])([H])[H])C([H])([H])[H])C([H])([H])c2c([H])c(Oc3c([H])c([H])c(C([H])([H])C([H])([H])C([H])([H])C([H])([H])C([H])(C([H])([H])[H])C([H])([H])C([H])([H])C([H])([H])N([H])C(=O)N4C([H])([H])C([H])([H])C([H])([H])C([H])(n5nc(-c6c([H])c([H])c(Oc7c([H])c([H])c(F)c([H])c7F)c([H])c6[H])c(C(=O)N([H])[H])c5N([H])[H])C4([H])[H])c([H])c3[H])c([H])c([H])c2C1([H])[H]

>  <smiles>  (5) 
[H]c1c([H])c([H])c2c(c1[H])C([H])([H])C([H])([H])C([H])([H])C2([H])N([H])C(=O)C1([H])N(C(=O)C([H])(N([H])C(=O)C([H])(N([H])C([H])([H])[H])C([H])([H])[H])C(C([H])([H])[H])(C([H])([H])[H])C([H])([H])[H])C([H])([H])c2c([H])c(Oc3c([H])c([H])c(C([H])([H])C([H])([H])C([H])([H])C([H])([H])C([H])(C([H])([H])[H])C([H])([H])C([H])([H])C([H])([H])N([H])C(=O)N4C([H])([H])C([H])([H])C([H])([H])C([H])(n5nc(-c6c([H])c([H])c(Oc7c([H])c([H])c(F)c([H])c7F)c([H])c6[H])c(C(=O)N([H])[H])c5N([H])[H])C4([H])[H])c([H])c3[H])c([H])c([H])c2C1([H])[H]

$$$$
5:0:0
     RDKit          3D

 88 96  0  0  1  0  0  0  0  0999 V2000
  -29.8470  -22.2690   19.8860 C   0  0  0  0  0  3  0  0  0  0  0  0
  -29.5940  -23.7360   19.8670 C   0  0  0  0  0  3  0  0  0  0  0  0
  -27.6850  -21.9720   20.6090 C   0  0  0  0  0  3  0  0  0  0  0  0
  -28.9000  -21.2370   20.2680 C   0  0  0  0  0  0  0  0  0  0  0  0
  -27.4310  -23.4360   20.6140 C   0  0  0  0  0  0  0  0  0  0  0  0
  -28.3810  -24.4720   20.2260 C   0  0  0  0  0  0  0  0  0  0  0  0
  -26.0560  -23.8640   21.0950 C   0  0  0  0  0  1  0  0  0  0  0  0
  -28.3090  -25.9980   20.2560 O   0  0  0  0  0  0  0  0  0  0  0  0
  -24.6210  -31.8370   23.2090 C   0  0  0  0  0  0  0  0  0  0  0  0
  -27.2300  -27.0070   20.2280 C   0  0  0  0  0  0  0  0  0  0  0  0
  -23.4440  -30.4320   21.5610 C   0  0  0  0  0  3  0  0  0  0  0  0
  -24.9110  -28.8330   20.1560 C   0  0  0  0  0  0  0  0  0  0  0  0
  -26.0050  -30.6650   21.4380 C   0  0  0  0  0  2  0  0  0  0  0  0
  -26.0840  -29.2570   20.7910 C   0  0  0  0  0  0  0  0  0  0  0  0
  -27.2360  -28.3600   20.8100 C   0  0  0  0  0  3  0  0  0  0  0  0
  -26.0380  -26.7290   19.5270 C   0  0  0  0  0  3  0  0  0  0  0  0
  -24.9080  -27.5870   19.5050 C   0  0  0  0  0  3  0  0  0  0  0  0
  -23.6860  -29.7440   20.1890 C   0  0  0  0  0  2  0  0  0  0  0  0
  -24.7110  -31.0050   22.1230 N   0  0  0  0  0  0  0  0  0  0  0  0
  -23.5270  -32.1270   23.7210 O   0  0  0  0  0  0  0  0  0  0  0  0
  -22.7490  -29.4350   22.5250 C   0  0  0  0  0  0  0  0  0  0  0  0
  -21.4180  -29.2800   22.4010 N   0  0  0  0  0  0  0  0  0  0  0  0
  -23.4140  -28.8040   23.3490 O   0  0  0  0  0  0  0  0  0  0  0  0
  -20.9350  -29.8430   21.7140 H   0  0  0  0  0  0  0  0  0  0  0  0
  -18.0250  -28.1100   22.9220 C   0  0  0  0  0  0  0  0  0  0  0  0
  -20.5900  -28.3450   23.1700 C   0  0  0  0  0  3  0  0  0  0  0  0
  -20.6710  -26.9160   22.5810 C   0  0  0  0  0  2  0  0  0  0  0  0
  -19.5580  -26.6160   21.5720 C   0  0  0  0  0  2  0  0  0  0  0  0
  -18.1820  -26.7680   22.2280 C   0  0  0  0  0  2  0  0  0  0  0  0
  -19.1540  -28.8580   23.3500 C   0  0  0  0  0  0  0  0  0  0  0  0
  -18.9500  -30.1140   23.9610 C   0  0  0  0  0  3  0  0  0  0  0  0
  -17.6520  -30.6220   24.1480 C   0  0  0  0  0  3  0  0  0  0  0  0
  -16.5370  -29.8720   23.7340 C   0  0  0  0  0  3  0  0  0  0  0  0
  -16.7250  -28.6180   23.1270 C   0  0  0  0  0  3  0  0  0  0  0  0
  -25.8870  -32.4820   23.8510 C   0  0  0  0  0  3  0  0  0  0  0  0
  -25.5640  -33.8800   24.1860 N   0  0  0  0  0  0  0  0  0  0  0  0
  -25.8820  -34.9430   23.4340 C   0  0  0  0  0  0  0  0  0  0  0  0
  -26.5450  -34.8520   22.3980 O   0  0  0  0  0  0  0  0  0  0  0  0
  -24.9760  -34.0250   24.9930 H   0  0  0  0  0  0  0  0  0  0  0  0
  -24.1310  -36.7250   23.1230 C   0  0  0  0  0  1  0  0  0  0  0  0
  -25.3920  -36.3270   23.9070 C   0  0  0  0  0  3  0  0  0  0  0  0
  -27.5320  -37.2360   24.6990 C   0  0  0  0  0  1  0  0  0  0  0  0
  -26.4120  -37.3900   23.7750 N   0  0  0  0  0  0  0  0  0  0  0  0
  -25.9990  -38.3060   23.9290 H   0  0  0  0  0  0  0  0  0  0  0  0
  -26.3890  -31.7160   25.1380 C   0  0  1  0  0  0  0  0  0  0  0  0
  -25.2810  -31.4810   26.1920 C   0  0  0  0  0  1  0  0  0  0  0  0
  -26.9810  -30.3360   24.7690 C   0  0  0  0  0  1  0  0  0  0  0  0
  -27.5290  -32.5150   25.8120 C   0  0  0  0  0  1  0  0  0  0  0  0
  -29.0130  -19.5120   20.4610 C   0  0  0  0  0  3  0  0  0  0  0  0
  -30.0130  -18.1250   19.9630 C   0  0  0  0  0  3  0  0  0  0  0  0
  -30.4910  -15.2370   19.9690 C   0  0  0  0  0  0  0  0  0  0  0  0
  -30.3790  -12.8530   18.9450 C   0  0  0  0  0  2  0  0  0  0  0  0
  -29.3680  -12.7450   17.7720 C   0  0  0  0  0  2  0  0  0  0  0  0
  -27.9400  -12.4750   18.2870 C   0  0  0  0  0  2  0  0  0  0  0  0
  -27.5930  -13.3530   19.5160 C   0  0  0  0  0  3  0  0  0  0  0  0
  -28.7280  -13.3490   20.5610 C   0  0  0  0  0  2  0  0  0  0  0  0
  -29.9120  -13.9320   19.8950 N   0  0  0  0  0  0  0  0  0  0  0  0
  -31.6580  -15.2610   19.5480 O   0  0  0  0  0  0  0  0  0  0  0  0
  -28.7560  -16.4190   21.3220 C   0  0  0  0  0  1  0  0  0  0  0  0
  -29.7750  -16.5090   20.2760 N   0  0  0  0  0  0  0  0  0  0  0  0
  -25.2650  -13.8860   20.4300 C   0  0  0  0  0  0  0  0  0  0  0  0
  -24.2350  -13.0970   20.8520 C   0  0  0  0  0  0  0  0  0  0  0  0
  -24.6990  -11.7510   20.7490 C   0  0  0  0  0  0  0  0  0  0  0  0
  -26.2960  -13.0240   20.0960 N   0  0  0  0  0  0  0  0  0  0  0  0
  -25.9690  -11.7300   20.3530 N   0  0  0  0  0  0  0  0  0  0  0  0
  -23.9860  -10.4830   20.9480 C   0  0  0  0  0  0  0  0  0  0  0  0
  -24.4420   -9.5140   21.8700 C   0  0  0  0  0  3  0  0  0  0  0  0
  -23.7250   -8.3130   22.0590 C   0  0  0  0  0  3  0  0  0  0  0  0
  -22.5390   -8.0710   21.3280 C   0  0  0  0  0  0  0  0  0  0  0  0
  -22.0990   -9.0280   20.3960 C   0  0  0  0  0  3  0  0  0  0  0  0
  -22.8170  -10.2210   20.2050 C   0  0  0  0  0  3  0  0  0  0  0  0
  -21.7920   -6.9200   21.4270 O   0  0  0  0  0  0  0  0  0  0  0  0
  -21.7260   -6.2030   22.5940 C   0  0  0  0  0  0  0  0  0  0  0  0
  -21.2670   -6.7810   23.7980 C   0  0  0  0  0  3  0  0  0  0  0  0
  -21.1510   -5.9910   24.9590 C   0  0  0  0  0  3  0  0  0  0  0  0
  -21.4800   -4.6220   24.9160 C   0  0  0  0  0  0  0  0  0  0  0  0
  -21.9300   -4.0440   23.7170 C   0  0  0  0  0  3  0  0  0  0  0  0
  -22.0510   -4.8320   22.5580 C   0  0  0  0  0  0  0  0  0  0  0  0
  -22.4660   -4.2640   21.4000 F   0  0  0  0  0  0  0  0  0  0  0  0
  -21.3600   -3.8610   26.0290 F   0  0  0  0  0  0  0  0  0  0  0  0
  -22.8570  -13.5640   21.2230 C   0  0  0  0  0  0  0  0  0  0  0  0
  -22.1860  -12.8490   22.1190 N   0  0  0  0  0  0  0  0  0  0  0  0
  -22.3870  -14.6000   20.7550 O   0  0  0  0  0  0  0  0  0  0  0  0
  -22.5810  -12.0150   22.5260 H   0  0  0  0  0  0  0  0  0  0  0  0
  -21.2610  -13.1420   22.3990 H   0  0  0  0  0  0  0  0  0  0  0  0
  -25.3900  -15.2630   20.2700 N   0  0  0  0  0  0  0  0  0  0  0  0
  -24.6020  -15.8800   20.4380 H   0  0  0  0  0  0  0  0  0  0  0  0
  -26.1840  -15.7340   19.8590 H   0  0  0  0  0  0  0  0  0  0  0  0
  1  4  1  0
  2  1  2  0
  2  6  1  0
  3  5  1  0
  4 49  1  0
  4  3  2  0
  5  7  1  0
  6  8  1  0
  6  5  2  0
  9 20  2  0
 10  8  1  0
 10 15  1  0
 11 19  1  0
 11 21  1  0
 12 18  1  0
 12 14  1  0
 13 19  1  0
 14 15  2  0
 14 13  1  0
 16 10  2  0
 17 16  1  0
 17 12  2  0
 18 11  1  0
 19  9  1  0
 21 23  2  0
 22 21  1  0
 24 22  1  0
 25 34  2  0
 25 30  1  0
 26 22  1  0
 26 30  1  0
 27 26  1  0
 28 29  1  0
 28 27  1  0
 29 25  1  0
 30 31  2  0
 31 32  1  0
 33 32  2  0
 34 33  1  0
 35  9  1  0
 35 36  1  0
 35 45  1  0
 36 39  1  0
 37 41  1  0
 37 36  1  0
 38 37  2  0
 41 40  1  0
 43 41  1  0
 43 44  1  0
 43 42  1  0
 45 48  1  1
 45 46  1  0
 47 45  1  0
 50 60  1  0
 50 49  2  0
 51 60  1  0
 52 57  1  0
 53 54  1  0
 53 52  1  0
 55 54  1  0
 55 64  1  0
 55 56  1  0
 57 51  1  0
 57 56  1  0
 58 51  2  0
 60 59  1  0
 61 62  2  0
 62 81  1  0
 63 62  1  0
 63 66  1  0
 64 65  1  0
 64 61  1  0
 65 63  2  0
 66 67  1  0
 67 68  2  0
 69 72  1  0
 69 68  1  0
 70 69  2  0
 71 70  1  0
 71 66  2  0
 72 73  1  0
 73 74  1  0
 74 75  2  0
 76 75  1  0
 76 80  1  0
 77 76  2  0
 78 73  2  0
 78 77  1  0
 79 78  1  0
 81 82  1  0
 82 85  1  0
 82 84  1  0
 83 81  2  0
 86 61  1  0
 86 87  1  0
 88 86  1  0
M  ISO  4   6 101   8 101  51 100  60 100
M  END
>  <TORSDO>  (6) 
F 18

>  <SCORE>  (6) 
-15.201

>  <name>  (6) 
5

>  <ligand_id>  (6) 
5

>  <original_smiles>  (6) 
[H]c1c([H])c([H])c2c(c1[H])C([H])([H])C([H])([H])C([H])([H])C2([H])N([H])C(=O)C1([H])N(C(=O)C([H])(N([H])C(=O)C([H])(N([H])C([H])([H])[H])C([H])([H])[H])C(C([H])([H])[H])(C([H])([H])[H])C([H])([H])[H])C([H])([H])c2c([H])c(Oc3c([H])c([H])c(C([H])([H])C([H])([H])N(C(=O)N4C([H])([H])C([H])([H])C([H])([H])C([H])(n5nc(-c6c([H])c([H])c(Oc7c([H])c([H])c(F)c([H])c7F)c([H])c6[H])c(C(=O)N([H])[H])c5N([H])[H])C4([H])[H])C([H])([H])[H])c([H])c3C([H])([H])[H])c([H])c([H])c2C1([H])[H]

>  <smiles>  (6) 
[H]c1c([H])c([H])c2c(c1[H])C([H])([H])C([H])([H])C([H])([H])C2([H])N([H])C(=O)C1([H])N(C(=O)C([H])(N([H])C(=O)C([H])(N([H])C([H])([H])[H])C([H])([H])[H])C(C([H])([H])[H])(C([H])([H])[H])C([H])([H])[H])C([H])([H])c2c([H])c(Oc3c([H])c([H])c(C([H])([H])C([H])([H])N(C(=O)N4C([H])([H])C([H])([H])C([H])([H])C([H])(n5nc(-c6c([H])c([H])c(Oc7c([H])c([H])c(F)c([H])c7F)c([H])c6[H])c(C(=O)N([H])[H])c5N([H])[H])C4([H])[H])C([H])([H])[H])c([H])c3C([H])([H])[H])c([H])c([H])c2C1([H])[H]

$$$$
6:0:0
     RDKit          3D

 90 96  0  0  1  0  0  0  0  0999 V2000
  -28.5470  -20.8550   19.1640 C   0  0  0  0  0  3  0  0  0  0  0  0
  -29.2810  -22.5470   21.0510 C   0  0  0  0  0  3  0  0  0  0  0  0
  -28.2340  -22.4080   19.1830 C   0  0  0  0  0  0  0  0  0  0  0  0
  -29.3000  -19.8540   20.0530 C   0  0  0  0  0  3  0  0  0  0  0  0
  -28.5170  -23.5420   20.1750 C   0  0  0  0  0  0  0  0  0  0  0  0
  -29.6030  -21.0010   21.0240 C   0  0  0  0  0  0  0  0  0  0  0  0
  -29.1070  -17.6520   21.6390 C   0  0  0  0  0  1  0  0  0  0  0  0
  -28.0740  -17.5550   19.3700 C   0  0  0  0  0  1  0  0  0  0  0  0
  -29.3780  -17.8470   20.1340 C   0  0  0  0  0  2  0  0  0  0  0  0
  -30.3140  -16.0890   19.7940 C   0  0  0  0  0  2  0  0  0  0  0  0
  -30.5190  -13.4760   18.8940 C   0  0  0  0  0  2  0  0  0  0  0  0
  -29.5550  -12.9580   17.7710 C   0  0  0  0  0  2  0  0  0  0  0  0
  -28.2050  -12.4960   18.3380 C   0  0  0  0  0  2  0  0  0  0  0  0
  -27.7400  -13.4630   19.4420 C   0  0  0  0  0  3  0  0  0  0  0  0
  -28.8450  -13.8540   20.4560 C   0  0  0  0  0  2  0  0  0  0  0  0
  -29.9060  -14.6340   19.7390 N   0  0  0  0  0  0  0  0  0  0  0  0
  -31.5250  -16.0230   19.4740 O   0  0  0  0  0  1  0  0  0  0  0  0
  -25.4800  -13.9160   20.4910 C   0  0  0  0  0  0  0  0  0  0  0  0
  -24.4640  -13.1110   20.9150 C   0  0  0  0  0  0  0  0  0  0  0  0
  -24.9240  -11.7680   20.7470 C   0  0  0  0  0  0  0  0  0  0  0  0
  -26.4900  -13.0690   20.0790 N   0  0  0  0  0  0  0  0  0  0  0  0
  -26.1780  -11.7630   20.2960 N   0  0  0  0  0  0  0  0  0  0  0  0
  -24.2120  -10.4950   20.9290 C   0  0  0  0  0  0  0  0  0  0  0  0
  -24.6680   -9.5140   21.8370 C   0  0  0  0  0  3  0  0  0  0  0  0
  -23.9500   -8.3120   22.0130 C   0  0  0  0  0  3  0  0  0  0  0  0
  -22.7590   -8.0810   21.2830 C   0  0  0  0  0  0  0  0  0  0  0  0
  -22.3210   -9.0510   20.3640 C   0  0  0  0  0  3  0  0  0  0  0  0
  -23.0400  -10.2450   20.1870 C   0  0  0  0  0  3  0  0  0  0  0  0
  -22.0110   -6.9330   21.3700 O   0  0  0  0  0  0  0  0  0  0  0  0
  -21.8990   -6.2320   22.5450 C   0  0  0  0  0  0  0  0  0  0  0  0
  -21.3740   -6.8210   23.7160 C   0  0  0  0  0  3  0  0  0  0  0  0
  -21.2110   -6.0460   24.8820 C   0  0  0  0  0  3  0  0  0  0  0  0
  -21.5650   -4.6830   24.8770 C   0  0  0  0  0  0  0  0  0  0  0  0
  -22.0820   -4.0940   23.7100 C   0  0  0  0  0  3  0  0  0  0  0  0
  -22.2470   -4.8660   22.5470 C   0  0  0  0  0  0  0  0  0  0  0  0
  -22.7250   -4.2880   21.4190 F   0  0  0  0  0  0  0  0  0  0  0  0
  -21.4020   -3.9370   25.9940 F   0  0  0  0  0  0  0  0  0  0  0  0
  -23.1030  -13.5680   21.3510 C   0  0  0  0  0  0  0  0  0  0  0  0
  -22.4650  -12.8280   22.2500 N   0  0  0  0  0  0  0  0  0  0  0  0
  -22.6190  -14.6180   20.9310 O   0  0  0  0  0  0  0  0  0  0  0  0
  -22.8720  -11.9790   22.6120 H   0  0  0  0  0  0  0  0  0  0  0  0
  -21.5570  -13.1160   22.5840 H   0  0  0  0  0  0  0  0  0  0  0  0
  -25.6200  -15.2970   20.3880 N   0  0  0  0  0  0  0  0  0  0  0  0
  -24.8630  -15.9320   20.6190 H   0  0  0  0  0  0  0  0  0  0  0  0
  -26.4290  -15.7660   20.0070 H   0  0  0  0  0  0  0  0  0  0  0  0
  -25.9860  -22.7440   18.0510 C   0  0  0  0  0  1  0  0  0  0  0  0
  -27.5070  -22.8980   17.9410 C   0  0  0  0  0  2  0  0  0  0  0  0
  -30.2980  -20.6020   22.1270 O   0  0  0  0  0  0  0  0  0  0  0  0
  -30.4850  -19.6710   22.1200 H   0  0  0  0  0  0  0  0  0  0  0  0
  -28.3890  -25.2490   20.1880 O   0  0  0  0  0  0  0  0  0  0  0  0
  -24.8200  -31.7650   23.1710 C   0  0  0  0  0  0  0  0  0  0  0  0
  -27.3960  -26.5320   20.1810 C   0  0  0  0  0  0  0  0  0  0  0  0
  -23.6660  -30.3760   21.5060 C   0  0  0  0  0  3  0  0  0  0  0  0
  -25.1400  -28.7020   20.1070 C   0  0  0  0  0  0  0  0  0  0  0  0
  -26.2540  -30.4620   21.4460 C   0  0  0  0  0  2  0  0  0  0  0  0
  -26.3260  -29.0100   20.7810 C   0  0  0  0  0  0  0  0  0  0  0  0
  -27.4240  -27.9610   20.7810 C   0  0  0  0  0  3  0  0  0  0  0  0
  -26.1760  -26.5010   19.4380 C   0  0  0  0  0  3  0  0  0  0  0  0
  -25.1170  -27.4780   19.4110 C   0  0  0  0  0  3  0  0  0  0  0  0
  -23.9380  -29.6760   20.1380 C   0  0  0  0  0  2  0  0  0  0  0  0
  -24.9400  -30.9060   22.0940 N   0  0  0  0  0  0  0  0  0  0  0  0
  -23.7150  -32.0650   23.6590 O   0  0  0  0  0  0  0  0  0  0  0  0
  -22.9210  -29.4050   22.4640 C   0  0  0  0  0  0  0  0  0  0  0  0
  -21.5890  -29.2490   22.3120 N   0  0  0  0  0  0  0  0  0  0  0  0
  -23.5560  -28.7880   23.3210 O   0  0  0  0  0  0  0  0  0  0  0  0
  -21.1230  -29.7990   21.6050 H   0  0  0  0  0  0  0  0  0  0  0  0
  -18.2050  -27.9840   22.7440 C   0  0  0  0  0  0  0  0  0  0  0  0
  -20.7540  -28.3020   23.0640 C   0  0  0  0  0  3  0  0  0  0  0  0
  -20.8920  -26.8700   22.4970 C   0  0  0  0  0  2  0  0  0  0  0  0
  -19.8220  -26.5270   21.4550 C   0  0  0  0  0  2  0  0  0  0  0  0
  -18.4240  -26.6420   22.0660 C   0  0  0  0  0  2  0  0  0  0  0  0
  -19.2980  -28.7700   23.1990 C   0  0  0  0  0  0  0  0  0  0  0  0
  -19.0360  -30.0200   23.8010 C   0  0  0  0  0  3  0  0  0  0  0  0
  -17.7150  -30.4870   23.9480 C   0  0  0  0  0  3  0  0  0  0  0  0
  -16.6370  -29.7000   23.5050 C   0  0  0  0  0  3  0  0  0  0  0  0
  -16.8830  -28.4500   22.9110 C   0  0  0  0  0  3  0  0  0  0  0  0
  -26.0620  -32.4250   23.8450 C   0  0  0  0  0  3  0  0  0  0  0  0
  -26.5340  -31.6620   25.1460 C   0  0  1  0  0  0  0  0  0  0  0  0
  -25.4070  -31.4300   26.1820 C   0  0  0  0  0  1  0  0  0  0  0  0
  -27.1300  -30.2800   24.7980 C   0  0  0  0  0  1  0  0  0  0  0  0
  -27.6640  -32.4590   25.8390 C   0  0  0  0  0  1  0  0  0  0  0  0
  -25.7220  -33.8230   24.1910 N   0  0  0  0  0  0  0  0  0  0  0  0
  -26.0280  -34.9010   23.4570 C   0  0  0  0  0  0  0  0  0  0  0  0
  -26.6770  -34.8250   22.4110 O   0  0  0  0  0  0  0  0  0  0  0  0
  -25.1380  -33.9510   25.0040 H   0  0  0  0  0  0  0  0  0  0  0  0
  -24.2530  -36.6780   23.2210 C   0  0  0  0  0  1  0  0  0  0  0  0
  -25.5440  -36.2820   23.9560 C   0  0  0  0  0  3  0  0  0  0  0  0
  -27.6990  -37.2130   24.6820 C   0  0  0  0  0  1  0  0  0  0  0  0
  -26.5480  -37.3570   23.7950 N   0  0  0  0  0  0  0  0  0  0  0  0
  -26.1310  -38.2680   23.9610 H   0  0  0  0  0  0  0  0  0  0  0  0
  1  3  2  0
  1  4  1  0
  3  5  1  0
  4  6  2  0
  5 50  1  0
  5  2  2  0
  6  2  1  0
  6 48  1  0
  8  9  1  0
  9  7  1  0
 11 16  1  0
 12 13  1  0
 12 11  1  0
 14 13  1  0
 14 21  1  0
 14 15  1  0
 16 10  1  0
 16 15  1  0
 17 10  1  0
 18 19  2  0
 19 38  1  0
 20 19  1  0
 20 23  1  0
 21 22  1  0
 21 18  1  0
 22 20  2  0
 23 24  1  0
 24 25  2  0
 26 29  1  0
 26 25  1  0
 27 26  2  0
 28 27  1  0
 28 23  2  0
 29 30  1  0
 30 35  2  0
 30 31  1  0
 31 32  2  0
 33 32  1  0
 33 37  1  0
 34 33  2  0
 35 34  1  0
 36 35  1  0
 38 39  1  0
 39 42  1  0
 39 41  1  0
 40 38  2  0
 43 18  1  0
 43 44  1  0
 45 43  1  0
 47 46  1  0
 47  3  1  0
 49 48  1  0
 51 62  2  0
 52 50  1  0
 52 57  1  0
 53 61  1  0
 53 63  1  0
 54 60  1  0
 54 56  1  0
 55 61  1  0
 56 57  2  0
 56 55  1  0
 58 52  2  0
 59 58  1  0
 59 54  2  0
 60 53  1  0
 61 51  1  0
 63 65  2  0
 64 63  1  0
 66 64  1  0
 67 76  2  0
 67 72  1  0
 68 64  1  0
 68 72  1  0
 69 68  1  0
 70 71  1  0
 70 69  1  0
 71 67  1  0
 72 73  2  0
 73 74  1  0
 75 74  2  0
 76 75  1  0
 77 51  1  0
 77 82  1  0
 77 78  1  0
 78 81  1  1
 78 79  1  0
 80 78  1  0
 82 85  1  0
 83 87  1  0
 83 82  1  0
 84 83  2  0
 87 86  1  0
 89 87  1  0
 89 90  1  0
 89 88  1  0
M  ISO  4   5 101   9 100  10 100  50 101
M  END
>  <TORSDO>  (7) 
F 19

>  <SCORE>  (7) 
-14.842

>  <name>  (7) 
6

>  <ligand_id>  (7) 
6

>  <original_smiles>  (7) 
[H]Oc1c([H])c(Oc2c([H])c([H])c3c(c2[H])C([H])([H])N(C(=O)C([H])(N([H])C(=O)C([H])(N([H])C([H])([H])[H])C([H])([H])[H])C(C([H])([H])[H])(C([H])([H])[H])C([H])([H])[H])C([H])(C(=O)N([H])C2([H])c4c([H])c([H])c([H])c([H])c4C([H])([H])C([H])([H])C2([H])[H])C3([H])[H])c(C([H])([H])C([H])([H])[H])c([H])c1C(C(=O)N1C([H])([H])C([H])([H])C([H])([H])C([H])(n2nc(-c3c([H])c([H])c(Oc4c([H])c([H])c(F)c([H])c4F)c([H])c3[H])c(C(=O)N([H])[H])c2N([H])[H])C1([H])[H])(C([H])([H])[H])C([H])([H])[H]

>  <smiles>  (7) 
[H]Oc1c([H])c(Oc2c([H])c([H])c3c(c2[H])C([H])([H])N(C(=O)C([H])(N([H])C(=O)C([H])(N([H])C([H])([H])[H])C([H])([H])[H])C(C([H])([H])[H])(C([H])([H])[H])C([H])([H])[H])C([H])(C(=O)N([H])C2([H])c4c([H])c([H])c([H])c([H])c4C([H])([H])C([H])([H])C2([H])[H])C3([H])[H])c(C([H])([H])C([H])([H])[H])c([H])c1C(C(=O)N1C([H])([H])C([H])([H])C([H])([H])C([H])(n2nc(-c3c([H])c([H])c(Oc4c([H])c([H])c(F)c([H])c4F)c([H])c3[H])c(C(=O)N([H])[H])c2N([H])[H])C1([H])[H])(C([H])([H])[H])C([H])([H])[H]

$$$$
7:0:0
     RDKit          3D

 94 98  0  0  1  0  0  0  0  0999 V2000
  -29.5140  -24.7610   20.1810 C   0  0  0  0  0  2  0  0  0  0  0  0
  -26.7880  -24.4620   20.8020 C   0  0  0  0  0  2  0  0  0  0  0  0
  -28.2830  -23.6050   20.6460 C   0  0  0  0  0  2  0  0  0  0  0  0
  -29.6370  -26.3620   19.3860 C   0  0  0  0  0  0  0  0  0  0  0  0
  -26.1210  -25.8540   19.8530 C   0  0  0  0  0  3  0  0  0  0  0  0
  -28.2210  -27.3520   18.8790 C   0  0  0  0  0  3  0  0  0  0  0  0
  -28.4310  -28.6920   18.1040 C   0  0  0  0  0  1  0  0  0  0  0  0
  -28.4470  -21.4840   20.9880 C   0  0  0  0  0 15  0  0  0  0  0  0
  -28.9600  -19.3290   20.4410 C   0  0  0  0  0 15  0  0  0  0  0  0
  -29.8860  -15.7310   20.7540 C   0  0  0  0  0  0  0  0  0  0  0  0
  -30.2740  -12.9460   20.1700 C   0  0  0  0  0  2  0  0  0  0  0  0
  -29.5850  -12.1310   19.0000 C   0  0  0  0  0  2  0  0  0  0  0  0
  -28.2090  -11.6060   19.4110 C   0  0  0  0  0  2  0  0  0  0  0  0
  -27.5060  -12.6850   20.2490 C   0  0  0  0  0  3  0  0  0  0  0  0
  -28.3790  -13.3670   21.3630 C   0  0  0  0  0  2  0  0  0  0  0  0
  -29.4680  -14.2130   20.7210 N   0  0  0  0  0  0  0  0  0  0  0  0
  -31.1290  -15.5460   20.6220 O   0  0  0  0  0  0  0  0  0  0  0  0
  -29.1400  -17.3060   20.7780 N   0  0  0  0  0  2  0  0  0  0  0  0
  -28.1670  -17.0340   20.8560 H   0  0  0  0  0  0  0  0  0  0  0  0
  -25.1240  -13.1570   20.9160 C   0  0  0  0  0  0  0  0  0  0  0  0
  -24.0500  -12.3770   21.2260 C   0  0  0  0  0  0  0  0  0  0  0  0
  -24.5160  -11.0250   21.1940 C   0  0  0  0  0  0  0  0  0  0  0  0
  -26.1780  -12.2950   20.7060 N   0  0  0  0  0  0  0  0  0  0  0  0
  -25.8240  -10.9960   20.9270 N   0  0  0  0  0  0  0  0  0  0  0  0
  -23.7650   -9.7660   21.3460 C   0  0  0  0  0  0  0  0  0  0  0  0
  -24.2090   -8.7320   22.2000 C   0  0  0  0  0  3  0  0  0  0  0  0
  -23.4490   -7.5500   22.3480 C   0  0  0  0  0  3  0  0  0  0  0  0
  -22.2300   -7.3920   21.6450 C   0  0  0  0  0  0  0  0  0  0  0  0
  -21.8040   -8.4150   20.7820 C   0  0  0  0  0  3  0  0  0  0  0  0
  -22.5630   -9.5870   20.6280 C   0  0  0  0  0  3  0  0  0  0  0  0
  -21.4430   -6.2680   21.7080 O   0  0  0  0  0  0  0  0  0  0  0  0
  -21.5210   -5.3900   22.7600 C   0  0  0  0  0  0  0  0  0  0  0  0
  -21.1640   -5.7660   24.0730 C   0  0  0  0  0  3  0  0  0  0  0  0
  -21.1930   -4.8140   25.1120 C   0  0  0  0  0  3  0  0  0  0  0  0
  -21.5700   -3.4860   24.8400 C   0  0  0  0  0  0  0  0  0  0  0  0
  -21.9210   -3.1070   23.5320 C   0  0  0  0  0  3  0  0  0  0  0  0
  -21.8940   -4.0560   22.4960 C   0  0  0  0  0  0  0  0  0  0  0  0
  -22.2130   -3.6790   21.2340 F   0  0  0  0  0  0  0  0  0  0  0  0
  -21.5910   -2.5700   25.8360 F   0  0  0  0  0  0  0  0  0  0  0  0
  -22.6490  -12.8650   21.4450 C   0  0  0  0  0  0  0  0  0  0  0  0
  -21.9010  -12.2090   22.3240 N   0  0  0  0  0  0  0  0  0  0  0  0
  -22.2300  -13.8720   20.8750 O   0  0  0  0  0  0  0  0  0  0  0  0
  -22.2560  -11.3960   22.8060 H   0  0  0  0  0  0  0  0  0  0  0  0
  -20.9610  -12.5220   22.5180 H   0  0  0  0  0  0  0  0  0  0  0  0
  -25.2970  -14.5300   20.7620 N   0  0  0  0  0  0  0  0  0  0  0  0
  -24.5320  -15.1890   20.8510 H   0  0  0  0  0  0  0  0  0  0  0  0
  -26.1640  -14.9620   20.4780 H   0  0  0  0  0  0  0  0  0  0  0  0
  -30.9340  -26.8250   18.7410 C   0  0  0  0  0  2  0  0  0  0  0  0
  -31.9020  -25.6210   18.4680 C   0  0  0  0  0  3  0  0  0  0  0  0
  -32.8970  -25.7990   17.2850 C   0  0  0  0  0  3  0  0  0  0  0  0
  -33.8800  -24.1510   15.4950 C   0  0  0  0  0  1  0  0  0  0  0  0
  -33.7900  -24.5630   16.9830 C   0  0  0  0  0  2  0  0  0  0  0  0
  -25.7230  -24.5280   19.1080 C   0  0  0  0  0  2  0  0  0  0  0  0
  -25.3400  -25.1580   17.8130 O   0  0  0  0  0  0  0  0  0  0  0  0
  -24.1210  -31.6830   22.7410 C   0  0  0  0  0  0  0  0  0  0  0  0
  -25.8480  -26.3030   17.8930 C   0  0  0  0  0  2  0  0  0  0  0  0
  -22.7120  -30.3550   21.2710 C   0  0  0  0  0  3  0  0  0  0  0  0
  -23.9640  -28.8240   19.4720 C   0  0  0  0  0  0  0  0  0  0  0  0
  -25.2960  -30.2620   20.9480 C   0  0  0  0  0  2  0  0  0  0  0  0
  -25.3110  -28.7460   20.3630 C   0  0  0  0  0  3  0  0  0  0  0  0
  -26.6130  -27.4750   20.0750 C   0  0  0  0  0  2  0  0  0  0  0  0
  -24.4840  -27.0320   17.2820 C   0  0  0  0  0  2  0  0  0  0  0  0
  -23.6510  -28.0950   18.1210 C   0  0  0  0  0  3  0  0  0  0  0  0
  -22.7870  -29.7830   19.8370 C   0  0  0  0  0  2  0  0  0  0  0  0
  -24.0680  -30.8130   21.6810 N   0  0  0  0  0  0  0  0  0  0  0  0
  -23.1170  -31.9690   23.4180 O   0  0  0  0  0  0  0  0  0  0  0  0
  -22.1440  -29.3040   22.2560 C   0  0  0  0  0  0  0  0  0  0  0  0
  -20.8350  -28.9710   22.2000 N   0  0  0  0  0  0  0  0  0  0  0  0
  -22.9110  -28.7820   23.0670 O   0  0  0  0  0  0  0  0  0  0  0  0
  -20.2400  -29.4520   21.5360 H   0  0  0  0  0  0  0  0  0  0  0  0
  -17.8120  -26.9900   22.7270 C   0  0  0  0  0  0  0  0  0  0  0  0
  -20.2050  -27.9320   23.0300 C   0  0  0  0  0  3  0  0  0  0  0  0
  -20.6940  -26.5230   22.6200 C   0  0  0  0  0  2  0  0  0  0  0  0
  -19.7680  -25.8350   21.6120 C   0  0  0  0  0  2  0  0  0  0  0  0
  -18.3630  -25.6750   22.1990 C   0  0  0  0  0  2  0  0  0  0  0  0
  -18.6760  -28.0560   23.1010 C   0  0  0  0  0  0  0  0  0  0  0  0
  -18.1110  -29.2620   23.5640 C   0  0  0  0  0  3  0  0  0  0  0  0
  -16.7140  -29.4180   23.6490 C   0  0  0  0  0  3  0  0  0  0  0  0
  -15.8650  -28.3560   23.2880 C   0  0  0  0  0  3  0  0  0  0  0  0
  -16.4150  -27.1440   22.8330 C   0  0  0  0  0  3  0  0  0  0  0  0
  -25.4630  -32.3500   23.1440 C   0  0  0  0  0  3  0  0  0  0  0  0
  -25.1680  -33.6950   23.6890 N   0  0  0  0  0  0  0  0  0  0  0  0
  -25.7380  -34.8470   23.3050 C   0  0  0  0  0  0  0  0  0  0  0  0
  -26.6260  -34.8940   22.4520 O   0  0  0  0  0  0  0  0  0  0  0  0
  -24.4090  -33.7470   24.3530 H   0  0  0  0  0  0  0  0  0  0  0  0
  -24.4510  -36.9940   22.9720 C   0  0  0  0  0  1  0  0  0  0  0  0
  -25.2530  -36.1510   23.9760 C   0  0  0  0  0  3  0  0  0  0  0  0
  -27.0160  -36.3540   25.6790 C   0  0  0  0  0  1  0  0  0  0  0  0
  -26.3480  -36.9760   24.5380 N   0  0  0  0  0  0  0  0  0  0  0  0
  -25.9990  -37.8830   24.8330 H   0  0  0  0  0  0  0  0  0  0  0  0
  -26.2640  -31.5050   24.2140 C   0  0  1  0  0  0  0  0  0  0  0  0
  -25.4010  -31.0780   25.4220 C   0  0  0  0  0  1  0  0  0  0  0  0
  -26.8880  -30.2000   23.6680 C   0  0  0  0  0  1  0  0  0  0  0  0
  -27.4600  -32.3370   24.7220 C   0  0  0  0  0  1  0  0  0  0  0  0
  1  3  1  0
  3  2  1  0
  4  1  1  0
  5 61  1  0
  5  2  1  0
  6  4  2  0
  7  6  1  0
 10 18  1  0
 11 16  1  0
 12 13  1  0
 12 11  1  0
 14 13  1  0
 14 23  1  0
 14 15  1  0
 16 10  1  0
 16 15  1  0
 17 10  2  0
 18 19  1  0
 20 21  2  0
 21 40  1  0
 22 21  1  0
 22 25  1  0
 23 20  1  0
 23 24  1  0
 24 22  2  0
 25 26  1  0
 26 27  2  0
 28 31  1  0
 28 27  1  0
 29 28  2  0
 30 29  1  0
 30 25  2  0
 31 32  1  0
 32 33  1  0
 33 34  2  0
 35 34  1  0
 35 39  1  0
 36 35  2  0
 37 32  2  0
 37 36  1  0
 38 37  1  0
 40 41  1  0
 41 44  1  0
 41 43  1  0
 42 40  2  0
 45 46  1  0
 45 20  1  0
 47 45  1  0
 48  4  1  0
 49 48  1  0
 50 49  2  0
 51 52  1  0
 52 50  1  0
 53  5  1  0
 54 56  1  0
 54 53  1  0
 55 66  2  0
 57 65  1  0
 57 67  1  0
 58 64  1  0
 58 60  1  0
 59 65  1  0
 60 61  1  0
 60 59  1  0
 62 56  1  0
 62 63  1  0
 63 58  2  0
 64 57  1  0
 65 55  1  0
 67 69  2  0
 68 67  1  0
 70 68  1  0
 71 80  2  0
 71 76  1  0
 72 68  1  0
 72 76  1  0
 73 72  1  0
 74 75  1  0
 74 73  1  0
 75 71  1  0
 76 77  2  0
 77 78  1  0
 79 78  2  0
 80 79  1  0
 81 55  1  0
 81 82  1  0
 81 91  1  0
 82 85  1  0
 83 82  1  0
 83 87  1  0
 84 83  2  0
 87 86  1  0
 87 89  1  0
 89 90  1  0
 89 88  1  0
 91 94  1  1
 91 92  1  0
 93 91  1  0
M  ISO  4  10 100  18 100  53 101  54 101
M  END
>  <TORSDO>  (8) 
F 23

>  <SCORE>  (8) 
-9.356

>  <name>  (8) 
7

>  <ligand_id>  (8) 
7

>  <original_smiles>  (8) 
[H]c1c([H])c([H])c2c(c1[H])C([H])([H])C([H])([H])C([H])([H])C2([H])N([H])C(=O)C1([H])N(C(=O)C([H])(N([H])C(=O)C([H])(N([H])C([H])([H])[H])C([H])([H])[H])C(C([H])([H])[H])(C([H])([H])[H])C([H])([H])[H])C([H])([H])c2c([H])c(OC([H])([H])c3c([H])c(C([H])([H])C([H])([H])N([H])C(=O)N4C([H])([H])C([H])([H])C([H])([H])C([H])(n5nc(-c6c([H])c([H])c(Oc7c([H])c([H])c(F)c([H])c7F)c([H])c6[H])c(C(=O)N([H])[H])c5N([H])[H])C4([H])[H])c([H])c(C([H])([H])C([H])([H])C([H])([H])C([H])([H])C([H])([H])[H])c3C([H])([H])[H])c([H])c([H])c2C1([H])[H]

>  <smiles>  (8) 
[H]c1c([H])c([H])c2c(c1[H])C([H])([H])C([H])([H])C([H])([H])C2([H])N([H])C(=O)C1([H])N(C(=O)C([H])(N([H])C(=O)C([H])(N([H])C([H])([H])[H])C([H])([H])[H])C(C([H])([H])[H])(C([H])([H])[H])C([H])([H])[H])C([H])([H])c2c([H])c(OC([H])([H])c3c([H])c(C([H])([H])C([H])([H])N([H])C(=O)N4C([H])([H])C([H])([H])C([H])([H])C([H])(n5nc(-c6c([H])c([H])c(Oc7c([H])c([H])c(F)c([H])c7F)c([H])c6[H])c(C(=O)N([H])[H])c5N([H])[H])C4([H])[H])c([H])c(C([H])([H])C([H])([H])C([H])([H])C([H])([H])C([H])([H])[H])c3C([H])([H])[H])c([H])c([H])c2C1([H])[H]

$$$$
8:0:0
     RDKit          3D

 97105  0  0  1  0  0  0  0  0999 V2000
  -30.9190  -20.1230   21.1620 C   0  0  0  0  0  2  0  0  0  0  0  0
  -29.4690  -18.3340   20.2230 C   0  0  0  0  0  3  0  0  0  0  0  0
  -30.0970  -15.9600   20.1510 C   0  0  0  0  0  0  0  0  0  0  0  0
  -29.3110  -17.0470   19.6770 C   0  0  0  0  0  0  0  0  0  0  0  0
  -30.5500  -18.6330   21.0620 C   0  0  0  0  0  0  0  0  0  0  0  0
  -31.0690  -16.2130   21.1720 C   0  0  0  0  0  0  0  0  0  0  0  0
  -31.3410  -17.5650   21.5720 C   0  0  0  0  0  0  0  0  0  0  0  0
  -30.2960  -14.7690   19.2470 C   0  0  0  0  0  0  0  0  0  0  0  0
  -29.5270  -12.8270   17.9710 C   0  0  0  0  0  2  0  0  0  0  0  0
  -28.3880  -13.2370   17.0250 C   0  0  0  0  0  2  0  0  0  0  0  0
  -27.0450  -13.0340   17.7450 C   0  0  0  0  0  2  0  0  0  0  0  0
  -27.0130  -13.6720   19.1620 C   0  0  0  0  0  3  0  0  0  0  0  0
  -28.2910  -13.3940   19.9900 C   0  0  0  0  0  2  0  0  0  0  0  0
  -29.4580  -13.7000   19.1550 N   0  0  0  0  0  0  0  0  0  0  0  0
  -31.2630  -14.8980   18.4980 O   0  0  0  0  0  0  0  0  0  0  0  0
  -24.7970  -14.1170   20.3750 C   0  0  0  0  0  0  0  0  0  0  0  0
  -23.8450  -13.2770   20.8830 C   0  0  0  0  0  0  0  0  0  0  0  0
  -24.3260  -11.9530   20.6590 C   0  0  0  0  0  0  0  0  0  0  0  0
  -25.8000  -13.2990   19.8820 N   0  0  0  0  0  0  0  0  0  0  0  0
  -25.5280  -11.9870   20.1000 N   0  0  0  0  0  0  0  0  0  0  0  0
  -23.6810  -10.6550   20.8930 C   0  0  0  0  0  0  0  0  0  0  0  0
  -24.2280   -9.7110   21.7900 C   0  0  0  0  0  3  0  0  0  0  0  0
  -23.5840   -8.4750   22.0120 C   0  0  0  0  0  3  0  0  0  0  0  0
  -22.3790   -8.1760   21.3350 C   0  0  0  0  0  0  0  0  0  0  0  0
  -21.8530   -9.1070   20.4230 C   0  0  0  0  0  3  0  0  0  0  0  0
  -22.4970  -10.3340   20.2010 C   0  0  0  0  0  3  0  0  0  0  0  0
  -21.6980   -6.9880   21.4670 O   0  0  0  0  0  0  0  0  0  0  0  0
  -21.6570   -6.3120   22.6600 C   0  0  0  0  0  0  0  0  0  0  0  0
  -21.1890   -6.9180   23.8460 C   0  0  0  0  0  3  0  0  0  0  0  0
  -21.1030   -6.1670   25.0350 C   0  0  0  0  0  3  0  0  0  0  0  0
  -21.4670   -4.8070   25.0370 C   0  0  0  0  0  0  0  0  0  0  0  0
  -21.9290   -4.2010   23.8560 C   0  0  0  0  0  3  0  0  0  0  0  0
  -22.0230   -4.9520   22.6710 C   0  0  0  0  0  0  0  0  0  0  0  0
  -22.4500   -4.3550   21.5320 F   0  0  0  0  0  0  0  0  0  0  0  0
  -21.3740   -4.0840   26.1770 F   0  0  0  0  0  0  0  0  0  0  0  0
  -22.5230  -13.6820   21.4700 C   0  0  0  0  0  0  0  0  0  0  0  0
  -22.0440  -12.9290   22.4560 N   0  0  0  0  0  0  0  0  0  0  0  0
  -21.9330  -14.6930   21.0900 O   0  0  0  0  0  0  0  0  0  0  0  0
  -22.5510  -12.1180   22.7730 H   0  0  0  0  0  0  0  0  0  0  0  0
  -21.1680  -13.1690   22.8970 H   0  0  0  0  0  0  0  0  0  0  0  0
  -24.8890  -15.4990   20.2740 N   0  0  0  0  0  0  0  0  0  0  0  0
  -24.1350  -16.1090   20.5660 H   0  0  0  0  0  0  0  0  0  0  0  0
  -25.6670  -15.9970   19.8580 H   0  0  0  0  0  0  0  0  0  0  0  0
  -31.4070  -14.4650   23.0200 C   0  0  0  0  0  1  0  0  0  0  0  0
  -31.9440  -15.0590   21.7160 C   0  0  0  0  0  2  0  0  0  0  0  0
  -33.6610  -18.5630   21.5240 C   0  0  0  0  0  1  0  0  0  0  0  0
  -32.5900  -17.8850   22.3980 C   0  0  0  0  0  2  0  0  0  0  0  0
  -29.2800  -17.5710   17.2070 C   0  0  0  0  0  1  0  0  0  0  0  0
  -28.4830  -16.9980   18.3920 C   0  0  0  0  0  2  0  0  0  0  0  0
  -29.7600  -21.0830   21.5160 C   0  0  0  0  0  2  0  0  0  0  0  0
  -30.0890  -22.5600   21.1970 C   0  0  0  0  0  0  0  0  0  0  0  0
  -29.1260  -23.3300   20.6500 N   0  0  0  0  0  0  0  0  0  0  0  0
  -31.2180  -22.9990   21.4270 O   0  0  0  0  0  0  0  0  0  0  0  0
  -28.2150  -22.9110   20.5240 H   0  0  0  0  0  0  0  0  0  0  0  0
  -29.2980  -24.7330   20.2230 C   0  0  0  0  0  2  0  0  0  0  0  0
  -28.0180  -25.3560   19.6040 C   0  0  0  0  0  2  0  0  0  0  0  0
  -28.1460  -26.7830   19.4240 O   0  0  0  0  0  0  0  0  0  0  0  0
  -24.8150  -31.8180   23.1880 C   0  0  0  0  0  0  0  0  0  0  0  0
  -26.9980  -27.5460   19.5540 C   0  0  0  0  0  0  0  0  0  0  0  0
  -23.4120  -30.5920   21.5630 C   0  0  0  0  0  3  0  0  0  0  0  0
  -24.6690  -29.1230   19.8970 C   0  0  0  0  0  0  0  0  0  0  0  0
  -25.9160  -30.8890   21.1530 C   0  0  0  0  0  2  0  0  0  0  0  0
  -25.8930  -29.5690   20.4030 C   0  0  0  0  0  0  0  0  0  0  0  0
  -27.0640  -28.7940   20.2200 C   0  0  0  0  0  3  0  0  0  0  0  0
  -25.7500  -27.1150   19.0470 C   0  0  0  0  0  3  0  0  0  0  0  0
  -24.5910  -27.8960   19.2130 C   0  0  0  0  0  3  0  0  0  0  0  0
  -23.4680  -30.0130   20.1240 C   0  0  0  0  0  2  0  0  0  0  0  0
  -24.7380  -31.1090   22.0250 N   0  0  0  0  0  0  0  0  0  0  0  0
  -23.7990  -32.0780   23.8470 O   0  0  0  0  0  0  0  0  0  0  0  0
  -22.8090  -29.5240   22.5020 C   0  0  0  0  0  0  0  0  0  0  0  0
  -21.4800  -29.3480   22.4350 N   0  0  0  0  0  0  0  0  0  0  0  0
  -23.5330  -28.8580   23.2470 O   0  0  0  0  0  0  0  0  0  0  0  0
  -20.9540  -29.9360   21.8020 H   0  0  0  0  0  0  0  0  0  0  0  0
  -18.1400  -28.0810   22.9980 C   0  0  0  0  0  0  0  0  0  0  0  0
  -20.7020  -28.3660   23.1910 C   0  0  0  0  0  3  0  0  0  0  0  0
  -20.8060  -26.9610   22.5530 C   0  0  0  0  0  2  0  0  0  0  0  0
  -19.6740  -26.6630   21.5660 C   0  0  0  0  0  2  0  0  0  0  0  0
  -18.3120  -26.7640   22.2610 C   0  0  0  0  0  2  0  0  0  0  0  0
  -19.2620  -28.8400   23.4220 C   0  0  0  0  0  0  0  0  0  0  0  0
  -19.0480  -30.0750   24.0720 C   0  0  0  0  0  3  0  0  0  0  0  0
  -17.7440  -30.5500   24.3030 C   0  0  0  0  0  3  0  0  0  0  0  0
  -16.6370  -29.7860   23.8970 C   0  0  0  0  0  3  0  0  0  0  0  0
  -16.8350  -28.5540   23.2500 C   0  0  0  0  0  3  0  0  0  0  0  0
  -26.1790  -32.3530   23.7330 C   0  0  0  0  0  3  0  0  0  0  0  0
  -26.7840  -31.4560   24.8820 C   0  0  1  0  0  0  0  0  0  0  0  0
  -25.7740  -31.1100   26.0010 C   0  0  0  0  0  1  0  0  0  0  0  0
  -27.3280  -30.1280   24.3050 C   0  0  0  0  0  1  0  0  0  0  0  0
  -27.9860  -32.1790   25.5340 C   0  0  0  0  0  1  0  0  0  0  0  0
  -25.9540  -33.7240   24.2130 N   0  0  0  0  0  0  0  0  0  0  0  0
  -26.2750  -34.8300   23.5280 C   0  0  0  0  0  0  0  0  0  0  0  0
  -26.8650  -34.7980   22.4440 O   0  0  0  0  0  0  0  0  0  0  0  0
  -25.4310  -33.8210   25.0690 H   0  0  0  0  0  0  0  0  0  0  0  0
  -24.6080  -36.7110   23.4630 C   0  0  0  0  0  1  0  0  0  0  0  0
  -25.8820  -36.1870   24.1430 C   0  0  0  0  0  3  0  0  0  0  0  0
  -28.1080  -36.9040   24.8890 C   0  0  0  0  0  1  0  0  0  0  0  0
  -26.9500  -37.2050   24.0520 N   0  0  0  0  0  0  0  0  0  0  0  0
  -26.5990  -38.1210   24.3180 H   0  0  0  0  0  0  0  0  0  0  0  0
  1 50  1  0
  2  5  1  0
  3  6  2  0
  4  3  1  0
  4  2  2  0
  5  1  1  0
  5  7  2  0
  6  7  1  0
  6 45  1  0
  7 47  1  0
  8  3  1  0
  9 14  1  0
 10 11  1  0
 10  9  1  0
 12 11  1  0
 12 19  1  0
 12 13  1  0
 14  8  1  0
 14 13  1  0
 15  8  2  0
 16 17  2  0
 17 36  1  0
 18 17  1  0
 18 21  1  0
 19 20  1  0
 19 16  1  0
 20 18  2  0
 21 22  1  0
 22 23  2  0
 24 27  1  0
 24 23  1  0
 25 24  2  0
 26 25  1  0
 26 21  2  0
 27 28  1  0
 28 33  2  0
 28 29  1  0
 29 30  2  0
 30 31  1  0
 31 35  1  0
 32 31  2  0
 33 32  1  0
 34 33  1  0
 36 37  1  0
 37 39  1  0
 37 40  1  0
 38 36  2  0
 41 16  1  0
 41 42  1  0
 43 41  1  0
 45 44  1  0
 46 47  1  0
 48 49  1  0
 49  4  1  0
 51 53  2  0
 51 50  1  0
 52 51  1  0
 54 52  1  0
 55 52  1  0
 56 55  1  0
 57 59  1  0
 57 56  1  0
 58 69  2  0
 59 64  1  0
 60 68  1  0
 60 70  1  0
 61 67  1  0
 61 63  1  0
 62 68  1  0
 63 62  1  0
 64 63  2  0
 65 66  1  0
 65 59  2  0
 66 61  2  0
 67 60  1  0
 68 58  1  0
 70 72  2  0
 71 70  1  0
 73 71  1  0
 74 83  2  0
 74 79  1  0
 75 71  1  0
 75 79  1  0
 76 75  1  0
 77 78  1  0
 77 76  1  0
 78 74  1  0
 79 80  2  0
 80 81  1  0
 82 81  2  0
 83 82  1  0
 84 58  1  0
 84 89  1  0
 84 85  1  0
 85 88  1  1
 85 86  1  0
 87 85  1  0
 89 92  1  0
 90 94  1  0
 90 89  1  0
 91 90  2  0
 94 93  1  0
 96 94  1  0
 96 97  1  0
 96 95  1  0
M  ISO  4   3 100   8 100  56 101  57 101
M  END
>  <TORSDO>  (9) 
F 24

>  <SCORE>  (9) 
-3.753

>  <name>  (9) 
8

>  <ligand_id>  (9) 
8

>  <original_smiles>  (9) 
[H]c1c([H])c([H])c2c(c1[H])C([H])([H])C([H])([H])C([H])([H])C2([H])N([H])C(=O)C1([H])N(C(=O)C([H])(N([H])C(=O)C([H])(N([H])C([H])([H])[H])C([H])([H])[H])C(C([H])([H])[H])(C([H])([H])[H])C([H])([H])[H])C([H])([H])c2c([H])c(OC([H])([H])C([H])([H])N([H])C(=O)C([H])([H])C([H])([H])c3c([H])c(C([H])([H])C([H])([H])[H])c(C(=O)N4C([H])([H])C([H])([H])C([H])([H])C([H])(n5nc(-c6c([H])c([H])c(Oc7c([H])c([H])c(F)c([H])c7F)c([H])c6[H])c(C(=O)N([H])[H])c5N([H])[H])C4([H])[H])c(C([H])([H])C([H])([H])[H])c3C([H])([H])C([H])([H])[H])c([H])c([H])c2C1([H])[H]

>  <smiles>  (9) 
[H]c1c([H])c([H])c2c(c1[H])C([H])([H])C([H])([H])C([H])([H])C2([H])N([H])C(=O)C1([H])N(C(=O)C([H])(N([H])C(=O)C([H])(N([H])C([H])([H])[H])C([H])([H])[H])C(C([H])([H])[H])(C([H])([H])[H])C([H])([H])[H])C([H])([H])c2c([H])c(OC([H])([H])C([H])([H])N([H])C(=O)C([H])([H])C([H])([H])c3c([H])c(C([H])([H])C([H])([H])[H])c(C(=O)N4C([H])([H])C([H])([H])C([H])([H])C([H])(n5nc(-c6c([H])c([H])c(Oc7c([H])c([H])c(F)c([H])c7F)c([H])c6[H])c(C(=O)N([H])[H])c5N([H])[H])C4([H])[H])c(C([H])([H])C([H])([H])[H])c3C([H])([H])C([H])([H])[H])c([H])c([H])c2C1([H])[H]

$$$$
9:0:0
     RDKit          3D

 89 97  0  0  1  0  0  0  0  0999 V2000
  -28.7660  -21.4300   20.4080 N   0  0  0  0  0  0  0  0  0  0  0  0
  -28.2310  -21.4750   21.2740 H   0  0  0  0  0  0  0  0  0  0  0  0
  -29.9440  -17.8260   18.8480 C   0  0  0  0  0  3  0  0  0  0  0  0
  -29.5920  -19.2660   18.9540 C   0  0  0  0  0  3  0  0  0  0  0  0
  -29.2820  -18.9730   21.2120 C   0  0  0  0  0  3  0  0  0  0  0  0
  -29.9890  -16.8110   19.9020 C   0  0  0  0  0  0  0  0  0  0  0  0
  -29.6650  -17.5390   21.1270 C   0  0  0  0  0  0  0  0  0  0  0  0
  -29.2130  -19.9770   20.1590 C   0  0  0  0  0  0  0  0  0  0  0  0
  -30.5960  -15.2640   19.6820 C   0  0  0  0  0  0  0  0  0  0  0  0
  -30.4230  -12.8790   18.7280 C   0  0  0  0  0  2  0  0  0  0  0  0
  -29.3970  -12.7720   17.5700 C   0  0  0  0  0  2  0  0  0  0  0  0
  -27.9870  -12.4920   18.1170 C   0  0  0  0  0  2  0  0  0  0  0  0
  -27.6540  -13.3920   19.3310 C   0  0  0  0  0  3  0  0  0  0  0  0
  -28.7960  -13.4570   20.3580 C   0  0  0  0  0  2  0  0  0  0  0  0
  -29.9890  -13.9780   19.6690 N   0  0  0  0  0  0  0  0  0  0  0  0
  -31.7710  -15.2220   19.2880 O   0  0  0  0  0  0  0  0  0  0  0  0
  -25.3740  -13.8980   20.3570 C   0  0  0  0  0  0  0  0  0  0  0  0
  -24.3550  -13.0960   20.7880 C   0  0  0  0  0  0  0  0  0  0  0  0
  -24.8160  -11.7530   20.6380 C   0  0  0  0  0  0  0  0  0  0  0  0
  -26.3830  -13.0430   19.9550 N   0  0  0  0  0  0  0  0  0  0  0  0
  -26.0690  -11.7420   20.1940 N   0  0  0  0  0  0  0  0  0  0  0  0
  -24.1120  -10.4780   20.8330 C   0  0  0  0  0  0  0  0  0  0  0  0
  -24.6030   -9.4860   21.7100 C   0  0  0  0  0  3  0  0  0  0  0  0
  -23.8940   -8.2780   21.8940 C   0  0  0  0  0  3  0  0  0  0  0  0
  -22.6810   -8.0540   21.2010 C   0  0  0  0  0  0  0  0  0  0  0  0
  -22.2080   -9.0350   20.3120 C   0  0  0  0  0  3  0  0  0  0  0  0
  -22.9180  -10.2330   20.1250 C   0  0  0  0  0  3  0  0  0  0  0  0
  -21.9400   -6.9010   21.2980 O   0  0  0  0  0  0  0  0  0  0  0  0
  -21.9320   -6.1440   22.4420 C   0  0  0  0  0  0  0  0  0  0  0  0
  -21.5480   -6.6820   23.6890 C   0  0  0  0  0  3  0  0  0  0  0  0
  -21.4860   -5.8510   24.8260 C   0  0  0  0  0  3  0  0  0  0  0  0
  -21.7990   -4.4840   24.7160 C   0  0  0  0  0  0  0  0  0  0  0  0
  -22.1770   -3.9450   23.4740 C   0  0  0  0  0  3  0  0  0  0  0  0
  -22.2400   -4.7720   22.3400 C   0  0  0  0  0  0  0  0  0  0  0  0
  -22.5830   -4.2430   21.1410 F   0  0  0  0  0  0  0  0  0  0  0  0
  -21.7340   -3.6840   25.8070 F   0  0  0  0  0  0  0  0  0  0  0  0
  -22.9910  -13.5510   21.2210 C   0  0  0  0  0  0  0  0  0  0  0  0
  -22.3640  -12.8230   22.1370 N   0  0  0  0  0  0  0  0  0  0  0  0
  -22.4950  -14.5870   20.7800 O   0  0  0  0  0  0  0  0  0  0  0  0
  -22.7830  -11.9840   22.5110 H   0  0  0  0  0  0  0  0  0  0  0  0
  -21.4550  -13.1090   22.4700 H   0  0  0  0  0  0  0  0  0  0  0  0
  -25.5210  -15.2770   20.2440 N   0  0  0  0  0  0  0  0  0  0  0  0
  -24.7790  -15.9250   20.4870 H   0  0  0  0  0  0  0  0  0  0  0  0
  -26.3450  -15.7400   19.8800 H   0  0  0  0  0  0  0  0  0  0  0  0
  -31.2570  -16.9340   22.9990 C   0  0  0  0  0  1  0  0  0  0  0  0
  -29.8220  -16.8390   22.4680 C   0  0  0  0  0  2  0  0  0  0  0  0
  -29.0240  -22.9470   19.9120 C   0  0  0  0  0  3  0  0  0  0  0  0
  -28.0870  -24.3980   20.3220 C   0  0  0  0  0  3  0  0  0  0  0  0
  -28.3430  -25.9990   20.2010 O   0  0  0  0  0  0  0  0  0  0  0  0
  -24.7250  -31.9010   23.1280 C   0  0  0  0  0  0  0  0  0  0  0  0
  -27.3070  -27.0520   20.1650 C   0  0  0  0  0  0  0  0  0  0  0  0
  -23.5350  -30.4810   21.5070 C   0  0  0  0  0  3  0  0  0  0  0  0
  -24.9900  -28.8780   20.1030 C   0  0  0  0  0  0  0  0  0  0  0  0
  -26.0980  -30.7220   21.3480 C   0  0  0  0  0  2  0  0  0  0  0  0
  -26.1760  -29.3100   20.7120 C   0  0  0  0  0  0  0  0  0  0  0  0
  -27.3330  -28.4180   20.7150 C   0  0  0  0  0  3  0  0  0  0  0  0
  -26.0920  -26.7580   19.5080 C   0  0  0  0  0  3  0  0  0  0  0  0
  -24.9690  -27.6200   19.4820 C   0  0  0  0  0  3  0  0  0  0  0  0
  -23.7650  -29.7860   20.1380 C   0  0  0  0  0  2  0  0  0  0  0  0
  -24.8070  -31.0610   22.0470 N   0  0  0  0  0  0  0  0  0  0  0  0
  -23.6370  -32.1880   23.6490 O   0  0  0  0  0  0  0  0  0  0  0  0
  -22.8540  -29.4880   22.4830 C   0  0  0  0  0  0  0  0  0  0  0  0
  -21.5250  -29.3140   22.3650 N   0  0  0  0  0  0  0  0  0  0  0  0
  -23.5270  -28.8730   23.3160 O   0  0  0  0  0  0  0  0  0  0  0  0
  -21.0360  -29.8610   21.6700 H   0  0  0  0  0  0  0  0  0  0  0  0
  -18.1540  -28.0760   22.8740 C   0  0  0  0  0  0  0  0  0  0  0  0
  -20.7080  -28.3810   23.1490 C   0  0  0  0  0  3  0  0  0  0  0  0
  -20.8320  -26.9400   22.6030 C   0  0  0  0  0  2  0  0  0  0  0  0
  -19.7400  -26.5820   21.5890 C   0  0  0  0  0  2  0  0  0  0  0  0
  -18.3530  -26.7180   22.2230 C   0  0  0  0  0  2  0  0  0  0  0  0
  -19.2590  -28.8640   23.2940 C   0  0  0  0  0  0  0  0  0  0  0  0
  -19.0170  -30.1310   23.8680 C   0  0  0  0  0  3  0  0  0  0  0  0
  -17.7030  -30.6130   24.0220 C   0  0  0  0  0  3  0  0  0  0  0  0
  -16.6120  -29.8240   23.6150 C   0  0  0  0  0  3  0  0  0  0  0  0
  -16.8390  -28.5580   23.0480 C   0  0  0  0  0  3  0  0  0  0  0  0
  -25.9960  -32.5570   23.7490 C   0  0  0  0  0  3  0  0  0  0  0  0
  -26.5290  -31.7890   25.0220 C   0  0  1  0  0  0  0  0  0  0  0  0
  -25.4450  -31.5270   26.0930 C   0  0  0  0  0  1  0  0  0  0  0  0
  -27.1350  -30.4220   24.6270 C   0  0  0  0  0  1  0  0  0  0  0  0
  -27.6690  -32.5990   25.6820 C   0  0  0  0  0  1  0  0  0  0  0  0
  -25.6600  -33.9470   24.1010 N   0  0  0  0  0  0  0  0  0  0  0  0
  -25.9790  -35.0230   23.3680 C   0  0  0  0  0  0  0  0  0  0  0  0
  -26.6500  -34.9490   22.3360 O   0  0  0  0  0  0  0  0  0  0  0  0
  -25.0620  -34.0770   24.9040 H   0  0  0  0  0  0  0  0  0  0  0  0
  -24.2350  -36.8110   23.0480 C   0  0  0  0  0  1  0  0  0  0  0  0
  -25.4770  -36.3980   23.8540 C   0  0  0  0  0  3  0  0  0  0  0  0
  -27.6000  -37.2850   24.7130 C   0  0  0  0  0  1  0  0  0  0  0  0
  -26.5000  -37.4640   23.7700 N   0  0  0  0  0  0  0  0  0  0  0  0
  -26.0840  -38.3760   23.9360 H   0  0  0  0  0  0  0  0  0  0  0  0
  1  2  1  0
  3  4  2  0
  3  6  1  0
  4  8  1  0
  6  7  2  0
  7  5  1  0
  7 46  1  0
  8  1  1  0
  8  5  2  0
  9  6  1  0
 10 15  1  0
 11 12  1  0
 11 10  1  0
 13 12  1  0
 13 20  1  0
 13 14  1  0
 15  9  1  0
 15 14  1  0
 16  9  2  0
 17 18  2  0
 18 37  1  0
 19 18  1  0
 19 22  1  0
 20 21  1  0
 20 17  1  0
 21 19  2  0
 22 23  1  0
 23 24  2  0
 25 28  1  0
 25 24  1  0
 26 25  2  0
 27 26  1  0
 27 22  2  0
 28 29  1  0
 29 30  1  0
 30 31  2  0
 32 31  1  0
 32 36  1  0
 33 32  2  0
 34 29  2  0
 34 33  1  0
 35 34  1  0
 37 38  1  0
 38 41  1  0
 38 40  1  0
 39 37  2  0
 42 17  1  0
 42 43  1  0
 44 42  1  0
 46 45  1  0
 47 48  2  0
 47  1  1  0
 49 48  1  0
 50 61  2  0
 51 49  1  0
 51 56  1  0
 52 60  1  0
 52 62  1  0
 53 59  1  0
 53 55  1  0
 54 60  1  0
 55 56  2  0
 55 54  1  0
 57 51  2  0
 58 57  1  0
 58 53  2  0
 59 52  1  0
 60 50  1  0
 62 64  2  0
 63 62  1  0
 65 63  1  0
 66 75  2  0
 66 71  1  0
 67 63  1  0
 67 71  1  0
 68 67  1  0
 69 70  1  0
 69 68  1  0
 70 66  1  0
 71 72  2  0
 72 73  1  0
 74 73  2  0
 75 74  1  0
 76 50  1  0
 76 81  1  0
 76 77  1  0
 77 80  1  1
 77 78  1  0
 79 77  1  0
 81 84  1  0
 82 86  1  0
 82 81  1  0
 83 82  2  0
 86 85  1  0
 88 86  1  0
 88 89  1  0
 88 87  1  0
M  ISO  4   6 100   9 100  48 101  49 101
M  END
>  <TORSDO>  (10) 
F 20

>  <SCORE>  (10) 
-12.227

>  <name>  (10) 
9

>  <ligand_id>  (10) 
9

>  <original_smiles>  (10) 
[H]c1c([H])c([H])c2c(c1[H])C([H])([H])C([H])([H])C([H])([H])C2([H])N([H])C(=O)C1([H])N(C(=O)C([H])(N([H])C(=O)C([H])(N([H])C([H])([H])[H])C([H])([H])[H])C(C([H])([H])[H])(C([H])([H])[H])C([H])([H])[H])C([H])([H])c2c([H])c(OC([H])([H])C([H])([H])N([H])c3c([H])c([H])c(C(=O)N4C([H])([H])C([H])([H])C([H])([H])C([H])(n5nc(-c6c([H])c([H])c(Oc7c([H])c([H])c(F)c([H])c7F)c([H])c6[H])c(C(=O)N([H])[H])c5N([H])[H])C4([H])[H])c(C([H])([H])C([H])([H])[H])c3[H])c([H])c([H])c2C1([H])[H]

>  <smiles>  (10) 
[H]c1c([H])c([H])c2c(c1[H])C([H])([H])C([H])([H])C([H])([H])C2([H])N([H])C(=O)C1([H])N(C(=O)C([H])(N([H])C(=O)C([H])(N([H])C([H])([H])[H])C([H])([H])[H])C(C([H])([H])[H])(C([H])([H])[H])C([H])([H])[H])C([H])([H])c2c([H])c(OC([H])([H])C([H])([H])N([H])c3c([H])c([H])c(C(=O)N4C([H])([H])C([H])([H])C([H])([H])C([H])(n5nc(-c6c([H])c([H])c(Oc7c([H])c([H])c(F)c([H])c7F)c([H])c6[H])c(C(=O)N([H])[H])c5N([H])[H])C4([H])[H])c(C([H])([H])C([H])([H])[H])c3[H])c([H])c([H])c2C1([H])[H]

$$$$
10:0:0
     RDKit          3D

 90 98  0  0  1  0  0  0  0  0999 V2000
  -32.4380  -19.3060   18.7720 C   0  0  0  0  0  3  0  0  0  0  0  0
  -32.2220  -20.6670   18.6110 C   0  0  0  0  0  3  0  0  0  0  0  0
  -31.4590  -18.5240   19.3960 C   0  0  0  0  0  3  0  0  0  0  0  0
  -31.0420  -21.2370   19.1010 C   0  0  0  0  0  3  0  0  0  0  0  0
  -30.2240  -19.0140   19.9260 C   0  0  0  0  0  0  0  0  0  0  0  0
  -30.0080  -20.5370   19.7990 C   0  0  0  0  0  0  0  0  0  0  0  0
  -29.6360  -16.3060   20.5570 C   0  0  0  0  0  3  0  0  0  0  0  0
  -29.3940  -17.7220   20.4010 C   0  0  0  0  0  0  0  0  0  0  0  0
  -30.4860  -15.0010   20.3300 C   0  0  0  0  0  0  0  0  0  0  0  0
  -30.3360  -12.6540   19.3640 C   0  0  0  0  0  2  0  0  0  0  0  0
  -29.3860  -12.6310   18.1420 C   0  0  0  0  0  2  0  0  0  0  0  0
  -27.9280  -12.4250   18.5850 C   0  0  0  0  0  2  0  0  0  0  0  0
  -27.5440  -13.3400   19.7760 C   0  0  0  0  0  3  0  0  0  0  0  0
  -28.6070  -13.3310   20.8920 C   0  0  0  0  0  2  0  0  0  0  0  0
  -29.8810  -13.7390   20.2880 N   0  0  0  0  0  0  0  0  0  0  0  0
  -31.6850  -15.0050   20.0140 O   0  0  0  0  0  0  0  0  0  0  0  0
  -25.1760  -13.9210   20.5480 C   0  0  0  0  0  0  0  0  0  0  0  0
  -24.1110  -13.1430   20.9190 C   0  0  0  0  0  0  0  0  0  0  0  0
  -24.5750  -11.7910   20.8770 C   0  0  0  0  0  0  0  0  0  0  0  0
  -26.2130  -13.0420   20.2900 N   0  0  0  0  0  0  0  0  0  0  0  0
  -25.8640  -11.7570   20.5580 N   0  0  0  0  0  0  0  0  0  0  0  0
  -23.8480  -10.5290   21.0610 C   0  0  0  0  0  0  0  0  0  0  0  0
  -24.2840   -9.5510   21.9830 C   0  0  0  0  0  3  0  0  0  0  0  0
  -23.5550   -8.3550   22.1580 C   0  0  0  0  0  3  0  0  0  0  0  0
  -22.3740   -8.1290   21.4110 C   0  0  0  0  0  0  0  0  0  0  0  0
  -21.9580   -9.0930   20.4740 C   0  0  0  0  0  3  0  0  0  0  0  0
  -22.6870  -10.2800   20.2980 C   0  0  0  0  0  3  0  0  0  0  0  0
  -21.6160   -6.9880   21.4960 O   0  0  0  0  0  0  0  0  0  0  0  0
  -21.5710   -6.2360   22.6420 C   0  0  0  0  0  0  0  0  0  0  0  0
  -21.1500   -6.7800   23.8750 C   0  0  0  0  0  3  0  0  0  0  0  0
  -21.0560   -5.9540   25.0140 C   0  0  0  0  0  3  0  0  0  0  0  0
  -21.3700   -4.5860   24.9190 C   0  0  0  0  0  0  0  0  0  0  0  0
  -21.7830   -4.0410   23.6910 C   0  0  0  0  0  3  0  0  0  0  0  0
  -21.8810   -4.8630   22.5550 C   0  0  0  0  0  0  0  0  0  0  0  0
  -22.2580   -4.3280   21.3690 F   0  0  0  0  0  0  0  0  0  0  0  0
  -21.2730   -3.7910   26.0110 F   0  0  0  0  0  0  0  0  0  0  0  0
  -22.7170  -13.6200   21.2020 C   0  0  0  0  0  0  0  0  0  0  0  0
  -22.0030  -12.9150   22.0710 N   0  0  0  0  0  0  0  0  0  0  0  0
  -22.2720  -14.6440   20.6870 O   0  0  0  0  0  0  0  0  0  0  0  0
  -22.3920  -12.0950   22.5120 H   0  0  0  0  0  0  0  0  0  0  0  0
  -21.0600  -13.1940   22.2990 H   0  0  0  0  0  0  0  0  0  0  0  0
  -25.3400  -15.2930   20.3880 N   0  0  0  0  0  0  0  0  0  0  0  0
  -24.5780  -15.9450   20.5340 H   0  0  0  0  0  0  0  0  0  0  0  0
  -26.2050  -15.7490   20.1190 H   0  0  0  0  0  0  0  0  0  0  0  0
  -28.1170  -18.0830   20.5890 O   0  0  0  0  0  0  0  0  0  0  0  0
  -28.0300  -18.9820   20.2950 H   0  0  0  0  0  0  0  0  0  0  0  0
  -28.8200  -21.6460   20.1820 C   0  0  0  0  0  2  0  0  0  0  0  0
  -29.0610  -23.3550   20.2840 C   0  0  0  0  0  3  0  0  0  0  0  0
  -27.9360  -24.6230   20.2210 C   0  0  0  0  0  3  0  0  0  0  0  0
  -28.2270  -26.1620   20.2890 O   0  0  0  0  0  0  0  0  0  0  0  0
  -24.6350  -31.8890   23.2690 C   0  0  0  0  0  0  0  0  0  0  0  0
  -27.1800  -27.1560   20.2350 C   0  0  0  0  0  0  0  0  0  0  0  0
  -23.4300  -30.5020   21.6280 C   0  0  0  0  0  3  0  0  0  0  0  0
  -24.8660  -28.9220   20.2050 C   0  0  0  0  0  0  0  0  0  0  0  0
  -25.9850  -30.7560   21.4580 C   0  0  0  0  0  2  0  0  0  0  0  0
  -26.0540  -29.3610   20.8080 C   0  0  0  0  0  0  0  0  0  0  0  0
  -27.2110  -28.4960   20.8020 C   0  0  0  0  0  3  0  0  0  0  0  0
  -25.9600  -26.8200   19.6050 C   0  0  0  0  0  3  0  0  0  0  0  0
  -24.8360  -27.6680   19.5830 C   0  0  0  0  0  3  0  0  0  0  0  0
  -23.6500  -29.8270   20.2490 C   0  0  0  0  0  2  0  0  0  0  0  0
  -24.7050  -31.0720   22.1720 N   0  0  0  0  0  0  0  0  0  0  0  0
  -23.5500  -32.1700   23.8000 O   0  0  0  0  0  0  0  0  0  0  0  0
  -22.7530  -29.4940   22.5920 C   0  0  0  0  0  0  0  0  0  0  0  0
  -21.4250  -29.3190   22.4670 N   0  0  0  0  0  0  0  0  0  0  0  0
  -23.4270  -28.8710   23.4180 O   0  0  0  0  0  0  0  0  0  0  0  0
  -20.9380  -29.8680   21.7720 H   0  0  0  0  0  0  0  0  0  0  0  0
  -18.0500  -28.1030   22.9620 C   0  0  0  0  0  0  0  0  0  0  0  0
  -20.6060  -28.3870   23.2450 C   0  0  0  0  0  3  0  0  0  0  0  0
  -20.7230  -26.9490   22.6870 C   0  0  0  0  0  2  0  0  0  0  0  0
  -19.6280  -26.6070   21.6710 C   0  0  0  0  0  2  0  0  0  0  0  0
  -18.2410  -26.7520   22.2990 C   0  0  0  0  0  2  0  0  0  0  0  0
  -19.1590  -28.8780   23.3950 C   0  0  0  0  0  0  0  0  0  0  0  0
  -18.9220  -30.1440   23.9750 C   0  0  0  0  0  3  0  0  0  0  0  0
  -17.6110  -30.6310   24.1300 C   0  0  0  0  0  3  0  0  0  0  0  0
  -16.5160  -29.8560   23.7070 C   0  0  0  0  0  3  0  0  0  0  0  0
  -16.7380  -28.5940   23.1280 C   0  0  0  0  0  3  0  0  0  0  0  0
  -25.9140  -32.5240   23.8910 C   0  0  0  0  0  3  0  0  0  0  0  0
  -25.6070  -33.9230   24.2200 N   0  0  0  0  0  0  0  0  0  0  0  0
  -25.9250  -34.9750   23.4550 C   0  0  0  0  0  0  0  0  0  0  0  0
  -26.5780  -34.8700   22.4130 O   0  0  0  0  0  0  0  0  0  0  0  0
  -25.0330  -34.0790   25.0360 H   0  0  0  0  0  0  0  0  0  0  0  0
  -24.1850  -36.7620   23.1420 C   0  0  0  0  0  1  0  0  0  0  0  0
  -25.4490  -36.3650   23.9220 C   0  0  0  0  0  3  0  0  0  0  0  0
  -27.6050  -37.2590   24.6880 C   0  0  0  0  0  1  0  0  0  0  0  0
  -26.4750  -37.4210   23.7760 N   0  0  0  0  0  0  0  0  0  0  0  0
  -26.0700  -38.3410   23.9330 H   0  0  0  0  0  0  0  0  0  0  0  0
  -26.4240  -31.7580   25.1730 C   0  0  1  0  0  0  0  0  0  0  0  0
  -25.3230  -31.5360   26.2370 C   0  0  0  0  0  1  0  0  0  0  0  0
  -27.0010  -30.3760   24.7910 C   0  0  0  0  0  1  0  0  0  0  0  0
  -27.5840  -32.5470   25.8270 C   0  0  0  0  0  1  0  0  0  0  0  0
  1  3  1  0
  2  1  2  0
  2  4  1  0
  3  5  2  0
  4  6  2  0
  5  8  1  0
  6  5  1  0
  6 47  1  0
  8  7  2  0
  8 45  1  0
  9  7  1  0
 10 15  1  0
 11 12  1  0
 11 10  1  0
 13 12  1  0
 13 20  1  0
 13 14  1  0
 15  9  1  0
 15 14  1  0
 16  9  2  0
 17 18  2  0
 18 37  1  0
 19 18  1  0
 19 22  1  0
 20 17  1  0
 20 21  1  0
 21 19  2  0
 22 23  1  0
 23 24  2  0
 25 28  1  0
 25 24  1  0
 26 25  2  0
 27 26  1  0
 27 22  2  0
 28 29  1  0
 29 30  1  0
 30 31  2  0
 32 31  1  0
 32 36  1  0
 33 32  2  0
 34 29  2  0
 34 33  1  0
 35 34  1  0
 37 38  1  0
 38 41  1  0
 38 40  1  0
 39 37  2  0
 42 43  1  0
 42 17  1  0
 44 42  1  0
 46 45  1  0
 47 48  1  0
 49 48  2  0
 49 50  1  0
 51 62  2  0
 52 50  1  0
 52 57  1  0
 53 61  1  0
 53 63  1  0
 54 60  1  0
 54 56  1  0
 55 61  1  0
 56 55  1  0
 57 56  2  0
 58 52  2  0
 59 58  1  0
 59 54  2  0
 60 53  1  0
 61 51  1  0
 63 65  2  0
 64 63  1  0
 66 64  1  0
 67 76  2  0
 67 72  1  0
 68 64  1  0
 68 72  1  0
 69 68  1  0
 70 71  1  0
 70 69  1  0
 71 67  1  0
 72 73  2  0
 73 74  1  0
 75 74  2  0
 76 75  1  0
 77 51  1  0
 77 78  1  0
 77 87  1  0
 78 81  1  0
 79 83  1  0
 79 78  1  0
 80 79  2  0
 83 82  1  0
 85 83  1  0
 85 86  1  0
 85 84  1  0
 87 90  1  1
 87 88  1  0
 89 87  1  0
M  ISO  4   7 100   9 100  49 101  50 101
M  END
>  <TORSDO>  (11) 
F 21

>  <SCORE>  (11) 
-14.940

>  <name>  (11) 
10

>  <ligand_id>  (11) 
10

>  <original_smiles>  (11) 
[H]OC(=C([H])C(=O)N1C([H])([H])C([H])([H])C([H])([H])C([H])(n2nc(-c3c([H])c([H])c(Oc4c([H])c([H])c(F)c([H])c4F)c([H])c3[H])c(C(=O)N([H])[H])c2N([H])[H])C1([H])[H])c1c([H])c([H])c([H])c([H])c1C([H])([H])C([H])([H])C([H])([H])Oc1c([H])c([H])c2c(c1[H])C([H])([H])N(C(=O)C([H])(N([H])C(=O)C([H])(N([H])C([H])([H])[H])C([H])([H])[H])C(C([H])([H])[H])(C([H])([H])[H])C([H])([H])[H])C([H])(C(=O)N([H])C1([H])c3c([H])c([H])c([H])c([H])c3C([H])([H])C([H])([H])C1([H])[H])C2([H])[H]

>  <smiles>  (11) 
[H]OC(=C([H])C(=O)N1C([H])([H])C([H])([H])C([H])([H])C([H])(n2nc(-c3c([H])c([H])c(Oc4c([H])c([H])c(F)c([H])c4F)c([H])c3[H])c(C(=O)N([H])[H])c2N([H])[H])C1([H])[H])c1c([H])c([H])c([H])c([H])c1C([H])([H])C([H])([H])C([H])([H])Oc1c([H])c([H])c2c(c1[H])C([H])([H])N(C(=O)C([H])(N([H])C(=O)C([H])(N([H])C([H])([H])[H])C([H])([H])[H])C(C([H])([H])[H])(C([H])([H])[H])C([H])([H])[H])C([H])(C(=O)N([H])C1([H])c3c([H])c([H])c([H])c([H])c3C([H])([H])C([H])([H])C1([H])[H])C2([H])[H]

$$$$
11:0:0
     RDKit          3D

100108  0  0  1  0  0  0  0  0999 V2000
  -28.6630  -19.5880   20.2620 C   0  0  0  0  0  2  0  0  0  0  0  0
  -28.5060  -18.1510   20.8650 C   0  0  0  0  0  2  0  0  0  0  0  0
  -31.1490  -18.0280   18.4010 C   0  0  0  0  0  2  0  0  0  0  0  0
  -29.9480  -17.5680   17.8110 C   0  0  0  0  0  3  0  0  0  0  0  0
  -31.3960  -17.7620   19.7800 C   0  0  0  0  0  3  0  0  0  0  0  0
  -30.5670  -16.7640   20.3680 C   0  0  0  0  0  3  0  0  0  0  0  0
  -29.2190  -17.0580   20.0420 C   0  0  0  0  0  3  0  0  0  0  0  0
  -28.9110  -17.1080   18.6640 C   0  0  0  0  0  0  0  0  0  0  0  0
  -31.1360  -15.3500   20.1520 C   0  0  0  0  0  0  0  0  0  0  0  0
  -30.8190  -13.0530   19.3360 C   0  0  0  0  0  2  0  0  0  0  0  0
  -29.9210  -13.0750   18.0850 C   0  0  0  0  0  2  0  0  0  0  0  0
  -28.4490  -12.9150   18.5070 C   0  0  0  0  0  2  0  0  0  0  0  0
  -28.0490  -13.8970   19.6420 C   0  0  0  0  0  3  0  0  0  0  0  0
  -29.0940  -13.9560   20.7790 C   0  0  0  0  0  2  0  0  0  0  0  0
  -30.4130  -14.1910   20.1890 N   0  0  0  0  0  0  0  0  0  0  0  0
  -32.3050  -15.3070   19.7620 O   0  0  0  0  0  0  0  0  0  0  0  0
  -25.6910  -14.5090   20.4510 C   0  0  0  0  0  0  0  0  0  0  0  0
  -24.6230  -13.7390   20.8240 C   0  0  0  0  0  0  0  0  0  0  0  0
  -25.0610  -12.3850   20.7210 C   0  0  0  0  0  0  0  0  0  0  0  0
  -26.7130  -13.6200   20.1540 N   0  0  0  0  0  0  0  0  0  0  0  0
  -26.3430  -12.3350   20.3800 N   0  0  0  0  0  0  0  0  0  0  0  0
  -24.3180  -11.1260   20.8720 C   0  0  0  0  0  0  0  0  0  0  0  0
  -24.7150  -10.1410   21.8020 C   0  0  0  0  0  3  0  0  0  0  0  0
  -23.9750   -8.9490   21.9440 C   0  0  0  0  0  3  0  0  0  0  0  0
  -22.8230   -8.7300   21.1500 C   0  0  0  0  0  0  0  0  0  0  0  0
  -22.4450   -9.7030   20.2070 C   0  0  0  0  0  3  0  0  0  0  0  0
  -23.1890  -10.8880   20.0660 C   0  0  0  0  0  3  0  0  0  0  0  0
  -22.0580   -7.5910   21.1980 O   0  0  0  0  0  0  0  0  0  0  0  0
  -21.9080   -6.8710   22.3580 C   0  0  0  0  0  0  0  0  0  0  0  0
  -21.3670   -7.4470   23.5270 C   0  0  0  0  0  3  0  0  0  0  0  0
  -21.1700   -6.6540   24.6750 C   0  0  0  0  0  3  0  0  0  0  0  0
  -21.4980   -5.2860   24.6520 C   0  0  0  0  0  0  0  0  0  0  0  0
  -22.0310   -4.7100   23.4850 C   0  0  0  0  0  3  0  0  0  0  0  0
  -22.2320   -5.5000   22.3410 C   0  0  0  0  0  0  0  0  0  0  0  0
  -22.7250   -4.9350   21.2110 F   0  0  0  0  0  0  0  0  0  0  0  0
  -21.3000   -4.5210   25.7500 F   0  0  0  0  0  0  0  0  0  0  0  0
  -23.2400  -14.2260   21.1500 C   0  0  0  0  0  0  0  0  0  0  0  0
  -22.5230  -13.5070   22.0090 N   0  0  0  0  0  0  0  0  0  0  0  0
  -22.8020  -15.2720   20.6770 O   0  0  0  0  0  0  0  0  0  0  0  0
  -22.8910  -12.6630   22.4200 H   0  0  0  0  0  0  0  0  0  0  0  0
  -21.5930  -13.8090   22.2590 H   0  0  0  0  0  0  0  0  0  0  0  0
  -25.8710  -15.8810   20.3110 N   0  0  0  0  0  0  0  0  0  0  0  0
  -25.0940  -16.5290   20.3900 H   0  0  0  0  0  0  0  0  0  0  0  0
  -26.6920  -16.2980   19.8850 H   0  0  0  0  0  0  0  0  0  0  0  0
  -32.6190  -18.2350   20.4880 C   0  0  0  0  0  0  0  0  0  0  0  0
  -32.9780  -17.7860   21.5810 O   0  0  0  0  0  0  0  0  0  0  0  0
  -33.1660  -20.7150   20.6310 C   0  0  0  0  0  1  0  0  0  0  0  0
  -33.4050  -19.3990   19.8760 C   0  0  0  0  0  2  0  0  0  0  0  0
  -27.2290  -17.4180   16.9960 C   0  0  0  0  0  1  0  0  0  0  0  0
  -27.5940  -16.9660   18.2910 O   0  0  0  0  0  0  0  0  0  0  0  0
  -27.8860  -20.7240   20.9580 C   0  0  0  0  0  2  0  0  0  0  0  0
  -27.8670  -22.0520   20.1440 C   0  0  0  0  0  2  0  0  0  0  0  0
  -25.9830  -23.2210   21.4010 C   0  0  0  0  0  1  0  0  0  0  0  0
  -27.4560  -23.3100   20.9590 C   0  0  0  0  0  3  0  0  0  0  0  0
  -27.6880  -24.5950   20.2300 N   0  0  0  0  0  4  0  0  0  0  0  0
  -27.2890  -24.5560   19.3050 H   0  0  0  0  0  0  0  0  0  0  0  0
  -27.1780  -25.3060   20.7290 H   0  0  0  0  0  0  0  0  0  0  0  0
  -29.0930  -25.0820   20.1440 C   0  0  0  0  0  2  0  0  0  0  0  0
  -29.2530  -26.5560   20.6030 C   0  0  0  0  0  2  0  0  0  0  0  0
  -28.8680  -27.4910   19.5940 O   0  0  0  0  0  0  0  0  0  0  0  0
  -24.7280  -32.0170   23.2740 C   0  0  0  0  0  0  0  0  0  0  0  0
  -27.6560  -28.1120   19.7670 C   0  0  0  0  0  0  0  0  0  0  0  0
  -23.6080  -30.7110   21.4940 C   0  0  0  0  0  3  0  0  0  0  0  0
  -25.1600  -29.4190   19.9330 C   0  0  0  0  0  0  0  0  0  0  0  0
  -26.1060  -31.2570   21.3430 C   0  0  0  0  0  2  0  0  0  0  0  0
  -26.2800  -29.9630   20.5770 C   0  0  0  0  0  0  0  0  0  0  0  0
  -27.5320  -29.3150   20.5000 C   0  0  0  0  0  3  0  0  0  0  0  0
  -26.5230  -27.5770   19.1230 C   0  0  0  0  0  3  0  0  0  0  0  0
  -25.2710  -28.2160   19.2160 C   0  0  0  0  0  3  0  0  0  0  0  0
  -23.8600  -30.1850   20.0540 C   0  0  0  0  0  2  0  0  0  0  0  0
  -24.8310  -31.3380   22.0980 N   0  0  0  0  0  0  0  0  0  0  0  0
  -23.6350  -32.1590   23.8380 O   0  0  0  0  0  0  0  0  0  0  0  0
  -23.0380  -29.5540   22.3440 C   0  0  0  0  0  0  0  0  0  0  0  0
  -21.7250  -29.2980   22.2070 N   0  0  0  0  0  0  0  0  0  0  0  0
  -23.7720  -28.8920   23.0830 O   0  0  0  0  0  0  0  0  0  0  0  0
  -21.1880  -29.8910   21.5890 H   0  0  0  0  0  0  0  0  0  0  0  0
  -18.4400  -27.8590   22.6070 C   0  0  0  0  0  0  0  0  0  0  0  0
  -20.9820  -28.2320   22.8770 C   0  0  0  0  0  3  0  0  0  0  0  0
  -21.1570  -26.8810   22.1440 C   0  0  0  0  0  2  0  0  0  0  0  0
  -20.0560  -26.6080   21.1130 C   0  0  0  0  0  2  0  0  0  0  0  0
  -18.6800  -26.6020   21.7850 C   0  0  0  0  0  2  0  0  0  0  0  0
  -19.5190  -28.6310   23.1070 C   0  0  0  0  0  0  0  0  0  0  0  0
  -19.2400  -29.8100   23.8330 C   0  0  0  0  0  3  0  0  0  0  0  0
  -17.9120  -30.2120   24.0690 C   0  0  0  0  0  3  0  0  0  0  0  0
  -16.8470  -29.4320   23.5880 C   0  0  0  0  0  3  0  0  0  0  0  0
  -17.1110  -28.2570   22.8620 C   0  0  0  0  0  3  0  0  0  0  0  0
  -25.9690  -32.6730   23.9560 C   0  0  0  0  0  3  0  0  0  0  0  0
  -25.6190  -34.0650   24.2700 N   0  0  0  0  0  0  0  0  0  0  0  0
  -25.9600  -35.1230   23.5220 C   0  0  0  0  0  0  0  0  0  0  0  0
  -26.6730  -35.0340   22.5200 O   0  0  0  0  0  0  0  0  0  0  0  0
  -24.9930  -34.2070   25.0470 H   0  0  0  0  0  0  0  0  0  0  0  0
  -24.2010  -36.8710   23.0980 C   0  0  0  0  0  1  0  0  0  0  0  0
  -25.4210  -36.5000   23.9560 C   0  0  0  0  0  3  0  0  0  0  0  0
  -27.5030  -37.4420   24.8560 C   0  0  0  0  0  1  0  0  0  0  0  0
  -26.4310  -37.5780   23.8740 N   0  0  0  0  0  0  0  0  0  0  0  0
  -25.9990  -38.4900   23.9970 H   0  0  0  0  0  0  0  0  0  0  0  0
  -26.4390  -31.9070   25.2530 C   0  0  1  0  0  0  0  0  0  0  0  0
  -25.3060  -31.6480   26.2710 C   0  0  0  0  0  1  0  0  0  0  0  0
  -27.0650  -30.5420   24.8880 C   0  0  0  0  0  1  0  0  0  0  0  0
  -27.5410  -32.7210   25.9710 C   0  0  0  0  0  1  0  0  0  0  0  0
  1  2  1  0
  1 51  1  0
  3  5  1  0
  4  3  1  0
  4  8  2  0
  5  6  1  0
  5 45  1  0
  6  9  1  0
  7  6  1  0
  7  2  1  0
  8  7  1  0
  9 15  1  0
 10 15  1  0
 11 12  1  0
 11 10  1  0
 13 12  1  0
 13 20  1  0
 13 14  1  0
 15 14  1  0
 16  9  2  0
 17 18  2  0
 18 37  1  0
 19 18  1  0
 19 22  1  0
 20 21  1  0
 20 17  1  0
 21 19  2  0
 22 23  1  0
 23 24  2  0
 25 28  1  0
 25 24  1  0
 26 25  2  0
 27 26  1  0
 27 22  2  0
 28 29  1  0
 29 30  1  0
 30 31  2  0
 32 31  1  0
 32 36  1  0
 33 32  2  0
 34 29  2  0
 34 33  1  0
 35 34  1  0
 37 38  1  0
 38 41  1  0
 38 40  1  0
 39 37  2  0
 42 43  1  0
 42 17  1  0
 44 42  1  0
 45 46  2  0
 48 45  1  0
 48 47  1  0
 49 50  1  0
 50  8  1  0
 52 51  1  0
 52 54  1  0
 54 53  1  0
 55 57  1  0
 55 54  1  0
 56 55  1  0
 58 55  1  0
 58 59  1  0
 60 62  1  0
 60 59  1  0
 61 72  2  0
 62 67  1  0
 63 71  1  0
 63 73  1  0
 64 70  1  0
 64 66  1  0
 65 71  1  0
 66 65  1  0
 67 66  2  0
 68 69  1  0
 68 62  2  0
 69 64  2  0
 70 63  1  0
 71 61  1  0
 73 75  2  0
 74 73  1  0
 76 74  1  0
 77 86  2  0
 77 82  1  0
 78 74  1  0
 78 82  1  0
 79 78  1  0
 80 81  1  0
 80 79  1  0
 81 77  1  0
 82 83  2  0
 83 84  1  0
 85 84  2  0
 86 85  1  0
 87 61  1  0
 87 88  1  0
 87 97  1  0
 88 91  1  0
 89 93  1  0
 89 88  1  0
 90 89  2  0
 93 92  1  0
 95 93  1  0
 95 96  1  0
 95 94  1  0
 97100  1  1
 97 98  1  0
 99 97  1  0
M  ISO  4   6 100   9 100  59 101  60 101
M  END
>  <TORSDO>  (12) 
F 27

>  <SCORE>  (12) 
-7.052

>  <name>  (12) 
11

>  <ligand_id>  (12) 
11

>  <original_smiles>  (12) 
[H]c1c([H])c([H])c2c(c1[H])C([H])([H])C([H])([H])C([H])([H])C2([H])N([H])C(=O)C1([H])N(C(=O)C([H])(N([H])C(=O)C([H])(N([H])C([H])([H])[H])C([H])([H])[H])C(C([H])([H])[H])(C([H])([H])[H])C([H])([H])[H])C([H])([H])c2c([H])c(OC([H])([H])C([H])([H])[N+]([H])([H])C([H])(C([H])([H])[H])C([H])([H])C([H])([H])C([H])([H])C([H])([H])c3c(OC([H])([H])[H])c([H])c([H])c(C(=O)C([H])([H])C([H])([H])[H])c3C(=O)N3C([H])([H])C([H])([H])C([H])([H])C([H])(n4nc(-c5c([H])c([H])c(Oc6c([H])c([H])c(F)c([H])c6F)c([H])c5[H])c(C(=O)N([H])[H])c4N([H])[H])C3([H])[H])c([H])c([H])c2C1([H])[H]

>  <smiles>  (12) 
[H]c1c([H])c([H])c2c(c1[H])C([H])([H])C([H])([H])C([H])([H])C2([H])N([H])C(=O)C1([H])N(C(=O)C([H])(N([H])C(=O)C([H])(N([H])C([H])([H])[H])C([H])([H])[H])C(C([H])([H])[H])(C([H])([H])[H])C([H])([H])[H])C([H])([H])c2c([H])c(OC([H])([H])C([H])([H])[N+]([H])([H])C([H])(C([H])([H])[H])C([H])([H])C([H])([H])C([H])([H])C([H])([H])c3c(OC([H])([H])[H])c([H])c([H])c(C(=O)C([H])([H])C([H])([H])[H])c3C(=O)N3C([H])([H])C([H])([H])C([H])([H])C([H])(n4nc(-c5c([H])c([H])c(Oc6c([H])c([H])c(F)c([H])c6F)c([H])c5[H])c(C(=O)N([H])[H])c4N([H])[H])C3([H])[H])c([H])c([H])c2C1([H])[H]

$$$$
12:0:0
     RDKit          3D

 97105  0  0  1  0  0  0  0  0999 V2000
  -28.4480  -19.3600   19.3360 C   0  0  0  0  0  2  0  0  0  0  0  0
  -29.6650  -18.8590   21.4700 C   0  0  0  0  0  3  0  0  0  0  0  0
  -30.4310  -18.0730   22.3510 C   0  0  0  0  0  0  0  0  0  0  0  0
  -30.5750  -16.3030   20.6300 C   0  0  0  0  0  0  0  0  0  0  0  0
  -29.3320  -18.4160   20.1810 C   0  0  0  0  0  0  0  0  0  0  0  0
  -30.8760  -16.7800   21.9480 C   0  0  0  0  0  0  0  0  0  0  0  0
  -29.7900  -17.1330   19.7520 C   0  0  0  0  0  0  0  0  0  0  0  0
  -31.7200  -15.9500   22.9250 C   0  0  0  0  0  1  0  0  0  0  0  0
  -29.4080  -16.6750   18.3430 C   0  0  0  0  0  1  0  0  0  0  0  0
  -31.2100  -15.0140   20.1100 C   0  0  0  0  0  0  0  0  0  0  0  0
  -30.9000  -12.7320   19.2240 C   0  0  0  0  0  2  0  0  0  0  0  0
  -29.9440  -12.7910   18.0160 C   0  0  0  0  0  2  0  0  0  0  0  0
  -28.4820  -12.6760   18.4830 C   0  0  0  0  0  2  0  0  0  0  0  0
  -28.1490  -13.6480   19.6470 C   0  0  0  0  0  3  0  0  0  0  0  0
  -29.2250  -13.5990   20.7550 C   0  0  0  0  0  2  0  0  0  0  0  0
  -30.5330  -13.8300   20.1350 N   0  0  0  0  0  0  0  0  0  0  0  0
  -32.3200  -15.1180   19.5790 O   0  0  0  0  0  0  0  0  0  0  0  0
  -25.8240  -14.3180   20.5140 C   0  0  0  0  0  0  0  0  0  0  0  0
  -24.7390  -13.5760   20.8970 C   0  0  0  0  0  0  0  0  0  0  0  0
  -25.1340  -12.2080   20.7760 C   0  0  0  0  0  0  0  0  0  0  0  0
  -26.8130  -13.4050   20.1840 N   0  0  0  0  0  0  0  0  0  0  0  0
  -26.4050  -12.1280   20.4020 N   0  0  0  0  0  0  0  0  0  0  0  0
  -24.3590  -10.9710   20.9410 C   0  0  0  0  0  0  0  0  0  0  0  0
  -24.7630   -9.9590   21.8400 C   0  0  0  0  0  3  0  0  0  0  0  0
  -23.9900   -8.7870   21.9930 C   0  0  0  0  0  3  0  0  0  0  0  0
  -22.7990   -8.6200   21.2470 C   0  0  0  0  0  0  0  0  0  0  0  0
  -22.4140   -9.6210   20.3380 C   0  0  0  0  0  3  0  0  0  0  0  0
  -23.1880  -10.7820   20.1810 C   0  0  0  0  0  3  0  0  0  0  0  0
  -21.9990   -7.5050   21.3120 O   0  0  0  0  0  0  0  0  0  0  0  0
  -21.8730   -6.7760   22.4660 C   0  0  0  0  0  0  0  0  0  0  0  0
  -21.4280   -7.3600   23.6720 C   0  0  0  0  0  3  0  0  0  0  0  0
  -21.2480   -6.5590   24.8180 C   0  0  0  0  0  3  0  0  0  0  0  0
  -21.5000   -5.1750   24.7570 C   0  0  0  0  0  0  0  0  0  0  0  0
  -21.9380   -4.5900   23.5560 C   0  0  0  0  0  3  0  0  0  0  0  0
  -22.1210   -5.3880   22.4130 C   0  0  0  0  0  0  0  0  0  0  0  0
  -22.5240   -4.8170   21.2520 F   0  0  0  0  0  0  0  0  0  0  0  0
  -21.3190   -4.4030   25.8550 F   0  0  0  0  0  0  0  0  0  0  0  0
  -23.3820  -14.1000   21.2650 C   0  0  0  0  0  0  0  0  0  0  0  0
  -22.6900  -13.4270   22.1790 N   0  0  0  0  0  0  0  0  0  0  0  0
  -22.9460  -15.1430   20.7800 O   0  0  0  0  0  0  0  0  0  0  0  0
  -23.0580  -12.5850   22.5940 H   0  0  0  0  0  0  0  0  0  0  0  0
  -21.7830  -13.7630   22.4700 H   0  0  0  0  0  0  0  0  0  0  0  0
  -26.0480  -15.6870   20.3980 N   0  0  0  0  0  0  0  0  0  0  0  0
  -25.3340  -16.3740   20.6170 H   0  0  0  0  0  0  0  0  0  0  0  0
  -26.9260  -16.1040   20.1170 H   0  0  0  0  0  0  0  0  0  0  0  0
  -30.7050  -18.6530   23.7030 C   0  0  0  0  0  0  0  0  0  0  0  0
  -30.6170  -18.0140   24.7560 O   0  0  0  0  0  0  0  0  0  0  0  0
  -30.0750  -21.0650   24.2860 C   0  0  0  0  0  1  0  0  0  0  0  0
  -31.1590  -20.1180   23.7450 C   0  0  0  0  0  2  0  0  0  0  0  0
  -29.1620  -20.6190   18.7470 C   0  0  0  0  0  2  0  0  0  0  0  0
  -28.9240  -21.9650   19.4810 C   0  0  0  0  0  0  0  0  0  0  0  0
  -28.9920  -23.1060   18.7610 N   0  0  0  0  0  0  0  0  0  0  0  0
  -28.7400  -21.9750   20.7000 O   0  0  0  0  0  0  0  0  0  0  0  0
  -29.1140  -23.0010   17.7620 H   0  0  0  0  0  0  0  0  0  0  0  0
  -29.1040  -24.4890   19.2760 C   0  0  0  0  0  2  0  0  0  0  0  0
  -27.8750  -25.3870   18.9730 C   0  0  0  0  0  2  0  0  0  0  0  0
  -28.0640  -26.7860   19.3110 O   0  0  0  0  0  0  0  0  0  0  0  0
  -24.6200  -31.6460   23.2690 C   0  0  0  0  0  0  0  0  0  0  0  0
  -26.9290  -27.5750   19.4510 C   0  0  0  0  0  0  0  0  0  0  0  0
  -23.2760  -30.5040   21.5410 C   0  0  0  0  0  3  0  0  0  0  0  0
  -24.5920  -29.1500   19.8260 C   0  0  0  0  0  0  0  0  0  0  0  0
  -25.7990  -30.8240   21.2280 C   0  0  0  0  0  2  0  0  0  0  0  0
  -25.8030  -29.5510   20.4010 C   0  0  0  0  0  0  0  0  0  0  0  0
  -26.9730  -28.7720   20.2140 C   0  0  0  0  0  3  0  0  0  0  0  0
  -25.6950  -27.2130   18.8600 C   0  0  0  0  0  3  0  0  0  0  0  0
  -24.5350  -27.9820   19.0500 C   0  0  0  0  0  3  0  0  0  0  0  0
  -23.3780  -30.0180   20.0710 C   0  0  0  0  0  2  0  0  0  0  0  0
  -24.5870  -30.9990   22.0710 N   0  0  0  0  0  0  0  0  0  0  0  0
  -23.5820  -31.8630   23.9090 O   0  0  0  0  0  0  0  0  0  0  0  0
  -22.6570  -29.3720   22.3950 C   0  0  0  0  0  0  0  0  0  0  0  0
  -21.3360  -29.1720   22.2590 N   0  0  0  0  0  0  0  0  0  0  0  0
  -23.3640  -28.6820   23.1340 O   0  0  0  0  0  0  0  0  0  0  0  0
  -20.8270  -29.7820   21.6350 H   0  0  0  0  0  0  0  0  0  0  0  0
  -18.0220  -27.7650   22.5620 C   0  0  0  0  0  0  0  0  0  0  0  0
  -20.5510  -28.1420   22.9380 C   0  0  0  0  0  3  0  0  0  0  0  0
  -20.7550  -26.7620   22.2730 C   0  0  0  0  0  2  0  0  0  0  0  0
  -19.7030  -26.4420   21.2080 C   0  0  0  0  0  2  0  0  0  0  0  0
  -18.2960  -26.4720   21.8120 C   0  0  0  0  0  2  0  0  0  0  0  0
  -19.0810  -28.5560   23.0790 C   0  0  0  0  0  0  0  0  0  0  0  0
  -18.7750  -29.7620   23.7430 C   0  0  0  0  0  3  0  0  0  0  0  0
  -17.4400  -30.1790   23.8980 C   0  0  0  0  0  3  0  0  0  0  0  0
  -16.3930  -29.3840   23.4010 C   0  0  0  0  0  3  0  0  0  0  0  0
  -16.6840  -28.1790   22.7370 C   0  0  0  0  0  3  0  0  0  0  0  0
  -25.9580  -32.1650   23.8810 C   0  0  0  0  0  3  0  0  0  0  0  0
  -25.7300  -33.5410   24.3410 N   0  0  0  0  0  0  0  0  0  0  0  0
  -26.0970  -34.6400   23.6670 C   0  0  0  0  0  0  0  0  0  0  0  0
  -26.7350  -34.5960   22.6120 O   0  0  0  0  0  0  0  0  0  0  0  0
  -25.1670  -33.6540   25.1700 H   0  0  0  0  0  0  0  0  0  0  0  0
  -24.4540  -36.5380   23.5200 C   0  0  0  0  0  1  0  0  0  0  0  0
  -25.6920  -36.0040   24.2580 C   0  0  0  0  0  3  0  0  0  0  0  0
  -27.8860  -36.7090   25.1020 C   0  0  0  0  0  1  0  0  0  0  0  0
  -26.7730  -37.0120   24.2070 N   0  0  0  0  0  0  0  0  0  0  0  0
  -26.4190  -37.9350   24.4450 H   0  0  0  0  0  0  0  0  0  0  0  0
  -26.4950  -31.2640   25.0600 C   0  0  1  0  0  0  0  0  0  0  0  0
  -25.4400  -30.9850   26.1550 C   0  0  0  0  0  1  0  0  0  0  0  0
  -26.9910  -29.9010   24.5250 C   0  0  0  0  0  1  0  0  0  0  0  0
  -27.7130  -31.9450   25.7260 C   0  0  0  0  0  1  0  0  0  0  0  0
  1  5  1  0
  2  3  1  0
  3 46  1  0
  4  6  1  0
  5  2  2  0
  6  3  2  0
  6  8  1  0
  7  5  1  0
  7  4  2  0
  9  7  1  0
 10 16  1  0
 10  4  1  0
 11 16  1  0
 12 13  1  0
 12 11  1  0
 14 13  1  0
 14 21  1  0
 14 15  1  0
 16 15  1  0
 17 10  2  0
 18 19  2  0
 19 38  1  0
 20 19  1  0
 20 23  1  0
 21 22  1  0
 21 18  1  0
 22 20  2  0
 23 24  1  0
 24 25  2  0
 26 29  1  0
 26 25  1  0
 27 26  2  0
 28 27  1  0
 28 23  2  0
 29 30  1  0
 30 31  1  0
 31 32  2  0
 33 32  1  0
 33 37  1  0
 34 33  2  0
 35 30  2  0
 35 34  1  0
 36 35  1  0
 38 39  1  0
 39 42  1  0
 39 41  1  0
 40 38  2  0
 43 18  1  0
 43 44  1  0
 45 43  1  0
 46 49  1  0
 46 47  2  0
 49 48  1  0
 50  1  1  0
 50 51  1  0
 51 53  2  0
 52 55  1  0
 52 51  1  0
 54 52  1  0
 56 55  1  0
 56 57  1  0
 57 59  1  0
 58 69  2  0
 59 64  1  0
 60 68  1  0
 60 70  1  0
 61 67  1  0
 61 63  1  0
 62 68  1  0
 63 62  1  0
 64 63  2  0
 65 66  1  0
 65 59  2  0
 66 61  2  0
 67 60  1  0
 68 58  1  0
 70 72  2  0
 71 70  1  0
 73 71  1  0
 74 83  2  0
 74 79  1  0
 75 71  1  0
 75 79  1  0
 76 75  1  0
 77 78  1  0
 77 76  1  0
 78 74  1  0
 79 80  2  0
 80 81  1  0
 82 81  2  0
 83 82  1  0
 84 58  1  0
 84 85  1  0
 84 94  1  0
 85 88  1  0
 86 90  1  0
 86 85  1  0
 87 86  2  0
 90 89  1  0
 92 90  1  0
 92 93  1  0
 92 91  1  0
 94 97  1  1
 94 95  1  0
 96 94  1  0
M  ISO  4   4 100  10 100  56 101  57 101
M  END
>  <TORSDO>  (13) 
F 23

>  <SCORE>  (13) 
-8.593

>  <name>  (13) 
12

>  <ligand_id>  (13) 
12

>  <original_smiles>  (13) 
[H]c1c([H])c([H])c2c(c1[H])C([H])([H])C([H])([H])C([H])([H])C2([H])N([H])C(=O)C1([H])N(C(=O)C([H])(N([H])C(=O)C([H])(N([H])C([H])([H])[H])C([H])([H])[H])C(C([H])([H])[H])(C([H])([H])[H])C([H])([H])[H])C([H])([H])c2c([H])c(OC([H])([H])C([H])([H])N([H])C(=O)C([H])([H])C([H])([H])c3c([H])c(C(=O)C([H])([H])C([H])([H])[H])c(C([H])([H])[H])c(C(=O)N4C([H])([H])C([H])([H])C([H])([H])C([H])(n5nc(-c6c([H])c([H])c(Oc7c([H])c([H])c(F)c([H])c7F)c([H])c6[H])c(C(=O)N([H])[H])c5N([H])[H])C4([H])[H])c3C([H])([H])[H])c([H])c([H])c2C1([H])[H]

>  <smiles>  (13) 
[H]c1c([H])c([H])c2c(c1[H])C([H])([H])C([H])([H])C([H])([H])C2([H])N([H])C(=O)C1([H])N(C(=O)C([H])(N([H])C(=O)C([H])(N([H])C([H])([H])[H])C([H])([H])[H])C(C([H])([H])[H])(C([H])([H])[H])C([H])([H])[H])C([H])([H])c2c([H])c(OC([H])([H])C([H])([H])N([H])C(=O)C([H])([H])C([H])([H])c3c([H])c(C(=O)C([H])([H])C([H])([H])[H])c(C([H])([H])[H])c(C(=O)N4C([H])([H])C([H])([H])C([H])([H])C([H])(n5nc(-c6c([H])c([H])c(Oc7c([H])c([H])c(F)c([H])c7F)c([H])c6[H])c(C(=O)N([H])[H])c5N([H])[H])C4([H])[H])c3C([H])([H])[H])c([H])c([H])c2C1([H])[H]

$$$$
13:0:0
     RDKit          3D

 91 99  0  0  1  0  0  0  0  0999 V2000
  -29.4210  -17.8640   18.5730 C   0  0  0  0  0  3  0  0  0  0  0  0
  -29.0170  -19.2340   18.2070 C   0  0  0  0  0  3  0  0  0  0  0  0
  -29.9340  -17.4060   19.8480 C   0  0  0  0  0  0  0  0  0  0  0  0
  -29.0380  -20.4380   19.0200 C   0  0  0  0  0  0  0  0  0  0  0  0
  -29.9780  -18.6020   20.6970 C   0  0  0  0  0  0  0  0  0  0  0  0
  -29.5490  -19.9900   20.3190 C   0  0  0  0  0  0  0  0  0  0  0  0
  -30.6370  -15.9130   20.1130 C   0  0  0  0  0  0  0  0  0  0  0  0
  -30.6900  -13.3700   19.7160 C   0  0  0  0  0  2  0  0  0  0  0  0
  -29.8690  -12.9300   18.4800 C   0  0  0  0  0  2  0  0  0  0  0  0
  -28.3980  -12.6950   18.8620 C   0  0  0  0  0  2  0  0  0  0  0  0
  -27.8420  -13.8310   19.7560 C   0  0  0  0  0  3  0  0  0  0  0  0
  -28.8000  -14.2350   20.8940 C   0  0  0  0  0  2  0  0  0  0  0  0
  -30.0730  -14.6250   20.2760 N   0  0  0  0  0  0  0  0  0  0  0  0
  -31.8670  -15.8740   19.9750 O   0  0  0  0  0  0  0  0  0  0  0  0
  -25.5100  -14.4550   20.5750 C   0  0  0  0  0  0  0  0  0  0  0  0
  -24.4010  -13.7120   20.8670 C   0  0  0  0  0  0  0  0  0  0  0  0
  -24.7860  -12.3440   20.7070 C   0  0  0  0  0  0  0  0  0  0  0  0
  -26.4970  -13.5470   20.2410 N   0  0  0  0  0  0  0  0  0  0  0  0
  -26.0750  -12.2640   20.3910 N   0  0  0  0  0  0  0  0  0  0  0  0
  -23.9820  -11.1160   20.7750 C   0  0  0  0  0  0  0  0  0  0  0  0
  -24.3920  -10.0050   21.5450 C   0  0  0  0  0  3  0  0  0  0  0  0
  -23.5890   -8.8450   21.6130 C   0  0  0  0  0  3  0  0  0  0  0  0
  -22.3610   -8.7890   20.9090 C   0  0  0  0  0  0  0  0  0  0  0  0
  -21.9690   -9.8900   20.1280 C   0  0  0  0  0  3  0  0  0  0  0  0
  -22.7720  -11.0410   20.0570 C   0  0  0  0  0  3  0  0  0  0  0  0
  -21.5310   -7.6940   20.8940 O   0  0  0  0  0  0  0  0  0  0  0  0
  -21.5750   -6.7430   21.8830 C   0  0  0  0  0  0  0  0  0  0  0  0
  -21.3490   -7.0680   23.2380 C   0  0  0  0  0  3  0  0  0  0  0  0
  -21.3330   -6.0490   24.2120 C   0  0  0  0  0  3  0  0  0  0  0  0
  -21.5350   -4.7080   23.8330 C   0  0  0  0  0  0  0  0  0  0  0  0
  -21.7540   -4.3830   22.4830 C   0  0  0  0  0  3  0  0  0  0  0  0
  -21.7710   -5.3990   21.5110 C   0  0  0  0  0  0  0  0  0  0  0  0
  -21.9630   -5.0770   20.2080 F   0  0  0  0  0  0  0  0  0  0  0  0
  -21.5140   -3.7290   24.7680 F   0  0  0  0  0  0  0  0  0  0  0  0
  -23.0340  -14.2460   21.1810 C   0  0  0  0  0  0  0  0  0  0  0  0
  -22.2640  -13.5210   21.9840 N   0  0  0  0  0  0  0  0  0  0  0  0
  -22.6610  -15.3380   20.7550 O   0  0  0  0  0  0  0  0  0  0  0  0
  -22.5780  -12.6340   22.3480 H   0  0  0  0  0  0  0  0  0  0  0  0
  -21.3470  -13.8580   22.2400 H   0  0  0  0  0  0  0  0  0  0  0  0
  -25.7580  -15.8250   20.5330 N   0  0  0  0  0  0  0  0  0  0  0  0
  -25.0390  -16.5130   20.7260 H   0  0  0  0  0  0  0  0  0  0  0  0
  -26.6430  -16.2410   20.2710 H   0  0  0  0  0  0  0  0  0  0  0  0
  -28.5110  -21.9280   18.4220 C   0  0  0  0  0  3  0  0  0  0  0  0
  -28.5230  -23.3780   18.6010 C   0  0  0  0  0  3  0  0  0  0  0  0
  -27.6970  -24.6670   17.8100 C   0  0  0  0  0  2  0  0  0  0  0  0
  -27.8520  -26.2840   17.8790 O   0  0  0  0  0  0  0  0  0  0  0  0
  -24.3300  -31.2120   22.3000 C   0  0  0  0  0  0  0  0  0  0  0  0
  -26.7450  -27.2320   18.1370 C   0  0  0  0  0  0  0  0  0  0  0  0
  -22.9930  -29.9120   20.6930 C   0  0  0  0  0  3  0  0  0  0  0  0
  -24.2950  -28.7470   18.7930 C   0  0  0  0  0  0  0  0  0  0  0  0
  -25.4380  -30.5000   20.1300 C   0  0  0  0  0  2  0  0  0  0  0  0
  -25.5270  -29.2220   19.2560 C   0  0  0  0  0  0  0  0  0  0  0  0
  -26.7420  -28.4850   18.9140 C   0  0  0  0  0  3  0  0  0  0  0  0
  -25.4630  -26.9090   17.6410 C   0  0  0  0  0  3  0  0  0  0  0  0
  -24.2780  -27.6140   17.9640 C   0  0  0  0  0  3  0  0  0  0  0  0
  -23.0150  -29.4700   19.2060 C   0  0  0  0  0  2  0  0  0  0  0  0
  -24.2820  -30.5620   21.0930 N   0  0  0  0  0  0  0  0  0  0  0  0
  -23.3420  -31.2740   23.0470 O   0  0  0  0  0  0  0  0  0  0  0  0
  -22.6160  -28.7020   21.5890 C   0  0  0  0  0  0  0  0  0  0  0  0
  -21.3180  -28.3490   21.6430 N   0  0  0  0  0  0  0  0  0  0  0  0
  -23.4900  -28.0870   22.2040 O   0  0  0  0  0  0  0  0  0  0  0  0
  -20.6540  -28.9080   21.1270 H   0  0  0  0  0  0  0  0  0  0  0  0
  -18.2680  -26.5450   22.4160 C   0  0  0  0  0  0  0  0  0  0  0  0
  -20.7700  -27.2040   22.3770 C   0  0  0  0  0  3  0  0  0  0  0  0
  -20.9970  -25.8840   21.6030 C   0  0  0  0  0  2  0  0  0  0  0  0
  -19.8150  -25.4970   20.7090 C   0  0  0  0  0  2  0  0  0  0  0  0
  -18.5400  -25.3330   21.5390 C   0  0  0  0  0  2  0  0  0  0  0  0
  -19.3110  -27.4310   22.7950 C   0  0  0  0  0  0  0  0  0  0  0  0
  -18.9960  -28.5590   23.5850 C   0  0  0  0  0  3  0  0  0  0  0  0
  -17.6710  -28.8060   23.9920 C   0  0  0  0  0  3  0  0  0  0  0  0
  -16.6460  -27.9180   23.6240 C   0  0  0  0  0  3  0  0  0  0  0  0
  -16.9460  -26.7880   22.8420 C   0  0  0  0  0  3  0  0  0  0  0  0
  -25.6270  -31.9240   22.7930 C   0  0  0  0  0  3  0  0  0  0  0  0
  -25.2290  -33.1650   23.4790 N   0  0  0  0  0  0  0  0  0  0  0  0
  -25.3320  -34.3960   22.9600 C   0  0  0  0  0  0  0  0  0  0  0  0
  -25.8370  -34.6130   21.8550 O   0  0  0  0  0  0  0  0  0  0  0  0
  -24.7620  -33.0580   24.3670 H   0  0  0  0  0  0  0  0  0  0  0  0
  -23.4050  -35.9860   23.2790 C   0  0  0  0  0  1  0  0  0  0  0  0
  -24.7910  -35.5730   23.7980 C   0  0  0  0  0  3  0  0  0  0  0  0
  -26.9320  -36.5270   24.5320 C   0  0  0  0  0  1  0  0  0  0  0  0
  -25.6860  -36.7520   23.8050 N   0  0  0  0  0  0  0  0  0  0  0  0
  -25.2180  -37.5550   24.2180 H   0  0  0  0  0  0  0  0  0  0  0  0
  -26.4970  -31.0260   23.7580 C   0  0  1  0  0  0  0  0  0  0  0  0
  -25.7030  -30.4410   24.9500 C   0  0  0  0  0  1  0  0  0  0  0  0
  -27.1310  -29.8450   22.9890 C   0  0  0  0  0  1  0  0  0  0  0  0
  -27.6690  -31.8600   24.3290 C   0  0  0  0  0  1  0  0  0  0  0  0
  -28.4660  -21.7590   21.4050 C   0  0  0  0  0  1  0  0  0  0  0  0
  -29.6260  -20.9390   21.3070 O   0  0  0  0  0  0  0  0  0  0  0  0
  -30.5080  -18.4050   22.1190 C   0  0  0  0  0  2  0  0  0  0  0  0
  -32.3360  -19.0650   23.7840 C   0  0  0  0  0  1  0  0  0  0  0  0
  -31.9230  -18.9730   22.3080 C   0  0  0  0  0  2  0  0  0  0  0  0
  1  3  1  0
  2  1  2  0
  2  4  1  0
  3  7  1  0
  3  5  2  0
  4  6  2  0
  5 89  1  0
  6  5  1  0
  6 88  1  0
  7 13  1  0
  8 13  1  0
  9 10  1  0
  9  8  1  0
 11 10  1  0
 11 18  1  0
 11 12  1  0
 13 12  1  0
 14  7  2  0
 15 16  2  0
 16 35  1  0
 17 20  1  0
 17 16  1  0
 18 19  1  0
 18 15  1  0
 19 17  2  0
 20 21  1  0
 21 22  2  0
 23 22  1  0
 24 23  2  0
 25 24  1  0
 25 20  2  0
 26 23  1  0
 26 27  1  0
 27 28  1  0
 28 29  2  0
 30 29  1  0
 30 34  1  0
 31 30  2  0
 32 27  2  0
 32 31  1  0
 33 32  1  0
 35 36  1  0
 36 39  1  0
 36 38  1  0
 37 35  2  0
 40 15  1  0
 40 41  1  0
 42 40  1  0
 43 44  2  0
 43  4  1  0
 45 46  1  0
 45 44  1  0
 46 48  1  0
 47 58  2  0
 48 53  1  0
 49 57  1  0
 49 59  1  0
 50 56  1  0
 50 52  1  0
 51 57  1  0
 52 51  1  0
 53 52  2  0
 54 55  1  0
 54 48  2  0
 55 50  2  0
 56 49  1  0
 57 47  1  0
 59 60  1  0
 59 61  2  0
 62 60  1  0
 63 68  2  0
 63 72  1  0
 64 60  1  0
 64 68  1  0
 65 64  1  0
 66 67  1  0
 66 65  1  0
 67 63  1  0
 68 69  1  0
 69 70  2  0
 71 70  1  0
 72 71  2  0
 73 47  1  0
 73 74  1  0
 73 83  1  0
 74 77  1  0
 75 74  1  0
 75 79  1  0
 76 75  2  0
 79 78  1  0
 79 81  1  0
 81 82  1  0
 81 80  1  0
 83 86  1  1
 83 84  1  0
 85 83  1  0
 88 87  1  0
 89 91  1  0
 91 90  1  0
M  ISO  4   3 100   7 100  45 101  46 101
M  END
>  <TORSDO>  (14) 
F 21

>  <SCORE>  (14) 
-7.572

>  <name>  (14) 
13

>  <ligand_id>  (14) 
13

>  <original_smiles>  (14) 
[H]C(=C([H])C([H])([H])Oc1c([H])c([H])c2c(c1[H])C([H])([H])N(C(=O)C([H])(N([H])C(=O)C([H])(N([H])C([H])([H])[H])C([H])([H])[H])C(C([H])([H])[H])(C([H])([H])[H])C([H])([H])[H])C([H])(C(=O)N([H])C1([H])c3c([H])c([H])c([H])c([H])c3C([H])([H])C([H])([H])C1([H])[H])C2([H])[H])c1c([H])c([H])c(C(=O)N2C([H])([H])C([H])([H])C([H])([H])C([H])(n3nc(-c4c([H])c([H])c(Oc5c([H])c([H])c(F)c([H])c5F)c([H])c4[H])c(C(=O)N([H])[H])c3N([H])[H])C2([H])[H])c(C([H])([H])C([H])([H])C([H])([H])[H])c1OC([H])([H])[H]

>  <smiles>  (14) 
[H]C(=C([H])C([H])([H])Oc1c([H])c([H])c2c(c1[H])C([H])([H])N(C(=O)C([H])(N([H])C(=O)C([H])(N([H])C([H])([H])[H])C([H])([H])[H])C(C([H])([H])[H])(C([H])([H])[H])C([H])([H])[H])C([H])(C(=O)N([H])C1([H])c3c([H])c([H])c([H])c([H])c3C([H])([H])C([H])([H])C1([H])[H])C2([H])[H])c1c([H])c([H])c(C(=O)N2C([H])([H])C([H])([H])C([H])([H])C([H])(n3nc(-c4c([H])c([H])c(Oc5c([H])c([H])c(F)c([H])c5F)c([H])c4[H])c(C(=O)N([H])[H])c3N([H])[H])C2([H])[H])c(C([H])([H])C([H])([H])C([H])([H])[H])c1OC([H])([H])[H]

$$$$
14:0:0
     RDKit          3D

 89 97  0  0  1  0  0  0  0  0999 V2000
  -29.4330  -20.6530   21.3800 C   0  0  0  0  0  3  0  0  0  0  0  0
  -29.0350  -22.0890   21.3560 C   0  0  0  0  0  3  0  0  0  0  0  0
  -28.3850  -21.8360   19.1710 C   0  0  0  0  0  3  0  0  0  0  0  0
  -29.3240  -19.6550   20.3150 C   0  0  0  0  0  0  0  0  0  0  0  0
  -28.4800  -22.8310   20.2330 C   0  0  0  0  0  0  0  0  0  0  0  0
  -28.7750  -20.4010   19.1910 C   0  0  0  0  0  0  0  0  0  0  0  0
  -28.6030  -19.6250   17.8980 C   0  0  0  0  0  1  0  0  0  0  0  0
  -29.6080  -16.6930   20.3540 C   0  0  0  0  0  3  0  0  0  0  0  0
  -29.9980  -18.1060   20.2940 C   0  0  0  0  0  0  0  0  0  0  0  0
  -30.4350  -15.3050   20.2330 C   0  0  0  0  0  0  0  0  0  0  0  0
  -30.3820  -12.8690   19.3680 C   0  0  0  0  0  2  0  0  0  0  0  0
  -29.4470  -12.7000   18.1450 C   0  0  0  0  0  2  0  0  0  0  0  0
  -28.0030  -12.4280   18.5990 C   0  0  0  0  0  2  0  0  0  0  0  0
  -27.5670  -13.3800   19.7410 C   0  0  0  0  0  3  0  0  0  0  0  0
  -28.6300  -13.5200   20.8500 C   0  0  0  0  0  2  0  0  0  0  0  0
  -29.8650  -14.0030   20.2170 N   0  0  0  0  0  0  0  0  0  0  0  0
  -31.6480  -15.2750   19.9800 O   0  0  0  0  0  0  0  0  0  0  0  0
  -25.2080  -13.9100   20.5520 C   0  0  0  0  0  0  0  0  0  0  0  0
  -24.1590  -13.1190   20.9310 C   0  0  0  0  0  0  0  0  0  0  0  0
  -24.6360  -11.7730   20.8730 C   0  0  0  0  0  0  0  0  0  0  0  0
  -26.2510  -13.0470   20.2730 N   0  0  0  0  0  0  0  0  0  0  0  0
  -25.9220  -11.7550   20.5350 N   0  0  0  0  0  0  0  0  0  0  0  0
  -23.9220  -10.5030   21.0590 C   0  0  0  0  0  0  0  0  0  0  0  0
  -24.3720   -9.5270   21.9760 C   0  0  0  0  0  3  0  0  0  0  0  0
  -23.6540   -8.3240   22.1510 C   0  0  0  0  0  3  0  0  0  0  0  0
  -22.4720   -8.0880   21.4110 C   0  0  0  0  0  0  0  0  0  0  0  0
  -22.0410   -9.0520   20.4820 C   0  0  0  0  0  3  0  0  0  0  0  0
  -22.7590  -10.2460   20.3040 C   0  0  0  0  0  3  0  0  0  0  0  0
  -21.7250   -6.9380   21.4960 O   0  0  0  0  0  0  0  0  0  0  0  0
  -21.6890   -6.1870   22.6440 C   0  0  0  0  0  0  0  0  0  0  0  0
  -21.2420   -6.7230   23.8710 C   0  0  0  0  0  3  0  0  0  0  0  0
  -21.1550   -5.8970   25.0100 C   0  0  0  0  0  3  0  0  0  0  0  0
  -21.5030   -4.5370   24.9220 C   0  0  0  0  0  0  0  0  0  0  0  0
  -21.9430   -3.9990   23.6990 C   0  0  0  0  0  3  0  0  0  0  0  0
  -22.0310   -4.8220   22.5620 C   0  0  0  0  0  0  0  0  0  0  0  0
  -22.4350   -4.2940   21.3820 F   0  0  0  0  0  0  0  0  0  0  0  0
  -21.4120   -3.7410   26.0130 F   0  0  0  0  0  0  0  0  0  0  0  0
  -22.7640  -13.5820   21.2310 C   0  0  0  0  0  0  0  0  0  0  0  0
  -22.0570  -12.8730   22.1040 N   0  0  0  0  0  0  0  0  0  0  0  0
  -22.3100  -14.6090   20.7270 O   0  0  0  0  0  0  0  0  0  0  0  0
  -22.4390  -12.0430   22.5320 H   0  0  0  0  0  0  0  0  0  0  0  0
  -21.1220  -13.1650   22.3480 H   0  0  0  0  0  0  0  0  0  0  0  0
  -25.3560  -15.2850   20.3930 N   0  0  0  0  0  0  0  0  0  0  0  0
  -24.5850  -15.9290   20.5330 H   0  0  0  0  0  0  0  0  0  0  0  0
  -26.1910  -15.7380   20.0450 H   0  0  0  0  0  0  0  0  0  0  0  0
  -31.3120  -18.3050   20.1420 O   0  0  0  0  0  0  0  0  0  0  0  0
  -31.4490  -19.2430   20.0840 H   0  0  0  0  0  0  0  0  0  0  0  0
  -27.7130  -24.3920   20.1680 C   0  0  0  0  0  2  0  0  0  0  0  0
  -28.1260  -25.9560   20.3400 O   0  0  0  0  0  0  0  0  0  0  0  0
  -24.6190  -31.9480   23.2550 C   0  0  0  0  0  0  0  0  0  0  0  0
  -27.1410  -27.0660   20.2630 C   0  0  0  0  0  0  0  0  0  0  0  0
  -23.4150  -30.5550   21.6220 C   0  0  0  0  0  3  0  0  0  0  0  0
  -24.8540  -28.9450   20.2060 C   0  0  0  0  0  0  0  0  0  0  0  0
  -25.9830  -30.7560   21.4750 C   0  0  0  0  0  2  0  0  0  0  0  0
  -26.0440  -29.3470   20.8260 C   0  0  0  0  0  0  0  0  0  0  0  0
  -27.1840  -28.4280   20.8310 C   0  0  0  0  0  3  0  0  0  0  0  0
  -25.9220  -26.8150   19.5900 C   0  0  0  0  0  3  0  0  0  0  0  0
  -24.8160  -27.6980   19.5670 C   0  0  0  0  0  3  0  0  0  0  0  0
  -23.6400  -29.8690   20.2480 C   0  0  0  0  0  2  0  0  0  0  0  0
  -24.6930  -31.1120   22.1700 N   0  0  0  0  0  0  0  0  0  0  0  0
  -23.5300  -32.2480   23.7740 O   0  0  0  0  0  0  0  0  0  0  0  0
  -22.7150  -29.5640   22.5900 C   0  0  0  0  0  0  0  0  0  0  0  0
  -21.3860  -29.4010   22.4580 N   0  0  0  0  0  0  0  0  0  0  0  0
  -23.3750  -28.9440   23.4270 O   0  0  0  0  0  0  0  0  0  0  0  0
  -20.9070  -29.9530   21.7590 H   0  0  0  0  0  0  0  0  0  0  0  0
  -17.9950  -28.2160   22.9650 C   0  0  0  0  0  0  0  0  0  0  0  0
  -20.5560  -28.4730   23.2320 C   0  0  0  0  0  3  0  0  0  0  0  0
  -20.6520  -27.0370   22.6680 C   0  0  0  0  0  2  0  0  0  0  0  0
  -19.5500  -26.7120   21.6530 C   0  0  0  0  0  2  0  0  0  0  0  0
  -18.1690  -26.8640   22.2940 C   0  0  0  0  0  2  0  0  0  0  0  0
  -19.1150  -28.9780   23.3910 C   0  0  0  0  0  0  0  0  0  0  0  0
  -18.8970  -30.2420   23.9820 C   0  0  0  0  0  3  0  0  0  0  0  0
  -17.5920  -30.7440   24.1480 C   0  0  0  0  0  3  0  0  0  0  0  0
  -16.4880  -29.9810   23.7350 C   0  0  0  0  0  3  0  0  0  0  0  0
  -16.6890  -28.7180   23.1490 C   0  0  0  0  0  3  0  0  0  0  0  0
  -25.8950  -32.5840   23.8840 C   0  0  0  0  0  3  0  0  0  0  0  0
  -26.3910  -31.8210   25.1740 C   0  0  1  0  0  0  0  0  0  0  0  0
  -25.2870  -31.6010   26.2350 C   0  0  0  0  0  1  0  0  0  0  0  0
  -26.9700  -30.4350   24.8100 C   0  0  0  0  0  1  0  0  0  0  0  0
  -27.5410  -32.6140   25.8400 C   0  0  0  0  0  1  0  0  0  0  0  0
  -25.5870  -33.9870   24.2110 N   0  0  0  0  0  0  0  0  0  0  0  0
  -25.9120  -35.0410   23.4510 C   0  0  0  0  0  0  0  0  0  0  0  0
  -26.5650  -34.9340   22.4100 O   0  0  0  0  0  0  0  0  0  0  0  0
  -25.0020  -34.1420   25.0190 H   0  0  0  0  0  0  0  0  0  0  0  0
  -24.1800  -36.8420   23.1360 C   0  0  0  0  0  1  0  0  0  0  0  0
  -25.4400  -36.4340   23.9160 C   0  0  0  0  0  3  0  0  0  0  0  0
  -27.5920  -37.3250   24.6960 C   0  0  0  0  0  1  0  0  0  0  0  0
  -26.4720  -37.4840   23.7730 N   0  0  0  0  0  0  0  0  0  0  0  0
  -26.0700  -38.4070   23.9170 H   0  0  0  0  0  0  0  0  0  0  0  0
  2  1  1  0
  3  6  2  0
  3  5  1  0
  4  1  2  0
  5  2  2  0
  6  4  1  0
  7  6  1  0
  9  4  1  0
  9  8  2  0
 10  8  1  0
 11 16  1  0
 12 13  1  0
 12 11  1  0
 14 13  1  0
 14 21  1  0
 14 15  1  0
 16 10  1  0
 16 15  1  0
 17 10  2  0
 18 19  2  0
 19 38  1  0
 20 19  1  0
 20 23  1  0
 21 22  1  0
 21 18  1  0
 22 20  2  0
 23 24  1  0
 24 25  2  0
 26 29  1  0
 26 25  1  0
 27 26  2  0
 28 27  1  0
 28 23  2  0
 29 30  1  0
 30 31  1  0
 31 32  2  0
 33 32  1  0
 33 37  1  0
 34 33  2  0
 35 30  2  0
 35 34  1  0
 36 35  1  0
 38 39  1  0
 39 42  1  0
 39 41  1  0
 40 38  2  0
 43 44  1  0
 43 18  1  0
 45 43  1  0
 46  9  1  0
 47 46  1  0
 48  5  1  0
 48 49  1  0
 50 61  2  0
 51 49  1  0
 51 56  1  0
 52 60  1  0
 52 62  1  0
 53 59  1  0
 53 55  1  0
 54 60  1  0
 55 56  2  0
 55 54  1  0
 57 51  2  0
 58 57  1  0
 58 53  2  0
 59 52  1  0
 60 50  1  0
 62 64  2  0
 63 62  1  0
 65 63  1  0
 66 75  2  0
 66 71  1  0
 67 63  1  0
 67 71  1  0
 68 67  1  0
 69 70  1  0
 69 68  1  0
 70 66  1  0
 71 72  2  0
 72 73  1  0
 74 73  2  0
 75 74  1  0
 76 50  1  0
 76 81  1  0
 76 77  1  0
 77 80  1  1
 77 78  1  0
 79 77  1  0
 81 84  1  0
 82 86  1  0
 82 81  1  0
 83 82  2  0
 86 85  1  0
 88 86  1  0
 88 89  1  0
 88 87  1  0
M  ISO  4   8 100  10 100  48 101  49 101
M  END
>  <TORSDO>  (15) 
F 19

>  <SCORE>  (15) 
-15.106

>  <name>  (15) 
14

>  <ligand_id>  (15) 
14

>  <original_smiles>  (15) 
[H]OC(=C([H])C(=O)N1C([H])([H])C([H])([H])C([H])([H])C([H])(n2nc(-c3c([H])c([H])c(Oc4c([H])c([H])c(F)c([H])c4F)c([H])c3[H])c(C(=O)N([H])[H])c2N([H])[H])C1([H])[H])c1c([H])c([H])c(C([H])([H])Oc2c([H])c([H])c3c(c2[H])C([H])([H])N(C(=O)C([H])(N([H])C(=O)C([H])(N([H])C([H])([H])[H])C([H])([H])[H])C(C([H])([H])[H])(C([H])([H])[H])C([H])([H])[H])C([H])(C(=O)N([H])C2([H])c4c([H])c([H])c([H])c([H])c4C([H])([H])C([H])([H])C2([H])[H])C3([H])[H])c([H])c1C([H])([H])[H]

>  <smiles>  (15) 
[H]OC(=C([H])C(=O)N1C([H])([H])C([H])([H])C([H])([H])C([H])(n2nc(-c3c([H])c([H])c(Oc4c([H])c([H])c(F)c([H])c4F)c([H])c3[H])c(C(=O)N([H])[H])c2N([H])[H])C1([H])[H])c1c([H])c([H])c(C([H])([H])Oc2c([H])c([H])c3c(c2[H])C([H])([H])N(C(=O)C([H])(N([H])C(=O)C([H])(N([H])C([H])([H])[H])C([H])([H])[H])C(C([H])([H])[H])(C([H])([H])[H])C([H])([H])[H])C([H])(C(=O)N([H])C2([H])c4c([H])c([H])c([H])c([H])c4C([H])([H])C([H])([H])C2([H])[H])C3([H])[H])c([H])c1C([H])([H])[H]

$$$$
15:0:0
     RDKit          3D

 91 99  0  0  1  0  0  0  0  0999 V2000
  -29.7280  -21.0470   20.7510 C   0  0  0  0  0  0  0  0  0  0  0  0
  -28.8040  -22.0420   20.3930 N   0  0  0  0  0  0  0  0  0  0  0  0
  -30.8000  -21.4630   21.1990 O   0  0  0  0  0  0  0  0  0  0  0  0
  -27.9080  -21.7390   20.0350 H   0  0  0  0  0  0  0  0  0  0  0  0
  -30.4350  -18.6750   21.6060 C   0  0  0  0  0  3  0  0  0  0  0  0
  -30.6400  -17.2520   21.5080 C   0  0  0  0  0  3  0  0  0  0  0  0
  -28.9580  -18.6200   19.7620 C   0  0  0  0  0  3  0  0  0  0  0  0
  -29.6170  -19.4550   20.7240 C   0  0  0  0  0  0  0  0  0  0  0  0
  -30.0370  -16.4130   20.5230 C   0  0  0  0  0  0  0  0  0  0  0  0
  -29.1560  -17.1750   19.6610 C   0  0  0  0  0  0  0  0  0  0  0  0
  -30.6160  -14.9530   20.2320 C   0  0  0  0  0  0  0  0  0  0  0  0
  -30.3260  -12.6820   19.1880 C   0  0  0  0  0  2  0  0  0  0  0  0
  -29.3590  -12.7570   17.9880 C   0  0  0  0  0  2  0  0  0  0  0  0
  -27.9080  -12.5590   18.4620 C   0  0  0  0  0  2  0  0  0  0  0  0
  -27.5660  -13.4270   19.7030 C   0  0  0  0  0  3  0  0  0  0  0  0
  -28.6620  -13.3810   20.7860 C   0  0  0  0  0  2  0  0  0  0  0  0
  -29.9270  -13.7500   20.1480 N   0  0  0  0  0  0  0  0  0  0  0  0
  -31.8070  -14.9310   19.9060 O   0  0  0  0  0  0  0  0  0  0  0  0
  -25.2150  -13.9770   20.5440 C   0  0  0  0  0  0  0  0  0  0  0  0
  -24.1660  -13.1900   20.9300 C   0  0  0  0  0  0  0  0  0  0  0  0
  -24.6320  -11.8420   20.8520 C   0  0  0  0  0  0  0  0  0  0  0  0
  -26.2500  -13.1090   20.2450 N   0  0  0  0  0  0  0  0  0  0  0  0
  -25.9120  -11.8180   20.4980 N   0  0  0  0  0  0  0  0  0  0  0  0
  -23.9140  -10.5720   21.0350 C   0  0  0  0  0  0  0  0  0  0  0  0
  -24.3570   -9.5980   21.9560 C   0  0  0  0  0  3  0  0  0  0  0  0
  -23.6380   -8.3960   22.1280 C   0  0  0  0  0  3  0  0  0  0  0  0
  -22.4610   -8.1590   21.3780 C   0  0  0  0  0  0  0  0  0  0  0  0
  -22.0370   -9.1230   20.4460 C   0  0  0  0  0  3  0  0  0  0  0  0
  -22.7580  -10.3160   20.2720 C   0  0  0  0  0  3  0  0  0  0  0  0
  -21.7110   -7.0100   21.4610 O   0  0  0  0  0  0  0  0  0  0  0  0
  -21.6510   -6.2710   22.6150 C   0  0  0  0  0  0  0  0  0  0  0  0
  -21.1540   -6.8130   23.8210 C   0  0  0  0  0  3  0  0  0  0  0  0
  -21.0440   -5.9990   24.9650 C   0  0  0  0  0  3  0  0  0  0  0  0
  -21.4200   -4.6430   24.9050 C   0  0  0  0  0  0  0  0  0  0  0  0
  -21.9090   -4.1010   23.7050 C   0  0  0  0  0  3  0  0  0  0  0  0
  -22.0210   -4.9130   22.5620 C   0  0  0  0  0  0  0  0  0  0  0  0
  -22.4740   -4.3790   21.4010 F   0  0  0  0  0  0  0  0  0  0  0  0
  -21.3070   -3.8590   26.0030 F   0  0  0  0  0  0  0  0  0  0  0  0
  -22.7770  -13.6570   21.2560 C   0  0  0  0  0  0  0  0  0  0  0  0
  -22.0760  -12.9360   22.1250 N   0  0  0  0  0  0  0  0  0  0  0  0
  -22.3250  -14.6950   20.7780 O   0  0  0  0  0  0  0  0  0  0  0  0
  -22.4550  -12.0950   22.5340 H   0  0  0  0  0  0  0  0  0  0  0  0
  -21.1450  -13.2310   22.3850 H   0  0  0  0  0  0  0  0  0  0  0  0
  -25.3720  -15.3530   20.3960 N   0  0  0  0  0  0  0  0  0  0  0  0
  -24.6160  -16.0080   20.5550 H   0  0  0  0  0  0  0  0  0  0  0  0
  -26.2200  -15.7960   20.0610 H   0  0  0  0  0  0  0  0  0  0  0  0
  -28.5210  -16.5310   18.6370 O   0  0  0  0  0  0  0  0  0  0  0  0
  -28.0110  -17.1150   18.0830 H   0  0  0  0  0  0  0  0  0  0  0  0
  -29.0580  -23.5890   20.5110 C   0  0  0  0  0  3  0  0  0  0  0  0
  -27.9750  -24.7900   20.1480 C   0  0  0  0  0  3  0  0  0  0  0  0
  -28.2420  -26.2980   20.3230 O   0  0  0  0  0  0  0  0  0  0  0  0
  -24.6130  -31.9450   23.2700 C   0  0  0  0  0  0  0  0  0  0  0  0
  -27.1770  -27.2530   20.2500 C   0  0  0  0  0  0  0  0  0  0  0  0
  -23.4060  -30.5430   21.6410 C   0  0  0  0  0  3  0  0  0  0  0  0
  -24.8470  -28.9690   20.2170 C   0  0  0  0  0  0  0  0  0  0  0  0
  -25.9560  -30.8180   21.4650 C   0  0  0  0  0  2  0  0  0  0  0  0
  -26.0270  -29.4270   20.8190 C   0  0  0  0  0  0  0  0  0  0  0  0
  -27.1940  -28.5830   20.8190 C   0  0  0  0  0  3  0  0  0  0  0  0
  -25.9730  -26.8860   19.6090 C   0  0  0  0  0  3  0  0  0  0  0  0
  -24.8300  -27.7110   19.5980 C   0  0  0  0  0  3  0  0  0  0  0  0
  -23.6200  -29.8620   20.2640 C   0  0  0  0  0  2  0  0  0  0  0  0
  -24.6780  -31.1230   22.1810 N   0  0  0  0  0  0  0  0  0  0  0  0
  -23.5300  -32.2320   23.8010 O   0  0  0  0  0  0  0  0  0  0  0  0
  -22.7330  -29.5370   22.6100 C   0  0  0  0  0  0  0  0  0  0  0  0
  -21.4100  -29.3450   22.4680 N   0  0  0  0  0  0  0  0  0  0  0  0
  -23.4040  -28.9330   23.4500 O   0  0  0  0  0  0  0  0  0  0  0  0
  -20.9250  -29.8850   21.7640 H   0  0  0  0  0  0  0  0  0  0  0  0
  -18.0400  -28.1070   22.9430 C   0  0  0  0  0  0  0  0  0  0  0  0
  -20.5910  -28.4100   23.2440 C   0  0  0  0  0  3  0  0  0  0  0  0
  -20.7210  -26.9700   22.6960 C   0  0  0  0  0  2  0  0  0  0  0  0
  -19.6380  -26.6140   21.6710 C   0  0  0  0  0  2  0  0  0  0  0  0
  -18.2450  -26.7500   22.2920 C   0  0  0  0  0  2  0  0  0  0  0  0
  -19.1410  -28.8940   23.3740 C   0  0  0  0  0  0  0  0  0  0  0  0
  -18.8940  -30.1620   23.9420 C   0  0  0  0  0  3  0  0  0  0  0  0
  -17.5800  -30.6460   24.0830 C   0  0  0  0  0  3  0  0  0  0  0  0
  -16.4930  -29.8580   23.6670 C   0  0  0  0  0  3  0  0  0  0  0  0
  -16.7230  -28.5910   23.1020 C   0  0  0  0  0  3  0  0  0  0  0  0
  -25.8950  -32.5810   23.8890 C   0  0  0  0  0  3  0  0  0  0  0  0
  -26.4080  -31.8180   25.1720 C   0  0  1  0  0  0  0  0  0  0  0  0
  -25.3130  -31.5830   26.2370 C   0  0  0  0  0  1  0  0  0  0  0  0
  -26.9970  -30.4390   24.7930 C   0  0  0  0  0  1  0  0  0  0  0  0
  -27.5550  -32.6180   25.8330 C   0  0  0  0  0  1  0  0  0  0  0  0
  -25.5870  -33.9820   24.2150 N   0  0  0  0  0  0  0  0  0  0  0  0
  -25.9010  -35.0330   23.4460 C   0  0  0  0  0  0  0  0  0  0  0  0
  -26.5500  -34.9250   22.4020 O   0  0  0  0  0  0  0  0  0  0  0  0
  -25.0070  -34.1390   25.0270 H   0  0  0  0  0  0  0  0  0  0  0  0
  -24.1640  -36.8250   23.1190 C   0  0  0  0  0  1  0  0  0  0  0  0
  -25.4230  -36.4240   23.9070 C   0  0  0  0  0  3  0  0  0  0  0  0
  -27.5650  -37.3240   24.7000 C   0  0  0  0  0  1  0  0  0  0  0  0
  -26.4510  -37.4780   23.7670 N   0  0  0  0  0  0  0  0  0  0  0  0
  -26.0450  -38.3980   23.9080 H   0  0  0  0  0  0  0  0  0  0  0  0
  1  3  2  0
  2 49  1  0
  2  1  1  0
  4  2  1  0
  6  5  1  0
  7  8  1  0
  8  1  1  0
  8  5  2  0
  9  6  2  0
 10  7  2  0
 10  9  1  0
 11  9  1  0
 12 17  1  0
 13 14  1  0
 13 12  1  0
 15 14  1  0
 15 22  1  0
 15 16  1  0
 17 11  1  0
 17 16  1  0
 18 11  2  0
 19 20  2  0
 20 39  1  0
 21 20  1  0
 21 24  1  0
 22 23  1  0
 22 19  1  0
 23 21  2  0
 24 25  1  0
 25 26  2  0
 27 30  1  0
 27 26  1  0
 28 27  2  0
 29 28  1  0
 29 24  2  0
 30 31  1  0
 31 32  1  0
 32 33  2  0
 34 33  1  0
 34 38  1  0
 35 34  2  0
 36 31  2  0
 36 35  1  0
 37 36  1  0
 39 40  1  0
 40 43  1  0
 40 42  1  0
 41 39  2  0
 44 19  1  0
 44 45  1  0
 46 44  1  0
 47 10  1  0
 48 47  1  0
 50 51  1  0
 50 49  2  0
 52 63  2  0
 53 51  1  0
 53 58  1  0
 54 62  1  0
 54 64  1  0
 55 61  1  0
 55 57  1  0
 56 62  1  0
 57 56  1  0
 58 57  2  0
 59 53  2  0
 60 59  1  0
 60 55  2  0
 61 54  1  0
 62 52  1  0
 64 66  2  0
 65 64  1  0
 67 65  1  0
 68 77  2  0
 68 73  1  0
 69 65  1  0
 69 73  1  0
 70 69  1  0
 71 72  1  0
 71 70  1  0
 72 68  1  0
 73 74  2  0
 74 75  1  0
 76 75  2  0
 77 76  1  0
 78 52  1  0
 78 83  1  0
 78 79  1  0
 79 82  1  1
 79 80  1  0
 81 79  1  0
 83 86  1  0
 84 88  1  0
 84 83  1  0
 85 84  2  0
 88 87  1  0
 90 88  1  0
 90 91  1  0
 90 89  1  0
M  ISO  4   9 100  11 100  50 101  51 101
M  END
>  <TORSDO>  (16) 
F 20

>  <SCORE>  (16) 
-14.309

>  <name>  (16) 
15

>  <ligand_id>  (16) 
15

>  <original_smiles>  (16) 
[H]Oc1c([H])c(C(=O)N([H])C([H])([H])C([H])([H])Oc2c([H])c([H])c3c(c2[H])C([H])([H])N(C(=O)C([H])(N([H])C(=O)C([H])(N([H])C([H])([H])[H])C([H])([H])[H])C(C([H])([H])[H])(C([H])([H])[H])C([H])([H])[H])C([H])(C(=O)N([H])C2([H])c4c([H])c([H])c([H])c([H])c4C([H])([H])C([H])([H])C2([H])[H])C3([H])[H])c([H])c([H])c1C(=O)N1C([H])([H])C([H])([H])C([H])([H])C([H])(n2nc(-c3c([H])c([H])c(Oc4c([H])c([H])c(F)c([H])c4F)c([H])c3[H])c(C(=O)N([H])[H])c2N([H])[H])C1([H])[H]

>  <smiles>  (16) 
[H]Oc1c([H])c(C(=O)N([H])C([H])([H])C([H])([H])Oc2c([H])c([H])c3c(c2[H])C([H])([H])N(C(=O)C([H])(N([H])C(=O)C([H])(N([H])C([H])([H])[H])C([H])([H])[H])C(C([H])([H])[H])(C([H])([H])[H])C([H])([H])[H])C([H])(C(=O)N([H])C2([H])c4c([H])c([H])c([H])c([H])c4C([H])([H])C([H])([H])C2([H])[H])C3([H])[H])c([H])c([H])c1C(=O)N1C([H])([H])C([H])([H])C([H])([H])C([H])(n2nc(-c3c([H])c([H])c(Oc4c([H])c([H])c(F)c([H])c4F)c([H])c3[H])c(C(=O)N([H])[H])c2N([H])[H])C1([H])[H]

$$$$
16:0:0
     RDKit          3D

 96104  0  0  1  0  0  0  0  0999 V2000
  -29.5050  -24.9800   22.3210 C   0  0  0  0  0  3  0  0  0  0  0  0
  -30.2310  -26.8090   20.8970 C   0  0  0  0  0  3  0  0  0  0  0  0
  -30.7390  -24.3280   22.0930 C   0  0  0  0  0  3  0  0  0  0  0  0
  -31.4560  -26.1530   20.6650 C   0  0  0  0  0  3  0  0  0  0  0  0
  -29.2190  -26.2120   21.6920 C   0  0  0  0  0  0  0  0  0  0  0  0
  -31.7170  -24.8910   21.2430 C   0  0  0  0  0  0  0  0  0  0  0  0
  -27.9130  -26.9250   21.8780 C   0  0  0  0  0  0  0  0  0  0  0  0
  -27.2880  -27.4130   20.9300 O   0  0  0  0  0  0  0  0  0  0  0  0
  -27.2590  -26.9540   23.2720 C   0  0  0  0  0  2  0  0  0  0  0  0
  -27.8980  -28.0320   24.1910 C   0  0  0  0  0  2  0  0  0  0  0  0
  -27.7290  -29.4870   23.6980 C   0  0  0  0  0  2  0  0  0  0  0  0
  -27.7060  -30.5410   24.8350 C   0  0  0  0  0  2  0  0  0  0  0  0
  -28.2760  -29.9810   26.1580 C   0  0  0  0  0  2  0  0  0  0  0  0
  -27.2240  -29.4880   27.1740 C   0  0  0  0  0  2  0  0  0  0  0  0
  -27.3420  -30.2410   28.5150 C   0  0  0  0  0  2  0  0  0  0  0  0
  -28.6770  -30.0810   29.2710 C   0  0  0  0  0  2  0  0  0  0  0  0
  -30.6430  -31.2830   28.3200 C   0  0  0  0  0  0  0  0  0  0  0  0
  -31.3020  -32.7640   26.4730 C   0  0  0  0  0  2  0  0  0  0  0  0
  -32.7670  -33.2240   26.4470 C   0  0  0  0  0  2  0  0  0  0  0  0
  -32.9420  -34.4870   27.3020 C   0  0  0  0  0  2  0  0  0  0  0  0
  -32.3530  -34.3230   28.7250 C   0  0  0  0  0  3  0  0  0  0  0  0
  -30.9110  -33.7560   28.6860 C   0  0  0  0  0  2  0  0  0  0  0  0
  -30.8810  -32.5360   27.8620 N   0  0  0  0  0  0  0  0  0  0  0  0
  -31.0990  -30.2630   27.7940 O   0  0  0  0  0  0  0  0  0  0  0  0
  -29.5970  -31.2200   29.1560 N   0  0  0  0  0  0  0  0  0  0  0  0
  -29.2420  -32.1110   29.4710 H   0  0  0  0  0  0  0  0  0  0  0  0
  -31.5540  -36.1010   30.4130 C   0  0  0  0  0  0  0  0  0  0  0  0
  -32.1280  -37.2600   30.8640 C   0  0  0  0  0  0  0  0  0  0  0  0
  -33.3660  -37.3860   30.1600 C   0  0  0  0  0  0  0  0  0  0  0  0
  -32.4290  -35.5800   29.4700 N   0  0  0  0  0  0  0  0  0  0  0  0
  -33.5020  -36.3950   29.2870 N   0  0  0  0  0  0  0  0  0  0  0  0
  -34.4520  -38.3650   30.3080 C   0  0  0  0  0  0  0  0  0  0  0  0
  -35.4520  -38.5110   29.3210 C   0  0  0  0  0  3  0  0  0  0  0  0
  -36.4760  -39.4700   29.4760 C   0  0  0  0  0  3  0  0  0  0  0  0
  -36.5040  -40.2990   30.6220 C   0  0  0  0  0  0  0  0  0  0  0  0
  -35.5190  -40.1350   31.6110 C   0  0  0  0  0  3  0  0  0  0  0  0
  -34.5030  -39.1770   31.4590 C   0  0  0  0  0  3  0  0  0  0  0  0
  -37.4750  -41.2400   30.8700 O   0  0  0  0  0  0  0  0  0  0  0  0
  -38.7080  -41.1780   30.2690 C   0  0  0  0  0  0  0  0  0  0  0  0
  -38.8610  -41.3030   28.8700 C   0  0  0  0  0  3  0  0  0  0  0  0
  -40.1500  -41.3050   28.3000 C   0  0  0  0  0  3  0  0  0  0  0  0
  -41.2850  -41.1890   29.1260 C   0  0  0  0  0  0  0  0  0  0  0  0
  -41.1340  -41.0720   30.5180 C   0  0  0  0  0  3  0  0  0  0  0  0
  -39.8480  -41.0700   31.0890 C   0  0  0  0  0  0  0  0  0  0  0  0
  -39.7100  -40.9760   32.4330 F   0  0  0  0  0  0  0  0  0  0  0  0
  -42.5230  -41.1980   28.5810 F   0  0  0  0  0  0  0  0  0  0  0  0
  -31.6050  -38.1530   31.9520 C   0  0  0  0  0  0  0  0  0  0  0  0
  -31.8730  -39.4510   31.8620 N   0  0  0  0  0  0  0  0  0  0  0  0
  -30.9130  -37.7080   32.8670 O   0  0  0  0  0  0  0  0  0  0  0  0
  -32.4190  -39.8200   31.0990 H   0  0  0  0  0  0  0  0  0  0  0  0
  -31.5220  -40.0840   32.5660 H   0  0  0  0  0  0  0  0  0  0  0  0
  -30.3760  -35.4370   30.7410 N   0  0  0  0  0  0  0  0  0  0  0  0
  -29.7460  -35.7770   31.4590 H   0  0  0  0  0  0  0  0  0  0  0  0
  -30.0840  -34.5530   30.3420 H   0  0  0  0  0  0  0  0  0  0  0  0
  -33.0000  -24.1020   20.9680 C   0  0  0  0  0  2  0  0  0  0  0  0
  -32.8990  -23.0630   19.9860 O   0  0  0  0  0  0  0  0  0  0  0  0
  -30.6970  -24.6220   13.3750 C   0  0  0  0  0  0  0  0  0  0  0  0
  -31.8840  -23.1150   19.0550 C   0  0  0  0  0  0  0  0  0  0  0  0
  -28.9190  -24.2430   15.0610 C   0  0  0  0  0  3  0  0  0  0  0  0
  -29.6960  -23.2450   17.2730 C   0  0  0  0  0  0  0  0  0  0  0  0
  -31.2040  -23.1090   15.2800 C   0  0  0  0  0  2  0  0  0  0  0  0
  -31.0020  -23.1440   16.7760 C   0  0  0  0  0  0  0  0  0  0  0  0
  -32.0990  -23.0800   17.6570 C   0  0  0  0  0  3  0  0  0  0  0  0
  -30.5680  -23.2010   19.5420 C   0  0  0  0  0  3  0  0  0  0  0  0
  -29.4710  -23.2770   18.6610 C   0  0  0  0  0  3  0  0  0  0  0  0
  -28.5800  -23.3130   16.2570 C   0  0  0  0  0  2  0  0  0  0  0  0
  -30.3100  -24.0250   14.5380 N   0  0  0  0  0  0  0  0  0  0  0  0
  -29.9090  -25.3110   12.7140 O   0  0  0  0  0  0  0  0  0  0  0  0
  -28.6560  -25.7050   15.4840 C   0  0  0  0  0  0  0  0  0  0  0  0
  -28.7700  -26.6320   14.5200 N   0  0  0  0  0  0  0  0  0  0  0  0
  -28.3320  -25.9800   16.6420 O   0  0  0  0  0  0  0  0  0  0  0  0
  -29.0560  -26.3290   13.6000 H   0  0  0  0  0  0  0  0  0  0  0  0
  -30.4110  -29.8110   15.0140 C   0  0  0  0  0  0  0  0  0  0  0  0
  -28.5320  -28.0690   14.6720 C   0  0  0  0  0  3  0  0  0  0  0  0
  -28.2910  -28.7410   13.3000 C   0  0  0  0  0  2  0  0  0  0  0  0
  -29.5710  -29.3060   12.6780 C   0  0  0  0  0  2  0  0  0  0  0  0
  -30.2090  -30.3450   13.6060 C   0  0  0  0  0  2  0  0  0  0  0  0
  -29.6320  -28.7300   15.5080 C   0  0  0  0  0  0  0  0  0  0  0  0
  -29.8890  -28.2440   16.8090 C   0  0  0  0  0  3  0  0  0  0  0  0
  -30.8910  -28.8230   17.6120 C   0  0  0  0  0  3  0  0  0  0  0  0
  -31.6430  -29.9060   17.1240 C   0  0  0  0  0  3  0  0  0  0  0  0
  -31.4020  -30.3990   15.8300 C   0  0  0  0  0  3  0  0  0  0  0  0
  -32.1430  -24.4500   12.8070 C   0  0  0  0  0  3  0  0  0  0  0  0
  -33.1900  -25.4370   13.4570 C   0  0  1  0  0  0  0  0  0  0  0  0
  -32.7560  -26.9210   13.4030 C   0  0  0  0  0  1  0  0  0  0  0  0
  -33.4520  -25.0660   14.9360 C   0  0  0  0  0  1  0  0  0  0  0  0
  -34.5490  -25.3120   12.7270 C   0  0  0  0  0  1  0  0  0  0  0  0
  -32.0740  -24.6430   11.3530 N   0  0  0  0  0  0  0  0  0  0  0  0
  -31.5540  -23.7560   10.4950 C   0  0  0  0  0  0  0  0  0  0  0  0
  -31.1450  -22.6440   10.8420 O   0  0  0  0  0  0  0  0  0  0  0  0
  -32.3490  -25.5480   10.9970 H   0  0  0  0  0  0  0  0  0  0  0  0
  -30.0700  -24.6780    8.6950 C   0  0  0  0  0  1  0  0  0  0  0  0
  -31.4830  -24.1670    9.0130 C   0  0  0  0  0  3  0  0  0  0  0  0
  -33.2780  -22.8490    7.9820 C   0  0  0  0  0  1  0  0  0  0  0  0
  -31.8390  -23.0780    8.0800 N   0  0  0  0  0  0  0  0  0  0  0  0
  -31.4950  -23.2830    7.1460 H   0  0  0  0  0  0  0  0  0  0  0  0
  2  5  1  0
  3  1  1  0
  4  2  2  0
  4  6  1  0
  5  7  1  0
  5  1  2  0
  6  3  2  0
  7  9  1  0
  8  7  2  0
  9 10  1  0
 11 10  1  0
 11 12  1  0
 12 13  1  0
 13 14  1  0
 14 15  1  0
 15 16  1  0
 17 25  1  0
 18 23  1  0
 19 18  1  0
 19 20  1  0
 21 20  1  0
 21 30  1  0
 22 21  1  0
 23 17  1  0
 23 22  1  0
 24 17  2  0
 25 16  1  0
 25 26  1  0
 27 52  1  0
 27 28  2  0
 28 47  1  0
 29 32  1  0
 29 28  1  0
 30 27  1  0
 31 30  1  0
 31 29  2  0
 32 37  1  0
 33 34  1  0
 33 32  2  0
 34 35  2  0
 35 38  1  0
 35 36  1  0
 37 36  2  0
 39 38  1  0
 39 44  1  0
 40 39  2  0
 41 40  1  0
 41 42  2  0
 42 43  1  0
 43 44  2  0
 44 45  1  0
 46 42  1  0
 47 49  2  0
 48 47  1  0
 48 51  1  0
 50 48  1  0
 52 53  1  0
 54 52  1  0
 55  6  1  0
 56 55  1  0
 57 67  1  0
 58 64  1  0
 58 56  1  0
 59 69  1  0
 59 66  1  0
 60 65  1  0
 61 62  1  0
 62 60  2  0
 62 63  1  0
 63 58  2  0
 65 64  2  0
 66 60  1  0
 67 59  1  0
 67 61  1  0
 68 57  2  0
 69 71  2  0
 70 69  1  0
 72 70  1  0
 73 78  2  0
 73 82  1  0
 74 70  1  0
 74 78  1  0
 75 74  1  0
 76 75  1  0
 76 77  1  0
 77 73  1  0
 78 79  1  0
 79 80  2  0
 81 80  1  0
 82 81  2  0
 83 57  1  0
 83 84  1  0
 84 86  1  1
 85 84  1  0
 87 84  1  0
 88 83  1  0
 89 90  2  0
 89 88  1  0
 91 88  1  0
 93 92  1  0
 93 89  1  0
 94 95  1  0
 95 93  1  0
 96 95  1  0
M  ISO  4  17 100  25 100  55 101  56 101
M  END
>  <TORSDO>  (17) 
F 26

>  <SCORE>  (17) 
-0.038

>  <name>  (17) 
16

>  <ligand_id>  (17) 
16

>  <original_smiles>  (17) 
[H]c1c([H])c([H])c2c(c1[H])C([H])([H])C([H])([H])C([H])([H])C2([H])N([H])C(=O)C1([H])N(C(=O)C([H])(N([H])C(=O)C([H])(N([H])C([H])([H])[H])C([H])([H])[H])C(C([H])([H])[H])(C([H])([H])[H])C([H])([H])[H])C([H])([H])c2c([H])c(OC([H])([H])c3c([H])c([H])c(C(=O)C([H])([H])C([H])([H])C([H])([H])C([H])([H])C([H])([H])C([H])([H])C([H])([H])C([H])([H])N([H])C(=O)N4C([H])([H])C([H])([H])C([H])([H])C([H])(n5nc(-c6c([H])c([H])c(Oc7c([H])c([H])c(F)c([H])c7F)c([H])c6[H])c(C(=O)N([H])[H])c5N([H])[H])C4([H])[H])c([H])c3[H])c([H])c([H])c2C1([H])[H]

>  <smiles>  (17) 
[H]c1c([H])c([H])c2c(c1[H])C([H])([H])C([H])([H])C([H])([H])C2([H])N([H])C(=O)C1([H])N(C(=O)C([H])(N([H])C(=O)C([H])(N([H])C([H])([H])[H])C([H])([H])[H])C(C([H])([H])[H])(C([H])([H])[H])C([H])([H])[H])C([H])([H])c2c([H])c(OC([H])([H])c3c([H])c([H])c(C(=O)C([H])([H])C([H])([H])C([H])([H])C([H])([H])C([H])([H])C([H])([H])C([H])([H])C([H])([H])N([H])C(=O)N4C([H])([H])C([H])([H])C([H])([H])C([H])(n5nc(-c6c([H])c([H])c(Oc7c([H])c([H])c(F)c([H])c7F)c([H])c6[H])c(C(=O)N([H])[H])c5N([H])[H])C4([H])[H])c([H])c3[H])c([H])c([H])c2C1([H])[H]

$$$$
17:0:0
     RDKit          3D

 90 98  0  0  1  0  0  0  0  0999 V2000
  -31.8280  -21.4160   21.8000 C   0  0  0  0  0  3  0  0  0  0  0  0
  -31.5110  -22.7470   21.8510 C   0  0  0  0  0  3  0  0  0  0  0  0
  -31.0100  -20.4980   21.1480 C   0  0  0  0  0  0  0  0  0  0  0  0
  -29.7090  -20.7970   20.5780 C   0  0  0  0  0  0  0  0  0  0  0  0
  -29.3380  -22.4500   20.5960 C   0  0  0  0  0  0  0  0  0  0  0  0
  -30.3760  -23.2400   21.2230 C   0  0  0  0  0  0  0  0  0  0  0  0
  -31.7020  -19.1300   21.0950 C   0  0  0  0  0  1  0  0  0  0  0  0
  -30.4050  -24.6350   21.2730 N   0  0  0  0  0  0  0  0  0  0  0  0
  -31.1530  -25.1490   21.7290 H   0  0  0  0  0  0  0  0  0  0  0  0
  -29.6880  -25.2100   20.8210 H   0  0  0  0  0  0  0  0  0  0  0  0
  -29.2050  -19.1050   20.0460 C   0  0  0  0  0  2  0  0  0  0  0  0
  -29.4440  -17.2380   20.5770 C   0  0  0  0  0  2  0  0  0  0  0  0
  -30.2260  -15.5880   20.2010 C   0  0  0  0  0  0  0  0  0  0  0  0
  -30.3150  -13.0450   19.3740 C   0  0  0  0  0  2  0  0  0  0  0  0
  -29.4150  -12.7130   18.1480 C   0  0  0  0  0  2  0  0  0  0  0  0
  -27.9840  -12.3750   18.5870 C   0  0  0  0  0  2  0  0  0  0  0  0
  -27.4950  -13.3540   19.6790 C   0  0  0  0  0  3  0  0  0  0  0  0
  -28.5280  -13.6190   20.7990 C   0  0  0  0  0  2  0  0  0  0  0  0
  -29.7290  -14.2150   20.1730 N   0  0  0  0  0  0  0  0  0  0  0  0
  -31.4380  -15.5390   19.9110 O   0  0  0  0  0  0  0  0  0  0  0  0
  -25.1370  -13.8860   20.4390 C   0  0  0  0  0  0  0  0  0  0  0  0
  -24.0790  -13.1030   20.8090 C   0  0  0  0  0  0  0  0  0  0  0  0
  -24.5530  -11.7560   20.7880 C   0  0  0  0  0  0  0  0  0  0  0  0
  -26.1810  -13.0130   20.1980 N   0  0  0  0  0  0  0  0  0  0  0  0
  -25.8450  -11.7250   20.4740 N   0  0  0  0  0  0  0  0  0  0  0  0
  -23.8260  -10.4940   20.9920 C   0  0  0  0  0  0  0  0  0  0  0  0
  -24.2640   -9.5340   21.9300 C   0  0  0  0  0  3  0  0  0  0  0  0
  -23.5390   -8.3380   22.1240 C   0  0  0  0  0  3  0  0  0  0  0  0
  -22.3620   -8.0960   21.3770 C   0  0  0  0  0  0  0  0  0  0  0  0
  -21.9410   -9.0440   20.4280 C   0  0  0  0  0  3  0  0  0  0  0  0
  -22.6670  -10.2310   20.2350 C   0  0  0  0  0  3  0  0  0  0  0  0
  -21.6060   -6.9520   21.4770 O   0  0  0  0  0  0  0  0  0  0  0  0
  -21.5730   -6.2100   22.6300 C   0  0  0  0  0  0  0  0  0  0  0  0
  -21.1720   -6.7670   23.8620 C   0  0  0  0  0  3  0  0  0  0  0  0
  -21.0880   -5.9530   25.0090 C   0  0  0  0  0  3  0  0  0  0  0  0
  -21.3920   -4.5820   24.9230 C   0  0  0  0  0  0  0  0  0  0  0  0
  -21.7870   -4.0220   23.6940 C   0  0  0  0  0  3  0  0  0  0  0  0
  -21.8750   -4.8360   22.5510 C   0  0  0  0  0  0  0  0  0  0  0  0
  -22.2340   -4.2900   21.3650 F   0  0  0  0  0  0  0  0  0  0  0  0
  -21.3030   -3.7960   26.0220 F   0  0  0  0  0  0  0  0  0  0  0  0
  -22.6830  -13.5790   21.0670 C   0  0  0  0  0  0  0  0  0  0  0  0
  -21.9600  -12.8910   21.9430 N   0  0  0  0  0  0  0  0  0  0  0  0
  -22.2430  -14.5960   20.5330 O   0  0  0  0  0  0  0  0  0  0  0  0
  -22.3390  -12.0730   22.3970 H   0  0  0  0  0  0  0  0  0  0  0  0
  -21.0200  -13.1890   22.1660 H   0  0  0  0  0  0  0  0  0  0  0  0
  -25.2910  -15.2570   20.2560 N   0  0  0  0  0  0  0  0  0  0  0  0
  -24.5170  -15.9030   20.3580 H   0  0  0  0  0  0  0  0  0  0  0  0
  -26.1360  -15.6970   19.9110 H   0  0  0  0  0  0  0  0  0  0  0  0
  -28.1260  -23.7850   20.1610 C   0  0  0  0  0  2  0  0  0  0  0  0
  -28.1710  -25.5510   20.3150 O   0  0  0  0  0  0  0  0  0  0  0  0
  -24.6470  -31.8150   23.2000 C   0  0  0  0  0  0  0  0  0  0  0  0
  -27.1710  -26.7320   20.2380 C   0  0  0  0  0  0  0  0  0  0  0  0
  -23.4540  -30.4100   21.5750 C   0  0  0  0  0  3  0  0  0  0  0  0
  -24.8950  -28.7470   20.1740 C   0  0  0  0  0  0  0  0  0  0  0  0
  -26.0300  -30.5500   21.4460 C   0  0  0  0  0  2  0  0  0  0  0  0
  -26.0910  -29.1150   20.7980 C   0  0  0  0  0  0  0  0  0  0  0  0
  -27.2130  -28.1350   20.7990 C   0  0  0  0  0  3  0  0  0  0  0  0
  -25.9400  -26.5660   19.5550 C   0  0  0  0  0  3  0  0  0  0  0  0
  -24.8550  -27.4980   19.5290 C   0  0  0  0  0  3  0  0  0  0  0  0
  -23.6870  -29.6970   20.2110 C   0  0  0  0  0  2  0  0  0  0  0  0
  -24.7350  -30.9580   22.1280 N   0  0  0  0  0  0  0  0  0  0  0  0
  -23.5570  -32.1230   23.7100 O   0  0  0  0  0  0  0  0  0  0  0  0
  -22.7340  -29.4430   22.5540 C   0  0  0  0  0  0  0  0  0  0  0  0
  -21.4010  -29.2970   22.4310 N   0  0  0  0  0  0  0  0  0  0  0  0
  -23.3870  -28.8220   23.3960 O   0  0  0  0  0  0  0  0  0  0  0  0
  -20.9230  -29.8440   21.7270 H   0  0  0  0  0  0  0  0  0  0  0  0
  -18.0090  -28.1040   22.9490 C   0  0  0  0  0  0  0  0  0  0  0  0
  -20.5690  -28.3710   23.2110 C   0  0  0  0  0  3  0  0  0  0  0  0
  -20.6690  -26.9320   22.6510 C   0  0  0  0  0  2  0  0  0  0  0  0
  -19.5690  -26.6040   21.6370 C   0  0  0  0  0  2  0  0  0  0  0  0
  -18.1870  -26.7520   22.2780 C   0  0  0  0  0  2  0  0  0  0  0  0
  -19.1270  -28.8710   23.3710 C   0  0  0  0  0  0  0  0  0  0  0  0
  -18.9040  -30.1340   23.9620 C   0  0  0  0  0  3  0  0  0  0  0  0
  -17.5980  -30.6290   24.1330 C   0  0  0  0  0  3  0  0  0  0  0  0
  -16.4950  -29.8590   23.7240 C   0  0  0  0  0  3  0  0  0  0  0  0
  -16.7010  -28.5990   23.1370 C   0  0  0  0  0  3  0  0  0  0  0  0
  -25.9130  -32.4640   23.8380 C   0  0  0  0  0  3  0  0  0  0  0  0
  -26.4140  -31.7060   25.1300 C   0  0  1  0  0  0  0  0  0  0  0  0
  -25.3120  -31.4840   26.1930 C   0  0  0  0  0  1  0  0  0  0  0  0
  -26.9910  -30.3210   24.7650 C   0  0  0  0  0  1  0  0  0  0  0  0
  -27.5610  -32.5040   25.7940 C   0  0  0  0  0  1  0  0  0  0  0  0
  -25.5920  -33.8640   24.1740 N   0  0  0  0  0  0  0  0  0  0  0  0
  -25.9130  -34.9320   23.4300 C   0  0  0  0  0  0  0  0  0  0  0  0
  -26.5670  -34.8430   22.3900 O   0  0  0  0  0  0  0  0  0  0  0  0
  -25.0080  -34.0080   24.9860 H   0  0  0  0  0  0  0  0  0  0  0  0
  -24.1690  -36.7320   23.1510 C   0  0  0  0  0  1  0  0  0  0  0  0
  -25.4360  -36.3180   23.9160 C   0  0  0  0  0  3  0  0  0  0  0  0
  -27.5890  -37.2150   24.6900 C   0  0  0  0  0  1  0  0  0  0  0  0
  -26.4600  -37.3790   23.7790 N   0  0  0  0  0  0  0  0  0  0  0  0
  -26.0500  -38.2940   23.9470 H   0  0  0  0  0  0  0  0  0  0  0  0
  1  2  1  0
  3  1  2  0
  4  5  2  0
  4  3  1  0
  5  6  1  0
  6  8  1  0
  6  2  2  0
  7  3  1  0
  8  9  1  0
 10  8  1  0
 11 12  1  0
 11  4  1  0
 13 12  1  0
 14 19  1  0
 15 16  1  0
 15 14  1  0
 17 16  1  0
 17 24  1  0
 17 18  1  0
 19 13  1  0
 19 18  1  0
 20 13  2  0
 21 22  2  0
 22 41  1  0
 23 22  1  0
 23 26  1  0
 24 21  1  0
 24 25  1  0
 25 23  2  0
 26 27  1  0
 27 28  2  0
 29 32  1  0
 29 28  1  0
 30 29  2  0
 31 30  1  0
 31 26  2  0
 32 33  1  0
 33 34  1  0
 34 35  2  0
 36 35  1  0
 36 40  1  0
 37 36  2  0
 38 33  2  0
 38 37  1  0
 39 38  1  0
 41 42  1  0
 42 45  1  0
 42 44  1  0
 43 41  2  0
 46 47  1  0
 46 21  1  0
 48 46  1  0
 49 50  1  0
 49  5  1  0
 51 62  2  0
 52 50  1  0
 52 57  1  0
 53 61  1  0
 53 63  1  0
 54 60  1  0
 54 56  1  0
 55 61  1  0
 56 57  2  0
 56 55  1  0
 58 52  2  0
 59 58  1  0
 59 54  2  0
 60 53  1  0
 61 51  1  0
 63 65  2  0
 64 63  1  0
 66 64  1  0
 67 76  2  0
 67 72  1  0
 68 64  1  0
 68 72  1  0
 69 68  1  0
 70 71  1  0
 70 69  1  0
 71 67  1  0
 72 73  2  0
 73 74  1  0
 75 74  2  0
 76 75  1  0
 77 51  1  0
 77 82  1  0
 77 78  1  0
 78 81  1  1
 78 79  1  0
 80 78  1  0
 82 85  1  0
 83 87  1  0
 83 82  1  0
 84 83  2  0
 87 86  1  0
 89 87  1  0
 89 90  1  0
 89 88  1  0
M  ISO  4  12 100  13 100  49 101  50 101
M  END
>  <TORSDO>  (18) 
F 20

>  <SCORE>  (18) 
-16.010

>  <name>  (18) 
17

>  <ligand_id>  (18) 
17

>  <original_smiles>  (18) 
[H]c1c([H])c([H])c2c(c1[H])C([H])([H])C([H])([H])C([H])([H])C2([H])N([H])C(=O)C1([H])N(C(=O)C([H])(N([H])C(=O)C([H])(N([H])C([H])([H])[H])C([H])([H])[H])C(C([H])([H])[H])(C([H])([H])[H])C([H])([H])[H])C([H])([H])c2c([H])c(OC([H])([H])c3c(N([H])[H])c([H])c([H])c(C([H])([H])[H])c3C([H])([H])C([H])([H])C(=O)N3C([H])([H])C([H])([H])C([H])([H])C([H])(n4nc(-c5c([H])c([H])c(Oc6c([H])c([H])c(F)c([H])c6F)c([H])c5[H])c(C(=O)N([H])[H])c4N([H])[H])C3([H])[H])c([H])c([H])c2C1([H])[H]

>  <smiles>  (18) 
[H]c1c([H])c([H])c2c(c1[H])C([H])([H])C([H])([H])C([H])([H])C2([H])N([H])C(=O)C1([H])N(C(=O)C([H])(N([H])C(=O)C([H])(N([H])C([H])([H])[H])C([H])([H])[H])C(C([H])([H])[H])(C([H])([H])[H])C([H])([H])[H])C([H])([H])c2c([H])c(OC([H])([H])c3c(N([H])[H])c([H])c([H])c(C([H])([H])[H])c3C([H])([H])C([H])([H])C(=O)N3C([H])([H])C([H])([H])C([H])([H])C([H])(n4nc(-c5c([H])c([H])c(Oc6c([H])c([H])c(F)c([H])c6F)c([H])c5[H])c(C(=O)N([H])[H])c4N([H])[H])C3([H])[H])c([H])c([H])c2C1([H])[H]

$$$$
18:0:0
     RDKit          3D

 91 99  0  0  1  0  0  0  0  0999 V2000
  -29.1510  -22.8030   21.5370 C   0  0  0  0  0  3  0  0  0  0  0  0
  -28.8300  -24.2130   21.5120 C   0  0  0  0  0  3  0  0  0  0  0  0
  -28.1290  -24.0110   19.2670 C   0  0  0  0  0  3  0  0  0  0  0  0
  -29.0150  -21.9180   20.4180 C   0  0  0  0  0  0  0  0  0  0  0  0
  -28.3340  -24.9100   20.3660 C   0  0  0  0  0  0  0  0  0  0  0  0
  -28.4400  -22.5810   19.2790 C   0  0  0  0  0  0  0  0  0  0  0  0
  -27.4280  -22.2640   17.1280 C   0  0  0  0  0  1  0  0  0  0  0  0
  -28.2720  -21.7870   18.1660 O   0  0  0  0  0  0  0  0  0  0  0  0
  -28.3110  -26.3640   20.2790 O   0  0  0  0  0  0  0  0  0  0  0  0
  -24.6190  -31.9460   23.2450 C   0  0  0  0  0  0  0  0  0  0  0  0
  -27.1890  -27.2440   20.2650 C   0  0  0  0  0  0  0  0  0  0  0  0
  -23.4100  -30.5350   21.6220 C   0  0  0  0  0  3  0  0  0  0  0  0
  -24.8490  -28.9410   20.2140 C   0  0  0  0  0  0  0  0  0  0  0  0
  -25.9540  -30.8110   21.4400 C   0  0  0  0  0  2  0  0  0  0  0  0
  -26.0240  -29.4120   20.8130 C   0  0  0  0  0  0  0  0  0  0  0  0
  -27.1920  -28.5760   20.8240 C   0  0  0  0  0  3  0  0  0  0  0  0
  -25.9930  -26.8510   19.6320 C   0  0  0  0  0  3  0  0  0  0  0  0
  -24.8420  -27.6710   19.6100 C   0  0  0  0  0  3  0  0  0  0  0  0
  -23.6220  -29.8370   20.2490 C   0  0  0  0  0  2  0  0  0  0  0  0
  -24.6810  -31.1190   22.1580 N   0  0  0  0  0  0  0  0  0  0  0  0
  -23.5370  -32.2370   23.7760 O   0  0  0  0  0  0  0  0  0  0  0  0
  -22.7350  -29.5400   22.5970 C   0  0  0  0  0  0  0  0  0  0  0  0
  -21.4090  -29.3590   22.4660 N   0  0  0  0  0  0  0  0  0  0  0  0
  -23.4070  -28.9290   23.4320 O   0  0  0  0  0  0  0  0  0  0  0  0
  -20.9250  -29.9020   21.7650 H   0  0  0  0  0  0  0  0  0  0  0  0
  -18.0300  -28.1610   22.9690 C   0  0  0  0  0  0  0  0  0  0  0  0
  -20.5880  -28.4310   23.2460 C   0  0  0  0  0  3  0  0  0  0  0  0
  -20.6950  -26.9920   22.6910 C   0  0  0  0  0  2  0  0  0  0  0  0
  -19.5990  -26.6530   21.6770 C   0  0  0  0  0  2  0  0  0  0  0  0
  -18.2140  -26.8030   22.3130 C   0  0  0  0  0  2  0  0  0  0  0  0
  -19.1460  -28.9320   23.3940 C   0  0  0  0  0  0  0  0  0  0  0  0
  -18.9200  -30.2020   23.9680 C   0  0  0  0  0  3  0  0  0  0  0  0
  -17.6120  -30.7000   24.1240 C   0  0  0  0  0  3  0  0  0  0  0  0
  -16.5130  -29.9260   23.7150 C   0  0  0  0  0  3  0  0  0  0  0  0
  -16.7220  -28.6580   23.1440 C   0  0  0  0  0  3  0  0  0  0  0  0
  -25.9030  -32.5830   23.8620 C   0  0  0  0  0  3  0  0  0  0  0  0
  -26.4170  -31.8220   25.1470 C   0  0  1  0  0  0  0  0  0  0  0  0
  -25.3220  -31.5950   26.2160 C   0  0  0  0  0  1  0  0  0  0  0  0
  -26.9990  -30.4400   24.7700 C   0  0  0  0  0  1  0  0  0  0  0  0
  -27.5670  -32.6210   25.8030 C   0  0  0  0  0  1  0  0  0  0  0  0
  -25.5960  -33.9850   24.1850 N   0  0  0  0  0  0  0  0  0  0  0  0
  -25.9140  -35.0340   23.4130 C   0  0  0  0  0  0  0  0  0  0  0  0
  -26.5640  -34.9220   22.3710 O   0  0  0  0  0  0  0  0  0  0  0  0
  -25.0160  -34.1450   24.9950 H   0  0  0  0  0  0  0  0  0  0  0  0
  -24.1730  -36.8230   23.0870 C   0  0  0  0  0  1  0  0  0  0  0  0
  -25.4360  -36.4260   23.8700 C   0  0  0  0  0  3  0  0  0  0  0  0
  -27.5870  -37.3280   24.6390 C   0  0  0  0  0  1  0  0  0  0  0  0
  -26.4630  -37.4800   23.7190 N   0  0  0  0  0  0  0  0  0  0  0  0
  -26.0580  -38.4010   23.8640 H   0  0  0  0  0  0  0  0  0  0  0  0
  -29.7640  -20.4580   20.3730 C   0  0  0  0  0  3  0  0  0  0  0  0
  -29.1850  -18.9020   20.5010 C   0  0  0  0  0  3  0  0  0  0  0  0
  -31.2600  -17.8230   21.6500 C   0  0  0  0  0  1  0  0  0  0  0  0
  -30.2420  -17.6000   20.5130 C   0  0  0  0  0  3  0  0  0  0  0  0
  -30.5500  -14.9160   20.3300 C   0  0  0  0  0  0  0  0  0  0  0  0
  -30.3830  -12.5990   19.3500 C   0  0  0  0  0  2  0  0  0  0  0  0
  -29.4430  -12.6100   18.1250 C   0  0  0  0  0  2  0  0  0  0  0  0
  -27.9800  -12.4130   18.5660 C   0  0  0  0  0  2  0  0  0  0  0  0
  -27.5930  -13.3130   19.7690 C   0  0  0  0  0  3  0  0  0  0  0  0
  -28.6570  -13.2840   20.8860 C   0  0  0  0  0  2  0  0  0  0  0  0
  -29.9320  -13.6750   20.2730 N   0  0  0  0  0  0  0  0  0  0  0  0
  -31.7400  -14.9790   20.0060 O   0  0  0  0  0  0  0  0  0  0  0  0
  -29.8050  -16.0950   20.5550 N   0  0  0  0  0  0  0  0  0  0  0  0
  -28.8280  -15.9360   20.7580 H   0  0  0  0  0  0  0  0  0  0  0  0
  -25.2150  -13.8790   20.5290 C   0  0  0  0  0  0  0  0  0  0  0  0
  -24.1570  -13.0970   20.9020 C   0  0  0  0  0  0  0  0  0  0  0  0
  -24.6240  -11.7480   20.8510 C   0  0  0  0  0  0  0  0  0  0  0  0
  -26.2590  -13.0080   20.2720 N   0  0  0  0  0  0  0  0  0  0  0  0
  -25.9120  -11.7200   20.5300 N   0  0  0  0  0  0  0  0  0  0  0  0
  -23.9020  -10.4810   21.0290 C   0  0  0  0  0  0  0  0  0  0  0  0
  -24.3240   -9.5160   21.9690 C   0  0  0  0  0  3  0  0  0  0  0  0
  -23.6010   -8.3160   22.1370 C   0  0  0  0  0  3  0  0  0  0  0  0
  -22.4400   -8.0720   21.3650 C   0  0  0  0  0  0  0  0  0  0  0  0
  -22.0360   -9.0260   20.4150 C   0  0  0  0  0  3  0  0  0  0  0  0
  -22.7600  -10.2180   20.2450 C   0  0  0  0  0  3  0  0  0  0  0  0
  -21.6890   -6.9230   21.4430 O   0  0  0  0  0  0  0  0  0  0  0  0
  -21.6030   -6.1970   22.6030 C   0  0  0  0  0  0  0  0  0  0  0  0
  -21.1050   -6.7600   23.7990 C   0  0  0  0  0  3  0  0  0  0  0  0
  -20.9670   -5.9580   24.9500 C   0  0  0  0  0  3  0  0  0  0  0  0
  -21.3190   -4.5950   24.9050 C   0  0  0  0  0  0  0  0  0  0  0  0
  -21.8100   -4.0320   23.7140 C   0  0  0  0  0  3  0  0  0  0  0  0
  -21.9480   -4.8320   22.5650 C   0  0  0  0  0  0  0  0  0  0  0  0
  -22.4030   -4.2800   21.4140 F   0  0  0  0  0  0  0  0  0  0  0  0
  -21.1800   -3.8230   26.0080 F   0  0  0  0  0  0  0  0  0  0  0  0
  -22.7610  -13.5680   21.1890 C   0  0  0  0  0  0  0  0  0  0  0  0
  -22.0390  -12.8600   22.0510 N   0  0  0  0  0  0  0  0  0  0  0  0
  -22.3190  -14.5990   20.6840 O   0  0  0  0  0  0  0  0  0  0  0  0
  -22.4080  -12.0240   22.4790 H   0  0  0  0  0  0  0  0  0  0  0  0
  -21.1030  -13.1560   22.2860 H   0  0  0  0  0  0  0  0  0  0  0  0
  -25.3720  -15.2530   20.3610 N   0  0  0  0  0  0  0  0  0  0  0  0
  -24.6010  -15.9010   20.4800 H   0  0  0  0  0  0  0  0  0  0  0  0
  -26.2050  -15.6930   19.9930 H   0  0  0  0  0  0  0  0  0  0  0  0
  2  1  1  0
  3  6  2  0
  3  5  1  0
  4  1  2  0
  5  2  2  0
  6  4  1  0
  7  8  1  0
  8  6  1  0
  9  5  1  0
 10 21  2  0
 11  9  1  0
 11 16  1  0
 12 20  1  0
 12 22  1  0
 13 19  1  0
 13 15  1  0
 14 20  1  0
 15 16  2  0
 15 14  1  0
 17 11  2  0
 18 17  1  0
 18 13  2  0
 19 12  1  0
 20 10  1  0
 22 24  2  0
 23 22  1  0
 25 23  1  0
 26 35  2  0
 26 31  1  0
 27 23  1  0
 27 31  1  0
 28 27  1  0
 29 30  1  0
 29 28  1  0
 30 26  1  0
 31 32  2  0
 32 33  1  0
 34 33  2  0
 35 34  1  0
 36 10  1  0
 36 41  1  0
 36 37  1  0
 37 40  1  1
 37 38  1  0
 39 37  1  0
 41 44  1  0
 42 46  1  0
 42 41  1  0
 43 42  2  0
 46 45  1  0
 48 49  1  0
 48 46  1  0
 48 47  1  0
 50  4  1  0
 50 51  2  0
 51 53  1  0
 53 62  1  0
 53 52  1  0
 54 62  1  0
 55 60  1  0
 56 57  1  0
 56 55  1  0
 58 57  1  0
 58 67  1  0
 58 59  1  0
 60 54  1  0
 60 59  1  0
 61 54  2  0
 62 63  1  0
 64 65  2  0
 65 84  1  0
 66 65  1  0
 66 69  1  0
 67 64  1  0
 67 68  1  0
 68 66  2  0
 69 70  1  0
 70 71  2  0
 72 75  1  0
 72 71  1  0
 73 72  2  0
 74 73  1  0
 74 69  2  0
 75 76  1  0
 76 77  1  0
 77 78  2  0
 79 78  1  0
 79 83  1  0
 80 79  2  0
 81 76  2  0
 81 80  1  0
 82 81  1  0
 84 85  1  0
 85 88  1  0
 85 87  1  0
 86 84  2  0
 89 90  1  0
 89 64  1  0
 91 89  1  0
M  ISO  4   5 101   9 101  54 100  62 100
M  END
>  <TORSDO>  (19) 
F 20

>  <SCORE>  (19) 
-13.363

>  <name>  (19) 
18

>  <ligand_id>  (19) 
18

>  <original_smiles>  (19) 
[H]c1c([H])c([H])c2c(c1[H])C([H])([H])C([H])([H])C([H])([H])C2([H])N([H])C(=O)C1([H])N(C(=O)C([H])(N([H])C(=O)C([H])(N([H])C([H])([H])[H])C([H])([H])[H])C(C([H])([H])[H])(C([H])([H])[H])C([H])([H])[H])C([H])([H])c2c([H])c(Oc3c([H])c([H])c(C([H])([H])C([H])([H])C([H])(N([H])C(=O)N4C([H])([H])C([H])([H])C([H])([H])C([H])(n5nc(-c6c([H])c([H])c(Oc7c([H])c([H])c(F)c([H])c7F)c([H])c6[H])c(C(=O)N([H])[H])c5N([H])[H])C4([H])[H])C([H])([H])[H])c(OC([H])([H])[H])c3[H])c([H])c([H])c2C1([H])[H]

>  <smiles>  (19) 
[H]c1c([H])c([H])c2c(c1[H])C([H])([H])C([H])([H])C([H])([H])C2([H])N([H])C(=O)C1([H])N(C(=O)C([H])(N([H])C(=O)C([H])(N([H])C([H])([H])[H])C([H])([H])[H])C(C([H])([H])[H])(C([H])([H])[H])C([H])([H])[H])C([H])([H])c2c([H])c(Oc3c([H])c([H])c(C([H])([H])C([H])([H])C([H])(N([H])C(=O)N4C([H])([H])C([H])([H])C([H])([H])C([H])(n5nc(-c6c([H])c([H])c(Oc7c([H])c([H])c(F)c([H])c7F)c([H])c6[H])c(C(=O)N([H])[H])c5N([H])[H])C4([H])[H])C([H])([H])[H])c(OC([H])([H])[H])c3[H])c([H])c([H])c2C1([H])[H]

$$$$
19:0:0
     RDKit          3D

 90 98  0  0  1  0  0  0  0  0999 V2000
  -28.1840  -21.3590   19.4160 C   0  0  0  0  0  3  0  0  0  0  0  0
  -27.8420  -22.8600   19.4190 C   0  0  0  0  0  3  0  0  0  0  0  0
  -29.0460  -20.5270   20.3140 C   0  0  0  0  0  0  0  0  0  0  0  0
  -28.2620  -23.9740   20.3250 C   0  0  0  0  0  0  0  0  0  0  0  0
  -29.1270  -23.1410   21.2090 C   0  0  0  0  0  0  0  0  0  0  0  0
  -29.4660  -21.6430   21.2120 C   0  0  0  0  0  0  0  0  0  0  0  0
  -30.3560  -21.2690   22.1650 F   0  0  0  0  0  0  0  0  0  0  0  0
  -30.5630  -18.9150   18.8330 C   0  0  0  0  0  1  0  0  0  0  0  0
  -29.8010  -18.8130   20.1620 C   0  0  0  0  0  0  0  0  0  0  0  0
  -30.2560  -15.6870   20.2050 C   0  0  0  0  0  0  0  0  0  0  0  0
  -30.3190  -13.1630   19.3380 C   0  0  0  0  0  2  0  0  0  0  0  0
  -29.3970  -12.7860   18.1430 C   0  0  0  0  0  2  0  0  0  0  0  0
  -27.9870  -12.4250   18.6320 C   0  0  0  0  0  2  0  0  0  0  0  0
  -27.5070  -13.4060   19.7250 C   0  0  0  0  0  3  0  0  0  0  0  0
  -28.5650  -13.6990   20.8150 C   0  0  0  0  0  2  0  0  0  0  0  0
  -29.7200  -14.3280   20.1350 N   0  0  0  0  0  0  0  0  0  0  0  0
  -31.4820  -15.6150   19.9880 O   0  0  0  0  0  0  0  0  0  0  0  0
  -29.5230  -17.0620   20.3160 N   0  0  0  0  0  4  0  0  0  0  0  0
  -28.5420  -16.8900   20.4810 H   0  0  0  0  0  0  0  0  0  0  0  0
  -25.1630  -13.9100   20.5580 C   0  0  0  0  0  0  0  0  0  0  0  0
  -24.1190  -13.1170   20.9410 C   0  0  0  0  0  0  0  0  0  0  0  0
  -24.5990  -11.7720   20.8810 C   0  0  0  0  0  0  0  0  0  0  0  0
  -26.2060  -13.0510   20.2760 N   0  0  0  0  0  0  0  0  0  0  0  0
  -25.8840  -11.7570   20.5370 N   0  0  0  0  0  0  0  0  0  0  0  0
  -23.8870  -10.5010   21.0690 C   0  0  0  0  0  0  0  0  0  0  0  0
  -24.3440   -9.5220   21.9780 C   0  0  0  0  0  3  0  0  0  0  0  0
  -23.6250   -8.3200   22.1590 C   0  0  0  0  0  3  0  0  0  0  0  0
  -22.4360   -8.0890   21.4290 C   0  0  0  0  0  0  0  0  0  0  0  0
  -21.9960   -9.0550   20.5080 C   0  0  0  0  0  3  0  0  0  0  0  0
  -22.7160  -10.2480   20.3260 C   0  0  0  0  0  3  0  0  0  0  0  0
  -21.6870   -6.9400   21.5210 O   0  0  0  0  0  0  0  0  0  0  0  0
  -21.6730   -6.1770   22.6620 C   0  0  0  0  0  0  0  0  0  0  0  0
  -21.2460   -6.7010   23.9020 C   0  0  0  0  0  3  0  0  0  0  0  0
  -21.1820   -5.8630   25.0340 C   0  0  0  0  0  3  0  0  0  0  0  0
  -21.5350   -4.5050   24.9270 C   0  0  0  0  0  0  0  0  0  0  0  0
  -21.9560   -3.9810   23.6920 C   0  0  0  0  0  3  0  0  0  0  0  0
  -22.0210   -4.8150   22.5620 C   0  0  0  0  0  0  0  0  0  0  0  0
  -22.4070   -4.3000   21.3690 F   0  0  0  0  0  0  0  0  0  0  0  0
  -21.4660   -3.6980   26.0130 F   0  0  0  0  0  0  0  0  0  0  0  0
  -22.7240  -13.5780   21.2430 C   0  0  0  0  0  0  0  0  0  0  0  0
  -22.0210  -12.8720   22.1200 N   0  0  0  0  0  0  0  0  0  0  0  0
  -22.2680  -14.6030   20.7360 O   0  0  0  0  0  0  0  0  0  0  0  0
  -22.4060  -12.0440   22.5510 H   0  0  0  0  0  0  0  0  0  0  0  0
  -21.0860  -13.1630   22.3660 H   0  0  0  0  0  0  0  0  0  0  0  0
  -25.3060  -15.2850   20.3940 N   0  0  0  0  0  0  0  0  0  0  0  0
  -24.5340  -15.9270   20.5300 H   0  0  0  0  0  0  0  0  0  0  0  0
  -26.1320  -15.7320   20.0190 H   0  0  0  0  0  0  0  0  0  0  0  0
  -29.7660  -23.8830   22.1610 O   0  0  0  0  0  0  0  0  0  0  0  0
  -29.5530  -24.8050   22.0610 H   0  0  0  0  0  0  0  0  0  0  0  0
  -28.1690  -25.5960   20.2950 O   0  0  0  0  0  0  0  0  0  0  0  0
  -24.6190  -31.8870   23.1740 C   0  0  0  0  0  0  0  0  0  0  0  0
  -27.1480  -26.7630   20.2710 C   0  0  0  0  0  0  0  0  0  0  0  0
  -23.4310  -30.4650   21.5560 C   0  0  0  0  0  3  0  0  0  0  0  0
  -24.8770  -28.7880   20.1770 C   0  0  0  0  0  0  0  0  0  0  0  0
  -26.0080  -30.6030   21.4380 C   0  0  0  0  0  2  0  0  0  0  0  0
  -26.0700  -29.1570   20.8110 C   0  0  0  0  0  0  0  0  0  0  0  0
  -27.1870  -28.1690   20.8270 C   0  0  0  0  0  3  0  0  0  0  0  0
  -25.9220  -26.6010   19.5750 C   0  0  0  0  0  3  0  0  0  0  0  0
  -24.8410  -27.5350   19.5380 C   0  0  0  0  0  3  0  0  0  0  0  0
  -23.6730  -29.7420   20.1980 C   0  0  0  0  0  2  0  0  0  0  0  0
  -24.7100  -31.0200   22.1070 N   0  0  0  0  0  0  0  0  0  0  0  0
  -23.5260  -32.1960   23.6780 O   0  0  0  0  0  0  0  0  0  0  0  0
  -22.7140  -29.5040   22.5420 C   0  0  0  0  0  0  0  0  0  0  0  0
  -21.3790  -29.3570   22.4240 N   0  0  0  0  0  0  0  0  0  0  0  0
  -23.3690  -28.8860   23.3840 O   0  0  0  0  0  0  0  0  0  0  0  0
  -20.9010  -29.9070   21.7240 H   0  0  0  0  0  0  0  0  0  0  0  0
  -17.9850  -28.1840   22.9720 C   0  0  0  0  0  0  0  0  0  0  0  0
  -20.5510  -28.4360   23.2100 C   0  0  0  0  0  3  0  0  0  0  0  0
  -20.6340  -26.9960   22.6490 C   0  0  0  0  0  2  0  0  0  0  0  0
  -19.5230  -26.6750   21.6450 C   0  0  0  0  0  2  0  0  0  0  0  0
  -18.1470  -26.8310   22.2990 C   0  0  0  0  0  2  0  0  0  0  0  0
  -19.1130  -28.9440   23.3850 C   0  0  0  0  0  0  0  0  0  0  0  0
  -18.9030  -30.2070   23.9800 C   0  0  0  0  0  3  0  0  0  0  0  0
  -17.6010  -30.7120   24.1590 C   0  0  0  0  0  3  0  0  0  0  0  0
  -16.4890  -29.9510   23.7580 C   0  0  0  0  0  3  0  0  0  0  0  0
  -16.6830  -28.6880   23.1720 C   0  0  0  0  0  3  0  0  0  0  0  0
  -25.8820  -32.5450   23.8080 C   0  0  0  0  0  3  0  0  0  0  0  0
  -25.5490  -33.9410   24.1550 N   0  0  0  0  0  0  0  0  0  0  0  0
  -25.8520  -35.0150   23.4110 C   0  0  0  0  0  0  0  0  0  0  0  0
  -26.4970  -34.9350   22.3640 O   0  0  0  0  0  0  0  0  0  0  0  0
  -24.9710  -34.0740   24.9710 H   0  0  0  0  0  0  0  0  0  0  0  0
  -24.0900  -36.7970   23.1470 C   0  0  0  0  0  1  0  0  0  0  0  0
  -25.3650  -36.3950   23.9060 C   0  0  0  0  0  3  0  0  0  0  0  0
  -27.5130  -37.3100   24.6730 C   0  0  0  0  0  1  0  0  0  0  0  0
  -26.3790  -37.4640   23.7650 N   0  0  0  0  0  0  0  0  0  0  0  0
  -25.9650  -38.3780   23.9280 H   0  0  0  0  0  0  0  0  0  0  0  0
  -26.3960  -31.7840   25.0930 C   0  0  1  0  0  0  0  0  0  0  0  0
  -25.2990  -31.5450   26.1580 C   0  0  0  0  0  1  0  0  0  0  0  0
  -26.9900  -30.4070   24.7220 C   0  0  0  0  0  1  0  0  0  0  0  0
  -27.5390  -32.5880   25.7570 C   0  0  0  0  0  1  0  0  0  0  0  0
  1  2  2  0
  1  3  1  0
  2  4  1  0
  3  6  2  0
  4  5  2  0
  5  6  1  0
  5 48  1  0
  6  7  1  0
  8  9  1  0
  9  3  1  0
  9 18  2  0
 10 18  1  0
 11 16  1  0
 12 13  1  0
 12 11  1  0
 14 13  1  0
 14 23  1  0
 14 15  1  0
 16 10  1  0
 16 15  1  0
 17 10  2  0
 18 19  1  0
 20 21  2  0
 21 40  1  0
 22 21  1  0
 22 25  1  0
 23 24  1  0
 23 20  1  0
 24 22  2  0
 25 26  1  0
 26 27  2  0
 28 31  1  0
 28 27  1  0
 29 28  2  0
 30 29  1  0
 30 25  2  0
 31 32  1  0
 32 33  1  0
 33 34  2  0
 35 34  1  0
 35 39  1  0
 36 35  2  0
 37 32  2  0
 37 36  1  0
 38 37  1  0
 40 41  1  0
 41 44  1  0
 41 43  1  0
 42 40  2  0
 45 46  1  0
 45 20  1  0
 47 45  1  0
 49 48  1  0
 50  4  1  0
 51 62  2  0
 52 50  1  0
 52 57  1  0
 53 61  1  0
 53 63  1  0
 54 60  1  0
 54 56  1  0
 55 61  1  0
 56 57  2  0
 56 55  1  0
 58 52  2  0
 59 58  1  0
 59 54  2  0
 60 53  1  0
 61 51  1  0
 63 65  2  0
 64 63  1  0
 66 64  1  0
 67 76  2  0
 67 72  1  0
 68 64  1  0
 68 72  1  0
 69 68  1  0
 70 71  1  0
 70 69  1  0
 71 67  1  0
 72 73  2  0
 73 74  1  0
 75 74  2  0
 76 75  1  0
 77 51  1  0
 77 78  1  0
 77 87  1  0
 78 81  1  0
 79 83  1  0
 79 78  1  0
 80 79  2  0
 83 82  1  0
 85 83  1  0
 85 86  1  0
 85 84  1  0
 87 90  1  1
 87 88  1  0
 89 87  1  0
M  ISO  4   4 101  10 100  18 100  50 101
M  END
>  <TORSDO>  (20) 
F 18

>  <SCORE>  (20) 
-15.808

>  <name>  (20) 
19

>  <ligand_id>  (20) 
19

>  <original_smiles>  (20) 
[H]Oc1c(F)c(C([H])(N([H])C(=O)N2C([H])([H])C([H])([H])C([H])([H])C([H])(n3nc(-c4c([H])c([H])c(Oc5c([H])c([H])c(F)c([H])c5F)c([H])c4[H])c(C(=O)N([H])[H])c3N([H])[H])C2([H])[H])C([H])([H])[H])c([H])c([H])c1Oc1c([H])c([H])c2c(c1[H])C([H])([H])N(C(=O)C([H])(N([H])C(=O)C([H])(N([H])C([H])([H])[H])C([H])([H])[H])C(C([H])([H])[H])(C([H])([H])[H])C([H])([H])[H])C([H])(C(=O)N([H])C1([H])c3c([H])c([H])c([H])c([H])c3C([H])([H])C([H])([H])C1([H])[H])C2([H])[H]

>  <smiles>  (20) 
[H]Oc1c(F)c(C([H])(N([H])C(=O)N2C([H])([H])C([H])([H])C([H])([H])C([H])(n3nc(-c4c([H])c([H])c(Oc5c([H])c([H])c(F)c([H])c5F)c([H])c4[H])c(C(=O)N([H])[H])c3N([H])[H])C2([H])[H])C([H])([H])[H])c([H])c([H])c1Oc1c([H])c([H])c2c(c1[H])C([H])([H])N(C(=O)C([H])(N([H])C(=O)C([H])(N([H])C([H])([H])[H])C([H])([H])[H])C(C([H])([H])[H])(C([H])([H])[H])C([H])([H])[H])C([H])(C(=O)N([H])C1([H])c3c([H])c([H])c([H])c([H])c3C([H])([H])C([H])([H])C1([H])[H])C2([H])[H]

$$$$
20:0:0
     RDKit          3D

 95103  0  0  1  0  0  0  0  0999 V2000
  -29.9450  -23.3320   17.0440 C   0  0  0  0  0  3  0  0  0  0  0  0
  -30.0560  -21.3880   18.4280 C   0  0  0  0  0  3  0  0  0  0  0  0
  -30.3750  -22.0240   17.2250 C   0  0  0  0  0  0  0  0  0  0  0  0
  -29.2500  -24.0330   18.0430 C   0  0  0  0  0  0  0  0  0  0  0  0
  -29.3040  -21.9780   19.4740 C   0  0  0  0  0  0  0  0  0  0  0  0
  -28.9260  -23.4670   19.3280 C   0  0  0  0  0  0  0  0  0  0  0  0
  -28.8530  -25.4380   17.6100 C   0  0  0  0  0  1  0  0  0  0  0  0
  -31.1390  -21.3390   16.0920 C   0  0  0  0  0  2  0  0  0  0  0  0
  -32.0260  -20.1380   16.4780 C   0  0  0  0  0  2  0  0  0  0  0  0
  -32.2530  -17.6040   16.6650 C   0  0  0  0  0  1  0  0  0  0  0  0
  -31.3090  -18.7780   16.3850 C   0  0  0  0  0  2  0  0  0  0  0  0
  -29.1190  -20.7720   20.5770 C   0  0  0  0  0  2  0  0  0  0  0  0
  -29.0090  -19.0810   20.2230 C   0  0  0  0  0  2  0  0  0  0  0  0
  -30.8190  -18.0520   21.8140 C   0  0  0  0  0  1  0  0  0  0  0  0
  -30.1020  -17.7920   20.4820 C   0  0  0  0  0  3  0  0  0  0  0  0
  -30.4900  -15.0180   20.2780 C   0  0  0  0  0  0  0  0  0  0  0  0
  -30.3550  -12.6570   19.3380 C   0  0  0  0  0  2  0  0  0  0  0  0
  -29.4090  -12.5920   18.1160 C   0  0  0  0  0  2  0  0  0  0  0  0
  -27.9550  -12.3670   18.5700 C   0  0  0  0  0  2  0  0  0  0  0  0
  -27.5550  -13.2980   19.7440 C   0  0  0  0  0  3  0  0  0  0  0  0
  -28.6230  -13.3370   20.8560 C   0  0  0  0  0  2  0  0  0  0  0  0
  -29.8800  -13.7610   20.2230 N   0  0  0  0  0  0  0  0  0  0  0  0
  -31.6970  -15.0520   20.0150 O   0  0  0  0  0  0  0  0  0  0  0  0
  -29.7350  -16.2320   20.4260 N   0  0  0  0  0  0  0  0  0  0  0  0
  -28.7510  -16.0510   20.5650 H   0  0  0  0  0  0  0  0  0  0  0  0
  -25.1850  -13.8710   20.5130 C   0  0  0  0  0  0  0  0  0  0  0  0
  -24.1260  -13.0950   20.8940 C   0  0  0  0  0  0  0  0  0  0  0  0
  -24.5930  -11.7440   20.8590 C   0  0  0  0  0  0  0  0  0  0  0  0
  -26.2270  -12.9950   20.2620 N   0  0  0  0  0  0  0  0  0  0  0  0
  -25.8810  -11.7100   20.5360 N   0  0  0  0  0  0  0  0  0  0  0  0
  -23.8680  -10.4820   21.0540 C   0  0  0  0  0  0  0  0  0  0  0  0
  -24.3140   -9.5070   21.9750 C   0  0  0  0  0  3  0  0  0  0  0  0
  -23.5870   -8.3120   22.1590 C   0  0  0  0  0  3  0  0  0  0  0  0
  -22.4000   -8.0810   21.4230 C   0  0  0  0  0  0  0  0  0  0  0  0
  -21.9740   -9.0450   20.4920 C   0  0  0  0  0  3  0  0  0  0  0  0
  -22.7020  -10.2310   20.3050 C   0  0  0  0  0  3  0  0  0  0  0  0
  -21.6420   -6.9400   21.5180 O   0  0  0  0  0  0  0  0  0  0  0  0
  -21.6200   -6.1840   22.6630 C   0  0  0  0  0  0  0  0  0  0  0  0
  -21.2350   -6.7280   23.9080 C   0  0  0  0  0  3  0  0  0  0  0  0
  -21.1600   -5.8990   25.0450 C   0  0  0  0  0  3  0  0  0  0  0  0
  -21.4590   -4.5270   24.9380 C   0  0  0  0  0  0  0  0  0  0  0  0
  -21.8380   -3.9840   23.6980 C   0  0  0  0  0  3  0  0  0  0  0  0
  -21.9150   -4.8100   22.5630 C   0  0  0  0  0  0  0  0  0  0  0  0
  -22.2600   -4.2750   21.3670 F   0  0  0  0  0  0  0  0  0  0  0  0
  -21.3780   -3.7290   26.0280 F   0  0  0  0  0  0  0  0  0  0  0  0
  -22.7320  -13.5720   21.1750 C   0  0  0  0  0  0  0  0  0  0  0  0
  -22.0110  -12.8770   22.0470 N   0  0  0  0  0  0  0  0  0  0  0  0
  -22.2910  -14.5960   20.6560 O   0  0  0  0  0  0  0  0  0  0  0  0
  -22.3840  -12.0480   22.4860 H   0  0  0  0  0  0  0  0  0  0  0  0
  -21.0760  -13.1770   22.2800 H   0  0  0  0  0  0  0  0  0  0  0  0
  -25.3430  -15.2420   20.3330 N   0  0  0  0  0  0  0  0  0  0  0  0
  -24.5650  -15.8840   20.4350 H   0  0  0  0  0  0  0  0  0  0  0  0
  -26.1720  -15.6840   19.9600 H   0  0  0  0  0  0  0  0  0  0  0  0
  -28.1460  -24.5730   20.2960 C   0  0  0  0  0  2  0  0  0  0  0  0
  -28.2990  -26.1470   20.1930 O   0  0  0  0  0  0  0  0  0  0  0  0
  -24.6460  -31.8530   23.1970 C   0  0  0  0  0  0  0  0  0  0  0  0
  -27.2160  -27.1110   20.1790 C   0  0  0  0  0  0  0  0  0  0  0  0
  -23.4410  -30.4490   21.5700 C   0  0  0  0  0  3  0  0  0  0  0  0
  -24.8840  -28.8650   20.1510 C   0  0  0  0  0  0  0  0  0  0  0  0
  -25.9950  -30.7160   21.3880 C   0  0  0  0  0  2  0  0  0  0  0  0
  -26.0680  -29.3170   20.7450 C   0  0  0  0  0  0  0  0  0  0  0  0
  -27.2360  -28.4590   20.7350 C   0  0  0  0  0  3  0  0  0  0  0  0
  -25.9980  -26.7610   19.5590 C   0  0  0  0  0  3  0  0  0  0  0  0
  -24.8630  -27.6010   19.5410 C   0  0  0  0  0  3  0  0  0  0  0  0
  -23.6580  -29.7640   20.1930 C   0  0  0  0  0  2  0  0  0  0  0  0
  -24.7160  -31.0290   22.1070 N   0  0  0  0  0  0  0  0  0  0  0  0
  -23.5630  -32.1350   23.7300 O   0  0  0  0  0  0  0  0  0  0  0  0
  -22.7680  -29.4470   22.5400 C   0  0  0  0  0  0  0  0  0  0  0  0
  -21.4390  -29.2770   22.4230 N   0  0  0  0  0  0  0  0  0  0  0  0
  -23.4450  -28.8230   23.3610 O   0  0  0  0  0  0  0  0  0  0  0  0
  -20.9480  -29.8290   21.7340 H   0  0  0  0  0  0  0  0  0  0  0  0
  -18.0630  -28.0700   22.9440 C   0  0  0  0  0  0  0  0  0  0  0  0
  -20.6220  -28.3430   23.2030 C   0  0  0  0  0  3  0  0  0  0  0  0
  -20.7270  -26.9080   22.6370 C   0  0  0  0  0  2  0  0  0  0  0  0
  -19.6230  -26.5740   21.6300 C   0  0  0  0  0  2  0  0  0  0  0  0
  -18.2420  -26.7190   22.2740 C   0  0  0  0  0  2  0  0  0  0  0  0
  -19.1800  -28.8410   23.3660 C   0  0  0  0  0  0  0  0  0  0  0  0
  -18.9560  -30.1040   23.9530 C   0  0  0  0  0  3  0  0  0  0  0  0
  -17.6490  -30.5990   24.1240 C   0  0  0  0  0  3  0  0  0  0  0  0
  -16.5470  -29.8270   23.7170 C   0  0  0  0  0  3  0  0  0  0  0  0
  -16.7540  -28.5660   23.1320 C   0  0  0  0  0  3  0  0  0  0  0  0
  -25.9260  -32.4960   23.8140 C   0  0  0  0  0  3  0  0  0  0  0  0
  -25.6060  -33.8900   24.1620 N   0  0  0  0  0  0  0  0  0  0  0  0
  -25.9220  -34.9560   23.4150 C   0  0  0  0  0  0  0  0  0  0  0  0
  -26.5800  -34.8700   22.3740 O   0  0  0  0  0  0  0  0  0  0  0  0
  -25.0250  -34.0310   24.9750 H   0  0  0  0  0  0  0  0  0  0  0  0
  -24.1790  -36.7440   23.1090 C   0  0  0  0  0  1  0  0  0  0  0  0
  -25.4350  -36.3360   23.8970 C   0  0  0  0  0  3  0  0  0  0  0  0
  -27.5760  -37.2260   24.7070 C   0  0  0  0  0  1  0  0  0  0  0  0
  -26.4590  -37.3980   23.7820 N   0  0  0  0  0  0  0  0  0  0  0  0
  -26.0480  -38.3120   23.9470 H   0  0  0  0  0  0  0  0  0  0  0  0
  -26.4540  -31.7210   25.0850 C   0  0  1  0  0  0  0  0  0  0  0  0
  -25.3700  -31.4780   26.1600 C   0  0  0  0  0  1  0  0  0  0  0  0
  -27.0390  -30.3470   24.6890 C   0  0  0  0  0  1  0  0  0  0  0  0
  -27.6060  -32.5190   25.7410 C   0  0  0  0  0  1  0  0  0  0  0  0
  1  3  2  0
  1  4  1  0
  2  5  2  0
  3  2  1  0
  4  6  2  0
  5 12  1  0
  6  5  1  0
  6 54  1  0
  7  4  1  0
  8  9  1  0
  8  3  1  0
 11  9  1  0
 11 10  1  0
 13 15  1  0
 13 12  1  0
 15 14  1  0
 16 24  1  0
 17 22  1  0
 18 19  1  0
 18 17  1  0
 20 19  1  0
 20 29  1  0
 20 21  1  0
 22 16  1  0
 22 21  1  0
 23 16  2  0
 24 15  1  0
 24 25  1  0
 26 27  2  0
 27 46  1  0
 28 27  1  0
 28 31  1  0
 29 26  1  0
 29 30  1  0
 30 28  2  0
 31 32  1  0
 32 33  2  0
 34 37  1  0
 34 33  1  0
 35 34  2  0
 36 35  1  0
 36 31  2  0
 37 38  1  0
 38 39  1  0
 39 40  2  0
 41 40  1  0
 41 45  1  0
 42 41  2  0
 43 38  2  0
 43 42  1  0
 44 43  1  0
 46 47  1  0
 47 50  1  0
 47 49  1  0
 48 46  2  0
 51 52  1  0
 51 26  1  0
 53 51  1  0
 55 54  1  0
 56 67  2  0
 57 55  1  0
 57 62  1  0
 58 66  1  0
 58 68  1  0
 59 65  1  0
 59 61  1  0
 60 66  1  0
 61 60  1  0
 62 61  2  0
 63 57  2  0
 64 63  1  0
 64 59  2  0
 65 58  1  0
 66 56  1  0
 68 70  2  0
 69 68  1  0
 71 69  1  0
 72 81  2  0
 72 77  1  0
 73 69  1  0
 73 77  1  0
 74 73  1  0
 75 76  1  0
 75 74  1  0
 76 72  1  0
 77 78  2  0
 78 79  1  0
 80 79  2  0
 81 80  1  0
 82 56  1  0
 82 83  1  0
 82 92  1  0
 83 86  1  0
 84 88  1  0
 84 83  1  0
 85 84  2  0
 88 87  1  0
 90 88  1  0
 90 91  1  0
 90 89  1  0
 92 95  1  1
 92 93  1  0
 94 92  1  0
M  ISO  4  16 100  24 100  54 101  55 101
M  END
>  <TORSDO>  (21) 
F 23

>  <SCORE>  (21) 
-13.759

>  <name>  (21) 
20

>  <ligand_id>  (21) 
20

>  <original_smiles>  (21) 
[H]c1c([H])c([H])c2c(c1[H])C([H])([H])C([H])([H])C([H])([H])C2([H])N([H])C(=O)C1([H])N(C(=O)C([H])(N([H])C(=O)C([H])(N([H])C([H])([H])[H])C([H])([H])[H])C(C([H])([H])[H])(C([H])([H])[H])C([H])([H])[H])C([H])([H])c2c([H])c(OC([H])([H])c3c(C([H])([H])[H])c([H])c(C([H])([H])C([H])([H])C([H])([H])C([H])([H])[H])c([H])c3C([H])([H])C([H])([H])C([H])(N([H])C(=O)N3C([H])([H])C([H])([H])C([H])([H])C([H])(n4nc(-c5c([H])c([H])c(Oc6c([H])c([H])c(F)c([H])c6F)c([H])c5[H])c(C(=O)N([H])[H])c4N([H])[H])C3([H])[H])C([H])([H])[H])c([H])c([H])c2C1([H])[H]

>  <smiles>  (21) 
[H]c1c([H])c([H])c2c(c1[H])C([H])([H])C([H])([H])C([H])([H])C2([H])N([H])C(=O)C1([H])N(C(=O)C([H])(N([H])C(=O)C([H])(N([H])C([H])([H])[H])C([H])([H])[H])C(C([H])([H])[H])(C([H])([H])[H])C([H])([H])[H])C([H])([H])c2c([H])c(OC([H])([H])c3c(C([H])([H])[H])c([H])c(C([H])([H])C([H])([H])C([H])([H])C([H])([H])[H])c([H])c3C([H])([H])C([H])([H])C([H])(N([H])C(=O)N3C([H])([H])C([H])([H])C([H])([H])C([H])(n4nc(-c5c([H])c([H])c(Oc6c([H])c([H])c(F)c([H])c6F)c([H])c5[H])c(C(=O)N([H])[H])c4N([H])[H])C3([H])[H])C([H])([H])[H])c([H])c([H])c2C1([H])[H]

$$$$
21:0:0
     RDKit          3D

 94102  0  0  1  0  0  0  0  0999 V2000
  -30.6450  -18.5610   21.3480 C   0  0  0  0  0  3  0  0  0  0  0  0
  -31.4910  -20.7740   21.0100 C   0  0  0  0  0  3  0  0  0  0  0  0
  -31.4080  -19.6330   21.8070 C   0  0  0  0  0  0  0  0  0  0  0  0
  -29.9470  -18.5310   20.1160 C   0  0  0  0  0  0  0  0  0  0  0  0
  -29.8800  -19.8440   19.3280 C   0  0  0  0  0  0  0  0  0  0  0  0
  -30.7610  -20.8680   19.8120 C   0  0  0  0  0  0  0  0  0  0  0  0
  -31.7550  -18.2680   23.9150 C   0  0  0  0  0  1  0  0  0  0  0  0
  -31.9650  -20.7870   23.9750 C   0  0  0  0  0  1  0  0  0  0  0  0
  -32.1630  -19.5250   23.1250 C   0  0  0  0  0  3  0  0  0  0  0  0
  -30.9860  -22.0130   19.1020 O   0  0  0  0  0  0  0  0  0  0  0  0
  -31.5990  -22.6020   19.5300 H   0  0  0  0  0  0  0  0  0  0  0  0
  -29.3770  -17.0070   19.9760 C   0  0  0  0  0  2  0  0  0  0  0  0
  -30.2930  -15.6230   20.2440 C   0  0  0  0  0  0  0  0  0  0  0  0
  -30.4030  -13.1630   19.6610 C   0  0  0  0  0  2  0  0  0  0  0  0
  -29.5530  -12.9150   18.3940 C   0  0  0  0  0  2  0  0  0  0  0  0
  -28.0820  -12.6480   18.7700 C   0  0  0  0  0  2  0  0  0  0  0  0
  -27.5410  -13.6750   19.8010 C   0  0  0  0  0  3  0  0  0  0  0  0
  -28.5230  -13.9120   20.9640 C   0  0  0  0  0  2  0  0  0  0  0  0
  -29.8070  -14.3230   20.3850 N   0  0  0  0  0  0  0  0  0  0  0  0
  -31.5150  -15.7200   20.0820 O   0  0  0  0  0  0  0  0  0  0  0  0
  -25.1550  -14.1850   20.5740 C   0  0  0  0  0  0  0  0  0  0  0  0
  -24.0930  -13.3800   20.8830 C   0  0  0  0  0  0  0  0  0  0  0  0
  -24.5680  -12.0380   20.7630 C   0  0  0  0  0  0  0  0  0  0  0  0
  -26.2050  -13.3330   20.2750 N   0  0  0  0  0  0  0  0  0  0  0  0
  -25.8610  -12.0310   20.4580 N   0  0  0  0  0  0  0  0  0  0  0  0
  -23.8490  -10.7610   20.8650 C   0  0  0  0  0  0  0  0  0  0  0  0
  -24.2320   -9.7660   21.7910 C   0  0  0  0  0  3  0  0  0  0  0  0
  -23.5120   -8.5550   21.8830 C   0  0  0  0  0  3  0  0  0  0  0  0
  -22.3930   -8.3310   21.0460 C   0  0  0  0  0  0  0  0  0  0  0  0
  -22.0300   -9.3140   20.1070 C   0  0  0  0  0  3  0  0  0  0  0  0
  -22.7520  -10.5150   20.0140 C   0  0  0  0  0  3  0  0  0  0  0  0
  -21.6480   -7.1750   21.0450 O   0  0  0  0  0  0  0  0  0  0  0  0
  -21.5180   -6.4020   22.1710 C   0  0  0  0  0  0  0  0  0  0  0  0
  -20.8620   -6.8770   23.3280 C   0  0  0  0  0  3  0  0  0  0  0  0
  -20.6880   -6.0260   24.4370 C   0  0  0  0  0  3  0  0  0  0  0  0
  -21.1610   -4.7000   24.3900 C   0  0  0  0  0  0  0  0  0  0  0  0
  -21.8090   -4.2240   23.2360 C   0  0  0  0  0  3  0  0  0  0  0  0
  -21.9840   -5.0730   22.1300 C   0  0  0  0  0  0  0  0  0  0  0  0
  -22.5910   -4.6040   21.0120 F   0  0  0  0  0  0  0  0  0  0  0  0
  -20.9890   -3.8790   25.4520 F   0  0  0  0  0  0  0  0  0  0  0  0
  -22.6910  -13.8280   21.1770 C   0  0  0  0  0  0  0  0  0  0  0  0
  -21.9640  -13.0690   21.9880 N   0  0  0  0  0  0  0  0  0  0  0  0
  -22.2500  -14.8840   20.7240 O   0  0  0  0  0  0  0  0  0  0  0  0
  -22.3370  -12.2170   22.3810 H   0  0  0  0  0  0  0  0  0  0  0  0
  -21.0190  -13.3430   22.2200 H   0  0  0  0  0  0  0  0  0  0  0  0
  -25.3120  -15.5650   20.4940 N   0  0  0  0  0  0  0  0  0  0  0  0
  -24.5430  -16.2060   20.6590 H   0  0  0  0  0  0  0  0  0  0  0  0
  -26.1610  -16.0340   20.2090 H   0  0  0  0  0  0  0  0  0  0  0  0
  -29.0930  -20.3680   17.9710 C   0  0  0  0  0  2  0  0  0  0  0  0
  -27.9900  -21.6770   17.9130 C   0  0  0  0  0  2  0  0  0  0  0  0
  -28.1760  -23.1860   17.2360 C   0  0  0  0  0  0  0  0  0  0  0  0
  -29.0160  -23.3100   16.3410 O   0  0  0  0  0  0  0  0  0  0  0  0
  -27.3010  -24.5310   17.6780 C   0  0  0  0  0  2  0  0  0  0  0  0
  -27.8400  -26.0030   17.6630 O   0  0  0  0  0  0  0  0  0  0  0  0
  -25.7650  -29.9830   23.5320 C   0  0  0  0  0  0  0  0  0  0  0  0
  -27.0630  -27.0700   18.2540 C   0  0  0  0  0  0  0  0  0  0  0  0
  -24.2270  -29.8850   21.6100 C   0  0  0  0  0  3  0  0  0  0  0  0
  -25.2230  -29.0120   19.4070 C   0  0  0  0  0  0  0  0  0  0  0  0
  -26.7650  -29.6980   21.2330 C   0  0  0  0  0  2  0  0  0  0  0  0
  -26.4890  -28.8460   19.9820 C   0  0  0  0  0  0  0  0  0  0  0  0
  -27.4160  -27.9010   19.3950 C   0  0  0  0  0  3  0  0  0  0  0  0
  -25.7980  -27.3580   17.6950 C   0  0  0  0  0  3  0  0  0  0  0  0
  -24.8930  -28.2870   18.2530 C   0  0  0  0  0  3  0  0  0  0  0  0
  -24.2450  -29.9780   20.0600 C   0  0  0  0  0  2  0  0  0  0  0  0
  -25.6120  -29.8410   22.1800 N   0  0  0  0  0  0  0  0  0  0  0  0
  -24.7920  -30.1630   24.2790 O   0  0  0  0  0  0  0  0  0  0  0  0
  -23.3500  -28.6820   22.0370 C   0  0  0  0  0  0  0  0  0  0  0  0
  -22.0150  -28.8380   21.9660 N   0  0  0  0  0  0  0  0  0  0  0  0
  -23.8720  -27.6280   22.4050 O   0  0  0  0  0  0  0  0  0  0  0  0
  -21.6600  -29.7350   21.6650 H   0  0  0  0  0  0  0  0  0  0  0  0
  -18.4580  -28.1630   22.0840 C   0  0  0  0  0  0  0  0  0  0  0  0
  -21.0150  -27.8130   22.2760 C   0  0  0  0  0  3  0  0  0  0  0  0
  -20.8590  -26.8170   21.1050 C   0  0  0  0  0  2  0  0  0  0  0  0
  -19.7400  -27.1990   20.1290 C   0  0  0  0  0  2  0  0  0  0  0  0
  -18.3950  -27.2730   20.8550 C   0  0  0  0  0  2  0  0  0  0  0  0
  -19.6880  -28.4300   22.7420 C   0  0  0  0  0  0  0  0  0  0  0  0
  -19.6930  -29.2890   23.8620 C   0  0  0  0  0  3  0  0  0  0  0  0
  -18.5000  -29.8760   24.3260 C   0  0  0  0  0  3  0  0  0  0  0  0
  -17.2830  -29.5990   23.6780 C   0  0  0  0  0  3  0  0  0  0  0  0
  -17.2630  -28.7400   22.5640 C   0  0  0  0  0  3  0  0  0  0  0  0
  -27.1720  -29.9460   24.2010 C   0  0  0  0  0  3  0  0  0  0  0  0
  -27.2050  -30.9930   25.2340 N   0  0  0  0  0  0  0  0  0  0  0  0
  -27.8830  -32.1450   25.1330 C   0  0  0  0  0  0  0  0  0  0  0  0
  -28.6070  -32.4110   24.1710 O   0  0  0  0  0  0  0  0  0  0  0  0
  -26.5850  -30.8700   26.0220 H   0  0  0  0  0  0  0  0  0  0  0  0
  -26.8190  -34.3160   25.8340 C   0  0  0  0  0  1  0  0  0  0  0  0
  -27.7340  -33.1650   26.2810 C   0  0  0  0  0  3  0  0  0  0  0  0
  -29.8390  -32.7310   27.4680 C   0  0  0  0  0  1  0  0  0  0  0  0
  -29.0250  -33.7100   26.7550 N   0  0  0  0  0  0  0  0  0  0  0  0
  -28.8760  -34.5070   27.3680 H   0  0  0  0  0  0  0  0  0  0  0  0
  -27.5210  -28.5400   24.8300 C   0  0  1  0  0  0  0  0  0  0  0  0
  -26.4290  -27.9960   25.7810 C   0  0  0  0  0  1  0  0  0  0  0  0
  -27.7480  -27.4830   23.7240 C   0  0  0  0  0  1  0  0  0  0  0  0
  -28.8450  -28.6380   25.6230 C   0  0  0  0  0  1  0  0  0  0  0  0
  1  3  1  0
  2  3  2  0
  3  9  1  0
  4  1  2  0
  5  6  2  0
  5  4  1  0
  6  2  1  0
  9  7  1  0
  9  8  1  0
 10 11  1  0
 10  6  1  0
 12  4  1  0
 12 13  1  0
 13 19  1  0
 14 19  1  0
 15 16  1  0
 15 14  1  0
 17 16  1  0
 17 24  1  0
 17 18  1  0
 19 18  1  0
 20 13  2  0
 21 22  2  0
 22 41  1  0
 23 26  1  0
 23 22  1  0
 24 25  1  0
 24 21  1  0
 25 23  2  0
 26 27  1  0
 27 28  2  0
 29 28  1  0
 30 29  2  0
 31 30  1  0
 31 26  2  0
 32 29  1  0
 32 33  1  0
 33 34  1  0
 34 35  2  0
 36 35  1  0
 36 40  1  0
 37 36  2  0
 38 33  2  0
 38 37  1  0
 39 38  1  0
 41 42  1  0
 42 45  1  0
 42 44  1  0
 43 41  2  0
 46 21  1  0
 46 47  1  0
 48 46  1  0
 49  5  1  0
 50 49  1  0
 51 53  1  0
 51 50  1  0
 52 51  2  0
 54 53  1  0
 54 56  1  0
 55 66  2  0
 56 61  1  0
 57 67  1  0
 57 65  1  0
 58 60  1  0
 58 64  1  0
 59 65  1  0
 60 59  1  0
 61 60  2  0
 62 63  1  0
 62 56  2  0
 63 58  2  0
 64 57  1  0
 65 55  1  0
 67 69  2  0
 68 67  1  0
 70 68  1  0
 71 80  2  0
 71 76  1  0
 72 68  1  0
 72 76  1  0
 73 72  1  0
 74 75  1  0
 74 73  1  0
 75 71  1  0
 76 77  2  0
 77 78  1  0
 79 78  2  0
 80 79  1  0
 81 55  1  0
 81 91  1  0
 81 82  1  0
 82 85  1  0
 83 82  1  0
 83 87  1  0
 84 83  2  0
 87 86  1  0
 87 89  1  0
 89 90  1  0
 89 88  1  0
 91 94  1  1
 91 92  1  0
 93 91  1  0
M  ISO  4  12 100  13 100  53 101  54 101
M  END
>  <TORSDO>  (22) 
F 23

>  <SCORE>  (22) 
-9.288

>  <name>  (22) 
21

>  <ligand_id>  (22) 
21

>  <original_smiles>  (22) 
[H]Oc1c([H])c(C([H])(C([H])([H])[H])C([H])([H])[H])c([H])c(C([H])([H])C(=O)N2C([H])([H])C([H])([H])C([H])([H])C([H])(n3nc(-c4c([H])c([H])c(Oc5c([H])c([H])c(F)c([H])c5F)c([H])c4[H])c(C(=O)N([H])[H])c3N([H])[H])C2([H])[H])c1C([H])([H])C([H])([H])C(=O)C([H])([H])Oc1c([H])c([H])c2c(c1[H])C([H])([H])N(C(=O)C([H])(N([H])C(=O)C([H])(N([H])C([H])([H])[H])C([H])([H])[H])C(C([H])([H])[H])(C([H])([H])[H])C([H])([H])[H])C([H])(C(=O)N([H])C1([H])c3c([H])c([H])c([H])c([H])c3C([H])([H])C([H])([H])C1([H])[H])C2([H])[H]

>  <smiles>  (22) 
[H]Oc1c([H])c(C([H])(C([H])([H])[H])C([H])([H])[H])c([H])c(C([H])([H])C(=O)N2C([H])([H])C([H])([H])C([H])([H])C([H])(n3nc(-c4c([H])c([H])c(Oc5c([H])c([H])c(F)c([H])c5F)c([H])c4[H])c(C(=O)N([H])[H])c3N([H])[H])C2([H])[H])c1C([H])([H])C([H])([H])C(=O)C([H])([H])Oc1c([H])c([H])c2c(c1[H])C([H])([H])N(C(=O)C([H])(N([H])C(=O)C([H])(N([H])C([H])([H])[H])C([H])([H])[H])C(C([H])([H])[H])(C([H])([H])[H])C([H])([H])[H])C([H])(C(=O)N([H])C1([H])c3c([H])c([H])c([H])c([H])c3C([H])([H])C([H])([H])C1([H])[H])C2([H])[H]

$$$$
22:0:0
     RDKit          3D

 90 98  0  0  1  0  0  0  0  0999 V2000
  -29.9370  -21.4000   21.4830 C   0  0  0  0  0  3  0  0  0  0  0  0
  -30.1800  -19.9830   21.3750 C   0  0  0  0  0  3  0  0  0  0  0  0
  -28.5620  -21.3460   19.5570 C   0  0  0  0  0  3  0  0  0  0  0  0
  -29.1380  -22.1720   20.5740 C   0  0  0  0  0  0  0  0  0  0  0  0
  -29.6530  -19.1680   20.3330 C   0  0  0  0  0  0  0  0  0  0  0  0
  -28.8120  -19.9190   19.4370 C   0  0  0  0  0  0  0  0  0  0  0  0
  -29.0580  -23.7620   20.7400 C   0  0  0  0  0  0  0  0  0  0  0  0
  -29.8360  -24.2880   21.5450 O   0  0  0  0  0  0  0  0  0  0  0  0
  -28.0600  -24.8070   20.0130 C   0  0  0  0  0  2  0  0  0  0  0  0
  -28.2650  -26.3040   20.2720 O   0  0  0  0  0  0  0  0  0  0  0  0
  -24.6100  -31.8820   23.2380 C   0  0  0  0  0  0  0  0  0  0  0  0
  -27.1800  -27.2280   20.1950 C   0  0  0  0  0  0  0  0  0  0  0  0
  -23.3990  -30.4840   21.6060 C   0  0  0  0  0  3  0  0  0  0  0  0
  -24.8380  -28.9170   20.1740 C   0  0  0  0  0  0  0  0  0  0  0  0
  -25.9450  -30.7700   21.4200 C   0  0  0  0  0  2  0  0  0  0  0  0
  -26.0160  -29.3830   20.7730 C   0  0  0  0  0  0  0  0  0  0  0  0
  -27.1880  -28.5500   20.7700 C   0  0  0  0  0  3  0  0  0  0  0  0
  -25.9810  -26.8440   19.5560 C   0  0  0  0  0  3  0  0  0  0  0  0
  -24.8300  -27.6590   19.5530 C   0  0  0  0  0  3  0  0  0  0  0  0
  -23.6070  -29.8050   20.2260 C   0  0  0  0  0  2  0  0  0  0  0  0
  -24.6710  -31.0650   22.1430 N   0  0  0  0  0  0  0  0  0  0  0  0
  -23.5280  -32.1660   23.7740 O   0  0  0  0  0  0  0  0  0  0  0  0
  -22.7310  -29.4750   22.5730 C   0  0  0  0  0  0  0  0  0  0  0  0
  -21.4030  -29.3050   22.4550 N   0  0  0  0  0  0  0  0  0  0  0  0
  -23.4090  -28.8490   23.3920 O   0  0  0  0  0  0  0  0  0  0  0  0
  -20.9130  -29.8600   21.7680 H   0  0  0  0  0  0  0  0  0  0  0  0
  -18.0260  -28.1070   22.9690 C   0  0  0  0  0  0  0  0  0  0  0  0
  -20.5840  -28.3710   23.2320 C   0  0  0  0  0  3  0  0  0  0  0  0
  -20.6860  -26.9360   22.6670 C   0  0  0  0  0  2  0  0  0  0  0  0
  -19.5840  -26.6060   21.6560 C   0  0  0  0  0  2  0  0  0  0  0  0
  -18.2020  -26.7540   22.3010 C   0  0  0  0  0  2  0  0  0  0  0  0
  -19.1440  -28.8720   23.3930 C   0  0  0  0  0  0  0  0  0  0  0  0
  -18.9240  -30.1380   23.9790 C   0  0  0  0  0  3  0  0  0  0  0  0
  -17.6190  -30.6380   24.1460 C   0  0  0  0  0  3  0  0  0  0  0  0
  -16.5140  -29.8680   23.7380 C   0  0  0  0  0  3  0  0  0  0  0  0
  -16.7190  -28.6050   23.1560 C   0  0  0  0  0  3  0  0  0  0  0  0
  -25.8940  -32.5160   23.8540 C   0  0  0  0  0  3  0  0  0  0  0  0
  -25.5840  -33.9140   24.1940 N   0  0  0  0  0  0  0  0  0  0  0  0
  -25.9010  -34.9720   23.4360 C   0  0  0  0  0  0  0  0  0  0  0  0
  -26.5550  -34.8760   22.3940 O   0  0  0  0  0  0  0  0  0  0  0  0
  -25.0010  -34.0620   25.0040 H   0  0  0  0  0  0  0  0  0  0  0  0
  -24.1550  -36.7590   23.1310 C   0  0  0  0  0  1  0  0  0  0  0  0
  -25.4190  -36.3580   23.9100 C   0  0  0  0  0  3  0  0  0  0  0  0
  -27.5700  -37.2490   24.6880 C   0  0  0  0  0  1  0  0  0  0  0  0
  -26.4420  -37.4170   23.7740 N   0  0  0  0  0  0  0  0  0  0  0  0
  -26.0360  -38.3330   23.9380 H   0  0  0  0  0  0  0  0  0  0  0  0
  -26.4190  -31.7430   25.1260 C   0  0  1  0  0  0  0  0  0  0  0  0
  -25.3330  -31.5080   26.2030 C   0  0  0  0  0  1  0  0  0  0  0  0
  -26.9970  -30.3650   24.7320 C   0  0  0  0  0  1  0  0  0  0  0  0
  -27.5750  -32.5360   25.7820 C   0  0  0  0  0  1  0  0  0  0  0  0
  -28.2560  -19.2620   18.3790 O   0  0  0  0  0  0  0  0  0  0  0  0
  -27.7370  -19.8280   17.8160 H   0  0  0  0  0  0  0  0  0  0  0  0
  -30.2050  -17.6600   20.0420 C   0  0  0  0  0  3  0  0  0  0  0  0
  -29.7720  -16.2420   20.7580 C   0  0  0  0  0  3  0  0  0  0  0  0
  -30.5360  -14.8480   20.3770 C   0  0  0  0  0  0  0  0  0  0  0  0
  -30.3660  -12.5430   19.3810 C   0  0  0  0  0  2  0  0  0  0  0  0
  -29.4320  -12.5920   18.1510 C   0  0  0  0  0  2  0  0  0  0  0  0
  -27.9620  -12.4110   18.5750 C   0  0  0  0  0  2  0  0  0  0  0  0
  -27.5800  -13.3080   19.7820 C   0  0  0  0  0  3  0  0  0  0  0  0
  -28.6340  -13.2420   20.9080 C   0  0  0  0  0  2  0  0  0  0  0  0
  -29.9310  -13.6040   20.3260 N   0  0  0  0  0  0  0  0  0  0  0  0
  -31.7140  -14.9250   20.0100 O   0  0  0  0  0  0  0  0  0  0  0  0
  -25.1920  -13.9010   20.5020 C   0  0  0  0  0  0  0  0  0  0  0  0
  -24.1260  -13.1300   20.8730 C   0  0  0  0  0  0  0  0  0  0  0  0
  -24.5880  -11.7780   20.8560 C   0  0  0  0  0  0  0  0  0  0  0  0
  -26.2370  -13.0190   20.2740 N   0  0  0  0  0  0  0  0  0  0  0  0
  -25.8800  -11.7380   20.5520 N   0  0  0  0  0  0  0  0  0  0  0  0
  -23.8600  -10.5190   21.0530 C   0  0  0  0  0  0  0  0  0  0  0  0
  -24.3020   -9.5450   21.9750 C   0  0  0  0  0  3  0  0  0  0  0  0
  -23.5730   -8.3510   22.1620 C   0  0  0  0  0  3  0  0  0  0  0  0
  -22.3870   -8.1220   21.4240 C   0  0  0  0  0  0  0  0  0  0  0  0
  -21.9640   -9.0830   20.4900 C   0  0  0  0  0  3  0  0  0  0  0  0
  -22.6950  -10.2690   20.3030 C   0  0  0  0  0  3  0  0  0  0  0  0
  -21.6280   -6.9800   21.5190 O   0  0  0  0  0  0  0  0  0  0  0  0
  -21.6100   -6.2200   22.6610 C   0  0  0  0  0  0  0  0  0  0  0  0
  -21.2440   -6.7630   23.9120 C   0  0  0  0  0  3  0  0  0  0  0  0
  -21.1720   -5.9320   25.0480 C   0  0  0  0  0  3  0  0  0  0  0  0
  -21.4560   -4.5580   24.9340 C   0  0  0  0  0  0  0  0  0  0  0  0
  -21.8160   -4.0140   23.6870 C   0  0  0  0  0  3  0  0  0  0  0  0
  -21.8890   -4.8430   22.5540 C   0  0  0  0  0  0  0  0  0  0  0  0
  -22.2150   -4.3090   21.3520 F   0  0  0  0  0  0  0  0  0  0  0  0
  -21.3800   -3.7570   26.0220 F   0  0  0  0  0  0  0  0  0  0  0  0
  -22.7270  -13.6110   21.1350 C   0  0  0  0  0  0  0  0  0  0  0  0
  -21.9960  -12.9250   22.0070 N   0  0  0  0  0  0  0  0  0  0  0  0
  -22.2920  -14.6300   20.6010 O   0  0  0  0  0  0  0  0  0  0  0  0
  -22.3620  -12.1000   22.4600 H   0  0  0  0  0  0  0  0  0  0  0  0
  -21.0580  -13.2290   22.2250 H   0  0  0  0  0  0  0  0  0  0  0  0
  -25.3590  -15.2700   20.3160 N   0  0  0  0  0  0  0  0  0  0  0  0
  -24.5930  -15.9270   20.4240 H   0  0  0  0  0  0  0  0  0  0  0  0
  -26.2130  -15.7090   19.9960 H   0  0  0  0  0  0  0  0  0  0  0  0
  2  1  1  0
  3  4  1  0
  4  7  1  0
  4  1  2  0
  5  2  2  0
  6  3  2  0
  6  5  1  0
  7  8  2  0
  9 10  1  0
  9  7  1  0
 11 22  2  0
 12 10  1  0
 12 17  1  0
 13 21  1  0
 13 23  1  0
 14 20  1  0
 14 16  1  0
 15 21  1  0
 16 15  1  0
 17 16  2  0
 18 12  2  0
 19 18  1  0
 19 14  2  0
 20 13  1  0
 21 11  1  0
 23 25  2  0
 24 23  1  0
 26 24  1  0
 27 36  2  0
 27 32  1  0
 28 24  1  0
 28 32  1  0
 29 28  1  0
 30 31  1  0
 30 29  1  0
 31 27  1  0
 32 33  2  0
 33 34  1  0
 35 34  2  0
 36 35  1  0
 37 11  1  0
 37 38  1  0
 37 47  1  0
 38 41  1  0
 39 43  1  0
 39 38  1  0
 40 39  2  0
 43 42  1  0
 45 43  1  0
 45 46  1  0
 45 44  1  0
 47 50  1  1
 47 48  1  0
 49 47  1  0
 51  6  1  0
 52 51  1  0
 53  5  1  0
 53 54  2  0
 55 54  1  0
 56 61  1  0
 57 58  1  0
 57 56  1  0
 59 58  1  0
 59 66  1  0
 59 60  1  0
 61 55  1  0
 61 60  1  0
 62 55  2  0
 63 64  2  0
 64 83  1  0
 65 64  1  0
 65 68  1  0
 66 63  1  0
 66 67  1  0
 67 65  2  0
 68 69  1  0
 69 70  2  0
 71 74  1  0
 71 70  1  0
 72 71  2  0
 73 72  1  0
 73 68  2  0
 74 75  1  0
 75 76  1  0
 76 77  2  0
 78 77  1  0
 78 82  1  0
 79 78  2  0
 80 75  2  0
 80 79  1  0
 81 80  1  0
 83 84  1  0
 84 87  1  0
 84 86  1  0
 85 83  2  0
 88 89  1  0
 88 63  1  0
 90 88  1  0
M  ISO  4   9 101  10 101  54 100  55 100
M  END
>  <TORSDO>  (23) 
F 21

>  <SCORE>  (23) 
-13.698

>  <name>  (23) 
22

>  <ligand_id>  (23) 
22

>  <original_smiles>  (23) 
[H]Oc1c([H])c(C(=O)C([H])([H])Oc2c([H])c([H])c3c(c2[H])C([H])([H])N(C(=O)C([H])(N([H])C(=O)C([H])(N([H])C([H])([H])[H])C([H])([H])[H])C(C([H])([H])[H])(C([H])([H])[H])C([H])([H])[H])C([H])(C(=O)N([H])C2([H])c4c([H])c([H])c([H])c([H])c4C([H])([H])C([H])([H])C2([H])[H])C3([H])[H])c([H])c([H])c1C([H])([H])C([H])([H])C(=O)N1C([H])([H])C([H])([H])C([H])([H])C([H])(n2nc(-c3c([H])c([H])c(Oc4c([H])c([H])c(F)c([H])c4F)c([H])c3[H])c(C(=O)N([H])[H])c2N([H])[H])C1([H])[H]

>  <smiles>  (23) 
[H]Oc1c([H])c(C(=O)C([H])([H])Oc2c([H])c([H])c3c(c2[H])C([H])([H])N(C(=O)C([H])(N([H])C(=O)C([H])(N([H])C([H])([H])[H])C([H])([H])[H])C(C([H])([H])[H])(C([H])([H])[H])C([H])([H])[H])C([H])(C(=O)N([H])C2([H])c4c([H])c([H])c([H])c([H])c4C([H])([H])C([H])([H])C2([H])[H])C3([H])[H])c([H])c([H])c1C([H])([H])C([H])([H])C(=O)N1C([H])([H])C([H])([H])C([H])([H])C([H])(n2nc(-c3c([H])c([H])c(Oc4c([H])c([H])c(F)c([H])c4F)c([H])c3[H])c(C(=O)N([H])[H])c2N([H])[H])C1([H])[H]

$$$$
23:0:0
     RDKit          3D

 94102  0  0  1  0  0  0  0  0999 V2000
  -28.9770  -19.2240   19.7570 C   0  0  0  0  0  3  0  0  0  0  0  0
  -31.4100  -18.5480   19.8920 C   0  0  0  0  0  3  0  0  0  0  0  0
  -29.9720  -16.5910   20.3550 C   0  0  0  0  0  3  0  0  0  0  0  0
  -30.1010  -18.0180   19.8650 C   0  0  0  0  0  3  0  0  0  0  0  0
  -30.5920  -16.5160   21.6380 C   0  0  0  0  0  0  0  0  0  0  0  0
  -32.3010  -18.0970   20.8810 C   0  0  0  0  0  0  0  0  0  0  0  0
  -31.8340  -17.1680   21.8320 C   0  0  0  0  0  0  0  0  0  0  0  0
  -30.1150  -15.5710   22.7280 C   0  0  0  0  0  1  0  0  0  0  0  0
  -32.5860  -16.8930   22.9250 F   0  0  0  0  0  0  0  0  0  0  0  0
  -30.4400  -15.2680   19.5570 C   0  0  0  0  0  0  0  0  0  0  0  0
  -30.1140  -12.9810   18.4900 C   0  0  0  0  0  2  0  0  0  0  0  0
  -29.0490  -13.0270   17.3690 C   0  0  0  0  0  2  0  0  0  0  0  0
  -27.6400  -12.8100   17.9480 C   0  0  0  0  0  2  0  0  0  0  0  0
  -27.3950  -13.6720   19.2090 C   0  0  0  0  0  3  0  0  0  0  0  0
  -28.5660  -13.6060   20.2030 C   0  0  0  0  0  2  0  0  0  0  0  0
  -29.7890  -14.0290   19.5070 N   0  0  0  0  0  0  0  0  0  0  0  0
  -31.5090  -15.3390   18.9400 O   0  0  0  0  0  0  0  0  0  0  0  0
  -25.1360  -14.2400   20.2740 C   0  0  0  0  0  0  0  0  0  0  0  0
  -24.1140  -13.4610   20.7400 C   0  0  0  0  0  0  0  0  0  0  0  0
  -24.5480  -12.1080   20.5890 C   0  0  0  0  0  0  0  0  0  0  0  0
  -26.1240  -13.3640   19.8570 N   0  0  0  0  0  0  0  0  0  0  0  0
  -25.7880  -12.0720   20.1130 N   0  0  0  0  0  0  0  0  0  0  0  0
  -23.8300  -10.8470   20.8130 C   0  0  0  0  0  0  0  0  0  0  0  0
  -24.3180   -9.8660   21.7030 C   0  0  0  0  0  3  0  0  0  0  0  0
  -23.6000   -8.6690   21.9150 C   0  0  0  0  0  3  0  0  0  0  0  0
  -22.3780   -8.4450   21.2370 C   0  0  0  0  0  0  0  0  0  0  0  0
  -21.9090   -9.4150   20.3330 C   0  0  0  0  0  3  0  0  0  0  0  0
  -22.6270  -10.6030   20.1200 C   0  0  0  0  0  3  0  0  0  0  0  0
  -21.6250   -7.3030   21.3600 O   0  0  0  0  0  0  0  0  0  0  0  0
  -21.5830   -6.5910   22.5330 C   0  0  0  0  0  0  0  0  0  0  0  0
  -21.1660   -7.1810   23.7470 C   0  0  0  0  0  3  0  0  0  0  0  0
  -21.0710   -6.3960   24.9140 C   0  0  0  0  0  3  0  0  0  0  0  0
  -21.3810   -5.0230   24.8670 C   0  0  0  0  0  0  0  0  0  0  0  0
  -21.7890   -4.4330   23.6570 C   0  0  0  0  0  3  0  0  0  0  0  0
  -21.8860   -5.2160   22.4930 C   0  0  0  0  0  0  0  0  0  0  0  0
  -22.2600   -4.6390   21.3260 F   0  0  0  0  0  0  0  0  0  0  0  0
  -21.2810   -4.2660   25.9850 F   0  0  0  0  0  0  0  0  0  0  0  0
  -22.7700  -13.9400   21.2050 C   0  0  0  0  0  0  0  0  0  0  0  0
  -22.1540  -13.2270   22.1410 N   0  0  0  0  0  0  0  0  0  0  0  0
  -22.2790  -14.9830   20.7710 O   0  0  0  0  0  0  0  0  0  0  0  0
  -22.5660  -12.3840   22.5130 H   0  0  0  0  0  0  0  0  0  0  0  0
  -21.2570  -13.5290   22.4930 H   0  0  0  0  0  0  0  0  0  0  0  0
  -25.3010  -15.6170   20.1480 N   0  0  0  0  0  0  0  0  0  0  0  0
  -24.5710  -16.2730   20.4020 H   0  0  0  0  0  0  0  0  0  0  0  0
  -26.1180  -16.0670   19.7530 H   0  0  0  0  0  0  0  0  0  0  0  0
  -33.5330  -18.6730   21.0190 O   0  0  0  0  0  0  0  0  0  0  0  0
  -33.7200  -19.3150   20.3430 H   0  0  0  0  0  0  0  0  0  0  0  0
  -29.3100  -20.8680   20.0500 C   0  0  0  0  0  3  0  0  0  0  0  0
  -28.2910  -22.0670   19.8270 N   0  0  0  0  0  4  0  0  0  0  0  0
  -27.4870  -21.8640   20.4010 H   0  0  0  0  0  0  0  0  0  0  0  0
  -27.9750  -21.9920   18.8730 H   0  0  0  0  0  0  0  0  0  0  0  0
  -28.6600  -23.6000   20.0640 C   0  0  0  0  0  3  0  0  0  0  0  0
  -27.5960  -24.8810   19.7790 C   0  0  0  0  0  3  0  0  0  0  0  0
  -27.8540  -26.4120   19.9540 O   0  0  0  0  0  0  0  0  0  0  0  0
  -24.3290  -32.0100   23.2020 C   0  0  0  0  0  0  0  0  0  0  0  0
  -26.7850  -27.3820   19.9510 C   0  0  0  0  0  0  0  0  0  0  0  0
  -23.0560  -30.6320   21.6040 C   0  0  0  0  0  3  0  0  0  0  0  0
  -24.4420  -29.1020   20.0730 C   0  0  0  0  0  0  0  0  0  0  0  0
  -25.5950  -30.9290   21.3080 C   0  0  0  0  0  2  0  0  0  0  0  0
  -25.6480  -29.5500   20.6270 C   0  0  0  0  0  0  0  0  0  0  0  0
  -26.8180  -28.7080   20.5490 C   0  0  0  0  0  3  0  0  0  0  0  0
  -25.5500  -27.0380   19.3580 C   0  0  0  0  0  3  0  0  0  0  0  0
  -24.4050  -27.8600   19.4220 C   0  0  0  0  0  3  0  0  0  0  0  0
  -23.2100  -29.9840   20.2030 C   0  0  0  0  0  2  0  0  0  0  0  0
  -24.3490  -31.2120   22.0920 N   0  0  0  0  0  0  0  0  0  0  0  0
  -23.2710  -32.2740   23.7930 O   0  0  0  0  0  0  0  0  0  0  0  0
  -22.4400  -29.6000   22.5820 C   0  0  0  0  0  0  0  0  0  0  0  0
  -21.1200  -29.3630   22.4710 N   0  0  0  0  0  0  0  0  0  0  0  0
  -23.1510  -29.0150   23.4030 O   0  0  0  0  0  0  0  0  0  0  0  0
  -20.6010  -29.8890   21.7820 H   0  0  0  0  0  0  0  0  0  0  0  0
  -17.8230  -27.9460   22.9650 C   0  0  0  0  0  0  0  0  0  0  0  0
  -20.3540  -28.3950   23.2590 C   0  0  0  0  0  3  0  0  0  0  0  0
  -20.5630  -26.9560   22.7290 C   0  0  0  0  0  2  0  0  0  0  0  0
  -19.5010  -26.5290   21.7110 C   0  0  0  0  0  2  0  0  0  0  0  0
  -18.1030  -26.5950   22.3320 C   0  0  0  0  0  2  0  0  0  0  0  0
  -18.8790  -28.7980   23.3860 C   0  0  0  0  0  0  0  0  0  0  0  0
  -18.5620  -30.0580   23.9400 C   0  0  0  0  0  3  0  0  0  0  0  0
  -17.2230  -30.4690   24.0770 C   0  0  0  0  0  3  0  0  0  0  0  0
  -16.1820  -29.6160   23.6710 C   0  0  0  0  0  3  0  0  0  0  0  0
  -16.4820  -28.3570   23.1220 C   0  0  0  0  0  3  0  0  0  0  0  0
  -25.6330  -32.6470   23.7740 C   0  0  0  0  0  3  0  0  0  0  0  0
  -25.3360  -34.0450   24.1170 N   0  0  0  0  0  0  0  0  0  0  0  0
  -25.6290  -35.1020   23.3460 C   0  0  0  0  0  0  0  0  0  0  0  0
  -26.2470  -34.9990   22.2830 O   0  0  0  0  0  0  0  0  0  0  0  0
  -24.7800  -34.1980   24.9470 H   0  0  0  0  0  0  0  0  0  0  0  0
  -23.8780  -36.8910   23.0960 C   0  0  0  0  0  1  0  0  0  0  0  0
  -25.1670  -36.4900   23.8320 C   0  0  0  0  0  3  0  0  0  0  0  0
  -27.3430  -37.3860   24.5340 C   0  0  0  0  0  1  0  0  0  0  0  0
  -26.1880  -37.5460   23.6550 N   0  0  0  0  0  0  0  0  0  0  0  0
  -25.7880  -38.4650   23.8210 H   0  0  0  0  0  0  0  0  0  0  0  0
  -26.1980  -31.8800   25.0320 C   0  0  1  0  0  0  0  0  0  0  0  0
  -25.1440  -31.6370   26.1380 C   0  0  0  0  0  1  0  0  0  0  0  0
  -26.7750  -30.5040   24.6260 C   0  0  0  0  0  1  0  0  0  0  0  0
  -27.3670  -32.6800   25.6530 C   0  0  0  0  0  1  0  0  0  0  0  0
  1 48  2  0
  2  6  2  0
  3 10  1  0
  3  5  1  0
  4  1  1  0
  4  2  1  0
  4  3  1  0
  5  7  2  0
  5  8  1  0
  6 46  1  0
  6  7  1  0
  7  9  1  0
 11 16  1  0
 12 13  1  0
 12 11  1  0
 14 13  1  0
 14 21  1  0
 14 15  1  0
 16 10  1  0
 16 15  1  0
 17 10  2  0
 18 19  2  0
 19 38  1  0
 20 19  1  0
 20 23  1  0
 21 22  1  0
 21 18  1  0
 22 20  2  0
 23 24  1  0
 24 25  2  0
 26 29  1  0
 26 25  1  0
 27 26  2  0
 28 27  1  0
 28 23  2  0
 29 30  1  0
 30 31  1  0
 31 32  2  0
 33 32  1  0
 33 37  1  0
 34 33  2  0
 35 30  2  0
 35 34  1  0
 36 35  1  0
 38 39  1  0
 39 42  1  0
 39 41  1  0
 40 38  2  0
 43 18  1  0
 43 44  1  0
 45 43  1  0
 47 46  1  0
 49 48  1  0
 49 52  1  0
 49 50  1  0
 51 49  1  0
 53 54  1  0
 53 52  2  0
 55 66  2  0
 56 54  1  0
 56 61  1  0
 57 65  1  0
 57 67  1  0
 58 64  1  0
 58 60  1  0
 59 65  1  0
 60 59  1  0
 61 60  2  0
 62 63  1  0
 62 56  2  0
 63 58  2  0
 64 57  1  0
 65 55  1  0
 67 69  2  0
 68 67  1  0
 70 68  1  0
 71 80  2  0
 71 76  1  0
 72 68  1  0
 72 76  1  0
 73 72  1  0
 74 75  1  0
 74 73  1  0
 75 71  1  0
 76 77  2  0
 77 78  1  0
 79 78  2  0
 80 79  1  0
 81 55  1  0
 81 82  1  0
 81 91  1  0
 82 85  1  0
 83 87  1  0
 83 82  1  0
 84 83  2  0
 87 86  1  0
 89 90  1  0
 89 87  1  0
 89 88  1  0
 91 94  1  1
 91 92  1  0
 93 91  1  0
M  ISO  4   3 100  10 100  53 101  54 101
M  END
>  <TORSDO>  (24) 
F 22

>  <SCORE>  (24) 
-7.607

>  <name>  (24) 
23

>  <ligand_id>  (24) 
23

>  <original_smiles>  (24) 
[H]Oc1c([H])c(C([H])([H])C([H])([H])[N+]([H])([H])C([H])([H])C([H])([H])Oc2c([H])c([H])c3c(c2[H])C([H])([H])N(C(=O)C([H])(N([H])C(=O)C([H])(N([H])C([H])([H])[H])C([H])([H])[H])C(C([H])([H])[H])(C([H])([H])[H])C([H])([H])[H])C([H])(C(=O)N([H])C2([H])c4c([H])c([H])c([H])c([H])c4C([H])([H])C([H])([H])C2([H])[H])C3([H])[H])c(C(=O)N2C([H])([H])C([H])([H])C([H])([H])C([H])(n3nc(-c4c([H])c([H])c(Oc5c([H])c([H])c(F)c([H])c5F)c([H])c4[H])c(C(=O)N([H])[H])c3N([H])[H])C2([H])[H])c(C([H])([H])[H])c1F

>  <smiles>  (24) 
[H]Oc1c([H])c(C([H])([H])C([H])([H])[N+]([H])([H])C([H])([H])C([H])([H])Oc2c([H])c([H])c3c(c2[H])C([H])([H])N(C(=O)C([H])(N([H])C(=O)C([H])(N([H])C([H])([H])[H])C([H])([H])[H])C(C([H])([H])[H])(C([H])([H])[H])C([H])([H])[H])C([H])(C(=O)N([H])C2([H])c4c([H])c([H])c([H])c([H])c4C([H])([H])C([H])([H])C2([H])[H])C3([H])[H])c(C(=O)N2C([H])([H])C([H])([H])C([H])([H])C([H])(n3nc(-c4c([H])c([H])c(Oc5c([H])c([H])c(F)c([H])c5F)c([H])c4[H])c(C(=O)N([H])[H])c3N([H])[H])C2([H])[H])c(C([H])([H])[H])c1F

$$$$
24:0:0
     RDKit          3D

 90 93  0  0  1  0  0  0  0  0999 V2000
  -20.4900  -25.5640   22.6090 C   0  0  0  0  0  3  0  0  0  0  0  0
  -19.2330  -26.8120   22.2890 C   0  0  0  0  0  3  0  0  0  0  0  0
  -21.8170  -26.3850   19.7930 C   0  0  0  0  0  2  0  0  0  0  0  0
  -21.8610  -25.2310   21.5790 C   0  0  0  0  0  3  0  0  0  0  0  0
  -19.8510  -28.0580   19.9390 C   0  0  0  0  0  3  0  0  0  0  0  0
  -21.5480  -27.6250   19.1920 C   0  0  0  0  0  2  0  0  0  0  0  0
  -23.6690  -23.6530   21.8980 C   0  0  0  0  0  2  0  0  0  0  0  0
  -23.5680  -23.2730   23.0660 O   0  0  0  0  0  0  0  0  0  0  0  0
  -25.5450  -22.4720   21.1120 C   0  0  0  0  0 15  0  0  0  0  0  0
  -27.4250  -20.7920   21.1060 C   0  0  0  0  0 15  0  0  0  0  0  0
  -28.9800  -18.9790   20.2870 C   0  0  0  0  0 15  0  0  0  0  0  0
  -30.6230  -17.2600   20.1780 C   0  0  0  0  0  2  0  0  0  0  0  0
  -31.9160  -14.6510   19.3900 C   0  0  0  0  0  2  0  0  0  0  0  0
  -31.3610  -13.5640   18.3390 C   0  0  0  0  0  2  0  0  0  0  0  0
  -30.0590  -12.9130   18.8180 C   0  0  0  0  0  2  0  0  0  0  0  0
  -29.3640  -14.0020   19.6290 C   0  0  0  0  0  3  0  0  0  0  0  0
  -30.1710  -14.6090   20.7780 C   0  0  0  0  0  2  0  0  0  0  0  0
  -30.8620  -15.6890   20.1000 N   0  0  0  0  0  0  0  0  0  0  0  0
  -31.8980  -17.3630   19.9100 O   0  0  0  0  0  1  0  0  0  0  0  0
  -27.2530  -14.6910   20.6570 C   0  0  0  0  0  0  0  0  0  0  0  0
  -26.1740  -13.9990   21.0830 C   0  0  0  0  0  0  0  0  0  0  0  0
  -26.4750  -12.6210   20.8420 C   0  0  0  0  0  0  0  0  0  0  0  0
  -28.0980  -13.7320   20.1560 N   0  0  0  0  0  0  0  0  0  0  0  0
  -27.6880  -12.4690   20.3420 N   0  0  0  0  0  0  0  0  0  0  0  0
  -25.6430  -11.4410   20.9710 C   0  0  0  0  0  0  0  0  0  0  0  0
  -25.8770  -10.4780   21.9740 C   0  0  0  0  0  3  0  0  0  0  0  0
  -25.0390   -9.3520   22.0730 C   0  0  0  0  0  3  0  0  0  0  0  0
  -23.9640   -9.1900   21.1660 C   0  0  0  0  0  0  0  0  0  0  0  0
  -23.7630  -10.1390   20.1490 C   0  0  0  0  0  3  0  0  0  0  0  0
  -24.6000  -11.2560   20.0470 C   0  0  0  0  0  3  0  0  0  0  0  0
  -23.1070   -8.1210   21.1720 O   0  0  0  0  0  0  0  0  0  0  0  0
  -22.5320   -7.6750   22.3340 C   0  0  0  0  0  0  0  0  0  0  0  0
  -21.7390   -8.5150   23.1440 C   0  0  0  0  0  3  0  0  0  0  0  0
  -21.1140   -7.9940   24.2940 C   0  0  0  0  0  3  0  0  0  0  0  0
  -21.2720   -6.6340   24.6250 C   0  0  0  0  0  0  0  0  0  0  0  0
  -22.0580   -5.7970   23.8150 C   0  0  0  0  0  3  0  0  0  0  0  0
  -22.6870   -6.3180   22.6710 C   0  0  0  0  0  0  0  0  0  0  0  0
  -23.4300   -5.5050   21.8820 F   0  0  0  0  0  0  0  0  0  0  0  0
  -20.6620   -6.1310   25.7220 F   0  0  0  0  0  0  0  0  0  0  0  0
  -24.9060  -14.6060   21.5790 C   0  0  0  0  0  0  0  0  0  0  0  0
  -24.2160  -13.9090   22.4710 N   0  0  0  0  0  0  0  0  0  0  0  0
  -24.5510  -15.7220   21.2060 O   0  0  0  0  0  0  0  0  0  0  0  0
  -24.5390  -13.0050   22.7770 H   0  0  0  0  0  0  0  0  0  0  0  0
  -23.3550  -14.2750   22.8500 H   0  0  0  0  0  0  0  0  0  0  0  0
  -27.5840  -16.0410   20.6320 N   0  0  0  0  0  0  0  0  0  0  0  0
  -26.9480  -16.7600   20.9560 H   0  0  0  0  0  0  0  0  0  0  0  0
  -28.3790  -16.4020   20.1260 H   0  0  0  0  0  0  0  0  0  0  0  0
  -18.9570  -28.5220   17.8260 C   0  0  0  0  0  1  0  0  0  0  0  0
  -19.1250  -28.9590   19.1770 O   0  0  0  0  0  0  0  0  0  0  0  0
  -23.3410  -28.0210   18.6640 O   0  0  0  0  0  1  0  0  0  0  0  0
  -24.2530  -31.5010   22.1370 C   0  0  0  0  0  0  0  0  0  0  0  0
  -24.9750  -27.8280   18.6180 C   0  0  0  0  0  3  0  0  0  0  0  0
  -23.2220  -30.3060   20.3100 C   0  0  0  0  0  3  0  0  0  0  0  0
  -24.6180  -30.1390   17.9920 C   0  0  0  0  0  3  0  0  0  0  0  0
  -25.5950  -31.1420   20.0540 C   0  0  0  0  0  2  0  0  0  0  0  0
  -25.6220  -30.0990   18.9550 C   0  0  0  0  0  3  0  0  0  0  0  0
  -25.9840  -28.7610   19.1890 C   0  0  0  0  0  2  0  0  0  0  0  0
  -25.3960  -27.9550   17.2810 C   0  0  0  0  0  2  0  0  0  0  0  0
  -24.7000  -29.1350   16.9440 C   0  0  0  0  0  2  0  0  0  0  0  0
  -23.2820  -30.5050   18.6930 C   0  0  0  0  0  2  0  0  0  0  0  0
  -24.3400  -31.0970   20.8480 N   0  0  0  0  0  0  0  0  0  0  0  0
  -23.1980  -31.3840   22.7820 O   0  0  0  0  0  0  0  0  0  0  0  0
  -23.4580  -28.9250   21.0920 C   0  0  0  0  0  0  0  0  0  0  0  0
  -22.6200  -28.2220   21.7430 N   0  0  0  0  0  0  0  0  0  0  0  0
  -24.4990  -28.3300   21.1570 O   0  0  0  0  0  0  0  0  0  0  0  0
  -21.7630  -28.6920   22.0030 H   0  0  0  0  0  0  0  0  0  0  0  0
  -18.8520  -26.7550   20.9450 C   0  0  1  0  0  0  0  0  0  0  0  0
  -22.4860  -26.6930   21.7160 C   0  0  0  0  0  3  0  0  0  0  0  0
  -22.6310  -25.2890   20.0360 C   0  0  0  0  0  2  0  0  0  0  0  0
  -20.5430  -24.6880   18.9440 C   0  0  0  0  0 15  0  0  0  0  0  0
  -18.8030  -25.5080   19.7240 C   0  0  0  0  0  1  0  0  0  0  0  0
  -21.0110  -27.2600   22.2080 C   0  0  2  0  0  0  0  0  0  0  0  0
  -20.6600  -28.6450   23.3380 C   0  0  0  0  0  2  0  0  0  0  0  0
  -19.1610  -29.3690   23.4850 C   0  0  0  0  0  3  0  0  0  0  0  0
  -17.7920  -28.9980   22.6930 C   0  0  0  0  0  3  0  0  0  0  0  0
  -17.5770  -27.8450   21.5150 C   0  0  0  0  0  2  0  0  0  0  0  0
  -25.4800  -32.1180   22.8380 C   0  0  0  0  0  3  0  0  0  0  0  0
  -24.9550  -33.2570   23.5880 N   0  0  0  0  0  0  0  0  0  0  0  0
  -25.0870  -34.5270   23.1970 C   0  0  0  0  0  0  0  0  0  0  0  0
  -25.7650  -34.8600   22.2210 O   0  0  0  0  0  0  0  0  0  0  0  0
  -24.3770  -33.0520   24.3900 H   0  0  0  0  0  0  0  0  0  0  0  0
  -23.1120  -36.0720   23.2810 C   0  0  0  0  0  1  0  0  0  0  0  0
  -24.3640  -35.5940   24.0320 C   0  0  0  0  0  3  0  0  0  0  0  0
  -26.3100  -36.4090   25.2860 C   0  0  0  0  0  1  0  0  0  0  0  0
  -25.2200  -36.7490   24.3740 N   0  0  0  0  0  0  0  0  0  0  0  0
  -24.6700  -37.4880   24.8030 H   0  0  0  0  0  0  0  0  0  0  0  0
  -26.2460  -31.1200   23.7890 C   0  0  1  0  0  0  0  0  0  0  0  0
  -25.3280  -30.3040   24.7300 C   0  0  0  0  0  1  0  0  0  0  0  0
  -27.1210  -30.1200   22.9990 C   0  0  0  0  0  1  0  0  0  0  0  0
  -27.2440  -31.9240   24.6530 C   0  0  0  0  0  1  0  0  0  0  0  0
  2  1  1  0
  3 69  1  0
  4 68  1  0
  4  1  1  0
  5 67  1  0
  6  3  1  0
  6  5  1  0
  7  8  2  0
 13 18  1  0
 14 15  1  0
 14 13  1  0
 15 16  1  0
 16 23  1  0
 16 17  1  0
 18 12  1  0
 18 17  1  0
 19 12  1  0
 20 21  2  0
 21 40  1  0
 22 25  1  0
 22 21  1  0
 23 24  1  0
 23 20  1  0
 24 22  2  0
 25 26  1  0
 26 27  2  0
 28 31  1  0
 28 27  1  0
 29 28  2  0
 30 29  1  0
 30 25  2  0
 31 32  1  0
 32 37  2  0
 32 33  1  0
 33 34  2  0
 34 35  1  0
 35 39  1  0
 36 35  2  0
 37 36  1  0
 38 37  1  0
 40 41  1  0
 41 43  1  0
 41 44  1  0
 42 40  2  0
 45 20  1  0
 45 46  1  0
 47 45  1  0
 48 49  1  0
 49  5  1  0
 51 62  2  0
 51 77  1  0
 52 50  1  0
 52 57  1  0
 53 61  1  0
 53 63  1  0
 54 60  1  0
 54 56  1  0
 55 61  1  0
 56 57  1  0
 56 55  1  0
 58 52  1  0
 59 58  1  0
 59 54  1  0
 60 53  1  0
 61 51  1  0
 63 65  2  0
 63 64  1  0
 64 66  1  0
 67 76  1  0
 67  2  1  0
 68 64  1  0
 68 72  1  0
 69  4  1  0
 67 71  1  6
 72  2  1  0
 72  1  1  0
 72 73  1  1
 73 74  1  0
 75 74  2  0
 76 75  1  0
 77 78  1  0
 77 87  1  0
 78 81  1  0
 79 78  1  0
 79 83  1  0
 80 79  2  0
 82 83  1  0
 83 85  1  0
 85 86  1  0
 85 84  1  0
 87 90  1  1
 87 88  1  0
 89 87  1  0
M  ISO  4   6 101  11 100  12 100  50 101
M  END
>  <TORSDO>  (25) 
F 21

>  <SCORE>  (25) 
1.332

>  <name>  (25) 
24

>  <ligand_id>  (25) 
24

>  <original_smiles>  (25) 
[H]c1c([H])c([H])c2c(c1[H])C([H])([H])C([H])([H])C([H])([H])C2([H])N([H])C(=O)C1([H])N(C(=O)C([H])(N([H])C(=O)C([H])(N([H])C([H])([H])[H])C([H])([H])[H])C(C([H])([H])[H])(C([H])([H])[H])C([H])([H])[H])C([H])([H])c2c([H])c(Oc3c([H])c(C(=O)C([H])([H])C([H])([H])C([H])([H])C(=O)N4C([H])([H])C([H])([H])C([H])([H])C([H])(n5nc(-c6c([H])c([H])c(Oc7c([H])c([H])c(F)c([H])c7F)c([H])c6[H])c(C(=O)N([H])[H])c5N([H])[H])C4([H])[H])c([H])c([H])c3OC([H])([H])[H])c([H])c([H])c2C1([H])[H]

>  <smiles>  (25) 
[H]c1c([H])c([H])c2c(c1[H])C([H])([H])C([H])([H])C([H])([H])C2([H])N([H])C(=O)C1([H])N(C(=O)C([H])(N([H])C(=O)C([H])(N([H])C([H])([H])[H])C([H])([H])[H])C(C([H])([H])[H])(C([H])([H])[H])C([H])([H])[H])C([H])([H])c2c([H])c(Oc3c([H])c(C(=O)C([H])([H])C([H])([H])C([H])([H])C(=O)N4C([H])([H])C([H])([H])C([H])([H])C([H])(n5nc(-c6c([H])c([H])c(Oc7c([H])c([H])c(F)c([H])c7F)c([H])c6[H])c(C(=O)N([H])[H])c5N([H])[H])C4([H])[H])c([H])c([H])c3OC([H])([H])[H])c([H])c([H])c2C1([H])[H]

$$$$
25:0:0
     RDKit          3D

 90 98  0  0  1  0  0  0  0  0999 V2000
  -31.8010  -21.9860   21.3650 C   0  0  0  0  0  3  0  0  0  0  0  0
  -31.3530  -23.2130   21.8100 C   0  0  0  0  0  3  0  0  0  0  0  0
  -30.8980  -21.1260   20.7580 C   0  0  0  0  0  3  0  0  0  0  0  0
  -30.0710  -23.6820   21.4890 C   0  0  0  0  0  0  0  0  0  0  0  0
  -29.5340  -21.4080   20.4880 C   0  0  0  0  0  0  0  0  0  0  0  0
  -29.1450  -22.9710   20.6320 C   0  0  0  0  0  0  0  0  0  0  0  0
  -30.6030  -26.1920   21.6980 C   0  0  0  0  0  1  0  0  0  0  0  0
  -29.7690  -25.0010   22.2110 C   0  0  0  0  0  2  0  0  0  0  0  0
  -28.9380  -19.7880   20.1880 C   0  0  0  0  0  3  0  0  0  0  0  0
  -29.8750  -18.2090   20.3260 C   0  0  0  0  0  3  0  0  0  0  0  0
  -30.3170  -15.2850   20.2020 C   0  0  0  0  0  0  0  0  0  0  0  0
  -30.3250  -12.8320   19.3310 C   0  0  0  0  0  2  0  0  0  0  0  0
  -29.4080  -12.6010   18.1050 C   0  0  0  0  0  2  0  0  0  0  0  0
  -27.9630  -12.3120   18.5500 C   0  0  0  0  0  2  0  0  0  0  0  0
  -27.5010  -13.2760   19.6720 C   0  0  0  0  0  3  0  0  0  0  0  0
  -28.5490  -13.4480   20.7910 C   0  0  0  0  0  2  0  0  0  0  0  0
  -29.7640  -13.9720   20.1500 N   0  0  0  0  0  0  0  0  0  0  0  0
  -31.5380  -15.2900   19.9860 O   0  0  0  0  0  0  0  0  0  0  0  0
  -29.5500  -16.5600   20.3000 N   0  0  0  0  0  0  0  0  0  0  0  0
  -28.5650  -16.3670   20.4180 H   0  0  0  0  0  0  0  0  0  0  0  0
  -25.1300  -13.8090   20.4370 C   0  0  0  0  0  0  0  0  0  0  0  0
  -24.0790  -13.0220   20.8100 C   0  0  0  0  0  0  0  0  0  0  0  0
  -24.5590  -11.6770   20.7810 C   0  0  0  0  0  0  0  0  0  0  0  0
  -26.1800  -12.9440   20.1880 N   0  0  0  0  0  0  0  0  0  0  0  0
  -25.8500  -11.6550   20.4640 N   0  0  0  0  0  0  0  0  0  0  0  0
  -23.8450  -10.4070   20.9730 C   0  0  0  0  0  0  0  0  0  0  0  0
  -24.2900   -9.4420   21.9040 C   0  0  0  0  0  3  0  0  0  0  0  0
  -23.5730   -8.2400   22.0870 C   0  0  0  0  0  3  0  0  0  0  0  0
  -22.3970   -7.9940   21.3400 C   0  0  0  0  0  0  0  0  0  0  0  0
  -21.9710   -8.9470   20.3970 C   0  0  0  0  0  3  0  0  0  0  0  0
  -22.6900  -10.1410   20.2130 C   0  0  0  0  0  3  0  0  0  0  0  0
  -21.6500   -6.8450   21.4330 O   0  0  0  0  0  0  0  0  0  0  0  0
  -21.6160   -6.0990   22.5830 C   0  0  0  0  0  0  0  0  0  0  0  0
  -21.1900   -6.6460   23.8140 C   0  0  0  0  0  3  0  0  0  0  0  0
  -21.1040   -5.8270   24.9570 C   0  0  0  0  0  3  0  0  0  0  0  0
  -21.4330   -4.4600   24.8710 C   0  0  0  0  0  0  0  0  0  0  0  0
  -21.8500   -3.9120   23.6450 C   0  0  0  0  0  3  0  0  0  0  0  0
  -21.9390   -4.7290   22.5040 C   0  0  0  0  0  0  0  0  0  0  0  0
  -22.3210   -4.1910   21.3220 F   0  0  0  0  0  0  0  0  0  0  0  0
  -21.3420   -3.6720   25.9660 F   0  0  0  0  0  0  0  0  0  0  0  0
  -22.6760  -13.4860   21.0790 C   0  0  0  0  0  0  0  0  0  0  0  0
  -21.9580  -12.7910   21.9530 N   0  0  0  0  0  0  0  0  0  0  0  0
  -22.2280  -14.5010   20.5460 O   0  0  0  0  0  0  0  0  0  0  0  0
  -22.3350  -11.9710   22.4050 H   0  0  0  0  0  0  0  0  0  0  0  0
  -21.0170  -13.0850   22.1730 H   0  0  0  0  0  0  0  0  0  0  0  0
  -25.2760  -15.1820   20.2550 N   0  0  0  0  0  0  0  0  0  0  0  0
  -24.4930  -15.8210   20.3510 H   0  0  0  0  0  0  0  0  0  0  0  0
  -26.1020  -15.6250   19.8740 H   0  0  0  0  0  0  0  0  0  0  0  0
  -27.9650  -24.1580   20.1130 C   0  0  0  0  0  2  0  0  0  0  0  0
  -28.1060  -25.8200   20.1440 O   0  0  0  0  0  0  0  0  0  0  0  0
  -24.5590  -31.7960   23.1190 C   0  0  0  0  0  0  0  0  0  0  0  0
  -27.0810  -26.9060   20.0900 C   0  0  0  0  0  0  0  0  0  0  0  0
  -23.3520  -30.4060   21.4840 C   0  0  0  0  0  3  0  0  0  0  0  0
  -24.7880  -28.7960   20.0510 C   0  0  0  0  0  0  0  0  0  0  0  0
  -25.9180  -30.6100   21.3230 C   0  0  0  0  0  2  0  0  0  0  0  0
  -25.9810  -29.2000   20.6650 C   0  0  0  0  0  0  0  0  0  0  0  0
  -27.1210  -28.2760   20.6540 C   0  0  0  0  0  3  0  0  0  0  0  0
  -25.8580  -26.6520   19.4310 C   0  0  0  0  0  3  0  0  0  0  0  0
  -24.7530  -27.5450   19.4130 C   0  0  0  0  0  3  0  0  0  0  0  0
  -23.5720  -29.7230   20.1050 C   0  0  0  0  0  2  0  0  0  0  0  0
  -24.6330  -30.9650   22.0290 N   0  0  0  0  0  0  0  0  0  0  0  0
  -23.4740  -32.0880   23.6470 O   0  0  0  0  0  0  0  0  0  0  0  0
  -22.6610  -29.4120   22.4540 C   0  0  0  0  0  0  0  0  0  0  0  0
  -21.3280  -29.2620   22.3430 N   0  0  0  0  0  0  0  0  0  0  0  0
  -23.3310  -28.7770   23.2720 O   0  0  0  0  0  0  0  0  0  0  0  0
  -20.8430  -29.8240   21.6590 H   0  0  0  0  0  0  0  0  0  0  0  0
  -17.9390  -28.0850   22.8900 C   0  0  0  0  0  0  0  0  0  0  0  0
  -20.5060  -28.3270   23.1190 C   0  0  0  0  0  3  0  0  0  0  0  0
  -20.5860  -26.8980   22.5310 C   0  0  0  0  0  2  0  0  0  0  0  0
  -19.4660  -26.5940   21.5310 C   0  0  0  0  0  2  0  0  0  0  0  0
  -18.0950  -26.7420   22.1970 C   0  0  0  0  0  2  0  0  0  0  0  0
  -19.0700  -28.8360   23.3090 C   0  0  0  0  0  0  0  0  0  0  0  0
  -18.8680  -30.0910   23.9230 C   0  0  0  0  0  3  0  0  0  0  0  0
  -17.5680  -30.5950   24.1190 C   0  0  0  0  0  3  0  0  0  0  0  0
  -16.4540  -29.8410   23.7140 C   0  0  0  0  0  3  0  0  0  0  0  0
  -16.6390  -28.5880   23.1060 C   0  0  0  0  0  3  0  0  0  0  0  0
  -25.8360  -32.4340   23.7480 C   0  0  0  0  0  3  0  0  0  0  0  0
  -26.3570  -31.6540   25.0190 C   0  0  1  0  0  0  0  0  0  0  0  0
  -25.2680  -31.4110   26.0910 C   0  0  0  0  0  1  0  0  0  0  0  0
  -26.9380  -30.2770   24.6240 C   0  0  0  0  0  1  0  0  0  0  0  0
  -27.5100  -32.4430   25.6810 C   0  0  0  0  0  1  0  0  0  0  0  0
  -25.5170  -33.8280   24.1050 N   0  0  0  0  0  0  0  0  0  0  0  0
  -25.8290  -34.9020   23.3670 C   0  0  0  0  0  0  0  0  0  0  0  0
  -26.4750  -34.8230   22.3200 O   0  0  0  0  0  0  0  0  0  0  0  0
  -24.9360  -33.9620   24.9200 H   0  0  0  0  0  0  0  0  0  0  0  0
  -24.0780  -36.6950   23.1040 C   0  0  0  0  0  1  0  0  0  0  0  0
  -25.3480  -36.2810   23.8660 C   0  0  0  0  0  3  0  0  0  0  0  0
  -27.5030  -37.1700   24.6430 C   0  0  0  0  0  1  0  0  0  0  0  0
  -26.3700  -37.3440   23.7370 N   0  0  0  0  0  0  0  0  0  0  0  0
  -25.9610  -38.2580   23.9110 H   0  0  0  0  0  0  0  0  0  0  0  0
  1  2  1  0
  3  1  2  0
  4  2  2  0
  4  8  1  0
  5  6  2  0
  5  3  1  0
  6  4  1  0
  7  8  1  0
  9 10  2  0
  9  5  1  0
 11 19  1  0
 12 17  1  0
 13 14  1  0
 13 12  1  0
 15 14  1  0
 15 24  1  0
 15 16  1  0
 17 11  1  0
 17 16  1  0
 18 11  2  0
 19 10  1  0
 19 20  1  0
 21 22  2  0
 22 41  1  0
 23 22  1  0
 23 26  1  0
 24 21  1  0
 24 25  1  0
 25 23  2  0
 26 27  1  0
 27 28  2  0
 29 32  1  0
 29 28  1  0
 30 29  2  0
 31 30  1  0
 31 26  2  0
 32 33  1  0
 33 34  1  0
 34 35  2  0
 36 35  1  0
 36 40  1  0
 37 36  2  0
 38 33  2  0
 38 37  1  0
 39 38  1  0
 41 42  1  0
 42 45  1  0
 42 44  1  0
 43 41  2  0
 46 47  1  0
 46 21  1  0
 48 46  1  0
 49 50  1  0
 49  6  1  0
 51 62  2  0
 52 50  1  0
 52 57  1  0
 53 61  1  0
 53 63  1  0
 54 60  1  0
 54 56  1  0
 55 61  1  0
 56 55  1  0
 57 56  2  0
 58 52  2  0
 59 58  1  0
 59 54  2  0
 60 53  1  0
 61 51  1  0
 63 65  2  0
 64 63  1  0
 66 64  1  0
 67 76  2  0
 67 72  1  0
 68 64  1  0
 68 72  1  0
 69 68  1  0
 70 71  1  0
 70 69  1  0
 71 67  1  0
 72 73  2  0
 73 74  1  0
 75 74  2  0
 76 75  1  0
 77 51  1  0
 77 82  1  0
 77 78  1  0
 78 81  1  1
 78 79  1  0
 80 78  1  0
 82 85  1  0
 83 87  1  0
 83 82  1  0
 84 83  2  0
 87 86  1  0
 89 87  1  0
 89 90  1  0
 89 88  1  0
M  ISO  4  11 100  19 100  49 101  50 101
M  END
>  <TORSDO>  (26) 
F 20

>  <SCORE>  (26) 
-15.495

>  <name>  (26) 
25

>  <ligand_id>  (26) 
25

>  <original_smiles>  (26) 
[H]c1c([H])c(C([H])([H])C([H])([H])[H])c(C([H])([H])Oc2c([H])c([H])c3c(c2[H])C([H])([H])N(C(=O)C([H])(N([H])C(=O)C([H])(N([H])C([H])([H])[H])C([H])([H])[H])C(C([H])([H])[H])(C([H])([H])[H])C([H])([H])[H])C([H])(C(=O)N([H])C2([H])c4c([H])c([H])c([H])c([H])c4C([H])([H])C([H])([H])C2([H])[H])C3([H])[H])c(C([H])([H])C([H])([H])N([H])C(=O)N2C([H])([H])C([H])([H])C([H])([H])C([H])(n3nc(-c4c([H])c([H])c(Oc5c([H])c([H])c(F)c([H])c5F)c([H])c4[H])c(C(=O)N([H])[H])c3N([H])[H])C2([H])[H])c1[H]

>  <smiles>  (26) 
[H]c1c([H])c(C([H])([H])C([H])([H])[H])c(C([H])([H])Oc2c([H])c([H])c3c(c2[H])C([H])([H])N(C(=O)C([H])(N([H])C(=O)C([H])(N([H])C([H])([H])[H])C([H])([H])[H])C(C([H])([H])[H])(C([H])([H])[H])C([H])([H])[H])C([H])(C(=O)N([H])C2([H])c4c([H])c([H])c([H])c([H])c4C([H])([H])C([H])([H])C2([H])[H])C3([H])[H])c(C([H])([H])C([H])([H])N([H])C(=O)N2C([H])([H])C([H])([H])C([H])([H])C([H])(n3nc(-c4c([H])c([H])c(Oc5c([H])c([H])c(F)c([H])c5F)c([H])c4[H])c(C(=O)N([H])[H])c3N([H])[H])C2([H])[H])c1[H]

$$$$
26:0:0
     RDKit          3D

 92100  0  0  1  0  0  0  0  0999 V2000
  -28.4150  -22.6130   19.0840 C   0  0  0  0  0  3  0  0  0  0  0  0
  -28.0950  -24.0280   19.0530 C   0  0  0  0  0  3  0  0  0  0  0  0
  -29.0180  -22.7970   21.3600 C   0  0  0  0  0  3  0  0  0  0  0  0
  -28.9280  -21.9210   20.2300 C   0  0  0  0  0  0  0  0  0  0  0  0
  -28.7010  -24.2170   21.3360 C   0  0  0  0  0  0  0  0  0  0  0  0
  -28.2420  -24.9170   20.1660 C   0  0  0  0  0  0  0  0  0  0  0  0
  -28.2020  -26.3720   20.0730 O   0  0  0  0  0  0  0  0  0  0  0  0
  -24.5110  -31.8810   23.1830 C   0  0  0  0  0  0  0  0  0  0  0  0
  -27.0700  -27.2400   20.0950 C   0  0  0  0  0  0  0  0  0  0  0  0
  -23.2850  -30.4790   21.5620 C   0  0  0  0  0  3  0  0  0  0  0  0
  -24.7150  -28.9150   20.1120 C   0  0  0  0  0  0  0  0  0  0  0  0
  -25.8260  -30.7790   21.3420 C   0  0  0  0  0  2  0  0  0  0  0  0
  -25.8960  -29.3890   20.6960 C   0  0  0  0  0  0  0  0  0  0  0  0
  -27.0720  -28.5640   20.6730 C   0  0  0  0  0  3  0  0  0  0  0  0
  -25.8650  -26.8420   19.4830 C   0  0  0  0  0  3  0  0  0  0  0  0
  -24.7070  -27.6520   19.4950 C   0  0  0  0  0  3  0  0  0  0  0  0
  -23.4810  -29.8000   20.1790 C   0  0  0  0  0  2  0  0  0  0  0  0
  -24.5610  -31.0680   22.0840 N   0  0  0  0  0  0  0  0  0  0  0  0
  -23.4350  -32.1560   23.7340 O   0  0  0  0  0  0  0  0  0  0  0  0
  -22.6370  -29.4660   22.5360 C   0  0  0  0  0  0  0  0  0  0  0  0
  -21.3100  -29.2780   22.4260 N   0  0  0  0  0  0  0  0  0  0  0  0
  -23.3270  -28.8500   23.3520 O   0  0  0  0  0  0  0  0  0  0  0  0
  -20.8090  -29.8270   21.7420 H   0  0  0  0  0  0  0  0  0  0  0  0
  -17.9520  -28.0360   22.9630 C   0  0  0  0  0  0  0  0  0  0  0  0
  -20.5090  -28.3350   23.2100 C   0  0  0  0  0  3  0  0  0  0  0  0
  -20.6260  -26.9010   22.6420 C   0  0  0  0  0  2  0  0  0  0  0  0
  -19.5210  -26.5570   21.6390 C   0  0  0  0  0  2  0  0  0  0  0  0
  -18.1430  -26.6860   22.2940 C   0  0  0  0  0  2  0  0  0  0  0  0
  -19.0630  -28.8170   23.3800 C   0  0  0  0  0  0  0  0  0  0  0  0
  -18.8300  -30.0790   23.9690 C   0  0  0  0  0  3  0  0  0  0  0  0
  -17.5200  -30.5610   24.1440 C   0  0  0  0  0  3  0  0  0  0  0  0
  -16.4240  -29.7790   23.7440 C   0  0  0  0  0  3  0  0  0  0  0  0
  -16.6400  -28.5180   23.1580 C   0  0  0  0  0  3  0  0  0  0  0  0
  -25.8000  -32.5200   23.7850 C   0  0  0  0  0  3  0  0  0  0  0  0
  -25.4840  -33.9140   24.1380 N   0  0  0  0  0  0  0  0  0  0  0  0
  -25.7950  -34.9810   23.3900 C   0  0  0  0  0  0  0  0  0  0  0  0
  -26.4440  -34.8960   22.3450 O   0  0  0  0  0  0  0  0  0  0  0  0
  -24.9030  -34.0520   24.9520 H   0  0  0  0  0  0  0  0  0  0  0  0
  -24.0540  -36.7740   23.0900 C   0  0  0  0  0  1  0  0  0  0  0  0
  -25.3080  -36.3590   23.8780 C   0  0  0  0  0  3  0  0  0  0  0  0
  -27.4500  -37.2430   24.6950 C   0  0  0  0  0  1  0  0  0  0  0  0
  -26.3350  -37.4190   23.7680 N   0  0  0  0  0  0  0  0  0  0  0  0
  -25.9270  -38.3350   23.9330 H   0  0  0  0  0  0  0  0  0  0  0  0
  -26.3470  -31.7440   25.0450 C   0  0  1  0  0  0  0  0  0  0  0  0
  -25.2770  -31.4910   26.1340 C   0  0  0  0  0  1  0  0  0  0  0  0
  -26.9320  -30.3720   24.6350 C   0  0  0  0  0  1  0  0  0  0  0  0
  -27.5060  -32.5400   25.6900 C   0  0  0  0  0  1  0  0  0  0  0  0
  -29.6400  -20.4470   20.1480 C   0  0  0  0  0  3  0  0  0  0  0  0
  -29.0830  -18.9510   20.6040 C   0  0  0  0  0  3  0  0  0  0  0  0
  -29.6300  -16.2200   20.5940 C   0  0  0  0  0  3  0  0  0  0  0  0
  -29.9460  -17.5800   20.3670 C   0  0  0  0  0  0  0  0  0  0  0  0
  -30.4740  -14.9470   20.3440 C   0  0  0  0  0  0  0  0  0  0  0  0
  -30.3170  -12.6230   19.3790 C   0  0  0  0  0  2  0  0  0  0  0  0
  -29.3770  -12.6530   18.1510 C   0  0  0  0  0  2  0  0  0  0  0  0
  -27.9110  -12.4590   18.5820 C   0  0  0  0  0  2  0  0  0  0  0  0
  -27.5280  -13.3520   19.7930 C   0  0  0  0  0  3  0  0  0  0  0  0
  -28.5900  -13.2980   20.9090 C   0  0  0  0  0  2  0  0  0  0  0  0
  -29.8730  -13.6930   20.3150 N   0  0  0  0  0  0  0  0  0  0  0  0
  -31.6680  -14.9880   20.0250 O   0  0  0  0  0  0  0  0  0  0  0  0
  -25.1510  -13.9300   20.5500 C   0  0  0  0  0  0  0  0  0  0  0  0
  -24.0900  -13.1520   20.9210 C   0  0  0  0  0  0  0  0  0  0  0  0
  -24.5520  -11.8020   20.8770 C   0  0  0  0  0  0  0  0  0  0  0  0
  -26.1920  -13.0530   20.2940 N   0  0  0  0  0  0  0  0  0  0  0  0
  -25.8410  -11.7670   20.5560 N   0  0  0  0  0  0  0  0  0  0  0  0
  -23.8260  -10.5380   21.0610 C   0  0  0  0  0  0  0  0  0  0  0  0
  -24.2590   -9.5650   21.9890 C   0  0  0  0  0  3  0  0  0  0  0  0
  -23.5320   -8.3680   22.1630 C   0  0  0  0  0  3  0  0  0  0  0  0
  -22.3580   -8.1340   21.4090 C   0  0  0  0  0  0  0  0  0  0  0  0
  -21.9430   -9.0960   20.4700 C   0  0  0  0  0  3  0  0  0  0  0  0
  -22.6710  -10.2840   20.2940 C   0  0  0  0  0  3  0  0  0  0  0  0
  -21.6030   -6.9900   21.4920 O   0  0  0  0  0  0  0  0  0  0  0  0
  -21.5480   -6.2450   22.6430 C   0  0  0  0  0  0  0  0  0  0  0  0
  -21.1050   -6.7950   23.8650 C   0  0  0  0  0  3  0  0  0  0  0  0
  -20.9980   -5.9770   25.0070 C   0  0  0  0  0  3  0  0  0  0  0  0
  -21.3240   -4.6090   24.9290 C   0  0  0  0  0  0  0  0  0  0  0  0
  -21.7600   -4.0590   23.7110 C   0  0  0  0  0  3  0  0  0  0  0  0
  -21.8680   -4.8740   22.5700 C   0  0  0  0  0  0  0  0  0  0  0  0
  -22.2680   -4.3350   21.3940 F   0  0  0  0  0  0  0  0  0  0  0  0
  -21.2140   -3.8210   26.0230 F   0  0  0  0  0  0  0  0  0  0  0  0
  -22.6940  -13.6290   21.2040 C   0  0  0  0  0  0  0  0  0  0  0  0
  -21.9710  -12.9270   22.0710 N   0  0  0  0  0  0  0  0  0  0  0  0
  -22.2540  -14.6570   20.6930 O   0  0  0  0  0  0  0  0  0  0  0  0
  -22.3410  -12.0960   22.5080 H   0  0  0  0  0  0  0  0  0  0  0  0
  -21.0360  -13.2290   22.3020 H   0  0  0  0  0  0  0  0  0  0  0  0
  -25.3150  -15.3020   20.3810 N   0  0  0  0  0  0  0  0  0  0  0  0
  -24.5490  -15.9550   20.5020 H   0  0  0  0  0  0  0  0  0  0  0  0
  -26.1590  -15.7430   20.0370 H   0  0  0  0  0  0  0  0  0  0  0  0
  -31.1360  -17.9310   19.8620 O   0  0  0  0  0  0  0  0  0  0  0  0
  -31.1530  -18.8760   19.7910 H   0  0  0  0  0  0  0  0  0  0  0  0
  -28.9450  -25.0060   22.6100 C   0  0  0  0  0  2  0  0  0  0  0  0
  -30.3140  -25.3060   22.8060 O   0  0  0  0  0  0  0  0  0  0  0  0
  -30.7820  -24.4810   22.8920 H   0  0  0  0  0  0  0  0  0  0  0  0
  1  4  1  0
  2  1  2  0
  2  6  1  0
  4  3  2  0
  5  3  1  0
  5 90  1  0
  6  5  2  0
  7  9  1  0
  7  6  1  0
  8 19  2  0
  9 14  1  0
 10 18  1  0
 10 20  1  0
 11 17  1  0
 11 13  1  0
 12 18  1  0
 13 12  1  0
 14 13  2  0
 15 16  1  0
 15  9  2  0
 16 11  2  0
 17 10  1  0
 18  8  1  0
 20 22  2  0
 21 20  1  0
 23 21  1  0
 24 33  2  0
 24 29  1  0
 25 21  1  0
 25 29  1  0
 26 25  1  0
 27 28  1  0
 27 26  1  0
 28 24  1  0
 29 30  2  0
 30 31  1  0
 32 31  2  0
 33 32  1  0
 34  8  1  0
 34 35  1  0
 34 44  1  0
 35 38  1  0
 36 40  1  0
 36 35  1  0
 37 36  2  0
 40 39  1  0
 42 40  1  0
 42 43  1  0
 42 41  1  0
 44 47  1  1
 44 45  1  0
 46 44  1  0
 48  4  1  0
 48 49  2  0
 51 50  2  0
 51 49  1  0
 52 50  1  0
 53 58  1  0
 54 55  1  0
 54 53  1  0
 56 55  1  0
 56 63  1  0
 56 57  1  0
 58 52  1  0
 58 57  1  0
 59 52  2  0
 60 61  2  0
 61 80  1  0
 62 61  1  0
 62 65  1  0
 63 60  1  0
 63 64  1  0
 64 62  2  0
 65 66  1  0
 66 67  2  0
 68 71  1  0
 68 67  1  0
 69 68  2  0
 70 69  1  0
 70 65  2  0
 71 72  1  0
 72 73  1  0
 73 74  2  0
 75 74  1  0
 75 79  1  0
 76 75  2  0
 77 72  2  0
 77 76  1  0
 78 77  1  0
 80 81  1  0
 81 84  1  0
 81 83  1  0
 82 80  2  0
 85 86  1  0
 85 60  1  0
 87 85  1  0
 88 51  1  0
 89 88  1  0
 90 91  1  0
 91 92  1  0
M  ISO  4   6 101   7 101  50 100  52 100
M  END
>  <TORSDO>  (27) 
F 22

>  <SCORE>  (27) 
-13.451

>  <name>  (27) 
26

>  <ligand_id>  (27) 
26

>  <original_smiles>  (27) 
[H]OC(=C([H])C(=O)N1C([H])([H])C([H])([H])C([H])([H])C([H])(n2nc(-c3c([H])c([H])c(Oc4c([H])c([H])c(F)c([H])c4F)c([H])c3[H])c(C(=O)N([H])[H])c2N([H])[H])C1([H])[H])C([H])([H])C([H])([H])c1c([H])c([H])c(Oc2c([H])c([H])c3c(c2[H])C([H])([H])N(C(=O)C([H])(N([H])C(=O)C([H])(N([H])C([H])([H])[H])C([H])([H])[H])C(C([H])([H])[H])(C([H])([H])[H])C([H])([H])[H])C([H])(C(=O)N([H])C2([H])c4c([H])c([H])c([H])c([H])c4C([H])([H])C([H])([H])C2([H])[H])C3([H])[H])c(C([H])([H])O[H])c1[H]

>  <smiles>  (27) 
[H]OC(=C([H])C(=O)N1C([H])([H])C([H])([H])C([H])([H])C([H])(n2nc(-c3c([H])c([H])c(Oc4c([H])c([H])c(F)c([H])c4F)c([H])c3[H])c(C(=O)N([H])[H])c2N([H])[H])C1([H])[H])C([H])([H])C([H])([H])c1c([H])c([H])c(Oc2c([H])c([H])c3c(c2[H])C([H])([H])N(C(=O)C([H])(N([H])C(=O)C([H])(N([H])C([H])([H])[H])C([H])([H])[H])C(C([H])([H])[H])(C([H])([H])[H])C([H])([H])[H])C([H])(C(=O)N([H])C2([H])c4c([H])c([H])c([H])c([H])c4C([H])([H])C([H])([H])C2([H])[H])C3([H])[H])c(C([H])([H])O[H])c1[H]

$$$$
27:0:0
     RDKit          3D

 87 95  0  0  1  0  0  0  0  0999 V2000
  -29.7250  -22.3050   19.9360 C   0  0  0  0  0  3  0  0  0  0  0  0
  -27.5060  -22.0930   20.5260 C   0  0  0  0  0  3  0  0  0  0  0  0
  -29.5390  -23.7770   19.9110 C   0  0  0  0  0  3  0  0  0  0  0  0
  -27.3190  -23.5600   20.5000 C   0  0  0  0  0  3  0  0  0  0  0  0
  -28.7150  -21.3140   20.2550 C   0  0  0  0  0  0  0  0  0  0  0  0
  -28.3290  -24.5470   20.1870 C   0  0  0  0  0  0  0  0  0  0  0  0
  -28.7310  -19.6200   20.3580 C   0  0  0  0  0  0  0  0  0  0  0  0
  -27.6400  -19.1430   20.6800 O   0  0  0  0  0  0  0  0  0  0  0  0
  -29.8560  -18.3550   20.1340 C   0  0  0  0  0  3  0  0  0  0  0  0
  -29.5590  -16.6400   20.4250 C   0  0  0  0  0  3  0  0  0  0  0  0
  -30.4370  -15.1950   20.1070 C   0  0  0  0  0  0  0  0  0  0  0  0
  -30.4080  -12.7850   19.1880 C   0  0  0  0  0  2  0  0  0  0  0  0
  -29.4370  -12.6690   17.9850 C   0  0  0  0  0  2  0  0  0  0  0  0
  -27.9960  -12.4090   18.4630 C   0  0  0  0  0  2  0  0  0  0  0  0
  -27.6000  -13.3360   19.6410 C   0  0  0  0  0  3  0  0  0  0  0  0
  -28.6880  -13.4030   20.7310 C   0  0  0  0  0  2  0  0  0  0  0  0
  -29.9210  -13.8800   20.0920 N   0  0  0  0  0  0  0  0  0  0  0  0
  -31.6250  -15.2650   19.7620 O   0  0  0  0  0  0  0  0  0  0  0  0
  -25.2560  -13.8820   20.4970 C   0  0  0  0  0  0  0  0  0  0  0  0
  -24.2080  -13.0960   20.8880 C   0  0  0  0  0  0  0  0  0  0  0  0
  -24.6720  -11.7470   20.8040 C   0  0  0  0  0  0  0  0  0  0  0  0
  -26.2870  -13.0130   20.1890 N   0  0  0  0  0  0  0  0  0  0  0  0
  -25.9500  -11.7210   20.4410 N   0  0  0  0  0  0  0  0  0  0  0  0
  -23.9520  -10.4800   20.9910 C   0  0  0  0  0  0  0  0  0  0  0  0
  -24.3920   -9.5070   21.9150 C   0  0  0  0  0  3  0  0  0  0  0  0
  -23.6700   -8.3070   22.0900 C   0  0  0  0  0  3  0  0  0  0  0  0
  -22.4930   -8.0700   21.3410 C   0  0  0  0  0  0  0  0  0  0  0  0
  -22.0720   -9.0320   20.4060 C   0  0  0  0  0  3  0  0  0  0  0  0
  -22.7950  -10.2230   20.2280 C   0  0  0  0  0  3  0  0  0  0  0  0
  -21.7420   -6.9220   21.4250 O   0  0  0  0  0  0  0  0  0  0  0  0
  -21.6670   -6.1960   22.5870 C   0  0  0  0  0  0  0  0  0  0  0  0
  -21.1870   -6.7600   23.7880 C   0  0  0  0  0  3  0  0  0  0  0  0
  -21.0590   -5.9590   24.9410 C   0  0  0  0  0  3  0  0  0  0  0  0
  -21.4020   -4.5950   24.8920 C   0  0  0  0  0  0  0  0  0  0  0  0
  -21.8760   -4.0300   23.6950 C   0  0  0  0  0  3  0  0  0  0  0  0
  -22.0040   -4.8290   22.5440 C   0  0  0  0  0  0  0  0  0  0  0  0
  -22.4410   -4.2740   21.3880 F   0  0  0  0  0  0  0  0  0  0  0  0
  -21.2740   -3.8230   25.9970 F   0  0  0  0  0  0  0  0  0  0  0  0
  -22.8220  -13.5650   21.2230 C   0  0  0  0  0  0  0  0  0  0  0  0
  -22.1290  -12.8500   22.1010 N   0  0  0  0  0  0  0  0  0  0  0  0
  -22.3650  -14.6010   20.7420 O   0  0  0  0  0  0  0  0  0  0  0  0
  -22.5120  -12.0130   22.5120 H   0  0  0  0  0  0  0  0  0  0  0  0
  -21.2000  -13.1470   22.3680 H   0  0  0  0  0  0  0  0  0  0  0  0
  -25.4120  -15.2570   20.3530 N   0  0  0  0  0  0  0  0  0  0  0  0
  -24.6540  -15.9080   20.5260 H   0  0  0  0  0  0  0  0  0  0  0  0
  -26.2550  -15.7120   20.0240 H   0  0  0  0  0  0  0  0  0  0  0  0
  -28.2760  -26.0630   20.2070 O   0  0  0  0  0  0  0  0  0  0  0  0
  -24.6270  -31.8550   23.2340 C   0  0  0  0  0  0  0  0  0  0  0  0
  -27.1920  -27.0530   20.2040 C   0  0  0  0  0  0  0  0  0  0  0  0
  -23.4280  -30.4660   21.5890 C   0  0  0  0  0  3  0  0  0  0  0  0
  -24.8750  -28.8690   20.1650 C   0  0  0  0  0  0  0  0  0  0  0  0
  -25.9880  -30.6980   21.4360 C   0  0  0  0  0  2  0  0  0  0  0  0
  -26.0560  -29.2940   20.7840 C   0  0  0  0  0  0  0  0  0  0  0  0
  -27.2080  -28.4030   20.7830 C   0  0  0  0  0  3  0  0  0  0  0  0
  -25.9830  -26.7530   19.5410 C   0  0  0  0  0  3  0  0  0  0  0  0
  -24.8560  -27.6160   19.5270 C   0  0  0  0  0  3  0  0  0  0  0  0
  -23.6540  -29.7830   20.2110 C   0  0  0  0  0  2  0  0  0  0  0  0
  -24.7020  -31.0320   22.1400 N   0  0  0  0  0  0  0  0  0  0  0  0
  -23.5390  -32.1420   23.7600 O   0  0  0  0  0  0  0  0  0  0  0  0
  -22.7400  -29.4650   22.5520 C   0  0  0  0  0  0  0  0  0  0  0  0
  -21.4090  -29.3060   22.4310 N   0  0  0  0  0  0  0  0  0  0  0  0
  -23.4080  -28.8300   23.3720 O   0  0  0  0  0  0  0  0  0  0  0  0
  -20.9240  -29.8690   21.7460 H   0  0  0  0  0  0  0  0  0  0  0  0
  -18.0200  -28.1290   22.9570 C   0  0  0  0  0  0  0  0  0  0  0  0
  -20.5850  -28.3690   23.2000 C   0  0  0  0  0  3  0  0  0  0  0  0
  -20.6670  -26.9420   22.6090 C   0  0  0  0  0  2  0  0  0  0  0  0
  -19.5520  -26.6410   21.6010 C   0  0  0  0  0  2  0  0  0  0  0  0
  -18.1790  -26.7890   22.2620 C   0  0  0  0  0  2  0  0  0  0  0  0
  -19.1500  -28.8790   23.3840 C   0  0  0  0  0  0  0  0  0  0  0  0
  -18.9450  -30.1330   23.9980 C   0  0  0  0  0  3  0  0  0  0  0  0
  -17.6460  -30.6400   24.1880 C   0  0  0  0  0  3  0  0  0  0  0  0
  -16.5320  -29.8890   23.7750 C   0  0  0  0  0  3  0  0  0  0  0  0
  -16.7200  -28.6350   23.1660 C   0  0  0  0  0  3  0  0  0  0  0  0
  -25.9020  -32.4900   23.8680 C   0  0  0  0  0  3  0  0  0  0  0  0
  -26.4090  -31.7180   25.1490 C   0  0  1  0  0  0  0  0  0  0  0  0
  -25.3090  -31.4820   26.2100 C   0  0  0  0  0  1  0  0  0  0  0  0
  -26.9930  -30.3400   24.7660 C   0  0  0  0  0  1  0  0  0  0  0  0
  -27.5560  -32.5110   25.8190 C   0  0  0  0  0  1  0  0  0  0  0  0
  -25.5870  -33.8890   24.2090 N   0  0  0  0  0  0  0  0  0  0  0  0
  -25.8910  -34.9500   23.4500 C   0  0  0  0  0  0  0  0  0  0  0  0
  -26.5280  -34.8560   22.3980 O   0  0  0  0  0  0  0  0  0  0  0  0
  -25.0160  -34.0350   25.0280 H   0  0  0  0  0  0  0  0  0  0  0  0
  -24.1280  -36.7300   23.1870 C   0  0  0  0  0  1  0  0  0  0  0  0
  -25.4140  -36.3360   23.9320 C   0  0  0  0  0  3  0  0  0  0  0  0
  -27.5750  -37.2520   24.6580 C   0  0  0  0  0  1  0  0  0  0  0  0
  -26.4290  -37.3990   23.7630 N   0  0  0  0  0  0  0  0  0  0  0  0
  -26.0200  -38.3170   23.9210 H   0  0  0  0  0  0  0  0  0  0  0  0
  1  5  1  0
  3  1  2  0
  3  6  1  0
  4  2  1  0
  5  7  1  0
  5  2  2  0
  6 47  1  0
  6  4  2  0
  7  8  2  0
  9  7  1  0
  9 10  2  0
 11 10  1  0
 12 17  1  0
 13 14  1  0
 13 12  1  0
 15 14  1  0
 15 22  1  0
 15 16  1  0
 17 11  1  0
 17 16  1  0
 18 11  2  0
 19 20  2  0
 20 39  1  0
 21 20  1  0
 21 24  1  0
 22 23  1  0
 22 19  1  0
 23 21  2  0
 24 25  1  0
 25 26  2  0
 27 30  1  0
 27 26  1  0
 28 27  2  0
 29 28  1  0
 29 24  2  0
 30 31  1  0
 31 32  1  0
 32 33  2  0
 34 33  1  0
 34 38  1  0
 35 34  2  0
 36 31  2  0
 36 35  1  0
 37 36  1  0
 39 40  1  0
 40 43  1  0
 40 42  1  0
 41 39  2  0
 44 19  1  0
 44 45  1  0
 46 44  1  0
 48 59  2  0
 49 47  1  0
 49 54  1  0
 50 58  1  0
 50 60  1  0
 51 57  1  0
 51 53  1  0
 52 58  1  0
 53 52  1  0
 54 53  2  0
 55 49  2  0
 56 55  1  0
 56 51  2  0
 57 50  1  0
 58 48  1  0
 60 62  2  0
 61 60  1  0
 63 61  1  0
 64 73  2  0
 64 69  1  0
 65 61  1  0
 65 69  1  0
 66 65  1  0
 67 68  1  0
 67 66  1  0
 68 64  1  0
 69 70  2  0
 70 71  1  0
 72 71  2  0
 73 72  1  0
 74 48  1  0
 74 79  1  0
 74 75  1  0
 75 78  1  1
 75 76  1  0
 77 75  1  0
 79 82  1  0
 80 84  1  0
 80 79  1  0
 81 80  2  0
 84 83  1  0
 86 87  1  0
 86 84  1  0
 86 85  1  0
M  ISO  4   6 101  10 100  11 100  47 101
M  END
>  <TORSDO>  (28) 
F 19

>  <SCORE>  (28) 
-15.688

>  <name>  (28) 
27

>  <ligand_id>  (28) 
27

>  <original_smiles>  (28) 
[H]c1c([H])c([H])c2c(c1[H])C([H])([H])C([H])([H])C([H])([H])C2([H])N([H])C(=O)C1([H])N(C(=O)C([H])(N([H])C(=O)C([H])(N([H])C([H])([H])[H])C([H])([H])[H])C(C([H])([H])[H])(C([H])([H])[H])C([H])([H])[H])C([H])([H])c2c([H])c(Oc3c([H])c([H])c(C(=O)C([H])([H])C([H])([H])C(=O)N4C([H])([H])C([H])([H])C([H])([H])C([H])(n5nc(-c6c([H])c([H])c(Oc7c([H])c([H])c(F)c([H])c7F)c([H])c6[H])c(C(=O)N([H])[H])c5N([H])[H])C4([H])[H])c([H])c3[H])c([H])c([H])c2C1([H])[H]

>  <smiles>  (28) 
[H]c1c([H])c([H])c2c(c1[H])C([H])([H])C([H])([H])C([H])([H])C2([H])N([H])C(=O)C1([H])N(C(=O)C([H])(N([H])C(=O)C([H])(N([H])C([H])([H])[H])C([H])([H])[H])C(C([H])([H])[H])(C([H])([H])[H])C([H])([H])[H])C([H])([H])c2c([H])c(Oc3c([H])c([H])c(C(=O)C([H])([H])C([H])([H])C(=O)N4C([H])([H])C([H])([H])C([H])([H])C([H])(n5nc(-c6c([H])c([H])c(Oc7c([H])c([H])c(F)c([H])c7F)c([H])c6[H])c(C(=O)N([H])[H])c5N([H])[H])C4([H])[H])c([H])c3[H])c([H])c([H])c2C1([H])[H]

$$$$
28:0:0
     RDKit          3D

 89 97  0  0  1  0  0  0  0  0999 V2000
  -27.5520  -22.0590   20.7700 C   0  0  0  0  0  3  0  0  0  0  0  0
  -27.3550  -23.5290   20.7370 C   0  0  0  0  0  3  0  0  0  0  0  0
  -29.4610  -23.7330   19.8400 C   0  0  0  0  0  3  0  0  0  0  0  0
  -28.7090  -21.2720   20.3480 C   0  0  0  0  0  0  0  0  0  0  0  0
  -28.2980  -24.5200   20.2580 C   0  0  0  0  0  0  0  0  0  0  0  0
  -29.6730  -22.2470   19.8640 C   0  0  0  0  0  0  0  0  0  0  0  0
  -31.8740  -22.5020   18.9090 C   0  0  0  0  0  1  0  0  0  0  0  0
  -30.8370  -21.6650   19.4070 O   0  0  0  0  0  0  0  0  0  0  0  0
  -28.2500  -26.0500   20.2600 O   0  0  0  0  0  0  0  0  0  0  0  0
  -24.6490  -31.9390   23.2510 C   0  0  0  0  0  0  0  0  0  0  0  0
  -27.1780  -27.0710   20.2520 C   0  0  0  0  0  0  0  0  0  0  0  0
  -23.4410  -30.5420   21.6230 C   0  0  0  0  0  3  0  0  0  0  0  0
  -24.8750  -28.9230   20.2050 C   0  0  0  0  0  0  0  0  0  0  0  0
  -26.0020  -30.7520   21.4610 C   0  0  0  0  0  2  0  0  0  0  0  0
  -26.0620  -29.3390   20.8190 C   0  0  0  0  0  0  0  0  0  0  0  0
  -27.2070  -28.4320   20.8190 C   0  0  0  0  0  3  0  0  0  0  0  0
  -25.9640  -26.7900   19.5910 C   0  0  0  0  0  3  0  0  0  0  0  0
  -24.8460  -27.6660   19.5740 C   0  0  0  0  0  3  0  0  0  0  0  0
  -23.6590  -29.8470   20.2490 C   0  0  0  0  0  2  0  0  0  0  0  0
  -24.7190  -31.1050   22.1660 N   0  0  0  0  0  0  0  0  0  0  0  0
  -23.5640  -32.2350   23.7790 O   0  0  0  0  0  0  0  0  0  0  0  0
  -22.7490  -29.5520   22.5960 C   0  0  0  0  0  0  0  0  0  0  0  0
  -21.4210  -29.3810   22.4660 N   0  0  0  0  0  0  0  0  0  0  0  0
  -23.4140  -28.9380   23.4340 O   0  0  0  0  0  0  0  0  0  0  0  0
  -20.9380  -29.9270   21.7670 H   0  0  0  0  0  0  0  0  0  0  0  0
  -18.0400  -28.1690   22.9720 C   0  0  0  0  0  0  0  0  0  0  0  0
  -20.5970  -28.4490   23.2430 C   0  0  0  0  0  3  0  0  0  0  0  0
  -20.7080  -27.0110   22.6840 C   0  0  0  0  0  2  0  0  0  0  0  0
  -19.6120  -26.6740   21.6680 C   0  0  0  0  0  2  0  0  0  0  0  0
  -18.2270  -26.8150   22.3050 C   0  0  0  0  0  2  0  0  0  0  0  0
  -19.1530  -28.9420   23.3970 C   0  0  0  0  0  0  0  0  0  0  0  0
  -18.9240  -30.2050   23.9840 C   0  0  0  0  0  3  0  0  0  0  0  0
  -17.6140  -30.6970   24.1460 C   0  0  0  0  0  3  0  0  0  0  0  0
  -16.5160  -29.9220   23.7340 C   0  0  0  0  0  3  0  0  0  0  0  0
  -16.7310  -28.6600   23.1530 C   0  0  0  0  0  3  0  0  0  0  0  0
  -25.9280  -32.5770   23.8770 C   0  0  0  0  0  3  0  0  0  0  0  0
  -26.4370  -31.8130   25.1620 C   0  0  1  0  0  0  0  0  0  0  0  0
  -25.3390  -31.5870   26.2290 C   0  0  0  0  0  1  0  0  0  0  0  0
  -27.0150  -30.4290   24.7890 C   0  0  0  0  0  1  0  0  0  0  0  0
  -27.5880  -32.6070   25.8220 C   0  0  0  0  0  1  0  0  0  0  0  0
  -25.6170  -33.9780   24.2110 N   0  0  0  0  0  0  0  0  0  0  0  0
  -25.9300  -35.0360   23.4500 C   0  0  0  0  0  0  0  0  0  0  0  0
  -26.5740  -34.9350   22.4030 O   0  0  0  0  0  0  0  0  0  0  0  0
  -25.0400  -34.1290   25.0250 H   0  0  0  0  0  0  0  0  0  0  0  0
  -24.1870  -36.8310   23.1600 C   0  0  0  0  0  1  0  0  0  0  0  0
  -25.4580  -36.4260   23.9240 C   0  0  0  0  0  3  0  0  0  0  0  0
  -27.6150  -37.3240   24.6820 C   0  0  0  0  0  1  0  0  0  0  0  0
  -26.4840  -37.4810   23.7720 N   0  0  0  0  0  0  0  0  0  0  0  0
  -26.0790  -38.4010   23.9260 H   0  0  0  0  0  0  0  0  0  0  0  0
  -28.7250  -19.5260   20.3790 C   0  0  0  0  0  3  0  0  0  0  0  0
  -29.8950  -18.1900   20.3100 C   0  0  0  0  0  3  0  0  0  0  0  0
  -30.4180  -15.3080   20.2440 C   0  0  0  0  0  0  0  0  0  0  0  0
  -30.3840  -12.8880   19.3360 C   0  0  0  0  0  2  0  0  0  0  0  0
  -29.4410  -12.7190   18.1190 C   0  0  0  0  0  2  0  0  0  0  0  0
  -27.9990  -12.4450   18.5800 C   0  0  0  0  0  2  0  0  0  0  0  0
  -27.5690  -13.3860   19.7330 C   0  0  0  0  0  3  0  0  0  0  0  0
  -28.6360  -13.5050   20.8410 C   0  0  0  0  0  2  0  0  0  0  0  0
  -29.8580  -14.0070   20.1950 N   0  0  0  0  0  0  0  0  0  0  0  0
  -31.6290  -15.3360   19.9850 O   0  0  0  0  0  0  0  0  0  0  0  0
  -29.6390  -16.5520   20.3830 N   0  0  0  0  0  0  0  0  0  0  0  0
  -28.6670  -16.3350   20.5540 H   0  0  0  0  0  0  0  0  0  0  0  0
  -25.2100  -13.9230   20.5390 C   0  0  0  0  0  0  0  0  0  0  0  0
  -24.1590  -13.1340   20.9150 C   0  0  0  0  0  0  0  0  0  0  0  0
  -24.6320  -11.7870   20.8510 C   0  0  0  0  0  0  0  0  0  0  0  0
  -26.2520  -13.0570   20.2590 N   0  0  0  0  0  0  0  0  0  0  0  0
  -25.9180  -11.7650   20.5160 N   0  0  0  0  0  0  0  0  0  0  0  0
  -23.9150  -10.5180   21.0310 C   0  0  0  0  0  0  0  0  0  0  0  0
  -24.3460   -9.5500   21.9650 C   0  0  0  0  0  3  0  0  0  0  0  0
  -23.6250   -8.3470   22.1340 C   0  0  0  0  0  3  0  0  0  0  0  0
  -22.4600   -8.1040   21.3680 C   0  0  0  0  0  0  0  0  0  0  0  0
  -22.0490   -9.0620   20.4240 C   0  0  0  0  0  3  0  0  0  0  0  0
  -22.7700  -10.2550   20.2530 C   0  0  0  0  0  3  0  0  0  0  0  0
  -21.7120   -6.9550   21.4460 O   0  0  0  0  0  0  0  0  0  0  0  0
  -21.6270   -6.2290   22.6070 C   0  0  0  0  0  0  0  0  0  0  0  0
  -21.1180   -6.7880   23.8000 C   0  0  0  0  0  3  0  0  0  0  0  0
  -20.9830   -5.9870   24.9510 C   0  0  0  0  0  3  0  0  0  0  0  0
  -21.3460   -4.6280   24.9100 C   0  0  0  0  0  0  0  0  0  0  0  0
  -21.8480   -4.0680   23.7220 C   0  0  0  0  0  3  0  0  0  0  0  0
  -21.9840   -4.8670   22.5730 C   0  0  0  0  0  0  0  0  0  0  0  0
  -22.4490   -4.3160   21.4260 F   0  0  0  0  0  0  0  0  0  0  0  0
  -21.2100   -3.8560   26.0150 F   0  0  0  0  0  0  0  0  0  0  0  0
  -22.7650  -13.5990   21.2150 C   0  0  0  0  0  0  0  0  0  0  0  0
  -22.0560  -12.8890   22.0840 N   0  0  0  0  0  0  0  0  0  0  0  0
  -22.3140  -14.6280   20.7140 O   0  0  0  0  0  0  0  0  0  0  0  0
  -22.4350  -12.0570   22.5110 H   0  0  0  0  0  0  0  0  0  0  0  0
  -21.1210  -13.1820   22.3290 H   0  0  0  0  0  0  0  0  0  0  0  0
  -25.3600  -15.2980   20.3810 N   0  0  0  0  0  0  0  0  0  0  0  0
  -24.5850  -15.9400   20.5100 H   0  0  0  0  0  0  0  0  0  0  0  0
  -26.1830  -15.7450   19.9970 H   0  0  0  0  0  0  0  0  0  0  0  0
  2  1  1  0
  3  6  2  0
  3  5  1  0
  4 50  1  0
  4  1  2  0
  5  9  1  0
  5  2  2  0
  6  4  1  0
  7  8  1  0
  8  6  1  0
 10 21  2  0
 11  9  1  0
 11 16  1  0
 12 20  1  0
 12 22  1  0
 13 19  1  0
 13 15  1  0
 14 20  1  0
 15 14  1  0
 16 15  2  0
 17 11  2  0
 18 17  1  0
 18 13  2  0
 19 12  1  0
 20 10  1  0
 22 24  2  0
 23 22  1  0
 25 23  1  0
 26 35  2  0
 26 31  1  0
 27 23  1  0
 27 31  1  0
 28 27  1  0
 29 30  1  0
 29 28  1  0
 30 26  1  0
 31 32  2  0
 32 33  1  0
 34 33  2  0
 35 34  1  0
 36 10  1  0
 36 41  1  0
 36 37  1  0
 37 40  1  1
 37 38  1  0
 39 37  1  0
 41 44  1  0
 42 46  1  0
 42 41  1  0
 43 42  2  0
 46 45  1  0
 48 46  1  0
 48 49  1  0
 48 47  1  0
 51 50  2  0
 51 60  1  0
 52 60  1  0
 53 58  1  0
 54 55  1  0
 54 53  1  0
 56 55  1  0
 56 65  1  0
 56 57  1  0
 58 52  1  0
 58 57  1  0
 59 52  2  0
 60 61  1  0
 62 63  2  0
 63 82  1  0
 64 63  1  0
 64 67  1  0
 65 66  1  0
 65 62  1  0
 66 64  2  0
 67 68  1  0
 68 69  2  0
 70 73  1  0
 70 69  1  0
 71 70  2  0
 72 71  1  0
 72 67  2  0
 73 74  1  0
 74 75  1  0
 75 76  2  0
 77 76  1  0
 77 81  1  0
 78 77  2  0
 79 74  2  0
 79 78  1  0
 80 79  1  0
 82 83  1  0
 83 86  1  0
 83 85  1  0
 84 82  2  0
 87 88  1  0
 87 62  1  0
 89 87  1  0
M  ISO  4   5 101   9 101  52 100  60 100
M  END
>  <TORSDO>  (29) 
F 19

>  <SCORE>  (29) 
-15.170

>  <name>  (29) 
28

>  <ligand_id>  (29) 
28

>  <original_smiles>  (29) 
[H]c1c([H])c([H])c2c(c1[H])C([H])([H])C([H])([H])C([H])([H])C2([H])N([H])C(=O)C1([H])N(C(=O)C([H])(N([H])C(=O)C([H])(N([H])C([H])([H])[H])C([H])([H])[H])C(C([H])([H])[H])(C([H])([H])[H])C([H])([H])[H])C([H])([H])c2c([H])c(Oc3c([H])c([H])c(C([H])([H])C([H])([H])N([H])C(=O)N4C([H])([H])C([H])([H])C([H])([H])C([H])(n5nc(-c6c([H])c([H])c(Oc7c([H])c([H])c(F)c([H])c7F)c([H])c6[H])c(C(=O)N([H])[H])c5N([H])[H])C4([H])[H])c(OC([H])([H])[H])c3[H])c([H])c([H])c2C1([H])[H]

>  <smiles>  (29) 
[H]c1c([H])c([H])c2c(c1[H])C([H])([H])C([H])([H])C([H])([H])C2([H])N([H])C(=O)C1([H])N(C(=O)C([H])(N([H])C(=O)C([H])(N([H])C([H])([H])[H])C([H])([H])[H])C(C([H])([H])[H])(C([H])([H])[H])C([H])([H])[H])C([H])([H])c2c([H])c(Oc3c([H])c([H])c(C([H])([H])C([H])([H])N([H])C(=O)N4C([H])([H])C([H])([H])C([H])([H])C([H])(n5nc(-c6c([H])c([H])c(Oc7c([H])c([H])c(F)c([H])c7F)c([H])c6[H])c(C(=O)N([H])[H])c5N([H])[H])C4([H])[H])c(OC([H])([H])[H])c3[H])c([H])c([H])c2C1([H])[H]

$$$$
29:0:0
     RDKit          3D

 90 98  0  0  1  0  0  0  0  0999 V2000
  -30.8390  -17.7930   19.6050 C   0  0  0  0  0  3  0  0  0  0  0  0
  -30.4540  -19.2120   19.5150 C   0  0  0  0  0  3  0  0  0  0  0  0
  -29.9850  -16.6490   19.8780 C   0  0  0  0  0  0  0  0  0  0  0  0
  -29.1290  -19.7490   19.7010 C   0  0  0  0  0  0  0  0  0  0  0  0
  -28.2680  -18.6080   20.0060 C   0  0  0  0  0  0  0  0  0  0  0  0
  -28.6560  -17.1790   20.0970 C   0  0  0  0  0  0  0  0  0  0  0  0
  -27.6670  -16.3060   20.4010 F   0  0  0  0  0  0  0  0  0  0  0  0
  -30.5740  -15.1040   19.9660 C   0  0  0  0  0  0  0  0  0  0  0  0
  -30.4290  -12.6470   19.2600 C   0  0  0  0  0  2  0  0  0  0  0  0
  -29.4920  -12.4280   18.0490 C   0  0  0  0  0  2  0  0  0  0  0  0
  -28.0400  -12.2300   18.5170 C   0  0  0  0  0  2  0  0  0  0  0  0
  -27.6290  -13.2670   19.5930 C   0  0  0  0  0  3  0  0  0  0  0  0
  -28.6930  -13.4360   20.6940 C   0  0  0  0  0  2  0  0  0  0  0  0
  -29.9370  -13.8430   20.0290 N   0  0  0  0  0  0  0  0  0  0  0  0
  -31.7880  -15.0060   19.7350 O   0  0  0  0  0  0  0  0  0  0  0  0
  -25.2980  -13.9050   20.4110 C   0  0  0  0  0  0  0  0  0  0  0  0
  -24.2220  -13.1620   20.8040 C   0  0  0  0  0  0  0  0  0  0  0  0
  -24.6450  -11.7970   20.7630 C   0  0  0  0  0  0  0  0  0  0  0  0
  -26.3070  -12.9980   20.1410 N   0  0  0  0  0  0  0  0  0  0  0  0
  -25.9270  -11.7230   20.4190 N   0  0  0  0  0  0  0  0  0  0  0  0
  -23.8830  -10.5590   20.9700 C   0  0  0  0  0  0  0  0  0  0  0  0
  -24.3220   -9.5620   21.8670 C   0  0  0  0  0  3  0  0  0  0  0  0
  -23.5580   -8.3910   22.0660 C   0  0  0  0  0  3  0  0  0  0  0  0
  -22.3420   -8.2110   21.3650 C   0  0  0  0  0  0  0  0  0  0  0  0
  -21.9210   -9.1970   20.4560 C   0  0  0  0  0  3  0  0  0  0  0  0
  -22.6840  -10.3580   20.2560 C   0  0  0  0  0  3  0  0  0  0  0  0
  -21.5470   -7.0950   21.4740 O   0  0  0  0  0  0  0  0  0  0  0  0
  -21.5480   -6.3180   22.6060 C   0  0  0  0  0  0  0  0  0  0  0  0
  -21.2340   -6.8520   23.8750 C   0  0  0  0  0  3  0  0  0  0  0  0
  -21.1760   -6.0030   24.9990 C   0  0  0  0  0  3  0  0  0  0  0  0
  -21.4250   -4.6260   24.8560 C   0  0  0  0  0  0  0  0  0  0  0  0
  -21.7320   -4.0930   23.5910 C   0  0  0  0  0  3  0  0  0  0  0  0
  -21.7900   -4.9370   22.4690 C   0  0  0  0  0  0  0  0  0  0  0  0
  -22.0650   -4.4150   21.2500 F   0  0  0  0  0  0  0  0  0  0  0  0
  -21.3610   -3.8100   25.9340 F   0  0  0  0  0  0  0  0  0  0  0  0
  -22.8500  -13.6840   21.1140 C   0  0  0  0  0  0  0  0  0  0  0  0
  -22.1300  -13.0190   22.0090 N   0  0  0  0  0  0  0  0  0  0  0  0
  -22.4280  -14.7170   20.5970 O   0  0  0  0  0  0  0  0  0  0  0  0
  -22.4860  -12.1810   22.4440 H   0  0  0  0  0  0  0  0  0  0  0  0
  -21.2130  -13.3530   22.2660 H   0  0  0  0  0  0  0  0  0  0  0  0
  -25.4970  -15.2700   20.2380 N   0  0  0  0  0  0  0  0  0  0  0  0
  -24.7740  -15.9500   20.4400 H   0  0  0  0  0  0  0  0  0  0  0  0
  -26.4130  -15.6910   20.1250 H   0  0  0  0  0  0  0  0  0  0  0  0
  -26.9130  -18.8660   20.2080 N   0  0  0  0  0  0  0  0  0  0  0  0
  -26.6820  -19.7260   20.6910 H   0  0  0  0  0  0  0  0  0  0  0  0
  -26.3810  -18.0740   20.5570 H   0  0  0  0  0  0  0  0  0  0  0  0
  -28.5930  -21.3320   19.3160 C   0  0  0  0  0  2  0  0  0  0  0  0
  -28.9180  -22.9510   19.8660 C   0  0  0  0  0  3  0  0  0  0  0  0
  -28.0530  -24.4160   19.4530 C   0  0  0  0  0  3  0  0  0  0  0  0
  -28.2740  -25.9680   19.8000 O   0  0  0  0  0  0  0  0  0  0  0  0
  -24.5670  -31.5950   22.9980 C   0  0  0  0  0  0  0  0  0  0  0  0
  -27.2260  -26.9930   19.7670 C   0  0  0  0  0  0  0  0  0  0  0  0
  -23.3940  -30.2320   21.3160 C   0  0  0  0  0  3  0  0  0  0  0  0
  -24.8700  -28.7440   19.8150 C   0  0  0  0  0  0  0  0  0  0  0  0
  -25.9440  -30.5440   21.1510 C   0  0  0  0  0  2  0  0  0  0  0  0
  -26.0470  -29.1740   20.4410 C   0  0  0  0  0  0  0  0  0  0  0  0
  -27.2220  -28.3160   20.3990 C   0  0  0  0  0  3  0  0  0  0  0  0
  -26.0230  -26.6950   19.0930 C   0  0  0  0  0  3  0  0  0  0  0  0
  -24.8770  -27.5230   19.1220 C   0  0  0  0  0  3  0  0  0  0  0  0
  -23.6230  -29.6140   19.9110 C   0  0  0  0  0  2  0  0  0  0  0  0
  -24.6560  -30.8130   21.8770 N   0  0  0  0  0  0  0  0  0  0  0  0
  -23.4760  -31.8320   23.5420 O   0  0  0  0  0  0  0  0  0  0  0  0
  -22.7450  -29.1740   22.2440 C   0  0  0  0  0  0  0  0  0  0  0  0
  -21.4160  -28.9890   22.1340 N   0  0  0  0  0  0  0  0  0  0  0  0
  -23.4390  -28.5240   23.0300 O   0  0  0  0  0  0  0  0  0  0  0  0
  -20.9090  -29.5650   21.4780 H   0  0  0  0  0  0  0  0  0  0  0  0
  -18.0630  -27.7220   22.6640 C   0  0  0  0  0  0  0  0  0  0  0  0
  -20.6250  -28.0040   22.8780 C   0  0  0  0  0  3  0  0  0  0  0  0
  -20.7280  -26.6040   22.2280 C   0  0  0  0  0  2  0  0  0  0  0  0
  -19.6030  -26.3220   21.2260 C   0  0  0  0  0  2  0  0  0  0  0  0
  -18.2370  -26.4150   21.9100 C   0  0  0  0  0  2  0  0  0  0  0  0
  -19.1830  -28.4760   23.1040 C   0  0  0  0  0  0  0  0  0  0  0  0
  -18.9630  -29.7010   23.7740 C   0  0  0  0  0  3  0  0  0  0  0  0
  -17.6570  -30.1700   24.0060 C   0  0  0  0  0  3  0  0  0  0  0  0
  -16.5520  -29.4130   23.5790 C   0  0  0  0  0  3  0  0  0  0  0  0
  -16.7570  -28.1920   22.9140 C   0  0  0  0  0  3  0  0  0  0  0  0
  -25.8290  -32.2440   23.6420 C   0  0  0  0  0  3  0  0  0  0  0  0
  -26.3560  -31.4520   24.9040 C   0  0  1  0  0  0  0  0  0  0  0  0
  -25.2670  -31.1760   25.9670 C   0  0  0  0  0  1  0  0  0  0  0  0
  -26.9610  -30.0910   24.4890 C   0  0  0  0  0  1  0  0  0  0  0  0
  -27.4930  -32.2490   25.5840 C   0  0  0  0  0  1  0  0  0  0  0  0
  -25.4830  -33.6250   24.0180 N   0  0  0  0  0  0  0  0  0  0  0  0
  -25.7910  -34.7140   23.3010 C   0  0  0  0  0  0  0  0  0  0  0  0
  -26.4600  -34.6630   22.2660 O   0  0  0  0  0  0  0  0  0  0  0  0
  -24.8880  -33.7340   24.8250 H   0  0  0  0  0  0  0  0  0  0  0  0
  -24.0140  -36.4790   23.0300 C   0  0  0  0  0  1  0  0  0  0  0  0
  -25.2750  -36.0760   23.8100 C   0  0  0  0  0  3  0  0  0  0  0  0
  -27.3970  -36.9920   24.6430 C   0  0  0  0  0  1  0  0  0  0  0  0
  -26.2800  -37.1580   23.7170 N   0  0  0  0  0  0  0  0  0  0  0  0
  -25.8530  -38.0630   23.8940 H   0  0  0  0  0  0  0  0  0  0  0  0
  1  3  1  0
  2  1  2  0
  2  4  1  0
  3  8  1  0
  3  6  2  0
  4  5  2  0
  5  6  1  0
  5 44  1  0
  6  7  1  0
  8 14  1  0
  9 14  1  0
 10 11  1  0
 10  9  1  0
 12 11  1  0
 12 19  1  0
 12 13  1  0
 14 13  1  0
 15  8  2  0
 16 17  2  0
 17 36  1  0
 18 17  1  0
 18 21  1  0
 19 16  1  0
 19 20  1  0
 20 18  2  0
 21 22  1  0
 22 23  2  0
 24 27  1  0
 24 23  1  0
 25 24  2  0
 26 25  1  0
 26 21  2  0
 27 28  1  0
 28 29  1  0
 29 30  2  0
 31 30  1  0
 31 35  1  0
 32 31  2  0
 33 28  2  0
 33 32  1  0
 34 33  1  0
 36 37  1  0
 37 40  1  0
 37 39  1  0
 38 36  2  0
 41 16  1  0
 41 42  1  0
 43 41  1  0
 44 46  1  0
 44 45  1  0
 47  4  1  0
 47 48  1  0
 49 50  1  0
 49 48  2  0
 51 62  2  0
 52 50  1  0
 52 57  1  0
 53 61  1  0
 53 63  1  0
 54 60  1  0
 54 56  1  0
 55 61  1  0
 56 55  1  0
 57 56  2  0
 58 59  1  0
 58 52  2  0
 59 54  2  0
 60 53  1  0
 61 51  1  0
 63 65  2  0
 64 63  1  0
 66 64  1  0
 67 76  2  0
 67 72  1  0
 68 64  1  0
 68 72  1  0
 69 68  1  0
 70 71  1  0
 70 69  1  0
 71 67  1  0
 72 73  2  0
 73 74  1  0
 75 74  2  0
 76 75  1  0
 77 51  1  0
 77 82  1  0
 77 78  1  0
 78 81  1  1
 78 79  1  0
 80 78  1  0
 82 85  1  0
 83 87  1  0
 83 82  1  0
 84 83  2  0
 87 86  1  0
 89 87  1  0
 89 90  1  0
 89 88  1  0
M  ISO  4   3 100   8 100  49 101  50 101
M  END
>  <TORSDO>  (30) 
F 20

>  <SCORE>  (30) 
-15.086

>  <name>  (30) 
29

>  <ligand_id>  (30) 
29

>  <original_smiles>  (30) 
[H]c1c([H])c([H])c2c(c1[H])C([H])([H])C([H])([H])C([H])([H])C2([H])N([H])C(=O)C1([H])N(C(=O)C([H])(N([H])C(=O)C([H])(N([H])C([H])([H])[H])C([H])([H])[H])C(C([H])([H])[H])(C([H])([H])[H])C([H])([H])[H])C([H])([H])c2c([H])c(OC([H])([H])C([H])([H])C([H])([H])c3c([H])c([H])c(C(=O)N4C([H])([H])C([H])([H])C([H])([H])C([H])(n5nc(-c6c([H])c([H])c(Oc7c([H])c([H])c(F)c([H])c7F)c([H])c6[H])c(C(=O)N([H])[H])c5N([H])[H])C4([H])[H])c(F)c3N([H])[H])c([H])c([H])c2C1([H])[H]

>  <smiles>  (30) 
[H]c1c([H])c([H])c2c(c1[H])C([H])([H])C([H])([H])C([H])([H])C2([H])N([H])C(=O)C1([H])N(C(=O)C([H])(N([H])C(=O)C([H])(N([H])C([H])([H])[H])C([H])([H])[H])C(C([H])([H])[H])(C([H])([H])[H])C([H])([H])[H])C([H])([H])c2c([H])c(OC([H])([H])C([H])([H])C([H])([H])c3c([H])c([H])c(C(=O)N4C([H])([H])C([H])([H])C([H])([H])C([H])(n5nc(-c6c([H])c([H])c(Oc7c([H])c([H])c(F)c([H])c7F)c([H])c6[H])c(C(=O)N([H])[H])c5N([H])[H])C4([H])[H])c(F)c3N([H])[H])c([H])c([H])c2C1([H])[H]

$$$$
30:0:0
     RDKit          3D

 89 97  0  0  1  0  0  0  0  0999 V2000
  -27.1260  -23.3260   20.7780 C   0  0  0  0  0  3  0  0  0  0  0  0
  -26.8690  -21.9310   21.0010 C   0  0  0  0  0  3  0  0  0  0  0  0
  -28.9840  -20.8760   20.0820 C   0  0  0  0  0  0  0  0  0  0  0  0
  -28.3040  -23.8610   20.2030 C   0  0  0  0  0  0  0  0  0  0  0  0
  -27.7000  -20.8010   20.6840 C   0  0  0  0  0  0  0  0  0  0  0  0
  -29.1960  -22.5050   19.8900 C   0  0  0  0  0  0  0  0  0  0  0  0
  -27.2130  -19.5720   20.9900 F   0  0  0  0  0  0  0  0  0  0  0  0
  -30.4000  -22.7990   19.3420 F   0  0  0  0  0  0  0  0  0  0  0  0
  -29.7000  -17.6410   19.9420 C   0  0  0  0  0  3  0  0  0  0  0  0
  -29.8350  -19.2110   19.8090 C   0  0  0  0  0  0  0  0  0  0  0  0
  -30.5510  -16.1010   19.6980 C   0  0  0  0  0  0  0  0  0  0  0  0
  -30.7230  -13.4990   18.9120 C   0  0  0  0  0  2  0  0  0  0  0  0
  -29.7750  -12.9930   17.7810 C   0  0  0  0  0  2  0  0  0  0  0  0
  -28.4170  -12.5610   18.3510 C   0  0  0  0  0  2  0  0  0  0  0  0
  -27.9340  -13.5600   19.4250 C   0  0  0  0  0  3  0  0  0  0  0  0
  -29.0220  -13.9760   20.4480 C   0  0  0  0  0  2  0  0  0  0  0  0
  -30.1070  -14.6780   19.7100 N   0  0  0  0  0  0  0  0  0  0  0  0
  -31.7580  -16.0210   19.3750 O   0  0  0  0  0  0  0  0  0  0  0  0
  -25.6650  -14.0120   20.4610 C   0  0  0  0  0  0  0  0  0  0  0  0
  -24.6500  -13.2030   20.8810 C   0  0  0  0  0  0  0  0  0  0  0  0
  -25.1130  -11.8610   20.7140 C   0  0  0  0  0  0  0  0  0  0  0  0
  -26.6790  -13.1690   20.0520 N   0  0  0  0  0  0  0  0  0  0  0  0
  -26.3690  -11.8600   20.2680 N   0  0  0  0  0  0  0  0  0  0  0  0
  -24.4070  -10.5840   20.8960 C   0  0  0  0  0  0  0  0  0  0  0  0
  -24.8320   -9.6300   21.8460 C   0  0  0  0  0  3  0  0  0  0  0  0
  -24.1190   -8.4240   22.0190 C   0  0  0  0  0  3  0  0  0  0  0  0
  -22.9640   -8.1630   21.2440 C   0  0  0  0  0  0  0  0  0  0  0  0
  -22.5550   -9.1080   20.2860 C   0  0  0  0  0  3  0  0  0  0  0  0
  -23.2690  -10.3050   20.1110 C   0  0  0  0  0  3  0  0  0  0  0  0
  -22.2250   -7.0060   21.3250 O   0  0  0  0  0  0  0  0  0  0  0  0
  -22.0170   -6.3650   22.5190 C   0  0  0  0  0  0  0  0  0  0  0  0
  -21.3920   -7.0080   23.6100 C   0  0  0  0  0  3  0  0  0  0  0  0
  -21.1350   -6.2920   24.7960 C   0  0  0  0  0  3  0  0  0  0  0  0
  -21.4920   -4.9330   24.8910 C   0  0  0  0  0  0  0  0  0  0  0  0
  -22.1100   -4.2900   23.8050 C   0  0  0  0  0  3  0  0  0  0  0  0
  -22.3690   -5.0030   22.6210 C   0  0  0  0  0  0  0  0  0  0  0  0
  -22.9440   -4.3730   21.5690 F   0  0  0  0  0  0  0  0  0  0  0  0
  -21.2400   -4.2430   26.0280 F   0  0  0  0  0  0  0  0  0  0  0  0
  -23.2870  -13.6550   21.3170 C   0  0  0  0  0  0  0  0  0  0  0  0
  -22.6490  -12.9060   22.2070 N   0  0  0  0  0  0  0  0  0  0  0  0
  -22.8020  -14.7070   20.9040 O   0  0  0  0  0  0  0  0  0  0  0  0
  -23.0590  -12.0540   22.5610 H   0  0  0  0  0  0  0  0  0  0  0  0
  -21.7390  -13.1920   22.5360 H   0  0  0  0  0  0  0  0  0  0  0  0
  -25.8020  -15.3930   20.3620 N   0  0  0  0  0  0  0  0  0  0  0  0
  -25.0390  -16.0180   20.6020 H   0  0  0  0  0  0  0  0  0  0  0  0
  -26.6080  -15.8770   19.9860 H   0  0  0  0  0  0  0  0  0  0  0  0
  -31.0320  -19.5400   19.3060 O   0  0  0  0  0  0  0  0  0  0  0  0
  -31.0440  -20.4840   19.1990 H   0  0  0  0  0  0  0  0  0  0  0  0
  -28.3910  -25.5260   20.1260 O   0  0  0  0  0  0  0  0  0  0  0  0
  -24.9040  -31.9070   23.2660 C   0  0  0  0  0  0  0  0  0  0  0  0
  -27.4190  -26.7920   20.1710 C   0  0  0  0  0  0  0  0  0  0  0  0
  -23.7150  -30.5370   21.6070 C   0  0  0  0  0  3  0  0  0  0  0  0
  -25.1580  -28.9010   20.1590 C   0  0  0  0  0  0  0  0  0  0  0  0
  -26.2960  -30.6570   21.4860 C   0  0  0  0  0  2  0  0  0  0  0  0
  -26.3590  -29.2210   20.8040 C   0  0  0  0  0  0  0  0  0  0  0  0
  -27.4650  -28.1990   20.7780 C   0  0  0  0  0  3  0  0  0  0  0  0
  -26.1850  -26.7210   19.4630 C   0  0  0  0  0  3  0  0  0  0  0  0
  -25.1170  -27.6800   19.4650 C   0  0  0  0  0  3  0  0  0  0  0  0
  -23.9550  -29.8630   20.2230 C   0  0  0  0  0  2  0  0  0  0  0  0
  -24.9970  -31.0690   22.1730 N   0  0  0  0  0  0  0  0  0  0  0  0
  -23.8110  -32.1960   23.7870 O   0  0  0  0  0  0  0  0  0  0  0  0
  -22.9980  -29.5480   22.5670 C   0  0  0  0  0  0  0  0  0  0  0  0
  -21.6690  -29.3750   22.4270 N   0  0  0  0  0  0  0  0  0  0  0  0
  -23.6530  -28.9330   23.4110 O   0  0  0  0  0  0  0  0  0  0  0  0
  -21.1910  -29.9180   21.7200 H   0  0  0  0  0  0  0  0  0  0  0  0
  -18.3010  -28.0690   22.9180 C   0  0  0  0  0  0  0  0  0  0  0  0
  -20.8550  -28.4030   23.1720 C   0  0  0  0  0  3  0  0  0  0  0  0
  -20.9960  -26.9880   22.5610 C   0  0  0  0  0  2  0  0  0  0  0  0
  -19.8870  -26.6430   21.5640 C   0  0  0  0  0  2  0  0  0  0  0  0
  -18.5170  -26.7260   22.2420 C   0  0  0  0  0  2  0  0  0  0  0  0
  -19.3990  -28.8610   23.3480 C   0  0  0  0  0  0  0  0  0  0  0  0
  -19.1410  -30.1060   23.9640 C   0  0  0  0  0  3  0  0  0  0  0  0
  -17.8210  -30.5610   24.1460 C   0  0  0  0  0  3  0  0  0  0  0  0
  -16.7400  -29.7700   23.7200 C   0  0  0  0  0  3  0  0  0  0  0  0
  -16.9810  -28.5250   23.1130 C   0  0  0  0  0  3  0  0  0  0  0  0
  -26.1650  -32.5560   23.9140 C   0  0  0  0  0  3  0  0  0  0  0  0
  -25.8380  -33.9510   24.2710 N   0  0  0  0  0  0  0  0  0  0  0  0
  -26.1500  -35.0320   23.5420 C   0  0  0  0  0  0  0  0  0  0  0  0
  -26.7980  -34.9610   22.4960 O   0  0  0  0  0  0  0  0  0  0  0  0
  -25.2570  -34.0810   25.0870 H   0  0  0  0  0  0  0  0  0  0  0  0
  -24.3990  -36.8310   23.2980 C   0  0  0  0  0  1  0  0  0  0  0  0
  -25.6710  -36.4100   24.0520 C   0  0  0  0  0  3  0  0  0  0  0  0
  -27.8230  -37.3040   24.8340 C   0  0  0  0  0  1  0  0  0  0  0  0
  -26.6910  -37.4760   23.9270 N   0  0  0  0  0  0  0  0  0  0  0  0
  -26.2810  -38.3890   24.1020 H   0  0  0  0  0  0  0  0  0  0  0  0
  -26.6650  -31.7820   25.1980 C   0  0  1  0  0  0  0  0  0  0  0  0
  -25.5580  -31.5370   26.2510 C   0  0  0  0  0  1  0  0  0  0  0  0
  -27.2590  -30.4070   24.8230 C   0  0  0  0  0  1  0  0  0  0  0  0
  -27.8030  -32.5800   25.8800 C   0  0  0  0  0  1  0  0  0  0  0  0
  1  2  1  0
  3  5  1  0
  4  1  2  0
  5  7  1  0
  5  2  2  0
  6  3  2  0
  6  4  1  0
  8  6  1  0
 10  9  2  0
 10  3  1  0
 11 17  1  0
 11  9  1  0
 12 17  1  0
 13 14  1  0
 13 12  1  0
 15 14  1  0
 15 22  1  0
 15 16  1  0
 17 16  1  0
 18 11  2  0
 19 20  2  0
 20 39  1  0
 21 20  1  0
 21 24  1  0
 22 23  1  0
 22 19  1  0
 23 21  2  0
 24 25  1  0
 25 26  2  0
 27 30  1  0
 27 26  1  0
 28 27  2  0
 29 28  1  0
 29 24  2  0
 30 31  1  0
 31 36  2  0
 31 32  1  0
 32 33  2  0
 33 34  1  0
 34 38  1  0
 35 34  2  0
 36 35  1  0
 37 36  1  0
 39 40  1  0
 40 43  1  0
 40 42  1  0
 41 39  2  0
 44 19  1  0
 44 45  1  0
 46 44  1  0
 47 10  1  0
 48 47  1  0
 49 51  1  0
 49  4  1  0
 50 61  2  0
 51 56  1  0
 52 60  1  0
 52 62  1  0
 53 59  1  0
 53 55  1  0
 54 60  1  0
 55 54  1  0
 56 55  2  0
 57 58  1  0
 57 51  2  0
 58 53  2  0
 59 52  1  0
 60 50  1  0
 62 64  2  0
 63 62  1  0
 65 63  1  0
 66 75  2  0
 66 71  1  0
 67 63  1  0
 67 71  1  0
 68 67  1  0
 69 70  1  0
 69 68  1  0
 70 66  1  0
 71 72  2  0
 72 73  1  0
 74 73  2  0
 75 74  1  0
 76 50  1  0
 76 77  1  0
 76 86  1  0
 77 80  1  0
 78 82  1  0
 78 77  1  0
 79 78  2  0
 82 81  1  0
 84 82  1  0
 84 85  1  0
 84 83  1  0
 86 89  1  1
 86 87  1  0
 88 86  1  0
M  ISO  4   4 101   9 100  11 100  49 101
M  END
>  <TORSDO>  (31) 
F 18

>  <SCORE>  (31) 
-13.992

>  <name>  (31) 
30

>  <ligand_id>  (31) 
30

>  <original_smiles>  (31) 
[H]OC(=C([H])C(=O)N1C([H])([H])C([H])([H])C([H])([H])C([H])(n2nc(-c3c([H])c([H])c(Oc4c([H])c([H])c(F)c([H])c4F)c([H])c3[H])c(C(=O)N([H])[H])c2N([H])[H])C1([H])[H])c1c(F)c([H])c([H])c(Oc2c([H])c([H])c3c(c2[H])C([H])([H])N(C(=O)C([H])(N([H])C(=O)C([H])(N([H])C([H])([H])[H])C([H])([H])[H])C(C([H])([H])[H])(C([H])([H])[H])C([H])([H])[H])C([H])(C(=O)N([H])C2([H])c4c([H])c([H])c([H])c([H])c4C([H])([H])C([H])([H])C2([H])[H])C3([H])[H])c1F

>  <smiles>  (31) 
[H]OC(=C([H])C(=O)N1C([H])([H])C([H])([H])C([H])([H])C([H])(n2nc(-c3c([H])c([H])c(Oc4c([H])c([H])c(F)c([H])c4F)c([H])c3[H])c(C(=O)N([H])[H])c2N([H])[H])C1([H])[H])c1c(F)c([H])c([H])c(Oc2c([H])c([H])c3c(c2[H])C([H])([H])N(C(=O)C([H])(N([H])C(=O)C([H])(N([H])C([H])([H])[H])C([H])([H])[H])C(C([H])([H])[H])(C([H])([H])[H])C([H])([H])[H])C([H])(C(=O)N([H])C2([H])c4c([H])c([H])c([H])c([H])c4C([H])([H])C([H])([H])C2([H])[H])C3([H])[H])c1F

$$$$
31:0:0
     RDKit          3D

 91 99  0  0  1  0  0  0  0  0999 V2000
  -28.6080  -22.7050   21.4400 C   0  0  0  0  0  3  0  0  0  0  0  0
  -28.2800  -24.1160   21.3970 C   0  0  0  0  0  3  0  0  0  0  0  0
  -29.0540  -21.9360   20.3140 C   0  0  0  0  0  0  0  0  0  0  0  0
  -29.0620  -22.7290   19.1120 C   0  0  0  0  0  0  0  0  0  0  0  0
  -28.3570  -24.9300   20.2230 C   0  0  0  0  0  0  0  0  0  0  0  0
  -28.7330  -24.1520   19.0740 C   0  0  0  0  0  0  0  0  0  0  0  0
  -29.5280  -22.0630   17.8250 C   0  0  0  0  0  1  0  0  0  0  0  0
  -27.6950  -24.9500   17.1300 C   0  0  0  0  0  1  0  0  0  0  0  0
  -28.8940  -24.8140   17.8840 O   0  0  0  0  0  0  0  0  0  0  0  0
  -28.3290  -26.3880   20.2360 O   0  0  0  0  0  0  0  0  0  0  0  0
  -24.6200  -31.9510   23.2610 C   0  0  0  0  0  0  0  0  0  0  0  0
  -27.2040  -27.2660   20.2480 C   0  0  0  0  0  0  0  0  0  0  0  0
  -23.4160  -30.5520   21.6230 C   0  0  0  0  0  3  0  0  0  0  0  0
  -24.8610  -28.9630   20.2150 C   0  0  0  0  0  0  0  0  0  0  0  0
  -25.9650  -30.8250   21.4550 C   0  0  0  0  0  2  0  0  0  0  0  0
  -26.0360  -29.4310   20.8170 C   0  0  0  0  0  0  0  0  0  0  0  0
  -27.2070  -28.5960   20.8160 C   0  0  0  0  0  3  0  0  0  0  0  0
  -25.9980  -26.8700   19.6340 C   0  0  0  0  0  3  0  0  0  0  0  0
  -24.8500  -27.6920   19.6140 C   0  0  0  0  0  3  0  0  0  0  0  0
  -23.6350  -29.8610   20.2480 C   0  0  0  0  0  2  0  0  0  0  0  0
  -24.6870  -31.1310   22.1680 N   0  0  0  0  0  0  0  0  0  0  0  0
  -23.5350  -32.2400   23.7890 O   0  0  0  0  0  0  0  0  0  0  0  0
  -22.7370  -29.5510   22.5880 C   0  0  0  0  0  0  0  0  0  0  0  0
  -21.4100  -29.3770   22.4530 N   0  0  0  0  0  0  0  0  0  0  0  0
  -23.4040  -28.9310   23.4210 O   0  0  0  0  0  0  0  0  0  0  0  0
  -20.9290  -29.9260   21.7550 H   0  0  0  0  0  0  0  0  0  0  0  0
  -18.0250  -28.1910   22.9460 C   0  0  0  0  0  0  0  0  0  0  0  0
  -20.5840  -28.4470   23.2250 C   0  0  0  0  0  3  0  0  0  0  0  0
  -20.6850  -27.0120   22.6580 C   0  0  0  0  0  2  0  0  0  0  0  0
  -19.5870  -26.6870   21.6390 C   0  0  0  0  0  2  0  0  0  0  0  0
  -18.2020  -26.8400   22.2760 C   0  0  0  0  0  2  0  0  0  0  0  0
  -19.1440  -28.9530   23.3780 C   0  0  0  0  0  0  0  0  0  0  0  0
  -18.9250  -30.2170   23.9650 C   0  0  0  0  0  3  0  0  0  0  0  0
  -17.6210  -30.7210   24.1240 C   0  0  0  0  0  3  0  0  0  0  0  0
  -16.5170  -29.9570   23.7080 C   0  0  0  0  0  3  0  0  0  0  0  0
  -16.7200  -28.6950   23.1230 C   0  0  0  0  0  3  0  0  0  0  0  0
  -25.9010  -32.5820   23.8870 C   0  0  0  0  0  3  0  0  0  0  0  0
  -26.4060  -31.8150   25.1710 C   0  0  1  0  0  0  0  0  0  0  0  0
  -25.3030  -31.5900   26.2320 C   0  0  0  0  0  1  0  0  0  0  0  0
  -26.9830  -30.4320   24.7910 C   0  0  0  0  0  1  0  0  0  0  0  0
  -27.5560  -32.6060   25.8370 C   0  0  0  0  0  1  0  0  0  0  0  0
  -25.5930  -33.9820   24.2170 N   0  0  0  0  0  0  0  0  0  0  0  0
  -25.9150  -35.0360   23.4550 C   0  0  0  0  0  0  0  0  0  0  0  0
  -26.5700  -34.9310   22.4150 O   0  0  0  0  0  0  0  0  0  0  0  0
  -25.0110  -34.1370   25.0280 H   0  0  0  0  0  0  0  0  0  0  0  0
  -24.1780  -36.8270   23.1290 C   0  0  0  0  0  1  0  0  0  0  0  0
  -25.4350  -36.4260   23.9170 C   0  0  0  0  0  3  0  0  0  0  0  0
  -27.5830  -37.3200   24.7070 C   0  0  0  0  0  1  0  0  0  0  0  0
  -26.4650  -37.4800   23.7810 N   0  0  0  0  0  0  0  0  0  0  0  0
  -26.0590  -38.4010   23.9280 H   0  0  0  0  0  0  0  0  0  0  0  0
  -29.7920  -20.4750   20.4670 C   0  0  0  0  0  2  0  0  0  0  0  0
  -29.1990  -18.9270   20.3430 C   0  0  0  0  0  3  0  0  0  0  0  0
  -30.2220  -17.6130   20.4800 C   0  0  0  0  0  3  0  0  0  0  0  0
  -30.5500  -14.9360   20.3410 C   0  0  0  0  0  0  0  0  0  0  0  0
  -30.3940  -12.6160   19.3710 C   0  0  0  0  0  2  0  0  0  0  0  0
  -29.4570  -12.6170   18.1430 C   0  0  0  0  0  2  0  0  0  0  0  0
  -27.9930  -12.4150   18.5800 C   0  0  0  0  0  2  0  0  0  0  0  0
  -27.5980  -13.3300   19.7700 C   0  0  0  0  0  3  0  0  0  0  0  0
  -28.6570  -13.3070   20.8920 C   0  0  0  0  0  2  0  0  0  0  0  0
  -29.9360  -13.6950   20.2850 N   0  0  0  0  0  0  0  0  0  0  0  0
  -31.7500  -15.0070   20.0570 O   0  0  0  0  0  0  0  0  0  0  0  0
  -29.7880  -16.1110   20.5050 N   0  0  0  0  0  0  0  0  0  0  0  0
  -28.8070  -15.9480   20.6730 H   0  0  0  0  0  0  0  0  0  0  0  0
  -25.2130  -13.9030   20.5060 C   0  0  0  0  0  0  0  0  0  0  0  0
  -24.1530  -13.1240   20.8780 C   0  0  0  0  0  0  0  0  0  0  0  0
  -24.6240  -11.7760   20.8510 C   0  0  0  0  0  0  0  0  0  0  0  0
  -26.2610  -13.0300   20.2690 N   0  0  0  0  0  0  0  0  0  0  0  0
  -25.9140  -11.7450   20.5420 N   0  0  0  0  0  0  0  0  0  0  0  0
  -23.9030  -10.5090   21.0410 C   0  0  0  0  0  0  0  0  0  0  0  0
  -24.3300   -9.5500   21.9860 C   0  0  0  0  0  3  0  0  0  0  0  0
  -23.6090   -8.3510   22.1650 C   0  0  0  0  0  3  0  0  0  0  0  0
  -22.4440   -8.1010   21.3980 C   0  0  0  0  0  0  0  0  0  0  0  0
  -22.0380   -9.0480   20.4420 C   0  0  0  0  0  3  0  0  0  0  0  0
  -22.7610  -10.2390   20.2610 C   0  0  0  0  0  3  0  0  0  0  0  0
  -21.6940   -6.9530   21.4860 O   0  0  0  0  0  0  0  0  0  0  0  0
  -21.6260   -6.2250   22.6480 C   0  0  0  0  0  0  0  0  0  0  0  0
  -21.1480   -6.7870   23.8520 C   0  0  0  0  0  3  0  0  0  0  0  0
  -21.0280   -5.9850   25.0040 C   0  0  0  0  0  3  0  0  0  0  0  0
  -21.3760   -4.6210   24.9530 C   0  0  0  0  0  0  0  0  0  0  0  0
  -21.8480   -4.0600   23.7540 C   0  0  0  0  0  3  0  0  0  0  0  0
  -21.9690   -4.8590   22.6030 C   0  0  0  0  0  0  0  0  0  0  0  0
  -22.4040   -4.3080   21.4450 F   0  0  0  0  0  0  0  0  0  0  0  0
  -21.2550   -3.8480   26.0570 F   0  0  0  0  0  0  0  0  0  0  0  0
  -22.7520  -13.5940   21.1450 C   0  0  0  0  0  0  0  0  0  0  0  0
  -22.0260  -12.8970   22.0120 N   0  0  0  0  0  0  0  0  0  0  0  0
  -22.3100  -14.6160   20.6200 O   0  0  0  0  0  0  0  0  0  0  0  0
  -22.3960  -12.0700   22.4580 H   0  0  0  0  0  0  0  0  0  0  0  0
  -21.0860  -13.1930   22.2340 H   0  0  0  0  0  0  0  0  0  0  0  0
  -25.3680  -15.2750   20.3230 N   0  0  0  0  0  0  0  0  0  0  0  0
  -24.5980  -15.9240   20.4290 H   0  0  0  0  0  0  0  0  0  0  0  0
  -26.2050  -15.7140   19.9620 H   0  0  0  0  0  0  0  0  0  0  0  0
  2  1  1  0
  3 51  1  0
  3  1  2  0
  4  3  1  0
  5 10  1  0
  5  2  2  0
  6  4  2  0
  6  5  1  0
  7  4  1  0
  8  9  1  0
  9  6  1  0
 10 12  1  0
 11 22  2  0
 12 17  1  0
 13 21  1  0
 13 23  1  0
 14 20  1  0
 14 16  1  0
 15 21  1  0
 16 15  1  0
 17 16  2  0
 18 12  2  0
 19 18  1  0
 19 14  2  0
 20 13  1  0
 21 11  1  0
 23 25  2  0
 24 23  1  0
 26 24  1  0
 27 36  2  0
 27 32  1  0
 28 24  1  0
 28 32  1  0
 29 28  1  0
 30 31  1  0
 30 29  1  0
 31 27  1  0
 32 33  2  0
 33 34  1  0
 35 34  2  0
 36 35  1  0
 37 11  1  0
 37 42  1  0
 37 38  1  0
 38 41  1  1
 38 39  1  0
 40 38  1  0
 42 45  1  0
 43 47  1  0
 43 42  1  0
 44 43  2  0
 47 46  1  0
 49 47  1  0
 49 50  1  0
 49 48  1  0
 52 51  1  0
 52 53  2  0
 53 62  1  0
 54 62  1  0
 55 60  1  0
 56 57  1  0
 56 55  1  0
 58 57  1  0
 58 67  1  0
 58 59  1  0
 60 54  1  0
 60 59  1  0
 61 54  2  0
 62 63  1  0
 64 65  2  0
 65 84  1  0
 66 65  1  0
 66 69  1  0
 67 64  1  0
 67 68  1  0
 68 66  2  0
 69 70  1  0
 70 71  2  0
 72 75  1  0
 72 71  1  0
 73 72  2  0
 74 73  1  0
 74 69  2  0
 75 76  1  0
 76 77  1  0
 77 78  2  0
 79 78  1  0
 79 83  1  0
 80 79  2  0
 81 76  2  0
 81 80  1  0
 82 81  1  0
 84 85  1  0
 85 88  1  0
 85 87  1  0
 86 84  2  0
 89 90  1  0
 89 64  1  0
 91 89  1  0
M  ISO  4   5 101  10 101  54 100  62 100
M  END
>  <TORSDO>  (32) 
F 20

>  <SCORE>  (32) 
-13.859

>  <name>  (32) 
31

>  <ligand_id>  (32) 
31

>  <original_smiles>  (32) 
[H]c1c([H])c([H])c2c(c1[H])C([H])([H])C([H])([H])C([H])([H])C2([H])N([H])C(=O)C1([H])N(C(=O)C([H])(N([H])C(=O)C([H])(N([H])C([H])([H])[H])C([H])([H])[H])C(C([H])([H])[H])(C([H])([H])[H])C([H])([H])[H])C([H])([H])c2c([H])c(Oc3c([H])c([H])c(C([H])([H])C([H])([H])C([H])([H])N([H])C(=O)N4C([H])([H])C([H])([H])C([H])([H])C([H])(n5nc(-c6c([H])c([H])c(Oc7c([H])c([H])c(F)c([H])c7F)c([H])c6[H])c(C(=O)N([H])[H])c5N([H])[H])C4([H])[H])c(C([H])([H])[H])c3OC([H])([H])[H])c([H])c([H])c2C1([H])[H]

>  <smiles>  (32) 
[H]c1c([H])c([H])c2c(c1[H])C([H])([H])C([H])([H])C([H])([H])C2([H])N([H])C(=O)C1([H])N(C(=O)C([H])(N([H])C(=O)C([H])(N([H])C([H])([H])[H])C([H])([H])[H])C(C([H])([H])[H])(C([H])([H])[H])C([H])([H])[H])C([H])([H])c2c([H])c(Oc3c([H])c([H])c(C([H])([H])C([H])([H])C([H])([H])N([H])C(=O)N4C([H])([H])C([H])([H])C([H])([H])C([H])(n5nc(-c6c([H])c([H])c(Oc7c([H])c([H])c(F)c([H])c7F)c([H])c6[H])c(C(=O)N([H])[H])c5N([H])[H])C4([H])[H])c(C([H])([H])[H])c3OC([H])([H])[H])c([H])c([H])c2C1([H])[H]

$$$$
32:0:0
     RDKit          3D

 92100  0  0  1  0  0  0  0  0999 V2000
  -28.1620  -23.0860   22.2200 C   0  0  0  0  0  3  0  0  0  0  0  0
  -28.0260  -24.2970   22.9170 C   0  0  0  0  0  3  0  0  0  0  0  0
  -28.5200  -24.3290   20.1540 C   0  0  0  0  0  3  0  0  0  0  0  0
  -28.4070  -23.0840   20.8320 C   0  0  0  0  0  0  0  0  0  0  0  0
  -28.1050  -25.5340   22.2390 C   0  0  0  0  0  0  0  0  0  0  0  0
  -28.3630  -25.5610   20.8450 C   0  0  0  0  0  0  0  0  0  0  0  0
  -26.8250  -26.7540   23.8160 C   0  0  0  0  0  1  0  0  0  0  0  0
  -27.9240  -26.7200   22.9110 O   0  0  0  0  0  0  0  0  0  0  0  0
  -28.4300  -26.7680   20.1600 O   0  0  0  0  0  0  0  0  0  0  0  0
  -24.6180  -31.9600   23.2230 C   0  0  0  0  0  0  0  0  0  0  0  0
  -27.2870  -27.5400   20.1300 C   0  0  0  0  0  0  0  0  0  0  0  0
  -23.4230  -30.5580   21.5730 C   0  0  0  0  0  3  0  0  0  0  0  0
  -24.8890  -29.0370   20.1380 C   0  0  0  0  0  0  0  0  0  0  0  0
  -25.9480  -30.9320   21.3800 C   0  0  0  0  0  2  0  0  0  0  0  0
  -26.0440  -29.5660   20.7290 C   0  0  0  0  0  0  0  0  0  0  0  0
  -27.2490  -28.8280   20.7150 C   0  0  0  0  0  3  0  0  0  0  0  0
  -26.1200  -27.0270   19.5280 C   0  0  0  0  0  3  0  0  0  0  0  0
  -24.9230  -27.7690   19.5310 C   0  0  0  0  0  3  0  0  0  0  0  0
  -23.6380  -29.8860   20.1900 C   0  0  0  0  0  2  0  0  0  0  0  0
  -24.6810  -31.1650   22.1180 N   0  0  0  0  0  0  0  0  0  0  0  0
  -23.5350  -32.2230   23.7640 O   0  0  0  0  0  0  0  0  0  0  0  0
  -22.7780  -29.5280   22.5270 C   0  0  0  0  0  0  0  0  0  0  0  0
  -21.4550  -29.3370   22.3930 N   0  0  0  0  0  0  0  0  0  0  0  0
  -23.4620  -28.9070   23.3440 O   0  0  0  0  0  0  0  0  0  0  0  0
  -20.9650  -29.8970   21.7100 H   0  0  0  0  0  0  0  0  0  0  0  0
  -18.0940  -28.0940   22.8520 C   0  0  0  0  0  0  0  0  0  0  0  0
  -20.6430  -28.3870   23.1520 C   0  0  0  0  0  3  0  0  0  0  0  0
  -20.7740  -26.9580   22.5770 C   0  0  0  0  0  2  0  0  0  0  0  0
  -19.6870  -26.6150   21.5540 C   0  0  0  0  0  2  0  0  0  0  0  0
  -18.2970  -26.7430   22.1850 C   0  0  0  0  0  2  0  0  0  0  0  0
  -19.1960  -28.8710   23.2930 C   0  0  0  0  0  0  0  0  0  0  0  0
  -18.9550  -30.1330   23.8780 C   0  0  0  0  0  3  0  0  0  0  0  0
  -17.6410  -30.6190   24.0260 C   0  0  0  0  0  3  0  0  0  0  0  0
  -16.5520  -29.8380   23.6030 C   0  0  0  0  0  3  0  0  0  0  0  0
  -16.7790  -28.5770   23.0230 C   0  0  0  0  0  3  0  0  0  0  0  0
  -25.9000  -32.5990   23.8480 C   0  0  0  0  0  3  0  0  0  0  0  0
  -25.5840  -33.9940   24.1780 N   0  0  0  0  0  0  0  0  0  0  0  0
  -25.9200  -35.0470   23.4230 C   0  0  0  0  0  0  0  0  0  0  0  0
  -26.5940  -34.9460   22.3940 O   0  0  0  0  0  0  0  0  0  0  0  0
  -24.9870  -34.1470   24.9780 H   0  0  0  0  0  0  0  0  0  0  0  0
  -24.1870  -36.8310   23.0570 C   0  0  0  0  0  1  0  0  0  0  0  0
  -25.4250  -36.4340   23.8760 C   0  0  0  0  0  3  0  0  0  0  0  0
  -27.5530  -37.3220   24.7190 C   0  0  0  0  0  1  0  0  0  0  0  0
  -26.4560  -37.4890   23.7690 N   0  0  0  0  0  0  0  0  0  0  0  0
  -26.0470  -38.4090   23.9150 H   0  0  0  0  0  0  0  0  0  0  0  0
  -26.4190  -31.8320   25.1250 C   0  0  1  0  0  0  0  0  0  0  0  0
  -25.3250  -31.5810   26.1900 C   0  0  0  0  0  1  0  0  0  0  0  0
  -27.0120  -30.4650   24.7250 C   0  0  0  0  0  1  0  0  0  0  0  0
  -27.5610  -32.6310   25.7950 C   0  0  0  0  0  1  0  0  0  0  0  0
  -28.4510  -21.7410   20.0910 C   0  0  0  0  0  2  0  0  0  0  0  0
  -29.4920  -20.7050   20.6180 C   0  0  0  0  0  2  0  0  0  0  0  0
  -28.9470  -19.2710   20.9060 C   0  0  0  0  0  2  0  0  0  0  0  0
  -29.7820  -18.1190   20.2910 C   0  0  0  0  0  2  0  0  0  0  0  0
  -29.3870  -16.6800   20.7410 C   0  0  0  0  0  2  0  0  0  0  0  0
  -30.6750  -14.6090   20.0610 C   0  0  0  0  0  0  0  0  0  0  0  0
  -30.3290  -12.4240   19.0020 C   0  0  0  0  0  2  0  0  0  0  0  0
  -29.3570  -12.6270   17.8220 C   0  0  0  0  0  2  0  0  0  0  0  0
  -27.8950  -12.5030   18.2980 C   0  0  0  0  0  2  0  0  0  0  0  0
  -27.5980  -13.3520   19.5650 C   0  0  0  0  0  3  0  0  0  0  0  0
  -28.6930  -13.1760   20.6410 C   0  0  0  0  0  2  0  0  0  0  0  0
  -29.9910  -13.4380   20.0080 N   0  0  0  0  0  0  0  0  0  0  0  0
  -31.8600  -14.7050   19.7460 O   0  0  0  0  0  0  0  0  0  0  0  0
  -29.9130  -15.6850   19.8000 N   0  0  0  0  0  0  0  0  0  0  0  0
  -30.2870  -16.1560   18.9900 H   0  0  0  0  0  0  0  0  0  0  0  0
  -25.2290  -13.9660   20.3560 C   0  0  0  0  0  0  0  0  0  0  0  0
  -24.1700  -13.1980   20.7590 C   0  0  0  0  0  0  0  0  0  0  0  0
  -24.6260  -11.8460   20.7180 C   0  0  0  0  0  0  0  0  0  0  0  0
  -26.2630  -13.0820   20.0940 N   0  0  0  0  0  0  0  0  0  0  0  0
  -25.9070  -11.8010   20.3730 N   0  0  0  0  0  0  0  0  0  0  0  0
  -23.9020  -10.5860   20.9330 C   0  0  0  0  0  0  0  0  0  0  0  0
  -24.3560   -9.6230   21.8620 C   0  0  0  0  0  3  0  0  0  0  0  0
  -23.6330   -8.4280   22.0650 C   0  0  0  0  0  3  0  0  0  0  0  0
  -22.4410   -8.1880   21.3400 C   0  0  0  0  0  0  0  0  0  0  0  0
  -22.0070   -9.1380   20.4010 C   0  0  0  0  0  3  0  0  0  0  0  0
  -22.7310  -10.3260   20.1950 C   0  0  0  0  0  3  0  0  0  0  0  0
  -21.6890   -7.0440   21.4520 O   0  0  0  0  0  0  0  0  0  0  0  0
  -21.6630   -6.3090   22.6110 C   0  0  0  0  0  0  0  0  0  0  0  0
  -21.2670   -6.8750   23.8430 C   0  0  0  0  0  3  0  0  0  0  0  0
  -21.1870   -6.0670   24.9960 C   0  0  0  0  0  3  0  0  0  0  0  0
  -21.4940   -4.6950   24.9180 C   0  0  0  0  0  0  0  0  0  0  0  0
  -21.8840   -4.1300   23.6910 C   0  0  0  0  0  3  0  0  0  0  0  0
  -21.9650   -4.9350   22.5410 C   0  0  0  0  0  0  0  0  0  0  0  0
  -22.3200   -4.3790   21.3580 F   0  0  0  0  0  0  0  0  0  0  0  0
  -21.4090   -3.9180   26.0230 F   0  0  0  0  0  0  0  0  0  0  0  0
  -22.7830  -13.6810   21.0690 C   0  0  0  0  0  0  0  0  0  0  0  0
  -22.0790  -12.9920   21.9590 N   0  0  0  0  0  0  0  0  0  0  0  0
  -22.3320  -14.7060   20.5560 O   0  0  0  0  0  0  0  0  0  0  0  0
  -22.4580  -12.1660   22.3970 H   0  0  0  0  0  0  0  0  0  0  0  0
  -21.1480  -13.2930   22.2070 H   0  0  0  0  0  0  0  0  0  0  0  0
  -25.3910  -15.3370   20.1670 N   0  0  0  0  0  0  0  0  0  0  0  0
  -24.6310  -15.9930   20.2940 H   0  0  0  0  0  0  0  0  0  0  0  0
  -26.2360  -15.7680   19.8130 H   0  0  0  0  0  0  0  0  0  0  0  0
  1  2  1  0
  3  4  1  0
  3  6  2  0
  4  1  2  0
  5  8  1  0
  5  2  2  0
  6  5  1  0
  8  7  1  0
  9  6  1  0
 10 21  2  0
 11  9  1  0
 11 16  1  0
 12 20  1  0
 12 22  1  0
 13 19  1  0
 13 15  1  0
 14 20  1  0
 15 14  1  0
 16 15  2  0
 17 18  1  0
 17 11  2  0
 18 13  2  0
 19 12  1  0
 20 10  1  0
 22 24  2  0
 23 22  1  0
 25 23  1  0
 26 35  2  0
 26 31  1  0
 27 23  1  0
 27 31  1  0
 28 27  1  0
 29 30  1  0
 29 28  1  0
 30 26  1  0
 31 32  2  0
 32 33  1  0
 34 33  2  0
 35 34  1  0
 36 10  1  0
 36 37  1  0
 36 46  1  0
 37 40  1  0
 38 42  1  0
 38 37  1  0
 39 38  2  0
 42 41  1  0
 44 42  1  0
 44 45  1  0
 44 43  1  0
 46 49  1  1
 46 47  1  0
 48 46  1  0
 50 51  1  0
 50  4  1  0
 51 52  1  0
 53 54  1  0
 53 52  1  0
 56 61  1  0
 57 58  1  0
 57 56  1  0
 59 58  1  0
 59 68  1  0
 59 60  1  0
 61 55  1  0
 61 60  1  0
 62 55  2  0
 63 55  1  0
 63 54  1  0
 64 63  1  0
 65 66  2  0
 66 85  1  0
 67 66  1  0
 67 70  1  0
 68 65  1  0
 68 69  1  0
 69 67  2  0
 70 71  1  0
 71 72  2  0
 73 76  1  0
 73 72  1  0
 74 73  2  0
 75 74  1  0
 75 70  2  0
 76 77  1  0
 77 78  1  0
 78 79  2  0
 80 79  1  0
 80 84  1  0
 81 80  2  0
 82 77  2  0
 82 81  1  0
 83 82  1  0
 85 86  1  0
 86 89  1  0
 86 88  1  0
 87 85  2  0
 90 91  1  0
 90 65  1  0
 92 90  1  0
M  ISO  4   6 101   9 101  55 100  63 100
M  END
>  <TORSDO>  (33) 
F 22

>  <SCORE>  (33) 
-12.461

>  <name>  (33) 
32

>  <ligand_id>  (33) 
32

>  <original_smiles>  (33) 
[H]c1c([H])c([H])c2c(c1[H])C([H])([H])C([H])([H])C([H])([H])C2([H])N([H])C(=O)C1([H])N(C(=O)C([H])(N([H])C(=O)C([H])(N([H])C([H])([H])[H])C([H])([H])[H])C(C([H])([H])[H])(C([H])([H])[H])C([H])([H])[H])C([H])([H])c2c([H])c(Oc3c([H])c(C([H])([H])C([H])([H])C([H])([H])C([H])([H])C([H])([H])N([H])C(=O)N4C([H])([H])C([H])([H])C([H])([H])C([H])(n5nc(-c6c([H])c([H])c(Oc7c([H])c([H])c(F)c([H])c7F)c([H])c6[H])c(C(=O)N([H])[H])c5N([H])[H])C4([H])[H])c([H])c([H])c3OC([H])([H])[H])c([H])c([H])c2C1([H])[H]

>  <smiles>  (33) 
[H]c1c([H])c([H])c2c(c1[H])C([H])([H])C([H])([H])C([H])([H])C2([H])N([H])C(=O)C1([H])N(C(=O)C([H])(N([H])C(=O)C([H])(N([H])C([H])([H])[H])C([H])([H])[H])C(C([H])([H])[H])(C([H])([H])[H])C([H])([H])[H])C([H])([H])c2c([H])c(Oc3c([H])c(C([H])([H])C([H])([H])C([H])([H])C([H])([H])C([H])([H])N([H])C(=O)N4C([H])([H])C([H])([H])C([H])([H])C([H])(n5nc(-c6c([H])c([H])c(Oc7c([H])c([H])c(F)c([H])c7F)c([H])c6[H])c(C(=O)N([H])[H])c5N([H])[H])C4([H])[H])c([H])c([H])c3OC([H])([H])[H])c([H])c([H])c2C1([H])[H]

$$$$
33:0:0
     RDKit          3D

 90 98  0  0  1  0  0  0  0  0999 V2000
  -30.2640  -23.1330   19.8500 C   0  0  0  0  0  2  0  0  0  0  0  0
  -30.4450  -23.4630   18.4880 C   0  0  0  0  0  3  0  0  0  0  0  0
  -28.1910  -24.3850   18.4000 C   0  0  0  0  0  2  0  0  0  0  0  0
  -28.9240  -23.0480   20.2640 C   0  0  0  0  0  3  0  0  0  0  0  0
  -29.3520  -23.9490   17.7180 C   0  0  0  0  0  0  0  0  0  0  0  0
  -28.1850  -24.3640   19.8130 C   0  0  0  0  0  3  0  0  0  0  0  0
  -30.5110  -23.5940   15.6440 C   0  0  0  0  0  1  0  0  0  0  0  0
  -29.3820  -24.1050   16.3480 O   0  0  0  0  0  0  0  0  0  0  0  0
  -28.1890  -25.8300   20.2940 O   0  0  0  0  0  0  0  0  0  0  0  0
  -24.6610  -31.8450   23.2210 C   0  0  0  0  0  0  0  0  0  0  0  0
  -27.1860  -26.9400   20.1900 C   0  0  0  0  0  0  0  0  0  0  0  0
  -23.4530  -30.4480   21.5910 C   0  0  0  0  0  3  0  0  0  0  0  0
  -24.8890  -28.8370   20.1600 C   0  0  0  0  0  0  0  0  0  0  0  0
  -26.0210  -30.6480   21.4330 C   0  0  0  0  0  2  0  0  0  0  0  0
  -26.0810  -29.2360   20.7760 C   0  0  0  0  0  0  0  0  0  0  0  0
  -27.2180  -28.3070   20.7720 C   0  0  0  0  0  3  0  0  0  0  0  0
  -25.9560  -26.6960   19.5360 C   0  0  0  0  0  3  0  0  0  0  0  0
  -24.8520  -27.5880   19.5200 C   0  0  0  0  0  3  0  0  0  0  0  0
  -23.6710  -29.7600   20.2150 C   0  0  0  0  0  2  0  0  0  0  0  0
  -24.7330  -31.0100   22.1330 N   0  0  0  0  0  0  0  0  0  0  0  0
  -23.5760  -32.1400   23.7470 O   0  0  0  0  0  0  0  0  0  0  0  0
  -22.7640  -29.4560   22.5680 C   0  0  0  0  0  0  0  0  0  0  0  0
  -21.4340  -29.2930   22.4510 N   0  0  0  0  0  0  0  0  0  0  0  0
  -23.4340  -28.8360   23.3970 O   0  0  0  0  0  0  0  0  0  0  0  0
  -20.9470  -29.8400   21.7550 H   0  0  0  0  0  0  0  0  0  0  0  0
  -18.0560  -28.0750   22.9700 C   0  0  0  0  0  0  0  0  0  0  0  0
  -20.6150  -28.3590   23.2320 C   0  0  0  0  0  3  0  0  0  0  0  0
  -20.7260  -26.9230   22.6700 C   0  0  0  0  0  2  0  0  0  0  0  0
  -19.6260  -26.5840   21.6590 C   0  0  0  0  0  2  0  0  0  0  0  0
  -18.2420  -26.7250   22.3000 C   0  0  0  0  0  2  0  0  0  0  0  0
  -19.1690  -28.8500   23.3920 C   0  0  0  0  0  0  0  0  0  0  0  0
  -18.9400  -30.1140   23.9800 C   0  0  0  0  0  3  0  0  0  0  0  0
  -17.6300  -30.6020   24.1470 C   0  0  0  0  0  3  0  0  0  0  0  0
  -16.5320  -29.8270   23.7380 C   0  0  0  0  0  3  0  0  0  0  0  0
  -16.7450  -28.5640   23.1560 C   0  0  0  0  0  3  0  0  0  0  0  0
  -25.9380  -32.4860   23.8420 C   0  0  0  0  0  3  0  0  0  0  0  0
  -26.4530  -31.7210   25.1240 C   0  0  1  0  0  0  0  0  0  0  0  0
  -25.3580  -31.4980   26.1930 C   0  0  0  0  0  1  0  0  0  0  0  0
  -27.0290  -30.3380   24.7490 C   0  0  0  0  0  1  0  0  0  0  0  0
  -27.6080  -32.5150   25.7780 C   0  0  0  0  0  1  0  0  0  0  0  0
  -25.6260  -33.8860   24.1800 N   0  0  0  0  0  0  0  0  0  0  0  0
  -25.9500  -34.9500   23.4330 C   0  0  0  0  0  0  0  0  0  0  0  0
  -26.6080  -34.8560   22.3940 O   0  0  0  0  0  0  0  0  0  0  0  0
  -25.0410  -34.0320   24.9890 H   0  0  0  0  0  0  0  0  0  0  0  0
  -24.2160  -36.7510   23.1290 C   0  0  0  0  0  1  0  0  0  0  0  0
  -25.4710  -36.3350   23.9130 C   0  0  0  0  0  3  0  0  0  0  0  0
  -27.6170  -37.2190   24.7180 C   0  0  0  0  0  1  0  0  0  0  0  0
  -26.5000  -37.3900   23.7920 N   0  0  0  0  0  0  0  0  0  0  0  0
  -26.0950  -38.3090   23.9510 H   0  0  0  0  0  0  0  0  0  0  0  0
  -28.5870  -21.3430   20.0450 C   0  0  0  0  0  2  0  0  0  0  0  0
  -29.3480  -19.7930   20.6140 C   0  0  0  0  0  2  0  0  0  0  0  0
  -29.6290  -18.1590   19.8830 C   0  0  0  0  0  2  0  0  0  0  0  0
  -30.4070  -15.2990   20.2190 C   0  0  0  0  0  0  0  0  0  0  0  0
  -30.3820  -12.8450   19.3650 C   0  0  0  0  0  2  0  0  0  0  0  0
  -29.4590  -12.6500   18.1370 C   0  0  0  0  0  2  0  0  0  0  0  0
  -28.0110  -12.3830   18.5830 C   0  0  0  0  0  2  0  0  0  0  0  0
  -27.5690  -13.3430   19.7170 C   0  0  0  0  0  3  0  0  0  0  0  0
  -28.6240  -13.4740   20.8380 C   0  0  0  0  0  2  0  0  0  0  0  0
  -29.8540  -13.9820   20.2100 N   0  0  0  0  0  0  0  0  0  0  0  0
  -31.6000  -15.3120   19.8860 O   0  0  0  0  0  0  0  0  0  0  0  0
  -29.6470  -16.5630   20.4150 N   0  0  0  0  0  0  0  0  0  0  0  0
  -28.7460  -16.3300   20.8070 H   0  0  0  0  0  0  0  0  0  0  0  0
  -25.2000  -13.8990   20.4730 C   0  0  0  0  0  0  0  0  0  0  0  0
  -24.1410  -13.1210   20.8470 C   0  0  0  0  0  0  0  0  0  0  0  0
  -24.6090  -11.7710   20.8150 C   0  0  0  0  0  0  0  0  0  0  0  0
  -26.2430  -13.0250   20.2280 N   0  0  0  0  0  0  0  0  0  0  0  0
  -25.8990  -11.7390   20.5010 N   0  0  0  0  0  0  0  0  0  0  0  0
  -23.8820  -10.5090   21.0080 C   0  0  0  0  0  0  0  0  0  0  0  0
  -24.3180   -9.5430   21.9410 C   0  0  0  0  0  3  0  0  0  0  0  0
  -23.5910   -8.3470   22.1260 C   0  0  0  0  0  3  0  0  0  0  0  0
  -22.4120   -8.1100   21.3790 C   0  0  0  0  0  0  0  0  0  0  0  0
  -21.9970   -9.0630   20.4340 C   0  0  0  0  0  3  0  0  0  0  0  0
  -22.7250  -10.2500   20.2470 C   0  0  0  0  0  3  0  0  0  0  0  0
  -21.6530   -6.9680   21.4760 O   0  0  0  0  0  0  0  0  0  0  0  0
  -21.6080   -6.2290   22.6300 C   0  0  0  0  0  0  0  0  0  0  0  0
  -21.1890   -6.7870   23.8580 C   0  0  0  0  0  3  0  0  0  0  0  0
  -21.0910   -5.9710   25.0030 C   0  0  0  0  0  3  0  0  0  0  0  0
  -21.4030   -4.6000   24.9220 C   0  0  0  0  0  0  0  0  0  0  0  0
  -21.8180   -4.0440   23.6980 C   0  0  0  0  0  3  0  0  0  0  0  0
  -21.9180   -4.8570   22.5550 C   0  0  0  0  0  0  0  0  0  0  0  0
  -22.2950   -4.3100   21.3740 F   0  0  0  0  0  0  0  0  0  0  0  0
  -21.3030   -3.8150   26.0190 F   0  0  0  0  0  0  0  0  0  0  0  0
  -22.7450  -13.5970   21.1180 C   0  0  0  0  0  0  0  0  0  0  0  0
  -22.0170  -12.9010   21.9840 N   0  0  0  0  0  0  0  0  0  0  0  0
  -22.3070  -14.6210   20.5940 O   0  0  0  0  0  0  0  0  0  0  0  0
  -22.3890  -12.0750   22.4300 H   0  0  0  0  0  0  0  0  0  0  0  0
  -21.0770  -13.1990   22.2020 H   0  0  0  0  0  0  0  0  0  0  0  0
  -25.3600  -15.2690   20.2940 N   0  0  0  0  0  0  0  0  0  0  0  0
  -24.5860  -15.9150   20.4010 H   0  0  0  0  0  0  0  0  0  0  0  0
  -26.1930  -15.7050   19.9180 H   0  0  0  0  0  0  0  0  0  0  0  0
  1  4  1  0
  2  1  1  0
  3  6  1  0
  4 50  1  0
  5  3  1  0
  5  2  2  0
  6  4  1  0
  6  9  1  0
  7  8  1  0
  8  5  1  0
 10 21  2  0
 11  9  1  0
 11 16  1  0
 12 20  1  0
 12 22  1  0
 13 19  1  0
 13 15  1  0
 14 20  1  0
 15 14  1  0
 16 15  2  0
 17 11  2  0
 18 17  1  0
 18 13  2  0
 19 12  1  0
 20 10  1  0
 22 24  2  0
 23 22  1  0
 25 23  1  0
 26 35  2  0
 26 31  1  0
 27 23  1  0
 27 31  1  0
 28 27  1  0
 29 30  1  0
 29 28  1  0
 30 26  1  0
 31 32  2  0
 32 33  1  0
 34 33  2  0
 35 34  1  0
 36 10  1  0
 36 41  1  0
 36 37  1  0
 37 40  1  1
 37 38  1  0
 39 37  1  0
 41 44  1  0
 42 46  1  0
 42 41  1  0
 43 42  2  0
 46 45  1  0
 48 46  1  0
 48 49  1  0
 48 47  1  0
 50 51  1  0
 52 61  1  0
 52 51  1  0
 53 61  1  0
 54 59  1  0
 55 56  1  0
 55 54  1  0
 57 56  1  0
 57 66  1  0
 57 58  1  0
 59 53  1  0
 59 58  1  0
 60 53  2  0
 61 62  1  0
 63 64  2  0
 64 83  1  0
 65 64  1  0
 65 68  1  0
 66 63  1  0
 66 67  1  0
 67 65  2  0
 68 69  1  0
 69 70  2  0
 71 74  1  0
 71 70  1  0
 72 71  2  0
 73 72  1  0
 73 68  2  0
 74 75  1  0
 75 76  1  0
 76 77  2  0
 78 77  1  0
 78 82  1  0
 79 78  2  0
 80 75  2  0
 80 79  1  0
 81 80  1  0
 83 84  1  0
 84 87  1  0
 84 86  1  0
 85 83  2  0
 88 89  1  0
 88 63  1  0
 90 88  1  0
M  ISO  4   6 101   9 101  53 100  61 100
M  END
>  <TORSDO>  (34) 
F 20

>  <SCORE>  (34) 
-15.229

>  <name>  (34) 
33

>  <ligand_id>  (34) 
33

>  <original_smiles>  (34) 
[H]c1c([H])c([H])c2c(c1[H])C([H])([H])C([H])([H])C([H])([H])C2([H])N([H])C(=O)C1([H])N(C(=O)C([H])(N([H])C(=O)C([H])(N([H])C([H])([H])[H])C([H])([H])[H])C(C([H])([H])[H])(C([H])([H])[H])C([H])([H])[H])C([H])([H])c2c([H])c(Oc3c([H])c(OC([H])([H])[H])c([H])c([H])c3C([H])([H])C([H])([H])C([H])([H])N([H])C(=O)N3C([H])([H])C([H])([H])C([H])([H])C([H])(n4nc(-c5c([H])c([H])c(Oc6c([H])c([H])c(F)c([H])c6F)c([H])c5[H])c(C(=O)N([H])[H])c4N([H])[H])C3([H])[H])c([H])c([H])c2C1([H])[H]

>  <smiles>  (34) 
[H]c1c([H])c([H])c2c(c1[H])C([H])([H])C([H])([H])C([H])([H])C2([H])N([H])C(=O)C1([H])N(C(=O)C([H])(N([H])C(=O)C([H])(N([H])C([H])([H])[H])C([H])([H])[H])C(C([H])([H])[H])(C([H])([H])[H])C([H])([H])[H])C([H])([H])c2c([H])c(Oc3c([H])c(OC([H])([H])[H])c([H])c([H])c3C([H])([H])C([H])([H])C([H])([H])N([H])C(=O)N3C([H])([H])C([H])([H])C([H])([H])C([H])(n4nc(-c5c([H])c([H])c(Oc6c([H])c([H])c(F)c([H])c6F)c([H])c5[H])c(C(=O)N([H])[H])c4N([H])[H])C3([H])[H])c([H])c([H])c2C1([H])[H]

$$$$
34:0:0
     RDKit          3D

 88 96  0  0  1  0  0  0  0  0999 V2000
  -27.4060  -21.5030   20.7270 C   0  0  0  0  0  3  0  0  0  0  0  0
  -26.5460  -22.5720   21.0740 C   0  0  0  0  0  3  0  0  0  0  0  0
  -28.9890  -23.2320   20.1380 C   0  0  0  0  0  3  0  0  0  0  0  0
  -28.7270  -21.7100   20.2960 C   0  0  0  0  0  0  0  0  0  0  0  0
  -26.8660  -23.9600   21.0000 C   0  0  0  0  0  0  0  0  0  0  0  0
  -28.0770  -24.4570   20.4070 C   0  0  0  0  0  0  0  0  0  0  0  0
  -25.8480  -24.8540   21.6930 C   0  0  0  0  0  1  0  0  0  0  0  0
  -29.6850  -20.2860   20.2310 C   0  0  0  0  0  0  0  0  0  0  0  0
  -30.8850  -20.4740   20.4390 O   0  0  0  0  0  0  0  0  0  0  0  0
  -29.3510  -18.5990   19.8870 C   0  0  0  0  0  2  0  0  0  0  0  0
  -29.8630  -17.0170   20.5970 C   0  0  0  0  0  2  0  0  0  0  0  0
  -30.5200  -15.4740   20.0580 C   0  0  0  0  0  0  0  0  0  0  0  0
  -30.4930  -13.0200   19.1840 C   0  0  0  0  0  2  0  0  0  0  0  0
  -29.5440  -12.8340   17.9710 C   0  0  0  0  0  2  0  0  0  0  0  0
  -28.1070  -12.5510   18.4430 C   0  0  0  0  0  2  0  0  0  0  0  0
  -27.6860  -13.5020   19.5900 C   0  0  0  0  0  3  0  0  0  0  0  0
  -28.7590  -13.6420   20.6910 C   0  0  0  0  0  2  0  0  0  0  0  0
  -29.9830  -14.1510   20.0500 N   0  0  0  0  0  0  0  0  0  0  0  0
  -31.6900  -15.4780   19.6440 O   0  0  0  0  0  0  0  0  0  0  0  0
  -25.3350  -14.0390   20.4190 C   0  0  0  0  0  0  0  0  0  0  0  0
  -24.2880  -13.2530   20.8110 C   0  0  0  0  0  0  0  0  0  0  0  0
  -24.7600  -11.9060   20.7500 C   0  0  0  0  0  0  0  0  0  0  0  0
  -26.3740  -13.1720   20.1320 N   0  0  0  0  0  0  0  0  0  0  0  0
  -26.0420  -11.8810   20.3990 N   0  0  0  0  0  0  0  0  0  0  0  0
  -24.0420  -10.6380   20.9480 C   0  0  0  0  0  0  0  0  0  0  0  0
  -24.4740   -9.6830   21.8940 C   0  0  0  0  0  3  0  0  0  0  0  0
  -23.7540   -8.4830   22.0800 C   0  0  0  0  0  3  0  0  0  0  0  0
  -22.5880   -8.2300   21.3200 C   0  0  0  0  0  0  0  0  0  0  0  0
  -22.1750   -9.1740   20.3630 C   0  0  0  0  0  3  0  0  0  0  0  0
  -22.8960  -10.3650   20.1750 C   0  0  0  0  0  3  0  0  0  0  0  0
  -21.8400   -7.0810   21.4150 O   0  0  0  0  0  0  0  0  0  0  0  0
  -21.7560   -6.3700   22.5860 C   0  0  0  0  0  0  0  0  0  0  0  0
  -21.2380   -6.9410   23.7680 C   0  0  0  0  0  3  0  0  0  0  0  0
  -21.1050   -6.1550   24.9310 C   0  0  0  0  0  3  0  0  0  0  0  0
  -21.4800   -4.7990   24.9100 C   0  0  0  0  0  0  0  0  0  0  0  0
  -21.9920   -4.2270   23.7320 C   0  0  0  0  0  3  0  0  0  0  0  0
  -22.1260   -5.0100   22.5720 C   0  0  0  0  0  0  0  0  0  0  0  0
  -22.5990   -4.4480   21.4340 F   0  0  0  0  0  0  0  0  0  0  0  0
  -21.3470   -4.0410   26.0240 F   0  0  0  0  0  0  0  0  0  0  0  0
  -22.8980  -13.7220   21.1260 C   0  0  0  0  0  0  0  0  0  0  0  0
  -22.2010  -13.0200   22.0110 N   0  0  0  0  0  0  0  0  0  0  0  0
  -22.4410  -14.7480   20.6210 O   0  0  0  0  0  0  0  0  0  0  0  0
  -22.5860  -12.1920   22.4400 H   0  0  0  0  0  0  0  0  0  0  0  0
  -21.2690  -13.3160   22.2650 H   0  0  0  0  0  0  0  0  0  0  0  0
  -25.4890  -15.4140   20.2540 N   0  0  0  0  0  0  0  0  0  0  0  0
  -24.7280  -16.0660   20.4030 H   0  0  0  0  0  0  0  0  0  0  0  0
  -26.3310  -15.8580   19.9090 H   0  0  0  0  0  0  0  0  0  0  0  0
  -28.3090  -25.9840   20.2490 O   0  0  0  0  0  0  0  0  0  0  0  0
  -24.7610  -31.9170   23.3190 C   0  0  0  0  0  0  0  0  0  0  0  0
  -27.3480  -27.1340   20.1840 C   0  0  0  0  0  0  0  0  0  0  0  0
  -23.5990  -30.5890   21.6020 C   0  0  0  0  0  3  0  0  0  0  0  0
  -25.0760  -29.0440   20.1390 C   0  0  0  0  0  0  0  0  0  0  0  0
  -26.1670  -30.7870   21.5290 C   0  0  0  0  0  2  0  0  0  0  0  0
  -26.2440  -29.4020   20.8260 C   0  0  0  0  0  0  0  0  0  0  0  0
  -27.3710  -28.4630   20.8390 C   0  0  0  0  0  3  0  0  0  0  0  0
  -26.1920  -26.9750   19.3890 C   0  0  0  0  0  3  0  0  0  0  0  0
  -25.0760  -27.8510   19.4000 C   0  0  0  0  0  3  0  0  0  0  0  0
  -23.8570  -29.9620   20.2030 C   0  0  0  0  0  2  0  0  0  0  0  0
  -24.8620  -31.1230   22.2050 N   0  0  0  0  0  0  0  0  0  0  0  0
  -23.6610  -32.1940   23.8260 O   0  0  0  0  0  0  0  0  0  0  0  0
  -22.8810  -29.5590   22.5130 C   0  0  0  0  0  0  0  0  0  0  0  0
  -21.5530  -29.4080   22.3550 N   0  0  0  0  0  0  0  0  0  0  0  0
  -23.5260  -28.8990   23.3310 O   0  0  0  0  0  0  0  0  0  0  0  0
  -21.0870  -29.9880   21.6720 H   0  0  0  0  0  0  0  0  0  0  0  0
  -18.1460  -28.2340   22.7990 C   0  0  0  0  0  0  0  0  0  0  0  0
  -20.7120  -28.4450   23.0750 C   0  0  0  0  0  3  0  0  0  0  0  0
  -20.7880  -27.0430   22.4260 C   0  0  0  0  0  2  0  0  0  0  0  0
  -19.6810  -26.7910   21.3980 C   0  0  0  0  0  2  0  0  0  0  0  0
  -18.3030  -26.9220   22.0500 C   0  0  0  0  0  2  0  0  0  0  0  0
  -19.2780  -28.9560   23.2660 C   0  0  0  0  0  0  0  0  0  0  0  0
  -19.0780  -30.1870   23.9270 C   0  0  0  0  0  3  0  0  0  0  0  0
  -17.7800  -30.6940   24.1280 C   0  0  0  0  0  3  0  0  0  0  0  0
  -16.6650  -29.9690   23.6750 C   0  0  0  0  0  3  0  0  0  0  0  0
  -16.8480  -28.7400   23.0170 C   0  0  0  0  0  3  0  0  0  0  0  0
  -26.0220  -32.5300   24.0010 C   0  0  0  0  0  3  0  0  0  0  0  0
  -26.4670  -31.7450   25.2970 C   0  0  1  0  0  0  0  0  0  0  0  0
  -25.3230  -31.5220   26.3150 C   0  0  0  0  0  1  0  0  0  0  0  0
  -27.0450  -30.3580   24.9350 C   0  0  0  0  0  1  0  0  0  0  0  0
  -27.5990  -32.5180   26.0130 C   0  0  0  0  0  1  0  0  0  0  0  0
  -25.7180  -33.9320   24.3380 N   0  0  0  0  0  0  0  0  0  0  0  0
  -26.0900  -34.9950   23.6120 C   0  0  0  0  0  0  0  0  0  0  0  0
  -26.7870  -34.8980   22.5990 O   0  0  0  0  0  0  0  0  0  0  0  0
  -25.1010  -34.0840   25.1230 H   0  0  0  0  0  0  0  0  0  0  0  0
  -24.4140  -36.8390   23.2370 C   0  0  0  0  0  1  0  0  0  0  0  0
  -25.6160  -36.3870   24.0820 C   0  0  0  0  0  3  0  0  0  0  0  0
  -27.7300  -37.2190   25.0150 C   0  0  0  0  0  1  0  0  0  0  0  0
  -26.6740  -37.4200   24.0260 N   0  0  0  0  0  0  0  0  0  0  0  0
  -26.2800  -38.3470   24.1670 H   0  0  0  0  0  0  0  0  0  0  0  0
  1  2  1  0
  3  4  1  0
  3  6  2  0
  4  1  2  0
  5  2  2  0
  5  7  1  0
  6  5  1  0
  8  4  1  0
  8  9  2  0
 10  8  1  0
 10 11  1  0
 12 11  1  0
 13 18  1  0
 14 15  1  0
 14 13  1  0
 16 15  1  0
 16 23  1  0
 16 17  1  0
 18 12  1  0
 18 17  1  0
 19 12  2  0
 20 21  2  0
 21 40  1  0
 22 21  1  0
 22 25  1  0
 23 24  1  0
 23 20  1  0
 24 22  2  0
 25 26  1  0
 26 27  2  0
 28 31  1  0
 28 27  1  0
 29 28  2  0
 30 29  1  0
 30 25  2  0
 31 32  1  0
 32 33  1  0
 33 34  2  0
 35 34  1  0
 35 39  1  0
 36 35  2  0
 37 32  2  0
 37 36  1  0
 38 37  1  0
 40 41  1  0
 41 44  1  0
 41 43  1  0
 42 40  2  0
 45 46  1  0
 45 20  1  0
 47 45  1  0
 48  6  1  0
 49 60  2  0
 50 48  1  0
 50 55  1  0
 51 59  1  0
 51 61  1  0
 52 58  1  0
 52 54  1  0
 53 59  1  0
 54 55  2  0
 54 53  1  0
 56 57  1  0
 56 50  2  0
 57 52  2  0
 58 51  1  0
 59 49  1  0
 61 63  2  0
 62 61  1  0
 64 62  1  0
 65 74  2  0
 65 70  1  0
 66 62  1  0
 66 70  1  0
 67 66  1  0
 68 69  1  0
 68 67  1  0
 69 65  1  0
 70 71  2  0
 71 72  1  0
 73 72  2  0
 74 73  1  0
 75 49  1  0
 75 80  1  0
 75 76  1  0
 76 79  1  1
 76 77  1  0
 78 76  1  0
 80 83  1  0
 81 85  1  0
 81 80  1  0
 82 81  2  0
 85 84  1  0
 87 85  1  0
 87 88  1  0
 87 86  1  0
M  ISO  4   6 101  11 100  12 100  48 101
M  END
>  <TORSDO>  (35) 
F 19

>  <SCORE>  (35) 
-15.319

>  <name>  (35) 
34

>  <ligand_id>  (35) 
34

>  <original_smiles>  (35) 
[H]c1c([H])c([H])c2c(c1[H])C([H])([H])C([H])([H])C([H])([H])C2([H])N([H])C(=O)C1([H])N(C(=O)C([H])(N([H])C(=O)C([H])(N([H])C([H])([H])[H])C([H])([H])[H])C(C([H])([H])[H])(C([H])([H])[H])C([H])([H])[H])C([H])([H])c2c([H])c(Oc3c([H])c(C(=O)C([H])([H])C([H])([H])C(=O)N4C([H])([H])C([H])([H])C([H])([H])C([H])(n5nc(-c6c([H])c([H])c(Oc7c([H])c([H])c(F)c([H])c7F)c([H])c6[H])c(C(=O)N([H])[H])c5N([H])[H])C4([H])[H])c([H])c([H])c3C([H])([H])[H])c([H])c([H])c2C1([H])[H]

>  <smiles>  (35) 
[H]c1c([H])c([H])c2c(c1[H])C([H])([H])C([H])([H])C([H])([H])C2([H])N([H])C(=O)C1([H])N(C(=O)C([H])(N([H])C(=O)C([H])(N([H])C([H])([H])[H])C([H])([H])[H])C(C([H])([H])[H])(C([H])([H])[H])C([H])([H])[H])C([H])([H])c2c([H])c(Oc3c([H])c(C(=O)C([H])([H])C([H])([H])C(=O)N4C([H])([H])C([H])([H])C([H])([H])C([H])(n5nc(-c6c([H])c([H])c(Oc7c([H])c([H])c(F)c([H])c7F)c([H])c6[H])c(C(=O)N([H])[H])c5N([H])[H])C4([H])[H])c([H])c([H])c3C([H])([H])[H])c([H])c([H])c2C1([H])[H]

$$$$
35:0:0
     RDKit          3D

 92100  0  0  1  0  0  0  0  0999 V2000
  -29.4950  -18.3180   21.6900 C   0  0  0  0  0  3  0  0  0  0  0  0
  -30.2910  -16.9380   19.7690 C   0  0  0  0  0  0  0  0  0  0  0  0
  -30.0060  -17.1050   21.1580 C   0  0  0  0  0  0  0  0  0  0  0  0
  -30.1210  -18.3000   19.0450 C   0  0  0  0  0  0  0  0  0  0  0  0
  -29.6560  -19.6650   19.6140 C   0  0  0  0  0  0  0  0  0  0  0  0
  -29.3000  -19.5210   20.9750 C   0  0  0  0  0  0  0  0  0  0  0  0
  -30.2980  -16.0380   22.2110 C   0  0  0  0  0  1  0  0  0  0  0  0
  -30.8970  -15.4450   19.2740 C   0  0  0  0  0  0  0  0  0  0  0  0
  -30.7400  -12.9680   18.5210 C   0  0  0  0  0  2  0  0  0  0  0  0
  -29.6910  -12.7760   17.3970 C   0  0  0  0  0  2  0  0  0  0  0  0
  -28.2950  -12.5250   17.9940 C   0  0  0  0  0  2  0  0  0  0  0  0
  -27.9830  -13.5340   19.1220 C   0  0  0  0  0  3  0  0  0  0  0  0
  -29.1390  -13.7000   20.1220 C   0  0  0  0  0  2  0  0  0  0  0  0
  -30.3290  -14.1430   19.3780 N   0  0  0  0  0  0  0  0  0  0  0  0
  -32.0180  -15.4210   18.7440 O   0  0  0  0  0  0  0  0  0  0  0  0
  -25.8000  -14.1700   20.2740 C   0  0  0  0  0  0  0  0  0  0  0  0
  -24.7530  -13.4300   20.7460 C   0  0  0  0  0  0  0  0  0  0  0  0
  -25.1130  -12.0600   20.5500 C   0  0  0  0  0  0  0  0  0  0  0  0
  -26.7230  -13.2570   19.8000 N   0  0  0  0  0  0  0  0  0  0  0  0
  -26.3370  -11.9750   20.0370 N   0  0  0  0  0  0  0  0  0  0  0  0
  -24.3320  -10.8330   20.7580 C   0  0  0  0  0  0  0  0  0  0  0  0
  -24.7650   -9.8250   21.6500 C   0  0  0  0  0  3  0  0  0  0  0  0
  -23.9850   -8.6650   21.8490 C   0  0  0  0  0  3  0  0  0  0  0  0
  -22.7610   -8.5050   21.1570 C   0  0  0  0  0  0  0  0  0  0  0  0
  -22.3470   -9.5010   20.2530 C   0  0  0  0  0  3  0  0  0  0  0  0
  -23.1260  -10.6530   20.0510 C   0  0  0  0  0  3  0  0  0  0  0  0
  -21.9490   -7.4020   21.2720 O   0  0  0  0  0  0  0  0  0  0  0  0
  -21.8340   -6.7100   22.4510 C   0  0  0  0  0  0  0  0  0  0  0  0
  -21.3790   -7.3290   23.6360 C   0  0  0  0  0  3  0  0  0  0  0  0
  -21.2080   -6.5650   24.8070 C   0  0  0  0  0  3  0  0  0  0  0  0
  -21.4800   -5.1840   24.7940 C   0  0  0  0  0  0  0  0  0  0  0  0
  -21.9280   -4.5650   23.6140 C   0  0  0  0  0  3  0  0  0  0  0  0
  -22.1010   -5.3260   22.4450 C   0  0  0  0  0  0  0  0  0  0  0  0
  -22.5130   -4.7200   21.3050 F   0  0  0  0  0  0  0  0  0  0  0  0
  -21.3050   -4.4470   25.9170 F   0  0  0  0  0  0  0  0  0  0  0  0
  -23.4470  -13.9690   21.2500 C   0  0  0  0  0  0  0  0  0  0  0  0
  -22.8090  -13.2700   22.1810 N   0  0  0  0  0  0  0  0  0  0  0  0
  -23.0050  -15.0470   20.8490 O   0  0  0  0  0  0  0  0  0  0  0  0
  -23.1760  -12.3990   22.5320 H   0  0  0  0  0  0  0  0  0  0  0  0
  -21.9350  -13.6210   22.5500 H   0  0  0  0  0  0  0  0  0  0  0  0
  -26.0300  -15.5410   20.1820 N   0  0  0  0  0  0  0  0  0  0  0  0
  -25.3550  -16.2170   20.5210 H   0  0  0  0  0  0  0  0  0  0  0  0
  -26.8440  -15.9760   19.7680 H   0  0  0  0  0  0  0  0  0  0  0  0
  -28.7190  -20.5780   21.6730 N   0  0  0  0  0  0  0  0  0  0  0  0
  -28.2840  -21.3160   21.1330 H   0  0  0  0  0  0  0  0  0  0  0  0
  -28.1960  -20.3590   22.5150 H   0  0  0  0  0  0  0  0  0  0  0  0
  -31.9060  -18.7160   17.3160 C   0  0  0  0  0  1  0  0  0  0  0  0
  -30.4520  -18.3080   17.5630 C   0  0  0  0  0  2  0  0  0  0  0  0
  -29.3710  -21.2300   18.8860 C   0  0  0  0  0  2  0  0  0  0  0  0
  -29.3060  -22.9320   19.4900 C   0  0  0  0  0  3  0  0  0  0  0  0
  -28.4860  -24.4390   18.9330 C   0  0  0  0  0  3  0  0  0  0  0  0
  -28.5370  -26.0390   19.3240 O   0  0  0  0  0  0  0  0  0  0  0  0
  -24.5660  -31.3960   22.8150 C   0  0  0  0  0  0  0  0  0  0  0  0
  -27.4400  -27.0490   19.3300 C   0  0  0  0  0  0  0  0  0  0  0  0
  -23.4490  -30.0570   21.0740 C   0  0  0  0  0  3  0  0  0  0  0  0
  -24.9930  -28.7180   19.4820 C   0  0  0  0  0  0  0  0  0  0  0  0
  -25.9830  -30.4940   20.9110 C   0  0  0  0  0  2  0  0  0  0  0  0
  -26.1540  -29.1620   20.1270 C   0  0  0  0  0  0  0  0  0  0  0  0
  -27.3680  -28.3480   20.0350 C   0  0  0  0  0  3  0  0  0  0  0  0
  -26.2420  -26.7620   18.6370 C   0  0  0  0  0  3  0  0  0  0  0  0
  -25.0600  -27.5430   18.7170 C   0  0  0  0  0  3  0  0  0  0  0  0
  -23.7030  -29.5250   19.6360 C   0  0  0  0  0  2  0  0  0  0  0  0
  -24.6850  -30.6730   21.6540 N   0  0  0  0  0  0  0  0  0  0  0  0
  -23.4720  -31.5460   23.3810 O   0  0  0  0  0  0  0  0  0  0  0  0
  -22.8680  -28.9220   21.9550 C   0  0  0  0  0  0  0  0  0  0  0  0
  -21.5580  -28.6410   21.8250 N   0  0  0  0  0  0  0  0  0  0  0  0
  -23.6020  -28.2940   22.7220 O   0  0  0  0  0  0  0  0  0  0  0  0
  -21.0110  -29.2130   21.1960 H   0  0  0  0  0  0  0  0  0  0  0  0
  -18.3210  -27.0540   22.2260 C   0  0  0  0  0  0  0  0  0  0  0  0
  -20.8410  -27.5670   22.5200 C   0  0  0  0  0  3  0  0  0  0  0  0
  -21.0900  -26.2000   21.8400 C   0  0  0  0  0  2  0  0  0  0  0  0
  -20.0220  -25.8380   20.8010 C   0  0  0  0  0  2  0  0  0  0  0  0
  -18.6350  -25.7880   21.4480 C   0  0  0  0  0  2  0  0  0  0  0  0
  -19.3560  -27.8960   22.7170 C   0  0  0  0  0  0  0  0  0  0  0  0
  -19.0050  -29.0760   23.4110 C   0  0  0  0  0  3  0  0  0  0  0  0
  -17.6540  -29.4190   23.6120 C   0  0  0  0  0  3  0  0  0  0  0  0
  -16.6360  -28.5790   23.1290 C   0  0  0  0  0  3  0  0  0  0  0  0
  -16.9720  -27.3970   22.4460 C   0  0  0  0  0  3  0  0  0  0  0  0
  -25.7970  -32.0850   23.4780 C   0  0  0  0  0  3  0  0  0  0  0  0
  -25.3880  -33.4380   23.8990 N   0  0  0  0  0  0  0  0  0  0  0  0
  -25.6680  -34.5660   23.2360 C   0  0  0  0  0  0  0  0  0  0  0  0
  -26.3650  -34.5850   22.2160 O   0  0  0  0  0  0  0  0  0  0  0  0
  -24.7770  -33.4920   24.7020 H   0  0  0  0  0  0  0  0  0  0  0  0
  -23.8420  -36.2810   22.9800 C   0  0  0  0  0  1  0  0  0  0  0  0
  -25.0890  -35.8860   23.7870 C   0  0  0  0  0  3  0  0  0  0  0  0
  -27.1420  -36.8390   24.7430 C   0  0  0  0  0  1  0  0  0  0  0  0
  -26.0570  -37.0060   23.7800 N   0  0  0  0  0  0  0  0  0  0  0  0
  -25.5900  -37.8860   23.9790 H   0  0  0  0  0  0  0  0  0  0  0  0
  -26.3630  -31.2840   24.7150 C   0  0  1  0  0  0  0  0  0  0  0  0
  -25.2870  -30.9310   25.7690 C   0  0  0  0  0  1  0  0  0  0  0  0
  -27.0270  -29.9630   24.2650 C   0  0  0  0  0  1  0  0  0  0  0  0
  -27.4680  -32.1100   25.4180 C   0  0  0  0  0  1  0  0  0  0  0  0
  2  3  2  0
  3  1  1  0
  3  7  1  0
  4  5  2  0
  4  2  1  0
  5  6  1  0
  6 44  1  0
  6  1  2  0
  8 14  1  0
  8  2  1  0
  9 14  1  0
 10 11  1  0
 10  9  1  0
 12 11  1  0
 12 19  1  0
 12 13  1  0
 14 13  1  0
 15  8  2  0
 16 17  2  0
 17 36  1  0
 18 17  1  0
 18 21  1  0
 19 20  1  0
 19 16  1  0
 20 18  2  0
 21 22  1  0
 22 23  2  0
 24 27  1  0
 24 23  1  0
 25 24  2  0
 26 25  1  0
 26 21  2  0
 27 28  1  0
 28 29  1  0
 29 30  2  0
 31 30  1  0
 31 35  1  0
 32 31  2  0
 33 28  2  0
 33 32  1  0
 34 33  1  0
 36 37  1  0
 37 39  1  0
 37 40  1  0
 38 36  2  0
 41 16  1  0
 41 42  1  0
 43 41  1  0
 44 46  1  0
 45 44  1  0
 47 48  1  0
 48  4  1  0
 49 50  1  0
 49  5  1  0
 51 52  1  0
 51 50  2  0
 52 54  1  0
 53 64  2  0
 54 59  1  0
 55 63  1  0
 55 65  1  0
 56 62  1  0
 56 58  1  0
 57 63  1  0
 58 57  1  0
 59 58  2  0
 60 61  1  0
 60 54  2  0
 61 56  2  0
 62 55  1  0
 63 53  1  0
 65 67  2  0
 66 65  1  0
 68 66  1  0
 69 78  2  0
 69 74  1  0
 70 66  1  0
 70 74  1  0
 71 70  1  0
 72 73  1  0
 72 71  1  0
 73 69  1  0
 74 75  2  0
 75 76  1  0
 77 76  2  0
 78 77  1  0
 79 53  1  0
 79 80  1  0
 79 89  1  0
 80 83  1  0
 81 85  1  0
 81 80  1  0
 82 81  2  0
 85 84  1  0
 87 85  1  0
 87 88  1  0
 87 86  1  0
 89 92  1  1
 89 90  1  0
 91 89  1  0
M  ISO  4   2 100   8 100  51 101  52 101
M  END
>  <TORSDO>  (36) 
F 21

>  <SCORE>  (36) 
-11.536

>  <name>  (36) 
35

>  <ligand_id>  (36) 
35

>  <original_smiles>  (36) 
[H]c1c([H])c([H])c2c(c1[H])C([H])([H])C([H])([H])C([H])([H])C2([H])N([H])C(=O)C1([H])N(C(=O)C([H])(N([H])C(=O)C([H])(N([H])C([H])([H])[H])C([H])([H])[H])C(C([H])([H])[H])(C([H])([H])[H])C([H])([H])[H])C([H])([H])c2c([H])c(OC([H])([H])C([H])([H])C([H])([H])c3c(N([H])[H])c([H])c(C([H])([H])[H])c(C(=O)N4C([H])([H])C([H])([H])C([H])([H])C([H])(n5nc(-c6c([H])c([H])c(Oc7c([H])c([H])c(F)c([H])c7F)c([H])c6[H])c(C(=O)N([H])[H])c5N([H])[H])C4([H])[H])c3C([H])([H])C([H])([H])[H])c([H])c([H])c2C1([H])[H]

>  <smiles>  (36) 
[H]c1c([H])c([H])c2c(c1[H])C([H])([H])C([H])([H])C([H])([H])C2([H])N([H])C(=O)C1([H])N(C(=O)C([H])(N([H])C(=O)C([H])(N([H])C([H])([H])[H])C([H])([H])[H])C(C([H])([H])[H])(C([H])([H])[H])C([H])([H])[H])C([H])([H])c2c([H])c(OC([H])([H])C([H])([H])C([H])([H])c3c(N([H])[H])c([H])c(C([H])([H])[H])c(C(=O)N4C([H])([H])C([H])([H])C([H])([H])C([H])(n5nc(-c6c([H])c([H])c(Oc7c([H])c([H])c(F)c([H])c7F)c([H])c6[H])c(C(=O)N([H])[H])c5N([H])[H])C4([H])[H])c3C([H])([H])C([H])([H])[H])c([H])c([H])c2C1([H])[H]

$$$$
36:0:0
     RDKit          3D

 90 98  0  0  1  0  0  0  0  0999 V2000
  -29.8970  -22.8820   22.5610 C   0  0  0  0  0  3  0  0  0  0  0  0
  -29.9780  -21.5970   21.9780 C   0  0  0  0  0  3  0  0  0  0  0  0
  -29.3390  -23.9760   21.8620 C   0  0  0  0  0  3  0  0  0  0  0  0
  -29.5030  -21.3580   20.6690 C   0  0  0  0  0  0  0  0  0  0  0  0
  -28.8440  -23.8160   20.5530 C   0  0  0  0  0  0  0  0  0  0  0  0
  -28.9340  -22.4910   19.9740 C   0  0  0  0  0  0  0  0  0  0  0  0
  -28.4610  -22.3030   18.7180 F   0  0  0  0  0  0  0  0  0  0  0  0
  -29.7310  -19.9420   19.9990 C   0  0  0  0  0  2  0  0  0  0  0  0
  -29.5900  -18.5500   20.7980 C   0  0  0  0  0  3  0  0  0  0  0  0
  -30.2300  -17.2530   20.0980 C   0  0  0  0  0  3  0  0  0  0  0  0
  -30.6250  -14.7090   20.2980 C   0  0  0  0  0  0  0  0  0  0  0  0
  -30.3520  -12.4680   19.2540 C   0  0  0  0  0  2  0  0  0  0  0  0
  -29.4070  -12.6040   18.0400 C   0  0  0  0  0  2  0  0  0  0  0  0
  -27.9380  -12.4530   18.4800 C   0  0  0  0  0  2  0  0  0  0  0  0
  -27.5950  -13.3140   19.7250 C   0  0  0  0  0  3  0  0  0  0  0  0
  -28.6640  -13.1810   20.8330 C   0  0  0  0  0  2  0  0  0  0  0  0
  -29.9660  -13.5050   20.2360 N   0  0  0  0  0  0  0  0  0  0  0  0
  -31.7890  -14.8050   19.9000 O   0  0  0  0  0  0  0  0  0  0  0  0
  -29.8960  -15.8460   20.5690 N   0  0  0  0  0  0  0  0  0  0  0  0
  -28.9510  -15.6910   20.8900 H   0  0  0  0  0  0  0  0  0  0  0  0
  -25.2090  -13.9090   20.4630 C   0  0  0  0  0  0  0  0  0  0  0  0
  -24.1460  -13.1370   20.8440 C   0  0  0  0  0  0  0  0  0  0  0  0
  -24.6090  -11.7860   20.8160 C   0  0  0  0  0  0  0  0  0  0  0  0
  -26.2510  -13.0290   20.2230 N   0  0  0  0  0  0  0  0  0  0  0  0
  -25.8970  -11.7470   20.4980 N   0  0  0  0  0  0  0  0  0  0  0  0
  -23.8830  -10.5240   21.0180 C   0  0  0  0  0  0  0  0  0  0  0  0
  -24.3290   -9.5550   21.9430 C   0  0  0  0  0  3  0  0  0  0  0  0
  -23.6040   -8.3590   22.1330 C   0  0  0  0  0  3  0  0  0  0  0  0
  -22.4180   -8.1230   21.3980 C   0  0  0  0  0  0  0  0  0  0  0  0
  -21.9900   -9.0800   20.4610 C   0  0  0  0  0  3  0  0  0  0  0  0
  -22.7160  -10.2690   20.2690 C   0  0  0  0  0  3  0  0  0  0  0  0
  -21.6620   -6.9800   21.4980 O   0  0  0  0  0  0  0  0  0  0  0  0
  -21.6420   -6.2290   22.6460 C   0  0  0  0  0  0  0  0  0  0  0  0
  -21.2580   -6.7790   23.8890 C   0  0  0  0  0  3  0  0  0  0  0  0
  -21.1830   -5.9550   25.0300 C   0  0  0  0  0  3  0  0  0  0  0  0
  -21.4820   -4.5830   24.9300 C   0  0  0  0  0  0  0  0  0  0  0  0
  -21.8580   -4.0330   23.6920 C   0  0  0  0  0  3  0  0  0  0  0  0
  -21.9340   -4.8530   22.5520 C   0  0  0  0  0  0  0  0  0  0  0  0
  -22.2770   -4.3140   21.3580 F   0  0  0  0  0  0  0  0  0  0  0  0
  -21.4020   -3.7900   26.0230 F   0  0  0  0  0  0  0  0  0  0  0  0
  -22.7500  -13.6160   21.1230 C   0  0  0  0  0  0  0  0  0  0  0  0
  -22.0290  -12.9250   21.9990 N   0  0  0  0  0  0  0  0  0  0  0  0
  -22.3090  -14.6370   20.5990 O   0  0  0  0  0  0  0  0  0  0  0  0
  -22.3990  -12.1000   22.4460 H   0  0  0  0  0  0  0  0  0  0  0  0
  -21.0920  -13.2270   22.2260 H   0  0  0  0  0  0  0  0  0  0  0  0
  -25.3700  -15.2790   20.2780 N   0  0  0  0  0  0  0  0  0  0  0  0
  -24.6000  -15.9300   20.3900 H   0  0  0  0  0  0  0  0  0  0  0  0
  -26.2080  -15.7190   19.9180 H   0  0  0  0  0  0  0  0  0  0  0  0
  -28.0930  -25.0080   19.8470 C   0  0  0  0  0  2  0  0  0  0  0  0
  -28.2820  -26.4330   20.2660 O   0  0  0  0  0  0  0  0  0  0  0  0
  -24.6140  -31.9070   23.2550 C   0  0  0  0  0  0  0  0  0  0  0  0
  -27.1890  -27.3240   20.1750 C   0  0  0  0  0  0  0  0  0  0  0  0
  -23.3990  -30.5160   21.6200 C   0  0  0  0  0  3  0  0  0  0  0  0
  -24.8350  -28.9700   20.1780 C   0  0  0  0  0  0  0  0  0  0  0  0
  -25.9410  -30.8180   21.4300 C   0  0  0  0  0  2  0  0  0  0  0  0
  -26.0100  -29.4400   20.7800 C   0  0  0  0  0  0  0  0  0  0  0  0
  -27.1850  -28.6250   20.7770 C   0  0  0  0  0  3  0  0  0  0  0  0
  -25.9990  -26.9410   19.5110 C   0  0  0  0  0  3  0  0  0  0  0  0
  -24.8340  -27.7270   19.5340 C   0  0  0  0  0  3  0  0  0  0  0  0
  -23.6020  -29.8480   20.2370 C   0  0  0  0  0  2  0  0  0  0  0  0
  -24.6710  -31.0980   22.1580 N   0  0  0  0  0  0  0  0  0  0  0  0
  -23.5350  -32.1880   23.7950 O   0  0  0  0  0  0  0  0  0  0  0  0
  -22.7380  -29.4970   22.5820 C   0  0  0  0  0  0  0  0  0  0  0  0
  -21.4110  -29.3210   22.4600 N   0  0  0  0  0  0  0  0  0  0  0  0
  -23.4190  -28.8710   23.3990 O   0  0  0  0  0  0  0  0  0  0  0  0
  -20.9190  -29.8760   21.7750 H   0  0  0  0  0  0  0  0  0  0  0  0
  -18.0360  -28.1200   22.9680 C   0  0  0  0  0  0  0  0  0  0  0  0
  -20.5950  -28.3860   23.2360 C   0  0  0  0  0  3  0  0  0  0  0  0
  -20.6990  -26.9520   22.6680 C   0  0  0  0  0  2  0  0  0  0  0  0
  -19.5970  -26.6230   21.6550 C   0  0  0  0  0  2  0  0  0  0  0  0
  -18.2150  -26.7680   22.2980 C   0  0  0  0  0  2  0  0  0  0  0  0
  -19.1540  -28.8860   23.3950 C   0  0  0  0  0  0  0  0  0  0  0  0
  -18.9320  -30.1500   23.9820 C   0  0  0  0  0  3  0  0  0  0  0  0
  -17.6260  -30.6500   24.1440 C   0  0  0  0  0  3  0  0  0  0  0  0
  -16.5240  -29.8830   23.7330 C   0  0  0  0  0  3  0  0  0  0  0  0
  -16.7290  -28.6190   23.1520 C   0  0  0  0  0  3  0  0  0  0  0  0
  -25.9020  -32.5370   23.8700 C   0  0  0  0  0  3  0  0  0  0  0  0
  -26.4230  -31.7640   25.1430 C   0  0  1  0  0  0  0  0  0  0  0  0
  -25.3340  -31.5300   26.2170 C   0  0  0  0  0  1  0  0  0  0  0  0
  -26.9990  -30.3840   24.7500 C   0  0  0  0  0  1  0  0  0  0  0  0
  -27.5810  -32.5530   25.7990 C   0  0  0  0  0  1  0  0  0  0  0  0
  -25.5970  -33.9360   24.2030 N   0  0  0  0  0  0  0  0  0  0  0  0
  -25.9210  -34.9880   23.4390 C   0  0  0  0  0  0  0  0  0  0  0  0
  -26.5770  -34.8840   22.3990 O   0  0  0  0  0  0  0  0  0  0  0  0
  -25.0140  -34.0900   25.0120 H   0  0  0  0  0  0  0  0  0  0  0  0
  -24.1840  -36.7790   23.1130 C   0  0  0  0  0  1  0  0  0  0  0  0
  -25.4400  -36.3770   23.9030 C   0  0  0  0  0  3  0  0  0  0  0  0
  -27.5890  -37.2630   24.6950 C   0  0  0  0  0  1  0  0  0  0  0  0
  -26.4690  -37.4310   23.7720 N   0  0  0  0  0  0  0  0  0  0  0  0
  -26.0650  -38.3500   23.9260 H   0  0  0  0  0  0  0  0  0  0  0  0
  2  1  1  0
  3  1  2  0
  4  2  2  0
  5  3  1  0
  6  5  2  0
  6  4  1  0
  7  6  1  0
  8  4  1  0
  8  9  1  0
 10 19  1  0
 10  9  2  0
 11 19  1  0
 12 17  1  0
 13 14  1  0
 13 12  1  0
 15 14  1  0
 15 24  1  0
 15 16  1  0
 17 11  1  0
 17 16  1  0
 18 11  2  0
 19 20  1  0
 21 22  2  0
 22 41  1  0
 23 22  1  0
 23 26  1  0
 24 21  1  0
 24 25  1  0
 25 23  2  0
 26 27  1  0
 27 28  2  0
 29 32  1  0
 29 28  1  0
 30 29  2  0
 31 30  1  0
 31 26  2  0
 32 33  1  0
 33 34  1  0
 34 35  2  0
 36 35  1  0
 36 40  1  0
 37 36  2  0
 38 33  2  0
 38 37  1  0
 39 38  1  0
 41 42  1  0
 42 45  1  0
 42 44  1  0
 43 41  2  0
 46 47  1  0
 46 21  1  0
 48 46  1  0
 49 50  1  0
 49  5  1  0
 51 62  2  0
 52 50  1  0
 52 57  1  0
 53 61  1  0
 53 63  1  0
 54 60  1  0
 54 56  1  0
 55 61  1  0
 56 55  1  0
 57 56  2  0
 58 59  1  0
 58 52  2  0
 59 54  2  0
 60 53  1  0
 61 51  1  0
 63 65  2  0
 64 63  1  0
 66 64  1  0
 67 76  2  0
 67 72  1  0
 68 64  1  0
 68 72  1  0
 69 68  1  0
 70 71  1  0
 70 69  1  0
 71 67  1  0
 72 73  2  0
 73 74  1  0
 75 74  2  0
 76 75  1  0
 77 51  1  0
 77 82  1  0
 77 78  1  0
 78 81  1  1
 78 79  1  0
 80 78  1  0
 82 85  1  0
 83 87  1  0
 83 82  1  0
 84 83  2  0
 87 86  1  0
 89 87  1  0
 89 90  1  0
 89 88  1  0
M  ISO  4  11 100  19 100  49 101  50 101
M  END
>  <TORSDO>  (37) 
F 20

>  <SCORE>  (37) 
-13.931

>  <name>  (37) 
36

>  <ligand_id>  (37) 
36

>  <original_smiles>  (37) 
[H]c1c([H])c(C([H])([H])Oc2c([H])c([H])c3c(c2[H])C([H])([H])N(C(=O)C([H])(N([H])C(=O)C([H])(N([H])C([H])([H])[H])C([H])([H])[H])C(C([H])([H])[H])(C([H])([H])[H])C([H])([H])[H])C([H])(C(=O)N([H])C2([H])c4c([H])c([H])c([H])c([H])c4C([H])([H])C([H])([H])C2([H])[H])C3([H])[H])c(F)c(C([H])([H])C([H])([H])C([H])([H])N([H])C(=O)N2C([H])([H])C([H])([H])C([H])([H])C([H])(n3nc(-c4c([H])c([H])c(Oc5c([H])c([H])c(F)c([H])c5F)c([H])c4[H])c(C(=O)N([H])[H])c3N([H])[H])C2([H])[H])c1[H]

>  <smiles>  (37) 
[H]c1c([H])c(C([H])([H])Oc2c([H])c([H])c3c(c2[H])C([H])([H])N(C(=O)C([H])(N([H])C(=O)C([H])(N([H])C([H])([H])[H])C([H])([H])[H])C(C([H])([H])[H])(C([H])([H])[H])C([H])([H])[H])C([H])(C(=O)N([H])C2([H])c4c([H])c([H])c([H])c([H])c4C([H])([H])C([H])([H])C2([H])[H])C3([H])[H])c(F)c(C([H])([H])C([H])([H])C([H])([H])N([H])C(=O)N2C([H])([H])C([H])([H])C([H])([H])C([H])(n3nc(-c4c([H])c([H])c(Oc5c([H])c([H])c(F)c([H])c5F)c([H])c4[H])c(C(=O)N([H])[H])c3N([H])[H])C2([H])[H])c1[H]

$$$$
37:0:0
     RDKit          3D

 87 95  0  0  1  0  0  0  0  0999 V2000
  -28.9560  -22.5330   20.4050 C   0  0  0  0  0  0  0  0  0  0  0  0
  -30.0190  -22.9800   20.8500 O   0  0  0  0  0  0  0  0  0  0  0  0
  -28.2530  -19.5450   19.8420 C   0  0  0  0  0  3  0  0  0  0  0  0
  -28.5800  -18.0440   19.8230 C   0  0  0  0  0  3  0  0  0  0  0  0
  -30.2490  -19.9480   20.7300 C   0  0  0  0  0  3  0  0  0  0  0  0
  -29.0580  -20.7170   20.3040 C   0  0  0  0  0  0  0  0  0  0  0  0
  -29.7890  -17.3000   20.2820 C   0  0  0  0  0  0  0  0  0  0  0  0
  -30.5930  -18.4720   20.7290 C   0  0  0  0  0  0  0  0  0  0  0  0
  -31.9930  -18.1870   21.2500 C   0  0  0  0  0  1  0  0  0  0  0  0
  -30.3420  -15.6280   20.1290 C   0  0  0  0  0  0  0  0  0  0  0  0
  -30.3330  -13.1010   19.3390 C   0  0  0  0  0  2  0  0  0  0  0  0
  -29.4210  -12.7590   18.1300 C   0  0  0  0  0  2  0  0  0  0  0  0
  -28.0000  -12.4270   18.6050 C   0  0  0  0  0  2  0  0  0  0  0  0
  -27.5220  -13.4210   19.6890 C   0  0  0  0  0  3  0  0  0  0  0  0
  -28.5720  -13.7240   20.7810 C   0  0  0  0  0  2  0  0  0  0  0  0
  -29.7630  -14.2940   20.1150 N   0  0  0  0  0  0  0  0  0  0  0  0
  -31.5560  -15.4880   19.9000 O   0  0  0  0  0  0  0  0  0  0  0  0
  -25.1840  -13.9230   20.5400 C   0  0  0  0  0  0  0  0  0  0  0  0
  -24.1400  -13.1280   20.9200 C   0  0  0  0  0  0  0  0  0  0  0  0
  -24.6180  -11.7830   20.8470 C   0  0  0  0  0  0  0  0  0  0  0  0
  -26.2240  -13.0640   20.2430 N   0  0  0  0  0  0  0  0  0  0  0  0
  -25.9010  -11.7680   20.4990 N   0  0  0  0  0  0  0  0  0  0  0  0
  -23.9030  -10.5110   21.0290 C   0  0  0  0  0  0  0  0  0  0  0  0
  -24.3440   -9.5400   21.9540 C   0  0  0  0  0  3  0  0  0  0  0  0
  -23.6250   -8.3370   22.1280 C   0  0  0  0  0  3  0  0  0  0  0  0
  -22.4500   -8.0970   21.3760 C   0  0  0  0  0  0  0  0  0  0  0  0
  -22.0270   -9.0580   20.4400 C   0  0  0  0  0  3  0  0  0  0  0  0
  -22.7480  -10.2510   20.2660 C   0  0  0  0  0  3  0  0  0  0  0  0
  -21.7010   -6.9470   21.4590 O   0  0  0  0  0  0  0  0  0  0  0  0
  -21.6370   -6.2130   22.6160 C   0  0  0  0  0  0  0  0  0  0  0  0
  -21.1590   -6.7650   23.8240 C   0  0  0  0  0  3  0  0  0  0  0  0
  -21.0450   -5.9550   24.9720 C   0  0  0  0  0  3  0  0  0  0  0  0
  -21.3960   -4.5940   24.9110 C   0  0  0  0  0  0  0  0  0  0  0  0
  -21.8650   -4.0400   23.7070 C   0  0  0  0  0  3  0  0  0  0  0  0
  -21.9810   -4.8470   22.5610 C   0  0  0  0  0  0  0  0  0  0  0  0
  -22.4140   -4.3030   21.3980 F   0  0  0  0  0  0  0  0  0  0  0  0
  -21.2780   -3.8140   26.0120 F   0  0  0  0  0  0  0  0  0  0  0  0
  -22.7470  -13.5880   21.2300 C   0  0  0  0  0  0  0  0  0  0  0  0
  -22.0450  -12.8750   22.1020 N   0  0  0  0  0  0  0  0  0  0  0  0
  -22.2920  -14.6190   20.7360 O   0  0  0  0  0  0  0  0  0  0  0  0
  -22.4290  -12.0400   22.5210 H   0  0  0  0  0  0  0  0  0  0  0  0
  -21.1120  -13.1650   22.3550 H   0  0  0  0  0  0  0  0  0  0  0  0
  -25.3310  -15.2990   20.3920 N   0  0  0  0  0  0  0  0  0  0  0  0
  -24.5720  -15.9480   20.5600 H   0  0  0  0  0  0  0  0  0  0  0  0
  -26.1810  -15.7540   20.0820 H   0  0  0  0  0  0  0  0  0  0  0  0
  -27.8580  -23.9650   20.1100 C   0  0  0  0  0  2  0  0  0  0  0  0
  -28.0940  -25.6700   20.3230 O   0  0  0  0  0  0  0  0  0  0  0  0
  -24.6320  -31.9000   23.2520 C   0  0  0  0  0  0  0  0  0  0  0  0
  -27.1250  -26.8590   20.2580 C   0  0  0  0  0  0  0  0  0  0  0  0
  -23.4280  -30.5020   21.6270 C   0  0  0  0  0  3  0  0  0  0  0  0
  -24.8590  -28.8580   20.2080 C   0  0  0  0  0  0  0  0  0  0  0  0
  -26.0010  -30.6560   21.4800 C   0  0  0  0  0  2  0  0  0  0  0  0
  -26.0580  -29.2260   20.8290 C   0  0  0  0  0  0  0  0  0  0  0  0
  -27.1790  -28.2530   20.8240 C   0  0  0  0  0  3  0  0  0  0  0  0
  -25.8940  -26.6840   19.5810 C   0  0  0  0  0  3  0  0  0  0  0  0
  -24.8120  -27.6120   19.5590 C   0  0  0  0  0  3  0  0  0  0  0  0
  -23.6530  -29.8050   20.2540 C   0  0  0  0  0  2  0  0  0  0  0  0
  -24.7110  -31.0510   22.1720 N   0  0  0  0  0  0  0  0  0  0  0  0
  -23.5430  -32.2020   23.7730 O   0  0  0  0  0  0  0  0  0  0  0  0
  -22.7200  -29.5250   22.6050 C   0  0  0  0  0  0  0  0  0  0  0  0
  -21.3900  -29.3570   22.4740 N   0  0  0  0  0  0  0  0  0  0  0  0
  -23.3780  -28.9170   23.4520 O   0  0  0  0  0  0  0  0  0  0  0  0
  -20.9080  -29.8970   21.7690 H   0  0  0  0  0  0  0  0  0  0  0  0
  -18.0120  -28.1150   22.9730 C   0  0  0  0  0  0  0  0  0  0  0  0
  -20.5670  -28.4220   23.2540 C   0  0  0  0  0  3  0  0  0  0  0  0
  -20.6910  -26.9820   22.7050 C   0  0  0  0  0  2  0  0  0  0  0  0
  -19.6030  -26.6280   21.6860 C   0  0  0  0  0  2  0  0  0  0  0  0
  -18.2140  -26.7600   22.3150 C   0  0  0  0  0  2  0  0  0  0  0  0
  -19.1160  -28.9020   23.4000 C   0  0  0  0  0  0  0  0  0  0  0  0
  -18.8690  -30.1650   23.9790 C   0  0  0  0  0  3  0  0  0  0  0  0
  -17.5540  -30.6430   24.1340 C   0  0  0  0  0  3  0  0  0  0  0  0
  -16.4660  -29.8550   23.7210 C   0  0  0  0  0  3  0  0  0  0  0  0
  -16.6960  -28.5920   23.1460 C   0  0  0  0  0  3  0  0  0  0  0  0
  -25.9030  -32.5460   23.8820 C   0  0  0  0  0  3  0  0  0  0  0  0
  -25.5940  -33.9530   24.2000 N   0  0  0  0  0  0  0  0  0  0  0  0
  -25.8970  -35.0050   23.4260 C   0  0  0  0  0  0  0  0  0  0  0  0
  -26.5260  -34.8920   22.3720 O   0  0  0  0  0  0  0  0  0  0  0  0
  -25.0340  -34.1140   25.0240 H   0  0  0  0  0  0  0  0  0  0  0  0
  -24.1390  -36.7900   23.1570 C   0  0  0  0  0  1  0  0  0  0  0  0
  -25.4310  -36.4010   23.8930 C   0  0  0  0  0  3  0  0  0  0  0  0
  -27.6050  -37.3190   24.5790 C   0  0  0  0  0  1  0  0  0  0  0  0
  -26.4480  -37.4580   23.6990 N   0  0  0  0  0  0  0  0  0  0  0  0
  -26.0430  -38.3780   23.8490 H   0  0  0  0  0  0  0  0  0  0  0  0
  -26.3950  -31.7990   25.1830 C   0  0  1  0  0  0  0  0  0  0  0  0
  -25.2880  -31.5970   26.2450 C   0  0  0  0  0  1  0  0  0  0  0  0
  -26.9680  -30.4060   24.8380 C   0  0  0  0  0  1  0  0  0  0  0  0
  -27.5470  -32.5950   25.8400 C   0  0  0  0  0  1  0  0  0  0  0  0
  1  2  2  0
  3  6  1  0
  4  3  2  0
  4  7  1  0
  6  1  1  0
  6  5  2  0
  7  8  2  0
  8  5  1  0
  8  9  1  0
 10  7  1  0
 11 16  1  0
 12 13  1  0
 12 11  1  0
 14 13  1  0
 14 21  1  0
 14 15  1  0
 16 10  1  0
 16 15  1  0
 17 10  2  0
 18 19  2  0
 19 38  1  0
 20 19  1  0
 20 23  1  0
 21 22  1  0
 21 18  1  0
 22 20  2  0
 23 24  1  0
 24 25  2  0
 26 29  1  0
 26 25  1  0
 27 26  2  0
 28 27  1  0
 28 23  2  0
 29 30  1  0
 30 31  1  0
 31 32  2  0
 33 32  1  0
 33 37  1  0
 34 33  2  0
 35 30  2  0
 35 34  1  0
 36 35  1  0
 38 39  1  0
 39 42  1  0
 39 41  1  0
 40 38  2  0
 43 18  1  0
 43 44  1  0
 45 43  1  0
 46 47  1  0
 46  1  1  0
 48 59  2  0
 49 47  1  0
 49 54  1  0
 50 58  1  0
 50 60  1  0
 51 57  1  0
 51 53  1  0
 52 58  1  0
 53 52  1  0
 54 53  2  0
 55 49  2  0
 56 55  1  0
 56 51  2  0
 57 50  1  0
 58 48  1  0
 60 62  2  0
 61 60  1  0
 63 61  1  0
 64 73  2  0
 64 69  1  0
 65 61  1  0
 65 69  1  0
 66 65  1  0
 67 68  1  0
 67 66  1  0
 68 64  1  0
 69 70  2  0
 70 71  1  0
 72 71  2  0
 73 72  1  0
 74 48  1  0
 74 75  1  0
 74 84  1  0
 75 78  1  0
 76 80  1  0
 76 75  1  0
 77 76  2  0
 80 79  1  0
 82 83  1  0
 82 80  1  0
 82 81  1  0
 84 87  1  1
 84 85  1  0
 86 84  1  0
M  ISO  4   7 100  10 100  46 101  47 101
M  END
>  <TORSDO>  (38) 
F 18

>  <SCORE>  (38) 
-16.837

>  <name>  (38) 
37

>  <ligand_id>  (38) 
37

>  <original_smiles>  (38) 
[H]c1c([H])c([H])c2c(c1[H])C([H])([H])C([H])([H])C([H])([H])C2([H])N([H])C(=O)C1([H])N(C(=O)C([H])(N([H])C(=O)C([H])(N([H])C([H])([H])[H])C([H])([H])[H])C(C([H])([H])[H])(C([H])([H])[H])C([H])([H])[H])C([H])([H])c2c([H])c(OC([H])([H])C(=O)c3c([H])c([H])c(C(=O)N4C([H])([H])C([H])([H])C([H])([H])C([H])(n5nc(-c6c([H])c([H])c(Oc7c([H])c([H])c(F)c([H])c7F)c([H])c6[H])c(C(=O)N([H])[H])c5N([H])[H])C4([H])[H])c(C([H])([H])[H])c3[H])c([H])c([H])c2C1([H])[H]

>  <smiles>  (38) 
[H]c1c([H])c([H])c2c(c1[H])C([H])([H])C([H])([H])C([H])([H])C2([H])N([H])C(=O)C1([H])N(C(=O)C([H])(N([H])C(=O)C([H])(N([H])C([H])([H])[H])C([H])([H])[H])C(C([H])([H])[H])(C([H])([H])[H])C([H])([H])[H])C([H])([H])c2c([H])c(OC([H])([H])C(=O)c3c([H])c([H])c(C(=O)N4C([H])([H])C([H])([H])C([H])([H])C([H])(n5nc(-c6c([H])c([H])c(Oc7c([H])c([H])c(F)c([H])c7F)c([H])c6[H])c(C(=O)N([H])[H])c5N([H])[H])C4([H])[H])c(C([H])([H])[H])c3[H])c([H])c([H])c2C1([H])[H]

$$$$
38:0:0
     RDKit          3D

 89 97  0  0  1  0  0  0  0  0999 V2000
  -29.5380  -21.6400   21.1720 C   0  0  0  0  0  3  0  0  0  0  0  0
  -29.2080  -23.1340   21.1970 C   0  0  0  0  0  3  0  0  0  0  0  0
  -28.1370  -21.3500   19.5070 C   0  0  0  0  0  3  0  0  0  0  0  0
  -29.0700  -20.5020   20.3250 C   0  0  0  0  0  0  0  0  0  0  0  0
  -28.3010  -23.9870   20.3790 C   0  0  0  0  0  0  0  0  0  0  0  0
  -27.8110  -22.8650   19.4990 C   0  0  0  0  0  0  0  0  0  0  0  0
  -29.4270  -17.2700   20.2550 C   0  0  0  0  0  3  0  0  0  0  0  0
  -29.7200  -18.7860   20.2900 C   0  0  0  0  0  0  0  0  0  0  0  0
  -30.2600  -15.7570   20.1620 C   0  0  0  0  0  0  0  0  0  0  0  0
  -30.3600  -13.2040   19.3530 C   0  0  0  0  0  2  0  0  0  0  0  0
  -29.4530  -12.8140   18.1490 C   0  0  0  0  0  2  0  0  0  0  0  0
  -28.0380  -12.4490   18.6210 C   0  0  0  0  0  2  0  0  0  0  0  0
  -27.5390  -13.4390   19.6980 C   0  0  0  0  0  3  0  0  0  0  0  0
  -28.5820  -13.7570   20.7920 C   0  0  0  0  0  2  0  0  0  0  0  0
  -29.7510  -14.3800   20.1300 N   0  0  0  0  0  0  0  0  0  0  0  0
  -31.4880  -15.6670   19.9590 O   0  0  0  0  0  0  0  0  0  0  0  0
  -25.1970  -13.9360   20.5390 C   0  0  0  0  0  0  0  0  0  0  0  0
  -24.1530  -13.1420   20.9170 C   0  0  0  0  0  0  0  0  0  0  0  0
  -24.6320  -11.7960   20.8500 C   0  0  0  0  0  0  0  0  0  0  0  0
  -26.2400  -13.0780   20.2470 N   0  0  0  0  0  0  0  0  0  0  0  0
  -25.9160  -11.7820   20.5030 N   0  0  0  0  0  0  0  0  0  0  0  0
  -23.9170  -10.5260   21.0330 C   0  0  0  0  0  0  0  0  0  0  0  0
  -24.3530   -9.5560   21.9620 C   0  0  0  0  0  3  0  0  0  0  0  0
  -23.6330   -8.3540   22.1370 C   0  0  0  0  0  3  0  0  0  0  0  0
  -22.4620   -8.1130   21.3800 C   0  0  0  0  0  0  0  0  0  0  0  0
  -22.0430   -9.0710   20.4400 C   0  0  0  0  0  3  0  0  0  0  0  0
  -22.7650  -10.2640   20.2650 C   0  0  0  0  0  3  0  0  0  0  0  0
  -21.7130   -6.9630   21.4640 O   0  0  0  0  0  0  0  0  0  0  0  0
  -21.6410   -6.2330   22.6240 C   0  0  0  0  0  0  0  0  0  0  0  0
  -21.1560   -6.7910   23.8270 C   0  0  0  0  0  3  0  0  0  0  0  0
  -21.0330   -5.9860   24.9770 C   0  0  0  0  0  3  0  0  0  0  0  0
  -21.3860   -4.6250   24.9250 C   0  0  0  0  0  0  0  0  0  0  0  0
  -21.8620   -4.0650   23.7260 C   0  0  0  0  0  3  0  0  0  0  0  0
  -21.9860   -4.8670   22.5780 C   0  0  0  0  0  0  0  0  0  0  0  0
  -22.4270   -4.3180   21.4210 F   0  0  0  0  0  0  0  0  0  0  0  0
  -21.2600   -3.8490   26.0270 F   0  0  0  0  0  0  0  0  0  0  0  0
  -22.7580  -13.6040   21.2230 C   0  0  0  0  0  0  0  0  0  0  0  0
  -22.0540  -12.8920   22.0950 N   0  0  0  0  0  0  0  0  0  0  0  0
  -22.3050  -14.6330   20.7240 O   0  0  0  0  0  0  0  0  0  0  0  0
  -22.4350  -12.0600   22.5220 H   0  0  0  0  0  0  0  0  0  0  0  0
  -21.1190  -13.1850   22.3420 H   0  0  0  0  0  0  0  0  0  0  0  0
  -25.3430  -15.3120   20.3850 N   0  0  0  0  0  0  0  0  0  0  0  0
  -24.5730  -15.9550   20.5380 H   0  0  0  0  0  0  0  0  0  0  0  0
  -26.1780  -15.7670   20.0410 H   0  0  0  0  0  0  0  0  0  0  0  0
  -31.0420  -18.9870   20.2410 O   0  0  0  0  0  0  0  0  0  0  0  0
  -31.1850  -19.9250   20.2090 H   0  0  0  0  0  0  0  0  0  0  0  0
  -27.5350  -24.0830   17.5120 C   0  0  0  0  0  1  0  0  0  0  0  0
  -26.9580  -23.2200   18.4850 O   0  0  0  0  0  0  0  0  0  0  0  0
  -28.2050  -25.6160   20.3810 O   0  0  0  0  0  0  0  0  0  0  0  0
  -24.6660  -31.9250   23.2750 C   0  0  0  0  0  0  0  0  0  0  0  0
  -27.1890  -26.7950   20.3560 C   0  0  0  0  0  0  0  0  0  0  0  0
  -23.4850  -30.5200   21.6410 C   0  0  0  0  0  3  0  0  0  0  0  0
  -24.9320  -28.8450   20.2580 C   0  0  0  0  0  0  0  0  0  0  0  0
  -26.0650  -30.6420   21.5410 C   0  0  0  0  0  2  0  0  0  0  0  0
  -26.1220  -29.2010   20.9020 C   0  0  0  0  0  0  0  0  0  0  0  0
  -27.2320  -28.2020   20.9180 C   0  0  0  0  0  3  0  0  0  0  0  0
  -25.9630  -26.6510   19.6560 C   0  0  0  0  0  3  0  0  0  0  0  0
  -24.8910  -27.5970   19.6130 C   0  0  0  0  0  3  0  0  0  0  0  0
  -23.7320  -29.8070   20.2790 C   0  0  0  0  0  2  0  0  0  0  0  0
  -24.7630  -31.0630   22.2050 N   0  0  0  0  0  0  0  0  0  0  0  0
  -23.5700  -32.2360   23.7730 O   0  0  0  0  0  0  0  0  0  0  0  0
  -22.7540  -29.5560   22.6140 C   0  0  0  0  0  0  0  0  0  0  0  0
  -21.4220  -29.4060   22.4770 N   0  0  0  0  0  0  0  0  0  0  0  0
  -23.3980  -28.9400   23.4670 O   0  0  0  0  0  0  0  0  0  0  0  0
  -20.9520  -29.9520   21.7680 H   0  0  0  0  0  0  0  0  0  0  0  0
  -18.0250  -28.2120   22.9670 C   0  0  0  0  0  0  0  0  0  0  0  0
  -20.5840  -28.4800   23.2500 C   0  0  0  0  0  3  0  0  0  0  0  0
  -20.6870  -27.0410   22.6930 C   0  0  0  0  0  2  0  0  0  0  0  0
  -19.5950  -26.7090   21.6720 C   0  0  0  0  0  2  0  0  0  0  0  0
  -18.2070  -26.8590   22.3010 C   0  0  0  0  0  2  0  0  0  0  0  0
  -19.1400  -28.9810   23.3990 C   0  0  0  0  0  0  0  0  0  0  0  0
  -18.9130  -30.2430   23.9880 C   0  0  0  0  0  3  0  0  0  0  0  0
  -17.6050  -30.7390   24.1450 C   0  0  0  0  0  3  0  0  0  0  0  0
  -16.5060  -29.9710   23.7270 C   0  0  0  0  0  3  0  0  0  0  0  0
  -16.7170  -28.7080   23.1450 C   0  0  0  0  0  3  0  0  0  0  0  0
  -25.9270  -32.5750   23.9220 C   0  0  0  0  0  3  0  0  0  0  0  0
  -26.4070  -31.8250   25.2270 C   0  0  1  0  0  0  0  0  0  0  0  0
  -25.2870  -31.6140   26.2740 C   0  0  0  0  0  1  0  0  0  0  0  0
  -26.9920  -30.4370   24.8870 C   0  0  0  0  0  1  0  0  0  0  0  0
  -27.5470  -32.6260   25.9020 C   0  0  0  0  0  1  0  0  0  0  0  0
  -25.6080  -33.9810   24.2430 N   0  0  0  0  0  0  0  0  0  0  0  0
  -25.9220  -35.0380   23.4830 C   0  0  0  0  0  0  0  0  0  0  0  0
  -26.5670  -34.9340   22.4370 O   0  0  0  0  0  0  0  0  0  0  0  0
  -25.0280  -34.1330   25.0550 H   0  0  0  0  0  0  0  0  0  0  0  0
  -24.1680  -36.8270   23.2020 C   0  0  0  0  0  1  0  0  0  0  0  0
  -25.4500  -36.4310   23.9530 C   0  0  0  0  0  3  0  0  0  0  0  0
  -27.6130  -37.3480   24.6730 C   0  0  0  0  0  1  0  0  0  0  0  0
  -26.4680  -37.4920   23.7780 N   0  0  0  0  0  0  0  0  0  0  0  0
  -26.0610  -38.4100   23.9280 H   0  0  0  0  0  0  0  0  0  0  0  0
  1  2  1  0
  3  4  1  0
  4  1  2  0
  5 49  1  0
  5  2  2  0
  6  3  2  0
  6  5  1  0
  7  8  2  0
  8  4  1  0
  9  7  1  0
 10 15  1  0
 11 12  1  0
 11 10  1  0
 13 12  1  0
 13 20  1  0
 13 14  1  0
 15  9  1  0
 15 14  1  0
 16  9  2  0
 17 18  2  0
 18 37  1  0
 19 18  1  0
 19 22  1  0
 20 21  1  0
 20 17  1  0
 21 19  2  0
 22 23  1  0
 23 24  2  0
 25 28  1  0
 25 24  1  0
 26 25  2  0
 27 26  1  0
 27 22  2  0
 28 29  1  0
 29 30  1  0
 30 31  2  0
 32 31  1  0
 32 36  1  0
 33 32  2  0
 34 29  2  0
 34 33  1  0
 35 34  1  0
 37 38  1  0
 38 41  1  0
 38 40  1  0
 39 37  2  0
 42 43  1  0
 42 17  1  0
 44 42  1  0
 45  8  1  0
 46 45  1  0
 47 48  1  0
 48  6  1  0
 50 61  2  0
 51 49  1  0
 51 56  1  0
 52 60  1  0
 52 62  1  0
 53 59  1  0
 53 55  1  0
 54 60  1  0
 55 56  2  0
 55 54  1  0
 57 51  2  0
 58 57  1  0
 58 53  2  0
 59 52  1  0
 60 50  1  0
 62 64  2  0
 63 62  1  0
 65 63  1  0
 66 75  2  0
 66 71  1  0
 67 63  1  0
 67 71  1  0
 68 67  1  0
 69 70  1  0
 69 68  1  0
 70 66  1  0
 71 72  2  0
 72 73  1  0
 74 73  2  0
 75 74  1  0
 76 50  1  0
 76 81  1  0
 76 77  1  0
 77 80  1  1
 77 78  1  0
 79 77  1  0
 81 84  1  0
 82 86  1  0
 82 81  1  0
 83 82  2  0
 86 85  1  0
 88 89  1  0
 88 86  1  0
 88 87  1  0
M  ISO  4   5 101   7 100   9 100  49 101
M  END
>  <TORSDO>  (39) 
F 19

>  <SCORE>  (39) 
-15.193

>  <name>  (39) 
38

>  <ligand_id>  (39) 
38

>  <original_smiles>  (39) 
[H]OC(=C([H])C(=O)N1C([H])([H])C([H])([H])C([H])([H])C([H])(n2nc(-c3c([H])c([H])c(Oc4c([H])c([H])c(F)c([H])c4F)c([H])c3[H])c(C(=O)N([H])[H])c2N([H])[H])C1([H])[H])c1c([H])c([H])c(Oc2c([H])c([H])c3c(c2[H])C([H])([H])N(C(=O)C([H])(N([H])C(=O)C([H])(N([H])C([H])([H])[H])C([H])([H])[H])C(C([H])([H])[H])(C([H])([H])[H])C([H])([H])[H])C([H])(C(=O)N([H])C2([H])c4c([H])c([H])c([H])c([H])c4C([H])([H])C([H])([H])C2([H])[H])C3([H])[H])c(OC([H])([H])[H])c1[H]

>  <smiles>  (39) 
[H]OC(=C([H])C(=O)N1C([H])([H])C([H])([H])C([H])([H])C([H])(n2nc(-c3c([H])c([H])c(Oc4c([H])c([H])c(F)c([H])c4F)c([H])c3[H])c(C(=O)N([H])[H])c2N([H])[H])C1([H])[H])c1c([H])c([H])c(Oc2c([H])c([H])c3c(c2[H])C([H])([H])N(C(=O)C([H])(N([H])C(=O)C([H])(N([H])C([H])([H])[H])C([H])([H])[H])C(C([H])([H])[H])(C([H])([H])[H])C([H])([H])[H])C([H])(C(=O)N([H])C2([H])c4c([H])c([H])c([H])c([H])c4C([H])([H])C([H])([H])C2([H])[H])C3([H])[H])c(OC([H])([H])[H])c1[H]

$$$$
39:0:0
     RDKit          3D

 89 97  0  0  1  0  0  0  0  0999 V2000
  -30.3420  -19.3130   19.5090 C   0  0  0  0  0  3  0  0  0  0  0  0
  -28.3040  -18.6790   20.3910 C   0  0  0  0  0  3  0  0  0  0  0  0
  -29.9750  -16.7320   19.9160 C   0  0  0  0  0  0  0  0  0  0  0  0
  -29.0770  -19.8320   19.9590 C   0  0  0  0  0  0  0  0  0  0  0  0
  -30.7620  -17.8980   19.4880 C   0  0  0  0  0  0  0  0  0  0  0  0
  -28.7030  -17.2550   20.3820 C   0  0  0  0  0  0  0  0  0  0  0  0
  -27.7830  -16.3750   20.8360 F   0  0  0  0  0  0  0  0  0  0  0  0
  -30.5420  -15.1640   19.9160 C   0  0  0  0  0  0  0  0  0  0  0  0
  -30.3460  -12.7520   19.0770 C   0  0  0  0  0  2  0  0  0  0  0  0
  -29.3690  -12.6060   17.8880 C   0  0  0  0  0  2  0  0  0  0  0  0
  -27.9380  -12.3710   18.3980 C   0  0  0  0  0  2  0  0  0  0  0  0
  -27.5620  -13.3410   19.5490 C   0  0  0  0  0  3  0  0  0  0  0  0
  -28.6700  -13.4600   20.6140 C   0  0  0  0  0  2  0  0  0  0  0  0
  -29.8880  -13.9090   19.9230 N   0  0  0  0  0  0  0  0  0  0  0  0
  -31.7500  -15.0370   19.6790 O   0  0  0  0  0  0  0  0  0  0  0  0
  -25.2420  -13.9030   20.4510 C   0  0  0  0  0  0  0  0  0  0  0  0
  -24.1930  -13.1260   20.8530 C   0  0  0  0  0  0  0  0  0  0  0  0
  -24.6480  -11.7730   20.7740 C   0  0  0  0  0  0  0  0  0  0  0  0
  -26.2630  -13.0260   20.1320 N   0  0  0  0  0  0  0  0  0  0  0  0
  -25.9220  -11.7370   20.3950 N   0  0  0  0  0  0  0  0  0  0  0  0
  -23.9220  -10.5120   20.9800 C   0  0  0  0  0  0  0  0  0  0  0  0
  -24.3800   -9.5330   21.8900 C   0  0  0  0  0  3  0  0  0  0  0  0
  -23.6510   -8.3420   22.0870 C   0  0  0  0  0  3  0  0  0  0  0  0
  -22.4490   -8.1170   21.3740 C   0  0  0  0  0  0  0  0  0  0  0  0
  -22.0100   -9.0840   20.4510 C   0  0  0  0  0  3  0  0  0  0  0  0
  -22.7400  -10.2670   20.2530 C   0  0  0  0  0  3  0  0  0  0  0  0
  -21.6900   -6.9780   21.4790 O   0  0  0  0  0  0  0  0  0  0  0  0
  -21.6570   -6.2400   22.6350 C   0  0  0  0  0  0  0  0  0  0  0  0
  -21.2250   -6.7930   23.8600 C   0  0  0  0  0  3  0  0  0  0  0  0
  -21.1400   -5.9800   25.0080 C   0  0  0  0  0  3  0  0  0  0  0  0
  -21.4770   -4.6160   24.9330 C   0  0  0  0  0  0  0  0  0  0  0  0
  -21.9030   -4.0620   23.7120 C   0  0  0  0  0  3  0  0  0  0  0  0
  -21.9890   -4.8710   22.5660 C   0  0  0  0  0  0  0  0  0  0  0  0
  -22.3790   -4.3280   21.3880 F   0  0  0  0  0  0  0  0  0  0  0  0
  -21.3890   -3.8330   26.0330 F   0  0  0  0  0  0  0  0  0  0  0  0
  -22.8180  -13.6080   21.2070 C   0  0  0  0  0  0  0  0  0  0  0  0
  -22.1360  -12.9080   22.1060 N   0  0  0  0  0  0  0  0  0  0  0  0
  -22.3570  -14.6400   20.7190 O   0  0  0  0  0  0  0  0  0  0  0  0
  -22.5240  -12.0710   22.5170 H   0  0  0  0  0  0  0  0  0  0  0  0
  -21.2160  -13.2130   22.3900 H   0  0  0  0  0  0  0  0  0  0  0  0
  -25.4110  -15.2760   20.3070 N   0  0  0  0  0  0  0  0  0  0  0  0
  -24.6890  -15.9360   20.5680 H   0  0  0  0  0  0  0  0  0  0  0  0
  -26.3220  -15.7080   20.1990 H   0  0  0  0  0  0  0  0  0  0  0  0
  -32.0170  -17.7080   18.9770 O   0  0  0  0  0  0  0  0  0  0  0  0
  -32.4640  -18.5170   18.7520 H   0  0  0  0  0  0  0  0  0  0  0  0
  -28.4500  -21.4060   19.7310 C   0  0  0  0  0  2  0  0  0  0  0  0
  -28.8340  -23.0140   20.2690 C   0  0  0  0  0  3  0  0  0  0  0  0
  -27.9510  -24.4850   19.9300 C   0  0  0  0  0  3  0  0  0  0  0  0
  -28.2050  -26.0310   20.2650 O   0  0  0  0  0  0  0  0  0  0  0  0
  -24.6070  -31.8350   23.2540 C   0  0  0  0  0  0  0  0  0  0  0  0
  -27.1850  -27.0810   20.1880 C   0  0  0  0  0  0  0  0  0  0  0  0
  -23.4230  -30.4680   21.5840 C   0  0  0  0  0  3  0  0  0  0  0  0
  -24.8800  -28.8990   20.1470 C   0  0  0  0  0  0  0  0  0  0  0  0
  -25.9850  -30.7020   21.4580 C   0  0  0  0  0  2  0  0  0  0  0  0
  -26.0580  -29.3120   20.7830 C   0  0  0  0  0  0  0  0  0  0  0  0
  -27.2080  -28.4200   20.7840 C   0  0  0  0  0  3  0  0  0  0  0  0
  -25.9820  -26.7960   19.5050 C   0  0  0  0  0  3  0  0  0  0  0  0
  -24.8610  -27.6590   19.4910 C   0  0  0  0  0  3  0  0  0  0  0  0
  -23.6590  -29.8080   20.1990 C   0  0  0  0  0  2  0  0  0  0  0  0
  -24.6920  -31.0250   22.1540 N   0  0  0  0  0  0  0  0  0  0  0  0
  -23.5150  -32.1190   23.7720 O   0  0  0  0  0  0  0  0  0  0  0  0
  -22.7240  -29.4540   22.5270 C   0  0  0  0  0  0  0  0  0  0  0  0
  -21.3950  -29.2940   22.3880 N   0  0  0  0  0  0  0  0  0  0  0  0
  -23.3830  -28.8130   23.3500 O   0  0  0  0  0  0  0  0  0  0  0  0
  -20.9190  -29.8640   21.7020 H   0  0  0  0  0  0  0  0  0  0  0  0
  -18.0020  -28.1120   22.8610 C   0  0  0  0  0  0  0  0  0  0  0  0
  -20.5620  -28.3490   23.1380 C   0  0  0  0  0  3  0  0  0  0  0  0
  -20.6540  -26.9290   22.5340 C   0  0  0  0  0  2  0  0  0  0  0  0
  -19.5520  -26.6360   21.5110 C   0  0  0  0  0  2  0  0  0  0  0  0
  -18.1690  -26.7790   22.1540 C   0  0  0  0  0  2  0  0  0  0  0  0
  -19.1250  -28.8580   23.3090 C   0  0  0  0  0  0  0  0  0  0  0  0
  -18.9130  -30.1070   23.9320 C   0  0  0  0  0  3  0  0  0  0  0  0
  -17.6100  -30.6120   24.1090 C   0  0  0  0  0  3  0  0  0  0  0  0
  -16.5020  -29.8640   23.6760 C   0  0  0  0  0  3  0  0  0  0  0  0
  -16.6990  -28.6160   23.0590 C   0  0  0  0  0  3  0  0  0  0  0  0
  -25.8780  -32.4610   23.9070 C   0  0  0  0  0  3  0  0  0  0  0  0
  -26.3520  -31.6930   25.2020 C   0  0  1  0  0  0  0  0  0  0  0  0
  -25.2280  -31.4760   26.2430 C   0  0  0  0  0  1  0  0  0  0  0  0
  -26.9290  -30.3060   24.8420 C   0  0  0  0  0  1  0  0  0  0  0  0
  -27.4950  -32.4780   25.8890 C   0  0  0  0  0  1  0  0  0  0  0  0
  -25.5750  -33.8660   24.2300 N   0  0  0  0  0  0  0  0  0  0  0  0
  -25.9050  -34.9150   23.4660 C   0  0  0  0  0  0  0  0  0  0  0  0
  -26.5610  -34.8040   22.4280 O   0  0  0  0  0  0  0  0  0  0  0  0
  -24.9930  -34.0260   25.0380 H   0  0  0  0  0  0  0  0  0  0  0  0
  -24.1710  -36.7140   23.1500 C   0  0  0  0  0  1  0  0  0  0  0  0
  -25.4350  -36.3100   23.9270 C   0  0  0  0  0  3  0  0  0  0  0  0
  -27.5880  -37.2070   24.6960 C   0  0  0  0  0  1  0  0  0  0  0  0
  -26.4660  -37.3600   23.7740 N   0  0  0  0  0  0  0  0  0  0  0  0
  -26.0640  -38.2830   23.9150 H   0  0  0  0  0  0  0  0  0  0  0  0
  1  4  1  0
  3  6  2  0
  4  2  2  0
  5  1  2  0
  5  3  1  0
  6  2  1  0
  6  7  1  0
  8  3  1  0
  8 14  1  0
  9 14  1  0
 10 11  1  0
 10  9  1  0
 12 11  1  0
 12 19  1  0
 12 13  1  0
 14 13  1  0
 15  8  2  0
 16 17  2  0
 17 36  1  0
 18 17  1  0
 18 21  1  0
 19 20  1  0
 19 16  1  0
 20 18  2  0
 21 22  1  0
 22 23  2  0
 24 27  1  0
 24 23  1  0
 25 24  2  0
 26 25  1  0
 26 21  2  0
 27 28  1  0
 28 29  1  0
 29 30  2  0
 31 30  1  0
 31 35  1  0
 32 31  2  0
 33 28  2  0
 33 32  1  0
 34 33  1  0
 36 37  1  0
 37 40  1  0
 37 39  1  0
 38 36  2  0
 41 16  1  0
 41 42  1  0
 43 41  1  0
 44  5  1  0
 45 44  1  0
 46  4  1  0
 46 47  1  0
 48 49  1  0
 48 47  2  0
 50 61  2  0
 51 49  1  0
 51 56  1  0
 52 60  1  0
 52 62  1  0
 53 59  1  0
 53 55  1  0
 54 60  1  0
 55 56  2  0
 55 54  1  0
 57 51  2  0
 58 57  1  0
 58 53  2  0
 59 52  1  0
 60 50  1  0
 62 64  2  0
 63 62  1  0
 65 63  1  0
 66 75  2  0
 66 71  1  0
 67 63  1  0
 67 71  1  0
 68 67  1  0
 69 70  1  0
 69 68  1  0
 70 66  1  0
 71 72  2  0
 72 73  1  0
 74 73  2  0
 75 74  1  0
 76 50  1  0
 76 81  1  0
 76 77  1  0
 77 80  1  1
 77 78  1  0
 79 77  1  0
 81 84  1  0
 82 86  1  0
 82 81  1  0
 83 82  2  0
 86 85  1  0
 88 89  1  0
 88 86  1  0
 88 87  1  0
M  ISO  4   3 100   8 100  48 101  49 101
M  END
>  <TORSDO>  (40) 
F 20

>  <SCORE>  (40) 
-15.520

>  <name>  (40) 
39

>  <ligand_id>  (40) 
39

>  <original_smiles>  (40) 
[H]Oc1c([H])c(C([H])([H])C([H])([H])C([H])([H])Oc2c([H])c([H])c3c(c2[H])C([H])([H])N(C(=O)C([H])(N([H])C(=O)C([H])(N([H])C([H])([H])[H])C([H])([H])[H])C(C([H])([H])[H])(C([H])([H])[H])C([H])([H])[H])C([H])(C(=O)N([H])C2([H])c4c([H])c([H])c([H])c([H])c4C([H])([H])C([H])([H])C2([H])[H])C3([H])[H])c([H])c(F)c1C(=O)N1C([H])([H])C([H])([H])C([H])([H])C([H])(n2nc(-c3c([H])c([H])c(Oc4c([H])c([H])c(F)c([H])c4F)c([H])c3[H])c(C(=O)N([H])[H])c2N([H])[H])C1([H])[H]

>  <smiles>  (40) 
[H]Oc1c([H])c(C([H])([H])C([H])([H])C([H])([H])Oc2c([H])c([H])c3c(c2[H])C([H])([H])N(C(=O)C([H])(N([H])C(=O)C([H])(N([H])C([H])([H])[H])C([H])([H])[H])C(C([H])([H])[H])(C([H])([H])[H])C([H])([H])[H])C([H])(C(=O)N([H])C2([H])c4c([H])c([H])c([H])c([H])c4C([H])([H])C([H])([H])C2([H])[H])C3([H])[H])c([H])c(F)c1C(=O)N1C([H])([H])C([H])([H])C([H])([H])C([H])(n2nc(-c3c([H])c([H])c(Oc4c([H])c([H])c(F)c([H])c4F)c([H])c3[H])c(C(=O)N([H])[H])c2N([H])[H])C1([H])[H]

$$$$
40:0:0
     RDKit          3D

 89 97  0  0  1  0  0  0  0  0999 V2000
  -27.2800  -21.3170   20.3600 C   0  0  0  0  0  3  0  0  0  0  0  0
  -26.3610  -22.3820   20.5100 C   0  0  0  0  0  3  0  0  0  0  0  0
  -28.9540  -23.0520   20.1900 C   0  0  0  0  0  3  0  0  0  0  0  0
  -28.6680  -21.5140   20.2550 C   0  0  0  0  0  0  0  0  0  0  0  0
  -26.6850  -23.7660   20.5350 C   0  0  0  0  0  0  0  0  0  0  0  0
  -27.9920  -24.2870   20.2710 C   0  0  0  0  0  0  0  0  0  0  0  0
  -25.5440  -24.8410   22.2630 C   0  0  0  0  0  1  0  0  0  0  0  0
  -25.6330  -24.5710   20.8720 O   0  0  0  0  0  0  0  0  0  0  0  0
  -28.1970  -25.8410   20.1950 O   0  0  0  0  0  0  0  0  0  0  0  0
  -24.6350  -31.8710   23.1830 C   0  0  0  0  0  0  0  0  0  0  0  0
  -27.2260  -27.0010   20.1250 C   0  0  0  0  0  0  0  0  0  0  0  0
  -23.4670  -30.4930   21.5100 C   0  0  0  0  0  3  0  0  0  0  0  0
  -24.9430  -28.9250   20.0670 C   0  0  0  0  0  0  0  0  0  0  0  0
  -26.0360  -30.6970   21.4140 C   0  0  0  0  0  2  0  0  0  0  0  0
  -26.1140  -29.2940   20.7390 C   0  0  0  0  0  0  0  0  0  0  0  0
  -27.2430  -28.3470   20.7610 C   0  0  0  0  0  3  0  0  0  0  0  0
  -26.0690  -26.8560   19.3260 C   0  0  0  0  0  3  0  0  0  0  0  0
  -24.9480  -27.7270   19.3380 C   0  0  0  0  0  3  0  0  0  0  0  0
  -23.7180  -29.8390   20.1240 C   0  0  0  0  0  2  0  0  0  0  0  0
  -24.7320  -31.0490   22.0880 N   0  0  0  0  0  0  0  0  0  0  0  0
  -23.5370  -32.1500   23.6950 O   0  0  0  0  0  0  0  0  0  0  0  0
  -22.7660  -29.4790   22.4530 C   0  0  0  0  0  0  0  0  0  0  0  0
  -21.4360  -29.3150   22.3180 N   0  0  0  0  0  0  0  0  0  0  0  0
  -23.4260  -28.8410   23.2760 O   0  0  0  0  0  0  0  0  0  0  0  0
  -20.9550  -29.8810   21.6330 H   0  0  0  0  0  0  0  0  0  0  0  0
  -18.0500  -28.1070   22.8130 C   0  0  0  0  0  0  0  0  0  0  0  0
  -20.6130  -28.3620   23.0700 C   0  0  0  0  0  3  0  0  0  0  0  0
  -20.7060  -26.9430   22.4600 C   0  0  0  0  0  2  0  0  0  0  0  0
  -19.6000  -26.6490   21.4430 C   0  0  0  0  0  2  0  0  0  0  0  0
  -18.2210  -26.7770   22.0970 C   0  0  0  0  0  2  0  0  0  0  0  0
  -19.1720  -28.8580   23.2550 C   0  0  0  0  0  0  0  0  0  0  0  0
  -18.9550  -30.1010   23.8890 C   0  0  0  0  0  3  0  0  0  0  0  0
  -17.6500  -30.5940   24.0810 C   0  0  0  0  0  3  0  0  0  0  0  0
  -16.5440  -29.8410   23.6510 C   0  0  0  0  0  3  0  0  0  0  0  0
  -16.7440  -28.5980   23.0240 C   0  0  0  0  0  3  0  0  0  0  0  0
  -25.8950  -32.5130   23.8370 C   0  0  0  0  0  3  0  0  0  0  0  0
  -26.3770  -31.7490   25.1330 C   0  0  1  0  0  0  0  0  0  0  0  0
  -25.2570  -31.5220   26.1750 C   0  0  0  0  0  1  0  0  0  0  0  0
  -26.9680  -30.3660   24.7790 C   0  0  0  0  0  1  0  0  0  0  0  0
  -27.5110  -32.5480   25.8180 C   0  0  0  0  0  1  0  0  0  0  0  0
  -25.5710  -33.9120   24.1670 N   0  0  0  0  0  0  0  0  0  0  0  0
  -25.9080  -34.9770   23.4260 C   0  0  0  0  0  0  0  0  0  0  0  0
  -26.5850  -34.8840   22.3990 O   0  0  0  0  0  0  0  0  0  0  0  0
  -24.9690  -34.0580   24.9640 H   0  0  0  0  0  0  0  0  0  0  0  0
  -24.1820  -36.7800   23.0860 C   0  0  0  0  0  1  0  0  0  0  0  0
  -25.4210  -36.3640   23.8960 C   0  0  0  0  0  3  0  0  0  0  0  0
  -27.5490  -37.2500   24.7450 C   0  0  0  0  0  1  0  0  0  0  0  0
  -26.4530  -37.4180   23.7930 N   0  0  0  0  0  0  0  0  0  0  0  0
  -26.0460  -38.3380   23.9390 H   0  0  0  0  0  0  0  0  0  0  0  0
  -29.5910  -20.0150   20.4660 C   0  0  0  0  0  2  0  0  0  0  0  0
  -29.5750  -18.3390   19.7380 C   0  0  0  0  0  2  0  0  0  0  0  0
  -30.4860  -15.4660   20.0260 C   0  0  0  0  0  0  0  0  0  0  0  0
  -30.4620  -12.9950   19.1890 C   0  0  0  0  0  2  0  0  0  0  0  0
  -29.5240  -12.7830   17.9710 C   0  0  0  0  0  2  0  0  0  0  0  0
  -28.0840  -12.5080   18.4350 C   0  0  0  0  0  2  0  0  0  0  0  0
  -27.6540  -13.4650   19.5740 C   0  0  0  0  0  3  0  0  0  0  0  0
  -28.7230  -13.6240   20.6800 C   0  0  0  0  0  2  0  0  0  0  0  0
  -29.9430  -14.1400   20.0360 N   0  0  0  0  0  0  0  0  0  0  0  0
  -31.6670  -15.4790   19.6490 O   0  0  0  0  0  0  0  0  0  0  0  0
  -29.7280  -16.7320   20.2680 N   0  0  0  0  0  0  0  0  0  0  0  0
  -28.8710  -16.4720   20.7360 H   0  0  0  0  0  0  0  0  0  0  0  0
  -25.2980  -14.0130   20.3760 C   0  0  0  0  0  0  0  0  0  0  0  0
  -24.2470  -13.2340   20.7690 C   0  0  0  0  0  0  0  0  0  0  0  0
  -24.7160  -11.8850   20.7280 C   0  0  0  0  0  0  0  0  0  0  0  0
  -26.3370  -13.1420   20.1080 N   0  0  0  0  0  0  0  0  0  0  0  0
  -26.0020  -11.8540   20.3860 N   0  0  0  0  0  0  0  0  0  0  0  0
  -23.9950  -10.6220   20.9340 C   0  0  0  0  0  0  0  0  0  0  0  0
  -24.4400   -9.6580   21.8650 C   0  0  0  0  0  3  0  0  0  0  0  0
  -23.7140   -8.4620   22.0620 C   0  0  0  0  0  3  0  0  0  0  0  0
  -22.5290   -8.2210   21.3260 C   0  0  0  0  0  0  0  0  0  0  0  0
  -22.1030   -9.1740   20.3840 C   0  0  0  0  0  3  0  0  0  0  0  0
  -22.8290  -10.3600   20.1860 C   0  0  0  0  0  3  0  0  0  0  0  0
  -21.7760   -7.0780   21.4320 O   0  0  0  0  0  0  0  0  0  0  0  0
  -21.7370   -6.3450   22.5900 C   0  0  0  0  0  0  0  0  0  0  0  0
  -21.3080   -6.9060   23.8120 C   0  0  0  0  0  3  0  0  0  0  0  0
  -21.2160   -6.1000   24.9640 C   0  0  0  0  0  3  0  0  0  0  0  0
  -21.5440   -4.7330   24.8950 C   0  0  0  0  0  0  0  0  0  0  0  0
  -21.9670   -4.1700   23.6770 C   0  0  0  0  0  3  0  0  0  0  0  0
  -22.0590   -4.9740   22.5280 C   0  0  0  0  0  0  0  0  0  0  0  0
  -22.4460   -4.4220   21.3530 F   0  0  0  0  0  0  0  0  0  0  0  0
  -21.4490   -3.9550   25.9990 F   0  0  0  0  0  0  0  0  0  0  0  0
  -22.8550  -13.7100   21.0670 C   0  0  0  0  0  0  0  0  0  0  0  0
  -22.1490  -13.0210   21.9570 N   0  0  0  0  0  0  0  0  0  0  0  0
  -22.4050  -14.7300   20.5480 O   0  0  0  0  0  0  0  0  0  0  0  0
  -22.5290  -12.1970   22.3990 H   0  0  0  0  0  0  0  0  0  0  0  0
  -21.2170  -13.3240   22.1990 H   0  0  0  0  0  0  0  0  0  0  0  0
  -25.4500  -15.3850   20.1940 N   0  0  0  0  0  0  0  0  0  0  0  0
  -24.6760  -16.0290   20.3150 H   0  0  0  0  0  0  0  0  0  0  0  0
  -26.2750  -15.8270   19.8080 H   0  0  0  0  0  0  0  0  0  0  0  0
  1  2  1  0
  2  5  2  0
  3  4  1  0
  3  6  2  0
  4  1  2  0
  4 50  1  0
  5  8  1  0
  6  5  1  0
  8  7  1  0
  9  6  1  0
 10 21  2  0
 11  9  1  0
 11 16  1  0
 12 20  1  0
 12 22  1  0
 13 19  1  0
 13 15  1  0
 14 20  1  0
 15 16  2  0
 15 14  1  0
 17 18  1  0
 17 11  2  0
 18 13  2  0
 19 12  1  0
 20 10  1  0
 22 24  2  0
 23 22  1  0
 25 23  1  0
 26 35  2  0
 26 31  1  0
 27 23  1  0
 27 31  1  0
 28 27  1  0
 29 30  1  0
 29 28  1  0
 30 26  1  0
 31 32  2  0
 32 33  1  0
 34 33  2  0
 35 34  1  0
 36 10  1  0
 36 41  1  0
 36 37  1  0
 37 40  1  1
 37 38  1  0
 39 37  1  0
 41 44  1  0
 42 46  1  0
 42 41  1  0
 43 42  2  0
 46 45  1  0
 48 46  1  0
 48 49  1  0
 48 47  1  0
 51 60  1  0
 51 50  1  0
 52 58  1  0
 52 60  1  0
 53 58  1  0
 54 55  1  0
 54 53  1  0
 56 55  1  0
 56 65  1  0
 56 57  1  0
 58 57  1  0
 59 52  2  0
 60 61  1  0
 62 63  2  0
 63 82  1  0
 64 63  1  0
 64 67  1  0
 65 62  1  0
 65 66  1  0
 66 64  2  0
 67 68  1  0
 68 69  2  0
 70 73  1  0
 70 69  1  0
 71 70  2  0
 72 71  1  0
 72 67  2  0
 73 74  1  0
 74 75  1  0
 75 76  2  0
 77 76  1  0
 77 81  1  0
 78 77  2  0
 79 74  2  0
 79 78  1  0
 80 79  1  0
 82 83  1  0
 83 86  1  0
 83 85  1  0
 84 82  2  0
 87 88  1  0
 87 62  1  0
 89 87  1  0
M  ISO  4   6 101   9 101  52 100  60 100
M  END
>  <TORSDO>  (41) 
F 19

>  <SCORE>  (41) 
-14.728

>  <name>  (41) 
40

>  <ligand_id>  (41) 
40

>  <original_smiles>  (41) 
[H]c1c([H])c([H])c2c(c1[H])C([H])([H])C([H])([H])C([H])([H])C2([H])N([H])C(=O)C1([H])N(C(=O)C([H])(N([H])C(=O)C([H])(N([H])C([H])([H])[H])C([H])([H])[H])C(C([H])([H])[H])(C([H])([H])[H])C([H])([H])[H])C([H])([H])c2c([H])c(Oc3c([H])c(C([H])([H])C([H])([H])N([H])C(=O)N4C([H])([H])C([H])([H])C([H])([H])C([H])(n5nc(-c6c([H])c([H])c(Oc7c([H])c([H])c(F)c([H])c7F)c([H])c6[H])c(C(=O)N([H])[H])c5N([H])[H])C4([H])[H])c([H])c([H])c3OC([H])([H])[H])c([H])c([H])c2C1([H])[H]

>  <smiles>  (41) 
[H]c1c([H])c([H])c2c(c1[H])C([H])([H])C([H])([H])C([H])([H])C2([H])N([H])C(=O)C1([H])N(C(=O)C([H])(N([H])C(=O)C([H])(N([H])C([H])([H])[H])C([H])([H])[H])C(C([H])([H])[H])(C([H])([H])[H])C([H])([H])[H])C([H])([H])c2c([H])c(Oc3c([H])c(C([H])([H])C([H])([H])N([H])C(=O)N4C([H])([H])C([H])([H])C([H])([H])C([H])(n5nc(-c6c([H])c([H])c(Oc7c([H])c([H])c(F)c([H])c7F)c([H])c6[H])c(C(=O)N([H])[H])c5N([H])[H])C4([H])[H])c([H])c([H])c3OC([H])([H])[H])c([H])c([H])c2C1([H])[H]

$$$$
41:0:0
     RDKit          3D

 87 95  0  0  1  0  0  0  0  0999 V2000
  -29.7060  -21.3670   18.7890 C   0  0  0  0  0  3  0  0  0  0  0  0
  -29.7710  -22.6780   18.2290 C   0  0  0  0  0  3  0  0  0  0  0  0
  -28.3640  -22.4120   20.4800 C   0  0  0  0  0  3  0  0  0  0  0  0
  -28.9870  -21.0070   19.9520 C   0  0  0  0  0  0  0  0  0  0  0  0
  -29.1690  -23.8700   18.7370 C   0  0  0  0  0  0  0  0  0  0  0  0
  -28.4000  -23.9420   19.9270 C   0  0  0  0  0  0  0  0  0  0  0  0
  -29.3970  -25.0290   18.0490 O   0  0  0  0  0  0  0  0  0  0  0  0
  -29.9280  -24.9040   17.2690 H   0  0  0  0  0  0  0  0  0  0  0  0
  -28.1320  -25.4830   20.3780 O   0  0  0  0  0  0  0  0  0  0  0  0
  -24.6060  -31.8000   23.1350 C   0  0  0  0  0  0  0  0  0  0  0  0
  -27.1740  -26.7000   20.1810 C   0  0  0  0  0  0  0  0  0  0  0  0
  -23.4320  -30.3820   21.5040 C   0  0  0  0  0  3  0  0  0  0  0  0
  -24.8940  -28.7300   20.0990 C   0  0  0  0  0  0  0  0  0  0  0  0
  -26.0090  -30.5310   21.3950 C   0  0  0  0  0  2  0  0  0  0  0  0
  -26.0800  -29.0940   20.7440 C   0  0  0  0  0  0  0  0  0  0  0  0
  -27.1960  -28.1010   20.7620 C   0  0  0  0  0  3  0  0  0  0  0  0
  -25.9610  -26.5540   19.4610 C   0  0  0  0  0  3  0  0  0  0  0  0
  -24.8750  -27.4880   19.4330 C   0  0  0  0  0  3  0  0  0  0  0  0
  -23.6790  -29.6740   20.1380 C   0  0  0  0  0  2  0  0  0  0  0  0
  -24.7060  -30.9400   22.0630 N   0  0  0  0  0  0  0  0  0  0  0  0
  -23.5090  -32.1000   23.6390 O   0  0  0  0  0  0  0  0  0  0  0  0
  -22.7170  -29.4110   22.4820 C   0  0  0  0  0  0  0  0  0  0  0  0
  -21.3810  -29.2690   22.3720 N   0  0  0  0  0  0  0  0  0  0  0  0
  -23.3750  -28.7840   23.3160 O   0  0  0  0  0  0  0  0  0  0  0  0
  -20.8990  -29.8250   21.6790 H   0  0  0  0  0  0  0  0  0  0  0  0
  -17.9890  -28.0860   22.9240 C   0  0  0  0  0  0  0  0  0  0  0  0
  -20.5550  -28.3380   23.1520 C   0  0  0  0  0  3  0  0  0  0  0  0
  -20.6380  -26.9060   22.5750 C   0  0  0  0  0  2  0  0  0  0  0  0
  -19.5220  -26.5940   21.5730 C   0  0  0  0  0  2  0  0  0  0  0  0
  -18.1490  -26.7420   22.2350 C   0  0  0  0  0  2  0  0  0  0  0  0
  -19.1180  -28.8440   23.3400 C   0  0  0  0  0  0  0  0  0  0  0  0
  -18.9090  -30.0990   23.9500 C   0  0  0  0  0  3  0  0  0  0  0  0
  -17.6080  -30.6000   24.1440 C   0  0  0  0  0  3  0  0  0  0  0  0
  -16.4950  -29.8410   23.7400 C   0  0  0  0  0  3  0  0  0  0  0  0
  -16.6870  -28.5870   23.1360 C   0  0  0  0  0  3  0  0  0  0  0  0
  -25.8630  -32.4640   23.7760 C   0  0  0  0  0  3  0  0  0  0  0  0
  -26.3730  -31.7050   25.0640 C   0  0  1  0  0  0  0  0  0  0  0  0
  -25.2740  -31.4700   26.1270 C   0  0  0  0  0  1  0  0  0  0  0  0
  -26.9690  -30.3270   24.7000 C   0  0  0  0  0  1  0  0  0  0  0  0
  -27.5140  -32.5110   25.7300 C   0  0  0  0  0  1  0  0  0  0  0  0
  -25.5240  -33.8590   24.1220 N   0  0  0  0  0  0  0  0  0  0  0  0
  -25.8450  -34.9370   23.3930 C   0  0  0  0  0  0  0  0  0  0  0  0
  -26.5150  -34.8630   22.3600 O   0  0  0  0  0  0  0  0  0  0  0  0
  -24.9250  -33.9890   24.9230 H   0  0  0  0  0  0  0  0  0  0  0  0
  -24.0960  -36.7290   23.0960 C   0  0  0  0  0  1  0  0  0  0  0  0
  -25.3500  -36.3150   23.8830 C   0  0  0  0  0  3  0  0  0  0  0  0
  -27.4830  -37.2140   24.7100 C   0  0  0  0  0  1  0  0  0  0  0  0
  -26.3710  -37.3820   23.7780 N   0  0  0  0  0  0  0  0  0  0  0  0
  -25.9560  -38.2960   23.9410 H   0  0  0  0  0  0  0  0  0  0  0  0
  -28.8740  -19.1310   20.1310 C   0  0  0  0  0  2  0  0  0  0  0  0
  -29.7620  -17.4780   20.6830 C   0  0  0  0  0  2  0  0  0  0  0  0
  -30.2740  -15.6950   20.2750 C   0  0  0  0  0  0  0  0  0  0  0  0
  -30.3550  -13.1100   19.5400 C   0  0  0  0  0  2  0  0  0  0  0  0
  -29.4990  -12.7210   18.3000 C   0  0  0  0  0  2  0  0  0  0  0  0
  -28.0640  -12.3740   18.7180 C   0  0  0  0  0  2  0  0  0  0  0  0
  -27.5380  -13.3810   19.7650 C   0  0  0  0  0  3  0  0  0  0  0  0
  -28.5410  -13.7160   20.8990 C   0  0  0  0  0  2  0  0  0  0  0  0
  -29.7470  -14.3180   20.2840 N   0  0  0  0  0  0  0  0  0  0  0  0
  -31.4760  -15.5580   19.9680 O   0  0  0  0  0  0  0  0  0  0  0  0
  -25.1640  -13.9070   20.4860 C   0  0  0  0  0  0  0  0  0  0  0  0
  -24.1010  -13.1280   20.8430 C   0  0  0  0  0  0  0  0  0  0  0  0
  -24.5740  -11.7790   20.8320 C   0  0  0  0  0  0  0  0  0  0  0  0
  -26.2140  -13.0380   20.2650 N   0  0  0  0  0  0  0  0  0  0  0  0
  -25.8740  -11.7500   20.5400 N   0  0  0  0  0  0  0  0  0  0  0  0
  -23.8450  -10.5170   21.0200 C   0  0  0  0  0  0  0  0  0  0  0  0
  -24.2660   -9.5510   21.9620 C   0  0  0  0  0  3  0  0  0  0  0  0
  -23.5320   -8.3590   22.1420 C   0  0  0  0  0  3  0  0  0  0  0  0
  -22.3620   -8.1230   21.3820 C   0  0  0  0  0  0  0  0  0  0  0  0
  -21.9600   -9.0760   20.4290 C   0  0  0  0  0  3  0  0  0  0  0  0
  -22.6940  -10.2600   20.2480 C   0  0  0  0  0  3  0  0  0  0  0  0
  -21.6010   -6.9820   21.4700 O   0  0  0  0  0  0  0  0  0  0  0  0
  -21.5500   -6.2370   22.6220 C   0  0  0  0  0  0  0  0  0  0  0  0
  -21.1390   -6.7950   23.8520 C   0  0  0  0  0  3  0  0  0  0  0  0
  -21.0340   -5.9780   24.9950 C   0  0  0  0  0  3  0  0  0  0  0  0
  -21.3290   -4.6040   24.9100 C   0  0  0  0  0  0  0  0  0  0  0  0
  -21.7340   -4.0460   23.6840 C   0  0  0  0  0  3  0  0  0  0  0  0
  -21.8390   -4.8600   22.5430 C   0  0  0  0  0  0  0  0  0  0  0  0
  -22.2090   -4.3130   21.3600 F   0  0  0  0  0  0  0  0  0  0  0  0
  -21.2220   -3.8180   26.0060 F   0  0  0  0  0  0  0  0  0  0  0  0
  -22.6990  -13.6040   21.0780 C   0  0  0  0  0  0  0  0  0  0  0  0
  -21.9550  -12.9210   21.9400 N   0  0  0  0  0  0  0  0  0  0  0  0
  -22.2700  -14.6210   20.5320 O   0  0  0  0  0  0  0  0  0  0  0  0
  -22.3150  -12.1010   22.4050 H   0  0  0  0  0  0  0  0  0  0  0  0
  -21.0120  -13.2230   22.1390 H   0  0  0  0  0  0  0  0  0  0  0  0
  -25.3240  -15.2780   20.3010 N   0  0  0  0  0  0  0  0  0  0  0  0
  -24.5540  -15.9300   20.4020 H   0  0  0  0  0  0  0  0  0  0  0  0
  -26.1820  -15.7200   19.9970 H   0  0  0  0  0  0  0  0  0  0  0  0
  1  4  1  0
  2  5  1  0
  2  1  2  0
  4 50  1  0
  4  3  2  0
  5  6  2  0
  6  9  1  0
  6  3  1  0
  7  5  1  0
  8  7  1  0
 10 21  2  0
 11  9  1  0
 11 16  1  0
 12 20  1  0
 12 22  1  0
 13 19  1  0
 13 15  1  0
 14 20  1  0
 15 16  2  0
 15 14  1  0
 17 11  2  0
 18 17  1  0
 18 13  2  0
 19 12  1  0
 20 10  1  0
 22 24  2  0
 23 22  1  0
 25 23  1  0
 26 35  2  0
 26 31  1  0
 27 23  1  0
 27 31  1  0
 28 27  1  0
 29 30  1  0
 29 28  1  0
 30 26  1  0
 31 32  2  0
 32 33  1  0
 34 33  2  0
 35 34  1  0
 36 10  1  0
 36 41  1  0
 36 37  1  0
 37 40  1  1
 37 38  1  0
 39 37  1  0
 41 44  1  0
 42 46  1  0
 42 41  1  0
 43 42  2  0
 46 45  1  0
 48 46  1  0
 48 49  1  0
 48 47  1  0
 50 51  1  0
 52 58  1  0
 52 51  1  0
 53 58  1  0
 54 55  1  0
 54 53  1  0
 56 55  1  0
 56 63  1  0
 56 57  1  0
 58 57  1  0
 59 52  2  0
 60 61  2  0
 61 80  1  0
 62 61  1  0
 62 65  1  0
 63 60  1  0
 63 64  1  0
 64 62  2  0
 65 66  1  0
 66 67  2  0
 68 71  1  0
 68 67  1  0
 69 68  2  0
 70 69  1  0
 70 65  2  0
 71 72  1  0
 72 73  1  0
 73 74  2  0
 75 74  1  0
 75 79  1  0
 76 75  2  0
 77 72  2  0
 77 76  1  0
 78 77  1  0
 80 81  1  0
 81 84  1  0
 81 83  1  0
 82 80  2  0
 85 86  1  0
 85 60  1  0
 87 85  1  0
M  ISO  4   6 101   9 101  51 100  52 100
M  END
>  <TORSDO>  (42) 
F 19

>  <SCORE>  (42) 
-15.289

>  <name>  (42) 
41

>  <ligand_id>  (42) 
41

>  <original_smiles>  (42) 
[H]Oc1c([H])c([H])c(C([H])([H])C([H])([H])C(=O)N2C([H])([H])C([H])([H])C([H])([H])C([H])(n3nc(-c4c([H])c([H])c(Oc5c([H])c([H])c(F)c([H])c5F)c([H])c4[H])c(C(=O)N([H])[H])c3N([H])[H])C2([H])[H])c([H])c1Oc1c([H])c([H])c2c(c1[H])C([H])([H])N(C(=O)C([H])(N([H])C(=O)C([H])(N([H])C([H])([H])[H])C([H])([H])[H])C(C([H])([H])[H])(C([H])([H])[H])C([H])([H])[H])C([H])(C(=O)N([H])C1([H])c3c([H])c([H])c([H])c([H])c3C([H])([H])C([H])([H])C1([H])[H])C2([H])[H]

>  <smiles>  (42) 
[H]Oc1c([H])c([H])c(C([H])([H])C([H])([H])C(=O)N2C([H])([H])C([H])([H])C([H])([H])C([H])(n3nc(-c4c([H])c([H])c(Oc5c([H])c([H])c(F)c([H])c5F)c([H])c4[H])c(C(=O)N([H])[H])c3N([H])[H])C2([H])[H])c([H])c1Oc1c([H])c([H])c2c(c1[H])C([H])([H])N(C(=O)C([H])(N([H])C(=O)C([H])(N([H])C([H])([H])[H])C([H])([H])[H])C(C([H])([H])[H])(C([H])([H])[H])C([H])([H])[H])C([H])(C(=O)N([H])C1([H])c3c([H])c([H])c([H])c([H])c3C([H])([H])C([H])([H])C1([H])[H])C2([H])[H]

$$$$
42:0:0
     RDKit          3D

 88 96  0  0  1  0  0  0  0  0999 V2000
  -30.3560  -19.7740   18.8840 C   0  0  0  0  0  3  0  0  0  0  0  0
  -30.6560  -18.3720   19.0930 C   0  0  0  0  0  3  0  0  0  0  0  0
  -29.1590  -19.8530   20.9270 C   0  0  0  0  0  3  0  0  0  0  0  0
  -29.5700  -20.5780   19.7790 C   0  0  0  0  0  0  0  0  0  0  0  0
  -30.1920  -17.6340   20.2260 C   0  0  0  0  0  0  0  0  0  0  0  0
  -29.4470  -18.4580   21.1450 C   0  0  0  0  0  0  0  0  0  0  0  0
  -28.8820  -17.8470   22.4180 C   0  0  0  0  0  1  0  0  0  0  0  0
  -30.3360  -16.0390   20.5280 C   0  0  0  0  0  2  0  0  0  0  0  0
  -31.0040  -14.8180   19.6870 C   0  0  0  0  0  0  0  0  0  0  0  0
  -30.6340  -12.6310   18.4720 C   0  0  0  0  0  2  0  0  0  0  0  0
  -29.5610  -12.8500   17.3800 C   0  0  0  0  0  2  0  0  0  0  0  0
  -28.1400  -12.6920   17.9580 C   0  0  0  0  0  2  0  0  0  0  0  0
  -27.9550  -13.4790   19.2810 C   0  0  0  0  0  3  0  0  0  0  0  0
  -29.1210  -13.2050   20.2550 C   0  0  0  0  0  2  0  0  0  0  0  0
  -30.3640  -13.5930   19.5680 N   0  0  0  0  0  0  0  0  0  0  0  0
  -32.0980  -14.9670   19.1280 O   0  0  0  0  0  0  0  0  0  0  0  0
  -25.6890  -14.1420   20.2860 C   0  0  0  0  0  0  0  0  0  0  0  0
  -24.6280  -13.4000   20.7300 C   0  0  0  0  0  0  0  0  0  0  0  0
  -25.0160  -12.0330   20.5850 C   0  0  0  0  0  0  0  0  0  0  0  0
  -26.6550  -13.2290   19.8940 N   0  0  0  0  0  0  0  0  0  0  0  0
  -26.2620  -11.9510   20.1340 N   0  0  0  0  0  0  0  0  0  0  0  0
  -24.2500  -10.7960   20.7930 C   0  0  0  0  0  0  0  0  0  0  0  0
  -24.6770   -9.8090   21.7090 C   0  0  0  0  0  3  0  0  0  0  0  0
  -23.9160   -8.6370   21.9050 C   0  0  0  0  0  3  0  0  0  0  0  0
  -22.7120   -8.4430   21.1850 C   0  0  0  0  0  0  0  0  0  0  0  0
  -22.3030   -9.4190   20.2570 C   0  0  0  0  0  3  0  0  0  0  0  0
  -23.0650  -10.5830   20.0610 C   0  0  0  0  0  3  0  0  0  0  0  0
  -21.9200   -7.3260   21.2920 O   0  0  0  0  0  0  0  0  0  0  0  0
  -21.7930   -6.6430   22.4740 C   0  0  0  0  0  0  0  0  0  0  0  0
  -21.3110   -7.2650   23.6460 C   0  0  0  0  0  3  0  0  0  0  0  0
  -21.1330   -6.5090   24.8230 C   0  0  0  0  0  3  0  0  0  0  0  0
  -21.4260   -5.1320   24.8260 C   0  0  0  0  0  0  0  0  0  0  0  0
  -21.9010   -4.5090   23.6590 C   0  0  0  0  0  3  0  0  0  0  0  0
  -22.0820   -5.2620   22.4840 C   0  0  0  0  0  0  0  0  0  0  0  0
  -22.5200   -4.6540   21.3560 F   0  0  0  0  0  0  0  0  0  0  0  0
  -21.2460   -4.4030   25.9520 F   0  0  0  0  0  0  0  0  0  0  0  0
  -23.2940  -13.9240   21.1740 C   0  0  0  0  0  0  0  0  0  0  0  0
  -22.6350  -13.2240   22.0910 N   0  0  0  0  0  0  0  0  0  0  0  0
  -22.8480  -14.9860   20.7420 O   0  0  0  0  0  0  0  0  0  0  0  0
  -23.0130  -12.3630   22.4580 H   0  0  0  0  0  0  0  0  0  0  0  0
  -21.7420  -13.5510   22.4310 H   0  0  0  0  0  0  0  0  0  0  0  0
  -25.9050  -15.5120   20.1610 N   0  0  0  0  0  0  0  0  0  0  0  0
  -25.1870  -16.1930   20.3830 H   0  0  0  0  0  0  0  0  0  0  0  0
  -26.7310  -15.9290   19.7520 H   0  0  0  0  0  0  0  0  0  0  0  0
  -28.9590  -22.0300   19.3960 C   0  0  0  0  0  2  0  0  0  0  0  0
  -29.1910  -23.4770   20.1330 C   0  0  0  0  0  3  0  0  0  0  0  0
  -28.2380  -24.7500   19.6960 C   0  0  0  0  0  3  0  0  0  0  0  0
  -28.3880  -26.2110   20.1120 O   0  0  0  0  0  0  0  0  0  0  0  0
  -24.5160  -31.6310   23.1200 C   0  0  0  0  0  0  0  0  0  0  0  0
  -27.2800  -27.1090   20.0320 C   0  0  0  0  0  0  0  0  0  0  0  0
  -23.3710  -30.2120   21.4590 C   0  0  0  0  0  3  0  0  0  0  0  0
  -24.8800  -28.7190   20.0210 C   0  0  0  0  0  0  0  0  0  0  0  0
  -25.9100  -30.5840   21.3080 C   0  0  0  0  0  2  0  0  0  0  0  0
  -26.0360  -29.2120   20.6400 C   0  0  0  0  0  0  0  0  0  0  0  0
  -27.2350  -28.4200   20.6370 C   0  0  0  0  0  3  0  0  0  0  0  0
  -26.1010  -26.7090   19.3610 C   0  0  0  0  0  3  0  0  0  0  0  0
  -24.9210  -27.4790   19.3680 C   0  0  0  0  0  3  0  0  0  0  0  0
  -23.6190  -29.5610   20.0740 C   0  0  0  0  0  2  0  0  0  0  0  0
  -24.6180  -30.8290   22.0180 N   0  0  0  0  0  0  0  0  0  0  0  0
  -23.4200  -31.8710   23.6470 O   0  0  0  0  0  0  0  0  0  0  0  0
  -22.7260  -29.1690   22.4040 C   0  0  0  0  0  0  0  0  0  0  0  0
  -21.4070  -28.9490   22.2620 N   0  0  0  0  0  0  0  0  0  0  0  0
  -23.4140  -28.5590   23.2260 O   0  0  0  0  0  0  0  0  0  0  0  0
  -20.9070  -29.4930   21.5730 H   0  0  0  0  0  0  0  0  0  0  0  0
  -18.0670  -27.6320   22.7240 C   0  0  0  0  0  0  0  0  0  0  0  0
  -20.6120  -27.9780   23.0170 C   0  0  0  0  0  3  0  0  0  0  0  0
  -20.7690  -26.5550   22.4330 C   0  0  0  0  0  2  0  0  0  0  0  0
  -19.6880  -26.2020   21.4070 C   0  0  0  0  0  2  0  0  0  0  0  0
  -18.2960  -26.2950   22.0380 C   0  0  0  0  0  2  0  0  0  0  0  0
  -19.1540  -28.4290   23.1680 C   0  0  0  0  0  0  0  0  0  0  0  0
  -18.8860  -29.6790   23.7690 C   0  0  0  0  0  3  0  0  0  0  0  0
  -17.5620  -30.1300   23.9300 C   0  0  0  0  0  3  0  0  0  0  0  0
  -16.4890  -29.3290   23.5010 C   0  0  0  0  0  3  0  0  0  0  0  0
  -16.7420  -28.0840   22.9020 C   0  0  0  0  0  3  0  0  0  0  0  0
  -25.7730  -32.2990   23.7580 C   0  0  0  0  0  3  0  0  0  0  0  0
  -26.2910  -31.5440   25.0440 C   0  0  1  0  0  0  0  0  0  0  0  0
  -25.1890  -31.2770   26.0950 C   0  0  0  0  0  1  0  0  0  0  0  0
  -26.9210  -30.1830   24.6700 C   0  0  0  0  0  1  0  0  0  0  0  0
  -27.4080  -32.3720   25.7230 C   0  0  0  0  0  1  0  0  0  0  0  0
  -25.4240  -33.6900   24.0830 N   0  0  0  0  0  0  0  0  0  0  0  0
  -25.7130  -34.7490   23.3140 C   0  0  0  0  0  0  0  0  0  0  0  0
  -26.3700  -34.6590   22.2740 O   0  0  0  0  0  0  0  0  0  0  0  0
  -24.8440  -33.8340   24.8970 H   0  0  0  0  0  0  0  0  0  0  0  0
  -23.9140  -36.4770   22.9890 C   0  0  0  0  0  1  0  0  0  0  0  0
  -25.1900  -36.1250   23.7700 C   0  0  0  0  0  3  0  0  0  0  0  0
  -27.3080  -37.0980   24.5430 C   0  0  0  0  0  1  0  0  0  0  0  0
  -26.1810  -37.2130   23.6210 N   0  0  0  0  0  0  0  0  0  0  0  0
  -25.7460  -38.1190   23.7650 H   0  0  0  0  0  0  0  0  0  0  0  0
  1  2  2  0
  1  4  1  0
  2  5  1  0
  3  6  1  0
  4  3  2  0
  5  8  1  0
  5  6  2  0
  6  7  1  0
  9  8  1  0
 10 15  1  0
 11 12  1  0
 11 10  1  0
 13 12  1  0
 13 20  1  0
 13 14  1  0
 15  9  1  0
 15 14  1  0
 16  9  2  0
 17 18  2  0
 18 37  1  0
 19 18  1  0
 19 22  1  0
 20 21  1  0
 20 17  1  0
 21 19  2  0
 22 23  1  0
 23 24  2  0
 25 28  1  0
 25 24  1  0
 26 25  2  0
 27 26  1  0
 27 22  2  0
 28 29  1  0
 29 34  2  0
 29 30  1  0
 30 31  2  0
 31 32  1  0
 32 36  1  0
 33 32  2  0
 34 33  1  0
 35 34  1  0
 37 38  1  0
 38 41  1  0
 38 40  1  0
 39 37  2  0
 42 17  1  0
 42 43  1  0
 44 42  1  0
 45  4  1  0
 45 46  1  0
 47 48  1  0
 47 46  2  0
 49 60  2  0
 50 48  1  0
 50 55  1  0
 51 59  1  0
 51 61  1  0
 52 58  1  0
 52 54  1  0
 53 59  1  0
 54 53  1  0
 55 54  2  0
 56 57  1  0
 56 50  2  0
 57 52  2  0
 58 51  1  0
 59 49  1  0
 61 63  2  0
 62 61  1  0
 64 62  1  0
 65 74  2  0
 65 70  1  0
 66 62  1  0
 66 70  1  0
 67 66  1  0
 68 69  1  0
 68 67  1  0
 69 65  1  0
 70 71  2  0
 71 72  1  0
 73 72  2  0
 74 73  1  0
 75 49  1  0
 75 80  1  0
 75 76  1  0
 76 79  1  1
 76 77  1  0
 78 76  1  0
 80 83  1  0
 81 85  1  0
 81 80  1  0
 82 81  2  0
 85 84  1  0
 87 88  1  0
 87 85  1  0
 87 86  1  0
M  ISO  4   8 100   9 100  47 101  48 101
M  END
>  <TORSDO>  (43) 
F 20

>  <SCORE>  (43) 
-9.352

>  <name>  (43) 
42

>  <ligand_id>  (43) 
42

>  <original_smiles>  (43) 
[H]c1c([H])c([H])c2c(c1[H])C([H])([H])C([H])([H])C([H])([H])C2([H])N([H])C(=O)C1([H])N(C(=O)C([H])(N([H])C(=O)C([H])(N([H])C([H])([H])[H])C([H])([H])[H])C(C([H])([H])[H])(C([H])([H])[H])C([H])([H])[H])C([H])([H])c2c([H])c(OC([H])([H])C([H])([H])C([H])([H])c3c([H])c([H])c(C([H])([H])C(=O)N4C([H])([H])C([H])([H])C([H])([H])C([H])(n5nc(-c6c([H])c([H])c(Oc7c([H])c([H])c(F)c([H])c7F)c([H])c6[H])c(C(=O)N([H])[H])c5N([H])[H])C4([H])[H])c(C([H])([H])[H])c3[H])c([H])c([H])c2C1([H])[H]

>  <smiles>  (43) 
[H]c1c([H])c([H])c2c(c1[H])C([H])([H])C([H])([H])C([H])([H])C2([H])N([H])C(=O)C1([H])N(C(=O)C([H])(N([H])C(=O)C([H])(N([H])C([H])([H])[H])C([H])([H])[H])C(C([H])([H])[H])(C([H])([H])[H])C([H])([H])[H])C([H])([H])c2c([H])c(OC([H])([H])C([H])([H])C([H])([H])c3c([H])c([H])c(C([H])([H])C(=O)N4C([H])([H])C([H])([H])C([H])([H])C([H])(n5nc(-c6c([H])c([H])c(Oc7c([H])c([H])c(F)c([H])c7F)c([H])c6[H])c(C(=O)N([H])[H])c5N([H])[H])C4([H])[H])c(C([H])([H])[H])c3[H])c([H])c([H])c2C1([H])[H]

$$$$
43:0:0
     RDKit          3D

 89 97  0  0  1  0  0  0  0  0999 V2000
  -27.2280  -22.8520   21.3660 C   0  0  0  0  0  3  0  0  0  0  0  0
  -27.4700  -24.2160   21.0590 C   0  0  0  0  0  3  0  0  0  0  0  0
  -29.4070  -23.4110   19.8740 C   0  0  0  0  0  3  0  0  0  0  0  0
  -28.0280  -21.7460   20.9540 C   0  0  0  0  0  0  0  0  0  0  0  0
  -29.2050  -21.8890   20.1660 C   0  0  0  0  0  0  0  0  0  0  0  0
  -28.5660  -24.6610   20.2960 C   0  0  0  0  0  0  0  0  0  0  0  0
  -27.5340  -20.3640   21.3540 C   0  0  0  0  0  1  0  0  0  0  0  0
  -28.6840  -26.2020   20.1450 O   0  0  0  0  0  0  0  0  0  0  0  0
  -24.8120  -31.9660   23.3130 C   0  0  0  0  0  0  0  0  0  0  0  0
  -27.6360  -27.2810   20.1820 C   0  0  0  0  0  0  0  0  0  0  0  0
  -23.7240  -30.6010   21.5780 C   0  0  0  0  0  3  0  0  0  0  0  0
  -25.2770  -29.1070   20.1420 C   0  0  0  0  0  0  0  0  0  0  0  0
  -26.2860  -30.8990   21.5300 C   0  0  0  0  0  2  0  0  0  0  0  0
  -26.4310  -29.5160   20.8220 C   0  0  0  0  0  0  0  0  0  0  0  0
  -27.6040  -28.6250   20.8200 C   0  0  0  0  0  3  0  0  0  0  0  0
  -26.4500  -27.0410   19.4530 C   0  0  0  0  0  3  0  0  0  0  0  0
  -25.3130  -27.8930   19.4380 C   0  0  0  0  0  3  0  0  0  0  0  0
  -24.0270  -29.9870   20.1840 C   0  0  0  0  0  2  0  0  0  0  0  0
  -24.9600  -31.1830   22.1950 N   0  0  0  0  0  0  0  0  0  0  0  0
  -23.6970  -32.1960   23.8080 O   0  0  0  0  0  0  0  0  0  0  0  0
  -23.0360  -29.5410   22.4770 C   0  0  0  0  0  0  0  0  0  0  0  0
  -21.7180  -29.3350   22.3020 N   0  0  0  0  0  0  0  0  0  0  0  0
  -23.6980  -28.9040   23.3010 O   0  0  0  0  0  0  0  0  0  0  0  0
  -21.2370  -29.8960   21.6120 H   0  0  0  0  0  0  0  0  0  0  0  0
  -18.3650  -27.9900   22.6630 C   0  0  0  0  0  0  0  0  0  0  0  0
  -20.9060  -28.3370   23.0080 C   0  0  0  0  0  3  0  0  0  0  0  0
  -21.0730  -26.9360   22.3770 C   0  0  0  0  0  2  0  0  0  0  0  0
  -20.0120  -26.6210   21.3190 C   0  0  0  0  0  2  0  0  0  0  0  0
  -18.6090  -26.6840   21.9300 C   0  0  0  0  0  2  0  0  0  0  0  0
  -19.4420  -28.7750   23.1550 C   0  0  0  0  0  0  0  0  0  0  0  0
  -19.1580  -29.9970   23.8000 C   0  0  0  0  0  3  0  0  0  0  0  0
  -17.8290  -30.4380   23.9560 C   0  0  0  0  0  3  0  0  0  0  0  0
  -16.7670  -29.6500   23.4810 C   0  0  0  0  0  3  0  0  0  0  0  0
  -17.0350  -28.4280   22.8390 C   0  0  0  0  0  3  0  0  0  0  0  0
  -26.0370  -32.6280   24.0150 C   0  0  0  0  0  3  0  0  0  0  0  0
  -25.6730  -34.0160   24.3490 N   0  0  0  0  0  0  0  0  0  0  0  0
  -26.0290  -35.0960   23.6410 C   0  0  0  0  0  0  0  0  0  0  0  0
  -26.7600  -35.0290   22.6500 O   0  0  0  0  0  0  0  0  0  0  0  0
  -25.0280  -34.1400   25.1170 H   0  0  0  0  0  0  0  0  0  0  0  0
  -24.2900  -36.8740   23.2410 C   0  0  0  0  0  1  0  0  0  0  0  0
  -25.4950  -36.4670   24.1040 C   0  0  0  0  0  3  0  0  0  0  0  0
  -27.5640  -37.3790   25.0660 C   0  0  0  0  0  1  0  0  0  0  0  0
  -26.5110  -37.5430   24.0680 N   0  0  0  0  0  0  0  0  0  0  0  0
  -26.0790  -38.4530   24.2080 H   0  0  0  0  0  0  0  0  0  0  0  0
  -26.4920  -31.8600   25.3180 C   0  0  1  0  0  0  0  0  0  0  0  0
  -25.3390  -31.5710   26.3100 C   0  0  0  0  0  1  0  0  0  0  0  0
  -27.1470  -30.5060   24.9620 C   0  0  0  0  0  1  0  0  0  0  0  0
  -27.5660  -32.6850   26.0650 C   0  0  0  0  0  1  0  0  0  0  0  0
  -29.9510  -20.3780   19.5810 C   0  0  0  0  0  2  0  0  0  0  0  0
  -32.0230  -19.0660   20.7230 C   0  0  0  0  0  1  0  0  0  0  0  0
  -30.5660  -18.8100   20.3140 C   0  0  0  0  0  0  0  0  0  0  0  0
  -31.1960  -15.8560   19.9130 C   0  0  0  0  0  0  0  0  0  0  0  0
  -31.1560  -13.3850   19.0550 C   0  0  0  0  0  2  0  0  0  0  0  0
  -30.2150  -13.1140   17.8510 C   0  0  0  0  0  2  0  0  0  0  0  0
  -28.7740  -12.8590   18.3260 C   0  0  0  0  0  2  0  0  0  0  0  0
  -28.3400  -13.8540   19.4320 C   0  0  0  0  0  3  0  0  0  0  0  0
  -29.4090  -14.0460   20.5270 C   0  0  0  0  0  2  0  0  0  0  0  0
  -30.6130  -14.5520   19.8470 N   0  0  0  0  0  0  0  0  0  0  0  0
  -32.4290  -15.8120   19.7740 O   0  0  0  0  0  0  0  0  0  0  0  0
  -30.4400  -17.1550   19.9310 N   0  0  0  0  0  4  0  0  0  0  0  0
  -29.4640  -16.9310   19.8080 H   0  0  0  0  0  0  0  0  0  0  0  0
  -26.0040  -14.4540   20.2490 C   0  0  0  0  0  0  0  0  0  0  0  0
  -24.9320  -13.6980   20.6310 C   0  0  0  0  0  0  0  0  0  0  0  0
  -25.3680  -12.3380   20.5790 C   0  0  0  0  0  0  0  0  0  0  0  0
  -27.0200  -13.5580   19.9730 N   0  0  0  0  0  0  0  0  0  0  0  0
  -26.6520  -12.2790   20.2410 N   0  0  0  0  0  0  0  0  0  0  0  0
  -24.6140  -11.0920   20.7690 C   0  0  0  0  0  0  0  0  0  0  0  0
  -24.9650  -10.1610   21.7710 C   0  0  0  0  0  3  0  0  0  0  0  0
  -24.2110   -8.9810   21.9490 C   0  0  0  0  0  3  0  0  0  0  0  0
  -23.0910   -8.7240   21.1220 C   0  0  0  0  0  0  0  0  0  0  0  0
  -22.7590   -9.6430   20.1110 C   0  0  0  0  0  3  0  0  0  0  0  0
  -23.5150  -10.8140   19.9320 C   0  0  0  0  0  3  0  0  0  0  0  0
  -22.3150   -7.5920   21.2050 O   0  0  0  0  0  0  0  0  0  0  0  0
  -22.0720   -6.9720   22.4040 C   0  0  0  0  0  0  0  0  0  0  0  0
  -21.4420   -7.6420   23.4750 C   0  0  0  0  0  3  0  0  0  0  0  0
  -21.1470   -6.9470   24.6660 C   0  0  0  0  0  3  0  0  0  0  0  0
  -21.4730   -5.5840   24.7840 C   0  0  0  0  0  0  0  0  0  0  0  0
  -22.0960   -4.9130   23.7160 C   0  0  0  0  0  3  0  0  0  0  0  0
  -22.3920   -5.6050   22.5290 C   0  0  0  0  0  0  0  0  0  0  0  0
  -22.9730   -4.9490   21.4960 F   0  0  0  0  0  0  0  0  0  0  0  0
  -21.1850   -4.9130   25.9240 F   0  0  0  0  0  0  0  0  0  0  0  0
  -23.5510  -14.2060   20.9250 C   0  0  0  0  0  0  0  0  0  0  0  0
  -22.8260  -13.5320   21.8090 N   0  0  0  0  0  0  0  0  0  0  0  0
  -23.1270  -15.2370   20.4050 O   0  0  0  0  0  0  0  0  0  0  0  0
  -23.1840  -12.6990   22.2510 H   0  0  0  0  0  0  0  0  0  0  0  0
  -21.8980  -13.8550   22.0470 H   0  0  0  0  0  0  0  0  0  0  0  0
  -26.1900  -15.8230   20.0800 N   0  0  0  0  0  0  0  0  0  0  0  0
  -25.4330  -16.4840   20.2180 H   0  0  0  0  0  0  0  0  0  0  0  0
  -27.0180  -16.2490   19.6850 H   0  0  0  0  0  0  0  0  0  0  0  0
  2  1  1  0
  3  5  2  0
  3  6  1  0
  4  7  1  0
  4  1  2  0
  5  4  1  0
  6  2  2  0
  8 10  1  0
  8  6  1  0
  9 20  2  0
 10 15  1  0
 11 19  1  0
 11 21  1  0
 12 18  1  0
 12 14  1  0
 13 19  1  0
 14 13  1  0
 15 14  2  0
 16 10  2  0
 17 16  1  0
 17 12  2  0
 18 11  1  0
 19  9  1  0
 21 23  2  0
 22 21  1  0
 24 22  1  0
 25 34  2  0
 25 30  1  0
 26 22  1  0
 26 30  1  0
 27 26  1  0
 28 29  1  0
 28 27  1  0
 29 25  1  0
 30 31  2  0
 31 32  1  0
 33 32  2  0
 34 33  1  0
 35  9  1  0
 35 36  1  0
 35 45  1  0
 36 39  1  0
 37 41  1  0
 37 36  1  0
 38 37  2  0
 41 40  1  0
 43 41  1  0
 43 44  1  0
 43 42  1  0
 45 48  1  1
 45 46  1  0
 47 45  1  0
 49  5  1  0
 49 51  1  0
 51 50  1  0
 52 60  1  0
 53 58  1  0
 54 55  1  0
 54 53  1  0
 56 55  1  0
 56 65  1  0
 56 57  1  0
 58 52  1  0
 58 57  1  0
 59 52  2  0
 60 51  2  0
 61 60  1  0
 62 63  2  0
 63 82  1  0
 64 63  1  0
 64 67  1  0
 65 66  1  0
 65 62  1  0
 66 64  2  0
 67 68  1  0
 68 69  2  0
 70 73  1  0
 70 69  1  0
 71 70  2  0
 72 71  1  0
 72 67  2  0
 73 74  1  0
 74 79  2  0
 74 75  1  0
 75 76  2  0
 76 77  1  0
 77 81  1  0
 78 77  2  0
 79 78  1  0
 80 79  1  0
 82 83  1  0
 83 86  1  0
 83 85  1  0
 84 82  2  0
 87 88  1  0
 87 62  1  0
 89 87  1  0
M  ISO  4   6 101   8 101  52 100  60 100
M  END
>  <TORSDO>  (44) 
F 18

>  <SCORE>  (44) 
-12.752

>  <name>  (44) 
43

>  <ligand_id>  (44) 
43

>  <original_smiles>  (44) 
[H]c1c([H])c([H])c2c(c1[H])C([H])([H])C([H])([H])C([H])([H])C2([H])N([H])C(=O)C1([H])N(C(=O)C([H])(N([H])C(=O)C([H])(N([H])C([H])([H])[H])C([H])([H])[H])C(C([H])([H])[H])(C([H])([H])[H])C([H])([H])[H])C([H])([H])c2c([H])c(Oc3c([H])c([H])c(C([H])([H])[H])c(C([H])([H])C([H])(N([H])C(=O)N4C([H])([H])C([H])([H])C([H])([H])C([H])(n5nc(-c6c([H])c([H])c(Oc7c([H])c([H])c(F)c([H])c7F)c([H])c6[H])c(C(=O)N([H])[H])c5N([H])[H])C4([H])[H])C([H])([H])[H])c3[H])c([H])c([H])c2C1([H])[H]

>  <smiles>  (44) 
[H]c1c([H])c([H])c2c(c1[H])C([H])([H])C([H])([H])C([H])([H])C2([H])N([H])C(=O)C1([H])N(C(=O)C([H])(N([H])C(=O)C([H])(N([H])C([H])([H])[H])C([H])([H])[H])C(C([H])([H])[H])(C([H])([H])[H])C([H])([H])[H])C([H])([H])c2c([H])c(Oc3c([H])c([H])c(C([H])([H])[H])c(C([H])([H])C([H])(N([H])C(=O)N4C([H])([H])C([H])([H])C([H])([H])C([H])(n5nc(-c6c([H])c([H])c(Oc7c([H])c([H])c(F)c([H])c7F)c([H])c6[H])c(C(=O)N([H])[H])c5N([H])[H])C4([H])[H])C([H])([H])[H])c3[H])c([H])c([H])c2C1([H])[H]

$$$$
44:0:0
     RDKit          3D

 89 97  0  0  1  0  0  0  0  0999 V2000
  -28.0700  -22.6790   17.9590 C   0  0  0  0  0  3  0  0  0  0  0  0
  -28.5730  -21.5280   18.6290 C   0  0  0  0  0  3  0  0  0  0  0  0
  -27.9680  -23.9830   18.5200 C   0  0  0  0  0  3  0  0  0  0  0  0
  -29.0230  -21.5360   19.9670 C   0  0  0  0  0  0  0  0  0  0  0  0
  -28.8880  -23.0030   20.5210 C   0  0  0  0  0  0  0  0  0  0  0  0
  -28.3550  -24.3080   19.8390 C   0  0  0  0  0  0  0  0  0  0  0  0
  -29.3590  -23.2030   21.9480 C   0  0  0  0  0  1  0  0  0  0  0  0
  -29.5000  -19.9680   20.6110 C   0  0  0  0  0  0  0  0  0  0  0  0
  -29.5400  -19.9740   21.8460 O   0  0  0  0  0  0  0  0  0  0  0  0
  -30.0090  -18.2720   19.9450 C   0  0  0  0  0  0  0  0  0  0  0  0
  -30.5600  -18.4410   18.8510 O   0  0  0  0  0  0  0  0  0  0  0  0
  -29.9220  -16.8250   20.4100 N   0  0  0  0  0  2  0  0  0  0  0  0
  -30.6140  -15.5020   20.1390 C   0  0  0  0  0  0  0  0  0  0  0  0
  -30.6170  -12.9990   19.3240 C   0  0  0  0  0  2  0  0  0  0  0  0
  -29.7070  -12.7790   18.0840 C   0  0  0  0  0  2  0  0  0  0  0  0
  -28.2560  -12.5080   18.5140 C   0  0  0  0  0  2  0  0  0  0  0  0
  -27.8030  -13.4790   19.6300 C   0  0  0  0  0  3  0  0  0  0  0  0
  -28.8460  -13.6490   20.7560 C   0  0  0  0  0  2  0  0  0  0  0  0
  -30.0890  -14.1610   20.1510 N   0  0  0  0  0  0  0  0  0  0  0  0
  -31.8140  -15.4190   19.8300 O   0  0  0  0  0  0  0  0  0  0  0  0
  -25.4360  -14.0470   20.3770 C   0  0  0  0  0  0  0  0  0  0  0  0
  -24.3680  -13.2790   20.7500 C   0  0  0  0  0  0  0  0  0  0  0  0
  -24.8300  -11.9260   20.7370 C   0  0  0  0  0  0  0  0  0  0  0  0
  -26.4750  -13.1650   20.1430 N   0  0  0  0  0  0  0  0  0  0  0  0
  -26.1240  -11.8830   20.4280 N   0  0  0  0  0  0  0  0  0  0  0  0
  -24.0950  -10.6690   20.9420 C   0  0  0  0  0  0  0  0  0  0  0  0
  -24.5160   -9.7120   21.8910 C   0  0  0  0  0  3  0  0  0  0  0  0
  -23.7780   -8.5230   22.0850 C   0  0  0  0  0  3  0  0  0  0  0  0
  -22.6060   -8.2840   21.3290 C   0  0  0  0  0  0  0  0  0  0  0  0
  -22.2040   -9.2300   20.3700 C   0  0  0  0  0  3  0  0  0  0  0  0
  -22.9410  -10.4100   20.1750 C   0  0  0  0  0  3  0  0  0  0  0  0
  -21.8410   -7.1460   21.4290 O   0  0  0  0  0  0  0  0  0  0  0  0
  -21.7770   -6.4220   22.5940 C   0  0  0  0  0  0  0  0  0  0  0  0
  -21.3540   -7.0030   23.8090 C   0  0  0  0  0  3  0  0  0  0  0  0
  -21.2350   -6.2060   24.9660 C   0  0  0  0  0  3  0  0  0  0  0  0
  -21.5310   -4.8320   24.9080 C   0  0  0  0  0  0  0  0  0  0  0  0
  -21.9460   -4.2510   23.6970 C   0  0  0  0  0  3  0  0  0  0  0  0
  -22.0650   -5.0440   22.5430 C   0  0  0  0  0  0  0  0  0  0  0  0
  -22.4470   -4.4740   21.3740 F   0  0  0  0  0  0  0  0  0  0  0  0
  -21.4100   -4.0650   26.0170 F   0  0  0  0  0  0  0  0  0  0  0  0
  -22.9730  -13.7660   21.0080 C   0  0  0  0  0  0  0  0  0  0  0  0
  -22.2430  -13.0940   21.8900 N   0  0  0  0  0  0  0  0  0  0  0  0
  -22.5410  -14.7800   20.4630 O   0  0  0  0  0  0  0  0  0  0  0  0
  -22.6050  -12.2740   22.3540 H   0  0  0  0  0  0  0  0  0  0  0  0
  -21.3060  -13.4040   22.1040 H   0  0  0  0  0  0  0  0  0  0  0  0
  -25.6060  -15.4160   20.1890 N   0  0  0  0  0  0  0  0  0  0  0  0
  -24.8550  -16.0850   20.3170 H   0  0  0  0  0  0  0  0  0  0  0  0
  -26.4840  -15.8460   19.9220 H   0  0  0  0  0  0  0  0  0  0  0  0
  -28.3200  -25.8280   20.2000 O   0  0  0  0  0  0  0  0  0  0  0  0
  -24.6530  -31.8240   23.0760 C   0  0  0  0  0  0  0  0  0  0  0  0
  -27.3000  -26.9370   20.0730 C   0  0  0  0  0  0  0  0  0  0  0  0
  -23.4940  -30.4140   21.4260 C   0  0  0  0  0  3  0  0  0  0  0  0
  -24.9770  -28.8240   20.0070 C   0  0  0  0  0  0  0  0  0  0  0  0
  -26.0610  -30.6460   21.3060 C   0  0  0  0  0  2  0  0  0  0  0  0
  -26.1550  -29.2330   20.6460 C   0  0  0  0  0  0  0  0  0  0  0  0
  -27.3020  -28.3090   20.6560 C   0  0  0  0  0  3  0  0  0  0  0  0
  -26.0900  -26.6980   19.3800 C   0  0  0  0  0  3  0  0  0  0  0  0
  -24.9740  -27.5800   19.3550 C   0  0  0  0  0  3  0  0  0  0  0  0
  -23.7460  -29.7330   20.0500 C   0  0  0  0  0  2  0  0  0  0  0  0
  -24.7570  -30.9900   21.9890 N   0  0  0  0  0  0  0  0  0  0  0  0
  -23.5560  -32.0990   23.5880 O   0  0  0  0  0  0  0  0  0  0  0  0
  -22.8030  -29.4100   22.3870 C   0  0  0  0  0  0  0  0  0  0  0  0
  -21.4740  -29.2340   22.2580 N   0  0  0  0  0  0  0  0  0  0  0  0
  -23.4690  -28.7890   23.2180 O   0  0  0  0  0  0  0  0  0  0  0  0
  -20.9870  -29.7870   21.5660 H   0  0  0  0  0  0  0  0  0  0  0  0
  -18.1040  -27.9720   22.7410 C   0  0  0  0  0  0  0  0  0  0  0  0
  -20.6580  -28.2850   23.0230 C   0  0  0  0  0  3  0  0  0  0  0  0
  -20.7880  -26.8530   22.4500 C   0  0  0  0  0  2  0  0  0  0  0  0
  -19.7010  -26.5120   21.4270 C   0  0  0  0  0  2  0  0  0  0  0  0
  -18.3120  -26.6290   22.0620 C   0  0  0  0  0  2  0  0  0  0  0  0
  -19.2060  -28.7570   23.1780 C   0  0  0  0  0  0  0  0  0  0  0  0
  -18.9570  -30.0100   23.7760 C   0  0  0  0  0  3  0  0  0  0  0  0
  -17.6400  -30.4820   23.9410 C   0  0  0  0  0  3  0  0  0  0  0  0
  -16.5540  -29.6950   23.5170 C   0  0  0  0  0  3  0  0  0  0  0  0
  -16.7880  -28.4430   22.9230 C   0  0  0  0  0  3  0  0  0  0  0  0
  -25.9070  -32.4880   23.7220 C   0  0  0  0  0  3  0  0  0  0  0  0
  -26.4290  -31.7140   24.9970 C   0  0  1  0  0  0  0  0  0  0  0  0
  -25.3340  -31.4480   26.0570 C   0  0  0  0  0  1  0  0  0  0  0  0
  -27.0400  -30.3490   24.6070 C   0  0  0  0  0  1  0  0  0  0  0  0
  -27.5600  -32.5240   25.6740 C   0  0  0  0  0  1  0  0  0  0  0  0
  -25.5570  -33.8740   24.0820 N   0  0  0  0  0  0  0  0  0  0  0  0
  -25.8680  -34.9590   23.3600 C   0  0  0  0  0  0  0  0  0  0  0  0
  -26.5410  -34.8990   22.3270 O   0  0  0  0  0  0  0  0  0  0  0  0
  -24.9560  -33.9900   24.8840 H   0  0  0  0  0  0  0  0  0  0  0  0
  -24.1010  -36.7300   23.0660 C   0  0  0  0  0  1  0  0  0  0  0  0
  -25.3540  -36.3260   23.8580 C   0  0  0  0  0  3  0  0  0  0  0  0
  -27.4730  -37.2380   24.7040 C   0  0  0  0  0  1  0  0  0  0  0  0
  -26.3640  -37.4050   23.7700 N   0  0  0  0  0  0  0  0  0  0  0  0
  -25.9380  -38.3110   23.9420 H   0  0  0  0  0  0  0  0  0  0  0  0
  1  3  2  0
  1  2  1  0
  2  4  2  0
  3  6  1  0
  4  5  1  0
  4  8  1  0
  5  7  1  0
  6 49  1  0
  6  5  2  0
  8  9  2  0
 10 12  1  0
 10  8  1  0
 11 10  2  0
 13 19  1  0
 13 12  1  0
 14 19  1  0
 15 16  1  0
 15 14  1  0
 17 16  1  0
 17 24  1  0
 17 18  1  0
 19 18  1  0
 20 13  2  0
 21 22  2  0
 22 41  1  0
 23 22  1  0
 23 26  1  0
 24 21  1  0
 24 25  1  0
 25 23  2  0
 26 27  1  0
 27 28  2  0
 29 32  1  0
 29 28  1  0
 30 29  2  0
 31 30  1  0
 31 26  2  0
 32 33  1  0
 33 34  1  0
 34 35  2  0
 36 35  1  0
 36 40  1  0
 37 36  2  0
 38 33  2  0
 38 37  1  0
 39 38  1  0
 41 42  1  0
 42 45  1  0
 42 44  1  0
 43 41  2  0
 46 47  1  0
 46 21  1  0
 48 46  1  0
 50 61  2  0
 51 49  1  0
 51 56  1  0
 52 60  1  0
 52 62  1  0
 53 59  1  0
 53 55  1  0
 54 60  1  0
 55 56  2  0
 55 54  1  0
 57 51  2  0
 58 57  1  0
 58 53  2  0
 59 52  1  0
 60 50  1  0
 62 64  2  0
 63 62  1  0
 65 63  1  0
 66 75  2  0
 66 71  1  0
 67 63  1  0
 67 71  1  0
 68 67  1  0
 69 70  1  0
 69 68  1  0
 70 66  1  0
 71 72  2  0
 72 73  1  0
 74 73  2  0
 75 74  1  0
 76 50  1  0
 76 81  1  0
 76 77  1  0
 77 80  1  1
 77 78  1  0
 79 77  1  0
 81 84  1  0
 82 86  1  0
 82 81  1  0
 83 82  2  0
 86 85  1  0
 88 86  1  0
 88 89  1  0
 88 87  1  0
M  ISO  4   6 101  12 100  13 100  49 101
M  END
>  <TORSDO>  (45) 
F 19

>  <SCORE>  (45) 
-14.612

>  <name>  (45) 
44

>  <ligand_id>  (45) 
44

>  <original_smiles>  (45) 
[H]c1c([H])c(Oc2c([H])c([H])c3c(c2[H])C([H])([H])N(C(=O)C([H])(N([H])C(=O)C([H])(N([H])C([H])([H])[H])C([H])([H])[H])C(C([H])([H])[H])(C([H])([H])[H])C([H])([H])[H])C([H])(C(=O)N([H])C2([H])c4c([H])c([H])c([H])c([H])c4C([H])([H])C([H])([H])C2([H])[H])C3([H])[H])c(C([H])([H])[H])c(C(=O)C(=O)[N-]C(=O)N2C([H])([H])C([H])([H])C([H])([H])C([H])(n3nc(-c4c([H])c([H])c(Oc5c([H])c([H])c(F)c([H])c5F)c([H])c4[H])c(C(=O)N([H])[H])c3N([H])[H])C2([H])[H])c1[H]

>  <smiles>  (45) 
[H]c1c([H])c(Oc2c([H])c([H])c3c(c2[H])C([H])([H])N(C(=O)C([H])(N([H])C(=O)C([H])(N([H])C([H])([H])[H])C([H])([H])[H])C(C([H])([H])[H])(C([H])([H])[H])C([H])([H])[H])C([H])(C(=O)N([H])C2([H])c4c([H])c([H])c([H])c([H])c4C([H])([H])C([H])([H])C2([H])[H])C3([H])[H])c(C([H])([H])[H])c(C(=O)C(=O)[N-]C(=O)N2C([H])([H])C([H])([H])C([H])([H])C([H])(n3nc(-c4c([H])c([H])c(Oc5c([H])c([H])c(F)c([H])c5F)c([H])c4[H])c(C(=O)N([H])[H])c3N([H])[H])C2([H])[H])c1[H]

$$$$
45:0:0
     RDKit          3D

 87 93  0  0  1  0  0  0  0  0999 V2000
  -28.6300  -20.9200   21.2920 C   0  0  0  0  0  3  0  0  0  0  0  0
  -28.3190  -22.4670   21.2910 C   0  0  0  0  0  3  0  0  0  0  0  0
  -28.7140  -22.5330   19.1980 C   0  0  0  0  0  3  0  0  0  0  0  0
  -29.0550  -19.8790   20.2530 C   0  0  0  0  0  3  0  0  0  0  0  0
  -29.0310  -20.9750   19.1810 C   0  0  0  0  0  0  0  0  0  0  0  0
  -28.2680  -23.5720   20.2370 C   0  0  0  0  0  0  0  0  0  0  0  0
  -28.1540  -25.2810   20.2550 O   0  0  0  0  0  0  0  0  0  0  0  0
  -24.6660  -31.8750   23.1820 C   0  0  0  0  0  0  0  0  0  0  0  0
  -27.1680  -26.5720   20.2470 C   0  0  0  0  0  0  0  0  0  0  0  0
  -23.4790  -30.4590   21.5650 C   0  0  0  0  0  3  0  0  0  0  0  0
  -24.9210  -28.7530   20.1740 C   0  0  0  0  0  0  0  0  0  0  0  0
  -26.0660  -30.5320   21.4580 C   0  0  0  0  0  2  0  0  0  0  0  0
  -26.1220  -29.0690   20.8180 C   0  0  0  0  0  0  0  0  0  0  0  0
  -27.2140  -28.0130   20.8180 C   0  0  0  0  0  3  0  0  0  0  0  0
  -25.9320  -26.5310   19.5340 C   0  0  0  0  0  3  0  0  0  0  0  0
  -24.8780  -27.5120   19.5060 C   0  0  0  0  0  3  0  0  0  0  0  0
  -23.7250  -29.7320   20.2070 C   0  0  0  0  0  2  0  0  0  0  0  0
  -24.7640  -30.9950   22.1200 N   0  0  0  0  0  0  0  0  0  0  0  0
  -23.5710  -32.1890   23.6830 O   0  0  0  0  0  0  0  0  0  0  0  0
  -22.7460  -29.5100   22.5520 C   0  0  0  0  0  0  0  0  0  0  0  0
  -21.4120  -29.3550   22.4260 N   0  0  0  0  0  0  0  0  0  0  0  0
  -23.3940  -28.9070   23.4110 O   0  0  0  0  0  0  0  0  0  0  0  0
  -20.9360  -29.8910   21.7140 H   0  0  0  0  0  0  0  0  0  0  0  0
  -18.0300  -28.1170   22.9480 C   0  0  0  0  0  0  0  0  0  0  0  0
  -20.5860  -28.4250   23.2110 C   0  0  0  0  0  3  0  0  0  0  0  0
  -20.7050  -26.9830   22.6630 C   0  0  0  0  0  2  0  0  0  0  0  0
  -19.6120  -26.6310   21.6490 C   0  0  0  0  0  2  0  0  0  0  0  0
  -18.2270  -26.7630   22.2860 C   0  0  0  0  0  2  0  0  0  0  0  0
  -19.1360  -28.9040   23.3670 C   0  0  0  0  0  0  0  0  0  0  0  0
  -18.8930  -30.1650   23.9530 C   0  0  0  0  0  3  0  0  0  0  0  0
  -17.5800  -30.6420   24.1200 C   0  0  0  0  0  3  0  0  0  0  0  0
  -16.4890  -29.8550   23.7130 C   0  0  0  0  0  3  0  0  0  0  0  0
  -16.7150  -28.5940   23.1330 C   0  0  0  0  0  3  0  0  0  0  0  0
  -25.9220  -32.5430   23.8210 C   0  0  0  0  0  3  0  0  0  0  0  0
  -26.4210  -31.7980   25.1220 C   0  0  1  0  0  0  0  0  0  0  0  0
  -25.3130  -31.5770   26.1810 C   0  0  0  0  0  1  0  0  0  0  0  0
  -27.0140  -30.4130   24.7800 C   0  0  0  0  0  1  0  0  0  0  0  0
  -27.5610  -32.6080   25.7860 C   0  0  0  0  0  1  0  0  0  0  0  0
  -25.5900  -33.9450   24.1540 N   0  0  0  0  0  0  0  0  0  0  0  0
  -25.9060  -35.0160   23.4130 C   0  0  0  0  0  0  0  0  0  0  0  0
  -26.5590  -34.9290   22.3720 O   0  0  0  0  0  0  0  0  0  0  0  0
  -25.0030  -34.0860   24.9640 H   0  0  0  0  0  0  0  0  0  0  0  0
  -24.1640  -36.8190   23.1330 C   0  0  0  0  0  1  0  0  0  0  0  0
  -25.4290  -36.4040   23.9010 C   0  0  0  0  0  3  0  0  0  0  0  0
  -27.5760  -37.3040   24.6870 C   0  0  0  0  0  1  0  0  0  0  0  0
  -26.4540  -37.4640   23.7680 N   0  0  0  0  0  0  0  0  0  0  0  0
  -26.0440  -38.3820   23.9230 H   0  0  0  0  0  0  0  0  0  0  0  0
  -29.1700  -17.8770   20.3130 C   0  0  0  0  0 15  0  0  0  0  0  0
  -30.0990  -16.1120   20.1040 C   0  0  0  0  0  2  0  0  0  0  0  0
  -30.3530  -13.4750   19.3050 C   0  0  0  0  0  2  0  0  0  0  0  0
  -29.4650  -12.9320   18.1340 C   0  0  0  0  0  2  0  0  0  0  0  0
  -28.0810  -12.4880   18.6270 C   0  0  0  0  0  2  0  0  0  0  0  0
  -27.5440  -13.4870   19.6700 C   0  0  0  0  0  3  0  0  0  0  0  0
  -28.5790  -13.9190   20.7430 C   0  0  0  0  0  2  0  0  0  0  0  0
  -29.6890  -14.6600   20.0680 N   0  0  0  0  0  0  0  0  0  0  0  0
  -31.3290  -16.0350   19.8660 O   0  0  0  0  0  1  0  0  0  0  0  0
  -25.2140  -13.9510   20.5430 C   0  0  0  0  0  0  0  0  0  0  0  0
  -24.1780  -13.1510   20.9280 C   0  0  0  0  0  0  0  0  0  0  0  0
  -24.6600  -11.8080   20.8430 C   0  0  0  0  0  0  0  0  0  0  0  0
  -26.2580  -13.1000   20.2360 N   0  0  0  0  0  0  0  0  0  0  0  0
  -25.9420  -11.7990   20.4810 N   0  0  0  0  0  0  0  0  0  0  0  0
  -23.9460  -10.5340   21.0280 C   0  0  0  0  0  0  0  0  0  0  0  0
  -24.3950   -9.5580   21.9450 C   0  0  0  0  0  3  0  0  0  0  0  0
  -23.6750   -8.3560   22.1220 C   0  0  0  0  0  3  0  0  0  0  0  0
  -22.4920   -8.1200   21.3830 C   0  0  0  0  0  0  0  0  0  0  0  0
  -22.0610   -9.0850   20.4550 C   0  0  0  0  0  3  0  0  0  0  0  0
  -22.7820  -10.2780   20.2760 C   0  0  0  0  0  3  0  0  0  0  0  0
  -21.7440   -6.9710   21.4680 O   0  0  0  0  0  0  0  0  0  0  0  0
  -21.6890   -6.2310   22.6240 C   0  0  0  0  0  0  0  0  0  0  0  0
  -21.2090   -6.7770   23.8340 C   0  0  0  0  0  3  0  0  0  0  0  0
  -21.1040   -5.9640   24.9800 C   0  0  0  0  0  3  0  0  0  0  0  0
  -21.4670   -4.6060   24.9160 C   0  0  0  0  0  0  0  0  0  0  0  0
  -21.9380   -4.0580   23.7100 C   0  0  0  0  0  3  0  0  0  0  0  0
  -22.0450   -4.8690   22.5660 C   0  0  0  0  0  0  0  0  0  0  0  0
  -22.4790   -4.3310   21.4010 F   0  0  0  0  0  0  0  0  0  0  0  0
  -21.3590   -3.8220   26.0140 F   0  0  0  0  0  0  0  0  0  0  0  0
  -22.7870  -13.6080   21.2530 C   0  0  0  0  0  0  0  0  0  0  0  0
  -22.0950  -12.8910   22.1290 N   0  0  0  0  0  0  0  0  0  0  0  0
  -22.3260  -14.6410   20.7660 O   0  0  0  0  0  0  0  0  0  0  0  0
  -22.4830  -12.0580   22.5450 H   0  0  0  0  0  0  0  0  0  0  0  0
  -21.1620  -13.1790   22.3900 H   0  0  0  0  0  0  0  0  0  0  0  0
  -25.3540  -15.3280   20.3960 N   0  0  0  0  0  0  0  0  0  0  0  0
  -24.5820  -15.9670   20.5510 H   0  0  0  0  0  0  0  0  0  0  0  0
  -26.1820  -15.7870   20.0390 H   0  0  0  0  0  0  0  0  0  0  0  0
  -29.3760  -20.4410   17.8020 C   0  0  0  0  0  2  0  0  0  0  0  0
  -28.5090  -19.2200   15.7330 C   0  0  0  0  0  1  0  0  0  0  0  0
  -28.1570  -19.8310   17.0950 C   0  0  0  0  0  2  0  0  0  0  0  0
  2  1  1  0
  3  6  1  0
  4  1  2  0
  5  3  2  0
  5  4  1  0
  6  7  1  0
  6  2  2  0
  8 19  2  0
  9  7  1  0
  9 14  1  0
 10 18  1  0
 10 20  1  0
 11 17  1  0
 11 13  1  0
 12 18  1  0
 13 12  1  0
 14 13  2  0
 15  9  2  0
 16 15  1  0
 16 11  2  0
 17 10  1  0
 18  8  1  0
 20 22  2  0
 21 20  1  0
 23 21  1  0
 24 33  2  0
 24 29  1  0
 25 21  1  0
 25 29  1  0
 26 25  1  0
 27 28  1  0
 27 26  1  0
 28 24  1  0
 29 30  2  0
 30 31  1  0
 32 31  2  0
 33 32  1  0
 34  8  1  0
 34 39  1  0
 34 35  1  0
 35 38  1  1
 35 36  1  0
 37 35  1  0
 39 42  1  0
 40 44  1  0
 40 39  1  0
 41 40  2  0
 44 43  1  0
 46 44  1  0
 46 47  1  0
 46 45  1  0
 50 55  1  0
 51 52  1  0
 51 50  1  0
 53 52  1  0
 53 60  1  0
 53 54  1  0
 55 49  1  0
 55 54  1  0
 56 49  1  0
 57 58  2  0
 58 77  1  0
 59 58  1  0
 59 62  1  0
 60 61  1  0
 60 57  1  0
 61 59  2  0
 62 63  1  0
 63 64  2  0
 65 68  1  0
 65 64  1  0
 66 65  2  0
 67 66  1  0
 67 62  2  0
 68 69  1  0
 69 70  1  0
 70 71  2  0
 72 71  1  0
 72 76  1  0
 73 72  2  0
 74 69  2  0
 74 73  1  0
 75 74  1  0
 77 78  1  0
 78 81  1  0
 78 80  1  0
 79 77  2  0
 82 57  1  0
 82 83  1  0
 84 82  1  0
 85  5  1  0
 86 87  1  0
 87 85  1  0
M  ISO  4   6 101   7 101  48 100  49 100
M  END
>  <TORSDO>  (46) 
F 19

>  <SCORE>  (46) 
-15.758

>  <name>  (46) 
45

>  <ligand_id>  (46) 
45

>  <original_smiles>  (46) 
[H]c1c([H])c([H])c2c(c1[H])C([H])([H])C([H])([H])C([H])([H])C2([H])N([H])C(=O)C1([H])N(C(=O)C([H])(N([H])C(=O)C([H])(N([H])C([H])([H])[H])C([H])([H])[H])C(C([H])([H])[H])(C([H])([H])[H])C([H])([H])[H])C([H])([H])c2c([H])c(Oc3c([H])c([H])c(C([H])([H])C(=O)N4C([H])([H])C([H])([H])C([H])([H])C([H])(n5nc(-c6c([H])c([H])c(Oc7c([H])c([H])c(F)c([H])c7F)c([H])c6[H])c(C(=O)N([H])[H])c5N([H])[H])C4([H])[H])c(C([H])([H])C([H])([H])C([H])([H])[H])c3[H])c([H])c([H])c2C1([H])[H]

>  <smiles>  (46) 
[H]c1c([H])c([H])c2c(c1[H])C([H])([H])C([H])([H])C([H])([H])C2([H])N([H])C(=O)C1([H])N(C(=O)C([H])(N([H])C(=O)C([H])(N([H])C([H])([H])[H])C([H])([H])[H])C(C([H])([H])[H])(C([H])([H])[H])C([H])([H])[H])C([H])([H])c2c([H])c(Oc3c([H])c([H])c(C([H])([H])C(=O)N4C([H])([H])C([H])([H])C([H])([H])C([H])(n5nc(-c6c([H])c([H])c(Oc7c([H])c([H])c(F)c([H])c7F)c([H])c6[H])c(C(=O)N([H])[H])c5N([H])[H])C4([H])[H])c(C([H])([H])C([H])([H])C([H])([H])[H])c3[H])c([H])c([H])c2C1([H])[H]

$$$$
46:0:0
     RDKit          3D

 94102  0  0  1  0  0  0  0  0999 V2000
  -29.4720  -22.0550   20.0560 C   0  0  0  0  0  0  0  0  0  0  0  0
  -29.8440  -23.2190   20.6200 N   0  0  0  0  0  0  0  0  0  0  0  0
  -28.8430  -22.0260   18.9980 O   0  0  0  0  0  0  0  0  0  0  0  0
  -30.3460  -23.1660   21.5000 H   0  0  0  0  0  0  0  0  0  0  0  0
  -29.8780  -20.7450   20.7680 C   0  0  0  0  0  3  0  0  0  0  0  0
  -29.2540  -19.4400   20.1660 C   0  0  0  0  0  3  0  0  0  0  0  0
  -30.5800  -16.8990   22.6950 C   0  0  0  0  0  3  0  0  0  0  0  0
  -30.0600  -18.0500   22.0940 C   0  0  0  0  0  3  0  0  0  0  0  0
  -30.6330  -15.7520   20.5290 C   0  0  0  0  0  0  0  0  0  0  0  0
  -30.9010  -15.7670   21.9270 C   0  0  0  0  0  0  0  0  0  0  0  0
  -29.8260  -18.1090   20.7090 C   0  0  0  0  0  0  0  0  0  0  0  0
  -30.0760  -16.9360   19.9200 C   0  0  0  0  0  0  0  0  0  0  0  0
  -31.6010  -14.6300   22.6520 C   0  0  0  0  0  1  0  0  0  0  0  0
  -31.0730  -14.5600   19.6850 C   0  0  0  0  0  0  0  0  0  0  0  0
  -30.4650  -12.5520   18.3920 C   0  0  0  0  0  2  0  0  0  0  0  0
  -29.3960  -12.9000   17.3360 C   0  0  0  0  0  2  0  0  0  0  0  0
  -27.9790  -12.7860   17.9320 C   0  0  0  0  0  2  0  0  0  0  0  0
  -27.8460  -13.5110   19.2930 C   0  0  0  0  0  3  0  0  0  0  0  0
  -29.0140  -13.1870   20.2390 C   0  0  0  0  0  2  0  0  0  0  0  0
  -30.2790  -13.4600   19.5380 N   0  0  0  0  0  0  0  0  0  0  0  0
  -32.1260  -14.6950   19.0540 O   0  0  0  0  0  0  0  0  0  0  0  0
  -25.5810  -14.1620   20.3260 C   0  0  0  0  0  0  0  0  0  0  0  0
  -24.5340  -13.4040   20.7860 C   0  0  0  0  0  0  0  0  0  0  0  0
  -24.9400  -12.0430   20.6380 C   0  0  0  0  0  0  0  0  0  0  0  0
  -26.5530  -13.2570   19.9240 N   0  0  0  0  0  0  0  0  0  0  0  0
  -26.1810  -11.9770   20.1720 N   0  0  0  0  0  0  0  0  0  0  0  0
  -24.1950  -10.7960   20.8570 C   0  0  0  0  0  0  0  0  0  0  0  0
  -24.6540   -9.8070   21.7560 C   0  0  0  0  0  3  0  0  0  0  0  0
  -23.9080   -8.6260   21.9620 C   0  0  0  0  0  3  0  0  0  0  0  0
  -22.6890   -8.4270   21.2690 C   0  0  0  0  0  0  0  0  0  0  0  0
  -22.2500   -9.4050   20.3580 C   0  0  0  0  0  3  0  0  0  0  0  0
  -22.9950  -10.5770   20.1510 C   0  0  0  0  0  3  0  0  0  0  0  0
  -21.9130   -7.3000   21.3850 O   0  0  0  0  0  0  0  0  0  0  0  0
  -21.8450   -6.5900   22.5570 C   0  0  0  0  0  0  0  0  0  0  0  0
  -21.4510   -7.1920   23.7720 C   0  0  0  0  0  3  0  0  0  0  0  0
  -21.3290   -6.4110   24.9390 C   0  0  0  0  0  3  0  0  0  0  0  0
  -21.5920   -5.0290   24.8920 C   0  0  0  0  0  0  0  0  0  0  0  0
  -21.9790   -4.4260   23.6820 C   0  0  0  0  0  3  0  0  0  0  0  0
  -22.1030   -5.2040   22.5170 C   0  0  0  0  0  0  0  0  0  0  0  0
  -22.4560   -4.6140   21.3500 F   0  0  0  0  0  0  0  0  0  0  0  0
  -21.4670   -4.2770   26.0100 F   0  0  0  0  0  0  0  0  0  0  0  0
  -23.2000  -13.9160   21.2470 C   0  0  0  0  0  0  0  0  0  0  0  0
  -22.5760  -13.2330   22.2020 N   0  0  0  0  0  0  0  0  0  0  0  0
  -22.7230  -14.9560   20.7970 O   0  0  0  0  0  0  0  0  0  0  0  0
  -22.9720  -12.3890   22.5900 H   0  0  0  0  0  0  0  0  0  0  0  0
  -21.6890  -13.5640   22.5530 H   0  0  0  0  0  0  0  0  0  0  0  0
  -25.7800  -15.5320   20.2090 N   0  0  0  0  0  0  0  0  0  0  0  0
  -25.0800  -16.2160   20.4790 H   0  0  0  0  0  0  0  0  0  0  0  0
  -26.6480  -15.9550   19.9040 H   0  0  0  0  0  0  0  0  0  0  0  0
  -28.1390  -16.8310   18.2880 C   0  0  0  0  0  1  0  0  0  0  0  0
  -29.6620  -16.9140   18.4390 C   0  0  0  0  0  2  0  0  0  0  0  0
  -29.6960  -24.5680   20.0360 C   0  0  0  0  0  2  0  0  0  0  0  0
  -28.4550  -25.3440   20.5350 C   0  0  0  0  0  2  0  0  0  0  0  0
  -28.5080  -26.7230   20.1180 O   0  0  0  0  0  0  0  0  0  0  0  0
  -24.6360  -31.8470   23.2210 C   0  0  0  0  0  0  0  0  0  0  0  0
  -27.3220  -27.4310   20.1320 C   0  0  0  0  0  0  0  0  0  0  0  0
  -23.4400  -30.4450   21.5700 C   0  0  0  0  0  3  0  0  0  0  0  0
  -24.9120  -28.9210   20.1450 C   0  0  0  0  0  0  0  0  0  0  0  0
  -25.9630  -30.8230   21.3760 C   0  0  0  0  0  2  0  0  0  0  0  0
  -26.0650  -29.4520   20.7350 C   0  0  0  0  0  0  0  0  0  0  0  0
  -27.2700  -28.7130   20.7270 C   0  0  0  0  0  3  0  0  0  0  0  0
  -26.1570  -26.9210   19.5160 C   0  0  0  0  0  3  0  0  0  0  0  0
  -24.9520  -27.6530   19.5340 C   0  0  0  0  0  3  0  0  0  0  0  0
  -23.6600  -29.7700   20.1910 C   0  0  0  0  0  2  0  0  0  0  0  0
  -24.6980  -31.0520   22.1150 N   0  0  0  0  0  0  0  0  0  0  0  0
  -23.5550  -32.1080   23.7670 O   0  0  0  0  0  0  0  0  0  0  0  0
  -22.7960  -29.4150   22.5270 C   0  0  0  0  0  0  0  0  0  0  0  0
  -21.4690  -29.2400   22.4170 N   0  0  0  0  0  0  0  0  0  0  0  0
  -23.4900  -28.7750   23.3240 O   0  0  0  0  0  0  0  0  0  0  0  0
  -20.9670  -29.8160   21.7550 H   0  0  0  0  0  0  0  0  0  0  0  0
  -18.1040  -28.0390   22.9290 C   0  0  0  0  0  0  0  0  0  0  0  0
  -20.6620  -28.2940   23.1890 C   0  0  0  0  0  3  0  0  0  0  0  0
  -20.7630  -26.8680   22.6000 C   0  0  0  0  0  2  0  0  0  0  0  0
  -19.6570  -26.5650   21.5840 C   0  0  0  0  0  2  0  0  0  0  0  0
  -18.2800  -26.6960   22.2390 C   0  0  0  0  0  2  0  0  0  0  0  0
  -19.2240  -28.7990   23.3600 C   0  0  0  0  0  0  0  0  0  0  0  0
  -19.0090  -30.0570   23.9600 C   0  0  0  0  0  3  0  0  0  0  0  0
  -17.7030  -30.5580   24.1310 C   0  0  0  0  0  3  0  0  0  0  0  0
  -16.5960  -29.7960   23.7180 C   0  0  0  0  0  3  0  0  0  0  0  0
  -16.7990  -28.5370   23.1240 C   0  0  0  0  0  3  0  0  0  0  0  0
  -25.9210  -32.4860   23.8360 C   0  0  0  0  0  3  0  0  0  0  0  0
  -25.6070  -33.8820   24.1660 N   0  0  0  0  0  0  0  0  0  0  0  0
  -25.9360  -34.9360   23.4070 C   0  0  0  0  0  0  0  0  0  0  0  0
  -26.6110  -34.8390   22.3780 O   0  0  0  0  0  0  0  0  0  0  0  0
  -25.0140  -34.0270   24.9690 H   0  0  0  0  0  0  0  0  0  0  0  0
  -24.2100  -36.7260   23.0390 C   0  0  0  0  0  1  0  0  0  0  0  0
  -25.4380  -36.3190   23.8670 C   0  0  0  0  0  3  0  0  0  0  0  0
  -27.5550  -37.2100   24.7320 C   0  0  0  0  0  1  0  0  0  0  0  0
  -26.4670  -37.3760   23.7740 N   0  0  0  0  0  0  0  0  0  0  0  0
  -26.0510  -38.2920   23.9260 H   0  0  0  0  0  0  0  0  0  0  0  0
  -26.4470  -31.7150   25.1070 C   0  0  1  0  0  0  0  0  0  0  0  0
  -25.3610  -31.4700   26.1820 C   0  0  0  0  0  1  0  0  0  0  0  0
  -27.0420  -30.3440   24.7090 C   0  0  0  0  0  1  0  0  0  0  0  0
  -27.5900  -32.5170   25.7730 C   0  0  0  0  0  1  0  0  0  0  0  0
  1  2  1  0
  1  5  1  0
  2  4  1  0
  3  1  2  0
  6 11  1  0
  6  5  2  0
  8  7  1  0
  9 10  1  0
 10 13  1  0
 10  7  2  0
 11  8  2  0
 12  9  2  0
 12 11  1  0
 14  9  1  0
 15 20  1  0
 16 17  1  0
 16 15  1  0
 18 17  1  0
 18 25  1  0
 18 19  1  0
 20 14  1  0
 20 19  1  0
 21 14  2  0
 22 23  2  0
 23 42  1  0
 24 23  1  0
 24 27  1  0
 25 26  1  0
 25 22  1  0
 26 24  2  0
 27 28  1  0
 28 29  2  0
 30 33  1  0
 30 29  1  0
 31 30  2  0
 32 31  1  0
 32 27  2  0
 33 34  1  0
 34 35  1  0
 35 36  2  0
 37 36  1  0
 37 41  1  0
 38 37  2  0
 39 34  2  0
 39 38  1  0
 40 39  1  0
 42 43  1  0
 43 46  1  0
 43 45  1  0
 44 42  2  0
 47 22  1  0
 47 48  1  0
 49 47  1  0
 50 51  1  0
 51 12  1  0
 52 53  1  0
 52  2  1  0
 54 56  1  0
 54 53  1  0
 55 66  2  0
 56 61  1  0
 57 65  1  0
 57 67  1  0
 58 64  1  0
 58 60  1  0
 59 65  1  0
 60 59  1  0
 61 60  2  0
 62 63  1  0
 62 56  2  0
 63 58  2  0
 64 57  1  0
 65 55  1  0
 67 69  2  0
 68 67  1  0
 70 68  1  0
 71 80  2  0
 71 76  1  0
 72 68  1  0
 72 76  1  0
 73 72  1  0
 74 75  1  0
 74 73  1  0
 75 71  1  0
 76 77  2  0
 77 78  1  0
 79 78  2  0
 80 79  1  0
 81 55  1  0
 81 82  1  0
 81 91  1  0
 82 85  1  0
 83 87  1  0
 83 82  1  0
 84 83  2  0
 87 86  1  0
 89 87  1  0
 89 90  1  0
 89 88  1  0
 91 94  1  1
 91 92  1  0
 93 91  1  0
M  ISO  4   9 100  14 100  53 101  54 101
M  END
>  <TORSDO>  (47) 
F 22

>  <SCORE>  (47) 
-9.796

>  <name>  (47) 
46

>  <ligand_id>  (47) 
46

>  <original_smiles>  (47) 
[H]c1c([H])c([H])c2c(c1[H])C([H])([H])C([H])([H])C([H])([H])C2([H])N([H])C(=O)C1([H])N(C(=O)C([H])(N([H])C(=O)C([H])(N([H])C([H])([H])[H])C([H])([H])[H])C(C([H])([H])[H])(C([H])([H])[H])C([H])([H])[H])C([H])([H])c2c([H])c(OC([H])([H])C([H])([H])N([H])C(=O)C([H])([H])C([H])([H])c3c([H])c([H])c(C([H])([H])[H])c(C(=O)N4C([H])([H])C([H])([H])C([H])([H])C([H])(n5nc(-c6c([H])c([H])c(Oc7c([H])c([H])c(F)c([H])c7F)c([H])c6[H])c(C(=O)N([H])[H])c5N([H])[H])C4([H])[H])c3C([H])([H])C([H])([H])[H])c([H])c([H])c2C1([H])[H]

>  <smiles>  (47) 
[H]c1c([H])c([H])c2c(c1[H])C([H])([H])C([H])([H])C([H])([H])C2([H])N([H])C(=O)C1([H])N(C(=O)C([H])(N([H])C(=O)C([H])(N([H])C([H])([H])[H])C([H])([H])[H])C(C([H])([H])[H])(C([H])([H])[H])C([H])([H])[H])C([H])([H])c2c([H])c(OC([H])([H])C([H])([H])N([H])C(=O)C([H])([H])C([H])([H])c3c([H])c([H])c(C([H])([H])[H])c(C(=O)N4C([H])([H])C([H])([H])C([H])([H])C([H])(n5nc(-c6c([H])c([H])c(Oc7c([H])c([H])c(F)c([H])c7F)c([H])c6[H])c(C(=O)N([H])[H])c5N([H])[H])C4([H])[H])c3C([H])([H])C([H])([H])[H])c([H])c([H])c2C1([H])[H]

$$$$
47:0:0
     RDKit          3D

 87 95  0  0  1  0  0  0  0  0999 V2000
  -29.4090  -18.1030   19.1510 C   0  0  0  0  0  3  0  0  0  0  0  0
  -29.0970  -19.5930   19.1400 C   0  0  0  0  0  3  0  0  0  0  0  0
  -29.8240  -19.7430   21.2540 C   0  0  0  0  0  3  0  0  0  0  0  0
  -29.9680  -17.2310   20.2150 C   0  0  0  0  0  0  0  0  0  0  0  0
  -29.2660  -20.6200   20.1960 C   0  0  0  0  0  0  0  0  0  0  0  0
  -30.1480  -18.2560   21.2740 C   0  0  0  0  0  0  0  0  0  0  0  0
  -30.6000  -15.6000   20.0980 C   0  0  0  0  0  0  0  0  0  0  0  0
  -30.6020  -13.0910   19.2650 C   0  0  0  0  0  2  0  0  0  0  0  0
  -29.6710  -12.7750   18.0630 C   0  0  0  0  0  2  0  0  0  0  0  0
  -28.2530  -12.4410   18.5500 C   0  0  0  0  0  2  0  0  0  0  0  0
  -27.7900  -13.4210   19.6530 C   0  0  0  0  0  3  0  0  0  0  0  0
  -28.8530  -13.6920   20.7390 C   0  0  0  0  0  2  0  0  0  0  0  0
  -30.0370  -14.2620   20.0660 N   0  0  0  0  0  0  0  0  0  0  0  0
  -31.8160  -15.5010   19.8490 O   0  0  0  0  0  0  0  0  0  0  0  0
  -25.4610  -13.9280   20.5330 C   0  0  0  0  0  0  0  0  0  0  0  0
  -24.4180  -13.1340   20.9170 C   0  0  0  0  0  0  0  0  0  0  0  0
  -24.8890  -11.7870   20.8260 C   0  0  0  0  0  0  0  0  0  0  0  0
  -26.4940  -13.0670   20.2150 N   0  0  0  0  0  0  0  0  0  0  0  0
  -26.1680  -11.7700   20.4600 N   0  0  0  0  0  0  0  0  0  0  0  0
  -24.1710  -10.5170   21.0030 C   0  0  0  0  0  0  0  0  0  0  0  0
  -24.5990   -9.5480   21.9370 C   0  0  0  0  0  3  0  0  0  0  0  0
  -23.8760   -8.3460   22.1050 C   0  0  0  0  0  3  0  0  0  0  0  0
  -22.7110   -8.1060   21.3400 C   0  0  0  0  0  0  0  0  0  0  0  0
  -22.3010   -9.0640   20.3960 C   0  0  0  0  0  3  0  0  0  0  0  0
  -23.0250  -10.2560   20.2260 C   0  0  0  0  0  3  0  0  0  0  0  0
  -21.9610   -6.9570   21.4170 O   0  0  0  0  0  0  0  0  0  0  0  0
  -21.8460   -6.2490   22.5870 C   0  0  0  0  0  0  0  0  0  0  0  0
  -21.3020   -6.8250   23.7560 C   0  0  0  0  0  3  0  0  0  0  0  0
  -21.1370   -6.0420   24.9160 C   0  0  0  0  0  3  0  0  0  0  0  0
  -21.5060   -4.6840   24.9080 C   0  0  0  0  0  0  0  0  0  0  0  0
  -22.0420   -4.1070   23.7430 C   0  0  0  0  0  3  0  0  0  0  0  0
  -22.2080   -4.8870   22.5860 C   0  0  0  0  0  0  0  0  0  0  0  0
  -22.7060   -4.3200   21.4600 F   0  0  0  0  0  0  0  0  0  0  0  0
  -21.3420   -3.9300   26.0190 F   0  0  0  0  0  0  0  0  0  0  0  0
  -23.0310  -13.5990   21.2520 C   0  0  0  0  0  0  0  0  0  0  0  0
  -22.3410  -12.8830   22.1310 N   0  0  0  0  0  0  0  0  0  0  0  0
  -22.5720  -14.6310   20.7680 O   0  0  0  0  0  0  0  0  0  0  0  0
  -22.7280  -12.0470   22.5430 H   0  0  0  0  0  0  0  0  0  0  0  0
  -21.4120  -13.1750   22.3980 H   0  0  0  0  0  0  0  0  0  0  0  0
  -25.6140  -15.3050   20.3950 N   0  0  0  0  0  0  0  0  0  0  0  0
  -24.8540  -15.9540   20.5680 H   0  0  0  0  0  0  0  0  0  0  0  0
  -26.4560  -15.7600   20.0660 H   0  0  0  0  0  0  0  0  0  0  0  0
  -30.7210  -17.8110   22.4310 O   0  0  0  0  0  0  0  0  0  0  0  0
  -30.8330  -18.4970   23.0830 H   0  0  0  0  0  0  0  0  0  0  0  0
  -29.2400  -22.4560   20.1400 C   0  0  0  0  0  3  0  0  0  0  0  0
  -28.1420  -23.9930   20.0810 C   0  0  0  0  0  3  0  0  0  0  0  0
  -28.3310  -25.7060   20.1670 O   0  0  0  0  0  0  0  0  0  0  0  0
  -24.7430  -31.8050   23.1710 C   0  0  0  0  0  0  0  0  0  0  0  0
  -27.3350  -26.8660   20.1200 C   0  0  0  0  0  0  0  0  0  0  0  0
  -23.5770  -30.4310   21.4980 C   0  0  0  0  0  3  0  0  0  0  0  0
  -25.0470  -28.8300   20.0710 C   0  0  0  0  0  0  0  0  0  0  0  0
  -26.1520  -30.6140   21.3970 C   0  0  0  0  0  2  0  0  0  0  0  0
  -26.2310  -29.2010   20.7180 C   0  0  0  0  0  0  0  0  0  0  0  0
  -27.3640  -28.2460   20.7110 C   0  0  0  0  0  3  0  0  0  0  0  0
  -26.1160  -26.6810   19.4240 C   0  0  0  0  0  3  0  0  0  0  0  0
  -25.0220  -27.5940   19.4030 C   0  0  0  0  0  3  0  0  0  0  0  0
  -23.8310  -29.7640   20.1170 C   0  0  0  0  0  2  0  0  0  0  0  0
  -24.8470  -30.9810   22.0760 N   0  0  0  0  0  0  0  0  0  0  0  0
  -23.6450  -32.0870   23.6790 O   0  0  0  0  0  0  0  0  0  0  0  0
  -22.8640  -29.4270   22.4430 C   0  0  0  0  0  0  0  0  0  0  0  0
  -21.5300  -29.2830   22.3170 N   0  0  0  0  0  0  0  0  0  0  0  0
  -23.5200  -28.7770   23.2600 O   0  0  0  0  0  0  0  0  0  0  0  0
  -21.0530  -29.8590   21.6380 H   0  0  0  0  0  0  0  0  0  0  0  0
  -18.1310  -28.1160   22.8370 C   0  0  0  0  0  0  0  0  0  0  0  0
  -20.7000  -28.3330   23.0670 C   0  0  0  0  0  3  0  0  0  0  0  0
  -20.7660  -26.9210   22.4390 C   0  0  0  0  0  2  0  0  0  0  0  0
  -19.6440  -26.6540   21.4320 C   0  0  0  0  0  2  0  0  0  0  0  0
  -18.2750  -26.7940   22.1030 C   0  0  0  0  0  2  0  0  0  0  0  0
  -19.2680  -28.8460   23.2760 C   0  0  0  0  0  0  0  0  0  0  0  0
  -19.0760  -30.0840   23.9270 C   0  0  0  0  0  3  0  0  0  0  0  0
  -17.7810  -30.5920   24.1410 C   0  0  0  0  0  3  0  0  0  0  0  0
  -16.6590  -29.8600   23.7150 C   0  0  0  0  0  3  0  0  0  0  0  0
  -16.8350  -28.6230   23.0700 C   0  0  0  0  0  3  0  0  0  0  0  0
  -25.9990  -32.4480   23.8350 C   0  0  0  0  0  3  0  0  0  0  0  0
  -26.4860  -31.6700   25.1200 C   0  0  1  0  0  0  0  0  0  0  0  0
  -25.3680  -31.4250   26.1620 C   0  0  0  0  0  1  0  0  0  0  0  0
  -27.0800  -30.2940   24.7430 C   0  0  0  0  0  1  0  0  0  0  0  0
  -27.6200  -32.4610   25.8130 C   0  0  0  0  0  1  0  0  0  0  0  0
  -25.6680  -33.8420   24.1890 N   0  0  0  0  0  0  0  0  0  0  0  0
  -25.9600  -34.9160   23.4420 C   0  0  0  0  0  0  0  0  0  0  0  0
  -26.5950  -34.8400   22.3880 O   0  0  0  0  0  0  0  0  0  0  0  0
  -25.1000  -33.9730   25.0110 H   0  0  0  0  0  0  0  0  0  0  0  0
  -24.1760  -36.6810   23.2170 C   0  0  0  0  0  1  0  0  0  0  0  0
  -25.4750  -36.2940   23.9430 C   0  0  0  0  0  3  0  0  0  0  0  0
  -27.6310  -37.2320   24.6530 C   0  0  0  0  0  1  0  0  0  0  0  0
  -26.4740  -37.3710   23.7720 N   0  0  0  0  0  0  0  0  0  0  0  0
  -26.0560  -38.2820   23.9400 H   0  0  0  0  0  0  0  0  0  0  0  0
  1  4  1  0
  2  1  2  0
  2  5  1  0
  3  6  1  0
  4  6  2  0
  5  3  2  0
  6 43  1  0
  7  4  1  0
  8 13  1  0
  9 10  1  0
  9  8  1  0
 11 10  1  0
 11 18  1  0
 11 12  1  0
 13  7  1  0
 13 12  1  0
 14  7  2  0
 15 16  2  0
 16 35  1  0
 17 16  1  0
 17 20  1  0
 18 19  1  0
 18 15  1  0
 19 17  2  0
 20 21  1  0
 21 22  2  0
 23 26  1  0
 23 22  1  0
 24 23  2  0
 25 24  1  0
 25 20  2  0
 26 27  1  0
 27 28  1  0
 28 29  2  0
 30 29  1  0
 30 34  1  0
 31 30  2  0
 32 27  2  0
 32 31  1  0
 33 32  1  0
 35 36  1  0
 36 39  1  0
 36 38  1  0
 37 35  2  0
 40 15  1  0
 40 41  1  0
 42 40  1  0
 43 44  1  0
 45  5  1  0
 46 45  2  0
 46 47  1  0
 48 59  2  0
 49 47  1  0
 49 54  1  0
 50 58  1  0
 50 60  1  0
 51 57  1  0
 51 53  1  0
 52 58  1  0
 53 52  1  0
 54 53  2  0
 55 49  2  0
 56 55  1  0
 56 51  2  0
 57 50  1  0
 58 48  1  0
 60 62  2  0
 61 60  1  0
 63 61  1  0
 64 73  2  0
 64 69  1  0
 65 61  1  0
 65 69  1  0
 66 65  1  0
 67 68  1  0
 67 66  1  0
 68 64  1  0
 69 70  2  0
 70 71  1  0
 72 71  2  0
 73 72  1  0
 74 48  1  0
 74 79  1  0
 74 75  1  0
 75 78  1  1
 75 76  1  0
 77 75  1  0
 79 82  1  0
 80 84  1  0
 80 79  1  0
 81 80  2  0
 84 83  1  0
 86 87  1  0
 86 84  1  0
 86 85  1  0
M  ISO  4   4 100   7 100  46 101  47 101
M  END
>  <TORSDO>  (48) 
F 19

>  <SCORE>  (48) 
-16.137

>  <name>  (48) 
47

>  <ligand_id>  (48) 
47

>  <original_smiles>  (48) 
[H]Oc1c([H])c(C([H])([H])C([H])([H])Oc2c([H])c([H])c3c(c2[H])C([H])([H])N(C(=O)C([H])(N([H])C(=O)C([H])(N([H])C([H])([H])[H])C([H])([H])[H])C(C([H])([H])[H])(C([H])([H])[H])C([H])([H])[H])C([H])(C(=O)N([H])C2([H])c4c([H])c([H])c([H])c([H])c4C([H])([H])C([H])([H])C2([H])[H])C3([H])[H])c([H])c([H])c1C(=O)N1C([H])([H])C([H])([H])C([H])([H])C([H])(n2nc(-c3c([H])c([H])c(Oc4c([H])c([H])c(F)c([H])c4F)c([H])c3[H])c(C(=O)N([H])[H])c2N([H])[H])C1([H])[H]

>  <smiles>  (48) 
[H]Oc1c([H])c(C([H])([H])C([H])([H])Oc2c([H])c([H])c3c(c2[H])C([H])([H])N(C(=O)C([H])(N([H])C(=O)C([H])(N([H])C([H])([H])[H])C([H])([H])[H])C(C([H])([H])[H])(C([H])([H])[H])C([H])([H])[H])C([H])(C(=O)N([H])C2([H])c4c([H])c([H])c([H])c([H])c4C([H])([H])C([H])([H])C2([H])[H])C3([H])[H])c([H])c([H])c1C(=O)N1C([H])([H])C([H])([H])C([H])([H])C([H])(n2nc(-c3c([H])c([H])c(Oc4c([H])c([H])c(F)c([H])c4F)c([H])c3[H])c(C(=O)N([H])[H])c2N([H])[H])C1([H])[H]

$$$$
48:0:0
     RDKit          3D

 89 95  0  0  1  0  0  0  0  0999 V2000
  -29.0440  -20.9890   21.3690 C   0  0  0  0  0  3  0  0  0  0  0  0
  -28.7300  -22.5320   21.3710 C   0  0  0  0  0  3  0  0  0  0  0  0
  -29.2270  -19.9120   20.3040 C   0  0  0  0  0  3  0  0  0  0  0  0
  -28.9480  -20.9620   19.2190 C   0  0  0  0  0  0  0  0  0  0  0  0
  -28.4360  -23.5950   20.3150 C   0  0  0  0  0  0  0  0  0  0  0  0
  -28.6510  -22.5320   19.2170 C   0  0  0  0  0  0  0  0  0  0  0  0
  -29.1820  -24.2850   17.6710 C   0  0  0  0  0  1  0  0  0  0  0  0
  -28.5760  -23.0230   17.9310 O   0  0  0  0  0  0  0  0  0  0  0  0
  -28.3090  -25.3050   20.3710 O   0  0  0  0  0  0  0  0  0  0  0  0
  -24.7500  -31.8980   23.2230 C   0  0  0  0  0  0  0  0  0  0  0  0
  -27.3190  -26.5940   20.3390 C   0  0  0  0  0  0  0  0  0  0  0  0
  -23.5960  -30.4760   21.5870 C   0  0  0  0  0  3  0  0  0  0  0  0
  -25.0650  -28.7700   20.2230 C   0  0  0  0  0  0  0  0  0  0  0  0
  -26.1840  -30.5550   21.5240 C   0  0  0  0  0  2  0  0  0  0  0  0
  -26.2550  -29.0900   20.8860 C   0  0  0  0  0  0  0  0  0  0  0  0
  -27.3510  -28.0380   20.9050 C   0  0  0  0  0  3  0  0  0  0  0  0
  -26.0930  -26.5480   19.6070 C   0  0  0  0  0  3  0  0  0  0  0  0
  -25.0380  -27.5280   19.5590 C   0  0  0  0  0  3  0  0  0  0  0  0
  -23.8660  -29.7470   20.2350 C   0  0  0  0  0  2  0  0  0  0  0  0
  -24.8700  -31.0160   22.1640 N   0  0  0  0  0  0  0  0  0  0  0  0
  -23.6460  -32.2100   23.7040 O   0  0  0  0  0  0  0  0  0  0  0  0
  -22.8470  -29.5280   22.5650 C   0  0  0  0  0  0  0  0  0  0  0  0
  -21.5130  -29.3850   22.4260 N   0  0  0  0  0  0  0  0  0  0  0  0
  -23.4840  -28.9130   23.4230 O   0  0  0  0  0  0  0  0  0  0  0  0
  -21.0470  -29.9290   21.7140 H   0  0  0  0  0  0  0  0  0  0  0  0
  -18.1110  -28.1930   22.9380 C   0  0  0  0  0  0  0  0  0  0  0  0
  -20.6730  -28.4570   23.1980 C   0  0  0  0  0  3  0  0  0  0  0  0
  -20.7670  -27.0200   22.6310 C   0  0  0  0  0  2  0  0  0  0  0  0
  -19.6670  -26.7000   21.6130 C   0  0  0  0  0  2  0  0  0  0  0  0
  -18.2850  -26.8460   22.2560 C   0  0  0  0  0  2  0  0  0  0  0  0
  -19.2320  -28.9560   23.3650 C   0  0  0  0  0  0  0  0  0  0  0  0
  -19.0100  -30.2120   23.9710 C   0  0  0  0  0  3  0  0  0  0  0  0
  -17.7030  -30.7060   24.1480 C   0  0  0  0  0  3  0  0  0  0  0  0
  -16.5990  -29.9430   23.7300 C   0  0  0  0  0  3  0  0  0  0  0  0
  -16.8040  -28.6860   23.1330 C   0  0  0  0  0  3  0  0  0  0  0  0
  -25.9930  -32.5700   23.8830 C   0  0  0  0  0  3  0  0  0  0  0  0
  -26.4710  -31.8290   25.1950 C   0  0  1  0  0  0  0  0  0  0  0  0
  -25.3450  -31.6070   26.2330 C   0  0  0  0  0  1  0  0  0  0  0  0
  -27.0750  -30.4460   24.8670 C   0  0  0  0  0  1  0  0  0  0  0  0
  -27.5950  -32.6430   25.8800 C   0  0  0  0  0  1  0  0  0  0  0  0
  -25.6530  -33.9730   24.2070 N   0  0  0  0  0  0  0  0  0  0  0  0
  -25.9660  -35.0420   23.4600 C   0  0  0  0  0  0  0  0  0  0  0  0
  -26.6230  -34.9500   22.4210 O   0  0  0  0  0  0  0  0  0  0  0  0
  -25.0640  -34.1150   25.0150 H   0  0  0  0  0  0  0  0  0  0  0  0
  -24.1970  -36.8180   23.1800 C   0  0  0  0  0  1  0  0  0  0  0  0
  -25.4800  -36.4290   23.9360 C   0  0  0  0  0  3  0  0  0  0  0  0
  -27.6290  -37.3640   24.6770 C   0  0  0  0  0  1  0  0  0  0  0  0
  -26.4890  -37.5000   23.7730 N   0  0  0  0  0  0  0  0  0  0  0  0
  -26.0730  -38.4140   23.9260 H   0  0  0  0  0  0  0  0  0  0  0  0
  -29.3360  -17.9080   20.3600 C   0  0  0  0  0 15  0  0  0  0  0  0
  -30.2680  -16.1460   20.1550 C   0  0  0  0  0  2  0  0  0  0  0  0
  -30.5540  -13.5050   19.3830 C   0  0  0  0  0  2  0  0  0  0  0  0
  -29.6900  -12.9420   18.2030 C   0  0  0  0  0  2  0  0  0  0  0  0
  -28.3030  -12.4900   18.6810 C   0  0  0  0  0  2  0  0  0  0  0  0
  -27.7390  -13.4970   19.7000 C   0  0  0  0  0  3  0  0  0  0  0  0
  -28.7510  -13.9470   20.7860 C   0  0  0  0  0  2  0  0  0  0  0  0
  -29.8680  -14.6900   20.1250 N   0  0  0  0  0  0  0  0  0  0  0  0
  -31.5010  -16.0730   19.9320 O   0  0  0  0  0  1  0  0  0  0  0  0
  -25.3940  -13.9550   20.5350 C   0  0  0  0  0  0  0  0  0  0  0  0
  -24.3540  -13.1520   20.9040 C   0  0  0  0  0  0  0  0  0  0  0  0
  -24.8410  -11.8100   20.8270 C   0  0  0  0  0  0  0  0  0  0  0  0
  -26.4450  -13.1080   20.2450 N   0  0  0  0  0  0  0  0  0  0  0  0
  -26.1280  -11.8050   20.4860 N   0  0  0  0  0  0  0  0  0  0  0  0
  -24.1280  -10.5350   21.0010 C   0  0  0  0  0  0  0  0  0  0  0  0
  -24.5460   -9.5750   21.9490 C   0  0  0  0  0  3  0  0  0  0  0  0
  -23.8270   -8.3700   22.1140 C   0  0  0  0  0  3  0  0  0  0  0  0
  -22.6760   -8.1170   21.3310 C   0  0  0  0  0  0  0  0  0  0  0  0
  -22.2770   -9.0660   20.3740 C   0  0  0  0  0  3  0  0  0  0  0  0
  -22.9960  -10.2620   20.2060 C   0  0  0  0  0  3  0  0  0  0  0  0
  -21.9300   -6.9650   21.4040 O   0  0  0  0  0  0  0  0  0  0  0  0
  -21.8030   -6.2610   22.5750 C   0  0  0  0  0  0  0  0  0  0  0  0
  -21.2550   -6.8440   23.7380 C   0  0  0  0  0  3  0  0  0  0  0  0
  -21.0780   -6.0650   24.9000 C   0  0  0  0  0  3  0  0  0  0  0  0
  -21.4400   -4.7050   24.8990 C   0  0  0  0  0  0  0  0  0  0  0  0
  -21.9810   -4.1210   23.7390 C   0  0  0  0  0  3  0  0  0  0  0  0
  -22.1580   -4.8960   22.5810 C   0  0  0  0  0  0  0  0  0  0  0  0
  -22.6610   -4.3230   21.4600 F   0  0  0  0  0  0  0  0  0  0  0  0
  -21.2630   -3.9550   26.0120 F   0  0  0  0  0  0  0  0  0  0  0  0
  -22.9560  -13.6050   21.2080 C   0  0  0  0  0  0  0  0  0  0  0  0
  -22.2540  -12.8860   22.0740 N   0  0  0  0  0  0  0  0  0  0  0  0
  -22.5000  -14.6360   20.7140 O   0  0  0  0  0  0  0  0  0  0  0  0
  -22.6380  -12.0530   22.4940 H   0  0  0  0  0  0  0  0  0  0  0  0
  -21.3180  -13.1740   22.3220 H   0  0  0  0  0  0  0  0  0  0  0  0
  -25.5310  -15.3330   20.3890 N   0  0  0  0  0  0  0  0  0  0  0  0
  -24.7520  -15.9670   20.5320 H   0  0  0  0  0  0  0  0  0  0  0  0
  -26.3640  -15.7970   20.0530 H   0  0  0  0  0  0  0  0  0  0  0  0
  -28.9590  -20.3060   17.8410 C   0  0  0  0  0  2  0  0  0  0  0  0
  -27.5550  -19.2120   16.0160 C   0  0  0  0  0  1  0  0  0  0  0  0
  -27.5620  -19.8300   17.4170 C   0  0  0  0  0  2  0  0  0  0  0  0
  1  2  1  0
  3  1  2  0
  4  3  1  0
  5  9  1  0
  5  2  2  0
  6  4  2  0
  6  5  1  0
  7  8  1  0
  8  6  1  0
 10 21  2  0
 11  9  1  0
 11 16  1  0
 12 20  1  0
 12 22  1  0
 13 19  1  0
 13 15  1  0
 14 20  1  0
 15 16  2  0
 15 14  1  0
 17 11  2  0
 18 17  1  0
 18 13  2  0
 19 12  1  0
 20 10  1  0
 22 24  2  0
 23 22  1  0
 25 23  1  0
 26 35  2  0
 26 31  1  0
 27 23  1  0
 27 31  1  0
 28 27  1  0
 29 30  1  0
 29 28  1  0
 30 26  1  0
 31 32  2  0
 32 33  1  0
 34 33  2  0
 35 34  1  0
 36 10  1  0
 36 41  1  0
 36 37  1  0
 37 40  1  1
 37 38  1  0
 39 37  1  0
 41 44  1  0
 42 46  1  0
 42 41  1  0
 43 42  2  0
 46 45  1  0
 48 49  1  0
 48 46  1  0
 48 47  1  0
 52 57  1  0
 53 54  1  0
 53 52  1  0
 55 54  1  0
 55 62  1  0
 55 56  1  0
 57 51  1  0
 57 56  1  0
 58 51  1  0
 59 60  2  0
 60 79  1  0
 61 60  1  0
 61 64  1  0
 62 63  1  0
 62 59  1  0
 63 61  2  0
 64 65  1  0
 65 66  2  0
 67 70  1  0
 67 66  1  0
 68 67  2  0
 69 68  1  0
 69 64  2  0
 70 71  1  0
 71 76  2  0
 71 72  1  0
 72 73  2  0
 74 73  1  0
 74 78  1  0
 75 74  2  0
 76 75  1  0
 77 76  1  0
 79 80  1  0
 80 83  1  0
 80 82  1  0
 81 79  2  0
 84 85  1  0
 84 59  1  0
 86 84  1  0
 87  4  1  0
 88 89  1  0
 89 87  1  0
M  ISO  4   5 101   9 101  50 100  51 100
M  END
>  <TORSDO>  (49) 
F 20

>  <SCORE>  (49) 
-15.125

>  <name>  (49) 
48

>  <ligand_id>  (49) 
48

>  <original_smiles>  (49) 
[H]c1c([H])c([H])c2c(c1[H])C([H])([H])C([H])([H])C([H])([H])C2([H])N([H])C(=O)C1([H])N(C(=O)C([H])(N([H])C(=O)C([H])(N([H])C([H])([H])[H])C([H])([H])[H])C(C([H])([H])[H])(C([H])([H])[H])C([H])([H])[H])C([H])([H])c2c([H])c(Oc3c([H])c([H])c(C([H])([H])C(=O)N4C([H])([H])C([H])([H])C([H])([H])C([H])(n5nc(-c6c([H])c([H])c(Oc7c([H])c([H])c(F)c([H])c7F)c([H])c6[H])c(C(=O)N([H])[H])c5N([H])[H])C4([H])[H])c(C([H])([H])C([H])([H])C([H])([H])[H])c3OC([H])([H])[H])c([H])c([H])c2C1([H])[H]

>  <smiles>  (49) 
[H]c1c([H])c([H])c2c(c1[H])C([H])([H])C([H])([H])C([H])([H])C2([H])N([H])C(=O)C1([H])N(C(=O)C([H])(N([H])C(=O)C([H])(N([H])C([H])([H])[H])C([H])([H])[H])C(C([H])([H])[H])(C([H])([H])[H])C([H])([H])[H])C([H])([H])c2c([H])c(Oc3c([H])c([H])c(C([H])([H])C(=O)N4C([H])([H])C([H])([H])C([H])([H])C([H])(n5nc(-c6c([H])c([H])c(Oc7c([H])c([H])c(F)c([H])c7F)c([H])c6[H])c(C(=O)N([H])[H])c5N([H])[H])C4([H])[H])c(C([H])([H])C([H])([H])C([H])([H])[H])c3OC([H])([H])[H])c([H])c([H])c2C1([H])[H]

$$$$
49:0:0
     RDKit          3D

 92100  0  0  1  0  0  0  0  0999 V2000
  -29.1110  -20.9750   20.8050 C   0  0  0  0  0  0  0  0  0  0  0  0
  -28.9620  -22.1160   20.0030 N   0  0  0  0  0  0  0  0  0  0  0  0
  -29.0530  -21.1470   22.0240 O   0  0  0  0  0  0  0  0  0  0  0  0
  -28.9530  -21.9450   19.0060 H   0  0  0  0  0  0  0  0  0  0  0  0
  -28.7860  -18.3540   21.0830 C   0  0  0  0  0  3  0  0  0  0  0  0
  -29.1470  -16.9620   20.8970 C   0  0  0  0  0  3  0  0  0  0  0  0
  -30.2940  -19.0160   19.3940 C   0  0  0  0  0  3  0  0  0  0  0  0
  -29.3480  -19.4620   20.3600 C   0  0  0  0  0  0  0  0  0  0  0  0
  -30.1360  -16.5070   19.9660 C   0  0  0  0  0  0  0  0  0  0  0  0
  -30.6810  -17.6240   19.2020 C   0  0  0  0  0  0  0  0  0  0  0  0
  -30.7200  -15.0080   19.8800 C   0  0  0  0  0  0  0  0  0  0  0  0
  -30.4260  -12.6800   18.9830 C   0  0  0  0  0  2  0  0  0  0  0  0
  -29.4440  -12.6870   17.7910 C   0  0  0  0  0  2  0  0  0  0  0  0
  -28.0000  -12.5030   18.2930 C   0  0  0  0  0  2  0  0  0  0  0  0
  -27.6700  -13.4220   19.4990 C   0  0  0  0  0  3  0  0  0  0  0  0
  -28.7830  -13.4310   20.5650 C   0  0  0  0  0  2  0  0  0  0  0  0
  -30.0360  -13.7950   19.8960 N   0  0  0  0  0  0  0  0  0  0  0  0
  -31.9100  -14.9330   19.5590 O   0  0  0  0  0  0  0  0  0  0  0  0
  -25.3490  -13.9930   20.4030 C   0  0  0  0  0  0  0  0  0  0  0  0
  -24.3030  -13.2140   20.8160 C   0  0  0  0  0  0  0  0  0  0  0  0
  -24.7530  -11.8620   20.7230 C   0  0  0  0  0  0  0  0  0  0  0  0
  -26.3670  -13.1150   20.0750 N   0  0  0  0  0  0  0  0  0  0  0  0
  -26.0230  -11.8260   20.3340 N   0  0  0  0  0  0  0  0  0  0  0  0
  -24.0280  -10.5990   20.9240 C   0  0  0  0  0  0  0  0  0  0  0  0
  -24.4660   -9.6330   21.8580 C   0  0  0  0  0  3  0  0  0  0  0  0
  -23.7390   -8.4370   22.0470 C   0  0  0  0  0  3  0  0  0  0  0  0
  -22.5580   -8.1980   21.3030 C   0  0  0  0  0  0  0  0  0  0  0  0
  -22.1390   -9.1530   20.3600 C   0  0  0  0  0  3  0  0  0  0  0  0
  -22.8660  -10.3400   20.1690 C   0  0  0  0  0  3  0  0  0  0  0  0
  -21.8040   -7.0540   21.4020 O   0  0  0  0  0  0  0  0  0  0  0  0
  -21.7030   -6.3580   22.5790 C   0  0  0  0  0  0  0  0  0  0  0  0
  -21.1990   -6.9530   23.7560 C   0  0  0  0  0  3  0  0  0  0  0  0
  -21.0470   -6.1820   24.9250 C   0  0  0  0  0  3  0  0  0  0  0  0
  -21.3870   -4.8160   24.9180 C   0  0  0  0  0  0  0  0  0  0  0  0
  -21.8840   -4.2190   23.7450 C   0  0  0  0  0  3  0  0  0  0  0  0
  -22.0380   -4.9890   22.5780 C   0  0  0  0  0  0  0  0  0  0  0  0
  -22.4960   -4.4050   21.4440 F   0  0  0  0  0  0  0  0  0  0  0  0
  -21.2340   -4.0710   26.0380 F   0  0  0  0  0  0  0  0  0  0  0  0
  -22.9290  -13.6940   21.1840 C   0  0  0  0  0  0  0  0  0  0  0  0
  -22.2510  -12.9840   22.0780 N   0  0  0  0  0  0  0  0  0  0  0  0
  -22.4680  -14.7310   20.7110 O   0  0  0  0  0  0  0  0  0  0  0  0
  -22.6400  -12.1450   22.4820 H   0  0  0  0  0  0  0  0  0  0  0  0
  -21.3320  -13.2860   22.3660 H   0  0  0  0  0  0  0  0  0  0  0  0
  -25.5160  -15.3670   20.2570 N   0  0  0  0  0  0  0  0  0  0  0  0
  -24.7700  -16.0270   20.4480 H   0  0  0  0  0  0  0  0  0  0  0  0
  -26.3600  -15.8110   19.9160 H   0  0  0  0  0  0  0  0  0  0  0  0
  -31.7090  -18.1580   17.0120 C   0  0  0  0  0  1  0  0  0  0  0  0
  -31.6860  -17.3850   18.2480 N   0  0  0  0  0  0  0  0  0  0  0  0
  -32.0660  -16.4370   18.2160 H   0  0  0  0  0  0  0  0  0  0  0  0
  -29.0670  -23.6260   20.4280 C   0  0  0  0  0  3  0  0  0  0  0  0
  -28.0590  -24.8530   19.9440 C   0  0  0  0  0  3  0  0  0  0  0  0
  -28.2790  -26.3480   20.2500 O   0  0  0  0  0  0  0  0  0  0  0  0
  -24.6190  -31.9290   23.2740 C   0  0  0  0  0  0  0  0  0  0  0  0
  -27.2100  -27.2980   20.1790 C   0  0  0  0  0  0  0  0  0  0  0  0
  -23.4190  -30.5480   21.6220 C   0  0  0  0  0  3  0  0  0  0  0  0
  -24.8690  -29.0030   20.1720 C   0  0  0  0  0  0  0  0  0  0  0  0
  -25.9680  -30.8370   21.4500 C   0  0  0  0  0  2  0  0  0  0  0  0
  -26.0460  -29.4580   20.7810 C   0  0  0  0  0  0  0  0  0  0  0  0
  -27.2170  -28.6190   20.7700 C   0  0  0  0  0  3  0  0  0  0  0  0
  -26.0090  -26.9380   19.5260 C   0  0  0  0  0  3  0  0  0  0  0  0
  -24.8610  -27.7570   19.5300 C   0  0  0  0  0  3  0  0  0  0  0  0
  -23.6370  -29.8890   20.2330 C   0  0  0  0  0  2  0  0  0  0  0  0
  -24.6880  -31.1240   22.1710 N   0  0  0  0  0  0  0  0  0  0  0  0
  -23.5350  -32.2010   23.8110 O   0  0  0  0  0  0  0  0  0  0  0  0
  -22.7510  -29.5230   22.5730 C   0  0  0  0  0  0  0  0  0  0  0  0
  -21.4280  -29.3280   22.4300 N   0  0  0  0  0  0  0  0  0  0  0  0
  -23.4250  -28.9080   23.4030 O   0  0  0  0  0  0  0  0  0  0  0  0
  -20.9410  -29.8780   21.7360 H   0  0  0  0  0  0  0  0  0  0  0  0
  -18.0650  -28.0630   22.8830 C   0  0  0  0  0  0  0  0  0  0  0  0
  -20.6150  -28.3760   23.1900 C   0  0  0  0  0  3  0  0  0  0  0  0
  -20.7530  -26.9450   22.6190 C   0  0  0  0  0  2  0  0  0  0  0  0
  -19.6730  -26.6000   21.5890 C   0  0  0  0  0  2  0  0  0  0  0  0
  -18.2790  -26.7170   22.2110 C   0  0  0  0  0  2  0  0  0  0  0  0
  -19.1620  -28.8480   23.3280 C   0  0  0  0  0  0  0  0  0  0  0  0
  -18.9070  -30.1070   23.9160 C   0  0  0  0  0  3  0  0  0  0  0  0
  -17.5890  -30.5800   24.0630 C   0  0  0  0  0  3  0  0  0  0  0  0
  -16.5070  -29.7930   23.6330 C   0  0  0  0  0  3  0  0  0  0  0  0
  -16.7470  -28.5360   23.0490 C   0  0  0  0  0  3  0  0  0  0  0  0
  -25.8980  -32.5610   23.9030 C   0  0  0  0  0  3  0  0  0  0  0  0
  -26.3960  -31.8010   25.1950 C   0  0  1  0  0  0  0  0  0  0  0  0
  -25.2890  -31.5730   26.2490 C   0  0  0  0  0  1  0  0  0  0  0  0
  -26.9840  -30.4190   24.8260 C   0  0  0  0  0  1  0  0  0  0  0  0
  -27.5370  -32.6010   25.8650 C   0  0  0  0  0  1  0  0  0  0  0  0
  -25.5920  -33.9650   24.2210 N   0  0  0  0  0  0  0  0  0  0  0  0
  -25.9070  -35.0100   23.4440 C   0  0  0  0  0  0  0  0  0  0  0  0
  -26.5530  -34.8940   22.4000 O   0  0  0  0  0  0  0  0  0  0  0  0
  -25.0170  -34.1280   25.0350 H   0  0  0  0  0  0  0  0  0  0  0  0
  -24.1610  -36.7940   23.1230 C   0  0  0  0  0  1  0  0  0  0  0  0
  -25.4310  -36.4050   23.8980 C   0  0  0  0  0  3  0  0  0  0  0  0
  -27.5840  -37.3160   24.6480 C   0  0  0  0  0  1  0  0  0  0  0  0
  -26.4540  -37.4580   23.7340 N   0  0  0  0  0  0  0  0  0  0  0  0
  -26.0490  -38.3800   23.8750 H   0  0  0  0  0  0  0  0  0  0  0  0
  1  3  2  0
  2 50  1  0
  2  1  1  0
  4  2  1  0
  6  5  1  0
  7  8  1  0
  8  1  1  0
  8  5  2  0
  9  6  2  0
 10  7  2  0
 10  9  1  0
 11 17  1  0
 11  9  1  0
 12 17  1  0
 13 14  1  0
 13 12  1  0
 15 14  1  0
 15 22  1  0
 15 16  1  0
 17 16  1  0
 18 11  2  0
 19 20  2  0
 20 39  1  0
 21 20  1  0
 21 24  1  0
 22 23  1  0
 22 19  1  0
 23 21  2  0
 24 25  1  0
 25 26  2  0
 27 30  1  0
 27 26  1  0
 28 27  2  0
 29 28  1  0
 29 24  2  0
 30 31  1  0
 31 32  1  0
 32 33  2  0
 34 33  1  0
 34 38  1  0
 35 34  2  0
 36 31  2  0
 36 35  1  0
 37 36  1  0
 39 40  1  0
 40 43  1  0
 40 42  1  0
 41 39  2  0
 44 19  1  0
 44 45  1  0
 46 44  1  0
 47 48  1  0
 48 10  1  0
 49 48  1  0
 51 52  1  0
 51 50  2  0
 53 64  2  0
 54 52  1  0
 54 59  1  0
 55 63  1  0
 55 65  1  0
 56 62  1  0
 56 58  1  0
 57 63  1  0
 58 57  1  0
 59 58  2  0
 60 61  1  0
 60 54  2  0
 61 56  2  0
 62 55  1  0
 63 53  1  0
 65 67  2  0
 66 65  1  0
 68 66  1  0
 69 78  2  0
 69 74  1  0
 70 66  1  0
 70 74  1  0
 71 70  1  0
 72 73  1  0
 72 71  1  0
 73 69  1  0
 74 75  2  0
 75 76  1  0
 77 76  2  0
 78 77  1  0
 79 53  1  0
 79 84  1  0
 79 80  1  0
 80 83  1  1
 80 81  1  0
 82 80  1  0
 84 87  1  0
 85 89  1  0
 85 84  1  0
 86 85  2  0
 89 88  1  0
 91 92  1  0
 91 89  1  0
 91 90  1  0
M  ISO  4   9 100  11 100  51 101  52 101
M  END
>  <TORSDO>  (50) 
F 20

>  <SCORE>  (50) 
-13.545

>  <name>  (50) 
49

>  <ligand_id>  (50) 
49

>  <original_smiles>  (50) 
[H]c1c([H])c([H])c2c(c1[H])C([H])([H])C([H])([H])C([H])([H])C2([H])N([H])C(=O)C1([H])N(C(=O)C([H])(N([H])C(=O)C([H])(N([H])C([H])([H])[H])C([H])([H])[H])C(C([H])([H])[H])(C([H])([H])[H])C([H])([H])[H])C([H])([H])c2c([H])c(OC([H])([H])C([H])([H])N([H])C(=O)c3c([H])c([H])c(C(=O)N4C([H])([H])C([H])([H])C([H])([H])C([H])(n5nc(-c6c([H])c([H])c(Oc7c([H])c([H])c(F)c([H])c7F)c([H])c6[H])c(C(=O)N([H])[H])c5N([H])[H])C4([H])[H])c(N([H])C([H])([H])[H])c3[H])c([H])c([H])c2C1([H])[H]

>  <smiles>  (50) 
[H]c1c([H])c([H])c2c(c1[H])C([H])([H])C([H])([H])C([H])([H])C2([H])N([H])C(=O)C1([H])N(C(=O)C([H])(N([H])C(=O)C([H])(N([H])C([H])([H])[H])C([H])([H])[H])C(C([H])([H])[H])(C([H])([H])[H])C([H])([H])[H])C([H])([H])c2c([H])c(OC([H])([H])C([H])([H])N([H])C(=O)c3c([H])c([H])c(C(=O)N4C([H])([H])C([H])([H])C([H])([H])C([H])(n5nc(-c6c([H])c([H])c(Oc7c([H])c([H])c(F)c([H])c7F)c([H])c6[H])c(C(=O)N([H])[H])c5N([H])[H])C4([H])[H])c(N([H])C([H])([H])[H])c3[H])c([H])c([H])c2C1([H])[H]

$$$$
50:0:0
     RDKit          3D

 90 98  0  0  1  0  0  0  0  0999 V2000
  -28.4510  -22.1150   18.6240 C   0  0  0  0  0  3  0  0  0  0  0  0
  -28.1670  -23.2700   17.8620 C   0  0  0  0  0  3  0  0  0  0  0  0
  -28.6080  -23.5650   20.5560 C   0  0  0  0  0  3  0  0  0  0  0  0
  -28.7320  -22.1780   20.0000 C   0  0  0  0  0  0  0  0  0  0  0  0
  -28.1200  -24.5880   18.4040 C   0  0  0  0  0  0  0  0  0  0  0  0
  -28.2650  -24.8140   19.8010 C   0  0  0  0  0  0  0  0  0  0  0  0
  -27.8430  -25.5440   16.2010 C   0  0  0  0  0  1  0  0  0  0  0  0
  -27.9740  -25.7070   17.6080 O   0  0  0  0  0  0  0  0  0  0  0  0
  -28.2440  -26.2210   20.2680 O   0  0  0  0  0  0  0  0  0  0  0  0
  -24.5880  -31.9420   23.2110 C   0  0  0  0  0  0  0  0  0  0  0  0
  -27.1680  -27.1960   20.1930 C   0  0  0  0  0  0  0  0  0  0  0  0
  -23.3870  -30.5370   21.5830 C   0  0  0  0  0  3  0  0  0  0  0  0
  -24.8330  -28.9510   20.1650 C   0  0  0  0  0  0  0  0  0  0  0  0
  -25.9420  -30.7980   21.4120 C   0  0  0  0  0  2  0  0  0  0  0  0
  -26.0150  -29.4000   20.7650 C   0  0  0  0  0  0  0  0  0  0  0  0
  -27.1800  -28.5400   20.7600 C   0  0  0  0  0  3  0  0  0  0  0  0
  -25.9410  -26.8440   19.5850 C   0  0  0  0  0  3  0  0  0  0  0  0
  -24.8090  -27.6860   19.5620 C   0  0  0  0  0  3  0  0  0  0  0  0
  -23.6060  -29.8520   20.2080 C   0  0  0  0  0  2  0  0  0  0  0  0
  -24.6600  -31.1150   22.1230 N   0  0  0  0  0  0  0  0  0  0  0  0
  -23.5020  -32.2300   23.7380 O   0  0  0  0  0  0  0  0  0  0  0  0
  -22.7090  -29.5350   22.5520 C   0  0  0  0  0  0  0  0  0  0  0  0
  -21.3830  -29.3510   22.4170 N   0  0  0  0  0  0  0  0  0  0  0  0
  -23.3790  -28.9270   23.3900 O   0  0  0  0  0  0  0  0  0  0  0  0
  -20.8990  -29.8930   21.7150 H   0  0  0  0  0  0  0  0  0  0  0  0
  -18.0100  -28.1250   22.9080 C   0  0  0  0  0  0  0  0  0  0  0  0
  -20.5640  -28.4160   23.1930 C   0  0  0  0  0  3  0  0  0  0  0  0
  -20.6830  -26.9780   22.6370 C   0  0  0  0  0  2  0  0  0  0  0  0
  -19.5940  -26.6310   21.6180 C   0  0  0  0  0  2  0  0  0  0  0  0
  -18.2050  -26.7700   22.2500 C   0  0  0  0  0  2  0  0  0  0  0  0
  -19.1170  -28.9040   23.3360 C   0  0  0  0  0  0  0  0  0  0  0  0
  -18.8790  -30.1710   23.9140 C   0  0  0  0  0  3  0  0  0  0  0  0
  -17.5670  -30.6580   24.0670 C   0  0  0  0  0  3  0  0  0  0  0  0
  -16.4750  -29.8770   23.6530 C   0  0  0  0  0  3  0  0  0  0  0  0
  -16.6960  -28.6120   23.0800 C   0  0  0  0  0  3  0  0  0  0  0  0
  -25.8660  -32.5840   23.8340 C   0  0  0  0  0  3  0  0  0  0  0  0
  -26.3730  -31.8270   25.1230 C   0  0  1  0  0  0  0  0  0  0  0  0
  -25.2730  -31.6010   26.1860 C   0  0  0  0  0  1  0  0  0  0  0  0
  -26.9590  -30.4440   24.7540 C   0  0  0  0  0  1  0  0  0  0  0  0
  -27.5190  -32.6280   25.7830 C   0  0  0  0  0  1  0  0  0  0  0  0
  -25.5520  -33.9850   24.1550 N   0  0  0  0  0  0  0  0  0  0  0  0
  -25.8930  -35.0380   23.3990 C   0  0  0  0  0  0  0  0  0  0  0  0
  -26.5690  -34.9300   22.3720 O   0  0  0  0  0  0  0  0  0  0  0  0
  -24.9520  -34.1430   24.9510 H   0  0  0  0  0  0  0  0  0  0  0  0
  -24.1880  -36.8510   23.0160 C   0  0  0  0  0  1  0  0  0  0  0  0
  -25.4090  -36.4300   23.8510 C   0  0  0  0  0  3  0  0  0  0  0  0
  -27.5280  -37.3010   24.7370 C   0  0  0  0  0  1  0  0  0  0  0  0
  -26.4530  -37.4750   23.7640 N   0  0  0  0  0  0  0  0  0  0  0  0
  -26.0510  -38.3990   23.8980 H   0  0  0  0  0  0  0  0  0  0  0  0
  -29.2560  -20.7750   20.7280 C   0  0  0  0  0  2  0  0  0  0  0  0
  -29.0400  -19.1560   20.2190 C   0  0  0  0  0  3  0  0  0  0  0  0
  -29.9670  -17.8070   20.7070 C   0  0  0  0  0  3  0  0  0  0  0  0
  -30.4200  -15.0780   20.3650 C   0  0  0  0  0  0  0  0  0  0  0  0
  -30.3350  -12.7390   19.3710 C   0  0  0  0  0  2  0  0  0  0  0  0
  -29.3880  -12.6850   18.1500 C   0  0  0  0  0  2  0  0  0  0  0  0
  -27.9360  -12.4340   18.5970 C   0  0  0  0  0  2  0  0  0  0  0  0
  -27.5230  -13.3310   19.7940 C   0  0  0  0  0  3  0  0  0  0  0  0
  -28.5920  -13.3530   20.9050 C   0  0  0  0  0  2  0  0  0  0  0  0
  -29.8400  -13.8100   20.2820 N   0  0  0  0  0  0  0  0  0  0  0  0
  -31.6280  -15.1530   20.1180 O   0  0  0  0  0  0  0  0  0  0  0  0
  -29.6280  -16.2600   20.5210 N   0  0  0  0  0  0  0  0  0  0  0  0
  -28.6460  -16.0490   20.6180 H   0  0  0  0  0  0  0  0  0  0  0  0
  -25.1400  -13.8460   20.5680 C   0  0  0  0  0  0  0  0  0  0  0  0
  -24.0960  -13.0430   20.9370 C   0  0  0  0  0  0  0  0  0  0  0  0
  -24.5890  -11.7030   20.8820 C   0  0  0  0  0  0  0  0  0  0  0  0
  -26.1990  -12.9950   20.3050 N   0  0  0  0  0  0  0  0  0  0  0  0
  -25.8780  -11.7000   20.5600 N   0  0  0  0  0  0  0  0  0  0  0  0
  -23.8910  -10.4240   21.0580 C   0  0  0  0  0  0  0  0  0  0  0  0
  -24.3340   -9.4610   21.9930 C   0  0  0  0  0  3  0  0  0  0  0  0
  -23.6320   -8.2480   22.1570 C   0  0  0  0  0  3  0  0  0  0  0  0
  -22.4730   -7.9870   21.3880 C   0  0  0  0  0  0  0  0  0  0  0  0
  -22.0500   -8.9380   20.4440 C   0  0  0  0  0  3  0  0  0  0  0  0
  -22.7520  -10.1430   20.2770 C   0  0  0  0  0  3  0  0  0  0  0  0
  -21.7430   -6.8260   21.4630 O   0  0  0  0  0  0  0  0  0  0  0  0
  -21.6790   -6.0890   22.6180 C   0  0  0  0  0  0  0  0  0  0  0  0
  -21.1650   -6.6270   23.8180 C   0  0  0  0  0  3  0  0  0  0  0  0
  -21.0520   -5.8140   24.9630 C   0  0  0  0  0  3  0  0  0  0  0  0
  -21.4440   -4.4630   24.9090 C   0  0  0  0  0  0  0  0  0  0  0  0
  -21.9520   -3.9240   23.7140 C   0  0  0  0  0  3  0  0  0  0  0  0
  -22.0660   -4.7340   22.5710 C   0  0  0  0  0  0  0  0  0  0  0  0
  -22.5360   -4.2050   21.4170 F   0  0  0  0  0  0  0  0  0  0  0  0
  -21.3300   -3.6800   26.0080 F   0  0  0  0  0  0  0  0  0  0  0  0
  -22.6920  -13.4870   21.2230 C   0  0  0  0  0  0  0  0  0  0  0  0
  -21.9800  -12.7590   22.0750 N   0  0  0  0  0  0  0  0  0  0  0  0
  -22.2330  -14.5160   20.7260 O   0  0  0  0  0  0  0  0  0  0  0  0
  -22.3650  -11.9280   22.4990 H   0  0  0  0  0  0  0  0  0  0  0  0
  -21.0380  -13.0370   22.3090 H   0  0  0  0  0  0  0  0  0  0  0  0
  -25.2700  -15.2220   20.4080 N   0  0  0  0  0  0  0  0  0  0  0  0
  -24.4840  -15.8520   20.5280 H   0  0  0  0  0  0  0  0  0  0  0  0
  -26.0910  -15.6850   20.0380 H   0  0  0  0  0  0  0  0  0  0  0  0
  1  4  1  0
  2  5  1  0
  2  1  2  0
  4  3  2  0
  4 50  1  0
  5  6  2  0
  6  9  1  0
  6  3  1  0
  7  8  1  0
  8  5  1  0
 10 21  2  0
 11  9  1  0
 11 16  1  0
 12 20  1  0
 12 22  1  0
 13 19  1  0
 13 15  1  0
 14 20  1  0
 15 14  1  0
 16 15  2  0
 17 11  2  0
 18 17  1  0
 18 13  2  0
 19 12  1  0
 20 10  1  0
 22 24  2  0
 23 22  1  0
 25 23  1  0
 26 35  2  0
 26 31  1  0
 27 23  1  0
 27 31  1  0
 28 27  1  0
 29 30  1  0
 29 28  1  0
 30 26  1  0
 31 32  2  0
 32 33  1  0
 34 33  2  0
 35 34  1  0
 36 10  1  0
 36 41  1  0
 36 37  1  0
 37 40  1  1
 37 38  1  0
 39 37  1  0
 41 44  1  0
 42 46  1  0
 42 41  1  0
 43 42  2  0
 46 45  1  0
 48 46  1  0
 48 49  1  0
 48 47  1  0
 51 52  2  0
 51 50  1  0
 53 61  1  0
 54 59  1  0
 55 56  1  0
 55 54  1  0
 57 56  1  0
 57 66  1  0
 57 58  1  0
 59 53  1  0
 59 58  1  0
 60 53  2  0
 61 62  1  0
 61 52  1  0
 63 64  2  0
 64 83  1  0
 65 64  1  0
 65 68  1  0
 66 67  1  0
 66 63  1  0
 67 65  2  0
 68 69  1  0
 69 70  2  0
 71 74  1  0
 71 70  1  0
 72 71  2  0
 73 72  1  0
 73 68  2  0
 74 75  1  0
 75 76  1  0
 76 77  2  0
 78 77  1  0
 78 82  1  0
 79 78  2  0
 80 75  2  0
 80 79  1  0
 81 80  1  0
 83 84  1  0
 84 87  1  0
 84 86  1  0
 85 83  2  0
 88 89  1  0
 88 63  1  0
 90 88  1  0
M  ISO  4   6 101   9 101  53 100  61 100
M  END
>  <TORSDO>  (51) 
F 20

>  <SCORE>  (51) 
-15.048

>  <name>  (51) 
50

>  <ligand_id>  (51) 
50

>  <original_smiles>  (51) 
[H]c1c([H])c([H])c2c(c1[H])C([H])([H])C([H])([H])C([H])([H])C2([H])N([H])C(=O)C1([H])N(C(=O)C([H])(N([H])C(=O)C([H])(N([H])C([H])([H])[H])C([H])([H])[H])C(C([H])([H])[H])(C([H])([H])[H])C([H])([H])[H])C([H])([H])c2c([H])c(Oc3c([H])c(C([H])([H])C([H])([H])C([H])([H])N([H])C(=O)N4C([H])([H])C([H])([H])C([H])([H])C([H])(n5nc(-c6c([H])c([H])c(Oc7c([H])c([H])c(F)c([H])c7F)c([H])c6[H])c(C(=O)N([H])[H])c5N([H])[H])C4([H])[H])c([H])c([H])c3OC([H])([H])[H])c([H])c([H])c2C1([H])[H]

>  <smiles>  (51) 
[H]c1c([H])c([H])c2c(c1[H])C([H])([H])C([H])([H])C([H])([H])C2([H])N([H])C(=O)C1([H])N(C(=O)C([H])(N([H])C(=O)C([H])(N([H])C([H])([H])[H])C([H])([H])[H])C(C([H])([H])[H])(C([H])([H])[H])C([H])([H])[H])C([H])([H])c2c([H])c(Oc3c([H])c(C([H])([H])C([H])([H])C([H])([H])N([H])C(=O)N4C([H])([H])C([H])([H])C([H])([H])C([H])(n5nc(-c6c([H])c([H])c(Oc7c([H])c([H])c(F)c([H])c7F)c([H])c6[H])c(C(=O)N([H])[H])c5N([H])[H])C4([H])[H])c([H])c([H])c3OC([H])([H])[H])c([H])c([H])c2C1([H])[H]

$$$$
51:0:0
     RDKit          3D

 95103  0  0  1  0  0  0  0  0999 V2000
  -26.7420  -21.3080   20.3960 C   0  0  0  0  0  2  0  0  0  0  0  0
  -27.3070  -22.4670   19.5720 C   0  0  0  0  0  0  0  0  0  0  0  0
  -28.3280  -23.1510   20.0970 N   0  0  0  0  0  0  0  0  0  0  0  0
  -26.7910  -22.7660   18.4940 O   0  0  0  0  0  0  0  0  0  0  0  0
  -28.7140  -22.8180   20.9720 H   0  0  0  0  0  0  0  0  0  0  0  0
  -28.8060  -24.4420   19.6080 C   0  0  0  0  0  2  0  0  0  0  0  0
  -28.4980  -25.5360   20.6410 C   0  0  0  0  0  2  0  0  0  0  0  0
  -28.5460  -26.8290   20.0470 O   0  0  0  0  0  0  0  0  0  0  0  0
  -24.6060  -31.8050   23.2260 C   0  0  0  0  0  0  0  0  0  0  0  0
  -27.3520  -27.5060   20.0680 C   0  0  0  0  0  0  0  0  0  0  0  0
  -23.4300  -30.4230   21.5390 C   0  0  0  0  0  3  0  0  0  0  0  0
  -24.9200  -28.9350   20.0960 C   0  0  0  0  0  0  0  0  0  0  0  0
  -25.9430  -30.8310   21.3650 C   0  0  0  0  0  2  0  0  0  0  0  0
  -26.0580  -29.4750   20.7030 C   0  0  0  0  0  0  0  0  0  0  0  0
  -27.2770  -28.7680   20.6890 C   0  0  0  0  0  3  0  0  0  0  0  0
  -26.2020  -26.9660   19.4610 C   0  0  0  0  0  3  0  0  0  0  0  0
  -24.9850  -27.6750   19.4710 C   0  0  0  0  0  3  0  0  0  0  0  0
  -23.6580  -29.7690   20.1470 C   0  0  0  0  0  2  0  0  0  0  0  0
  -24.6760  -31.0340   22.1020 N   0  0  0  0  0  0  0  0  0  0  0  0
  -23.5170  -32.0470   23.7670 O   0  0  0  0  0  0  0  0  0  0  0  0
  -22.7860  -29.3750   22.4720 C   0  0  0  0  0  0  0  0  0  0  0  0
  -21.4670  -29.1660   22.3150 N   0  0  0  0  0  0  0  0  0  0  0  0
  -23.4680  -28.7550   23.2910 O   0  0  0  0  0  0  0  0  0  0  0  0
  -20.9780  -29.7340   21.6390 H   0  0  0  0  0  0  0  0  0  0  0  0
  -18.1120  -27.8870   22.7050 C   0  0  0  0  0  0  0  0  0  0  0  0
  -20.6550  -28.1950   23.0500 C   0  0  0  0  0  3  0  0  0  0  0  0
  -20.8070  -26.7780   22.4510 C   0  0  0  0  0  2  0  0  0  0  0  0
  -19.7380  -26.4440   21.4050 C   0  0  0  0  0  2  0  0  0  0  0  0
  -18.3370  -26.5530   22.0110 C   0  0  0  0  0  2  0  0  0  0  0  0
  -19.2020  -28.6670   23.1750 C   0  0  0  0  0  0  0  0  0  0  0  0
  -18.9400  -29.9140   23.7790 C   0  0  0  0  0  3  0  0  0  0  0  0
  -17.6200  -30.3840   23.9210 C   0  0  0  0  0  3  0  0  0  0  0  0
  -16.5450  -29.6030   23.4660 C   0  0  0  0  0  3  0  0  0  0  0  0
  -16.7910  -28.3570   22.8630 C   0  0  0  0  0  3  0  0  0  0  0  0
  -25.8820  -32.4320   23.8700 C   0  0  0  0  0  3  0  0  0  0  0  0
  -25.5640  -33.8270   24.2020 N   0  0  0  0  0  0  0  0  0  0  0  0
  -25.9110  -34.8840   23.4530 C   0  0  0  0  0  0  0  0  0  0  0  0
  -26.6000  -34.7880   22.4360 O   0  0  0  0  0  0  0  0  0  0  0  0
  -24.9580  -33.9730   24.9940 H   0  0  0  0  0  0  0  0  0  0  0  0
  -24.1920  -36.6780   23.0590 C   0  0  0  0  0  1  0  0  0  0  0  0
  -25.4090  -36.2690   23.9050 C   0  0  0  0  0  3  0  0  0  0  0  0
  -27.5180  -37.1490   24.8030 C   0  0  0  0  0  1  0  0  0  0  0  0
  -26.4430  -37.3230   23.8310 N   0  0  0  0  0  0  0  0  0  0  0  0
  -26.0330  -38.2430   23.9710 H   0  0  0  0  0  0  0  0  0  0  0  0
  -26.3770  -31.6550   25.1490 C   0  0  1  0  0  0  0  0  0  0  0  0
  -25.2640  -31.4060   26.1950 C   0  0  0  0  0  1  0  0  0  0  0  0
  -26.9720  -30.2830   24.7550 C   0  0  0  0  0  1  0  0  0  0  0  0
  -27.5080  -32.4510   25.8420 C   0  0  0  0  0  1  0  0  0  0  0  0
  -26.5530  -20.0050   19.5860 C   0  0  0  0  0  2  0  0  0  0  0  0
  -27.8540  -19.2140   19.3680 C   0  0  0  0  0  2  0  0  0  0  0  0
  -28.3410  -18.5280   20.6540 C   0  0  0  0  0  2  0  0  0  0  0  0
  -32.4250  -17.1020   20.5080 C   0  0  0  0  0  3  0  0  0  0  0  0
  -30.0420  -16.7000   20.3040 C   0  0  0  0  0  3  0  0  0  0  0  0
  -31.3630  -16.2170   20.2230 C   0  0  0  0  0  0  0  0  0  0  0  0
  -32.1940  -18.4650   20.7820 C   0  0  0  0  0  0  0  0  0  0  0  0
  -29.7880  -18.0660   20.5750 C   0  0  0  0  0  0  0  0  0  0  0  0
  -30.8710  -18.9690   20.7500 C   0  0  0  0  0  0  0  0  0  0  0  0
  -33.3960  -19.3600   21.0540 C   0  0  0  0  0  1  0  0  0  0  0  0
  -30.6270  -20.4700   20.8570 C   0  0  0  0  0  1  0  0  0  0  0  0
  -31.6890  -14.8980   19.5750 C   0  0  0  0  0  0  0  0  0  0  0  0
  -31.2450  -12.5730   18.9230 C   0  0  0  0  0  2  0  0  0  0  0  0
  -30.2600  -12.4950   17.7440 C   0  0  0  0  0  2  0  0  0  0  0  0
  -28.8150  -12.4360   18.2660 C   0  0  0  0  0  2  0  0  0  0  0  0
  -28.5190  -13.5360   19.3200 C   0  0  0  0  0  3  0  0  0  0  0  0
  -29.6340  -13.6380   20.3930 C   0  0  0  0  0  2  0  0  0  0  0  0
  -30.9230  -13.7790   19.7040 N   0  0  0  0  0  0  0  0  0  0  0  0
  -32.7110  -14.9110   18.8890 O   0  0  0  0  0  0  0  0  0  0  0  0
  -26.2690  -14.3070   20.3090 C   0  0  0  0  0  0  0  0  0  0  0  0
  -25.1690  -13.6110   20.7340 C   0  0  0  0  0  0  0  0  0  0  0  0
  -25.4920  -12.2280   20.5760 C   0  0  0  0  0  0  0  0  0  0  0  0
  -27.1980  -13.3530   19.9200 N   0  0  0  0  0  0  0  0  0  0  0  0
  -26.7380  -12.0940   20.1360 N   0  0  0  0  0  0  0  0  0  0  0  0
  -24.6690  -11.0250   20.7670 C   0  0  0  0  0  0  0  0  0  0  0  0
  -25.0160  -10.0300   21.7060 C   0  0  0  0  0  3  0  0  0  0  0  0
  -24.1980   -8.8940   21.8800 C   0  0  0  0  0  3  0  0  0  0  0  0
  -23.0170   -8.7440   21.1160 C   0  0  0  0  0  0  0  0  0  0  0  0
  -22.6860   -9.7270   20.1650 C   0  0  0  0  0  3  0  0  0  0  0  0
  -23.5060  -10.8560   19.9880 C   0  0  0  0  0  3  0  0  0  0  0  0
  -22.1740   -7.6630   21.2010 O   0  0  0  0  0  0  0  0  0  0  0  0
  -21.9690   -7.0010   22.3850 C   0  0  0  0  0  0  0  0  0  0  0  0
  -21.4730   -7.6590   23.5310 C   0  0  0  0  0  3  0  0  0  0  0  0
  -21.2140   -6.9280   24.7070 C   0  0  0  0  0  3  0  0  0  0  0  0
  -21.4390   -5.5380   24.7370 C   0  0  0  0  0  0  0  0  0  0  0  0
  -21.9270   -4.8790   23.5950 C   0  0  0  0  0  3  0  0  0  0  0  0
  -22.1910   -5.6090   22.4220 C   0  0  0  0  0  0  0  0  0  0  0  0
  -22.6420   -4.9650   21.3200 F   0  0  0  0  0  0  0  0  0  0  0  0
  -21.1830   -4.8350   25.8650 F   0  0  0  0  0  0  0  0  0  0  0  0
  -23.8580  -14.1950   21.1740 C   0  0  0  0  0  0  0  0  0  0  0  0
  -23.1710  -13.5320   22.1000 N   0  0  0  0  0  0  0  0  0  0  0  0
  -23.4560  -15.2720   20.7370 O   0  0  0  0  0  0  0  0  0  0  0  0
  -23.5090  -12.6620   22.4860 H   0  0  0  0  0  0  0  0  0  0  0  0
  -22.2960  -13.9060   22.4350 H   0  0  0  0  0  0  0  0  0  0  0  0
  -26.5500  -15.6660   20.2110 N   0  0  0  0  0  0  0  0  0  0  0  0
  -25.8720  -16.3730   20.4720 H   0  0  0  0  0  0  0  0  0  0  0  0
  -27.4030  -16.0570   19.8350 H   0  0  0  0  0  0  0  0  0  0  0  0
  2  3  1  0
  2  1  1  0
  3  5  1  0
  4  2  2  0
  6  3  1  0
  6  7  1  0
  8 10  1  0
  8  7  1  0
  9 20  2  0
 10 15  1  0
 11 19  1  0
 11 21  1  0
 12 18  1  0
 12 14  1  0
 13 19  1  0
 14 13  1  0
 15 14  2  0
 16 17  1  0
 16 10  2  0
 17 12  2  0
 18 11  1  0
 19  9  1  0
 21 23  2  0
 22 21  1  0
 24 22  1  0
 25 34  2  0
 25 30  1  0
 26 22  1  0
 26 30  1  0
 27 26  1  0
 28 29  1  0
 28 27  1  0
 29 25  1  0
 30 31  2  0
 31 32  1  0
 33 32  2  0
 34 33  1  0
 35  9  1  0
 35 36  1  0
 35 45  1  0
 36 39  1  0
 37 41  1  0
 37 36  1  0
 38 37  2  0
 41 40  1  0
 43 41  1  0
 43 44  1  0
 43 42  1  0
 45 48  1  1
 45 46  1  0
 47 45  1  0
 49  1  1  0
 50 49  1  0
 50 51  1  0
 52 55  1  0
 53 56  2  0
 54 53  1  0
 54 52  2  0
 55 58  1  0
 56 51  1  0
 56 57  1  0
 57 55  2  0
 57 59  1  0
 60 66  1  0
 60 54  1  0
 61 66  1  0
 62 63  1  0
 62 61  1  0
 64 63  1  0
 64 71  1  0
 64 65  1  0
 66 65  1  0
 67 60  2  0
 68 69  2  0
 69 88  1  0
 70 69  1  0
 70 73  1  0
 71 72  1  0
 71 68  1  0
 72 70  2  0
 73 74  1  0
 74 75  2  0
 76 79  1  0
 76 75  1  0
 77 76  2  0
 78 77  1  0
 78 73  2  0
 79 80  1  0
 80 85  2  0
 80 81  1  0
 81 82  2  0
 82 83  1  0
 83 87  1  0
 84 83  2  0
 85 84  1  0
 86 85  1  0
 88 89  1  0
 89 92  1  0
 89 91  1  0
 90 88  2  0
 93 68  1  0
 93 94  1  0
 95 93  1  0
M  ISO  4   7 101   8 101  54 100  60 100
M  END
>  <TORSDO>  (52) 
F 23

>  <SCORE>  (52) 
-10.559

>  <name>  (52) 
51

>  <ligand_id>  (52) 
51

>  <original_smiles>  (52) 
[H]c1c([H])c([H])c2c(c1[H])C([H])([H])C([H])([H])C([H])([H])C2([H])N([H])C(=O)C1([H])N(C(=O)C([H])(N([H])C(=O)C([H])(N([H])C([H])([H])[H])C([H])([H])[H])C(C([H])([H])[H])(C([H])([H])[H])C([H])([H])[H])C([H])([H])c2c([H])c(OC([H])([H])C([H])([H])N([H])C(=O)C([H])([H])C([H])([H])C([H])([H])C([H])([H])c3c([H])c(C(=O)N4C([H])([H])C([H])([H])C([H])([H])C([H])(n5nc(-c6c([H])c([H])c(Oc7c([H])c([H])c(F)c([H])c7F)c([H])c6[H])c(C(=O)N([H])[H])c5N([H])[H])C4([H])[H])c([H])c(C([H])([H])[H])c3C([H])([H])[H])c([H])c([H])c2C1([H])[H]

>  <smiles>  (52) 
[H]c1c([H])c([H])c2c(c1[H])C([H])([H])C([H])([H])C([H])([H])C2([H])N([H])C(=O)C1([H])N(C(=O)C([H])(N([H])C(=O)C([H])(N([H])C([H])([H])[H])C([H])([H])[H])C(C([H])([H])[H])(C([H])([H])[H])C([H])([H])[H])C([H])([H])c2c([H])c(OC([H])([H])C([H])([H])N([H])C(=O)C([H])([H])C([H])([H])C([H])([H])C([H])([H])c3c([H])c(C(=O)N4C([H])([H])C([H])([H])C([H])([H])C([H])(n5nc(-c6c([H])c([H])c(Oc7c([H])c([H])c(F)c([H])c7F)c([H])c6[H])c(C(=O)N([H])[H])c5N([H])[H])C4([H])[H])c([H])c(C([H])([H])[H])c3C([H])([H])[H])c([H])c([H])c2C1([H])[H]

$$$$
52:0:0
     RDKit          3D

 92100  0  0  1  0  0  0  0  0999 V2000
  -27.9750  -23.7000   21.8640 C   0  0  0  0  0  3  0  0  0  0  0  0
  -28.0890  -25.0900   21.6740 C   0  0  0  0  0  3  0  0  0  0  0  0
  -28.8930  -24.7090   19.4050 C   0  0  0  0  0  3  0  0  0  0  0  0
  -28.3020  -22.8050   20.8240 C   0  0  0  0  0  0  0  0  0  0  0  0
  -28.5270  -25.6000   20.4340 C   0  0  0  0  0  0  0  0  0  0  0  0
  -28.7800  -23.3070   19.5880 C   0  0  0  0  0  0  0  0  0  0  0  0
  -28.7580  -22.6920   17.2740 C   0  0  0  0  0  1  0  0  0  0  0  0
  -29.1470  -22.4040   18.6140 O   0  0  0  0  0  0  0  0  0  0  0  0
  -28.5780  -26.9560   20.2190 O   0  0  0  0  0  0  0  0  0  0  0  0
  -24.5340  -31.9560   23.2680 C   0  0  0  0  0  0  0  0  0  0  0  0
  -27.3830  -27.6340   20.2190 C   0  0  0  0  0  0  0  0  0  0  0  0
  -23.4090  -30.5250   21.5930 C   0  0  0  0  0  3  0  0  0  0  0  0
  -24.9370  -29.0380   20.1990 C   0  0  0  0  0  0  0  0  0  0  0  0
  -25.9230  -30.9660   21.4500 C   0  0  0  0  0  2  0  0  0  0  0  0
  -26.0630  -29.6030   20.8110 C   0  0  0  0  0  0  0  0  0  0  0  0
  -27.2880  -28.9030   20.8290 C   0  0  0  0  0  3  0  0  0  0  0  0
  -26.2410  -27.0800   19.6020 C   0  0  0  0  0  3  0  0  0  0  0  0
  -25.0160  -27.7670   19.5990 C   0  0  0  0  0  3  0  0  0  0  0  0
  -23.6690  -29.8580   20.2150 C   0  0  0  0  0  2  0  0  0  0  0  0
  -24.6390  -31.1630   22.1640 N   0  0  0  0  0  0  0  0  0  0  0  0
  -23.4330  -32.1960   23.7830 O   0  0  0  0  0  0  0  0  0  0  0  0
  -22.7670  -29.4810   22.5360 C   0  0  0  0  0  0  0  0  0  0  0  0
  -21.4540  -29.2530   22.3760 N   0  0  0  0  0  0  0  0  0  0  0  0
  -23.4520  -28.8760   23.3650 O   0  0  0  0  0  0  0  0  0  0  0  0
  -20.9630  -29.7880   21.6720 H   0  0  0  0  0  0  0  0  0  0  0  0
  -18.1190  -27.9250   22.7690 C   0  0  0  0  0  0  0  0  0  0  0  0
  -20.6560  -28.2820   23.1220 C   0  0  0  0  0  3  0  0  0  0  0  0
  -20.8300  -26.8540   22.5520 C   0  0  0  0  0  2  0  0  0  0  0  0
  -19.7750  -26.4960   21.5020 C   0  0  0  0  0  2  0  0  0  0  0  0
  -18.3670  -26.5850   22.0960 C   0  0  0  0  0  2  0  0  0  0  0  0
  -19.1940  -28.7290   23.2330 C   0  0  0  0  0  0  0  0  0  0  0  0
  -18.9120  -29.9860   23.8130 C   0  0  0  0  0  3  0  0  0  0  0  0
  -17.5850  -30.4410   23.9340 C   0  0  0  0  0  3  0  0  0  0  0  0
  -16.5240  -29.6340   23.4880 C   0  0  0  0  0  3  0  0  0  0  0  0
  -16.7890  -28.3780   22.9120 C   0  0  0  0  0  3  0  0  0  0  0  0
  -25.7910  -32.6200   23.9130 C   0  0  0  0  0  3  0  0  0  0  0  0
  -25.4420  -34.0140   24.2190 N   0  0  0  0  0  0  0  0  0  0  0  0
  -25.7820  -35.0660   23.4600 C   0  0  0  0  0  0  0  0  0  0  0  0
  -26.4910  -34.9670   22.4560 O   0  0  0  0  0  0  0  0  0  0  0  0
  -24.8100  -34.1620   24.9920 H   0  0  0  0  0  0  0  0  0  0  0  0
  -24.0310  -36.8140   23.0180 C   0  0  0  0  0  1  0  0  0  0  0  0
  -25.2490  -36.4470   23.8810 C   0  0  0  0  0  3  0  0  0  0  0  0
  -27.3360  -37.3810   24.7780 C   0  0  0  0  0  1  0  0  0  0  0  0
  -26.2650  -37.5180   23.7950 N   0  0  0  0  0  0  0  0  0  0  0  0
  -25.8370  -38.4310   23.9160 H   0  0  0  0  0  0  0  0  0  0  0  0
  -26.2960  -31.8690   25.2060 C   0  0  1  0  0  0  0  0  0  0  0  0
  -25.1820  -31.6080   26.2480 C   0  0  0  0  0  1  0  0  0  0  0  0
  -26.9270  -30.5050   24.8370 C   0  0  0  0  0  1  0  0  0  0  0  0
  -27.4080  -32.6990   25.8910 C   0  0  0  0  0  1  0  0  0  0  0  0
  -28.0410  -21.3170   21.0150 C   0  0  0  0  0  2  0  0  0  0  0  0
  -29.2380  -20.4910   21.5680 C   0  0  0  0  0  2  0  0  0  0  0  0
  -29.5320  -19.1700   20.7800 C   0  0  0  0  0  2  0  0  0  0  0  0
  -29.3770  -17.6540   21.1270 C   0  0  0  0  0  2  0  0  0  0  0  0
  -30.6700  -16.8100   20.9560 C   0  0  0  0  0  2  0  0  0  0  0  0
  -30.9320  -14.4440   20.1930 C   0  0  0  0  0  0  0  0  0  0  0  0
  -30.5810  -12.2810   19.0600 C   0  0  0  0  0  2  0  0  0  0  0  0
  -29.6210  -12.4450   17.8620 C   0  0  0  0  0  2  0  0  0  0  0  0
  -28.1460  -12.3580   18.3060 C   0  0  0  0  0  2  0  0  0  0  0  0
  -27.8370  -13.2470   19.5400 C   0  0  0  0  0  3  0  0  0  0  0  0
  -28.8930  -13.0240   20.6460 C   0  0  0  0  0  2  0  0  0  0  0  0
  -30.2280  -13.2860   20.0740 N   0  0  0  0  0  0  0  0  0  0  0  0
  -31.9790  -14.6730   19.5790 O   0  0  0  0  0  0  0  0  0  0  0  0
  -30.3570  -15.3780   20.9660 N   0  0  0  0  0  0  0  0  0  0  0  0
  -29.5340  -15.0830   21.4690 H   0  0  0  0  0  0  0  0  0  0  0  0
  -25.4590  -13.9320   20.2580 C   0  0  0  0  0  0  0  0  0  0  0  0
  -24.3780  -13.1950   20.6580 C   0  0  0  0  0  0  0  0  0  0  0  0
  -24.8040  -11.8300   20.6500 C   0  0  0  0  0  0  0  0  0  0  0  0
  -26.4810  -13.0200   20.0370 N   0  0  0  0  0  0  0  0  0  0  0  0
  -26.0890  -11.7530   20.3260 N   0  0  0  0  0  0  0  0  0  0  0  0
  -24.0520  -10.5910   20.8790 C   0  0  0  0  0  0  0  0  0  0  0  0
  -24.4540   -9.6490   21.8510 C   0  0  0  0  0  3  0  0  0  0  0  0
  -23.7050   -8.4700   22.0620 C   0  0  0  0  0  3  0  0  0  0  0  0
  -22.5380   -8.2250   21.3010 C   0  0  0  0  0  0  0  0  0  0  0  0
  -22.1540   -9.1530   20.3180 C   0  0  0  0  0  3  0  0  0  0  0  0
  -22.9030  -10.3230   20.1060 C   0  0  0  0  0  3  0  0  0  0  0  0
  -21.7640   -7.0960   21.4190 O   0  0  0  0  0  0  0  0  0  0  0  0
  -21.6610   -6.4170   22.6070 C   0  0  0  0  0  0  0  0  0  0  0  0
  -21.2120   -7.0460   23.7880 C   0  0  0  0  0  3  0  0  0  0  0  0
  -21.0530   -6.2930   24.9700 C   0  0  0  0  0  3  0  0  0  0  0  0
  -21.3330   -4.9120   24.9690 C   0  0  0  0  0  0  0  0  0  0  0  0
  -21.7730   -4.2840   23.7900 C   0  0  0  0  0  3  0  0  0  0  0  0
  -21.9330   -5.0340   22.6130 C   0  0  0  0  0  0  0  0  0  0  0  0
  -22.3390   -4.4200   21.4730 F   0  0  0  0  0  0  0  0  0  0  0  0
  -21.1750   -4.1860   26.1000 F   0  0  0  0  0  0  0  0  0  0  0  0
  -22.9940  -13.7090   20.9410 C   0  0  0  0  0  0  0  0  0  0  0  0
  -22.2620  -13.0490   21.8310 N   0  0  0  0  0  0  0  0  0  0  0  0
  -22.5700  -14.7330   20.4060 O   0  0  0  0  0  0  0  0  0  0  0  0
  -22.6150  -12.2200   22.2830 H   0  0  0  0  0  0  0  0  0  0  0  0
  -21.3360  -13.3820   22.0690 H   0  0  0  0  0  0  0  0  0  0  0  0
  -25.6680  -15.2930   20.0480 N   0  0  0  0  0  0  0  0  0  0  0  0
  -24.9440  -15.9950   20.1550 H   0  0  0  0  0  0  0  0  0  0  0  0
  -26.5410  -15.6750   19.7090 H   0  0  0  0  0  0  0  0  0  0  0  0
  2  1  1  0
  3  6  2  0
  3  5  1  0
  4 50  1  0
  4  1  2  0
  5  2  2  0
  6  4  1  0
  7  8  1  0
  8  6  1  0
  9 11  1  0
  9  5  1  0
 10 21  2  0
 11 16  1  0
 12 20  1  0
 12 22  1  0
 13 19  1  0
 13 15  1  0
 14 20  1  0
 15 16  2  0
 15 14  1  0
 17 11  2  0
 18 17  1  0
 18 13  2  0
 19 12  1  0
 20 10  1  0
 22 24  2  0
 23 22  1  0
 25 23  1  0
 26 35  2  0
 26 31  1  0
 27 23  1  0
 27 31  1  0
 28 27  1  0
 29 30  1  0
 29 28  1  0
 30 26  1  0
 31 32  2  0
 32 33  1  0
 34 33  2  0
 35 34  1  0
 36 10  1  0
 36 37  1  0
 36 46  1  0
 37 40  1  0
 38 42  1  0
 38 37  1  0
 39 38  2  0
 42 41  1  0
 44 42  1  0
 44 45  1  0
 44 43  1  0
 46 49  1  1
 46 47  1  0
 48 46  1  0
 50 51  1  0
 52 53  1  0
 52 51  1  0
 54 63  1  0
 54 53  1  0
 55 63  1  0
 56 61  1  0
 57 58  1  0
 57 56  1  0
 59 58  1  0
 59 68  1  0
 59 60  1  0
 61 55  1  0
 61 60  1  0
 62 55  2  0
 63 64  1  0
 65 66  2  0
 66 85  1  0
 67 66  1  0
 67 70  1  0
 68 65  1  0
 68 69  1  0
 69 67  2  0
 70 71  1  0
 71 72  2  0
 73 76  1  0
 73 72  1  0
 74 73  2  0
 75 74  1  0
 75 70  2  0
 76 77  1  0
 77 82  2  0
 77 78  1  0
 78 79  2  0
 80 79  1  0
 80 84  1  0
 81 80  2  0
 82 81  1  0
 83 82  1  0
 85 86  1  0
 86 89  1  0
 86 88  1  0
 87 85  2  0
 90 91  1  0
 90 65  1  0
 92 90  1  0
M  ISO  4   5 101   9 101  55 100  63 100
M  END
>  <TORSDO>  (53) 
F 22

>  <SCORE>  (53) 
-12.541

>  <name>  (53) 
52

>  <ligand_id>  (53) 
52

>  <original_smiles>  (53) 
[H]c1c([H])c([H])c2c(c1[H])C([H])([H])C([H])([H])C([H])([H])C2([H])N([H])C(=O)C1([H])N(C(=O)C([H])(N([H])C(=O)C([H])(N([H])C([H])([H])[H])C([H])([H])[H])C(C([H])([H])[H])(C([H])([H])[H])C([H])([H])[H])C([H])([H])c2c([H])c(Oc3c([H])c([H])c(C([H])([H])C([H])([H])C([H])([H])C([H])([H])C([H])([H])N([H])C(=O)N4C([H])([H])C([H])([H])C([H])([H])C([H])(n5nc(-c6c([H])c([H])c(Oc7c([H])c([H])c(F)c([H])c7F)c([H])c6[H])c(C(=O)N([H])[H])c5N([H])[H])C4([H])[H])c(OC([H])([H])[H])c3[H])c([H])c([H])c2C1([H])[H]

>  <smiles>  (53) 
[H]c1c([H])c([H])c2c(c1[H])C([H])([H])C([H])([H])C([H])([H])C2([H])N([H])C(=O)C1([H])N(C(=O)C([H])(N([H])C(=O)C([H])(N([H])C([H])([H])[H])C([H])([H])[H])C(C([H])([H])[H])(C([H])([H])[H])C([H])([H])[H])C([H])([H])c2c([H])c(Oc3c([H])c([H])c(C([H])([H])C([H])([H])C([H])([H])C([H])([H])C([H])([H])N([H])C(=O)N4C([H])([H])C([H])([H])C([H])([H])C([H])(n5nc(-c6c([H])c([H])c(Oc7c([H])c([H])c(F)c([H])c7F)c([H])c6[H])c(C(=O)N([H])[H])c5N([H])[H])C4([H])[H])c(OC([H])([H])[H])c3[H])c([H])c([H])c2C1([H])[H]

$$$$
53:0:0
     RDKit          3D

 89 97  0  0  1  0  0  0  0  0999 V2000
  -27.4520  -20.8220   20.1500 C   0  0  0  0  0  3  0  0  0  0  0  0
  -26.5570  -21.9180   20.3950 C   0  0  0  0  0  3  0  0  0  0  0  0
  -28.8630  -20.9160   20.1160 C   0  0  0  0  0  0  0  0  0  0  0  0
  -26.8630  -23.3150   20.5630 C   0  0  0  0  0  0  0  0  0  0  0  0
  -29.1070  -22.5570   20.1230 C   0  0  0  0  0  0  0  0  0  0  0  0
  -28.1430  -23.8930   20.2590 C   0  0  0  0  0  0  0  0  0  0  0  0
  -25.7230  -24.1050   21.2070 C   0  0  0  0  0  1  0  0  0  0  0  0
  -30.5700  -22.9320   20.0110 C   0  0  0  0  0  1  0  0  0  0  0  0
  -29.5710  -17.6760   19.8920 C   0  0  0  0  0  3  0  0  0  0  0  0
  -29.7320  -19.2350   20.1180 C   0  0  0  0  0  0  0  0  0  0  0  0
  -30.4290  -16.1210   19.8940 C   0  0  0  0  0  0  0  0  0  0  0  0
  -30.5890  -13.5260   19.1170 C   0  0  0  0  0  2  0  0  0  0  0  0
  -29.6810  -13.0320   17.9480 C   0  0  0  0  0  2  0  0  0  0  0  0
  -28.2950  -12.6220   18.4650 C   0  0  0  0  0  2  0  0  0  0  0  0
  -27.7870  -13.6290   19.5210 C   0  0  0  0  0  3  0  0  0  0  0  0
  -28.8390  -14.0300   20.5800 C   0  0  0  0  0  2  0  0  0  0  0  0
  -29.9480  -14.7140   19.8650 N   0  0  0  0  0  0  0  0  0  0  0  0
  -31.6640  -16.0140   19.7330 O   0  0  0  0  0  0  0  0  0  0  0  0
  -25.4740  -14.1100   20.4390 C   0  0  0  0  0  0  0  0  0  0  0  0
  -24.4420  -13.3090   20.8360 C   0  0  0  0  0  0  0  0  0  0  0  0
  -24.9130  -11.9650   20.7310 C   0  0  0  0  0  0  0  0  0  0  0  0
  -26.5060  -13.2530   20.1040 N   0  0  0  0  0  0  0  0  0  0  0  0
  -26.1850  -11.9550   20.3460 N   0  0  0  0  0  0  0  0  0  0  0  0
  -24.2020  -10.6920   20.9170 C   0  0  0  0  0  0  0  0  0  0  0  0
  -24.6230   -9.7340   21.8680 C   0  0  0  0  0  3  0  0  0  0  0  0
  -23.9050   -8.5310   22.0380 C   0  0  0  0  0  3  0  0  0  0  0  0
  -22.7470   -8.2780   21.2620 C   0  0  0  0  0  0  0  0  0  0  0  0
  -22.3450   -9.2260   20.3020 C   0  0  0  0  0  3  0  0  0  0  0  0
  -23.0650  -10.4180   20.1300 C   0  0  0  0  0  3  0  0  0  0  0  0
  -21.9970   -7.1280   21.3480 O   0  0  0  0  0  0  0  0  0  0  0  0
  -21.8460   -6.4500   22.5310 C   0  0  0  0  0  0  0  0  0  0  0  0
  -21.2180   -7.0400   23.6500 C   0  0  0  0  0  3  0  0  0  0  0  0
  -21.0200   -6.2860   24.8260 C   0  0  0  0  0  3  0  0  0  0  0  0
  -21.4380   -4.9440   24.8800 C   0  0  0  0  0  0  0  0  0  0  0  0
  -22.0590   -4.3520   23.7650 C   0  0  0  0  0  3  0  0  0  0  0  0
  -22.2560   -5.1030   22.5920 C   0  0  0  0  0  0  0  0  0  0  0  0
  -22.8320   -4.5220   21.5110 F   0  0  0  0  0  0  0  0  0  0  0  0
  -21.2420   -4.2140   26.0040 F   0  0  0  0  0  0  0  0  0  0  0  0
  -23.0590  -13.7670   21.1950 C   0  0  0  0  0  0  0  0  0  0  0  0
  -22.3810  -13.0480   22.0800 N   0  0  0  0  0  0  0  0  0  0  0  0
  -22.5920  -14.8040   20.7220 O   0  0  0  0  0  0  0  0  0  0  0  0
  -22.7730  -12.2130   22.4870 H   0  0  0  0  0  0  0  0  0  0  0  0
  -21.4550  -13.3420   22.3530 H   0  0  0  0  0  0  0  0  0  0  0  0
  -25.6190  -15.4880   20.2960 N   0  0  0  0  0  0  0  0  0  0  0  0
  -24.8680  -16.1370   20.4980 H   0  0  0  0  0  0  0  0  0  0  0  0
  -26.4460  -15.9410   19.9320 H   0  0  0  0  0  0  0  0  0  0  0  0
  -30.9460  -19.4900   20.6070 O   0  0  0  0  0  0  0  0  0  0  0  0
  -30.8580  -20.2190   21.2080 H   0  0  0  0  0  0  0  0  0  0  0  0
  -28.2760  -25.5560   20.2230 O   0  0  0  0  0  0  0  0  0  0  0  0
  -24.7840  -31.9280   23.2720 C   0  0  0  0  0  0  0  0  0  0  0  0
  -27.3390  -26.8440   20.1930 C   0  0  0  0  0  0  0  0  0  0  0  0
  -23.6280  -30.5860   21.5620 C   0  0  0  0  0  3  0  0  0  0  0  0
  -25.1110  -28.9740   20.1240 C   0  0  0  0  0  0  0  0  0  0  0  0
  -26.2130  -30.6960   21.5190 C   0  0  0  0  0  2  0  0  0  0  0  0
  -26.2850  -29.2730   20.8210 C   0  0  0  0  0  0  0  0  0  0  0  0
  -27.3760  -28.2340   20.8320 C   0  0  0  0  0  3  0  0  0  0  0  0
  -26.1590  -26.8170   19.4000 C   0  0  0  0  0  3  0  0  0  0  0  0
  -25.0970  -27.7810   19.3800 C   0  0  0  0  0  3  0  0  0  0  0  0
  -23.9050  -29.9300   20.1720 C   0  0  0  0  0  2  0  0  0  0  0  0
  -24.8970  -31.1050   22.1680 N   0  0  0  0  0  0  0  0  0  0  0  0
  -23.6790  -32.2110   23.7720 O   0  0  0  0  0  0  0  0  0  0  0  0
  -22.8930  -29.5790   22.4890 C   0  0  0  0  0  0  0  0  0  0  0  0
  -21.5620  -29.4210   22.3350 N   0  0  0  0  0  0  0  0  0  0  0  0
  -23.5350  -28.9380   23.3230 O   0  0  0  0  0  0  0  0  0  0  0  0
  -21.0880  -29.9960   21.6520 H   0  0  0  0  0  0  0  0  0  0  0  0
  -18.1680  -28.2080   22.8040 C   0  0  0  0  0  0  0  0  0  0  0  0
  -20.7310  -28.4540   23.0680 C   0  0  0  0  0  3  0  0  0  0  0  0
  -20.8210  -27.0470   22.4350 C   0  0  0  0  0  2  0  0  0  0  0  0
  -19.7190  -26.7750   21.4050 C   0  0  0  0  0  2  0  0  0  0  0  0
  -18.3380  -26.8950   22.0580 C   0  0  0  0  0  2  0  0  0  0  0  0
  -19.2900  -28.9480   23.2650 C   0  0  0  0  0  0  0  0  0  0  0  0
  -19.0720  -30.1730   23.9310 C   0  0  0  0  0  3  0  0  0  0  0  0
  -17.7670  -30.6610   24.1370 C   0  0  0  0  0  3  0  0  0  0  0  0
  -16.6620  -29.9200   23.6860 C   0  0  0  0  0  3  0  0  0  0  0  0
  -16.8630  -28.6950   23.0270 C   0  0  0  0  0  3  0  0  0  0  0  0
  -26.0320  -32.5660   23.9530 C   0  0  0  0  0  3  0  0  0  0  0  0
  -25.7180  -33.9750   24.2780 N   0  0  0  0  0  0  0  0  0  0  0  0
  -26.0400  -35.0330   23.5230 C   0  0  0  0  0  0  0  0  0  0  0  0
  -26.6860  -34.9300   22.4770 O   0  0  0  0  0  0  0  0  0  0  0  0
  -25.1470  -34.1280   25.0970 H   0  0  0  0  0  0  0  0  0  0  0  0
  -24.2920  -36.8330   23.2560 C   0  0  0  0  0  1  0  0  0  0  0  0
  -25.5780  -36.4290   23.9980 C   0  0  0  0  0  3  0  0  0  0  0  0
  -27.7360  -37.3540   24.7260 C   0  0  0  0  0  1  0  0  0  0  0  0
  -26.5990  -37.4860   23.8200 N   0  0  0  0  0  0  0  0  0  0  0  0
  -26.1880  -38.4050   23.9580 H   0  0  0  0  0  0  0  0  0  0  0  0
  -26.4760  -31.8100   25.2690 C   0  0  1  0  0  0  0  0  0  0  0  0
  -25.3250  -31.6070   26.2830 C   0  0  0  0  0  1  0  0  0  0  0  0
  -27.0610  -30.4170   24.9480 C   0  0  0  0  0  1  0  0  0  0  0  0
  -27.6010  -32.5990   25.9790 C   0  0  0  0  0  1  0  0  0  0  0  0
  1  2  1  0
  2  4  2  0
  3 10  1  0
  3  5  1  0
  3  1  2  0
  4  7  1  0
  5  6  2  0
  6  4  1  0
  8  5  1  0
  9 11  1  0
  9 10  2  0
 10 47  1  0
 12 17  1  0
 13 14  1  0
 13 12  1  0
 15 14  1  0
 15 22  1  0
 15 16  1  0
 17 11  1  0
 17 16  1  0
 18 11  2  0
 19 20  2  0
 20 39  1  0
 21 20  1  0
 21 24  1  0
 22 23  1  0
 22 19  1  0
 23 21  2  0
 24 25  1  0
 25 26  2  0
 27 30  1  0
 27 26  1  0
 28 27  2  0
 29 28  1  0
 29 24  2  0
 30 31  1  0
 31 36  2  0
 31 32  1  0
 32 33  2  0
 33 34  1  0
 34 38  1  0
 35 34  2  0
 36 35  1  0
 37 36  1  0
 39 40  1  0
 40 43  1  0
 40 42  1  0
 41 39  2  0
 44 19  1  0
 44 45  1  0
 46 44  1  0
 47 48  1  0
 49  6  1  0
 50 61  2  0
 51 49  1  0
 51 56  1  0
 52 60  1  0
 52 62  1  0
 53 59  1  0
 53 55  1  0
 54 60  1  0
 55 56  2  0
 55 54  1  0
 57 51  2  0
 58 57  1  0
 58 53  2  0
 59 52  1  0
 60 50  1  0
 62 64  2  0
 63 62  1  0
 65 63  1  0
 66 75  2  0
 66 71  1  0
 67 63  1  0
 67 71  1  0
 68 67  1  0
 69 70  1  0
 69 68  1  0
 70 66  1  0
 71 72  2  0
 72 73  1  0
 74 73  2  0
 75 74  1  0
 76 50  1  0
 76 77  1  0
 76 86  1  0
 77 80  1  0
 78 82  1  0
 78 77  1  0
 79 78  2  0
 82 81  1  0
 84 85  1  0
 84 82  1  0
 84 83  1  0
 86 89  1  1
 86 87  1  0
 88 86  1  0
M  ISO  4   6 101   9 100  11 100  49 101
M  END
>  <TORSDO>  (54) 
F 18

>  <SCORE>  (54) 
-15.238

>  <name>  (54) 
53

>  <ligand_id>  (54) 
53

>  <original_smiles>  (54) 
[H]OC(=C([H])C(=O)N1C([H])([H])C([H])([H])C([H])([H])C([H])(n2nc(-c3c([H])c([H])c(Oc4c([H])c([H])c(F)c([H])c4F)c([H])c3[H])c(C(=O)N([H])[H])c2N([H])[H])C1([H])[H])c1c([H])c([H])c(C([H])([H])[H])c(Oc2c([H])c([H])c3c(c2[H])C([H])([H])N(C(=O)C([H])(N([H])C(=O)C([H])(N([H])C([H])([H])[H])C([H])([H])[H])C(C([H])([H])[H])(C([H])([H])[H])C([H])([H])[H])C([H])(C(=O)N([H])C2([H])c4c([H])c([H])c([H])c([H])c4C([H])([H])C([H])([H])C2([H])[H])C3([H])[H])c1C([H])([H])[H]

>  <smiles>  (54) 
[H]OC(=C([H])C(=O)N1C([H])([H])C([H])([H])C([H])([H])C([H])(n2nc(-c3c([H])c([H])c(Oc4c([H])c([H])c(F)c([H])c4F)c([H])c3[H])c(C(=O)N([H])[H])c2N([H])[H])C1([H])[H])c1c([H])c([H])c(C([H])([H])[H])c(Oc2c([H])c([H])c3c(c2[H])C([H])([H])N(C(=O)C([H])(N([H])C(=O)C([H])(N([H])C([H])([H])[H])C([H])([H])[H])C(C([H])([H])[H])(C([H])([H])[H])C([H])([H])[H])C([H])(C(=O)N([H])C2([H])c4c([H])c([H])c([H])c([H])c4C([H])([H])C([H])([H])C2([H])[H])C3([H])[H])c1C([H])([H])[H]

$$$$
54:0:0
     RDKit          3D

 92100  0  0  1  0  0  0  0  0999 V2000
  -27.6970  -22.0810   21.3570 C   0  0  0  0  0  3  0  0  0  0  0  0
  -26.9660  -23.1750   21.8720 C   0  0  0  0  0  3  0  0  0  0  0  0
  -28.6990  -22.2380   20.3800 C   0  0  0  0  0  0  0  0  0  0  0  0
  -27.1580  -24.5250   21.4570 C   0  0  0  0  0  0  0  0  0  0  0  0
  -28.0900  -24.8530   20.4310 C   0  0  0  0  0  0  0  0  0  0  0  0
  -28.8570  -23.6640   19.9310 C   0  0  0  0  0  0  0  0  0  0  0  0
  -29.7940  -23.9170   18.9870 F   0  0  0  0  0  0  0  0  0  0  0  0
  -29.5030  -20.8830   19.9390 C   0  0  0  0  0  0  0  0  0  0  0  0
  -30.4260  -20.9980   19.1300 O   0  0  0  0  0  0  0  0  0  0  0  0
  -29.2330  -19.3040   20.4410 C   0  0  0  0  0  3  0  0  0  0  0  0
  -30.2130  -17.9470   20.0710 C   0  0  0  0  0  3  0  0  0  0  0  0
  -30.6810  -15.2030   20.1630 C   0  0  0  0  0  0  0  0  0  0  0  0
  -30.5790  -12.8380   19.2340 C   0  0  0  0  0  2  0  0  0  0  0  0
  -29.6330  -12.7770   18.0120 C   0  0  0  0  0  2  0  0  0  0  0  0
  -28.1810  -12.5390   18.4650 C   0  0  0  0  0  2  0  0  0  0  0  0
  -27.7740  -13.4570   19.6470 C   0  0  0  0  0  3  0  0  0  0  0  0
  -28.8450  -13.4970   20.7590 C   0  0  0  0  0  2  0  0  0  0  0  0
  -30.0990  -13.9320   20.1320 N   0  0  0  0  0  0  0  0  0  0  0  0
  -31.8720  -15.2700   19.8410 O   0  0  0  0  0  0  0  0  0  0  0  0
  -29.9080  -16.3970   20.3420 N   0  0  0  0  0  0  0  0  0  0  0  0
  -28.9530  -16.2070   20.6100 H   0  0  0  0  0  0  0  0  0  0  0  0
  -25.4010  -13.9950   20.4330 C   0  0  0  0  0  0  0  0  0  0  0  0
  -24.3540  -13.2030   20.8140 C   0  0  0  0  0  0  0  0  0  0  0  0
  -24.8340  -11.8580   20.7620 C   0  0  0  0  0  0  0  0  0  0  0  0
  -26.4510  -13.1330   20.1660 N   0  0  0  0  0  0  0  0  0  0  0  0
  -26.1200  -11.8410   20.4280 N   0  0  0  0  0  0  0  0  0  0  0  0
  -24.1240  -10.5860   20.9490 C   0  0  0  0  0  0  0  0  0  0  0  0
  -24.5410   -9.6410   21.9130 C   0  0  0  0  0  3  0  0  0  0  0  0
  -23.8290   -8.4350   22.0890 C   0  0  0  0  0  3  0  0  0  0  0  0
  -22.6860   -8.1630   21.3000 C   0  0  0  0  0  0  0  0  0  0  0  0
  -22.2880   -9.0960   20.3270 C   0  0  0  0  0  3  0  0  0  0  0  0
  -23.0000  -10.2940   20.1490 C   0  0  0  0  0  3  0  0  0  0  0  0
  -21.9480   -7.0060   21.3820 O   0  0  0  0  0  0  0  0  0  0  0  0
  -21.8300   -6.3110   22.5590 C   0  0  0  0  0  0  0  0  0  0  0  0
  -21.2470   -6.8870   23.7090 C   0  0  0  0  0  3  0  0  0  0  0  0
  -21.0810   -6.1150   24.8760 C   0  0  0  0  0  3  0  0  0  0  0  0
  -21.4890   -4.7670   24.8940 C   0  0  0  0  0  0  0  0  0  0  0  0
  -22.0650   -4.1910   23.7480 C   0  0  0  0  0  3  0  0  0  0  0  0
  -22.2320   -4.9610   22.5840 C   0  0  0  0  0  0  0  0  0  0  0  0
  -22.7680   -4.3950   21.4760 F   0  0  0  0  0  0  0  0  0  0  0  0
  -21.3220   -4.0230   26.0120 F   0  0  0  0  0  0  0  0  0  0  0  0
  -22.9560  -13.6610   21.1110 C   0  0  0  0  0  0  0  0  0  0  0  0
  -22.2460  -12.9420   21.9730 N   0  0  0  0  0  0  0  0  0  0  0  0
  -22.5030  -14.6910   20.6140 O   0  0  0  0  0  0  0  0  0  0  0  0
  -22.6260  -12.1100   22.3990 H   0  0  0  0  0  0  0  0  0  0  0  0
  -21.3080  -13.2310   22.2130 H   0  0  0  0  0  0  0  0  0  0  0  0
  -25.5450  -15.3690   20.2660 N   0  0  0  0  0  0  0  0  0  0  0  0
  -24.7650  -16.0070   20.3850 H   0  0  0  0  0  0  0  0  0  0  0  0
  -26.3680  -15.8180   19.8840 H   0  0  0  0  0  0  0  0  0  0  0  0
  -25.3230  -25.2970   22.8340 C   0  0  0  0  0  1  0  0  0  0  0  0
  -26.4800  -25.5690   22.0570 O   0  0  0  0  0  0  0  0  0  0  0  0
  -28.2480  -26.2840   20.0570 O   0  0  0  0  0  0  0  0  0  0  0  0
  -24.5730  -31.9090   23.1830 C   0  0  0  0  0  0  0  0  0  0  0  0
  -27.2000  -27.2860   20.0410 C   0  0  0  0  0  0  0  0  0  0  0  0
  -23.3910  -30.5480   21.5030 C   0  0  0  0  0  3  0  0  0  0  0  0
  -24.8590  -29.0210   20.0410 C   0  0  0  0  0  0  0  0  0  0  0  0
  -25.9450  -30.8310   21.3600 C   0  0  0  0  0  2  0  0  0  0  0  0
  -26.0320  -29.4550   20.6740 C   0  0  0  0  0  0  0  0  0  0  0  0
  -27.2020  -28.6030   20.6610 C   0  0  0  0  0  3  0  0  0  0  0  0
  -26.0070  -26.9620   19.3610 C   0  0  0  0  0  3  0  0  0  0  0  0
  -24.8590  -27.7860   19.3720 C   0  0  0  0  0  3  0  0  0  0  0  0
  -23.6250  -29.9090   20.1070 C   0  0  0  0  0  2  0  0  0  0  0  0
  -24.6560  -31.1180   22.0700 N   0  0  0  0  0  0  0  0  0  0  0  0
  -23.4820  -32.1720   23.7130 O   0  0  0  0  0  0  0  0  0  0  0  0
  -22.7160  -29.5110   22.4340 C   0  0  0  0  0  0  0  0  0  0  0  0
  -21.3870  -29.3420   22.3050 N   0  0  0  0  0  0  0  0  0  0  0  0
  -23.3890  -28.8610   23.2390 O   0  0  0  0  0  0  0  0  0  0  0  0
  -20.8990  -29.9160   21.6320 H   0  0  0  0  0  0  0  0  0  0  0  0
  -18.0010  -28.1590   22.8200 C   0  0  0  0  0  0  0  0  0  0  0  0
  -20.5690  -28.3810   23.0500 C   0  0  0  0  0  3  0  0  0  0  0  0
  -20.6430  -26.9750   22.4120 C   0  0  0  0  0  2  0  0  0  0  0  0
  -19.5180  -26.7100   21.4050 C   0  0  0  0  0  2  0  0  0  0  0  0
  -18.1500  -26.8390   22.0810 C   0  0  0  0  0  2  0  0  0  0  0  0
  -19.1360  -28.8900   23.2620 C   0  0  0  0  0  0  0  0  0  0  0  0
  -18.9420  -30.1240   23.9180 C   0  0  0  0  0  3  0  0  0  0  0  0
  -17.6450  -30.6290   24.1350 C   0  0  0  0  0  3  0  0  0  0  0  0
  -16.5250  -29.8940   23.7070 C   0  0  0  0  0  3  0  0  0  0  0  0
  -16.7040  -28.6620   23.0560 C   0  0  0  0  0  3  0  0  0  0  0  0
  -25.8420  -32.5390   23.8330 C   0  0  0  0  0  3  0  0  0  0  0  0
  -26.3230  -31.7710   25.1250 C   0  0  1  0  0  0  0  0  0  0  0  0
  -25.2030  -31.5430   26.1670 C   0  0  0  0  0  1  0  0  0  0  0  0
  -26.9090  -30.3870   24.7590 C   0  0  0  0  0  1  0  0  0  0  0  0
  -27.4630  -32.5610   25.8110 C   0  0  0  0  0  1  0  0  0  0  0  0
  -25.5330  -33.9410   24.1560 N   0  0  0  0  0  0  0  0  0  0  0  0
  -25.8880  -34.9950   23.4090 C   0  0  0  0  0  0  0  0  0  0  0  0
  -26.5760  -34.8890   22.3910 O   0  0  0  0  0  0  0  0  0  0  0  0
  -24.9220  -34.0970   24.9440 H   0  0  0  0  0  0  0  0  0  0  0  0
  -24.1920  -36.8150   23.0190 C   0  0  0  0  0  1  0  0  0  0  0  0
  -25.4060  -36.3880   23.8630 C   0  0  0  0  0  3  0  0  0  0  0  0
  -27.5190  -37.2490   24.7670 C   0  0  0  0  0  1  0  0  0  0  0  0
  -26.4530  -37.4290   23.7850 N   0  0  0  0  0  0  0  0  0  0  0  0
  -26.0530  -38.3540   23.9170 H   0  0  0  0  0  0  0  0  0  0  0  0
  1  2  1  0
  3  1  2  0
  4  2  2  0
  4 51  1  0
  5  4  1  0
  6  3  1  0
  6  5  2  0
  7  6  1  0
  8  3  1  0
  8 10  1  0
  9  8  2  0
 11 20  1  0
 11 10  2  0
 12 20  1  0
 13 18  1  0
 14 15  1  0
 14 13  1  0
 16 15  1  0
 16 25  1  0
 16 17  1  0
 18 12  1  0
 18 17  1  0
 19 12  2  0
 20 21  1  0
 22 23  2  0
 23 42  1  0
 24 23  1  0
 24 27  1  0
 25 26  1  0
 25 22  1  0
 26 24  2  0
 27 28  1  0
 28 29  2  0
 30 33  1  0
 30 29  1  0
 31 30  2  0
 32 31  1  0
 32 27  2  0
 33 34  1  0
 34 39  2  0
 34 35  1  0
 35 36  2  0
 36 37  1  0
 37 41  1  0
 38 37  2  0
 39 38  1  0
 40 39  1  0
 42 43  1  0
 43 46  1  0
 43 45  1  0
 44 42  2  0
 47 48  1  0
 47 22  1  0
 49 47  1  0
 51 50  1  0
 52  5  1  0
 53 64  2  0
 54 52  1  0
 54 59  1  0
 55 63  1  0
 55 65  1  0
 56 62  1  0
 56 58  1  0
 57 63  1  0
 58 57  1  0
 59 58  2  0
 60 61  1  0
 60 54  2  0
 61 56  2  0
 62 55  1  0
 63 53  1  0
 65 67  2  0
 66 65  1  0
 68 66  1  0
 69 78  2  0
 69 74  1  0
 70 66  1  0
 70 74  1  0
 71 70  1  0
 72 73  1  0
 72 71  1  0
 73 69  1  0
 74 75  2  0
 75 76  1  0
 77 76  2  0
 78 77  1  0
 79 53  1  0
 79 84  1  0
 79 80  1  0
 80 83  1  1
 80 81  1  0
 82 80  1  0
 84 87  1  0
 85 89  1  0
 85 84  1  0
 86 85  2  0
 89 88  1  0
 91 89  1  0
 91 92  1  0
 91 90  1  0
M  ISO  4   5 101  12 100  20 100  52 101
M  END
>  <TORSDO>  (55) 
F 20

>  <SCORE>  (55) 
-14.601

>  <name>  (55) 
54

>  <ligand_id>  (55) 
54

>  <original_smiles>  (55) 
[H]c1c([H])c([H])c2c(c1[H])C([H])([H])C([H])([H])C([H])([H])C2([H])N([H])C(=O)C1([H])N(C(=O)C([H])(N([H])C(=O)C([H])(N([H])C([H])([H])[H])C([H])([H])[H])C(C([H])([H])[H])(C([H])([H])[H])C([H])([H])[H])C([H])([H])c2c([H])c(Oc3c(F)c(C(=O)C([H])([H])C([H])([H])N([H])C(=O)N4C([H])([H])C([H])([H])C([H])([H])C([H])(n5nc(-c6c([H])c([H])c(Oc7c([H])c([H])c(F)c([H])c7F)c([H])c6[H])c(C(=O)N([H])[H])c5N([H])[H])C4([H])[H])c([H])c([H])c3OC([H])([H])[H])c([H])c([H])c2C1([H])[H]

>  <smiles>  (55) 
[H]c1c([H])c([H])c2c(c1[H])C([H])([H])C([H])([H])C([H])([H])C2([H])N([H])C(=O)C1([H])N(C(=O)C([H])(N([H])C(=O)C([H])(N([H])C([H])([H])[H])C([H])([H])[H])C(C([H])([H])[H])(C([H])([H])[H])C([H])([H])[H])C([H])([H])c2c([H])c(Oc3c(F)c(C(=O)C([H])([H])C([H])([H])N([H])C(=O)N4C([H])([H])C([H])([H])C([H])([H])C([H])(n5nc(-c6c([H])c([H])c(Oc7c([H])c([H])c(F)c([H])c7F)c([H])c6[H])c(C(=O)N([H])[H])c5N([H])[H])C4([H])[H])c([H])c([H])c3OC([H])([H])[H])c([H])c([H])c2C1([H])[H]

$$$$
55:0:0
     RDKit          3D

 88 96  0  0  1  0  0  0  0  0999 V2000
  -28.0070  -21.3040   19.6510 C   0  0  0  0  0  3  0  0  0  0  0  0
  -27.6630  -22.8090   19.6530 C   0  0  0  0  0  3  0  0  0  0  0  0
  -29.3940  -23.1840   20.9720 C   0  0  0  0  0  3  0  0  0  0  0  0
  -29.1000  -20.5220   20.3170 C   0  0  0  0  0  0  0  0  0  0  0  0
  -29.7440  -21.6930   20.9870 C   0  0  0  0  0  0  0  0  0  0  0  0
  -28.3180  -23.9800   20.3170 C   0  0  0  0  0  0  0  0  0  0  0  0
  -30.9910  -21.3590   21.7900 C   0  0  0  0  0  1  0  0  0  0  0  0
  -30.4050  -18.8640   18.6960 C   0  0  0  0  0  1  0  0  0  0  0  0
  -29.8050  -18.7900   20.1070 C   0  0  0  0  0  0  0  0  0  0  0  0
  -30.2560  -15.6730   20.2120 C   0  0  0  0  0  0  0  0  0  0  0  0
  -30.3200  -13.1470   19.3550 C   0  0  0  0  0  2  0  0  0  0  0  0
  -29.4140  -12.7780   18.1470 C   0  0  0  0  0  2  0  0  0  0  0  0
  -27.9930  -12.4300   18.6080 C   0  0  0  0  0  2  0  0  0  0  0  0
  -27.5020  -13.4100   19.6990 C   0  0  0  0  0  3  0  0  0  0  0  0
  -28.5490  -13.6930   20.8040 C   0  0  0  0  0  2  0  0  0  0  0  0
  -29.7180  -14.3150   20.1430 N   0  0  0  0  0  0  0  0  0  0  0  0
  -31.4820  -15.6000   19.9990 O   0  0  0  0  0  0  0  0  0  0  0  0
  -29.5260  -17.0490   20.3180 N   0  0  0  0  0  4  0  0  0  0  0  0
  -28.5460  -16.8800   20.4960 H   0  0  0  0  0  0  0  0  0  0  0  0
  -25.1460  -13.9240   20.4970 C   0  0  0  0  0  0  0  0  0  0  0  0
  -24.0980  -13.1340   20.8740 C   0  0  0  0  0  0  0  0  0  0  0  0
  -24.5760  -11.7890   20.8310 C   0  0  0  0  0  0  0  0  0  0  0  0
  -26.1940  -13.0610   20.2330 N   0  0  0  0  0  0  0  0  0  0  0  0
  -25.8670  -11.7690   20.5030 N   0  0  0  0  0  0  0  0  0  0  0  0
  -23.8580  -10.5210   21.0190 C   0  0  0  0  0  0  0  0  0  0  0  0
  -24.2950   -9.5540   21.9510 C   0  0  0  0  0  3  0  0  0  0  0  0
  -23.5730   -8.3550   22.1320 C   0  0  0  0  0  3  0  0  0  0  0  0
  -22.3990   -8.1120   21.3800 C   0  0  0  0  0  0  0  0  0  0  0  0
  -21.9800   -9.0670   20.4370 C   0  0  0  0  0  3  0  0  0  0  0  0
  -22.7030  -10.2590   20.2550 C   0  0  0  0  0  3  0  0  0  0  0  0
  -21.6470   -6.9650   21.4710 O   0  0  0  0  0  0  0  0  0  0  0  0
  -21.5930   -6.2290   22.6260 C   0  0  0  0  0  0  0  0  0  0  0  0
  -21.1390   -6.7840   23.8430 C   0  0  0  0  0  3  0  0  0  0  0  0
  -21.0340   -5.9730   24.9910 C   0  0  0  0  0  3  0  0  0  0  0  0
  -21.3720   -4.6060   24.9230 C   0  0  0  0  0  0  0  0  0  0  0  0
  -21.8190   -4.0520   23.7110 C   0  0  0  0  0  3  0  0  0  0  0  0
  -21.9250   -4.8600   22.5660 C   0  0  0  0  0  0  0  0  0  0  0  0
  -22.3360   -4.3150   21.3950 F   0  0  0  0  0  0  0  0  0  0  0  0
  -21.2640   -3.8260   26.0230 F   0  0  0  0  0  0  0  0  0  0  0  0
  -22.6980  -13.6000   21.1520 C   0  0  0  0  0  0  0  0  0  0  0  0
  -21.9830  -12.9060   22.0290 N   0  0  0  0  0  0  0  0  0  0  0  0
  -22.2510  -14.6190   20.6270 O   0  0  0  0  0  0  0  0  0  0  0  0
  -22.3610  -12.0850   22.4800 H   0  0  0  0  0  0  0  0  0  0  0  0
  -21.0430  -13.2010   22.2540 H   0  0  0  0  0  0  0  0  0  0  0  0
  -25.2900  -15.2970   20.3220 N   0  0  0  0  0  0  0  0  0  0  0  0
  -24.5100  -15.9350   20.4380 H   0  0  0  0  0  0  0  0  0  0  0  0
  -26.1160  -15.7430   19.9420 H   0  0  0  0  0  0  0  0  0  0  0  0
  -28.1990  -25.6000   20.2760 O   0  0  0  0  0  0  0  0  0  0  0  0
  -24.6230  -31.8640   23.1690 C   0  0  0  0  0  0  0  0  0  0  0  0
  -27.1710  -26.7610   20.2460 C   0  0  0  0  0  0  0  0  0  0  0  0
  -23.4450  -30.4540   21.5340 C   0  0  0  0  0  3  0  0  0  0  0  0
  -24.8990  -28.7870   20.1510 C   0  0  0  0  0  0  0  0  0  0  0  0
  -26.0220  -30.5940   21.4310 C   0  0  0  0  0  2  0  0  0  0  0  0
  -26.0860  -29.1530   20.7940 C   0  0  0  0  0  0  0  0  0  0  0  0
  -27.2040  -28.1660   20.8090 C   0  0  0  0  0  3  0  0  0  0  0  0
  -25.9490  -26.6040   19.5420 C   0  0  0  0  0  3  0  0  0  0  0  0
  -24.8670  -27.5380   19.5050 C   0  0  0  0  0  3  0  0  0  0  0  0
  -23.6950  -29.7430   20.1720 C   0  0  0  0  0  2  0  0  0  0  0  0
  -24.7210  -31.0050   22.0970 N   0  0  0  0  0  0  0  0  0  0  0  0
  -23.5260  -32.1700   23.6690 O   0  0  0  0  0  0  0  0  0  0  0  0
  -22.7210  -29.4870   22.5090 C   0  0  0  0  0  0  0  0  0  0  0  0
  -21.3860  -29.3490   22.3850 N   0  0  0  0  0  0  0  0  0  0  0  0
  -23.3700  -28.8600   23.3480 O   0  0  0  0  0  0  0  0  0  0  0  0
  -20.9120  -29.9040   21.6860 H   0  0  0  0  0  0  0  0  0  0  0  0
  -17.9850  -28.1840   22.9170 C   0  0  0  0  0  0  0  0  0  0  0  0
  -20.5510  -28.4220   23.1610 C   0  0  0  0  0  3  0  0  0  0  0  0
  -20.6290  -26.9890   22.5850 C   0  0  0  0  0  2  0  0  0  0  0  0
  -19.5170  -26.6810   21.5780 C   0  0  0  0  0  2  0  0  0  0  0  0
  -18.1420  -26.8370   22.2320 C   0  0  0  0  0  2  0  0  0  0  0  0
  -19.1150  -28.9350   23.3390 C   0  0  0  0  0  0  0  0  0  0  0  0
  -18.9110  -30.1920   23.9470 C   0  0  0  0  0  3  0  0  0  0  0  0
  -17.6110  -30.7010   24.1330 C   0  0  0  0  0  3  0  0  0  0  0  0
  -16.4960  -29.9490   23.7210 C   0  0  0  0  0  3  0  0  0  0  0  0
  -16.6840  -28.6920   23.1200 C   0  0  0  0  0  3  0  0  0  0  0  0
  -25.8830  -32.5160   23.8140 C   0  0  0  0  0  3  0  0  0  0  0  0
  -25.5530  -33.9150   24.1550 N   0  0  0  0  0  0  0  0  0  0  0  0
  -25.8760  -34.9860   23.4170 C   0  0  0  0  0  0  0  0  0  0  0  0
  -26.5400  -34.9000   22.3800 O   0  0  0  0  0  0  0  0  0  0  0  0
  -24.9590  -34.0530   24.9590 H   0  0  0  0  0  0  0  0  0  0  0  0
  -24.1350  -36.7860   23.1210 C   0  0  0  0  0  1  0  0  0  0  0  0
  -25.3930  -36.3700   23.9010 C   0  0  0  0  0  3  0  0  0  0  0  0
  -27.5310  -37.2720   24.7120 C   0  0  0  0  0  1  0  0  0  0  0  0
  -26.4230  -37.4280   23.7740 N   0  0  0  0  0  0  0  0  0  0  0  0
  -26.0150  -38.3490   23.9110 H   0  0  0  0  0  0  0  0  0  0  0  0
  -26.3800  -31.7560   25.1080 C   0  0  1  0  0  0  0  0  0  0  0  0
  -25.2710  -31.5280   26.1620 C   0  0  0  0  0  1  0  0  0  0  0  0
  -26.9690  -30.3750   24.7460 C   0  0  0  0  0  1  0  0  0  0  0  0
  -27.5210  -32.5540   25.7800 C   0  0  0  0  0  1  0  0  0  0  0  0
  1  2  2  0
  1  4  1  0
  2  6  1  0
  3  5  1  0
  4  5  2  0
  5  7  1  0
  6  3  2  0
  8  9  1  0
  9  4  1  0
  9 18  2  0
 10 18  1  0
 11 16  1  0
 12 13  1  0
 12 11  1  0
 14 13  1  0
 14 23  1  0
 14 15  1  0
 16 10  1  0
 16 15  1  0
 17 10  2  0
 18 19  1  0
 20 21  2  0
 21 40  1  0
 22 21  1  0
 22 25  1  0
 23 20  1  0
 23 24  1  0
 24 22  2  0
 25 26  1  0
 26 27  2  0
 28 31  1  0
 28 27  1  0
 29 28  2  0
 30 29  1  0
 30 25  2  0
 31 32  1  0
 32 33  1  0
 33 34  2  0
 35 34  1  0
 35 39  1  0
 36 35  2  0
 37 32  2  0
 37 36  1  0
 38 37  1  0
 40 41  1  0
 41 44  1  0
 41 43  1  0
 42 40  2  0
 45 46  1  0
 45 20  1  0
 47 45  1  0
 48  6  1  0
 49 60  2  0
 50 48  1  0
 50 55  1  0
 51 59  1  0
 51 61  1  0
 52 58  1  0
 52 54  1  0
 53 59  1  0
 54 55  2  0
 54 53  1  0
 56 50  2  0
 57 56  1  0
 57 52  2  0
 58 51  1  0
 59 49  1  0
 61 63  2  0
 62 61  1  0
 64 62  1  0
 65 74  2  0
 65 70  1  0
 66 62  1  0
 66 70  1  0
 67 66  1  0
 68 69  1  0
 68 67  1  0
 69 65  1  0
 70 71  2  0
 71 72  1  0
 73 72  2  0
 74 73  1  0
 75 49  1  0
 75 76  1  0
 75 85  1  0
 76 79  1  0
 77 81  1  0
 77 76  1  0
 78 77  2  0
 81 80  1  0
 83 81  1  0
 83 84  1  0
 83 82  1  0
 85 88  1  1
 85 86  1  0
 87 85  1  0
M  ISO  4   6 101  10 100  18 100  48 101
M  END
>  <TORSDO>  (56) 
F 17

>  <SCORE>  (56) 
-15.956

>  <name>  (56) 
55

>  <ligand_id>  (56) 
55

>  <original_smiles>  (56) 
[H]c1c([H])c([H])c2c(c1[H])C([H])([H])C([H])([H])C([H])([H])C2([H])N([H])C(=O)C1([H])N(C(=O)C([H])(N([H])C(=O)C([H])(N([H])C([H])([H])[H])C([H])([H])[H])C(C([H])([H])[H])(C([H])([H])[H])C([H])([H])[H])C([H])([H])c2c([H])c(Oc3c([H])c([H])c(C([H])(N([H])C(=O)N4C([H])([H])C([H])([H])C([H])([H])C([H])(n5nc(-c6c([H])c([H])c(Oc7c([H])c([H])c(F)c([H])c7F)c([H])c6[H])c(C(=O)N([H])[H])c5N([H])[H])C4([H])[H])C([H])([H])[H])c(C([H])([H])[H])c3[H])c([H])c([H])c2C1([H])[H]

>  <smiles>  (56) 
[H]c1c([H])c([H])c2c(c1[H])C([H])([H])C([H])([H])C([H])([H])C2([H])N([H])C(=O)C1([H])N(C(=O)C([H])(N([H])C(=O)C([H])(N([H])C([H])([H])[H])C([H])([H])[H])C(C([H])([H])[H])(C([H])([H])[H])C([H])([H])[H])C([H])([H])c2c([H])c(Oc3c([H])c([H])c(C([H])(N([H])C(=O)N4C([H])([H])C([H])([H])C([H])([H])C([H])(n5nc(-c6c([H])c([H])c(Oc7c([H])c([H])c(F)c([H])c7F)c([H])c6[H])c(C(=O)N([H])[H])c5N([H])[H])C4([H])[H])C([H])([H])[H])c(C([H])([H])[H])c3[H])c([H])c([H])c2C1([H])[H]

$$$$
56:0:0
     RDKit          3D

 88 96  0  0  1  0  0  0  0  0999 V2000
  -30.3030  -20.4670   19.3870 C   0  0  0  0  0  3  0  0  0  0  0  0
  -30.4840  -18.9920   19.4300 C   0  0  0  0  0  3  0  0  0  0  0  0
  -28.1600  -20.2630   20.1960 C   0  0  0  0  0  3  0  0  0  0  0  0
  -29.1280  -21.2530   19.7620 C   0  0  0  0  0  0  0  0  0  0  0  0
  -28.3260  -18.7860   20.2400 C   0  0  0  0  0  0  0  0  0  0  0  0
  -29.5100  -18.0080   19.8680 C   0  0  0  0  0  0  0  0  0  0  0  0
  -27.1370  -17.9970   20.7600 C   0  0  0  0  0  1  0  0  0  0  0  0
  -30.3510  -15.2150   19.5770 C   0  0  0  0  0  0  0  0  0  0  0  0
  -30.2210  -12.8050   18.6510 C   0  0  0  0  0  2  0  0  0  0  0  0
  -29.1670  -12.6810   17.5200 C   0  0  0  0  0  2  0  0  0  0  0  0
  -27.7640  -12.4290   18.1010 C   0  0  0  0  0  2  0  0  0  0  0  0
  -27.4600  -13.3570   19.3040 C   0  0  0  0  0  3  0  0  0  0  0  0
  -28.6240  -13.4210   20.3170 C   0  0  0  0  0  2  0  0  0  0  0  0
  -29.8020  -13.9090   19.5820 N   0  0  0  0  0  0  0  0  0  0  0  0
  -31.5160  -15.2740   19.1550 O   0  0  0  0  0  0  0  0  0  0  0  0
  -29.5530  -16.4010   19.9050 N   0  0  0  0  0  0  0  0  0  0  0  0
  -28.6930  -16.0520   20.3010 H   0  0  0  0  0  0  0  0  0  0  0  0
  -25.1960  -13.9280   20.3360 C   0  0  0  0  0  0  0  0  0  0  0  0
  -24.1650  -13.1550   20.7920 C   0  0  0  0  0  0  0  0  0  0  0  0
  -24.5930  -11.7990   20.6460 C   0  0  0  0  0  0  0  0  0  0  0  0
  -26.1850  -13.0460   19.9390 N   0  0  0  0  0  0  0  0  0  0  0  0
  -25.8410  -11.7570   20.1900 N   0  0  0  0  0  0  0  0  0  0  0  0
  -23.8610  -10.5440   20.8580 C   0  0  0  0  0  0  0  0  0  0  0  0
  -24.3270   -9.5580   21.7570 C   0  0  0  0  0  3  0  0  0  0  0  0
  -23.5930   -8.3690   21.9590 C   0  0  0  0  0  3  0  0  0  0  0  0
  -22.3790   -8.1570   21.2620 C   0  0  0  0  0  0  0  0  0  0  0  0
  -21.9320   -9.1300   20.3510 C   0  0  0  0  0  3  0  0  0  0  0  0
  -22.6670  -10.3100   20.1470 C   0  0  0  0  0  3  0  0  0  0  0  0
  -21.6150   -7.0210   21.3740 O   0  0  0  0  0  0  0  0  0  0  0  0
  -21.5550   -6.3070   22.5440 C   0  0  0  0  0  0  0  0  0  0  0  0
  -21.1150   -6.8910   23.7520 C   0  0  0  0  0  3  0  0  0  0  0  0
  -21.0040   -6.1030   24.9150 C   0  0  0  0  0  3  0  0  0  0  0  0
  -21.3190   -4.7330   24.8700 C   0  0  0  0  0  0  0  0  0  0  0  0
  -21.7520   -4.1480   23.6670 C   0  0  0  0  0  3  0  0  0  0  0  0
  -21.8650   -4.9320   22.5070 C   0  0  0  0  0  0  0  0  0  0  0  0
  -22.2610   -4.3600   21.3450 F   0  0  0  0  0  0  0  0  0  0  0  0
  -21.2050   -3.9730   25.9860 F   0  0  0  0  0  0  0  0  0  0  0  0
  -22.8180  -13.6450   21.2360 C   0  0  0  0  0  0  0  0  0  0  0  0
  -22.1800  -12.9320   22.1560 N   0  0  0  0  0  0  0  0  0  0  0  0
  -22.3460  -14.6950   20.8030 O   0  0  0  0  0  0  0  0  0  0  0  0
  -22.5780  -12.0820   22.5270 H   0  0  0  0  0  0  0  0  0  0  0  0
  -21.2800  -13.2410   22.4970 H   0  0  0  0  0  0  0  0  0  0  0  0
  -25.3630  -15.3010   20.1950 N   0  0  0  0  0  0  0  0  0  0  0  0
  -24.6060  -15.9480   20.3900 H   0  0  0  0  0  0  0  0  0  0  0  0
  -26.1260  -15.7300   19.6880 H   0  0  0  0  0  0  0  0  0  0  0  0
  -29.0900  -22.9830   19.9480 C   0  0  0  0  0  3  0  0  0  0  0  0
  -28.0530  -24.3510   19.5030 C   0  0  0  0  0  3  0  0  0  0  0  0
  -28.2200  -25.9530   19.7590 O   0  0  0  0  0  0  0  0  0  0  0  0
  -24.5220  -31.6240   22.9940 C   0  0  0  0  0  0  0  0  0  0  0  0
  -27.1630  -26.9880   19.7430 C   0  0  0  0  0  0  0  0  0  0  0  0
  -23.3400  -30.2700   21.3090 C   0  0  0  0  0  3  0  0  0  0  0  0
  -24.8090  -28.7710   19.8020 C   0  0  0  0  0  0  0  0  0  0  0  0
  -25.8940  -30.5670   21.1380 C   0  0  0  0  0  2  0  0  0  0  0  0
  -25.9910  -29.1930   20.4230 C   0  0  0  0  0  0  0  0  0  0  0  0
  -27.1630  -28.3220   20.3690 C   0  0  0  0  0  3  0  0  0  0  0  0
  -25.9480  -26.7030   19.0830 C   0  0  0  0  0  3  0  0  0  0  0  0
  -24.8080  -27.5480   19.1130 C   0  0  0  0  0  3  0  0  0  0  0  0
  -23.5660  -29.6530   19.9030 C   0  0  0  0  0  2  0  0  0  0  0  0
  -24.6060  -30.8440   21.8690 N   0  0  0  0  0  0  0  0  0  0  0  0
  -23.4330  -31.8630   23.5410 O   0  0  0  0  0  0  0  0  0  0  0  0
  -22.6850  -29.2150   22.2390 C   0  0  0  0  0  0  0  0  0  0  0  0
  -21.3560  -29.0350   22.1340 N   0  0  0  0  0  0  0  0  0  0  0  0
  -23.3790  -28.5610   23.0220 O   0  0  0  0  0  0  0  0  0  0  0  0
  -20.8480  -29.6170   21.4820 H   0  0  0  0  0  0  0  0  0  0  0  0
  -17.9980  -27.7760   22.6800 C   0  0  0  0  0  0  0  0  0  0  0  0
  -20.5640  -28.0490   22.8760 C   0  0  0  0  0  3  0  0  0  0  0  0
  -20.6560  -26.6520   22.2180 C   0  0  0  0  0  2  0  0  0  0  0  0
  -19.5240  -26.3780   21.2220 C   0  0  0  0  0  2  0  0  0  0  0  0
  -18.1620  -26.4720   21.9180 C   0  0  0  0  0  2  0  0  0  0  0  0
  -19.1250  -28.5240   23.1150 C   0  0  0  0  0  0  0  0  0  0  0  0
  -18.9140  -29.7440   23.7940 C   0  0  0  0  0  3  0  0  0  0  0  0
  -17.6100  -30.2170   24.0380 C   0  0  0  0  0  3  0  0  0  0  0  0
  -16.5000  -29.4660   23.6140 C   0  0  0  0  0  3  0  0  0  0  0  0
  -16.6950  -28.2480   22.9410 C   0  0  0  0  0  3  0  0  0  0  0  0
  -25.7860  -32.2680   23.6390 C   0  0  0  0  0  3  0  0  0  0  0  0
  -25.4390  -33.6420   24.0420 N   0  0  0  0  0  0  0  0  0  0  0  0
  -25.7360  -34.7450   23.3420 C   0  0  0  0  0  0  0  0  0  0  0  0
  -26.3950  -34.7150   22.3000 O   0  0  0  0  0  0  0  0  0  0  0  0
  -24.8480  -33.7370   24.8560 H   0  0  0  0  0  0  0  0  0  0  0  0
  -23.9560  -36.5130   23.1200 C   0  0  0  0  0  1  0  0  0  0  0  0
  -25.2250  -36.0970   23.8820 C   0  0  0  0  0  3  0  0  0  0  0  0
  -27.3480  -37.0010   24.7230 C   0  0  0  0  0  1  0  0  0  0  0  0
  -26.2270  -37.1820   23.8040 N   0  0  0  0  0  0  0  0  0  0  0  0
  -25.8000  -38.0830   23.9970 H   0  0  0  0  0  0  0  0  0  0  0  0
  -26.3290  -31.4580   24.8810 C   0  0  1  0  0  0  0  0  0  0  0  0
  -25.2500  -31.1560   25.9480 C   0  0  0  0  0  1  0  0  0  0  0  0
  -26.9370  -30.1080   24.4370 C   0  0  0  0  0  1  0  0  0  0  0  0
  -27.4690  -32.2500   25.5650 C   0  0  0  0  0  1  0  0  0  0  0  0
  1  2  2  0
  1  4  1  0
  2  6  1  0
  3  5  1  0
  4 46  1  0
  4  3  2  0
  5  7  1  0
  6 16  1  0
  6  5  2  0
  8 14  1  0
  8 16  1  0
  9 14  1  0
 10 11  1  0
 10  9  1  0
 12 11  1  0
 12 21  1  0
 12 13  1  0
 14 13  1  0
 15  8  2  0
 16 17  1  0
 18 19  2  0
 19 38  1  0
 20 19  1  0
 20 23  1  0
 21 22  1  0
 21 18  1  0
 22 20  2  0
 23 24  1  0
 24 25  2  0
 26 29  1  0
 26 25  1  0
 27 26  2  0
 28 27  1  0
 28 23  2  0
 29 30  1  0
 30 31  1  0
 31 32  2  0
 33 32  1  0
 33 37  1  0
 34 33  2  0
 35 30  2  0
 35 34  1  0
 36 35  1  0
 38 39  1  0
 39 42  1  0
 39 41  1  0
 40 38  2  0
 43 18  1  0
 43 44  1  0
 45 43  1  0
 47 48  1  0
 47 46  2  0
 49 60  2  0
 50 48  1  0
 50 55  1  0
 51 59  1  0
 51 61  1  0
 52 58  1  0
 52 54  1  0
 53 59  1  0
 54 53  1  0
 55 54  2  0
 56 57  1  0
 56 50  2  0
 57 52  2  0
 58 51  1  0
 59 49  1  0
 61 63  2  0
 62 61  1  0
 64 62  1  0
 65 74  2  0
 65 70  1  0
 66 62  1  0
 66 70  1  0
 67 66  1  0
 68 69  1  0
 68 67  1  0
 69 65  1  0
 70 71  2  0
 71 72  1  0
 73 72  2  0
 74 73  1  0
 75 49  1  0
 75 76  1  0
 75 85  1  0
 76 79  1  0
 77 81  1  0
 77 76  1  0
 78 77  2  0
 81 80  1  0
 83 81  1  0
 83 84  1  0
 83 82  1  0
 85 88  1  1
 85 86  1  0
 87 85  1  0
M  ISO  4   8 100  16 100  47 101  48 101
M  END
>  <TORSDO>  (57) 
F 18

>  <SCORE>  (57) 
-14.016

>  <name>  (57) 
56

>  <ligand_id>  (57) 
56

>  <original_smiles>  (57) 
[H]c1c([H])c([H])c2c(c1[H])C([H])([H])C([H])([H])C([H])([H])C2([H])N([H])C(=O)C1([H])N(C(=O)C([H])(N([H])C(=O)C([H])(N([H])C([H])([H])[H])C([H])([H])[H])C(C([H])([H])[H])(C([H])([H])[H])C([H])([H])[H])C([H])([H])c2c([H])c(OC([H])([H])C([H])([H])c3c([H])c([H])c(N([H])C(=O)N4C([H])([H])C([H])([H])C([H])([H])C([H])(n5nc(-c6c([H])c([H])c(Oc7c([H])c([H])c(F)c([H])c7F)c([H])c6[H])c(C(=O)N([H])[H])c5N([H])[H])C4([H])[H])c(C([H])([H])[H])c3[H])c([H])c([H])c2C1([H])[H]

>  <smiles>  (57) 
[H]c1c([H])c([H])c2c(c1[H])C([H])([H])C([H])([H])C([H])([H])C2([H])N([H])C(=O)C1([H])N(C(=O)C([H])(N([H])C(=O)C([H])(N([H])C([H])([H])[H])C([H])([H])[H])C(C([H])([H])[H])(C([H])([H])[H])C([H])([H])[H])C([H])([H])c2c([H])c(OC([H])([H])C([H])([H])c3c([H])c([H])c(N([H])C(=O)N4C([H])([H])C([H])([H])C([H])([H])C([H])(n5nc(-c6c([H])c([H])c(Oc7c([H])c([H])c(F)c([H])c7F)c([H])c6[H])c(C(=O)N([H])[H])c5N([H])[H])C4([H])[H])c(C([H])([H])[H])c3[H])c([H])c([H])c2C1([H])[H]

$$$$
57:0:0
     RDKit          3D

 89 97  0  0  1  0  0  0  0  0999 V2000
  -27.6380  -21.2140   20.0290 C   0  0  0  0  0  3  0  0  0  0  0  0
  -29.2500  -22.9540   20.2810 C   0  0  0  0  0  3  0  0  0  0  0  0
  -27.0320  -23.7190   19.8320 C   0  0  0  0  0  3  0  0  0  0  0  0
  -29.0280  -21.3200   20.2900 C   0  0  0  0  0  0  0  0  0  0  0  0
  -26.7180  -22.3070   19.8190 C   0  0  0  0  0  0  0  0  0  0  0  0
  -28.3150  -24.2920   20.0570 C   0  0  0  0  0  0  0  0  0  0  0  0
  -29.7610  -18.1100   20.6520 C   0  0  0  0  0  3  0  0  0  0  0  0
  -29.9260  -19.6770   20.4980 C   0  0  0  0  0  0  0  0  0  0  0  0
  -30.6410  -16.5770   20.8240 C   0  0  0  0  0  0  0  0  0  0  0  0
  -30.9880  -13.9150   20.3590 C   0  0  0  0  0  2  0  0  0  0  0  0
  -30.3330  -13.2810   19.0900 C   0  0  0  0  0  2  0  0  0  0  0  0
  -28.8790  -12.8770   19.3630 C   0  0  0  0  0  2  0  0  0  0  0  0
  -28.1590  -13.9710   20.1780 C   0  0  0  0  0  3  0  0  0  0  0  0
  -28.9740  -14.5020   21.3840 C   0  0  0  0  0  2  0  0  0  0  0  0
  -30.2020  -15.1530   20.8600 N   0  0  0  0  0  0  0  0  0  0  0  0
  -31.8890  -16.4920   20.8450 O   0  0  0  0  0  0  0  0  0  0  0  0
  -25.7190  -14.4810   20.6220 C   0  0  0  0  0  0  0  0  0  0  0  0
  -24.6250  -13.6970   20.8470 C   0  0  0  0  0  0  0  0  0  0  0  0
  -25.1040  -12.3500   20.8860 C   0  0  0  0  0  0  0  0  0  0  0  0
  -26.7920  -13.6170   20.5240 N   0  0  0  0  0  0  0  0  0  0  0  0
  -26.4280  -12.3270   20.7520 N   0  0  0  0  0  0  0  0  0  0  0  0
  -24.3630  -11.0840   20.9810 C   0  0  0  0  0  0  0  0  0  0  0  0
  -24.6810  -10.1090   21.9530 C   0  0  0  0  0  3  0  0  0  0  0  0
  -23.9360   -8.9120   22.0400 C   0  0  0  0  0  3  0  0  0  0  0  0
  -22.8560   -8.6830   21.1530 C   0  0  0  0  0  0  0  0  0  0  0  0
  -22.5560   -9.6470   20.1750 C   0  0  0  0  0  3  0  0  0  0  0  0
  -23.3030  -10.8330   20.0860 C   0  0  0  0  0  3  0  0  0  0  0  0
  -22.0940   -7.5390   21.1470 O   0  0  0  0  0  0  0  0  0  0  0  0
  -21.9300   -6.7760   22.2760 C   0  0  0  0  0  0  0  0  0  0  0  0
  -21.3730   -7.3060   23.4610 C   0  0  0  0  0  3  0  0  0  0  0  0
  -21.1590   -6.4700   24.5730 C   0  0  0  0  0  3  0  0  0  0  0  0
  -21.4920   -5.1030   24.5030 C   0  0  0  0  0  0  0  0  0  0  0  0
  -22.0420   -4.5730   23.3230 C   0  0  0  0  0  3  0  0  0  0  0  0
  -22.2570   -5.4070   22.2120 C   0  0  0  0  0  0  0  0  0  0  0  0
  -22.7670   -4.8850   21.0690 F   0  0  0  0  0  0  0  0  0  0  0  0
  -21.2800   -4.2980   25.5700 F   0  0  0  0  0  0  0  0  0  0  0  0
  -23.2030  -14.1660   20.9140 C   0  0  0  0  0  0  0  0  0  0  0  0
  -22.3690  -13.4800   21.6850 N   0  0  0  0  0  0  0  0  0  0  0  0
  -22.8370  -15.1810   20.3210 O   0  0  0  0  0  0  0  0  0  0  0  0
  -22.6770  -12.6600   22.1860 H   0  0  0  0  0  0  0  0  0  0  0  0
  -21.4090  -13.7770   21.7760 H   0  0  0  0  0  0  0  0  0  0  0  0
  -25.8950  -15.8530   20.4620 N   0  0  0  0  0  0  0  0  0  0  0  0
  -25.1140  -16.5010   20.4810 H   0  0  0  0  0  0  0  0  0  0  0  0
  -26.7760  -16.2980   20.2390 H   0  0  0  0  0  0  0  0  0  0  0  0
  -31.2160  -20.0270   20.4700 O   0  0  0  0  0  0  0  0  0  0  0  0
  -31.2460  -20.9710   20.3580 H   0  0  0  0  0  0  0  0  0  0  0  0
  -24.2540  -22.9800   19.9980 C   0  0  0  0  0  1  0  0  0  0  0  0
  -25.2670  -21.9170   19.5490 C   0  0  0  0  0  2  0  0  0  0  0  0
  -28.4080  -25.9540   20.0530 O   0  0  0  0  0  0  0  0  0  0  0  0
  -24.8400  -32.1990   23.3760 C   0  0  0  0  0  0  0  0  0  0  0  0
  -27.4320  -27.2180   20.1190 C   0  0  0  0  0  0  0  0  0  0  0  0
  -23.6790  -30.8690   21.6670 C   0  0  0  0  0  3  0  0  0  0  0  0
  -25.1530  -29.3040   20.1710 C   0  0  0  0  0  0  0  0  0  0  0  0
  -26.2620  -31.0190   21.5690 C   0  0  0  0  0  2  0  0  0  0  0  0
  -26.3440  -29.6110   20.8380 C   0  0  0  0  0  0  0  0  0  0  0  0
  -27.4590  -28.5980   20.7840 C   0  0  0  0  0  3  0  0  0  0  0  0
  -26.2150  -27.1710   19.3870 C   0  0  0  0  0  3  0  0  0  0  0  0
  -25.1340  -28.1130   19.4210 C   0  0  0  0  0  3  0  0  0  0  0  0
  -23.9390  -30.2490   20.2630 C   0  0  0  0  0  2  0  0  0  0  0  0
  -24.9510  -31.3950   22.2580 N   0  0  0  0  0  0  0  0  0  0  0  0
  -23.7390  -32.4550   23.8960 O   0  0  0  0  0  0  0  0  0  0  0  0
  -22.9700  -29.8360   22.5860 C   0  0  0  0  0  0  0  0  0  0  0  0
  -21.6500  -29.6290   22.4190 N   0  0  0  0  0  0  0  0  0  0  0  0
  -23.6270  -29.2130   23.4250 O   0  0  0  0  0  0  0  0  0  0  0  0
  -21.1640  -30.1870   21.7310 H   0  0  0  0  0  0  0  0  0  0  0  0
  -18.3020  -28.2730   22.8260 C   0  0  0  0  0  0  0  0  0  0  0  0
  -20.8460  -28.6290   23.1350 C   0  0  0  0  0  3  0  0  0  0  0  0
  -21.0090  -27.2300   22.4970 C   0  0  0  0  0  2  0  0  0  0  0  0
  -19.9350  -26.9140   21.4510 C   0  0  0  0  0  2  0  0  0  0  0  0
  -18.5410  -26.9700   22.0810 C   0  0  0  0  0  2  0  0  0  0  0  0
  -19.3830  -29.0600   23.3050 C   0  0  0  0  0  0  0  0  0  0  0  0
  -19.1020  -30.2760   23.9650 C   0  0  0  0  0  3  0  0  0  0  0  0
  -17.7750  -30.7090   24.1460 C   0  0  0  0  0  3  0  0  0  0  0  0
  -16.7070  -29.9200   23.6780 C   0  0  0  0  0  3  0  0  0  0  0  0
  -16.9720  -28.7040   23.0260 C   0  0  0  0  0  3  0  0  0  0  0  0
  -26.0870  -32.8420   24.0560 C   0  0  0  0  0  3  0  0  0  0  0  0
  -26.5470  -32.0680   25.3550 C   0  0  1  0  0  0  0  0  0  0  0  0
  -25.4110  -31.8200   26.3740 C   0  0  0  0  0  1  0  0  0  0  0  0
  -27.1570  -30.6950   24.9970 C   0  0  0  0  0  1  0  0  0  0  0  0
  -27.6630  -32.8670   26.0690 C   0  0  0  0  0  1  0  0  0  0  0  0
  -25.7550  -34.2400   24.4040 N   0  0  0  0  0  0  0  0  0  0  0  0
  -26.0850  -35.3180   23.6790 C   0  0  0  0  0  0  0  0  0  0  0  0
  -26.7520  -35.2420   22.6460 O   0  0  0  0  0  0  0  0  0  0  0  0
  -25.1590  -34.3710   25.2070 H   0  0  0  0  0  0  0  0  0  0  0  0
  -24.3380  -37.1190   23.4060 C   0  0  0  0  0  1  0  0  0  0  0  0
  -25.6020  -36.7000   24.1760 C   0  0  0  0  0  3  0  0  0  0  0  0
  -27.7480  -37.5970   24.9720 C   0  0  0  0  0  1  0  0  0  0  0  0
  -26.6250  -37.7640   24.0530 N   0  0  0  0  0  0  0  0  0  0  0  0
  -26.2150  -38.6790   24.2170 H   0  0  0  0  0  0  0  0  0  0  0  0
  1  4  1  0
  2  4  2  0
  3  6  2  0
  4  8  1  0
  5  3  1  0
  5  1  2  0
  6  2  1  0
  7  9  1  0
  8  7  2  0
  9 16  2  0
  9 15  1  0
 10 15  1  0
 11 12  1  0
 11 10  1  0
 13 12  1  0
 13 20  1  0
 13 14  1  0
 15 14  1  0
 17 18  2  0
 18 19  1  0
 18 37  1  0
 19 22  1  0
 20 17  1  0
 20 21  1  0
 21 19  2  0
 22 23  1  0
 23 24  2  0
 25 24  1  0
 26 25  2  0
 27 26  1  0
 27 22  2  0
 28 25  1  0
 28 29  1  0
 29 30  1  0
 30 31  2  0
 32 31  1  0
 32 36  1  0
 33 32  2  0
 34 29  2  0
 34 33  1  0
 35 34  1  0
 37 38  1  0
 38 41  1  0
 38 40  1  0
 39 37  2  0
 42 43  1  0
 42 17  1  0
 44 42  1  0
 45  8  1  0
 46 45  1  0
 48  5  1  0
 48 47  1  0
 49  6  1  0
 49 51  1  0
 50 61  2  0
 51 56  1  0
 52 60  1  0
 52 62  1  0
 53 59  1  0
 53 55  1  0
 54 60  1  0
 55 54  1  0
 56 55  2  0
 57 58  1  0
 57 51  2  0
 58 53  2  0
 59 52  1  0
 60 50  1  0
 62 64  2  0
 63 62  1  0
 65 63  1  0
 66 75  2  0
 66 71  1  0
 67 63  1  0
 67 71  1  0
 68 67  1  0
 69 70  1  0
 69 68  1  0
 70 66  1  0
 71 72  2  0
 72 73  1  0
 74 73  2  0
 75 74  1  0
 76 50  1  0
 76 81  1  0
 76 77  1  0
 77 80  1  1
 77 78  1  0
 79 77  1  0
 81 84  1  0
 82 86  1  0
 82 81  1  0
 83 82  2  0
 86 85  1  0
 88 86  1  0
 88 89  1  0
 88 87  1  0
M  ISO  4   6 101   7 100   9 100  49 101
M  END
>  <TORSDO>  (58) 
F 19

>  <SCORE>  (58) 
-13.389

>  <name>  (58) 
57

>  <ligand_id>  (58) 
57

>  <original_smiles>  (58) 
[H]OC(=C([H])C(=O)N1C([H])([H])C([H])([H])C([H])([H])C([H])(n2nc(-c3c([H])c([H])c(Oc4c([H])c([H])c(F)c([H])c4F)c([H])c3[H])c(C(=O)N([H])[H])c2N([H])[H])C1([H])[H])c1c([H])c(Oc2c([H])c([H])c3c(c2[H])C([H])([H])N(C(=O)C([H])(N([H])C(=O)C([H])(N([H])C([H])([H])[H])C([H])([H])[H])C(C([H])([H])[H])(C([H])([H])[H])C([H])([H])[H])C([H])(C(=O)N([H])C2([H])c4c([H])c([H])c([H])c([H])c4C([H])([H])C([H])([H])C2([H])[H])C3([H])[H])c([H])c(C([H])([H])C([H])([H])[H])c1[H]

>  <smiles>  (58) 
[H]OC(=C([H])C(=O)N1C([H])([H])C([H])([H])C([H])([H])C([H])(n2nc(-c3c([H])c([H])c(Oc4c([H])c([H])c(F)c([H])c4F)c([H])c3[H])c(C(=O)N([H])[H])c2N([H])[H])C1([H])[H])c1c([H])c(Oc2c([H])c([H])c3c(c2[H])C([H])([H])N(C(=O)C([H])(N([H])C(=O)C([H])(N([H])C([H])([H])[H])C([H])([H])[H])C(C([H])([H])[H])(C([H])([H])[H])C([H])([H])[H])C([H])(C(=O)N([H])C2([H])c4c([H])c([H])c([H])c([H])c4C([H])([H])C([H])([H])C2([H])[H])C3([H])[H])c([H])c(C([H])([H])C([H])([H])[H])c1[H]

$$$$
58:0:0
     RDKit          3D

 88 95  0  0  1  0  0  0  0  0999 V2000
  -30.0520  -18.9080   19.4630 C   0  0  0  0  0  3  0  0  0  0  0  0
  -27.4990  -18.4640   20.0510 C   0  0  0  0  0  3  0  0  0  0  0  0
  -29.7190  -17.3270   19.5980 C   0  0  0  0  0  0  0  0  0  0  0  0
  -29.1700  -20.2680   19.5910 C   0  0  0  0  0  0  0  0  0  0  0  0
  -27.8600  -19.8320   19.8870 C   0  0  0  0  0  0  0  0  0  0  0  0
  -28.3390  -17.3140   19.9440 C   0  0  0  0  0  3  0  0  0  0  0  0
  -27.7370  -16.1470   20.2300 F   0  0  0  0  0 15  0  0  0  0  0  0
  -30.5710  -15.7450   19.5480 C   0  0  0  0  0  0  0  0  0  0  0  0
  -30.8130  -13.1180   19.0250 C   0  0  0  0  0  2  0  0  0  0  0  0
  -29.8840  -12.5410   17.9100 C   0  0  0  0  0  2  0  0  0  0  0  0
  -28.4780  -12.2010   18.4370 C   0  0  0  0  0  2  0  0  0  0  0  0
  -27.9840  -13.2760   19.4320 C   0  0  0  0  0  3  0  0  0  0  0  0
  -29.0640  -13.6620   20.4630 C   0  0  0  0  0  2  0  0  0  0  0  0
  -30.1620  -14.3330   19.7110 N   0  0  0  0  0  0  0  0  0  0  0  0
  -31.7800  -15.7110   19.2350 O   0  0  0  0  0  0  0  0  0  0  0  0
  -25.6970  -13.8350   20.3930 C   0  0  0  0  0  0  0  0  0  0  0  0
  -24.6480  -13.0690   20.8100 C   0  0  0  0  0  0  0  0  0  0  0  0
  -25.0790  -11.7100   20.6930 C   0  0  0  0  0  0  0  0  0  0  0  0
  -26.6980  -12.9510   20.0370 N   0  0  0  0  0  0  0  0  0  0  0  0
  -26.3450  -11.6610   20.2820 N   0  0  0  0  0  0  0  0  0  0  0  0
  -24.3330  -10.4610   20.8950 C   0  0  0  0  0  0  0  0  0  0  0  0
  -24.7550   -9.4890   21.8290 C   0  0  0  0  0  3  0  0  0  0  0  0
  -24.0050   -8.3090   22.0220 C   0  0  0  0  0  3  0  0  0  0  0  0
  -22.8200   -8.0900   21.2800 C   0  0  0  0  0  0  0  0  0  0  0  0
  -22.4170   -9.0500   20.3360 C   0  0  0  0  0  3  0  0  0  0  0  0
  -23.1670  -10.2230   20.1420 C   0  0  0  0  0  3  0  0  0  0  0  0
  -22.0440   -6.9600   21.3800 O   0  0  0  0  0  0  0  0  0  0  0  0
  -21.8990   -6.2910   22.5690 C   0  0  0  0  0  0  0  0  0  0  0  0
  -21.3810   -6.9230   23.7200 C   0  0  0  0  0  3  0  0  0  0  0  0
  -21.1780   -6.1800   24.9010 C   0  0  0  0  0  3  0  0  0  0  0  0
  -21.4870   -4.8070   24.9310 C   0  0  0  0  0  0  0  0  0  0  0  0
  -21.9980   -4.1740   23.7840 C   0  0  0  0  0  3  0  0  0  0  0  0
  -22.2000   -4.9140   22.6060 C   0  0  0  0  0  0  0  0  0  0  0  0
  -22.6730   -4.2950   21.4970 F   0  0  0  0  0  0  0  0  0  0  0  0
  -21.2870   -4.0910   26.0630 F   0  0  0  0  0  0  0  0  0  0  0  0
  -23.2910  -13.5720   21.2040 C   0  0  0  0  0  0  0  0  0  0  0  0
  -22.6250  -12.8800   22.1190 N   0  0  0  0  0  0  0  0  0  0  0  0
  -22.8370  -14.6170   20.7380 O   0  0  0  0  0  0  0  0  0  0  0  0
  -23.0130  -12.0390   22.5190 H   0  0  0  0  0  0  0  0  0  0  0  0
  -21.7190  -13.2020   22.4320 H   0  0  0  0  0  0  0  0  0  0  0  0
  -25.8740  -15.2090   20.2580 N   0  0  0  0  0  0  0  0  0  0  0  0
  -25.1460  -15.8740   20.4990 H   0  0  0  0  0  0  0  0  0  0  0  0
  -26.7580  -15.6460   20.0350 H   0  0  0  0  0  0  0  0  0  0  0  0
  -26.8810  -20.7640   20.0560 O   0  0  0  0  0  0  0  0  0  0  0  0
  -27.1930  -21.6480   19.9030 H   0  0  0  0  0  0  0  0  0  0  0  0
  -29.3850  -22.1330   19.5470 C   0  0  0  0  0  3  0  0  0  0  0  0
  -28.3730  -23.8120   19.6270 C   0  0  0  0  0  3  0  0  0  0  0  0
  -28.5480  -25.5740   19.7360 O   0  0  0  0  0  0  0  0  0  0  0  0
  -25.0370  -31.6410   23.1540 C   0  0  0  0  0  0  0  0  0  0  0  0
  -27.5670  -26.7850   19.8010 C   0  0  0  0  0  0  0  0  0  0  0  0
  -23.8570  -30.3860   21.4020 C   0  0  0  0  0  3  0  0  0  0  0  0
  -25.3080  -28.8390   19.8820 C   0  0  0  0  0  0  0  0  0  0  0  0
  -26.4390  -30.5130   21.3200 C   0  0  0  0  0  2  0  0  0  0  0  0
  -26.5010  -29.1340   20.5540 C   0  0  0  0  0  0  0  0  0  0  0  0
  -27.6140  -28.1420   20.4800 C   0  0  0  0  0  3  0  0  0  0  0  0
  -26.3390  -26.7040   19.0970 C   0  0  0  0  0  3  0  0  0  0  0  0
  -25.2680  -27.6500   19.1320 C   0  0  0  0  0  3  0  0  0  0  0  0
  -24.1090  -29.7960   19.9840 C   0  0  0  0  0  2  0  0  0  0  0  0
  -25.1360  -30.8760   22.0140 N   0  0  0  0  0  0  0  0  0  0  0  0
  -23.9400  -31.9100   23.6740 O   0  0  0  0  0  0  0  0  0  0  0  0
  -23.1230  -29.3420   22.2840 C   0  0  0  0  0  0  0  0  0  0  0  0
  -21.7870  -29.2290   22.1530 N   0  0  0  0  0  0  0  0  0  0  0  0
  -23.7660  -28.6350   23.0640 O   0  0  0  0  0  0  0  0  0  0  0  0
  -21.3170  -29.8500   21.5100 H   0  0  0  0  0  0  0  0  0  0  0  0
  -18.3660  -28.1030   22.6400 C   0  0  0  0  0  0  0  0  0  0  0  0
  -20.9420  -28.2450   22.8450 C   0  0  0  0  0  3  0  0  0  0  0  0
  -20.9670  -26.8820   22.1150 C   0  0  0  0  0  2  0  0  0  0  0  0
  -19.8250  -26.7150   21.1080 C   0  0  0  0  0  2  0  0  0  0  0  0
  -18.4690  -26.8360   21.8090 C   0  0  0  0  0  2  0  0  0  0  0  0
  -19.5260  -28.7740   23.1130 C   0  0  0  0  0  0  0  0  0  0  0  0
  -19.3710  -29.9620   23.8590 C   0  0  0  0  0  3  0  0  0  0  0  0
  -18.0910  -30.4800   24.1330 C   0  0  0  0  0  3  0  0  0  0  0  0
  -16.9470  -29.8060   23.6710 C   0  0  0  0  0  3  0  0  0  0  0  0
  -17.0850  -28.6190   22.9310 C   0  0  0  0  0  3  0  0  0  0  0  0
  -26.2970  -32.2300   23.8590 C   0  0  0  0  0  3  0  0  0  0  0  0
  -26.7590  -31.3790   25.1080 C   0  0  1  0  0  0  0  0  0  0  0  0
  -25.6330  -31.1180   26.1370 C   0  0  0  0  0  1  0  0  0  0  0  0
  -27.3170  -30.0050   24.6720 C   0  0  0  0  0  1  0  0  0  0  0  0
  -27.9090  -32.1090   25.8410 C   0  0  0  0  0  1  0  0  0  0  0  0
  -25.9840  -33.6090   24.2840 N   0  0  0  0  0  0  0  0  0  0  0  0
  -26.3150  -34.7210   23.6100 C   0  0  0  0  0  0  0  0  0  0  0  0
  -26.9710  -34.6910   22.5660 O   0  0  0  0  0  0  0  0  0  0  0  0
  -25.3950  -33.7030   25.0990 H   0  0  0  0  0  0  0  0  0  0  0  0
  -24.5760  -36.5410   23.4510 C   0  0  0  0  0  1  0  0  0  0  0  0
  -25.8480  -36.0770   24.1820 C   0  0  0  0  0  3  0  0  0  0  0  0
  -28.0070  -36.9210   24.9970 C   0  0  0  0  0  1  0  0  0  0  0  0
  -26.8750  -37.1390   24.1000 N   0  0  0  0  0  0  0  0  0  0  0  0
  -26.4730  -38.0470   24.3130 H   0  0  0  0  0  0  0  0  0  0  0  0
  1  4  2  0
  1  3  1  0
  3  6  2  0
  4  5  1  0
  5  2  2  0
  5 44  1  0
  6  2  1  0
  8  3  1  0
  8 14  1  0
  9 14  1  0
 10 11  1  0
 10  9  1  0
 12 11  1  0
 12 19  1  0
 12 13  1  0
 14 13  1  0
 15  8  2  0
 16 17  2  0
 17 36  1  0
 18 17  1  0
 18 21  1  0
 19 20  1  0
 19 16  1  0
 20 18  2  0
 21 22  1  0
 22 23  2  0
 24 27  1  0
 24 23  1  0
 25 24  2  0
 26 25  1  0
 26 21  2  0
 27 28  1  0
 28 33  2  0
 28 29  1  0
 29 30  2  0
 30 31  1  0
 31 35  1  0
 32 31  2  0
 33 32  1  0
 34 33  1  0
 36 37  1  0
 37 40  1  0
 37 39  1  0
 38 36  2  0
 41 16  1  0
 41 42  1  0
 43 41  1  0
 45 44  1  0
 46  4  1  0
 46 47  2  0
 47 48  1  0
 48 50  1  0
 49 60  2  0
 50 55  1  0
 51 59  1  0
 51 61  1  0
 52 58  1  0
 52 54  1  0
 53 59  1  0
 54 53  1  0
 55 54  2  0
 56 57  1  0
 56 50  2  0
 57 52  2  0
 58 51  1  0
 59 49  1  0
 61 63  2  0
 62 61  1  0
 64 62  1  0
 65 74  2  0
 65 70  1  0
 66 62  1  0
 66 70  1  0
 67 66  1  0
 68 69  1  0
 68 67  1  0
 69 65  1  0
 70 71  2  0
 71 72  1  0
 73 72  2  0
 74 73  1  0
 75 49  1  0
 75 80  1  0
 75 76  1  0
 76 79  1  1
 76 77  1  0
 78 76  1  0
 80 83  1  0
 81 85  1  0
 81 80  1  0
 82 81  2  0
 85 84  1  0
 87 85  1  0
 87 88  1  0
 87 86  1  0
M  ISO  4   3 100   8 100  47 101  48 101
M  END
>  <TORSDO>  (59) 
F 19

>  <SCORE>  (59) 
-15.044

>  <name>  (59) 
58

>  <ligand_id>  (59) 
58

>  <original_smiles>  (59) 
[H]Oc1c([H])c(F)c(C(=O)N2C([H])([H])C([H])([H])C([H])([H])C([H])(n3nc(-c4c([H])c([H])c(Oc5c([H])c([H])c(F)c([H])c5F)c([H])c4[H])c(C(=O)N([H])[H])c3N([H])[H])C2([H])[H])c([H])c1C([H])([H])C([H])([H])Oc1c([H])c([H])c2c(c1[H])C([H])([H])N(C(=O)C([H])(N([H])C(=O)C([H])(N([H])C([H])([H])[H])C([H])([H])[H])C(C([H])([H])[H])(C([H])([H])[H])C([H])([H])[H])C([H])(C(=O)N([H])C1([H])c3c([H])c([H])c([H])c([H])c3C([H])([H])C([H])([H])C1([H])[H])C2([H])[H]

>  <smiles>  (59) 
[H]Oc1c([H])c(F)c(C(=O)N2C([H])([H])C([H])([H])C([H])([H])C([H])(n3nc(-c4c([H])c([H])c(Oc5c([H])c([H])c(F)c([H])c5F)c([H])c4[H])c(C(=O)N([H])[H])c3N([H])[H])C2([H])[H])c([H])c1C([H])([H])C([H])([H])Oc1c([H])c([H])c2c(c1[H])C([H])([H])N(C(=O)C([H])(N([H])C(=O)C([H])(N([H])C([H])([H])[H])C([H])([H])[H])C(C([H])([H])[H])(C([H])([H])[H])C([H])([H])[H])C([H])(C(=O)N([H])C1([H])c3c([H])c([H])c([H])c([H])c3C([H])([H])C([H])([H])C1([H])[H])C2([H])[H]

$$$$
59:0:0
     RDKit          3D

 91 99  0  0  1  0  0  0  0  0999 V2000
  -29.2460  -23.4310   21.4020 C   0  0  0  0  0  3  0  0  0  0  0  0
  -29.7480  -22.1190   21.6490 C   0  0  0  0  0  3  0  0  0  0  0  0
  -28.9700  -22.8440   19.0800 C   0  0  0  0  0  3  0  0  0  0  0  0
  -28.8420  -23.8200   20.1040 C   0  0  0  0  0  0  0  0  0  0  0  0
  -29.8540  -21.1380   20.6230 C   0  0  0  0  0  0  0  0  0  0  0  0
  -29.4630  -21.5240   19.3160 C   0  0  0  0  0  0  0  0  0  0  0  0
  -29.0780  -20.8790   17.0290 C   0  0  0  0  0  1  0  0  0  0  0  0
  -29.5890  -20.5770   18.3220 O   0  0  0  0  0  0  0  0  0  0  0  0
  -30.5130  -19.7490   20.9070 C   0  0  0  0  0  2  0  0  0  0  0  0
  -29.7080  -18.3930   20.7530 C   0  0  0  0  0  2  0  0  0  0  0  0
  -30.6200  -17.1090   20.9100 C   0  0  0  0  0  2  0  0  0  0  0  0
  -30.6700  -14.6170   20.4420 C   0  0  0  0  0  0  0  0  0  0  0  0
  -30.3500  -12.4170   19.3500 C   0  0  0  0  0  2  0  0  0  0  0  0
  -29.4030  -12.5730   18.1420 C   0  0  0  0  0  2  0  0  0  0  0  0
  -27.9380  -12.4180   18.5880 C   0  0  0  0  0  2  0  0  0  0  0  0
  -27.5970  -13.2830   19.8320 C   0  0  0  0  0  3  0  0  0  0  0  0
  -28.6660  -13.1400   20.9390 C   0  0  0  0  0  2  0  0  0  0  0  0
  -29.9730  -13.4450   20.3400 N   0  0  0  0  0  0  0  0  0  0  0  0
  -31.8310  -14.7060   20.0400 O   0  0  0  0  0  0  0  0  0  0  0  0
  -30.0020  -15.7440   20.8290 N   0  0  0  0  0  0  0  0  0  0  0  0
  -29.0360  -15.6400   21.1000 H   0  0  0  0  0  0  0  0  0  0  0  0
  -25.2090  -13.8720   20.5760 C   0  0  0  0  0  0  0  0  0  0  0  0
  -24.1460  -13.0940   20.9470 C   0  0  0  0  0  0  0  0  0  0  0  0
  -24.6090  -11.7440   20.9030 C   0  0  0  0  0  0  0  0  0  0  0  0
  -26.2530  -12.9950   20.3280 N   0  0  0  0  0  0  0  0  0  0  0  0
  -25.8970  -11.7100   20.5860 N   0  0  0  0  0  0  0  0  0  0  0  0
  -23.8840  -10.4800   21.0880 C   0  0  0  0  0  0  0  0  0  0  0  0
  -24.3300   -9.5000   22.0030 C   0  0  0  0  0  3  0  0  0  0  0  0
  -23.6050   -8.3000   22.1760 C   0  0  0  0  0  3  0  0  0  0  0  0
  -22.4210   -8.0730   21.4360 C   0  0  0  0  0  0  0  0  0  0  0  0
  -21.9950   -9.0410   20.5100 C   0  0  0  0  0  3  0  0  0  0  0  0
  -22.7190  -10.2310   20.3350 C   0  0  0  0  0  3  0  0  0  0  0  0
  -21.6660   -6.9280   21.5220 O   0  0  0  0  0  0  0  0  0  0  0  0
  -21.6400   -6.1670   22.6620 C   0  0  0  0  0  0  0  0  0  0  0  0
  -21.2260   -6.6970   23.9030 C   0  0  0  0  0  3  0  0  0  0  0  0
  -21.1480   -5.8620   25.0350 C   0  0  0  0  0  3  0  0  0  0  0  0
  -21.4740   -4.4970   24.9290 C   0  0  0  0  0  0  0  0  0  0  0  0
  -21.8790   -3.9650   23.6910 C   0  0  0  0  0  3  0  0  0  0  0  0
  -21.9600   -4.7980   22.5610 C   0  0  0  0  0  0  0  0  0  0  0  0
  -22.3320   -4.2750   21.3680 F   0  0  0  0  0  0  0  0  0  0  0  0
  -21.3910   -3.6920   26.0140 F   0  0  0  0  0  0  0  0  0  0  0  0
  -22.7500  -13.5690   21.2340 C   0  0  0  0  0  0  0  0  0  0  0  0
  -22.0310  -12.8670   22.1030 N   0  0  0  0  0  0  0  0  0  0  0  0
  -22.3060  -14.5950   20.7210 O   0  0  0  0  0  0  0  0  0  0  0  0
  -22.4030  -12.0350   22.5380 H   0  0  0  0  0  0  0  0  0  0  0  0
  -21.0960  -13.1660   22.3390 H   0  0  0  0  0  0  0  0  0  0  0  0
  -25.3710  -15.2440   20.4070 N   0  0  0  0  0  0  0  0  0  0  0  0
  -24.6020  -15.8960   20.5190 H   0  0  0  0  0  0  0  0  0  0  0  0
  -26.2150  -15.6850   20.0620 H   0  0  0  0  0  0  0  0  0  0  0  0
  -27.9950  -25.0920   19.7980 C   0  0  0  0  0  2  0  0  0  0  0  0
  -28.3150  -26.4710   20.2200 O   0  0  0  0  0  0  0  0  0  0  0  0
  -24.6440  -31.9050   23.2480 C   0  0  0  0  0  0  0  0  0  0  0  0
  -27.2250  -27.3630   20.1480 C   0  0  0  0  0  0  0  0  0  0  0  0
  -23.4300  -30.5240   21.6050 C   0  0  0  0  0  3  0  0  0  0  0  0
  -24.8710  -28.9980   20.1600 C   0  0  0  0  0  0  0  0  0  0  0  0
  -25.9740  -30.8320   21.4230 C   0  0  0  0  0  2  0  0  0  0  0  0
  -26.0460  -29.4620   20.7640 C   0  0  0  0  0  0  0  0  0  0  0  0
  -27.2250  -28.6560   20.7580 C   0  0  0  0  0  3  0  0  0  0  0  0
  -26.0240  -26.9770   19.4960 C   0  0  0  0  0  3  0  0  0  0  0  0
  -24.8620  -27.7580   19.5180 C   0  0  0  0  0  3  0  0  0  0  0  0
  -23.6390  -29.8700   20.2180 C   0  0  0  0  0  2  0  0  0  0  0  0
  -24.7020  -31.1020   22.1480 N   0  0  0  0  0  0  0  0  0  0  0  0
  -23.5610  -32.1830   23.7860 O   0  0  0  0  0  0  0  0  0  0  0  0
  -22.7680  -29.4970   22.5530 C   0  0  0  0  0  0  0  0  0  0  0  0
  -21.4410  -29.3270   22.4310 N   0  0  0  0  0  0  0  0  0  0  0  0
  -23.4470  -28.8590   23.3640 O   0  0  0  0  0  0  0  0  0  0  0  0
  -20.9530  -29.8940   21.7510 H   0  0  0  0  0  0  0  0  0  0  0  0
  -18.0560  -28.1540   22.9350 C   0  0  0  0  0  0  0  0  0  0  0  0
  -20.6180  -28.3890   23.1960 C   0  0  0  0  0  3  0  0  0  0  0  0
  -20.7050  -26.9610   22.6090 C   0  0  0  0  0  2  0  0  0  0  0  0
  -19.5960  -26.6540   21.5980 C   0  0  0  0  0  2  0  0  0  0  0  0
  -18.2180  -26.8070   22.2490 C   0  0  0  0  0  2  0  0  0  0  0  0
  -19.1840  -28.9020   23.3660 C   0  0  0  0  0  0  0  0  0  0  0  0
  -18.9780  -30.1640   23.9660 C   0  0  0  0  0  3  0  0  0  0  0  0
  -17.6790  -30.6750   24.1420 C   0  0  0  0  0  3  0  0  0  0  0  0
  -16.5660  -29.9230   23.7290 C   0  0  0  0  0  3  0  0  0  0  0  0
  -16.7550  -28.6640   23.1300 C   0  0  0  0  0  3  0  0  0  0  0  0
  -25.9310  -32.5280   23.8700 C   0  0  0  0  0  3  0  0  0  0  0  0
  -25.6270  -33.9260   24.2060 N   0  0  0  0  0  0  0  0  0  0  0  0
  -25.9450  -34.9790   23.4410 C   0  0  0  0  0  0  0  0  0  0  0  0
  -26.5980  -34.8760   22.3990 O   0  0  0  0  0  0  0  0  0  0  0  0
  -25.0480  -34.0800   25.0190 H   0  0  0  0  0  0  0  0  0  0  0  0
  -24.2090  -36.7700   23.1200 C   0  0  0  0  0  1  0  0  0  0  0  0
  -25.4650  -36.3670   23.9080 C   0  0  0  0  0  3  0  0  0  0  0  0
  -27.6140  -37.2550   24.6980 C   0  0  0  0  0  1  0  0  0  0  0  0
  -26.4950  -37.4200   23.7750 N   0  0  0  0  0  0  0  0  0  0  0  0
  -26.0900  -38.3400   23.9290 H   0  0  0  0  0  0  0  0  0  0  0  0
  -26.4440  -31.7480   25.1420 C   0  0  1  0  0  0  0  0  0  0  0  0
  -25.3500  -31.5100   26.2090 C   0  0  0  0  0  1  0  0  0  0  0  0
  -27.0230  -30.3710   24.7440 C   0  0  0  0  0  1  0  0  0  0  0  0
  -27.5960  -32.5360   25.8080 C   0  0  0  0  0  1  0  0  0  0  0  0
  1  2  1  0
  3  6  2  0
  3  4  1  0
  4  1  2  0
  5  9  1  0
  5  2  2  0
  6  5  1  0
  7  8  1  0
  8  6  1  0
 10  9  1  0
 10 11  1  0
 12 20  1  0
 13 18  1  0
 14 15  1  0
 14 13  1  0
 16 15  1  0
 16 25  1  0
 16 17  1  0
 18 12  1  0
 18 17  1  0
 19 12  2  0
 20 11  1  0
 20 21  1  0
 22 23  2  0
 23 42  1  0
 24 23  1  0
 24 27  1  0
 25 22  1  0
 25 26  1  0
 26 24  2  0
 27 28  1  0
 28 29  2  0
 30 33  1  0
 30 29  1  0
 31 30  2  0
 32 31  1  0
 32 27  2  0
 33 34  1  0
 34 35  1  0
 35 36  2  0
 37 36  1  0
 37 41  1  0
 38 37  2  0
 39 34  2  0
 39 38  1  0
 40 39  1  0
 42 43  1  0
 43 46  1  0
 43 45  1  0
 44 42  2  0
 47 48  1  0
 47 22  1  0
 49 47  1  0
 50  4  1  0
 50 51  1  0
 52 63  2  0
 53 51  1  0
 53 58  1  0
 54 62  1  0
 54 64  1  0
 55 61  1  0
 55 57  1  0
 56 62  1  0
 57 56  1  0
 58 57  2  0
 59 60  1  0
 59 53  2  0
 60 55  2  0
 61 54  1  0
 62 52  1  0
 64 66  2  0
 65 64  1  0
 67 65  1  0
 68 77  2  0
 68 73  1  0
 69 65  1  0
 69 73  1  0
 70 69  1  0
 71 72  1  0
 71 70  1  0
 72 68  1  0
 73 74  2  0
 74 75  1  0
 76 75  2  0
 77 76  1  0
 78 52  1  0
 78 79  1  0
 78 88  1  0
 79 82  1  0
 80 84  1  0
 80 79  1  0
 81 80  2  0
 84 83  1  0
 86 84  1  0
 86 87  1  0
 86 85  1  0
 88 91  1  1
 88 89  1  0
 90 88  1  0
M  ISO  4  12 100  20 100  50 101  51 101
M  END
>  <TORSDO>  (60) 
F 21

>  <SCORE>  (60) 
-13.575

>  <name>  (60) 
59

>  <ligand_id>  (60) 
59

>  <original_smiles>  (60) 
[H]c1c([H])c([H])c2c(c1[H])C([H])([H])C([H])([H])C([H])([H])C2([H])N([H])C(=O)C1([H])N(C(=O)C([H])(N([H])C(=O)C([H])(N([H])C([H])([H])[H])C([H])([H])[H])C(C([H])([H])[H])(C([H])([H])[H])C([H])([H])[H])C([H])([H])c2c([H])c(OC([H])([H])c3c([H])c([H])c(C([H])([H])C([H])([H])C([H])([H])N([H])C(=O)N4C([H])([H])C([H])([H])C([H])([H])C([H])(n5nc(-c6c([H])c([H])c(Oc7c([H])c([H])c(F)c([H])c7F)c([H])c6[H])c(C(=O)N([H])[H])c5N([H])[H])C4([H])[H])c(OC([H])([H])[H])c3[H])c([H])c([H])c2C1([H])[H]

>  <smiles>  (60) 
[H]c1c([H])c([H])c2c(c1[H])C([H])([H])C([H])([H])C([H])([H])C2([H])N([H])C(=O)C1([H])N(C(=O)C([H])(N([H])C(=O)C([H])(N([H])C([H])([H])[H])C([H])([H])[H])C(C([H])([H])[H])(C([H])([H])[H])C([H])([H])[H])C([H])([H])c2c([H])c(OC([H])([H])c3c([H])c([H])c(C([H])([H])C([H])([H])C([H])([H])N([H])C(=O)N4C([H])([H])C([H])([H])C([H])([H])C([H])(n5nc(-c6c([H])c([H])c(Oc7c([H])c([H])c(F)c([H])c7F)c([H])c6[H])c(C(=O)N([H])[H])c5N([H])[H])C4([H])[H])c(OC([H])([H])[H])c3[H])c([H])c([H])c2C1([H])[H]

$$$$
60:0:0
     RDKit          3D

 91 99  0  0  1  0  0  0  0  0999 V2000
  -29.7060  -17.7770   22.1090 C   0  0  0  0  0  3  0  0  0  0  0  0
  -29.3910  -18.9490   21.3960 C   0  0  0  0  0  3  0  0  0  0  0  0
  -30.1440  -16.4370   20.0690 C   0  0  0  0  0  0  0  0  0  0  0  0
  -30.1220  -16.5720   21.4910 C   0  0  0  0  0  0  0  0  0  0  0  0
  -29.4770  -19.0110   19.9950 C   0  0  0  0  0  0  0  0  0  0  0  0
  -29.8380  -17.7140   19.3490 C   0  0  0  0  0  0  0  0  0  0  0  0
  -30.6890  -15.0660   19.4240 C   0  0  0  0  0  0  0  0  0  0  0  0
  -30.3820  -12.7510   18.4390 C   0  0  0  0  0  2  0  0  0  0  0  0
  -29.3060  -12.7640   17.3280 C   0  0  0  0  0  2  0  0  0  0  0  0
  -27.9090  -12.5370   17.9300 C   0  0  0  0  0  2  0  0  0  0  0  0
  -27.6590  -13.4320   19.1680 C   0  0  0  0  0  3  0  0  0  0  0  0
  -28.8400  -13.4210   20.1550 C   0  0  0  0  0  2  0  0  0  0  0  0
  -30.0530  -13.8220   19.4280 N   0  0  0  0  0  0  0  0  0  0  0  0
  -31.7730  -15.1210   18.8360 O   0  0  0  0  0  0  0  0  0  0  0  0
  -25.4200  -13.9840   20.2760 C   0  0  0  0  0  0  0  0  0  0  0  0
  -24.4070  -13.1960   20.7500 C   0  0  0  0  0  0  0  0  0  0  0  0
  -24.8430  -11.8470   20.5810 C   0  0  0  0  0  0  0  0  0  0  0  0
  -26.4020  -13.1140   19.8360 N   0  0  0  0  0  0  0  0  0  0  0  0
  -26.0760  -11.8190   20.0850 N   0  0  0  0  0  0  0  0  0  0  0  0
  -24.1320  -10.5810   20.8030 C   0  0  0  0  0  0  0  0  0  0  0  0
  -24.6140   -9.6100   21.7080 C   0  0  0  0  0  3  0  0  0  0  0  0
  -23.9010   -8.4100   21.9200 C   0  0  0  0  0  3  0  0  0  0  0  0
  -22.6910   -8.1720   21.2260 C   0  0  0  0  0  0  0  0  0  0  0  0
  -22.2270   -9.1310   20.3090 C   0  0  0  0  0  3  0  0  0  0  0  0
  -22.9410  -10.3220   20.0960 C   0  0  0  0  0  3  0  0  0  0  0  0
  -21.9440   -7.0250   21.3470 O   0  0  0  0  0  0  0  0  0  0  0  0
  -21.8620   -6.3420   22.5340 C   0  0  0  0  0  0  0  0  0  0  0  0
  -21.3850   -6.9520   23.7140 C   0  0  0  0  0  3  0  0  0  0  0  0
  -21.2510   -6.1950   24.8950 C   0  0  0  0  0  3  0  0  0  0  0  0
  -21.5850   -4.8270   24.8960 C   0  0  0  0  0  0  0  0  0  0  0  0
  -22.0560   -4.2160   23.7200 C   0  0  0  0  0  3  0  0  0  0  0  0
  -22.1930   -4.9720   22.5430 C   0  0  0  0  0  0  0  0  0  0  0  0
  -22.6260   -4.3730   21.4080 F   0  0  0  0  0  0  0  0  0  0  0  0
  -21.4500   -4.0960   26.0270 F   0  0  0  0  0  0  0  0  0  0  0  0
  -23.0700  -13.6670   21.2430 C   0  0  0  0  0  0  0  0  0  0  0  0
  -22.4690  -12.9360   22.1740 N   0  0  0  0  0  0  0  0  0  0  0  0
  -22.5730  -14.7170   20.8370 O   0  0  0  0  0  0  0  0  0  0  0  0
  -22.8870  -12.0840   22.5200 H   0  0  0  0  0  0  0  0  0  0  0  0
  -21.5780  -13.2330   22.5470 H   0  0  0  0  0  0  0  0  0  0  0  0
  -25.5820  -15.3610   20.1590 N   0  0  0  0  0  0  0  0  0  0  0  0
  -24.8620  -16.0200   20.4360 H   0  0  0  0  0  0  0  0  0  0  0  0
  -26.4070  -15.8120   19.7840 H   0  0  0  0  0  0  0  0  0  0  0  0
  -32.1820  -15.6880   22.6620 C   0  0  0  0  0  1  0  0  0  0  0  0
  -30.6760  -15.5080   22.4400 C   0  0  0  0  0  2  0  0  0  0  0  0
  -31.2770  -18.1870   17.3050 C   0  0  0  0  0  1  0  0  0  0  0  0
  -29.9150  -17.7130   17.8270 C   0  0  0  0  0  2  0  0  0  0  0  0
  -29.2300  -20.4850   19.2990 C   0  0  0  0  0  3  0  0  0  0  0  0
  -28.7420  -21.8950   20.0810 C   0  0  0  0  0  3  0  0  0  0  0  0
  -28.7950  -23.4560   19.4440 C   0  0  0  0  0  3  0  0  0  0  0  0
  -28.0650  -24.8140   20.1130 C   0  0  0  0  0  3  0  0  0  0  0  0
  -28.2910  -26.3120   19.7630 O   0  0  0  0  0  0  0  0  0  0  0  0
  -24.8030  -31.8600   23.1330 C   0  0  0  0  0  0  0  0  0  0  0  0
  -27.2250  -27.2740   19.8280 C   0  0  0  0  0  0  0  0  0  0  0  0
  -23.5210  -30.5210   21.5100 C   0  0  0  0  0  3  0  0  0  0  0  0
  -24.8950  -28.9980   19.9640 C   0  0  0  0  0  0  0  0  0  0  0  0
  -26.0610  -30.8030   21.2230 C   0  0  0  0  0  2  0  0  0  0  0  0
  -26.1030  -29.4330   20.5260 C   0  0  0  0  0  0  0  0  0  0  0  0
  -27.2710  -28.5890   20.4390 C   0  0  0  0  0  3  0  0  0  0  0  0
  -25.9940  -26.9370   19.2280 C   0  0  0  0  0  3  0  0  0  0  0  0
  -24.8520  -27.7650   19.2970 C   0  0  0  0  0  3  0  0  0  0  0  0
  -23.6710  -29.8900   20.1000 C   0  0  0  0  0  2  0  0  0  0  0  0
  -24.8180  -31.0810   22.0100 N   0  0  0  0  0  0  0  0  0  0  0  0
  -23.7460  -32.1240   23.7270 O   0  0  0  0  0  0  0  0  0  0  0  0
  -22.8940  -29.4780   22.4710 C   0  0  0  0  0  0  0  0  0  0  0  0
  -21.5690  -29.2730   22.3720 N   0  0  0  0  0  0  0  0  0  0  0  0
  -23.6020  -28.8590   23.2690 O   0  0  0  0  0  0  0  0  0  0  0  0
  -21.0520  -29.8260   21.7020 H   0  0  0  0  0  0  0  0  0  0  0  0
  -18.2460  -27.9300   22.8840 C   0  0  0  0  0  0  0  0  0  0  0  0
  -20.7920  -28.3020   23.1460 C   0  0  0  0  0  3  0  0  0  0  0  0
  -20.9540  -26.8740   22.5730 C   0  0  0  0  0  2  0  0  0  0  0  0
  -19.8650  -26.5040   21.5610 C   0  0  0  0  0  2  0  0  0  0  0  0
  -18.4800  -26.5880   22.2080 C   0  0  0  0  0  2  0  0  0  0  0  0
  -19.3310  -28.7400   23.3110 C   0  0  0  0  0  0  0  0  0  0  0  0
  -19.0590  -29.9910   23.9060 C   0  0  0  0  0  3  0  0  0  0  0  0
  -17.7340  -30.4330   24.0770 C   0  0  0  0  0  3  0  0  0  0  0  0
  -16.6630  -29.6220   23.6650 C   0  0  0  0  0  3  0  0  0  0  0  0
  -16.9190  -28.3700   23.0760 C   0  0  0  0  0  3  0  0  0  0  0  0
  -26.1120  -32.4770   23.7160 C   0  0  0  0  0  3  0  0  0  0  0  0
  -25.8210  -33.8680   24.0970 N   0  0  0  0  0  0  0  0  0  0  0  0
  -26.1310  -34.9430   23.3600 C   0  0  0  0  0  0  0  0  0  0  0  0
  -26.7580  -34.8670   22.3010 O   0  0  0  0  0  0  0  0  0  0  0  0
  -25.2610  -34.0010   24.9260 H   0  0  0  0  0  0  0  0  0  0  0  0
  -24.4010  -36.7570   23.1340 C   0  0  0  0  0  1  0  0  0  0  0  0
  -25.6720  -36.3200   23.8780 C   0  0  0  0  0  3  0  0  0  0  0  0
  -27.8450  -37.1750   24.6440 C   0  0  0  0  0  1  0  0  0  0  0  0
  -26.7050  -37.3720   23.7520 N   0  0  0  0  0  0  0  0  0  0  0  0
  -26.3110  -38.2890   23.9400 H   0  0  0  0  0  0  0  0  0  0  0  0
  -26.6770  -31.6730   24.9520 C   0  0  1  0  0  0  0  0  0  0  0  0
  -25.6220  -31.3980   26.0500 C   0  0  0  0  0  1  0  0  0  0  0  0
  -27.2550  -30.3100   24.5070 C   0  0  0  0  0  1  0  0  0  0  0  0
  -27.8430  -32.4590   25.5970 C   0  0  0  0  0  1  0  0  0  0  0  0
  2  1  2  0
  3  4  2  0
  4  1  1  0
  4 44  1  0
  5  2  1  0
  6  5  2  0
  6  3  1  0
  7 13  1  0
  7  3  1  0
  8 13  1  0
  9 10  1  0
  9  8  1  0
 11 10  1  0
 11 18  1  0
 11 12  1  0
 13 12  1  0
 14  7  2  0
 15 16  2  0
 16 35  1  0
 17 16  1  0
 17 20  1  0
 18 19  1  0
 18 15  1  0
 19 17  2  0
 20 21  1  0
 21 22  2  0
 23 26  1  0
 23 22  1  0
 24 23  2  0
 25 24  1  0
 25 20  2  0
 26 27  1  0
 27 32  2  0
 27 28  1  0
 28 29  2  0
 29 30  1  0
 30 34  1  0
 31 30  2  0
 32 31  1  0
 33 32  1  0
 35 36  1  0
 36 38  1  0
 36 39  1  0
 37 35  2  0
 40 15  1  0
 40 41  1  0
 42 40  1  0
 44 43  1  0
 45 46  1  0
 46  6  1  0
 47  5  1  0
 47 48  2  0
 49 48  1  0
 49 50  2  0
 51 53  1  0
 51 50  1  0
 52 63  2  0
 53 58  1  0
 54 62  1  0
 54 64  1  0
 55 61  1  0
 55 57  1  0
 56 62  1  0
 57 56  1  0
 58 57  2  0
 59 60  1  0
 59 53  2  0
 60 55  2  0
 61 54  1  0
 62 52  1  0
 64 66  2  0
 65 64  1  0
 67 65  1  0
 68 77  2  0
 68 73  1  0
 69 65  1  0
 69 73  1  0
 70 69  1  0
 71 72  1  0
 71 70  1  0
 72 68  1  0
 73 74  2  0
 74 75  1  0
 76 75  2  0
 77 76  1  0
 78 52  1  0
 78 79  1  0
 78 88  1  0
 79 82  1  0
 80 84  1  0
 80 79  1  0
 81 80  2  0
 84 83  1  0
 86 84  1  0
 86 87  1  0
 86 85  1  0
 88 91  1  1
 88 89  1  0
 90 88  1  0
M  ISO  4   3 100   7 100  50 101  51 101
M  END
>  <TORSDO>  (61) 
F 22

>  <SCORE>  (61) 
-7.717

>  <name>  (61) 
60

>  <ligand_id>  (61) 
60

>  <original_smiles>  (61) 
[H]c1c([H])c([H])c2c(c1[H])C([H])([H])C([H])([H])C([H])([H])C2([H])N([H])C(=O)C1([H])N(C(=O)C([H])(N([H])C(=O)C([H])(N([H])C([H])([H])[H])C([H])([H])[H])C(C([H])([H])[H])(C([H])([H])[H])C([H])([H])[H])C([H])([H])c2c([H])c(OC([H])([H])C([H])([H])C([H])([H])C([H])([H])c3c([H])c([H])c(C([H])([H])C([H])([H])[H])c(C(=O)N4C([H])([H])C([H])([H])C([H])([H])C([H])(n5nc(-c6c([H])c([H])c(Oc7c([H])c([H])c(F)c([H])c7F)c([H])c6[H])c(C(=O)N([H])[H])c5N([H])[H])C4([H])[H])c3C([H])([H])C([H])([H])[H])c([H])c([H])c2C1([H])[H]

>  <smiles>  (61) 
[H]c1c([H])c([H])c2c(c1[H])C([H])([H])C([H])([H])C([H])([H])C2([H])N([H])C(=O)C1([H])N(C(=O)C([H])(N([H])C(=O)C([H])(N([H])C([H])([H])[H])C([H])([H])[H])C(C([H])([H])[H])(C([H])([H])[H])C([H])([H])[H])C([H])([H])c2c([H])c(OC([H])([H])C([H])([H])C([H])([H])C([H])([H])c3c([H])c([H])c(C([H])([H])C([H])([H])[H])c(C(=O)N4C([H])([H])C([H])([H])C([H])([H])C([H])(n5nc(-c6c([H])c([H])c(Oc7c([H])c([H])c(F)c([H])c7F)c([H])c6[H])c(C(=O)N([H])[H])c5N([H])[H])C4([H])[H])c3C([H])([H])C([H])([H])[H])c([H])c([H])c2C1([H])[H]

$$$$
61:0:0
     RDKit          3D

 92100  0  0  1  0  0  0  0  0999 V2000
  -30.6380  -24.0320   20.7930 C   0  0  0  0  0  3  0  0  0  0  0  0
  -30.1120  -25.2360   20.3010 C   0  0  0  0  0  3  0  0  0  0  0  0
  -28.5240  -23.5850   21.9030 C   0  0  0  0  0  3  0  0  0  0  0  0
  -29.8360  -23.1820   21.5710 C   0  0  0  0  0  0  0  0  0  0  0  0
  -28.8000  -25.6480   20.6050 C   0  0  0  0  0  0  0  0  0  0  0  0
  -27.9940  -24.8310   21.4530 C   0  0  0  0  0  0  0  0  0  0  0  0
  -25.9760  -24.4580   22.7090 C   0  0  0  0  0  1  0  0  0  0  0  0
  -26.7380  -25.2690   21.8220 O   0  0  0  0  0  0  0  0  0  0  0  0
  -30.4300  -21.9230   22.0870 C   0  0  0  0  0  0  0  0  0  0  0  0
  -31.5710  -21.8750   22.5600 O   0  0  0  0  0  0  0  0  0  0  0  0
  -29.6140  -20.6330   21.9320 C   0  0  0  0  0  2  0  0  0  0  0  0
  -30.4660  -19.4680   21.3790 C   0  0  0  0  0  2  0  0  0  0  0  0
  -29.7460  -18.1110   21.4000 C   0  0  0  0  0  2  0  0  0  0  0  0
  -30.6360  -16.9740   20.8630 C   0  0  0  0  0  2  0  0  0  0  0  0
  -30.0430  -15.5720   21.1120 C   0  0  0  0  0  2  0  0  0  0  0  0
  -30.6980  -14.4490   20.2820 C   0  0  0  0  0  0  0  0  0  0  0  0
  -30.3580  -12.3550   19.0180 C   0  0  0  0  0  2  0  0  0  0  0  0
  -29.3790  -12.6160   17.8550 C   0  0  0  0  0  2  0  0  0  0  0  0
  -27.9160  -12.4820   18.3210 C   0  0  0  0  0  2  0  0  0  0  0  0
  -27.6270  -13.2710   19.6260 C   0  0  0  0  0  3  0  0  0  0  0  0
  -28.7080  -12.9800   20.6900 C   0  0  0  0  0  2  0  0  0  0  0  0
  -30.0210  -13.2860   20.1020 N   0  0  0  0  0  0  0  0  0  0  0  0
  -31.7830  -14.6730   19.7330 O   0  0  0  0  0  0  0  0  0  0  0  0
  -25.2420  -13.8820   20.3860 C   0  0  0  0  0  0  0  0  0  0  0  0
  -24.1820  -13.1090   20.7770 C   0  0  0  0  0  0  0  0  0  0  0  0
  -24.6420  -11.7580   20.7350 C   0  0  0  0  0  0  0  0  0  0  0  0
  -26.2820  -13.0000   20.1320 N   0  0  0  0  0  0  0  0  0  0  0  0
  -25.9250  -11.7180   20.3970 N   0  0  0  0  0  0  0  0  0  0  0  0
  -23.9210  -10.4950   20.9410 C   0  0  0  0  0  0  0  0  0  0  0  0
  -24.3720   -9.5310   21.8690 C   0  0  0  0  0  3  0  0  0  0  0  0
  -23.6520   -8.3320   22.0620 C   0  0  0  0  0  3  0  0  0  0  0  0
  -22.4680   -8.0890   21.3270 C   0  0  0  0  0  0  0  0  0  0  0  0
  -22.0360   -9.0420   20.3870 C   0  0  0  0  0  3  0  0  0  0  0  0
  -22.7560  -10.2330   20.1930 C   0  0  0  0  0  3  0  0  0  0  0  0
  -21.7190   -6.9410   21.4280 O   0  0  0  0  0  0  0  0  0  0  0  0
  -21.6790   -6.2080   22.5860 C   0  0  0  0  0  0  0  0  0  0  0  0
  -21.2700   -6.7740   23.8130 C   0  0  0  0  0  3  0  0  0  0  0  0
  -21.1780   -5.9660   24.9640 C   0  0  0  0  0  3  0  0  0  0  0  0
  -21.4850   -4.5950   24.8900 C   0  0  0  0  0  0  0  0  0  0  0  0
  -21.8880   -4.0280   23.6680 C   0  0  0  0  0  3  0  0  0  0  0  0
  -21.9830   -4.8330   22.5190 C   0  0  0  0  0  0  0  0  0  0  0  0
  -22.3500   -4.2780   21.3390 F   0  0  0  0  0  0  0  0  0  0  0  0
  -21.3900   -3.8170   25.9940 F   0  0  0  0  0  0  0  0  0  0  0  0
  -22.7900  -13.5850   21.0820 C   0  0  0  0  0  0  0  0  0  0  0  0
  -22.0840  -12.8910   21.9670 N   0  0  0  0  0  0  0  0  0  0  0  0
  -22.3380  -14.6090   20.5690 O   0  0  0  0  0  0  0  0  0  0  0  0
  -22.4630  -12.0640   22.4050 H   0  0  0  0  0  0  0  0  0  0  0  0
  -21.1510  -13.1900   22.2110 H   0  0  0  0  0  0  0  0  0  0  0  0
  -25.4040  -15.2530   20.2070 N   0  0  0  0  0  0  0  0  0  0  0  0
  -24.6430  -15.9110   20.3360 H   0  0  0  0  0  0  0  0  0  0  0  0
  -26.2540  -15.6910   19.8740 H   0  0  0  0  0  0  0  0  0  0  0  0
  -28.4660  -26.8530   20.0180 O   0  0  0  0  0  0  0  0  0  0  0  0
  -24.5640  -31.8630   23.2080 C   0  0  0  0  0  0  0  0  0  0  0  0
  -27.2540  -27.4880   20.1210 C   0  0  0  0  0  0  0  0  0  0  0  0
  -23.3740  -30.4790   21.5350 C   0  0  0  0  0  3  0  0  0  0  0  0
  -24.8480  -28.9580   20.1110 C   0  0  0  0  0  0  0  0  0  0  0  0
  -25.8950  -30.8570   21.3600 C   0  0  0  0  0  2  0  0  0  0  0  0
  -25.9910  -29.4890   20.7230 C   0  0  0  0  0  0  0  0  0  0  0  0
  -27.1950  -28.7580   20.7310 C   0  0  0  0  0  3  0  0  0  0  0  0
  -26.1040  -26.9640   19.4970 C   0  0  0  0  0  3  0  0  0  0  0  0
  -24.8960  -27.6920   19.4990 C   0  0  0  0  0  3  0  0  0  0  0  0
  -23.5990  -29.8130   20.1500 C   0  0  0  0  0  2  0  0  0  0  0  0
  -24.6290  -31.0820   22.0940 N   0  0  0  0  0  0  0  0  0  0  0  0
  -23.4800  -32.1240   23.7450 O   0  0  0  0  0  0  0  0  0  0  0  0
  -22.7250  -29.4420   22.4780 C   0  0  0  0  0  0  0  0  0  0  0  0
  -21.3980  -29.2720   22.3540 N   0  0  0  0  0  0  0  0  0  0  0  0
  -23.4090  -28.7920   23.2720 O   0  0  0  0  0  0  0  0  0  0  0  0
  -20.9070  -29.8460   21.6830 H   0  0  0  0  0  0  0  0  0  0  0  0
  -18.0150  -28.1220   22.8740 C   0  0  0  0  0  0  0  0  0  0  0  0
  -20.5800  -28.3250   23.1100 C   0  0  0  0  0  3  0  0  0  0  0  0
  -20.6460  -26.9130   22.4840 C   0  0  0  0  0  2  0  0  0  0  0  0
  -19.5220  -26.6430   21.4800 C   0  0  0  0  0  2  0  0  0  0  0  0
  -18.1550  -26.7920   22.1520 C   0  0  0  0  0  2  0  0  0  0  0  0
  -19.1530  -28.8490   23.3090 C   0  0  0  0  0  0  0  0  0  0  0  0
  -18.9690  -30.0970   23.9440 C   0  0  0  0  0  3  0  0  0  0  0  0
  -17.6770  -30.6160   24.1470 C   0  0  0  0  0  3  0  0  0  0  0  0
  -16.5520  -29.8870   23.7250 C   0  0  0  0  0  3  0  0  0  0  0  0
  -16.7220  -28.6400   23.0950 C   0  0  0  0  0  3  0  0  0  0  0  0
  -25.8450  -32.4890   23.8450 C   0  0  0  0  0  3  0  0  0  0  0  0
  -25.5310  -33.8830   24.1840 N   0  0  0  0  0  0  0  0  0  0  0  0
  -25.8590  -34.9410   23.4300 C   0  0  0  0  0  0  0  0  0  0  0  0
  -26.5280  -34.8470   22.3960 O   0  0  0  0  0  0  0  0  0  0  0  0
  -24.9330  -34.0300   24.9840 H   0  0  0  0  0  0  0  0  0  0  0  0
  -24.1100  -36.7180   23.0980 C   0  0  0  0  0  1  0  0  0  0  0  0
  -25.3650  -36.3240   23.8920 C   0  0  0  0  0  3  0  0  0  0  0  0
  -27.5040  -37.2230   24.6950 C   0  0  0  0  0  1  0  0  0  0  0  0
  -26.3870  -37.3860   23.7680 N   0  0  0  0  0  0  0  0  0  0  0  0
  -25.9760  -38.3020   23.9240 H   0  0  0  0  0  0  0  0  0  0  0  0
  -26.3570  -31.7040   25.1150 C   0  0  1  0  0  0  0  0  0  0  0  0
  -25.2580  -31.4500   26.1740 C   0  0  0  0  0  1  0  0  0  0  0  0
  -26.9430  -30.3320   24.7080 C   0  0  0  0  0  1  0  0  0  0  0  0
  -27.5020  -32.4930   25.7930 C   0  0  0  0  0  1  0  0  0  0  0  0
  1  4  1  0
  2  5  1  0
  2  1  2  0
  4  3  2  0
  4  9  1  0
  5  6  2  0
  6  8  1  0
  6  3  1  0
  8  7  1  0
  9 10  2  0
 11  9  1  0
 12 13  1  0
 12 11  1  0
 14 15  1  0
 14 13  1  0
 16 15  1  0
 17 22  1  0
 18 19  1  0
 18 17  1  0
 20 19  1  0
 20 27  1  0
 20 21  1  0
 22 16  1  0
 22 21  1  0
 23 16  2  0
 24 25  2  0
 25 44  1  0
 26 25  1  0
 26 29  1  0
 27 24  1  0
 27 28  1  0
 28 26  2  0
 29 30  1  0
 30 31  2  0
 32 35  1  0
 32 31  1  0
 33 32  2  0
 34 33  1  0
 34 29  2  0
 35 36  1  0
 36 37  1  0
 37 38  2  0
 39 38  1  0
 39 43  1  0
 40 39  2  0
 41 36  2  0
 41 40  1  0
 42 41  1  0
 44 45  1  0
 45 48  1  0
 45 47  1  0
 46 44  2  0
 49 50  1  0
 49 24  1  0
 51 49  1  0
 52 54  1  0
 52  5  1  0
 53 64  2  0
 54 59  1  0
 55 63  1  0
 55 65  1  0
 56 62  1  0
 56 58  1  0
 57 63  1  0
 58 59  2  0
 58 57  1  0
 60 61  1  0
 60 54  2  0
 61 56  2  0
 62 55  1  0
 63 53  1  0
 65 67  2  0
 66 65  1  0
 68 66  1  0
 69 78  2  0
 69 74  1  0
 70 66  1  0
 70 74  1  0
 71 70  1  0
 72 73  1  0
 72 71  1  0
 73 69  1  0
 74 75  2  0
 75 76  1  0
 77 76  2  0
 78 77  1  0
 79 53  1  0
 79 80  1  0
 79 89  1  0
 80 83  1  0
 81 85  1  0
 81 80  1  0
 82 81  2  0
 85 84  1  0
 87 85  1  0
 87 88  1  0
 87 86  1  0
 89 92  1  1
 89 90  1  0
 91 89  1  0
M  ISO  4   5 101  15 100  16 100  52 101
M  END
>  <TORSDO>  (62) 
F 23

>  <SCORE>  (62) 
-12.335

>  <name>  (62) 
61

>  <ligand_id>  (62) 
61

>  <original_smiles>  (62) 
[H]c1c([H])c([H])c2c(c1[H])C([H])([H])C([H])([H])C([H])([H])C2([H])N([H])C(=O)C1([H])N(C(=O)C([H])(N([H])C(=O)C([H])(N([H])C([H])([H])[H])C([H])([H])[H])C(C([H])([H])[H])(C([H])([H])[H])C([H])([H])[H])C([H])([H])c2c([H])c(Oc3c([H])c([H])c(C(=O)C([H])([H])C([H])([H])C([H])([H])C([H])([H])C([H])([H])C(=O)N4C([H])([H])C([H])([H])C([H])([H])C([H])(n5nc(-c6c([H])c([H])c(Oc7c([H])c([H])c(F)c([H])c7F)c([H])c6[H])c(C(=O)N([H])[H])c5N([H])[H])C4([H])[H])c([H])c3OC([H])([H])[H])c([H])c([H])c2C1([H])[H]

>  <smiles>  (62) 
[H]c1c([H])c([H])c2c(c1[H])C([H])([H])C([H])([H])C([H])([H])C2([H])N([H])C(=O)C1([H])N(C(=O)C([H])(N([H])C(=O)C([H])(N([H])C([H])([H])[H])C([H])([H])[H])C(C([H])([H])[H])(C([H])([H])[H])C([H])([H])[H])C([H])([H])c2c([H])c(Oc3c([H])c([H])c(C(=O)C([H])([H])C([H])([H])C([H])([H])C([H])([H])C([H])([H])C(=O)N4C([H])([H])C([H])([H])C([H])([H])C([H])(n5nc(-c6c([H])c([H])c(Oc7c([H])c([H])c(F)c([H])c7F)c([H])c6[H])c(C(=O)N([H])[H])c5N([H])[H])C4([H])[H])c([H])c3OC([H])([H])[H])c([H])c([H])c2C1([H])[H]

$$$$
62:0:0
     RDKit          3D

 93101  0  0  1  0  0  0  0  0999 V2000
  -28.8960  -22.4330   21.1580 C   0  0  0  0  0  3  0  0  0  0  0  0
  -29.0320  -21.0510   21.4240 C   0  0  0  0  0  3  0  0  0  0  0  0
  -28.8990  -21.9560   18.7840 C   0  0  0  0  0  3  0  0  0  0  0  0
  -28.8210  -22.9110   19.8280 C   0  0  0  0  0  0  0  0  0  0  0  0
  -29.0890  -20.0990   20.3800 C   0  0  0  0  0  0  0  0  0  0  0  0
  -29.0220  -20.5680   19.0410 C   0  0  0  0  0  0  0  0  0  0  0  0
  -28.6900  -24.3780   19.4890 C   0  0  0  0  0  0  0  0  0  0  0  0
  -28.7700  -24.7930   18.3270 O   0  0  0  0  0  0  0  0  0  0  0  0
  -28.4160  -25.3880   20.6290 C   0  0  0  0  0  2  0  0  0  0  0  0
  -28.4950  -26.7640   20.1940 O   0  0  0  0  0  0  0  0  0  0  0  0
  -24.6250  -31.9100   23.2540 C   0  0  0  0  0  0  0  0  0  0  0  0
  -27.3160  -27.4780   20.1970 C   0  0  0  0  0  0  0  0  0  0  0  0
  -23.4360  -30.4950   21.6090 C   0  0  0  0  0  3  0  0  0  0  0  0
  -24.9080  -28.9640   20.1950 C   0  0  0  0  0  0  0  0  0  0  0  0
  -25.9590  -30.8760   21.4180 C   0  0  0  0  0  2  0  0  0  0  0  0
  -26.0590  -29.5030   20.7820 C   0  0  0  0  0  0  0  0  0  0  0  0
  -27.2690  -28.7700   20.7720 C   0  0  0  0  0  3  0  0  0  0  0  0
  -26.1460  -26.9520   19.6080 C   0  0  0  0  0  3  0  0  0  0  0  0
  -24.9470  -27.6890   19.6040 C   0  0  0  0  0  3  0  0  0  0  0  0
  -23.6570  -29.8130   20.2330 C   0  0  0  0  0  2  0  0  0  0  0  0
  -24.6920  -31.1090   22.1530 N   0  0  0  0  0  0  0  0  0  0  0  0
  -23.5400  -32.1730   23.7910 O   0  0  0  0  0  0  0  0  0  0  0  0
  -22.7900  -29.4720   22.5700 C   0  0  0  0  0  0  0  0  0  0  0  0
  -21.4670  -29.2790   22.4380 N   0  0  0  0  0  0  0  0  0  0  0  0
  -23.4750  -28.8520   23.3880 O   0  0  0  0  0  0  0  0  0  0  0  0
  -20.9750  -29.8320   21.7490 H   0  0  0  0  0  0  0  0  0  0  0  0
  -18.0960  -28.0790   22.9390 C   0  0  0  0  0  0  0  0  0  0  0  0
  -20.6540  -28.3360   23.2060 C   0  0  0  0  0  3  0  0  0  0  0  0
  -20.7560  -26.9090   22.6200 C   0  0  0  0  0  2  0  0  0  0  0  0
  -19.6510  -26.5920   21.6070 C   0  0  0  0  0  2  0  0  0  0  0  0
  -18.2710  -26.7340   22.2560 C   0  0  0  0  0  2  0  0  0  0  0  0
  -19.2150  -28.8390   23.3710 C   0  0  0  0  0  0  0  0  0  0  0  0
  -18.9980  -30.1000   23.9690 C   0  0  0  0  0  3  0  0  0  0  0  0
  -17.6940  -30.6000   24.1410 C   0  0  0  0  0  3  0  0  0  0  0  0
  -16.5890  -29.8370   23.7260 C   0  0  0  0  0  3  0  0  0  0  0  0
  -16.7910  -28.5790   23.1320 C   0  0  0  0  0  3  0  0  0  0  0  0
  -25.9040  -32.5510   23.8780 C   0  0  0  0  0  3  0  0  0  0  0  0
  -25.5890  -33.9510   24.1920 N   0  0  0  0  0  0  0  0  0  0  0  0
  -25.9340  -34.9970   23.4300 C   0  0  0  0  0  0  0  0  0  0  0  0
  -26.6220  -34.8850   22.4110 O   0  0  0  0  0  0  0  0  0  0  0  0
  -24.9820  -34.1130   24.9820 H   0  0  0  0  0  0  0  0  0  0  0  0
  -24.2150  -36.7880   23.0200 C   0  0  0  0  0  1  0  0  0  0  0  0
  -25.4360  -36.3890   23.8660 C   0  0  0  0  0  3  0  0  0  0  0  0
  -27.5490  -37.2780   24.7460 C   0  0  0  0  0  1  0  0  0  0  0  0
  -26.4720  -37.4400   23.7720 N   0  0  0  0  0  0  0  0  0  0  0  0
  -26.0630  -38.3610   23.9020 H   0  0  0  0  0  0  0  0  0  0  0  0
  -26.4160  -31.7930   25.1640 C   0  0  1  0  0  0  0  0  0  0  0  0
  -25.3170  -31.5550   26.2260 C   0  0  0  0  0  1  0  0  0  0  0  0
  -27.0120  -30.4180   24.7850 C   0  0  0  0  0  1  0  0  0  0  0  0
  -27.5570  -32.6000   25.8300 C   0  0  0  0  0  1  0  0  0  0  0  0
  -27.6520  -19.2000   17.4050 C   0  0  0  0  0  1  0  0  0  0  0  0
  -29.0570  -19.6180   17.8530 C   0  0  0  0  0  2  0  0  0  0  0  0
  -29.1780  -18.6030   20.7390 C   0  0  0  0  0  2  0  0  0  0  0  0
  -30.6150  -18.0230   20.7350 C   0  0  0  0  0  2  0  0  0  0  0  0
  -30.8530  -16.7880   21.6470 C   0  0  0  0  0  2  0  0  0  0  0  0
  -30.9040  -14.5510   20.4970 C   0  0  0  0  0  0  0  0  0  0  0  0
  -30.6080  -12.4010   19.3150 C   0  0  0  0  0  2  0  0  0  0  0  0
  -29.6760  -12.5920   18.1020 C   0  0  0  0  0  2  0  0  0  0  0  0
  -28.1980  -12.4510   18.5210 C   0  0  0  0  0  2  0  0  0  0  0  0
  -27.8490  -13.2970   19.7750 C   0  0  0  0  0  3  0  0  0  0  0  0
  -28.8910  -13.0790   20.8920 C   0  0  0  0  0  2  0  0  0  0  0  0
  -30.2200  -13.3860   20.3360 N   0  0  0  0  0  0  0  0  0  0  0  0
  -32.0140  -14.7510   19.9950 O   0  0  0  0  0  0  0  0  0  0  0  0
  -30.2680  -15.5170   21.1870 N   0  0  0  0  0  0  0  0  0  0  0  0
  -29.3460  -15.2850   21.5280 H   0  0  0  0  0  0  0  0  0  0  0  0
  -25.4430  -13.9090   20.4530 C   0  0  0  0  0  0  0  0  0  0  0  0
  -24.3710  -13.1400   20.8160 C   0  0  0  0  0  0  0  0  0  0  0  0
  -24.8330  -11.7880   20.8010 C   0  0  0  0  0  0  0  0  0  0  0  0
  -26.4900  -13.0260   20.2400 N   0  0  0  0  0  0  0  0  0  0  0  0
  -26.1260  -11.7460   20.5070 N   0  0  0  0  0  0  0  0  0  0  0  0
  -24.1040  -10.5270   20.9920 C   0  0  0  0  0  0  0  0  0  0  0  0
  -24.5170   -9.5750   21.9500 C   0  0  0  0  0  3  0  0  0  0  0  0
  -23.7900   -8.3770   22.1290 C   0  0  0  0  0  3  0  0  0  0  0  0
  -22.6360   -8.1250   21.3480 C   0  0  0  0  0  0  0  0  0  0  0  0
  -22.2430   -9.0660   20.3800 C   0  0  0  0  0  3  0  0  0  0  0  0
  -22.9720  -10.2540   20.2000 C   0  0  0  0  0  3  0  0  0  0  0  0
  -21.8830   -6.9800   21.4350 O   0  0  0  0  0  0  0  0  0  0  0  0
  -21.7940   -6.2620   22.6010 C   0  0  0  0  0  0  0  0  0  0  0  0
  -21.3080   -6.8380   23.7950 C   0  0  0  0  0  3  0  0  0  0  0  0
  -21.1690   -6.0460   24.9520 C   0  0  0  0  0  3  0  0  0  0  0  0
  -21.5060   -4.6790   24.9170 C   0  0  0  0  0  0  0  0  0  0  0  0
  -21.9840   -4.1030   23.7270 C   0  0  0  0  0  3  0  0  0  0  0  0
  -22.1250   -4.8920   22.5710 C   0  0  0  0  0  0  0  0  0  0  0  0
  -22.5670   -4.3280   21.4220 F   0  0  0  0  0  0  0  0  0  0  0  0
  -21.3640   -3.9160   26.0250 F   0  0  0  0  0  0  0  0  0  0  0  0
  -22.9710  -13.6190   21.0700 C   0  0  0  0  0  0  0  0  0  0  0  0
  -22.2340  -12.9280   21.9340 N   0  0  0  0  0  0  0  0  0  0  0  0
  -22.5380  -14.6410   20.5390 O   0  0  0  0  0  0  0  0  0  0  0  0
  -22.5970  -12.1010   22.3860 H   0  0  0  0  0  0  0  0  0  0  0  0
  -21.2940  -13.2320   22.1470 H   0  0  0  0  0  0  0  0  0  0  0  0
  -25.6100  -15.2780   20.2660 N   0  0  0  0  0  0  0  0  0  0  0  0
  -24.8430  -15.9350   20.3590 H   0  0  0  0  0  0  0  0  0  0  0  0
  -26.4660  -15.7120   19.9420 H   0  0  0  0  0  0  0  0  0  0  0  0
  1  2  1  0
  3  6  2  0
  3  4  1  0
  4  1  2  0
  5 53  1  0
  5  2  2  0
  6  5  1  0
  7  4  1  0
  7  9  1  0
  8  7  2  0
 10 12  1  0
 10  9  1  0
 11 22  2  0
 12 17  1  0
 13 21  1  0
 13 23  1  0
 14 20  1  0
 14 16  1  0
 15 21  1  0
 16 15  1  0
 17 16  2  0
 18 12  2  0
 19 18  1  0
 19 14  2  0
 20 13  1  0
 21 11  1  0
 23 25  2  0
 24 23  1  0
 26 24  1  0
 27 36  2  0
 27 32  1  0
 28 24  1  0
 28 32  1  0
 29 28  1  0
 30 31  1  0
 30 29  1  0
 31 27  1  0
 32 33  2  0
 33 34  1  0
 35 34  2  0
 36 35  1  0
 37 11  1  0
 37 38  1  0
 37 47  1  0
 38 41  1  0
 39 43  1  0
 39 38  1  0
 40 39  2  0
 43 42  1  0
 45 43  1  0
 45 46  1  0
 45 44  1  0
 47 50  1  1
 47 48  1  0
 49 47  1  0
 51 52  1  0
 52  6  1  0
 54 53  1  0
 54 55  1  0
 56 64  1  0
 57 62  1  0
 58 59  1  0
 58 57  1  0
 60 59  1  0
 60 69  1  0
 60 61  1  0
 62 56  1  0
 62 61  1  0
 63 56  2  0
 64 65  1  0
 64 55  1  0
 66 67  2  0
 67 86  1  0
 68 67  1  0
 68 71  1  0
 69 66  1  0
 69 70  1  0
 70 68  2  0
 71 72  1  0
 72 73  2  0
 74 77  1  0
 74 73  1  0
 75 74  2  0
 76 75  1  0
 76 71  2  0
 77 78  1  0
 78 79  1  0
 79 80  2  0
 81 80  1  0
 81 85  1  0
 82 81  2  0
 83 78  2  0
 83 82  1  0
 84 83  1  0
 86 87  1  0
 87 90  1  0
 87 89  1  0
 88 86  2  0
 91 92  1  0
 91 66  1  0
 93 91  1  0
M  ISO  4   9 101  10 101  56 100  64 100
M  END
>  <TORSDO>  (63) 
F 22

>  <SCORE>  (63) 
-13.338

>  <name>  (63) 
62

>  <ligand_id>  (63) 
62

>  <original_smiles>  (63) 
[H]c1c([H])c([H])c2c(c1[H])C([H])([H])C([H])([H])C([H])([H])C2([H])N([H])C(=O)C1([H])N(C(=O)C([H])(N([H])C(=O)C([H])(N([H])C([H])([H])[H])C([H])([H])[H])C(C([H])([H])[H])(C([H])([H])[H])C([H])([H])[H])C([H])([H])c2c([H])c(OC([H])([H])C(=O)c3c([H])c([H])c(C([H])([H])C([H])([H])C([H])([H])N([H])C(=O)N4C([H])([H])C([H])([H])C([H])([H])C([H])(n5nc(-c6c([H])c([H])c(Oc7c([H])c([H])c(F)c([H])c7F)c([H])c6[H])c(C(=O)N([H])[H])c5N([H])[H])C4([H])[H])c(C([H])([H])C([H])([H])[H])c3[H])c([H])c([H])c2C1([H])[H]

>  <smiles>  (63) 
[H]c1c([H])c([H])c2c(c1[H])C([H])([H])C([H])([H])C([H])([H])C2([H])N([H])C(=O)C1([H])N(C(=O)C([H])(N([H])C(=O)C([H])(N([H])C([H])([H])[H])C([H])([H])[H])C(C([H])([H])[H])(C([H])([H])[H])C([H])([H])[H])C([H])([H])c2c([H])c(OC([H])([H])C(=O)c3c([H])c([H])c(C([H])([H])C([H])([H])C([H])([H])N([H])C(=O)N4C([H])([H])C([H])([H])C([H])([H])C([H])(n5nc(-c6c([H])c([H])c(Oc7c([H])c([H])c(F)c([H])c7F)c([H])c6[H])c(C(=O)N([H])[H])c5N([H])[H])C4([H])[H])c(C([H])([H])C([H])([H])[H])c3[H])c([H])c([H])c2C1([H])[H]

$$$$
63:0:0
     RDKit          3D

 90 98  0  0  1  0  0  0  0  0999 V2000
  -28.4570  -22.6890   19.0580 C   0  0  0  0  0  3  0  0  0  0  0  0
  -28.1500  -24.1010   19.0760 C   0  0  0  0  0  3  0  0  0  0  0  0
  -29.0310  -21.9770   20.1610 C   0  0  0  0  0  0  0  0  0  0  0  0
  -28.3690  -24.9480   20.2060 C   0  0  0  0  0  0  0  0  0  0  0  0
  -28.8850  -24.2220   21.3300 C   0  0  0  0  0  0  0  0  0  0  0  0
  -29.2000  -22.8090   21.3100 C   0  0  0  0  0  0  0  0  0  0  0  0
  -29.7600  -22.2730   22.4230 F   0  0  0  0  0  0  0  0  0  0  0  0
  -29.1700  -24.9040   22.4780 O   0  0  0  0  0  0  0  0  0  0  0  0
  -29.5280  -24.2970   23.1190 H   0  0  0  0  0  0  0  0  0  0  0  0
  -28.3300  -26.3950   20.1640 O   0  0  0  0  0  0  0  0  0  0  0  0
  -24.6230  -31.8820   23.2220 C   0  0  0  0  0  0  0  0  0  0  0  0
  -27.1920  -27.2430   20.1700 C   0  0  0  0  0  0  0  0  0  0  0  0
  -23.4030  -30.4800   21.5960 C   0  0  0  0  0  3  0  0  0  0  0  0
  -24.8380  -28.9070   20.1640 C   0  0  0  0  0  0  0  0  0  0  0  0
  -25.9450  -30.7750   21.3940 C   0  0  0  0  0  2  0  0  0  0  0  0
  -26.0130  -29.3840   20.7530 C   0  0  0  0  0  0  0  0  0  0  0  0
  -27.1900  -28.5650   20.7430 C   0  0  0  0  0  3  0  0  0  0  0  0
  -25.9920  -26.8310   19.5560 C   0  0  0  0  0  3  0  0  0  0  0  0
  -24.8320  -27.6400   19.5540 C   0  0  0  0  0  3  0  0  0  0  0  0
  -23.6060  -29.7930   20.2180 C   0  0  0  0  0  2  0  0  0  0  0  0
  -24.6770  -31.0660   22.1260 N   0  0  0  0  0  0  0  0  0  0  0  0
  -23.5440  -32.1640   23.7640 O   0  0  0  0  0  0  0  0  0  0  0  0
  -22.7430  -29.4720   22.5690 C   0  0  0  0  0  0  0  0  0  0  0  0
  -21.4150  -29.2970   22.4530 N   0  0  0  0  0  0  0  0  0  0  0  0
  -23.4250  -28.8510   23.3870 O   0  0  0  0  0  0  0  0  0  0  0  0
  -20.9210  -29.8500   21.7670 H   0  0  0  0  0  0  0  0  0  0  0  0
  -18.0440  -28.0870   22.9740 C   0  0  0  0  0  0  0  0  0  0  0  0
  -20.6030  -28.3610   23.2340 C   0  0  0  0  0  3  0  0  0  0  0  0
  -20.7080  -26.9250   22.6680 C   0  0  0  0  0  2  0  0  0  0  0  0
  -19.6050  -26.5900   21.6590 C   0  0  0  0  0  2  0  0  0  0  0  0
  -18.2250  -26.7330   22.3060 C   0  0  0  0  0  2  0  0  0  0  0  0
  -19.1600  -28.8570   23.3950 C   0  0  0  0  0  0  0  0  0  0  0  0
  -18.9360  -30.1220   23.9800 C   0  0  0  0  0  3  0  0  0  0  0  0
  -17.6290  -30.6180   24.1470 C   0  0  0  0  0  3  0  0  0  0  0  0
  -16.5270  -29.8440   23.7420 C   0  0  0  0  0  3  0  0  0  0  0  0
  -16.7360  -28.5800   23.1620 C   0  0  0  0  0  3  0  0  0  0  0  0
  -25.9100  -32.5160   23.8330 C   0  0  0  0  0  3  0  0  0  0  0  0
  -25.6000  -33.9120   24.1760 N   0  0  0  0  0  0  0  0  0  0  0  0
  -25.9180  -34.9720   23.4210 C   0  0  0  0  0  0  0  0  0  0  0  0
  -26.5730  -34.8780   22.3780 O   0  0  0  0  0  0  0  0  0  0  0  0
  -25.0160  -34.0590   24.9850 H   0  0  0  0  0  0  0  0  0  0  0  0
  -24.1810  -36.7670   23.1100 C   0  0  0  0  0  1  0  0  0  0  0  0
  -25.4370  -36.3580   23.8960 C   0  0  0  0  0  3  0  0  0  0  0  0
  -27.5850  -37.2430   24.6930 C   0  0  0  0  0  1  0  0  0  0  0  0
  -26.4650  -37.4140   23.7720 N   0  0  0  0  0  0  0  0  0  0  0  0
  -26.0590  -38.3330   23.9310 H   0  0  0  0  0  0  0  0  0  0  0  0
  -26.4420  -31.7420   25.1010 C   0  0  1  0  0  0  0  0  0  0  0  0
  -25.3620  -31.5020   26.1830 C   0  0  0  0  0  1  0  0  0  0  0  0
  -27.0210  -30.3650   24.7020 C   0  0  0  0  0  1  0  0  0  0  0  0
  -27.6000  -32.5350   25.7530 C   0  0  0  0  0  1  0  0  0  0  0  0
  -29.7010  -20.5070   19.9810 C   0  0  0  0  0  3  0  0  0  0  0  0
  -29.2450  -19.0670   20.6190 C   0  0  0  0  0  3  0  0  0  0  0  0
  -30.0880  -17.6920   20.2500 C   0  0  0  0  0  3  0  0  0  0  0  0
  -29.7290  -16.1910   20.8270 C   0  0  0  0  0  3  0  0  0  0  0  0
  -30.5430  -14.8420   20.4070 C   0  0  0  0  0  0  0  0  0  0  0  0
  -30.4070  -12.5430   19.3860 C   0  0  0  0  0  2  0  0  0  0  0  0
  -29.4810  -12.6070   18.1480 C   0  0  0  0  0  2  0  0  0  0  0  0
  -28.0070  -12.4200   18.5580 C   0  0  0  0  0  2  0  0  0  0  0  0
  -27.6150  -13.3030   19.7700 C   0  0  0  0  0  3  0  0  0  0  0  0
  -28.6580  -13.2170   20.9050 C   0  0  0  0  0  2  0  0  0  0  0  0
  -29.9600  -13.5890   20.3400 N   0  0  0  0  0  0  0  0  0  0  0  0
  -31.7170  -14.9550   20.0380 O   0  0  0  0  0  0  0  0  0  0  0  0
  -25.2180  -13.8960   20.4640 C   0  0  0  0  0  0  0  0  0  0  0  0
  -24.1480  -13.1240   20.8270 C   0  0  0  0  0  0  0  0  0  0  0  0
  -24.6150  -11.7740   20.8160 C   0  0  0  0  0  0  0  0  0  0  0  0
  -26.2660  -13.0160   20.2480 N   0  0  0  0  0  0  0  0  0  0  0  0
  -25.9100  -11.7340   20.5240 N   0  0  0  0  0  0  0  0  0  0  0  0
  -23.8890  -10.5120   21.0100 C   0  0  0  0  0  0  0  0  0  0  0  0
  -24.3100   -9.5540   21.9580 C   0  0  0  0  0  3  0  0  0  0  0  0
  -23.5840   -8.3570   22.1380 C   0  0  0  0  0  3  0  0  0  0  0  0
  -22.4210   -8.1100   21.3710 C   0  0  0  0  0  0  0  0  0  0  0  0
  -22.0180   -9.0560   20.4120 C   0  0  0  0  0  3  0  0  0  0  0  0
  -22.7460  -10.2440   20.2290 C   0  0  0  0  0  3  0  0  0  0  0  0
  -21.6670   -6.9650   21.4590 O   0  0  0  0  0  0  0  0  0  0  0  0
  -21.6030   -6.2330   22.6180 C   0  0  0  0  0  0  0  0  0  0  0  0
  -21.1630   -6.8000   23.8340 C   0  0  0  0  0  3  0  0  0  0  0  0
  -21.0450   -5.9960   24.9850 C   0  0  0  0  0  3  0  0  0  0  0  0
  -21.3580   -4.6250   24.9210 C   0  0  0  0  0  0  0  0  0  0  0  0
  -21.7910   -4.0570   23.7090 C   0  0  0  0  0  3  0  0  0  0  0  0
  -21.9100   -4.8590   22.5600 C   0  0  0  0  0  0  0  0  0  0  0  0
  -22.3070   -4.3020   21.3910 F   0  0  0  0  0  0  0  0  0  0  0  0
  -21.2380   -3.8490   26.0230 F   0  0  0  0  0  0  0  0  0  0  0  0
  -22.7470  -13.6010   21.0750 C   0  0  0  0  0  0  0  0  0  0  0  0
  -22.0090  -12.9120   21.9380 N   0  0  0  0  0  0  0  0  0  0  0  0
  -22.3150  -14.6190   20.5380 O   0  0  0  0  0  0  0  0  0  0  0  0
  -22.3720  -12.0880   22.3950 H   0  0  0  0  0  0  0  0  0  0  0  0
  -21.0680  -13.2140   22.1470 H   0  0  0  0  0  0  0  0  0  0  0  0
  -25.3840  -15.2660   20.2770 N   0  0  0  0  0  0  0  0  0  0  0  0
  -24.6180  -15.9230   20.3750 H   0  0  0  0  0  0  0  0  0  0  0  0
  -26.2420  -15.7010   19.9630 H   0  0  0  0  0  0  0  0  0  0  0  0
  1  2  2  0
  1  3  1  0
  2  4  1  0
  3  6  2  0
  4  5  2  0
  5  8  1  0
  6  5  1  0
  6  7  1  0
  8  9  1  0
 10 12  1  0
 10  4  1  0
 11 22  2  0
 12 17  1  0
 13 21  1  0
 13 23  1  0
 14 20  1  0
 14 16  1  0
 15 21  1  0
 16 15  1  0
 17 16  2  0
 18 12  2  0
 19 18  1  0
 19 14  2  0
 20 13  1  0
 21 11  1  0
 23 25  2  0
 24 23  1  0
 26 24  1  0
 27 36  2  0
 27 32  1  0
 28 24  1  0
 28 32  1  0
 29 28  1  0
 30 31  1  0
 30 29  1  0
 31 27  1  0
 32 33  2  0
 33 34  1  0
 35 34  2  0
 36 35  1  0
 37 11  1  0
 37 38  1  0
 37 47  1  0
 38 41  1  0
 39 43  1  0
 39 38  1  0
 40 39  2  0
 43 42  1  0
 45 43  1  0
 45 46  1  0
 45 44  1  0
 47 50  1  1
 47 48  1  0
 49 47  1  0
 51  3  1  0
 51 52  2  0
 53 52  1  0
 53 54  2  0
 55 54  1  0
 56 61  1  0
 57 58  1  0
 57 56  1  0
 59 58  1  0
 59 66  1  0
 59 60  1  0
 61 55  1  0
 61 60  1  0
 62 55  2  0
 63 64  2  0
 64 83  1  0
 65 64  1  0
 65 68  1  0
 66 63  1  0
 66 67  1  0
 67 65  2  0
 68 69  1  0
 69 70  2  0
 71 74  1  0
 71 70  1  0
 72 71  2  0
 73 72  1  0
 73 68  2  0
 74 75  1  0
 75 76  1  0
 76 77  2  0
 78 77  1  0
 78 82  1  0
 79 78  2  0
 80 75  2  0
 80 79  1  0
 81 80  1  0
 83 84  1  0
 84 87  1  0
 84 86  1  0
 85 83  2  0
 88 89  1  0
 88 63  1  0
 90 88  1  0
M  ISO  4   4 101  10 101  54 100  55 100
M  END
>  <TORSDO>  (64) 
F 21

>  <SCORE>  (64) 
-13.600

>  <name>  (64) 
63

>  <ligand_id>  (64) 
63

>  <original_smiles>  (64) 
[H]Oc1c(F)c(C([H])([H])C([H])([H])C([H])([H])C([H])([H])C(=O)N2C([H])([H])C([H])([H])C([H])([H])C([H])(n3nc(-c4c([H])c([H])c(Oc5c([H])c([H])c(F)c([H])c5F)c([H])c4[H])c(C(=O)N([H])[H])c3N([H])[H])C2([H])[H])c([H])c([H])c1Oc1c([H])c([H])c2c(c1[H])C([H])([H])N(C(=O)C([H])(N([H])C(=O)C([H])(N([H])C([H])([H])[H])C([H])([H])[H])C(C([H])([H])[H])(C([H])([H])[H])C([H])([H])[H])C([H])(C(=O)N([H])C1([H])c3c([H])c([H])c([H])c([H])c3C([H])([H])C([H])([H])C1([H])[H])C2([H])[H]

>  <smiles>  (64) 
[H]Oc1c(F)c(C([H])([H])C([H])([H])C([H])([H])C([H])([H])C(=O)N2C([H])([H])C([H])([H])C([H])([H])C([H])(n3nc(-c4c([H])c([H])c(Oc5c([H])c([H])c(F)c([H])c5F)c([H])c4[H])c(C(=O)N([H])[H])c3N([H])[H])C2([H])[H])c([H])c([H])c1Oc1c([H])c([H])c2c(c1[H])C([H])([H])N(C(=O)C([H])(N([H])C(=O)C([H])(N([H])C([H])([H])[H])C([H])([H])[H])C(C([H])([H])[H])(C([H])([H])[H])C([H])([H])[H])C([H])(C(=O)N([H])C1([H])c3c([H])c([H])c([H])c([H])c3C([H])([H])C([H])([H])C1([H])[H])C2([H])[H]

$$$$
64:0:0
     RDKit          3D

 90 98  0  0  1  0  0  0  0  0999 V2000
  -28.5060  -22.0640   18.6250 C   0  0  0  0  0  3  0  0  0  0  0  0
  -28.2180  -23.2170   17.8590 C   0  0  0  0  0  3  0  0  0  0  0  0
  -28.6320  -23.5250   20.5570 C   0  0  0  0  0  3  0  0  0  0  0  0
  -28.7670  -22.1340   20.0060 C   0  0  0  0  0  0  0  0  0  0  0  0
  -28.1490  -24.5220   18.4050 C   0  0  0  0  0  0  0  0  0  0  0  0
  -28.2880  -24.7720   19.7960 C   0  0  0  0  0  0  0  0  0  0  0  0
  -27.9950  -25.5620   17.5320 O   0  0  0  0  0  0  0  0  0  0  0  0
  -27.9640  -25.2870   16.6230 H   0  0  0  0  0  0  0  0  0  0  0  0
  -28.2650  -26.1870   20.2450 O   0  0  0  0  0  0  0  0  0  0  0  0
  -24.6240  -31.8910   23.2330 C   0  0  0  0  0  0  0  0  0  0  0  0
  -27.1870  -27.1590   20.1750 C   0  0  0  0  0  0  0  0  0  0  0  0
  -23.4120  -30.4920   21.6080 C   0  0  0  0  0  3  0  0  0  0  0  0
  -24.8470  -28.9140   20.1720 C   0  0  0  0  0  0  0  0  0  0  0  0
  -25.9660  -30.7550   21.4180 C   0  0  0  0  0  2  0  0  0  0  0  0
  -26.0350  -29.3610   20.7640 C   0  0  0  0  0  0  0  0  0  0  0  0
  -27.2010  -28.5010   20.7470 C   0  0  0  0  0  3  0  0  0  0  0  0
  -25.9570  -26.8100   19.5710 C   0  0  0  0  0  3  0  0  0  0  0  0
  -24.8220  -27.6500   19.5620 C   0  0  0  0  0  3  0  0  0  0  0  0
  -23.6220  -29.8130   20.2280 C   0  0  0  0  0  2  0  0  0  0  0  0
  -24.6890  -31.0680   22.1410 N   0  0  0  0  0  0  0  0  0  0  0  0
  -23.5430  -32.1760   23.7700 O   0  0  0  0  0  0  0  0  0  0  0  0
  -22.7440  -29.4850   22.5780 C   0  0  0  0  0  0  0  0  0  0  0  0
  -21.4160  -29.3040   22.4580 N   0  0  0  0  0  0  0  0  0  0  0  0
  -23.4220  -28.8690   23.4040 O   0  0  0  0  0  0  0  0  0  0  0  0
  -20.9250  -29.8530   21.7670 H   0  0  0  0  0  0  0  0  0  0  0  0
  -18.0480  -28.0610   22.9590 C   0  0  0  0  0  0  0  0  0  0  0  0
  -20.6030  -28.3650   23.2360 C   0  0  0  0  0  3  0  0  0  0  0  0
  -20.7270  -26.9270   22.6820 C   0  0  0  0  0  2  0  0  0  0  0  0
  -19.6350  -26.5750   21.6660 C   0  0  0  0  0  2  0  0  0  0  0  0
  -18.2480  -26.7070   22.3010 C   0  0  0  0  0  2  0  0  0  0  0  0
  -19.1530  -28.8470   23.3830 C   0  0  0  0  0  0  0  0  0  0  0  0
  -18.9110  -30.1120   23.9610 C   0  0  0  0  0  3  0  0  0  0  0  0
  -17.5970  -30.5930   24.1170 C   0  0  0  0  0  3  0  0  0  0  0  0
  -16.5070  -29.8050   23.7080 C   0  0  0  0  0  3  0  0  0  0  0  0
  -16.7340  -28.5410   23.1350 C   0  0  0  0  0  3  0  0  0  0  0  0
  -25.9050  -32.5320   23.8490 C   0  0  0  0  0  3  0  0  0  0  0  0
  -26.4220  -31.7730   25.1320 C   0  0  1  0  0  0  0  0  0  0  0  0
  -25.3310  -31.5460   26.2070 C   0  0  0  0  0  1  0  0  0  0  0  0
  -27.0020  -30.3900   24.7580 C   0  0  0  0  0  1  0  0  0  0  0  0
  -27.5760  -32.5710   25.7840 C   0  0  0  0  0  1  0  0  0  0  0  0
  -25.5940  -33.9340   24.1730 N   0  0  0  0  0  0  0  0  0  0  0  0
  -25.9310  -34.9870   23.4180 C   0  0  0  0  0  0  0  0  0  0  0  0
  -26.6030  -34.8810   22.3880 O   0  0  0  0  0  0  0  0  0  0  0  0
  -24.9970  -34.0900   24.9730 H   0  0  0  0  0  0  0  0  0  0  0  0
  -24.2220  -36.7990   23.0550 C   0  0  0  0  0  1  0  0  0  0  0  0
  -25.4520  -36.3790   23.8750 C   0  0  0  0  0  3  0  0  0  0  0  0
  -27.5820  -37.2500   24.7340 C   0  0  0  0  0  1  0  0  0  0  0  0
  -26.4940  -37.4250   23.7760 N   0  0  0  0  0  0  0  0  0  0  0  0
  -26.0920  -38.3480   23.9140 H   0  0  0  0  0  0  0  0  0  0  0  0
  -29.2710  -20.7290   20.7480 C   0  0  0  0  0  2  0  0  0  0  0  0
  -29.1150  -19.1140   20.2060 C   0  0  0  0  0  3  0  0  0  0  0  0
  -30.0020  -17.7660   20.7630 C   0  0  0  0  0  3  0  0  0  0  0  0
  -30.4620  -15.0330   20.4420 C   0  0  0  0  0  0  0  0  0  0  0  0
  -30.3930  -12.6760   19.4870 C   0  0  0  0  0  2  0  0  0  0  0  0
  -29.4850  -12.6100   18.2380 C   0  0  0  0  0  2  0  0  0  0  0  0
  -28.0170  -12.3780   18.6450 C   0  0  0  0  0  2  0  0  0  0  0  0
  -27.5740  -13.3000   19.8080 C   0  0  0  0  0  3  0  0  0  0  0  0
  -28.6060  -13.3320   20.9550 C   0  0  0  0  0  2  0  0  0  0  0  0
  -29.8780  -13.7680   20.3650 N   0  0  0  0  0  0  0  0  0  0  0  0
  -31.6760  -15.1000   20.2220 O   0  0  0  0  0  0  0  0  0  0  0  0
  -29.6710  -16.2180   20.5660 N   0  0  0  0  0  0  0  0  0  0  0  0
  -28.6880  -16.0060   20.6510 H   0  0  0  0  0  0  0  0  0  0  0  0
  -25.1680  -13.8500   20.4810 C   0  0  0  0  0  0  0  0  0  0  0  0
  -24.1060  -13.0620   20.8320 C   0  0  0  0  0  0  0  0  0  0  0  0
  -24.5940  -11.7190   20.8330 C   0  0  0  0  0  0  0  0  0  0  0  0
  -26.2300  -12.9850   20.2800 N   0  0  0  0  0  0  0  0  0  0  0  0
  -25.8930  -11.6990   20.5580 N   0  0  0  0  0  0  0  0  0  0  0  0
  -23.8830  -10.4470   21.0190 C   0  0  0  0  0  0  0  0  0  0  0  0
  -24.2980   -9.5030   21.9830 C   0  0  0  0  0  3  0  0  0  0  0  0
  -23.5840   -8.2970   22.1580 C   0  0  0  0  0  3  0  0  0  0  0  0
  -22.4420   -8.0270   21.3680 C   0  0  0  0  0  0  0  0  0  0  0  0
  -22.0470   -8.9610   20.3930 C   0  0  0  0  0  3  0  0  0  0  0  0
  -22.7610  -10.1570   20.2170 C   0  0  0  0  0  3  0  0  0  0  0  0
  -21.7020   -6.8720   21.4490 O   0  0  0  0  0  0  0  0  0  0  0  0
  -21.6130   -6.1560   22.6160 C   0  0  0  0  0  0  0  0  0  0  0  0
  -21.1090   -6.7260   23.8050 C   0  0  0  0  0  3  0  0  0  0  0  0
  -20.9710   -5.9350   24.9620 C   0  0  0  0  0  3  0  0  0  0  0  0
  -21.3260   -4.5730   24.9310 C   0  0  0  0  0  0  0  0  0  0  0  0
  -21.8240   -4.0020   23.7470 C   0  0  0  0  0  3  0  0  0  0  0  0
  -21.9640   -4.7910   22.5920 C   0  0  0  0  0  0  0  0  0  0  0  0
  -22.4240   -4.2300   21.4480 F   0  0  0  0  0  0  0  0  0  0  0  0
  -21.1860   -3.8110   26.0410 F   0  0  0  0  0  0  0  0  0  0  0  0
  -22.6950  -13.5200   21.0560 C   0  0  0  0  0  0  0  0  0  0  0  0
  -21.9520  -12.8190   21.9040 N   0  0  0  0  0  0  0  0  0  0  0  0
  -22.2590  -14.5340   20.5140 O   0  0  0  0  0  0  0  0  0  0  0  0
  -22.3180  -11.9980   22.3650 H   0  0  0  0  0  0  0  0  0  0  0  0
  -21.0030  -13.1070   22.0990 H   0  0  0  0  0  0  0  0  0  0  0  0
  -25.3150  -15.2200   20.2860 N   0  0  0  0  0  0  0  0  0  0  0  0
  -24.5360  -15.8650   20.3620 H   0  0  0  0  0  0  0  0  0  0  0  0
  -26.1560  -15.6590   19.9360 H   0  0  0  0  0  0  0  0  0  0  0  0
  1  4  1  0
  2  5  1  0
  2  1  2  0
  4  3  2  0
  4 50  1  0
  5  6  2  0
  6  9  1  0
  6  3  1  0
  7  5  1  0
  8  7  1  0
 10 21  2  0
 11  9  1  0
 11 16  1  0
 12 20  1  0
 12 22  1  0
 13 19  1  0
 13 15  1  0
 14 20  1  0
 15 14  1  0
 16 15  2  0
 17 11  2  0
 18 17  1  0
 18 13  2  0
 19 12  1  0
 20 10  1  0
 22 24  2  0
 23 22  1  0
 25 23  1  0
 26 35  2  0
 26 31  1  0
 27 23  1  0
 27 31  1  0
 28 27  1  0
 29 30  1  0
 29 28  1  0
 30 26  1  0
 31 32  2  0
 32 33  1  0
 34 33  2  0
 35 34  1  0
 36 10  1  0
 36 41  1  0
 36 37  1  0
 37 40  1  1
 37 38  1  0
 39 37  1  0
 41 44  1  0
 42 46  1  0
 42 41  1  0
 43 42  2  0
 46 45  1  0
 48 46  1  0
 48 49  1  0
 48 47  1  0
 51 50  1  0
 51 52  2  0
 53 61  1  0
 54 59  1  0
 55 56  1  0
 55 54  1  0
 57 56  1  0
 57 66  1  0
 57 58  1  0
 59 53  1  0
 59 58  1  0
 60 53  2  0
 61 62  1  0
 61 52  1  0
 63 64  2  0
 64 65  1  0
 64 83  1  0
 65 68  1  0
 66 63  1  0
 66 67  1  0
 67 65  2  0
 68 69  1  0
 69 70  2  0
 71 74  1  0
 71 70  1  0
 72 71  2  0
 73 72  1  0
 73 68  2  0
 74 75  1  0
 75 76  1  0
 76 77  2  0
 78 77  1  0
 78 82  1  0
 79 78  2  0
 80 75  2  0
 80 79  1  0
 81 80  1  0
 83 84  1  0
 84 87  1  0
 84 86  1  0
 85 83  2  0
 88 89  1  0
 88 63  1  0
 90 88  1  0
M  ISO  4   6 101   9 101  53 100  61 100
M  END
>  <TORSDO>  (65) 
F 20

>  <SCORE>  (65) 
-15.043

>  <name>  (65) 
64

>  <ligand_id>  (65) 
64

>  <original_smiles>  (65) 
[H]Oc1c([H])c([H])c(C([H])([H])C([H])([H])C([H])([H])N([H])C(=O)N2C([H])([H])C([H])([H])C([H])([H])C([H])(n3nc(-c4c([H])c([H])c(Oc5c([H])c([H])c(F)c([H])c5F)c([H])c4[H])c(C(=O)N([H])[H])c3N([H])[H])C2([H])[H])c([H])c1Oc1c([H])c([H])c2c(c1[H])C([H])([H])N(C(=O)C([H])(N([H])C(=O)C([H])(N([H])C([H])([H])[H])C([H])([H])[H])C(C([H])([H])[H])(C([H])([H])[H])C([H])([H])[H])C([H])(C(=O)N([H])C1([H])c3c([H])c([H])c([H])c([H])c3C([H])([H])C([H])([H])C1([H])[H])C2([H])[H]

>  <smiles>  (65) 
[H]Oc1c([H])c([H])c(C([H])([H])C([H])([H])C([H])([H])N([H])C(=O)N2C([H])([H])C([H])([H])C([H])([H])C([H])(n3nc(-c4c([H])c([H])c(Oc5c([H])c([H])c(F)c([H])c5F)c([H])c4[H])c(C(=O)N([H])[H])c3N([H])[H])C2([H])[H])c([H])c1Oc1c([H])c([H])c2c(c1[H])C([H])([H])N(C(=O)C([H])(N([H])C(=O)C([H])(N([H])C([H])([H])[H])C([H])([H])[H])C(C([H])([H])[H])(C([H])([H])[H])C([H])([H])[H])C([H])(C(=O)N([H])C1([H])c3c([H])c([H])c([H])c([H])c3C([H])([H])C([H])([H])C1([H])[H])C2([H])[H]

$$$$
65:0:0
     RDKit          3D

 91 99  0  0  1  0  0  0  0  0999 V2000
  -28.8650  -23.2370   19.6100 C   0  0  0  0  0  3  0  0  0  0  0  0
  -27.8760  -21.6140   21.0970 C   0  0  0  0  0  3  0  0  0  0  0  0
  -28.8060  -21.7540   20.0460 C   0  0  0  0  0  0  0  0  0  0  0  0
  -27.2140  -24.0480   21.1680 C   0  0  0  0  0  0  0  0  0  0  0  0
  -28.0940  -24.4740   20.1330 C   0  0  0  0  0  0  0  0  0  0  0  0
  -27.1200  -22.6960   21.6190 C   0  0  0  0  0  0  0  0  0  0  0  0
  -26.2490  -22.4220   22.6210 F   0  0  0  0  0  0  0  0  0  0  0  0
  -26.4070  -24.9750   21.8270 N   0  0  0  0  0  0  0  0  0  0  0  0
  -26.5530  -25.9680   21.6910 H   0  0  0  0  0  0  0  0  0  0  0  0
  -25.9060  -24.6990   22.6650 H   0  0  0  0  0  0  0  0  0  0  0  0
  -29.4870  -20.2930   19.4580 C   0  0  0  0  0  0  0  0  0  0  0  0
  -29.8160  -20.3380   18.2700 O   0  0  0  0  0  0  0  0  0  0  0  0
  -29.8840  -18.7460   20.1800 C   0  0  0  0  0  2  0  0  0  0  0  0
  -29.6540  -17.0190   19.6870 C   0  0  0  0  0  2  0  0  0  0  0  0
  -30.5530  -15.4970   19.7450 C   0  0  0  0  0  0  0  0  0  0  0  0
  -30.5350  -13.0150   18.9610 C   0  0  0  0  0  2  0  0  0  0  0  0
  -29.5550  -12.7870   17.7830 C   0  0  0  0  0  2  0  0  0  0  0  0
  -28.1220  -12.5420   18.2920 C   0  0  0  0  0  2  0  0  0  0  0  0
  -27.7290  -13.5240   19.4230 C   0  0  0  0  0  3  0  0  0  0  0  0
  -28.8310  -13.6840   20.4900 C   0  0  0  0  0  2  0  0  0  0  0  0
  -30.0390  -14.1670   19.8000 N   0  0  0  0  0  0  0  0  0  0  0  0
  -31.7680  -15.5030   19.4920 O   0  0  0  0  0  0  0  0  0  0  0  0
  -25.4170  -14.0990   20.3290 C   0  0  0  0  0  0  0  0  0  0  0  0
  -24.3670  -13.3330   20.7460 C   0  0  0  0  0  0  0  0  0  0  0  0
  -24.8090  -11.9760   20.6690 C   0  0  0  0  0  0  0  0  0  0  0  0
  -26.4290  -13.2150   20.0080 N   0  0  0  0  0  0  0  0  0  0  0  0
  -26.0810  -11.9310   20.2820 N   0  0  0  0  0  0  0  0  0  0  0  0
  -24.0750  -10.7220   20.8880 C   0  0  0  0  0  0  0  0  0  0  0  0
  -24.5180   -9.7530   21.8170 C   0  0  0  0  0  3  0  0  0  0  0  0
  -23.7800   -8.5660   22.0190 C   0  0  0  0  0  3  0  0  0  0  0  0
  -22.5850   -8.3390   21.2960 C   0  0  0  0  0  0  0  0  0  0  0  0
  -22.1590   -9.2980   20.3610 C   0  0  0  0  0  3  0  0  0  0  0  0
  -22.8960  -10.4760   20.1560 C   0  0  0  0  0  3  0  0  0  0  0  0
  -21.8160   -7.2060   21.4120 O   0  0  0  0  0  0  0  0  0  0  0  0
  -21.7690   -6.4840   22.5770 C   0  0  0  0  0  0  0  0  0  0  0  0
  -21.3390   -7.0600   23.7930 C   0  0  0  0  0  3  0  0  0  0  0  0
  -21.2360   -6.2660   24.9510 C   0  0  0  0  0  3  0  0  0  0  0  0
  -21.5550   -4.8950   24.8970 C   0  0  0  0  0  0  0  0  0  0  0  0
  -21.9790   -4.3190   23.6870 C   0  0  0  0  0  3  0  0  0  0  0  0
  -22.0830   -5.1110   22.5300 C   0  0  0  0  0  0  0  0  0  0  0  0
  -22.4710   -4.5450   21.3610 F   0  0  0  0  0  0  0  0  0  0  0  0
  -21.4500   -4.1300   26.0080 F   0  0  0  0  0  0  0  0  0  0  0  0
  -22.9940  -13.8270   21.1000 C   0  0  0  0  0  0  0  0  0  0  0  0
  -22.3050  -13.1400   22.0040 N   0  0  0  0  0  0  0  0  0  0  0  0
  -22.5440  -14.8630   20.6100 O   0  0  0  0  0  0  0  0  0  0  0  0
  -22.6790  -12.3010   22.4240 H   0  0  0  0  0  0  0  0  0  0  0  0
  -21.3900  -13.4650   22.2820 H   0  0  0  0  0  0  0  0  0  0  0  0
  -25.5890  -15.4710   20.1580 N   0  0  0  0  0  0  0  0  0  0  0  0
  -24.8460  -16.1390   20.3390 H   0  0  0  0  0  0  0  0  0  0  0  0
  -26.4170  -15.9000   19.7650 H   0  0  0  0  0  0  0  0  0  0  0  0
  -28.1910  -25.9910   19.8610 O   0  0  0  0  0  0  0  0  0  0  0  0
  -24.6080  -31.8650   23.0690 C   0  0  0  0  0  0  0  0  0  0  0  0
  -27.1670  -27.0800   19.9120 C   0  0  0  0  0  0  0  0  0  0  0  0
  -23.4120  -30.5150   21.3920 C   0  0  0  0  0  3  0  0  0  0  0  0
  -24.8630  -28.9520   19.9260 C   0  0  0  0  0  0  0  0  0  0  0  0
  -25.9760  -30.7400   21.2430 C   0  0  0  0  0  2  0  0  0  0  0  0
  -26.0510  -29.3430   20.5580 C   0  0  0  0  0  0  0  0  0  0  0  0
  -27.1950  -28.4260   20.5320 C   0  0  0  0  0  3  0  0  0  0  0  0
  -25.9490  -26.8450   19.2370 C   0  0  0  0  0  3  0  0  0  0  0  0
  -24.8350  -27.7220   19.2470 C   0  0  0  0  0  3  0  0  0  0  0  0
  -23.6450  -29.8730   19.9960 C   0  0  0  0  0  2  0  0  0  0  0  0
  -24.6880  -31.0650   21.9580 N   0  0  0  0  0  0  0  0  0  0  0  0
  -23.5210  -32.1340   23.6050 O   0  0  0  0  0  0  0  0  0  0  0  0
  -22.7230  -29.4890   22.3300 C   0  0  0  0  0  0  0  0  0  0  0  0
  -21.3890  -29.3400   22.2240 N   0  0  0  0  0  0  0  0  0  0  0  0
  -23.3980  -28.8280   23.1250 O   0  0  0  0  0  0  0  0  0  0  0  0
  -20.8970  -29.9340   21.5690 H   0  0  0  0  0  0  0  0  0  0  0  0
  -17.9990  -28.1830   22.7930 C   0  0  0  0  0  0  0  0  0  0  0  0
  -20.5720  -28.3800   22.9720 C   0  0  0  0  0  3  0  0  0  0  0  0
  -20.6190  -26.9780   22.3180 C   0  0  0  0  0  2  0  0  0  0  0  0
  -19.4720  -26.7350   21.3310 C   0  0  0  0  0  2  0  0  0  0  0  0
  -18.1200  -26.8720   22.0350 C   0  0  0  0  0  2  0  0  0  0  0  0
  -19.1490  -28.8990   23.2190 C   0  0  0  0  0  0  0  0  0  0  0  0
  -18.9780  -30.1260   23.8960 C   0  0  0  0  0  3  0  0  0  0  0  0
  -17.6900  -30.6380   24.1440 C   0  0  0  0  0  3  0  0  0  0  0  0
  -16.5560  -29.9200   23.7280 C   0  0  0  0  0  3  0  0  0  0  0  0
  -16.7120  -28.6930   23.0600 C   0  0  0  0  0  3  0  0  0  0  0  0
  -25.8800  -32.4970   23.7130 C   0  0  0  0  0  3  0  0  0  0  0  0
  -26.3790  -31.7090   24.9880 C   0  0  1  0  0  0  0  0  0  0  0  0
  -25.2740  -31.4660   26.0460 C   0  0  0  0  0  1  0  0  0  0  0  0
  -26.9580  -30.3320   24.5930 C   0  0  0  0  0  1  0  0  0  0  0  0
  -27.5280  -32.4880   25.6710 C   0  0  0  0  0  1  0  0  0  0  0  0
  -25.5650  -33.8910   24.0720 N   0  0  0  0  0  0  0  0  0  0  0  0
  -25.9030  -34.9640   23.3450 C   0  0  0  0  0  0  0  0  0  0  0  0
  -26.5720  -34.8840   22.3110 O   0  0  0  0  0  0  0  0  0  0  0  0
  -24.9730  -34.0230   24.8780 H   0  0  0  0  0  0  0  0  0  0  0  0
  -24.1840  -36.7800   23.0400 C   0  0  0  0  0  1  0  0  0  0  0  0
  -25.4260  -36.3460   23.8360 C   0  0  0  0  0  3  0  0  0  0  0  0
  -27.5640  -37.2090   24.6850 C   0  0  0  0  0  1  0  0  0  0  0  0
  -26.4620  -37.3980   23.7450 N   0  0  0  0  0  0  0  0  0  0  0  0
  -26.0590  -38.3150   23.9110 H   0  0  0  0  0  0  0  0  0  0  0  0
  1  3  2  0
  1  5  1  0
  2  6  2  0
  3  2  1  0
  4  6  1  0
  4  8  1  0
  5  4  2  0
  6  7  1  0
  8 10  1  0
  9  8  1  0
 11  3  1  0
 11 13  1  0
 12 11  2  0
 14 15  1  0
 14 13  1  0
 15 21  1  0
 16 21  1  0
 17 18  1  0
 17 16  1  0
 19 18  1  0
 19 26  1  0
 19 20  1  0
 21 20  1  0
 22 15  2  0
 23 24  2  0
 24 43  1  0
 25 24  1  0
 25 28  1  0
 26 27  1  0
 26 23  1  0
 27 25  2  0
 28 29  1  0
 29 30  2  0
 31 34  1  0
 31 30  1  0
 32 31  2  0
 33 32  1  0
 33 28  2  0
 34 35  1  0
 35 36  1  0
 36 37  2  0
 38 37  1  0
 38 42  1  0
 39 38  2  0
 40 35  2  0
 40 39  1  0
 41 40  1  0
 43 44  1  0
 44 47  1  0
 44 46  1  0
 45 43  2  0
 48 23  1  0
 48 49  1  0
 50 48  1  0
 51 53  1  0
 51  5  1  0
 52 63  2  0
 53 58  1  0
 54 62  1  0
 54 64  1  0
 55 61  1  0
 55 57  1  0
 56 62  1  0
 57 56  1  0
 58 57  2  0
 59 60  1  0
 59 53  2  0
 60 55  2  0
 61 54  1  0
 62 52  1  0
 64 66  2  0
 65 64  1  0
 67 65  1  0
 68 77  2  0
 68 73  1  0
 69 65  1  0
 69 73  1  0
 70 69  1  0
 71 72  1  0
 71 70  1  0
 72 68  1  0
 73 74  2  0
 74 75  1  0
 76 75  2  0
 77 76  1  0
 78 52  1  0
 78 83  1  0
 78 79  1  0
 79 82  1  1
 79 80  1  0
 81 79  1  0
 83 86  1  0
 84 88  1  0
 84 83  1  0
 85 84  2  0
 88 87  1  0
 90 88  1  0
 90 91  1  0
 90 89  1  0
M  ISO  4   5 101  14 100  15 100  51 101
M  END
>  <TORSDO>  (66) 
F 20

>  <SCORE>  (66) 
-14.363

>  <name>  (66) 
65

>  <ligand_id>  (66) 
65

>  <original_smiles>  (66) 
[H]c1c([H])c([H])c2c(c1[H])C([H])([H])C([H])([H])C([H])([H])C2([H])N([H])C(=O)C1([H])N(C(=O)C([H])(N([H])C(=O)C([H])(N([H])C([H])([H])[H])C([H])([H])[H])C(C([H])([H])[H])(C([H])([H])[H])C([H])([H])[H])C([H])([H])c2c([H])c(Oc3c([H])c(C(=O)C([H])([H])C([H])([H])C(=O)N4C([H])([H])C([H])([H])C([H])([H])C([H])(n5nc(-c6c([H])c([H])c(Oc7c([H])c([H])c(F)c([H])c7F)c([H])c6[H])c(C(=O)N([H])[H])c5N([H])[H])C4([H])[H])c([H])c(F)c3N([H])[H])c([H])c([H])c2C1([H])[H]

>  <smiles>  (66) 
[H]c1c([H])c([H])c2c(c1[H])C([H])([H])C([H])([H])C([H])([H])C2([H])N([H])C(=O)C1([H])N(C(=O)C([H])(N([H])C(=O)C([H])(N([H])C([H])([H])[H])C([H])([H])[H])C(C([H])([H])[H])(C([H])([H])[H])C([H])([H])[H])C([H])([H])c2c([H])c(Oc3c([H])c(C(=O)C([H])([H])C([H])([H])C(=O)N4C([H])([H])C([H])([H])C([H])([H])C([H])(n5nc(-c6c([H])c([H])c(Oc7c([H])c([H])c(F)c([H])c7F)c([H])c6[H])c(C(=O)N([H])[H])c5N([H])[H])C4([H])[H])c([H])c(F)c3N([H])[H])c([H])c([H])c2C1([H])[H]

$$$$
66:0:0
     RDKit          3D

 89 97  0  0  1  0  0  0  0  0999 V2000
  -29.3400  -21.6400   21.2960 C   0  0  0  0  0  3  0  0  0  0  0  0
  -29.0090  -23.1300   21.3150 C   0  0  0  0  0  3  0  0  0  0  0  0
  -27.9500  -22.9160   19.3940 C   0  0  0  0  0  3  0  0  0  0  0  0
  -29.0420  -20.5450   20.3260 C   0  0  0  0  0  0  0  0  0  0  0  0
  -28.2670  -24.0060   20.3720 C   0  0  0  0  0  0  0  0  0  0  0  0
  -28.2640  -21.4030   19.3570 C   0  0  0  0  0  0  0  0  0  0  0  0
  -31.0180  -18.9600   21.2460 C   0  0  0  0  0  1  0  0  0  0  0  0
  -29.8270  -18.8310   20.2830 C   0  0  0  0  0  0  0  0  0  0  0  0
  -30.2580  -15.7060   20.1640 C   0  0  0  0  0  0  0  0  0  0  0  0
  -30.3270  -13.1840   19.2940 C   0  0  0  0  0  2  0  0  0  0  0  0
  -29.4040  -12.8040   18.1020 C   0  0  0  0  0  2  0  0  0  0  0  0
  -27.9950  -12.4400   18.5910 C   0  0  0  0  0  2  0  0  0  0  0  0
  -27.5140  -13.4180   19.6870 C   0  0  0  0  0  3  0  0  0  0  0  0
  -28.5740  -13.7150   20.7740 C   0  0  0  0  0  2  0  0  0  0  0  0
  -29.7240  -14.3480   20.0890 N   0  0  0  0  0  0  0  0  0  0  0  0
  -31.4850  -15.6370   19.9550 O   0  0  0  0  0  0  0  0  0  0  0  0
  -29.5240  -17.0800   20.2820 N   0  0  0  0  0  4  0  0  0  0  0  0
  -28.5360  -16.9050   20.3940 H   0  0  0  0  0  0  0  0  0  0  0  0
  -25.1710  -13.9150   20.5300 C   0  0  0  0  0  0  0  0  0  0  0  0
  -24.1310  -13.1180   20.9140 C   0  0  0  0  0  0  0  0  0  0  0  0
  -24.6140  -11.7740   20.8460 C   0  0  0  0  0  0  0  0  0  0  0  0
  -26.2160  -13.0590   20.2400 N   0  0  0  0  0  0  0  0  0  0  0  0
  -25.8980  -11.7620   20.4980 N   0  0  0  0  0  0  0  0  0  0  0  0
  -23.9040  -10.5010   21.0330 C   0  0  0  0  0  0  0  0  0  0  0  0
  -24.3550   -9.5310   21.9540 C   0  0  0  0  0  3  0  0  0  0  0  0
  -23.6390   -8.3260   22.1320 C   0  0  0  0  0  3  0  0  0  0  0  0
  -22.4590   -8.0830   21.3900 C   0  0  0  0  0  0  0  0  0  0  0  0
  -22.0280   -9.0440   20.4580 C   0  0  0  0  0  3  0  0  0  0  0  0
  -22.7430  -10.2390   20.2780 C   0  0  0  0  0  3  0  0  0  0  0  0
  -21.7150   -6.9330   21.4790 O   0  0  0  0  0  0  0  0  0  0  0  0
  -21.6720   -6.1890   22.6310 C   0  0  0  0  0  0  0  0  0  0  0  0
  -21.2170   -6.7330   23.8520 C   0  0  0  0  0  3  0  0  0  0  0  0
  -21.1240   -5.9160   24.9960 C   0  0  0  0  0  3  0  0  0  0  0  0
  -21.4750   -4.5550   24.9200 C   0  0  0  0  0  0  0  0  0  0  0  0
  -21.9230   -4.0100   23.7040 C   0  0  0  0  0  3  0  0  0  0  0  0
  -22.0170   -4.8250   22.5620 C   0  0  0  0  0  0  0  0  0  0  0  0
  -22.4290   -4.2890   21.3880 F   0  0  0  0  0  0  0  0  0  0  0  0
  -21.3780   -3.7670   26.0160 F   0  0  0  0  0  0  0  0  0  0  0  0
  -22.7360  -13.5760   21.2210 C   0  0  0  0  0  0  0  0  0  0  0  0
  -22.0380  -12.8650   22.0990 N   0  0  0  0  0  0  0  0  0  0  0  0
  -22.2760  -14.6010   20.7200 O   0  0  0  0  0  0  0  0  0  0  0  0
  -22.4250  -12.0370   22.5270 H   0  0  0  0  0  0  0  0  0  0  0  0
  -21.1030  -13.1550   22.3490 H   0  0  0  0  0  0  0  0  0  0  0  0
  -25.3100  -15.2910   20.3680 N   0  0  0  0  0  0  0  0  0  0  0  0
  -24.5350  -15.9300   20.5070 H   0  0  0  0  0  0  0  0  0  0  0  0
  -26.1330  -15.7420   19.9940 H   0  0  0  0  0  0  0  0  0  0  0  0
  -27.5040  -19.4380   18.1850 C   0  0  0  0  0  1  0  0  0  0  0  0
  -27.7610  -20.8370   18.2040 O   0  0  0  0  0  0  0  0  0  0  0  0
  -28.1870  -25.6270   20.3540 O   0  0  0  0  0  0  0  0  0  0  0  0
  -24.6480  -31.9000   23.2760 C   0  0  0  0  0  0  0  0  0  0  0  0
  -27.1680  -26.7980   20.3350 C   0  0  0  0  0  0  0  0  0  0  0  0
  -23.4620  -30.4990   21.6410 C   0  0  0  0  0  3  0  0  0  0  0  0
  -24.9060  -28.8320   20.2490 C   0  0  0  0  0  0  0  0  0  0  0  0
  -26.0400  -30.6290   21.5320 C   0  0  0  0  0  2  0  0  0  0  0  0
  -26.0970  -29.1910   20.8900 C   0  0  0  0  0  0  0  0  0  0  0  0
  -27.2100  -28.2000   20.9010 C   0  0  0  0  0  3  0  0  0  0  0  0
  -25.9460  -26.6460   19.6310 C   0  0  0  0  0  3  0  0  0  0  0  0
  -24.8680  -27.5850   19.5970 C   0  0  0  0  0  3  0  0  0  0  0  0
  -23.7040  -29.7890   20.2760 C   0  0  0  0  0  2  0  0  0  0  0  0
  -24.7400  -31.0430   22.2010 N   0  0  0  0  0  0  0  0  0  0  0  0
  -23.5540  -32.2090   23.7790 O   0  0  0  0  0  0  0  0  0  0  0  0
  -22.7370  -29.5300   22.6140 C   0  0  0  0  0  0  0  0  0  0  0  0
  -21.4060  -29.3730   22.4770 N   0  0  0  0  0  0  0  0  0  0  0  0
  -23.3840  -28.9170   23.4660 O   0  0  0  0  0  0  0  0  0  0  0  0
  -20.9340  -29.9190   21.7680 H   0  0  0  0  0  0  0  0  0  0  0  0
  -18.0160  -28.1620   22.9620 C   0  0  0  0  0  0  0  0  0  0  0  0
  -20.5720  -28.4460   23.2500 C   0  0  0  0  0  3  0  0  0  0  0  0
  -20.6840  -27.0050   22.6960 C   0  0  0  0  0  2  0  0  0  0  0  0
  -19.5970  -26.6660   21.6720 C   0  0  0  0  0  2  0  0  0  0  0  0
  -18.2070  -26.8090   22.2980 C   0  0  0  0  0  2  0  0  0  0  0  0
  -19.1250  -28.9370   23.3930 C   0  0  0  0  0  0  0  0  0  0  0  0
  -18.8890  -30.2000   23.9790 C   0  0  0  0  0  3  0  0  0  0  0  0
  -17.5780  -30.6890   24.1330 C   0  0  0  0  0  3  0  0  0  0  0  0
  -16.4840  -29.9140   23.7130 C   0  0  0  0  0  3  0  0  0  0  0  0
  -16.7030  -28.6510   23.1350 C   0  0  0  0  0  3  0  0  0  0  0  0
  -25.9120  -32.5490   23.9190 C   0  0  0  0  0  3  0  0  0  0  0  0
  -25.5940  -33.9530   24.2450 N   0  0  0  0  0  0  0  0  0  0  0  0
  -25.9130  -35.0120   23.4890 C   0  0  0  0  0  0  0  0  0  0  0  0
  -26.5640  -34.9110   22.4470 O   0  0  0  0  0  0  0  0  0  0  0  0
  -25.0120  -34.1040   25.0550 H   0  0  0  0  0  0  0  0  0  0  0  0
  -24.1700  -36.8090   23.2000 C   0  0  0  0  0  1  0  0  0  0  0  0
  -25.4420  -36.4040   23.9620 C   0  0  0  0  0  3  0  0  0  0  0  0
  -27.5990  -37.3110   24.7160 C   0  0  0  0  0  1  0  0  0  0  0  0
  -26.4660  -37.4610   23.8050 N   0  0  0  0  0  0  0  0  0  0  0  0
  -26.0610  -38.3820   23.9510 H   0  0  0  0  0  0  0  0  0  0  0  0
  -26.3980  -31.7950   25.2200 C   0  0  1  0  0  0  0  0  0  0  0  0
  -25.2840  -31.5850   26.2730 C   0  0  0  0  0  1  0  0  0  0  0  0
  -26.9780  -30.4060   24.8740 C   0  0  0  0  0  1  0  0  0  0  0  0
  -27.5430  -32.5920   25.8890 C   0  0  0  0  0  1  0  0  0  0  0  0
  1  2  1  0
  3  5  1  0
  4  1  2  0
  5  2  2  0
  6  3  2  0
  6  4  1  0
  8  4  1  0
  8  7  1  0
  9 17  1  0
 10 15  1  0
 11 12  1  0
 11 10  1  0
 13 12  1  0
 13 22  1  0
 13 14  1  0
 15  9  1  0
 15 14  1  0
 16  9  2  0
 17  8  2  0
 17 18  1  0
 19 20  2  0
 20 39  1  0
 21 20  1  0
 21 24  1  0
 22 23  1  0
 22 19  1  0
 23 21  2  0
 24 25  1  0
 25 26  2  0
 27 30  1  0
 27 26  1  0
 28 27  2  0
 29 28  1  0
 29 24  2  0
 30 31  1  0
 31 32  1  0
 32 33  2  0
 34 33  1  0
 34 38  1  0
 35 34  2  0
 36 31  2  0
 36 35  1  0
 37 36  1  0
 39 40  1  0
 40 43  1  0
 40 42  1  0
 41 39  2  0
 44 45  1  0
 44 19  1  0
 46 44  1  0
 47 48  1  0
 48  6  1  0
 49  5  1  0
 50 61  2  0
 51 49  1  0
 51 56  1  0
 52 60  1  0
 52 62  1  0
 53 59  1  0
 53 55  1  0
 54 60  1  0
 55 56  2  0
 55 54  1  0
 57 51  2  0
 58 57  1  0
 58 53  2  0
 59 52  1  0
 60 50  1  0
 62 64  2  0
 63 62  1  0
 65 63  1  0
 66 75  2  0
 66 71  1  0
 67 63  1  0
 67 71  1  0
 68 67  1  0
 69 70  1  0
 69 68  1  0
 70 66  1  0
 71 72  2  0
 72 73  1  0
 74 73  2  0
 75 74  1  0
 76 50  1  0
 76 77  1  0
 76 86  1  0
 77 80  1  0
 78 82  1  0
 78 77  1  0
 79 78  2  0
 82 81  1  0
 84 85  1  0
 84 82  1  0
 84 83  1  0
 86 89  1  1
 86 87  1  0
 88 86  1  0
M  ISO  4   5 101   9 100  17 100  49 101
M  END
>  <TORSDO>  (67) 
F 18

>  <SCORE>  (67) 
-15.586

>  <name>  (67) 
66

>  <ligand_id>  (67) 
66

>  <original_smiles>  (67) 
[H]c1c([H])c([H])c2c(c1[H])C([H])([H])C([H])([H])C([H])([H])C2([H])N([H])C(=O)C1([H])N(C(=O)C([H])(N([H])C(=O)C([H])(N([H])C([H])([H])[H])C([H])([H])[H])C(C([H])([H])[H])(C([H])([H])[H])C([H])([H])[H])C([H])([H])c2c([H])c(Oc3c([H])c([H])c(C([H])(N([H])C(=O)N4C([H])([H])C([H])([H])C([H])([H])C([H])(n5nc(-c6c([H])c([H])c(Oc7c([H])c([H])c(F)c([H])c7F)c([H])c6[H])c(C(=O)N([H])[H])c5N([H])[H])C4([H])[H])C([H])([H])[H])c(OC([H])([H])[H])c3[H])c([H])c([H])c2C1([H])[H]

>  <smiles>  (67) 
[H]c1c([H])c([H])c2c(c1[H])C([H])([H])C([H])([H])C([H])([H])C2([H])N([H])C(=O)C1([H])N(C(=O)C([H])(N([H])C(=O)C([H])(N([H])C([H])([H])[H])C([H])([H])[H])C(C([H])([H])[H])(C([H])([H])[H])C([H])([H])[H])C([H])([H])c2c([H])c(Oc3c([H])c([H])c(C([H])(N([H])C(=O)N4C([H])([H])C([H])([H])C([H])([H])C([H])(n5nc(-c6c([H])c([H])c(Oc7c([H])c([H])c(F)c([H])c7F)c([H])c6[H])c(C(=O)N([H])[H])c5N([H])[H])C4([H])[H])C([H])([H])[H])c(OC([H])([H])[H])c3[H])c([H])c([H])c2C1([H])[H]

$$$$
67:0:0
     RDKit          3D

 92100  0  0  1  0  0  0  0  0999 V2000
  -29.7790  -20.0520   20.3310 C   0  0  0  0  0  3  0  0  0  0  0  0
  -28.4530  -18.4900   19.0290 C   0  0  0  0  0  3  0  0  0  0  0  0
  -29.5890  -18.7080   19.8330 C   0  0  0  0  0  0  0  0  0  0  0  0
  -28.8660  -21.1400   20.0490 C   0  0  0  0  0  0  0  0  0  0  0  0
  -27.7240  -20.8300   19.2580 C   0  0  0  0  0  0  0  0  0  0  0  0
  -27.5420  -19.5240   18.7480 C   0  0  0  0  0  0  0  0  0  0  0  0
  -26.6510  -21.8640   18.9490 C   0  0  0  0  0  1  0  0  0  0  0  0
  -26.4680  -19.2490   17.9690 F   0  0  0  0  0  0  0  0  0  0  0  0
  -29.0100  -22.5710   20.7040 C   0  0  0  0  0  2  0  0  0  0  0  0
  -28.8660  -23.9370   19.8710 C   0  0  0  0  0  3  0  0  0  0  0  0
  -28.3080  -25.2050   20.6660 C   0  0  0  0  0  3  0  0  0  0  0  0
  -28.4290  -26.5720   20.1170 O   0  0  0  0  0  0  0  0  0  0  0  0
  -24.5950  -31.8370   23.2470 C   0  0  0  0  0  0  0  0  0  0  0  0
  -27.2970  -27.3910   20.1270 C   0  0  0  0  0  0  0  0  0  0  0  0
  -23.4320  -30.4840   21.5380 C   0  0  0  0  0  3  0  0  0  0  0  0
  -24.9220  -28.9720   20.1070 C   0  0  0  0  0  0  0  0  0  0  0  0
  -25.9720  -30.8210   21.4190 C   0  0  0  0  0  2  0  0  0  0  0  0
  -26.0730  -29.4600   20.7390 C   0  0  0  0  0  0  0  0  0  0  0  0
  -27.2670  -28.6830   20.7340 C   0  0  0  0  0  3  0  0  0  0  0  0
  -26.1270  -26.9430   19.4830 C   0  0  0  0  0  3  0  0  0  0  0  0
  -24.9490  -27.7190   19.4700 C   0  0  0  0  0  3  0  0  0  0  0  0
  -23.6790  -29.8410   20.1460 C   0  0  0  0  0  2  0  0  0  0  0  0
  -24.6840  -31.0640   22.1260 N   0  0  0  0  0  0  0  0  0  0  0  0
  -23.4990  -32.0960   23.7660 O   0  0  0  0  0  0  0  0  0  0  0  0
  -22.7510  -29.4410   22.4550 C   0  0  0  0  0  0  0  0  0  0  0  0
  -21.4230  -29.2890   22.3140 N   0  0  0  0  0  0  0  0  0  0  0  0
  -23.4170  -28.7720   23.2490 O   0  0  0  0  0  0  0  0  0  0  0  0
  -20.9470  -29.8810   21.6480 H   0  0  0  0  0  0  0  0  0  0  0  0
  -18.0170  -28.1740   22.7990 C   0  0  0  0  0  0  0  0  0  0  0  0
  -20.5860  -28.3340   23.0420 C   0  0  0  0  0  3  0  0  0  0  0  0
  -20.6340  -26.9370   22.3820 C   0  0  0  0  0  2  0  0  0  0  0  0
  -19.5060  -26.7100   21.3690 C   0  0  0  0  0  2  0  0  0  0  0  0
  -18.1400  -26.8620   22.0430 C   0  0  0  0  0  2  0  0  0  0  0  0
  -19.1670  -28.8730   23.2550 C   0  0  0  0  0  0  0  0  0  0  0  0
  -18.9980  -30.1050   23.9230 C   0  0  0  0  0  3  0  0  0  0  0  0
  -17.7130  -30.6380   24.1390 C   0  0  0  0  0  3  0  0  0  0  0  0
  -16.5780  -29.9340   23.7000 C   0  0  0  0  0  3  0  0  0  0  0  0
  -16.7320  -28.7040   23.0350 C   0  0  0  0  0  3  0  0  0  0  0  0
  -25.8620  -32.4540   23.9170 C   0  0  0  0  0  3  0  0  0  0  0  0
  -25.5640  -33.8600   24.2230 N   0  0  0  0  0  0  0  0  0  0  0  0
  -25.9550  -34.9010   23.4780 C   0  0  0  0  0  0  0  0  0  0  0  0
  -26.6740  -34.7780   22.4810 O   0  0  0  0  0  0  0  0  0  0  0  0
  -24.9340  -34.0310   24.9940 H   0  0  0  0  0  0  0  0  0  0  0  0
  -24.2860  -36.7280   23.0240 C   0  0  0  0  0  1  0  0  0  0  0  0
  -25.4730  -36.3020   23.9030 C   0  0  0  0  0  3  0  0  0  0  0  0
  -27.5740  -37.1530   24.8480 C   0  0  0  0  0  1  0  0  0  0  0  0
  -26.5320  -37.3320   23.8390 N   0  0  0  0  0  0  0  0  0  0  0  0
  -26.1380  -38.2620   23.9510 H   0  0  0  0  0  0  0  0  0  0  0  0
  -26.3110  -31.6850   25.2200 C   0  0  1  0  0  0  0  0  0  0  0  0
  -25.1700  -31.4710   26.2410 C   0  0  0  0  0  1  0  0  0  0  0  0
  -26.8900  -30.2960   24.8630 C   0  0  0  0  0  1  0  0  0  0  0  0
  -27.4450  -32.4660   25.9260 C   0  0  0  0  0  1  0  0  0  0  0  0
  -30.6270  -17.5240   19.9840 C   0  0  0  0  0  3  0  0  0  0  0  0
  -31.8950  -18.5300   17.9350 C   0  0  0  0  0  1  0  0  0  0  0  0
  -31.2930  -17.2810   18.6010 C   0  0  0  0  0  2  0  0  0  0  0  0
  -30.0920  -16.1410   20.6260 C   0  0  0  0  0  2  0  0  0  0  0  0
  -30.9070  -14.7790   20.4440 C   0  0  0  0  0  0  0  0  0  0  0  0
  -30.7280  -12.4540   19.5730 C   0  0  0  0  0  2  0  0  0  0  0  0
  -29.8470  -12.4870   18.3040 C   0  0  0  0  0  2  0  0  0  0  0  0
  -28.3550  -12.3580   18.6710 C   0  0  0  0  0  2  0  0  0  0  0  0
  -27.9390  -13.3270   19.8080 C   0  0  0  0  0  3  0  0  0  0  0  0
  -28.9420  -13.2870   20.9820 C   0  0  0  0  0  2  0  0  0  0  0  0
  -30.2810  -13.5570   20.4480 N   0  0  0  0  0  0  0  0  0  0  0  0
  -32.1060  -14.8480   20.1570 O   0  0  0  0  0  0  0  0  0  0  0  0
  -25.5450  -14.0100   20.4380 C   0  0  0  0  0  0  0  0  0  0  0  0
  -24.4430  -13.2760   20.7830 C   0  0  0  0  0  0  0  0  0  0  0  0
  -24.8660  -11.9110   20.7980 C   0  0  0  0  0  0  0  0  0  0  0  0
  -26.5690  -13.0940   20.2560 N   0  0  0  0  0  0  0  0  0  0  0  0
  -26.1650  -11.8290   20.5370 N   0  0  0  0  0  0  0  0  0  0  0  0
  -24.0970  -10.6750   20.9870 C   0  0  0  0  0  0  0  0  0  0  0  0
  -24.4730   -9.7120   21.9490 C   0  0  0  0  0  3  0  0  0  0  0  0
  -23.7070   -8.5390   22.1240 C   0  0  0  0  0  3  0  0  0  0  0  0
  -22.5510   -8.3220   21.3370 C   0  0  0  0  0  0  0  0  0  0  0  0
  -22.1940   -9.2750   20.3650 C   0  0  0  0  0  3  0  0  0  0  0  0
  -22.9610  -10.4390   20.1890 C   0  0  0  0  0  3  0  0  0  0  0  0
  -21.7600   -7.2020   21.4190 O   0  0  0  0  0  0  0  0  0  0  0  0
  -21.6750   -6.4650   22.5730 C   0  0  0  0  0  0  0  0  0  0  0  0
  -21.2280   -7.0300   23.7870 C   0  0  0  0  0  3  0  0  0  0  0  0
  -21.0890   -6.2210   24.9320 C   0  0  0  0  0  3  0  0  0  0  0  0
  -21.3880   -4.8470   24.8640 C   0  0  0  0  0  0  0  0  0  0  0  0
  -21.8280   -4.2810   23.6550 C   0  0  0  0  0  3  0  0  0  0  0  0
  -21.9690   -5.0870   22.5120 C   0  0  0  0  0  0  0  0  0  0  0  0
  -22.3730   -4.5320   21.3440 F   0  0  0  0  0  0  0  0  0  0  0  0
  -21.2490   -4.0670   25.9610 F   0  0  0  0  0  0  0  0  0  0  0  0
  -23.0500  -13.7990   20.9910 C   0  0  0  0  0  0  0  0  0  0  0  0
  -22.2720  -13.1510   21.8500 N   0  0  0  0  0  0  0  0  0  0  0  0
  -22.6590  -14.8190   20.4240 O   0  0  0  0  0  0  0  0  0  0  0  0
  -22.5990  -12.3260   22.3330 H   0  0  0  0  0  0  0  0  0  0  0  0
  -21.3370  -13.4860   22.0310 H   0  0  0  0  0  0  0  0  0  0  0  0
  -25.7570  -15.3700   20.2400 N   0  0  0  0  0  0  0  0  0  0  0  0
  -25.0130  -16.0540   20.3110 H   0  0  0  0  0  0  0  0  0  0  0  0
  -26.6360  -15.7690   19.9380 H   0  0  0  0  0  0  0  0  0  0  0  0
  2  3  1  0
  3 53  1  0
  3  1  2  0
  4  1  1  0
  4  9  1  0
  5  4  2  0
  6  2  2  0
  6  5  1  0
  7  5  1  0
  8  6  1  0
 10 11  2  0
 10  9  1  0
 12 14  1  0
 12 11  1  0
 13 24  2  0
 14 19  1  0
 15 23  1  0
 15 25  1  0
 16 22  1  0
 16 18  1  0
 17 23  1  0
 18 17  1  0
 19 18  2  0
 20 14  2  0
 21 20  1  0
 21 16  2  0
 22 15  1  0
 23 13  1  0
 25 27  2  0
 26 25  1  0
 28 26  1  0
 29 38  2  0
 29 34  1  0
 30 26  1  0
 30 34  1  0
 31 30  1  0
 32 33  1  0
 32 31  1  0
 33 29  1  0
 34 35  2  0
 35 36  1  0
 37 36  2  0
 38 37  1  0
 39 13  1  0
 39 40  1  0
 39 49  1  0
 40 43  1  0
 41 45  1  0
 41 40  1  0
 42 41  2  0
 45 44  1  0
 47 45  1  0
 47 48  1  0
 47 46  1  0
 49 52  1  1
 49 50  1  0
 51 49  1  0
 53 55  1  0
 53 56  1  0
 54 55  1  0
 57 63  1  0
 57 56  1  0
 58 63  1  0
 59 60  1  0
 59 58  1  0
 61 60  1  0
 61 68  1  0
 61 62  1  0
 63 62  1  0
 64 57  2  0
 65 66  2  0
 66 67  1  0
 66 85  1  0
 67 70  1  0
 68 65  1  0
 68 69  1  0
 69 67  2  0
 70 71  1  0
 71 72  2  0
 73 76  1  0
 73 72  1  0
 74 73  2  0
 75 74  1  0
 75 70  2  0
 76 77  1  0
 77 78  1  0
 78 79  2  0
 80 79  1  0
 80 84  1  0
 81 80  2  0
 82 77  2  0
 82 81  1  0
 83 82  1  0
 85 86  1  0
 86 89  1  0
 86 88  1  0
 87 85  2  0
 90 91  1  0
 90 65  1  0
 92 90  1  0
M  ISO  4  11 101  12 101  56 100  57 100
M  END
>  <TORSDO>  (68) 
F 22

>  <SCORE>  (68) 
-13.049

>  <name>  (68) 
67

>  <ligand_id>  (68) 
67

>  <original_smiles>  (68) 
[H]c1c([H])c([H])c2c(c1[H])C([H])([H])C([H])([H])C([H])([H])C2([H])N([H])C(=O)C1([H])N(C(=O)C([H])(N([H])C(=O)C([H])(N([H])C([H])([H])[H])C([H])([H])[H])C(C([H])([H])[H])(C([H])([H])[H])C([H])([H])[H])C([H])([H])c2c([H])c(OC([H])([H])C([H])([H])C([H])([H])c3c([H])c(C([H])(C([H])([H])C(=O)N4C([H])([H])C([H])([H])C([H])([H])C([H])(n5nc(-c6c([H])c([H])c(Oc7c([H])c([H])c(F)c([H])c7F)c([H])c6[H])c(C(=O)N([H])[H])c5N([H])[H])C4([H])[H])C([H])([H])C([H])([H])[H])c([H])c(F)c3C([H])([H])[H])c([H])c([H])c2C1([H])[H]

>  <smiles>  (68) 
[H]c1c([H])c([H])c2c(c1[H])C([H])([H])C([H])([H])C([H])([H])C2([H])N([H])C(=O)C1([H])N(C(=O)C([H])(N([H])C(=O)C([H])(N([H])C([H])([H])[H])C([H])([H])[H])C(C([H])([H])[H])(C([H])([H])[H])C([H])([H])[H])C([H])([H])c2c([H])c(OC([H])([H])C([H])([H])C([H])([H])c3c([H])c(C([H])(C([H])([H])C(=O)N4C([H])([H])C([H])([H])C([H])([H])C([H])(n5nc(-c6c([H])c([H])c(Oc7c([H])c([H])c(F)c([H])c7F)c([H])c6[H])c(C(=O)N([H])[H])c5N([H])[H])C4([H])[H])C([H])([H])C([H])([H])[H])c([H])c(F)c3C([H])([H])[H])c([H])c([H])c2C1([H])[H]

$$$$
68:0:0
     RDKit          3D

 89 97  0  0  1  0  0  0  0  0999 V2000
  -30.6980  -17.6250   18.7140 C   0  0  0  0  0  3  0  0  0  0  0  0
  -30.3150  -19.0400   18.6130 C   0  0  0  0  0  3  0  0  0  0  0  0
  -30.0350  -16.5720   19.4600 C   0  0  0  0  0  0  0  0  0  0  0  0
  -29.1890  -19.6700   19.2570 C   0  0  0  0  0  0  0  0  0  0  0  0
  -28.9180  -17.2030   20.1600 C   0  0  0  0  0  0  0  0  0  0  0  0
  -28.5070  -18.6310   20.0210 C   0  0  0  0  0  0  0  0  0  0  0  0
  -28.1500  -16.3550   21.1610 C   0  0  0  0  0  1  0  0  0  0  0  0
  -30.6770  -15.0460   19.5780 C   0  0  0  0  0  0  0  0  0  0  0  0
  -30.5550  -12.5480   19.0370 C   0  0  0  0  0  2  0  0  0  0  0  0
  -29.5950  -12.2670   17.8540 C   0  0  0  0  0  2  0  0  0  0  0  0
  -28.1570  -12.0730   18.3650 C   0  0  0  0  0  2  0  0  0  0  0  0
  -27.7570  -13.1600   19.3940 C   0  0  0  0  0  3  0  0  0  0  0  0
  -28.8430  -13.3960   20.4610 C   0  0  0  0  0  2  0  0  0  0  0  0
  -30.0750  -13.7790   19.7580 N   0  0  0  0  0  0  0  0  0  0  0  0
  -31.8740  -14.9670   19.2670 O   0  0  0  0  0  0  0  0  0  0  0  0
  -25.5000  -13.8300   20.3740 C   0  0  0  0  0  0  0  0  0  0  0  0
  -24.4180  -13.1010   20.7880 C   0  0  0  0  0  0  0  0  0  0  0  0
  -24.7870  -11.7280   20.6440 C   0  0  0  0  0  0  0  0  0  0  0  0
  -26.4540  -12.9040   19.9920 N   0  0  0  0  0  0  0  0  0  0  0  0
  -26.0440  -11.6300   20.2250 N   0  0  0  0  0  0  0  0  0  0  0  0
  -23.9930  -10.5050   20.8240 C   0  0  0  0  0  0  0  0  0  0  0  0
  -24.4530   -9.4320   21.6210 C   0  0  0  0  0  3  0  0  0  0  0  0
  -23.6590   -8.2780   21.7950 C   0  0  0  0  0  3  0  0  0  0  0  0
  -22.3900   -8.1880   21.1750 C   0  0  0  0  0  0  0  0  0  0  0  0
  -21.9460   -9.2490   20.3670 C   0  0  0  0  0  3  0  0  0  0  0  0
  -22.7390  -10.3960   20.1890 C   0  0  0  0  0  3  0  0  0  0  0  0
  -21.5620   -7.0950   21.2680 O   0  0  0  0  0  0  0  0  0  0  0  0
  -21.6280   -6.2290   22.3300 C   0  0  0  0  0  0  0  0  0  0  0  0
  -21.4490   -6.6670   23.6610 C   0  0  0  0  0  3  0  0  0  0  0  0
  -21.4540   -5.7340   24.7170 C   0  0  0  0  0  3  0  0  0  0  0  0
  -21.6280   -4.3630   24.4450 C   0  0  0  0  0  0  0  0  0  0  0  0
  -21.8010   -3.9250   23.1200 C   0  0  0  0  0  3  0  0  0  0  0  0
  -21.7980   -4.8550   22.0660 C   0  0  0  0  0  0  0  0  0  0  0  0
  -21.9430   -4.4240   20.7900 F   0  0  0  0  0  0  0  0  0  0  0  0
  -21.6270   -3.4650   25.4570 F   0  0  0  0  0  0  0  0  0  0  0  0
  -23.0840  -13.6510   21.1980 C   0  0  0  0  0  0  0  0  0  0  0  0
  -22.3890  -12.9660   22.0980 N   0  0  0  0  0  0  0  0  0  0  0  0
  -22.6720  -14.7230   20.7560 O   0  0  0  0  0  0  0  0  0  0  0  0
  -22.7350  -12.0950   22.4710 H   0  0  0  0  0  0  0  0  0  0  0  0
  -21.4970  -13.3160   22.4170 H   0  0  0  0  0  0  0  0  0  0  0  0
  -25.7470  -15.1950   20.2670 N   0  0  0  0  0  0  0  0  0  0  0  0
  -25.0440  -15.8910   20.4920 H   0  0  0  0  0  0  0  0  0  0  0  0
  -26.6020  -15.5970   19.9030 H   0  0  0  0  0  0  0  0  0  0  0  0
  -26.1510  -18.6890   20.0050 C   0  0  0  0  0  1  0  0  0  0  0  0
  -27.3650  -19.0570   20.6540 O   0  0  0  0  0  0  0  0  0  0  0  0
  -28.5750  -21.2280   18.8970 C   0  0  0  0  0  2  0  0  0  0  0  0
  -28.9490  -22.8720   19.3370 C   0  0  0  0  0  3  0  0  0  0  0  0
  -28.0040  -24.3110   19.0180 C   0  0  0  0  0  3  0  0  0  0  0  0
  -28.2390  -25.8780   19.2850 O   0  0  0  0  0  0  0  0  0  0  0  0
  -24.5130  -31.2830   22.8230 C   0  0  0  0  0  0  0  0  0  0  0  0
  -27.1720  -26.8840   19.3260 C   0  0  0  0  0  0  0  0  0  0  0  0
  -23.3230  -29.9760   21.1080 C   0  0  0  0  0  3  0  0  0  0  0  0
  -24.7890  -28.5870   19.5080 C   0  0  0  0  0  0  0  0  0  0  0  0
  -25.8640  -30.3480   20.8940 C   0  0  0  0  0  2  0  0  0  0  0  0
  -25.9740  -29.0130   20.1200 C   0  0  0  0  0  0  0  0  0  0  0  0
  -27.1640  -28.1810   20.0100 C   0  0  0  0  0  3  0  0  0  0  0  0
  -25.9560  -26.5890   18.6760 C   0  0  0  0  0  3  0  0  0  0  0  0
  -24.7990  -27.3950   18.7680 C   0  0  0  0  0  3  0  0  0  0  0  0
  -23.5300  -29.4280   19.6700 C   0  0  0  0  0  2  0  0  0  0  0  0
  -24.5880  -30.5560   21.6640 N   0  0  0  0  0  0  0  0  0  0  0  0
  -23.4320  -31.4730   23.4030 O   0  0  0  0  0  0  0  0  0  0  0  0
  -22.7180  -28.8630   22.0020 C   0  0  0  0  0  0  0  0  0  0  0  0
  -21.3950  -28.6400   21.9010 N   0  0  0  0  0  0  0  0  0  0  0  0
  -23.4410  -28.2050   22.7530 O   0  0  0  0  0  0  0  0  0  0  0  0
  -20.8620  -29.2270   21.2760 H   0  0  0  0  0  0  0  0  0  0  0  0
  -18.0970  -27.2110   22.3740 C   0  0  0  0  0  0  0  0  0  0  0  0
  -20.6430  -27.6010   22.6120 C   0  0  0  0  0  3  0  0  0  0  0  0
  -20.8110  -26.2250   21.9280 C   0  0  0  0  0  2  0  0  0  0  0  0
  -19.7060  -25.9190   20.9110 C   0  0  0  0  0  2  0  0  0  0  0  0
  -18.3330  -25.9330   21.5890 C   0  0  0  0  0  2  0  0  0  0  0  0
  -19.1790  -28.0020   22.8400 C   0  0  0  0  0  0  0  0  0  0  0  0
  -18.9010  -29.1990   23.5360 C   0  0  0  0  0  3  0  0  0  0  0  0
  -17.5730  -29.6070   23.7670 C   0  0  0  0  0  3  0  0  0  0  0  0
  -16.5060  -28.8110   23.3150 C   0  0  0  0  0  3  0  0  0  0  0  0
  -16.7680  -27.6140   22.6260 C   0  0  0  0  0  3  0  0  0  0  0  0
  -25.7780  -31.9270   23.4680 C   0  0  0  0  0  3  0  0  0  0  0  0
  -26.3740  -31.0700   24.6520 C   0  0  1  0  0  0  0  0  0  0  0  0
  -25.3320  -30.6870   25.7300 C   0  0  0  0  0  1  0  0  0  0  0  0
  -27.0010  -29.7610   24.1230 C   0  0  0  0  0  1  0  0  0  0  0  0
  -27.5130  -31.8550   25.3440 C   0  0  0  0  0  1  0  0  0  0  0  0
  -25.4070  -33.2680   23.9470 N   0  0  0  0  0  0  0  0  0  0  0  0
  -25.6840  -34.4140   23.3100 C   0  0  0  0  0  0  0  0  0  0  0  0
  -26.3450  -34.4540   22.2700 O   0  0  0  0  0  0  0  0  0  0  0  0
  -24.8160  -33.3070   24.7650 H   0  0  0  0  0  0  0  0  0  0  0  0
  -23.8730  -36.1590   23.1800 C   0  0  0  0  0  1  0  0  0  0  0  0
  -25.1450  -35.7230   23.9240 C   0  0  0  0  0  3  0  0  0  0  0  0
  -27.2540  -36.6110   24.8180 C   0  0  0  0  0  1  0  0  0  0  0  0
  -26.1300  -36.8280   23.9120 N   0  0  0  0  0  0  0  0  0  0  0  0
  -25.6880  -37.7090   24.1610 H   0  0  0  0  0  0  0  0  0  0  0  0
  1  3  1  0
  2  1  2  0
  2  4  1  0
  3  8  1  0
  3  5  2  0
  4  6  2  0
  5  7  1  0
  6  5  1  0
  6 45  1  0
  8 14  1  0
  9 14  1  0
 10 11  1  0
 10  9  1  0
 12 11  1  0
 12 19  1  0
 12 13  1  0
 14 13  1  0
 15  8  2  0
 16 17  2  0
 17 36  1  0
 18 17  1  0
 18 21  1  0
 19 20  1  0
 19 16  1  0
 20 18  2  0
 21 22  1  0
 22 23  2  0
 24 27  1  0
 24 23  1  0
 25 24  2  0
 26 25  1  0
 26 21  2  0
 27 28  1  0
 28 29  1  0
 29 30  2  0
 31 30  1  0
 31 35  1  0
 32 31  2  0
 33 28  2  0
 33 32  1  0
 34 33  1  0
 36 37  1  0
 37 40  1  0
 37 39  1  0
 38 36  2  0
 41 16  1  0
 41 42  1  0
 43 41  1  0
 44 45  1  0
 46  4  1  0
 46 47  1  0
 48 49  1  0
 48 47  2  0
 49 51  1  0
 50 61  2  0
 51 56  1  0
 52 60  1  0
 52 62  1  0
 53 59  1  0
 53 55  1  0
 54 60  1  0
 55 54  1  0
 56 55  2  0
 57 58  1  0
 57 51  2  0
 58 53  2  0
 59 52  1  0
 60 50  1  0
 62 64  2  0
 63 62  1  0
 65 63  1  0
 66 75  2  0
 66 71  1  0
 67 63  1  0
 67 71  1  0
 68 67  1  0
 69 70  1  0
 69 68  1  0
 70 66  1  0
 71 72  2  0
 72 73  1  0
 74 73  2  0
 75 74  1  0
 76 50  1  0
 76 81  1  0
 76 77  1  0
 77 80  1  1
 77 78  1  0
 79 77  1  0
 81 84  1  0
 82 86  1  0
 82 81  1  0
 83 82  2  0
 86 85  1  0
 88 86  1  0
 88 89  1  0
 88 87  1  0
M  ISO  4   3 100   8 100  48 101  49 101
M  END
>  <TORSDO>  (69) 
F 20

>  <SCORE>  (69) 
-12.003

>  <name>  (69) 
68

>  <ligand_id>  (69) 
68

>  <original_smiles>  (69) 
[H]c1c([H])c([H])c2c(c1[H])C([H])([H])C([H])([H])C([H])([H])C2([H])N([H])C(=O)C1([H])N(C(=O)C([H])(N([H])C(=O)C([H])(N([H])C([H])([H])[H])C([H])([H])[H])C(C([H])([H])[H])(C([H])([H])[H])C([H])([H])[H])C([H])([H])c2c([H])c(OC([H])([H])C([H])([H])C([H])([H])c3c([H])c([H])c(C(=O)N4C([H])([H])C([H])([H])C([H])([H])C([H])(n5nc(-c6c([H])c([H])c(Oc7c([H])c([H])c(F)c([H])c7F)c([H])c6[H])c(C(=O)N([H])[H])c5N([H])[H])C4([H])[H])c(C([H])([H])[H])c3OC([H])([H])[H])c([H])c([H])c2C1([H])[H]

>  <smiles>  (69) 
[H]c1c([H])c([H])c2c(c1[H])C([H])([H])C([H])([H])C([H])([H])C2([H])N([H])C(=O)C1([H])N(C(=O)C([H])(N([H])C(=O)C([H])(N([H])C([H])([H])[H])C([H])([H])[H])C(C([H])([H])[H])(C([H])([H])[H])C([H])([H])[H])C([H])([H])c2c([H])c(OC([H])([H])C([H])([H])C([H])([H])c3c([H])c([H])c(C(=O)N4C([H])([H])C([H])([H])C([H])([H])C([H])(n5nc(-c6c([H])c([H])c(Oc7c([H])c([H])c(F)c([H])c7F)c([H])c6[H])c(C(=O)N([H])[H])c5N([H])[H])C4([H])[H])c(C([H])([H])[H])c3OC([H])([H])[H])c([H])c([H])c2C1([H])[H]

$$$$
69:0:0
     RDKit          3D

 93101  0  0  1  0  0  0  0  0999 V2000
  -27.2230  -20.7700   20.6930 C   0  0  0  0  0  3  0  0  0  0  0  0
  -29.4050  -21.6630   20.1110 C   0  0  0  0  0  3  0  0  0  0  0  0
  -28.6120  -20.5280   20.5230 C   0  0  0  0  0  0  0  0  0  0  0  0
  -26.6600  -22.0510   20.4700 C   0  0  0  0  0  0  0  0  0  0  0  0
  -28.8320  -22.9590   19.7950 C   0  0  0  0  0  0  0  0  0  0  0  0
  -27.4320  -23.1000   19.9230 C   0  0  0  0  0  0  0  0  0  0  0  0
  -26.1740  -24.3750   18.3790 C   0  0  0  0  0  1  0  0  0  0  0  0
  -26.8240  -24.3030   19.6380 O   0  0  0  0  0  0  0  0  0  0  0  0
  -29.2060  -19.1610   21.0810 C   0  0  0  0  0  2  0  0  0  0  0  0
  -29.6840  -17.9110   20.1700 C   0  0  0  0  0  2  0  0  0  0  0  0
  -29.7820  -16.4370   20.8590 C   0  0  0  0  0  2  0  0  0  0  0  0
  -30.7070  -15.2150   20.3200 C   0  0  0  0  0  0  0  0  0  0  0  0
  -30.7460  -12.8730   19.3770 C   0  0  0  0  0  2  0  0  0  0  0  0
  -29.8090  -12.8270   18.1460 C   0  0  0  0  0  2  0  0  0  0  0  0
  -28.3380  -12.6220   18.5700 C   0  0  0  0  0  2  0  0  0  0  0  0
  -27.9250  -13.5600   19.7350 C   0  0  0  0  0  3  0  0  0  0  0  0
  -28.9640  -13.4940   20.8740 C   0  0  0  0  0  2  0  0  0  0  0  0
  -30.2420  -13.9190   20.3020 N   0  0  0  0  0  0  0  0  0  0  0  0
  -31.8380  -15.4420   19.8750 O   0  0  0  0  0  0  0  0  0  0  0  0
  -25.5550  -14.1680   20.5100 C   0  0  0  0  0  0  0  0  0  0  0  0
  -24.4810  -13.3960   20.8600 C   0  0  0  0  0  0  0  0  0  0  0  0
  -24.9180  -12.0400   20.7540 C   0  0  0  0  0  0  0  0  0  0  0  0
  -26.5780  -13.2820   20.2160 N   0  0  0  0  0  0  0  0  0  0  0  0
  -26.2020  -11.9950   20.4200 N   0  0  0  0  0  0  0  0  0  0  0  0
  -24.1760  -10.7810   20.8890 C   0  0  0  0  0  0  0  0  0  0  0  0
  -24.5790   -9.7790   21.7970 C   0  0  0  0  0  3  0  0  0  0  0  0
  -23.8360   -8.5860   21.9220 C   0  0  0  0  0  3  0  0  0  0  0  0
  -22.6750   -8.3880   21.1360 C   0  0  0  0  0  0  0  0  0  0  0  0
  -22.2900   -9.3800   20.2180 C   0  0  0  0  0  3  0  0  0  0  0  0
  -23.0350  -10.5650   20.0910 C   0  0  0  0  0  3  0  0  0  0  0  0
  -21.9100   -7.2480   21.1690 O   0  0  0  0  0  0  0  0  0  0  0  0
  -21.8000   -6.4890   22.3060 C   0  0  0  0  0  0  0  0  0  0  0  0
  -21.3160   -7.0260   23.5190 C   0  0  0  0  0  3  0  0  0  0  0  0
  -21.1540   -6.1920   24.6440 C   0  0  0  0  0  3  0  0  0  0  0  0
  -21.4690   -4.8240   24.5560 C   0  0  0  0  0  0  0  0  0  0  0  0
  -21.9470   -4.2850   23.3490 C   0  0  0  0  0  3  0  0  0  0  0  0
  -22.1090   -5.1150   22.2250 C   0  0  0  0  0  0  0  0  0  0  0  0
  -22.5510   -4.5870   21.0590 F   0  0  0  0  0  0  0  0  0  0  0  0
  -21.3060   -4.0200   25.6340 F   0  0  0  0  0  0  0  0  0  0  0  0
  -23.0990  -13.8840   21.1770 C   0  0  0  0  0  0  0  0  0  0  0  0
  -22.3780  -13.1670   22.0340 N   0  0  0  0  0  0  0  0  0  0  0  0
  -22.6620  -14.9270   20.6950 O   0  0  0  0  0  0  0  0  0  0  0  0
  -22.7430  -12.3190   22.4410 H   0  0  0  0  0  0  0  0  0  0  0  0
  -21.4490  -13.4730   22.2860 H   0  0  0  0  0  0  0  0  0  0  0  0
  -25.7440  -15.5450   20.3960 N   0  0  0  0  0  0  0  0  0  0  0  0
  -24.9820  -16.2010   20.5220 H   0  0  0  0  0  0  0  0  0  0  0  0
  -26.5910  -15.9730   20.0440 H   0  0  0  0  0  0  0  0  0  0  0  0
  -25.2870  -22.3950   21.0390 C   0  0  0  0  0  2  0  0  0  0  0  0
  -24.1150  -24.2050   22.4960 C   0  0  0  0  0  1  0  0  0  0  0  0
  -25.3990  -23.7320   21.8110 C   0  0  0  0  0  2  0  0  0  0  0  0
  -29.6660  -24.1980   19.2920 C   0  0  0  0  0  2  0  0  0  0  0  0
  -29.5340  -25.6260   20.0220 C   0  0  0  0  0  2  0  0  0  0  0  0
  -29.3620  -26.8710   19.2320 O   0  0  0  0  0  0  0  0  0  0  0  0
  -24.9800  -31.1370   23.0580 C   0  0  0  0  0  0  0  0  0  0  0  0
  -28.1390  -27.5530   19.3380 C   0  0  0  0  0  0  0  0  0  0  0  0
  -23.9420  -29.8930   21.1890 C   0  0  0  0  0  3  0  0  0  0  0  0
  -25.5700  -28.7980   19.5480 C   0  0  0  0  0  0  0  0  0  0  0  0
  -26.4100  -30.5720   21.0840 C   0  0  0  0  0  2  0  0  0  0  0  0
  -26.6680  -29.3400   20.2340 C   0  0  0  0  0  0  0  0  0  0  0  0
  -27.9510  -28.7250   20.1340 C   0  0  0  0  0  3  0  0  0  0  0  0
  -27.0370  -27.0850   18.6070 C   0  0  0  0  0  3  0  0  0  0  0  0
  -25.7560  -27.6720   18.7250 C   0  0  0  0  0  3  0  0  0  0  0  0
  -24.2280  -29.4870   19.7170 C   0  0  0  0  0  2  0  0  0  0  0  0
  -25.1280  -30.5460   21.8370 N   0  0  0  0  0  0  0  0  0  0  0  0
  -23.8790  -31.1790   23.6270 O   0  0  0  0  0  0  0  0  0  0  0  0
  -23.4300  -28.6560   21.9610 C   0  0  0  0  0  0  0  0  0  0  0  0
  -22.1460  -28.3100   21.7640 N   0  0  0  0  0  0  0  0  0  0  0  0
  -24.1830  -28.0190   22.7020 O   0  0  0  0  0  0  0  0  0  0  0  0
  -21.6000  -28.8810   21.1360 H   0  0  0  0  0  0  0  0  0  0  0  0
  -18.9910  -26.5500   21.9330 C   0  0  0  0  0  0  0  0  0  0  0  0
  -21.4660  -27.1570   22.3610 C   0  0  0  0  0  3  0  0  0  0  0  0
  -21.8040  -25.8470   21.6050 C   0  0  0  0  0  2  0  0  0  0  0  0
  -20.7990  -25.4940   20.5060 C   0  0  0  0  0  2  0  0  0  0  0  0
  -19.3890  -25.3550   21.0870 C   0  0  0  0  0  2  0  0  0  0  0  0
  -19.9600  -27.4040   22.5220 C   0  0  0  0  0  0  0  0  0  0  0  0
  -19.5220  -28.5150   23.2790 C   0  0  0  0  0  3  0  0  0  0  0  0
  -18.1520  -28.7810   23.4460 C   0  0  0  0  0  3  0  0  0  0  0  0
  -17.1970  -27.9220   22.8720 C   0  0  0  0  0  3  0  0  0  0  0  0
  -17.6180  -26.8110   22.1230 C   0  0  0  0  0  3  0  0  0  0  0  0
  -26.1800  -31.8170   23.7880 C   0  0  0  0  0  3  0  0  0  0  0  0
  -25.7310  -33.1400   24.2460 N   0  0  0  0  0  0  0  0  0  0  0  0
  -26.0020  -34.2940   23.6220 C   0  0  0  0  0  0  0  0  0  0  0  0
  -26.7240  -34.3610   22.6230 O   0  0  0  0  0  0  0  0  0  0  0  0
  -25.0880  -33.1510   25.0250 H   0  0  0  0  0  0  0  0  0  0  0  0
  -24.1500  -35.9740   23.3630 C   0  0  0  0  0  1  0  0  0  0  0  0
  -25.3770  -35.5790   24.1980 C   0  0  0  0  0  3  0  0  0  0  0  0
  -27.3860  -36.5280   25.2440 C   0  0  0  0  0  1  0  0  0  0  0  0
  -26.3210  -36.7160   24.2620 N   0  0  0  0  0  0  0  0  0  0  0  0
  -25.8340  -37.5790   24.4820 H   0  0  0  0  0  0  0  0  0  0  0  0
  -26.7280  -30.9660   24.9970 C   0  0  1  0  0  0  0  0  0  0  0  0
  -25.6320  -30.5330   25.9990 C   0  0  0  0  0  1  0  0  0  0  0  0
  -27.4350  -29.6880   24.4920 C   0  0  0  0  0  1  0  0  0  0  0  0
  -27.7890  -31.7800   25.7760 C   0  0  0  0  0  1  0  0  0  0  0  0
  2  3  2  0
  3  1  1  0
  3  9  1  0
  4  1  2  0
  4 48  1  0
  5  6  2  0
  5  2  1  0
  6  4  1  0
  7  8  1  0
  8  6  1  0
 10 11  1  0
 10  9  1  0
 12 11  1  0
 13 18  1  0
 14 15  1  0
 14 13  1  0
 16 15  1  0
 16 23  1  0
 16 17  1  0
 18 12  1  0
 18 17  1  0
 19 12  2  0
 20 21  2  0
 21 40  1  0
 22 21  1  0
 22 25  1  0
 23 24  1  0
 23 20  1  0
 24 22  2  0
 25 26  1  0
 26 27  2  0
 28 31  1  0
 28 27  1  0
 29 28  2  0
 30 29  1  0
 30 25  2  0
 31 32  1  0
 32 33  1  0
 33 34  2  0
 35 34  1  0
 35 39  1  0
 36 35  2  0
 37 32  2  0
 37 36  1  0
 38 37  1  0
 40 41  1  0
 41 44  1  0
 41 43  1  0
 42 40  2  0
 45 20  1  0
 45 46  1  0
 47 45  1  0
 48 50  1  0
 50 49  1  0
 51  5  1  0
 51 52  1  0
 53 55  1  0
 53 52  1  0
 54 65  2  0
 55 60  1  0
 56 64  1  0
 56 66  1  0
 57 63  1  0
 57 59  1  0
 58 64  1  0
 59 58  1  0
 60 59  2  0
 61 62  1  0
 61 55  2  0
 62 57  2  0
 63 56  1  0
 64 54  1  0
 66 68  2  0
 67 66  1  0
 69 67  1  0
 70 79  2  0
 70 75  1  0
 71 67  1  0
 71 75  1  0
 72 71  1  0
 73 74  1  0
 73 72  1  0
 74 70  1  0
 75 76  2  0
 76 77  1  0
 78 77  2  0
 79 78  1  0
 80 54  1  0
 80 81  1  0
 80 90  1  0
 81 84  1  0
 82 86  1  0
 82 81  1  0
 83 82  2  0
 86 85  1  0
 86 88  1  0
 88 89  1  0
 88 87  1  0
 90 93  1  1
 90 91  1  0
 92 90  1  0
M  ISO  4  11 100  12 100  52 101  53 101
M  END
>  <TORSDO>  (70) 
F 24

>  <SCORE>  (70) 
-7.632

>  <name>  (70) 
69

>  <ligand_id>  (70) 
69

>  <original_smiles>  (70) 
[H]c1c([H])c([H])c2c(c1[H])C([H])([H])C([H])([H])C([H])([H])C2([H])N([H])C(=O)C1([H])N(C(=O)C([H])(N([H])C(=O)C([H])(N([H])C([H])([H])[H])C([H])([H])[H])C(C([H])([H])[H])(C([H])([H])[H])C([H])([H])[H])C([H])([H])c2c([H])c(OC([H])([H])C([H])([H])c3c([H])c(C([H])([H])C([H])([H])C([H])([H])C(=O)N4C([H])([H])C([H])([H])C([H])([H])C([H])(n5nc(-c6c([H])c([H])c(Oc7c([H])c([H])c(F)c([H])c7F)c([H])c6[H])c(C(=O)N([H])[H])c5N([H])[H])C4([H])[H])c([H])c(C([H])([H])C([H])([H])C([H])([H])[H])c3OC([H])([H])[H])c([H])c([H])c2C1([H])[H]

>  <smiles>  (70) 
[H]c1c([H])c([H])c2c(c1[H])C([H])([H])C([H])([H])C([H])([H])C2([H])N([H])C(=O)C1([H])N(C(=O)C([H])(N([H])C(=O)C([H])(N([H])C([H])([H])[H])C([H])([H])[H])C(C([H])([H])[H])(C([H])([H])[H])C([H])([H])[H])C([H])([H])c2c([H])c(OC([H])([H])C([H])([H])c3c([H])c(C([H])([H])C([H])([H])C([H])([H])C(=O)N4C([H])([H])C([H])([H])C([H])([H])C([H])(n5nc(-c6c([H])c([H])c(Oc7c([H])c([H])c(F)c([H])c7F)c([H])c6[H])c(C(=O)N([H])[H])c5N([H])[H])C4([H])[H])c([H])c(C([H])([H])C([H])([H])C([H])([H])[H])c3OC([H])([H])[H])c([H])c([H])c2C1([H])[H]

$$$$
70:0:0
     RDKit          3D

 93100  0  0  1  0  0  0  0  0999 V2000
  -30.9230  -23.7580   18.3130 C   0  0  0  0  0  2  0  0  0  0  0  0
  -30.5370  -22.1470   20.1000 C   0  0  0  0  0  0  0  0  0  0  0  0
  -29.2790  -21.9690   19.5080 C   0  0  0  0  0  2  0  0  0  0  0  0
  -31.3930  -23.0830   19.4650 C   0  0  0  0  0  0  0  0  0  0  0  0
  -29.5410  -23.8550   18.0280 C   0  0  0  0  0  3  0  0  0  0  0  0
  -28.6350  -23.5760   19.0750 C   0  0  0  0  0  3  0  0  0  0  0  0
  -31.0560  -21.1180   21.1130 C   0  0  0  0  0  2  0  0  0  0  0  0
  -30.0330  -20.4820   22.1090 C   0  0  0  0  0  2  0  0  0  0  0  0
  -28.5110  -20.5450   21.8110 C   0  0  0  0  0  2  0  0  0  0  0  0
  -28.0320  -19.8590   20.5090 C   0  0  0  0  0  2  0  0  0  0  0  0
  -29.0790  -19.9300   19.3840 C   0  0  0  0  0  1  0  0  0  0  0  0
  -29.1160  -24.7010   16.8420 C   0  0  0  0  0  1  0  0  0  0  0  0
  -30.4740  -16.5600   19.4840 C   0  0  0  0  0  0  0  0  0  0  0  0
  -30.7390  -13.8470   18.8390 C   0  0  0  0  0  2  0  0  0  0  0  0
  -29.8480  -13.1230   17.7660 C   0  0  0  0  0  2  0  0  0  0  0  0
  -28.5150  -12.6530   18.3570 C   0  0  0  0  0  2  0  0  0  0  0  0
  -27.9760  -13.7150   19.3320 C   0  0  0  0  0  3  0  0  0  0  0  0
  -29.0300  -14.3130   20.3150 C   0  0  0  0  0  2  0  0  0  0  0  0
  -30.0510  -15.0860   19.5220 N   0  0  0  0  0  0  0  0  0  0  0  0
  -31.7020  -16.4350   19.2320 O   0  0  0  0  0  0  0  0  0  0  0  0
  -29.6520  -18.0300   19.5390 N   0  0  0  0  0  2  0  0  0  0  0  0
  -28.7590  -17.6290   19.7880 H   0  0  0  0  0  0  0  0  0  0  0  0
  -25.7600  -14.2100   20.4350 C   0  0  0  0  0  0  0  0  0  0  0  0
  -24.7090  -13.4350   20.8330 C   0  0  0  0  0  0  0  0  0  0  0  0
  -25.0980  -12.0800   20.5890 C   0  0  0  0  0  0  0  0  0  0  0  0
  -26.7230  -13.3380   19.9710 N   0  0  0  0  0  0  0  0  0  0  0  0
  -26.3450  -12.0370   20.1200 N   0  0  0  0  0  0  0  0  0  0  0  0
  -24.3210  -10.8380   20.7200 C   0  0  0  0  0  0  0  0  0  0  0  0
  -24.6450   -9.8570   21.6840 C   0  0  0  0  0  3  0  0  0  0  0  0
  -23.8650   -8.6870   21.8090 C   0  0  0  0  0  3  0  0  0  0  0  0
  -22.7430   -8.4880   20.9680 C   0  0  0  0  0  0  0  0  0  0  0  0
  -22.4360   -9.4570   19.9960 C   0  0  0  0  0  3  0  0  0  0  0  0
  -23.2180  -10.6180   19.8700 C   0  0  0  0  0  3  0  0  0  0  0  0
  -21.9440   -7.3710   20.9980 O   0  0  0  0  0  0  0  0  0  0  0  0
  -21.5680   -6.7860   22.1820 C   0  0  0  0  0  0  0  0  0  0  0  0
  -20.8070   -7.4790   23.1480 C   0  0  0  0  0  3  0  0  0  0  0  0
  -20.3830   -6.8190   24.3180 C   0  0  0  0  0  3  0  0  0  0  0  0
  -20.7100   -5.4640   24.5210 C   0  0  0  0  0  0  0  0  0  0  0  0
  -21.4640   -4.7700   23.5580 C   0  0  0  0  0  3  0  0  0  0  0  0
  -21.8870   -5.4290   22.3900 C   0  0  0  0  0  0  0  0  0  0  0  0
  -22.5950   -4.7480   21.4560 F   0  0  0  0  0  0  0  0  0  0  0  0
  -20.2970   -4.8270   25.6410 F   0  0  0  0  0  0  0  0  0  0  0  0
  -23.3800  -13.9390   21.3110 C   0  0  0  0  0  0  0  0  0  0  0  0
  -22.7300  -13.2020   22.2060 N   0  0  0  0  0  0  0  0  0  0  0  0
  -22.9340  -15.0200   20.9300 O   0  0  0  0  0  0  0  0  0  0  0  0
  -23.1090  -12.3260   22.5350 H   0  0  0  0  0  0  0  0  0  0  0  0
  -21.8430  -13.5200   22.5680 H   0  0  0  0  0  0  0  0  0  0  0  0
  -25.9700  -15.5860   20.3940 N   0  0  0  0  0  0  0  0  0  0  0  0
  -25.2480  -16.2480   20.6580 H   0  0  0  0  0  0  0  0  0  0  0  0
  -26.7790  -16.0260   19.9780 H   0  0  0  0  0  0  0  0  0  0  0  0
  -33.0320  -24.5030   20.7680 C   0  0  0  0  0  1  0  0  0  0  0  0
  -32.8470  -23.2630   19.8830 C   0  0  0  0  0  2  0  0  0  0  0  0
  -28.4700  -25.2910   19.4280 O   0  0  0  0  0  0  0  0  0  0  0  0
  -24.8400  -31.6990   22.8290 C   0  0  0  0  0  0  0  0  0  0  0  0
  -27.4890  -26.6410   19.4250 C   0  0  0  0  0  0  0  0  0  0  0  0
  -23.6720  -30.3430   21.1490 C   0  0  0  0  0  3  0  0  0  0  0  0
  -25.1480  -28.7930   19.5880 C   0  0  0  0  0  0  0  0  0  0  0  0
  -26.2540  -30.5100   20.9830 C   0  0  0  0  0  2  0  0  0  0  0  0
  -26.3560  -29.0900   20.2260 C   0  0  0  0  0  0  0  0  0  0  0  0
  -27.4820  -28.0520   20.1150 C   0  0  0  0  0  3  0  0  0  0  0  0
  -26.2320  -26.6590   18.7330 C   0  0  0  0  0  3  0  0  0  0  0  0
  -25.1450  -27.6120   18.8150 C   0  0  0  0  0  3  0  0  0  0  0  0
  -23.9110  -29.7200   19.7360 C   0  0  0  0  0  2  0  0  0  0  0  0
  -24.9500  -30.8920   21.7070 N   0  0  0  0  0  0  0  0  0  0  0  0
  -23.7470  -31.9270   23.3790 O   0  0  0  0  0  0  0  0  0  0  0  0
  -23.0060  -29.3020   22.0930 C   0  0  0  0  0  0  0  0  0  0  0  0
  -21.6720  -29.1150   22.0150 N   0  0  0  0  0  0  0  0  0  0  0  0
  -23.7090  -28.6570   22.8740 O   0  0  0  0  0  0  0  0  0  0  0  0
  -21.1480  -29.6880   21.3690 H   0  0  0  0  0  0  0  0  0  0  0  0
  -18.3530  -27.7360   22.6130 C   0  0  0  0  0  0  0  0  0  0  0  0
  -20.9130  -28.0970   22.7580 C   0  0  0  0  0  3  0  0  0  0  0  0
  -21.0340  -26.7120   22.0780 C   0  0  0  0  0  2  0  0  0  0  0  0
  -19.8940  -26.4200   21.0970 C   0  0  0  0  0  2  0  0  0  0  0  0
  -18.5450  -26.4540   21.8190 C   0  0  0  0  0  2  0  0  0  0  0  0
  -19.4630  -28.5160   23.0390 C   0  0  0  0  0  0  0  0  0  0  0  0
  -19.2230  -29.7110   23.7510 C   0  0  0  0  0  3  0  0  0  0  0  0
  -17.9090  -30.1300   24.0350 C   0  0  0  0  0  3  0  0  0  0  0  0
  -16.8160  -29.3490   23.6200 C   0  0  0  0  0  3  0  0  0  0  0  0
  -17.0400  -28.1540   22.9140 C   0  0  0  0  0  3  0  0  0  0  0  0
  -26.0800  -32.3870   23.4820 C   0  0  0  0  0  3  0  0  0  0  0  0
  -25.6750  -33.7230   23.9800 N   0  0  0  0  0  0  0  0  0  0  0  0
  -25.9120  -34.8890   23.3620 C   0  0  0  0  0  0  0  0  0  0  0  0
  -26.5410  -34.9590   22.3050 O   0  0  0  0  0  0  0  0  0  0  0  0
  -25.1020  -33.7330   24.8100 H   0  0  0  0  0  0  0  0  0  0  0  0
  -24.0530  -36.5960   23.3430 C   0  0  0  0  0  1  0  0  0  0  0  0
  -25.3710  -36.1820   24.0170 C   0  0  0  0  0  3  0  0  0  0  0  0
  -27.4840  -37.1370   24.8340 C   0  0  0  0  0  1  0  0  0  0  0  0
  -26.3240  -37.3150   23.9660 N   0  0  0  0  0  0  0  0  0  0  0  0
  -25.8650  -38.1840   24.2260 H   0  0  0  0  0  0  0  0  0  0  0  0
  -26.6870  -31.5510   24.6780 C   0  0  1  0  0  0  0  0  0  0  0  0
  -25.6510  -31.1560   25.7570 C   0  0  0  0  0  1  0  0  0  0  0  0
  -27.3430  -30.2460   24.1730 C   0  0  0  0  0  1  0  0  0  0  0  0
  -27.8100  -32.3620   25.3660 C   0  0  0  0  0  1  0  0  0  0  0  0
  1  4  1  0
  2  7  1  0
  3  2  1  0
  4 52  1  0
  4  2  2  0
  5 12  1  0
  5  1  1  0
  5  6  1  0
  6 53  1  0
  6  3  1  0
  7  8  1  0
  9  8  1  0
 10  9  1  0
 11 10  1  0
 13 19  1  0
 13 21  1  0
 14 19  1  0
 15 16  1  0
 15 14  1  0
 17 16  1  0
 17 26  1  0
 17 18  1  0
 19 18  1  0
 20 13  2  0
 21 22  1  0
 23 24  2  0
 24 43  1  0
 25 28  1  0
 25 24  1  0
 26 27  1  0
 26 23  1  0
 27 25  2  0
 28 29  1  0
 29 30  2  0
 31 34  1  0
 31 30  1  0
 32 31  2  0
 33 32  1  0
 33 28  2  0
 34 35  1  0
 35 40  2  0
 35 36  1  0
 36 37  2  0
 37 38  1  0
 38 42  1  0
 39 38  2  0
 40 39  1  0
 41 40  1  0
 43 44  1  0
 44 46  1  0
 44 47  1  0
 45 43  2  0
 48 23  1  0
 48 49  1  0
 50 48  1  0
 52 51  1  0
 54 65  2  0
 55 53  1  0
 55 60  1  0
 56 64  1  0
 56 66  1  0
 57 63  1  0
 57 59  1  0
 58 64  1  0
 59 58  1  0
 60 59  2  0
 61 62  1  0
 61 55  2  0
 62 57  2  0
 63 56  1  0
 64 54  1  0
 66 68  2  0
 67 66  1  0
 69 67  1  0
 70 79  2  0
 70 75  1  0
 71 67  1  0
 71 75  1  0
 72 71  1  0
 73 74  1  0
 73 72  1  0
 74 70  1  0
 75 76  2  0
 76 77  1  0
 78 77  2  0
 79 78  1  0
 80 54  1  0
 80 81  1  0
 80 90  1  0
 81 84  1  0
 82 81  1  0
 82 86  1  0
 83 82  2  0
 86 85  1  0
 88 86  1  0
 88 89  1  0
 88 87  1  0
 90 93  1  1
 90 91  1  0
 92 90  1  0
M  ISO  4   6 101  13 100  21 100  53 101
M  END
>  <TORSDO>  (71) 
F 17

>  <SCORE>  (71) 
-11.885

>  <name>  (71) 
70

>  <ligand_id>  (71) 
70

>  <original_smiles>  (71) 
[H]c1c([H])c([H])c2c(c1[H])C([H])([H])C([H])([H])C([H])([H])C2([H])N([H])C(=O)C1([H])N(C(=O)C([H])(N([H])C(=O)C([H])(N([H])C([H])([H])[H])C([H])([H])[H])C(C([H])([H])[H])(C([H])([H])[H])C([H])([H])[H])C([H])([H])c2c([H])c(Oc3c(C([H])([H])[H])c([H])c(C([H])([H])C([H])([H])[H])c4c3C([H])(N([H])C(=O)N3C([H])([H])C([H])([H])C([H])([H])C([H])(n5nc(-c6c([H])c([H])c(Oc7c([H])c([H])c(F)c([H])c7F)c([H])c6[H])c(C(=O)N([H])[H])c5N([H])[H])C3([H])[H])C([H])([H])C([H])([H])C([H])([H])C4([H])[H])c([H])c([H])c2C1([H])[H]

>  <smiles>  (71) 
[H]c1c([H])c([H])c2c(c1[H])C([H])([H])C([H])([H])C([H])([H])C2([H])N([H])C(=O)C1([H])N(C(=O)C([H])(N([H])C(=O)C([H])(N([H])C([H])([H])[H])C([H])([H])[H])C(C([H])([H])[H])(C([H])([H])[H])C([H])([H])[H])C([H])([H])c2c([H])c(Oc3c(C([H])([H])[H])c([H])c(C([H])([H])C([H])([H])[H])c4c3C([H])(N([H])C(=O)N3C([H])([H])C([H])([H])C([H])([H])C([H])(n5nc(-c6c([H])c([H])c(Oc7c([H])c([H])c(F)c([H])c7F)c([H])c6[H])c(C(=O)N([H])[H])c5N([H])[H])C3([H])[H])C([H])([H])C([H])([H])C([H])([H])C4([H])[H])c([H])c([H])c2C1([H])[H]

$$$$
71:0:0
     RDKit          3D

 88 96  0  0  1  0  0  0  0  0999 V2000
  -29.0990  -21.5310   21.3620 C   0  0  0  0  0  3  0  0  0  0  0  0
  -28.7710  -23.0300   21.3900 C   0  0  0  0  0  3  0  0  0  0  0  0
  -28.4500  -21.4290   19.2700 C   0  0  0  0  0  3  0  0  0  0  0  0
  -28.9880  -20.4810   20.3030 C   0  0  0  0  0  0  0  0  0  0  0  0
  -28.1190  -22.9400   19.2780 C   0  0  0  0  0  0  0  0  0  0  0  0
  -28.2240  -23.9700   20.3640 C   0  0  0  0  0  0  0  0  0  0  0  0
  -27.6470  -23.4890   17.9440 C   0  0  0  0  0  1  0  0  0  0  0  0
  -29.4050  -17.2620   20.3180 C   0  0  0  0  0  3  0  0  0  0  0  0
  -29.6690  -18.7820   20.2080 C   0  0  0  0  0  0  0  0  0  0  0  0
  -30.2380  -15.7530   20.1720 C   0  0  0  0  0  0  0  0  0  0  0  0
  -30.3460  -13.1980   19.3710 C   0  0  0  0  0  2  0  0  0  0  0  0
  -29.4420  -12.8060   18.1650 C   0  0  0  0  0  2  0  0  0  0  0  0
  -28.0270  -12.4370   18.6340 C   0  0  0  0  0  2  0  0  0  0  0  0
  -27.5240  -13.4260   19.7100 C   0  0  0  0  0  3  0  0  0  0  0  0
  -28.5650  -13.7470   20.8060 C   0  0  0  0  0  2  0  0  0  0  0  0
  -29.7350  -14.3730   20.1500 N   0  0  0  0  0  0  0  0  0  0  0  0
  -31.4610  -15.6690   19.9450 O   0  0  0  0  0  0  0  0  0  0  0  0
  -25.1800  -13.9180   20.5460 C   0  0  0  0  0  0  0  0  0  0  0  0
  -24.1380  -13.1220   20.9240 C   0  0  0  0  0  0  0  0  0  0  0  0
  -24.6200  -11.7780   20.8560 C   0  0  0  0  0  0  0  0  0  0  0  0
  -26.2250  -13.0630   20.2560 N   0  0  0  0  0  0  0  0  0  0  0  0
  -25.9050  -11.7660   20.5120 N   0  0  0  0  0  0  0  0  0  0  0  0
  -23.9070  -10.5050   21.0400 C   0  0  0  0  0  0  0  0  0  0  0  0
  -24.3480   -9.5350   21.9670 C   0  0  0  0  0  3  0  0  0  0  0  0
  -23.6310   -8.3320   22.1420 C   0  0  0  0  0  3  0  0  0  0  0  0
  -22.4580   -8.0890   21.3880 C   0  0  0  0  0  0  0  0  0  0  0  0
  -22.0350   -9.0480   20.4490 C   0  0  0  0  0  3  0  0  0  0  0  0
  -22.7540  -10.2420   20.2730 C   0  0  0  0  0  3  0  0  0  0  0  0
  -21.7110   -6.9380   21.4710 O   0  0  0  0  0  0  0  0  0  0  0  0
  -21.6480   -6.2020   22.6280 C   0  0  0  0  0  0  0  0  0  0  0  0
  -21.1680   -6.7530   23.8350 C   0  0  0  0  0  3  0  0  0  0  0  0
  -21.0550   -5.9420   24.9830 C   0  0  0  0  0  3  0  0  0  0  0  0
  -21.4120   -4.5820   24.9220 C   0  0  0  0  0  0  0  0  0  0  0  0
  -21.8850   -4.0310   23.7190 C   0  0  0  0  0  3  0  0  0  0  0  0
  -21.9990   -4.8380   22.5740 C   0  0  0  0  0  0  0  0  0  0  0  0
  -22.4360   -4.2960   21.4120 F   0  0  0  0  0  0  0  0  0  0  0  0
  -21.2970   -3.8010   26.0220 F   0  0  0  0  0  0  0  0  0  0  0  0
  -22.7420  -13.5810   21.2280 C   0  0  0  0  0  0  0  0  0  0  0  0
  -22.0390  -12.8690   22.1020 N   0  0  0  0  0  0  0  0  0  0  0  0
  -22.2860  -14.6080   20.7270 O   0  0  0  0  0  0  0  0  0  0  0  0
  -22.4240  -12.0400   22.5290 H   0  0  0  0  0  0  0  0  0  0  0  0
  -21.1040  -13.1590   22.3470 H   0  0  0  0  0  0  0  0  0  0  0  0
  -25.3230  -15.2940   20.3920 N   0  0  0  0  0  0  0  0  0  0  0  0
  -24.5530  -15.9380   20.5370 H   0  0  0  0  0  0  0  0  0  0  0  0
  -26.1570  -15.7500   20.0420 H   0  0  0  0  0  0  0  0  0  0  0  0
  -30.9530  -19.0030   19.9050 O   0  0  0  0  0  0  0  0  0  0  0  0
  -31.0690  -19.9430   19.8380 H   0  0  0  0  0  0  0  0  0  0  0  0
  -28.1530  -25.5980   20.3720 O   0  0  0  0  0  0  0  0  0  0  0  0
  -24.6190  -31.9050   23.2740 C   0  0  0  0  0  0  0  0  0  0  0  0
  -27.1410  -26.7810   20.3440 C   0  0  0  0  0  0  0  0  0  0  0  0
  -23.4340  -30.4970   21.6450 C   0  0  0  0  0  3  0  0  0  0  0  0
  -24.8800  -28.8270   20.2560 C   0  0  0  0  0  0  0  0  0  0  0  0
  -26.0120  -30.6250   21.5350 C   0  0  0  0  0  2  0  0  0  0  0  0
  -26.0710  -29.1830   20.8960 C   0  0  0  0  0  0  0  0  0  0  0  0
  -27.1830  -28.1870   20.9090 C   0  0  0  0  0  3  0  0  0  0  0  0
  -25.9180  -26.6370   19.6400 C   0  0  0  0  0  3  0  0  0  0  0  0
  -24.8420  -27.5790   19.6050 C   0  0  0  0  0  3  0  0  0  0  0  0
  -23.6770  -29.7840   20.2820 C   0  0  0  0  0  2  0  0  0  0  0  0
  -24.7130  -31.0440   22.2040 N   0  0  0  0  0  0  0  0  0  0  0  0
  -23.5250  -32.2140   23.7770 O   0  0  0  0  0  0  0  0  0  0  0  0
  -22.7090  -29.5320   22.6220 C   0  0  0  0  0  0  0  0  0  0  0  0
  -21.3790  -29.3740   22.4870 N   0  0  0  0  0  0  0  0  0  0  0  0
  -23.3580  -28.9210   23.4740 O   0  0  0  0  0  0  0  0  0  0  0  0
  -20.9050  -29.9170   21.7780 H   0  0  0  0  0  0  0  0  0  0  0  0
  -17.9910  -28.1570   22.9800 C   0  0  0  0  0  0  0  0  0  0  0  0
  -20.5460  -28.4470   23.2640 C   0  0  0  0  0  3  0  0  0  0  0  0
  -20.6610  -27.0050   22.7150 C   0  0  0  0  0  2  0  0  0  0  0  0
  -19.5730  -26.6600   21.6930 C   0  0  0  0  0  2  0  0  0  0  0  0
  -18.1840  -26.8020   22.3200 C   0  0  0  0  0  2  0  0  0  0  0  0
  -19.0990  -28.9350   23.4090 C   0  0  0  0  0  0  0  0  0  0  0  0
  -18.8610  -30.2000   23.9900 C   0  0  0  0  0  3  0  0  0  0  0  0
  -17.5490  -30.6860   24.1450 C   0  0  0  0  0  3  0  0  0  0  0  0
  -16.4560  -29.9070   23.7290 C   0  0  0  0  0  3  0  0  0  0  0  0
  -16.6780  -28.6440   23.1530 C   0  0  0  0  0  3  0  0  0  0  0  0
  -25.8820  -32.5570   23.9150 C   0  0  0  0  0  3  0  0  0  0  0  0
  -25.5620  -33.9630   24.2360 N   0  0  0  0  0  0  0  0  0  0  0  0
  -25.8810  -35.0210   23.4770 C   0  0  0  0  0  0  0  0  0  0  0  0
  -26.5300  -34.9160   22.4340 O   0  0  0  0  0  0  0  0  0  0  0  0
  -24.9810  -34.1170   25.0460 H   0  0  0  0  0  0  0  0  0  0  0  0
  -24.1340  -36.8150   23.1820 C   0  0  0  0  0  1  0  0  0  0  0  0
  -25.4070  -36.4150   23.9440 C   0  0  0  0  0  3  0  0  0  0  0  0
  -27.5630  -37.3260   24.6910 C   0  0  0  0  0  1  0  0  0  0  0  0
  -26.4320  -37.4710   23.7800 N   0  0  0  0  0  0  0  0  0  0  0  0
  -26.0260  -38.3930   23.9210 H   0  0  0  0  0  0  0  0  0  0  0  0
  -26.3680  -31.8120   25.2210 C   0  0  1  0  0  0  0  0  0  0  0  0
  -25.2540  -31.6020   26.2730 C   0  0  0  0  0  1  0  0  0  0  0  0
  -26.9510  -30.4220   24.8820 C   0  0  0  0  0  1  0  0  0  0  0  0
  -27.5110  -32.6140   25.8870 C   0  0  0  0  0  1  0  0  0  0  0  0
  1  2  1  0
  3  5  2  0
  3  4  1  0
  4  1  2  0
  5  6  1  0
  6 48  1  0
  6  2  2  0
  7  5  1  0
  9  4  1  0
  9  8  2  0
 10  8  1  0
 11 16  1  0
 12 13  1  0
 12 11  1  0
 14 13  1  0
 14 21  1  0
 14 15  1  0
 16 10  1  0
 16 15  1  0
 17 10  2  0
 18 19  2  0
 19 38  1  0
 20 19  1  0
 20 23  1  0
 21 22  1  0
 21 18  1  0
 22 20  2  0
 23 24  1  0
 24 25  2  0
 26 29  1  0
 26 25  1  0
 27 26  2  0
 28 27  1  0
 28 23  2  0
 29 30  1  0
 30 31  1  0
 31 32  2  0
 33 32  1  0
 33 37  1  0
 34 33  2  0
 35 30  2  0
 35 34  1  0
 36 35  1  0
 38 39  1  0
 39 42  1  0
 39 41  1  0
 40 38  2  0
 43 44  1  0
 43 18  1  0
 45 43  1  0
 46  9  1  0
 47 46  1  0
 49 60  2  0
 50 48  1  0
 50 55  1  0
 51 59  1  0
 51 61  1  0
 52 58  1  0
 52 54  1  0
 53 59  1  0
 54 55  2  0
 54 53  1  0
 56 50  2  0
 57 56  1  0
 57 52  2  0
 58 51  1  0
 59 49  1  0
 61 63  2  0
 62 61  1  0
 64 62  1  0
 65 74  2  0
 65 70  1  0
 66 62  1  0
 66 70  1  0
 67 66  1  0
 68 69  1  0
 68 67  1  0
 69 65  1  0
 70 71  2  0
 71 72  1  0
 73 72  2  0
 74 73  1  0
 75 49  1  0
 75 76  1  0
 75 85  1  0
 76 79  1  0
 77 81  1  0
 77 76  1  0
 78 77  2  0
 81 80  1  0
 83 84  1  0
 83 81  1  0
 83 82  1  0
 85 88  1  1
 85 86  1  0
 87 85  1  0
M  ISO  4   6 101   8 100  10 100  48 101
M  END
>  <TORSDO>  (72) 
F 18

>  <SCORE>  (72) 
-15.672

>  <name>  (72) 
71

>  <ligand_id>  (72) 
71

>  <original_smiles>  (72) 
[H]OC(=C([H])C(=O)N1C([H])([H])C([H])([H])C([H])([H])C([H])(n2nc(-c3c([H])c([H])c(Oc4c([H])c([H])c(F)c([H])c4F)c([H])c3[H])c(C(=O)N([H])[H])c2N([H])[H])C1([H])[H])c1c([H])c([H])c(Oc2c([H])c([H])c3c(c2[H])C([H])([H])N(C(=O)C([H])(N([H])C(=O)C([H])(N([H])C([H])([H])[H])C([H])([H])[H])C(C([H])([H])[H])(C([H])([H])[H])C([H])([H])[H])C([H])(C(=O)N([H])C2([H])c4c([H])c([H])c([H])c([H])c4C([H])([H])C([H])([H])C2([H])[H])C3([H])[H])c(C([H])([H])[H])c1[H]

>  <smiles>  (72) 
[H]OC(=C([H])C(=O)N1C([H])([H])C([H])([H])C([H])([H])C([H])(n2nc(-c3c([H])c([H])c(Oc4c([H])c([H])c(F)c([H])c4F)c([H])c3[H])c(C(=O)N([H])[H])c2N([H])[H])C1([H])[H])c1c([H])c([H])c(Oc2c([H])c([H])c3c(c2[H])C([H])([H])N(C(=O)C([H])(N([H])C(=O)C([H])(N([H])C([H])([H])[H])C([H])([H])[H])C(C([H])([H])[H])(C([H])([H])[H])C([H])([H])[H])C([H])(C(=O)N([H])C2([H])c4c([H])c([H])c([H])c([H])c4C([H])([H])C([H])([H])C2([H])[H])C3([H])[H])c(C([H])([H])[H])c1[H]

$$$$
72:0:0
     RDKit          3D

 89 97  0  0  1  0  0  0  0  0999 V2000
  -29.8910  -18.9570   18.3730 C   0  0  0  0  0  2  0  0  0  0  0  0
  -28.6350  -18.5630   17.8530 C   0  0  0  0  0  2  0  0  0  0  0  0
  -29.6290  -17.2300   19.9970 C   0  0  0  0  0  3  0  0  0  0  0  0
  -29.9600  -18.8020   19.7660 C   0  0  0  0  0  3  0  0  0  0  0  0
  -27.6990  -17.9520   18.7370 C   0  0  0  0  0  3  0  0  0  0  0  0
  -28.2220  -17.2810   19.8970 C   0  0  0  0  0  3  0  0  0  0  0  0
  -27.4040  -16.9660   21.1430 C   0  0  0  0  0  1  0  0  0  0  0  0
  -30.3560  -15.6370   19.6670 C   0  0  0  0  0  0  0  0  0  0  0  0
  -30.3430  -13.1120   18.7780 C   0  0  0  0  0  2  0  0  0  0  0  0
  -29.3260  -12.7920   17.6430 C   0  0  0  0  0  2  0  0  0  0  0  0
  -27.9390  -12.4510   18.2110 C   0  0  0  0  0  2  0  0  0  0  0  0
  -27.5600  -13.4060   19.3650 C   0  0  0  0  0  3  0  0  0  0  0  0
  -28.7080  -13.6240   20.3790 C   0  0  0  0  0  2  0  0  0  0  0  0
  -29.8350  -14.2630   19.6570 N   0  0  0  0  0  0  0  0  0  0  0  0
  -31.5450  -15.5720   19.2970 O   0  0  0  0  0  0  0  0  0  0  0  0
  -25.2750  -13.9090   20.3610 C   0  0  0  0  0  0  0  0  0  0  0  0
  -24.2530  -13.1380   20.8170 C   0  0  0  0  0  0  0  0  0  0  0  0
  -24.7040  -11.7920   20.6890 C   0  0  0  0  0  0  0  0  0  0  0  0
  -26.2930  -13.0520   19.9960 N   0  0  0  0  0  0  0  0  0  0  0  0
  -25.9630  -11.7590   20.2530 N   0  0  0  0  0  0  0  0  0  0  0  0
  -23.9750  -10.5380   20.8990 C   0  0  0  0  0  0  0  0  0  0  0  0
  -24.4280   -9.5660   21.8170 C   0  0  0  0  0  3  0  0  0  0  0  0
  -23.6920   -8.3800   22.0180 C   0  0  0  0  0  3  0  0  0  0  0  0
  -22.4900   -8.1590   21.3030 C   0  0  0  0  0  0  0  0  0  0  0  0
  -22.0560   -9.1220   20.3740 C   0  0  0  0  0  3  0  0  0  0  0  0
  -22.7920  -10.2990   20.1710 C   0  0  0  0  0  3  0  0  0  0  0  0
  -21.7240   -7.0250   21.4170 O   0  0  0  0  0  0  0  0  0  0  0  0
  -21.6690   -6.3100   22.5850 C   0  0  0  0  0  0  0  0  0  0  0  0
  -21.1610   -6.8710   23.7780 C   0  0  0  0  0  3  0  0  0  0  0  0
  -21.0570   -6.0800   24.9390 C   0  0  0  0  0  3  0  0  0  0  0  0
  -21.4500   -4.7290   24.9090 C   0  0  0  0  0  0  0  0  0  0  0  0
  -21.9520   -4.1680   23.7210 C   0  0  0  0  0  3  0  0  0  0  0  0
  -22.0590   -4.9560   22.5630 C   0  0  0  0  0  0  0  0  0  0  0  0
  -22.5230   -4.4050   21.4150 F   0  0  0  0  0  0  0  0  0  0  0  0
  -21.3430   -3.9660   26.0210 F   0  0  0  0  0  0  0  0  0  0  0  0
  -22.8990  -13.6320   21.2380 C   0  0  0  0  0  0  0  0  0  0  0  0
  -22.2570  -12.9350   22.1670 N   0  0  0  0  0  0  0  0  0  0  0  0
  -22.4280  -14.6750   20.7830 O   0  0  0  0  0  0  0  0  0  0  0  0
  -22.6560  -12.0940   22.5570 H   0  0  0  0  0  0  0  0  0  0  0  0
  -21.3540  -13.2490   22.4950 H   0  0  0  0  0  0  0  0  0  0  0  0
  -25.3950  -15.2680   20.1940 N   0  0  0  0  0  0  0  0  0  0  0  0
  -24.6270  -15.8940   20.4090 H   0  0  0  0  0  0  0  0  0  0  0  0
  -26.2130  -15.7380   19.8280 H   0  0  0  0  0  0  0  0  0  0  0  0
  -25.8660  -19.6770   18.2250 C   0  0  0  0  0  1  0  0  0  0  0  0
  -26.2150  -18.2010   18.4780 C   0  0  0  0  0  2  0  0  0  0  0  0
  -29.2980  -20.3900   20.4370 C   0  0  0  0  0  2  0  0  0  0  0  0
  -29.3460  -22.2750   20.0800 C   0  0  0  0  0  3  0  0  0  0  0  0
  -28.3470  -23.8780   20.4300 C   0  0  0  0  0  3  0  0  0  0  0  0
  -28.4410  -25.6140   20.3270 O   0  0  0  0  0  0  0  0  0  0  0  0
  -24.6330  -31.7660   23.0850 C   0  0  0  0  0  0  0  0  0  0  0  0
  -27.3940  -26.7470   20.2700 C   0  0  0  0  0  0  0  0  0  0  0  0
  -23.5220  -30.3000   21.4520 C   0  0  0  0  0  3  0  0  0  0  0  0
  -25.0510  -28.6680   20.1160 C   0  0  0  0  0  0  0  0  0  0  0  0
  -26.0950  -30.5300   21.3810 C   0  0  0  0  0  2  0  0  0  0  0  0
  -26.2190  -29.0900   20.7610 C   0  0  0  0  0  0  0  0  0  0  0  0
  -27.3770  -28.1570   20.8010 C   0  0  0  0  0  3  0  0  0  0  0  0
  -26.1800  -26.5150   19.5750 C   0  0  0  0  0  3  0  0  0  0  0  0
  -25.0660  -27.4050   19.5000 C   0  0  0  0  0  3  0  0  0  0  0  0
  -23.8130  -29.5790   20.1050 C   0  0  0  0  0  2  0  0  0  0  0  0
  -24.7710  -30.8990   22.0260 N   0  0  0  0  0  0  0  0  0  0  0  0
  -23.5210  -32.0450   23.5650 O   0  0  0  0  0  0  0  0  0  0  0  0
  -22.8120  -29.3240   22.4280 C   0  0  0  0  0  0  0  0  0  0  0  0
  -21.4790  -29.1680   22.3070 N   0  0  0  0  0  0  0  0  0  0  0  0
  -23.4710  -28.7030   23.2650 O   0  0  0  0  0  0  0  0  0  0  0  0
  -20.9970  -29.7190   21.6090 H   0  0  0  0  0  0  0  0  0  0  0  0
  -18.0820  -28.0230   22.8960 C   0  0  0  0  0  0  0  0  0  0  0  0
  -20.6550  -28.2350   23.0830 C   0  0  0  0  0  3  0  0  0  0  0  0
  -20.7080  -26.8120   22.4780 C   0  0  0  0  0  2  0  0  0  0  0  0
  -19.5690  -26.5330   21.4920 C   0  0  0  0  0  2  0  0  0  0  0  0
  -18.2100  -26.6890   22.1810 C   0  0  0  0  0  2  0  0  0  0  0  0
  -19.2280  -28.7560   23.3050 C   0  0  0  0  0  0  0  0  0  0  0  0
  -19.0490  -30.0040   23.9400 C   0  0  0  0  0  3  0  0  0  0  0  0
  -17.7590  -30.5200   24.1650 C   0  0  0  0  0  3  0  0  0  0  0  0
  -16.6290  -29.7850   23.7680 C   0  0  0  0  0  3  0  0  0  0  0  0
  -16.7910  -28.5380   23.1400 C   0  0  0  0  0  3  0  0  0  0  0  0
  -25.8640  -32.4620   23.7410 C   0  0  0  0  0  3  0  0  0  0  0  0
  -26.3870  -31.7090   25.0270 C   0  0  1  0  0  0  0  0  0  0  0  0
  -25.2820  -31.4010   26.0640 C   0  0  0  0  0  1  0  0  0  0  0  0
  -27.0590  -30.3690   24.6510 C   0  0  0  0  0  1  0  0  0  0  0  0
  -27.4730  -32.5600   25.7270 C   0  0  0  0  0  1  0  0  0  0  0  0
  -25.4780  -33.8420   24.0920 N   0  0  0  0  0  0  0  0  0  0  0  0
  -25.7520  -34.9310   23.3590 C   0  0  0  0  0  0  0  0  0  0  0  0
  -26.4130  -34.8810   22.3200 O   0  0  0  0  0  0  0  0  0  0  0  0
  -24.8830  -33.9500   24.9000 H   0  0  0  0  0  0  0  0  0  0  0  0
  -23.9280  -36.6490   23.0860 C   0  0  0  0  0  1  0  0  0  0  0  0
  -25.2100  -36.2890   23.8550 C   0  0  0  0  0  3  0  0  0  0  0  0
  -27.3070  -37.2850   24.6600 C   0  0  0  0  0  1  0  0  0  0  0  0
  -26.1850  -37.3960   23.7310 N   0  0  0  0  0  0  0  0  0  0  0  0
  -25.7340  -38.2920   23.8850 H   0  0  0  0  0  0  0  0  0  0  0  0
  1  4  1  0
  2  1  1  0
  2  5  1  0
  3  8  1  0
  4  3  1  0
  4 46  1  0
  5 45  1  0
  5  6  1  0
  6  3  1  0
  6  7  1  0
  9 14  1  0
 10 11  1  0
 10  9  1  0
 12 11  1  0
 12 19  1  0
 12 13  1  0
 14  8  1  0
 14 13  1  0
 15  8  2  0
 16 17  2  0
 17 36  1  0
 18 17  1  0
 18 21  1  0
 19 20  1  0
 19 16  1  0
 20 18  2  0
 21 22  1  0
 22 23  2  0
 24 27  1  0
 24 23  1  0
 25 24  2  0
 26 25  1  0
 26 21  2  0
 27 28  1  0
 28 29  1  0
 29 30  2  0
 31 30  1  0
 31 35  1  0
 32 31  2  0
 33 28  2  0
 33 32  1  0
 34 33  1  0
 36 37  1  0
 37 40  1  0
 37 39  1  0
 38 36  2  0
 41 16  1  0
 41 42  1  0
 43 41  1  0
 44 45  1  0
 47 48  2  0
 47 46  1  0
 49 48  1  0
 50 61  2  0
 51 49  1  0
 51 56  1  0
 52 60  1  0
 52 62  1  0
 53 55  1  0
 54 60  1  0
 55 56  2  0
 55 54  1  0
 57 51  2  0
 58 57  1  0
 58 53  2  0
 59 53  1  0
 59 52  1  0
 60 50  1  0
 62 64  2  0
 63 62  1  0
 65 63  1  0
 66 75  2  0
 66 71  1  0
 67 63  1  0
 67 71  1  0
 68 67  1  0
 69 70  1  0
 69 68  1  0
 70 66  1  0
 71 72  2  0
 72 73  1  0
 74 73  2  0
 75 74  1  0
 76 50  1  0
 76 81  1  0
 76 77  1  0
 77 80  1  1
 77 78  1  0
 79 77  1  0
 81 84  1  0
 82 86  1  0
 82 81  1  0
 83 82  2  0
 86 85  1  0
 88 86  1  0
 88 89  1  0
 88 87  1  0
M  ISO  4   3 100   8 100  48 101  49 101
M  END
>  <TORSDO>  (73) 
F 20

>  <SCORE>  (73) 
-13.446

>  <name>  (73) 
72

>  <ligand_id>  (73) 
72

>  <original_smiles>  (73) 
[H]c1c([H])c([H])c2c(c1[H])C([H])([H])C([H])([H])C([H])([H])C2([H])N([H])C(=O)C1([H])N(C(=O)C([H])(N([H])C(=O)C([H])(N([H])C([H])([H])[H])C([H])([H])[H])C(C([H])([H])[H])(C([H])([H])[H])C([H])([H])[H])C([H])([H])c2c([H])c(OC([H])([H])C([H])([H])C([H])([H])c3c([H])c([H])c(C([H])([H])C([H])([H])[H])c(C([H])([H])[H])c3C(=O)N3C([H])([H])C([H])([H])C([H])([H])C([H])(n4nc(-c5c([H])c([H])c(Oc6c([H])c([H])c(F)c([H])c6F)c([H])c5[H])c(C(=O)N([H])[H])c4N([H])[H])C3([H])[H])c([H])c([H])c2C1([H])[H]

>  <smiles>  (73) 
[H]c1c([H])c([H])c2c(c1[H])C([H])([H])C([H])([H])C([H])([H])C2([H])N([H])C(=O)C1([H])N(C(=O)C([H])(N([H])C(=O)C([H])(N([H])C([H])([H])[H])C([H])([H])[H])C(C([H])([H])[H])(C([H])([H])[H])C([H])([H])[H])C([H])([H])c2c([H])c(OC([H])([H])C([H])([H])C([H])([H])c3c([H])c([H])c(C([H])([H])C([H])([H])[H])c(C([H])([H])[H])c3C(=O)N3C([H])([H])C([H])([H])C([H])([H])C([H])(n4nc(-c5c([H])c([H])c(Oc6c([H])c([H])c(F)c([H])c6F)c([H])c5[H])c(C(=O)N([H])[H])c4N([H])[H])C3([H])[H])c([H])c([H])c2C1([H])[H]

$$$$
73:0:0
     RDKit          3D

 89 97  0  0  1  0  0  0  0  0999 V2000
  -28.0220  -18.9870   19.4130 C   0  0  0  0  0  3  0  0  0  0  0  0
  -27.1790  -20.0420   19.0150 C   0  0  0  0  0  3  0  0  0  0  0  0
  -29.5740  -20.6660   20.2110 C   0  0  0  0  0  3  0  0  0  0  0  0
  -29.2610  -19.2220   20.0310 C   0  0  0  0  0  0  0  0  0  0  0  0
  -28.6900  -21.8160   19.8530 C   0  0  0  0  0  0  0  0  0  0  0  0
  -27.4860  -21.4050   19.2200 C   0  0  0  0  0  0  0  0  0  0  0  0
  -26.5730  -22.2940   18.7410 O   0  0  0  0  0  0  0  0  0  0  0  0
  -25.8910  -21.8610   18.2310 H   0  0  0  0  0  0  0  0  0  0  0  0
  -30.1780  -17.8990   20.3580 C   0  0  0  0  0  3  0  0  0  0  0  0
  -29.6080  -16.3220   20.3950 C   0  0  0  0  0  3  0  0  0  0  0  0
  -30.5110  -14.9430   20.3480 C   0  0  0  0  0  0  0  0  0  0  0  0
  -30.4050  -12.6190   19.3750 C   0  0  0  0  0  2  0  0  0  0  0  0
  -29.4630  -12.6270   18.1450 C   0  0  0  0  0  2  0  0  0  0  0  0
  -28.0040  -12.4210   18.5860 C   0  0  0  0  0  2  0  0  0  0  0  0
  -27.6030  -13.3140   19.7870 C   0  0  0  0  0  3  0  0  0  0  0  0
  -28.6620  -13.2990   20.9110 C   0  0  0  0  0  2  0  0  0  0  0  0
  -29.9520  -13.6750   20.3190 N   0  0  0  0  0  0  0  0  0  0  0  0
  -31.7180  -15.0410   20.1110 O   0  0  0  0  0  0  0  0  0  0  0  0
  -25.2160  -13.8660   20.5310 C   0  0  0  0  0  0  0  0  0  0  0  0
  -24.1540  -13.0880   20.8900 C   0  0  0  0  0  0  0  0  0  0  0  0
  -24.6280  -11.7410   20.8530 C   0  0  0  0  0  0  0  0  0  0  0  0
  -26.2660  -13.0000   20.2800 N   0  0  0  0  0  0  0  0  0  0  0  0
  -25.9220  -11.7160   20.5520 N   0  0  0  0  0  0  0  0  0  0  0  0
  -23.9080  -10.4740   21.0390 C   0  0  0  0  0  0  0  0  0  0  0  0
  -24.3420   -9.5030   21.9680 C   0  0  0  0  0  3  0  0  0  0  0  0
  -23.6270   -8.2980   22.1380 C   0  0  0  0  0  3  0  0  0  0  0  0
  -22.4560   -8.0610   21.3810 C   0  0  0  0  0  0  0  0  0  0  0  0
  -22.0330   -9.0200   20.4480 C   0  0  0  0  0  3  0  0  0  0  0  0
  -22.7510  -10.2150   20.2750 C   0  0  0  0  0  3  0  0  0  0  0  0
  -21.7080   -6.9120   21.4630 O   0  0  0  0  0  0  0  0  0  0  0  0
  -21.6560   -6.1670   22.6090 C   0  0  0  0  0  0  0  0  0  0  0  0
  -21.2080   -6.7060   23.8350 C   0  0  0  0  0  3  0  0  0  0  0  0
  -21.1020   -5.8810   24.9710 C   0  0  0  0  0  3  0  0  0  0  0  0
  -21.4490   -4.5180   24.8920 C   0  0  0  0  0  0  0  0  0  0  0  0
  -21.8950   -3.9830   23.6720 C   0  0  0  0  0  3  0  0  0  0  0  0
  -21.9940   -4.8010   22.5360 C   0  0  0  0  0  0  0  0  0  0  0  0
  -22.4120   -4.2720   21.3600 F   0  0  0  0  0  0  0  0  0  0  0  0
  -21.3470   -3.7280   25.9830 F   0  0  0  0  0  0  0  0  0  0  0  0
  -22.7520  -13.5500   21.1540 C   0  0  0  0  0  0  0  0  0  0  0  0
  -22.0220  -12.8570   22.0180 N   0  0  0  0  0  0  0  0  0  0  0  0
  -22.3080  -14.5750   20.6290 O   0  0  0  0  0  0  0  0  0  0  0  0
  -22.3790  -12.0290   22.4740 H   0  0  0  0  0  0  0  0  0  0  0  0
  -21.0900  -13.1750   22.2320 H   0  0  0  0  0  0  0  0  0  0  0  0
  -25.3810  -15.2360   20.3750 N   0  0  0  0  0  0  0  0  0  0  0  0
  -24.6540  -15.9110   20.5830 H   0  0  0  0  0  0  0  0  0  0  0  0
  -26.2650  -15.6620   20.1180 H   0  0  0  0  0  0  0  0  0  0  0  0
  -29.0290  -23.4340   20.0310 C   0  0  0  0  0  3  0  0  0  0  0  0
  -27.9410  -24.7060   20.1460 C   0  0  0  0  0  3  0  0  0  0  0  0
  -28.2400  -26.2290   20.2190 O   0  0  0  0  0  0  0  0  0  0  0  0
  -24.6270  -31.8980   23.2560 C   0  0  0  0  0  0  0  0  0  0  0  0
  -27.1750  -27.1950   20.1900 C   0  0  0  0  0  0  0  0  0  0  0  0
  -23.4200  -30.5080   21.6180 C   0  0  0  0  0  3  0  0  0  0  0  0
  -24.8570  -28.9450   20.1820 C   0  0  0  0  0  0  0  0  0  0  0  0
  -25.9790  -30.7650   21.4590 C   0  0  0  0  0  2  0  0  0  0  0  0
  -26.0380  -29.3800   20.7950 C   0  0  0  0  0  0  0  0  0  0  0  0
  -27.2000  -28.5230   20.7760 C   0  0  0  0  0  3  0  0  0  0  0  0
  -25.9570  -26.8580   19.5570 C   0  0  0  0  0  3  0  0  0  0  0  0
  -24.8300  -27.6990   19.5450 C   0  0  0  0  0  3  0  0  0  0  0  0
  -23.6330  -29.8390   20.2330 C   0  0  0  0  0  2  0  0  0  0  0  0
  -24.6950  -31.0820   22.1620 N   0  0  0  0  0  0  0  0  0  0  0  0
  -23.5420  -32.1880   23.7810 O   0  0  0  0  0  0  0  0  0  0  0  0
  -22.7430  -29.4990   22.5780 C   0  0  0  0  0  0  0  0  0  0  0  0
  -21.4180  -29.3200   22.4460 N   0  0  0  0  0  0  0  0  0  0  0  0
  -23.4130  -28.8830   23.4110 O   0  0  0  0  0  0  0  0  0  0  0  0
  -20.9410  -29.8660   21.7440 H   0  0  0  0  0  0  0  0  0  0  0  0
  -18.0350  -28.1160   22.9250 C   0  0  0  0  0  0  0  0  0  0  0  0
  -20.5910  -28.3870   23.2160 C   0  0  0  0  0  3  0  0  0  0  0  0
  -20.7040  -26.9520   22.6520 C   0  0  0  0  0  2  0  0  0  0  0  0
  -19.6120  -26.6180   21.6300 C   0  0  0  0  0  2  0  0  0  0  0  0
  -18.2240  -26.7630   22.2590 C   0  0  0  0  0  2  0  0  0  0  0  0
  -19.1480  -28.8850   23.3590 C   0  0  0  0  0  0  0  0  0  0  0  0
  -18.9190  -30.1490   23.9430 C   0  0  0  0  0  3  0  0  0  0  0  0
  -17.6110  -30.6460   24.0960 C   0  0  0  0  0  3  0  0  0  0  0  0
  -16.5130  -29.8730   23.6800 C   0  0  0  0  0  3  0  0  0  0  0  0
  -16.7260  -28.6110   23.1000 C   0  0  0  0  0  3  0  0  0  0  0  0
  -25.9100  -32.5280   23.8820 C   0  0  0  0  0  3  0  0  0  0  0  0
  -25.6030  -33.9310   24.1990 N   0  0  0  0  0  0  0  0  0  0  0  0
  -25.9280  -34.9810   23.4320 C   0  0  0  0  0  0  0  0  0  0  0  0
  -26.5910  -34.8740   22.3980 O   0  0  0  0  0  0  0  0  0  0  0  0
  -25.0080  -34.0910   24.9980 H   0  0  0  0  0  0  0  0  0  0  0  0
  -24.1990  -36.7830   23.0940 C   0  0  0  0  0  1  0  0  0  0  0  0
  -25.4490  -36.3750   23.8890 C   0  0  0  0  0  3  0  0  0  0  0  0
  -27.5920  -37.2680   24.6980 C   0  0  0  0  0  1  0  0  0  0  0  0
  -26.4810  -37.4290   23.7610 N   0  0  0  0  0  0  0  0  0  0  0  0
  -26.0750  -38.3490   23.9030 H   0  0  0  0  0  0  0  0  0  0  0  0
  -26.4110  -31.7670   25.1730 C   0  0  1  0  0  0  0  0  0  0  0  0
  -25.3060  -31.5450   26.2310 C   0  0  0  0  0  1  0  0  0  0  0  0
  -26.9850  -30.3790   24.8050 C   0  0  0  0  0  1  0  0  0  0  0  0
  -27.5600  -32.5620   25.8360 C   0  0  0  0  0  1  0  0  0  0  0  0
  1  4  1  0
  2  6  1  0
  2  1  2  0
  4  3  2  0
  4  9  1  0
  5 47  1  0
  5  3  1  0
  6  5  2  0
  7  6  1  0
  8  7  1  0
  9 10  2  0
 11 10  1  0
 12 17  1  0
 13 14  1  0
 13 12  1  0
 15 14  1  0
 15 22  1  0
 15 16  1  0
 17 11  1  0
 17 16  1  0
 18 11  2  0
 19 20  2  0
 20 39  1  0
 21 20  1  0
 21 24  1  0
 22 19  1  0
 22 23  1  0
 23 21  2  0
 24 25  1  0
 25 26  2  0
 27 30  1  0
 27 26  1  0
 28 27  2  0
 29 28  1  0
 29 24  2  0
 30 31  1  0
 31 32  1  0
 32 33  2  0
 34 33  1  0
 34 38  1  0
 35 34  2  0
 36 31  2  0
 36 35  1  0
 37 36  1  0
 39 40  1  0
 40 43  1  0
 40 42  1  0
 41 39  2  0
 44 19  1  0
 44 45  1  0
 46 44  1  0
 47 48  2  0
 48 49  1  0
 50 61  2  0
 51 49  1  0
 51 56  1  0
 52 60  1  0
 52 62  1  0
 53 59  1  0
 53 55  1  0
 54 60  1  0
 55 54  1  0
 56 55  2  0
 57 51  2  0
 58 57  1  0
 58 53  2  0
 59 52  1  0
 60 50  1  0
 62 64  2  0
 63 62  1  0
 65 63  1  0
 66 75  2  0
 66 71  1  0
 67 63  1  0
 67 71  1  0
 68 67  1  0
 69 70  1  0
 69 68  1  0
 70 66  1  0
 71 72  2  0
 72 73  1  0
 74 73  2  0
 75 74  1  0
 76 50  1  0
 76 77  1  0
 76 86  1  0
 77 80  1  0
 78 82  1  0
 78 77  1  0
 79 78  2  0
 82 81  1  0
 84 82  1  0
 84 85  1  0
 84 83  1  0
 86 89  1  1
 86 87  1  0
 88 86  1  0
M  ISO  4  10 100  11 100  48 101  49 101
M  END
>  <TORSDO>  (74) 
F 21

>  <SCORE>  (74) 
-13.657

>  <name>  (74) 
73

>  <ligand_id>  (74) 
73

>  <original_smiles>  (74) 
[H]Oc1c([H])c([H])c(C([H])([H])C([H])([H])C(=O)N2C([H])([H])C([H])([H])C([H])([H])C([H])(n3nc(-c4c([H])c([H])c(Oc5c([H])c([H])c(F)c([H])c5F)c([H])c4[H])c(C(=O)N([H])[H])c3N([H])[H])C2([H])[H])c([H])c1C([H])([H])C([H])([H])Oc1c([H])c([H])c2c(c1[H])C([H])([H])N(C(=O)C([H])(N([H])C(=O)C([H])(N([H])C([H])([H])[H])C([H])([H])[H])C(C([H])([H])[H])(C([H])([H])[H])C([H])([H])[H])C([H])(C(=O)N([H])C1([H])c3c([H])c([H])c([H])c([H])c3C([H])([H])C([H])([H])C1([H])[H])C2([H])[H]

>  <smiles>  (74) 
[H]Oc1c([H])c([H])c(C([H])([H])C([H])([H])C(=O)N2C([H])([H])C([H])([H])C([H])([H])C([H])(n3nc(-c4c([H])c([H])c(Oc5c([H])c([H])c(F)c([H])c5F)c([H])c4[H])c(C(=O)N([H])[H])c3N([H])[H])C2([H])[H])c([H])c1C([H])([H])C([H])([H])Oc1c([H])c([H])c2c(c1[H])C([H])([H])N(C(=O)C([H])(N([H])C(=O)C([H])(N([H])C([H])([H])[H])C([H])([H])[H])C(C([H])([H])[H])(C([H])([H])[H])C([H])([H])[H])C([H])(C(=O)N([H])C1([H])c3c([H])c([H])c([H])c([H])c3C([H])([H])C([H])([H])C1([H])[H])C2([H])[H]

$$$$
74:0:0
     RDKit          3D

 91 99  0  0  1  0  0  0  0  0999 V2000
  -28.7180  -22.8770   20.9520 C   0  0  0  0  0  3  0  0  0  0  0  0
  -28.8990  -23.2450   18.5810 C   0  0  0  0  0  3  0  0  0  0  0  0
  -28.4820  -24.2770   21.1340 C   0  0  0  0  0  3  0  0  0  0  0  0
  -28.6630  -24.6350   18.7620 C   0  0  0  0  0  3  0  0  0  0  0  0
  -28.9550  -22.3240   19.6630 C   0  0  0  0  0  0  0  0  0  0  0  0
  -28.4630  -25.1920   20.0450 C   0  0  0  0  0  0  0  0  0  0  0  0
  -29.3110  -20.8550   19.3650 C   0  0  0  0  0  0  0  0  0  0  0  0
  -29.5980  -20.5180   18.2120 O   0  0  0  0  0  0  0  0  0  0  0  0
  -29.3230  -19.7200   20.4470 C   0  0  0  0  0  3  0  0  0  0  0  0
  -29.8000  -18.2780   19.9360 C   0  0  0  0  0  3  0  0  0  0  0  0
  -30.0200  -15.7110   20.7820 C   0  0  0  0  0  3  0  0  0  0  0  0
  -29.6750  -17.0420   20.8990 C   0  0  0  0  0  0  0  0  0  0  0  0
  -30.7520  -14.6140   20.0820 C   0  0  0  0  0  0  0  0  0  0  0  0
  -30.4270  -12.4320   18.9340 C   0  0  0  0  0  2  0  0  0  0  0  0
  -29.4300  -12.6440   17.7730 C   0  0  0  0  0  2  0  0  0  0  0  0
  -27.9770  -12.4980   18.2670 C   0  0  0  0  0  2  0  0  0  0  0  0
  -27.7020  -13.3120   19.5600 C   0  0  0  0  0  3  0  0  0  0  0  0
  -28.8080  -13.0780   20.6130 C   0  0  0  0  0  2  0  0  0  0  0  0
  -30.0980  -13.4110   19.9890 N   0  0  0  0  0  0  0  0  0  0  0  0
  -31.8720  -14.7510   19.5720 O   0  0  0  0  0  0  0  0  0  0  0  0
  -25.3490  -13.9240   20.3900 C   0  0  0  0  0  0  0  0  0  0  0  0
  -24.2920  -13.1550   20.7980 C   0  0  0  0  0  0  0  0  0  0  0  0
  -24.7400  -11.8000   20.7310 C   0  0  0  0  0  0  0  0  0  0  0  0
  -26.3740  -13.0370   20.1000 N   0  0  0  0  0  0  0  0  0  0  0  0
  -26.0150  -11.7540   20.3640 N   0  0  0  0  0  0  0  0  0  0  0  0
  -24.0120  -10.5420   20.9410 C   0  0  0  0  0  0  0  0  0  0  0  0
  -24.4640   -9.5710   21.8620 C   0  0  0  0  0  3  0  0  0  0  0  0
  -23.7370   -8.3780   22.0580 C   0  0  0  0  0  3  0  0  0  0  0  0
  -22.5430   -8.1470   21.3350 C   0  0  0  0  0  0  0  0  0  0  0  0
  -22.1100   -9.1060   20.4030 C   0  0  0  0  0  3  0  0  0  0  0  0
  -22.8370  -10.2910   20.2040 C   0  0  0  0  0  3  0  0  0  0  0  0
  -21.7850   -7.0060   21.4420 O   0  0  0  0  0  0  0  0  0  0  0  0
  -21.7390   -6.2780   22.6040 C   0  0  0  0  0  0  0  0  0  0  0  0
  -21.3350   -6.8550   23.8280 C   0  0  0  0  0  3  0  0  0  0  0  0
  -21.2340   -6.0540   24.9830 C   0  0  0  0  0  3  0  0  0  0  0  0
  -21.5290   -4.6800   24.9170 C   0  0  0  0  0  0  0  0  0  0  0  0
  -21.9250   -4.1020   23.6980 C   0  0  0  0  0  3  0  0  0  0  0  0
  -22.0280   -4.9000   22.5440 C   0  0  0  0  0  0  0  0  0  0  0  0
  -22.3900   -4.3350   21.3670 F   0  0  0  0  0  0  0  0  0  0  0  0
  -21.4250   -3.9090   26.0240 F   0  0  0  0  0  0  0  0  0  0  0  0
  -22.9140  -13.6410   21.1400 C   0  0  0  0  0  0  0  0  0  0  0  0
  -22.2240  -12.9440   22.0360 N   0  0  0  0  0  0  0  0  0  0  0  0
  -22.4580  -14.6730   20.6480 O   0  0  0  0  0  0  0  0  0  0  0  0
  -22.6050  -12.1090   22.4550 H   0  0  0  0  0  0  0  0  0  0  0  0
  -21.3000  -13.2510   22.3080 H   0  0  0  0  0  0  0  0  0  0  0  0
  -25.5200  -15.2950   20.2230 N   0  0  0  0  0  0  0  0  0  0  0  0
  -24.7730  -15.9600   20.3900 H   0  0  0  0  0  0  0  0  0  0  0  0
  -26.3770  -15.7310   19.9060 H   0  0  0  0  0  0  0  0  0  0  0  0
  -29.1000  -17.4530   22.0370 O   0  0  0  0  0  0  0  0  0  0  0  0
  -29.0290  -16.7020   22.6140 H   0  0  0  0  0  0  0  0  0  0  0  0
  -28.4230  -26.5860   20.2180 O   0  0  0  0  0  0  0  0  0  0  0  0
  -24.6280  -31.8800   23.2440 C   0  0  0  0  0  0  0  0  0  0  0  0
  -27.2520  -27.3410   20.2090 C   0  0  0  0  0  0  0  0  0  0  0  0
  -23.4180  -30.4640   21.6180 C   0  0  0  0  0  3  0  0  0  0  0  0
  -24.8660  -28.9020   20.2010 C   0  0  0  0  0  0  0  0  0  0  0  0
  -25.9490  -30.8000   21.4160 C   0  0  0  0  0  2  0  0  0  0  0  0
  -26.0300  -29.4170   20.7870 C   0  0  0  0  0  0  0  0  0  0  0  0
  -27.2230  -28.6440   20.7850 C   0  0  0  0  0  3  0  0  0  0  0  0
  -26.0680  -26.8610   19.6090 C   0  0  0  0  0  3  0  0  0  0  0  0
  -24.8840  -27.6280   19.6070 C   0  0  0  0  0  3  0  0  0  0  0  0
  -23.6260  -29.7700   20.2440 C   0  0  0  0  0  2  0  0  0  0  0  0
  -24.6840  -31.0650   22.1490 N   0  0  0  0  0  0  0  0  0  0  0  0
  -23.5470  -32.1580   23.7830 O   0  0  0  0  0  0  0  0  0  0  0  0
  -22.7660  -29.4530   22.5910 C   0  0  0  0  0  0  0  0  0  0  0  0
  -21.4410  -29.2690   22.4680 N   0  0  0  0  0  0  0  0  0  0  0  0
  -23.4510  -28.8390   23.4130 O   0  0  0  0  0  0  0  0  0  0  0  0
  -20.9490  -29.8180   21.7770 H   0  0  0  0  0  0  0  0  0  0  0  0
  -18.0730  -28.0550   22.9690 C   0  0  0  0  0  0  0  0  0  0  0  0
  -20.6270  -28.3360   23.2480 C   0  0  0  0  0  3  0  0  0  0  0  0
  -20.7430  -26.8980   22.6930 C   0  0  0  0  0  2  0  0  0  0  0  0
  -19.6480  -26.5530   21.6770 C   0  0  0  0  0  2  0  0  0  0  0  0
  -18.2620  -26.6980   22.3130 C   0  0  0  0  0  2  0  0  0  0  0  0
  -19.1840  -28.8310   23.3940 C   0  0  0  0  0  0  0  0  0  0  0  0
  -18.9520  -30.1010   23.9660 C   0  0  0  0  0  3  0  0  0  0  0  0
  -17.6430  -30.5940   24.1190 C   0  0  0  0  0  3  0  0  0  0  0  0
  -16.5470  -29.8150   23.7120 C   0  0  0  0  0  3  0  0  0  0  0  0
  -16.7630  -28.5480   23.1420 C   0  0  0  0  0  3  0  0  0  0  0  0
  -25.9140  -32.5180   23.8550 C   0  0  0  0  0  3  0  0  0  0  0  0
  -25.6030  -33.9170   24.1810 N   0  0  0  0  0  0  0  0  0  0  0  0
  -25.9330  -34.9680   23.4190 C   0  0  0  0  0  0  0  0  0  0  0  0
  -26.6010  -34.8620   22.3870 O   0  0  0  0  0  0  0  0  0  0  0  0
  -25.0080  -34.0730   24.9830 H   0  0  0  0  0  0  0  0  0  0  0  0
  -24.1990  -36.7560   23.0630 C   0  0  0  0  0  1  0  0  0  0  0  0
  -25.4430  -36.3570   23.8720 C   0  0  0  0  0  3  0  0  0  0  0  0
  -27.5800  -37.2470   24.6920 C   0  0  0  0  0  1  0  0  0  0  0  0
  -26.4740  -37.4120   23.7530 N   0  0  0  0  0  0  0  0  0  0  0  0
  -26.0670  -38.3320   23.8990 H   0  0  0  0  0  0  0  0  0  0  0  0
  -26.4400  -31.7540   25.1310 C   0  0  1  0  0  0  0  0  0  0  0  0
  -25.3550  -31.5180   26.2080 C   0  0  0  0  0  1  0  0  0  0  0  0
  -27.0240  -30.3770   24.7410 C   0  0  0  0  0  1  0  0  0  0  0  0
  -27.5940  -32.5540   25.7830 C   0  0  0  0  0  1  0  0  0  0  0  0
  1  3  1  0
  2  4  2  0
  2  5  1  0
  4  6  1  0
  5  1  2  0
  6 51  1  0
  6  3  2  0
  7  5  1  0
  7  9  1  0
  8  7  2  0
 10  9  2  0
 10 12  1  0
 11 12  2  0
 12 49  1  0
 13 11  1  0
 14 19  1  0
 15 16  1  0
 15 14  1  0
 17 16  1  0
 17 24  1  0
 17 18  1  0
 19 13  1  0
 19 18  1  0
 20 13  2  0
 21 22  2  0
 22 41  1  0
 23 22  1  0
 23 26  1  0
 24 25  1  0
 24 21  1  0
 25 23  2  0
 26 27  1  0
 27 28  2  0
 29 32  1  0
 29 28  1  0
 30 29  2  0
 31 30  1  0
 31 26  2  0
 32 33  1  0
 33 34  1  0
 34 35  2  0
 36 35  1  0
 36 40  1  0
 37 36  2  0
 38 33  2  0
 38 37  1  0
 39 38  1  0
 41 42  1  0
 42 45  1  0
 42 44  1  0
 43 41  2  0
 46 21  1  0
 46 47  1  0
 48 46  1  0
 49 50  1  0
 52 63  2  0
 53 51  1  0
 53 58  1  0
 54 62  1  0
 54 64  1  0
 55 61  1  0
 55 57  1  0
 56 62  1  0
 57 56  1  0
 58 57  2  0
 59 53  2  0
 60 59  1  0
 60 55  2  0
 61 54  1  0
 62 52  1  0
 64 66  2  0
 65 64  1  0
 67 65  1  0
 68 77  2  0
 68 73  1  0
 69 65  1  0
 69 73  1  0
 70 69  1  0
 71 72  1  0
 71 70  1  0
 72 68  1  0
 73 74  2  0
 74 75  1  0
 76 75  2  0
 77 76  1  0
 78 52  1  0
 78 79  1  0
 78 88  1  0
 79 82  1  0
 80 84  1  0
 80 79  1  0
 81 80  2  0
 84 83  1  0
 86 84  1  0
 86 87  1  0
 86 85  1  0
 88 91  1  1
 88 89  1  0
 90 88  1  0
M  ISO  4   6 101  11 100  13 100  51 101
M  END
>  <TORSDO>  (75) 
F 21

>  <SCORE>  (75) 
-13.311

>  <name>  (75) 
74

>  <ligand_id>  (75) 
74

>  <original_smiles>  (75) 
[H]OC(=C([H])C(=O)N1C([H])([H])C([H])([H])C([H])([H])C([H])(n2nc(-c3c([H])c([H])c(Oc4c([H])c([H])c(F)c([H])c4F)c([H])c3[H])c(C(=O)N([H])[H])c2N([H])[H])C1([H])[H])C([H])([H])C([H])([H])C(=O)c1c([H])c([H])c(Oc2c([H])c([H])c3c(c2[H])C([H])([H])N(C(=O)C([H])(N([H])C(=O)C([H])(N([H])C([H])([H])[H])C([H])([H])[H])C(C([H])([H])[H])(C([H])([H])[H])C([H])([H])[H])C([H])(C(=O)N([H])C2([H])c4c([H])c([H])c([H])c([H])c4C([H])([H])C([H])([H])C2([H])[H])C3([H])[H])c([H])c1[H]

>  <smiles>  (75) 
[H]OC(=C([H])C(=O)N1C([H])([H])C([H])([H])C([H])([H])C([H])(n2nc(-c3c([H])c([H])c(Oc4c([H])c([H])c(F)c([H])c4F)c([H])c3[H])c(C(=O)N([H])[H])c2N([H])[H])C1([H])[H])C([H])([H])C([H])([H])C(=O)c1c([H])c([H])c(Oc2c([H])c([H])c3c(c2[H])C([H])([H])N(C(=O)C([H])(N([H])C(=O)C([H])(N([H])C([H])([H])[H])C([H])([H])[H])C(C([H])([H])[H])(C([H])([H])[H])C([H])([H])[H])C([H])(C(=O)N([H])C2([H])c4c([H])c([H])c([H])c([H])c4C([H])([H])C([H])([H])C2([H])[H])C3([H])[H])c([H])c1[H]

$$$$
75:0:0
     RDKit          3D

 89 97  0  0  1  0  0  0  0  0999 V2000
  -28.0190  -24.0290   19.8110 C   0  0  0  0  0  3  0  0  0  0  0  0
  -29.6400  -23.3910   21.2110 C   0  0  0  0  0  3  0  0  0  0  0  0
  -28.7280  -22.8640   20.3310 C   0  0  0  0  0  0  0  0  0  0  0  0
  -28.5280  -25.1980   20.3630 C   0  0  0  0  0  0  0  0  0  0  0  0
  -30.3690  -25.6770   22.0110 C   0  0  0  0  0  1  0  0  0  0  0  0
  -29.5370  -24.7860   21.2240 N   0  0  0  0  0  0  0  0  0  0  0  0
  -28.5710  -21.3490   20.0750 C   0  0  0  0  0  0  0  0  0  0  0  0
  -27.5650  -20.9610   19.4760 O   0  0  0  0  0  0  0  0  0  0  0  0
  -29.6490  -20.2510   20.4890 C   0  0  0  0  0  3  0  0  0  0  0  0
  -29.1980  -18.7020   20.5410 C   0  0  0  0  0  3  0  0  0  0  0  0
  -30.2740  -17.5030   20.5510 C   0  0  0  0  0  2  0  0  0  0  0  0
  -29.7650  -16.0150   20.8990 C   0  0  0  0  0  2  0  0  0  0  0  0
  -30.5850  -14.7170   20.4590 C   0  0  0  0  0  0  0  0  0  0  0  0
  -30.3980  -12.4660   19.3860 C   0  0  0  0  0  2  0  0  0  0  0  0
  -29.4740  -12.5910   18.1520 C   0  0  0  0  0  2  0  0  0  0  0  0
  -27.9940  -12.4280   18.5520 C   0  0  0  0  0  2  0  0  0  0  0  0
  -27.6140  -13.2970   19.7780 C   0  0  0  0  0  3  0  0  0  0  0  0
  -28.6530  -13.1560   20.9150 C   0  0  0  0  0  2  0  0  0  0  0  0
  -29.9740  -13.4890   20.3650 N   0  0  0  0  0  0  0  0  0  0  0  0
  -31.7510  -14.8540   20.0750 O   0  0  0  0  0  0  0  0  0  0  0  0
  -25.2110  -13.9130   20.4450 C   0  0  0  0  0  0  0  0  0  0  0  0
  -24.1350  -13.1480   20.8060 C   0  0  0  0  0  0  0  0  0  0  0  0
  -24.5940  -11.7950   20.8060 C   0  0  0  0  0  0  0  0  0  0  0  0
  -26.2570  -13.0250   20.2440 N   0  0  0  0  0  0  0  0  0  0  0  0
  -25.8900  -11.7480   20.5240 N   0  0  0  0  0  0  0  0  0  0  0  0
  -23.8610  -10.5380   21.0020 C   0  0  0  0  0  0  0  0  0  0  0  0
  -24.2820   -9.5760   21.9460 C   0  0  0  0  0  3  0  0  0  0  0  0
  -23.5490   -8.3830   22.1280 C   0  0  0  0  0  3  0  0  0  0  0  0
  -22.3820   -8.1440   21.3650 C   0  0  0  0  0  0  0  0  0  0  0  0
  -21.9810   -9.0940   20.4100 C   0  0  0  0  0  3  0  0  0  0  0  0
  -22.7140  -10.2780   20.2250 C   0  0  0  0  0  3  0  0  0  0  0  0
  -21.6210   -7.0030   21.4560 O   0  0  0  0  0  0  0  0  0  0  0  0
  -21.5670   -6.2640   22.6110 C   0  0  0  0  0  0  0  0  0  0  0  0
  -21.1520   -6.8280   23.8370 C   0  0  0  0  0  3  0  0  0  0  0  0
  -21.0440   -6.0180   24.9850 C   0  0  0  0  0  3  0  0  0  0  0  0
  -21.3410   -4.6430   24.9070 C   0  0  0  0  0  0  0  0  0  0  0  0
  -21.7490   -4.0790   23.6860 C   0  0  0  0  0  3  0  0  0  0  0  0
  -21.8590   -4.8880   22.5410 C   0  0  0  0  0  0  0  0  0  0  0  0
  -22.2320   -4.3330   21.3620 F   0  0  0  0  0  0  0  0  0  0  0  0
  -21.2290   -3.8630   26.0070 F   0  0  0  0  0  0  0  0  0  0  0  0
  -22.7330  -13.6320   21.0420 C   0  0  0  0  0  0  0  0  0  0  0  0
  -21.9880  -12.9540   21.9080 N   0  0  0  0  0  0  0  0  0  0  0  0
  -22.3080  -14.6480   20.4940 O   0  0  0  0  0  0  0  0  0  0  0  0
  -22.3470  -12.1330   22.3730 H   0  0  0  0  0  0  0  0  0  0  0  0
  -21.0470  -13.2610   22.1090 H   0  0  0  0  0  0  0  0  0  0  0  0
  -25.3850  -15.2800   20.2520 N   0  0  0  0  0  0  0  0  0  0  0  0
  -24.6230  -15.9440   20.3390 H   0  0  0  0  0  0  0  0  0  0  0  0
  -26.2490  -15.7090   19.9460 H   0  0  0  0  0  0  0  0  0  0  0  0
  -28.3860  -26.5630   20.0930 O   0  0  0  0  0  0  0  0  0  0  0  0
  -24.6040  -31.8730   23.2240 C   0  0  0  0  0  0  0  0  0  0  0  0
  -27.2110  -27.3240   20.1500 C   0  0  0  0  0  0  0  0  0  0  0  0
  -23.3900  -30.4740   21.5880 C   0  0  0  0  0  3  0  0  0  0  0  0
  -24.8330  -28.9170   20.1570 C   0  0  0  0  0  0  0  0  0  0  0  0
  -25.9240  -30.7980   21.3870 C   0  0  0  0  0  2  0  0  0  0  0  0
  -26.0010  -29.4150   20.7470 C   0  0  0  0  0  0  0  0  0  0  0  0
  -27.1890  -28.6290   20.7350 C   0  0  0  0  0  3  0  0  0  0  0  0
  -26.0230  -26.8690   19.5410 C   0  0  0  0  0  3  0  0  0  0  0  0
  -24.8450  -27.6490   19.5470 C   0  0  0  0  0  3  0  0  0  0  0  0
  -23.5950  -29.7920   20.2080 C   0  0  0  0  0  2  0  0  0  0  0  0
  -24.6590  -31.0670   22.1230 N   0  0  0  0  0  0  0  0  0  0  0  0
  -23.5240  -32.1480   23.7670 O   0  0  0  0  0  0  0  0  0  0  0  0
  -22.7360  -29.4590   22.5530 C   0  0  0  0  0  0  0  0  0  0  0  0
  -21.4090  -29.2820   22.4360 N   0  0  0  0  0  0  0  0  0  0  0  0
  -23.4210  -28.8310   23.3650 O   0  0  0  0  0  0  0  0  0  0  0  0
  -20.9160  -29.8400   21.7530 H   0  0  0  0  0  0  0  0  0  0  0  0
  -18.0360  -28.0820   22.9540 C   0  0  0  0  0  0  0  0  0  0  0  0
  -20.5950  -28.3430   23.2110 C   0  0  0  0  0  3  0  0  0  0  0  0
  -20.6960  -26.9130   22.6330 C   0  0  0  0  0  2  0  0  0  0  0  0
  -19.5890  -26.5900   21.6240 C   0  0  0  0  0  2  0  0  0  0  0  0
  -18.2100  -26.7330   22.2760 C   0  0  0  0  0  2  0  0  0  0  0  0
  -19.1560  -28.8450   23.3780 C   0  0  0  0  0  0  0  0  0  0  0  0
  -18.9390  -30.1060   23.9730 C   0  0  0  0  0  3  0  0  0  0  0  0
  -17.6350  -30.6050   24.1470 C   0  0  0  0  0  3  0  0  0  0  0  0
  -16.5290  -29.8400   23.7380 C   0  0  0  0  0  3  0  0  0  0  0  0
  -16.7310  -28.5800   23.1470 C   0  0  0  0  0  3  0  0  0  0  0  0
  -25.8920  -32.5050   23.8390 C   0  0  0  0  0  3  0  0  0  0  0  0
  -25.5800  -33.9000   24.1820 N   0  0  0  0  0  0  0  0  0  0  0  0
  -25.8960  -34.9600   23.4260 C   0  0  0  0  0  0  0  0  0  0  0  0
  -26.5510  -34.8660   22.3840 O   0  0  0  0  0  0  0  0  0  0  0  0
  -24.9970  -34.0470   24.9930 H   0  0  0  0  0  0  0  0  0  0  0  0
  -24.1520  -36.7470   23.1160 C   0  0  0  0  0  1  0  0  0  0  0  0
  -25.4120  -36.3440   23.8990 C   0  0  0  0  0  3  0  0  0  0  0  0
  -27.5590  -37.2350   24.6900 C   0  0  0  0  0  1  0  0  0  0  0  0
  -26.4370  -37.4030   23.7710 N   0  0  0  0  0  0  0  0  0  0  0  0
  -26.0300  -38.3210   23.9320 H   0  0  0  0  0  0  0  0  0  0  0  0
  -26.4210  -31.7270   25.1050 C   0  0  1  0  0  0  0  0  0  0  0  0
  -25.3390  -31.4820   26.1830 C   0  0  0  0  0  1  0  0  0  0  0  0
  -27.0020  -30.3520   24.7010 C   0  0  0  0  0  1  0  0  0  0  0  0
  -27.5770  -32.5190   25.7610 C   0  0  0  0  0  1  0  0  0  0  0  0
  1  3  1  0
  1  4  2  0
  2  6  1  0
  3  2  2  0
  4  6  1  0
  6  5  1  0
  7  3  1  0
  7  9  1  0
  8  7  2  0
  9 10  2  0
 10 11  1  0
 11 12  1  0
 13 12  1  0
 14 19  1  0
 15 16  1  0
 15 14  1  0
 17 16  1  0
 17 24  1  0
 17 18  1  0
 19 13  1  0
 19 18  1  0
 20 13  2  0
 21 22  2  0
 22 41  1  0
 23 22  1  0
 23 26  1  0
 24 21  1  0
 24 25  1  0
 25 23  2  0
 26 27  1  0
 27 28  2  0
 29 32  1  0
 29 28  1  0
 30 29  2  0
 31 30  1  0
 31 26  2  0
 32 33  1  0
 33 34  1  0
 34 35  2  0
 36 35  1  0
 36 40  1  0
 37 36  2  0
 38 33  2  0
 38 37  1  0
 39 38  1  0
 41 42  1  0
 42 45  1  0
 42 44  1  0
 43 41  2  0
 46 47  1  0
 46 21  1  0
 48 46  1  0
 49 51  1  0
 49  4  1  0
 50 61  2  0
 51 56  1  0
 52 60  1  0
 52 62  1  0
 53 59  1  0
 53 55  1  0
 54 60  1  0
 55 54  1  0
 56 55  2  0
 57 58  1  0
 57 51  2  0
 58 53  2  0
 59 52  1  0
 60 50  1  0
 62 64  2  0
 63 62  1  0
 65 63  1  0
 66 75  2  0
 66 71  1  0
 67 63  1  0
 67 71  1  0
 68 67  1  0
 69 70  1  0
 69 68  1  0
 70 66  1  0
 71 72  2  0
 72 73  1  0
 74 73  2  0
 75 74  1  0
 76 50  1  0
 76 77  1  0
 76 86  1  0
 77 80  1  0
 78 82  1  0
 78 77  1  0
 79 78  2  0
 82 81  1  0
 84 82  1  0
 84 85  1  0
 84 83  1  0
 86 89  1  1
 86 87  1  0
 88 86  1  0
M  ISO  4   4 101  12 100  13 100  49 101
M  END
>  <TORSDO>  (76) 
F 21

>  <SCORE>  (76) 
-13.383

>  <name>  (76) 
75

>  <ligand_id>  (76) 
75

>  <original_smiles>  (76) 
[H]c1c([H])c([H])c2c(c1[H])C([H])([H])C([H])([H])C([H])([H])C2([H])N([H])C(=O)C1([H])N(C(=O)C([H])(N([H])C(=O)C([H])(N([H])C([H])([H])[H])C([H])([H])[H])C(C([H])([H])[H])(C([H])([H])[H])C([H])([H])[H])C([H])([H])c2c([H])c(Oc3c([H])c(C(=O)C([H])([H])C([H])([H])C([H])([H])C([H])([H])C(=O)N4C([H])([H])C([H])([H])C([H])([H])C([H])(n5nc(-c6c([H])c([H])c(Oc7c([H])c([H])c(F)c([H])c7F)c([H])c6[H])c(C(=O)N([H])[H])c5N([H])[H])C4([H])[H])c([H])n3C([H])([H])[H])c([H])c([H])c2C1([H])[H]

>  <smiles>  (76) 
[H]c1c([H])c([H])c2c(c1[H])C([H])([H])C([H])([H])C([H])([H])C2([H])N([H])C(=O)C1([H])N(C(=O)C([H])(N([H])C(=O)C([H])(N([H])C([H])([H])[H])C([H])([H])[H])C(C([H])([H])[H])(C([H])([H])[H])C([H])([H])[H])C([H])([H])c2c([H])c(Oc3c([H])c(C(=O)C([H])([H])C([H])([H])C([H])([H])C([H])([H])C(=O)N4C([H])([H])C([H])([H])C([H])([H])C([H])(n5nc(-c6c([H])c([H])c(Oc7c([H])c([H])c(F)c([H])c7F)c([H])c6[H])c(C(=O)N([H])[H])c5N([H])[H])C4([H])[H])c([H])n3C([H])([H])[H])c([H])c([H])c2C1([H])[H]

$$$$
76:0:0
     RDKit          3D

 88 96  0  0  1  0  0  0  0  0999 V2000
  -30.2380  -18.3260   18.9270 C   0  0  0  0  0  3  0  0  0  0  0  0
  -29.9040  -19.7990   18.8390 C   0  0  0  0  0  3  0  0  0  0  0  0
  -30.4650  -17.4420   20.0900 C   0  0  0  0  0  0  0  0  0  0  0  0
  -29.7340  -20.8120   19.8990 C   0  0  0  0  0  0  0  0  0  0  0  0
  -30.2940  -18.4440   21.1820 C   0  0  0  0  0  0  0  0  0  0  0  0
  -29.9920  -19.9470   21.0840 C   0  0  0  0  0  0  0  0  0  0  0  0
  -30.5160  -17.9040   22.5850 C   0  0  0  0  0  1  0  0  0  0  0  0
  -31.0690  -15.7950   20.0450 C   0  0  0  0  0  0  0  0  0  0  0  0
  -31.0760  -13.2690   19.2790 C   0  0  0  0  0  2  0  0  0  0  0  0
  -30.1700  -12.9390   18.0610 C   0  0  0  0  0  2  0  0  0  0  0  0
  -28.7370  -12.6250   18.5160 C   0  0  0  0  0  2  0  0  0  0  0  0
  -28.2590  -13.6210   19.5980 C   0  0  0  0  0  3  0  0  0  0  0  0
  -29.3020  -13.8850   20.7030 C   0  0  0  0  0  2  0  0  0  0  0  0
  -30.5060  -14.4550   20.0580 N   0  0  0  0  0  0  0  0  0  0  0  0
  -32.2840  -15.6830   19.8010 O   0  0  0  0  0  0  0  0  0  0  0  0
  -25.9300  -14.1610   20.4570 C   0  0  0  0  0  0  0  0  0  0  0  0
  -24.8680  -13.3830   20.8220 C   0  0  0  0  0  0  0  0  0  0  0  0
  -25.3150  -12.0290   20.7220 C   0  0  0  0  0  0  0  0  0  0  0  0
  -26.9510  -13.2850   20.1400 N   0  0  0  0  0  0  0  0  0  0  0  0
  -26.5980  -11.9920   20.3690 N   0  0  0  0  0  0  0  0  0  0  0  0
  -24.5740  -10.7710   20.8790 C   0  0  0  0  0  0  0  0  0  0  0  0
  -24.9300   -9.8180   21.8580 C   0  0  0  0  0  3  0  0  0  0  0  0
  -24.1840   -8.6270   22.0060 C   0  0  0  0  0  3  0  0  0  0  0  0
  -23.0670   -8.3820   21.1710 C   0  0  0  0  0  0  0  0  0  0  0  0
  -22.7300   -9.3240   20.1830 C   0  0  0  0  0  3  0  0  0  0  0  0
  -23.4770  -10.5040   20.0350 C   0  0  0  0  0  3  0  0  0  0  0  0
  -22.3010   -7.2420   21.2240 O   0  0  0  0  0  0  0  0  0  0  0  0
  -22.0140   -6.6210   22.4120 C   0  0  0  0  0  0  0  0  0  0  0  0
  -21.3400   -7.2890   23.4590 C   0  0  0  0  0  3  0  0  0  0  0  0
  -21.0040   -6.5920   24.6370 C   0  0  0  0  0  3  0  0  0  0  0  0
  -21.3310   -5.2290   24.7680 C   0  0  0  0  0  0  0  0  0  0  0  0
  -21.9960   -4.5620   23.7240 C   0  0  0  0  0  3  0  0  0  0  0  0
  -22.3340   -5.2550   22.5490 C   0  0  0  0  0  0  0  0  0  0  0  0
  -22.9560   -4.6010   21.5390 F   0  0  0  0  0  0  0  0  0  0  0  0
  -21.0020   -4.5580   25.8970 F   0  0  0  0  0  0  0  0  0  0  0  0
  -23.4870  -13.8700   21.1460 C   0  0  0  0  0  0  0  0  0  0  0  0
  -22.7750  -13.1600   22.0130 N   0  0  0  0  0  0  0  0  0  0  0  0
  -23.0510  -14.9150   20.6660 O   0  0  0  0  0  0  0  0  0  0  0  0
  -23.1420  -12.3140   22.4230 H   0  0  0  0  0  0  0  0  0  0  0  0
  -21.8480  -13.4690   22.2720 H   0  0  0  0  0  0  0  0  0  0  0  0
  -26.1090  -15.5360   20.3360 N   0  0  0  0  0  0  0  0  0  0  0  0
  -25.3580  -16.1970   20.5040 H   0  0  0  0  0  0  0  0  0  0  0  0
  -26.9620  -15.9810   20.0170 H   0  0  0  0  0  0  0  0  0  0  0  0
  -31.2760  -21.2400   22.5490 C   0  0  0  0  0  1  0  0  0  0  0  0
  -30.0140  -20.6470   22.2630 O   0  0  0  0  0  0  0  0  0  0  0  0
  -29.6840  -22.6410   19.7370 C   0  0  0  0  0  3  0  0  0  0  0  0
  -28.5650  -24.1610   19.6550 C   0  0  0  0  0  3  0  0  0  0  0  0
  -28.7260  -25.8720   19.7790 O   0  0  0  0  0  0  0  0  0  0  0  0
  -25.0450  -31.6610   23.2330 C   0  0  0  0  0  0  0  0  0  0  0  0
  -27.7110  -27.0180   19.8120 C   0  0  0  0  0  0  0  0  0  0  0  0
  -23.8950  -30.3960   21.4650 C   0  0  0  0  0  3  0  0  0  0  0  0
  -25.3870  -28.9360   19.9140 C   0  0  0  0  0  0  0  0  0  0  0  0
  -26.4650  -30.6340   21.3700 C   0  0  0  0  0  2  0  0  0  0  0  0
  -26.5670  -29.2800   20.5850 C   0  0  0  0  0  0  0  0  0  0  0  0
  -27.7170  -28.3480   20.5050 C   0  0  0  0  0  3  0  0  0  0  0  0
  -26.4960  -26.8640   19.1020 C   0  0  0  0  0  3  0  0  0  0  0  0
  -25.3850  -27.7550   19.1520 C   0  0  0  0  0  3  0  0  0  0  0  0
  -24.1540  -29.8410   20.0350 C   0  0  0  0  0  2  0  0  0  0  0  0
  -25.1570  -30.9230   22.0790 N   0  0  0  0  0  0  0  0  0  0  0  0
  -23.9440  -31.8850   23.7650 O   0  0  0  0  0  0  0  0  0  0  0  0
  -23.2050  -29.3110   22.3330 C   0  0  0  0  0  0  0  0  0  0  0  0
  -21.8760  -29.1420   22.1880 N   0  0  0  0  0  0  0  0  0  0  0  0
  -23.8730  -28.6220   23.1070 O   0  0  0  0  0  0  0  0  0  0  0  0
  -21.3860  -29.7520   21.5470 H   0  0  0  0  0  0  0  0  0  0  0  0
  -18.5120  -27.8280   22.5690 C   0  0  0  0  0  0  0  0  0  0  0  0
  -21.0660  -28.1220   22.8640 C   0  0  0  0  0  3  0  0  0  0  0  0
  -21.1970  -26.7510   22.1590 C   0  0  0  0  0  2  0  0  0  0  0  0
  -20.1050  -26.5040   21.1150 C   0  0  0  0  0  2  0  0  0  0  0  0
  -18.7200  -26.5560   21.7640 C   0  0  0  0  0  2  0  0  0  0  0  0
  -19.6130  -28.5720   23.0720 C   0  0  0  0  0  0  0  0  0  0  0  0
  -19.3640  -29.7620   23.7880 C   0  0  0  0  0  3  0  0  0  0  0  0
  -18.0480  -30.2100   24.0060 C   0  0  0  0  0  3  0  0  0  0  0  0
  -16.9610  -29.4630   23.5170 C   0  0  0  0  0  3  0  0  0  0  0  0
  -17.1940  -28.2740   22.8040 C   0  0  0  0  0  3  0  0  0  0  0  0
  -26.2940  -32.2730   23.9370 C   0  0  0  0  0  3  0  0  0  0  0  0
  -26.7760  -31.4300   25.1830 C   0  0  1  0  0  0  0  0  0  0  0  0
  -25.6550  -31.1320   26.2070 C   0  0  0  0  0  1  0  0  0  0  0  0
  -27.3720  -30.0750   24.7390 C   0  0  0  0  0  1  0  0  0  0  0  0
  -27.9090  -32.1850   25.9180 C   0  0  0  0  0  1  0  0  0  0  0  0
  -25.9520  -33.6430   24.3630 N   0  0  0  0  0  0  0  0  0  0  0  0
  -26.2550  -34.7600   23.6870 C   0  0  0  0  0  0  0  0  0  0  0  0
  -26.9120  -34.7460   22.6420 O   0  0  0  0  0  0  0  0  0  0  0  0
  -25.3650  -33.7260   25.1800 H   0  0  0  0  0  0  0  0  0  0  0  0
  -24.4800  -36.5410   23.5150 C   0  0  0  0  0  1  0  0  0  0  0  0
  -25.7550  -36.1060   24.2550 C   0  0  0  0  0  3  0  0  0  0  0  0
  -27.8910  -36.9910   25.0850 C   0  0  0  0  0  1  0  0  0  0  0  0
  -26.7610  -37.1900   24.1820 N   0  0  0  0  0  0  0  0  0  0  0  0
  -26.3380  -38.0870   24.3980 H   0  0  0  0  0  0  0  0  0  0  0  0
  1  3  1  0
  2  1  2  0
  2  4  1  0
  3  5  2  0
  4  6  2  0
  5  7  1  0
  6  5  1  0
  6 45  1  0
  8 14  1  0
  8  3  1  0
  9 14  1  0
 10 11  1  0
 10  9  1  0
 12 11  1  0
 12 19  1  0
 12 13  1  0
 14 13  1  0
 15  8  2  0
 16 17  2  0
 17 36  1  0
 18 17  1  0
 18 21  1  0
 19 20  1  0
 19 16  1  0
 20 18  2  0
 21 22  1  0
 22 23  2  0
 24 27  1  0
 24 23  1  0
 25 24  2  0
 26 25  1  0
 26 21  2  0
 27 28  1  0
 28 33  2  0
 28 29  1  0
 29 30  2  0
 30 31  1  0
 31 35  1  0
 32 31  2  0
 33 32  1  0
 34 33  1  0
 36 37  1  0
 37 40  1  0
 37 39  1  0
 38 36  2  0
 41 16  1  0
 41 42  1  0
 43 41  1  0
 45 44  1  0
 46  4  1  0
 47 46  2  0
 47 48  1  0
 48 50  1  0
 49 60  2  0
 50 55  1  0
 51 59  1  0
 51 61  1  0
 52 58  1  0
 52 54  1  0
 53 59  1  0
 54 53  1  0
 55 54  2  0
 56 57  1  0
 56 50  2  0
 57 52  2  0
 58 51  1  0
 59 49  1  0
 61 63  2  0
 62 61  1  0
 64 62  1  0
 65 74  2  0
 65 70  1  0
 66 62  1  0
 66 70  1  0
 67 66  1  0
 68 69  1  0
 68 67  1  0
 69 65  1  0
 70 71  2  0
 71 72  1  0
 73 72  2  0
 74 73  1  0
 75 49  1  0
 75 80  1  0
 75 76  1  0
 76 79  1  1
 76 77  1  0
 78 76  1  0
 80 83  1  0
 81 85  1  0
 81 80  1  0
 82 81  2  0
 85 84  1  0
 87 85  1  0
 87 88  1  0
 87 86  1  0
M  ISO  4   3 100   8 100  47 101  48 101
M  END
>  <TORSDO>  (77) 
F 19

>  <SCORE>  (77) 
-13.982

>  <name>  (77) 
76

>  <ligand_id>  (77) 
76

>  <original_smiles>  (77) 
[H]c1c([H])c([H])c2c(c1[H])C([H])([H])C([H])([H])C([H])([H])C2([H])N([H])C(=O)C1([H])N(C(=O)C([H])(N([H])C(=O)C([H])(N([H])C([H])([H])[H])C([H])([H])[H])C(C([H])([H])[H])(C([H])([H])[H])C([H])([H])[H])C([H])([H])c2c([H])c(OC([H])([H])C([H])([H])c3c([H])c([H])c(C(=O)N4C([H])([H])C([H])([H])C([H])([H])C([H])(n5nc(-c6c([H])c([H])c(Oc7c([H])c([H])c(F)c([H])c7F)c([H])c6[H])c(C(=O)N([H])[H])c5N([H])[H])C4([H])[H])c(C([H])([H])[H])c3OC([H])([H])[H])c([H])c([H])c2C1([H])[H]

>  <smiles>  (77) 
[H]c1c([H])c([H])c2c(c1[H])C([H])([H])C([H])([H])C([H])([H])C2([H])N([H])C(=O)C1([H])N(C(=O)C([H])(N([H])C(=O)C([H])(N([H])C([H])([H])[H])C([H])([H])[H])C(C([H])([H])[H])(C([H])([H])[H])C([H])([H])[H])C([H])([H])c2c([H])c(OC([H])([H])C([H])([H])c3c([H])c([H])c(C(=O)N4C([H])([H])C([H])([H])C([H])([H])C([H])(n5nc(-c6c([H])c([H])c(Oc7c([H])c([H])c(F)c([H])c7F)c([H])c6[H])c(C(=O)N([H])[H])c5N([H])[H])C4([H])[H])c(C([H])([H])[H])c3OC([H])([H])[H])c([H])c([H])c2C1([H])[H]

$$$$
77:0:0
     RDKit          3D

 89 97  0  0  1  0  0  0  0  0999 V2000
  -29.8170  -17.8140   18.3010 C   0  0  0  0  0  3  0  0  0  0  0  0
  -29.4870  -18.9630   20.3680 C   0  0  0  0  0  3  0  0  0  0  0  0
  -29.7900  -17.5260   19.6990 C   0  0  0  0  0  0  0  0  0  0  0  0
  -29.6880  -19.1040   17.6720 C   0  0  0  0  0  0  0  0  0  0  0  0
  -29.2190  -20.4470   19.7750 C   0  0  0  0  0  0  0  0  0  0  0  0
  -29.4450  -20.3490   18.3660 C   0  0  0  0  0  0  0  0  0  0  0  0
  -30.3590  -15.8700   20.1190 C   0  0  0  0  0  0  0  0  0  0  0  0
  -30.4350  -13.3250   19.3120 C   0  0  0  0  0  2  0  0  0  0  0  0
  -29.5200  -12.8340   18.1570 C   0  0  0  0  0  2  0  0  0  0  0  0
  -28.1260  -12.4560   18.6740 C   0  0  0  0  0  2  0  0  0  0  0  0
  -27.6040  -13.4800   19.7040 C   0  0  0  0  0  3  0  0  0  0  0  0
  -28.6610  -13.8790   20.7640 C   0  0  0  0  0  2  0  0  0  0  0  0
  -29.7950  -14.5190   20.0340 N   0  0  0  0  0  0  0  0  0  0  0  0
  -31.5930  -15.7130   20.1590 O   0  0  0  0  0  0  0  0  0  0  0  0
  -25.2520  -13.9720   20.5300 C   0  0  0  0  0  0  0  0  0  0  0  0
  -24.2030  -13.1750   20.8950 C   0  0  0  0  0  0  0  0  0  0  0  0
  -24.6930  -11.8340   20.8520 C   0  0  0  0  0  0  0  0  0  0  0  0
  -26.3080  -13.1180   20.2690 N   0  0  0  0  0  0  0  0  0  0  0  0
  -25.9850  -11.8220   20.5330 N   0  0  0  0  0  0  0  0  0  0  0  0
  -23.9810  -10.5590   21.0330 C   0  0  0  0  0  0  0  0  0  0  0  0
  -24.4160   -9.5980   21.9730 C   0  0  0  0  0  3  0  0  0  0  0  0
  -23.7010   -8.3930   22.1500 C   0  0  0  0  0  3  0  0  0  0  0  0
  -22.5370   -8.1420   21.3860 C   0  0  0  0  0  0  0  0  0  0  0  0
  -22.1210   -9.0910   20.4370 C   0  0  0  0  0  3  0  0  0  0  0  0
  -22.8360  -10.2850   20.2580 C   0  0  0  0  0  3  0  0  0  0  0  0
  -21.7940   -6.9890   21.4680 O   0  0  0  0  0  0  0  0  0  0  0  0
  -21.7390   -6.2490   22.6210 C   0  0  0  0  0  0  0  0  0  0  0  0
  -21.2730   -6.7960   23.8350 C   0  0  0  0  0  3  0  0  0  0  0  0
  -21.1640   -5.9820   24.9800 C   0  0  0  0  0  3  0  0  0  0  0  0
  -21.5150   -4.6210   24.9130 C   0  0  0  0  0  0  0  0  0  0  0  0
  -21.9800   -4.0720   23.7020 C   0  0  0  0  0  3  0  0  0  0  0  0
  -22.0870   -4.8840   22.5610 C   0  0  0  0  0  0  0  0  0  0  0  0
  -22.5110   -4.3460   21.3910 F   0  0  0  0  0  0  0  0  0  0  0  0
  -21.4080   -3.8340   26.0100 F   0  0  0  0  0  0  0  0  0  0  0  0
  -22.7980  -13.6310   21.1570 C   0  0  0  0  0  0  0  0  0  0  0  0
  -22.0730  -12.9320   22.0200 N   0  0  0  0  0  0  0  0  0  0  0  0
  -22.3510  -14.6520   20.6360 O   0  0  0  0  0  0  0  0  0  0  0  0
  -22.4410  -12.1080   22.4730 H   0  0  0  0  0  0  0  0  0  0  0  0
  -21.1340  -13.2320   22.2370 H   0  0  0  0  0  0  0  0  0  0  0  0
  -25.3890  -15.3490   20.3560 N   0  0  0  0  0  0  0  0  0  0  0  0
  -24.6160  -15.9910   20.4900 H   0  0  0  0  0  0  0  0  0  0  0  0
  -26.2350  -15.8070   20.0400 H   0  0  0  0  0  0  0  0  0  0  0  0
  -28.8750  -18.4860   15.2750 C   0  0  0  0  0  1  0  0  0  0  0  0
  -29.9500  -19.1360   16.1510 C   0  0  0  0  0  2  0  0  0  0  0  0
  -30.8200  -22.0330   17.4130 C   0  0  0  0  0  1  0  0  0  0  0  0
  -29.4950  -21.5290   17.6590 O   0  0  0  0  0  0  0  0  0  0  0  0
  -28.9770  -22.1970   20.4050 C   0  0  0  0  0  3  0  0  0  0  0  0
  -28.1090  -23.9020   20.0020 C   0  0  0  0  0  3  0  0  0  0  0  0
  -28.1270  -25.6230   20.4350 O   0  0  0  0  0  0  0  0  0  0  0  0
  -24.6080  -31.9880   23.2980 C   0  0  0  0  0  0  0  0  0  0  0  0
  -27.1400  -26.8320   20.3670 C   0  0  0  0  0  0  0  0  0  0  0  0
  -23.4200  -30.5590   21.6900 C   0  0  0  0  0  3  0  0  0  0  0  0
  -24.8590  -28.8650   20.3180 C   0  0  0  0  0  0  0  0  0  0  0  0
  -26.0010  -30.6830   21.5650 C   0  0  0  0  0  2  0  0  0  0  0  0
  -26.0640  -29.2340   20.9320 C   0  0  0  0  0  0  0  0  0  0  0  0
  -27.1840  -28.2450   20.9230 C   0  0  0  0  0  3  0  0  0  0  0  0
  -25.8910  -26.6720   19.7110 C   0  0  0  0  0  3  0  0  0  0  0  0
  -24.8100  -27.6080   19.6880 C   0  0  0  0  0  3  0  0  0  0  0  0
  -23.6560  -29.8210   20.3410 C   0  0  0  0  0  2  0  0  0  0  0  0
  -24.7030  -31.1100   22.2380 N   0  0  0  0  0  0  0  0  0  0  0  0
  -23.5130  -32.3070   23.7920 O   0  0  0  0  0  0  0  0  0  0  0  0
  -22.6860  -29.6170   22.6810 C   0  0  0  0  0  0  0  0  0  0  0  0
  -21.3590  -29.4440   22.5270 N   0  0  0  0  0  0  0  0  0  0  0  0
  -23.3240  -29.0370   23.5610 O   0  0  0  0  0  0  0  0  0  0  0  0
  -20.8930  -29.9690   21.8000 H   0  0  0  0  0  0  0  0  0  0  0  0
  -17.9780  -28.1790   22.9680 C   0  0  0  0  0  0  0  0  0  0  0  0
  -20.5200  -28.5260   23.3090 C   0  0  0  0  0  3  0  0  0  0  0  0
  -20.6750  -27.0700   22.8130 C   0  0  0  0  0  2  0  0  0  0  0  0
  -19.6210  -26.6710   21.7740 C   0  0  0  0  0  2  0  0  0  0  0  0
  -18.2130  -26.8070   22.3600 C   0  0  0  0  0  2  0  0  0  0  0  0
  -19.0610  -28.9930   23.3970 C   0  0  0  0  0  0  0  0  0  0  0  0
  -18.7820  -30.2710   23.9290 C   0  0  0  0  0  3  0  0  0  0  0  0
  -17.4580  -30.7370   24.0350 C   0  0  0  0  0  3  0  0  0  0  0  0
  -16.3900  -29.9230   23.6160 C   0  0  0  0  0  3  0  0  0  0  0  0
  -16.6520  -28.6460   23.0890 C   0  0  0  0  0  3  0  0  0  0  0  0
  -25.8690  -32.6460   23.9380 C   0  0  0  0  0  3  0  0  0  0  0  0
  -26.3470  -31.9120   25.2520 C   0  0  1  0  0  0  0  0  0  0  0  0
  -25.2250  -31.7060   26.2990 C   0  0  0  0  0  1  0  0  0  0  0  0
  -26.9360  -30.5230   24.9250 C   0  0  0  0  0  1  0  0  0  0  0  0
  -27.4820  -32.7220   25.9210 C   0  0  0  0  0  1  0  0  0  0  0  0
  -25.5490  -34.0570   24.2400 N   0  0  0  0  0  0  0  0  0  0  0  0
  -25.8850  -35.1060   23.4770 C   0  0  0  0  0  0  0  0  0  0  0  0
  -26.5460  -34.9880   22.4430 O   0  0  0  0  0  0  0  0  0  0  0  0
  -24.9500  -34.2200   25.0350 H   0  0  0  0  0  0  0  0  0  0  0  0
  -24.1560  -36.9130   23.1480 C   0  0  0  0  0  1  0  0  0  0  0  0
  -25.4180  -36.5070   23.9240 C   0  0  0  0  0  3  0  0  0  0  0  0
  -27.5740  -37.4170   24.6820 C   0  0  0  0  0  1  0  0  0  0  0  0
  -26.4520  -37.5520   23.7580 N   0  0  0  0  0  0  0  0  0  0  0  0
  -26.0530  -38.4820   23.8710 H   0  0  0  0  0  0  0  0  0  0  0  0
  1  3  1  0
  3  7  1  0
  3  2  2  0
  4  1  2  0
  4  6  1  0
  5  2  1  0
  5 47  1  0
  6  5  2  0
  7 14  2  0
  8 13  1  0
  9 10  1  0
  9  8  1  0
 11 10  1  0
 11 18  1  0
 11 12  1  0
 13  7  1  0
 13 12  1  0
 15 16  2  0
 16 35  1  0
 17 16  1  0
 17 20  1  0
 18 15  1  0
 18 19  1  0
 19 17  2  0
 20 21  1  0
 21 22  2  0
 23 26  1  0
 23 22  1  0
 24 23  2  0
 25 24  1  0
 25 20  2  0
 26 27  1  0
 27 28  1  0
 28 29  2  0
 30 29  1  0
 30 34  1  0
 31 30  2  0
 32 27  2  0
 32 31  1  0
 33 32  1  0
 35 36  1  0
 36 39  1  0
 36 38  1  0
 37 35  2  0
 40 41  1  0
 40 15  1  0
 42 40  1  0
 43 44  1  0
 44  4  1  0
 45 46  1  0
 46  6  1  0
 48 47  2  0
 48 49  1  0
 50 61  2  0
 51 49  1  0
 51 56  1  0
 52 60  1  0
 52 62  1  0
 53 59  1  0
 53 55  1  0
 54 60  1  0
 55 54  1  0
 56 55  2  0
 57 51  2  0
 58 57  1  0
 58 53  2  0
 59 52  1  0
 60 50  1  0
 62 64  2  0
 63 62  1  0
 65 63  1  0
 66 75  2  0
 66 71  1  0
 67 63  1  0
 67 71  1  0
 68 67  1  0
 69 70  1  0
 69 68  1  0
 70 66  1  0
 71 72  2  0
 72 73  1  0
 74 73  2  0
 75 74  1  0
 76 50  1  0
 76 81  1  0
 76 77  1  0
 77 80  1  1
 77 78  1  0
 79 77  1  0
 81 84  1  0
 82 86  1  0
 82 81  1  0
 83 82  2  0
 86 85  1  0
 88 89  1  0
 88 86  1  0
 88 87  1  0
M  ISO  4   3 100   7 100  48 101  49 101
M  END
>  <TORSDO>  (78) 
F 20

>  <SCORE>  (78) 
-15.434

>  <name>  (78) 
77

>  <ligand_id>  (78) 
77

>  <original_smiles>  (78) 
[H]c1c([H])c([H])c2c(c1[H])C([H])([H])C([H])([H])C([H])([H])C2([H])N([H])C(=O)C1([H])N(C(=O)C([H])(N([H])C(=O)C([H])(N([H])C([H])([H])[H])C([H])([H])[H])C(C([H])([H])[H])(C([H])([H])[H])C([H])([H])[H])C([H])([H])c2c([H])c(OC([H])([H])C([H])([H])c3c([H])c(C(=O)N4C([H])([H])C([H])([H])C([H])([H])C([H])(n5nc(-c6c([H])c([H])c(Oc7c([H])c([H])c(F)c([H])c7F)c([H])c6[H])c(C(=O)N([H])[H])c5N([H])[H])C4([H])[H])c([H])c(C([H])([H])C([H])([H])[H])c3OC([H])([H])[H])c([H])c([H])c2C1([H])[H]

>  <smiles>  (78) 
[H]c1c([H])c([H])c2c(c1[H])C([H])([H])C([H])([H])C([H])([H])C2([H])N([H])C(=O)C1([H])N(C(=O)C([H])(N([H])C(=O)C([H])(N([H])C([H])([H])[H])C([H])([H])[H])C(C([H])([H])[H])(C([H])([H])[H])C([H])([H])[H])C([H])([H])c2c([H])c(OC([H])([H])C([H])([H])c3c([H])c(C(=O)N4C([H])([H])C([H])([H])C([H])([H])C([H])(n5nc(-c6c([H])c([H])c(Oc7c([H])c([H])c(F)c([H])c7F)c([H])c6[H])c(C(=O)N([H])[H])c5N([H])[H])C4([H])[H])c([H])c(C([H])([H])C([H])([H])[H])c3OC([H])([H])[H])c([H])c([H])c2C1([H])[H]

$$$$
78:0:0
     RDKit          3D

 88 96  0  0  1  0  0  0  0  0999 V2000
  -28.8690  -21.5290   21.3900 C   0  0  0  0  0  3  0  0  0  0  0  0
  -28.5310  -23.0250   21.4070 C   0  0  0  0  0  3  0  0  0  0  0  0
  -28.4140  -23.0210   19.2020 C   0  0  0  0  0  3  0  0  0  0  0  0
  -29.0340  -20.5490   20.2740 C   0  0  0  0  0  0  0  0  0  0  0  0
  -28.2470  -24.0040   20.3160 C   0  0  0  0  0  0  0  0  0  0  0  0
  -28.7550  -21.5210   19.1700 C   0  0  0  0  0  0  0  0  0  0  0  0
  -28.8850  -21.0030   17.9260 F   0  0  0  0  0  0  0  0  0  0  0  0
  -31.0240  -19.0170   21.1890 C   0  0  0  0  0  1  0  0  0  0  0  0
  -29.8260  -18.8460   20.2430 C   0  0  0  0  0  0  0  0  0  0  0  0
  -30.2710  -15.7160   20.1610 C   0  0  0  0  0  0  0  0  0  0  0  0
  -30.3410  -13.1880   19.3020 C   0  0  0  0  0  2  0  0  0  0  0  0
  -29.4150  -12.8030   18.1140 C   0  0  0  0  0  2  0  0  0  0  0  0
  -28.0080  -12.4400   18.6090 C   0  0  0  0  0  2  0  0  0  0  0  0
  -27.5290  -13.4200   19.7040 C   0  0  0  0  0  3  0  0  0  0  0  0
  -28.5930  -13.7220   20.7860 C   0  0  0  0  0  2  0  0  0  0  0  0
  -29.7400  -14.3550   20.0960 N   0  0  0  0  0  0  0  0  0  0  0  0
  -31.4950  -15.6470   19.9440 O   0  0  0  0  0  0  0  0  0  0  0  0
  -29.5360  -17.0910   20.2790 N   0  0  0  0  0  4  0  0  0  0  0  0
  -28.5480  -16.9140   20.4000 H   0  0  0  0  0  0  0  0  0  0  0  0
  -25.1900  -13.9190   20.5560 C   0  0  0  0  0  0  0  0  0  0  0  0
  -24.1500  -13.1220   20.9430 C   0  0  0  0  0  0  0  0  0  0  0  0
  -24.6320  -11.7780   20.8730 C   0  0  0  0  0  0  0  0  0  0  0  0
  -26.2330  -13.0620   20.2610 N   0  0  0  0  0  0  0  0  0  0  0  0
  -25.9150  -11.7660   20.5190 N   0  0  0  0  0  0  0  0  0  0  0  0
  -23.9220  -10.5060   21.0610 C   0  0  0  0  0  0  0  0  0  0  0  0
  -24.3780   -9.5310   21.9760 C   0  0  0  0  0  3  0  0  0  0  0  0
  -23.6620   -8.3280   22.1560 C   0  0  0  0  0  3  0  0  0  0  0  0
  -22.4760   -8.0890   21.4210 C   0  0  0  0  0  0  0  0  0  0  0  0
  -22.0390   -9.0530   20.4960 C   0  0  0  0  0  3  0  0  0  0  0  0
  -22.7550  -10.2470   20.3130 C   0  0  0  0  0  3  0  0  0  0  0  0
  -21.7300   -6.9390   21.5120 O   0  0  0  0  0  0  0  0  0  0  0  0
  -21.6930   -6.1940   22.6640 C   0  0  0  0  0  0  0  0  0  0  0  0
  -21.2460   -6.7370   23.8880 C   0  0  0  0  0  3  0  0  0  0  0  0
  -21.1580   -5.9180   25.0310 C   0  0  0  0  0  3  0  0  0  0  0  0
  -21.5060   -4.5570   24.9510 C   0  0  0  0  0  0  0  0  0  0  0  0
  -21.9460   -4.0130   23.7330 C   0  0  0  0  0  3  0  0  0  0  0  0
  -22.0360   -4.8290   22.5910 C   0  0  0  0  0  0  0  0  0  0  0  0
  -22.4400   -4.2950   21.4130 F   0  0  0  0  0  0  0  0  0  0  0  0
  -21.4140   -3.7670   26.0480 F   0  0  0  0  0  0  0  0  0  0  0  0
  -22.7580  -13.5810   21.2580 C   0  0  0  0  0  0  0  0  0  0  0  0
  -22.0620  -12.8690   22.1360 N   0  0  0  0  0  0  0  0  0  0  0  0
  -22.2980  -14.6090   20.7610 O   0  0  0  0  0  0  0  0  0  0  0  0
  -22.4500  -12.0380   22.5580 H   0  0  0  0  0  0  0  0  0  0  0  0
  -21.1280  -13.1590   22.3900 H   0  0  0  0  0  0  0  0  0  0  0  0
  -25.3290  -15.2950   20.3960 N   0  0  0  0  0  0  0  0  0  0  0  0
  -24.5540  -15.9330   20.5400 H   0  0  0  0  0  0  0  0  0  0  0  0
  -26.1490  -15.7470   20.0150 H   0  0  0  0  0  0  0  0  0  0  0  0
  -28.1840  -25.6260   20.3300 O   0  0  0  0  0  0  0  0  0  0  0  0
  -24.6520  -31.9050   23.2490 C   0  0  0  0  0  0  0  0  0  0  0  0
  -27.1700  -26.8000   20.3070 C   0  0  0  0  0  0  0  0  0  0  0  0
  -23.4650  -30.5020   21.6160 C   0  0  0  0  0  3  0  0  0  0  0  0
  -24.9080  -28.8350   20.2240 C   0  0  0  0  0  0  0  0  0  0  0  0
  -26.0420  -30.6330   21.5050 C   0  0  0  0  0  2  0  0  0  0  0  0
  -26.1000  -29.1930   20.8640 C   0  0  0  0  0  0  0  0  0  0  0  0
  -27.2130  -28.2020   20.8750 C   0  0  0  0  0  3  0  0  0  0  0  0
  -25.9470  -26.6500   19.6050 C   0  0  0  0  0  3  0  0  0  0  0  0
  -24.8700  -27.5880   19.5730 C   0  0  0  0  0  3  0  0  0  0  0  0
  -23.7060  -29.7920   20.2520 C   0  0  0  0  0  2  0  0  0  0  0  0
  -24.7430  -31.0470   22.1750 N   0  0  0  0  0  0  0  0  0  0  0  0
  -23.5580  -32.2140   23.7520 O   0  0  0  0  0  0  0  0  0  0  0  0
  -22.7410  -29.5340   22.5910 C   0  0  0  0  0  0  0  0  0  0  0  0
  -21.4100  -29.3770   22.4560 N   0  0  0  0  0  0  0  0  0  0  0  0
  -23.3900  -28.9210   23.4430 O   0  0  0  0  0  0  0  0  0  0  0  0
  -20.9360  -29.9210   21.7480 H   0  0  0  0  0  0  0  0  0  0  0  0
  -18.0210  -28.1610   22.9420 C   0  0  0  0  0  0  0  0  0  0  0  0
  -20.5760  -28.4490   23.2310 C   0  0  0  0  0  3  0  0  0  0  0  0
  -20.6920  -27.0080   22.6810 C   0  0  0  0  0  2  0  0  0  0  0  0
  -19.6050  -26.6640   21.6570 C   0  0  0  0  0  2  0  0  0  0  0  0
  -18.2140  -26.8060   22.2810 C   0  0  0  0  0  2  0  0  0  0  0  0
  -19.1290  -28.9390   23.3730 C   0  0  0  0  0  0  0  0  0  0  0  0
  -18.8900  -30.2030   23.9550 C   0  0  0  0  0  3  0  0  0  0  0  0
  -17.5780  -30.6900   24.1070 C   0  0  0  0  0  3  0  0  0  0  0  0
  -16.4850  -29.9110   23.6890 C   0  0  0  0  0  3  0  0  0  0  0  0
  -16.7080  -28.6480   23.1120 C   0  0  0  0  0  3  0  0  0  0  0  0
  -25.9160  -32.5550   23.8900 C   0  0  0  0  0  3  0  0  0  0  0  0
  -25.5980  -33.9600   24.2130 N   0  0  0  0  0  0  0  0  0  0  0  0
  -25.9240  -35.0190   23.4590 C   0  0  0  0  0  0  0  0  0  0  0  0
  -26.5810  -34.9150   22.4210 O   0  0  0  0  0  0  0  0  0  0  0  0
  -25.0120  -34.1120   25.0200 H   0  0  0  0  0  0  0  0  0  0  0  0
  -24.1890  -36.8200   23.1510 C   0  0  0  0  0  1  0  0  0  0  0  0
  -25.4520  -36.4120   23.9280 C   0  0  0  0  0  3  0  0  0  0  0  0
  -27.6040  -37.3090   24.7030 C   0  0  0  0  0  1  0  0  0  0  0  0
  -26.4820  -37.4650   23.7830 N   0  0  0  0  0  0  0  0  0  0  0  0
  -26.0780  -38.3870   23.9270 H   0  0  0  0  0  0  0  0  0  0  0  0
  -26.4010  -31.8050   25.1920 C   0  0  1  0  0  0  0  0  0  0  0  0
  -25.2860  -31.5960   26.2460 C   0  0  0  0  0  1  0  0  0  0  0  0
  -26.9820  -30.4150   24.8490 C   0  0  0  0  0  1  0  0  0  0  0  0
  -27.5460  -32.6030   25.8610 C   0  0  0  0  0  1  0  0  0  0  0  0
  1  2  1  0
  3  5  1  0
  4  1  2  0
  5 48  1  0
  5  2  2  0
  6  3  2  0
  6  4  1  0
  7  6  1  0
  9  4  1  0
  9 18  2  0
  9  8  1  0
 10 18  1  0
 11 16  1  0
 12 13  1  0
 12 11  1  0
 14 13  1  0
 14 23  1  0
 14 15  1  0
 16 10  1  0
 16 15  1  0
 17 10  2  0
 18 19  1  0
 20 21  2  0
 21 40  1  0
 22 21  1  0
 22 25  1  0
 23 24  1  0
 23 20  1  0
 24 22  2  0
 25 26  1  0
 26 27  2  0
 28 31  1  0
 28 27  1  0
 29 28  2  0
 30 29  1  0
 30 25  2  0
 31 32  1  0
 32 33  1  0
 33 34  2  0
 35 34  1  0
 35 39  1  0
 36 35  2  0
 37 32  2  0
 37 36  1  0
 38 37  1  0
 40 41  1  0
 41 44  1  0
 41 43  1  0
 42 40  2  0
 45 46  1  0
 45 20  1  0
 47 45  1  0
 49 60  2  0
 50 48  1  0
 50 55  1  0
 51 59  1  0
 51 61  1  0
 52 58  1  0
 52 54  1  0
 53 59  1  0
 54 55  2  0
 54 53  1  0
 56 50  2  0
 57 56  1  0
 57 52  2  0
 58 51  1  0
 59 49  1  0
 61 63  2  0
 62 61  1  0
 64 62  1  0
 65 74  2  0
 65 70  1  0
 66 62  1  0
 66 70  1  0
 67 66  1  0
 68 69  1  0
 68 67  1  0
 69 65  1  0
 70 71  2  0
 71 72  1  0
 73 72  2  0
 74 73  1  0
 75 49  1  0
 75 76  1  0
 75 85  1  0
 76 79  1  0
 77 81  1  0
 77 76  1  0
 78 77  2  0
 81 80  1  0
 83 84  1  0
 83 81  1  0
 83 82  1  0
 85 88  1  1
 85 86  1  0
 87 85  1  0
M  ISO  4   5 101  10 100  18 100  48 101
M  END
>  <TORSDO>  (79) 
F 17

>  <SCORE>  (79) 
-16.036

>  <name>  (79) 
78

>  <ligand_id>  (79) 
78

>  <original_smiles>  (79) 
[H]c1c([H])c([H])c2c(c1[H])C([H])([H])C([H])([H])C([H])([H])C2([H])N([H])C(=O)C1([H])N(C(=O)C([H])(N([H])C(=O)C([H])(N([H])C([H])([H])[H])C([H])([H])[H])C(C([H])([H])[H])(C([H])([H])[H])C([H])([H])[H])C([H])([H])c2c([H])c(Oc3c([H])c([H])c(C([H])(N([H])C(=O)N4C([H])([H])C([H])([H])C([H])([H])C([H])(n5nc(-c6c([H])c([H])c(Oc7c([H])c([H])c(F)c([H])c7F)c([H])c6[H])c(C(=O)N([H])[H])c5N([H])[H])C4([H])[H])C([H])([H])[H])c(F)c3[H])c([H])c([H])c2C1([H])[H]

>  <smiles>  (79) 
[H]c1c([H])c([H])c2c(c1[H])C([H])([H])C([H])([H])C([H])([H])C2([H])N([H])C(=O)C1([H])N(C(=O)C([H])(N([H])C(=O)C([H])(N([H])C([H])([H])[H])C([H])([H])[H])C(C([H])([H])[H])(C([H])([H])[H])C([H])([H])[H])C([H])([H])c2c([H])c(Oc3c([H])c([H])c(C([H])(N([H])C(=O)N4C([H])([H])C([H])([H])C([H])([H])C([H])(n5nc(-c6c([H])c([H])c(Oc7c([H])c([H])c(F)c([H])c7F)c([H])c6[H])c(C(=O)N([H])[H])c5N([H])[H])C4([H])[H])C([H])([H])[H])c(F)c3[H])c([H])c([H])c2C1([H])[H]

$$$$
79:0:0
     RDKit          3D

 90 98  0  0  1  0  0  0  0  0999 V2000
  -28.3000  -22.0020   19.3580 C   0  0  0  0  0  3  0  0  0  0  0  0
  -29.1410  -22.2410   21.4700 C   0  0  0  0  0  3  0  0  0  0  0  0
  -28.8830  -21.2370   20.4500 C   0  0  0  0  0  0  0  0  0  0  0  0
  -28.0580  -23.4700   19.2810 C   0  0  0  0  0  0  0  0  0  0  0  0
  -28.8770  -23.7060   21.4390 C   0  0  0  0  0  0  0  0  0  0  0  0
  -28.3030  -24.4700   20.3230 C   0  0  0  0  0  0  0  0  0  0  0  0
  -27.4930  -23.9580   17.9630 C   0  0  0  0  0  1  0  0  0  0  0  0
  -28.5420  -25.4840   23.0280 C   0  0  0  0  0  1  0  0  0  0  0  0
  -29.2550  -24.3250   22.6130 O   0  0  0  0  0  0  0  0  0  0  0  0
  -28.2600  -26.0010   20.2030 O   0  0  0  0  0  0  0  0  0  0  0  0
  -24.6330  -31.8740   23.1920 C   0  0  0  0  0  0  0  0  0  0  0  0
  -27.1860  -27.0200   20.2000 C   0  0  0  0  0  0  0  0  0  0  0  0
  -23.4240  -30.4620   21.5750 C   0  0  0  0  0  3  0  0  0  0  0  0
  -24.8680  -28.8550   20.1510 C   0  0  0  0  0  0  0  0  0  0  0  0
  -25.9830  -30.7030   21.3850 C   0  0  0  0  0  2  0  0  0  0  0  0
  -26.0550  -29.2850   20.7560 C   0  0  0  0  0  0  0  0  0  0  0  0
  -27.2080  -28.3860   20.7580 C   0  0  0  0  0  3  0  0  0  0  0  0
  -25.9680  -26.7270   19.5530 C   0  0  0  0  0  3  0  0  0  0  0  0
  -24.8450  -27.5960   19.5290 C   0  0  0  0  0  3  0  0  0  0  0  0
  -23.6410  -29.7660   20.2020 C   0  0  0  0  0  2  0  0  0  0  0  0
  -24.7030  -31.0380   22.1050 N   0  0  0  0  0  0  0  0  0  0  0  0
  -23.5500  -32.1630   23.7250 O   0  0  0  0  0  0  0  0  0  0  0  0
  -22.7500  -29.4680   22.5540 C   0  0  0  0  0  0  0  0  0  0  0  0
  -21.4200  -29.2960   22.4410 N   0  0  0  0  0  0  0  0  0  0  0  0
  -23.4280  -28.8530   23.3810 O   0  0  0  0  0  0  0  0  0  0  0  0
  -20.9300  -29.8400   21.7440 H   0  0  0  0  0  0  0  0  0  0  0  0
  -18.0500  -28.0620   22.9690 C   0  0  0  0  0  0  0  0  0  0  0  0
  -20.6080  -28.3590   23.2230 C   0  0  0  0  0  3  0  0  0  0  0  0
  -20.7240  -26.9230   22.6610 C   0  0  0  0  0  2  0  0  0  0  0  0
  -19.6230  -26.5790   21.6530 C   0  0  0  0  0  2  0  0  0  0  0  0
  -18.2410  -26.7100   22.3020 C   0  0  0  0  0  2  0  0  0  0  0  0
  -19.1620  -28.8430   23.3870 C   0  0  0  0  0  0  0  0  0  0  0  0
  -18.9310  -30.1030   23.9770 C   0  0  0  0  0  3  0  0  0  0  0  0
  -17.6210  -30.5910   24.1450 C   0  0  0  0  0  3  0  0  0  0  0  0
  -16.5240  -29.8090   23.7410 C   0  0  0  0  0  3  0  0  0  0  0  0
  -16.7400  -28.5450   23.1640 C   0  0  0  0  0  3  0  0  0  0  0  0
  -25.9120  -32.5210   23.8050 C   0  0  0  0  0  3  0  0  0  0  0  0
  -26.4470  -31.7470   25.0740 C   0  0  1  0  0  0  0  0  0  0  0  0
  -25.3670  -31.5020   26.1550 C   0  0  0  0  0  1  0  0  0  0  0  0
  -27.0310  -30.3730   24.6730 C   0  0  0  0  0  1  0  0  0  0  0  0
  -27.6020  -32.5400   25.7270 C   0  0  0  0  0  1  0  0  0  0  0  0
  -25.5880  -33.9150   24.1590 N   0  0  0  0  0  0  0  0  0  0  0  0
  -25.8930  -34.9840   23.4100 C   0  0  0  0  0  0  0  0  0  0  0  0
  -26.5400  -34.9020   22.3640 O   0  0  0  0  0  0  0  0  0  0  0  0
  -25.0060  -34.0520   24.9710 H   0  0  0  0  0  0  0  0  0  0  0  0
  -24.1370  -36.7670   23.1290 C   0  0  0  0  0  1  0  0  0  0  0  0
  -25.4050  -36.3640   23.8990 C   0  0  0  0  0  3  0  0  0  0  0  0
  -27.5530  -37.2660   24.6800 C   0  0  0  0  0  1  0  0  0  0  0  0
  -26.4230  -37.4290   23.7670 N   0  0  0  0  0  0  0  0  0  0  0  0
  -26.0110  -38.3430   23.9370 H   0  0  0  0  0  0  0  0  0  0  0  0
  -28.9210  -19.5090   20.6710 C   0  0  0  0  0  3  0  0  0  0  0  0
  -29.9280  -18.1280   20.1770 C   0  0  0  0  0  3  0  0  0  0  0  0
  -30.4550  -15.2500   20.2050 C   0  0  0  0  0  0  0  0  0  0  0  0
  -30.3830  -12.8340   19.2890 C   0  0  0  0  0  2  0  0  0  0  0  0
  -29.4450  -12.7110   18.0630 C   0  0  0  0  0  2  0  0  0  0  0  0
  -27.9950  -12.4570   18.5150 C   0  0  0  0  0  2  0  0  0  0  0  0
  -27.5830  -13.3840   19.6870 C   0  0  0  0  0  3  0  0  0  0  0  0
  -28.6500  -13.4670   20.7990 C   0  0  0  0  0  2  0  0  0  0  0  0
  -29.8840  -13.9530   20.1640 N   0  0  0  0  0  0  0  0  0  0  0  0
  -31.6560  -15.2710   19.9010 O   0  0  0  0  0  0  0  0  0  0  0  0
  -29.6950  -16.4970   20.3910 N   0  0  0  0  0  0  0  0  0  0  0  0
  -28.7380  -16.2850   20.6410 H   0  0  0  0  0  0  0  0  0  0  0  0
  -25.2220  -13.9380   20.4760 C   0  0  0  0  0  0  0  0  0  0  0  0
  -24.1690  -13.1570   20.8610 C   0  0  0  0  0  0  0  0  0  0  0  0
  -24.6400  -11.8080   20.8190 C   0  0  0  0  0  0  0  0  0  0  0  0
  -26.2630  -13.0670   20.2130 N   0  0  0  0  0  0  0  0  0  0  0  0
  -25.9250  -11.7790   20.4870 N   0  0  0  0  0  0  0  0  0  0  0  0
  -23.9190  -10.5430   21.0160 C   0  0  0  0  0  0  0  0  0  0  0  0
  -24.3660   -9.5730   21.9420 C   0  0  0  0  0  3  0  0  0  0  0  0
  -23.6420   -8.3760   22.1290 C   0  0  0  0  0  3  0  0  0  0  0  0
  -22.4580   -8.1390   21.3910 C   0  0  0  0  0  0  0  0  0  0  0  0
  -22.0310   -9.0970   20.4550 C   0  0  0  0  0  3  0  0  0  0  0  0
  -22.7550  -10.2860   20.2650 C   0  0  0  0  0  3  0  0  0  0  0  0
  -21.7050   -6.9940   21.4870 O   0  0  0  0  0  0  0  0  0  0  0  0
  -21.6700   -6.2510   22.6400 C   0  0  0  0  0  0  0  0  0  0  0  0
  -21.2550   -6.8030   23.8720 C   0  0  0  0  0  3  0  0  0  0  0  0
  -21.1670   -5.9850   25.0150 C   0  0  0  0  0  3  0  0  0  0  0  0
  -21.4830   -4.6160   24.9290 C   0  0  0  0  0  0  0  0  0  0  0  0
  -21.8910   -4.0640   23.7030 C   0  0  0  0  0  3  0  0  0  0  0  0
  -21.9810   -4.8780   22.5610 C   0  0  0  0  0  0  0  0  0  0  0  0
  -22.3540   -4.3350   21.3770 F   0  0  0  0  0  0  0  0  0  0  0  0
  -21.3910   -3.8290   26.0260 F   0  0  0  0  0  0  0  0  0  0  0  0
  -22.7740  -13.6290   21.1520 C   0  0  0  0  0  0  0  0  0  0  0  0
  -22.0630  -12.9310   22.0270 N   0  0  0  0  0  0  0  0  0  0  0  0
  -22.3280  -14.6530   20.6360 O   0  0  0  0  0  0  0  0  0  0  0  0
  -22.4400  -12.1030   22.4650 H   0  0  0  0  0  0  0  0  0  0  0  0
  -21.1270  -13.2300   22.2630 H   0  0  0  0  0  0  0  0  0  0  0  0
  -25.3730  -15.3100   20.2980 N   0  0  0  0  0  0  0  0  0  0  0  0
  -24.5950  -15.9490   20.4190 H   0  0  0  0  0  0  0  0  0  0  0  0
  -26.1900  -15.7550   19.9040 H   0  0  0  0  0  0  0  0  0  0  0  0
  1  3  1  0
  3 51  1  0
  3  2  2  0
  4  1  2  0
  4  6  1  0
  5  2  1  0
  5  9  1  0
  6  5  2  0
  7  4  1  0
  9  8  1  0
 10  6  1  0
 11 22  2  0
 12 10  1  0
 12 17  1  0
 13 21  1  0
 13 23  1  0
 14 20  1  0
 14 16  1  0
 15 21  1  0
 16 17  2  0
 16 15  1  0
 18 12  2  0
 19 18  1  0
 19 14  2  0
 20 13  1  0
 21 11  1  0
 23 25  2  0
 24 23  1  0
 26 24  1  0
 27 36  2  0
 27 32  1  0
 28 24  1  0
 28 32  1  0
 29 28  1  0
 30 31  1  0
 30 29  1  0
 31 27  1  0
 32 33  2  0
 33 34  1  0
 35 34  2  0
 36 35  1  0
 37 11  1  0
 37 42  1  0
 37 38  1  0
 38 41  1  1
 38 39  1  0
 40 38  1  0
 42 45  1  0
 43 47  1  0
 43 42  1  0
 44 43  2  0
 47 46  1  0
 49 47  1  0
 49 50  1  0
 49 48  1  0
 52 61  1  0
 52 51  2  0
 53 61  1  0
 54 59  1  0
 55 56  1  0
 55 54  1  0
 57 56  1  0
 57 66  1  0
 57 58  1  0
 59 53  1  0
 59 58  1  0
 60 53  2  0
 61 62  1  0
 63 64  2  0
 64 83  1  0
 65 64  1  0
 65 68  1  0
 66 63  1  0
 66 67  1  0
 67 65  2  0
 68 69  1  0
 69 70  2  0
 71 74  1  0
 71 70  1  0
 72 71  2  0
 73 72  1  0
 73 68  2  0
 74 75  1  0
 75 76  1  0
 76 77  2  0
 78 77  1  0
 78 82  1  0
 79 78  2  0
 80 75  2  0
 80 79  1  0
 81 80  1  0
 83 84  1  0
 84 87  1  0
 84 86  1  0
 85 83  2  0
 88 89  1  0
 88 63  1  0
 90 88  1  0
M  ISO  4   6 101  10 101  53 100  61 100
M  END
>  <TORSDO>  (80) 
F 19

>  <SCORE>  (80) 
-15.338

>  <name>  (80) 
79

>  <ligand_id>  (80) 
79

>  <original_smiles>  (80) 
[H]c1c([H])c([H])c2c(c1[H])C([H])([H])C([H])([H])C([H])([H])C2([H])N([H])C(=O)C1([H])N(C(=O)C([H])(N([H])C(=O)C([H])(N([H])C([H])([H])[H])C([H])([H])[H])C(C([H])([H])[H])(C([H])([H])[H])C([H])([H])[H])C([H])([H])c2c([H])c(Oc3c(OC([H])([H])[H])c([H])c(C([H])([H])C([H])([H])N([H])C(=O)N4C([H])([H])C([H])([H])C([H])([H])C([H])(n5nc(-c6c([H])c([H])c(Oc7c([H])c([H])c(F)c([H])c7F)c([H])c6[H])c(C(=O)N([H])[H])c5N([H])[H])C4([H])[H])c([H])c3C([H])([H])[H])c([H])c([H])c2C1([H])[H]

>  <smiles>  (80) 
[H]c1c([H])c([H])c2c(c1[H])C([H])([H])C([H])([H])C([H])([H])C2([H])N([H])C(=O)C1([H])N(C(=O)C([H])(N([H])C(=O)C([H])(N([H])C([H])([H])[H])C([H])([H])[H])C(C([H])([H])[H])(C([H])([H])[H])C([H])([H])[H])C([H])([H])c2c([H])c(Oc3c(OC([H])([H])[H])c([H])c(C([H])([H])C([H])([H])N([H])C(=O)N4C([H])([H])C([H])([H])C([H])([H])C([H])(n5nc(-c6c([H])c([H])c(Oc7c([H])c([H])c(F)c([H])c7F)c([H])c6[H])c(C(=O)N([H])[H])c5N([H])[H])C4([H])[H])c([H])c3C([H])([H])[H])c([H])c([H])c2C1([H])[H]

$$$$
80:0:0
     RDKit          3D

 92100  0  0  1  0  0  0  0  0999 V2000
  -27.3780  -21.9660   20.8050 C   0  0  0  0  0  3  0  0  0  0  0  0
  -28.9040  -23.6180   19.9630 C   0  0  0  0  0  3  0  0  0  0  0  0
  -28.6760  -22.1270   20.3020 C   0  0  0  0  0  0  0  0  0  0  0  0
  -26.4620  -23.0330   21.0230 C   0  0  0  0  0  0  0  0  0  0  0  0
  -27.9610  -24.8380   20.0700 C   0  0  0  0  0  0  0  0  0  0  0  0
  -26.7180  -24.4120   20.6530 C   0  0  0  0  0  0  0  0  0  0  0  0
  -29.6570  -20.7170   20.3900 C   0  0  0  0  0  0  0  0  0  0  0  0
  -30.8410  -20.9400   20.6540 O   0  0  0  0  0  0  0  0  0  0  0  0
  -29.3740  -19.0060   20.1300 C   0  0  0  0  0  2  0  0  0  0  0  0
  -29.9650  -17.4730   20.8870 C   0  0  0  0  0  2  0  0  0  0  0  0
  -30.6650  -15.9330   20.3950 C   0  0  0  0  0  0  0  0  0  0  0  0
  -30.7540  -13.4660   19.5590 C   0  0  0  0  0  2  0  0  0  0  0  0
  -29.8970  -13.2380   18.2880 C   0  0  0  0  0  2  0  0  0  0  0  0
  -28.4420  -12.9160   18.6690 C   0  0  0  0  0  2  0  0  0  0  0  0
  -27.9160  -13.8730   19.7670 C   0  0  0  0  0  3  0  0  0  0  0  0
  -28.9090  -14.0670   20.9360 C   0  0  0  0  0  2  0  0  0  0  0  0
  -30.1590  -14.5970   20.3720 N   0  0  0  0  0  0  0  0  0  0  0  0
  -31.8560  -15.9550   20.0500 O   0  0  0  0  0  0  0  0  0  0  0  0
  -25.5270  -14.3650   20.5070 C   0  0  0  0  0  0  0  0  0  0  0  0
  -24.4640  -13.5580   20.8040 C   0  0  0  0  0  0  0  0  0  0  0  0
  -24.9420  -12.2160   20.6920 C   0  0  0  0  0  0  0  0  0  0  0  0
  -26.5800  -13.5150   20.2250 N   0  0  0  0  0  0  0  0  0  0  0  0
  -26.2390  -12.2100   20.4020 N   0  0  0  0  0  0  0  0  0  0  0  0
  -24.2210  -10.9390   20.7880 C   0  0  0  0  0  0  0  0  0  0  0  0
  -24.6450   -9.9110   21.6580 C   0  0  0  0  0  3  0  0  0  0  0  0
  -23.9210   -8.7020   21.7460 C   0  0  0  0  0  3  0  0  0  0  0  0
  -22.7570   -8.5130   20.9640 C   0  0  0  0  0  0  0  0  0  0  0  0
  -22.3520   -9.5310   20.0810 C   0  0  0  0  0  3  0  0  0  0  0  0
  -23.0780  -10.7300   19.9910 C   0  0  0  0  0  3  0  0  0  0  0  0
  -22.0050   -7.3630   20.9640 O   0  0  0  0  0  0  0  0  0  0  0  0
  -21.9350   -6.5500   22.0670 C   0  0  0  0  0  0  0  0  0  0  0  0
  -21.4810   -7.0250   23.3160 C   0  0  0  0  0  3  0  0  0  0  0  0
  -21.3580   -6.1390   24.4040 C   0  0  0  0  0  3  0  0  0  0  0  0
  -21.6790   -4.7770   24.2440 C   0  0  0  0  0  0  0  0  0  0  0  0
  -22.1260   -4.3010   22.9990 C   0  0  0  0  0  3  0  0  0  0  0  0
  -22.2510   -5.1850   21.9130 C   0  0  0  0  0  0  0  0  0  0  0  0
  -22.6610   -4.7160   20.7090 F   0  0  0  0  0  0  0  0  0  0  0  0
  -21.5560   -3.9230   25.2870 F   0  0  0  0  0  0  0  0  0  0  0  0
  -23.0590  -14.0080   21.0780 C   0  0  0  0  0  0  0  0  0  0  0  0
  -22.3190  -13.2500   21.8790 N   0  0  0  0  0  0  0  0  0  0  0  0
  -22.6250  -15.0630   20.6180 O   0  0  0  0  0  0  0  0  0  0  0  0
  -22.6830  -12.3960   22.2720 H   0  0  0  0  0  0  0  0  0  0  0  0
  -21.3750  -13.5290   22.1040 H   0  0  0  0  0  0  0  0  0  0  0  0
  -25.6820  -15.7460   20.4260 N   0  0  0  0  0  0  0  0  0  0  0  0
  -24.9110  -16.3880   20.5710 H   0  0  0  0  0  0  0  0  0  0  0  0
  -26.5380  -16.2110   20.1520 H   0  0  0  0  0  0  0  0  0  0  0  0
  -24.4440  -25.2400   20.5380 C   0  0  0  0  0  1  0  0  0  0  0  0
  -25.8020  -25.3970   20.9660 O   0  0  0  0  0  0  0  0  0  0  0  0
  -28.1850  -26.3460   19.7630 O   0  0  0  0  0  0  0  0  0  0  0  0
  -24.9980  -32.0650   23.5700 C   0  0  0  0  0  0  0  0  0  0  0  0
  -27.2690  -27.5260   19.8720 C   0  0  0  0  0  0  0  0  0  0  0  0
  -23.7220  -30.9590   21.7770 C   0  0  0  0  0  3  0  0  0  0  0  0
  -25.0830  -29.5220   20.1030 C   0  0  0  0  0  0  0  0  0  0  0  0
  -26.2920  -31.0680   21.6250 C   0  0  0  0  0  2  0  0  0  0  0  0
  -26.2850  -29.7600   20.7820 C   0  0  0  0  0  0  0  0  0  0  0  0
  -27.3690  -28.7790   20.6580 C   0  0  0  0  0  3  0  0  0  0  0  0
  -26.0870  -27.5040   19.0980 C   0  0  0  0  0  3  0  0  0  0  0  0
  -25.0150  -28.4250   19.2320 C   0  0  0  0  0  3  0  0  0  0  0  0
  -23.9030  -30.4700   20.3130 C   0  0  0  0  0  2  0  0  0  0  0  0
  -25.0270  -31.3840   22.3790 N   0  0  0  0  0  0  0  0  0  0  0  0
  -23.9300  -32.3260   24.1460 O   0  0  0  0  0  0  0  0  0  0  0  0
  -22.9980  -29.8690   22.6100 C   0  0  0  0  0  0  0  0  0  0  0  0
  -21.6750  -29.7130   22.4180 N   0  0  0  0  0  0  0  0  0  0  0  0
  -23.6350  -29.1660   23.3980 O   0  0  0  0  0  0  0  0  0  0  0  0
  -21.2190  -30.3080   21.7420 H   0  0  0  0  0  0  0  0  0  0  0  0
  -18.2810  -28.4600   22.6980 C   0  0  0  0  0  0  0  0  0  0  0  0
  -20.8310  -28.7030   23.0680 C   0  0  0  0  0  3  0  0  0  0  0  0
  -20.9560  -27.3360   22.3560 C   0  0  0  0  0  2  0  0  0  0  0  0
  -19.8890  -27.1150   21.2800 C   0  0  0  0  0  2  0  0  0  0  0  0
  -18.4890  -27.1870   21.8950 C   0  0  0  0  0  2  0  0  0  0  0  0
  -19.3810  -29.1800   23.2380 C   0  0  0  0  0  0  0  0  0  0  0  0
  -19.1330  -30.3680   23.9590 C   0  0  0  0  0  3  0  0  0  0  0  0
  -17.8180  -30.8380   24.1440 C   0  0  0  0  0  3  0  0  0  0  0  0
  -16.7330  -30.1170   23.6150 C   0  0  0  0  0  3  0  0  0  0  0  0
  -16.9650  -28.9280   22.8990 C   0  0  0  0  0  3  0  0  0  0  0  0
  -26.3050  -32.5620   24.2580 C   0  0  0  0  0  3  0  0  0  0  0  0
  -26.0610  -33.9250   24.7600 N   0  0  0  0  0  0  0  0  0  0  0  0
  -26.4320  -35.0520   24.1380 C   0  0  0  0  0  0  0  0  0  0  0  0
  -27.0760  -35.0480   23.0850 O   0  0  0  0  0  0  0  0  0  0  0  0
  -25.4920  -34.0020   25.5900 H   0  0  0  0  0  0  0  0  0  0  0  0
  -24.7870  -36.9590   24.0680 C   0  0  0  0  0  1  0  0  0  0  0  0
  -26.0260  -36.3940   24.7810 C   0  0  0  0  0  3  0  0  0  0  0  0
  -28.2210  -37.0730   25.6530 C   0  0  0  0  0  1  0  0  0  0  0  0
  -27.1070  -37.4050   24.7690 N   0  0  0  0  0  0  0  0  0  0  0  0
  -26.7520  -38.3180   25.0390 H   0  0  0  0  0  0  0  0  0  0  0  0
  -26.7780  -31.6240   25.4380 C   0  0  1  0  0  0  0  0  0  0  0  0
  -25.6740  -31.3320   26.4810 C   0  0  0  0  0  1  0  0  0  0  0  0
  -27.2790  -30.2650   24.9000 C   0  0  0  0  0  1  0  0  0  0  0  0
  -27.9740  -32.2730   26.1740 C   0  0  0  0  0  1  0  0  0  0  0  0
  -25.2080  -22.6120   21.7970 C   0  0  0  0  0  2  0  0  0  0  0  0
  -23.3800  -23.4220   23.4020 C   0  0  0  0  0  1  0  0  0  0  0  0
  -24.8190  -23.6100   22.9030 C   0  0  0  0  0  2  0  0  0  0  0  0
  1  4  1  0
  2  5  2  0
  2  3  1  0
  3  7  1  0
  3  1  2  0
  4 90  1  0
  5  6  1  0
  6 48  1  0
  6  4  2  0
  7  8  2  0
  9  7  1  0
  9 10  1  0
 11 10  1  0
 12 17  1  0
 13 14  1  0
 13 12  1  0
 15 14  1  0
 15 22  1  0
 15 16  1  0
 17 11  1  0
 17 16  1  0
 18 11  2  0
 19 20  2  0
 20 39  1  0
 21 24  1  0
 21 20  1  0
 22 23  1  0
 22 19  1  0
 23 21  2  0
 24 25  1  0
 25 26  2  0
 27 26  1  0
 28 27  2  0
 29 28  1  0
 29 24  2  0
 30 27  1  0
 30 31  1  0
 31 32  1  0
 32 33  2  0
 34 33  1  0
 34 38  1  0
 35 34  2  0
 36 31  2  0
 36 35  1  0
 37 36  1  0
 39 40  1  0
 40 43  1  0
 40 42  1  0
 41 39  2  0
 44 19  1  0
 44 45  1  0
 46 44  1  0
 47 48  1  0
 49 51  1  0
 49  5  1  0
 50 61  2  0
 51 56  1  0
 52 60  1  0
 52 62  1  0
 53 59  1  0
 53 55  1  0
 54 60  1  0
 55 54  1  0
 56 55  2  0
 57 58  1  0
 57 51  2  0
 58 53  2  0
 59 52  1  0
 60 50  1  0
 62 64  2  0
 63 62  1  0
 65 63  1  0
 66 75  2  0
 66 71  1  0
 67 63  1  0
 67 71  1  0
 68 67  1  0
 69 70  1  0
 69 68  1  0
 70 66  1  0
 71 72  2  0
 72 73  1  0
 74 73  2  0
 75 74  1  0
 76 50  1  0
 76 77  1  0
 76 86  1  0
 77 80  1  0
 78 77  1  0
 78 82  1  0
 79 78  2  0
 82 81  1  0
 84 82  1  0
 84 85  1  0
 84 83  1  0
 86 89  1  1
 86 87  1  0
 88 86  1  0
 90 92  1  0
 92 91  1  0
M  ISO  4   5 101  10 100  11 100  49 101
M  END
>  <TORSDO>  (81) 
F 22

>  <SCORE>  (81) 
-10.655

>  <name>  (81) 
80

>  <ligand_id>  (81) 
80

>  <original_smiles>  (81) 
[H]c1c([H])c([H])c2c(c1[H])C([H])([H])C([H])([H])C([H])([H])C2([H])N([H])C(=O)C1([H])N(C(=O)C([H])(N([H])C(=O)C([H])(N([H])C([H])([H])[H])C([H])([H])[H])C(C([H])([H])[H])(C([H])([H])[H])C([H])([H])[H])C([H])([H])c2c([H])c(Oc3c([H])c(C(=O)C([H])([H])C([H])([H])C(=O)N4C([H])([H])C([H])([H])C([H])([H])C([H])(n5nc(-c6c([H])c([H])c(Oc7c([H])c([H])c(F)c([H])c7F)c([H])c6[H])c(C(=O)N([H])[H])c5N([H])[H])C4([H])[H])c([H])c(C([H])([H])C([H])([H])C([H])([H])[H])c3OC([H])([H])[H])c([H])c([H])c2C1([H])[H]

>  <smiles>  (81) 
[H]c1c([H])c([H])c2c(c1[H])C([H])([H])C([H])([H])C([H])([H])C2([H])N([H])C(=O)C1([H])N(C(=O)C([H])(N([H])C(=O)C([H])(N([H])C([H])([H])[H])C([H])([H])[H])C(C([H])([H])[H])(C([H])([H])[H])C([H])([H])[H])C([H])([H])c2c([H])c(Oc3c([H])c(C(=O)C([H])([H])C([H])([H])C(=O)N4C([H])([H])C([H])([H])C([H])([H])C([H])(n5nc(-c6c([H])c([H])c(Oc7c([H])c([H])c(F)c([H])c7F)c([H])c6[H])c(C(=O)N([H])[H])c5N([H])[H])C4([H])[H])c([H])c(C([H])([H])C([H])([H])C([H])([H])[H])c3OC([H])([H])[H])c([H])c([H])c2C1([H])[H]

$$$$
81:0:0
     RDKit          3D

 94102  0  0  1  0  0  0  0  0999 V2000
  -27.4730  -22.0560   20.7060 C   0  0  0  0  0  0  0  0  0  0  0  0
  -28.0240  -23.0990   20.0570 N   0  0  0  0  0  0  0  0  0  0  0  0
  -26.6760  -22.2150   21.6320 O   0  0  0  0  0  0  0  0  0  0  0  0
  -28.6450  -22.9060   19.2820 H   0  0  0  0  0  0  0  0  0  0  0  0
  -27.8230  -20.6210   20.2770 C   0  0  0  0  0  2  0  0  0  0  0  0
  -29.3330  -20.3330   20.2990 C   0  0  0  0  0  2  0  0  0  0  0  0
  -29.5600  -18.0720   19.2230 C   0  0  0  0  0  3  0  0  0  0  0  0
  -30.5890  -16.1210   20.2940 C   0  0  0  0  0  0  0  0  0  0  0  0
  -29.9620  -16.7260   19.1650 C   0  0  0  0  0  0  0  0  0  0  0  0
  -29.6860  -18.8400   20.3930 C   0  0  0  0  0  0  0  0  0  0  0  0
  -30.6820  -16.8770   21.5060 C   0  0  0  0  0  0  0  0  0  0  0  0
  -30.1710  -18.2120   21.5710 C   0  0  0  0  0  0  0  0  0  0  0  0
  -29.6930  -15.9950   17.8460 C   0  0  0  0  0  1  0  0  0  0  0  0
  -31.3550  -16.3050   22.7540 C   0  0  0  0  0  1  0  0  0  0  0  0
  -30.1470  -18.9330   22.9220 C   0  0  0  0  0  1  0  0  0  0  0  0
  -31.2720  -14.7750   20.1010 C   0  0  0  0  0  0  0  0  0  0  0  0
  -30.8860  -12.5800   19.0790 C   0  0  0  0  0  2  0  0  0  0  0  0
  -29.9470  -12.7640   17.8640 C   0  0  0  0  0  2  0  0  0  0  0  0
  -28.4710  -12.6890   18.3120 C   0  0  0  0  0  2  0  0  0  0  0  0
  -28.1650  -13.5790   19.5420 C   0  0  0  0  0  3  0  0  0  0  0  0
  -29.2210  -13.3900   20.6410 C   0  0  0  0  0  2  0  0  0  0  0  0
  -30.5480  -13.6230   20.0600 N   0  0  0  0  0  0  0  0  0  0  0  0
  -32.4460  -14.8210   19.7300 O   0  0  0  0  0  0  0  0  0  0  0  0
  -25.8240  -14.2540   20.3540 C   0  0  0  0  0  0  0  0  0  0  0  0
  -24.7350  -13.5180   20.7270 C   0  0  0  0  0  0  0  0  0  0  0  0
  -25.1320  -12.1480   20.6340 C   0  0  0  0  0  0  0  0  0  0  0  0
  -26.8190  -13.3400   20.0530 N   0  0  0  0  0  0  0  0  0  0  0  0
  -26.4090  -12.0640   20.2810 N   0  0  0  0  0  0  0  0  0  0  0  0
  -24.3530  -10.9170   20.8040 C   0  0  0  0  0  0  0  0  0  0  0  0
  -24.7180   -9.9350   21.7540 C   0  0  0  0  0  3  0  0  0  0  0  0
  -23.9450   -8.7630   21.9060 C   0  0  0  0  0  3  0  0  0  0  0  0
  -22.7890   -8.5690   21.1110 C   0  0  0  0  0  0  0  0  0  0  0  0
  -22.4410   -9.5390   20.1540 C   0  0  0  0  0  3  0  0  0  0  0  0
  -23.2160  -10.7000   19.9990 C   0  0  0  0  0  3  0  0  0  0  0  0
  -21.9870   -7.4530   21.1770 O   0  0  0  0  0  0  0  0  0  0  0  0
  -21.7960   -6.7740   22.3530 C   0  0  0  0  0  0  0  0  0  0  0  0
  -21.3100   -7.4140   23.5130 C   0  0  0  0  0  3  0  0  0  0  0  0
  -21.0590   -6.6630   24.6800 C   0  0  0  0  0  3  0  0  0  0  0  0
  -21.2860   -5.2730   24.6870 C   0  0  0  0  0  0  0  0  0  0  0  0
  -21.7670   -4.6340   23.5290 C   0  0  0  0  0  3  0  0  0  0  0  0
  -22.0190   -5.3820   22.3670 C   0  0  0  0  0  0  0  0  0  0  0  0
  -22.4650   -4.7570   21.2500 F   0  0  0  0  0  0  0  0  0  0  0  0
  -21.0410   -4.5510   25.8040 F   0  0  0  0  0  0  0  0  0  0  0  0
  -23.3680  -14.0470   21.0580 C   0  0  0  0  0  0  0  0  0  0  0  0
  -22.6450  -13.3780   21.9460 N   0  0  0  0  0  0  0  0  0  0  0  0
  -22.9490  -15.0930   20.5580 O   0  0  0  0  0  0  0  0  0  0  0  0
  -22.9860  -12.5220   22.3620 H   0  0  0  0  0  0  0  0  0  0  0  0
  -21.7340  -13.7220   22.2170 H   0  0  0  0  0  0  0  0  0  0  0  0
  -26.0520  -15.6230   20.2240 N   0  0  0  0  0  0  0  0  0  0  0  0
  -25.3230  -16.3150   20.3840 H   0  0  0  0  0  0  0  0  0  0  0  0
  -26.9320  -16.0290   19.9270 H   0  0  0  0  0  0  0  0  0  0  0  0
  -27.7980  -24.5100   20.4100 C   0  0  0  0  0  2  0  0  0  0  0  0
  -28.4290  -25.5110   19.4010 C   0  0  0  0  0  2  0  0  0  0  0  0
  -28.4490  -26.8860   19.8580 O   0  0  0  0  0  0  0  0  0  0  0  0
  -24.6760  -31.9560   23.1990 C   0  0  0  0  0  0  0  0  0  0  0  0
  -27.2720  -27.6170   19.8870 C   0  0  0  0  0  0  0  0  0  0  0  0
  -23.4400  -30.6020   21.5460 C   0  0  0  0  0  3  0  0  0  0  0  0
  -24.8670  -29.1340   20.0310 C   0  0  0  0  0  0  0  0  0  0  0  0
  -25.9640  -30.9810   21.3050 C   0  0  0  0  0  2  0  0  0  0  0  0
  -26.0430  -29.6390   20.5970 C   0  0  0  0  0  0  0  0  0  0  0  0
  -27.2460  -28.8930   20.5130 C   0  0  0  0  0  3  0  0  0  0  0  0
  -26.0660  -27.1360   19.3210 C   0  0  0  0  0  3  0  0  0  0  0  0
  -24.8750  -27.8820   19.3960 C   0  0  0  0  0  3  0  0  0  0  0  0
  -23.6180  -29.9820   20.1380 C   0  0  0  0  0  2  0  0  0  0  0  0
  -24.7130  -31.1880   22.0730 N   0  0  0  0  0  0  0  0  0  0  0  0
  -23.6070  -32.1990   23.7710 O   0  0  0  0  0  0  0  0  0  0  0  0
  -22.8340  -29.5320   22.4810 C   0  0  0  0  0  0  0  0  0  0  0  0
  -21.5170  -29.3090   22.3590 N   0  0  0  0  0  0  0  0  0  0  0  0
  -23.5430  -28.9100   23.2760 O   0  0  0  0  0  0  0  0  0  0  0  0
  -21.0160  -29.8560   21.6750 H   0  0  0  0  0  0  0  0  0  0  0  0
  -18.1880  -27.9990   22.8460 C   0  0  0  0  0  0  0  0  0  0  0  0
  -20.7350  -28.3330   23.1160 C   0  0  0  0  0  3  0  0  0  0  0  0
  -20.8860  -26.9190   22.5090 C   0  0  0  0  0  2  0  0  0  0  0  0
  -19.7910  -26.5800   21.4930 C   0  0  0  0  0  2  0  0  0  0  0  0
  -18.4080  -26.6710   22.1430 C   0  0  0  0  0  2  0  0  0  0  0  0
  -19.2820  -28.7880   23.2910 C   0  0  0  0  0  0  0  0  0  0  0  0
  -19.0220  -30.0330   23.9070 C   0  0  0  0  0  3  0  0  0  0  0  0
  -17.7030  -30.4880   24.0820 C   0  0  0  0  0  3  0  0  0  0  0  0
  -16.6230  -29.6940   23.6580 C   0  0  0  0  0  3  0  0  0  0  0  0
  -16.8670  -28.4510   23.0460 C   0  0  0  0  0  3  0  0  0  0  0  0
  -25.9730  -32.5770   23.8090 C   0  0  0  0  0  3  0  0  0  0  0  0
  -25.6640  -33.9670   24.1620 N   0  0  0  0  0  0  0  0  0  0  0  0
  -25.9680  -35.0280   23.4060 C   0  0  0  0  0  0  0  0  0  0  0  0
  -26.6170  -34.9450   22.3610 O   0  0  0  0  0  0  0  0  0  0  0  0
  -25.0840  -34.1100   24.9740 H   0  0  0  0  0  0  0  0  0  0  0  0
  -24.2070  -36.7980   23.1090 C   0  0  0  0  0  1  0  0  0  0  0  0
  -25.4720  -36.4050   23.8910 C   0  0  0  0  0  3  0  0  0  0  0  0
  -27.6150  -37.3050   24.6840 C   0  0  0  0  0  1  0  0  0  0  0  0
  -26.4890  -37.4730   23.7690 N   0  0  0  0  0  0  0  0  0  0  0  0
  -26.0760  -38.3880   23.9320 H   0  0  0  0  0  0  0  0  0  0  0  0
  -26.5110  -31.7930   25.0660 C   0  0  1  0  0  0  0  0  0  0  0  0
  -25.4320  -31.5280   26.1420 C   0  0  0  0  0  1  0  0  0  0  0  0
  -27.0980  -30.4250   24.6500 C   0  0  0  0  0  1  0  0  0  0  0  0
  -27.6720  -32.5830   25.7190 C   0  0  0  0  0  1  0  0  0  0  0  0
  1  3  2  0
  2 52  1  0
  2  1  1  0
  4  2  1  0
  5  6  1  0
  5  1  1  0
  6 10  1  0
  7 10  1  0
  8 11  2  0
  9  7  2  0
  9  8  1  0
 10 12  2  0
 11 12  1  0
 11 14  1  0
 12 15  1  0
 13  9  1  0
 16  8  1  0
 17 22  1  0
 18 19  1  0
 18 17  1  0
 20 19  1  0
 20 27  1  0
 20 21  1  0
 22 16  1  0
 22 21  1  0
 23 16  2  0
 24 25  2  0
 25 44  1  0
 26 25  1  0
 26 29  1  0
 27 28  1  0
 27 24  1  0
 28 26  2  0
 29 30  1  0
 30 31  2  0
 32 35  1  0
 32 31  1  0
 33 32  2  0
 34 33  1  0
 34 29  2  0
 35 36  1  0
 36 41  2  0
 36 37  1  0
 37 38  2  0
 38 39  1  0
 39 43  1  0
 40 39  2  0
 41 40  1  0
 42 41  1  0
 44 45  1  0
 45 48  1  0
 45 47  1  0
 46 44  2  0
 49 24  1  0
 49 50  1  0
 51 49  1  0
 53 54  1  0
 53 52  1  0
 54 56  1  0
 55 66  2  0
 56 61  1  0
 57 65  1  0
 57 67  1  0
 58 64  1  0
 58 60  1  0
 59 65  1  0
 60 59  1  0
 61 60  2  0
 62 63  1  0
 62 56  2  0
 63 58  2  0
 64 57  1  0
 65 55  1  0
 67 69  2  0
 68 67  1  0
 70 68  1  0
 71 80  2  0
 71 76  1  0
 72 68  1  0
 72 76  1  0
 73 72  1  0
 74 75  1  0
 74 73  1  0
 75 71  1  0
 76 77  2  0
 77 78  1  0
 79 78  2  0
 80 79  1  0
 81 55  1  0
 81 82  1  0
 81 91  1  0
 82 85  1  0
 83 87  1  0
 83 82  1  0
 84 83  2  0
 87 86  1  0
 89 87  1  0
 89 90  1  0
 89 88  1  0
 91 94  1  1
 91 92  1  0
 93 91  1  0
M  ISO  4   8 100  16 100  53 101  54 101
M  END
>  <TORSDO>  (82) 
F 21

>  <SCORE>  (82) 
-9.522

>  <name>  (82) 
81

>  <ligand_id>  (82) 
81

>  <original_smiles>  (82) 
[H]c1c([H])c([H])c2c(c1[H])C([H])([H])C([H])([H])C([H])([H])C2([H])N([H])C(=O)C1([H])N(C(=O)C([H])(N([H])C(=O)C([H])(N([H])C([H])([H])[H])C([H])([H])[H])C(C([H])([H])[H])(C([H])([H])[H])C([H])([H])[H])C([H])([H])c2c([H])c(OC([H])([H])C([H])([H])N([H])C(=O)C([H])([H])C([H])([H])c3c([H])c(C([H])([H])[H])c(C(=O)N4C([H])([H])C([H])([H])C([H])([H])C([H])(n5nc(-c6c([H])c([H])c(Oc7c([H])c([H])c(F)c([H])c7F)c([H])c6[H])c(C(=O)N([H])[H])c5N([H])[H])C4([H])[H])c(C([H])([H])[H])c3C([H])([H])[H])c([H])c([H])c2C1([H])[H]

>  <smiles>  (82) 
[H]c1c([H])c([H])c2c(c1[H])C([H])([H])C([H])([H])C([H])([H])C2([H])N([H])C(=O)C1([H])N(C(=O)C([H])(N([H])C(=O)C([H])(N([H])C([H])([H])[H])C([H])([H])[H])C(C([H])([H])[H])(C([H])([H])[H])C([H])([H])[H])C([H])([H])c2c([H])c(OC([H])([H])C([H])([H])N([H])C(=O)C([H])([H])C([H])([H])c3c([H])c(C([H])([H])[H])c(C(=O)N4C([H])([H])C([H])([H])C([H])([H])C([H])(n5nc(-c6c([H])c([H])c(Oc7c([H])c([H])c(F)c([H])c7F)c([H])c6[H])c(C(=O)N([H])[H])c5N([H])[H])C4([H])[H])c(C([H])([H])[H])c3C([H])([H])[H])c([H])c([H])c2C1([H])[H]

$$$$
82:0:0
     RDKit          3D

 85 91  0  0  1  0  0  0  0  0999 V2000
  -30.9420  -18.8650   19.7900 C   0  0  0  0  0  3  0  0  0  0  0  0
  -31.1730  -20.2810   19.6630 C   0  0  0  0  0  3  0  0  0  0  0  0
  -28.7600  -19.5600   20.3460 C   0  0  0  0  0  3  0  0  0  0  0  0
  -29.7500  -18.1630   20.1510 C   0  0  0  0  0  0  0  0  0  0  0  0
  -30.2800  -21.3940   19.8520 C   0  0  0  0  0  0  0  0  0  0  0  0
  -28.9110  -21.2830   20.2140 C   0  0  0  0  0  3  0  0  0  0  0  0
  -30.8510  -22.7870   19.6380 C   0  0  0  0  0  1  0  0  0  0  0  0
  -30.1090  -16.2520   20.2140 C   0  0  0  0  0  0  0  0  0  0  0  0
  -30.2910  -13.5760   19.4430 C   0  0  0  0  0  2  0  0  0  0  0  0
  -29.4790  -12.9140   18.2780 C   0  0  0  0  0  2  0  0  0  0  0  0
  -28.1100  -12.4300   18.7590 C   0  0  0  0  0  2  0  0  0  0  0  0
  -27.5070  -13.4640   19.7260 C   0  0  0  0  0  3  0  0  0  0  0  0
  -28.4850  -14.0370   20.7970 C   0  0  0  0  0  2  0  0  0  0  0  0
  -29.5750  -14.8170   20.1090 N   0  0  0  0  0  0  0  0  0  0  0  0
  -31.3340  -15.9570   20.1650 O   0  0  0  0  0  0  0  0  0  0  0  0
  -25.1510  -13.9100   20.5090 C   0  0  0  0  0  0  0  0  0  0  0  0
  -24.1070  -13.1080   20.8680 C   0  0  0  0  0  0  0  0  0  0  0  0
  -24.6040  -11.7680   20.8330 C   0  0  0  0  0  0  0  0  0  0  0  0
  -26.2130  -13.0670   20.2660 N   0  0  0  0  0  0  0  0  0  0  0  0
  -25.9010  -11.7660   20.5220 N   0  0  0  0  0  0  0  0  0  0  0  0
  -23.8920  -10.4930   21.0160 C   0  0  0  0  0  0  0  0  0  0  0  0
  -24.3140   -9.5350   21.9630 C   0  0  0  0  0  3  0  0  0  0  0  0
  -23.5930   -8.3320   22.1390 C   0  0  0  0  0  3  0  0  0  0  0  0
  -22.4350   -8.0790   21.3670 C   0  0  0  0  0  0  0  0  0  0  0  0
  -22.0300   -9.0270   20.4100 C   0  0  0  0  0  3  0  0  0  0  0  0
  -22.7520  -10.2190   20.2320 C   0  0  0  0  0  3  0  0  0  0  0  0
  -21.6860   -6.9290   21.4500 O   0  0  0  0  0  0  0  0  0  0  0  0
  -21.6120   -6.2000   22.6110 C   0  0  0  0  0  0  0  0  0  0  0  0
  -21.1200   -6.7610   23.8100 C   0  0  0  0  0  3  0  0  0  0  0  0
  -20.9940   -5.9580   24.9620 C   0  0  0  0  0  3  0  0  0  0  0  0
  -21.3490   -4.5970   24.9160 C   0  0  0  0  0  0  0  0  0  0  0  0
  -21.8340   -4.0370   23.7210 C   0  0  0  0  0  3  0  0  0  0  0  0
  -21.9610   -4.8360   22.5710 C   0  0  0  0  0  0  0  0  0  0  0  0
  -22.4060   -4.2840   21.4170 F   0  0  0  0  0  0  0  0  0  0  0  0
  -21.2230   -3.8240   26.0200 F   0  0  0  0  0  0  0  0  0  0  0  0
  -22.7000  -13.5610   21.1220 C   0  0  0  0  0  0  0  0  0  0  0  0
  -21.9800  -12.8630   21.9910 N   0  0  0  0  0  0  0  0  0  0  0  0
  -22.2520  -14.5750   20.5890 O   0  0  0  0  0  0  0  0  0  0  0  0
  -22.3580  -12.0440   22.4450 H   0  0  0  0  0  0  0  0  0  0  0  0
  -21.0360  -13.1510   22.2080 H   0  0  0  0  0  0  0  0  0  0  0  0
  -25.2800  -15.2850   20.3320 N   0  0  0  0  0  0  0  0  0  0  0  0
  -24.4950  -15.9170   20.4390 H   0  0  0  0  0  0  0  0  0  0  0  0
  -26.1220  -15.7500   20.0170 H   0  0  0  0  0  0  0  0  0  0  0  0
  -27.9340  -23.0900   20.2980 C   0  0  0  0  0 15  0  0  0  0  0  0
  -28.0810  -25.0320   20.3270 O   0  0  0  0  0  1  0  0  0  0  0  0
  -24.6510  -31.8320   23.1730 C   0  0  0  0  0  0  0  0  0  0  0  0
  -27.1570  -26.4120   20.2910 C   0  0  0  0  0  0  0  0  0  0  0  0
  -23.4840  -30.4140   21.5470 C   0  0  0  0  0  3  0  0  0  0  0  0
  -24.9370  -28.6770   20.1850 C   0  0  0  0  0  0  0  0  0  0  0  0
  -26.0780  -30.4440   21.4840 C   0  0  0  0  0  2  0  0  0  0  0  0
  -26.1360  -28.9670   20.8440 C   0  0  0  0  0  0  0  0  0  0  0  0
  -27.2140  -27.8750   20.8510 C   0  0  0  0  0  3  0  0  0  0  0  0
  -25.9200  -26.4250   19.5680 C   0  0  0  0  0  3  0  0  0  0  0  0
  -24.8890  -27.4360   19.5200 C   0  0  0  0  0  3  0  0  0  0  0  0
  -23.7490  -29.6750   20.1980 C   0  0  0  0  0  2  0  0  0  0  0  0
  -24.7660  -30.9390   22.1200 N   0  0  0  0  0  0  0  0  0  0  0  0
  -23.5480  -32.1550   23.6530 O   0  0  0  0  0  0  0  0  0  0  0  0
  -22.7250  -29.4800   22.5310 C   0  0  0  0  0  0  0  0  0  0  0  0
  -21.3860  -29.3580   22.4090 N   0  0  0  0  0  0  0  0  0  0  0  0
  -23.3590  -28.8550   23.3850 O   0  0  0  0  0  0  0  0  0  0  0  0
  -20.9190  -29.9100   21.7030 H   0  0  0  0  0  0  0  0  0  0  0  0
  -17.9750  -28.2060   22.9570 C   0  0  0  0  0  0  0  0  0  0  0  0
  -20.5430  -28.4380   23.1890 C   0  0  0  0  0  3  0  0  0  0  0  0
  -20.6140  -27.0030   22.6160 C   0  0  0  0  0  2  0  0  0  0  0  0
  -19.4980  -26.7010   21.6100 C   0  0  0  0  0  2  0  0  0  0  0  0
  -18.1250  -26.8600   22.2680 C   0  0  0  0  0  2  0  0  0  0  0  0
  -19.1090  -28.9540   23.3740 C   0  0  0  0  0  0  0  0  0  0  0  0
  -18.9080  -30.2090   23.9880 C   0  0  0  0  0  3  0  0  0  0  0  0
  -17.6100  -30.7180   24.1830 C   0  0  0  0  0  3  0  0  0  0  0  0
  -16.4930  -29.9690   23.7760 C   0  0  0  0  0  3  0  0  0  0  0  0
  -16.6760  -28.7130   23.1700 C   0  0  0  0  0  3  0  0  0  0  0  0
  -25.8950  -32.5040   23.8300 C   0  0  0  0  0  3  0  0  0  0  0  0
  -25.5540  -33.9040   24.1700 N   0  0  0  0  0  0  0  0  0  0  0  0
  -25.8670  -34.9840   23.4390 C   0  0  0  0  0  0  0  0  0  0  0  0
  -26.5200  -34.9060   22.3960 O   0  0  0  0  0  0  0  0  0  0  0  0
  -24.9660  -34.0340   24.9800 H   0  0  0  0  0  0  0  0  0  0  0  0
  -24.1100  -36.7780   23.1830 C   0  0  0  0  0  1  0  0  0  0  0  0
  -25.3860  -36.3660   23.9360 C   0  0  0  0  0  3  0  0  0  0  0  0
  -27.5330  -37.2830   24.7070 C   0  0  0  0  0  1  0  0  0  0  0  0
  -26.4030  -37.4320   23.7930 N   0  0  0  0  0  0  0  0  0  0  0  0
  -25.9910  -38.3480   23.9440 H   0  0  0  0  0  0  0  0  0  0  0  0
  -26.3830  -31.7570   25.1350 C   0  0  1  0  0  0  0  0  0  0  0  0
  -25.2650  -31.5320   26.1800 C   0  0  0  0  0  1  0  0  0  0  0  0
  -26.9810  -30.3750   24.7960 C   0  0  0  0  0  1  0  0  0  0  0  0
  -27.5140  -32.5650   25.8110 C   0  0  0  0  0  1  0  0  0  0  0  0
  1  4  1  0
  2  1  2  0
  2  5  1  0
  4  8  1  0
  4  3  2  0
  5  6  2  0
  6  3  1  0
  7  5  1  0
  9 14  1  0
 10 11  1  0
 10  9  1  0
 12 11  1  0
 12 19  1  0
 12 13  1  0
 14  8  1  0
 14 13  1  0
 15  8  2  0
 16 17  2  0
 17 36  1  0
 18 17  1  0
 18 21  1  0
 19 16  1  0
 19 20  1  0
 20 18  2  0
 21 22  1  0
 22 23  2  0
 24 27  1  0
 24 23  1  0
 25 24  2  0
 26 25  1  0
 26 21  2  0
 27 28  1  0
 28 29  1  0
 29 30  2  0
 31 30  1  0
 31 35  1  0
 32 31  2  0
 33 28  2  0
 33 32  1  0
 34 33  1  0
 36 37  1  0
 37 40  1  0
 37 39  1  0
 38 36  2  0
 41 42  1  0
 41 16  1  0
 43 41  1  0
 46 57  2  0
 47 45  1  0
 47 52  1  0
 48 56  1  0
 48 58  1  0
 49 55  1  0
 49 51  1  0
 50 56  1  0
 51 52  2  0
 51 50  1  0
 53 47  2  0
 54 53  1  0
 54 49  2  0
 55 48  1  0
 56 46  1  0
 58 60  2  0
 59 58  1  0
 61 59  1  0
 62 71  2  0
 62 67  1  0
 63 59  1  0
 63 67  1  0
 64 63  1  0
 65 66  1  0
 65 64  1  0
 66 62  1  0
 67 68  2  0
 68 69  1  0
 70 69  2  0
 71 70  1  0
 72 46  1  0
 72 73  1  0
 72 82  1  0
 73 76  1  0
 74 78  1  0
 74 73  1  0
 75 74  2  0
 78 77  1  0
 80 78  1  0
 80 81  1  0
 80 79  1  0
 82 85  1  1
 82 83  1  0
 84 82  1  0
M  ISO  4   4 100   8 100  44 101  45 101
M  END
>  <TORSDO>  (83) 
F 17

>  <SCORE>  (83) 
-16.635

>  <name>  (83) 
82

>  <ligand_id>  (83) 
82

>  <original_smiles>  (83) 
[H]c1c([H])c([H])c2c(c1[H])C([H])([H])C([H])([H])C([H])([H])C2([H])N([H])C(=O)C1([H])N(C(=O)C([H])(N([H])C(=O)C([H])(N([H])C([H])([H])[H])C([H])([H])[H])C(C([H])([H])[H])(C([H])([H])[H])C([H])([H])[H])C([H])([H])c2c([H])c(OC([H])([H])c3c([H])c(C(=O)N4C([H])([H])C([H])([H])C([H])([H])C([H])(n5nc(-c6c([H])c([H])c(Oc7c([H])c([H])c(F)c([H])c7F)c([H])c6[H])c(C(=O)N([H])[H])c5N([H])[H])C4([H])[H])c([H])c([H])c3C([H])([H])[H])c([H])c([H])c2C1([H])[H]

>  <smiles>  (83) 
[H]c1c([H])c([H])c2c(c1[H])C([H])([H])C([H])([H])C([H])([H])C2([H])N([H])C(=O)C1([H])N(C(=O)C([H])(N([H])C(=O)C([H])(N([H])C([H])([H])[H])C([H])([H])[H])C(C([H])([H])[H])(C([H])([H])[H])C([H])([H])[H])C([H])([H])c2c([H])c(OC([H])([H])c3c([H])c(C(=O)N4C([H])([H])C([H])([H])C([H])([H])C([H])(n5nc(-c6c([H])c([H])c(Oc7c([H])c([H])c(F)c([H])c7F)c([H])c6[H])c(C(=O)N([H])[H])c5N([H])[H])C4([H])[H])c([H])c([H])c3C([H])([H])[H])c([H])c([H])c2C1([H])[H]

$$$$
83:0:0
     RDKit          3D

 89 97  0  0  1  0  0  0  0  0999 V2000
  -29.8330  -22.7230   19.3930 C   0  0  0  0  0  3  0  0  0  0  0  0
  -29.6400  -24.1890   19.2840 C   0  0  0  0  0  3  0  0  0  0  0  0
  -27.8070  -24.0900   20.6780 C   0  0  0  0  0  3  0  0  0  0  0  0
  -29.0330  -21.7980   20.1710 C   0  0  0  0  0  0  0  0  0  0  0  0
  -28.6120  -25.0130   19.9070 C   0  0  0  0  0  0  0  0  0  0  0  0
  -27.9890  -22.6190   20.7960 C   0  0  0  0  0  0  0  0  0  0  0  0
  -29.0670  -20.0980   20.2660 C   0  0  0  0  0  0  0  0  0  0  0  0
  -27.9620  -19.5750   20.4290 O   0  0  0  0  0  0  0  0  0  0  0  0
  -30.2440  -18.8670   20.1960 C   0  0  0  0  0  3  0  0  0  0  0  0
  -29.9470  -17.1480   20.4490 C   0  0  0  0  0  3  0  0  0  0  0  0
  -30.8950  -15.7190   20.2880 C   0  0  0  0  0  0  0  0  0  0  0  0
  -30.9620  -13.2920   19.4280 C   0  0  0  0  0  2  0  0  0  0  0  0
  -30.0590  -13.1380   18.1790 C   0  0  0  0  0  2  0  0  0  0  0  0
  -28.5930  -12.8760   18.5790 C   0  0  0  0  0  2  0  0  0  0  0  0
  -28.1240  -13.8120   19.7200 C   0  0  0  0  0  3  0  0  0  0  0  0
  -29.1510  -13.9110   20.8640 C   0  0  0  0  0  2  0  0  0  0  0  0
  -30.4090  -14.3940   20.2800 N   0  0  0  0  0  0  0  0  0  0  0  0
  -32.1050  -15.8060   20.0370 O   0  0  0  0  0  0  0  0  0  0  0  0
  -25.7370  -14.3450   20.4530 C   0  0  0  0  0  0  0  0  0  0  0  0
  -24.6750  -13.5520   20.7930 C   0  0  0  0  0  0  0  0  0  0  0  0
  -25.1550  -12.2060   20.7460 C   0  0  0  0  0  0  0  0  0  0  0  0
  -26.7890  -13.4820   20.2040 N   0  0  0  0  0  0  0  0  0  0  0  0
  -26.4520  -12.1890   20.4500 N   0  0  0  0  0  0  0  0  0  0  0  0
  -24.4370  -10.9340   20.9040 C   0  0  0  0  0  0  0  0  0  0  0  0
  -24.8340   -9.9770   21.8630 C   0  0  0  0  0  3  0  0  0  0  0  0
  -24.1160   -8.7710   22.0130 C   0  0  0  0  0  3  0  0  0  0  0  0
  -22.9850   -8.5140   21.2000 C   0  0  0  0  0  0  0  0  0  0  0  0
  -22.6080   -9.4600   20.2300 C   0  0  0  0  0  3  0  0  0  0  0  0
  -23.3280  -10.6570   20.0810 C   0  0  0  0  0  3  0  0  0  0  0  0
  -22.2430   -7.3600   21.2550 O   0  0  0  0  0  0  0  0  0  0  0  0
  -22.1140   -6.6400   22.4160 C   0  0  0  0  0  0  0  0  0  0  0  0
  -21.5560   -7.2050   23.5840 C   0  0  0  0  0  3  0  0  0  0  0  0
  -21.3790   -6.4110   24.7350 C   0  0  0  0  0  3  0  0  0  0  0  0
  -21.7500   -5.0530   24.7170 C   0  0  0  0  0  0  0  0  0  0  0  0
  -22.2980   -4.4860   23.5530 C   0  0  0  0  0  3  0  0  0  0  0  0
  -22.4770   -5.2780   22.4050 C   0  0  0  0  0  0  0  0  0  0  0  0
  -22.9880   -4.7230   21.2800 F   0  0  0  0  0  0  0  0  0  0  0  0
  -21.5710   -4.2880   25.8190 F   0  0  0  0  0  0  0  0  0  0  0  0
  -23.2700  -14.0090   21.0490 C   0  0  0  0  0  0  0  0  0  0  0  0
  -22.5320  -13.2880   21.8840 N   0  0  0  0  0  0  0  0  0  0  0  0
  -22.8340  -15.0460   20.5460 O   0  0  0  0  0  0  0  0  0  0  0  0
  -22.8990  -12.4510   22.3150 H   0  0  0  0  0  0  0  0  0  0  0  0
  -21.5860  -13.5720   22.0950 H   0  0  0  0  0  0  0  0  0  0  0  0
  -25.8880  -15.7210   20.3060 N   0  0  0  0  0  0  0  0  0  0  0  0
  -25.1130  -16.3640   20.4340 H   0  0  0  0  0  0  0  0  0  0  0  0
  -26.7440  -16.1820   20.0250 H   0  0  0  0  0  0  0  0  0  0  0  0
  -25.7740  -22.3710   21.6230 C   0  0  0  0  0  1  0  0  0  0  0  0
  -27.1290  -21.9440   21.6330 O   0  0  0  0  0  0  0  0  0  0  0  0
  -28.5740  -26.5280   19.8510 O   0  0  0  0  0  0  0  0  0  0  0  0
  -24.9100  -32.0030   23.4220 C   0  0  0  0  0  0  0  0  0  0  0  0
  -27.4960  -27.5200   19.9480 C   0  0  0  0  0  0  0  0  0  0  0  0
  -23.7210  -30.7670   21.6530 C   0  0  0  0  0  3  0  0  0  0  0  0
  -25.1750  -29.3220   20.0830 C   0  0  0  0  0  0  0  0  0  0  0  0
  -26.2810  -31.0250   21.5260 C   0  0  0  0  0  2  0  0  0  0  0  0
  -26.3540  -29.6910   20.7410 C   0  0  0  0  0  0  0  0  0  0  0  0
  -27.5120  -28.8100   20.6530 C   0  0  0  0  0  3  0  0  0  0  0  0
  -26.2890  -27.2810   19.2590 C   0  0  0  0  0  3  0  0  0  0  0  0
  -25.1600  -28.1360   19.3280 C   0  0  0  0  0  3  0  0  0  0  0  0
  -23.9490  -30.2190   20.2160 C   0  0  0  0  0  2  0  0  0  0  0  0
  -24.9910  -31.2870   22.2560 N   0  0  0  0  0  0  0  0  0  0  0  0
  -23.8210  -32.2350   23.9700 O   0  0  0  0  0  0  0  0  0  0  0  0
  -23.0380  -29.6760   22.5160 C   0  0  0  0  0  0  0  0  0  0  0  0
  -21.7150  -29.4970   22.3470 N   0  0  0  0  0  0  0  0  0  0  0  0
  -23.7040  -28.9960   23.3000 O   0  0  0  0  0  0  0  0  0  0  0  0
  -21.2350  -30.0960   21.6900 H   0  0  0  0  0  0  0  0  0  0  0  0
  -18.3440  -28.2050   22.6970 C   0  0  0  0  0  0  0  0  0  0  0  0
  -20.8950  -28.4810   23.0180 C   0  0  0  0  0  3  0  0  0  0  0  0
  -21.0260  -27.1090   22.3140 C   0  0  0  0  0  2  0  0  0  0  0  0
  -19.9410  -26.8660   21.2600 C   0  0  0  0  0  2  0  0  0  0  0  0
  -18.5510  -26.9290   21.8980 C   0  0  0  0  0  2  0  0  0  0  0  0
  -19.4460  -28.9410   23.2090 C   0  0  0  0  0  0  0  0  0  0  0  0
  -19.1980  -30.1370   23.9170 C   0  0  0  0  0  3  0  0  0  0  0  0
  -17.8820  -30.5970   24.1170 C   0  0  0  0  0  3  0  0  0  0  0  0
  -16.7960  -29.8560   23.6200 C   0  0  0  0  0  3  0  0  0  0  0  0
  -17.0270  -28.6620   22.9160 C   0  0  0  0  0  3  0  0  0  0  0  0
  -26.1810  -32.5820   24.1140 C   0  0  0  0  0  3  0  0  0  0  0  0
  -26.6890  -31.6960   25.3190 C   0  0  1  0  0  0  0  0  0  0  0  0
  -25.5890  -31.3570   26.3520 C   0  0  0  0  0  1  0  0  0  0  0  0
  -27.2810  -30.3600   24.8130 C   0  0  0  0  0  1  0  0  0  0  0  0
  -27.8300  -32.4290   26.0640 C   0  0  0  0  0  1  0  0  0  0  0  0
  -25.8600  -33.9410   24.5840 N   0  0  0  0  0  0  0  0  0  0  0  0
  -26.1620  -35.0720   23.9290 C   0  0  0  0  0  0  0  0  0  0  0  0
  -26.8070  -35.0800   22.8780 O   0  0  0  0  0  0  0  0  0  0  0  0
  -25.2800  -34.0070   25.4080 H   0  0  0  0  0  0  0  0  0  0  0  0
  -24.3920  -36.8590   23.8210 C   0  0  0  0  0  1  0  0  0  0  0  0
  -25.6750  -36.4040   24.5360 C   0  0  0  0  0  3  0  0  0  0  0  0
  -27.8240  -37.2550   25.3650 C   0  0  0  0  0  1  0  0  0  0  0  0
  -26.6870  -37.4810   24.4770 N   0  0  0  0  0  0  0  0  0  0  0  0
  -26.2730  -38.3780   24.7140 H   0  0  0  0  0  0  0  0  0  0  0  0
  1  4  1  0
  2  1  2  0
  2  5  1  0
  3  6  1  0
  4  7  1  0
  4  6  2  0
  5  3  2  0
  6 48  1  0
  7  8  2  0
  9  7  1  0
  9 10  2  0
 11 10  1  0
 12 17  1  0
 13 14  1  0
 13 12  1  0
 15 14  1  0
 15 22  1  0
 15 16  1  0
 17 11  1  0
 17 16  1  0
 18 11  2  0
 19 20  2  0
 20 39  1  0
 21 20  1  0
 21 24  1  0
 22 23  1  0
 22 19  1  0
 23 21  2  0
 24 25  1  0
 25 26  2  0
 27 30  1  0
 27 26  1  0
 28 27  2  0
 29 28  1  0
 29 24  2  0
 30 31  1  0
 31 32  1  0
 32 33  2  0
 34 33  1  0
 34 38  1  0
 35 34  2  0
 36 31  2  0
 36 35  1  0
 37 36  1  0
 39 40  1  0
 40 43  1  0
 40 42  1  0
 41 39  2  0
 44 45  1  0
 44 19  1  0
 46 44  1  0
 47 48  1  0
 49  5  1  0
 49 51  1  0
 50 61  2  0
 51 56  1  0
 52 60  1  0
 52 62  1  0
 53 59  1  0
 53 55  1  0
 54 60  1  0
 55 54  1  0
 56 55  2  0
 57 58  1  0
 57 51  2  0
 58 53  2  0
 59 52  1  0
 60 50  1  0
 62 64  2  0
 63 62  1  0
 65 63  1  0
 66 75  2  0
 66 71  1  0
 67 63  1  0
 67 71  1  0
 68 67  1  0
 69 70  1  0
 69 68  1  0
 70 66  1  0
 71 72  2  0
 72 73  1  0
 74 73  2  0
 75 74  1  0
 76 50  1  0
 76 81  1  0
 76 77  1  0
 77 80  1  1
 77 78  1  0
 79 77  1  0
 81 84  1  0
 82 86  1  0
 82 81  1  0
 83 82  2  0
 86 85  1  0
 88 86  1  0
 88 89  1  0
 88 87  1  0
M  ISO  4   5 101  10 100  11 100  49 101
M  END
>  <TORSDO>  (84) 
F 20

>  <SCORE>  (84) 
-12.249

>  <name>  (84) 
83

>  <ligand_id>  (84) 
83

>  <original_smiles>  (84) 
[H]c1c([H])c([H])c2c(c1[H])C([H])([H])C([H])([H])C([H])([H])C2([H])N([H])C(=O)C1([H])N(C(=O)C([H])(N([H])C(=O)C([H])(N([H])C([H])([H])[H])C([H])([H])[H])C(C([H])([H])[H])(C([H])([H])[H])C([H])([H])[H])C([H])([H])c2c([H])c(Oc3c([H])c([H])c(C(=O)C([H])([H])C([H])([H])C(=O)N4C([H])([H])C([H])([H])C([H])([H])C([H])(n5nc(-c6c([H])c([H])c(Oc7c([H])c([H])c(F)c([H])c7F)c([H])c6[H])c(C(=O)N([H])[H])c5N([H])[H])C4([H])[H])c(OC([H])([H])[H])c3[H])c([H])c([H])c2C1([H])[H]

>  <smiles>  (84) 
[H]c1c([H])c([H])c2c(c1[H])C([H])([H])C([H])([H])C([H])([H])C2([H])N([H])C(=O)C1([H])N(C(=O)C([H])(N([H])C(=O)C([H])(N([H])C([H])([H])[H])C([H])([H])[H])C(C([H])([H])[H])(C([H])([H])[H])C([H])([H])[H])C([H])([H])c2c([H])c(Oc3c([H])c([H])c(C(=O)C([H])([H])C([H])([H])C(=O)N4C([H])([H])C([H])([H])C([H])([H])C([H])(n5nc(-c6c([H])c([H])c(Oc7c([H])c([H])c(F)c([H])c7F)c([H])c6[H])c(C(=O)N([H])[H])c5N([H])[H])C4([H])[H])c(OC([H])([H])[H])c3[H])c([H])c([H])c2C1([H])[H]

$$$$
84:0:0
     RDKit          3D

 89 97  0  0  1  0  0  0  0  0999 V2000
  -28.3000  -19.5640   20.5700 C   0  0  0  0  0  3  0  0  0  0  0  0
  -28.6050  -18.0570   20.5390 C   0  0  0  0  0  3  0  0  0  0  0  0
  -29.1290  -20.7440   20.1760 C   0  0  0  0  0  0  0  0  0  0  0  0
  -29.8270  -17.3300   20.0880 C   0  0  0  0  0  0  0  0  0  0  0  0
  -30.3380  -19.9890   19.7490 C   0  0  0  0  0  0  0  0  0  0  0  0
  -30.6410  -18.5040   19.7020 C   0  0  0  0  0  0  0  0  0  0  0  0
  -31.8800  -18.2100   19.2330 F   0  0  0  0  0  0  0  0  0  0  0  0
  -30.3760  -15.6560   20.0320 C   0  0  0  0  0  0  0  0  0  0  0  0
  -30.3530  -13.1420   19.1970 C   0  0  0  0  0  2  0  0  0  0  0  0
  -29.4190  -12.8060   18.0040 C   0  0  0  0  0  2  0  0  0  0  0  0
  -28.0090  -12.4620   18.5070 C   0  0  0  0  0  2  0  0  0  0  0  0
  -27.5480  -13.4430   19.6090 C   0  0  0  0  0  3  0  0  0  0  0  0
  -28.6200  -13.7410   20.6810 C   0  0  0  0  0  2  0  0  0  0  0  0
  -29.7900  -14.3250   19.9910 N   0  0  0  0  0  0  0  0  0  0  0  0
  -31.5920  -15.5020   19.8150 O   0  0  0  0  0  0  0  0  0  0  0  0
  -25.2270  -13.9350   20.5100 C   0  0  0  0  0  0  0  0  0  0  0  0
  -24.1920  -13.1350   20.9050 C   0  0  0  0  0  0  0  0  0  0  0  0
  -24.6700  -11.7910   20.8120 C   0  0  0  0  0  0  0  0  0  0  0  0
  -26.2630  -13.0800   20.1860 N   0  0  0  0  0  0  0  0  0  0  0  0
  -25.9470  -11.7820   20.4360 N   0  0  0  0  0  0  0  0  0  0  0  0
  -23.9610  -10.5170   20.9980 C   0  0  0  0  0  0  0  0  0  0  0  0
  -24.4110   -9.5460   21.9200 C   0  0  0  0  0  3  0  0  0  0  0  0
  -23.6960   -8.3410   22.0970 C   0  0  0  0  0  3  0  0  0  0  0  0
  -22.5170   -8.0990   21.3530 C   0  0  0  0  0  0  0  0  0  0  0  0
  -22.0880   -9.0590   20.4190 C   0  0  0  0  0  3  0  0  0  0  0  0
  -22.8030  -10.2540   20.2400 C   0  0  0  0  0  3  0  0  0  0  0  0
  -21.7740   -6.9460   21.4390 O   0  0  0  0  0  0  0  0  0  0  0  0
  -21.6950   -6.2260   22.6040 C   0  0  0  0  0  0  0  0  0  0  0  0
  -21.1810   -6.7860   23.7930 C   0  0  0  0  0  3  0  0  0  0  0  0
  -21.0540   -5.9910   24.9490 C   0  0  0  0  0  3  0  0  0  0  0  0
  -21.4290   -4.6340   24.9150 C   0  0  0  0  0  0  0  0  0  0  0  0
  -21.9370   -4.0730   23.7300 C   0  0  0  0  0  3  0  0  0  0  0  0
  -22.0650   -4.8660   22.5770 C   0  0  0  0  0  0  0  0  0  0  0  0
  -22.5340   -4.3140   21.4320 F   0  0  0  0  0  0  0  0  0  0  0  0
  -21.3010   -3.8670   26.0240 F   0  0  0  0  0  0  0  0  0  0  0  0
  -22.8050  -13.5920   21.2480 C   0  0  0  0  0  0  0  0  0  0  0  0
  -22.1250  -12.8730   22.1320 N   0  0  0  0  0  0  0  0  0  0  0  0
  -22.3370  -14.6230   20.7660 O   0  0  0  0  0  0  0  0  0  0  0  0
  -22.5190  -12.0400   22.5430 H   0  0  0  0  0  0  0  0  0  0  0  0
  -21.1950  -13.1610   22.4050 H   0  0  0  0  0  0  0  0  0  0  0  0
  -25.3690  -15.3120   20.3660 N   0  0  0  0  0  0  0  0  0  0  0  0
  -24.5980  -15.9520   20.5310 H   0  0  0  0  0  0  0  0  0  0  0  0
  -26.1880  -15.7680   19.9850 H   0  0  0  0  0  0  0  0  0  0  0  0
  -29.0290  -22.5680   20.2400 C   0  0  0  0  0  0  0  0  0  0  0  0
  -30.1710  -23.0420   20.2620 O   0  0  0  0  0  0  0  0  0  0  0  0
  -27.8740  -23.9840   20.2380 C   0  0  0  0  0  2  0  0  0  0  0  0
  -28.1380  -25.6960   20.3090 O   0  0  0  0  0  0  0  0  0  0  0  0
  -24.6570  -31.9160   23.2530 C   0  0  0  0  0  0  0  0  0  0  0  0
  -27.1650  -26.8850   20.2600 C   0  0  0  0  0  0  0  0  0  0  0  0
  -23.4610  -30.5250   21.6150 C   0  0  0  0  0  3  0  0  0  0  0  0
  -24.9010  -28.8850   20.2000 C   0  0  0  0  0  0  0  0  0  0  0  0
  -26.0380  -30.6760   21.4870 C   0  0  0  0  0  2  0  0  0  0  0  0
  -26.0960  -29.2510   20.8310 C   0  0  0  0  0  0  0  0  0  0  0  0
  -27.2180  -28.2770   20.8270 C   0  0  0  0  0  3  0  0  0  0  0  0
  -25.9360  -26.7120   19.5770 C   0  0  0  0  0  3  0  0  0  0  0  0
  -24.8560  -27.6410   19.5490 C   0  0  0  0  0  3  0  0  0  0  0  0
  -23.6950  -29.8330   20.2430 C   0  0  0  0  0  2  0  0  0  0  0  0
  -24.7420  -31.0710   22.1710 N   0  0  0  0  0  0  0  0  0  0  0  0
  -23.5660  -32.2180   23.7670 O   0  0  0  0  0  0  0  0  0  0  0  0
  -22.7470  -29.5450   22.5850 C   0  0  0  0  0  0  0  0  0  0  0  0
  -21.4150  -29.3870   22.4530 N   0  0  0  0  0  0  0  0  0  0  0  0
  -23.4010  -28.9250   23.4260 O   0  0  0  0  0  0  0  0  0  0  0  0
  -20.9380  -29.9380   21.7530 H   0  0  0  0  0  0  0  0  0  0  0  0
  -18.0260  -28.1780   22.9540 C   0  0  0  0  0  0  0  0  0  0  0  0
  -20.5860  -28.4530   23.2250 C   0  0  0  0  0  3  0  0  0  0  0  0
  -20.6910  -27.0180   22.6570 C   0  0  0  0  0  2  0  0  0  0  0  0
  -19.5950  -26.6890   21.6390 C   0  0  0  0  0  2  0  0  0  0  0  0
  -18.2100  -26.8300   22.2770 C   0  0  0  0  0  2  0  0  0  0  0  0
  -19.1420  -28.9470   23.3840 C   0  0  0  0  0  0  0  0  0  0  0  0
  -18.9130  -30.2050   23.9810 C   0  0  0  0  0  3  0  0  0  0  0  0
  -17.6040  -30.6970   24.1490 C   0  0  0  0  0  3  0  0  0  0  0  0
  -16.5060  -29.9260   23.7320 C   0  0  0  0  0  3  0  0  0  0  0  0
  -16.7170  -28.6690   23.1400 C   0  0  0  0  0  3  0  0  0  0  0  0
  -25.9250  -32.5590   23.8920 C   0  0  0  0  0  3  0  0  0  0  0  0
  -26.4120  -31.8040   25.1920 C   0  0  1  0  0  0  0  0  0  0  0  0
  -25.2990  -31.5930   26.2460 C   0  0  0  0  0  1  0  0  0  0  0  0
  -26.9900  -30.4140   24.8420 C   0  0  0  0  0  1  0  0  0  0  0  0
  -27.5580  -32.5990   25.8600 C   0  0  0  0  0  1  0  0  0  0  0  0
  -25.6130  -33.9640   24.2170 N   0  0  0  0  0  0  0  0  0  0  0  0
  -25.9310  -35.0210   23.4580 C   0  0  0  0  0  0  0  0  0  0  0  0
  -26.5750  -34.9150   22.4120 O   0  0  0  0  0  0  0  0  0  0  0  0
  -25.0340  -34.1180   25.0310 H   0  0  0  0  0  0  0  0  0  0  0  0
  -24.1920  -36.8220   23.1670 C   0  0  0  0  0  1  0  0  0  0  0  0
  -25.4630  -36.4150   23.9290 C   0  0  0  0  0  3  0  0  0  0  0  0
  -27.6210  -37.3160   24.6840 C   0  0  0  0  0  1  0  0  0  0  0  0
  -26.4920  -37.4670   23.7700 N   0  0  0  0  0  0  0  0  0  0  0  0
  -26.0890  -38.3890   23.9110 H   0  0  0  0  0  0  0  0  0  0  0  0
  -31.3870  -20.7580   19.3240 O   0  0  0  0  0  0  0  0  0  0  0  0
  -31.2360  -21.6830   19.5130 H   0  0  0  0  0  0  0  0  0  0  0  0
  2  1  1  0
  3 44  1  0
  3  1  2  0
  4  2  2  0
  5  3  1  0
  6  5  2  0
  6  4  1  0
  7  6  1  0
  8  4  1  0
  9 14  1  0
 10 11  1  0
 10  9  1  0
 12 11  1  0
 12 19  1  0
 12 13  1  0
 14  8  1  0
 14 13  1  0
 15  8  2  0
 16 17  2  0
 17 36  1  0
 18 17  1  0
 18 21  1  0
 19 20  1  0
 19 16  1  0
 20 18  2  0
 21 22  1  0
 22 23  2  0
 24 27  1  0
 24 23  1  0
 25 24  2  0
 26 25  1  0
 26 21  2  0
 27 28  1  0
 28 29  1  0
 29 30  2  0
 31 30  1  0
 31 35  1  0
 32 31  2  0
 33 28  2  0
 33 32  1  0
 34 33  1  0
 36 37  1  0
 37 40  1  0
 37 39  1  0
 38 36  2  0
 41 16  1  0
 41 42  1  0
 43 41  1  0
 44 45  2  0
 46 44  1  0
 46 47  1  0
 48 59  2  0
 49 47  1  0
 49 54  1  0
 50 58  1  0
 50 60  1  0
 51 57  1  0
 51 53  1  0
 52 58  1  0
 53 52  1  0
 54 53  2  0
 55 49  2  0
 56 55  1  0
 56 51  2  0
 57 50  1  0
 58 48  1  0
 60 62  2  0
 61 60  1  0
 63 61  1  0
 64 73  2  0
 64 69  1  0
 65 61  1  0
 65 69  1  0
 66 65  1  0
 67 68  1  0
 67 66  1  0
 68 64  1  0
 69 70  2  0
 70 71  1  0
 72 71  2  0
 73 72  1  0
 74 48  1  0
 74 79  1  0
 74 75  1  0
 75 78  1  1
 75 76  1  0
 77 75  1  0
 79 82  1  0
 80 84  1  0
 80 79  1  0
 81 80  2  0
 84 83  1  0
 86 87  1  0
 86 84  1  0
 86 85  1  0
 88 89  1  0
 88  5  1  0
M  ISO  4   4 100   8 100  46 101  47 101
M  END
>  <TORSDO>  (85) 
F 19

>  <SCORE>  (85) 
-16.433

>  <name>  (85) 
84

>  <ligand_id>  (85) 
84

>  <original_smiles>  (85) 
[H]Oc1c(F)c(C(=O)N2C([H])([H])C([H])([H])C([H])([H])C([H])(n3nc(-c4c([H])c([H])c(Oc5c([H])c([H])c(F)c([H])c5F)c([H])c4[H])c(C(=O)N([H])[H])c3N([H])[H])C2([H])[H])c([H])c([H])c1C(=O)C([H])([H])Oc1c([H])c([H])c2c(c1[H])C([H])([H])N(C(=O)C([H])(N([H])C(=O)C([H])(N([H])C([H])([H])[H])C([H])([H])[H])C(C([H])([H])[H])(C([H])([H])[H])C([H])([H])[H])C([H])(C(=O)N([H])C1([H])c3c([H])c([H])c([H])c([H])c3C([H])([H])C([H])([H])C1([H])[H])C2([H])[H]

>  <smiles>  (85) 
[H]Oc1c(F)c(C(=O)N2C([H])([H])C([H])([H])C([H])([H])C([H])(n3nc(-c4c([H])c([H])c(Oc5c([H])c([H])c(F)c([H])c5F)c([H])c4[H])c(C(=O)N([H])[H])c3N([H])[H])C2([H])[H])c([H])c([H])c1C(=O)C([H])([H])Oc1c([H])c([H])c2c(c1[H])C([H])([H])N(C(=O)C([H])(N([H])C(=O)C([H])(N([H])C([H])([H])[H])C([H])([H])[H])C(C([H])([H])[H])(C([H])([H])[H])C([H])([H])[H])C([H])(C(=O)N([H])C1([H])c3c([H])c([H])c([H])c([H])c3C([H])([H])C([H])([H])C1([H])[H])C2([H])[H]

$$$$
85:0:0
     RDKit          3D

 85 91  0  0  1  0  0  0  0  0999 V2000
  -28.2010  -19.7030   19.7180 C   0  0  0  0  0  3  0  0  0  0  0  0
  -27.8350  -21.3270   19.7230 C   0  0  0  0  0  3  0  0  0  0  0  0
  -29.3020  -18.6790   20.2720 C   0  0  0  0  0  3  0  0  0  0  0  0
  -29.8850  -20.0770   20.8070 C   0  0  0  0  0  0  0  0  0  0  0  0
  -29.5010  -21.7100   20.8140 C   0  0  0  0  0  0  0  0  0  0  0  0
  -28.3800  -22.7300   20.2810 C   0  0  0  0  0  3  0  0  0  0  0  0
  -31.2070  -19.7770   21.5080 C   0  0  0  0  0  1  0  0  0  0  0  0
  -30.5220  -22.5560   21.5680 C   0  0  0  0  0  1  0  0  0  0  0  0
  -29.9190  -16.7000   20.1960 C   0  0  0  0  0  2  0  0  0  0  0  0
  -30.3120  -13.9040   19.4900 C   0  0  0  0  0  2  0  0  0  0  0  0
  -29.5760  -13.0580   18.3660 C   0  0  0  0  0  2  0  0  0  0  0  0
  -28.2450  -12.4790   18.8460 C   0  0  0  0  0  2  0  0  0  0  0  0
  -27.5680  -13.5200   19.7450 C   0  0  0  0  0  3  0  0  0  0  0  0
  -28.4900  -14.2380   20.7980 C   0  0  0  0  0  2  0  0  0  0  0  0
  -29.5160  -15.1550   20.1230 N   0  0  0  0  0  0  0  0  0  0  0  0
  -31.1630  -16.4390   20.1250 O   0  0  0  0  0  1  0  0  0  0  0  0
  -25.1970  -13.9170   20.4880 C   0  0  0  0  0  0  0  0  0  0  0  0
  -24.1570  -13.1070   20.8380 C   0  0  0  0  0  0  0  0  0  0  0  0
  -24.6650  -11.7700   20.8130 C   0  0  0  0  0  0  0  0  0  0  0  0
  -26.2750  -13.0870   20.2690 N   0  0  0  0  0  0  0  0  0  0  0  0
  -25.9690  -11.7800   20.5180 N   0  0  0  0  0  0  0  0  0  0  0  0
  -23.9530  -10.4920   20.9950 C   0  0  0  0  0  0  0  0  0  0  0  0
  -24.3620   -9.5400   21.9560 C   0  0  0  0  0  3  0  0  0  0  0  0
  -23.6400   -8.3390   22.1310 C   0  0  0  0  0  3  0  0  0  0  0  0
  -22.4900   -8.0790   21.3480 C   0  0  0  0  0  0  0  0  0  0  0  0
  -22.0970   -9.0190   20.3790 C   0  0  0  0  0  3  0  0  0  0  0  0
  -22.8210  -10.2110   20.2020 C   0  0  0  0  0  3  0  0  0  0  0  0
  -21.7430   -6.9280   21.4290 O   0  0  0  0  0  0  0  0  0  0  0  0
  -21.6490   -6.2090   22.5960 C   0  0  0  0  0  0  0  0  0  0  0  0
  -21.1390   -6.7800   23.7830 C   0  0  0  0  0  3  0  0  0  0  0  0
  -20.9960   -5.9870   24.9400 C   0  0  0  0  0  3  0  0  0  0  0  0
  -21.3520   -4.6250   24.9110 C   0  0  0  0  0  0  0  0  0  0  0  0
  -21.8550   -4.0550   23.7280 C   0  0  0  0  0  3  0  0  0  0  0  0
  -21.9990   -4.8440   22.5730 C   0  0  0  0  0  0  0  0  0  0  0  0
  -22.4620   -4.2830   21.4310 F   0  0  0  0  0  0  0  0  0  0  0  0
  -21.2100   -3.8630   26.0200 F   0  0  0  0  0  0  0  0  0  0  0  0
  -22.7450  -13.5530   21.0740 C   0  0  0  0  0  0  0  0  0  0  0  0
  -22.0200  -12.8570   21.9410 N   0  0  0  0  0  0  0  0  0  0  0  0
  -22.2970  -14.5610   20.5270 O   0  0  0  0  0  0  0  0  0  0  0  0
  -22.3990  -12.0430   22.4020 H   0  0  0  0  0  0  0  0  0  0  0  0
  -21.0730  -13.1400   22.1480 H   0  0  0  0  0  0  0  0  0  0  0  0
  -25.3140  -15.2900   20.2990 N   0  0  0  0  0  0  0  0  0  0  0  0
  -24.5190  -15.9140   20.3830 H   0  0  0  0  0  0  0  0  0  0  0  0
  -26.1490  -15.7560   19.9670 H   0  0  0  0  0  0  0  0  0  0  0  0
  -28.1610  -24.5970   20.2780 O   0  0  0  0  0  1  0  0  0  0  0  0
  -24.7090  -31.7770   23.1060 C   0  0  0  0  0  0  0  0  0  0  0  0
  -27.2250  -26.0880   20.2670 C   0  0  0  0  0  0  0  0  0  0  0  0
  -23.5630  -30.3440   21.4800 C   0  0  0  0  0  3  0  0  0  0  0  0
  -25.0240  -28.5420   20.1470 C   0  0  0  0  0  0  0  0  0  0  0  0
  -26.1630  -30.2850   21.4700 C   0  0  0  0  0  2  0  0  0  0  0  0
  -26.2200  -28.7730   20.8340 C   0  0  0  0  0  0  0  0  0  0  0  0
  -27.2650  -27.5980   20.8450 C   0  0  0  0  0  3  0  0  0  0  0  0
  -25.9950  -26.2450   19.5090 C   0  0  0  0  0  3  0  0  0  0  0  0
  -24.9900  -27.3060   19.4610 C   0  0  0  0  0  3  0  0  0  0  0  0
  -23.8490  -29.5750   20.1450 C   0  0  0  0  0  2  0  0  0  0  0  0
  -24.8440  -30.8540   22.0700 N   0  0  0  0  0  0  0  0  0  0  0  0
  -23.5980  -32.1130   23.5630 O   0  0  0  0  0  0  0  0  0  0  0  0
  -22.7700  -29.4440   22.4700 C   0  0  0  0  0  0  0  0  0  0  0  0
  -21.4300  -29.3420   22.3430 N   0  0  0  0  0  0  0  0  0  0  0  0
  -23.3850  -28.8250   23.3400 O   0  0  0  0  0  0  0  0  0  0  0  0
  -20.9720  -29.8880   21.6270 H   0  0  0  0  0  0  0  0  0  0  0  0
  -18.0070  -28.1970   22.8900 C   0  0  0  0  0  0  0  0  0  0  0  0
  -20.5770  -28.4270   23.1230 C   0  0  0  0  0  3  0  0  0  0  0  0
  -20.6430  -26.9920   22.5480 C   0  0  0  0  0  2  0  0  0  0  0  0
  -19.5300  -26.6950   21.5380 C   0  0  0  0  0  2  0  0  0  0  0  0
  -18.1570  -26.8550   22.1940 C   0  0  0  0  0  2  0  0  0  0  0  0
  -19.1420  -28.9440   23.3090 C   0  0  0  0  0  0  0  0  0  0  0  0
  -18.9420  -30.1940   23.9310 C   0  0  0  0  0  3  0  0  0  0  0  0
  -17.6450  -30.7030   24.1310 C   0  0  0  0  0  3  0  0  0  0  0  0
  -16.5260  -29.9560   23.7210 C   0  0  0  0  0  3  0  0  0  0  0  0
  -16.7090  -28.7050   23.1060 C   0  0  0  0  0  3  0  0  0  0  0  0
  -25.9340  -32.4700   23.7810 C   0  0  0  0  0  3  0  0  0  0  0  0
  -25.5810  -33.8740   24.1090 N   0  0  0  0  0  0  0  0  0  0  0  0
  -25.9150  -34.9600   23.3940 C   0  0  0  0  0  0  0  0  0  0  0  0
  -26.5910  -34.8850   22.3670 O   0  0  0  0  0  0  0  0  0  0  0  0
  -24.9680  -34.0020   24.9010 H   0  0  0  0  0  0  0  0  0  0  0  0
  -24.1770  -36.7700   23.1090 C   0  0  0  0  0  1  0  0  0  0  0  0
  -25.4310  -36.3440   23.8890 C   0  0  0  0  0  3  0  0  0  0  0  0
  -27.5690  -37.2450   24.7080 C   0  0  0  0  0  1  0  0  0  0  0  0
  -26.4560  -37.4090   23.7780 N   0  0  0  0  0  0  0  0  0  0  0  0
  -26.0410  -38.3240   23.9360 H   0  0  0  0  0  0  0  0  0  0  0  0
  -26.4000  -31.7400   25.1030 C   0  0  1  0  0  0  0  0  0  0  0  0
  -25.2670  -31.5280   26.1350 C   0  0  0  0  0  1  0  0  0  0  0  0
  -27.0010  -30.3520   24.7980 C   0  0  0  0  0  1  0  0  0  0  0  0
  -27.5250  -32.5540   25.7860 C   0  0  0  0  0  1  0  0  0  0  0  0
  1  2  2  0
  1  3  1  0
  2  6  1  0
  3  4  2  0
  4  5  1  0
  4  7  1  0
  5  8  1  0
  6  5  2  0
 10 15  1  0
 11 12  1  0
 11 10  1  0
 13 12  1  0
 13 20  1  0
 13 14  1  0
 15  9  1  0
 15 14  1  0
 16  9  1  0
 17 18  2  0
 18 37  1  0
 19 18  1  0
 19 22  1  0
 20 17  1  0
 20 21  1  0
 21 19  2  0
 22 23  1  0
 23 24  2  0
 25 28  1  0
 25 24  1  0
 26 25  2  0
 27 26  1  0
 27 22  2  0
 28 29  1  0
 29 30  1  0
 30 31  2  0
 32 31  1  0
 32 36  1  0
 33 32  2  0
 34 29  2  0
 34 33  1  0
 35 34  1  0
 37 38  1  0
 38 41  1  0
 38 40  1  0
 39 37  2  0
 42 43  1  0
 42 17  1  0
 44 42  1  0
 46 57  2  0
 47 45  1  0
 47 52  1  0
 48 56  1  0
 48 58  1  0
 49 51  1  0
 50 56  1  0
 51 52  2  0
 51 50  1  0
 53 47  2  0
 54 53  1  0
 54 49  2  0
 55 49  1  0
 55 48  1  0
 56 46  1  0
 58 60  2  0
 59 58  1  0
 61 59  1  0
 62 71  2  0
 62 67  1  0
 63 59  1  0
 63 67  1  0
 64 63  1  0
 65 66  1  0
 65 64  1  0
 66 62  1  0
 67 68  2  0
 68 69  1  0
 70 69  2  0
 71 70  1  0
 72 46  1  0
 72 73  1  0
 72 82  1  0
 73 76  1  0
 74 78  1  0
 74 73  1  0
 75 74  2  0
 78 77  1  0
 80 78  1  0
 80 81  1  0
 80 79  1  0
 82 85  1  1
 82 83  1  0
 84 82  1  0
M  ISO  4   3 100   6 101   9 100  45 101
M  END
>  <TORSDO>  (86) 
F 16

>  <SCORE>  (86) 
-16.674

>  <name>  (86) 
85

>  <ligand_id>  (86) 
85

>  <original_smiles>  (86) 
[H]c1c([H])c([H])c2c(c1[H])C([H])([H])C([H])([H])C([H])([H])C2([H])N([H])C(=O)C1([H])N(C(=O)C([H])(N([H])C(=O)C([H])(N([H])C([H])([H])[H])C([H])([H])[H])C(C([H])([H])[H])(C([H])([H])[H])C([H])([H])[H])C([H])([H])c2c([H])c(Oc3c([H])c([H])c(C(=O)N4C([H])([H])C([H])([H])C([H])([H])C([H])(n5nc(-c6c([H])c([H])c(Oc7c([H])c([H])c(F)c([H])c7F)c([H])c6[H])c(C(=O)N([H])[H])c5N([H])[H])C4([H])[H])c(C([H])([H])[H])c3C([H])([H])[H])c([H])c([H])c2C1([H])[H]

>  <smiles>  (86) 
[H]c1c([H])c([H])c2c(c1[H])C([H])([H])C([H])([H])C([H])([H])C2([H])N([H])C(=O)C1([H])N(C(=O)C([H])(N([H])C(=O)C([H])(N([H])C([H])([H])[H])C([H])([H])[H])C(C([H])([H])[H])(C([H])([H])[H])C([H])([H])[H])C([H])([H])c2c([H])c(Oc3c([H])c([H])c(C(=O)N4C([H])([H])C([H])([H])C([H])([H])C([H])(n5nc(-c6c([H])c([H])c(Oc7c([H])c([H])c(F)c([H])c7F)c([H])c6[H])c(C(=O)N([H])[H])c5N([H])[H])C4([H])[H])c(C([H])([H])[H])c3C([H])([H])[H])c([H])c([H])c2C1([H])[H]

$$$$
86:0:0
     RDKit          3D

 98106  0  0  1  0  0  0  0  0999 V2000
  -31.3050  -21.5970   21.4710 C   0  0  0  0  0  2  0  0  0  0  0  0
  -31.6080  -17.8160   21.8720 C   0  0  0  0  0  3  0  0  0  0  0  0
  -31.8810  -19.1910   21.9230 C   0  0  0  0  0  3  0  0  0  0  0  0
  -30.5070  -17.3240   21.1440 C   0  0  0  0  0  0  0  0  0  0  0  0
  -31.0550  -20.1070   21.2490 C   0  0  0  0  0  0  0  0  0  0  0  0
  -29.9910  -19.6310   20.4360 C   0  0  0  0  0  0  0  0  0  0  0  0
  -29.7160  -18.2310   20.3750 C   0  0  0  0  0  0  0  0  0  0  0  0
  -29.1350  -20.6560   19.6870 C   0  0  0  0  0  1  0  0  0  0  0  0
  -30.1270  -15.8550   21.3750 C   0  0  0  0  0  2  0  0  0  0  0  0
  -30.8670  -14.7810   20.5440 C   0  0  0  0  0  0  0  0  0  0  0  0
  -30.5860  -12.7220   19.2020 C   0  0  0  0  0  2  0  0  0  0  0  0
  -29.6140  -13.0170   18.0400 C   0  0  0  0  0  2  0  0  0  0  0  0
  -28.1460  -12.8480   18.4800 C   0  0  0  0  0  2  0  0  0  0  0  0
  -27.8340  -13.5800   19.8110 C   0  0  0  0  0  3  0  0  0  0  0  0
  -28.9070  -13.2500   20.8730 C   0  0  0  0  0  2  0  0  0  0  0  0
  -30.2230  -13.6060   20.3160 N   0  0  0  0  0  0  0  0  0  0  0  0
  -31.9620  -15.0470   20.0330 O   0  0  0  0  0  0  0  0  0  0  0  0
  -25.4420  -14.1430   20.5870 C   0  0  0  0  0  0  0  0  0  0  0  0
  -24.3800  -13.3480   20.9200 C   0  0  0  0  0  0  0  0  0  0  0  0
  -24.8430  -12.0020   20.8040 C   0  0  0  0  0  0  0  0  0  0  0  0
  -26.4860  -13.2780   20.2900 N   0  0  0  0  0  0  0  0  0  0  0  0
  -26.1280  -11.9830   20.4770 N   0  0  0  0  0  0  0  0  0  0  0  0
  -24.1230  -10.7290   20.9310 C   0  0  0  0  0  0  0  0  0  0  0  0
  -24.5540   -9.7250   21.8250 C   0  0  0  0  0  3  0  0  0  0  0  0
  -23.8350   -8.5160   21.9430 C   0  0  0  0  0  3  0  0  0  0  0  0
  -22.6710   -8.3050   21.1660 C   0  0  0  0  0  0  0  0  0  0  0  0
  -22.2600   -9.2980   20.2590 C   0  0  0  0  0  3  0  0  0  0  0  0
  -22.9800  -10.4990   20.1400 C   0  0  0  0  0  3  0  0  0  0  0  0
  -21.9240   -7.1520   21.1940 O   0  0  0  0  0  0  0  0  0  0  0  0
  -21.8270   -6.3860   22.3270 C   0  0  0  0  0  0  0  0  0  0  0  0
  -21.3140   -6.9060   23.5360 C   0  0  0  0  0  3  0  0  0  0  0  0
  -21.1680   -6.0640   24.6570 C   0  0  0  0  0  3  0  0  0  0  0  0
  -21.5210   -4.7040   24.5690 C   0  0  0  0  0  0  0  0  0  0  0  0
  -22.0260   -4.1840   23.3640 C   0  0  0  0  0  3  0  0  0  0  0  0
  -22.1750   -5.0220   22.2450 C   0  0  0  0  0  0  0  0  0  0  0  0
  -22.6420   -4.5100   21.0800 F   0  0  0  0  0  0  0  0  0  0  0  0
  -21.3700   -3.8940   25.6430 F   0  0  0  0  0  0  0  0  0  0  0  0
  -22.9840  -13.8030   21.2390 C   0  0  0  0  0  0  0  0  0  0  0  0
  -22.2740  -13.0570   22.0790 N   0  0  0  0  0  0  0  0  0  0  0  0
  -22.5320  -14.8510   20.7810 O   0  0  0  0  0  0  0  0  0  0  0  0
  -22.6550  -12.2070   22.4690 H   0  0  0  0  0  0  0  0  0  0  0  0
  -21.3370  -13.3380   22.3320 H   0  0  0  0  0  0  0  0  0  0  0  0
  -25.6000  -15.5210   20.4920 N   0  0  0  0  0  0  0  0  0  0  0  0
  -24.8300  -16.1630   20.6370 H   0  0  0  0  0  0  0  0  0  0  0  0
  -26.4350  -15.9750   20.1480 H   0  0  0  0  0  0  0  0  0  0  0  0
  -28.5520  -17.7120   19.5240 C   0  0  0  0  0  2  0  0  0  0  0  0
  -27.1880  -18.2360   19.9980 C   0  0  0  0  0  2  0  0  0  0  0  0
  -24.8000  -18.7770   19.2820 C   0  0  0  0  0  1  0  0  0  0  0  0
  -26.0760  -17.9890   18.9670 C   0  0  0  0  0  2  0  0  0  0  0  0
  -32.5700  -22.1230   20.7730 C   0  0  0  0  0  2  0  0  0  0  0  0
  -32.5480  -23.6540   20.5620 C   0  0  0  0  0  2  0  0  0  0  0  0
  -31.6740  -24.0810   19.3780 C   0  0  0  0  0  0  0  0  0  0  0  0
  -30.7320  -25.0070   19.6000 N   0  0  0  0  0  0  0  0  0  0  0  0
  -31.8520  -23.5690   18.2710 O   0  0  0  0  0  0  0  0  0  0  0  0
  -30.6430  -25.3930   20.5310 H   0  0  0  0  0  0  0  0  0  0  0  0
  -29.7970  -25.4990   18.5880 C   0  0  0  0  0  2  0  0  0  0  0  0
  -28.3740  -25.6500   19.1440 C   0  0  0  0  0  2  0  0  0  0  0  0
  -28.2930  -26.7960   19.9930 O   0  0  0  0  0  0  0  0  0  0  0  0
  -24.5890  -31.9580   23.2050 C   0  0  0  0  0  0  0  0  0  0  0  0
  -27.0920  -27.4760   20.0610 C   0  0  0  0  0  0  0  0  0  0  0  0
  -23.3110  -30.5500   21.6230 C   0  0  0  0  0  3  0  0  0  0  0  0
  -24.6990  -28.9830   20.1700 C   0  0  0  0  0  0  0  0  0  0  0  0
  -25.8310  -30.8860   21.3300 C   0  0  0  0  0  2  0  0  0  0  0  0
  -25.8820  -29.5080   20.7050 C   0  0  0  0  0  0  0  0  0  0  0  0
  -27.0780  -28.7570   20.6540 C   0  0  0  0  0  3  0  0  0  0  0  0
  -25.8760  -26.9480   19.5580 C   0  0  0  0  0  3  0  0  0  0  0  0
  -24.6880  -27.6980   19.6030 C   0  0  0  0  0  3  0  0  0  0  0  0
  -23.4650  -29.8530   20.2450 C   0  0  0  0  0  2  0  0  0  0  0  0
  -24.5980  -31.1450   22.1100 N   0  0  0  0  0  0  0  0  0  0  0  0
  -23.5300  -32.2460   23.7800 O   0  0  0  0  0  0  0  0  0  0  0  0
  -22.6860  -29.5430   22.6150 C   0  0  0  0  0  0  0  0  0  0  0  0
  -21.3670  -29.3230   22.4930 N   0  0  0  0  0  0  0  0  0  0  0  0
  -23.3860  -28.9620   23.4500 O   0  0  0  0  0  0  0  0  0  0  0  0
  -20.8640  -29.8470   21.7900 H   0  0  0  0  0  0  0  0  0  0  0  0
  -18.0310  -28.0300   22.9910 C   0  0  0  0  0  0  0  0  0  0  0  0
  -20.5730  -28.3920   23.2940 C   0  0  0  0  0  3  0  0  0  0  0  0
  -20.7370  -26.9410   22.7830 C   0  0  0  0  0  2  0  0  0  0  0  0
  -19.6640  -26.5340   21.7680 C   0  0  0  0  0  2  0  0  0  0  0  0
  -18.2670  -26.6590   22.3820 C   0  0  0  0  0  2  0  0  0  0  0  0
  -19.1150  -28.8510   23.4040 C   0  0  0  0  0  0  0  0  0  0  0  0
  -18.8410  -30.1320   23.9300 C   0  0  0  0  0  3  0  0  0  0  0  0
  -17.5170  -30.5940   24.0510 C   0  0  0  0  0  3  0  0  0  0  0  0
  -16.4480  -29.7710   23.6560 C   0  0  0  0  0  3  0  0  0  0  0  0
  -16.7060  -28.4920   23.1310 C   0  0  0  0  0  3  0  0  0  0  0  0
  -25.9020  -32.5810   23.7720 C   0  0  0  0  0  3  0  0  0  0  0  0
  -26.4630  -31.8130   25.0310 C   0  0  1  0  0  0  0  0  0  0  0  0
  -25.4060  -31.5760   26.1350 C   0  0  0  0  0  1  0  0  0  0  0  0
  -27.0340  -30.4360   24.6200 C   0  0  0  0  0  1  0  0  0  0  0  0
  -27.6330  -32.6090   25.6550 C   0  0  0  0  0  1  0  0  0  0  0  0
  -25.6180  -33.9840   24.1010 N   0  0  0  0  0  0  0  0  0  0  0  0
  -25.9300  -35.0280   23.3210 C   0  0  0  0  0  0  0  0  0  0  0  0
  -26.5610  -34.9090   22.2670 O   0  0  0  0  0  0  0  0  0  0  0  0
  -25.0530  -34.1500   24.9220 H   0  0  0  0  0  0  0  0  0  0  0  0
  -24.2020  -36.8260   23.0130 C   0  0  0  0  0  1  0  0  0  0  0  0
  -25.4690  -36.4230   23.7830 C   0  0  0  0  0  3  0  0  0  0  0  0
  -27.6340  -37.3030   24.5310 C   0  0  0  0  0  1  0  0  0  0  0  0
  -26.5030  -37.4670   23.6230 N   0  0  0  0  0  0  0  0  0  0  0  0
  -26.1070  -38.3910   23.7730 H   0  0  0  0  0  0  0  0  0  0  0  0
  2  3  1  0
  4  9  1  0
  4  2  2  0
  5  1  1  0
  5  3  2  0
  6  5  1  0
  7  6  2  0
  7  4  1  0
  8  6  1  0
 10  9  1  0
 11 16  1  0
 12 13  1  0
 12 11  1  0
 14 13  1  0
 14 21  1  0
 14 15  1  0
 16 10  1  0
 16 15  1  0
 17 10  2  0
 18 19  2  0
 19 38  1  0
 20 19  1  0
 20 23  1  0
 21 22  1  0
 21 18  1  0
 22 20  2  0
 23 24  1  0
 24 25  2  0
 26 29  1  0
 26 25  1  0
 27 26  2  0
 28 27  1  0
 28 23  2  0
 29 30  1  0
 30 31  1  0
 31 32  2  0
 33 32  1  0
 33 37  1  0
 34 33  2  0
 35 30  2  0
 35 34  1  0
 36 35  1  0
 38 39  1  0
 39 42  1  0
 39 41  1  0
 40 38  2  0
 43 18  1  0
 43 44  1  0
 45 43  1  0
 46 47  1  0
 46  7  1  0
 49 48  1  0
 49 47  1  0
 50  1  1  0
 51 50  1  0
 52 53  1  0
 52 51  1  0
 53 55  1  0
 54 52  2  0
 56 57  1  0
 56 53  1  0
 57 58  1  0
 58 60  1  0
 59 70  2  0
 60 65  1  0
 61 69  1  0
 61 71  1  0
 62 68  1  0
 62 64  1  0
 63 69  1  0
 64 63  1  0
 65 64  2  0
 66 67  1  0
 66 60  2  0
 67 62  2  0
 68 61  1  0
 69 59  1  0
 71 73  2  0
 72 71  1  0
 74 72  1  0
 75 84  2  0
 75 80  1  0
 76 72  1  0
 76 80  1  0
 77 76  1  0
 78 79  1  0
 78 77  1  0
 79 75  1  0
 80 81  2  0
 81 82  1  0
 83 82  2  0
 84 83  1  0
 85 59  1  0
 85 90  1  0
 85 86  1  0
 86 89  1  1
 86 87  1  0
 88 86  1  0
 90 93  1  0
 91 95  1  0
 91 90  1  0
 92 91  2  0
 95 94  1  0
 97 98  1  0
 97 95  1  0
 97 96  1  0
M  ISO  4   9 100  10 100  57 101  58 101
M  END
>  <TORSDO>  (87) 
F 26

>  <SCORE>  (87) 
-10.486

>  <name>  (87) 
86

>  <ligand_id>  (87) 
86

>  <original_smiles>  (87) 
[H]c1c([H])c([H])c2c(c1[H])C([H])([H])C([H])([H])C([H])([H])C2([H])N([H])C(=O)C1([H])N(C(=O)C([H])(N([H])C(=O)C([H])(N([H])C([H])([H])[H])C([H])([H])[H])C(C([H])([H])[H])(C([H])([H])[H])C([H])([H])[H])C([H])([H])c2c([H])c(OC([H])([H])C([H])([H])N([H])C(=O)C([H])([H])C([H])([H])C([H])([H])c3c([H])c([H])c(C([H])([H])C(=O)N4C([H])([H])C([H])([H])C([H])([H])C([H])(n5nc(-c6c([H])c([H])c(Oc7c([H])c([H])c(F)c([H])c7F)c([H])c6[H])c(C(=O)N([H])[H])c5N([H])[H])C4([H])[H])c(C([H])([H])C([H])([H])C([H])([H])C([H])([H])[H])c3C([H])([H])[H])c([H])c([H])c2C1([H])[H]

>  <smiles>  (87) 
[H]c1c([H])c([H])c2c(c1[H])C([H])([H])C([H])([H])C([H])([H])C2([H])N([H])C(=O)C1([H])N(C(=O)C([H])(N([H])C(=O)C([H])(N([H])C([H])([H])[H])C([H])([H])[H])C(C([H])([H])[H])(C([H])([H])[H])C([H])([H])[H])C([H])([H])c2c([H])c(OC([H])([H])C([H])([H])N([H])C(=O)C([H])([H])C([H])([H])C([H])([H])c3c([H])c([H])c(C([H])([H])C(=O)N4C([H])([H])C([H])([H])C([H])([H])C([H])(n5nc(-c6c([H])c([H])c(Oc7c([H])c([H])c(F)c([H])c7F)c([H])c6[H])c(C(=O)N([H])[H])c5N([H])[H])C4([H])[H])c(C([H])([H])C([H])([H])C([H])([H])C([H])([H])[H])c3C([H])([H])[H])c([H])c([H])c2C1([H])[H]

$$$$
87:0:0
     RDKit          3D

 91 99  0  0  1  0  0  0  0  0999 V2000
  -29.2100  -22.9500   19.9630 C   0  0  0  0  0  3  0  0  0  0  0  0
  -27.5890  -21.2590   20.4790 C   0  0  0  0  0  3  0  0  0  0  0  0
  -27.0200  -23.7580   20.4980 C   0  0  0  0  0  3  0  0  0  0  0  0
  -28.9540  -21.3560   20.1150 C   0  0  0  0  0  0  0  0  0  0  0  0
  -28.2880  -24.2710   20.1310 C   0  0  0  0  0  0  0  0  0  0  0  0
  -26.6990  -22.3700   20.6560 C   0  0  0  0  0  0  0  0  0  0  0  0
  -25.4250  -22.0790   21.0130 F   0  0  0  0  0  0  0  0  0  0  0  0
  -28.4160  -25.8930   20.0660 O   0  0  0  0  0  0  0  0  0  0  0  0
  -24.8830  -32.0700   23.3150 C   0  0  0  0  0  0  0  0  0  0  0  0
  -27.4370  -27.1130   20.1210 C   0  0  0  0  0  0  0  0  0  0  0  0
  -23.7120  -30.7540   21.6000 C   0  0  0  0  0  3  0  0  0  0  0  0
  -25.1730  -29.1670   20.1310 C   0  0  0  0  0  0  0  0  0  0  0  0
  -26.2940  -30.8890   21.5180 C   0  0  0  0  0  2  0  0  0  0  0  0
  -26.3610  -29.4840   20.8010 C   0  0  0  0  0  0  0  0  0  0  0  0
  -27.4740  -28.4850   20.7690 C   0  0  0  0  0  3  0  0  0  0  0  0
  -26.2200  -27.0230   19.3950 C   0  0  0  0  0  3  0  0  0  0  0  0
  -25.1420  -27.9620   19.4060 C   0  0  0  0  0  3  0  0  0  0  0  0
  -23.9700  -30.1220   20.2010 C   0  0  0  0  0  2  0  0  0  0  0  0
  -24.9870  -31.2690   22.1990 N   0  0  0  0  0  0  0  0  0  0  0  0
  -23.7820  -32.3490   23.8240 O   0  0  0  0  0  0  0  0  0  0  0  0
  -22.9820  -29.7340   22.5160 C   0  0  0  0  0  0  0  0  0  0  0  0
  -21.6590  -29.5520   22.3350 N   0  0  0  0  0  0  0  0  0  0  0  0
  -23.6190  -29.1040   23.3630 O   0  0  0  0  0  0  0  0  0  0  0  0
  -21.1930  -30.1130   21.6340 H   0  0  0  0  0  0  0  0  0  0  0  0
  -18.2870  -28.2340   22.6700 C   0  0  0  0  0  0  0  0  0  0  0  0
  -20.8260  -28.5740   23.0480 C   0  0  0  0  0  3  0  0  0  0  0  0
  -20.9940  -27.1580   22.4480 C   0  0  0  0  0  2  0  0  0  0  0  0
  -19.9470  -26.8270   21.3800 C   0  0  0  0  0  2  0  0  0  0  0  0
  -18.5360  -26.9110   21.9670 C   0  0  0  0  0  2  0  0  0  0  0  0
  -19.3620  -29.0220   23.1630 C   0  0  0  0  0  0  0  0  0  0  0  0
  -19.0740  -30.2570   23.7840 C   0  0  0  0  0  3  0  0  0  0  0  0
  -17.7460  -30.7050   23.9150 C   0  0  0  0  0  3  0  0  0  0  0  0
  -16.6870  -29.9170   23.4350 C   0  0  0  0  0  3  0  0  0  0  0  0
  -16.9580  -28.6830   22.8180 C   0  0  0  0  0  3  0  0  0  0  0  0
  -26.1370  -32.6890   24.0010 C   0  0  0  0  0  3  0  0  0  0  0  0
  -26.6380  -31.8490   25.2430 C   0  0  1  0  0  0  0  0  0  0  0  0
  -25.5420  -31.5870   26.3040 C   0  0  0  0  0  1  0  0  0  0  0  0
  -27.1910  -30.4770   24.7970 C   0  0  0  0  0  1  0  0  0  0  0  0
  -27.8080  -32.5870   25.9360 C   0  0  0  0  0  1  0  0  0  0  0  0
  -25.8000  -34.0600   24.4330 N   0  0  0  0  0  0  0  0  0  0  0  0
  -26.0840  -35.1770   23.7490 C   0  0  0  0  0  0  0  0  0  0  0  0
  -26.7140  -35.1650   22.6900 O   0  0  0  0  0  0  0  0  0  0  0  0
  -25.2330  -34.1420   25.2640 H   0  0  0  0  0  0  0  0  0  0  0  0
  -24.2920  -36.9490   23.6330 C   0  0  0  0  0  1  0  0  0  0  0  0
  -25.5950  -36.5230   24.3300 C   0  0  0  0  0  3  0  0  0  0  0  0
  -27.7510  -37.4290   25.0830 C   0  0  0  0  0  1  0  0  0  0  0  0
  -26.5890  -37.6130   24.2170 N   0  0  0  0  0  0  0  0  0  0  0  0
  -26.1680  -38.5110   24.4400 H   0  0  0  0  0  0  0  0  0  0  0  0
  -29.8680  -19.7190   19.8870 C   0  0  0  0  0  3  0  0  0  0  0  0
  -31.3570  -20.0270   20.0700 C   0  0  0  0  0  0  0  0  0  0  0  0
  -33.3740  -21.0750   19.0740 C   0  0  0  0  0  1  0  0  0  0  0  0
  -31.9650  -20.7050   19.0890 N   0  0  0  0  0  0  0  0  0  0  0  0
  -31.9500  -19.6530   21.0840 O   0  0  0  0  0  0  0  0  0  0  0  0
  -31.4060  -20.9700   18.2880 H   0  0  0  0  0  0  0  0  0  0  0  0
  -29.6820  -17.7990   20.2240 C   0  0  0  0  0  2  0  0  0  0  0  0
  -30.5450  -16.1310   19.9840 C   0  0  0  0  0  0  0  0  0  0  0  0
  -30.6970  -13.5640   19.1870 C   0  0  0  0  0  2  0  0  0  0  0  0
  -29.7800  -13.1520   17.9950 C   0  0  0  0  0  2  0  0  0  0  0  0
  -28.3700  -12.7830   18.4790 C   0  0  0  0  0  2  0  0  0  0  0  0
  -27.8740  -13.7760   19.5510 C   0  0  0  0  0  3  0  0  0  0  0  0
  -28.9230  -14.0980   20.6390 C   0  0  0  0  0  2  0  0  0  0  0  0
  -30.0860  -14.7330   19.9740 N   0  0  0  0  0  0  0  0  0  0  0  0
  -31.7610  -16.0900   19.7110 O   0  0  0  0  0  0  0  0  0  0  0  0
  -25.5350  -14.2770   20.4050 C   0  0  0  0  0  0  0  0  0  0  0  0
  -24.4920  -13.4830   20.7890 C   0  0  0  0  0  0  0  0  0  0  0  0
  -24.9690  -12.1370   20.7160 C   0  0  0  0  0  0  0  0  0  0  0  0
  -26.5750  -13.4180   20.1040 N   0  0  0  0  0  0  0  0  0  0  0  0
  -26.2520  -12.1220   20.3600 N   0  0  0  0  0  0  0  0  0  0  0  0
  -24.2530  -10.8670   20.9020 C   0  0  0  0  0  0  0  0  0  0  0  0
  -24.6710   -9.9140   21.8580 C   0  0  0  0  0  3  0  0  0  0  0  0
  -23.9510   -8.7140   22.0350 C   0  0  0  0  0  3  0  0  0  0  0  0
  -22.7970   -8.4560   21.2560 C   0  0  0  0  0  0  0  0  0  0  0  0
  -22.3970   -9.3970   20.2910 C   0  0  0  0  0  3  0  0  0  0  0  0
  -23.1190  -10.5900   20.1130 C   0  0  0  0  0  3  0  0  0  0  0  0
  -22.0510   -7.3060   21.3400 O   0  0  0  0  0  0  0  0  0  0  0  0
  -21.9350   -6.6070   22.5150 C   0  0  0  0  0  0  0  0  0  0  0  0
  -21.3920   -7.1920   23.6800 C   0  0  0  0  0  3  0  0  0  0  0  0
  -21.2260   -6.4170   24.8450 C   0  0  0  0  0  3  0  0  0  0  0  0
  -21.5920   -5.0590   24.8480 C   0  0  0  0  0  0  0  0  0  0  0  0
  -22.1260   -4.4720   23.6870 C   0  0  0  0  0  3  0  0  0  0  0  0
  -22.2940   -5.2430   22.5230 C   0  0  0  0  0  0  0  0  0  0  0  0
  -22.7890   -4.6670   21.4010 F   0  0  0  0  0  0  0  0  0  0  0  0
  -21.4270   -4.3130   25.9650 F   0  0  0  0  0  0  0  0  0  0  0  0
  -23.1010  -13.9470   21.1070 C   0  0  0  0  0  0  0  0  0  0  0  0
  -22.4040  -13.2330   21.9840 N   0  0  0  0  0  0  0  0  0  0  0  0
  -22.6440  -14.9770   20.6140 O   0  0  0  0  0  0  0  0  0  0  0  0
  -22.7880  -12.3990   22.4030 H   0  0  0  0  0  0  0  0  0  0  0  0
  -21.4720  -13.5270   22.2410 H   0  0  0  0  0  0  0  0  0  0  0  0
  -25.6810  -15.6530   20.2520 N   0  0  0  0  0  0  0  0  0  0  0  0
  -24.9120  -16.2960   20.4070 H   0  0  0  0  0  0  0  0  0  0  0  0
  -26.5170  -16.1090   19.9080 H   0  0  0  0  0  0  0  0  0  0  0  0
  1  4  2  0
  1  5  1  0
  2  6  2  0
  3  6  1  0
  4  2  1  0
  5  3  2  0
  6  7  1  0
  8 10  1  0
  8  5  1  0
  9 20  2  0
 10 15  1  0
 11 19  1  0
 11 21  1  0
 12 18  1  0
 12 14  1  0
 13 19  1  0
 14 13  1  0
 15 14  2  0
 16 17  1  0
 16 10  2  0
 17 12  2  0
 18 11  1  0
 19  9  1  0
 21 23  2  0
 22 21  1  0
 24 22  1  0
 25 34  2  0
 25 30  1  0
 26 22  1  0
 26 30  1  0
 27 26  1  0
 28 29  1  0
 28 27  1  0
 29 25  1  0
 30 31  2  0
 31 32  1  0
 33 32  2  0
 34 33  1  0
 35  9  1  0
 35 40  1  0
 35 36  1  0
 36 39  1  1
 36 37  1  0
 38 36  1  0
 40 43  1  0
 41 45  1  0
 41 40  1  0
 42 41  2  0
 45 44  1  0
 47 45  1  0
 47 48  1  0
 47 46  1  0
 49 50  1  0
 49  4  1  0
 49 55  1  0
 50 53  2  0
 51 52  1  0
 52 50  1  0
 54 52  1  0
 56 55  1  0
 57 62  1  0
 58 59  1  0
 58 57  1  0
 60 59  1  0
 60 67  1  0
 60 61  1  0
 62 56  1  0
 62 61  1  0
 63 56  2  0
 64 65  2  0
 65 84  1  0
 66 65  1  0
 66 69  1  0
 67 68  1  0
 67 64  1  0
 68 66  2  0
 69 70  1  0
 70 71  2  0
 72 75  1  0
 72 71  1  0
 73 72  2  0
 74 73  1  0
 74 69  2  0
 75 76  1  0
 76 81  2  0
 76 77  1  0
 77 78  2  0
 78 79  1  0
 79 83  1  0
 80 79  2  0
 81 80  1  0
 82 81  1  0
 84 85  1  0
 85 88  1  0
 85 87  1  0
 86 84  2  0
 89 64  1  0
 89 90  1  0
 91 89  1  0
M  ISO  4   5 101   8 101  55 100  56 100
M  END
>  <TORSDO>  (88) 
F 19

>  <SCORE>  (88) 
-13.331

>  <name>  (88) 
87

>  <ligand_id>  (88) 
87

>  <original_smiles>  (88) 
[H]c1c([H])c([H])c2c(c1[H])C([H])([H])C([H])([H])C([H])([H])C2([H])N([H])C(=O)C1([H])N(C(=O)C([H])(N([H])C(=O)C([H])(N([H])C([H])([H])[H])C([H])([H])[H])C(C([H])([H])[H])(C([H])([H])[H])C([H])([H])[H])C([H])([H])c2c([H])c(Oc3c([H])c(F)c([H])c(C([H])(C(=O)N([H])C([H])([H])[H])C([H])([H])C(=O)N4C([H])([H])C([H])([H])C([H])([H])C([H])(n5nc(-c6c([H])c([H])c(Oc7c([H])c([H])c(F)c([H])c7F)c([H])c6[H])c(C(=O)N([H])[H])c5N([H])[H])C4([H])[H])c3[H])c([H])c([H])c2C1([H])[H]

>  <smiles>  (88) 
[H]c1c([H])c([H])c2c(c1[H])C([H])([H])C([H])([H])C([H])([H])C2([H])N([H])C(=O)C1([H])N(C(=O)C([H])(N([H])C(=O)C([H])(N([H])C([H])([H])[H])C([H])([H])[H])C(C([H])([H])[H])(C([H])([H])[H])C([H])([H])[H])C([H])([H])c2c([H])c(Oc3c([H])c(F)c([H])c(C([H])(C(=O)N([H])C([H])([H])[H])C([H])([H])C(=O)N4C([H])([H])C([H])([H])C([H])([H])C([H])(n5nc(-c6c([H])c([H])c(Oc7c([H])c([H])c(F)c([H])c7F)c([H])c6[H])c(C(=O)N([H])[H])c5N([H])[H])C4([H])[H])c3[H])c([H])c([H])c2C1([H])[H]

$$$$
88:0:0
     RDKit          3D

 91 99  0  0  1  0  0  0  0  0999 V2000
  -30.8210  -21.1570   20.5910 C   0  0  0  0  0  3  0  0  0  0  0  0
  -31.2330  -22.5120   20.6320 C   0  0  0  0  0  3  0  0  0  0  0  0
  -28.5600  -21.9650   20.3170 C   0  0  0  0  0  3  0  0  0  0  0  0
  -29.4670  -20.7930   20.4340 C   0  0  0  0  0  0  0  0  0  0  0  0
  -28.9440  -23.4010   20.3490 C   0  0  0  0  0  0  0  0  0  0  0  0
  -30.3360  -23.6050   20.5180 C   0  0  0  0  0  0  0  0  0  0  0  0
  -30.8630  -24.8930   20.5740 N   0  0  0  0  0  0  0  0  0  0  0  0
  -31.8470  -25.0470   20.3770 H   0  0  0  0  0  0  0  0  0  0  0  0
  -30.2620  -25.6740   20.3180 H   0  0  0  0  0  0  0  0  0  0  0  0
  -29.0870  -19.2230   20.4190 C   0  0  0  0  0  0  0  0  0  0  0  0
  -27.8930  -18.9200   20.3710 O   0  0  0  0  0  0  0  0  0  0  0  0
  -30.1250  -17.9380   20.4530 C   0  0  0  0  0  3  0  0  0  0  0  0
  -29.6320  -16.3430   20.6700 C   0  0  0  0  0  3  0  0  0  0  0  0
  -30.4930  -14.9620   20.3670 C   0  0  0  0  0  0  0  0  0  0  0  0
  -30.3840  -12.6340   19.3650 C   0  0  0  0  0  2  0  0  0  0  0  0
  -29.4400  -12.6520   18.1390 C   0  0  0  0  0  2  0  0  0  0  0  0
  -27.9750  -12.4410   18.5670 C   0  0  0  0  0  2  0  0  0  0  0  0
  -27.5820  -13.3260   19.7770 C   0  0  0  0  0  3  0  0  0  0  0  0
  -28.6450  -13.2830   20.8950 C   0  0  0  0  0  2  0  0  0  0  0  0
  -29.9280  -13.6900   20.3110 N   0  0  0  0  0  0  0  0  0  0  0  0
  -31.6810  -15.0590   20.0390 O   0  0  0  0  0  0  0  0  0  0  0  0
  -25.1980  -13.8940   20.5220 C   0  0  0  0  0  0  0  0  0  0  0  0
  -24.1370  -13.1120   20.8880 C   0  0  0  0  0  0  0  0  0  0  0  0
  -24.6080  -11.7640   20.8520 C   0  0  0  0  0  0  0  0  0  0  0  0
  -26.2460  -13.0210   20.2750 N   0  0  0  0  0  0  0  0  0  0  0  0
  -25.8990  -11.7350   20.5410 N   0  0  0  0  0  0  0  0  0  0  0  0
  -23.8870  -10.4980   21.0390 C   0  0  0  0  0  0  0  0  0  0  0  0
  -24.3170   -9.5320   21.9760 C   0  0  0  0  0  3  0  0  0  0  0  0
  -23.5940   -8.3320   22.1510 C   0  0  0  0  0  3  0  0  0  0  0  0
  -22.4280   -8.0880   21.3880 C   0  0  0  0  0  0  0  0  0  0  0  0
  -22.0170   -9.0420   20.4400 C   0  0  0  0  0  3  0  0  0  0  0  0
  -22.7400  -10.2340   20.2640 C   0  0  0  0  0  3  0  0  0  0  0  0
  -21.6770   -6.9400   21.4710 O   0  0  0  0  0  0  0  0  0  0  0  0
  -21.6150   -6.2040   22.6260 C   0  0  0  0  0  0  0  0  0  0  0  0
  -21.1520   -6.7570   23.8390 C   0  0  0  0  0  3  0  0  0  0  0  0
  -21.0390   -5.9450   24.9870 C   0  0  0  0  0  3  0  0  0  0  0  0
  -21.3800   -4.5820   24.9200 C   0  0  0  0  0  0  0  0  0  0  0  0
  -21.8360   -4.0270   23.7110 C   0  0  0  0  0  3  0  0  0  0  0  0
  -21.9510   -4.8360   22.5670 C   0  0  0  0  0  0  0  0  0  0  0  0
  -22.3710   -4.2920   21.4000 F   0  0  0  0  0  0  0  0  0  0  0  0
  -21.2640   -3.7990   26.0180 F   0  0  0  0  0  0  0  0  0  0  0  0
  -22.7370  -13.5830   21.1600 C   0  0  0  0  0  0  0  0  0  0  0  0
  -22.0130  -12.8820   22.0270 N   0  0  0  0  0  0  0  0  0  0  0  0
  -22.2940  -14.6050   20.6410 O   0  0  0  0  0  0  0  0  0  0  0  0
  -22.3850  -12.0560   22.4700 H   0  0  0  0  0  0  0  0  0  0  0  0
  -21.0750  -13.1810   22.2520 H   0  0  0  0  0  0  0  0  0  0  0  0
  -25.3560  -15.2660   20.3520 N   0  0  0  0  0  0  0  0  0  0  0  0
  -24.5880  -15.9180   20.4770 H   0  0  0  0  0  0  0  0  0  0  0  0
  -26.2080  -15.7160   20.0440 H   0  0  0  0  0  0  0  0  0  0  0  0
  -27.9150  -24.6780   20.1610 C   0  0  0  0  0  2  0  0  0  0  0  0
  -28.2360  -26.1950   20.3100 O   0  0  0  0  0  0  0  0  0  0  0  0
  -24.6370  -31.9030   23.2770 C   0  0  0  0  0  0  0  0  0  0  0  0
  -27.1830  -27.1810   20.2440 C   0  0  0  0  0  0  0  0  0  0  0  0
  -23.4240  -30.5090   21.6480 C   0  0  0  0  0  3  0  0  0  0  0  0
  -24.8600  -28.9290   20.2200 C   0  0  0  0  0  0  0  0  0  0  0  0
  -25.9790  -30.7670   21.4700 C   0  0  0  0  0  2  0  0  0  0  0  0
  -26.0450  -29.3750   20.8200 C   0  0  0  0  0  0  0  0  0  0  0  0
  -27.2080  -28.5160   20.8140 C   0  0  0  0  0  3  0  0  0  0  0  0
  -25.9700  -26.8380   19.6050 C   0  0  0  0  0  3  0  0  0  0  0  0
  -24.8350  -27.6740   19.5960 C   0  0  0  0  0  3  0  0  0  0  0  0
  -23.6360  -29.8300   20.2700 C   0  0  0  0  0  2  0  0  0  0  0  0
  -24.7000  -31.0810   22.1870 N   0  0  0  0  0  0  0  0  0  0  0  0
  -23.5540  -32.1940   23.8080 O   0  0  0  0  0  0  0  0  0  0  0  0
  -22.7450  -29.5060   22.6140 C   0  0  0  0  0  0  0  0  0  0  0  0
  -21.4170  -29.3340   22.4840 N   0  0  0  0  0  0  0  0  0  0  0  0
  -23.4150  -28.8860   23.4430 O   0  0  0  0  0  0  0  0  0  0  0  0
  -20.9330  -29.8850   21.7900 H   0  0  0  0  0  0  0  0  0  0  0  0
  -18.0360  -28.1320   22.9810 C   0  0  0  0  0  0  0  0  0  0  0  0
  -20.5930  -28.4030   23.2600 C   0  0  0  0  0  3  0  0  0  0  0  0
  -20.7020  -26.9660   22.7010 C   0  0  0  0  0  2  0  0  0  0  0  0
  -19.6060  -26.6300   21.6830 C   0  0  0  0  0  2  0  0  0  0  0  0
  -18.2200  -26.7770   22.3190 C   0  0  0  0  0  2  0  0  0  0  0  0
  -19.1500  -28.9020   23.4090 C   0  0  0  0  0  0  0  0  0  0  0  0
  -18.9230  -30.1680   23.9900 C   0  0  0  0  0  3  0  0  0  0  0  0
  -17.6150  -30.6660   24.1460 C   0  0  0  0  0  3  0  0  0  0  0  0
  -16.5160  -29.8930   23.7330 C   0  0  0  0  0  3  0  0  0  0  0  0
  -16.7280  -28.6270   23.1580 C   0  0  0  0  0  3  0  0  0  0  0  0
  -25.9210  -32.5340   23.8980 C   0  0  0  0  0  3  0  0  0  0  0  0
  -25.6150  -33.9340   24.2320 N   0  0  0  0  0  0  0  0  0  0  0  0
  -25.9230  -34.9880   23.4640 C   0  0  0  0  0  0  0  0  0  0  0  0
  -26.5630  -34.8840   22.4140 O   0  0  0  0  0  0  0  0  0  0  0  0
  -25.0440  -34.0880   25.0500 H   0  0  0  0  0  0  0  0  0  0  0  0
  -24.1730  -36.7730   23.1770 C   0  0  0  0  0  1  0  0  0  0  0  0
  -25.4510  -36.3780   23.9360 C   0  0  0  0  0  3  0  0  0  0  0  0
  -27.6120  -37.2810   24.6720 C   0  0  0  0  0  1  0  0  0  0  0  0
  -26.4720  -37.4350   23.7720 N   0  0  0  0  0  0  0  0  0  0  0  0
  -26.0680  -38.3550   23.9270 H   0  0  0  0  0  0  0  0  0  0  0  0
  -26.4340  -31.7640   25.1770 C   0  0  1  0  0  0  0  0  0  0  0  0
  -25.3410  -31.5330   26.2460 C   0  0  0  0  0  1  0  0  0  0  0  0
  -27.0100  -30.3810   24.7910 C   0  0  0  0  0  1  0  0  0  0  0  0
  -27.5890  -32.5540   25.8360 C   0  0  0  0  0  1  0  0  0  0  0  0
  1  2  1  0
  3  5  2  0
  3  4  1  0
  4  1  2  0
  5  6  1  0
  6  7  1  0
  6  2  2  0
  8  7  1  0
  9  7  1  0
 10  4  1  0
 10 12  1  0
 11 10  2  0
 12 13  2  0
 14 13  1  0
 15 20  1  0
 16 17  1  0
 16 15  1  0
 18 17  1  0
 18 25  1  0
 18 19  1  0
 20 14  1  0
 20 19  1  0
 21 14  2  0
 22 23  2  0
 23 42  1  0
 24 23  1  0
 24 27  1  0
 25 22  1  0
 25 26  1  0
 26 24  2  0
 27 28  1  0
 28 29  2  0
 30 33  1  0
 30 29  1  0
 31 30  2  0
 32 31  1  0
 32 27  2  0
 33 34  1  0
 34 35  1  0
 35 36  2  0
 37 36  1  0
 37 41  1  0
 38 37  2  0
 39 34  2  0
 39 38  1  0
 40 39  1  0
 42 43  1  0
 43 46  1  0
 43 45  1  0
 44 42  2  0
 47 48  1  0
 47 22  1  0
 49 47  1  0
 50 51  1  0
 50  5  1  0
 52 63  2  0
 53 51  1  0
 53 58  1  0
 54 62  1  0
 54 64  1  0
 55 61  1  0
 55 57  1  0
 56 62  1  0
 57 56  1  0
 58 57  2  0
 59 53  2  0
 60 59  1  0
 60 55  2  0
 61 54  1  0
 62 52  1  0
 64 66  2  0
 65 64  1  0
 67 65  1  0
 68 77  2  0
 68 73  1  0
 69 65  1  0
 69 73  1  0
 70 69  1  0
 71 72  1  0
 71 70  1  0
 72 68  1  0
 73 74  2  0
 74 75  1  0
 76 75  2  0
 77 76  1  0
 78 52  1  0
 78 79  1  0
 78 88  1  0
 79 82  1  0
 80 84  1  0
 80 79  1  0
 81 80  2  0
 84 83  1  0
 86 87  1  0
 86 84  1  0
 86 85  1  0
 88 91  1  1
 88 89  1  0
 90 88  1  0
M  ISO  4  13 100  14 100  50 101  51 101
M  END
>  <TORSDO>  (89) 
F 21

>  <SCORE>  (89) 
-13.768

>  <name>  (89) 
88

>  <ligand_id>  (89) 
88

>  <original_smiles>  (89) 
[H]c1c([H])c([H])c2c(c1[H])C([H])([H])C([H])([H])C([H])([H])C2([H])N([H])C(=O)C1([H])N(C(=O)C([H])(N([H])C(=O)C([H])(N([H])C([H])([H])[H])C([H])([H])[H])C(C([H])([H])[H])(C([H])([H])[H])C([H])([H])[H])C([H])([H])c2c([H])c(OC([H])([H])c3c([H])c(C(=O)C([H])([H])C([H])([H])C(=O)N4C([H])([H])C([H])([H])C([H])([H])C([H])(n5nc(-c6c([H])c([H])c(Oc7c([H])c([H])c(F)c([H])c7F)c([H])c6[H])c(C(=O)N([H])[H])c5N([H])[H])C4([H])[H])c([H])c([H])c3N([H])[H])c([H])c([H])c2C1([H])[H]

>  <smiles>  (89) 
[H]c1c([H])c([H])c2c(c1[H])C([H])([H])C([H])([H])C([H])([H])C2([H])N([H])C(=O)C1([H])N(C(=O)C([H])(N([H])C(=O)C([H])(N([H])C([H])([H])[H])C([H])([H])[H])C(C([H])([H])[H])(C([H])([H])[H])C([H])([H])[H])C([H])([H])c2c([H])c(OC([H])([H])c3c([H])c(C(=O)C([H])([H])C([H])([H])C(=O)N4C([H])([H])C([H])([H])C([H])([H])C([H])(n5nc(-c6c([H])c([H])c(Oc7c([H])c([H])c(F)c([H])c7F)c([H])c6[H])c(C(=O)N([H])[H])c5N([H])[H])C4([H])[H])c([H])c([H])c3N([H])[H])c([H])c([H])c2C1([H])[H]

$$$$
89:0:0
     RDKit          3D

 93101  0  0  1  0  0  0  0  0999 V2000
  -30.8030  -18.0150   22.4610 C   0  0  0  0  0  3  0  0  0  0  0  0
  -30.6660  -16.6070   20.4500 C   0  0  0  0  0  0  0  0  0  0  0  0
  -30.8370  -16.7490   21.8560 C   0  0  0  0  0  0  0  0  0  0  0  0
  -30.6190  -19.2330   21.7780 C   0  0  0  0  0  0  0  0  0  0  0  0
  -30.3750  -17.9130   19.7480 C   0  0  0  0  0  0  0  0  0  0  0  0
  -30.3020  -19.2710   20.3960 C   0  0  0  0  0  0  0  0  0  0  0  0
  -31.2700  -15.6120   22.7780 C   0  0  0  0  0  1  0  0  0  0  0  0
  -31.1060  -15.1970   19.8030 C   0  0  0  0  0  0  0  0  0  0  0  0
  -30.7490  -12.8760   18.8380 C   0  0  0  0  0  2  0  0  0  0  0  0
  -29.7520  -12.9330   17.6600 C   0  0  0  0  0  2  0  0  0  0  0  0
  -28.3120  -12.7660   18.1790 C   0  0  0  0  0  2  0  0  0  0  0  0
  -28.0300  -13.6790   19.4020 C   0  0  0  0  0  3  0  0  0  0  0  0
  -29.1530  -13.6400   20.4550 C   0  0  0  0  0  2  0  0  0  0  0  0
  -30.4150  -13.9820   19.7890 N   0  0  0  0  0  0  0  0  0  0  0  0
  -32.2230  -15.1860   19.2730 O   0  0  0  0  0  0  0  0  0  0  0  0
  -25.7390  -14.3090   20.3470 C   0  0  0  0  0  0  0  0  0  0  0  0
  -24.6780  -13.5540   20.7740 C   0  0  0  0  0  0  0  0  0  0  0  0
  -25.0870  -12.1910   20.6570 C   0  0  0  0  0  0  0  0  0  0  0  0
  -26.7240  -13.4050   19.9920 N   0  0  0  0  0  0  0  0  0  0  0  0
  -26.3480  -12.1220   20.2460 N   0  0  0  0  0  0  0  0  0  0  0  0
  -24.3230  -10.9470   20.8510 C   0  0  0  0  0  0  0  0  0  0  0  0
  -24.7210   -9.9750   21.7970 C   0  0  0  0  0  3  0  0  0  0  0  0
  -23.9590   -8.8040   21.9820 C   0  0  0  0  0  3  0  0  0  0  0  0
  -22.7840   -8.5940   21.2230 C   0  0  0  0  0  0  0  0  0  0  0  0
  -22.4040   -9.5510   20.2670 C   0  0  0  0  0  3  0  0  0  0  0  0
  -23.1670  -10.7160   20.0790 C   0  0  0  0  0  3  0  0  0  0  0  0
  -21.9950   -7.4740   21.3170 O   0  0  0  0  0  0  0  0  0  0  0  0
  -21.8330   -6.8000   22.5020 C   0  0  0  0  0  0  0  0  0  0  0  0
  -21.3120   -7.4350   23.6510 C   0  0  0  0  0  3  0  0  0  0  0  0
  -21.1010   -6.6930   24.8310 C   0  0  0  0  0  3  0  0  0  0  0  0
  -21.3990   -5.3160   24.8580 C   0  0  0  0  0  0  0  0  0  0  0  0
  -21.9190   -4.6830   23.7150 C   0  0  0  0  0  3  0  0  0  0  0  0
  -22.1300   -5.4230   22.5400 C   0  0  0  0  0  0  0  0  0  0  0  0
  -22.6070   -4.8030   21.4340 F   0  0  0  0  0  0  0  0  0  0  0  0
  -21.1870   -4.6010   25.9870 F   0  0  0  0  0  0  0  0  0  0  0  0
  -23.3260  -14.0760   21.1650 C   0  0  0  0  0  0  0  0  0  0  0  0
  -22.6380  -13.3830   22.0670 N   0  0  0  0  0  0  0  0  0  0  0  0
  -22.8890  -15.1290   20.7050 O   0  0  0  0  0  0  0  0  0  0  0  0
  -22.9950  -12.5270   22.4660 H   0  0  0  0  0  0  0  0  0  0  0  0
  -21.7370  -13.7240   22.3740 H   0  0  0  0  0  0  0  0  0  0  0  0
  -25.9360  -15.6780   20.2080 N   0  0  0  0  0  0  0  0  0  0  0  0
  -25.1990  -16.3490   20.4010 H   0  0  0  0  0  0  0  0  0  0  0  0
  -26.7790  -16.1080   19.8440 H   0  0  0  0  0  0  0  0  0  0  0  0
  -30.2080  -20.3820   23.9880 C   0  0  0  0  0  1  0  0  0  0  0  0
  -30.9080  -20.4600   22.6230 C   0  0  0  0  0  2  0  0  0  0  0  0
  -28.7550  -17.8650   17.7700 C   0  0  0  0  0  1  0  0  0  0  0  0
  -30.2180  -17.8610   18.2290 C   0  0  0  0  0  2  0  0  0  0  0  0
  -30.1450  -20.7740   19.6880 C   0  0  0  0  0  2  0  0  0  0  0  0
  -29.1290  -22.0570   20.1260 C   0  0  0  0  0  2  0  0  0  0  0  0
  -29.4340  -23.6630   19.8430 C   0  0  0  0  0  0  0  0  0  0  0  0
  -30.6150  -23.9970   19.7140 O   0  0  0  0  0  0  0  0  0  0  0  0
  -28.2860  -24.8430   19.6900 C   0  0  0  0  0  2  0  0  0  0  0  0
  -28.5560  -26.3620   19.8870 O   0  0  0  0  0  0  0  0  0  0  0  0
  -24.5750  -31.6460   23.1680 C   0  0  0  0  0  0  0  0  0  0  0  0
  -27.4450  -27.2820   19.8900 C   0  0  0  0  0  0  0  0  0  0  0  0
  -23.4620  -30.2460   21.4690 C   0  0  0  0  0  3  0  0  0  0  0  0
  -25.0000  -28.8440   19.9780 C   0  0  0  0  0  0  0  0  0  0  0  0
  -25.9890  -30.7040   21.3020 C   0  0  0  0  0  2  0  0  0  0  0  0
  -26.1550  -29.3490   20.5910 C   0  0  0  0  0  0  0  0  0  0  0  0
  -27.3800  -28.5830   20.5360 C   0  0  0  0  0  3  0  0  0  0  0  0
  -26.2500  -26.8800   19.2460 C   0  0  0  0  0  3  0  0  0  0  0  0
  -25.0580  -27.6190   19.3010 C   0  0  0  0  0  3  0  0  0  0  0  0
  -23.7190  -29.6500   20.0640 C   0  0  0  0  0  2  0  0  0  0  0  0
  -24.6950  -30.8830   22.0380 N   0  0  0  0  0  0  0  0  0  0  0  0
  -23.4740  -31.8310   23.7070 O   0  0  0  0  0  0  0  0  0  0  0  0
  -22.8510  -29.1540   22.3850 C   0  0  0  0  0  0  0  0  0  0  0  0
  -21.5480  -28.8660   22.2200 N   0  0  0  0  0  0  0  0  0  0  0  0
  -23.5600  -28.5680   23.2070 O   0  0  0  0  0  0  0  0  0  0  0  0
  -21.0260  -29.4110   21.5470 H   0  0  0  0  0  0  0  0  0  0  0  0
  -18.2900  -27.3220   22.5600 C   0  0  0  0  0  0  0  0  0  0  0  0
  -20.7970  -27.8300   22.9330 C   0  0  0  0  0  3  0  0  0  0  0  0
  -21.0600  -26.4280   22.3340 C   0  0  0  0  0  2  0  0  0  0  0  0
  -20.0370  -26.0230   21.2680 C   0  0  0  0  0  2  0  0  0  0  0  0
  -18.6260  -26.0140   21.8620 C   0  0  0  0  0  2  0  0  0  0  0  0
  -19.3080  -28.1840   23.0460 C   0  0  0  0  0  0  0  0  0  0  0  0
  -18.9380  -29.4010   23.6550 C   0  0  0  0  0  3  0  0  0  0  0  0
  -17.5830  -29.7640   23.7790 C   0  0  0  0  0  3  0  0  0  0  0  0
  -16.5790  -28.9010   23.3080 C   0  0  0  0  0  3  0  0  0  0  0  0
  -16.9330  -27.6810   22.7080 C   0  0  0  0  0  3  0  0  0  0  0  0
  -25.8100  -32.3290   23.8300 C   0  0  0  0  0  3  0  0  0  0  0  0
  -25.4360  -33.7140   24.1530 N   0  0  0  0  0  0  0  0  0  0  0  0
  -25.7420  -34.7830   23.4040 C   0  0  0  0  0  0  0  0  0  0  0  0
  -26.4320  -34.7070   22.3850 O   0  0  0  0  0  0  0  0  0  0  0  0
  -24.8290  -33.8480   24.9480 H   0  0  0  0  0  0  0  0  0  0  0  0
  -23.9440  -36.5070   23.0300 C   0  0  0  0  0  1  0  0  0  0  0  0
  -25.1950  -36.1520   23.8530 C   0  0  0  0  0  3  0  0  0  0  0  0
  -27.2840  -37.1240   24.7010 C   0  0  0  0  0  1  0  0  0  0  0  0
  -26.1840  -37.2460   23.7490 N   0  0  0  0  0  0  0  0  0  0  0  0
  -25.7390  -38.1480   23.8930 H   0  0  0  0  0  0  0  0  0  0  0  0
  -26.3150  -31.5800   25.1240 C   0  0  1  0  0  0  0  0  0  0  0  0
  -25.1950  -31.2790   26.1480 C   0  0  0  0  0  1  0  0  0  0  0  0
  -26.9890  -30.2400   24.7470 C   0  0  0  0  0  1  0  0  0  0  0  0
  -27.3950  -32.4260   25.8440 C   0  0  0  0  0  1  0  0  0  0  0  0
  2  3  2  0
  3  1  1  0
  3  7  1  0
  4  1  2  0
  4 45  1  0
  5  6  2  0
  5  2  1  0
  6  4  1  0
  8  2  1  0
  9 14  1  0
 10 11  1  0
 10  9  1  0
 12 11  1  0
 12 19  1  0
 12 13  1  0
 14  8  1  0
 14 13  1  0
 15  8  2  0
 16 17  2  0
 17 36  1  0
 18 17  1  0
 18 21  1  0
 19 20  1  0
 19 16  1  0
 20 18  2  0
 21 22  1  0
 22 23  2  0
 24 27  1  0
 24 23  1  0
 25 24  2  0
 26 25  1  0
 26 21  2  0
 27 28  1  0
 28 33  2  0
 28 29  1  0
 29 30  2  0
 30 31  1  0
 31 35  1  0
 32 31  2  0
 33 32  1  0
 34 33  1  0
 36 37  1  0
 37 40  1  0
 37 39  1  0
 38 36  2  0
 41 16  1  0
 41 42  1  0
 43 41  1  0
 45 44  1  0
 46 47  1  0
 47  5  1  0
 48 49  1  0
 48  6  1  0
 50 49  1  0
 51 50  2  0
 52 50  1  0
 52 53  1  0
 53 55  1  0
 54 65  2  0
 55 60  1  0
 56 64  1  0
 56 66  1  0
 57 63  1  0
 57 59  1  0
 58 64  1  0
 59 58  1  0
 60 59  2  0
 61 62  1  0
 61 55  2  0
 62 57  2  0
 63 56  1  0
 64 54  1  0
 66 68  2  0
 67 66  1  0
 69 67  1  0
 70 79  2  0
 70 75  1  0
 71 67  1  0
 71 75  1  0
 72 71  1  0
 73 74  1  0
 73 72  1  0
 74 70  1  0
 75 76  2  0
 76 77  1  0
 78 77  2  0
 79 78  1  0
 80 54  1  0
 80 81  1  0
 80 90  1  0
 81 84  1  0
 82 86  1  0
 82 81  1  0
 83 82  2  0
 86 85  1  0
 88 86  1  0
 88 89  1  0
 88 87  1  0
 90 93  1  1
 90 91  1  0
 92 90  1  0
M  ISO  4   2 100   8 100  52 101  53 101
M  END
>  <TORSDO>  (90) 
F 22

>  <SCORE>  (90) 
-11.150

>  <name>  (90) 
89

>  <ligand_id>  (90) 
89

>  <original_smiles>  (90) 
[H]c1c([H])c([H])c2c(c1[H])C([H])([H])C([H])([H])C([H])([H])C2([H])N([H])C(=O)C1([H])N(C(=O)C([H])(N([H])C(=O)C([H])(N([H])C([H])([H])[H])C([H])([H])[H])C(C([H])([H])[H])(C([H])([H])[H])C([H])([H])[H])C([H])([H])c2c([H])c(OC([H])([H])C(=O)C([H])([H])C([H])([H])c3c(C([H])([H])C([H])([H])[H])c([H])c(C([H])([H])[H])c(C(=O)N4C([H])([H])C([H])([H])C([H])([H])C([H])(n5nc(-c6c([H])c([H])c(Oc7c([H])c([H])c(F)c([H])c7F)c([H])c6[H])c(C(=O)N([H])[H])c5N([H])[H])C4([H])[H])c3C([H])([H])C([H])([H])[H])c([H])c([H])c2C1([H])[H]

>  <smiles>  (90) 
[H]c1c([H])c([H])c2c(c1[H])C([H])([H])C([H])([H])C([H])([H])C2([H])N([H])C(=O)C1([H])N(C(=O)C([H])(N([H])C(=O)C([H])(N([H])C([H])([H])[H])C([H])([H])[H])C(C([H])([H])[H])(C([H])([H])[H])C([H])([H])[H])C([H])([H])c2c([H])c(OC([H])([H])C(=O)C([H])([H])C([H])([H])c3c(C([H])([H])C([H])([H])[H])c([H])c(C([H])([H])[H])c(C(=O)N4C([H])([H])C([H])([H])C([H])([H])C([H])(n5nc(-c6c([H])c([H])c(Oc7c([H])c([H])c(F)c([H])c7F)c([H])c6[H])c(C(=O)N([H])[H])c5N([H])[H])C4([H])[H])c3C([H])([H])C([H])([H])[H])c([H])c([H])c2C1([H])[H]

$$$$
90:0:0
     RDKit          3D

 92100  0  0  1  0  0  0  0  0999 V2000
  -27.9530  -22.6220   20.5830 C   0  0  0  0  0  3  0  0  0  0  0  0
  -27.6010  -24.0300   20.4720 C   0  0  0  0  0  3  0  0  0  0  0  0
  -29.4830  -24.3570   19.0930 C   0  0  0  0  0  3  0  0  0  0  0  0
  -29.1180  -22.0090   19.9960 C   0  0  0  0  0  0  0  0  0  0  0  0
  -29.8430  -22.9540   19.1930 C   0  0  0  0  0  0  0  0  0  0  0  0
  -28.3730  -24.9920   19.7460 C   0  0  0  0  0  0  0  0  0  0  0  0
  -32.3600  -22.9060   19.2890 C   0  0  0  0  0  1  0  0  0  0  0  0
  -31.1180  -22.5110   18.4840 C   0  0  0  0  0  2  0  0  0  0  0  0
  -29.6940  -20.4690   21.9940 C   0  0  0  0  0  1  0  0  0  0  0  0
  -29.7300  -20.5480   20.4550 C   0  0  0  0  0  3  0  0  0  0  0  0
  -29.3680  -19.1530   19.8540 N   0  0  0  0  0  4  0  0  0  0  0  0
  -28.4310  -18.9320   20.1430 H   0  0  0  0  0  0  0  0  0  0  0  0
  -29.3220  -19.2740   18.8540 H   0  0  0  0  0  0  0  0  0  0  0  0
  -30.2870  -17.8970   20.0980 C   0  0  0  0  0  3  0  0  0  0  0  0
  -29.7080  -16.3520   20.0200 C   0  0  0  0  0  3  0  0  0  0  0  0
  -30.6230  -14.9980   19.9280 C   0  0  0  0  0  0  0  0  0  0  0  0
  -30.4710  -12.6780   18.9810 C   0  0  0  0  0  2  0  0  0  0  0  0
  -29.4660  -12.7180   17.8040 C   0  0  0  0  0  2  0  0  0  0  0  0
  -28.0160  -12.5340   18.3000 C   0  0  0  0  0  2  0  0  0  0  0  0
  -27.6910  -13.4120   19.5370 C   0  0  0  0  0  3  0  0  0  0  0  0
  -28.8110  -13.3440   20.5960 C   0  0  0  0  0  2  0  0  0  0  0  0
  -30.0690  -13.7300   19.9460 N   0  0  0  0  0  0  0  0  0  0  0  0
  -31.8100  -15.1080   19.6020 O   0  0  0  0  0  0  0  0  0  0  0  0
  -25.3630  -13.9800   20.4520 C   0  0  0  0  0  0  0  0  0  0  0  0
  -24.3160  -13.1970   20.8550 C   0  0  0  0  0  0  0  0  0  0  0  0
  -24.7630  -11.8460   20.7310 C   0  0  0  0  0  0  0  0  0  0  0  0
  -26.3810  -13.1060   20.1050 N   0  0  0  0  0  0  0  0  0  0  0  0
  -26.0310  -11.8140   20.3380 N   0  0  0  0  0  0  0  0  0  0  0  0
  -24.0350  -10.5810   20.9110 C   0  0  0  0  0  0  0  0  0  0  0  0
  -24.4810   -9.5950   21.8170 C   0  0  0  0  0  3  0  0  0  0  0  0
  -23.7540   -8.3970   21.9870 C   0  0  0  0  0  3  0  0  0  0  0  0
  -22.5650   -8.1770   21.2500 C   0  0  0  0  0  0  0  0  0  0  0  0
  -22.1380   -9.1530   20.3320 C   0  0  0  0  0  3  0  0  0  0  0  0
  -22.8660  -10.3430   20.1600 C   0  0  0  0  0  3  0  0  0  0  0  0
  -21.8090   -7.0330   21.3280 O   0  0  0  0  0  0  0  0  0  0  0  0
  -21.7450   -6.2890   22.4790 C   0  0  0  0  0  0  0  0  0  0  0  0
  -21.2640   -6.8310   23.6900 C   0  0  0  0  0  3  0  0  0  0  0  0
  -21.1510   -6.0140   24.8320 C   0  0  0  0  0  3  0  0  0  0  0  0
  -21.5090   -4.6540   24.7630 C   0  0  0  0  0  0  0  0  0  0  0  0
  -21.9830   -4.1110   23.5560 C   0  0  0  0  0  3  0  0  0  0  0  0
  -22.0990   -4.9260   22.4170 C   0  0  0  0  0  0  0  0  0  0  0  0
  -22.5360   -4.3920   21.2510 F   0  0  0  0  0  0  0  0  0  0  0  0
  -21.3940   -3.8660   25.8580 F   0  0  0  0  0  0  0  0  0  0  0  0
  -22.9420  -13.6720   21.2320 C   0  0  0  0  0  0  0  0  0  0  0  0
  -22.2620  -12.9430   22.1110 N   0  0  0  0  0  0  0  0  0  0  0  0
  -22.4830  -14.7230   20.7860 O   0  0  0  0  0  0  0  0  0  0  0  0
  -22.6470  -12.0950   22.4980 H   0  0  0  0  0  0  0  0  0  0  0  0
  -21.3400  -13.2390   22.4020 H   0  0  0  0  0  0  0  0  0  0  0  0
  -25.5260  -15.3570   20.3270 N   0  0  0  0  0  0  0  0  0  0  0  0
  -24.7670  -16.0040   20.5150 H   0  0  0  0  0  0  0  0  0  0  0  0
  -26.3450  -15.8100   19.9430 H   0  0  0  0  0  0  0  0  0  0  0  0
  -28.2260  -26.4450   19.6950 O   0  0  0  0  0  0  0  0  0  0  0  0
  -24.4580  -31.7830   23.0490 C   0  0  0  0  0  0  0  0  0  0  0  0
  -27.0630  -27.2710   19.7860 C   0  0  0  0  0  0  0  0  0  0  0  0
  -23.2300  -30.3890   21.4250 C   0  0  0  0  0  3  0  0  0  0  0  0
  -24.6640  -28.8900   19.9050 C   0  0  0  0  0  0  0  0  0  0  0  0
  -25.7570  -30.7540   21.1520 C   0  0  0  0  0  2  0  0  0  0  0  0
  -25.8470  -29.3770   20.4750 C   0  0  0  0  0  0  0  0  0  0  0  0
  -27.0420  -28.5810   20.4020 C   0  0  0  0  0  3  0  0  0  0  0  0
  -25.8520  -26.8620   19.1940 C   0  0  0  0  0  3  0  0  0  0  0  0
  -24.6760  -27.6440   19.2520 C   0  0  0  0  0  3  0  0  0  0  0  0
  -23.4080  -29.7410   20.0240 C   0  0  0  0  0  2  0  0  0  0  0  0
  -24.5040  -30.9940   21.9310 N   0  0  0  0  0  0  0  0  0  0  0  0
  -23.3910  -32.0200   23.6330 O   0  0  0  0  0  0  0  0  0  0  0  0
  -22.6220  -29.3420   22.3910 C   0  0  0  0  0  0  0  0  0  0  0  0
  -21.3050  -29.0990   22.2790 N   0  0  0  0  0  0  0  0  0  0  0  0
  -23.3400  -28.7470   23.2010 O   0  0  0  0  0  0  0  0  0  0  0  0
  -20.7850  -29.6310   21.5970 H   0  0  0  0  0  0  0  0  0  0  0  0
  -18.0180  -27.6570   22.7540 C   0  0  0  0  0  0  0  0  0  0  0  0
  -20.5450  -28.1150   23.0520 C   0  0  0  0  0  3  0  0  0  0  0  0
  -20.7640  -26.6880   22.5010 C   0  0  0  0  0  2  0  0  0  0  0  0
  -19.7050  -26.2710   21.4750 C   0  0  0  0  0  2  0  0  0  0  0  0
  -18.3070  -26.3170   22.0970 C   0  0  0  0  0  2  0  0  0  0  0  0
  -19.0700  -28.5070   23.1880 C   0  0  0  0  0  0  0  0  0  0  0  0
  -18.7470  -29.7560   23.7630 C   0  0  0  0  0  3  0  0  0  0  0  0
  -17.4050  -30.1580   23.9050 C   0  0  0  0  0  3  0  0  0  0  0  0
  -16.3680  -29.3060   23.4870 C   0  0  0  0  0  3  0  0  0  0  0  0
  -16.6750  -28.0560   22.9180 C   0  0  0  0  0  3  0  0  0  0  0  0
  -25.7460  -32.4380   23.6390 C   0  0  0  0  0  3  0  0  0  0  0  0
  -25.4070  -33.8160   24.0300 N   0  0  0  0  0  0  0  0  0  0  0  0
  -25.7060  -34.9100   23.3160 C   0  0  0  0  0  0  0  0  0  0  0  0
  -26.3650  -34.8660   22.2750 O   0  0  0  0  0  0  0  0  0  0  0  0
  -24.8160  -33.9210   24.8420 H   0  0  0  0  0  0  0  0  0  0  0  0
  -23.9530  -36.6960   23.0410 C   0  0  0  0  0  1  0  0  0  0  0  0
  -25.1960  -36.2680   23.8370 C   0  0  0  0  0  3  0  0  0  0  0  0
  -27.3080  -37.1490   24.7310 C   0  0  0  0  0  1  0  0  0  0  0  0
  -26.2140  -37.3410   23.7830 N   0  0  0  0  0  0  0  0  0  0  0  0
  -25.7930  -38.2470   23.9650 H   0  0  0  0  0  0  0  0  0  0  0  0
  -26.3370  -31.6450   24.8690 C   0  0  1  0  0  0  0  0  0  0  0  0
  -25.2970  -31.3420   25.9720 C   0  0  0  0  0  1  0  0  0  0  0  0
  -26.9430  -30.2970   24.4140 C   0  0  0  0  0  1  0  0  0  0  0  0
  -27.4940  -32.4520   25.5090 C   0  0  0  0  0  1  0  0  0  0  0  0
  2  1  1  0
  3  5  2  0
  3  6  1  0
  4 10  1  0
  4  1  2  0
  5  4  1  0
  6  2  2  0
  8  5  1  0
  8  7  1  0
 10  9  1  0
 11 14  1  0
 11 12  1  0
 11 10  1  0
 13 11  1  0
 15 14  2  0
 16 22  1  0
 16 15  1  0
 17 22  1  0
 18 19  1  0
 18 17  1  0
 20 19  1  0
 20 27  1  0
 20 21  1  0
 22 21  1  0
 23 16  2  0
 24 25  2  0
 25 44  1  0
 26 25  1  0
 26 29  1  0
 27 28  1  0
 27 24  1  0
 28 26  2  0
 29 30  1  0
 30 31  2  0
 32 35  1  0
 32 31  1  0
 33 32  2  0
 34 33  1  0
 34 29  2  0
 35 36  1  0
 36 37  1  0
 37 38  2  0
 39 38  1  0
 39 43  1  0
 40 39  2  0
 41 36  2  0
 41 40  1  0
 42 41  1  0
 44 45  1  0
 45 48  1  0
 45 47  1  0
 46 44  2  0
 49 24  1  0
 49 50  1  0
 51 49  1  0
 52  6  1  0
 52 54  1  0
 53 64  2  0
 54 59  1  0
 55 63  1  0
 55 65  1  0
 56 62  1  0
 56 58  1  0
 57 63  1  0
 58 57  1  0
 59 58  2  0
 60 61  1  0
 60 54  2  0
 61 56  2  0
 62 55  1  0
 63 53  1  0
 65 67  2  0
 66 65  1  0
 68 66  1  0
 69 78  2  0
 69 74  1  0
 70 66  1  0
 70 74  1  0
 71 70  1  0
 72 73  1  0
 72 71  1  0
 73 69  1  0
 74 75  2  0
 75 76  1  0
 77 76  2  0
 78 77  1  0
 79 53  1  0
 79 80  1  0
 79 89  1  0
 80 83  1  0
 81 85  1  0
 81 80  1  0
 82 81  2  0
 85 84  1  0
 87 85  1  0
 87 88  1  0
 87 86  1  0
 89 92  1  1
 89 90  1  0
 91 89  1  0
M  ISO  4   6 101  15 100  16 100  52 101
M  END
>  <TORSDO>  (91) 
F 21

>  <SCORE>  (91) 
-12.803

>  <name>  (91) 
90

>  <ligand_id>  (91) 
90

>  <original_smiles>  (91) 
[H]c1c([H])c([H])c2c(c1[H])C([H])([H])C([H])([H])C([H])([H])C2([H])N([H])C(=O)C1([H])N(C(=O)C([H])(N([H])C(=O)C([H])(N([H])C([H])([H])[H])C([H])([H])[H])C(C([H])([H])[H])(C([H])([H])[H])C([H])([H])[H])C([H])([H])c2c([H])c(Oc3c([H])c([H])c(C([H])(C([H])([H])[H])[N+]([H])([H])C([H])([H])C([H])([H])C(=O)N4C([H])([H])C([H])([H])C([H])([H])C([H])(n5nc(-c6c([H])c([H])c(Oc7c([H])c([H])c(F)c([H])c7F)c([H])c6[H])c(C(=O)N([H])[H])c5N([H])[H])C4([H])[H])c(C([H])([H])C([H])([H])[H])c3[H])c([H])c([H])c2C1([H])[H]

>  <smiles>  (91) 
[H]c1c([H])c([H])c2c(c1[H])C([H])([H])C([H])([H])C([H])([H])C2([H])N([H])C(=O)C1([H])N(C(=O)C([H])(N([H])C(=O)C([H])(N([H])C([H])([H])[H])C([H])([H])[H])C(C([H])([H])[H])(C([H])([H])[H])C([H])([H])[H])C([H])([H])c2c([H])c(Oc3c([H])c([H])c(C([H])(C([H])([H])[H])[N+]([H])([H])C([H])([H])C([H])([H])C(=O)N4C([H])([H])C([H])([H])C([H])([H])C([H])(n5nc(-c6c([H])c([H])c(Oc7c([H])c([H])c(F)c([H])c7F)c([H])c6[H])c(C(=O)N([H])[H])c5N([H])[H])C4([H])[H])c(C([H])([H])C([H])([H])[H])c3[H])c([H])c([H])c2C1([H])[H]

$$$$
91:0:0
     RDKit          3D

 94102  0  0  1  0  0  0  0  0999 V2000
  -28.8860  -21.7510   19.9560 C   0  0  0  0  0  2  0  0  0  0  0  0
  -29.6340  -20.3600   19.3440 C   0  0  0  0  0  2  0  0  0  0  0  0
  -31.1320  -16.7190   21.6520 C   0  0  0  0  0  3  0  0  0  0  0  0
  -30.6780  -17.7700   19.5440 C   0  0  0  0  0  3  0  0  0  0  0  0
  -31.1400  -16.5530   20.2590 C   0  0  0  0  0  0  0  0  0  0  0  0
  -30.5070  -17.8000   22.3080 C   0  0  0  0  0  0  0  0  0  0  0  0
  -30.1080  -18.9990   20.1670 C   0  0  0  0  0  0  0  0  0  0  0  0
  -29.9360  -18.8900   21.5840 C   0  0  0  0  0  0  0  0  0  0  0  0
  -29.0960  -19.9130   22.3390 C   0  0  0  0  0  1  0  0  0  0  0  0
  -31.7440  -15.1880   19.6610 C   0  0  0  0  0  0  0  0  0  0  0  0
  -31.3070  -12.9520   18.5550 C   0  0  0  0  0  2  0  0  0  0  0  0
  -30.1980  -13.1130   17.4820 C   0  0  0  0  0  2  0  0  0  0  0  0
  -28.7890  -13.0030   18.1020 C   0  0  0  0  0  2  0  0  0  0  0  0
  -28.6580  -13.8270   19.4060 C   0  0  0  0  0  3  0  0  0  0  0  0
  -29.8460  -13.5520   20.3380 C   0  0  0  0  0  2  0  0  0  0  0  0
  -31.0700  -13.9630   19.6280 N   0  0  0  0  0  0  0  0  0  0  0  0
  -32.8440  -15.2290   19.0930 O   0  0  0  0  0  0  0  0  0  0  0  0
  -26.5460  -14.5400   20.6690 C   0  0  0  0  0  0  0  0  0  0  0  0
  -25.4400  -13.8470   21.0770 C   0  0  0  0  0  0  0  0  0  0  0  0
  -25.6650  -12.4850   20.7020 C   0  0  0  0  0  0  0  0  0  0  0  0
  -27.3800  -13.6080   20.0750 N   0  0  0  0  0  0  0  0  0  0  0  0
  -26.8670  -12.3530   20.1550 N   0  0  0  0  0  0  0  0  0  0  0  0
  -24.7820  -11.3160   20.7790 C   0  0  0  0  0  0  0  0  0  0  0  0
  -25.1570  -10.1540   21.4880 C   0  0  0  0  0  3  0  0  0  0  0  0
  -24.2820   -9.0490   21.5620 C   0  0  0  0  0  3  0  0  0  0  0  0
  -23.0170   -9.1010   20.9290 C   0  0  0  0  0  0  0  0  0  0  0  0
  -22.6590  -10.2540   20.2070 C   0  0  0  0  0  3  0  0  0  0  0  0
  -23.5320  -11.3510   20.1290 C   0  0  0  0  0  3  0  0  0  0  0  0
  -22.1140   -8.0650   20.9280 O   0  0  0  0  0  0  0  0  0  0  0  0
  -22.0150   -7.1940   21.9830 C   0  0  0  0  0  0  0  0  0  0  0  0
  -21.7960   -7.6450   23.3030 C   0  0  0  0  0  3  0  0  0  0  0  0
  -21.6280   -6.7120   24.3470 C   0  0  0  0  0  3  0  0  0  0  0  0
  -21.6700   -5.3320   24.0730 C   0  0  0  0  0  0  0  0  0  0  0  0
  -21.8840   -4.8820   22.7580 C   0  0  0  0  0  3  0  0  0  0  0  0
  -22.0520   -5.8110   21.7170 C   0  0  0  0  0  0  0  0  0  0  0  0
  -22.2360   -5.3700   20.4490 F   0  0  0  0  0  0  0  0  0  0  0  0
  -21.5040   -4.4350   25.0740 F   0  0  0  0  0  0  0  0  0  0  0  0
  -24.1970  -14.4260   21.6890 C   0  0  0  0  0  0  0  0  0  0  0  0
  -23.5200  -13.6640   22.5410 N   0  0  0  0  0  0  0  0  0  0  0  0
  -23.8440  -15.5800   21.4490 O   0  0  0  0  0  0  0  0  0  0  0  0
  -23.8280  -12.7270   22.7630 H   0  0  0  0  0  0  0  0  0  0  0  0
  -22.6830  -14.0170   22.9810 H   0  0  0  0  0  0  0  0  0  0  0  0
  -26.9040  -15.8810   20.7330 N   0  0  0  0  0  0  0  0  0  0  0  0
  -26.2920  -16.5860   21.1370 H   0  0  0  0  0  0  0  0  0  0  0  0
  -27.7940  -16.2580   20.4320 H   0  0  0  0  0  0  0  0  0  0  0  0
  -31.4120  -18.7140   24.5190 C   0  0  0  0  0  1  0  0  0  0  0  0
  -30.4740  -17.7120   23.8330 C   0  0  0  0  0  2  0  0  0  0  0  0
  -28.9160  -23.3210   19.3400 C   0  0  0  0  0  3  0  0  0  0  0  0
  -28.4960  -23.2850   17.9210 N   0  0  0  0  0  4  0  0  0  0  0  0
  -28.6120  -24.1960   17.5070 H   0  0  0  0  0  0  0  0  0  0  0  0
  -27.5290  -23.0280   17.8230 H   0  0  0  0  0  0  0  0  0  0  0  0
  -29.0510  -22.6360   17.3930 H   0  0  0  0  0  0  0  0  0  0  0  0
  -28.0970  -24.6000   20.0560 C   0  0  0  0  0  2  0  0  0  0  0  0
  -28.3130  -26.1250   19.8240 O   0  0  0  0  0  0  0  0  0  0  0  0
  -24.4430  -31.5780   22.9330 C   0  0  0  0  0  0  0  0  0  0  0  0
  -27.2130  -27.0490   19.8210 C   0  0  0  0  0  0  0  0  0  0  0  0
  -23.3040  -30.1530   21.2780 C   0  0  0  0  0  3  0  0  0  0  0  0
  -24.8140  -28.6730   19.8260 C   0  0  0  0  0  0  0  0  0  0  0  0
  -25.8390  -30.5470   21.1030 C   0  0  0  0  0  2  0  0  0  0  0  0
  -25.9750  -29.1710   20.4320 C   0  0  0  0  0  0  0  0  0  0  0  0
  -27.1790  -28.3760   20.4110 C   0  0  0  0  0  3  0  0  0  0  0  0
  -26.0270  -26.6530   19.1730 C   0  0  0  0  0  3  0  0  0  0  0  0
  -24.8490  -27.4290   19.1830 C   0  0  0  0  0  3  0  0  0  0  0  0
  -23.5470  -29.5080   19.8870 C   0  0  0  0  0  2  0  0  0  0  0  0
  -24.5480  -30.7800   21.8260 N   0  0  0  0  0  0  0  0  0  0  0  0
  -23.3460  -31.8020   23.4680 O   0  0  0  0  0  0  0  0  0  0  0  0
  -22.6810  -29.0980   22.2240 C   0  0  0  0  0  0  0  0  0  0  0  0
  -21.3570  -28.8910   22.1230 N   0  0  0  0  0  0  0  0  0  0  0  0
  -23.3920  -28.4690   23.0120 O   0  0  0  0  0  0  0  0  0  0  0  0
  -20.8360  -29.4550   21.4650 H   0  0  0  0  0  0  0  0  0  0  0  0
  -18.0250  -27.5910   22.6770 C   0  0  0  0  0  0  0  0  0  0  0  0
  -20.5810  -27.9080   22.8820 C   0  0  0  0  0  3  0  0  0  0  0  0
  -20.7030  -26.5030   22.2530 C   0  0  0  0  0  2  0  0  0  0  0  0
  -19.5810  -26.1900   21.2590 C   0  0  0  0  0  2  0  0  0  0  0  0
  -18.2160  -26.2710   21.9480 C   0  0  0  0  0  2  0  0  0  0  0  0
  -19.1350  -28.3670   23.1010 C   0  0  0  0  0  0  0  0  0  0  0  0
  -18.9020  -29.6020   23.7440 C   0  0  0  0  0  3  0  0  0  0  0  0
  -17.5900  -30.0630   23.9660 C   0  0  0  0  0  3  0  0  0  0  0  0
  -16.4940  -29.2840   23.5570 C   0  0  0  0  0  3  0  0  0  0  0  0
  -16.7120  -28.0480   22.9180 C   0  0  0  0  0  3  0  0  0  0  0  0
  -25.6920  -32.2620   23.5660 C   0  0  0  0  0  3  0  0  0  0  0  0
  -25.2900  -33.6080   24.0000 N   0  0  0  0  0  0  0  0  0  0  0  0
  -25.5340  -34.7350   23.3190 C   0  0  0  0  0  0  0  0  0  0  0  0
  -26.1870  -34.7550   22.2730 O   0  0  0  0  0  0  0  0  0  0  0  0
  -24.7030  -33.6630   24.8190 H   0  0  0  0  0  0  0  0  0  0  0  0
  -23.6790  -36.4260   23.1320 C   0  0  0  0  0  1  0  0  0  0  0  0
  -24.9650  -36.0500   23.8870 C   0  0  0  0  0  3  0  0  0  0  0  0
  -27.0540  -37.0190   24.7380 C   0  0  0  0  0  1  0  0  0  0  0  0
  -25.9210  -37.1780   23.8320 N   0  0  0  0  0  0  0  0  0  0  0  0
  -25.4560  -38.0550   24.0550 H   0  0  0  0  0  0  0  0  0  0  0  0
  -26.2960  -31.4510   24.7790 C   0  0  1  0  0  0  0  0  0  0  0  0
  -25.2480  -31.0580   25.8470 C   0  0  0  0  0  1  0  0  0  0  0  0
  -26.9760  -30.1530   24.2870 C   0  0  0  0  0  1  0  0  0  0  0  0
  -27.3960  -32.2860   25.4740 C   0  0  0  0  0  1  0  0  0  0  0  0
  2  1  1  0
  2  7  1  0
  3  6  1  0
  4  7  2  0
  4  5  1  0
  5  3  2  0
  6 47  1  0
  7  8  1  0
  8  6  2  0
  8  9  1  0
 10  5  1  0
 11 16  1  0
 12 13  1  0
 12 11  1  0
 14 13  1  0
 14 21  1  0
 14 15  1  0
 16 10  1  0
 16 15  1  0
 17 10  2  0
 18 43  1  0
 18 19  2  0
 19 38  1  0
 20 23  1  0
 20 19  1  0
 21 22  1  0
 21 18  1  0
 22 20  2  0
 23 24  1  0
 24 25  2  0
 26 25  1  0
 27 26  2  0
 28 27  1  0
 28 23  2  0
 29 26  1  0
 29 30  1  0
 30 31  1  0
 31 32  2  0
 33 32  1  0
 33 37  1  0
 34 33  2  0
 35 30  2  0
 35 34  1  0
 36 35  1  0
 38 39  1  0
 39 41  1  0
 39 42  1  0
 40 38  2  0
 43 44  1  0
 45 43  1  0
 47 46  1  0
 48  1  1  0
 48 53  1  0
 49 48  1  0
 50 49  1  0
 51 49  1  0
 52 49  1  0
 54 53  1  0
 55 66  2  0
 56 54  1  0
 56 61  1  0
 57 65  1  0
 57 67  1  0
 58 64  1  0
 58 60  1  0
 59 65  1  0
 60 59  1  0
 61 60  2  0
 62 63  1  0
 62 56  2  0
 63 58  2  0
 64 57  1  0
 65 55  1  0
 67 69  2  0
 68 67  1  0
 70 68  1  0
 71 80  2  0
 71 76  1  0
 72 68  1  0
 72 76  1  0
 73 72  1  0
 74 75  1  0
 74 73  1  0
 75 71  1  0
 76 77  2  0
 77 78  1  0
 79 78  2  0
 80 79  1  0
 81 55  1  0
 81 82  1  0
 81 91  1  0
 82 85  1  0
 83 87  1  0
 83 82  1  0
 84 83  2  0
 87 86  1  0
 89 87  1  0
 89 90  1  0
 89 88  1  0
 91 94  1  1
 91 92  1  0
 93 91  1  0
M  ISO  4   5 100  10 100  53 101  54 101
M  END
>  <TORSDO>  (92) 
F 22

>  <SCORE>  (92) 
-5.397

>  <name>  (92) 
91

>  <ligand_id>  (92) 
91

>  <original_smiles>  (92) 
[H]c1c([H])c([H])c2c(c1[H])C([H])([H])C([H])([H])C([H])([H])C2([H])N([H])C(=O)C1([H])N(C(=O)C([H])(N([H])C(=O)C([H])(N([H])C([H])([H])[H])C([H])([H])[H])C(C([H])([H])[H])(C([H])([H])[H])C([H])([H])[H])C([H])([H])c2c([H])c(OC([H])([H])C([H])(C([H])([H])C([H])([H])c3c([H])c(C(=O)N4C([H])([H])C([H])([H])C([H])([H])C([H])(n5nc(-c6c([H])c([H])c(Oc7c([H])c([H])c(F)c([H])c7F)c([H])c6[H])c(C(=O)N([H])[H])c5N([H])[H])C4([H])[H])c([H])c(C([H])([H])C([H])([H])[H])c3C([H])([H])[H])[N+]([H])([H])[H])c([H])c([H])c2C1([H])[H]

>  <smiles>  (92) 
[H]c1c([H])c([H])c2c(c1[H])C([H])([H])C([H])([H])C([H])([H])C2([H])N([H])C(=O)C1([H])N(C(=O)C([H])(N([H])C(=O)C([H])(N([H])C([H])([H])[H])C([H])([H])[H])C(C([H])([H])[H])(C([H])([H])[H])C([H])([H])[H])C([H])([H])c2c([H])c(OC([H])([H])C([H])(C([H])([H])C([H])([H])c3c([H])c(C(=O)N4C([H])([H])C([H])([H])C([H])([H])C([H])(n5nc(-c6c([H])c([H])c(Oc7c([H])c([H])c(F)c([H])c7F)c([H])c6[H])c(C(=O)N([H])[H])c5N([H])[H])C4([H])[H])c([H])c(C([H])([H])C([H])([H])[H])c3C([H])([H])[H])[N+]([H])([H])[H])c([H])c([H])c2C1([H])[H]

$$$$
