0:0:0
     RDKit          3D

 96104  0  0  1  0  0  0  0  0999 V2000
  -29.2120  -19.6940   20.9210 C   0  0  0  0  0  2  0  0  0  0  0  0
  -30.1300  -18.0250   17.6130 C   0  0  0  0  0  3  0  0  0  0  0  0
  -31.0830  -16.5790   19.3480 C   0  0  0  0  0  0  0  0  0  0  0  0
  -31.0350  -17.0240   17.9910 C   0  0  0  0  0  0  0  0  0  0  0  0
  -29.4280  -18.7690   18.5680 C   0  0  0  0  0  0  0  0  0  0  0  0
  -30.5400  -17.4730   20.3420 C   0  0  0  0  0  0  0  0  0  0  0  0
  -29.7350  -18.6050   19.9440 C   0  0  0  0  0  0  0  0  0  0  0  0
  -28.4290  -19.7930   18.0410 C   0  0  0  0  0  1  0  0  0  0  0  0
  -31.8630  -15.2950   19.6610 C   0  0  0  0  0  0  0  0  0  0  0  0
  -31.5270  -13.0210   18.7660 C   0  0  0  0  0  2  0  0  0  0  0  0
  -30.4850  -13.0010   17.6230 C   0  0  0  0  0  2  0  0  0  0  0  0
  -29.0500  -12.9260   18.1650 C   0  0  0  0  0  2  0  0  0  0  0  0
  -28.7720  -13.9060   19.3330 C   0  0  0  0  0  3  0  0  0  0  0  0
  -29.9070  -13.8650   20.3740 C   0  0  0  0  0  2  0  0  0  0  0  0
  -31.1850  -14.1110   19.6930 N   0  0  0  0  0  0  0  0  0  0  0  0
  -33.0700  -15.3450   19.4260 O   0  0  0  0  0  0  0  0  0  0  0  0
  -26.4830  -14.5410   20.3220 C   0  0  0  0  0  0  0  0  0  0  0  0
  -25.4230  -13.7790   20.7420 C   0  0  0  0  0  0  0  0  0  0  0  0
  -25.8320  -12.4200   20.5960 C   0  0  0  0  0  0  0  0  0  0  0  0
  -27.4690  -13.6430   19.9440 N   0  0  0  0  0  0  0  0  0  0  0  0
  -27.0910  -12.3600   20.1800 N   0  0  0  0  0  0  0  0  0  0  0  0
  -25.0820  -11.1680   20.7750 C   0  0  0  0  0  0  0  0  0  0  0  0
  -25.4180  -10.2410   21.7860 C   0  0  0  0  0  3  0  0  0  0  0  0
  -24.6680   -9.0550   21.9490 C   0  0  0  0  0  3  0  0  0  0  0  0
  -23.5690   -8.7880   21.0990 C   0  0  0  0  0  0  0  0  0  0  0  0
  -23.2560   -9.7000   20.0780 C   0  0  0  0  0  3  0  0  0  0  0  0
  -24.0050  -10.8780   19.9140 C   0  0  0  0  0  3  0  0  0  0  0  0
  -22.8010   -7.6500   21.1670 O   0  0  0  0  0  0  0  0  0  0  0  0
  -22.3890   -7.1300   22.3680 C   0  0  0  0  0  0  0  0  0  0  0  0
  -21.5970   -7.8750   23.2680 C   0  0  0  0  0  3  0  0  0  0  0  0
  -21.1390   -7.2800   24.4610 C   0  0  0  0  0  3  0  0  0  0  0  0
  -21.4630   -5.9410   24.7500 C   0  0  0  0  0  0  0  0  0  0  0  0
  -22.2450   -5.1950   23.8500 C   0  0  0  0  0  3  0  0  0  0  0  0
  -22.7050   -5.7890   22.6610 C   0  0  0  0  0  0  0  0  0  0  0  0
  -23.4420   -5.0610   21.7880 F   0  0  0  0  0  0  0  0  0  0  0  0
  -21.0160   -5.3640   25.8910 F   0  0  0  0  0  0  0  0  0  0  0  0
  -24.0700  -14.2800   21.1560 C   0  0  0  0  0  0  0  0  0  0  0  0
  -23.4020  -13.5630   22.0550 N   0  0  0  0  0  0  0  0  0  0  0  0
  -23.6140  -15.3340   20.7160 O   0  0  0  0  0  0  0  0  0  0  0  0
  -23.7860  -12.7100   22.4300 H   0  0  0  0  0  0  0  0  0  0  0  0
  -22.4920  -13.8710   22.3720 H   0  0  0  0  0  0  0  0  0  0  0  0
  -26.6890  -15.9120   20.2070 N   0  0  0  0  0  0  0  0  0  0  0  0
  -25.9770  -16.5990   20.4220 H   0  0  0  0  0  0  0  0  0  0  0  0
  -27.5540  -16.3240   19.8760 H   0  0  0  0  0  0  0  0  0  0  0  0
  -29.8270  -16.6600   22.6870 C   0  0  0  0  0  1  0  0  0  0  0  0
  -30.9190  -17.3000   21.8170 C   0  0  0  0  0  2  0  0  0  0  0  0
  -33.0530  -17.6370   16.5620 C   0  0  0  0  0  1  0  0  0  0  0  0
  -32.0060  -16.5640   16.8970 C   0  0  0  0  0  2  0  0  0  0  0  0
  -29.8560  -21.1060   20.6960 C   0  0  0  0  0  2  0  0  0  0  0  0
  -29.0000  -22.3360   21.0830 C   0  0  0  0  0  0  0  0  0  0  0  0
  -29.1940  -23.4720   20.3820 N   0  0  0  0  0  0  0  0  0  0  0  0
  -28.1950  -22.2740   22.0120 O   0  0  0  0  0  0  0  0  0  0  0  0
  -29.8780  -23.4330   19.6370 H   0  0  0  0  0  0  0  0  0  0  0  0
  -28.5770  -24.7880   20.6360 C   0  0  0  0  0  2  0  0  0  0  0  0
  -29.0360  -25.8550   19.6020 C   0  0  0  0  0  2  0  0  0  0  0  0
  -28.8500  -27.2180   20.0330 O   0  0  0  0  0  0  0  0  0  0  0  0
  -24.5530  -31.8950   23.2500 C   0  0  0  0  0  0  0  0  0  0  0  0
  -27.6040  -27.8190   20.0200 C   0  0  0  0  0  0  0  0  0  0  0  0
  -23.5000  -30.4980   21.5020 C   0  0  0  0  0  3  0  0  0  0  0  0
  -25.1000  -29.1520   20.0440 C   0  0  0  0  0  0  0  0  0  0  0  0
  -25.9960  -31.0530   21.3960 C   0  0  0  0  0  2  0  0  0  0  0  0
  -26.2010  -29.7270   20.6870 C   0  0  0  0  0  0  0  0  0  0  0  0
  -27.4530  -29.0680   20.6690 C   0  0  0  0  0  3  0  0  0  0  0  0
  -26.4780  -27.2520   19.3810 C   0  0  0  0  0  3  0  0  0  0  0  0
  -25.2340  -27.9150   19.3880 C   0  0  0  0  0  3  0  0  0  0  0  0
  -23.7980  -29.9170   20.0950 C   0  0  0  0  0  2  0  0  0  0  0  0
  -24.6980  -31.1630   22.1100 N   0  0  0  0  0  0  0  0  0  0  0  0
  -23.4400  -32.0550   23.7710 O   0  0  0  0  0  0  0  0  0  0  0  0
  -22.9070  -29.3760   22.3880 C   0  0  0  0  0  0  0  0  0  0  0  0
  -21.6040  -29.1020   22.2180 N   0  0  0  0  0  0  0  0  0  0  0  0
  -23.6180  -28.7590   23.1850 O   0  0  0  0  0  0  0  0  0  0  0  0
  -21.0830  -29.6610   21.5570 H   0  0  0  0  0  0  0  0  0  0  0  0
  -18.3140  -27.6530   22.5860 C   0  0  0  0  0  0  0  0  0  0  0  0
  -20.8460  -28.0630   22.9150 C   0  0  0  0  0  3  0  0  0  0  0  0
  -21.0520  -26.6810   22.2510 C   0  0  0  0  0  2  0  0  0  0  0  0
  -19.9870  -26.3520   21.2000 C   0  0  0  0  0  2  0  0  0  0  0  0
  -18.5900  -26.3640   21.8310 C   0  0  0  0  0  2  0  0  0  0  0  0
  -19.3730  -28.4580   23.0830 C   0  0  0  0  0  0  0  0  0  0  0  0
  -19.0630  -29.6640   23.7460 C   0  0  0  0  0  3  0  0  0  0  0  0
  -17.7260  -30.0660   23.9210 C   0  0  0  0  0  3  0  0  0  0  0  0
  -16.6800  -29.2570   23.4440 C   0  0  0  0  0  3  0  0  0  0  0  0
  -16.9760  -28.0530   22.7800 C   0  0  0  0  0  3  0  0  0  0  0  0
  -25.7670  -32.5900   23.9400 C   0  0  0  0  0  3  0  0  0  0  0  0
  -25.3830  -33.9800   24.2200 N   0  0  0  0  0  0  0  0  0  0  0  0
  -25.7170  -35.0310   23.4590 C   0  0  0  0  0  0  0  0  0  0  0  0
  -26.4510  -34.9360   22.4700 O   0  0  0  0  0  0  0  0  0  0  0  0
  -24.7380  -34.1280   24.9820 H   0  0  0  0  0  0  0  0  0  0  0  0
  -23.9320  -36.7370   22.9720 C   0  0  0  0  0  1  0  0  0  0  0  0
  -25.1450  -36.4050   23.8560 C   0  0  0  0  0  3  0  0  0  0  0  0
  -27.1850  -37.4100   24.7830 C   0  0  0  0  0  1  0  0  0  0  0  0
  -26.1340  -37.5000   23.7720 N   0  0  0  0  0  0  0  0  0  0  0  0
  -25.6800  -38.4040   23.8680 H   0  0  0  0  0  0  0  0  0  0  0  0
  -26.2350  -31.8630   25.2620 C   0  0  1  0  0  0  0  0  0  0  0  0
  -25.0840  -31.5760   26.2540 C   0  0  0  0  0  1  0  0  0  0  0  0
  -26.9170  -30.5160   24.9290 C   0  0  0  0  0  1  0  0  0  0  0  0
  -27.2900  -32.7270   25.9930 C   0  0  0  0  0  1  0  0  0  0  0  0
  2  4  2  0
  2  5  1  0
  3  9  1  0
  3  6  2  0
  4  3  1  0
  5  7  2  0
  6 46  1  0
  7  6  1  0
  7  1  1  0
  8  5  1  0
  9 15  1  0
 10 15  1  0
 11 12  1  0
 11 10  1  0
 13 12  1  0
 13 20  1  0
 13 14  1  0
 15 14  1  0
 16  9  2  0
 17 18  2  0
 18 37  1  0
 19 18  1  0
 19 22  1  0
 20 21  1  0
 20 17  1  0
 21 19  2  0
 22 23  1  0
 23 24  2  0
 25 28  1  0
 25 24  1  0
 26 25  2  0
 27 26  1  0
 27 22  2  0
 28 29  1  0
 29 34  2  0
 29 30  1  0
 30 31  2  0
 31 32  1  0
 32 36  1  0
 33 32  2  0
 34 33  1  0
 35 34  1  0
 37 38  1  0
 38 41  1  0
 38 40  1  0
 39 37  2  0
 42 17  1  0
 42 43  1  0
 44 42  1  0
 46 45  1  0
 47 48  1  0
 48  4  1  0
 49  1  1  0
 49 50  1  0
 50 52  2  0
 51 54  1  0
 51 50  1  0
 53 51  1  0
 55 56  1  0
 55 54  1  0
 57 68  2  0
 58 56  1  0
 58 63  1  0
 59 67  1  0
 59 69  1  0
 60 66  1  0
 60 62  1  0
 61 67  1  0
 62 61  1  0
 63 62  2  0
 64 65  1  0
 64 58  2  0
 65 60  2  0
 66 59  1  0
 67 57  1  0
 69 71  2  0
 70 69  1  0
 72 70  1  0
 73 82  2  0
 73 78  1  0
 74 70  1  0
 74 78  1  0
 75 74  1  0
 76 77  1  0
 76 75  1  0
 77 73  1  0
 78 79  2  0
 79 80  1  0
 81 80  2  0
 82 81  1  0
 83 57  1  0
 83 84  1  0
 83 93  1  0
 84 87  1  0
 85 89  1  0
 85 84  1  0
 86 85  2  0
 89 88  1  0
 91 89  1  0
 91 92  1  0
 91 90  1  0
 93 96  1  1
 93 94  1  0
 95 93  1  0
M  ISO  4   3 100   9 100  55 101  56 101
M  END
>  <TORSDO>  (1) 
F 23

>  <SCORE>  (1) 
-9.559

>  <name>  (1) 
0

>  <ligand_id>  (1) 
0

>  <original_smiles>  (1) 
[H]c1c([H])c([H])c2c(c1[H])C([H])([H])C([H])([H])C([H])([H])C2([H])N([H])C(=O)C1([H])N(C(=O)C([H])(N([H])C(=O)C([H])(N([H])C([H])([H])[H])C([H])([H])[H])C(C([H])([H])[H])(C([H])([H])[H])C([H])([H])[H])C([H])([H])c2c([H])c(OC([H])([H])C([H])([H])N([H])C(=O)C([H])([H])C([H])([H])c3c(C([H])([H])[H])c([H])c(C([H])([H])C([H])([H])[H])c(C(=O)N4C([H])([H])C([H])([H])C([H])([H])C([H])(n5nc(-c6c([H])c([H])c(Oc7c([H])c([H])c(F)c([H])c7F)c([H])c6[H])c(C(=O)N([H])[H])c5N([H])[H])C4([H])[H])c3C([H])([H])C([H])([H])[H])c([H])c([H])c2C1([H])[H]

>  <smiles>  (1) 
[H]c1c([H])c([H])c2c(c1[H])C([H])([H])C([H])([H])C([H])([H])C2([H])N([H])C(=O)C1([H])N(C(=O)C([H])(N([H])C(=O)C([H])(N([H])C([H])([H])[H])C([H])([H])[H])C(C([H])([H])[H])(C([H])([H])[H])C([H])([H])[H])C([H])([H])c2c([H])c(OC([H])([H])C([H])([H])N([H])C(=O)C([H])([H])C([H])([H])c3c(C([H])([H])[H])c([H])c(C([H])([H])C([H])([H])[H])c(C(=O)N4C([H])([H])C([H])([H])C([H])([H])C([H])(n5nc(-c6c([H])c([H])c(Oc7c([H])c([H])c(F)c([H])c7F)c([H])c6[H])c(C(=O)N([H])[H])c5N([H])[H])C4([H])[H])c3C([H])([H])C([H])([H])[H])c([H])c([H])c2C1([H])[H]

$$$$
1:0:0
     RDKit          3D

 92100  0  0  1  0  0  0  0  0999 V2000
  -30.0130  -19.2890   21.8570 C   0  0  0  0  0  3  0  0  0  0  0  0
  -29.9970  -20.5410   22.5200 C   0  0  0  0  0  3  0  0  0  0  0  0
  -29.6630  -19.1620   20.5010 C   0  0  0  0  0  0  0  0  0  0  0  0
  -29.1620  -21.7900   20.5510 C   0  0  0  0  0  0  0  0  0  0  0  0
  -29.6210  -21.7690   21.8920 C   0  0  0  0  0  0  0  0  0  0  0  0
  -29.2240  -20.4540   19.8810 C   0  0  0  0  0  0  0  0  0  0  0  0
  -28.8850  -20.4170   18.5700 F   0  0  0  0  0  0  0  0  0  0  0  0
  -30.9390  -17.8220   18.6600 C   0  0  0  0  0  1  0  0  0  0  0  0
  -29.8640  -17.6860   19.7540 C   0  0  0  0  0  0  0  0  0  0  0  0
  -30.6520  -15.0120   20.1460 C   0  0  0  0  0  0  0  0  0  0  0  0
  -30.4760  -12.6600   19.2100 C   0  0  0  0  0  2  0  0  0  0  0  0
  -29.5250  -12.6700   17.9900 C   0  0  0  0  0  2  0  0  0  0  0  0
  -28.0680  -12.4640   18.4430 C   0  0  0  0  0  2  0  0  0  0  0  0
  -27.7000  -13.3600   19.6530 C   0  0  0  0  0  3  0  0  0  0  0  0
  -28.7800  -13.3470   20.7560 C   0  0  0  0  0  2  0  0  0  0  0  0
  -30.0470  -13.7520   20.1330 N   0  0  0  0  0  0  0  0  0  0  0  0
  -31.8260  -15.0580   19.7680 O   0  0  0  0  0  0  0  0  0  0  0  0
  -29.8970  -16.2080   20.3730 N   0  0  0  0  0  4  0  0  0  0  0  0
  -29.0120  -15.9780   20.7990 H   0  0  0  0  0  0  0  0  0  0  0  0
  -25.3430  -13.9390   20.4580 C   0  0  0  0  0  0  0  0  0  0  0  0
  -24.2840  -13.1680   20.8530 C   0  0  0  0  0  0  0  0  0  0  0  0
  -24.7380  -11.8160   20.7920 C   0  0  0  0  0  0  0  0  0  0  0  0
  -26.3720  -13.0590   20.1790 N   0  0  0  0  0  0  0  0  0  0  0  0
  -26.0200  -11.7740   20.4440 N   0  0  0  0  0  0  0  0  0  0  0  0
  -24.0080  -10.5560   20.9890 C   0  0  0  0  0  0  0  0  0  0  0  0
  -24.4430   -9.5860   21.9180 C   0  0  0  0  0  3  0  0  0  0  0  0
  -23.7100   -8.3940   22.1050 C   0  0  0  0  0  3  0  0  0  0  0  0
  -22.5270   -8.1640   21.3610 C   0  0  0  0  0  0  0  0  0  0  0  0
  -22.1100   -9.1230   20.4200 C   0  0  0  0  0  3  0  0  0  0  0  0
  -22.8440  -10.3070   20.2330 C   0  0  0  0  0  3  0  0  0  0  0  0
  -21.7650   -7.0240   21.4560 O   0  0  0  0  0  0  0  0  0  0  0  0
  -21.7030   -6.2940   22.6150 C   0  0  0  0  0  0  0  0  0  0  0  0
  -21.2430   -6.8550   23.8260 C   0  0  0  0  0  3  0  0  0  0  0  0
  -21.1320   -6.0490   24.9770 C   0  0  0  0  0  3  0  0  0  0  0  0
  -21.4690   -4.6840   24.9160 C   0  0  0  0  0  0  0  0  0  0  0  0
  -21.9210   -4.1230   23.7090 C   0  0  0  0  0  3  0  0  0  0  0  0
  -22.0370   -4.9260   22.5610 C   0  0  0  0  0  0  0  0  0  0  0  0
  -22.4520   -4.3740   21.3940 F   0  0  0  0  0  0  0  0  0  0  0  0
  -21.3560   -3.9080   26.0190 F   0  0  0  0  0  0  0  0  0  0  0  0
  -22.8990  -13.6550   21.1690 C   0  0  0  0  0  0  0  0  0  0  0  0
  -22.1880  -12.9560   22.0470 N   0  0  0  0  0  0  0  0  0  0  0  0
  -22.4590  -14.6900   20.6740 O   0  0  0  0  0  0  0  0  0  0  0  0
  -22.5580  -12.1160   22.4650 H   0  0  0  0  0  0  0  0  0  0  0  0
  -21.2590  -13.2640   22.2970 H   0  0  0  0  0  0  0  0  0  0  0  0
  -25.5070  -15.3110   20.2900 N   0  0  0  0  0  0  0  0  0  0  0  0
  -24.7450  -15.9650   20.4290 H   0  0  0  0  0  0  0  0  0  0  0  0
  -26.3520  -15.7580   19.9620 H   0  0  0  0  0  0  0  0  0  0  0  0
  -30.5020  -23.0590   23.7230 C   0  0  0  0  0  1  0  0  0  0  0  0
  -29.7270  -22.9870   22.5300 O   0  0  0  0  0  0  0  0  0  0  0  0
  -28.8510  -23.2810   19.8660 C   0  0  0  0  0  2  0  0  0  0  0  0
  -28.0430  -24.6360   20.5140 C   0  0  0  0  0  2  0  0  0  0  0  0
  -28.2330  -26.1570   20.1740 O   0  0  0  0  0  0  0  0  0  0  0  0
  -24.6210  -31.8750   23.2000 C   0  0  0  0  0  0  0  0  0  0  0  0
  -27.1610  -27.1270   20.1760 C   0  0  0  0  0  0  0  0  0  0  0  0
  -23.4030  -30.4690   21.5830 C   0  0  0  0  0  3  0  0  0  0  0  0
  -24.8310  -28.8780   20.1540 C   0  0  0  0  0  0  0  0  0  0  0  0
  -25.9530  -30.7300   21.3830 C   0  0  0  0  0  2  0  0  0  0  0  0
  -26.0180  -29.3270   20.7470 C   0  0  0  0  0  0  0  0  0  0  0  0
  -27.1840  -28.4690   20.7350 C   0  0  0  0  0  3  0  0  0  0  0  0
  -25.9470  -26.7780   19.5470 C   0  0  0  0  0  3  0  0  0  0  0  0
  -24.8070  -27.6160   19.5380 C   0  0  0  0  0  3  0  0  0  0  0  0
  -23.6070  -29.7820   20.2070 C   0  0  0  0  0  2  0  0  0  0  0  0
  -24.6810  -31.0480   22.1110 N   0  0  0  0  0  0  0  0  0  0  0  0
  -23.5400  -32.1620   23.7380 O   0  0  0  0  0  0  0  0  0  0  0  0
  -22.7350  -29.4690   22.5590 C   0  0  0  0  0  0  0  0  0  0  0  0
  -21.4090  -29.2850   22.4360 N   0  0  0  0  0  0  0  0  0  0  0  0
  -23.4120  -28.8600   23.3900 O   0  0  0  0  0  0  0  0  0  0  0  0
  -20.9180  -29.8250   21.7370 H   0  0  0  0  0  0  0  0  0  0  0  0
  -18.0420  -28.0540   22.9570 C   0  0  0  0  0  0  0  0  0  0  0  0
  -20.5980  -28.3510   23.2220 C   0  0  0  0  0  3  0  0  0  0  0  0
  -20.7180  -26.9120   22.6690 C   0  0  0  0  0  2  0  0  0  0  0  0
  -19.6210  -26.5590   21.6600 C   0  0  0  0  0  2  0  0  0  0  0  0
  -18.2370  -26.6970   22.2990 C   0  0  0  0  0  2  0  0  0  0  0  0
  -19.1520  -28.8350   23.3760 C   0  0  0  0  0  0  0  0  0  0  0  0
  -18.9160  -30.1000   23.9530 C   0  0  0  0  0  3  0  0  0  0  0  0
  -17.6050  -30.5870   24.1170 C   0  0  0  0  0  3  0  0  0  0  0  0
  -16.5110  -29.8030   23.7110 C   0  0  0  0  0  3  0  0  0  0  0  0
  -16.7290  -28.5390   23.1350 C   0  0  0  0  0  3  0  0  0  0  0  0
  -25.9050  -32.5140   23.8090 C   0  0  0  0  0  3  0  0  0  0  0  0
  -26.4390  -31.7410   25.0790 C   0  0  1  0  0  0  0  0  0  0  0  0
  -25.3600  -31.4940   26.1590 C   0  0  0  0  0  1  0  0  0  0  0  0
  -27.0290  -30.3690   24.6800 C   0  0  0  0  0  1  0  0  0  0  0  0
  -27.5900  -32.5420   25.7340 C   0  0  0  0  0  1  0  0  0  0  0  0
  -25.5890  -33.9100   24.1570 N   0  0  0  0  0  0  0  0  0  0  0  0
  -25.9040  -34.9740   23.4080 C   0  0  0  0  0  0  0  0  0  0  0  0
  -26.5600  -34.8860   22.3670 O   0  0  0  0  0  0  0  0  0  0  0  0
  -25.0000  -34.0500   24.9660 H   0  0  0  0  0  0  0  0  0  0  0  0
  -24.1710  -36.7760   23.0940 C   0  0  0  0  0  1  0  0  0  0  0  0
  -25.4160  -36.3560   23.8900 C   0  0  0  0  0  3  0  0  0  0  0  0
  -27.5520  -37.2380   24.7230 C   0  0  0  0  0  1  0  0  0  0  0  0
  -26.4460  -37.4140   23.7860 N   0  0  0  0  0  0  0  0  0  0  0  0
  -26.0380  -38.3290   23.9440 H   0  0  0  0  0  0  0  0  0  0  0  0
  1  2  1  0
  3  1  2  0
  4  5  1  0
  5  2  2  0
  5 49  1  0
  6  3  1  0
  6  4  2  0
  7  6  1  0
  8  9  1  0
  9 18  2  0
  9  3  1  0
 10 18  1  0
 11 16  1  0
 12 13  1  0
 12 11  1  0
 14 13  1  0
 14 23  1  0
 14 15  1  0
 16 10  1  0
 16 15  1  0
 17 10  2  0
 18 19  1  0
 20 21  2  0
 21 40  1  0
 22 21  1  0
 22 25  1  0
 23 24  1  0
 23 20  1  0
 24 22  2  0
 25 26  1  0
 26 27  2  0
 28 31  1  0
 28 27  1  0
 29 28  2  0
 30 29  1  0
 30 25  2  0
 31 32  1  0
 32 33  1  0
 33 34  2  0
 35 34  1  0
 35 39  1  0
 36 35  2  0
 37 32  2  0
 37 36  1  0
 38 37  1  0
 40 41  1  0
 41 44  1  0
 41 43  1  0
 42 40  2  0
 45 46  1  0
 45 20  1  0
 47 45  1  0
 49 48  1  0
 50 51  1  0
 50  4  1  0
 52 54  1  0
 52 51  1  0
 53 64  2  0
 54 59  1  0
 55 63  1  0
 55 65  1  0
 56 62  1  0
 56 58  1  0
 57 63  1  0
 58 57  1  0
 59 58  2  0
 60 54  2  0
 61 60  1  0
 61 56  2  0
 62 55  1  0
 63 53  1  0
 65 67  2  0
 66 65  1  0
 68 66  1  0
 69 78  2  0
 69 74  1  0
 70 66  1  0
 70 74  1  0
 71 70  1  0
 72 73  1  0
 72 71  1  0
 73 69  1  0
 74 75  2  0
 75 76  1  0
 77 76  2  0
 78 77  1  0
 79 53  1  0
 79 84  1  0
 79 80  1  0
 80 83  1  1
 80 81  1  0
 82 80  1  0
 84 87  1  0
 85 89  1  0
 85 84  1  0
 86 85  2  0
 89 88  1  0
 91 89  1  0
 91 92  1  0
 91 90  1  0
M  ISO  4  10 100  18 100  51 101  52 101
M  END
>  <TORSDO>  (2) 
F 20

>  <SCORE>  (2) 
-13.829

>  <name>  (2) 
1

>  <ligand_id>  (2) 
1

>  <original_smiles>  (2) 
[H]c1c([H])c([H])c2c(c1[H])C([H])([H])C([H])([H])C([H])([H])C2([H])N([H])C(=O)C1([H])N(C(=O)C([H])(N([H])C(=O)C([H])(N([H])C([H])([H])[H])C([H])([H])[H])C(C([H])([H])[H])(C([H])([H])[H])C([H])([H])[H])C([H])([H])c2c([H])c(OC([H])([H])C([H])([H])c3c(F)c(C([H])(N([H])C(=O)N4C([H])([H])C([H])([H])C([H])([H])C([H])(n5nc(-c6c([H])c([H])c(Oc7c([H])c([H])c(F)c([H])c7F)c([H])c6[H])c(C(=O)N([H])[H])c5N([H])[H])C4([H])[H])C([H])([H])[H])c([H])c([H])c3OC([H])([H])[H])c([H])c([H])c2C1([H])[H]

>  <smiles>  (2) 
[H]c1c([H])c([H])c2c(c1[H])C([H])([H])C([H])([H])C([H])([H])C2([H])N([H])C(=O)C1([H])N(C(=O)C([H])(N([H])C(=O)C([H])(N([H])C([H])([H])[H])C([H])([H])[H])C(C([H])([H])[H])(C([H])([H])[H])C([H])([H])[H])C([H])([H])c2c([H])c(OC([H])([H])C([H])([H])c3c(F)c(C([H])(N([H])C(=O)N4C([H])([H])C([H])([H])C([H])([H])C([H])(n5nc(-c6c([H])c([H])c(Oc7c([H])c([H])c(F)c([H])c7F)c([H])c6[H])c(C(=O)N([H])[H])c5N([H])[H])C4([H])[H])C([H])([H])[H])c([H])c([H])c3OC([H])([H])[H])c([H])c([H])c2C1([H])[H]

$$$$
2:0:0
     RDKit          3D

 91 99  0  0  1  0  0  0  0  0999 V2000
  -28.4510  -21.2520   20.8890 C   0  0  0  0  0  3  0  0  0  0  0  0
  -28.7510  -19.8260   20.9460 C   0  0  0  0  0  3  0  0  0  0  0  0
  -30.4500  -21.5990   19.6850 C   0  0  0  0  0  3  0  0  0  0  0  0
  -29.3110  -22.2250   20.2740 C   0  0  0  0  0  0  0  0  0  0  0  0
  -29.9280  -19.2190   20.3810 C   0  0  0  0  0  0  0  0  0  0  0  0
  -30.7450  -20.1860   19.7010 C   0  0  0  0  0  0  0  0  0  0  0  0
  -29.2740  -23.8260   20.3270 C   0  0  0  0  0  0  0  0  0  0  0  0
  -30.3630  -24.4040   20.4160 O   0  0  0  0  0  0  0  0  0  0  0  0
  -28.0090  -24.8280   20.2170 C   0  0  0  0  0  2  0  0  0  0  0  0
  -28.2750  -26.3410   20.2630 O   0  0  0  0  0  0  0  0  0  0  0  0
  -24.6230  -31.9280   23.2460 C   0  0  0  0  0  0  0  0  0  0  0  0
  -27.1960  -27.2710   20.2040 C   0  0  0  0  0  0  0  0  0  0  0  0
  -23.4170  -30.5410   21.6010 C   0  0  0  0  0  3  0  0  0  0  0  0
  -24.8610  -28.9740   20.1720 C   0  0  0  0  0  0  0  0  0  0  0  0
  -25.9660  -30.8160   21.4310 C   0  0  0  0  0  2  0  0  0  0  0  0
  -26.0380  -29.4320   20.7780 C   0  0  0  0  0  0  0  0  0  0  0  0
  -27.2070  -28.5960   20.7770 C   0  0  0  0  0  3  0  0  0  0  0  0
  -25.9930  -26.8940   19.5670 C   0  0  0  0  0  3  0  0  0  0  0  0
  -24.8470  -27.7150   19.5530 C   0  0  0  0  0  3  0  0  0  0  0  0
  -23.6330  -29.8670   20.2200 C   0  0  0  0  0  2  0  0  0  0  0  0
  -24.6890  -31.1150   22.1490 N   0  0  0  0  0  0  0  0  0  0  0  0
  -23.5390  -32.2120   23.7750 O   0  0  0  0  0  0  0  0  0  0  0  0
  -22.7380  -29.5310   22.5580 C   0  0  0  0  0  0  0  0  0  0  0  0
  -21.4090  -29.3650   22.4290 N   0  0  0  0  0  0  0  0  0  0  0  0
  -23.4060  -28.8990   23.3790 O   0  0  0  0  0  0  0  0  0  0  0  0
  -20.9260  -29.9270   21.7420 H   0  0  0  0  0  0  0  0  0  0  0  0
  -18.0200  -28.1940   22.9350 C   0  0  0  0  0  0  0  0  0  0  0  0
  -20.5830  -28.4300   23.1960 C   0  0  0  0  0  3  0  0  0  0  0  0
  -20.6680  -27.0000   22.6120 C   0  0  0  0  0  2  0  0  0  0  0  0
  -19.5600  -26.6940   21.5980 C   0  0  0  0  0  2  0  0  0  0  0  0
  -18.1810  -26.8480   22.2480 C   0  0  0  0  0  2  0  0  0  0  0  0
  -19.1470  -28.9430   23.3660 C   0  0  0  0  0  0  0  0  0  0  0  0
  -18.9430  -30.2030   23.9710 C   0  0  0  0  0  3  0  0  0  0  0  0
  -17.6430  -30.7160   24.1450 C   0  0  0  0  0  3  0  0  0  0  0  0
  -16.5300  -29.9640   23.7310 C   0  0  0  0  0  3  0  0  0  0  0  0
  -16.7190  -28.7050   23.1330 C   0  0  0  0  0  3  0  0  0  0  0  0
  -25.9050  -32.5530   23.8760 C   0  0  0  0  0  3  0  0  0  0  0  0
  -25.6010  -33.9510   24.2130 N   0  0  0  0  0  0  0  0  0  0  0  0
  -25.9200  -35.0070   23.4510 C   0  0  0  0  0  0  0  0  0  0  0  0
  -26.5700  -34.9060   22.4070 O   0  0  0  0  0  0  0  0  0  0  0  0
  -25.0260  -34.1060   25.0280 H   0  0  0  0  0  0  0  0  0  0  0  0
  -24.1780  -36.7970   23.1480 C   0  0  0  0  0  1  0  0  0  0  0  0
  -25.4430  -36.3960   23.9210 C   0  0  0  0  0  3  0  0  0  0  0  0
  -27.5980  -37.2860   24.6900 C   0  0  0  0  0  1  0  0  0  0  0  0
  -26.4690  -37.4520   23.7790 N   0  0  0  0  0  0  0  0  0  0  0  0
  -26.0650  -38.3710   23.9400 H   0  0  0  0  0  0  0  0  0  0  0  0
  -26.4120  -31.7780   25.1540 C   0  0  1  0  0  0  0  0  0  0  0  0
  -25.3140  -31.5440   26.2190 C   0  0  0  0  0  1  0  0  0  0  0  0
  -26.9890  -30.3970   24.7640 C   0  0  0  0  0  1  0  0  0  0  0  0
  -27.5670  -32.5650   25.8190 C   0  0  0  0  0  1  0  0  0  0  0  0
  -30.4920  -17.7390   20.6530 C   0  0  0  0  0  0  0  0  0  0  0  0
  -31.6690  -17.6710   21.0200 O   0  0  0  0  0  0  0  0  0  0  0  0
  -29.7270  -16.3050   20.5740 C   0  0  0  0  0  2  0  0  0  0  0  0
  -30.5510  -14.9060   20.3230 C   0  0  0  0  0  0  0  0  0  0  0  0
  -30.3860  -12.5850   19.3510 C   0  0  0  0  0  2  0  0  0  0  0  0
  -29.4510  -12.6240   18.1190 C   0  0  0  0  0  2  0  0  0  0  0  0
  -27.9810  -12.4400   18.5460 C   0  0  0  0  0  2  0  0  0  0  0  0
  -27.5960  -13.3390   19.7490 C   0  0  0  0  0  3  0  0  0  0  0  0
  -28.6540  -13.2910   20.8710 C   0  0  0  0  0  2  0  0  0  0  0  0
  -29.9490  -13.6550   20.2870 N   0  0  0  0  0  0  0  0  0  0  0  0
  -31.7370  -14.9570   19.9790 O   0  0  0  0  0  0  0  0  0  0  0  0
  -25.2120  -13.9220   20.4920 C   0  0  0  0  0  0  0  0  0  0  0  0
  -24.1480  -13.1460   20.8620 C   0  0  0  0  0  0  0  0  0  0  0  0
  -24.6110  -11.7950   20.8270 C   0  0  0  0  0  0  0  0  0  0  0  0
  -26.2550  -13.0430   20.2470 N   0  0  0  0  0  0  0  0  0  0  0  0
  -25.9020  -11.7590   20.5130 N   0  0  0  0  0  0  0  0  0  0  0  0
  -23.8840  -10.5320   21.0160 C   0  0  0  0  0  0  0  0  0  0  0  0
  -24.3100   -9.5650   21.9530 C   0  0  0  0  0  3  0  0  0  0  0  0
  -23.5820   -8.3690   22.1300 C   0  0  0  0  0  3  0  0  0  0  0  0
  -22.4130   -8.1320   21.3690 C   0  0  0  0  0  0  0  0  0  0  0  0
  -22.0050   -9.0870   20.4210 C   0  0  0  0  0  3  0  0  0  0  0  0
  -22.7350  -10.2740   20.2430 C   0  0  0  0  0  3  0  0  0  0  0  0
  -21.6560   -6.9880   21.4530 O   0  0  0  0  0  0  0  0  0  0  0  0
  -21.5930   -6.2500   22.6090 C   0  0  0  0  0  0  0  0  0  0  0  0
  -21.1430   -6.8090   23.8260 C   0  0  0  0  0  3  0  0  0  0  0  0
  -21.0260   -5.9990   24.9740 C   0  0  0  0  0  3  0  0  0  0  0  0
  -21.3520   -4.6310   24.9050 C   0  0  0  0  0  0  0  0  0  0  0  0
  -21.7950   -4.0710   23.6930 C   0  0  0  0  0  3  0  0  0  0  0  0
  -21.9120   -4.8790   22.5490 C   0  0  0  0  0  0  0  0  0  0  0  0
  -22.3200   -4.3300   21.3780 F   0  0  0  0  0  0  0  0  0  0  0  0
  -21.2350   -3.8490   26.0050 F   0  0  0  0  0  0  0  0  0  0  0  0
  -22.7510  -13.6230   21.1380 C   0  0  0  0  0  0  0  0  0  0  0  0
  -22.0270  -12.9270   22.0080 N   0  0  0  0  0  0  0  0  0  0  0  0
  -22.3120  -14.6480   20.6190 O   0  0  0  0  0  0  0  0  0  0  0  0
  -22.3970  -12.0970   22.4490 H   0  0  0  0  0  0  0  0  0  0  0  0
  -21.0910  -13.2280   22.2380 H   0  0  0  0  0  0  0  0  0  0  0  0
  -25.3780  -15.2930   20.3210 N   0  0  0  0  0  0  0  0  0  0  0  0
  -24.6120  -15.9480   20.4380 H   0  0  0  0  0  0  0  0  0  0  0  0
  -26.2300  -15.7350   19.9980 H   0  0  0  0  0  0  0  0  0  0  0  0
  -32.0860  -20.1590   17.7390 C   0  0  0  0  0  1  0  0  0  0  0  0
  -31.9000  -19.7490   19.0930 O   0  0  0  0  0  0  0  0  0  0  0  0
  1  2  1  0
  3  6  2  0
  3  4  1  0
  4  7  1  0
  4  1  2  0
  5 51  1  0
  5  2  2  0
  6  5  1  0
  7  8  2  0
  9 10  1  0
  9  7  1  0
 11 22  2  0
 12 10  1  0
 12 17  1  0
 13 21  1  0
 13 23  1  0
 14 20  1  0
 14 16  1  0
 15 21  1  0
 16 15  1  0
 17 16  2  0
 18 12  2  0
 19 18  1  0
 19 14  2  0
 20 13  1  0
 21 11  1  0
 23 25  2  0
 24 23  1  0
 26 24  1  0
 27 36  2  0
 27 32  1  0
 28 24  1  0
 28 32  1  0
 29 28  1  0
 30 31  1  0
 30 29  1  0
 31 27  1  0
 32 33  2  0
 33 34  1  0
 35 34  2  0
 36 35  1  0
 37 11  1  0
 37 38  1  0
 37 47  1  0
 38 41  1  0
 39 43  1  0
 39 38  1  0
 40 39  2  0
 43 42  1  0
 45 43  1  0
 45 46  1  0
 45 44  1  0
 47 50  1  1
 47 48  1  0
 49 47  1  0
 51 52  2  0
 53 51  1  0
 54 53  1  0
 55 60  1  0
 56 57  1  0
 56 55  1  0
 58 57  1  0
 58 65  1  0
 58 59  1  0
 60 54  1  0
 60 59  1  0
 61 54  2  0
 62 63  2  0
 63 82  1  0
 64 63  1  0
 64 67  1  0
 65 62  1  0
 65 66  1  0
 66 64  2  0
 67 68  1  0
 68 69  2  0
 70 73  1  0
 70 69  1  0
 71 70  2  0
 72 71  1  0
 72 67  2  0
 73 74  1  0
 74 75  1  0
 75 76  2  0
 77 76  1  0
 77 81  1  0
 78 77  2  0
 79 74  2  0
 79 78  1  0
 80 79  1  0
 82 83  1  0
 83 86  1  0
 83 85  1  0
 84 82  2  0
 87 88  1  0
 87 62  1  0
 89 87  1  0
 90 91  1  0
 91  6  1  0
M  ISO  4   9 101  10 101  53 100  54 100
M  END
>  <TORSDO>  (3) 
F 21

>  <SCORE>  (3) 
-13.533

>  <name>  (3) 
2

>  <ligand_id>  (3) 
2

>  <original_smiles>  (3) 
[H]c1c([H])c([H])c2c(c1[H])C([H])([H])C([H])([H])C([H])([H])C2([H])N([H])C(=O)C1([H])N(C(=O)C([H])(N([H])C(=O)C([H])(N([H])C([H])([H])[H])C([H])([H])[H])C(C([H])([H])[H])(C([H])([H])[H])C([H])([H])[H])C([H])([H])c2c([H])c(OC([H])([H])C(=O)c3c([H])c([H])c(C(=O)C([H])([H])C(=O)N4C([H])([H])C([H])([H])C([H])([H])C([H])(n5nc(-c6c([H])c([H])c(Oc7c([H])c([H])c(F)c([H])c7F)c([H])c6[H])c(C(=O)N([H])[H])c5N([H])[H])C4([H])[H])c(OC([H])([H])[H])c3[H])c([H])c([H])c2C1([H])[H]

>  <smiles>  (3) 
[H]c1c([H])c([H])c2c(c1[H])C([H])([H])C([H])([H])C([H])([H])C2([H])N([H])C(=O)C1([H])N(C(=O)C([H])(N([H])C(=O)C([H])(N([H])C([H])([H])[H])C([H])([H])[H])C(C([H])([H])[H])(C([H])([H])[H])C([H])([H])[H])C([H])([H])c2c([H])c(OC([H])([H])C(=O)c3c([H])c([H])c(C(=O)C([H])([H])C(=O)N4C([H])([H])C([H])([H])C([H])([H])C([H])(n5nc(-c6c([H])c([H])c(Oc7c([H])c([H])c(F)c([H])c7F)c([H])c6[H])c(C(=O)N([H])[H])c5N([H])[H])C4([H])[H])c(OC([H])([H])[H])c3[H])c([H])c([H])c2C1([H])[H]

$$$$
3:0:0
     RDKit          3D

 90 98  0  0  1  0  0  0  0  0999 V2000
  -30.3240  -20.4540   21.3700 C   0  0  0  0  0  3  0  0  0  0  0  0
  -28.8160  -20.7380   19.5160 C   0  0  0  0  0  3  0  0  0  0  0  0
  -30.5370  -19.0930   21.0130 C   0  0  0  0  0  3  0  0  0  0  0  0
  -29.0010  -19.3610   19.1810 C   0  0  0  0  0  3  0  0  0  0  0  0
  -29.4740  -21.3240   20.6270 C   0  0  0  0  0  0  0  0  0  0  0  0
  -29.8630  -18.5020   19.9230 C   0  0  0  0  0  0  0  0  0  0  0  0
  -29.2690  -22.7680   21.1090 C   0  0  0  0  0  0  0  0  0  0  0  0
  -29.4400  -23.0340   22.3020 O   0  0  0  0  0  0  0  0  0  0  0  0
  -28.9190  -23.9640   20.1470 C   0  0  0  0  0  2  0  0  0  0  0  0
  -28.2870  -25.2480   20.8410 C   0  0  0  0  0  2  0  0  0  0  0  0
  -28.4320  -26.5750   20.2260 O   0  0  0  0  0  0  0  0  0  0  0  0
  -24.6260  -31.9080   23.2360 C   0  0  0  0  0  0  0  0  0  0  0  0
  -27.2980  -27.3880   20.2250 C   0  0  0  0  0  0  0  0  0  0  0  0
  -23.4420  -30.4880   21.5990 C   0  0  0  0  0  3  0  0  0  0  0  0
  -24.9140  -28.9440   20.1910 C   0  0  0  0  0  0  0  0  0  0  0  0
  -25.9750  -30.8410   21.4190 C   0  0  0  0  0  2  0  0  0  0  0  0
  -26.0730  -29.4620   20.7840 C   0  0  0  0  0  0  0  0  0  0  0  0
  -27.2750  -28.6970   20.7860 C   0  0  0  0  0  3  0  0  0  0  0  0
  -26.1200  -26.9060   19.6210 C   0  0  0  0  0  3  0  0  0  0  0  0
  -24.9370  -27.6700   19.6000 C   0  0  0  0  0  3  0  0  0  0  0  0
  -23.6680  -29.8020   20.2250 C   0  0  0  0  0  2  0  0  0  0  0  0
  -24.6990  -31.0940   22.1430 N   0  0  0  0  0  0  0  0  0  0  0  0
  -23.5370  -32.1820   23.7620 O   0  0  0  0  0  0  0  0  0  0  0  0
  -22.7830  -29.4740   22.5620 C   0  0  0  0  0  0  0  0  0  0  0  0
  -21.4600  -29.2790   22.4200 N   0  0  0  0  0  0  0  0  0  0  0  0
  -23.4590  -28.8650   23.3970 O   0  0  0  0  0  0  0  0  0  0  0  0
  -20.9780  -29.8150   21.7140 H   0  0  0  0  0  0  0  0  0  0  0  0
  -18.0920  -28.0500   22.8800 C   0  0  0  0  0  0  0  0  0  0  0  0
  -20.6410  -28.3420   23.1910 C   0  0  0  0  0  3  0  0  0  0  0  0
  -20.7740  -26.9050   22.6370 C   0  0  0  0  0  2  0  0  0  0  0  0
  -19.6930  -26.5550   21.6100 C   0  0  0  0  0  2  0  0  0  0  0  0
  -18.2970  -26.6920   22.2270 C   0  0  0  0  0  2  0  0  0  0  0  0
  -19.1940  -28.8300   23.3180 C   0  0  0  0  0  0  0  0  0  0  0  0
  -18.9490  -30.0980   23.8880 C   0  0  0  0  0  3  0  0  0  0  0  0
  -17.6360  -30.5850   24.0260 C   0  0  0  0  0  3  0  0  0  0  0  0
  -16.5480  -29.8000   23.6070 C   0  0  0  0  0  3  0  0  0  0  0  0
  -16.7760  -28.5360   23.0360 C   0  0  0  0  0  3  0  0  0  0  0  0
  -25.9010  -32.5530   23.8590 C   0  0  0  0  0  3  0  0  0  0  0  0
  -26.4140  -31.7930   25.1450 C   0  0  1  0  0  0  0  0  0  0  0  0
  -25.3100  -31.5520   26.2020 C   0  0  0  0  0  1  0  0  0  0  0  0
  -27.0110  -30.4190   24.7600 C   0  0  0  0  0  1  0  0  0  0  0  0
  -27.5510  -32.6000   25.8130 C   0  0  0  0  0  1  0  0  0  0  0  0
  -25.5800  -33.9510   24.1790 N   0  0  0  0  0  0  0  0  0  0  0  0
  -25.9170  -35.0030   23.4220 C   0  0  0  0  0  0  0  0  0  0  0  0
  -26.6020  -34.8990   22.4010 O   0  0  0  0  0  0  0  0  0  0  0  0
  -24.9790  -34.1070   24.9750 H   0  0  0  0  0  0  0  0  0  0  0  0
  -24.1920  -36.7880   23.0320 C   0  0  0  0  0  1  0  0  0  0  0  0
  -25.4190  -36.3900   23.8690 C   0  0  0  0  0  3  0  0  0  0  0  0
  -27.5320  -37.2850   24.7380 C   0  0  0  0  0  1  0  0  0  0  0  0
  -26.4490  -37.4460   23.7730 N   0  0  0  0  0  0  0  0  0  0  0  0
  -26.0380  -38.3660   23.9090 H   0  0  0  0  0  0  0  0  0  0  0  0
  -30.1700  -17.0350   19.4480 C   0  0  0  0  0  2  0  0  0  0  0  0
  -30.8310  -14.6770   20.0830 C   0  0  0  0  0  0  0  0  0  0  0  0
  -30.5120  -12.4990   18.9380 C   0  0  0  0  0  2  0  0  0  0  0  0
  -29.5290  -12.7150   17.7680 C   0  0  0  0  0  2  0  0  0  0  0  0
  -28.0720  -12.5500   18.2480 C   0  0  0  0  0  2  0  0  0  0  0  0
  -27.7790  -13.3450   19.5490 C   0  0  0  0  0  3  0  0  0  0  0  0
  -28.8790  -13.0910   20.6020 C   0  0  0  0  0  2  0  0  0  0  0  0
  -30.1610  -13.4780   19.9880 N   0  0  0  0  0  0  0  0  0  0  0  0
  -31.9660  -14.7810   19.6020 O   0  0  0  0  0  0  0  0  0  0  0  0
  -29.4360  -16.0150   21.6450 C   0  0  0  0  0  1  0  0  0  0  0  0
  -30.1020  -15.8220   20.3500 N   0  0  0  0  0  0  0  0  0  0  0  0
  -25.4100  -13.9430   20.3440 C   0  0  0  0  0  0  0  0  0  0  0  0
  -24.3550  -13.1710   20.7420 C   0  0  0  0  0  0  0  0  0  0  0  0
  -24.8120  -11.8180   20.6840 C   0  0  0  0  0  0  0  0  0  0  0  0
  -26.4460  -13.0620   20.0700 N   0  0  0  0  0  0  0  0  0  0  0  0
  -26.0920  -11.7770   20.3300 N   0  0  0  0  0  0  0  0  0  0  0  0
  -24.0890  -10.5570   20.8870 C   0  0  0  0  0  0  0  0  0  0  0  0
  -24.5240   -9.6000   21.8290 C   0  0  0  0  0  3  0  0  0  0  0  0
  -23.8010   -8.4030   22.0220 C   0  0  0  0  0  3  0  0  0  0  0  0
  -22.6270   -8.1560   21.2720 C   0  0  0  0  0  0  0  0  0  0  0  0
  -22.2090   -9.1020   20.3190 C   0  0  0  0  0  3  0  0  0  0  0  0
  -22.9340  -10.2900   20.1250 C   0  0  0  0  0  3  0  0  0  0  0  0
  -21.8750   -7.0100   21.3730 O   0  0  0  0  0  0  0  0  0  0  0  0
  -21.7950   -6.3030   22.5450 C   0  0  0  0  0  0  0  0  0  0  0  0
  -21.3270   -6.8930   23.7390 C   0  0  0  0  0  3  0  0  0  0  0  0
  -21.1980   -6.1130   24.9070 C   0  0  0  0  0  3  0  0  0  0  0  0
  -21.5220   -4.7440   24.8790 C   0  0  0  0  0  0  0  0  0  0  0  0
  -21.9790   -4.1530   23.6880 C   0  0  0  0  0  3  0  0  0  0  0  0
  -22.1140   -4.9300   22.5250 C   0  0  0  0  0  0  0  0  0  0  0  0
  -22.5390   -4.3510   21.3750 F   0  0  0  0  0  0  0  0  0  0  0  0
  -21.3880   -3.9920   25.9980 F   0  0  0  0  0  0  0  0  0  0  0  0
  -22.9690  -13.6510   21.0620 C   0  0  0  0  0  0  0  0  0  0  0  0
  -22.2690  -12.9570   21.9510 N   0  0  0  0  0  0  0  0  0  0  0  0
  -22.5160  -14.6770   20.5580 O   0  0  0  0  0  0  0  0  0  0  0  0
  -22.6530  -12.1340   22.3910 H   0  0  0  0  0  0  0  0  0  0  0  0
  -21.3350  -13.2560   22.1960 H   0  0  0  0  0  0  0  0  0  0  0  0
  -25.5660  -15.3170   20.1760 N   0  0  0  0  0  0  0  0  0  0  0  0
  -24.8020  -15.9610   20.3520 H   0  0  0  0  0  0  0  0  0  0  0  0
  -26.3970  -15.7730   19.8210 H   0  0  0  0  0  0  0  0  0  0  0  0
  2  5  1  0
  3  1  1  0
  4  2  2  0
  4  6  1  0
  5  7  1  0
  5  1  2  0
  6  3  2  0
  7  8  2  0
  9 10  1  0
  9  7  1  0
 11 10  1  0
 12 23  2  0
 13 11  1  0
 13 18  1  0
 14 22  1  0
 14 24  1  0
 15 21  1  0
 15 17  1  0
 16 22  1  0
 17 18  2  0
 17 16  1  0
 19 13  2  0
 20 19  1  0
 20 15  2  0
 21 14  1  0
 22 12  1  0
 24 26  2  0
 25 24  1  0
 27 25  1  0
 28 37  2  0
 28 33  1  0
 29 25  1  0
 29 33  1  0
 30 29  1  0
 31 32  1  0
 31 30  1  0
 32 28  1  0
 33 34  2  0
 34 35  1  0
 36 35  2  0
 37 36  1  0
 38 12  1  0
 38 43  1  0
 38 39  1  0
 39 42  1  1
 39 40  1  0
 41 39  1  0
 43 46  1  0
 44 48  1  0
 44 43  1  0
 45 44  2  0
 48 47  1  0
 50 48  1  0
 50 51  1  0
 50 49  1  0
 52  6  1  0
 52 62  1  0
 53 62  1  0
 54 59  1  0
 55 56  1  0
 55 54  1  0
 57 56  1  0
 57 66  1  0
 57 58  1  0
 59 53  1  0
 59 58  1  0
 60 53  2  0
 62 61  1  0
 63 64  2  0
 64 83  1  0
 65 64  1  0
 65 68  1  0
 66 67  1  0
 66 63  1  0
 67 65  2  0
 68 69  1  0
 69 70  2  0
 71 74  1  0
 71 70  1  0
 72 71  2  0
 73 72  1  0
 73 68  2  0
 74 75  1  0
 75 76  1  0
 76 77  2  0
 78 77  1  0
 78 82  1  0
 79 78  2  0
 80 75  2  0
 80 79  1  0
 81 80  1  0
 83 84  1  0
 84 87  1  0
 84 86  1  0
 85 83  2  0
 88 63  1  0
 88 89  1  0
 90 88  1  0
M  ISO  4  10 101  11 101  53 100  62 100
M  END
>  <TORSDO>  (4) 
F 20

>  <SCORE>  (4) 
-13.608

>  <name>  (4) 
3

>  <ligand_id>  (4) 
3

>  <original_smiles>  (4) 
[H]c1c([H])c([H])c2c(c1[H])C([H])([H])C([H])([H])C([H])([H])C2([H])N([H])C(=O)C1([H])N(C(=O)C([H])(N([H])C(=O)C([H])(N([H])C([H])([H])[H])C([H])([H])[H])C(C([H])([H])[H])(C([H])([H])[H])C([H])([H])[H])C([H])([H])c2c([H])c(OC([H])([H])C([H])([H])C(=O)c3c([H])c([H])c(C([H])([H])N(C(=O)N4C([H])([H])C([H])([H])C([H])([H])C([H])(n5nc(-c6c([H])c([H])c(Oc7c([H])c([H])c(F)c([H])c7F)c([H])c6[H])c(C(=O)N([H])[H])c5N([H])[H])C4([H])[H])C([H])([H])[H])c([H])c3[H])c([H])c([H])c2C1([H])[H]

>  <smiles>  (4) 
[H]c1c([H])c([H])c2c(c1[H])C([H])([H])C([H])([H])C([H])([H])C2([H])N([H])C(=O)C1([H])N(C(=O)C([H])(N([H])C(=O)C([H])(N([H])C([H])([H])[H])C([H])([H])[H])C(C([H])([H])[H])(C([H])([H])[H])C([H])([H])[H])C([H])([H])c2c([H])c(OC([H])([H])C([H])([H])C(=O)c3c([H])c([H])c(C([H])([H])N(C(=O)N4C([H])([H])C([H])([H])C([H])([H])C([H])(n5nc(-c6c([H])c([H])c(Oc7c([H])c([H])c(F)c([H])c7F)c([H])c6[H])c(C(=O)N([H])[H])c5N([H])[H])C4([H])[H])C([H])([H])[H])c([H])c3[H])c([H])c([H])c2C1([H])[H]

$$$$
4:0:0
     RDKit          3D

 91 99  0  0  1  0  0  0  0  0999 V2000
  -29.7590  -22.2130   20.0700 C   0  0  0  0  0  3  0  0  0  0  0  0
  -27.5180  -21.9700   20.4550 C   0  0  0  0  0  3  0  0  0  0  0  0
  -28.7470  -21.1880   20.2730 C   0  0  0  0  0  0  0  0  0  0  0  0
  -29.5710  -23.6950   20.0560 C   0  0  0  0  0  0  0  0  0  0  0  0
  -28.3290  -24.4610   20.2400 C   0  0  0  0  0  0  0  0  0  0  0  0
  -27.3090  -23.4430   20.4480 C   0  0  0  0  0  0  0  0  0  0  0  0
  -26.0440  -23.8740   20.6670 F   0  0  0  0  0  0  0  0  0  0  0  0
  -28.7730  -19.4680   20.3180 C   0  0  0  0  0  0  0  0  0  0  0  0
  -27.6550  -18.9690   20.4730 O   0  0  0  0  0  0  0  0  0  0  0  0
  -29.9460  -18.1990   20.2100 C   0  0  0  0  0  2  0  0  0  0  0  0
  -30.4520  -15.3090   20.1860 C   0  0  0  0  0  0  0  0  0  0  0  0
  -30.4200  -12.8780   19.2970 C   0  0  0  0  0  2  0  0  0  0  0  0
  -29.4730  -12.6870   18.0860 C   0  0  0  0  0  2  0  0  0  0  0  0
  -28.0340  -12.4110   18.5570 C   0  0  0  0  0  2  0  0  0  0  0  0
  -27.6070  -13.3610   19.7040 C   0  0  0  0  0  3  0  0  0  0  0  0
  -28.6790  -13.4980   20.8050 C   0  0  0  0  0  2  0  0  0  0  0  0
  -29.8940  -14.0040   20.1480 N   0  0  0  0  0  0  0  0  0  0  0  0
  -31.6610  -15.3310   19.9200 O   0  0  0  0  0  0  0  0  0  0  0  0
  -29.6800  -16.5590   20.3210 N   0  0  0  0  0  0  0  0  0  0  0  0
  -28.7040  -16.3710   20.5020 H   0  0  0  0  0  0  0  0  0  0  0  0
  -25.2560  -13.8970   20.5350 C   0  0  0  0  0  0  0  0  0  0  0  0
  -24.2070  -13.1090   20.9150 C   0  0  0  0  0  0  0  0  0  0  0  0
  -24.6760  -11.7610   20.8400 C   0  0  0  0  0  0  0  0  0  0  0  0
  -26.2940  -13.0310   20.2410 N   0  0  0  0  0  0  0  0  0  0  0  0
  -25.9590  -11.7380   20.4940 N   0  0  0  0  0  0  0  0  0  0  0  0
  -23.9570  -10.4930   21.0190 C   0  0  0  0  0  0  0  0  0  0  0  0
  -24.3820   -9.5280   21.9580 C   0  0  0  0  0  3  0  0  0  0  0  0
  -23.6600   -8.3260   22.1270 C   0  0  0  0  0  3  0  0  0  0  0  0
  -22.4980   -8.0810   21.3560 C   0  0  0  0  0  0  0  0  0  0  0  0
  -22.0930   -9.0360   20.4060 C   0  0  0  0  0  3  0  0  0  0  0  0
  -22.8160  -10.2280   20.2360 C   0  0  0  0  0  3  0  0  0  0  0  0
  -21.7490   -6.9320   21.4330 O   0  0  0  0  0  0  0  0  0  0  0  0
  -21.6470   -6.2170   22.5990 C   0  0  0  0  0  0  0  0  0  0  0  0
  -21.1170   -6.7850   23.7780 C   0  0  0  0  0  3  0  0  0  0  0  0
  -20.9650   -5.9930   24.9350 C   0  0  0  0  0  3  0  0  0  0  0  0
  -21.3330   -4.6360   24.9120 C   0  0  0  0  0  0  0  0  0  0  0  0
  -21.8570   -4.0670   23.7380 C   0  0  0  0  0  3  0  0  0  0  0  0
  -22.0100   -4.8560   22.5830 C   0  0  0  0  0  0  0  0  0  0  0  0
  -22.4950   -4.2970   21.4480 F   0  0  0  0  0  0  0  0  0  0  0  0
  -21.1810   -3.8730   26.0200 F   0  0  0  0  0  0  0  0  0  0  0  0
  -22.8160  -13.5760   21.2290 C   0  0  0  0  0  0  0  0  0  0  0  0
  -22.1130  -12.8630   22.1020 N   0  0  0  0  0  0  0  0  0  0  0  0
  -22.3640  -14.6090   20.7360 O   0  0  0  0  0  0  0  0  0  0  0  0
  -22.4940  -12.0280   22.5220 H   0  0  0  0  0  0  0  0  0  0  0  0
  -21.1810  -13.1580   22.3560 H   0  0  0  0  0  0  0  0  0  0  0  0
  -25.4080  -15.2730   20.3840 N   0  0  0  0  0  0  0  0  0  0  0  0
  -24.6390  -15.9160   20.5320 H   0  0  0  0  0  0  0  0  0  0  0  0
  -26.2340  -15.7260   20.0170 H   0  0  0  0  0  0  0  0  0  0  0  0
  -30.6980  -24.4410   19.8550 O   0  0  0  0  0  0  0  0  0  0  0  0
  -31.4850  -23.9160   19.7510 H   0  0  0  0  0  0  0  0  0  0  0  0
  -28.2720  -25.9990   20.2550 O   0  0  0  0  0  0  0  0  0  0  0  0
  -24.6560  -31.8940   23.2510 C   0  0  0  0  0  0  0  0  0  0  0  0
  -27.2030  -27.0290   20.2420 C   0  0  0  0  0  0  0  0  0  0  0  0
  -23.4600  -30.5050   21.6050 C   0  0  0  0  0  3  0  0  0  0  0  0
  -24.9040  -28.8940   20.1870 C   0  0  0  0  0  0  0  0  0  0  0  0
  -26.0230  -30.7120   21.4650 C   0  0  0  0  0  2  0  0  0  0  0  0
  -26.0870  -29.3020   20.8150 C   0  0  0  0  0  0  0  0  0  0  0  0
  -27.2290  -28.3890   20.8190 C   0  0  0  0  0  3  0  0  0  0  0  0
  -25.9950  -26.7650   19.5620 C   0  0  0  0  0  3  0  0  0  0  0  0
  -24.8800  -27.6450   19.5430 C   0  0  0  0  0  3  0  0  0  0  0  0
  -23.6890  -29.8200   20.2290 C   0  0  0  0  0  2  0  0  0  0  0  0
  -24.7350  -31.0640   22.1600 N   0  0  0  0  0  0  0  0  0  0  0  0
  -23.5680  -32.1870   23.7710 O   0  0  0  0  0  0  0  0  0  0  0  0
  -22.7610  -29.5100   22.5680 C   0  0  0  0  0  0  0  0  0  0  0  0
  -21.4300  -29.3510   22.4390 N   0  0  0  0  0  0  0  0  0  0  0  0
  -23.4220  -28.8820   23.3990 O   0  0  0  0  0  0  0  0  0  0  0  0
  -20.9510  -29.9090   21.7450 H   0  0  0  0  0  0  0  0  0  0  0  0
  -18.0410  -28.1630   22.9420 C   0  0  0  0  0  0  0  0  0  0  0  0
  -20.6030  -28.4150   23.2060 C   0  0  0  0  0  3  0  0  0  0  0  0
  -20.6970  -26.9850   22.6250 C   0  0  0  0  0  2  0  0  0  0  0  0
  -19.5920  -26.6720   21.6100 C   0  0  0  0  0  2  0  0  0  0  0  0
  -18.2110  -26.8190   22.2570 C   0  0  0  0  0  2  0  0  0  0  0  0
  -19.1640  -28.9200   23.3740 C   0  0  0  0  0  0  0  0  0  0  0  0
  -18.9480  -30.1770   23.9790 C   0  0  0  0  0  3  0  0  0  0  0  0
  -17.6440  -30.6800   24.1530 C   0  0  0  0  0  3  0  0  0  0  0  0
  -16.5370  -29.9200   23.7360 C   0  0  0  0  0  3  0  0  0  0  0  0
  -16.7370  -28.6640   23.1360 C   0  0  0  0  0  3  0  0  0  0  0  0
  -25.9290  -32.5290   23.8870 C   0  0  0  0  0  3  0  0  0  0  0  0
  -26.4280  -31.7600   25.1740 C   0  0  1  0  0  0  0  0  0  0  0  0
  -25.3220  -31.5280   26.2310 C   0  0  0  0  0  1  0  0  0  0  0  0
  -27.0120  -30.3780   24.7990 C   0  0  0  0  0  1  0  0  0  0  0  0
  -27.5740  -32.5520   25.8470 C   0  0  0  0  0  1  0  0  0  0  0  0
  -25.6170  -33.9280   24.2250 N   0  0  0  0  0  0  0  0  0  0  0  0
  -25.9220  -34.9880   23.4640 C   0  0  0  0  0  0  0  0  0  0  0  0
  -26.5570  -34.8910   22.4110 O   0  0  0  0  0  0  0  0  0  0  0  0
  -25.0460  -34.0770   25.0440 H   0  0  0  0  0  0  0  0  0  0  0  0
  -24.1610  -36.7700   23.2020 C   0  0  0  0  0  1  0  0  0  0  0  0
  -25.4480  -36.3760   23.9440 C   0  0  0  0  0  3  0  0  0  0  0  0
  -27.6110  -37.2940   24.6630 C   0  0  0  0  0  1  0  0  0  0  0  0
  -26.4630  -37.4390   23.7700 N   0  0  0  0  0  0  0  0  0  0  0  0
  -26.0550  -38.3570   23.9260 H   0  0  0  0  0  0  0  0  0  0  0  0
  1  3  1  0
  3  8  1  0
  3  2  2  0
  4  1  2  0
  4  5  1  0
  5 51  1  0
  5  6  2  0
  6  2  1  0
  6  7  1  0
  8  9  2  0
 10  8  1  0
 10 19  1  0
 11 19  1  0
 12 17  1  0
 13 14  1  0
 13 12  1  0
 15 14  1  0
 15 24  1  0
 15 16  1  0
 17 11  1  0
 17 16  1  0
 18 11  2  0
 19 20  1  0
 21 22  2  0
 22 41  1  0
 23 22  1  0
 23 26  1  0
 24 25  1  0
 24 21  1  0
 25 23  2  0
 26 27  1  0
 27 28  2  0
 29 32  1  0
 29 28  1  0
 30 29  2  0
 31 30  1  0
 31 26  2  0
 32 33  1  0
 33 34  1  0
 34 35  2  0
 36 35  1  0
 36 40  1  0
 37 36  2  0
 38 33  2  0
 38 37  1  0
 39 38  1  0
 41 42  1  0
 42 45  1  0
 42 44  1  0
 43 41  2  0
 46 47  1  0
 46 21  1  0
 48 46  1  0
 49  4  1  0
 50 49  1  0
 52 63  2  0
 53 51  1  0
 53 58  1  0
 54 62  1  0
 54 64  1  0
 55 61  1  0
 55 57  1  0
 56 62  1  0
 57 58  2  0
 57 56  1  0
 59 53  2  0
 60 59  1  0
 60 55  2  0
 61 54  1  0
 62 52  1  0
 64 66  2  0
 65 64  1  0
 67 65  1  0
 68 77  2  0
 68 73  1  0
 69 65  1  0
 69 73  1  0
 70 69  1  0
 71 72  1  0
 71 70  1  0
 72 68  1  0
 73 74  2  0
 74 75  1  0
 76 75  2  0
 77 76  1  0
 78 52  1  0
 78 83  1  0
 78 79  1  0
 79 82  1  1
 79 80  1  0
 81 79  1  0
 83 86  1  0
 84 88  1  0
 84 83  1  0
 85 84  2  0
 88 87  1  0
 90 91  1  0
 90 88  1  0
 90 89  1  0
M  ISO  4   5 101  11 100  19 100  51 101
M  END
>  <TORSDO>  (5) 
F 19

>  <SCORE>  (5) 
-15.460

>  <name>  (5) 
4

>  <ligand_id>  (5) 
4

>  <original_smiles>  (5) 
[H]Oc1c([H])c(C(=O)C([H])([H])N([H])C(=O)N2C([H])([H])C([H])([H])C([H])([H])C([H])(n3nc(-c4c([H])c([H])c(Oc5c([H])c([H])c(F)c([H])c5F)c([H])c4[H])c(C(=O)N([H])[H])c3N([H])[H])C2([H])[H])c([H])c(F)c1Oc1c([H])c([H])c2c(c1[H])C([H])([H])N(C(=O)C([H])(N([H])C(=O)C([H])(N([H])C([H])([H])[H])C([H])([H])[H])C(C([H])([H])[H])(C([H])([H])[H])C([H])([H])[H])C([H])(C(=O)N([H])C1([H])c3c([H])c([H])c([H])c([H])c3C([H])([H])C([H])([H])C1([H])[H])C2([H])[H]

>  <smiles>  (5) 
[H]Oc1c([H])c(C(=O)C([H])([H])N([H])C(=O)N2C([H])([H])C([H])([H])C([H])([H])C([H])(n3nc(-c4c([H])c([H])c(Oc5c([H])c([H])c(F)c([H])c5F)c([H])c4[H])c(C(=O)N([H])[H])c3N([H])[H])C2([H])[H])c([H])c(F)c1Oc1c([H])c([H])c2c(c1[H])C([H])([H])N(C(=O)C([H])(N([H])C(=O)C([H])(N([H])C([H])([H])[H])C([H])([H])[H])C(C([H])([H])[H])(C([H])([H])[H])C([H])([H])[H])C([H])(C(=O)N([H])C1([H])c3c([H])c([H])c([H])c([H])c3C([H])([H])C([H])([H])C1([H])[H])C2([H])[H]

$$$$
5:0:0
     RDKit          3D

 94102  0  0  1  0  0  0  0  0999 V2000
  -28.7510  -21.9600   20.4070 C   0  0  0  0  0  3  0  0  0  0  0  0
  -29.4510  -20.6560   21.2050 C   0  0  0  0  0  3  0  0  0  0  0  0
  -28.8310  -18.9390   19.3990 C   0  0  0  0  0  3  0  0  0  0  0  0
  -30.1140  -16.5550   20.5590 C   0  0  0  0  0  0  0  0  0  0  0  0
  -28.9420  -17.7360   18.6850 C   0  0  0  0  0  0  0  0  0  0  0  0
  -29.4530  -19.1190   20.6420 C   0  0  0  0  0  0  0  0  0  0  0  0
  -29.6760  -16.6330   19.1950 C   0  0  0  0  0  0  0  0  0  0  0  0
  -30.0350  -17.8820   21.2390 C   0  0  0  0  0  0  0  0  0  0  0  0
  -28.3190  -17.6890   17.2950 C   0  0  0  0  0  1  0  0  0  0  0  0
  -30.1240  -15.6230   18.1500 C   0  0  0  0  0  1  0  0  0  0  0  0
  -30.6230  -18.0200   22.6340 C   0  0  0  0  0  1  0  0  0  0  0  0
  -30.8530  -15.2000   21.0610 C   0  0  0  0  0  0  0  0  0  0  0  0
  -30.8980  -12.7490   20.4070 C   0  0  0  0  0  2  0  0  0  0  0  0
  -30.1540  -12.4100   19.0910 C   0  0  0  0  0  2  0  0  0  0  0  0
  -28.6200  -12.3690   19.2640 C   0  0  0  0  0  2  0  0  0  0  0  0
  -28.0450  -13.3960   20.2800 C   0  0  0  0  0  3  0  0  0  0  0  0
  -28.9310  -13.5630   21.5230 C   0  0  0  0  0  2  0  0  0  0  0  0
  -30.2680  -13.9330   21.0530 N   0  0  0  0  0  0  0  0  0  0  0  0
  -32.0850  -15.2340   21.1350 O   0  0  0  0  0  0  0  0  0  0  0  0
  -25.5880  -13.9870   20.6770 C   0  0  0  0  0  0  0  0  0  0  0  0
  -24.4840  -13.2160   20.9220 C   0  0  0  0  0  0  0  0  0  0  0  0
  -24.9560  -11.8700   21.0160 C   0  0  0  0  0  0  0  0  0  0  0  0
  -26.6560  -13.1110   20.6190 N   0  0  0  0  0  0  0  0  0  0  0  0
  -26.2770  -11.8370   20.8980 N   0  0  0  0  0  0  0  0  0  0  0  0
  -24.2200  -10.6060   21.1500 C   0  0  0  0  0  0  0  0  0  0  0  0
  -24.5620   -9.6500   22.1310 C   0  0  0  0  0  3  0  0  0  0  0  0
  -23.8230   -8.4540   22.2530 C   0  0  0  0  0  3  0  0  0  0  0  0
  -22.7290   -8.2040   21.3930 C   0  0  0  0  0  0  0  0  0  0  0  0
  -22.4070   -9.1480   20.4030 C   0  0  0  0  0  3  0  0  0  0  0  0
  -23.1470  -10.3360   20.2780 C   0  0  0  0  0  3  0  0  0  0  0  0
  -21.9710   -7.0580   21.4220 O   0  0  0  0  0  0  0  0  0  0  0  0
  -21.8490   -6.3050   22.5630 C   0  0  0  0  0  0  0  0  0  0  0  0
  -21.3540   -6.8520   23.7680 C   0  0  0  0  0  3  0  0  0  0  0  0
  -21.1810   -6.0270   24.8960 C   0  0  0  0  0  3  0  0  0  0  0  0
  -21.4920   -4.6560   24.8200 C   0  0  0  0  0  0  0  0  0  0  0  0
  -21.9810   -4.1090   23.6210 C   0  0  0  0  0  3  0  0  0  0  0  0
  -22.1560   -4.9320   22.4950 C   0  0  0  0  0  0  0  0  0  0  0  0
  -22.6070   -4.3960   21.3350 F   0  0  0  0  0  0  0  0  0  0  0  0
  -21.3190   -3.8600   25.9020 F   0  0  0  0  0  0  0  0  0  0  0  0
  -23.0610  -13.6880   20.9700 C   0  0  0  0  0  0  0  0  0  0  0  0
  -22.2250  -13.0270   21.7630 N   0  0  0  0  0  0  0  0  0  0  0  0
  -22.6950  -14.6790   20.3400 O   0  0  0  0  0  0  0  0  0  0  0  0
  -22.5340  -12.2250   22.2910 H   0  0  0  0  0  0  0  0  0  0  0  0
  -21.2660  -13.3310   21.8420 H   0  0  0  0  0  0  0  0  0  0  0  0
  -25.7710  -15.3500   20.4700 N   0  0  0  0  0  0  0  0  0  0  0  0
  -24.9950  -16.0020   20.4490 H   0  0  0  0  0  0  0  0  0  0  0  0
  -26.6630  -15.7840   20.2600 H   0  0  0  0  0  0  0  0  0  0  0  0
  -28.9710  -23.5910   20.7580 C   0  0  0  0  0  3  0  0  0  0  0  0
  -30.3920  -23.9470   20.5710 N   0  0  0  0  0  4  0  0  0  0  0  0
  -30.6770  -23.8450   19.6110 H   0  0  0  0  0  0  0  0  0  0  0  0
  -30.9940  -23.3910   21.1520 H   0  0  0  0  0  0  0  0  0  0  0  0
  -30.5250  -24.9120   20.8250 H   0  0  0  0  0  0  0  0  0  0  0  0
  -28.0680  -24.8120   20.0690 C   0  0  0  0  0  2  0  0  0  0  0  0
  -28.3560  -26.3290   20.1600 O   0  0  0  0  0  0  0  0  0  0  0  0
  -24.7150  -31.8780   23.2470 C   0  0  0  0  0  0  0  0  0  0  0  0
  -27.2990  -27.2950   20.0860 C   0  0  0  0  0  0  0  0  0  0  0  0
  -23.5130  -30.5140   21.5830 C   0  0  0  0  0  3  0  0  0  0  0  0
  -24.9630  -29.0060   20.1000 C   0  0  0  0  0  0  0  0  0  0  0  0
  -26.0600  -30.8200   21.4010 C   0  0  0  0  0  2  0  0  0  0  0  0
  -26.1400  -29.4490   20.7160 C   0  0  0  0  0  0  0  0  0  0  0  0
  -27.3110  -28.6090   20.6950 C   0  0  0  0  0  3  0  0  0  0  0  0
  -26.1020  -26.9540   19.4160 C   0  0  0  0  0  3  0  0  0  0  0  0
  -24.9560  -27.7740   19.4320 C   0  0  0  0  0  3  0  0  0  0  0  0
  -23.7270  -29.8830   20.1820 C   0  0  0  0  0  2  0  0  0  0  0  0
  -24.7820  -31.0910   22.1320 N   0  0  0  0  0  0  0  0  0  0  0  0
  -23.6320  -32.1350   23.7950 O   0  0  0  0  0  0  0  0  0  0  0  0
  -22.8580  -29.4690   22.5200 C   0  0  0  0  0  0  0  0  0  0  0  0
  -21.5280  -29.3010   22.4120 N   0  0  0  0  0  0  0  0  0  0  0  0
  -23.5460  -28.8170   23.3100 O   0  0  0  0  0  0  0  0  0  0  0  0
  -21.0310  -29.8740   21.7450 H   0  0  0  0  0  0  0  0  0  0  0  0
  -18.1600  -28.0770   22.9320 C   0  0  0  0  0  0  0  0  0  0  0  0
  -20.7210  -28.3370   23.1670 C   0  0  0  0  0  3  0  0  0  0  0  0
  -20.8190  -26.9220   22.5540 C   0  0  0  0  0  2  0  0  0  0  0  0
  -19.7050  -26.6220   21.5470 C   0  0  0  0  0  2  0  0  0  0  0  0
  -18.3300  -26.7490   22.2140 C   0  0  0  0  0  2  0  0  0  0  0  0
  -19.2820  -28.8300   23.3660 C   0  0  0  0  0  0  0  0  0  0  0  0
  -19.0690  -30.0710   24.0020 C   0  0  0  0  0  3  0  0  0  0  0  0
  -17.7650  -30.5600   24.2070 C   0  0  0  0  0  3  0  0  0  0  0  0
  -16.6580  -29.8040   23.7890 C   0  0  0  0  0  3  0  0  0  0  0  0
  -16.8560  -28.5640   23.1550 C   0  0  0  0  0  3  0  0  0  0  0  0
  -25.9940  -32.5100   23.8780 C   0  0  0  0  0  3  0  0  0  0  0  0
  -25.6540  -33.8750   24.3090 N   0  0  0  0  0  0  0  0  0  0  0  0
  -25.9820  -34.9910   23.6440 C   0  0  0  0  0  0  0  0  0  0  0  0
  -26.6710  -34.9800   22.6200 O   0  0  0  0  0  0  0  0  0  0  0  0
  -25.0420  -33.9570   25.1080 H   0  0  0  0  0  0  0  0  0  0  0  0
  -24.2410  -36.7910   23.3940 C   0  0  0  0  0  1  0  0  0  0  0  0
  -25.4640  -36.3310   24.2030 C   0  0  0  0  0  3  0  0  0  0  0  0
  -27.5660  -37.1650   25.1600 C   0  0  0  0  0  1  0  0  0  0  0  0
  -26.4850  -37.4020   24.2060 N   0  0  0  0  0  0  0  0  0  0  0  0
  -26.0640  -38.3010   24.4230 H   0  0  0  0  0  0  0  0  0  0  0  0
  -26.5660  -31.6760   25.0900 C   0  0  1  0  0  0  0  0  0  0  0  0
  -25.5110  -31.3480   26.1710 C   0  0  0  0  0  1  0  0  0  0  0  0
  -27.1670  -30.3370   24.6020 C   0  0  0  0  0  1  0  0  0  0  0  0
  -27.7170  -32.4570   25.7660 C   0  0  0  0  0  1  0  0  0  0  0  0
  1 48  1  0
  1  2  2  0
  3  6  1  0
  4 12  1  0
  4  8  1  0
  5  7  1  0
  5  3  2  0
  6  2  1  0
  6  8  2  0
  7  4  2  0
  8 11  1  0
  9  5  1  0
 10  7  1  0
 12 19  2  0
 13 18  1  0
 14 15  1  0
 14 13  1  0
 16 15  1  0
 16 23  1  0
 16 17  1  0
 18 12  1  0
 18 17  1  0
 20 21  2  0
 21 40  1  0
 21 22  1  0
 22 25  1  0
 23 20  1  0
 23 24  1  0
 24 22  2  0
 25 26  1  0
 26 27  2  0
 28 31  1  0
 28 27  1  0
 29 28  2  0
 30 29  1  0
 30 25  2  0
 31 32  1  0
 32 33  1  0
 33 34  2  0
 35 34  1  0
 35 39  1  0
 36 35  2  0
 37 32  2  0
 37 36  1  0
 38 37  1  0
 40 41  1  0
 41 44  1  0
 41 43  1  0
 42 40  2  0
 45 20  1  0
 46 45  1  0
 47 45  1  0
 48 53  1  0
 49 48  1  0
 49 52  1  0
 49 51  1  0
 50 49  1  0
 53 54  1  0
 55 66  2  0
 56 54  1  0
 56 61  1  0
 57 65  1  0
 57 67  1  0
 58 64  1  0
 58 60  1  0
 59 65  1  0
 60 59  1  0
 61 60  2  0
 62 63  1  0
 62 56  2  0
 63 58  2  0
 64 57  1  0
 65 55  1  0
 67 69  2  0
 68 67  1  0
 70 68  1  0
 71 80  2  0
 71 76  1  0
 72 68  1  0
 72 76  1  0
 73 72  1  0
 74 75  1  0
 74 73  1  0
 75 71  1  0
 76 77  2  0
 77 78  1  0
 79 78  2  0
 80 79  1  0
 81 55  1  0
 81 82  1  0
 81 91  1  0
 82 85  1  0
 83 87  1  0
 83 82  1  0
 84 83  2  0
 87 86  1  0
 87 89  1  0
 89 90  1  0
 89 88  1  0
 91 94  1  1
 91 92  1  0
 93 91  1  0
M  ISO  4   4 100  12 100  53 101  54 101
M  END
>  <TORSDO>  (6) 
F 21

>  <SCORE>  (6) 
-11.613

>  <name>  (6) 
5

>  <ligand_id>  (6) 
5

>  <original_smiles>  (6) 
[H]c1c([H])c([H])c2c(c1[H])C([H])([H])C([H])([H])C([H])([H])C2([H])N([H])C(=O)C1([H])N(C(=O)C([H])(N([H])C(=O)C([H])(N([H])C([H])([H])[H])C([H])([H])[H])C(C([H])([H])[H])(C([H])([H])[H])C([H])([H])[H])C([H])([H])c2c([H])c(OC([H])([H])C([H])(C([H])([H])C([H])([H])c3c([H])c(C([H])([H])[H])c(C([H])([H])[H])c(C(=O)N4C([H])([H])C([H])([H])C([H])([H])C([H])(n5nc(-c6c([H])c([H])c(Oc7c([H])c([H])c(F)c([H])c7F)c([H])c6[H])c(C(=O)N([H])[H])c5N([H])[H])C4([H])[H])c3C([H])([H])[H])[N+]([H])([H])[H])c([H])c([H])c2C1([H])[H]

>  <smiles>  (6) 
[H]c1c([H])c([H])c2c(c1[H])C([H])([H])C([H])([H])C([H])([H])C2([H])N([H])C(=O)C1([H])N(C(=O)C([H])(N([H])C(=O)C([H])(N([H])C([H])([H])[H])C([H])([H])[H])C(C([H])([H])[H])(C([H])([H])[H])C([H])([H])[H])C([H])([H])c2c([H])c(OC([H])([H])C([H])(C([H])([H])C([H])([H])c3c([H])c(C([H])([H])[H])c(C([H])([H])[H])c(C(=O)N4C([H])([H])C([H])([H])C([H])([H])C([H])(n5nc(-c6c([H])c([H])c(Oc7c([H])c([H])c(F)c([H])c7F)c([H])c6[H])c(C(=O)N([H])[H])c5N([H])[H])C4([H])[H])c3C([H])([H])[H])[N+]([H])([H])[H])c([H])c([H])c2C1([H])[H]

$$$$
6:0:0
     RDKit          3D

 90 98  0  0  1  0  0  0  0  0999 V2000
  -28.7750  -21.4980   21.2040 C   0  0  0  0  0  3  0  0  0  0  0  0
  -28.4130  -22.9820   21.2840 C   0  0  0  0  0  3  0  0  0  0  0  0
  -28.8660  -23.2200   19.1220 C   0  0  0  0  0  3  0  0  0  0  0  0
  -29.2460  -20.6670   20.0630 C   0  0  0  0  0  0  0  0  0  0  0  0
  -28.3980  -24.0550   20.2490 C   0  0  0  0  0  0  0  0  0  0  0  0
  -29.2340  -21.7360   19.0170 C   0  0  0  0  0  0  0  0  0  0  0  0
  -29.9090  -18.9750   19.8510 C   0  0  0  0  0  0  0  0  0  0  0  0
  -30.8120  -18.9640   19.0120 O   0  0  0  0  0  0  0  0  0  0  0  0
  -28.1680  -17.0440   20.2870 C   0  0  0  0  0  1  0  0  0  0  0  0
  -30.0200  -17.3710   21.9280 C   0  0  0  0  0  1  0  0  0  0  0  0
  -29.6830  -17.2480   20.4290 C   0  0  2  0  0  0  0  0  0  0  0  0
  -30.4400  -15.6020   19.9920 C   0  0  0  0  0  0  0  0  0  0  0  0
  -30.4670  -13.0970   19.0750 C   0  0  0  0  0  2  0  0  0  0  0  0
  -29.4950  -12.8070   17.8940 C   0  0  0  0  0  2  0  0  0  0  0  0
  -28.0840  -12.4660   18.4030 C   0  0  0  0  0  2  0  0  0  0  0  0
  -27.6600  -13.4130   19.5500 C   0  0  0  0  0  3  0  0  0  0  0  0
  -28.7630  -13.6130   20.6160 C   0  0  0  0  0  2  0  0  0  0  0  0
  -29.9280  -14.2340   19.9420 N   0  0  0  0  0  0  0  0  0  0  0  0
  -31.6360  -15.5520   19.6530 O   0  0  0  0  0  0  0  0  0  0  0  0
  -25.3280  -13.9240   20.4380 C   0  0  0  0  0  0  0  0  0  0  0  0
  -24.2940  -13.1340   20.8470 C   0  0  0  0  0  0  0  0  0  0  0  0
  -24.7680  -11.7890   20.7640 C   0  0  0  0  0  0  0  0  0  0  0  0
  -26.3670  -13.0650   20.1260 N   0  0  0  0  0  0  0  0  0  0  0  0
  -26.0440  -11.7710   20.3880 N   0  0  0  0  0  0  0  0  0  0  0  0
  -24.0530  -10.5210   20.9610 C   0  0  0  0  0  0  0  0  0  0  0  0
  -24.4990   -9.5560   21.8900 C   0  0  0  0  0  3  0  0  0  0  0  0
  -23.7790   -8.3570   22.0770 C   0  0  0  0  0  3  0  0  0  0  0  0
  -22.5970   -8.1150   21.3360 C   0  0  0  0  0  0  0  0  0  0  0  0
  -22.1700   -9.0700   20.3970 C   0  0  0  0  0  3  0  0  0  0  0  0
  -22.8910  -10.2600   20.2070 C   0  0  0  0  0  3  0  0  0  0  0  0
  -21.8480   -6.9680   21.4340 O   0  0  0  0  0  0  0  0  0  0  0  0
  -21.7780   -6.2500   22.6020 C   0  0  0  0  0  0  0  0  0  0  0  0
  -21.2950   -6.8210   23.8000 C   0  0  0  0  0  3  0  0  0  0  0  0
  -21.1750   -6.0290   24.9590 C   0  0  0  0  0  3  0  0  0  0  0  0
  -21.5290   -4.6660   24.9220 C   0  0  0  0  0  0  0  0  0  0  0  0
  -22.0060   -4.0960   23.7280 C   0  0  0  0  0  3  0  0  0  0  0  0
  -22.1270   -4.8850   22.5710 C   0  0  0  0  0  0  0  0  0  0  0  0
  -22.5670   -4.3240   21.4190 F   0  0  0  0  0  0  0  0  0  0  0  0
  -21.4070   -3.9030   26.0330 F   0  0  0  0  0  0  0  0  0  0  0  0
  -22.9110  -13.6020   21.1930 C   0  0  0  0  0  0  0  0  0  0  0  0
  -22.2270  -12.8900   22.0800 N   0  0  0  0  0  0  0  0  0  0  0  0
  -22.4500  -14.6370   20.7130 O   0  0  0  0  0  0  0  0  0  0  0  0
  -22.6140  -12.0520   22.4880 H   0  0  0  0  0  0  0  0  0  0  0  0
  -21.3010  -13.1860   22.3550 H   0  0  0  0  0  0  0  0  0  0  0  0
  -25.4560  -15.2970   20.2740 N   0  0  0  0  0  0  0  0  0  0  0  0
  -24.6850  -15.9320   20.4480 H   0  0  0  0  0  0  0  0  0  0  0  0
  -26.2820  -15.7630   19.9250 H   0  0  0  0  0  0  0  0  0  0  0  0
  -29.7170  -22.0910   16.6590 C   0  0  0  0  0  1  0  0  0  0  0  0
  -29.6400  -21.2360   17.7940 O   0  0  0  0  0  0  0  0  0  0  0  0
  -28.3020  -25.6530   20.3470 O   0  0  0  0  0  0  0  0  0  0  0  0
  -24.6590  -31.8410   23.1730 C   0  0  0  0  0  0  0  0  0  0  0  0
  -27.2600  -26.7820   20.2910 C   0  0  0  0  0  0  0  0  0  0  0  0
  -23.4950  -30.4070   21.5500 C   0  0  0  0  0  3  0  0  0  0  0  0
  -24.9650  -28.7520   20.1780 C   0  0  0  0  0  0  0  0  0  0  0  0
  -26.0680  -30.5820   21.4440 C   0  0  0  0  0  2  0  0  0  0  0  0
  -26.1470  -29.1440   20.8160 C   0  0  0  0  0  0  0  0  0  0  0  0
  -27.2790  -28.1830   20.8430 C   0  0  0  0  0  3  0  0  0  0  0  0
  -26.0440  -26.5830   19.5920 C   0  0  0  0  0  3  0  0  0  0  0  0
  -24.9470  -27.4960   19.5450 C   0  0  0  0  0  3  0  0  0  0  0  0
  -23.7490  -29.6890   20.1920 C   0  0  0  0  0  2  0  0  0  0  0  0
  -24.7630  -30.9780   22.1070 N   0  0  0  0  0  0  0  0  0  0  0  0
  -23.5610  -32.1400   23.6720 O   0  0  0  0  0  0  0  0  0  0  0  0
  -22.7810  -29.4390   22.5300 C   0  0  0  0  0  0  0  0  0  0  0  0
  -21.4510  -29.2780   22.4010 N   0  0  0  0  0  0  0  0  0  0  0  0
  -23.4370  -28.8290   23.3780 O   0  0  0  0  0  0  0  0  0  0  0  0
  -20.9730  -29.8180   21.6930 H   0  0  0  0  0  0  0  0  0  0  0  0
  -18.0590  -28.0930   22.9370 C   0  0  0  0  0  0  0  0  0  0  0  0
  -20.6220  -28.3510   23.1830 C   0  0  0  0  0  3  0  0  0  0  0  0
  -20.7130  -26.9150   22.6160 C   0  0  0  0  0  2  0  0  0  0  0  0
  -19.6050  -26.5920   21.6100 C   0  0  0  0  0  2  0  0  0  0  0  0
  -18.2270  -26.7430   22.2610 C   0  0  0  0  0  2  0  0  0  0  0  0
  -19.1830  -28.8550   23.3550 C   0  0  0  0  0  0  0  0  0  0  0  0
  -18.9690  -30.1170   23.9530 C   0  0  0  0  0  3  0  0  0  0  0  0
  -17.6650  -30.6170   24.1320 C   0  0  0  0  0  3  0  0  0  0  0  0
  -16.5570  -29.8530   23.7280 C   0  0  0  0  0  3  0  0  0  0  0  0
  -16.7550  -28.5930   23.1360 C   0  0  0  0  0  3  0  0  0  0  0  0
  -25.9140  -32.5100   23.8130 C   0  0  0  0  0  3  0  0  0  0  0  0
  -26.4150  -31.7650   25.1130 C   0  0  1  0  0  0  0  0  0  0  0  0
  -25.3090  -31.5460   26.1730 C   0  0  0  0  0  1  0  0  0  0  0  0
  -27.0080  -30.3820   24.7680 C   0  0  0  0  0  1  0  0  0  0  0  0
  -27.5560  -32.5760   25.7740 C   0  0  0  0  0  1  0  0  0  0  0  0
  -25.5750  -33.9080   24.1380 N   0  0  0  0  0  0  0  0  0  0  0  0
  -25.9110  -34.9750   23.4010 C   0  0  0  0  0  0  0  0  0  0  0  0
  -26.5960  -34.8860   22.3790 O   0  0  0  0  0  0  0  0  0  0  0  0
  -24.9640  -34.0480   24.9290 H   0  0  0  0  0  0  0  0  0  0  0  0
  -24.1830  -36.7730   23.0370 C   0  0  0  0  0  1  0  0  0  0  0  0
  -25.4100  -36.3590   23.8660 C   0  0  0  0  0  3  0  0  0  0  0  0
  -27.5190  -37.2540   24.7550 C   0  0  0  0  0  1  0  0  0  0  0  0
  -26.4400  -37.4190   23.7830 N   0  0  0  0  0  0  0  0  0  0  0  0
  -26.0270  -38.3360   23.9240 H   0  0  0  0  0  0  0  0  0  0  0  0
  1  2  1  0
  3  5  1  0
  4  1  2  0
  5 50  1  0
  5  2  2  0
  6  3  2  0
  6  4  1  0
  7  4  1  0
  7 11  1  0
  8  7  2  0
 11  9  1  1
 11 10  1  0
 12 11  1  0
 13 18  1  0
 14 15  1  0
 14 13  1  0
 16 15  1  0
 16 23  1  0
 16 17  1  0
 18 12  1  0
 18 17  1  0
 19 12  2  0
 20 21  2  0
 21 40  1  0
 22 21  1  0
 22 25  1  0
 23 24  1  0
 23 20  1  0
 24 22  2  0
 25 26  1  0
 26 27  2  0
 28 31  1  0
 28 27  1  0
 29 28  2  0
 30 29  1  0
 30 25  2  0
 31 32  1  0
 32 33  1  0
 33 34  2  0
 35 34  1  0
 35 39  1  0
 36 35  2  0
 37 32  2  0
 37 36  1  0
 38 37  1  0
 40 41  1  0
 41 44  1  0
 41 43  1  0
 42 40  2  0
 45 20  1  0
 45 46  1  0
 47 45  1  0
 48 49  1  0
 49  6  1  0
 51 62  2  0
 52 50  1  0
 52 57  1  0
 53 61  1  0
 53 63  1  0
 54 60  1  0
 54 56  1  0
 55 61  1  0
 56 57  2  0
 56 55  1  0
 58 52  2  0
 59 58  1  0
 59 54  2  0
 60 53  1  0
 61 51  1  0
 63 65  2  0
 64 63  1  0
 66 64  1  0
 67 76  2  0
 67 72  1  0
 68 64  1  0
 68 72  1  0
 69 68  1  0
 70 71  1  0
 70 69  1  0
 71 67  1  0
 72 73  2  0
 73 74  1  0
 75 74  2  0
 76 75  1  0
 77 51  1  0
 77 82  1  0
 77 78  1  0
 78 81  1  1
 78 79  1  0
 80 78  1  0
 82 85  1  0
 83 87  1  0
 83 82  1  0
 84 83  2  0
 87 86  1  0
 89 87  1  0
 89 90  1  0
 89 88  1  0
M  ISO  4   5 101  11 100  12 100  50 101
M  END
>  <TORSDO>  (7) 
F 19

>  <SCORE>  (7) 
-15.543

>  <name>  (7) 
6

>  <ligand_id>  (7) 
6

>  <original_smiles>  (7) 
[H]c1c([H])c([H])c2c(c1[H])C([H])([H])C([H])([H])C([H])([H])C2([H])N([H])C(=O)C1([H])N(C(=O)C([H])(N([H])C(=O)C([H])(N([H])C([H])([H])[H])C([H])([H])[H])C(C([H])([H])[H])(C([H])([H])[H])C([H])([H])[H])C([H])([H])c2c([H])c(Oc3c([H])c([H])c(C(=O)C(C(=O)N4C([H])([H])C([H])([H])C([H])([H])C([H])(n5nc(-c6c([H])c([H])c(Oc7c([H])c([H])c(F)c([H])c7F)c([H])c6[H])c(C(=O)N([H])[H])c5N([H])[H])C4([H])[H])(C([H])([H])[H])C([H])([H])[H])c(OC([H])([H])[H])c3[H])c([H])c([H])c2C1([H])[H]

>  <smiles>  (7) 
[H]c1c([H])c([H])c2c(c1[H])C([H])([H])C([H])([H])C([H])([H])C2([H])N([H])C(=O)C1([H])N(C(=O)C([H])(N([H])C(=O)C([H])(N([H])C([H])([H])[H])C([H])([H])[H])C(C([H])([H])[H])(C([H])([H])[H])C([H])([H])[H])C([H])([H])c2c([H])c(Oc3c([H])c([H])c(C(=O)C(C(=O)N4C([H])([H])C([H])([H])C([H])([H])C([H])(n5nc(-c6c([H])c([H])c(Oc7c([H])c([H])c(F)c([H])c7F)c([H])c6[H])c(C(=O)N([H])[H])c5N([H])[H])C4([H])[H])(C([H])([H])[H])C([H])([H])[H])c(OC([H])([H])[H])c3[H])c([H])c([H])c2C1([H])[H]

$$$$
7:0:0
     RDKit          3D

 92100  0  0  1  0  0  0  0  0999 V2000
  -29.9710  -20.7610   19.4680 C   0  0  0  0  0  3  0  0  0  0  0  0
  -28.3270  -18.9790   19.4250 C   0  0  0  0  0  3  0  0  0  0  0  0
  -29.6990  -19.2910   19.4840 C   0  0  0  0  0  0  0  0  0  0  0  0
  -28.9710  -21.8690   19.3830 C   0  0  0  0  0  0  0  0  0  0  0  0
  -27.6350  -21.3770   19.3170 C   0  0  0  0  0  0  0  0  0  0  0  0
  -27.3390  -19.9870   19.3370 C   0  0  0  0  0  0  0  0  0  0  0  0
  -26.0420  -19.5920   19.2690 F   0  0  0  0  0  0  0  0  0  0  0  0
  -31.4570  -17.9780   18.1420 C   0  0  0  0  0  1  0  0  0  0  0  0
  -30.7910  -18.0470   19.5350 C   0  0  0  0  0  3  0  0  0  0  0  0
  -31.2680  -15.3510   19.8780 C   0  0  0  0  0  0  0  0  0  0  0  0
  -31.1170  -12.9360   19.1070 C   0  0  0  0  0  2  0  0  0  0  0  0
  -30.1540  -12.8220   17.9030 C   0  0  0  0  0  2  0  0  0  0  0  0
  -28.7090  -12.6280   18.3920 C   0  0  0  0  0  2  0  0  0  0  0  0
  -28.3290  -13.6270   19.5160 C   0  0  0  0  0  3  0  0  0  0  0  0
  -29.4160  -13.7240   20.6110 C   0  0  0  0  0  2  0  0  0  0  0  0
  -30.6690  -14.0910   19.9420 N   0  0  0  0  0  0  0  0  0  0  0  0
  -32.4470  -15.3880   19.5100 O   0  0  0  0  0  0  0  0  0  0  0  0
  -30.5090  -16.5520   20.0040 N   0  0  0  0  0  0  0  0  0  0  0  0
  -29.5640  -16.3930   20.3160 H   0  0  0  0  0  0  0  0  0  0  0  0
  -26.0240  -14.2620   20.4250 C   0  0  0  0  0  0  0  0  0  0  0  0
  -24.9440  -13.5130   20.8070 C   0  0  0  0  0  0  0  0  0  0  0  0
  -25.3450  -12.1490   20.6720 C   0  0  0  0  0  0  0  0  0  0  0  0
  -27.0090  -13.3560   20.0720 N   0  0  0  0  0  0  0  0  0  0  0  0
  -26.6120  -12.0760   20.2830 N   0  0  0  0  0  0  0  0  0  0  0  0
  -24.5710  -10.9100   20.8320 C   0  0  0  0  0  0  0  0  0  0  0  0
  -24.9530   -9.9100   21.7550 C   0  0  0  0  0  3  0  0  0  0  0  0
  -24.1780   -8.7390   21.9000 C   0  0  0  0  0  3  0  0  0  0  0  0
  -23.0070   -8.5620   21.1240 C   0  0  0  0  0  0  0  0  0  0  0  0
  -22.6460   -9.5480   20.1910 C   0  0  0  0  0  3  0  0  0  0  0  0
  -23.4200  -10.7090   20.0400 C   0  0  0  0  0  3  0  0  0  0  0  0
  -22.2120   -7.4420   21.1770 O   0  0  0  0  0  0  0  0  0  0  0  0
  -22.0150   -6.7540   22.3470 C   0  0  0  0  0  0  0  0  0  0  0  0
  -21.4750   -7.3750   23.4950 C   0  0  0  0  0  3  0  0  0  0  0  0
  -21.2200   -6.6170   24.6530 C   0  0  0  0  0  3  0  0  0  0  0  0
  -21.5010   -5.2360   24.6670 C   0  0  0  0  0  0  0  0  0  0  0  0
  -22.0360   -4.6150   23.5260 C   0  0  0  0  0  3  0  0  0  0  0  0
  -22.2890   -5.3730   22.3680 C   0  0  0  0  0  0  0  0  0  0  0  0
  -22.7870   -4.7680   21.2620 F   0  0  0  0  0  0  0  0  0  0  0  0
  -21.2510   -4.5010   25.7760 F   0  0  0  0  0  0  0  0  0  0  0  0
  -23.5890  -14.0370   21.1860 C   0  0  0  0  0  0  0  0  0  0  0  0
  -22.8840  -13.3380   22.0660 N   0  0  0  0  0  0  0  0  0  0  0  0
  -23.1660  -15.1020   20.7380 O   0  0  0  0  0  0  0  0  0  0  0  0
  -23.2370  -12.4740   22.4520 H   0  0  0  0  0  0  0  0  0  0  0  0
  -21.9820  -13.6800   22.3650 H   0  0  0  0  0  0  0  0  0  0  0  0
  -26.2310  -15.6350   20.3260 N   0  0  0  0  0  0  0  0  0  0  0  0
  -25.4630  -16.2760   20.4850 H   0  0  0  0  0  0  0  0  0  0  0  0
  -27.0460  -16.0890   19.9310 H   0  0  0  0  0  0  0  0  0  0  0  0
  -26.5710  -22.2310   19.2600 O   0  0  0  0  0  0  0  0  0  0  0  0
  -26.7990  -23.1450   19.3650 H   0  0  0  0  0  0  0  0  0  0  0  0
  -29.2710  -23.5110   19.4730 C   0  0  0  0  0  3  0  0  0  0  0  0
  -28.2180  -24.8300   19.2100 C   0  0  0  0  0  3  0  0  0  0  0  0
  -28.4810  -26.3680   19.3980 O   0  0  0  0  0  0  0  0  0  0  0  0
  -24.6620  -31.4970   23.0890 C   0  0  0  0  0  0  0  0  0  0  0  0
  -27.4050  -27.3380   19.4550 C   0  0  0  0  0  0  0  0  0  0  0  0
  -23.5210  -30.3210   21.2440 C   0  0  0  0  0  3  0  0  0  0  0  0
  -25.0330  -29.0170   19.6230 C   0  0  0  0  0  0  0  0  0  0  0  0
  -26.0660  -30.6870   21.1520 C   0  0  0  0  0  2  0  0  0  0  0  0
  -26.1910  -29.4030   20.3090 C   0  0  0  0  0  0  0  0  0  0  0  0
  -27.3800  -28.5820   20.2060 C   0  0  0  0  0  3  0  0  0  0  0  0
  -26.2210  -27.0710   18.7320 C   0  0  0  0  0  3  0  0  0  0  0  0
  -25.0610  -27.8710   18.8170 C   0  0  0  0  0  3  0  0  0  0  0  0
  -23.7760  -29.8570   19.7840 C   0  0  0  0  0  2  0  0  0  0  0  0
  -24.7690  -30.8510   21.8840 N   0  0  0  0  0  0  0  0  0  0  0  0
  -23.5630  -31.6650   23.6400 O   0  0  0  0  0  0  0  0  0  0  0  0
  -22.8720  -29.1610   22.0430 C   0  0  0  0  0  0  0  0  0  0  0  0
  -21.5410  -29.0040   21.9250 N   0  0  0  0  0  0  0  0  0  0  0  0
  -23.5680  -28.4140   22.7330 O   0  0  0  0  0  0  0  0  0  0  0  0
  -21.0360  -29.6630   21.3500 H   0  0  0  0  0  0  0  0  0  0  0  0
  -18.1670  -27.7860   22.4310 C   0  0  0  0  0  0  0  0  0  0  0  0
  -20.7450  -27.9430   22.5510 C   0  0  0  0  0  3  0  0  0  0  0  0
  -20.7570  -26.6560   21.6930 C   0  0  0  0  0  2  0  0  0  0  0  0
  -19.5790  -26.5670   20.7180 C   0  0  0  0  0  2  0  0  0  0  0  0
  -18.2510  -26.6030   21.4800 C   0  0  0  0  0  2  0  0  0  0  0  0
  -19.3370  -28.4230   22.9200 C   0  0  0  0  0  0  0  0  0  0  0  0
  -19.2020  -29.5350   23.7810 C   0  0  0  0  0  3  0  0  0  0  0  0
  -17.9290  -30.0110   24.1420 C   0  0  0  0  0  3  0  0  0  0  0  0
  -16.7750  -29.3700   23.6630 C   0  0  0  0  0  3  0  0  0  0  0  0
  -16.8940  -28.2510   22.8160 C   0  0  0  0  0  3  0  0  0  0  0  0
  -25.9140  -32.0770   23.8150 C   0  0  0  0  0  3  0  0  0  0  0  0
  -26.3630  -31.2150   25.0600 C   0  0  1  0  0  0  0  0  0  0  0  0
  -25.2210  -30.9200   26.0610 C   0  0  0  0  0  1  0  0  0  0  0  0
  -26.9500  -29.8610   24.6060 C   0  0  0  0  0  1  0  0  0  0  0  0
  -27.4950  -31.9440   25.8240 C   0  0  0  0  0  1  0  0  0  0  0  0
  -25.5930  -33.4500   24.2380 N   0  0  0  0  0  0  0  0  0  0  0  0
  -25.9370  -34.5580   23.5650 C   0  0  0  0  0  0  0  0  0  0  0  0
  -26.6230  -34.5270   22.5390 O   0  0  0  0  0  0  0  0  0  0  0  0
  -24.9880  -33.5420   25.0400 H   0  0  0  0  0  0  0  0  0  0  0  0
  -24.2010  -36.3620   23.3230 C   0  0  0  0  0  1  0  0  0  0  0  0
  -25.4430  -35.9120   24.1120 C   0  0  0  0  0  3  0  0  0  0  0  0
  -27.5730  -36.7510   25.0020 C   0  0  0  0  0  1  0  0  0  0  0  0
  -26.4710  -36.9760   24.0720 N   0  0  0  0  0  0  0  0  0  0  0  0
  -26.0580  -37.8810   24.2830 H   0  0  0  0  0  0  0  0  0  0  0  0
  1  3  1  0
  2  3  2  0
  3  9  1  0
  4  1  2  0
  4 50  1  0
  5  6  2  0
  5  4  1  0
  6  2  1  0
  7  6  1  0
  9  8  1  0
  9 18  1  0
 10 16  1  0
 10 18  1  0
 11 16  1  0
 12 13  1  0
 12 11  1  0
 14 13  1  0
 14 23  1  0
 14 15  1  0
 16 15  1  0
 17 10  2  0
 18 19  1  0
 20 21  2  0
 21 40  1  0
 22 21  1  0
 22 25  1  0
 23 24  1  0
 23 20  1  0
 24 22  2  0
 25 26  1  0
 26 27  2  0
 28 31  1  0
 28 27  1  0
 29 28  2  0
 30 29  1  0
 30 25  2  0
 31 32  1  0
 32 37  2  0
 32 33  1  0
 33 34  2  0
 34 35  1  0
 35 39  1  0
 36 35  2  0
 37 36  1  0
 38 37  1  0
 40 41  1  0
 41 44  1  0
 41 43  1  0
 42 40  2  0
 45 20  1  0
 45 46  1  0
 47 45  1  0
 48  5  1  0
 48 49  1  0
 51 52  1  0
 51 50  2  0
 52 54  1  0
 53 64  2  0
 54 59  1  0
 55 63  1  0
 55 65  1  0
 56 62  1  0
 56 58  1  0
 57 63  1  0
 58 57  1  0
 59 58  2  0
 60 61  1  0
 60 54  2  0
 61 56  2  0
 62 55  1  0
 63 53  1  0
 65 67  2  0
 66 65  1  0
 68 66  1  0
 69 78  2  0
 69 74  1  0
 70 66  1  0
 70 74  1  0
 71 70  1  0
 72 73  1  0
 72 71  1  0
 73 69  1  0
 74 75  2  0
 75 76  1  0
 77 76  2  0
 78 77  1  0
 79 53  1  0
 79 84  1  0
 79 80  1  0
 80 83  1  1
 80 81  1  0
 82 80  1  0
 84 87  1  0
 85 89  1  0
 85 84  1  0
 86 85  2  0
 89 88  1  0
 91 89  1  0
 91 92  1  0
 91 90  1  0
M  ISO  4  10 100  18 100  51 101  52 101
M  END
>  <TORSDO>  (8) 
F 20

>  <SCORE>  (8) 
-12.640

>  <name>  (8) 
7

>  <ligand_id>  (8) 
7

>  <original_smiles>  (8) 
[H]Oc1c(F)c([H])c(C([H])(N([H])C(=O)N2C([H])([H])C([H])([H])C([H])([H])C([H])(n3nc(-c4c([H])c([H])c(Oc5c([H])c([H])c(F)c([H])c5F)c([H])c4[H])c(C(=O)N([H])[H])c3N([H])[H])C2([H])[H])C([H])([H])[H])c([H])c1C([H])([H])C([H])([H])Oc1c([H])c([H])c2c(c1[H])C([H])([H])N(C(=O)C([H])(N([H])C(=O)C([H])(N([H])C([H])([H])[H])C([H])([H])[H])C(C([H])([H])[H])(C([H])([H])[H])C([H])([H])[H])C([H])(C(=O)N([H])C1([H])c3c([H])c([H])c([H])c([H])c3C([H])([H])C([H])([H])C1([H])[H])C2([H])[H]

>  <smiles>  (8) 
[H]Oc1c(F)c([H])c(C([H])(N([H])C(=O)N2C([H])([H])C([H])([H])C([H])([H])C([H])(n3nc(-c4c([H])c([H])c(Oc5c([H])c([H])c(F)c([H])c5F)c([H])c4[H])c(C(=O)N([H])[H])c3N([H])[H])C2([H])[H])C([H])([H])[H])c([H])c1C([H])([H])C([H])([H])Oc1c([H])c([H])c2c(c1[H])C([H])([H])N(C(=O)C([H])(N([H])C(=O)C([H])(N([H])C([H])([H])[H])C([H])([H])[H])C(C([H])([H])[H])(C([H])([H])[H])C([H])([H])[H])C([H])(C(=O)N([H])C1([H])c3c([H])c([H])c([H])c([H])c3C([H])([H])C([H])([H])C1([H])[H])C2([H])[H]

$$$$
8:0:0
     RDKit          3D

 91 99  0  0  1  0  0  0  0  0999 V2000
  -30.0010  -22.6000   19.6410 C   0  0  0  0  0  3  0  0  0  0  0  0
  -29.8450  -24.0830   19.6800 C   0  0  0  0  0  3  0  0  0  0  0  0
  -27.5730  -23.8890   19.6960 C   0  0  0  0  0  3  0  0  0  0  0  0
  -28.9500  -21.5880   19.6350 C   0  0  0  0  0  0  0  0  0  0  0  0
  -28.6220  -24.8890   19.7080 C   0  0  0  0  0  0  0  0  0  0  0  0
  -27.7020  -22.3930   19.6730 C   0  0  0  0  0  0  0  0  0  0  0  0
  -29.0000  -19.8460   19.5950 C   0  0  0  0  0  0  0  0  0  0  0  0
  -27.8730  -19.3490   19.5820 O   0  0  0  0  0  0  0  0  0  0  0  0
  -29.9240  -17.1470   19.7770 C   0  0  0  0  0  3  0  0  0  0  0  0
  -30.1290  -18.5960   19.5630 C   0  0  0  0  0  0  0  0  0  0  0  0
  -30.8380  -15.8040   19.7880 C   0  0  0  0  0  0  0  0  0  0  0  0
  -30.9340  -13.2590   19.2880 C   0  0  0  0  0  2  0  0  0  0  0  0
  -30.0360  -12.8700   18.0840 C   0  0  0  0  0  2  0  0  0  0  0  0
  -28.5910  -12.6080   18.5450 C   0  0  0  0  0  2  0  0  0  0  0  0
  -28.0940  -13.6970   19.5290 C   0  0  0  0  0  3  0  0  0  0  0  0
  -29.1220  -14.0230   20.6300 C   0  0  0  0  0  2  0  0  0  0  0  0
  -30.3490  -14.4780   19.9600 N   0  0  0  0  0  0  0  0  0  0  0  0
  -32.0510  -15.8170   19.5240 O   0  0  0  0  0  0  0  0  0  0  0  0
  -25.7790  -14.2940   20.4120 C   0  0  0  0  0  0  0  0  0  0  0  0
  -24.7040  -13.5340   20.7800 C   0  0  0  0  0  0  0  0  0  0  0  0
  -25.1190  -12.1730   20.6560 C   0  0  0  0  0  0  0  0  0  0  0  0
  -26.7770  -13.3980   20.0730 N   0  0  0  0  0  0  0  0  0  0  0  0
  -26.3960  -12.1110   20.2900 N   0  0  0  0  0  0  0  0  0  0  0  0
  -24.3530  -10.9270   20.8060 C   0  0  0  0  0  0  0  0  0  0  0  0
  -24.7290   -9.9350   21.7380 C   0  0  0  0  0  3  0  0  0  0  0  0
  -23.9620   -8.7580   21.8780 C   0  0  0  0  0  3  0  0  0  0  0  0
  -22.8050   -8.5660   21.0870 C   0  0  0  0  0  0  0  0  0  0  0  0
  -22.4480   -9.5470   20.1430 C   0  0  0  0  0  3  0  0  0  0  0  0
  -23.2160  -10.7140   20.0020 C   0  0  0  0  0  3  0  0  0  0  0  0
  -22.0140   -7.4440   21.1360 O   0  0  0  0  0  0  0  0  0  0  0  0
  -21.8510   -6.7270   22.2960 C   0  0  0  0  0  0  0  0  0  0  0  0
  -21.2990   -7.3070   23.4590 C   0  0  0  0  0  3  0  0  0  0  0  0
  -21.0860   -6.5170   24.6070 C   0  0  0  0  0  3  0  0  0  0  0  0
  -21.4150   -5.1480   24.5890 C   0  0  0  0  0  0  0  0  0  0  0  0
  -21.9590   -4.5680   23.4300 C   0  0  0  0  0  3  0  0  0  0  0  0
  -22.1730   -5.3550   22.2860 C   0  0  0  0  0  0  0  0  0  0  0  0
  -22.6790   -4.7860   21.1650 F   0  0  0  0  0  0  0  0  0  0  0  0
  -21.2020   -4.3870   25.6880 F   0  0  0  0  0  0  0  0  0  0  0  0
  -23.3370  -14.0460   21.1310 C   0  0  0  0  0  0  0  0  0  0  0  0
  -22.6130  -13.3270   21.9810 N   0  0  0  0  0  0  0  0  0  0  0  0
  -22.9250  -15.1160   20.6870 O   0  0  0  0  0  0  0  0  0  0  0  0
  -22.9610  -12.4610   22.3630 H   0  0  0  0  0  0  0  0  0  0  0  0
  -21.6970  -13.6520   22.2580 H   0  0  0  0  0  0  0  0  0  0  0  0
  -25.9830  -15.6670   20.3090 N   0  0  0  0  0  0  0  0  0  0  0  0
  -25.2430  -16.3340   20.5000 H   0  0  0  0  0  0  0  0  0  0  0  0
  -26.8320  -16.1040   19.9730 H   0  0  0  0  0  0  0  0  0  0  0  0
  -31.3690  -19.0320   19.2950 O   0  0  0  0  0  0  0  0  0  0  0  0
  -31.9450  -18.2790   19.2790 H   0  0  0  0  0  0  0  0  0  0  0  0
  -25.2650  -22.2750   19.6880 C   0  0  0  0  0  1  0  0  0  0  0  0
  -26.5420  -21.6390   19.7040 O   0  0  0  0  0  0  0  0  0  0  0  0
  -28.5660  -26.4210   19.8300 O   0  0  0  0  0  0  0  0  0  0  0  0
  -24.8670  -31.9580   23.3780 C   0  0  0  0  0  0  0  0  0  0  0  0
  -27.4870  -27.4380   19.9220 C   0  0  0  0  0  0  0  0  0  0  0  0
  -23.6930  -30.7160   21.6050 C   0  0  0  0  0  3  0  0  0  0  0  0
  -25.1620  -29.2680   20.0430 C   0  0  0  0  0  0  0  0  0  0  0  0
  -26.2540  -30.9730   21.4910 C   0  0  0  0  0  2  0  0  0  0  0  0
  -26.3400  -29.6320   20.7080 C   0  0  0  0  0  0  0  0  0  0  0  0
  -27.4950  -28.7380   20.6250 C   0  0  0  0  0  3  0  0  0  0  0  0
  -26.2810  -27.2210   19.2230 C   0  0  0  0  0  3  0  0  0  0  0  0
  -25.1550  -28.0840   19.2850 C   0  0  0  0  0  3  0  0  0  0  0  0
  -23.9350  -30.1690   20.1700 C   0  0  0  0  0  2  0  0  0  0  0  0
  -24.9590  -31.2380   22.2140 N   0  0  0  0  0  0  0  0  0  0  0  0
  -23.7730  -32.1830   23.9210 O   0  0  0  0  0  0  0  0  0  0  0  0
  -23.0090  -29.6230   22.4660 C   0  0  0  0  0  0  0  0  0  0  0  0
  -21.6840  -29.4460   22.3090 N   0  0  0  0  0  0  0  0  0  0  0  0
  -23.6770  -28.9370   23.2440 O   0  0  0  0  0  0  0  0  0  0  0  0
  -21.1990  -30.0540   21.6650 H   0  0  0  0  0  0  0  0  0  0  0  0
  -18.3050  -28.1950   22.7310 C   0  0  0  0  0  0  0  0  0  0  0  0
  -20.8700  -28.4270   22.9800 C   0  0  0  0  0  3  0  0  0  0  0  0
  -20.9570  -27.0710   22.2390 C   0  0  0  0  0  2  0  0  0  0  0  0
  -19.8370  -26.8700   21.2140 C   0  0  0  0  0  2  0  0  0  0  0  0
  -18.4670  -26.9360   21.8960 C   0  0  0  0  0  2  0  0  0  0  0  0
  -19.4330  -28.9030   23.2260 C   0  0  0  0  0  0  0  0  0  0  0  0
  -19.2250  -30.0820   23.9730 C   0  0  0  0  0  3  0  0  0  0  0  0
  -17.9240  -30.5560   24.2250 C   0  0  0  0  0  3  0  0  0  0  0  0
  -16.8120  -29.8450   23.7420 C   0  0  0  0  0  3  0  0  0  0  0  0
  -17.0020  -28.6650   23.0020 C   0  0  0  0  0  3  0  0  0  0  0  0
  -26.1290  -32.5500   24.0770 C   0  0  0  0  0  3  0  0  0  0  0  0
  -26.5890  -31.7140   25.3360 C   0  0  1  0  0  0  0  0  0  0  0  0
  -25.4540  -31.4450   26.3540 C   0  0  0  0  0  1  0  0  0  0  0  0
  -27.1670  -30.3460   24.9090 C   0  0  0  0  0  1  0  0  0  0  0  0
  -27.7250  -32.4600   26.0730 C   0  0  0  0  0  1  0  0  0  0  0  0
  -25.8200  -33.9340   24.4740 N   0  0  0  0  0  0  0  0  0  0  0  0
  -26.1390  -35.0260   23.7660 C   0  0  0  0  0  0  0  0  0  0  0  0
  -26.7870  -34.9730   22.7170 O   0  0  0  0  0  0  0  0  0  0  0  0
  -25.2410  -34.0480   25.2920 H   0  0  0  0  0  0  0  0  0  0  0  0
  -24.3860  -36.8240   23.5710 C   0  0  0  0  0  1  0  0  0  0  0  0
  -25.6680  -36.3930   24.3040 C   0  0  0  0  0  3  0  0  0  0  0  0
  -27.8260  -37.2730   25.0780 C   0  0  0  0  0  1  0  0  0  0  0  0
  -26.6870  -37.4590   24.1830 N   0  0  0  0  0  0  0  0  0  0  0  0
  -26.2800  -38.3710   24.3740 H   0  0  0  0  0  0  0  0  0  0  0  0
  1  2  1  0
  2  5  2  0
  3  5  1  0
  4  1  2  0
  4  6  1  0
  5 51  1  0
  6  3  2  0
  6 50  1  0
  7  4  1  0
  8  7  2  0
  9 11  1  0
 10  7  1  0
 10  9  2  0
 11 17  1  0
 12 17  1  0
 13 14  1  0
 13 12  1  0
 15 14  1  0
 15 22  1  0
 15 16  1  0
 17 16  1  0
 18 11  2  0
 19 20  2  0
 20 39  1  0
 21 20  1  0
 21 24  1  0
 22 23  1  0
 22 19  1  0
 23 21  2  0
 24 25  1  0
 25 26  2  0
 27 30  1  0
 27 26  1  0
 28 27  2  0
 29 28  1  0
 29 24  2  0
 30 31  1  0
 31 32  1  0
 32 33  2  0
 34 33  1  0
 34 38  1  0
 35 34  2  0
 36 31  2  0
 36 35  1  0
 37 36  1  0
 39 40  1  0
 40 43  1  0
 40 42  1  0
 41 39  2  0
 44 19  1  0
 44 45  1  0
 46 44  1  0
 47 10  1  0
 48 47  1  0
 49 50  1  0
 51 53  1  0
 52 63  2  0
 53 58  1  0
 54 62  1  0
 54 64  1  0
 55 61  1  0
 55 57  1  0
 56 62  1  0
 57 56  1  0
 58 57  2  0
 59 60  1  0
 59 53  2  0
 60 55  2  0
 61 54  1  0
 62 52  1  0
 64 66  2  0
 65 64  1  0
 67 65  1  0
 68 77  2  0
 68 73  1  0
 69 65  1  0
 69 73  1  0
 70 69  1  0
 71 72  1  0
 71 70  1  0
 72 68  1  0
 73 74  2  0
 74 75  1  0
 76 75  2  0
 77 76  1  0
 78 52  1  0
 78 83  1  0
 78 79  1  0
 79 82  1  1
 79 80  1  0
 81 79  1  0
 83 86  1  0
 84 88  1  0
 84 83  1  0
 85 84  2  0
 88 87  1  0
 90 88  1  0
 90 91  1  0
 90 89  1  0
M  ISO  4   5 101   9 100  11 100  51 101
M  END
>  <TORSDO>  (9) 
F 20

>  <SCORE>  (9) 
-12.826

>  <name>  (9) 
8

>  <ligand_id>  (9) 
8

>  <original_smiles>  (9) 
[H]OC(C(=O)c1c([H])c([H])c(Oc2c([H])c([H])c3c(c2[H])C([H])([H])N(C(=O)C([H])(N([H])C(=O)C([H])(N([H])C([H])([H])[H])C([H])([H])[H])C(C([H])([H])[H])(C([H])([H])[H])C([H])([H])[H])C([H])(C(=O)N([H])C2([H])c4c([H])c([H])c([H])c([H])c4C([H])([H])C([H])([H])C2([H])[H])C3([H])[H])c([H])c1OC([H])([H])[H])=C([H])C(=O)N1C([H])([H])C([H])([H])C([H])([H])C([H])(n2nc(-c3c([H])c([H])c(Oc4c([H])c([H])c(F)c([H])c4F)c([H])c3[H])c(C(=O)N([H])[H])c2N([H])[H])C1([H])[H]

>  <smiles>  (9) 
[H]OC(C(=O)c1c([H])c([H])c(Oc2c([H])c([H])c3c(c2[H])C([H])([H])N(C(=O)C([H])(N([H])C(=O)C([H])(N([H])C([H])([H])[H])C([H])([H])[H])C(C([H])([H])[H])(C([H])([H])[H])C([H])([H])[H])C([H])(C(=O)N([H])C2([H])c4c([H])c([H])c([H])c([H])c4C([H])([H])C([H])([H])C2([H])[H])C3([H])[H])c([H])c1OC([H])([H])[H])=C([H])C(=O)N1C([H])([H])C([H])([H])C([H])([H])C([H])(n2nc(-c3c([H])c([H])c(Oc4c([H])c([H])c(F)c([H])c4F)c([H])c3[H])c(C(=O)N([H])[H])c2N([H])[H])C1([H])[H]

$$$$
9:0:0
     RDKit          3D

 88 96  0  0  1  0  0  0  0  0999 V2000
  -29.1080  -22.5010   20.0990 C   0  0  0  0  0  3  0  0  0  0  0  0
  -27.3810  -21.4540   20.6840 C   0  0  0  0  0  3  0  0  0  0  0  0
  -28.6360  -20.9540   20.2850 C   0  0  0  0  0  0  0  0  0  0  0  0
  -28.2170  -23.7460   20.3300 C   0  0  0  0  0  0  0  0  0  0  0  0
  -27.1470  -22.9020   20.7100 N   0  0  0  0  0  0  0  0  0  0  0  0
  -29.7760  -17.7240   20.2380 C   0  0  0  0  0  0  0  0  0  0  0  0
  -28.9100  -19.0680   20.0970 C   0  0  0  0  0  0  0  0  0  0  0  0
  -30.3150  -16.0110   20.1290 C   0  0  0  0  0  0  0  0  0  0  0  0
  -30.4040  -13.4060   19.3280 C   0  0  0  0  0  2  0  0  0  0  0  0
  -29.5230  -12.8850   18.1510 C   0  0  0  0  0  2  0  0  0  0  0  0
  -28.1360  -12.4680   18.6480 C   0  0  0  0  0  2  0  0  0  0  0  0
  -27.6050  -13.4830   19.6810 C   0  0  0  0  0  3  0  0  0  0  0  0
  -28.6350  -13.9310   20.7500 C   0  0  0  0  0  2  0  0  0  0  0  0
  -29.7590  -14.6230   20.0560 N   0  0  0  0  0  0  0  0  0  0  0  0
  -31.5380  -15.7900   19.9700 O   0  0  0  0  0  0  0  0  0  0  0  0
  -25.2760  -13.9550   20.5480 C   0  0  0  0  0  0  0  0  0  0  0  0
  -24.2370  -13.1560   20.9280 C   0  0  0  0  0  0  0  0  0  0  0  0
  -24.7190  -11.8120   20.8490 C   0  0  0  0  0  0  0  0  0  0  0  0
  -26.3200  -13.1030   20.2470 N   0  0  0  0  0  0  0  0  0  0  0  0
  -26.0020  -11.8030   20.4950 N   0  0  0  0  0  0  0  0  0  0  0  0
  -24.0050  -10.5390   21.0300 C   0  0  0  0  0  0  0  0  0  0  0  0
  -24.4440   -9.5680   21.9560 C   0  0  0  0  0  3  0  0  0  0  0  0
  -23.7240   -8.3660   22.1310 C   0  0  0  0  0  3  0  0  0  0  0  0
  -22.5490   -8.1260   21.3780 C   0  0  0  0  0  0  0  0  0  0  0  0
  -22.1280   -9.0860   20.4420 C   0  0  0  0  0  3  0  0  0  0  0  0
  -22.8490  -10.2790   20.2660 C   0  0  0  0  0  3  0  0  0  0  0  0
  -21.8010   -6.9760   21.4620 O   0  0  0  0  0  0  0  0  0  0  0  0
  -21.7300   -6.2440   22.6210 C   0  0  0  0  0  0  0  0  0  0  0  0
  -21.2350   -6.7980   23.8220 C   0  0  0  0  0  3  0  0  0  0  0  0
  -21.1130   -5.9920   24.9710 C   0  0  0  0  0  3  0  0  0  0  0  0
  -21.4770   -4.6330   24.9200 C   0  0  0  0  0  0  0  0  0  0  0  0
  -21.9640   -4.0790   23.7240 C   0  0  0  0  0  3  0  0  0  0  0  0
  -22.0870   -4.8820   22.5770 C   0  0  0  0  0  0  0  0  0  0  0  0
  -22.5370   -4.3370   21.4210 F   0  0  0  0  0  0  0  0  0  0  0  0
  -21.3530   -3.8560   26.0220 F   0  0  0  0  0  0  0  0  0  0  0  0
  -22.8440  -13.6150   21.2420 C   0  0  0  0  0  0  0  0  0  0  0  0
  -22.1510  -12.9070   22.1240 N   0  0  0  0  0  0  0  0  0  0  0  0
  -22.3830  -14.6400   20.7400 O   0  0  0  0  0  0  0  0  0  0  0  0
  -22.5400  -12.0800   22.5510 H   0  0  0  0  0  0  0  0  0  0  0  0
  -21.2170  -13.1970   22.3770 H   0  0  0  0  0  0  0  0  0  0  0  0
  -25.4180  -15.3320   20.4000 N   0  0  0  0  0  0  0  0  0  0  0  0
  -24.6500  -15.9750   20.5590 H   0  0  0  0  0  0  0  0  0  0  0  0
  -26.2560  -15.7940   20.0680 H   0  0  0  0  0  0  0  0  0  0  0  0
  -27.7340  -18.8030   19.4990 O   0  0  0  0  0  0  0  0  0  0  0  0
  -27.2850  -19.6330   19.3920 H   0  0  0  0  0  0  0  0  0  0  0  0
  -25.9350  -23.4190   21.0910 O   0  0  0  0  0  0  0  0  0  0  0  0
  -26.0600  -23.6890   21.9960 H   0  0  0  0  0  0  0  0  0  0  0  0
  -28.2130  -25.3860   20.3070 O   0  0  0  0  0  0  0  0  0  0  0  0
  -24.7220  -31.8930   23.2450 C   0  0  0  0  0  0  0  0  0  0  0  0
  -27.2380  -26.6570   20.3110 C   0  0  0  0  0  0  0  0  0  0  0  0
  -23.5450  -30.4870   21.6110 C   0  0  0  0  0  3  0  0  0  0  0  0
  -24.9940  -28.8000   20.2240 C   0  0  0  0  0  0  0  0  0  0  0  0
  -26.1310  -30.5770   21.5210 C   0  0  0  0  0  2  0  0  0  0  0  0
  -26.1900  -29.1230   20.8760 C   0  0  0  0  0  0  0  0  0  0  0  0
  -27.2870  -28.0850   20.8830 C   0  0  0  0  0  3  0  0  0  0  0  0
  -26.0100  -26.5900   19.5940 C   0  0  0  0  0  3  0  0  0  0  0  0
  -24.9520  -27.5600   19.5600 C   0  0  0  0  0  3  0  0  0  0  0  0
  -23.7990  -29.7740   20.2500 C   0  0  0  0  0  2  0  0  0  0  0  0
  -24.8250  -31.0240   22.1780 N   0  0  0  0  0  0  0  0  0  0  0  0
  -23.6230  -32.2050   23.7410 O   0  0  0  0  0  0  0  0  0  0  0  0
  -22.8080  -29.5280   22.5850 C   0  0  0  0  0  0  0  0  0  0  0  0
  -21.4740  -29.3810   22.4530 N   0  0  0  0  0  0  0  0  0  0  0  0
  -23.4510  -28.9110   23.4370 O   0  0  0  0  0  0  0  0  0  0  0  0
  -21.0030  -29.9290   21.7460 H   0  0  0  0  0  0  0  0  0  0  0  0
  -18.0790  -28.1780   22.9590 C   0  0  0  0  0  0  0  0  0  0  0  0
  -20.6390  -28.4520   23.2260 C   0  0  0  0  0  3  0  0  0  0  0  0
  -20.7410  -27.0150   22.6640 C   0  0  0  0  0  2  0  0  0  0  0  0
  -19.6450  -26.6880   21.6450 C   0  0  0  0  0  2  0  0  0  0  0  0
  -18.2600  -26.8290   22.2820 C   0  0  0  0  0  2  0  0  0  0  0  0
  -19.1950  -28.9470   23.3870 C   0  0  0  0  0  0  0  0  0  0  0  0
  -18.9660  -30.2040   23.9870 C   0  0  0  0  0  3  0  0  0  0  0  0
  -17.6570  -30.6950   24.1570 C   0  0  0  0  0  3  0  0  0  0  0  0
  -16.5580  -29.9250   23.7410 C   0  0  0  0  0  3  0  0  0  0  0  0
  -16.7700  -28.6680   23.1480 C   0  0  0  0  0  3  0  0  0  0  0  0
  -25.9750  -32.5520   23.8970 C   0  0  0  0  0  3  0  0  0  0  0  0
  -26.4590  -31.8030   25.2010 C   0  0  1  0  0  0  0  0  0  0  0  0
  -25.3410  -31.5890   26.2500 C   0  0  0  0  0  1  0  0  0  0  0  0
  -27.0460  -30.4160   24.8630 C   0  0  0  0  0  1  0  0  0  0  0  0
  -27.5970  -32.6060   25.8750 C   0  0  0  0  0  1  0  0  0  0  0  0
  -25.6480  -33.9560   24.2270 N   0  0  0  0  0  0  0  0  0  0  0  0
  -25.9500  -35.0210   23.4720 C   0  0  0  0  0  0  0  0  0  0  0  0
  -26.5870  -34.9280   22.4200 O   0  0  0  0  0  0  0  0  0  0  0  0
  -25.0750  -34.0990   25.0450 H   0  0  0  0  0  0  0  0  0  0  0  0
  -24.1840  -36.8050   23.2200 C   0  0  0  0  0  1  0  0  0  0  0  0
  -25.4750  -36.4100   23.9550 C   0  0  0  0  0  3  0  0  0  0  0  0
  -27.6380  -37.3360   24.6650 C   0  0  0  0  0  1  0  0  0  0  0  0
  -26.4860  -37.4770   23.7780 N   0  0  0  0  0  0  0  0  0  0  0  0
  -26.0750  -38.3930   23.9340 H   0  0  0  0  0  0  0  0  0  0  0  0
  1  3  1  0
  1  4  2  0
  2  5  1  0
  3  2  2  0
  4  5  1  0
  5 46  1  0
  7  6  2  0
  7  3  1  0
  8  6  2  0
  9 14  1  0
 10 11  1  0
 10  9  1  0
 12 11  1  0
 12 19  1  0
 12 13  1  0
 14  8  1  0
 14 13  1  0
 15  8  2  0
 16 17  2  0
 17 36  1  0
 18 17  1  0
 18 21  1  0
 19 20  1  0
 19 16  1  0
 20 18  2  0
 21 22  1  0
 22 23  2  0
 24 27  1  0
 24 23  1  0
 25 24  2  0
 26 25  1  0
 26 21  2  0
 27 28  1  0
 28 29  1  0
 29 30  2  0
 31 30  1  0
 31 35  1  0
 32 31  2  0
 33 28  2  0
 33 32  1  0
 34 33  1  0
 36 37  1  0
 37 40  1  0
 37 39  1  0
 38 36  2  0
 41 16  1  0
 41 42  1  0
 43 41  1  0
 44  7  1  0
 45 44  1  0
 46 47  1  0
 48 50  1  0
 48  4  1  0
 49 60  2  0
 50 55  1  0
 51 59  1  0
 51 61  1  0
 52 58  1  0
 52 54  1  0
 53 59  1  0
 54 55  2  0
 54 53  1  0
 56 50  2  0
 57 56  1  0
 57 52  2  0
 58 51  1  0
 59 49  1  0
 61 63  2  0
 62 61  1  0
 64 62  1  0
 65 74  2  0
 65 70  1  0
 66 62  1  0
 66 70  1  0
 67 66  1  0
 68 69  1  0
 68 67  1  0
 69 65  1  0
 70 71  2  0
 71 72  1  0
 73 72  2  0
 74 73  1  0
 75 49  1  0
 75 80  1  0
 75 76  1  0
 76 79  1  1
 76 77  1  0
 78 76  1  0
 80 83  1  0
 81 85  1  0
 81 80  1  0
 82 81  2  0
 85 84  1  0
 87 88  1  0
 87 85  1  0
 87 86  1  0
M  ISO  4   4 101   6 100   8 100  48 101
M  END
>  <TORSDO>  (10) 
F 19

>  <SCORE>  (10) 
-15.086

>  <name>  (10) 
9

>  <ligand_id>  (10) 
9

>  <original_smiles>  (10) 
[H]OC(=C([H])C(=O)N1C([H])([H])C([H])([H])C([H])([H])C([H])(n2nc(-c3c([H])c([H])c(Oc4c([H])c([H])c(F)c([H])c4F)c([H])c3[H])c(C(=O)N([H])[H])c2N([H])[H])C1([H])[H])c1c([H])c(Oc2c([H])c([H])c3c(c2[H])C([H])([H])N(C(=O)C([H])(N([H])C(=O)C([H])(N([H])C([H])([H])[H])C([H])([H])[H])C(C([H])([H])[H])(C([H])([H])[H])C([H])([H])[H])C([H])(C(=O)N([H])C2([H])c4c([H])c([H])c([H])c([H])c4C([H])([H])C([H])([H])C2([H])[H])C3([H])[H])n(O[H])c1[H]

>  <smiles>  (10) 
[H]OC(=C([H])C(=O)N1C([H])([H])C([H])([H])C([H])([H])C([H])(n2nc(-c3c([H])c([H])c(Oc4c([H])c([H])c(F)c([H])c4F)c([H])c3[H])c(C(=O)N([H])[H])c2N([H])[H])C1([H])[H])c1c([H])c(Oc2c([H])c([H])c3c(c2[H])C([H])([H])N(C(=O)C([H])(N([H])C(=O)C([H])(N([H])C([H])([H])[H])C([H])([H])[H])C(C([H])([H])[H])(C([H])([H])[H])C([H])([H])[H])C([H])(C(=O)N([H])C2([H])c4c([H])c([H])c([H])c([H])c4C([H])([H])C([H])([H])C2([H])[H])C3([H])[H])n(O[H])c1[H]

$$$$
10:0:0
     RDKit          3D

 90 98  0  0  1  0  0  0  0  0999 V2000
  -30.0060  -22.6120   19.6710 C   0  0  0  0  0  3  0  0  0  0  0  0
  -29.8350  -24.0930   19.6880 C   0  0  0  0  0  3  0  0  0  0  0  0
  -27.5620  -23.8730   19.7240 C   0  0  0  0  0  3  0  0  0  0  0  0
  -28.9640  -21.5940   19.6720 C   0  0  0  0  0  0  0  0  0  0  0  0
  -28.6030  -24.8810   19.7080 C   0  0  0  0  0  0  0  0  0  0  0  0
  -27.7090  -22.3810   19.7030 C   0  0  0  0  0  0  0  0  0  0  0  0
  -29.0210  -19.8610   19.5600 C   0  0  0  0  0  0  0  0  0  0  0  0
  -27.9300  -19.3800   19.2350 O   0  0  0  0  0  0  0  0  0  0  0  0
  -30.1840  -18.4740   19.7550 C   0  0  0  0  0  0  0  0  0  0  0  0
  -31.3480  -18.8890   19.8120 O   0  0  0  0  0  0  0  0  0  0  0  0
  -29.9500  -16.9970   19.8340 N   0  0  0  0  0  2  0  0  0  0  0  0
  -30.7410  -15.7410   19.7220 C   0  0  0  0  0  0  0  0  0  0  0  0
  -30.7580  -13.2340   19.0230 C   0  0  0  0  0  2  0  0  0  0  0  0
  -29.8030  -12.9860   17.8260 C   0  0  0  0  0  2  0  0  0  0  0  0
  -28.3650  -12.7330   18.3130 C   0  0  0  0  0  2  0  0  0  0  0  0
  -27.9410  -13.7430   19.4070 C   0  0  0  0  0  3  0  0  0  0  0  0
  -29.0200  -13.9410   20.4900 C   0  0  0  0  0  2  0  0  0  0  0  0
  -30.2460  -14.4090   19.8210 N   0  0  0  0  0  0  0  0  0  0  0  0
  -31.9450  -15.7030   19.4290 O   0  0  0  0  0  0  0  0  0  0  0  0
  -25.6310  -14.3230   20.3210 C   0  0  0  0  0  0  0  0  0  0  0  0
  -24.5710  -13.5550   20.7150 C   0  0  0  0  0  0  0  0  0  0  0  0
  -25.0010  -12.1960   20.6000 C   0  0  0  0  0  0  0  0  0  0  0  0
  -26.6360  -13.4350   19.9780 N   0  0  0  0  0  0  0  0  0  0  0  0
  -26.2710  -12.1460   20.2130 N   0  0  0  0  0  0  0  0  0  0  0  0
  -24.2530  -10.9440   20.7760 C   0  0  0  0  0  0  0  0  0  0  0  0
  -24.6540   -9.9680   21.7140 C   0  0  0  0  0  3  0  0  0  0  0  0
  -23.9050   -8.7820   21.8810 C   0  0  0  0  0  3  0  0  0  0  0  0
  -22.7400   -8.5650   21.1080 C   0  0  0  0  0  0  0  0  0  0  0  0
  -22.3570   -9.5290   20.1590 C   0  0  0  0  0  3  0  0  0  0  0  0
  -23.1070  -10.7060   19.9920 C   0  0  0  0  0  3  0  0  0  0  0  0
  -21.9640   -7.4330   21.1820 O   0  0  0  0  0  0  0  0  0  0  0  0
  -21.8280   -6.7290   22.3520 C   0  0  0  0  0  0  0  0  0  0  0  0
  -21.2870   -7.3170   23.5160 C   0  0  0  0  0  3  0  0  0  0  0  0
  -21.0990   -6.5390   24.6770 C   0  0  0  0  0  3  0  0  0  0  0  0
  -21.4420   -5.1740   24.6720 C   0  0  0  0  0  0  0  0  0  0  0  0
  -21.9760   -4.5850   23.5120 C   0  0  0  0  0  3  0  0  0  0  0  0
  -22.1650   -5.3610   22.3540 C   0  0  0  0  0  0  0  0  0  0  0  0
  -22.6600   -4.7830   21.2330 F   0  0  0  0  0  0  0  0  0  0  0  0
  -21.2560   -4.4240   25.7840 F   0  0  0  0  0  0  0  0  0  0  0  0
  -23.2040  -14.0500   21.0820 C   0  0  0  0  0  0  0  0  0  0  0  0
  -22.5020  -13.3290   21.9480 N   0  0  0  0  0  0  0  0  0  0  0  0
  -22.7690  -15.1120   20.6380 O   0  0  0  0  0  0  0  0  0  0  0  0
  -22.8690  -12.4690   22.3290 H   0  0  0  0  0  0  0  0  0  0  0  0
  -21.5850  -13.6420   22.2360 H   0  0  0  0  0  0  0  0  0  0  0  0
  -25.8220  -15.6950   20.2010 N   0  0  0  0  0  0  0  0  0  0  0  0
  -25.0970  -16.3720   20.4180 H   0  0  0  0  0  0  0  0  0  0  0  0
  -26.6950  -16.1260   19.9190 H   0  0  0  0  0  0  0  0  0  0  0  0
  -25.3100  -22.1770   19.3800 C   0  0  0  0  0  1  0  0  0  0  0  0
  -26.5640  -21.6080   19.7370 O   0  0  0  0  0  0  0  0  0  0  0  0
  -28.5360  -26.4120   19.8100 O   0  0  0  0  0  0  0  0  0  0  0  0
  -24.7580  -31.9260   23.2870 C   0  0  0  0  0  0  0  0  0  0  0  0
  -27.4490  -27.4170   19.8790 C   0  0  0  0  0  0  0  0  0  0  0  0
  -23.6150  -30.6770   21.4980 C   0  0  0  0  0  3  0  0  0  0  0  0
  -25.1140  -29.2330   19.9620 C   0  0  0  0  0  0  0  0  0  0  0  0
  -26.1760  -30.9450   21.4230 C   0  0  0  0  0  2  0  0  0  0  0  0
  -26.2790  -29.6040   20.6440 C   0  0  0  0  0  0  0  0  0  0  0  0
  -27.4400  -28.7170   20.5810 C   0  0  0  0  0  3  0  0  0  0  0  0
  -26.2550  -27.1900   19.1640 C   0  0  0  0  0  3  0  0  0  0  0  0
  -25.1240  -28.0470   19.2060 C   0  0  0  0  0  3  0  0  0  0  0  0
  -23.8790  -30.1270   20.0690 C   0  0  0  0  0  2  0  0  0  0  0  0
  -24.8700  -31.2040   22.1260 N   0  0  0  0  0  0  0  0  0  0  0  0
  -23.6550  -32.1490   23.8140 O   0  0  0  0  0  0  0  0  0  0  0  0
  -22.9220  -29.5840   22.3510 C   0  0  0  0  0  0  0  0  0  0  0  0
  -21.5950  -29.4200   22.1900 N   0  0  0  0  0  0  0  0  0  0  0  0
  -23.5830  -28.8860   23.1240 O   0  0  0  0  0  0  0  0  0  0  0  0
  -21.1160  -30.0350   21.5480 H   0  0  0  0  0  0  0  0  0  0  0  0
  -18.2010  -28.2200   22.6290 C   0  0  0  0  0  0  0  0  0  0  0  0
  -20.7720  -28.4030   22.8510 C   0  0  0  0  0  3  0  0  0  0  0  0
  -20.8270  -27.0590   22.0870 C   0  0  0  0  0  2  0  0  0  0  0  0
  -19.6920  -26.8960   21.0700 C   0  0  0  0  0  2  0  0  0  0  0  0
  -18.3320  -26.9740   21.7690 C   0  0  0  0  0  2  0  0  0  0  0  0
  -19.3460  -28.9000   23.1240 C   0  0  0  0  0  0  0  0  0  0  0  0
  -19.1670  -30.0690   23.8940 C   0  0  0  0  0  3  0  0  0  0  0  0
  -17.8780  -30.5610   24.1690 C   0  0  0  0  0  3  0  0  0  0  0  0
  -16.7480  -29.8770   23.6870 C   0  0  0  0  0  3  0  0  0  0  0  0
  -16.9110  -28.7080   22.9240 C   0  0  0  0  0  3  0  0  0  0  0  0
  -26.0090  -32.5210   24.0040 C   0  0  0  0  0  3  0  0  0  0  0  0
  -26.4520  -31.6880   25.2700 C   0  0  1  0  0  0  0  0  0  0  0  0
  -25.3050  -31.4180   26.2720 C   0  0  0  0  0  1  0  0  0  0  0  0
  -27.0380  -30.3190   24.8530 C   0  0  0  0  0  1  0  0  0  0  0  0
  -27.5780  -32.4360   26.0220 C   0  0  0  0  0  1  0  0  0  0  0  0
  -25.6900  -33.9050   24.3960 N   0  0  0  0  0  0  0  0  0  0  0  0
  -26.0120  -34.9970   23.6880 C   0  0  0  0  0  0  0  0  0  0  0  0
  -26.6700  -34.9440   22.6470 O   0  0  0  0  0  0  0  0  0  0  0  0
  -25.1020  -34.0180   25.2080 H   0  0  0  0  0  0  0  0  0  0  0  0
  -24.2470  -36.7820   23.4800 C   0  0  0  0  0  1  0  0  0  0  0  0
  -25.5280  -36.3630   24.2180 C   0  0  0  0  0  3  0  0  0  0  0  0
  -27.6790  -37.2610   24.9960 C   0  0  0  0  0  1  0  0  0  0  0  0
  -26.5420  -37.4350   24.0960 N   0  0  0  0  0  0  0  0  0  0  0  0
  -26.1290  -38.3450   24.2820 H   0  0  0  0  0  0  0  0  0  0  0  0
  1  4  2  0
  1  2  1  0
  2  5  2  0
  4  6  1  0
  5  3  1  0
  5 50  1  0
  6  3  2  0
  6 49  1  0
  7  4  1  0
  7  9  1  0
  8  7  2  0
  9 10  2  0
  9 11  1  0
 12 18  1  0
 12 11  1  0
 13 18  1  0
 14 15  1  0
 14 13  1  0
 16 15  1  0
 16 23  1  0
 16 17  1  0
 18 17  1  0
 19 12  2  0
 20 21  2  0
 21 40  1  0
 22 21  1  0
 22 25  1  0
 23 24  1  0
 23 20  1  0
 24 22  2  0
 25 26  1  0
 26 27  2  0
 28 31  1  0
 28 27  1  0
 29 28  2  0
 30 29  1  0
 30 25  2  0
 31 32  1  0
 32 37  2  0
 32 33  1  0
 33 34  2  0
 35 34  1  0
 35 39  1  0
 36 35  2  0
 37 36  1  0
 38 37  1  0
 40 41  1  0
 41 44  1  0
 41 43  1  0
 42 40  2  0
 45 20  1  0
 45 46  1  0
 47 45  1  0
 48 49  1  0
 50 52  1  0
 51 62  2  0
 52 57  1  0
 53 61  1  0
 53 63  1  0
 54 60  1  0
 54 56  1  0
 55 61  1  0
 56 55  1  0
 57 56  2  0
 58 59  1  0
 58 52  2  0
 59 54  2  0
 60 53  1  0
 61 51  1  0
 63 65  2  0
 64 63  1  0
 66 64  1  0
 67 76  2  0
 67 72  1  0
 68 64  1  0
 68 72  1  0
 69 68  1  0
 70 71  1  0
 70 69  1  0
 71 67  1  0
 72 73  2  0
 73 74  1  0
 75 74  2  0
 76 75  1  0
 77 51  1  0
 77 82  1  0
 77 78  1  0
 78 81  1  1
 78 79  1  0
 80 78  1  0
 82 85  1  0
 83 87  1  0
 83 82  1  0
 84 83  2  0
 87 86  1  0
 89 87  1  0
 89 90  1  0
 89 88  1  0
M  ISO  4   5 101  11 100  12 100  50 101
M  END
>  <TORSDO>  (11) 
F 20

>  <SCORE>  (11) 
-13.261

>  <name>  (11) 
10

>  <ligand_id>  (11) 
10

>  <original_smiles>  (11) 
[H]c1c([H])c([H])c2c(c1[H])C([H])([H])C([H])([H])C([H])([H])C2([H])N([H])C(=O)C1([H])N(C(=O)C([H])(N([H])C(=O)C([H])(N([H])C([H])([H])[H])C([H])([H])[H])C(C([H])([H])[H])(C([H])([H])[H])C([H])([H])[H])C([H])([H])c2c([H])c(Oc3c([H])c([H])c(C(=O)C(=O)[N-]C(=O)N4C([H])([H])C([H])([H])C([H])([H])C([H])(n5nc(-c6c([H])c([H])c(Oc7c([H])c([H])c(F)c([H])c7F)c([H])c6[H])c(C(=O)N([H])[H])c5N([H])[H])C4([H])[H])c(OC([H])([H])[H])c3[H])c([H])c([H])c2C1([H])[H]

>  <smiles>  (11) 
[H]c1c([H])c([H])c2c(c1[H])C([H])([H])C([H])([H])C([H])([H])C2([H])N([H])C(=O)C1([H])N(C(=O)C([H])(N([H])C(=O)C([H])(N([H])C([H])([H])[H])C([H])([H])[H])C(C([H])([H])[H])(C([H])([H])[H])C([H])([H])[H])C([H])([H])c2c([H])c(Oc3c([H])c([H])c(C(=O)C(=O)[N-]C(=O)N4C([H])([H])C([H])([H])C([H])([H])C([H])(n5nc(-c6c([H])c([H])c(Oc7c([H])c([H])c(F)c([H])c7F)c([H])c6[H])c(C(=O)N([H])[H])c5N([H])[H])C4([H])[H])c(OC([H])([H])[H])c3[H])c([H])c([H])c2C1([H])[H]

$$$$
11:0:0
     RDKit          3D

 88 96  0  0  1  0  0  0  0  0999 V2000
  -27.8810  -21.2610   20.0440 C   0  0  0  0  0  3  0  0  0  0  0  0
  -27.5240  -22.7690   20.0510 C   0  0  0  0  0  3  0  0  0  0  0  0
  -29.6180  -23.2380   20.5280 C   0  0  0  0  0  3  0  0  0  0  0  0
  -29.1700  -20.5110   20.2660 C   0  0  0  0  0  0  0  0  0  0  0  0
  -29.9880  -21.7500   20.5280 C   0  0  0  0  0  0  0  0  0  0  0  0
  -28.3580  -23.9930   20.2960 C   0  0  0  0  0  0  0  0  0  0  0  0
  -31.4570  -21.5200   20.8730 C   0  0  0  0  0  1  0  0  0  0  0  0
  -29.4880  -17.2640   20.4060 C   0  0  0  0  0  3  0  0  0  0  0  0
  -29.7670  -18.7680   20.1890 C   0  0  0  0  0  0  0  0  0  0  0  0
  -30.3030  -15.7460   20.2540 C   0  0  0  0  0  0  0  0  0  0  0  0
  -30.4210  -13.1830   19.4840 C   0  0  0  0  0  2  0  0  0  0  0  0
  -29.5460  -12.7980   18.2560 C   0  0  0  0  0  2  0  0  0  0  0  0
  -28.1180  -12.4370   18.6930 C   0  0  0  0  0  2  0  0  0  0  0  0
  -27.5970  -13.4250   19.7620 C   0  0  0  0  0  3  0  0  0  0  0  0
  -28.6160  -13.7440   20.8800 C   0  0  0  0  0  2  0  0  0  0  0  0
  -29.8000  -14.3680   20.2440 N   0  0  0  0  0  0  0  0  0  0  0  0
  -31.5290  -15.6590   20.0380 O   0  0  0  0  0  0  0  0  0  0  0  0
  -25.2350  -13.9190   20.5510 C   0  0  0  0  0  0  0  0  0  0  0  0
  -24.1850  -13.1230   20.9120 C   0  0  0  0  0  0  0  0  0  0  0  0
  -24.6690  -11.7790   20.8610 C   0  0  0  0  0  0  0  0  0  0  0  0
  -26.2850  -13.0620   20.2840 N   0  0  0  0  0  0  0  0  0  0  0  0
  -25.9620  -11.7660   20.5410 N   0  0  0  0  0  0  0  0  0  0  0  0
  -23.9530  -10.5060   21.0390 C   0  0  0  0  0  0  0  0  0  0  0  0
  -24.3720   -9.5450   21.9860 C   0  0  0  0  0  3  0  0  0  0  0  0
  -23.6530   -8.3430   22.1520 C   0  0  0  0  0  3  0  0  0  0  0  0
  -22.4990   -8.0910   21.3690 C   0  0  0  0  0  0  0  0  0  0  0  0
  -22.0970   -9.0430   20.4150 C   0  0  0  0  0  3  0  0  0  0  0  0
  -22.8170  -10.2370   20.2480 C   0  0  0  0  0  3  0  0  0  0  0  0
  -21.7530   -6.9380   21.4450 O   0  0  0  0  0  0  0  0  0  0  0  0
  -21.6540   -6.2170   22.6090 C   0  0  0  0  0  0  0  0  0  0  0  0
  -21.1220   -6.7810   23.7890 C   0  0  0  0  0  3  0  0  0  0  0  0
  -20.9740   -5.9850   24.9430 C   0  0  0  0  0  3  0  0  0  0  0  0
  -21.3450   -4.6270   24.9160 C   0  0  0  0  0  0  0  0  0  0  0  0
  -21.8680   -4.0640   23.7390 C   0  0  0  0  0  3  0  0  0  0  0  0
  -22.0190   -4.8560   22.5870 C   0  0  0  0  0  0  0  0  0  0  0  0
  -22.5050   -4.3030   21.4500 F   0  0  0  0  0  0  0  0  0  0  0  0
  -21.1950   -3.8620   26.0220 F   0  0  0  0  0  0  0  0  0  0  0  0
  -22.7840  -13.5860   21.1860 C   0  0  0  0  0  0  0  0  0  0  0  0
  -22.0630  -12.8830   22.0510 N   0  0  0  0  0  0  0  0  0  0  0  0
  -22.3390  -14.6100   20.6710 O   0  0  0  0  0  0  0  0  0  0  0  0
  -22.4320  -12.0560   22.4970 H   0  0  0  0  0  0  0  0  0  0  0  0
  -21.1230  -13.1810   22.2730 H   0  0  0  0  0  0  0  0  0  0  0  0
  -25.3810  -15.2940   20.3960 N   0  0  0  0  0  0  0  0  0  0  0  0
  -24.6090  -15.9400   20.5260 H   0  0  0  0  0  0  0  0  0  0  0  0
  -26.2250  -15.7450   20.0710 H   0  0  0  0  0  0  0  0  0  0  0  0
  -30.9790  -18.8800   19.6380 O   0  0  0  0  0  0  0  0  0  0  0  0
  -31.1080  -19.8000   19.4400 H   0  0  0  0  0  0  0  0  0  0  0  0
  -28.2090  -25.6200   20.3060 O   0  0  0  0  0  0  0  0  0  0  0  0
  -24.6390  -31.8980   23.2250 C   0  0  0  0  0  0  0  0  0  0  0  0
  -27.1780  -26.7850   20.2880 C   0  0  0  0  0  0  0  0  0  0  0  0
  -23.4570  -30.4890   21.5930 C   0  0  0  0  0  3  0  0  0  0  0  0
  -24.9060  -28.8200   20.2040 C   0  0  0  0  0  0  0  0  0  0  0  0
  -26.0370  -30.6200   21.4880 C   0  0  0  0  0  2  0  0  0  0  0  0
  -26.0980  -29.1810   20.8450 C   0  0  0  0  0  0  0  0  0  0  0  0
  -27.2130  -28.1910   20.8550 C   0  0  0  0  0  3  0  0  0  0  0  0
  -25.9530  -26.6340   19.5880 C   0  0  0  0  0  3  0  0  0  0  0  0
  -24.8730  -27.5720   19.5550 C   0  0  0  0  0  3  0  0  0  0  0  0
  -23.7020  -29.7760   20.2310 C   0  0  0  0  0  2  0  0  0  0  0  0
  -24.7340  -31.0390   22.1520 N   0  0  0  0  0  0  0  0  0  0  0  0
  -23.5440  -32.2060   23.7250 O   0  0  0  0  0  0  0  0  0  0  0  0
  -22.7350  -29.5240   22.5690 C   0  0  0  0  0  0  0  0  0  0  0  0
  -21.4030  -29.3690   22.4370 N   0  0  0  0  0  0  0  0  0  0  0  0
  -23.3850  -28.9090   23.4180 O   0  0  0  0  0  0  0  0  0  0  0  0
  -20.9290  -29.9150   21.7300 H   0  0  0  0  0  0  0  0  0  0  0  0
  -18.0080  -28.1780   22.9530 C   0  0  0  0  0  0  0  0  0  0  0  0
  -20.5700  -28.4420   23.2140 C   0  0  0  0  0  3  0  0  0  0  0  0
  -20.6670  -27.0050   22.6500 C   0  0  0  0  0  2  0  0  0  0  0  0
  -19.5650  -26.6790   21.6350 C   0  0  0  0  0  2  0  0  0  0  0  0
  -18.1830  -26.8260   22.2780 C   0  0  0  0  0  2  0  0  0  0  0  0
  -19.1290  -28.9420   23.3770 C   0  0  0  0  0  0  0  0  0  0  0  0
  -18.9070  -30.2030   23.9750 C   0  0  0  0  0  3  0  0  0  0  0  0
  -17.6020  -30.6990   24.1490 C   0  0  0  0  0  3  0  0  0  0  0  0
  -16.4980  -29.9340   23.7380 C   0  0  0  0  0  3  0  0  0  0  0  0
  -16.7020  -28.6750   23.1460 C   0  0  0  0  0  3  0  0  0  0  0  0
  -25.8990  -32.5530   23.8700 C   0  0  0  0  0  3  0  0  0  0  0  0
  -25.5780  -33.9600   24.1830 N   0  0  0  0  0  0  0  0  0  0  0  0
  -25.9060  -35.0180   23.4270 C   0  0  0  0  0  0  0  0  0  0  0  0
  -26.5690  -34.9100   22.3910 O   0  0  0  0  0  0  0  0  0  0  0  0
  -24.9860  -34.1130   24.9860 H   0  0  0  0  0  0  0  0  0  0  0  0
  -24.1760  -36.8190   23.1030 C   0  0  0  0  0  1  0  0  0  0  0  0
  -25.4340  -36.4130   23.8880 C   0  0  0  0  0  3  0  0  0  0  0  0
  -27.5730  -37.3210   24.6840 C   0  0  0  0  0  1  0  0  0  0  0  0
  -26.4690  -37.4600   23.7370 N   0  0  0  0  0  0  0  0  0  0  0  0
  -26.0690  -38.3860   23.8450 H   0  0  0  0  0  0  0  0  0  0  0  0
  -26.3810  -31.8110   25.1790 C   0  0  1  0  0  0  0  0  0  0  0  0
  -25.2620  -31.6060   26.2280 C   0  0  0  0  0  1  0  0  0  0  0  0
  -26.9670  -30.4210   24.8470 C   0  0  0  0  0  1  0  0  0  0  0  0
  -27.5210  -32.6170   25.8470 C   0  0  0  0  0  1  0  0  0  0  0  0
  1  2  2  0
  1  4  1  0
  2  6  1  0
  3  5  1  0
  4  5  2  0
  5  7  1  0
  6 48  1  0
  6  3  2  0
  9  4  1  0
  9  8  2  0
 10  8  1  0
 11 16  1  0
 12 13  1  0
 12 11  1  0
 14 13  1  0
 14 21  1  0
 14 15  1  0
 16 10  1  0
 16 15  1  0
 17 10  2  0
 18 19  2  0
 19 38  1  0
 20 19  1  0
 20 23  1  0
 21 22  1  0
 21 18  1  0
 22 20  2  0
 23 24  1  0
 24 25  2  0
 26 29  1  0
 26 25  1  0
 27 26  2  0
 28 27  1  0
 28 23  2  0
 29 30  1  0
 30 31  1  0
 31 32  2  0
 33 32  1  0
 33 37  1  0
 34 33  2  0
 35 30  2  0
 35 34  1  0
 36 35  1  0
 38 39  1  0
 39 42  1  0
 39 41  1  0
 40 38  2  0
 43 44  1  0
 43 18  1  0
 45 43  1  0
 46  9  1  0
 47 46  1  0
 49 60  2  0
 50 48  1  0
 50 55  1  0
 51 59  1  0
 51 61  1  0
 52 58  1  0
 52 54  1  0
 53 59  1  0
 54 55  2  0
 54 53  1  0
 56 50  2  0
 57 56  1  0
 57 52  2  0
 58 51  1  0
 59 49  1  0
 61 63  2  0
 62 61  1  0
 64 62  1  0
 65 74  2  0
 65 70  1  0
 66 62  1  0
 66 70  1  0
 67 66  1  0
 68 69  1  0
 68 67  1  0
 69 65  1  0
 70 71  2  0
 71 72  1  0
 73 72  2  0
 74 73  1  0
 75 49  1  0
 75 76  1  0
 75 85  1  0
 76 79  1  0
 77 81  1  0
 77 76  1  0
 78 77  2  0
 81 80  1  0
 83 84  1  0
 83 81  1  0
 83 82  1  0
 85 88  1  1
 85 86  1  0
 87 85  1  0
M  ISO  4   6 101   8 100  10 100  48 101
M  END
>  <TORSDO>  (12) 
F 18

>  <SCORE>  (12) 
-15.592

>  <name>  (12) 
11

>  <ligand_id>  (12) 
11

>  <original_smiles>  (12) 
[H]OC(=C([H])C(=O)N1C([H])([H])C([H])([H])C([H])([H])C([H])(n2nc(-c3c([H])c([H])c(Oc4c([H])c([H])c(F)c([H])c4F)c([H])c3[H])c(C(=O)N([H])[H])c2N([H])[H])C1([H])[H])c1c([H])c([H])c(Oc2c([H])c([H])c3c(c2[H])C([H])([H])N(C(=O)C([H])(N([H])C(=O)C([H])(N([H])C([H])([H])[H])C([H])([H])[H])C(C([H])([H])[H])(C([H])([H])[H])C([H])([H])[H])C([H])(C(=O)N([H])C2([H])c4c([H])c([H])c([H])c([H])c4C([H])([H])C([H])([H])C2([H])[H])C3([H])[H])c([H])c1C([H])([H])[H]

>  <smiles>  (12) 
[H]OC(=C([H])C(=O)N1C([H])([H])C([H])([H])C([H])([H])C([H])(n2nc(-c3c([H])c([H])c(Oc4c([H])c([H])c(F)c([H])c4F)c([H])c3[H])c(C(=O)N([H])[H])c2N([H])[H])C1([H])[H])c1c([H])c([H])c(Oc2c([H])c([H])c3c(c2[H])C([H])([H])N(C(=O)C([H])(N([H])C(=O)C([H])(N([H])C([H])([H])[H])C([H])([H])[H])C(C([H])([H])[H])(C([H])([H])[H])C([H])([H])[H])C([H])(C(=O)N([H])C2([H])c4c([H])c([H])c([H])c([H])c4C([H])([H])C([H])([H])C2([H])[H])C3([H])[H])c([H])c1C([H])([H])[H]

$$$$
12:0:0
     RDKit          3D

 91 99  0  0  1  0  0  0  0  0999 V2000
  -29.4940  -19.8530   19.0460 C   0  0  0  0  0  3  0  0  0  0  0  0
  -29.2250  -21.2690   18.9410 C   0  0  0  0  0  3  0  0  0  0  0  0
  -29.9170  -20.0860   21.3530 C   0  0  0  0  0  3  0  0  0  0  0  0
  -29.8970  -19.1780   20.2440 C   0  0  0  0  0  0  0  0  0  0  0  0
  -29.3180  -22.1890   20.0300 C   0  0  0  0  0  0  0  0  0  0  0  0
  -29.6310  -21.5100   21.2690 C   0  0  0  0  0  0  0  0  0  0  0  0
  -30.1480  -16.4500   20.7360 C   0  0  0  0  0  3  0  0  0  0  0  0
  -30.4960  -17.7110   20.2000 C   0  0  0  0  0  0  0  0  0  0  0  0
  -30.9230  -15.1170   20.5820 C   0  0  0  0  0  0  0  0  0  0  0  0
  -30.7680  -12.7570   19.7180 C   0  0  0  0  0  2  0  0  0  0  0  0
  -29.9180  -12.7400   18.4290 C   0  0  0  0  0  2  0  0  0  0  0  0
  -28.4280  -12.5620   18.7770 C   0  0  0  0  0  2  0  0  0  0  0  0
  -27.9720  -13.5110   19.9170 C   0  0  0  0  0  3  0  0  0  0  0  0
  -28.9620  -13.5330   21.1000 C   0  0  0  0  0  2  0  0  0  0  0  0
  -30.2840  -13.8820   20.5670 N   0  0  0  0  0  0  0  0  0  0  0  0
  -32.1340  -15.0940   20.3400 O   0  0  0  0  0  0  0  0  0  0  0  0
  -25.5630  -14.1180   20.5340 C   0  0  0  0  0  0  0  0  0  0  0  0
  -24.4740  -13.3570   20.8590 C   0  0  0  0  0  0  0  0  0  0  0  0
  -24.9260  -12.0010   20.8630 C   0  0  0  0  0  0  0  0  0  0  0  0
  -26.6070  -13.2290   20.3500 N   0  0  0  0  0  0  0  0  0  0  0  0
  -26.2310  -11.9490   20.6140 N   0  0  0  0  0  0  0  0  0  0  0  0
  -24.1790  -10.7470   21.0300 C   0  0  0  0  0  0  0  0  0  0  0  0
  -24.5550   -9.7840   21.9910 C   0  0  0  0  0  3  0  0  0  0  0  0
  -23.8080   -8.5950   22.1450 C   0  0  0  0  0  3  0  0  0  0  0  0
  -22.6710   -8.3640   21.3360 C   0  0  0  0  0  0  0  0  0  0  0  0
  -22.3130   -9.3160   20.3650 C   0  0  0  0  0  3  0  0  0  0  0  0
  -23.0600  -10.4960   20.2110 C   0  0  0  0  0  3  0  0  0  0  0  0
  -21.8990   -7.2280   21.3970 O   0  0  0  0  0  0  0  0  0  0  0  0
  -21.7790   -6.5000   22.5530 C   0  0  0  0  0  0  0  0  0  0  0  0
  -21.2970   -7.0740   23.7500 C   0  0  0  0  0  3  0  0  0  0  0  0
  -21.1230   -6.2730   24.8960 C   0  0  0  0  0  3  0  0  0  0  0  0
  -21.4240   -4.8990   24.8500 C   0  0  0  0  0  0  0  0  0  0  0  0
  -21.8990   -4.3240   23.6570 C   0  0  0  0  0  3  0  0  0  0  0  0
  -22.0740   -5.1210   22.5130 C   0  0  0  0  0  0  0  0  0  0  0  0
  -22.5140   -4.5580   21.3620 F   0  0  0  0  0  0  0  0  0  0  0  0
  -21.2500   -4.1270   25.9470 F   0  0  0  0  0  0  0  0  0  0  0  0
  -23.0710  -13.8500   21.0540 C   0  0  0  0  0  0  0  0  0  0  0  0
  -22.2940  -13.1770   21.8960 N   0  0  0  0  0  0  0  0  0  0  0  0
  -22.6690  -14.8700   20.4950 O   0  0  0  0  0  0  0  0  0  0  0  0
  -22.6290  -12.3550   22.3760 H   0  0  0  0  0  0  0  0  0  0  0  0
  -21.3500  -13.4920   22.0660 H   0  0  0  0  0  0  0  0  0  0  0  0
  -25.7480  -15.4870   20.3570 N   0  0  0  0  0  0  0  0  0  0  0  0
  -24.9800  -16.1470   20.4260 H   0  0  0  0  0  0  0  0  0  0  0  0
  -26.6170  -15.9170   20.0660 H   0  0  0  0  0  0  0  0  0  0  0  0
  -31.6200  -17.7850   19.4730 O   0  0  0  0  0  0  0  0  0  0  0  0
  -31.7350  -18.6970   19.2290 H   0  0  0  0  0  0  0  0  0  0  0  0
  -28.7490  -23.1440   22.7540 C   0  0  0  0  0  1  0  0  0  0  0  0
  -29.7770  -22.2080   22.4440 O   0  0  0  0  0  0  0  0  0  0  0  0
  -29.3940  -23.8110   19.8050 C   0  0  0  0  0  3  0  0  0  0  0  0
  -28.1640  -24.8950   19.6180 C   0  0  0  0  0  3  0  0  0  0  0  0
  -28.3760  -26.4180   19.6530 O   0  0  0  0  0  0  0  0  0  0  0  0
  -24.6350  -31.7040   23.0540 C   0  0  0  0  0  0  0  0  0  0  0  0
  -27.2700  -27.3220   19.6710 C   0  0  0  0  0  0  0  0  0  0  0  0
  -23.4270  -30.3760   21.3620 C   0  0  0  0  0  3  0  0  0  0  0  0
  -24.8810  -28.9450   19.8080 C   0  0  0  0  0  0  0  0  0  0  0  0
  -25.9610  -30.7500   21.1410 C   0  0  0  0  0  2  0  0  0  0  0  0
  -26.0600  -29.4070   20.4060 C   0  0  0  0  0  0  0  0  0  0  0  0
  -27.2560  -28.6120   20.3210 C   0  0  0  0  0  3  0  0  0  0  0  0
  -26.0620  -26.9460   19.0410 C   0  0  0  0  0  3  0  0  0  0  0  0
  -24.8910  -27.7270   19.1110 C   0  0  0  0  0  3  0  0  0  0  0  0
  -23.6270  -29.7910   19.9400 C   0  0  0  0  0  2  0  0  0  0  0  0
  -24.6960  -30.9610   21.9090 N   0  0  0  0  0  0  0  0  0  0  0  0
  -23.5570  -31.9200   23.6310 O   0  0  0  0  0  0  0  0  0  0  0  0
  -22.8120  -29.2870   22.2770 C   0  0  0  0  0  0  0  0  0  0  0  0
  -21.4880  -29.0770   22.1710 N   0  0  0  0  0  0  0  0  0  0  0  0
  -23.5260  -28.6370   23.0450 O   0  0  0  0  0  0  0  0  0  0  0  0
  -20.9660  -29.6570   21.5280 H   0  0  0  0  0  0  0  0  0  0  0  0
  -18.1660  -27.7230   22.6630 C   0  0  0  0  0  0  0  0  0  0  0  0
  -20.7180  -28.0690   22.9050 C   0  0  0  0  0  3  0  0  0  0  0  0
  -20.8630  -26.6730   22.2530 C   0  0  0  0  0  2  0  0  0  0  0  0
  -19.7570  -26.3620   21.2410 C   0  0  0  0  0  2  0  0  0  0  0  0
  -18.3820  -26.4190   21.9130 C   0  0  0  0  0  2  0  0  0  0  0  0
  -19.2620  -28.5050   23.1150 C   0  0  0  0  0  0  0  0  0  0  0  0
  -19.0050  -29.7250   23.7800 C   0  0  0  0  0  3  0  0  0  0  0  0
  -17.6850  -30.1640   23.9930 C   0  0  0  0  0  3  0  0  0  0  0  0
  -16.6040  -29.3790   23.5550 C   0  0  0  0  0  3  0  0  0  0  0  0
  -16.8450  -28.1610   22.8970 C   0  0  0  0  0  3  0  0  0  0  0  0
  -25.9120  -32.3390   23.6840 C   0  0  0  0  0  3  0  0  0  0  0  0
  -25.5670  -33.7000   24.1220 N   0  0  0  0  0  0  0  0  0  0  0  0
  -25.8280  -34.8160   23.4270 C   0  0  0  0  0  0  0  0  0  0  0  0
  -26.4530  -34.8080   22.3630 O   0  0  0  0  0  0  0  0  0  0  0  0
  -25.0030  -33.7760   24.9560 H   0  0  0  0  0  0  0  0  0  0  0  0
  -24.0150  -36.5560   23.2880 C   0  0  0  0  0  1  0  0  0  0  0  0
  -25.3160  -36.1520   24.0010 C   0  0  0  0  0  3  0  0  0  0  0  0
  -27.4590  -37.0730   24.7680 C   0  0  0  0  0  1  0  0  0  0  0  0
  -26.3000  -37.2520   23.8990 N   0  0  0  0  0  0  0  0  0  0  0  0
  -25.8680  -38.1430   24.1300 H   0  0  0  0  0  0  0  0  0  0  0  0
  -26.4910  -31.5010   24.8890 C   0  0  1  0  0  0  0  0  0  0  0  0
  -25.4410  -31.1600   25.9730 C   0  0  0  0  0  1  0  0  0  0  0  0
  -27.0970  -30.1680   24.3910 C   0  0  0  0  0  1  0  0  0  0  0  0
  -27.6420  -32.2820   25.5670 C   0  0  0  0  0  1  0  0  0  0  0  0
  1  4  1  0
  2  1  2  0
  2  5  1  0
  4  3  2  0
  5  6  2  0
  6  3  1  0
  6 48  1  0
  8  4  1  0
  8  7  2  0
  9  7  1  0
 10 15  1  0
 11 12  1  0
 11 10  1  0
 13 12  1  0
 13 20  1  0
 13 14  1  0
 15  9  1  0
 15 14  1  0
 16  9  2  0
 17 18  2  0
 18 19  1  0
 18 37  1  0
 19 22  1  0
 20 17  1  0
 20 21  1  0
 21 19  2  0
 22 23  1  0
 23 24  2  0
 25 28  1  0
 25 24  1  0
 26 25  2  0
 27 26  1  0
 27 22  2  0
 28 29  1  0
 29 30  1  0
 30 31  2  0
 32 31  1  0
 32 36  1  0
 33 32  2  0
 34 29  2  0
 34 33  1  0
 35 34  1  0
 37 38  1  0
 38 41  1  0
 38 40  1  0
 39 37  2  0
 42 43  1  0
 42 17  1  0
 44 42  1  0
 45  8  1  0
 46 45  1  0
 48 47  1  0
 49  5  1  0
 50 51  1  0
 50 49  2  0
 51 53  1  0
 52 63  2  0
 53 58  1  0
 54 62  1  0
 54 64  1  0
 55 61  1  0
 55 57  1  0
 56 62  1  0
 57 56  1  0
 58 57  2  0
 59 60  1  0
 59 53  2  0
 60 55  2  0
 61 54  1  0
 62 52  1  0
 64 66  2  0
 65 64  1  0
 67 65  1  0
 68 77  2  0
 68 73  1  0
 69 65  1  0
 69 73  1  0
 70 69  1  0
 71 72  1  0
 71 70  1  0
 72 68  1  0
 73 74  2  0
 74 75  1  0
 76 75  2  0
 77 76  1  0
 78 52  1  0
 78 79  1  0
 78 88  1  0
 79 82  1  0
 80 84  1  0
 80 79  1  0
 81 80  2  0
 84 83  1  0
 86 84  1  0
 86 87  1  0
 86 85  1  0
 88 91  1  1
 88 89  1  0
 90 88  1  0
M  ISO  4   7 100   9 100  50 101  51 101
M  END
>  <TORSDO>  (13) 
F 21

>  <SCORE>  (13) 
-12.772

>  <name>  (13) 
12

>  <ligand_id>  (13) 
12

>  <original_smiles>  (13) 
[H]OC(=C([H])C(=O)N1C([H])([H])C([H])([H])C([H])([H])C([H])(n2nc(-c3c([H])c([H])c(Oc4c([H])c([H])c(F)c([H])c4F)c([H])c3[H])c(C(=O)N([H])[H])c2N([H])[H])C1([H])[H])c1c([H])c([H])c(C([H])([H])C([H])([H])Oc2c([H])c([H])c3c(c2[H])C([H])([H])N(C(=O)C([H])(N([H])C(=O)C([H])(N([H])C([H])([H])[H])C([H])([H])[H])C(C([H])([H])[H])(C([H])([H])[H])C([H])([H])[H])C([H])(C(=O)N([H])C2([H])c4c([H])c([H])c([H])c([H])c4C([H])([H])C([H])([H])C2([H])[H])C3([H])[H])c(OC([H])([H])[H])c1[H]

>  <smiles>  (13) 
[H]OC(=C([H])C(=O)N1C([H])([H])C([H])([H])C([H])([H])C([H])(n2nc(-c3c([H])c([H])c(Oc4c([H])c([H])c(F)c([H])c4F)c([H])c3[H])c(C(=O)N([H])[H])c2N([H])[H])C1([H])[H])c1c([H])c([H])c(C([H])([H])C([H])([H])Oc2c([H])c([H])c3c(c2[H])C([H])([H])N(C(=O)C([H])(N([H])C(=O)C([H])(N([H])C([H])([H])[H])C([H])([H])[H])C(C([H])([H])[H])(C([H])([H])[H])C([H])([H])[H])C([H])(C(=O)N([H])C2([H])c4c([H])c([H])c([H])c([H])c4C([H])([H])C([H])([H])C2([H])[H])C3([H])[H])c(OC([H])([H])[H])c1[H]

$$$$
13:0:0
     RDKit          3D

 92100  0  0  1  0  0  0  0  0999 V2000
  -30.5020  -19.1270   18.6780 C   0  0  0  0  0  2  0  0  0  0  0  0
  -30.7360  -17.6780   18.6630 C   0  0  0  0  0  3  0  0  0  0  0  0
  -28.5770  -18.8370   19.8860 C   0  0  0  0  0  3  0  0  0  0  0  0
  -29.4310  -19.8770   19.3060 C   0  0  0  0  0  0  0  0  0  0  0  0
  -29.9320  -16.6310   19.2550 C   0  0  0  0  0  0  0  0  0  0  0  0
  -28.7970  -17.3410   19.8830 C   0  0  0  0  0  0  0  0  0  0  0  0
  -30.4900  -15.0480   19.3300 C   0  0  0  0  0  0  0  0  0  0  0  0
  -30.3050  -12.5700   18.6620 C   0  0  0  0  0  2  0  0  0  0  0  0
  -29.3230  -12.3320   17.4880 C   0  0  0  0  0  2  0  0  0  0  0  0
  -27.8970  -12.1180   18.0200 C   0  0  0  0  0  2  0  0  0  0  0  0
  -27.5240  -13.1590   19.1020 C   0  0  0  0  0  3  0  0  0  0  0  0
  -28.6320  -13.3720   20.1520 C   0  0  0  0  0  2  0  0  0  0  0  0
  -29.8500  -13.7840   19.4390 N   0  0  0  0  0  0  0  0  0  0  0  0
  -31.6860  -14.9270   19.0290 O   0  0  0  0  0  0  0  0  0  0  0  0
  -25.2470  -13.7930   20.0470 C   0  0  0  0  0  0  0  0  0  0  0  0
  -24.1940  -13.0540   20.5050 C   0  0  0  0  0  0  0  0  0  0  0  0
  -24.6100  -11.6880   20.4400 C   0  0  0  0  0  0  0  0  0  0  0  0
  -26.2340  -12.8840   19.7180 N   0  0  0  0  0  0  0  0  0  0  0  0
  -25.8710  -11.6110   20.0260 N   0  0  0  0  0  0  0  0  0  0  0  0
  -23.8580  -10.4510   20.6870 C   0  0  0  0  0  0  0  0  0  0  0  0
  -24.2560   -9.5290   21.6800 C   0  0  0  0  0  3  0  0  0  0  0  0
  -23.5030   -8.3580   21.9130 C   0  0  0  0  0  3  0  0  0  0  0  0
  -22.3360   -8.1010   21.1540 C   0  0  0  0  0  0  0  0  0  0  0  0
  -21.9570   -9.0120   20.1520 C   0  0  0  0  0  3  0  0  0  0  0  0
  -22.7100  -10.1740   19.9180 C   0  0  0  0  0  3  0  0  0  0  0  0
  -21.5560   -6.9790   21.2930 O   0  0  0  0  0  0  0  0  0  0  0  0
  -21.4040   -6.3550   22.5050 C   0  0  0  0  0  0  0  0  0  0  0  0
  -20.8350   -7.0140   23.6170 C   0  0  0  0  0  3  0  0  0  0  0  0
  -20.6320   -6.3130   24.8220 C   0  0  0  0  0  3  0  0  0  0  0  0
  -20.9890   -4.9540   24.9160 C   0  0  0  0  0  0  0  0  0  0  0  0
  -21.5500   -4.2940   23.8080 C   0  0  0  0  0  3  0  0  0  0  0  0
  -21.7540   -4.9930   22.6060 C   0  0  0  0  0  0  0  0  0  0  0  0
  -22.2760   -4.3480   21.5350 F   0  0  0  0  0  0  0  0  0  0  0  0
  -20.7880   -4.2790   26.0710 F   0  0  0  0  0  0  0  0  0  0  0  0
  -22.8390  -13.5790   20.8790 C   0  0  0  0  0  0  0  0  0  0  0  0
  -22.1600  -12.9180   21.8090 N   0  0  0  0  0  0  0  0  0  0  0  0
  -22.3960  -14.6130   20.3790 O   0  0  0  0  0  0  0  0  0  0  0  0
  -22.5340  -12.0830   22.2350 H   0  0  0  0  0  0  0  0  0  0  0  0
  -21.2530  -13.2510   22.1020 H   0  0  0  0  0  0  0  0  0  0  0  0
  -25.4400  -15.1570   19.8430 N   0  0  0  0  0  0  0  0  0  0  0  0
  -24.6580  -15.7970   19.9210 H   0  0  0  0  0  0  0  0  0  0  0  0
  -26.1870  -15.5180   19.2640 H   0  0  0  0  0  0  0  0  0  0  0  0
  -29.5490  -21.5580   19.3260 C   0  0  0  0  0  0  0  0  0  0  0  0
  -29.2080  -22.9950   19.4680 C   0  0  0  0  0  0  0  0  0  0  0  0
  -30.4010  -23.9270   19.2440 C   0  0  0  0  0  1  0  0  0  0  0  0
  -27.9880  -24.1460   19.7660 C   0  0  0  0  0  2  0  0  0  0  0  0
  -28.2190  -25.7620   19.8410 O   0  0  0  0  0  0  0  0  0  0  0  0
  -24.7390  -31.6490   22.9500 C   0  0  0  0  0  0  0  0  0  0  0  0
  -27.1890  -26.8200   19.8430 C   0  0  0  0  0  0  0  0  0  0  0  0
  -23.4920  -30.2700   21.3360 C   0  0  0  0  0  3  0  0  0  0  0  0
  -24.8930  -28.6740   19.8680 C   0  0  0  0  0  0  0  0  0  0  0  0
  -26.0520  -30.4870   21.1140 C   0  0  0  0  0  2  0  0  0  0  0  0
  -26.0970  -29.0840   20.4520 C   0  0  0  0  0  0  0  0  0  0  0  0
  -27.2440  -28.1790   20.4110 C   0  0  0  0  0  3  0  0  0  0  0  0
  -25.9530  -26.5470   19.2170 C   0  0  0  0  0  3  0  0  0  0  0  0
  -24.8410  -27.4240   19.2300 C   0  0  0  0  0  3  0  0  0  0  0  0
  -23.6790  -29.5950   19.9490 C   0  0  0  0  0  2  0  0  0  0  0  0
  -24.7840  -30.8280   21.8530 N   0  0  0  0  0  0  0  0  0  0  0  0
  -23.6660  -31.9370   23.5050 O   0  0  0  0  0  0  0  0  0  0  0  0
  -22.8240  -29.2680   22.3120 C   0  0  0  0  0  0  0  0  0  0  0  0
  -21.4860  -29.1390   22.2490 N   0  0  0  0  0  0  0  0  0  0  0  0
  -23.5130  -28.6080   23.0940 O   0  0  0  0  0  0  0  0  0  0  0  0
  -20.9830  -29.7220   21.5940 H   0  0  0  0  0  0  0  0  0  0  0  0
  -18.0960  -28.0400   22.9290 C   0  0  0  0  0  0  0  0  0  0  0  0
  -20.6760  -28.2070   23.0410 C   0  0  0  0  0  3  0  0  0  0  0  0
  -20.6900  -26.7910   22.4180 C   0  0  0  0  0  2  0  0  0  0  0  0
  -19.5160  -26.5410   21.4640 C   0  0  0  0  0  2  0  0  0  0  0  0
  -18.1830  -26.7110   22.1970 C   0  0  0  0  0  2  0  0  0  0  0  0
  -19.2660  -28.7500   23.3100 C   0  0  0  0  0  0  0  0  0  0  0  0
  -19.1270  -29.9960   23.9590 C   0  0  0  0  0  3  0  0  0  0  0  0
  -17.8520  -30.5330   24.2240 C   0  0  0  0  0  3  0  0  0  0  0  0
  -16.6990  -29.8170   23.8570 C   0  0  0  0  0  3  0  0  0  0  0  0
  -16.8220  -28.5730   23.2150 C   0  0  0  0  0  3  0  0  0  0  0  0
  -26.0320  -32.2810   23.5500 C   0  0  0  0  0  3  0  0  0  0  0  0
  -26.6350  -31.4400   24.7430 C   0  0  1  0  0  0  0  0  0  0  0  0
  -25.6090  -31.0990   25.8490 C   0  0  0  0  0  1  0  0  0  0  0  0
  -27.2290  -30.1060   24.2330 C   0  0  0  0  0  1  0  0  0  0  0  0
  -27.8010  -32.2190   25.3960 C   0  0  0  0  0  1  0  0  0  0  0  0
  -25.7010  -33.6410   24.0070 N   0  0  0  0  0  0  0  0  0  0  0  0
  -25.9580  -34.7640   23.3220 C   0  0  0  0  0  0  0  0  0  0  0  0
  -26.5630  -34.7640   22.2470 O   0  0  0  0  0  0  0  0  0  0  0  0
  -25.1540  -33.7110   24.8530 H   0  0  0  0  0  0  0  0  0  0  0  0
  -24.1550  -36.5210   23.2450 C   0  0  0  0  0  1  0  0  0  0  0  0
  -25.4700  -36.0990   23.9220 C   0  0  0  0  0  3  0  0  0  0  0  0
  -27.6320  -37.0060   24.6590 C   0  0  0  0  0  1  0  0  0  0  0  0
  -26.4580  -37.1940   23.8090 N   0  0  0  0  0  0  0  0  0  0  0  0
  -26.0360  -38.0880   24.0440 H   0  0  0  0  0  0  0  0  0  0  0  0
  -27.8450  -16.5080   20.6790 C   0  0  0  0  0  0  0  0  0  0  0  0
  -28.2420  -15.5630   21.3720 O   0  0  0  0  0  0  0  0  0  0  0  0
  -26.3120  -16.7830   20.6410 C   0  0  0  0  0  0  0  0  0  0  0  0
  -25.7590  -17.8000   19.6470 C   0  0  0  0  0  1  0  0  0  0  0  0
  -25.5360  -16.1650   21.3840 O   0  0  0  0  0  0  0  0  0  0  0  0
  1  4  1  0
  2  1  1  0
  2  5  2  0
  4 43  2  0
  4  3  1  0
  5  7  1  0
  5  6  1  0
  6  3  2  0
  6 88  1  0
  7 13  1  0
  8 13  1  0
  9 10  1  0
  9  8  1  0
 11 10  1  0
 11 18  1  0
 11 12  1  0
 13 12  1  0
 14  7  2  0
 15 16  2  0
 16 35  1  0
 17 16  1  0
 17 20  1  0
 18 19  1  0
 18 15  1  0
 19 17  2  0
 20 21  1  0
 21 22  2  0
 23 26  1  0
 23 22  1  0
 24 23  2  0
 25 24  1  0
 25 20  2  0
 26 27  1  0
 27 32  2  0
 27 28  1  0
 28 29  2  0
 29 30  1  0
 30 34  1  0
 31 30  2  0
 32 31  1  0
 33 32  1  0
 35 36  1  0
 36 39  1  0
 36 38  1  0
 37 35  2  0
 40 41  1  0
 40 15  1  0
 42 40  1  0
 43 44  2  0
 44 46  1  0
 45 44  1  0
 46 47  1  0
 47 49  1  0
 48 59  2  0
 49 54  1  0
 50 58  1  0
 50 60  1  0
 51 57  1  0
 51 53  1  0
 52 58  1  0
 53 52  1  0
 54 53  2  0
 55 56  1  0
 55 49  2  0
 56 51  2  0
 57 50  1  0
 58 48  1  0
 60 62  2  0
 61 60  1  0
 63 61  1  0
 64 73  2  0
 64 69  1  0
 65 61  1  0
 65 69  1  0
 66 65  1  0
 67 68  1  0
 67 66  1  0
 68 64  1  0
 69 70  2  0
 70 71  1  0
 72 71  2  0
 73 72  1  0
 74 48  1  0
 74 79  1  0
 74 75  1  0
 75 78  1  1
 75 76  1  0
 77 75  1  0
 79 82  1  0
 80 84  1  0
 80 79  1  0
 81 80  2  0
 84 83  1  0
 86 84  1  0
 86 87  1  0
 86 85  1  0
 88 89  2  0
 90 88  1  0
 90 92  2  0
 91 90  1  0
M  ISO  4   5 100   7 100  46 101  47 101
M  END
>  <TORSDO>  (14) 
F 20

>  <SCORE>  (14) 
-11.242

>  <name>  (14) 
13

>  <ligand_id>  (14) 
13

>  <original_smiles>  (14) 
[H]C(=C(C([H])([H])[H])C([H])([H])Oc1c([H])c([H])c2c(c1[H])C([H])([H])N(C(=O)C([H])(N([H])C(=O)C([H])(N([H])C([H])([H])[H])C([H])([H])[H])C(C([H])([H])[H])(C([H])([H])[H])C([H])([H])[H])C([H])(C(=O)N([H])C1([H])c3c([H])c([H])c([H])c([H])c3C([H])([H])C([H])([H])C1([H])[H])C2([H])[H])c1c([H])c([H])c(C(=O)N2C([H])([H])C([H])([H])C([H])([H])C([H])(n3nc(-c4c([H])c([H])c(Oc5c([H])c([H])c(F)c([H])c5F)c([H])c4[H])c(C(=O)N([H])[H])c3N([H])[H])C2([H])[H])c(C(=O)C(=O)C([H])([H])[H])c1[H]

>  <smiles>  (14) 
[H]C(=C(C([H])([H])[H])C([H])([H])Oc1c([H])c([H])c2c(c1[H])C([H])([H])N(C(=O)C([H])(N([H])C(=O)C([H])(N([H])C([H])([H])[H])C([H])([H])[H])C(C([H])([H])[H])(C([H])([H])[H])C([H])([H])[H])C([H])(C(=O)N([H])C1([H])c3c([H])c([H])c([H])c([H])c3C([H])([H])C([H])([H])C1([H])[H])C2([H])[H])c1c([H])c([H])c(C(=O)N2C([H])([H])C([H])([H])C([H])([H])C([H])(n3nc(-c4c([H])c([H])c(Oc5c([H])c([H])c(F)c([H])c5F)c([H])c4[H])c(C(=O)N([H])[H])c3N([H])[H])C2([H])[H])c(C(=O)C(=O)C([H])([H])[H])c1[H]

$$$$
14:0:0
     RDKit          3D

 89 95  0  0  1  0  0  0  0  0999 V2000
  -27.6390  -22.3510   19.7720 C   0  0  0  0  0  3  0  0  0  0  0  0
  -29.9320  -21.0880   20.3190 C   0  0  0  0  0  3  0  0  0  0  0  0
  -27.9100  -20.7980   19.6320 C   0  0  0  0  0  0  0  0  0  0  0  0
  -29.1190  -19.8640   19.9020 C   0  0  0  0  0  3  0  0  0  0  0  0
  -29.6530  -22.6440   20.4390 C   0  0  0  0  0  0  0  0  0  0  0  0
  -28.4450  -23.5670   20.1930 C   0  0  0  0  0  0  0  0  0  0  0  0
  -26.6550  -20.1170   19.0870 C   0  0  0  0  0  1  0  0  0  0  0  0
  -29.2910  -17.8250   18.1230 C   0  0  0  0  0  1  0  0  0  0  0  0
  -27.9470  -17.4290   20.2520 C   0  0  0  0  0  1  0  0  0  0  0  0
  -29.3020  -17.8650   19.6690 C   0  0  0  0  0  2  0  0  0  0  0  0
  -30.2900  -16.1100   19.7850 C   0  0  0  0  0  2  0  0  0  0  0  0
  -30.5330  -13.4610   19.0550 C   0  0  0  0  0  2  0  0  0  0  0  0
  -29.6130  -12.8760   17.9290 C   0  0  0  0  0  2  0  0  0  0  0  0
  -28.2260  -12.4670   18.4500 C   0  0  0  0  0  2  0  0  0  0  0  0
  -27.7280  -13.4850   19.4930 C   0  0  0  0  0  3  0  0  0  0  0  0
  -28.7980  -13.9050   20.5290 C   0  0  0  0  0  2  0  0  0  0  0  0
  -29.8800  -14.6550   19.8080 N   0  0  0  0  0  0  0  0  0  0  0  0
  -31.5270  -16.0280   19.6040 O   0  0  0  0  0  1  0  0  0  0  0  0
  -25.4350  -13.9970   20.4420 C   0  0  0  0  0  0  0  0  0  0  0  0
  -24.3920  -13.2220   20.8540 C   0  0  0  0  0  0  0  0  0  0  0  0
  -24.8380  -11.8700   20.7410 C   0  0  0  0  0  0  0  0  0  0  0  0
  -26.4500  -13.1270   20.0960 N   0  0  0  0  0  0  0  0  0  0  0  0
  -26.1080  -11.8330   20.3380 N   0  0  0  0  0  0  0  0  0  0  0  0
  -24.0980  -10.6140   20.9340 C   0  0  0  0  0  0  0  0  0  0  0  0
  -24.5230   -9.6390   21.8620 C   0  0  0  0  0  3  0  0  0  0  0  0
  -23.7790   -8.4530   22.0450 C   0  0  0  0  0  3  0  0  0  0  0  0
  -22.5980   -8.2320   21.2970 C   0  0  0  0  0  0  0  0  0  0  0  0
  -22.1920   -9.1960   20.3580 C   0  0  0  0  0  3  0  0  0  0  0  0
  -22.9360  -10.3740   20.1740 C   0  0  0  0  0  3  0  0  0  0  0  0
  -21.8250   -7.1000   21.3910 O   0  0  0  0  0  0  0  0  0  0  0  0
  -21.7100   -6.4010   22.5660 C   0  0  0  0  0  0  0  0  0  0  0  0
  -21.1740   -6.9860   23.7340 C   0  0  0  0  0  3  0  0  0  0  0  0
  -21.0080   -6.2110   24.8990 C   0  0  0  0  0  3  0  0  0  0  0  0
  -21.3670   -4.8500   24.8970 C   0  0  0  0  0  0  0  0  0  0  0  0
  -21.8960   -4.2630   23.7340 C   0  0  0  0  0  3  0  0  0  0  0  0
  -22.0630   -5.0360   22.5710 C   0  0  0  0  0  0  0  0  0  0  0  0
  -22.5510   -4.4580   21.4470 F   0  0  0  0  0  0  0  0  0  0  0  0
  -21.2040   -4.1030   26.0150 F   0  0  0  0  0  0  0  0  0  0  0  0
  -23.0240  -13.7140   21.2290 C   0  0  0  0  0  0  0  0  0  0  0  0
  -22.3400  -13.0080   22.1200 N   0  0  0  0  0  0  0  0  0  0  0  0
  -22.5750  -14.7640   20.7670 O   0  0  0  0  0  0  0  0  0  0  0  0
  -22.7160  -12.1610   22.5210 H   0  0  0  0  0  0  0  0  0  0  0  0
  -21.4220  -13.3180   22.4060 H   0  0  0  0  0  0  0  0  0  0  0  0
  -25.5960  -15.3690   20.2970 N   0  0  0  0  0  0  0  0  0  0  0  0
  -24.8440  -16.0250   20.4800 H   0  0  0  0  0  0  0  0  0  0  0  0
  -26.4270  -15.8020   19.9200 H   0  0  0  0  0  0  0  0  0  0  0  0
  -30.7460  -23.3390   20.8650 O   0  0  0  0  0  0  0  0  0  0  0  0
  -30.5340  -24.2600   20.9970 H   0  0  0  0  0  0  0  0  0  0  0  0
  -28.2770  -25.2670   20.3370 O   0  0  0  0  0  0  0  0  0  0  0  0
  -24.6690  -31.8360   23.1910 C   0  0  0  0  0  0  0  0  0  0  0  0
  -27.2830  -26.5510   20.3030 C   0  0  0  0  0  0  0  0  0  0  0  0
  -23.5380  -30.4220   21.5320 C   0  0  0  0  0  3  0  0  0  0  0  0
  -25.0280  -28.7270   20.1770 C   0  0  0  0  0  0  0  0  0  0  0  0
  -26.1280  -30.5020   21.5060 C   0  0  0  0  0  2  0  0  0  0  0  0
  -26.2080  -29.0420   20.8580 C   0  0  0  0  0  0  0  0  0  0  0  0
  -27.3030  -27.9900   20.8810 C   0  0  0  0  0  3  0  0  0  0  0  0
  -26.0630  -26.5080   19.5580 C   0  0  0  0  0  3  0  0  0  0  0  0
  -25.0100  -27.4900   19.5030 C   0  0  0  0  0  3  0  0  0  0  0  0
  -23.8240  -29.7000   20.1780 C   0  0  0  0  0  2  0  0  0  0  0  0
  -24.8030  -30.9590   22.1280 N   0  0  0  0  0  0  0  0  0  0  0  0
  -23.5580  -32.1440   23.6610 O   0  0  0  0  0  0  0  0  0  0  0  0
  -22.7770  -29.4680   22.4930 C   0  0  0  0  0  0  0  0  0  0  0  0
  -21.4510  -29.3020   22.3180 N   0  0  0  0  0  0  0  0  0  0  0  0
  -23.3980  -28.8710   23.3750 O   0  0  0  0  0  0  0  0  0  0  0  0
  -20.9970  -29.8310   21.5850 H   0  0  0  0  0  0  0  0  0  0  0  0
  -18.0590  -28.0390   22.7170 C   0  0  0  0  0  0  0  0  0  0  0  0
  -20.6040  -28.3660   23.0720 C   0  0  0  0  0  3  0  0  0  0  0  0
  -20.7530  -26.9250   22.5310 C   0  0  0  0  0  2  0  0  0  0  0  0
  -19.7010  -26.5630   21.4780 C   0  0  0  0  0  2  0  0  0  0  0  0
  -18.2910  -26.6870   22.0620 C   0  0  0  0  0  2  0  0  0  0  0  0
  -19.1450  -28.8340   23.1740 C   0  0  0  0  0  0  0  0  0  0  0  0
  -18.8720  -30.0920   23.7520 C   0  0  0  0  0  3  0  0  0  0  0  0
  -17.5490  -30.5610   23.8730 C   0  0  0  0  0  3  0  0  0  0  0  0
  -16.4800  -29.7660   23.4270 C   0  0  0  0  0  3  0  0  0  0  0  0
  -16.7340  -28.5060   22.8560 C   0  0  0  0  0  3  0  0  0  0  0  0
  -25.9040  -32.5050   23.8700 C   0  0  0  0  0  3  0  0  0  0  0  0
  -25.5720  -33.9150   24.1680 N   0  0  0  0  0  0  0  0  0  0  0  0
  -25.9200  -34.9700   23.4190 C   0  0  0  0  0  0  0  0  0  0  0  0
  -26.6070  -34.8600   22.4010 O   0  0  0  0  0  0  0  0  0  0  0  0
  -24.9570  -34.0710   24.9540 H   0  0  0  0  0  0  0  0  0  0  0  0
  -24.1880  -36.7690   23.0590 C   0  0  0  0  0  1  0  0  0  0  0  0
  -25.4350  -36.3680   23.8640 C   0  0  0  0  0  3  0  0  0  0  0  0
  -27.5620  -37.2860   24.6830 C   0  0  0  0  0  1  0  0  0  0  0  0
  -26.4660  -37.4230   23.7290 N   0  0  0  0  0  0  0  0  0  0  0  0
  -26.0550  -38.3450   23.8500 H   0  0  0  0  0  0  0  0  0  0  0  0
  -26.3420  -31.7770   25.2030 C   0  0  1  0  0  0  0  0  0  0  0  0
  -25.1880  -31.5750   26.2140 C   0  0  0  0  0  1  0  0  0  0  0  0
  -26.9440  -30.3860   24.9100 C   0  0  0  0  0  1  0  0  0  0  0  0
  -27.4550  -32.5930   25.9020 C   0  0  0  0  0  1  0  0  0  0  0  0
  1  6  1  0
  2  5  1  0
  3  1  2  0
  3  4  1  0
  4  2  2  0
  5 47  1  0
  6 49  1  0
  6  5  2  0
  7  3  1  0
  8 10  1  0
 10  9  1  0
 11 17  1  0
 12 17  1  0
 13 14  1  0
 13 12  1  0
 15 14  1  0
 15 22  1  0
 15 16  1  0
 17 16  1  0
 18 11  1  0
 19 20  2  0
 20 39  1  0
 21 20  1  0
 21 24  1  0
 22 23  1  0
 22 19  1  0
 23 21  2  0
 24 25  1  0
 25 26  2  0
 27 30  1  0
 27 26  1  0
 28 27  2  0
 29 28  1  0
 29 24  2  0
 30 31  1  0
 31 36  2  0
 31 32  1  0
 32 33  2  0
 34 33  1  0
 34 38  1  0
 35 34  2  0
 36 35  1  0
 37 36  1  0
 39 40  1  0
 40 43  1  0
 40 42  1  0
 41 39  2  0
 44 19  1  0
 44 45  1  0
 46 44  1  0
 47 48  1  0
 50 61  2  0
 51 49  1  0
 51 56  1  0
 52 60  1  0
 52 62  1  0
 53 59  1  0
 53 55  1  0
 54 60  1  0
 55 56  2  0
 55 54  1  0
 57 51  2  0
 58 57  1  0
 58 53  2  0
 59 52  1  0
 60 50  1  0
 62 64  2  0
 63 62  1  0
 65 63  1  0
 66 75  2  0
 66 71  1  0
 67 63  1  0
 67 71  1  0
 68 67  1  0
 69 70  1  0
 69 68  1  0
 70 66  1  0
 71 72  2  0
 72 73  1  0
 74 73  2  0
 75 74  1  0
 76 50  1  0
 76 77  1  0
 76 86  1  0
 77 80  1  0
 78 82  1  0
 78 77  1  0
 79 78  2  0
 82 81  1  0
 84 85  1  0
 84 82  1  0
 84 83  1  0
 86 89  1  1
 86 87  1  0
 88 86  1  0
M  ISO  4   6 101  10 100  11 100  49 101
M  END
>  <TORSDO>  (15) 
F 18

>  <SCORE>  (15) 
-15.890

>  <name>  (15) 
14

>  <ligand_id>  (15) 
14

>  <original_smiles>  (15) 
[H]Oc1c([H])c(C(C(=O)N2C([H])([H])C([H])([H])C([H])([H])C([H])(n3nc(-c4c([H])c([H])c(Oc5c([H])c([H])c(F)c([H])c5F)c([H])c4[H])c(C(=O)N([H])[H])c3N([H])[H])C2([H])[H])(C([H])([H])[H])C([H])([H])[H])c(C([H])([H])[H])c([H])c1Oc1c([H])c([H])c2c(c1[H])C([H])([H])N(C(=O)C([H])(N([H])C(=O)C([H])(N([H])C([H])([H])[H])C([H])([H])[H])C(C([H])([H])[H])(C([H])([H])[H])C([H])([H])[H])C([H])(C(=O)N([H])C1([H])c3c([H])c([H])c([H])c([H])c3C([H])([H])C([H])([H])C1([H])[H])C2([H])[H]

>  <smiles>  (15) 
[H]Oc1c([H])c(C(C(=O)N2C([H])([H])C([H])([H])C([H])([H])C([H])(n3nc(-c4c([H])c([H])c(Oc5c([H])c([H])c(F)c([H])c5F)c([H])c4[H])c(C(=O)N([H])[H])c3N([H])[H])C2([H])[H])(C([H])([H])[H])C([H])([H])[H])c(C([H])([H])[H])c([H])c1Oc1c([H])c([H])c2c(c1[H])C([H])([H])N(C(=O)C([H])(N([H])C(=O)C([H])(N([H])C([H])([H])[H])C([H])([H])[H])C(C([H])([H])[H])(C([H])([H])[H])C([H])([H])[H])C([H])(C(=O)N([H])C1([H])c3c([H])c([H])c([H])c([H])c3C([H])([H])C([H])([H])C1([H])[H])C2([H])[H]

$$$$
15:0:0
     RDKit          3D

 89 97  0  0  1  0  0  0  0  0999 V2000
  -30.1180  -18.9510   19.4190 C   0  0  0  0  0  3  0  0  0  0  0  0
  -27.8310  -18.5440   20.7070 C   0  0  0  0  0  3  0  0  0  0  0  0
  -29.8530  -17.3800   19.7230 C   0  0  0  0  0  0  0  0  0  0  0  0
  -29.2870  -20.3180   19.7080 C   0  0  0  0  0  0  0  0  0  0  0  0
  -28.1110  -19.9020   20.3720 C   0  0  0  0  0  0  0  0  0  0  0  0
  -28.6270  -17.3880   20.4420 C   0  0  0  0  0  0  0  0  0  0  0  0
  -28.1660  -16.2430   20.9790 F   0  0  0  0  0  0  0  0  0  0  0  0
  -30.6820  -15.7970   19.5430 C   0  0  0  0  0  0  0  0  0  0  0  0
  -30.8960  -13.1910   18.9040 C   0  0  0  0  0  2  0  0  0  0  0  0
  -29.9480  -12.6620   17.7820 C   0  0  0  0  0  2  0  0  0  0  0  0
  -28.5610  -12.2850   18.3310 C   0  0  0  0  0  2  0  0  0  0  0  0
  -28.0810  -13.3250   19.3680 C   0  0  0  0  0  3  0  0  0  0  0  0
  -29.1750  -13.6900   20.3910 C   0  0  0  0  0  2  0  0  0  0  0  0
  -30.2680  -14.3810   19.6520 N   0  0  0  0  0  0  0  0  0  0  0  0
  -31.8760  -15.7730   19.1810 O   0  0  0  0  0  0  0  0  0  0  0  0
  -25.8100  -13.8380   20.3860 C   0  0  0  0  0  0  0  0  0  0  0  0
  -24.7800  -13.0490   20.8140 C   0  0  0  0  0  0  0  0  0  0  0  0
  -25.2280  -11.6990   20.6660 C   0  0  0  0  0  0  0  0  0  0  0  0
  -26.8130  -12.9710   19.9920 N   0  0  0  0  0  0  0  0  0  0  0  0
  -26.4830  -11.6730   20.2260 N   0  0  0  0  0  0  0  0  0  0  0  0
  -24.5040  -10.4350   20.8620 C   0  0  0  0  0  0  0  0  0  0  0  0
  -24.9420   -9.4660   21.7910 C   0  0  0  0  0  3  0  0  0  0  0  0
  -24.2140   -8.2710   21.9770 C   0  0  0  0  0  3  0  0  0  0  0  0
  -23.0320   -8.0360   21.2330 C   0  0  0  0  0  0  0  0  0  0  0  0
  -22.6130   -8.9940   20.2940 C   0  0  0  0  0  3  0  0  0  0  0  0
  -23.3420  -10.1810   20.1060 C   0  0  0  0  0  3  0  0  0  0  0  0
  -22.2760   -6.8930   21.3280 O   0  0  0  0  0  0  0  0  0  0  0  0
  -22.1190   -6.2300   22.5190 C   0  0  0  0  0  0  0  0  0  0  0  0
  -21.5740   -6.8630   23.6570 C   0  0  0  0  0  3  0  0  0  0  0  0
  -21.3630   -6.1260   24.8390 C   0  0  0  0  0  3  0  0  0  0  0  0
  -21.6880   -4.7570   24.8840 C   0  0  0  0  0  0  0  0  0  0  0  0
  -22.2270   -4.1240   23.7500 C   0  0  0  0  0  3  0  0  0  0  0  0
  -22.4380   -4.8570   22.5700 C   0  0  0  0  0  0  0  0  0  0  0  0
  -22.9370   -4.2380   21.4740 F   0  0  0  0  0  0  0  0  0  0  0  0
  -21.4800   -4.0480   26.0170 F   0  0  0  0  0  0  0  0  0  0  0  0
  -23.4230  -13.5240   21.2410 C   0  0  0  0  0  0  0  0  0  0  0  0
  -22.7810  -12.8030   22.1520 N   0  0  0  0  0  0  0  0  0  0  0  0
  -22.9460  -14.5710   20.8030 O   0  0  0  0  0  0  0  0  0  0  0  0
  -23.1840  -11.9560   22.5240 H   0  0  0  0  0  0  0  0  0  0  0  0
  -21.8750  -13.1030   22.4840 H   0  0  0  0  0  0  0  0  0  0  0  0
  -25.9680  -15.2150   20.2700 N   0  0  0  0  0  0  0  0  0  0  0  0
  -25.2340  -15.8670   20.5200 H   0  0  0  0  0  0  0  0  0  0  0  0
  -26.8160  -15.6700   19.9580 H   0  0  0  0  0  0  0  0  0  0  0  0
  -27.1840  -20.8670   20.7630 N   0  0  0  0  0  0  0  0  0  0  0  0
  -26.5050  -20.6300   21.4790 H   0  0  0  0  0  0  0  0  0  0  0  0
  -27.4920  -21.8300   20.8200 H   0  0  0  0  0  0  0  0  0  0  0  0
  -29.4680  -22.1770   19.5070 C   0  0  0  0  0  3  0  0  0  0  0  0
  -28.4580  -23.8500   19.6500 C   0  0  0  0  0  3  0  0  0  0  0  0
  -28.6270  -25.6170   19.6700 O   0  0  0  0  0  0  0  0  0  0  0  0
  -25.1180  -31.6400   23.1680 C   0  0  0  0  0  0  0  0  0  0  0  0
  -27.6470  -26.8270   19.7540 C   0  0  0  0  0  0  0  0  0  0  0  0
  -23.9400  -30.4090   21.3960 C   0  0  0  0  0  3  0  0  0  0  0  0
  -25.3910  -28.8810   19.8590 C   0  0  0  0  0  0  0  0  0  0  0  0
  -26.5220  -30.5370   21.3180 C   0  0  0  0  0  2  0  0  0  0  0  0
  -26.5840  -29.1680   20.5350 C   0  0  0  0  0  0  0  0  0  0  0  0
  -27.6970  -28.1750   20.4470 C   0  0  0  0  0  3  0  0  0  0  0  0
  -26.4190  -26.7550   19.0480 C   0  0  0  0  0  3  0  0  0  0  0  0
  -25.3490  -27.7020   19.0940 C   0  0  0  0  0  3  0  0  0  0  0  0
  -24.1920  -29.8360   19.9710 C   0  0  0  0  0  2  0  0  0  0  0  0
  -25.2180  -30.8900   22.0170 N   0  0  0  0  0  0  0  0  0  0  0  0
  -24.0210  -31.9010   23.6910 O   0  0  0  0  0  0  0  0  0  0  0  0
  -23.2030  -29.3530   22.2660 C   0  0  0  0  0  0  0  0  0  0  0  0
  -21.8680  -29.2380   22.1270 N   0  0  0  0  0  0  0  0  0  0  0  0
  -23.8450  -28.6380   23.0380 O   0  0  0  0  0  0  0  0  0  0  0  0
  -21.4010  -29.8650   21.4880 H   0  0  0  0  0  0  0  0  0  0  0  0
  -18.4470  -28.1020   22.5900 C   0  0  0  0  0  0  0  0  0  0  0  0
  -21.0230  -28.2450   22.8020 C   0  0  0  0  0  3  0  0  0  0  0  0
  -21.0510  -26.8910   22.0550 C   0  0  0  0  0  2  0  0  0  0  0  0
  -19.9110  -26.7380   21.0420 C   0  0  0  0  0  2  0  0  0  0  0  0
  -18.5540  -26.8470   21.7410 C   0  0  0  0  0  2  0  0  0  0  0  0
  -19.6050  -28.7680   23.0740 C   0  0  0  0  0  0  0  0  0  0  0  0
  -19.4460  -29.9470   23.8340 C   0  0  0  0  0  3  0  0  0  0  0  0
  -18.1650  -30.4600   24.1100 C   0  0  0  0  0  3  0  0  0  0  0  0
  -17.0230  -29.7910   23.6370 C   0  0  0  0  0  3  0  0  0  0  0  0
  -17.1650  -28.6130   22.8820 C   0  0  0  0  0  3  0  0  0  0  0  0
  -26.3770  -32.2180   23.8820 C   0  0  0  0  0  3  0  0  0  0  0  0
  -26.8510  -31.3370   25.1060 C   0  0  1  0  0  0  0  0  0  0  0  0
  -25.7310  -31.0330   26.1280 C   0  0  0  0  0  1  0  0  0  0  0  0
  -27.4230  -29.9840   24.6280 C   0  0  0  0  0  1  0  0  0  0  0  0
  -27.9970  -32.0570   25.8550 C   0  0  0  0  0  1  0  0  0  0  0  0
  -26.0600  -33.5830   24.3440 N   0  0  0  0  0  0  0  0  0  0  0  0
  -26.3840  -34.7130   23.6990 C   0  0  0  0  0  0  0  0  0  0  0  0
  -27.0380  -34.7140   22.6530 O   0  0  0  0  0  0  0  0  0  0  0  0
  -25.4740  -33.6540   25.1620 H   0  0  0  0  0  0  0  0  0  0  0  0
  -24.6400  -36.5300   23.5860 C   0  0  0  0  0  1  0  0  0  0  0  0
  -25.9120  -36.0510   24.3060 C   0  0  0  0  0  3  0  0  0  0  0  0
  -28.0680  -36.8800   25.1430 C   0  0  0  0  0  1  0  0  0  0  0  0
  -26.9360  -37.1190   24.2530 N   0  0  0  0  0  0  0  0  0  0  0  0
  -26.5300  -38.0200   24.4930 H   0  0  0  0  0  0  0  0  0  0  0  0
  1  4  2  0
  1  3  1  0
  3  6  2  0
  4  5  1  0
  5  2  2  0
  5 44  1  0
  6  2  1  0
  6  7  1  0
  8 14  1  0
  8  3  1  0
  9 14  1  0
 10 11  1  0
 10  9  1  0
 12 11  1  0
 12 19  1  0
 12 13  1  0
 14 13  1  0
 15  8  2  0
 16 17  2  0
 17 36  1  0
 18 17  1  0
 18 21  1  0
 19 20  1  0
 19 16  1  0
 20 18  2  0
 21 22  1  0
 22 23  2  0
 24 27  1  0
 24 23  1  0
 25 24  2  0
 26 25  1  0
 26 21  2  0
 27 28  1  0
 28 33  2  0
 28 29  1  0
 29 30  2  0
 30 31  1  0
 31 35  1  0
 32 31  2  0
 33 32  1  0
 34 33  1  0
 36 37  1  0
 37 40  1  0
 37 39  1  0
 38 36  2  0
 41 16  1  0
 41 42  1  0
 43 41  1  0
 44 46  1  0
 44 45  1  0
 47 48  2  0
 47  4  1  0
 48 49  1  0
 49 51  1  0
 50 61  2  0
 51 56  1  0
 52 60  1  0
 52 62  1  0
 53 59  1  0
 53 55  1  0
 54 60  1  0
 55 54  1  0
 56 55  2  0
 57 58  1  0
 57 51  2  0
 58 53  2  0
 59 52  1  0
 60 50  1  0
 62 64  2  0
 63 62  1  0
 65 63  1  0
 66 75  2  0
 66 71  1  0
 67 63  1  0
 67 71  1  0
 68 67  1  0
 69 70  1  0
 69 68  1  0
 70 66  1  0
 71 72  2  0
 72 73  1  0
 74 73  2  0
 75 74  1  0
 76 50  1  0
 76 81  1  0
 76 77  1  0
 77 80  1  1
 77 78  1  0
 79 77  1  0
 81 84  1  0
 82 86  1  0
 82 81  1  0
 83 82  2  0
 86 85  1  0
 88 86  1  0
 88 89  1  0
 88 87  1  0
M  ISO  4   3 100   8 100  48 101  49 101
M  END
>  <TORSDO>  (16) 
F 19

>  <SCORE>  (16) 
-13.544

>  <name>  (16) 
15

>  <ligand_id>  (16) 
15

>  <original_smiles>  (16) 
[H]c1c([H])c([H])c2c(c1[H])C([H])([H])C([H])([H])C([H])([H])C2([H])N([H])C(=O)C1([H])N(C(=O)C([H])(N([H])C(=O)C([H])(N([H])C([H])([H])[H])C([H])([H])[H])C(C([H])([H])[H])(C([H])([H])[H])C([H])([H])[H])C([H])([H])c2c([H])c(OC([H])([H])C([H])([H])c3c([H])c(C(=O)N4C([H])([H])C([H])([H])C([H])([H])C([H])(n5nc(-c6c([H])c([H])c(Oc7c([H])c([H])c(F)c([H])c7F)c([H])c6[H])c(C(=O)N([H])[H])c5N([H])[H])C4([H])[H])c(F)c([H])c3N([H])[H])c([H])c([H])c2C1([H])[H]

>  <smiles>  (16) 
[H]c1c([H])c([H])c2c(c1[H])C([H])([H])C([H])([H])C([H])([H])C2([H])N([H])C(=O)C1([H])N(C(=O)C([H])(N([H])C(=O)C([H])(N([H])C([H])([H])[H])C([H])([H])[H])C(C([H])([H])[H])(C([H])([H])[H])C([H])([H])[H])C([H])([H])c2c([H])c(OC([H])([H])C([H])([H])c3c([H])c(C(=O)N4C([H])([H])C([H])([H])C([H])([H])C([H])(n5nc(-c6c([H])c([H])c(Oc7c([H])c([H])c(F)c([H])c7F)c([H])c6[H])c(C(=O)N([H])[H])c5N([H])[H])C4([H])[H])c(F)c([H])c3N([H])[H])c([H])c([H])c2C1([H])[H]

$$$$
16:0:0
     RDKit          3D

 88 97  0  0  1  0  0  0  0  0999 V2000
  -30.2990  -15.8220   20.2460 C   0  0  0  0  0  0  0  0  0  0  0  0
  -30.4390  -13.2240   19.4960 C   0  0  0  0  0  2  0  0  0  0  0  0
  -29.6050  -12.7010   18.2900 C   0  0  0  0  0  2  0  0  0  0  0  0
  -28.1890  -12.3120   18.7300 C   0  0  0  0  0  2  0  0  0  0  0  0
  -27.6210  -13.3480   19.7250 C   0  0  0  0  0  3  0  0  0  0  0  0
  -28.6080  -13.7770   20.8410 C   0  0  0  0  0  2  0  0  0  0  0  0
  -29.7620  -14.4410   20.1740 N   0  0  0  0  0  0  0  0  0  0  0  0
  -31.5350  -15.6770   20.1020 O   0  0  0  0  0  0  0  0  0  0  0  0
  -30.3010  -21.7610   19.6500 C   0  0  0  0  0  2  0  0  0  0  0  0
  -27.7780  -22.3710   20.3020 C   0  0  0  0  0  3  0  0  0  0  0  0
  -29.6380  -20.4790   19.9390 C   0  0  0  0  0  0  0  0  0  0  0  0
  -28.3140  -20.8690   20.2720 C   0  0  0  0  0  0  0  0  0  0  0  0
  -29.7920  -23.1860   19.6800 C   0  0  0  0  0  0  0  0  0  0  0  0
  -28.4570  -23.7460   19.9990 C   0  0  0  0  0  0  0  0  0  0  0  0
  -27.6040  -19.4280   20.4900 C   0  0  0  0  0  3  0  0  0  0  0  0
  -30.2710  -18.8190   19.8670 C   0  0  0  0  0  3  0  0  0  0  0  0
  -28.3480  -17.9020   20.8030 C   0  0  0  0  0  3  0  0  0  0  0  0
  -30.8290  -24.2380   19.3270 C   0  0  0  0  0  1  0  0  0  0  0  0
  -29.6580  -17.2970   20.2080 N   0  0  0  0  0  0  0  0  0  0  0  0
  -25.2390  -13.8500   20.4240 C   0  0  0  0  0  0  0  0  0  0  0  0
  -24.1820  -13.0620   20.7800 C   0  0  0  0  0  0  0  0  0  0  0  0
  -24.6740  -11.7200   20.7910 C   0  0  0  0  0  0  0  0  0  0  0  0
  -26.3020  -12.9930   20.2270 N   0  0  0  0  0  0  0  0  0  0  0  0
  -25.9760  -11.7040   20.5130 N   0  0  0  0  0  0  0  0  0  0  0  0
  -23.9590  -10.4510   20.9870 C   0  0  0  0  0  0  0  0  0  0  0  0
  -24.3780   -9.5050   21.9470 C   0  0  0  0  0  3  0  0  0  0  0  0
  -23.6550   -8.3060   22.1350 C   0  0  0  0  0  3  0  0  0  0  0  0
  -22.5000   -8.0440   21.3620 C   0  0  0  0  0  0  0  0  0  0  0  0
  -22.0990   -8.9800   20.3910 C   0  0  0  0  0  3  0  0  0  0  0  0
  -22.8220  -10.1690   20.2020 C   0  0  0  0  0  3  0  0  0  0  0  0
  -21.7510   -6.8950   21.4560 O   0  0  0  0  0  0  0  0  0  0  0  0
  -21.6850   -6.1730   22.6210 C   0  0  0  0  0  0  0  0  0  0  0  0
  -21.2380   -6.7480   23.8300 C   0  0  0  0  0  3  0  0  0  0  0  0
  -21.1200   -5.9530   24.9870 C   0  0  0  0  0  3  0  0  0  0  0  0
  -21.4380   -4.5820   24.9350 C   0  0  0  0  0  0  0  0  0  0  0  0
  -21.8790   -4.0060   23.7310 C   0  0  0  0  0  3  0  0  0  0  0  0
  -21.9980   -4.7990   22.5760 C   0  0  0  0  0  0  0  0  0  0  0  0
  -22.4020   -4.2340   21.4130 F   0  0  0  0  0  0  0  0  0  0  0  0
  -21.3190   -3.8150   26.0440 F   0  0  0  0  0  0  0  0  0  0  0  0
  -22.7720  -13.5250   20.9930 C   0  0  0  0  0  0  0  0  0  0  0  0
  -22.0310  -12.8480   21.8620 N   0  0  0  0  0  0  0  0  0  0  0  0
  -22.3380  -14.5260   20.4240 O   0  0  0  0  0  0  0  0  0  0  0  0
  -22.3960  -12.0410   22.3440 H   0  0  0  0  0  0  0  0  0  0  0  0
  -21.0830  -13.1450   22.0490 H   0  0  0  0  0  0  0  0  0  0  0  0
  -25.3810  -15.2190   20.2160 N   0  0  0  0  0  0  0  0  0  0  0  0
  -24.5950  -15.8560   20.2830 H   0  0  0  0  0  0  0  0  0  0  0  0
  -26.2210  -15.6580   19.8640 H   0  0  0  0  0  0  0  0  0  0  0  0
  -28.2300  -25.3970   20.0500 O   0  0  0  0  0  0  0  0  0  0  0  0
  -24.7150  -31.7850   23.0080 C   0  0  0  0  0  0  0  0  0  0  0  0
  -27.2110  -26.6070   20.0240 C   0  0  0  0  0  0  0  0  0  0  0  0
  -23.5140  -30.3770   21.3890 C   0  0  0  0  0  3  0  0  0  0  0  0
  -24.9480  -28.7020   19.9750 C   0  0  0  0  0  0  0  0  0  0  0  0
  -26.0950  -30.4910   21.2520 C   0  0  0  0  0  2  0  0  0  0  0  0
  -26.1490  -29.0430   20.6050 C   0  0  0  0  0  0  0  0  0  0  0  0
  -27.2540  -28.0260   20.5950 C   0  0  0  0  0  3  0  0  0  0  0  0
  -25.9760  -26.5030   19.3270 C   0  0  0  0  0  3  0  0  0  0  0  0
  -24.9050  -27.4600   19.3120 C   0  0  0  0  0  3  0  0  0  0  0  0
  -23.7450  -29.6650   20.0220 C   0  0  0  0  0  2  0  0  0  0  0  0
  -24.8010  -30.9220   21.9340 N   0  0  0  0  0  0  0  0  0  0  0  0
  -23.6260  -32.0890   23.5240 O   0  0  0  0  0  0  0  0  0  0  0  0
  -22.8020  -29.4110   22.3760 C   0  0  0  0  0  0  0  0  0  0  0  0
  -21.4640  -29.2790   22.2820 N   0  0  0  0  0  0  0  0  0  0  0  0
  -23.4660  -28.7770   23.1980 O   0  0  0  0  0  0  0  0  0  0  0  0
  -20.9760  -29.8400   21.5980 H   0  0  0  0  0  0  0  0  0  0  0  0
  -18.0710  -28.1240   22.8940 C   0  0  0  0  0  0  0  0  0  0  0  0
  -20.6430  -28.3490   23.0700 C   0  0  0  0  0  3  0  0  0  0  0  0
  -20.6990  -26.9220   22.4780 C   0  0  0  0  0  2  0  0  0  0  0  0
  -19.5600  -26.6320   21.4960 C   0  0  0  0  0  2  0  0  0  0  0  0
  -18.2030  -26.7860   22.1880 C   0  0  0  0  0  2  0  0  0  0  0  0
  -19.2150  -28.8660   23.2930 C   0  0  0  0  0  0  0  0  0  0  0  0
  -19.0330  -30.1160   23.9230 C   0  0  0  0  0  3  0  0  0  0  0  0
  -17.7410  -30.6270   24.1500 C   0  0  0  0  0  3  0  0  0  0  0  0
  -16.6130  -29.8850   23.7610 C   0  0  0  0  0  3  0  0  0  0  0  0
  -16.7780  -28.6350   23.1400 C   0  0  0  0  0  3  0  0  0  0  0  0
  -25.9800  -32.4450   23.6360 C   0  0  0  0  0  3  0  0  0  0  0  0
  -25.6360  -33.8270   24.0320 N   0  0  0  0  0  0  0  0  0  0  0  0
  -25.9290  -34.9300   23.3290 C   0  0  0  0  0  0  0  0  0  0  0  0
  -26.5720  -34.8930   22.2770 O   0  0  0  0  0  0  0  0  0  0  0  0
  -25.0570  -33.9260   24.8520 H   0  0  0  0  0  0  0  0  0  0  0  0
  -24.1590  -36.7150   23.1330 C   0  0  0  0  0  1  0  0  0  0  0  0
  -25.4350  -36.2880   23.8750 C   0  0  0  0  0  3  0  0  0  0  0  0
  -27.5820  -37.1810   24.6730 C   0  0  0  0  0  1  0  0  0  0  0  0
  -26.4440  -37.3680   23.7770 N   0  0  0  0  0  0  0  0  0  0  0  0
  -26.0250  -38.2710   23.9800 H   0  0  0  0  0  0  0  0  0  0  0  0
  -26.5290  -31.6570   24.8910 C   0  0  1  0  0  0  0  0  0  0  0  0
  -25.4580  -31.3850   25.9750 C   0  0  0  0  0  1  0  0  0  0  0  0
  -27.1230  -30.2940   24.4760 C   0  0  0  0  0  1  0  0  0  0  0  0
  -27.6810  -32.4540   25.5480 C   0  0  0  0  0  1  0  0  0  0  0  0
  2  7  1  0
  3  4  1  0
  3  2  1  0
  5  4  1  0
  5 23  1  0
  5  6  1  0
  7  1  1  0
  7  6  1  0
  8  1  2  0
  9 13  1  0
  9 11  1  0
 11 12  1  0
 12 10  2  0
 12 15  1  0
 13 14  2  0
 14 48  1  0
 14 10  1  0
 15 17  2  0
 16 11  2  0
 16 19  1  0
 18 13  1  0
 19  1  1  0
 19 17  1  0
 20 21  2  0
 21 22  1  0
 21 40  1  0
 22 25  1  0
 23 20  1  0
 23 24  1  0
 24 22  2  0
 25 26  1  0
 26 27  2  0
 28 31  1  0
 28 27  1  0
 29 28  2  0
 30 29  1  0
 30 25  2  0
 31 32  1  0
 32 33  1  0
 33 34  2  0
 35 34  1  0
 35 39  1  0
 36 35  2  0
 37 32  2  0
 37 36  1  0
 38 37  1  0
 40 41  1  0
 41 44  1  0
 41 43  1  0
 42 40  2  0
 45 46  1  0
 45 20  1  0
 47 45  1  0
 49 60  2  0
 50 48  1  0
 50 55  1  0
 51 59  1  0
 51 61  1  0
 52 58  1  0
 52 54  1  0
 53 59  1  0
 54 53  1  0
 55 54  2  0
 56 50  2  0
 57 56  1  0
 57 52  2  0
 58 51  1  0
 59 49  1  0
 61 63  2  0
 62 61  1  0
 64 62  1  0
 65 74  2  0
 65 70  1  0
 66 62  1  0
 66 70  1  0
 67 66  1  0
 68 69  1  0
 68 67  1  0
 69 65  1  0
 70 71  2  0
 71 72  1  0
 73 72  2  0
 74 73  1  0
 75 49  1  0
 75 76  1  0
 75 85  1  0
 76 79  1  0
 77 81  1  0
 77 76  1  0
 78 77  2  0
 81 80  1  0
 83 81  1  0
 83 84  1  0
 83 82  1  0
 85 88  1  1
 85 86  1  0
 87 85  1  0
M  ISO  4   1 100  14 101  19 100  48 101
M  END
>  <TORSDO>  (17) 
F 15

>  <SCORE>  (17) 
-15.776

>  <name>  (17) 
16

>  <ligand_id>  (17) 
16

>  <original_smiles>  (17) 
[H]c1c([H])c([H])c2c(c1[H])C([H])([H])C([H])([H])C([H])([H])C2([H])N([H])C(=O)C1([H])N(C(=O)C([H])(N([H])C(=O)C([H])(N([H])C([H])([H])[H])C([H])([H])[H])C(C([H])([H])[H])(C([H])([H])[H])C([H])([H])[H])C([H])([H])c2c([H])c(Oc3c([H])c4c(c([H])c3C([H])([H])[H])C([H])([H])N(C(=O)N3C([H])([H])C([H])([H])C([H])([H])C([H])(n5nc(-c6c([H])c([H])c(Oc7c([H])c([H])c(F)c([H])c7F)c([H])c6[H])c(C(=O)N([H])[H])c5N([H])[H])C3([H])[H])C([H])([H])C4([H])[H])c([H])c([H])c2C1([H])[H]

>  <smiles>  (17) 
[H]c1c([H])c([H])c2c(c1[H])C([H])([H])C([H])([H])C([H])([H])C2([H])N([H])C(=O)C1([H])N(C(=O)C([H])(N([H])C(=O)C([H])(N([H])C([H])([H])[H])C([H])([H])[H])C(C([H])([H])[H])(C([H])([H])[H])C([H])([H])[H])C([H])([H])c2c([H])c(Oc3c([H])c4c(c([H])c3C([H])([H])[H])C([H])([H])N(C(=O)N3C([H])([H])C([H])([H])C([H])([H])C([H])(n5nc(-c6c([H])c([H])c(Oc7c([H])c([H])c(F)c([H])c7F)c([H])c6[H])c(C(=O)N([H])[H])c5N([H])[H])C3([H])[H])C([H])([H])C4([H])[H])c([H])c([H])c2C1([H])[H]

$$$$
17:0:0
     RDKit          3D

 92100  0  0  1  0  0  0  0  0999 V2000
  -28.9290  -21.9250   18.5100 C   0  0  0  0  0  3  0  0  0  0  0  0
  -28.7480  -23.1650   20.5640 C   0  0  0  0  0  3  0  0  0  0  0  0
  -28.3660  -24.3740   18.5150 C   0  0  0  0  0  3  0  0  0  0  0  0
  -29.0220  -21.7850   19.9170 C   0  0  0  0  0  0  0  0  0  0  0  0
  -28.6210  -23.1470   17.8450 C   0  0  0  0  0  0  0  0  0  0  0  0
  -28.4020  -24.5250   19.9140 C   0  0  0  0  0  0  0  0  0  0  0  0
  -28.5780  -23.1460   16.3290 C   0  0  0  0  0  1  0  0  0  0  0  0
  -29.3230  -20.1970   20.5360 C   0  0  0  0  0  0  0  0  0  0  0  0
  -29.1150  -20.1210   21.7500 O   0  0  0  0  0  0  0  0  0  0  0  0
  -29.8910  -18.6180   19.8200 C   0  0  0  0  0  3  0  0  0  0  0  0
  -29.2740  -18.5780   18.4840 N   0  0  0  0  0  4  0  0  0  0  0  0
  -28.2780  -18.4820   18.5550 H   0  0  0  0  0  0  0  0  0  0  0  0
  -29.6410  -17.8150   17.9460 H   0  0  0  0  0  0  0  0  0  0  0  0
  -29.4830  -19.4250   17.9900 H   0  0  0  0  0  0  0  0  0  0  0  0
  -29.8470  -16.9350   20.4810 C   0  0  0  0  0  2  0  0  0  0  0  0
  -30.6250  -15.4090   20.0650 C   0  0  0  0  0  0  0  0  0  0  0  0
  -30.5930  -12.9790   19.1300 C   0  0  0  0  0  2  0  0  0  0  0  0
  -29.6320  -12.8360   17.9200 C   0  0  0  0  0  2  0  0  0  0  0  0
  -28.1920  -12.5570   18.3890 C   0  0  0  0  0  2  0  0  0  0  0  0
  -27.7820  -13.4800   19.5630 C   0  0  0  0  0  3  0  0  0  0  0  0
  -28.8650  -13.5740   20.6600 C   0  0  0  0  0  2  0  0  0  0  0  0
  -30.0910  -14.0860   20.0260 N   0  0  0  0  0  0  0  0  0  0  0  0
  -31.8110  -15.4260   19.7060 O   0  0  0  0  0  0  0  0  0  0  0  0
  -25.4320  -14.0230   20.3870 C   0  0  0  0  0  0  0  0  0  0  0  0
  -24.3830  -13.2390   20.7790 C   0  0  0  0  0  0  0  0  0  0  0  0
  -24.8540  -11.8900   20.7250 C   0  0  0  0  0  0  0  0  0  0  0  0
  -26.4700  -13.1540   20.1040 N   0  0  0  0  0  0  0  0  0  0  0  0
  -26.1370  -11.8650   20.3750 N   0  0  0  0  0  0  0  0  0  0  0  0
  -24.1350  -10.6260   20.9290 C   0  0  0  0  0  0  0  0  0  0  0  0
  -24.5660   -9.6740   21.8790 C   0  0  0  0  0  3  0  0  0  0  0  0
  -23.8450   -8.4750   22.0690 C   0  0  0  0  0  3  0  0  0  0  0  0
  -22.6790   -8.2200   21.3100 C   0  0  0  0  0  0  0  0  0  0  0  0
  -22.2680   -9.1600   20.3490 C   0  0  0  0  0  3  0  0  0  0  0  0
  -22.9890  -10.3500   20.1580 C   0  0  0  0  0  3  0  0  0  0  0  0
  -21.9290   -7.0720   21.4090 O   0  0  0  0  0  0  0  0  0  0  0  0
  -21.8430   -6.3660   22.5820 C   0  0  0  0  0  0  0  0  0  0  0  0
  -21.3320   -6.9460   23.7640 C   0  0  0  0  0  3  0  0  0  0  0  0
  -21.1990   -6.1650   24.9300 C   0  0  0  0  0  3  0  0  0  0  0  0
  -21.5640   -4.8060   24.9140 C   0  0  0  0  0  0  0  0  0  0  0  0
  -22.0680   -4.2250   23.7370 C   0  0  0  0  0  3  0  0  0  0  0  0
  -22.2050   -5.0040   22.5730 C   0  0  0  0  0  0  0  0  0  0  0  0
  -22.6710   -4.4340   21.4350 F   0  0  0  0  0  0  0  0  0  0  0  0
  -21.4280   -4.0530   26.0310 F   0  0  0  0  0  0  0  0  0  0  0  0
  -22.9920  -13.7110   21.0870 C   0  0  0  0  0  0  0  0  0  0  0  0
  -22.2870  -13.0070   21.9660 N   0  0  0  0  0  0  0  0  0  0  0  0
  -22.5400  -14.7380   20.5840 O   0  0  0  0  0  0  0  0  0  0  0  0
  -22.6670  -12.1770   22.3960 H   0  0  0  0  0  0  0  0  0  0  0  0
  -21.3540  -13.3060   22.2140 H   0  0  0  0  0  0  0  0  0  0  0  0
  -25.5840  -15.3970   20.2180 N   0  0  0  0  0  0  0  0  0  0  0  0
  -24.8160  -16.0440   20.3640 H   0  0  0  0  0  0  0  0  0  0  0  0
  -26.4230  -15.8450   19.8730 H   0  0  0  0  0  0  0  0  0  0  0  0
  -28.3100  -25.9770   20.3960 O   0  0  0  0  0  0  0  0  0  0  0  0
  -24.6800  -31.8920   23.2510 C   0  0  0  0  0  0  0  0  0  0  0  0
  -27.2910  -27.0520   20.2440 C   0  0  0  0  0  0  0  0  0  0  0  0
  -23.5010  -30.4890   21.6040 C   0  0  0  0  0  3  0  0  0  0  0  0
  -24.9700  -28.8980   20.1790 C   0  0  0  0  0  0  0  0  0  0  0  0
  -26.0640  -30.7250   21.4650 C   0  0  0  0  0  2  0  0  0  0  0  0
  -26.1470  -29.3170   20.8090 C   0  0  0  0  0  0  0  0  0  0  0  0
  -27.2960  -28.4120   20.8220 C   0  0  0  0  0  3  0  0  0  0  0  0
  -26.0880  -26.7810   19.5520 C   0  0  0  0  0  3  0  0  0  0  0  0
  -24.9650  -27.6500   19.5300 C   0  0  0  0  0  3  0  0  0  0  0  0
  -23.7400  -29.8060   20.2280 C   0  0  0  0  0  2  0  0  0  0  0  0
  -24.7690  -31.0620   22.1610 N   0  0  0  0  0  0  0  0  0  0  0  0
  -23.5870  -32.1750   23.7670 O   0  0  0  0  0  0  0  0  0  0  0  0
  -22.8090  -29.4900   22.5680 C   0  0  0  0  0  0  0  0  0  0  0  0
  -21.4810  -29.3220   22.4390 N   0  0  0  0  0  0  0  0  0  0  0  0
  -23.4750  -28.8650   23.3970 O   0  0  0  0  0  0  0  0  0  0  0  0
  -20.9950  -29.8790   21.7490 H   0  0  0  0  0  0  0  0  0  0  0  0
  -18.1010  -28.0980   22.9360 C   0  0  0  0  0  0  0  0  0  0  0  0
  -20.6590  -28.3780   23.2050 C   0  0  0  0  0  3  0  0  0  0  0  0
  -20.7690  -26.9480   22.6280 C   0  0  0  0  0  2  0  0  0  0  0  0
  -19.6710  -26.6220   21.6100 C   0  0  0  0  0  2  0  0  0  0  0  0
  -18.2860  -26.7540   22.2520 C   0  0  0  0  0  2  0  0  0  0  0  0
  -19.2150  -28.8670   23.3690 C   0  0  0  0  0  0  0  0  0  0  0  0
  -18.9850  -30.1230   23.9720 C   0  0  0  0  0  3  0  0  0  0  0  0
  -17.6770  -30.6120   24.1430 C   0  0  0  0  0  3  0  0  0  0  0  0
  -16.5780  -29.8420   23.7230 C   0  0  0  0  0  3  0  0  0  0  0  0
  -16.7910  -28.5860   23.1270 C   0  0  0  0  0  3  0  0  0  0  0  0
  -25.9440  -32.5410   23.8910 C   0  0  0  0  0  3  0  0  0  0  0  0
  -26.4240  -31.8030   25.2010 C   0  0  1  0  0  0  0  0  0  0  0  0
  -25.3050  -31.5980   26.2500 C   0  0  0  0  0  1  0  0  0  0  0  0
  -27.0090  -30.4110   24.8670 C   0  0  0  0  0  1  0  0  0  0  0  0
  -27.5640  -32.6080   25.8710 C   0  0  0  0  0  1  0  0  0  0  0  0
  -25.6300  -33.9500   24.1900 N   0  0  0  0  0  0  0  0  0  0  0  0
  -25.9800  -34.9940   23.4270 C   0  0  0  0  0  0  0  0  0  0  0  0
  -26.6640  -34.8740   22.4080 O   0  0  0  0  0  0  0  0  0  0  0  0
  -25.0230  -34.1180   24.9780 H   0  0  0  0  0  0  0  0  0  0  0  0
  -24.2740  -36.8040   23.0250 C   0  0  0  0  0  1  0  0  0  0  0  0
  -25.4970  -36.3950   23.8600 C   0  0  0  0  0  3  0  0  0  0  0  0
  -27.6210  -37.2770   24.7230 C   0  0  0  0  0  1  0  0  0  0  0  0
  -26.5400  -37.4390   23.7540 N   0  0  0  0  0  0  0  0  0  0  0  0
  -26.1390  -38.3640   23.8800 H   0  0  0  0  0  0  0  0  0  0  0  0
  1  4  1  0
  3  6  2  0
  4  8  1  0
  4  2  2  0
  5  1  2  0
  5  3  1  0
  6 52  1  0
  6  2  1  0
  7  5  1  0
  8  9  2  0
 10 15  1  0
 10  8  1  0
 11 12  1  0
 11 10  1  0
 13 11  1  0
 14 11  1  0
 16 15  1  0
 17 22  1  0
 18 19  1  0
 18 17  1  0
 20 19  1  0
 20 27  1  0
 20 21  1  0
 22 16  1  0
 22 21  1  0
 23 16  2  0
 24 25  2  0
 25 44  1  0
 26 25  1  0
 26 29  1  0
 27 28  1  0
 27 24  1  0
 28 26  2  0
 29 30  1  0
 30 31  2  0
 32 35  1  0
 32 31  1  0
 33 32  2  0
 34 33  1  0
 34 29  2  0
 35 36  1  0
 36 37  1  0
 37 38  2  0
 39 38  1  0
 39 43  1  0
 40 39  2  0
 41 36  2  0
 41 40  1  0
 42 41  1  0
 44 45  1  0
 45 48  1  0
 45 47  1  0
 46 44  2  0
 49 50  1  0
 49 24  1  0
 51 49  1  0
 53 64  2  0
 54 52  1  0
 54 59  1  0
 55 63  1  0
 55 65  1  0
 56 62  1  0
 56 58  1  0
 57 63  1  0
 58 59  2  0
 58 57  1  0
 60 54  2  0
 61 60  1  0
 61 56  2  0
 62 55  1  0
 63 53  1  0
 65 67  2  0
 66 65  1  0
 68 66  1  0
 69 78  2  0
 69 74  1  0
 70 66  1  0
 70 74  1  0
 71 70  1  0
 72 73  1  0
 72 71  1  0
 73 69  1  0
 74 75  2  0
 75 76  1  0
 77 76  2  0
 78 77  1  0
 79 53  1  0
 79 84  1  0
 79 80  1  0
 80 83  1  1
 80 81  1  0
 82 80  1  0
 84 87  1  0
 85 89  1  0
 85 84  1  0
 86 85  2  0
 89 88  1  0
 91 89  1  0
 91 92  1  0
 91 90  1  0
M  ISO  4   6 101  15 100  16 100  52 101
M  END
>  <TORSDO>  (18) 
F 20

>  <SCORE>  (18) 
-14.793

>  <name>  (18) 
17

>  <ligand_id>  (18) 
17

>  <original_smiles>  (18) 
[H]c1c([H])c([H])c2c(c1[H])C([H])([H])C([H])([H])C([H])([H])C2([H])N([H])C(=O)C1([H])N(C(=O)C([H])(N([H])C(=O)C([H])(N([H])C([H])([H])[H])C([H])([H])[H])C(C([H])([H])[H])(C([H])([H])[H])C([H])([H])[H])C([H])([H])c2c([H])c(Oc3c([H])c(C(=O)C([H])(C([H])([H])C(=O)N4C([H])([H])C([H])([H])C([H])([H])C([H])(n5nc(-c6c([H])c([H])c(Oc7c([H])c([H])c(F)c([H])c7F)c([H])c6[H])c(C(=O)N([H])[H])c5N([H])[H])C4([H])[H])[N+]([H])([H])[H])c([H])c(C([H])([H])[H])c3[H])c([H])c([H])c2C1([H])[H]

>  <smiles>  (18) 
[H]c1c([H])c([H])c2c(c1[H])C([H])([H])C([H])([H])C([H])([H])C2([H])N([H])C(=O)C1([H])N(C(=O)C([H])(N([H])C(=O)C([H])(N([H])C([H])([H])[H])C([H])([H])[H])C(C([H])([H])[H])(C([H])([H])[H])C([H])([H])[H])C([H])([H])c2c([H])c(Oc3c([H])c(C(=O)C([H])(C([H])([H])C(=O)N4C([H])([H])C([H])([H])C([H])([H])C([H])(n5nc(-c6c([H])c([H])c(Oc7c([H])c([H])c(F)c([H])c7F)c([H])c6[H])c(C(=O)N([H])[H])c5N([H])[H])C4([H])[H])[N+]([H])([H])[H])c([H])c(C([H])([H])[H])c3[H])c([H])c([H])c2C1([H])[H]

$$$$
18:0:0
     RDKit          3D

 89 97  0  0  1  0  0  0  0  0999 V2000
  -27.6860  -22.0920   19.8270 C   0  0  0  0  0  3  0  0  0  0  0  0
  -27.4710  -23.5490   19.7580 C   0  0  0  0  0  3  0  0  0  0  0  0
  -28.7960  -21.3820   20.4380 C   0  0  0  0  0  0  0  0  0  0  0  0
  -29.6800  -22.3970   20.9870 C   0  0  0  0  0  0  0  0  0  0  0  0
  -29.4680  -23.8750   20.9040 C   0  0  0  0  0  0  0  0  0  0  0  0
  -28.3340  -24.5760   20.3030 C   0  0  0  0  0  0  0  0  0  0  0  0
  -30.5230  -24.7850   21.5230 C   0  0  0  0  0  1  0  0  0  0  0  0
  -32.0610  -21.5350   20.7640 C   0  0  0  0  0  1  0  0  0  0  0  0
  -30.9040  -21.8520   21.7210 C   0  0  0  0  0  2  0  0  0  0  0  0
  -28.2530  -26.0880   20.2030 O   0  0  0  0  0  0  0  0  0  0  0  0
  -24.6130  -31.8820   23.2160 C   0  0  0  0  0  0  0  0  0  0  0  0
  -27.1610  -27.0720   20.1980 C   0  0  0  0  0  0  0  0  0  0  0  0
  -23.4040  -30.4810   21.5900 C   0  0  0  0  0  3  0  0  0  0  0  0
  -24.8430  -28.8840   20.1630 C   0  0  0  0  0  0  0  0  0  0  0  0
  -25.9610  -30.7180   21.4150 C   0  0  0  0  0  2  0  0  0  0  0  0
  -26.0270  -29.3130   20.7720 C   0  0  0  0  0  0  0  0  0  0  0  0
  -27.1800  -28.4240   20.7700 C   0  0  0  0  0  3  0  0  0  0  0  0
  -25.9520  -26.7740   19.5350 C   0  0  0  0  0  3  0  0  0  0  0  0
  -24.8230  -27.6310   19.5270 C   0  0  0  0  0  3  0  0  0  0  0  0
  -23.6190  -29.7940   20.2140 C   0  0  0  0  0  2  0  0  0  0  0  0
  -24.6810  -31.0530   22.1270 N   0  0  0  0  0  0  0  0  0  0  0  0
  -23.5290  -32.1690   23.7480 O   0  0  0  0  0  0  0  0  0  0  0  0
  -22.7280  -29.4810   22.5630 C   0  0  0  0  0  0  0  0  0  0  0  0
  -21.3990  -29.3050   22.4430 N   0  0  0  0  0  0  0  0  0  0  0  0
  -23.4010  -28.8640   23.3910 O   0  0  0  0  0  0  0  0  0  0  0  0
  -20.9070  -29.8530   21.7500 H   0  0  0  0  0  0  0  0  0  0  0  0
  -18.0270  -28.0800   22.9630 C   0  0  0  0  0  0  0  0  0  0  0  0
  -20.5850  -28.3670   23.2230 C   0  0  0  0  0  3  0  0  0  0  0  0
  -20.6970  -26.9310   22.6590 C   0  0  0  0  0  2  0  0  0  0  0  0
  -19.5960  -26.5930   21.6480 C   0  0  0  0  0  2  0  0  0  0  0  0
  -18.2150  -26.7290   22.2930 C   0  0  0  0  0  2  0  0  0  0  0  0
  -19.1400  -28.8570   23.3850 C   0  0  0  0  0  0  0  0  0  0  0  0
  -18.9090  -30.1190   23.9720 C   0  0  0  0  0  3  0  0  0  0  0  0
  -17.5990  -30.6070   24.1420 C   0  0  0  0  0  3  0  0  0  0  0  0
  -16.5010  -29.8290   23.7340 C   0  0  0  0  0  3  0  0  0  0  0  0
  -16.7160  -28.5670   23.1510 C   0  0  0  0  0  3  0  0  0  0  0  0
  -25.8920  -32.5230   23.8350 C   0  0  0  0  0  3  0  0  0  0  0  0
  -26.4160  -31.7550   25.1120 C   0  0  1  0  0  0  0  0  0  0  0  0
  -25.3280  -31.5190   26.1860 C   0  0  0  0  0  1  0  0  0  0  0  0
  -26.9990  -30.3770   24.7280 C   0  0  0  0  0  1  0  0  0  0  0  0
  -27.5680  -32.5530   25.7670 C   0  0  0  0  0  1  0  0  0  0  0  0
  -25.5760  -33.9210   24.1740 N   0  0  0  0  0  0  0  0  0  0  0  0
  -25.8990  -34.9840   23.4270 C   0  0  0  0  0  0  0  0  0  0  0  0
  -26.5620  -34.8920   22.3890 O   0  0  0  0  0  0  0  0  0  0  0  0
  -24.9860  -34.0660   24.9820 H   0  0  0  0  0  0  0  0  0  0  0  0
  -24.1710  -36.7860   23.1040 C   0  0  0  0  0  1  0  0  0  0  0  0
  -25.4160  -36.3690   23.9030 C   0  0  0  0  0  3  0  0  0  0  0  0
  -27.5530  -37.2490   24.7360 C   0  0  0  0  0  1  0  0  0  0  0  0
  -26.4480  -37.4240   23.7970 N   0  0  0  0  0  0  0  0  0  0  0  0
  -26.0420  -38.3430   23.9510 H   0  0  0  0  0  0  0  0  0  0  0  0
  -28.8130  -19.6830   20.6990 C   0  0  0  0  0  2  0  0  0  0  0  0
  -29.8450  -18.3270   20.3020 C   0  0  0  0  0  3  0  0  0  0  0  0
  -29.5740  -16.6290   20.6720 C   0  0  0  0  0  3  0  0  0  0  0  0
  -30.4390  -15.1850   20.3340 C   0  0  0  0  0  0  0  0  0  0  0  0
  -30.4150  -12.7870   19.3950 C   0  0  0  0  0  2  0  0  0  0  0  0
  -29.4750  -12.6850   18.1660 C   0  0  0  0  0  2  0  0  0  0  0  0
  -28.0180  -12.4370   18.6020 C   0  0  0  0  0  2  0  0  0  0  0  0
  -27.5980  -13.3610   19.7710 C   0  0  0  0  0  3  0  0  0  0  0  0
  -28.6550  -13.4100   20.8930 C   0  0  0  0  0  2  0  0  0  0  0  0
  -29.9110  -13.8780   20.2920 N   0  0  0  0  0  0  0  0  0  0  0  0
  -31.6330  -15.2530   20.0090 O   0  0  0  0  0  0  0  0  0  0  0  0
  -25.2270  -13.9250   20.5410 C   0  0  0  0  0  0  0  0  0  0  0  0
  -24.1660  -13.1460   20.9100 C   0  0  0  0  0  0  0  0  0  0  0  0
  -24.6300  -11.7950   20.8630 C   0  0  0  0  0  0  0  0  0  0  0  0
  -26.2660  -13.0490   20.2790 N   0  0  0  0  0  0  0  0  0  0  0  0
  -25.9200  -11.7620   20.5410 N   0  0  0  0  0  0  0  0  0  0  0  0
  -23.9040  -10.5320   21.0460 C   0  0  0  0  0  0  0  0  0  0  0  0
  -24.3310   -9.5610   21.9790 C   0  0  0  0  0  3  0  0  0  0  0  0
  -23.6030   -8.3640   22.1500 C   0  0  0  0  0  3  0  0  0  0  0  0
  -22.4350   -8.1280   21.3870 C   0  0  0  0  0  0  0  0  0  0  0  0
  -22.0280   -9.0870   20.4430 C   0  0  0  0  0  3  0  0  0  0  0  0
  -22.7560  -10.2750   20.2700 C   0  0  0  0  0  3  0  0  0  0  0  0
  -21.6790   -6.9820   21.4660 O   0  0  0  0  0  0  0  0  0  0  0  0
  -21.6060   -6.2480   22.6220 C   0  0  0  0  0  0  0  0  0  0  0  0
  -21.1410   -6.8070   23.8320 C   0  0  0  0  0  3  0  0  0  0  0  0
  -21.0160   -5.9980   24.9790 C   0  0  0  0  0  3  0  0  0  0  0  0
  -21.3450   -4.6300   24.9180 C   0  0  0  0  0  0  0  0  0  0  0  0
  -21.8040   -4.0700   23.7120 C   0  0  0  0  0  3  0  0  0  0  0  0
  -21.9310   -4.8760   22.5670 C   0  0  0  0  0  0  0  0  0  0  0  0
  -22.3530   -4.3270   21.4030 F   0  0  0  0  0  0  0  0  0  0  0  0
  -21.2200   -3.8520   26.0180 F   0  0  0  0  0  0  0  0  0  0  0  0
  -22.7700  -13.6200   21.1950 C   0  0  0  0  0  0  0  0  0  0  0  0
  -22.0460  -12.9130   22.0550 N   0  0  0  0  0  0  0  0  0  0  0  0
  -22.3320  -14.6540   20.6910 O   0  0  0  0  0  0  0  0  0  0  0  0
  -22.4140  -12.0770   22.4830 H   0  0  0  0  0  0  0  0  0  0  0  0
  -21.1100  -13.2140   22.2890 H   0  0  0  0  0  0  0  0  0  0  0  0
  -25.3910  -15.2980   20.3780 N   0  0  0  0  0  0  0  0  0  0  0  0
  -24.6270  -15.9530   20.4990 H   0  0  0  0  0  0  0  0  0  0  0  0
  -26.2410  -15.7370   20.0490 H   0  0  0  0  0  0  0  0  0  0  0  0
  1  3  1  0
  2  1  2  0
  2  6  1  0
  3 51  1  0
  3  4  2  0
  4  9  1  0
  5  4  1  0
  5  7  1  0
  6  5  2  0
  8  9  1  0
 10  6  1  0
 11 22  2  0
 12 10  1  0
 12 17  1  0
 13 21  1  0
 13 23  1  0
 14 20  1  0
 14 16  1  0
 15 21  1  0
 16 15  1  0
 17 16  2  0
 18 12  2  0
 19 18  1  0
 19 14  2  0
 20 13  1  0
 21 11  1  0
 23 25  2  0
 24 23  1  0
 26 24  1  0
 27 36  2  0
 27 32  1  0
 28 24  1  0
 28 32  1  0
 29 28  1  0
 30 31  1  0
 30 29  1  0
 31 27  1  0
 32 33  2  0
 33 34  1  0
 35 34  2  0
 36 35  1  0
 37 11  1  0
 37 42  1  0
 37 38  1  0
 38 41  1  1
 38 39  1  0
 40 38  1  0
 42 45  1  0
 43 47  1  0
 43 42  1  0
 44 43  2  0
 47 46  1  0
 49 47  1  0
 49 50  1  0
 49 48  1  0
 52 53  2  0
 52 51  1  0
 54 53  1  0
 55 60  1  0
 56 57  1  0
 56 55  1  0
 58 57  1  0
 58 65  1  0
 58 59  1  0
 60 54  1  0
 60 59  1  0
 61 54  2  0
 62 63  2  0
 63 82  1  0
 64 63  1  0
 64 67  1  0
 65 62  1  0
 65 66  1  0
 66 64  2  0
 67 68  1  0
 68 69  2  0
 70 73  1  0
 70 69  1  0
 71 70  2  0
 72 71  1  0
 72 67  2  0
 73 74  1  0
 74 75  1  0
 75 76  2  0
 77 76  1  0
 77 81  1  0
 78 77  2  0
 79 74  2  0
 79 78  1  0
 80 79  1  0
 82 83  1  0
 83 86  1  0
 83 85  1  0
 84 82  2  0
 87 88  1  0
 87 62  1  0
 89 87  1  0
M  ISO  4   6 101  10 101  53 100  54 100
M  END
>  <TORSDO>  (19) 
F 20

>  <SCORE>  (19) 
-15.594

>  <name>  (19) 
18

>  <ligand_id>  (19) 
18

>  <original_smiles>  (19) 
[H]c1c([H])c([H])c2c(c1[H])C([H])([H])C([H])([H])C([H])([H])C2([H])N([H])C(=O)C1([H])N(C(=O)C([H])(N([H])C(=O)C([H])(N([H])C([H])([H])[H])C([H])([H])[H])C(C([H])([H])[H])(C([H])([H])[H])C([H])([H])[H])C([H])([H])c2c([H])c(Oc3c([H])c([H])c(C([H])([H])C([H])([H])C([H])([H])C(=O)N4C([H])([H])C([H])([H])C([H])([H])C([H])(n5nc(-c6c([H])c([H])c(Oc7c([H])c([H])c(F)c([H])c7F)c([H])c6[H])c(C(=O)N([H])[H])c5N([H])[H])C4([H])[H])c(C([H])([H])C([H])([H])[H])c3C([H])([H])[H])c([H])c([H])c2C1([H])[H]

>  <smiles>  (19) 
[H]c1c([H])c([H])c2c(c1[H])C([H])([H])C([H])([H])C([H])([H])C2([H])N([H])C(=O)C1([H])N(C(=O)C([H])(N([H])C(=O)C([H])(N([H])C([H])([H])[H])C([H])([H])[H])C(C([H])([H])[H])(C([H])([H])[H])C([H])([H])[H])C([H])([H])c2c([H])c(Oc3c([H])c([H])c(C([H])([H])C([H])([H])C([H])([H])C(=O)N4C([H])([H])C([H])([H])C([H])([H])C([H])(n5nc(-c6c([H])c([H])c(Oc7c([H])c([H])c(F)c([H])c7F)c([H])c6[H])c(C(=O)N([H])[H])c5N([H])[H])C4([H])[H])c(C([H])([H])C([H])([H])[H])c3C([H])([H])[H])c([H])c([H])c2C1([H])[H]

$$$$
19:0:0
     RDKit          3D

 91 99  0  0  1  0  0  0  0  0999 V2000
  -30.4460  -21.7480   23.1570 C   0  0  0  0  0  3  0  0  0  0  0  0
  -29.8390  -22.9780   23.3120 C   0  0  0  0  0  3  0  0  0  0  0  0
  -30.1210  -20.9630   22.0560 C   0  0  0  0  0  3  0  0  0  0  0  0
  -29.0100  -23.5020   22.3130 C   0  0  0  0  0  0  0  0  0  0  0  0
  -29.2750  -21.3350   20.9770 C   0  0  0  0  0  0  0  0  0  0  0  0
  -28.8340  -22.9040   21.0090 C   0  0  0  0  0  0  0  0  0  0  0  0
  -28.2720  -24.7560   22.7860 C   0  0  0  0  0  1  0  0  0  0  0  0
  -28.7570  -20.0230   18.7070 C   0  0  0  0  0  1  0  0  0  0  0  0
  -29.0190  -19.7640   20.1930 C   0  0  0  0  0  3  0  0  0  0  0  0
  -30.4110  -15.4670   20.2400 C   0  0  0  0  0  0  0  0  0  0  0  0
  -30.4270  -13.0010   19.3720 C   0  0  0  0  0  2  0  0  0  0  0  0
  -29.5210  -12.7420   18.1420 C   0  0  0  0  0  2  0  0  0  0  0  0
  -28.0750  -12.4440   18.5720 C   0  0  0  0  0  2  0  0  0  0  0  0
  -27.6000  -13.4110   19.6820 C   0  0  0  0  0  3  0  0  0  0  0  0
  -28.6360  -13.6000   20.8110 C   0  0  0  0  0  2  0  0  0  0  0  0
  -29.8520  -14.1470   20.1800 N   0  0  0  0  0  0  0  0  0  0  0  0
  -31.6360  -15.4280   20.0380 O   0  0  0  0  0  0  0  0  0  0  0  0
  -29.9720  -18.2320   20.2820 C   0  0  0  0  0  0  0  0  0  0  0  0
  -29.6470  -16.7650   20.3290 N   0  0  0  0  0  0  0  0  0  0  0  0
  -31.1810  -18.4720   20.2340 O   0  0  0  0  0  0  0  0  0  0  0  0
  -28.6560  -16.5990   20.4080 H   0  0  0  0  0  0  0  0  0  0  0  0
  -25.2200  -13.9470   20.4110 C   0  0  0  0  0  0  0  0  0  0  0  0
  -24.1650  -13.1630   20.7840 C   0  0  0  0  0  0  0  0  0  0  0  0
  -24.6480  -11.8180   20.7760 C   0  0  0  0  0  0  0  0  0  0  0  0
  -26.2750  -13.0800   20.1870 N   0  0  0  0  0  0  0  0  0  0  0  0
  -25.9420  -11.7940   20.4750 N   0  0  0  0  0  0  0  0  0  0  0  0
  -23.9350  -10.5480   20.9740 C   0  0  0  0  0  0  0  0  0  0  0  0
  -24.3710   -9.5950   21.9190 C   0  0  0  0  0  3  0  0  0  0  0  0
  -23.6510   -8.3950   22.1080 C   0  0  0  0  0  3  0  0  0  0  0  0
  -22.4820   -8.1380   21.3510 C   0  0  0  0  0  0  0  0  0  0  0  0
  -22.0690   -9.0820   20.3940 C   0  0  0  0  0  3  0  0  0  0  0  0
  -22.7880  -10.2720   20.2030 C   0  0  0  0  0  3  0  0  0  0  0  0
  -21.7340   -6.9910   21.4510 O   0  0  0  0  0  0  0  0  0  0  0  0
  -21.6890   -6.2570   22.6100 C   0  0  0  0  0  0  0  0  0  0  0  0
  -21.2530   -6.8150   23.8320 C   0  0  0  0  0  3  0  0  0  0  0  0
  -21.1600   -6.0060   24.9820 C   0  0  0  0  0  3  0  0  0  0  0  0
  -21.4920   -4.6400   24.9100 C   0  0  0  0  0  0  0  0  0  0  0  0
  -21.9230   -4.0810   23.6940 C   0  0  0  0  0  3  0  0  0  0  0  0
  -22.0200   -4.8880   22.5480 C   0  0  0  0  0  0  0  0  0  0  0  0
  -22.4130   -4.3400   21.3720 F   0  0  0  0  0  0  0  0  0  0  0  0
  -21.3950   -3.8600   26.0120 F   0  0  0  0  0  0  0  0  0  0  0  0
  -22.7610  -13.6270   21.0330 C   0  0  0  0  0  0  0  0  0  0  0  0
  -22.0280  -12.9370   21.9010 N   0  0  0  0  0  0  0  0  0  0  0  0
  -22.3190  -14.6370   20.4850 O   0  0  0  0  0  0  0  0  0  0  0  0
  -22.3930  -12.1250   22.3760 H   0  0  0  0  0  0  0  0  0  0  0  0
  -21.0830  -13.2310   22.1010 H   0  0  0  0  0  0  0  0  0  0  0  0
  -25.3680  -15.3170   20.2150 N   0  0  0  0  0  0  0  0  0  0  0  0
  -24.5940  -15.9640   20.3220 H   0  0  0  0  0  0  0  0  0  0  0  0
  -26.2010  -15.7600   19.8530 H   0  0  0  0  0  0  0  0  0  0  0  0
  -28.1310  -24.2110   20.0580 C   0  0  0  0  0  2  0  0  0  0  0  0
  -28.2650  -25.8780   20.2810 O   0  0  0  0  0  0  0  0  0  0  0  0
  -24.6940  -31.8880   23.2160 C   0  0  0  0  0  0  0  0  0  0  0  0
  -27.2570  -26.9920   20.1860 C   0  0  0  0  0  0  0  0  0  0  0  0
  -23.5070  -30.4950   21.5680 C   0  0  0  0  0  3  0  0  0  0  0  0
  -24.9630  -28.8960   20.1370 C   0  0  0  0  0  0  0  0  0  0  0  0
  -26.0750  -30.7010   21.4350 C   0  0  0  0  0  2  0  0  0  0  0  0
  -26.1460  -29.2900   20.7720 C   0  0  0  0  0  0  0  0  0  0  0  0
  -27.2870  -28.3600   20.7660 C   0  0  0  0  0  3  0  0  0  0  0  0
  -26.0470  -26.7620   19.4970 C   0  0  0  0  0  3  0  0  0  0  0  0
  -24.9410  -27.6550   19.4770 C   0  0  0  0  0  3  0  0  0  0  0  0
  -23.7440  -29.8200   20.1880 C   0  0  0  0  0  2  0  0  0  0  0  0
  -24.7800  -31.0570   22.1260 N   0  0  0  0  0  0  0  0  0  0  0  0
  -23.6020  -32.1710   23.7370 O   0  0  0  0  0  0  0  0  0  0  0  0
  -22.8150  -29.4930   22.5310 C   0  0  0  0  0  0  0  0  0  0  0  0
  -21.4870  -29.3200   22.4070 N   0  0  0  0  0  0  0  0  0  0  0  0
  -23.4830  -28.8730   23.3630 O   0  0  0  0  0  0  0  0  0  0  0  0
  -20.9990  -29.8750   21.7170 H   0  0  0  0  0  0  0  0  0  0  0  0
  -18.1140  -28.0730   22.8970 C   0  0  0  0  0  0  0  0  0  0  0  0
  -20.6700  -28.3730   23.1730 C   0  0  0  0  0  3  0  0  0  0  0  0
  -20.7920  -26.9410   22.6010 C   0  0  0  0  0  2  0  0  0  0  0  0
  -19.7010  -26.6040   21.5830 C   0  0  0  0  0  2  0  0  0  0  0  0
  -18.3140  -26.7270   22.2190 C   0  0  0  0  0  2  0  0  0  0  0  0
  -19.2190  -28.8530   23.3310 C   0  0  0  0  0  0  0  0  0  0  0  0
  -18.9770  -30.1080   23.9290 C   0  0  0  0  0  3  0  0  0  0  0  0
  -17.6640  -30.5850   24.0970 C   0  0  0  0  0  3  0  0  0  0  0  0
  -16.5740  -29.8020   23.6780 C   0  0  0  0  0  3  0  0  0  0  0  0
  -16.8000  -28.5480   23.0840 C   0  0  0  0  0  3  0  0  0  0  0  0
  -25.9610  -32.5340   23.8510 C   0  0  0  0  0  3  0  0  0  0  0  0
  -25.6360  -33.9290   24.2000 N   0  0  0  0  0  0  0  0  0  0  0  0
  -25.9340  -34.9980   23.4480 C   0  0  0  0  0  0  0  0  0  0  0  0
  -26.5730  -34.9130   22.3980 O   0  0  0  0  0  0  0  0  0  0  0  0
  -25.0690  -34.0650   25.0230 H   0  0  0  0  0  0  0  0  0  0  0  0
  -24.1610  -36.7700   23.1980 C   0  0  0  0  0  1  0  0  0  0  0  0
  -25.4480  -36.3780   23.9400 C   0  0  0  0  0  3  0  0  0  0  0  0
  -27.6020  -37.3050   24.6730 C   0  0  0  0  0  1  0  0  0  0  0  0
  -26.4550  -37.4510   23.7830 N   0  0  0  0  0  0  0  0  0  0  0  0
  -26.0340  -38.3600   23.9560 H   0  0  0  0  0  0  0  0  0  0  0  0
  -26.4760  -31.7650   25.1310 C   0  0  1  0  0  0  0  0  0  0  0  0
  -25.3800  -31.5240   26.1960 C   0  0  0  0  0  1  0  0  0  0  0  0
  -27.0650  -30.3880   24.7520 C   0  0  0  0  0  1  0  0  0  0  0  0
  -27.6220  -32.5620   25.7970 C   0  0  0  0  0  1  0  0  0  0  0  0
  1  2  1  0
  3  1  2  0
  4  7  1  0
  4  2  2  0
  5  6  2  0
  5  3  1  0
  6  4  1  0
  9  8  1  0
  9 18  1  0
  9  5  1  0
 10 19  1  0
 11 16  1  0
 12 13  1  0
 12 11  1  0
 14 13  1  0
 14 25  1  0
 14 15  1  0
 16 10  1  0
 16 15  1  0
 17 10  2  0
 18 19  1  0
 19 21  1  0
 20 18  2  0
 22 23  2  0
 23 42  1  0
 24 23  1  0
 24 27  1  0
 25 22  1  0
 25 26  1  0
 26 24  2  0
 27 28  1  0
 28 29  2  0
 30 33  1  0
 30 29  1  0
 31 30  2  0
 32 31  1  0
 32 27  2  0
 33 34  1  0
 34 35  1  0
 35 36  2  0
 37 36  1  0
 37 41  1  0
 38 37  2  0
 39 34  2  0
 39 38  1  0
 40 39  1  0
 42 43  1  0
 43 46  1  0
 43 45  1  0
 44 42  2  0
 47 48  1  0
 47 22  1  0
 49 47  1  0
 50 51  1  0
 50  6  1  0
 52 63  2  0
 53 51  1  0
 53 58  1  0
 54 62  1  0
 54 64  1  0
 55 61  1  0
 55 57  1  0
 56 62  1  0
 57 56  1  0
 58 57  2  0
 59 53  2  0
 60 59  1  0
 60 55  2  0
 61 54  1  0
 62 52  1  0
 64 66  2  0
 65 64  1  0
 67 65  1  0
 68 77  2  0
 68 73  1  0
 69 65  1  0
 69 73  1  0
 70 69  1  0
 71 72  1  0
 71 70  1  0
 72 68  1  0
 73 74  2  0
 74 75  1  0
 76 75  2  0
 77 76  1  0
 78 52  1  0
 78 79  1  0
 78 88  1  0
 79 82  1  0
 80 84  1  0
 80 79  1  0
 81 80  2  0
 84 83  1  0
 86 84  1  0
 86 87  1  0
 86 85  1  0
 88 91  1  1
 88 89  1  0
 90 88  1  0
M  ISO  4  10 100  19 100  50 101  51 101
M  END
>  <TORSDO>  (20) 
F 18

>  <SCORE>  (20) 
-16.935

>  <name>  (20) 
19

>  <ligand_id>  (20) 
19

>  <original_smiles>  (20) 
[H]c1c([H])c([H])c2c(c1[H])C([H])([H])C([H])([H])C([H])([H])C2([H])N([H])C(=O)C1([H])N(C(=O)C([H])(N([H])C(=O)C([H])(N([H])C([H])([H])[H])C([H])([H])[H])C(C([H])([H])[H])(C([H])([H])[H])C([H])([H])[H])C([H])([H])c2c([H])c(OC([H])([H])c3c(C([H])([H])[H])c([H])c([H])c([H])c3C([H])(C(=O)N([H])C(=O)N3C([H])([H])C([H])([H])C([H])([H])C([H])(n4nc(-c5c([H])c([H])c(Oc6c([H])c([H])c(F)c([H])c6F)c([H])c5[H])c(C(=O)N([H])[H])c4N([H])[H])C3([H])[H])C([H])([H])[H])c([H])c([H])c2C1([H])[H]

>  <smiles>  (20) 
[H]c1c([H])c([H])c2c(c1[H])C([H])([H])C([H])([H])C([H])([H])C2([H])N([H])C(=O)C1([H])N(C(=O)C([H])(N([H])C(=O)C([H])(N([H])C([H])([H])[H])C([H])([H])[H])C(C([H])([H])[H])(C([H])([H])[H])C([H])([H])[H])C([H])([H])c2c([H])c(OC([H])([H])c3c(C([H])([H])[H])c([H])c([H])c([H])c3C([H])(C(=O)N([H])C(=O)N3C([H])([H])C([H])([H])C([H])([H])C([H])(n4nc(-c5c([H])c([H])c(Oc6c([H])c([H])c(F)c([H])c6F)c([H])c5[H])c(C(=O)N([H])[H])c4N([H])[H])C3([H])[H])C([H])([H])[H])c([H])c([H])c2C1([H])[H]

$$$$
20:0:0
     RDKit          3D

 96104  0  0  1  0  0  0  0  0999 V2000
  -41.5550  -28.0720    8.7560 C   0  0  0  0  0  2  0  0  0  0  0  0
  -41.5210  -26.6130    9.3020 C   0  0  0  0  0  0  0  0  0  0  0  0
  -40.8490  -26.3730   10.4520 N   0  0  0  0  0  0  0  0  0  0  0  0
  -42.0370  -25.6960    8.6610 O   0  0  0  0  0  0  0  0  0  0  0  0
  -40.4900  -27.1880   10.9330 H   0  0  0  0  0  0  0  0  0  0  0  0
  -40.3500  -25.0650   10.9540 C   0  0  0  0  0  2  0  0  0  0  0  0
  -38.8510  -25.0230   11.3790 C   0  0  0  0  0  2  0  0  0  0  0  0
  -38.5100  -25.9960   12.4090 O   0  0  0  0  0  0  0  0  0  0  0  0
  -38.4930  -23.3060   19.0570 C   0  0  0  0  0  0  0  0  0  0  0  0
  -39.1560  -25.8890   13.6350 C   0  0  0  0  0  0  0  0  0  0  0  0
  -40.1470  -25.0830   18.6030 C   0  0  0  0  0  3  0  0  0  0  0  0
  -40.4740  -25.6950   16.1480 C   0  0  0  0  0  0  0  0  0  0  0  0
  -39.3350  -23.5490   16.7190 C   0  0  0  0  0  2  0  0  0  0  0  0
  -39.5760  -24.6950   15.7520 C   0  0  0  0  0  0  0  0  0  0  0  0
  -38.9270  -24.7810   14.4930 C   0  0  0  0  0  3  0  0  0  0  0  0
  -40.0860  -26.8680   14.0520 C   0  0  0  0  0  3  0  0  0  0  0  0
  -40.7340  -26.7810   15.2970 C   0  0  0  0  0  3  0  0  0  0  0  0
  -41.1350  -25.5450   17.5000 C   0  0  0  0  0  2  0  0  0  0  0  0
  -39.2710  -23.9570   18.1460 N   0  0  0  0  0  0  0  0  0  0  0  0
  -38.5270  -23.6040   20.2590 O   0  0  0  0  0  0  0  0  0  0  0  0
  -39.3540  -26.3120   19.1060 C   0  0  0  0  0  0  0  0  0  0  0  0
  -39.4230  -26.5730   20.4220 N   0  0  0  0  0  0  0  0  0  0  0  0
  -38.7200  -27.0190   18.3190 O   0  0  0  0  0  0  0  0  0  0  0  0
  -39.9570  -25.9420   21.0020 H   0  0  0  0  0  0  0  0  0  0  0  0
  -39.1650  -28.2730   23.6020 C   0  0  0  0  0  0  0  0  0  0  0  0
  -38.7880  -27.6980   21.1090 C   0  0  0  0  0  3  0  0  0  0  0  0
  -39.5210  -29.0240   20.8000 C   0  0  0  0  0  2  0  0  0  0  0  0
  -40.5980  -29.3750   21.8310 C   0  0  0  0  0  2  0  0  0  0  0  0
  -39.9830  -29.4970   23.2280 C   0  0  0  0  0  2  0  0  0  0  0  0
  -38.6180  -27.4190   22.6080 C   0  0  0  0  0  0  0  0  0  0  0  0
  -37.8940  -26.2760   23.0090 C   0  0  0  0  0  3  0  0  0  0  0  0
  -37.7130  -25.9810   24.3740 C   0  0  0  0  0  3  0  0  0  0  0  0
  -38.2430  -26.8380   25.3540 C   0  0  0  0  0  3  0  0  0  0  0  0
  -38.9630  -27.9820   24.9680 C   0  0  0  0  0  3  0  0  0  0  0  0
  -37.5420  -22.1420   18.6380 C   0  0  0  0  0  3  0  0  0  0  0  0
  -37.6820  -21.0740   19.6380 N   0  0  0  0  0  0  0  0  0  0  0  0
  -38.6290  -20.1260   19.6100 C   0  0  0  0  0  0  0  0  0  0  0  0
  -39.4420  -20.0170   18.6880 O   0  0  0  0  0  0  0  0  0  0  0  0
  -37.0860  -21.1340   20.4500 H   0  0  0  0  0  0  0  0  0  0  0  0
  -39.6590  -19.6650   21.8570 C   0  0  0  0  0  1  0  0  0  0  0  0
  -38.6810  -19.1400   20.7940 C   0  0  0  0  0  3  0  0  0  0  0  0
  -37.9390  -16.9730   19.9110 C   0  0  0  0  0  1  0  0  0  0  0  0
  -39.0640  -17.7680   20.4000 N   0  0  0  0  0  0  0  0  0  0  0  0
  -39.4850  -17.2730   21.1820 H   0  0  0  0  0  0  0  0  0  0  0  0
  -36.0350  -22.5860   18.5050 C   0  0  1  0  0  0  0  0  0  0  0  0
  -35.2330  -22.4680   19.8220 C   0  0  0  0  0  1  0  0  0  0  0  0
  -35.9390  -24.0530   18.0240 C   0  0  0  0  0  1  0  0  0  0  0  0
  -35.3270  -21.7230   17.4350 C   0  0  0  0  0  1  0  0  0  0  0  0
  -40.3190  -28.5390    7.8810 C   0  0  0  0  0  2  0  0  0  0  0  0
  -39.0330  -30.6030    7.1280 C   0  0  0  0  0  1  0  0  0  0  0  0
  -39.3330  -29.7160    8.3570 C   0  0  1  0  0  0  0  0  0  0  0  0
  -37.7750  -27.8740    9.1590 C   0  0  0  0  0  3  0  0  0  0  0  0
  -36.5860  -27.3120    9.6490 C   0  0  0  0  0  3  0  0  0  0  0  0
  -35.6720  -29.5310    9.9050 C   0  0  0  0  0  3  0  0  0  0  0  0
  -36.8780  -30.1390    9.4700 C   0  0  0  0  0  0  0  0  0  0  0  0
  -37.9720  -29.2760    9.0220 C   0  0  0  0  0  0  0  0  0  0  0  0
  -35.5240  -28.1440   10.0070 C   0  0  0  0  0  0  0  0  0  0  0  0
  -34.3620  -27.6120   10.4550 F   0  0  0  0  0  0  0  0  0  0  0  0
  -36.8430  -31.6680    9.4650 C   0  0  0  0  0  0  0  0  0  0  0  0
  -36.9460  -33.8250   10.7010 C   0  0  0  0  0  2  0  0  0  0  0  0
  -38.4060  -34.2220   10.9960 C   0  0  0  0  0  2  0  0  0  0  0  0
  -38.8930  -33.5780   12.3090 C   0  0  0  0  0  2  0  0  0  0  0  0
  -38.5840  -32.0610   12.3690 C   0  0  0  0  0  3  0  0  0  0  0  0
  -37.1200  -31.7790   11.9850 C   0  0  0  0  0  2  0  0  0  0  0  0
  -36.8690  -32.3520   10.6510 N   0  0  0  0  0  0  0  0  0  0  0  0
  -36.7620  -32.2590    8.3860 O   0  0  0  0  0  0  0  0  0  0  0  0
  -40.1500  -31.0850   14.1600 C   0  0  0  0  0  0  0  0  0  0  0  0
  -39.9280  -30.6840   15.4500 C   0  0  0  0  0  0  0  0  0  0  0  0
  -38.5310  -30.8700   15.6870 C   0  0  0  0  0  0  0  0  0  0  0  0
  -38.9180  -31.4870   13.6700 N   0  0  0  0  0  0  0  0  0  0  0  0
  -37.9320  -31.3020   14.5830 N   0  0  0  0  0  0  0  0  0  0  0  0
  -37.7400  -30.7200   16.9140 C   0  0  0  0  0  0  0  0  0  0  0  0
  -37.8640  -31.6280   17.9890 C   0  0  0  0  0  3  0  0  0  0  0  0
  -37.0780  -31.4720   19.1510 C   0  0  0  0  0  3  0  0  0  0  0  0
  -36.1550  -30.4020   19.2460 C   0  0  0  0  0  0  0  0  0  0  0  0
  -36.0520  -29.4890   18.1820 C   0  0  0  0  0  3  0  0  0  0  0  0
  -36.8390  -29.6430   17.0280 C   0  0  0  0  0  3  0  0  0  0  0  0
  -35.3700  -30.1560   20.3470 O   0  0  0  0  0  0  0  0  0  0  0  0
  -34.6200  -29.0130   20.4550 C   0  0  0  0  0  0  0  0  0  0  0  0
  -35.1450  -27.8260   21.0100 C   0  0  0  0  0  3  0  0  0  0  0  0
  -34.3170  -26.6960   21.1640 C   0  0  0  0  0  3  0  0  0  0  0  0
  -32.9660  -26.7520   20.7730 C   0  0  0  0  0  0  0  0  0  0  0  0
  -32.4400  -27.9360   20.2240 C   0  0  0  0  0  3  0  0  0  0  0  0
  -33.2650  -29.0630   20.0680 C   0  0  0  0  0  0  0  0  0  0  0  0
  -32.7480  -30.2070   19.5580 F   0  0  0  0  0  0  0  0  0  0  0  0
  -32.1690  -25.6700   20.9300 F   0  0  0  0  0  0  0  0  0  0  0  0
  -40.9660  -30.2460   16.4430 C   0  0  0  0  0  0  0  0  0  0  0  0
  -40.6140  -29.3250   17.3340 N   0  0  0  0  0  0  0  0  0  0  0  0
  -42.1140  -30.6870   16.4060 O   0  0  0  0  0  0  0  0  0  0  0  0
  -39.6780  -28.9460   17.3540 H   0  0  0  0  0  0  0  0  0  0  0  0
  -41.2910  -28.9900   18.0040 H   0  0  0  0  0  0  0  0  0  0  0  0
  -41.2950  -31.1620   13.3720 N   0  0  0  0  0  0  0  0  0  0  0  0
  -42.2170  -30.9330   13.7290 H   0  0  0  0  0  0  0  0  0  0  0  0
  -41.3170  -31.5480   12.4340 H   0  0  0  0  0  0  0  0  0  0  0  0
  -40.1620  -30.5470    9.3630 C   0  0  0  0  0  3  0  0  0  0  0  0
  -40.2290  -30.2320   10.5550 O   0  0  0  0  0  0  0  0  0  0  0  0
  1  2  1  0
  2  3  1  0
  3  5  1  0
  3  6  1  0
  4  2  2  0
  6  7  1  0
  7  8  1  0
  8 10  1  0
  9 20  2  0
 10 16  2  0
 10 15  1  0
 11 21  1  0
 12 18  1  0
 13 19  1  0
 14 12  1  0
 14 13  1  0
 15 14  2  0
 16 17  1  0
 17 12  2  0
 18 11  1  0
 19 11  1  0
 19  9  1  0
 21 22  1  0
 22 24  1  0
 23 21  2  0
 25 34  1  0
 26 22  1  0
 26 30  1  0
 27 26  1  0
 27 28  1  0
 28 29  1  0
 29 25  1  0
 30 31  1  0
 30 25  2  0
 31 32  2  0
 32 33  1  0
 34 33  2  0
 35  9  1  0
 35 36  1  0
 36 39  1  0
 37 36  1  0
 37 41  1  0
 38 37  2  0
 41 40  1  0
 42 43  1  0
 43 41  1  0
 43 44  1  0
 45 35  1  0
 45 46  1  1
 47 45  1  0
 48 45  1  0
 49 51  1  0
 49  1  1  0
 51 50  1  6
 51 56  1  0
 51 95  1  0
 52 53  1  0
 53 57  2  0
 54 57  1  0
 55 54  2  0
 56 52  2  0
 56 55  1  0
 57 58  1  0
 59 55  1  0
 59 65  1  0
 60 61  1  0
 61 62  1  0
 62 63  1  0
 63 64  1  0
 63 70  1  0
 65 60  1  0
 65 64  1  0
 66 59  2  0
 67 68  2  0
 68 69  1  0
 68 87  1  0
 69 72  1  0
 70 67  1  0
 70 71  1  0
 71 69  2  0
 72 77  2  0
 72 73  1  0
 73 74  2  0
 74 75  1  0
 75 78  1  0
 76 75  2  0
 77 76  1  0
 78 79  1  0
 79 80  1  0
 80 81  2  0
 82 86  1  0
 82 81  1  0
 83 82  2  0
 84 83  1  0
 84 79  2  0
 85 84  1  0
 87 88  1  0
 88 90  1  0
 88 91  1  0
 89 87  2  0
 92 93  1  0
 92 67  1  0
 94 92  1  0
 95 96  2  0
M  ISO  4   7 101   8 101  55 100  59 100
M  END
>  <TORSDO>  (21) 
F 23

>  <SCORE>  (21) 
-2.217

>  <name>  (21) 
20

>  <ligand_id>  (21) 
20

>  <original_smiles>  (21) 
[H]C(=O)C(c1c([H])c([H])c(F)c([H])c1C(=O)N1C([H])([H])C([H])([H])C([H])([H])C([H])(n2nc(-c3c([H])c([H])c(Oc4c([H])c([H])c(F)c([H])c4F)c([H])c3[H])c(C(=O)N([H])[H])c2N([H])[H])C1([H])[H])(C([H])([H])[H])C([H])([H])C([H])([H])C(=O)N([H])C([H])([H])C([H])([H])Oc1c([H])c([H])c2c(c1[H])C([H])([H])N(C(=O)C([H])(N([H])C(=O)C([H])(N([H])C([H])([H])[H])C([H])([H])[H])C(C([H])([H])[H])(C([H])([H])[H])C([H])([H])[H])C([H])(C(=O)N([H])C1([H])c3c([H])c([H])c([H])c([H])c3C([H])([H])C([H])([H])C1([H])[H])C2([H])[H]

>  <smiles>  (21) 
[H]C(=O)C(c1c([H])c([H])c(F)c([H])c1C(=O)N1C([H])([H])C([H])([H])C([H])([H])C([H])(n2nc(-c3c([H])c([H])c(Oc4c([H])c([H])c(F)c([H])c4F)c([H])c3[H])c(C(=O)N([H])[H])c2N([H])[H])C1([H])[H])(C([H])([H])[H])C([H])([H])C([H])([H])C(=O)N([H])C([H])([H])C([H])([H])Oc1c([H])c([H])c2c(c1[H])C([H])([H])N(C(=O)C([H])(N([H])C(=O)C([H])(N([H])C([H])([H])[H])C([H])([H])[H])C(C([H])([H])[H])(C([H])([H])[H])C([H])([H])[H])C([H])(C(=O)N([H])C1([H])c3c([H])c([H])c([H])c([H])c3C([H])([H])C([H])([H])C1([H])[H])C2([H])[H]

$$$$
21:0:0
     RDKit          3D

 91 99  0  0  1  0  0  0  0  0999 V2000
  -30.8570  -22.8020   19.4390 C   0  0  0  0  0  3  0  0  0  0  0  0
  -30.4370  -24.1520   19.5750 C   0  0  0  0  0  3  0  0  0  0  0  0
  -28.8810  -23.4480   21.2630 C   0  0  0  0  0  3  0  0  0  0  0  0
  -30.3310  -21.7270   20.2210 C   0  0  0  0  0  0  0  0  0  0  0  0
  -29.4520  -24.5060   20.5160 C   0  0  0  0  0  0  0  0  0  0  0  0
  -29.2880  -22.0880   21.1390 C   0  0  0  0  0  0  0  0  0  0  0  0
  -30.9880  -20.3460   20.0120 C   0  0  0  0  0  0  0  0  0  0  0  0
  -32.0350  -20.2560   19.3630 O   0  0  0  0  0  0  0  0  0  0  0  0
  -30.4180  -19.0010   20.5720 C   0  0  0  0  0  3  0  0  0  0  0  0
  -31.2800  -17.7050   20.2910 C   0  0  0  0  0  3  0  0  0  0  0  0
  -30.6900  -16.3270   20.7830 C   0  0  0  0  0  2  0  0  0  0  0  0
  -31.4180  -15.0350   20.2720 C   0  0  0  0  0  0  0  0  0  0  0  0
  -31.1130  -12.8460   19.1530 C   0  0  0  0  0  2  0  0  0  0  0  0
  -30.1800  -13.0450   17.9390 C   0  0  0  0  0  2  0  0  0  0  0  0
  -28.7020  -12.9210   18.3620 C   0  0  0  0  0  2  0  0  0  0  0  0
  -28.3680  -13.7750   19.6130 C   0  0  0  0  0  3  0  0  0  0  0  0
  -29.4180  -13.5780   20.7300 C   0  0  0  0  0  2  0  0  0  0  0  0
  -30.7460  -13.8510   20.1640 N   0  0  0  0  0  0  0  0  0  0  0  0
  -32.5690  -15.1530   19.8430 O   0  0  0  0  0  0  0  0  0  0  0  0
  -25.9870  -14.4230   20.3290 C   0  0  0  0  0  0  0  0  0  0  0  0
  -24.9020  -13.6700   20.6910 C   0  0  0  0  0  0  0  0  0  0  0  0
  -25.3360  -12.3100   20.6560 C   0  0  0  0  0  0  0  0  0  0  0  0
  -27.0120  -13.5210   20.0930 N   0  0  0  0  0  0  0  0  0  0  0  0
  -26.6260  -12.2460   20.3510 N   0  0  0  0  0  0  0  0  0  0  0  0
  -24.5860  -11.0620   20.8380 C   0  0  0  0  0  0  0  0  0  0  0  0
  -24.9460  -10.1190   21.8270 C   0  0  0  0  0  3  0  0  0  0  0  0
  -24.1980   -8.9350   21.9930 C   0  0  0  0  0  3  0  0  0  0  0  0
  -23.0750   -8.6830   21.1700 C   0  0  0  0  0  0  0  0  0  0  0  0
  -22.7350   -9.6130   20.1720 C   0  0  0  0  0  3  0  0  0  0  0  0
  -23.4830  -10.7900   20.0030 C   0  0  0  0  0  3  0  0  0  0  0  0
  -22.3040   -7.5480   21.2430 O   0  0  0  0  0  0  0  0  0  0  0  0
  -22.1010   -6.8920   22.4300 C   0  0  0  0  0  0  0  0  0  0  0  0
  -21.4950   -7.5240   23.5380 C   0  0  0  0  0  3  0  0  0  0  0  0
  -21.2420   -6.7920   24.7150 C   0  0  0  0  0  3  0  0  0  0  0  0
  -21.5830   -5.4290   24.7840 C   0  0  0  0  0  0  0  0  0  0  0  0
  -22.1810   -4.7960   23.6800 C   0  0  0  0  0  3  0  0  0  0  0  0
  -22.4370   -5.5250   22.5050 C   0  0  0  0  0  0  0  0  0  0  0  0
  -22.9920   -4.9050   21.4370 F   0  0  0  0  0  0  0  0  0  0  0  0
  -21.3330   -4.7230   25.9120 F   0  0  0  0  0  0  0  0  0  0  0  0
  -23.5130  -14.1740   20.9620 C   0  0  0  0  0  0  0  0  0  0  0  0
  -22.7750  -13.4930   21.8310 N   0  0  0  0  0  0  0  0  0  0  0  0
  -23.0940  -15.2050   20.4370 O   0  0  0  0  0  0  0  0  0  0  0  0
  -23.1280  -12.6590   22.2750 H   0  0  0  0  0  0  0  0  0  0  0  0
  -21.8430  -13.8110   22.0560 H   0  0  0  0  0  0  0  0  0  0  0  0
  -26.1830  -15.7910   20.1570 N   0  0  0  0  0  0  0  0  0  0  0  0
  -25.4320  -16.4640   20.2640 H   0  0  0  0  0  0  0  0  0  0  0  0
  -27.0480  -16.2070   19.8400 H   0  0  0  0  0  0  0  0  0  0  0  0
  -29.3960  -20.8260   23.3380 C   0  0  0  0  0  1  0  0  0  0  0  0
  -28.5800  -21.1120   22.0720 C   0  0  0  0  0  2  0  0  0  0  0  0
  -29.1000  -25.9750   20.8830 C   0  0  0  0  0  2  0  0  0  0  0  0
  -29.0630  -26.9970   19.8490 O   0  0  0  0  0  0  0  0  0  0  0  0
  -24.8460  -31.7840   23.1440 C   0  0  0  0  0  0  0  0  0  0  0  0
  -27.8820  -27.7230   19.8590 C   0  0  0  0  0  0  0  0  0  0  0  0
  -23.7750  -30.3500   21.4400 C   0  0  0  0  0  3  0  0  0  0  0  0
  -25.3640  -29.0270   19.9380 C   0  0  0  0  0  0  0  0  0  0  0  0
  -26.2600  -30.9460   21.2630 C   0  0  0  0  0  2  0  0  0  0  0  0
  -26.4750  -29.6210   20.5530 C   0  0  0  0  0  0  0  0  0  0  0  0
  -27.7400  -28.9760   20.5100 C   0  0  0  0  0  3  0  0  0  0  0  0
  -26.7530  -27.1580   19.2310 C   0  0  0  0  0  3  0  0  0  0  0  0
  -25.5010  -27.7990   19.2710 C   0  0  0  0  0  3  0  0  0  0  0  0
  -24.0430  -29.7600   20.0310 C   0  0  0  0  0  2  0  0  0  0  0  0
  -24.9770  -31.0410   22.0070 N   0  0  0  0  0  0  0  0  0  0  0  0
  -23.7450  -31.9290   23.6940 O   0  0  0  0  0  0  0  0  0  0  0  0
  -23.2250  -29.2280   22.3530 C   0  0  0  0  0  0  0  0  0  0  0  0
  -21.9320  -28.8990   22.1870 N   0  0  0  0  0  0  0  0  0  0  0  0
  -23.9570  -28.6600   23.1670 O   0  0  0  0  0  0  0  0  0  0  0  0
  -21.3960  -29.4170   21.5050 H   0  0  0  0  0  0  0  0  0  0  0  0
  -18.7220  -27.2750   22.5380 C   0  0  0  0  0  0  0  0  0  0  0  0
  -21.2160  -27.8460   22.9080 C   0  0  0  0  0  3  0  0  0  0  0  0
  -21.5180  -26.4550   22.3050 C   0  0  0  0  0  2  0  0  0  0  0  0
  -20.4990  -26.0210   21.2470 C   0  0  0  0  0  2  0  0  0  0  0  0
  -19.0900  -25.9750   21.8420 C   0  0  0  0  0  2  0  0  0  0  0  0
  -19.7200  -28.1600   23.0250 C   0  0  0  0  0  0  0  0  0  0  0  0
  -19.3240  -29.3700   23.6340 C   0  0  0  0  0  3  0  0  0  0  0  0
  -17.9620  -29.7010   23.7620 C   0  0  0  0  0  3  0  0  0  0  0  0
  -16.9780  -28.8120   23.2950 C   0  0  0  0  0  3  0  0  0  0  0  0
  -17.3580  -27.6020   22.6890 C   0  0  0  0  0  3  0  0  0  0  0  0
  -26.0670  -32.5080   23.7930 C   0  0  0  0  0  3  0  0  0  0  0  0
  -25.6360  -33.8660   24.1540 N   0  0  0  0  0  0  0  0  0  0  0  0
  -25.8870  -34.9610   23.4240 C   0  0  0  0  0  0  0  0  0  0  0  0
  -26.5730  -34.9380   22.3990 O   0  0  0  0  0  0  0  0  0  0  0  0
  -25.0230  -33.9520   24.9510 H   0  0  0  0  0  0  0  0  0  0  0  0
  -24.0080  -36.6000   23.0980 C   0  0  0  0  0  1  0  0  0  0  0  0
  -25.2780  -36.2910   23.9070 C   0  0  0  0  0  3  0  0  0  0  0  0
  -27.3230  -37.3430   24.7660 C   0  0  0  0  0  1  0  0  0  0  0  0
  -26.2140  -37.4340   23.8200 N   0  0  0  0  0  0  0  0  0  0  0  0
  -25.7270  -38.3120   23.9840 H   0  0  0  0  0  0  0  0  0  0  0  0
  -26.6370  -31.7530   25.0560 C   0  0  1  0  0  0  0  0  0  0  0  0
  -25.5590  -31.3950   26.1070 C   0  0  0  0  0  1  0  0  0  0  0  0
  -27.3400  -30.4410   24.6370 C   0  0  0  0  0  1  0  0  0  0  0  0
  -27.7110  -32.6260   25.7470 C   0  0  0  0  0  1  0  0  0  0  0  0
  1  2  2  0
  1  4  1  0
  2  5  1  0
  4  6  2  0
  5 50  1  0
  5  3  2  0
  6  3  1  0
  6 49  1  0
  7  4  1  0
  7  9  1  0
  8  7  2  0
 10  9  2  0
 10 11  1  0
 12 11  1  0
 13 18  1  0
 14 15  1  0
 14 13  1  0
 16 15  1  0
 16 23  1  0
 16 17  1  0
 18 12  1  0
 18 17  1  0
 19 12  2  0
 20 21  2  0
 21 40  1  0
 22 21  1  0
 22 25  1  0
 23 20  1  0
 23 24  1  0
 24 22  2  0
 25 26  1  0
 26 27  2  0
 28 31  1  0
 28 27  1  0
 29 28  2  0
 30 29  1  0
 30 25  2  0
 31 32  1  0
 32 37  2  0
 32 33  1  0
 33 34  2  0
 34 35  1  0
 35 39  1  0
 36 35  2  0
 37 36  1  0
 38 37  1  0
 40 41  1  0
 41 44  1  0
 41 43  1  0
 42 40  2  0
 45 46  1  0
 45 20  1  0
 47 45  1  0
 49 48  1  0
 51 53  1  0
 51 50  1  0
 52 63  2  0
 53 58  1  0
 54 62  1  0
 54 64  1  0
 55 61  1  0
 55 57  1  0
 56 62  1  0
 57 56  1  0
 58 57  2  0
 59 60  1  0
 59 53  2  0
 60 55  2  0
 61 54  1  0
 62 52  1  0
 64 66  2  0
 65 64  1  0
 67 65  1  0
 68 77  2  0
 68 73  1  0
 69 65  1  0
 69 73  1  0
 70 69  1  0
 71 72  1  0
 71 70  1  0
 72 68  1  0
 73 74  2  0
 74 75  1  0
 76 75  2  0
 77 76  1  0
 78 52  1  0
 78 79  1  0
 78 88  1  0
 79 82  1  0
 80 84  1  0
 80 79  1  0
 81 80  2  0
 84 83  1  0
 86 84  1  0
 86 87  1  0
 86 85  1  0
 88 91  1  1
 88 89  1  0
 90 88  1  0
M  ISO  4  11 100  12 100  50 101  51 101
M  END
>  <TORSDO>  (22) 
F 22

>  <SCORE>  (22) 
-9.694

>  <name>  (22) 
21

>  <ligand_id>  (22) 
21

>  <original_smiles>  (22) 
[H]c1c([H])c([H])c2c(c1[H])C([H])([H])C([H])([H])C([H])([H])C2([H])N([H])C(=O)C1([H])N(C(=O)C([H])(N([H])C(=O)C([H])(N([H])C([H])([H])[H])C([H])([H])[H])C(C([H])([H])[H])(C([H])([H])[H])C([H])([H])[H])C([H])([H])c2c([H])c(OC([H])([H])c3c([H])c([H])c(C(=O)C([H])([H])C([H])([H])C([H])([H])C(=O)N4C([H])([H])C([H])([H])C([H])([H])C([H])(n5nc(-c6c([H])c([H])c(Oc7c([H])c([H])c(F)c([H])c7F)c([H])c6[H])c(C(=O)N([H])[H])c5N([H])[H])C4([H])[H])c(C([H])([H])C([H])([H])[H])c3[H])c([H])c([H])c2C1([H])[H]

>  <smiles>  (22) 
[H]c1c([H])c([H])c2c(c1[H])C([H])([H])C([H])([H])C([H])([H])C2([H])N([H])C(=O)C1([H])N(C(=O)C([H])(N([H])C(=O)C([H])(N([H])C([H])([H])[H])C([H])([H])[H])C(C([H])([H])[H])(C([H])([H])[H])C([H])([H])[H])C([H])([H])c2c([H])c(OC([H])([H])c3c([H])c([H])c(C(=O)C([H])([H])C([H])([H])C([H])([H])C(=O)N4C([H])([H])C([H])([H])C([H])([H])C([H])(n5nc(-c6c([H])c([H])c(Oc7c([H])c([H])c(F)c([H])c7F)c([H])c6[H])c(C(=O)N([H])[H])c5N([H])[H])C4([H])[H])c(C([H])([H])C([H])([H])[H])c3[H])c([H])c([H])c2C1([H])[H]

$$$$
22:0:0
     RDKit          3D

 93101  0  0  1  0  0  0  0  0999 V2000
  -31.5780  -20.7950   19.9430 C   0  0  0  0  0  3  0  0  0  0  0  0
  -30.5970  -20.9710   20.9470 C   0  0  0  0  0  3  0  0  0  0  0  0
  -31.3340  -19.9610   18.8240 C   0  0  0  0  0  0  0  0  0  0  0  0
  -29.3010  -20.5480   20.6050 C   0  0  0  0  0  3  0  0  0  0  0  0
  -30.2570  -19.0390   18.8750 C   0  0  0  0  0  0  0  0  0  0  0  0
  -29.4930  -19.0150   20.0600 C   0  0  0  0  0  3  0  0  0  0  0  0
  -30.0750  -17.9680   17.8010 C   0  0  0  0  0  1  0  0  0  0  0  0
  -32.2620  -20.0210   17.6610 C   0  0  0  0  0  0  0  0  0  0  0  0
  -33.2280  -19.2500   17.5330 O   0  0  0  0  0  0  0  0  0  0  0  0
  -31.9960  -21.1070   16.5800 C   0  0  0  0  0  0  0  0  0  0  0  0
  -32.9410  -21.6840   16.0270 O   0  0  0  0  0  0  0  0  0  0  0  0
  -30.3040  -22.9420   15.9690 C   0  0  0  0  0  1  0  0  0  0  0  0
  -30.5450  -21.4340   16.1870 C   0  0  0  0  0  2  0  0  0  0  0  0
  -29.4980  -17.2810   20.7020 C   0  0  0  0  0  2  0  0  0  0  0  0
  -30.2730  -15.6180   20.3500 C   0  0  0  0  0  0  0  0  0  0  0  0
  -30.3870  -13.0780   19.5330 C   0  0  0  0  0  2  0  0  0  0  0  0
  -29.5220  -12.7730   18.2760 C   0  0  0  0  0  2  0  0  0  0  0  0
  -28.0720  -12.4410   18.6710 C   0  0  0  0  0  2  0  0  0  0  0  0
  -27.5570  -13.4060   19.7670 C   0  0  0  0  0  3  0  0  0  0  0  0
  -28.5590  -13.6530   20.9170 C   0  0  0  0  0  2  0  0  0  0  0  0
  -29.7810  -14.2440   20.3210 N   0  0  0  0  0  0  0  0  0  0  0  0
  -31.4880  -15.5700   20.0670 O   0  0  0  0  0  0  0  0  0  0  0  0
  -25.1680  -13.9250   20.4590 C   0  0  0  0  0  0  0  0  0  0  0  0
  -24.1070  -13.1390   20.8150 C   0  0  0  0  0  0  0  0  0  0  0  0
  -24.5890  -11.7940   20.8020 C   0  0  0  0  0  0  0  0  0  0  0  0
  -26.2250  -13.0580   20.2470 N   0  0  0  0  0  0  0  0  0  0  0  0
  -25.8900  -11.7680   20.5220 N   0  0  0  0  0  0  0  0  0  0  0  0
  -23.8650  -10.5280   20.9870 C   0  0  0  0  0  0  0  0  0  0  0  0
  -24.2840   -9.5710   21.9370 C   0  0  0  0  0  3  0  0  0  0  0  0
  -23.5540   -8.3750   22.1160 C   0  0  0  0  0  3  0  0  0  0  0  0
  -22.3940   -8.1280   21.3450 C   0  0  0  0  0  0  0  0  0  0  0  0
  -21.9970   -9.0740   20.3850 C   0  0  0  0  0  3  0  0  0  0  0  0
  -22.7240  -10.2620   20.2040 C   0  0  0  0  0  3  0  0  0  0  0  0
  -21.6370   -6.9820   21.4280 O   0  0  0  0  0  0  0  0  0  0  0  0
  -21.5750   -6.2420   22.5820 C   0  0  0  0  0  0  0  0  0  0  0  0
  -21.1390   -6.8010   23.8050 C   0  0  0  0  0  3  0  0  0  0  0  0
  -21.0300   -5.9890   24.9510 C   0  0  0  0  0  3  0  0  0  0  0  0
  -21.3410   -4.6180   24.8780 C   0  0  0  0  0  0  0  0  0  0  0  0
  -21.7640   -4.0580   23.6590 C   0  0  0  0  0  3  0  0  0  0  0  0
  -21.8810   -4.8680   22.5150 C   0  0  0  0  0  0  0  0  0  0  0  0
  -22.2700   -4.3170   21.3390 F   0  0  0  0  0  0  0  0  0  0  0  0
  -21.2280   -3.8370   25.9770 F   0  0  0  0  0  0  0  0  0  0  0  0
  -22.7020  -13.6070   21.0420 C   0  0  0  0  0  0  0  0  0  0  0  0
  -21.9600  -12.9150   21.8990 N   0  0  0  0  0  0  0  0  0  0  0  0
  -22.2700  -14.6210   20.4940 O   0  0  0  0  0  0  0  0  0  0  0  0
  -22.3230  -12.0960   22.3630 H   0  0  0  0  0  0  0  0  0  0  0  0
  -21.0120  -13.2080   22.0880 H   0  0  0  0  0  0  0  0  0  0  0  0
  -25.3280  -15.2980   20.2750 N   0  0  0  0  0  0  0  0  0  0  0  0
  -24.5640  -15.9540   20.3830 H   0  0  0  0  0  0  0  0  0  0  0  0
  -26.1840  -15.7420   19.9650 H   0  0  0  0  0  0  0  0  0  0  0  0
  -28.6400  -22.1770   20.0100 C   0  0  0  0  0  2  0  0  0  0  0  0
  -28.2060  -23.9380   20.6660 C   0  0  0  0  0  2  0  0  0  0  0  0
  -28.2400  -25.6430   20.2940 O   0  0  0  0  0  0  0  0  0  0  0  0
  -24.6520  -31.8730   23.1840 C   0  0  0  0  0  0  0  0  0  0  0  0
  -27.2280  -26.8090   20.3070 C   0  0  0  0  0  0  0  0  0  0  0  0
  -23.4770  -30.4560   21.5570 C   0  0  0  0  0  3  0  0  0  0  0  0
  -24.9450  -28.8010   20.1820 C   0  0  0  0  0  0  0  0  0  0  0  0
  -26.0560  -30.6220   21.4470 C   0  0  0  0  0  2  0  0  0  0  0  0
  -26.1330  -29.1840   20.8150 C   0  0  0  0  0  0  0  0  0  0  0  0
  -27.2620  -28.2160   20.8420 C   0  0  0  0  0  3  0  0  0  0  0  0
  -26.0040  -26.6230   19.6140 C   0  0  0  0  0  3  0  0  0  0  0  0
  -24.9140  -27.5440   19.5550 C   0  0  0  0  0  3  0  0  0  0  0  0
  -23.7320  -29.7400   20.1980 C   0  0  0  0  0  2  0  0  0  0  0  0
  -24.7520  -31.0170   22.1120 N   0  0  0  0  0  0  0  0  0  0  0  0
  -23.5580  -32.1680   23.6930 O   0  0  0  0  0  0  0  0  0  0  0  0
  -22.7630  -29.4800   22.5320 C   0  0  0  0  0  0  0  0  0  0  0  0
  -21.4290  -29.3290   22.4160 N   0  0  0  0  0  0  0  0  0  0  0  0
  -23.4210  -28.8550   23.3670 O   0  0  0  0  0  0  0  0  0  0  0  0
  -20.9470  -29.8860   21.7250 H   0  0  0  0  0  0  0  0  0  0  0  0
  -18.0310  -28.1520   22.9500 C   0  0  0  0  0  0  0  0  0  0  0  0
  -20.5970  -28.4010   23.1950 C   0  0  0  0  0  3  0  0  0  0  0  0
  -20.6830  -26.9630   22.6270 C   0  0  0  0  0  2  0  0  0  0  0  0
  -19.5730  -26.6490   21.6180 C   0  0  0  0  0  2  0  0  0  0  0  0
  -18.1940  -26.8020   22.2670 C   0  0  0  0  0  2  0  0  0  0  0  0
  -19.1590  -28.9080   23.3710 C   0  0  0  0  0  0  0  0  0  0  0  0
  -18.9480  -30.1690   23.9700 C   0  0  0  0  0  3  0  0  0  0  0  0
  -17.6470  -30.6740   24.1480 C   0  0  0  0  0  3  0  0  0  0  0  0
  -16.5350  -29.9160   23.7440 C   0  0  0  0  0  3  0  0  0  0  0  0
  -16.7270  -28.6540   23.1510 C   0  0  0  0  0  3  0  0  0  0  0  0
  -25.9100  -32.5350   23.8250 C   0  0  0  0  0  3  0  0  0  0  0  0
  -25.5770  -33.9320   24.1530 N   0  0  0  0  0  0  0  0  0  0  0  0
  -25.9070  -35.0020   23.4150 C   0  0  0  0  0  0  0  0  0  0  0  0
  -26.5820  -34.9110   22.3850 O   0  0  0  0  0  0  0  0  0  0  0  0
  -24.9790  -34.0700   24.9530 H   0  0  0  0  0  0  0  0  0  0  0  0
  -24.1690  -36.7950   23.0760 C   0  0  0  0  0  1  0  0  0  0  0  0
  -25.4110  -36.3880   23.8860 C   0  0  0  0  0  3  0  0  0  0  0  0
  -27.5400  -37.2820   24.7210 C   0  0  0  0  0  1  0  0  0  0  0  0
  -26.4380  -37.4480   23.7790 N   0  0  0  0  0  0  0  0  0  0  0  0
  -26.0290  -38.3670   23.9280 H   0  0  0  0  0  0  0  0  0  0  0  0
  -26.4060  -31.7810   25.1210 C   0  0  1  0  0  0  0  0  0  0  0  0
  -25.2980  -31.5580   26.1750 C   0  0  0  0  0  1  0  0  0  0  0  0
  -26.9990  -30.3980   24.7710 C   0  0  0  0  0  1  0  0  0  0  0  0
  -27.5460  -32.5880   25.7900 C   0  0  0  0  0  1  0  0  0  0  0  0
  1  2  2  0
  3  5  2  0
  3  1  1  0
  4 51  1  0
  4  2  1  0
  5  6  1  0
  6  4  1  0
  6 14  1  0
  7  5  1  0
  8  3  1  0
  9  8  2  0
 10  8  1  0
 11 10  2  0
 12 13  1  0
 13 10  1  0
 15 14  1  0
 16 21  1  0
 17 18  1  0
 17 16  1  0
 19 18  1  0
 19 26  1  0
 19 20  1  0
 21 15  1  0
 21 20  1  0
 22 15  2  0
 23 24  2  0
 24 43  1  0
 25 24  1  0
 25 28  1  0
 26 23  1  0
 26 27  1  0
 27 25  2  0
 28 29  1  0
 29 30  2  0
 31 34  1  0
 31 30  1  0
 32 31  2  0
 33 32  1  0
 33 28  2  0
 34 35  1  0
 35 36  1  0
 36 37  2  0
 38 37  1  0
 38 42  1  0
 39 38  2  0
 40 35  2  0
 40 39  1  0
 41 40  1  0
 43 44  1  0
 44 47  1  0
 44 46  1  0
 45 43  2  0
 48 49  1  0
 48 23  1  0
 50 48  1  0
 51 52  1  0
 53 55  1  0
 53 52  1  0
 54 65  2  0
 55 60  1  0
 56 64  1  0
 56 66  1  0
 57 63  1  0
 57 59  1  0
 58 64  1  0
 59 60  2  0
 59 58  1  0
 61 55  2  0
 62 61  1  0
 62 57  2  0
 63 56  1  0
 64 54  1  0
 66 68  2  0
 67 66  1  0
 69 67  1  0
 70 79  2  0
 70 75  1  0
 71 67  1  0
 71 75  1  0
 72 71  1  0
 73 74  1  0
 73 72  1  0
 74 70  1  0
 75 76  2  0
 76 77  1  0
 78 77  2  0
 79 78  1  0
 80 54  1  0
 80 81  1  0
 80 90  1  0
 81 84  1  0
 82 86  1  0
 82 81  1  0
 83 82  2  0
 86 85  1  0
 88 86  1  0
 88 89  1  0
 88 87  1  0
 90 93  1  1
 90 91  1  0
 92 90  1  0
M  ISO  4  14 100  15 100  52 101  53 101
M  END
>  <TORSDO>  (23) 
F 22

>  <SCORE>  (23) 
-15.250

>  <name>  (23) 
22

>  <ligand_id>  (23) 
22

>  <original_smiles>  (23) 
[H]c1c([H])c([H])c2c(c1[H])C([H])([H])C([H])([H])C([H])([H])C2([H])N([H])C(=O)C1([H])N(C(=O)C([H])(N([H])C(=O)C([H])(N([H])C([H])([H])[H])C([H])([H])[H])C(C([H])([H])[H])(C([H])([H])[H])C([H])([H])[H])C([H])([H])c2c([H])c(OC([H])([H])C([H])([H])c3c([H])c([H])c(C(=O)C(=O)C([H])([H])C([H])([H])[H])c(C([H])([H])[H])c3C([H])([H])C(=O)N3C([H])([H])C([H])([H])C([H])([H])C([H])(n4nc(-c5c([H])c([H])c(Oc6c([H])c([H])c(F)c([H])c6F)c([H])c5[H])c(C(=O)N([H])[H])c4N([H])[H])C3([H])[H])c([H])c([H])c2C1([H])[H]

>  <smiles>  (23) 
[H]c1c([H])c([H])c2c(c1[H])C([H])([H])C([H])([H])C([H])([H])C2([H])N([H])C(=O)C1([H])N(C(=O)C([H])(N([H])C(=O)C([H])(N([H])C([H])([H])[H])C([H])([H])[H])C(C([H])([H])[H])(C([H])([H])[H])C([H])([H])[H])C([H])([H])c2c([H])c(OC([H])([H])C([H])([H])c3c([H])c([H])c(C(=O)C(=O)C([H])([H])C([H])([H])[H])c(C([H])([H])[H])c3C([H])([H])C(=O)N3C([H])([H])C([H])([H])C([H])([H])C([H])(n4nc(-c5c([H])c([H])c(Oc6c([H])c([H])c(F)c([H])c6F)c([H])c5[H])c(C(=O)N([H])[H])c4N([H])[H])C3([H])[H])c([H])c([H])c2C1([H])[H]

$$$$
23:0:0
     RDKit          3D

100108  0  0  1  0  0  0  0  0999 V2000
  -30.8940  -17.9330   22.4320 C   0  0  0  0  0  2  0  0  0  0  0  0
  -32.0950  -17.2820   21.6940 C   0  0  0  0  0  2  0  0  0  0  0  0
  -31.9810  -16.3580   17.9310 C   0  0  0  0  0  3  0  0  0  0  0  0
  -31.7030  -18.7360   18.1580 C   0  0  0  0  0  3  0  0  0  0  0  0
  -31.7070  -17.6000   17.3380 C   0  0  0  0  0  0  0  0  0  0  0  0
  -32.0700  -16.1620   19.3280 C   0  0  0  0  0  0  0  0  0  0  0  0
  -32.0040  -17.3320   20.1590 C   0  0  0  0  0  0  0  0  0  0  0  0
  -31.9200  -18.6170   19.5500 C   0  0  0  0  0  0  0  0  0  0  0  0
  -32.5430  -14.7940   19.8110 C   0  0  0  0  0  0  0  0  0  0  0  0
  -31.8880  -12.5420   19.0920 C   0  0  0  0  0  2  0  0  0  0  0  0
  -31.0070  -12.6270   17.8290 C   0  0  0  0  0  2  0  0  0  0  0  0
  -29.5220  -12.8550   18.1940 C   0  0  0  0  0  2  0  0  0  0  0  0
  -29.2820  -13.9070   19.3160 C   0  0  0  0  0  3  0  0  0  0  0  0
  -30.3110  -13.7890   20.4630 C   0  0  0  0  0  2  0  0  0  0  0  0
  -31.6620  -13.7540   19.8900 N   0  0  0  0  0  0  0  0  0  0  0  0
  -33.7550  -14.6170   19.7140 O   0  0  0  0  0  0  0  0  0  0  0  0
  -27.0570  -14.9680   20.0180 C   0  0  0  0  0  0  0  0  0  0  0  0
  -25.8510  -14.4190   20.3570 C   0  0  0  0  0  0  0  0  0  0  0  0
  -26.0400  -13.0030   20.3220 C   0  0  0  0  0  0  0  0  0  0  0  0
  -27.9080  -13.8960   19.7940 N   0  0  0  0  0  0  0  0  0  0  0  0
  -27.3010  -12.7100   20.0410 N   0  0  0  0  0  0  0  0  0  0  0  0
  -25.0800  -11.9060   20.4790 C   0  0  0  0  0  0  0  0  0  0  0  0
  -25.5000  -10.6030   20.8250 C   0  0  0  0  0  3  0  0  0  0  0  0
  -24.5550   -9.5670   20.9880 C   0  0  0  0  0  3  0  0  0  0  0  0
  -23.1760   -9.8310   20.8070 C   0  0  0  0  0  0  0  0  0  0  0  0
  -22.7660  -11.1240   20.4370 C   0  0  0  0  0  3  0  0  0  0  0  0
  -23.7090  -12.1530   20.2700 C   0  0  0  0  0  3  0  0  0  0  0  0
  -22.1890   -8.8810   20.9220 O   0  0  0  0  0  0  0  0  0  0  0  0
  -22.1710   -7.9840   21.9590 C   0  0  0  0  0  0  0  0  0  0  0  0
  -22.4480   -8.3750   23.2870 C   0  0  0  0  0  3  0  0  0  0  0  0
  -22.3520   -7.4350   24.3320 C   0  0  0  0  0  3  0  0  0  0  0  0
  -21.9710   -6.1090   24.0540 C   0  0  0  0  0  0  0  0  0  0  0  0
  -21.6910   -5.7190   22.7320 C   0  0  0  0  0  3  0  0  0  0  0  0
  -21.7880   -6.6550   21.6880 C   0  0  0  0  0  0  0  0  0  0  0  0
  -21.4960   -6.2790   20.4200 F   0  0  0  0  0  0  0  0  0  0  0  0
  -21.8710   -5.2070   25.0590 F   0  0  0  0  0  0  0  0  0  0  0  0
  -24.5700  -15.1590   20.6060 C   0  0  0  0  0  0  0  0  0  0  0  0
  -23.7700  -14.6940   21.5600 N   0  0  0  0  0  0  0  0  0  0  0  0
  -24.2940  -16.1860   19.9870 O   0  0  0  0  0  0  0  0  0  0  0  0
  -24.0070  -13.8660   22.0850 H   0  0  0  0  0  0  0  0  0  0  0  0
  -22.9070  -15.1770   21.7670 H   0  0  0  0  0  0  0  0  0  0  0  0
  -27.4940  -16.2800   19.8630 N   0  0  0  0  0  0  0  0  0  0  0  0
  -26.8810  -17.0780   19.9940 H   0  0  0  0  0  0  0  0  0  0  0  0
  -28.4430  -16.5410   19.6280 H   0  0  0  0  0  0  0  0  0  0  0  0
  -31.5440  -17.6870   15.8590 C   0  0  0  0  0  0  0  0  0  0  0  0
  -31.9350  -16.8060   15.0880 O   0  0  0  0  0  0  0  0  0  0  0  0
  -29.4560  -18.4760   14.6300 C   0  0  0  0  0  1  0  0  0  0  0  0
  -30.7800  -18.8880   15.2920 C   0  0  0  0  0  2  0  0  0  0  0  0
  -32.7820  -20.8580   19.8130 C   0  0  0  0  0  1  0  0  0  0  0  0
  -32.1050  -19.7250   20.3480 O   0  0  0  0  0  0  0  0  0  0  0  0
  -31.0590  -19.4070   22.9040 C   0  0  0  0  0  2  0  0  0  0  0  0
  -29.8060  -20.2900   22.6950 C   0  0  0  0  0  2  0  0  0  0  0  0
  -29.9220  -21.7600   23.1750 C   0  0  0  0  0  2  0  0  0  0  0  0
  -30.2420  -22.8160   22.1020 C   0  0  0  0  0  0  0  0  0  0  0  0
  -29.3360  -23.7850   21.8980 N   0  0  0  0  0  0  0  0  0  0  0  0
  -31.3260  -22.7960   21.5180 O   0  0  0  0  0  0  0  0  0  0  0  0
  -28.4660  -23.7190   22.4100 H   0  0  0  0  0  0  0  0  0  0  0  0
  -29.5480  -25.0120   21.1200 C   0  0  0  0  0  2  0  0  0  0  0  0
  -28.2100  -25.6120   20.6390 C   0  0  0  0  0  2  0  0  0  0  0  0
  -28.3530  -26.9370   20.1000 O   0  0  0  0  0  0  0  0  0  0  0  0
  -24.5730  -32.0710   23.2230 C   0  0  0  0  0  0  0  0  0  0  0  0
  -27.1850  -27.6690   20.0770 C   0  0  0  0  0  0  0  0  0  0  0  0
  -23.3330  -30.6420   21.6280 C   0  0  0  0  0  3  0  0  0  0  0  0
  -24.7630  -29.1310   20.1530 C   0  0  0  0  0  0  0  0  0  0  0  0
  -25.8420  -31.0500   21.3380 C   0  0  0  0  0  2  0  0  0  0  0  0
  -25.9320  -29.6810   20.6950 C   0  0  0  0  0  0  0  0  0  0  0  0
  -27.1460  -28.9600   20.6480 C   0  0  0  0  0  3  0  0  0  0  0  0
  -26.0000  -27.1370   19.5160 C   0  0  0  0  0  3  0  0  0  0  0  0
  -24.7930  -27.8590   19.5570 C   0  0  0  0  0  3  0  0  0  0  0  0
  -23.5060  -29.9650   20.2420 C   0  0  0  0  0  2  0  0  0  0  0  0
  -24.6030  -31.2680   22.1210 N   0  0  0  0  0  0  0  0  0  0  0  0
  -23.5070  -32.3260   23.8010 O   0  0  0  0  0  0  0  0  0  0  0  0
  -22.7360  -29.6130   22.6130 C   0  0  0  0  0  0  0  0  0  0  0  0
  -21.4630  -29.2440   22.3940 N   0  0  0  0  0  0  0  0  0  0  0  0
  -23.4170  -29.1450   23.5290 O   0  0  0  0  0  0  0  0  0  0  0  0
  -20.9690  -29.6800   21.6280 H   0  0  0  0  0  0  0  0  0  0  0  0
  -18.2150  -27.7070   22.7680 C   0  0  0  0  0  0  0  0  0  0  0  0
  -20.7070  -28.2620   23.1710 C   0  0  0  0  0  3  0  0  0  0  0  0
  -21.0000  -26.8240   22.6850 C   0  0  0  0  0  2  0  0  0  0  0  0
  -20.0070  -26.3270   21.6300 C   0  0  0  0  0  2  0  0  0  0  0  0
  -18.5790  -26.3520   22.1840 C   0  0  0  0  0  2  0  0  0  0  0  0
  -19.2160  -28.6100   23.2160 C   0  0  0  0  0  0  0  0  0  0  0  0
  -18.8250  -29.8700   23.7180 C   0  0  0  0  0  3  0  0  0  0  0  0
  -17.4660  -30.2330   23.7770 C   0  0  0  0  0  3  0  0  0  0  0  0
  -16.4790  -29.3290   23.3480 C   0  0  0  0  0  3  0  0  0  0  0  0
  -16.8540  -28.0690   22.8470 C   0  0  0  0  0  3  0  0  0  0  0  0
  -25.8690  -32.7260   23.7940 C   0  0  0  0  0  3  0  0  0  0  0  0
  -25.5300  -34.0940   24.2060 N   0  0  0  0  0  0  0  0  0  0  0  0
  -25.8740  -35.1990   23.5310 C   0  0  0  0  0  0  0  0  0  0  0  0
  -26.5820  -35.1730   22.5200 O   0  0  0  0  0  0  0  0  0  0  0  0
  -24.9050  -34.1870   24.9920 H   0  0  0  0  0  0  0  0  0  0  0  0
  -24.2460  -37.0720   23.1280 C   0  0  0  0  0  1  0  0  0  0  0  0
  -25.3490  -36.5470   24.0600 C   0  0  0  0  0  3  0  0  0  0  0  0
  -27.3350  -37.2880   25.2970 C   0  0  0  0  0  1  0  0  0  0  0  0
  -26.4050  -37.5720   24.2080 N   0  0  0  0  0  0  0  0  0  0  0  0
  -25.9970  -38.4890   24.3690 H   0  0  0  0  0  0  0  0  0  0  0  0
  -26.4960  -31.9190   24.9960 C   0  0  1  0  0  0  0  0  0  0  0  0
  -25.5020  -31.6510   26.1500 C   0  0  0  0  0  1  0  0  0  0  0  0
  -27.0390  -30.5540   24.5120 C   0  0  0  0  0  1  0  0  0  0  0  0
  -27.7030  -32.6940   25.5750 C   0  0  0  0  0  1  0  0  0  0  0  0
  1 51  1  0
  2  1  1  0
  3  6  1  0
  4  8  2  0
  5  3  2  0
  5  4  1  0
  6  9  1  0
  6  7  2  0
  7  2  1  0
  8  7  1  0
  8 50  1  0
  9 15  1  0
 10 15  1  0
 11 12  1  0
 11 10  1  0
 13 12  1  0
 13 20  1  0
 13 14  1  0
 15 14  1  0
 16  9  2  0
 17 18  2  0
 18 37  1  0
 19 18  1  0
 19 22  1  0
 20 17  1  0
 20 21  1  0
 21 19  2  0
 22 23  1  0
 23 24  2  0
 25 28  1  0
 25 24  1  0
 26 25  2  0
 27 26  1  0
 27 22  2  0
 28 29  1  0
 29 30  1  0
 30 31  2  0
 32 31  1  0
 32 36  1  0
 33 32  2  0
 34 29  2  0
 34 33  1  0
 35 34  1  0
 37 38  1  0
 38 41  1  0
 38 40  1  0
 39 37  2  0
 42 43  1  0
 42 17  1  0
 44 42  1  0
 45  5  1  0
 46 45  2  0
 47 48  1  0
 48 45  1  0
 49 50  1  0
 52 51  1  0
 52 53  1  0
 54 53  1  0
 55 54  1  0
 55 57  1  0
 56 54  2  0
 58 55  1  0
 59 58  1  0
 60 59  1  0
 61 72  2  0
 62 60  1  0
 62 67  1  0
 63 71  1  0
 63 73  1  0
 64 70  1  0
 64 66  1  0
 65 71  1  0
 66 65  1  0
 67 66  2  0
 68 69  1  0
 68 62  2  0
 69 64  2  0
 70 63  1  0
 71 61  1  0
 73 75  2  0
 74 73  1  0
 76 74  1  0
 77 86  2  0
 77 82  1  0
 78 74  1  0
 78 82  1  0
 79 78  1  0
 80 81  1  0
 80 79  1  0
 81 77  1  0
 82 83  2  0
 83 84  1  0
 85 84  2  0
 86 85  1  0
 87 61  1  0
 87 88  1  0
 87 97  1  0
 88 91  1  0
 89 93  1  0
 89 88  1  0
 90 89  2  0
 93 92  1  0
 93 95  1  0
 95 96  1  0
 95 94  1  0
 97100  1  1
 97 98  1  0
 99 97  1  0
M  ISO  4   6 100   9 100  59 101  60 101
M  END
>  <TORSDO>  (24) 
F 27

>  <SCORE>  (24) 
-9.092

>  <name>  (24) 
23

>  <ligand_id>  (24) 
23

>  <original_smiles>  (24) 
[H]c1c([H])c([H])c2c(c1[H])C([H])([H])C([H])([H])C([H])([H])C2([H])N([H])C(=O)C1([H])N(C(=O)C([H])(N([H])C(=O)C([H])(N([H])C([H])([H])[H])C([H])([H])[H])C(C([H])([H])[H])(C([H])([H])[H])C([H])([H])[H])C([H])([H])c2c([H])c(OC([H])([H])C([H])([H])N([H])C(=O)C([H])([H])C([H])([H])C([H])([H])C([H])([H])C([H])([H])c3c(OC([H])([H])[H])c([H])c(C(=O)C([H])([H])C([H])([H])[H])c([H])c3C(=O)N3C([H])([H])C([H])([H])C([H])([H])C([H])(n4nc(-c5c([H])c([H])c(Oc6c([H])c([H])c(F)c([H])c6F)c([H])c5[H])c(C(=O)N([H])[H])c4N([H])[H])C3([H])[H])c([H])c([H])c2C1([H])[H]

>  <smiles>  (24) 
[H]c1c([H])c([H])c2c(c1[H])C([H])([H])C([H])([H])C([H])([H])C2([H])N([H])C(=O)C1([H])N(C(=O)C([H])(N([H])C(=O)C([H])(N([H])C([H])([H])[H])C([H])([H])[H])C(C([H])([H])[H])(C([H])([H])[H])C([H])([H])[H])C([H])([H])c2c([H])c(OC([H])([H])C([H])([H])N([H])C(=O)C([H])([H])C([H])([H])C([H])([H])C([H])([H])C([H])([H])c3c(OC([H])([H])[H])c([H])c(C(=O)C([H])([H])C([H])([H])[H])c([H])c3C(=O)N3C([H])([H])C([H])([H])C([H])([H])C([H])(n4nc(-c5c([H])c([H])c(Oc6c([H])c([H])c(F)c([H])c6F)c([H])c5[H])c(C(=O)N([H])[H])c4N([H])[H])C3([H])[H])c([H])c([H])c2C1([H])[H]

$$$$
24:0:0
     RDKit          3D

 91 99  0  0  1  0  0  0  0  0999 V2000
  -29.3440  -23.4690   22.8060 C   0  0  0  0  0  3  0  0  0  0  0  0
  -28.0150  -23.9200   22.7630 C   0  0  0  0  0  3  0  0  0  0  0  0
  -29.9690  -23.0860   21.6090 C   0  0  0  0  0  3  0  0  0  0  0  0
  -27.4270  -24.2950   21.5360 C   0  0  0  0  0  0  0  0  0  0  0  0
  -29.2370  -23.1640   20.4090 C   0  0  0  0  0  0  0  0  0  0  0  0
  -28.2490  -24.3980   20.3770 C   0  0  0  0  0  0  0  0  0  0  0  0
  -25.9820  -24.7580   21.5720 C   0  0  0  0  0  1  0  0  0  0  0  0
  -28.4180  -25.9100   20.0850 O   0  0  0  0  0  0  0  0  0  0  0  0
  -24.5580  -31.7310   23.0710 C   0  0  0  0  0  0  0  0  0  0  0  0
  -27.3920  -27.0080   20.0470 C   0  0  0  0  0  0  0  0  0  0  0  0
  -23.4680  -30.3140   21.3790 C   0  0  0  0  0  3  0  0  0  0  0  0
  -25.0230  -28.8040   19.9640 C   0  0  0  0  0  0  0  0  0  0  0  0
  -26.0260  -30.6340   21.3070 C   0  0  0  0  0  2  0  0  0  0  0  0
  -26.1740  -29.2380   20.6320 C   0  0  0  0  0  0  0  0  0  0  0  0
  -27.3520  -28.3590   20.6580 C   0  0  0  0  0  3  0  0  0  0  0  0
  -26.2200  -26.7490   19.3010 C   0  0  0  0  0  3  0  0  0  0  0  0
  -25.0700  -27.5790   19.2790 C   0  0  0  0  0  3  0  0  0  0  0  0
  -23.7640  -29.6700   19.9970 C   0  0  0  0  0  2  0  0  0  0  0  0
  -24.7020  -30.9220   21.9720 N   0  0  0  0  0  0  0  0  0  0  0  0
  -23.4440  -31.9650   23.5690 O   0  0  0  0  0  0  0  0  0  0  0  0
  -22.7970  -29.2710   22.3100 C   0  0  0  0  0  0  0  0  0  0  0  0
  -21.4690  -29.0820   22.1810 N   0  0  0  0  0  0  0  0  0  0  0  0
  -23.4760  -28.6320   23.1170 O   0  0  0  0  0  0  0  0  0  0  0  0
  -20.9710  -29.6510   21.5110 H   0  0  0  0  0  0  0  0  0  0  0  0
  -18.1050  -27.8270   22.7050 C   0  0  0  0  0  0  0  0  0  0  0  0
  -20.6690  -28.1010   22.9210 C   0  0  0  0  0  3  0  0  0  0  0  0
  -20.7660  -26.7010   22.2720 C   0  0  0  0  0  2  0  0  0  0  0  0
  -19.6430  -26.4220   21.2680 C   0  0  0  0  0  2  0  0  0  0  0  0
  -18.2750  -26.5200   21.9500 C   0  0  0  0  0  2  0  0  0  0  0  0
  -19.2280  -28.5770   23.1460 C   0  0  0  0  0  0  0  0  0  0  0  0
  -19.0110  -29.8010   23.8170 C   0  0  0  0  0  3  0  0  0  0  0  0
  -17.7050  -30.2760   24.0460 C   0  0  0  0  0  3  0  0  0  0  0  0
  -16.5980  -29.5230   23.6170 C   0  0  0  0  0  3  0  0  0  0  0  0
  -16.7990  -28.3000   22.9530 C   0  0  0  0  0  3  0  0  0  0  0  0
  -25.7830  -32.4200   23.7450 C   0  0  0  0  0  3  0  0  0  0  0  0
  -26.2910  -31.6570   25.0300 C   0  0  1  0  0  0  0  0  0  0  0  0
  -25.1760  -31.3620   26.0620 C   0  0  0  0  0  1  0  0  0  0  0  0
  -26.9450  -30.3060   24.6540 C   0  0  0  0  0  1  0  0  0  0  0  0
  -27.3840  -32.4930   25.7380 C   0  0  0  0  0  1  0  0  0  0  0  0
  -25.3950  -33.7980   24.0950 N   0  0  0  0  0  0  0  0  0  0  0  0
  -25.6920  -34.8880   23.3750 C   0  0  0  0  0  0  0  0  0  0  0  0
  -26.3840  -34.8410   22.3540 O   0  0  0  0  0  0  0  0  0  0  0  0
  -24.7790  -33.9040   24.8880 H   0  0  0  0  0  0  0  0  0  0  0  0
  -23.8890  -36.6140   23.0420 C   0  0  0  0  0  1  0  0  0  0  0  0
  -25.1370  -36.2430   23.8580 C   0  0  0  0  0  3  0  0  0  0  0  0
  -27.2160  -37.2080   24.7440 C   0  0  0  0  0  1  0  0  0  0  0  0
  -26.1210  -37.3460   23.7860 N   0  0  0  0  0  0  0  0  0  0  0  0
  -25.6710  -38.2420   23.9480 H   0  0  0  0  0  0  0  0  0  0  0  0
  -29.3290  -21.5700   19.6880 C   0  0  0  0  0  2  0  0  0  0  0  0
  -28.7580  -19.6190   21.4730 C   0  0  0  0  0  1  0  0  0  0  0  0
  -29.7590  -19.9260   20.3540 C   0  0  0  0  0  3  0  0  0  0  0  0
  -29.3550  -18.3290   18.2720 C   0  0  0  0  0  1  0  0  0  0  0  0
  -30.1640  -18.3370   19.5770 C   0  0  0  0  0  3  0  0  0  0  0  0
  -30.8510  -15.4510   19.8650 C   0  0  0  0  0  0  0  0  0  0  0  0
  -30.7350  -13.0070   18.9930 C   0  0  0  0  0  2  0  0  0  0  0  0
  -29.7690  -12.8560   17.7880 C   0  0  0  0  0  2  0  0  0  0  0  0
  -28.3280  -12.6210   18.2730 C   0  0  0  0  0  2  0  0  0  0  0  0
  -27.9500  -13.5760   19.4320 C   0  0  0  0  0  3  0  0  0  0  0  0
  -29.0380  -13.6730   20.5230 C   0  0  0  0  0  2  0  0  0  0  0  0
  -30.2630  -14.1510   19.8620 N   0  0  0  0  0  0  0  0  0  0  0  0
  -32.0360  -15.4360   19.4960 O   0  0  0  0  0  0  0  0  0  0  0  0
  -30.1290  -16.7340   20.0900 N   0  0  0  0  0  0  0  0  0  0  0  0
  -29.2360  -16.5260   20.5150 H   0  0  0  0  0  0  0  0  0  0  0  0
  -25.6320  -14.1920   20.2930 C   0  0  0  0  0  0  0  0  0  0  0  0
  -24.5600  -13.4410   20.6900 C   0  0  0  0  0  0  0  0  0  0  0  0
  -24.9790  -12.0780   20.6050 C   0  0  0  0  0  0  0  0  0  0  0  0
  -26.6320  -13.2900   19.9850 N   0  0  0  0  0  0  0  0  0  0  0  0
  -26.2550  -12.0100   20.2400 N   0  0  0  0  0  0  0  0  0  0  0  0
  -24.2180  -10.8350   20.7950 C   0  0  0  0  0  0  0  0  0  0  0  0
  -24.6220   -9.8550   21.7280 C   0  0  0  0  0  3  0  0  0  0  0  0
  -23.8590   -8.6790   21.9070 C   0  0  0  0  0  3  0  0  0  0  0  0
  -22.6800   -8.4760   21.1530 C   0  0  0  0  0  0  0  0  0  0  0  0
  -22.2940   -9.4450   20.2090 C   0  0  0  0  0  3  0  0  0  0  0  0
  -23.0560  -10.6120   20.0280 C   0  0  0  0  0  3  0  0  0  0  0  0
  -21.8900   -7.3550   21.2410 O   0  0  0  0  0  0  0  0  0  0  0  0
  -21.7740   -6.6460   22.4090 C   0  0  0  0  0  0  0  0  0  0  0  0
  -21.3300   -7.2480   23.6060 C   0  0  0  0  0  3  0  0  0  0  0  0
  -21.1620   -6.4660   24.7670 C   0  0  0  0  0  3  0  0  0  0  0  0
  -21.4260   -5.0840   24.7310 C   0  0  0  0  0  0  0  0  0  0  0  0
  -21.8630   -4.4820   23.5380 C   0  0  0  0  0  3  0  0  0  0  0  0
  -22.0350   -5.2600   22.3800 C   0  0  0  0  0  0  0  0  0  0  0  0
  -22.4350   -4.6710   21.2270 F   0  0  0  0  0  0  0  0  0  0  0  0
  -21.2570   -4.3320   25.8430 F   0  0  0  0  0  0  0  0  0  0  0  0
  -23.1930  -13.9580   21.0250 C   0  0  0  0  0  0  0  0  0  0  0  0
  -22.4790  -13.2730   21.9110 N   0  0  0  0  0  0  0  0  0  0  0  0
  -22.7670  -15.0030   20.5370 O   0  0  0  0  0  0  0  0  0  0  0  0
  -22.8370  -12.4280   22.3310 H   0  0  0  0  0  0  0  0  0  0  0  0
  -21.5610  -13.5990   22.1780 H   0  0  0  0  0  0  0  0  0  0  0  0
  -25.8330  -15.5610   20.1410 N   0  0  0  0  0  0  0  0  0  0  0  0
  -25.0900  -16.2330   20.2950 H   0  0  0  0  0  0  0  0  0  0  0  0
  -26.6650  -15.9770   19.7440 H   0  0  0  0  0  0  0  0  0  0  0  0
  2  1  1  0
  3  1  2  0
  4  7  1  0
  4  2  2  0
  5  3  1  0
  6  5  2  3
  6  4  1  0
  8  6  1  0
  9 20  2  0
 10  8  1  0
 10 15  1  0
 11 19  1  0
 11 21  1  0
 12 18  1  0
 12 14  1  0
 13 19  1  0
 14 15  2  0
 14 13  1  0
 16 10  2  0
 17 16  1  0
 17 12  2  0
 18 11  1  0
 19  9  1  0
 21 23  2  0
 22 21  1  0
 24 22  1  0
 25 34  2  0
 25 30  1  0
 26 22  1  0
 26 30  1  0
 27 26  1  0
 28 29  1  0
 28 27  1  0
 29 25  1  0
 30 31  2  0
 31 32  1  0
 33 32  2  0
 34 33  1  0
 35  9  1  0
 35 40  1  0
 35 36  1  0
 36 39  1  1
 36 37  1  0
 38 36  1  0
 40 43  1  0
 41 45  1  0
 41 40  1  0
 42 41  2  0
 45 44  1  0
 47 45  1  0
 47 48  1  0
 47 46  1  0
 49 51  1  0
 49  5  1  0
 51 50  1  0
 53 52  1  0
 53 62  1  0
 53 51  1  0
 54 62  1  0
 55 60  1  0
 56 57  1  0
 56 55  1  0
 58 57  1  0
 58 67  1  0
 58 59  1  0
 60 54  1  0
 60 59  1  0
 61 54  2  0
 62 63  1  0
 64 65  2  0
 65 84  1  0
 66 65  1  0
 66 69  1  0
 67 68  1  0
 67 64  1  0
 68 66  2  0
 69 70  1  0
 70 71  2  0
 72 75  1  0
 72 71  1  0
 73 72  2  0
 74 73  1  0
 74 69  2  0
 75 76  1  0
 76 77  1  0
 77 78  2  0
 79 78  1  0
 79 83  1  0
 80 79  2  0
 81 76  2  0
 81 80  1  0
 82 81  1  0
 84 85  1  0
 85 88  1  0
 85 87  1  0
 86 84  2  0
 89 64  1  0
 89 90  1  0
 91 89  1  0
M  ISO  4   6 101   8 101  54 100  62 100
M  END
>  <TORSDO>  (25) 
F 19

>  <SCORE>  (25) 
-14.018

>  <name>  (25) 
24

>  <ligand_id>  (25) 
24

>  <original_smiles>  (25) 
[H]c1c([H])c([H])c2c(c1[H])C([H])([H])C([H])([H])C([H])([H])C2([H])N([H])C(=O)C1([H])N(C(=O)C([H])(N([H])C(=O)C([H])(N([H])C([H])([H])[H])C([H])([H])[H])C(C([H])([H])[H])(C([H])([H])[H])C([H])([H])[H])C([H])([H])c2c([H])c(Oc3c(C([H])([H])[H])c([H])c([H])c([H])c3C([H])([H])C([H])(C([H])([H])[H])C([H])(N([H])C(=O)N3C([H])([H])C([H])([H])C([H])([H])C([H])(n4nc(-c5c([H])c([H])c(Oc6c([H])c([H])c(F)c([H])c6F)c([H])c5[H])c(C(=O)N([H])[H])c4N([H])[H])C3([H])[H])C([H])([H])[H])c([H])c([H])c2C1([H])[H]

>  <smiles>  (25) 
[H]c1c([H])c([H])c2c(c1[H])C([H])([H])C([H])([H])C([H])([H])C2([H])N([H])C(=O)C1([H])N(C(=O)C([H])(N([H])C(=O)C([H])(N([H])C([H])([H])[H])C([H])([H])[H])C(C([H])([H])[H])(C([H])([H])[H])C([H])([H])[H])C([H])([H])c2c([H])c(Oc3c(C([H])([H])[H])c([H])c([H])c([H])c3C([H])([H])C([H])(C([H])([H])[H])C([H])(N([H])C(=O)N3C([H])([H])C([H])([H])C([H])([H])C([H])(n4nc(-c5c([H])c([H])c(Oc6c([H])c([H])c(F)c([H])c6F)c([H])c5[H])c(C(=O)N([H])[H])c4N([H])[H])C3([H])[H])C([H])([H])[H])c([H])c([H])c2C1([H])[H]

$$$$
25:0:0
     RDKit          3D

 90 98  0  0  1  0  0  0  0  0999 V2000
  -29.5860  -21.7550   19.0740 C   0  0  0  0  0  3  0  0  0  0  0  0
  -28.8380  -23.2220   21.1740 C   0  0  0  0  0  3  0  0  0  0  0  0
  -29.6540  -20.7560   20.1830 C   0  0  0  0  0  0  0  0  0  0  0  0
  -29.2230  -23.2420   18.9940 C   0  0  0  0  0  0  0  0  0  0  0  0
  -29.2120  -21.7110   21.2580 C   0  0  0  0  0  0  0  0  0  0  0  0
  -28.7770  -24.2060   20.0420 C   0  0  0  0  0  0  0  0  0  0  0  0
  -29.3810  -23.8390   17.6080 C   0  0  0  0  0  1  0  0  0  0  0  0
  -30.0930  -17.5360   20.4490 C   0  0  0  0  0  3  0  0  0  0  0  0
  -30.2700  -19.0260   20.0730 C   0  0  0  0  0  0  0  0  0  0  0  0
  -30.8880  -16.0150   20.2350 C   0  0  0  0  0  0  0  0  0  0  0  0
  -30.9690  -13.4750   19.3840 C   0  0  0  0  0  2  0  0  0  0  0  0
  -30.0810  -13.1300   18.1510 C   0  0  0  0  0  2  0  0  0  0  0  0
  -28.6500  -12.7760   18.5820 C   0  0  0  0  0  2  0  0  0  0  0  0
  -28.1460  -13.7410   19.6770 C   0  0  0  0  0  3  0  0  0  0  0  0
  -29.1730  -14.0190   20.8010 C   0  0  0  0  0  2  0  0  0  0  0  0
  -30.3670  -14.6420   20.1830 N   0  0  0  0  0  0  0  0  0  0  0  0
  -32.1100  -15.9170   20.0000 O   0  0  0  0  0  0  0  0  0  0  0  0
  -25.8020  -14.2490   20.5070 C   0  0  0  0  0  0  0  0  0  0  0  0
  -24.7380  -13.4610   20.8430 C   0  0  0  0  0  0  0  0  0  0  0  0
  -25.1930  -12.1110   20.7260 C   0  0  0  0  0  0  0  0  0  0  0  0
  -26.8330  -13.3840   20.1940 N   0  0  0  0  0  0  0  0  0  0  0  0
  -26.4820  -12.0860   20.3950 N   0  0  0  0  0  0  0  0  0  0  0  0
  -24.4510  -10.8480   20.8510 C   0  0  0  0  0  0  0  0  0  0  0  0
  -24.8290   -9.8560   21.7810 C   0  0  0  0  0  3  0  0  0  0  0  0
  -24.0840   -8.6620   21.8980 C   0  0  0  0  0  3  0  0  0  0  0  0
  -22.9450   -8.4520   21.0840 C   0  0  0  0  0  0  0  0  0  0  0  0
  -22.5870   -9.4330   20.1430 C   0  0  0  0  0  3  0  0  0  0  0  0
  -23.3330  -10.6180   20.0240 C   0  0  0  0  0  3  0  0  0  0  0  0
  -22.1750   -7.3130   21.1110 O   0  0  0  0  0  0  0  0  0  0  0  0
  -21.9560   -6.6200   22.2730 C   0  0  0  0  0  0  0  0  0  0  0  0
  -21.3440   -7.2200   23.3960 C   0  0  0  0  0  3  0  0  0  0  0  0
  -21.0730   -6.4520   24.5460 C   0  0  0  0  0  3  0  0  0  0  0  0
  -21.4020   -5.0830   24.5720 C   0  0  0  0  0  0  0  0  0  0  0  0
  -22.0060   -4.4830   23.4540 C   0  0  0  0  0  3  0  0  0  0  0  0
  -22.2780   -5.2480   22.3070 C   0  0  0  0  0  0  0  0  0  0  0  0
  -22.8410   -4.6590   21.2250 F   0  0  0  0  0  0  0  0  0  0  0  0
  -21.1360   -4.3430   25.6740 F   0  0  0  0  0  0  0  0  0  0  0  0
  -23.3500  -13.9380   21.1500 C   0  0  0  0  0  0  0  0  0  0  0  0
  -22.6260  -13.2170   21.9980 N   0  0  0  0  0  0  0  0  0  0  0  0
  -22.9170  -14.9870   20.6740 O   0  0  0  0  0  0  0  0  0  0  0  0
  -22.9900  -12.3690   22.4060 H   0  0  0  0  0  0  0  0  0  0  0  0
  -21.6930  -13.5170   22.2410 H   0  0  0  0  0  0  0  0  0  0  0  0
  -25.9730  -15.6270   20.4100 N   0  0  0  0  0  0  0  0  0  0  0  0
  -25.2100  -16.2740   20.5800 H   0  0  0  0  0  0  0  0  0  0  0  0
  -26.8130  -16.0840   20.0800 H   0  0  0  0  0  0  0  0  0  0  0  0
  -31.3980  -19.1650   19.3670 O   0  0  0  0  0  0  0  0  0  0  0  0
  -31.5340  -20.0940   19.2310 H   0  0  0  0  0  0  0  0  0  0  0  0
  -29.4810  -21.8460   23.6530 C   0  0  0  0  0  1  0  0  0  0  0  0
  -29.2120  -21.0790   22.4850 O   0  0  0  0  0  0  0  0  0  0  0  0
  -28.6400  -25.8270   19.9300 O   0  0  0  0  0  0  0  0  0  0  0  0
  -24.9990  -31.8430   23.2760 C   0  0  0  0  0  0  0  0  0  0  0  0
  -27.6000  -26.9850   19.9850 C   0  0  0  0  0  0  0  0  0  0  0  0
  -23.8280  -30.5260   21.5620 C   0  0  0  0  0  3  0  0  0  0  0  0
  -25.2960  -28.9840   20.0490 C   0  0  0  0  0  0  0  0  0  0  0  0
  -26.4020  -30.7150   21.4430 C   0  0  0  0  0  2  0  0  0  0  0  0
  -26.4850  -29.3210   20.7070 C   0  0  0  0  0  0  0  0  0  0  0  0
  -27.6170  -28.3510   20.6430 C   0  0  0  0  0  3  0  0  0  0  0  0
  -26.3750  -26.8640   19.2780 C   0  0  0  0  0  3  0  0  0  0  0  0
  -25.2790  -27.7840   19.3150 C   0  0  0  0  0  3  0  0  0  0  0  0
  -24.0750  -29.9150   20.1510 C   0  0  0  0  0  2  0  0  0  0  0  0
  -25.1000  -31.0590   22.1480 N   0  0  0  0  0  0  0  0  0  0  0  0
  -23.9030  -32.0950   23.8070 O   0  0  0  0  0  0  0  0  0  0  0  0
  -23.1300  -29.4820   22.4740 C   0  0  0  0  0  0  0  0  0  0  0  0
  -21.7990  -29.3140   22.3420 N   0  0  0  0  0  0  0  0  0  0  0  0
  -23.7970  -28.8230   23.2750 O   0  0  0  0  0  0  0  0  0  0  0  0
  -21.3100  -29.8970   21.6770 H   0  0  0  0  0  0  0  0  0  0  0  0
  -18.4340  -28.0200   22.7930 C   0  0  0  0  0  0  0  0  0  0  0  0
  -20.9920  -28.3190   23.0590 C   0  0  0  0  0  3  0  0  0  0  0  0
  -21.1140  -26.9250   22.4010 C   0  0  0  0  0  2  0  0  0  0  0  0
  -20.0130  -26.6450   21.3710 C   0  0  0  0  0  2  0  0  0  0  0  0
  -18.6330  -26.7220   22.0290 C   0  0  0  0  0  2  0  0  0  0  0  0
  -19.5410  -28.7780   23.2620 C   0  0  0  0  0  0  0  0  0  0  0  0
  -19.2980  -29.9910   23.9420 C   0  0  0  0  0  3  0  0  0  0  0  0
  -17.9840  -30.4470   24.1560 C   0  0  0  0  0  3  0  0  0  0  0  0
  -16.8930  -29.6880   23.6970 C   0  0  0  0  0  3  0  0  0  0  0  0
  -17.1190  -28.4750   23.0220 C   0  0  0  0  0  3  0  0  0  0  0  0
  -26.2540  -32.4720   23.9540 C   0  0  0  0  0  3  0  0  0  0  0  0
  -26.7420  -31.6670   25.2230 C   0  0  1  0  0  0  0  0  0  0  0  0
  -25.6290  -31.4090   26.2650 C   0  0  0  0  0  1  0  0  0  0  0  0
  -27.3260  -30.2950   24.8190 C   0  0  0  0  0  1  0  0  0  0  0  0
  -27.8820  -32.4380   25.9260 C   0  0  0  0  0  1  0  0  0  0  0  0
  -25.9210  -33.8580   24.3400 N   0  0  0  0  0  0  0  0  0  0  0  0
  -26.2540  -34.9560   23.6460 C   0  0  0  0  0  0  0  0  0  0  0  0
  -26.9290  -34.9080   22.6150 O   0  0  0  0  0  0  0  0  0  0  0  0
  -25.3190  -33.9680   25.1430 H   0  0  0  0  0  0  0  0  0  0  0  0
  -24.5230  -36.7710   23.3910 C   0  0  0  0  0  1  0  0  0  0  0  0
  -25.7660  -36.3210   24.1760 C   0  0  0  0  0  3  0  0  0  0  0  0
  -27.8890  -37.1850   25.0620 C   0  0  0  0  0  1  0  0  0  0  0  0
  -26.7970  -37.3810   24.1120 N   0  0  0  0  0  0  0  0  0  0  0  0
  -26.3870  -38.2950   24.2800 H   0  0  0  0  0  0  0  0  0  0  0  0
  1  3  1  0
  2  5  1  0
  3  5  2  0
  4  1  2  0
  4  6  1  0
  5 49  1  0
  6  2  2  0
  7  4  1  0
  9  3  1  0
  9  8  2  0
 10  8  1  0
 11 16  1  0
 12 13  1  0
 12 11  1  0
 14 13  1  0
 14 21  1  0
 14 15  1  0
 16 10  1  0
 16 15  1  0
 17 10  2  0
 18 19  2  0
 19 38  1  0
 20 19  1  0
 20 23  1  0
 21 22  1  0
 21 18  1  0
 22 20  2  0
 23 24  1  0
 24 25  2  0
 26 29  1  0
 26 25  1  0
 27 26  2  0
 28 27  1  0
 28 23  2  0
 29 30  1  0
 30 35  2  0
 30 31  1  0
 31 32  2  0
 32 33  1  0
 33 37  1  0
 34 33  2  0
 35 34  1  0
 36 35  1  0
 38 39  1  0
 39 42  1  0
 39 41  1  0
 40 38  2  0
 43 18  1  0
 43 44  1  0
 45 43  1  0
 46  9  1  0
 47 46  1  0
 49 48  1  0
 50 52  1  0
 50  6  1  0
 51 62  2  0
 52 57  1  0
 53 61  1  0
 53 63  1  0
 54 60  1  0
 54 56  1  0
 55 61  1  0
 56 55  1  0
 57 56  2  0
 58 59  1  0
 58 52  2  0
 59 54  2  0
 60 53  1  0
 61 51  1  0
 63 65  2  0
 64 63  1  0
 66 64  1  0
 67 76  2  0
 67 72  1  0
 68 64  1  0
 68 72  1  0
 69 68  1  0
 70 71  1  0
 70 69  1  0
 71 67  1  0
 72 73  2  0
 73 74  1  0
 75 74  2  0
 76 75  1  0
 77 51  1  0
 77 82  1  0
 77 78  1  0
 78 81  1  1
 78 79  1  0
 80 78  1  0
 82 85  1  0
 83 87  1  0
 83 82  1  0
 84 83  2  0
 87 86  1  0
 89 87  1  0
 89 90  1  0
 89 88  1  0
M  ISO  4   6 101   8 100  10 100  50 101
M  END
>  <TORSDO>  (26) 
F 19

>  <SCORE>  (26) 
-13.649

>  <name>  (26) 
25

>  <ligand_id>  (26) 
25

>  <original_smiles>  (26) 
[H]OC(=C([H])C(=O)N1C([H])([H])C([H])([H])C([H])([H])C([H])(n2nc(-c3c([H])c([H])c(Oc4c([H])c([H])c(F)c([H])c4F)c([H])c3[H])c(C(=O)N([H])[H])c2N([H])[H])C1([H])[H])c1c([H])c(C([H])([H])[H])c(Oc2c([H])c([H])c3c(c2[H])C([H])([H])N(C(=O)C([H])(N([H])C(=O)C([H])(N([H])C([H])([H])[H])C([H])([H])[H])C(C([H])([H])[H])(C([H])([H])[H])C([H])([H])[H])C([H])(C(=O)N([H])C2([H])c4c([H])c([H])c([H])c([H])c4C([H])([H])C([H])([H])C2([H])[H])C3([H])[H])c([H])c1OC([H])([H])[H]

>  <smiles>  (26) 
[H]OC(=C([H])C(=O)N1C([H])([H])C([H])([H])C([H])([H])C([H])(n2nc(-c3c([H])c([H])c(Oc4c([H])c([H])c(F)c([H])c4F)c([H])c3[H])c(C(=O)N([H])[H])c2N([H])[H])C1([H])[H])c1c([H])c(C([H])([H])[H])c(Oc2c([H])c([H])c3c(c2[H])C([H])([H])N(C(=O)C([H])(N([H])C(=O)C([H])(N([H])C([H])([H])[H])C([H])([H])[H])C(C([H])([H])[H])(C([H])([H])[H])C([H])([H])[H])C([H])(C(=O)N([H])C2([H])c4c([H])c([H])c([H])c([H])c4C([H])([H])C([H])([H])C2([H])[H])C3([H])[H])c([H])c1OC([H])([H])[H]

$$$$
26:0:0
     RDKit          3D

 90 98  0  0  1  0  0  0  0  0999 V2000
  -28.9670  -19.8390   19.3500 C   0  0  0  0  0  3  0  0  0  0  0  0
  -29.9980  -19.8770   21.4650 C   0  0  0  0  0  3  0  0  0  0  0  0
  -28.7050  -21.2720   19.4340 C   0  0  0  0  0  3  0  0  0  0  0  0
  -29.7520  -21.3010   21.5440 C   0  0  0  0  0  3  0  0  0  0  0  0
  -29.6380  -19.0540   20.3540 C   0  0  0  0  0  0  0  0  0  0  0  0
  -29.1120  -22.1000   20.5350 C   0  0  0  0  0  0  0  0  0  0  0  0
  -29.8730  -16.2820   20.5090 C   0  0  0  0  0  3  0  0  0  0  0  0
  -30.2330  -17.5990   20.1280 C   0  0  0  0  0  0  0  0  0  0  0  0
  -30.6500  -14.9670   20.2310 C   0  0  0  0  0  0  0  0  0  0  0  0
  -30.4560  -12.6440   19.2720 C   0  0  0  0  0  2  0  0  0  0  0  0
  -29.5160  -12.6730   18.0440 C   0  0  0  0  0  2  0  0  0  0  0  0
  -28.0530  -12.4790   18.4820 C   0  0  0  0  0  2  0  0  0  0  0  0
  -27.6740  -13.3740   19.6910 C   0  0  0  0  0  3  0  0  0  0  0  0
  -28.7400  -13.3390   20.8050 C   0  0  0  0  0  2  0  0  0  0  0  0
  -30.0210  -13.7250   20.2020 N   0  0  0  0  0  0  0  0  0  0  0  0
  -31.8420  -14.9670   19.9050 O   0  0  0  0  0  0  0  0  0  0  0  0
  -25.2950  -13.9400   20.4480 C   0  0  0  0  0  0  0  0  0  0  0  0
  -24.2380  -13.1590   20.8290 C   0  0  0  0  0  0  0  0  0  0  0  0
  -24.7110  -11.8100   20.7960 C   0  0  0  0  0  0  0  0  0  0  0  0
  -26.3410  -13.0680   20.2000 N   0  0  0  0  0  0  0  0  0  0  0  0
  -25.9990  -11.7820   20.4750 N   0  0  0  0  0  0  0  0  0  0  0  0
  -23.9930  -10.5440   20.9960 C   0  0  0  0  0  0  0  0  0  0  0  0
  -24.4360   -9.5810   21.9290 C   0  0  0  0  0  3  0  0  0  0  0  0
  -23.7160   -8.3820   22.1160 C   0  0  0  0  0  3  0  0  0  0  0  0
  -22.5390   -8.1360   21.3690 C   0  0  0  0  0  0  0  0  0  0  0  0
  -22.1160   -9.0870   20.4240 C   0  0  0  0  0  3  0  0  0  0  0  0
  -22.8360  -10.2780   20.2360 C   0  0  0  0  0  3  0  0  0  0  0  0
  -21.7900   -6.9870   21.4650 O   0  0  0  0  0  0  0  0  0  0  0  0
  -21.7450   -6.2520   22.6220 C   0  0  0  0  0  0  0  0  0  0  0  0
  -21.3020   -6.8070   23.8420 C   0  0  0  0  0  3  0  0  0  0  0  0
  -21.2050   -5.9970   24.9900 C   0  0  0  0  0  3  0  0  0  0  0  0
  -21.5430   -4.6320   24.9210 C   0  0  0  0  0  0  0  0  0  0  0  0
  -21.9800   -4.0760   23.7050 C   0  0  0  0  0  3  0  0  0  0  0  0
  -22.0780   -4.8840   22.5590 C   0  0  0  0  0  0  0  0  0  0  0  0
  -22.4790   -4.3370   21.3860 F   0  0  0  0  0  0  0  0  0  0  0  0
  -21.4430   -3.8510   26.0220 F   0  0  0  0  0  0  0  0  0  0  0  0
  -22.8410  -13.6290   21.1090 C   0  0  0  0  0  0  0  0  0  0  0  0
  -22.1250  -12.9330   21.9850 N   0  0  0  0  0  0  0  0  0  0  0  0
  -22.3930  -14.6490   20.5860 O   0  0  0  0  0  0  0  0  0  0  0  0
  -22.5010  -12.1090   22.4300 H   0  0  0  0  0  0  0  0  0  0  0  0
  -21.1880  -13.2310   22.2160 H   0  0  0  0  0  0  0  0  0  0  0  0
  -25.4480  -15.3110   20.2690 N   0  0  0  0  0  0  0  0  0  0  0  0
  -24.6760  -15.9590   20.3880 H   0  0  0  0  0  0  0  0  0  0  0  0
  -26.2900  -15.7580   19.9280 H   0  0  0  0  0  0  0  0  0  0  0  0
  -31.3550  -17.7570   19.4130 O   0  0  0  0  0  0  0  0  0  0  0  0
  -31.4730  -18.6900   19.2800 H   0  0  0  0  0  0  0  0  0  0  0  0
  -29.0690  -23.7070   20.6870 C   0  0  0  0  0  0  0  0  0  0  0  0
  -29.8670  -24.2090   21.4860 O   0  0  0  0  0  0  0  0  0  0  0  0
  -28.0920  -24.7990   19.9730 C   0  0  0  0  0  2  0  0  0  0  0  0
  -28.3040  -26.3050   20.2590 O   0  0  0  0  0  0  0  0  0  0  0  0
  -24.6400  -31.8940   23.2550 C   0  0  0  0  0  0  0  0  0  0  0  0
  -27.2320  -27.2510   20.1800 C   0  0  0  0  0  0  0  0  0  0  0  0
  -23.4400  -30.5030   21.6100 C   0  0  0  0  0  3  0  0  0  0  0  0
  -24.8910  -28.9530   20.1660 C   0  0  0  0  0  0  0  0  0  0  0  0
  -25.9870  -30.7950   21.4360 C   0  0  0  0  0  2  0  0  0  0  0  0
  -26.0660  -29.4120   20.7740 C   0  0  0  0  0  0  0  0  0  0  0  0
  -27.2380  -28.5740   20.7670 C   0  0  0  0  0  3  0  0  0  0  0  0
  -26.0350  -26.8870   19.5280 C   0  0  0  0  0  3  0  0  0  0  0  0
  -24.8850  -27.7030   19.5290 C   0  0  0  0  0  3  0  0  0  0  0  0
  -23.6570  -29.8390   20.2250 C   0  0  0  0  0  2  0  0  0  0  0  0
  -24.7090  -31.0850   22.1550 N   0  0  0  0  0  0  0  0  0  0  0  0
  -23.5550  -32.1680   23.7900 O   0  0  0  0  0  0  0  0  0  0  0  0
  -22.7740  -29.4830   22.5660 C   0  0  0  0  0  0  0  0  0  0  0  0
  -21.4460  -29.3070   22.4430 N   0  0  0  0  0  0  0  0  0  0  0  0
  -23.4520  -28.8530   23.3810 O   0  0  0  0  0  0  0  0  0  0  0  0
  -20.9540  -29.8650   21.7600 H   0  0  0  0  0  0  0  0  0  0  0  0
  -18.0730  -28.0890   22.9470 C   0  0  0  0  0  0  0  0  0  0  0  0
  -20.6320  -28.3620   23.2120 C   0  0  0  0  0  3  0  0  0  0  0  0
  -20.7390  -26.9330   22.6300 C   0  0  0  0  0  2  0  0  0  0  0  0
  -19.6370  -26.6090   21.6170 C   0  0  0  0  0  2  0  0  0  0  0  0
  -18.2560  -26.7440   22.2640 C   0  0  0  0  0  2  0  0  0  0  0  0
  -19.1880  -28.8550   23.3780 C   0  0  0  0  0  0  0  0  0  0  0  0
  -18.9630  -30.1130   23.9790 C   0  0  0  0  0  3  0  0  0  0  0  0
  -17.6560  -30.6050   24.1520 C   0  0  0  0  0  3  0  0  0  0  0  0
  -16.5550  -29.8360   23.7350 C   0  0  0  0  0  3  0  0  0  0  0  0
  -16.7640  -28.5790   23.1400 C   0  0  0  0  0  3  0  0  0  0  0  0
  -25.9180  -32.5300   23.8810 C   0  0  0  0  0  3  0  0  0  0  0  0
  -26.4320  -31.7610   25.1600 C   0  0  1  0  0  0  0  0  0  0  0  0
  -25.3370  -31.5250   26.2260 C   0  0  0  0  0  1  0  0  0  0  0  0
  -27.0160  -30.3820   24.7740 C   0  0  0  0  0  1  0  0  0  0  0  0
  -27.5810  -32.5570   25.8230 C   0  0  0  0  0  1  0  0  0  0  0  0
  -25.6020  -33.9280   24.2150 N   0  0  0  0  0  0  0  0  0  0  0  0
  -25.9170  -34.9850   23.4550 C   0  0  0  0  0  0  0  0  0  0  0  0
  -26.5690  -34.8870   22.4120 O   0  0  0  0  0  0  0  0  0  0  0  0
  -25.0180  -34.0770   25.0250 H   0  0  0  0  0  0  0  0  0  0  0  0
  -24.1680  -36.7690   23.1430 C   0  0  0  0  0  1  0  0  0  0  0  0
  -25.4310  -36.3710   23.9240 C   0  0  0  0  0  3  0  0  0  0  0  0
  -27.5760  -37.2740   24.7090 C   0  0  0  0  0  1  0  0  0  0  0  0
  -26.4530  -37.4310   23.7870 N   0  0  0  0  0  0  0  0  0  0  0  0
  -26.0430  -38.3490   23.9390 H   0  0  0  0  0  0  0  0  0  0  0  0
  1  3  2  0
  1  5  1  0
  2  4  1  0
  3  6  1  0
  5  2  2  0
  6 47  1  0
  6  4  2  0
  8  5  1  0
  8  7  2  0
  9  7  1  0
 10 15  1  0
 11 12  1  0
 11 10  1  0
 13 12  1  0
 13 20  1  0
 13 14  1  0
 15  9  1  0
 15 14  1  0
 16  9  2  0
 17 18  2  0
 18 37  1  0
 19 18  1  0
 19 22  1  0
 20 17  1  0
 20 21  1  0
 21 19  2  0
 22 23  1  0
 23 24  2  0
 25 28  1  0
 25 24  1  0
 26 25  2  0
 27 26  1  0
 27 22  2  0
 28 29  1  0
 29 30  1  0
 30 31  2  0
 32 31  1  0
 32 36  1  0
 33 32  2  0
 34 29  2  0
 34 33  1  0
 35 34  1  0
 37 38  1  0
 38 41  1  0
 38 40  1  0
 39 37  2  0
 42 43  1  0
 42 17  1  0
 44 42  1  0
 45  8  1  0
 46 45  1  0
 47 48  2  0
 49 50  1  0
 49 47  1  0
 51 62  2  0
 52 50  1  0
 52 57  1  0
 53 61  1  0
 53 63  1  0
 54 60  1  0
 54 56  1  0
 55 61  1  0
 56 55  1  0
 57 56  2  0
 58 59  1  0
 58 52  2  0
 59 54  2  0
 60 53  1  0
 61 51  1  0
 63 65  2  0
 64 63  1  0
 66 64  1  0
 67 76  2  0
 67 72  1  0
 68 64  1  0
 68 72  1  0
 69 68  1  0
 70 71  1  0
 70 69  1  0
 71 67  1  0
 72 73  2  0
 73 74  1  0
 75 74  2  0
 76 75  1  0
 77 51  1  0
 77 82  1  0
 77 78  1  0
 78 81  1  1
 78 79  1  0
 80 78  1  0
 82 85  1  0
 83 87  1  0
 83 82  1  0
 84 83  2  0
 87 86  1  0
 89 87  1  0
 89 90  1  0
 89 88  1  0
M  ISO  4   7 100   9 100  49 101  50 101
M  END
>  <TORSDO>  (27) 
F 20

>  <SCORE>  (27) 
-14.028

>  <name>  (27) 
26

>  <ligand_id>  (27) 
26

>  <original_smiles>  (27) 
[H]OC(=C([H])C(=O)N1C([H])([H])C([H])([H])C([H])([H])C([H])(n2nc(-c3c([H])c([H])c(Oc4c([H])c([H])c(F)c([H])c4F)c([H])c3[H])c(C(=O)N([H])[H])c2N([H])[H])C1([H])[H])c1c([H])c([H])c(C(=O)C([H])([H])Oc2c([H])c([H])c3c(c2[H])C([H])([H])N(C(=O)C([H])(N([H])C(=O)C([H])(N([H])C([H])([H])[H])C([H])([H])[H])C(C([H])([H])[H])(C([H])([H])[H])C([H])([H])[H])C([H])(C(=O)N([H])C2([H])c4c([H])c([H])c([H])c([H])c4C([H])([H])C([H])([H])C2([H])[H])C3([H])[H])c([H])c1[H]

>  <smiles>  (27) 
[H]OC(=C([H])C(=O)N1C([H])([H])C([H])([H])C([H])([H])C([H])(n2nc(-c3c([H])c([H])c(Oc4c([H])c([H])c(F)c([H])c4F)c([H])c3[H])c(C(=O)N([H])[H])c2N([H])[H])C1([H])[H])c1c([H])c([H])c(C(=O)C([H])([H])Oc2c([H])c([H])c3c(c2[H])C([H])([H])N(C(=O)C([H])(N([H])C(=O)C([H])(N([H])C([H])([H])[H])C([H])([H])[H])C(C([H])([H])[H])(C([H])([H])[H])C([H])([H])[H])C([H])(C(=O)N([H])C2([H])c4c([H])c([H])c([H])c([H])c4C([H])([H])C([H])([H])C2([H])[H])C3([H])[H])c([H])c1[H]

$$$$
27:0:0
     RDKit          3D

 96104  0  0  1  0  0  0  0  0999 V2000
  -30.8420  -20.3040   18.9840 C   0  0  0  0  0  3  0  0  0  0  0  0
  -31.1490  -18.9710   18.6070 C   0  0  0  0  0  3  0  0  0  0  0  0
  -30.3600  -20.6310   20.2730 C   0  0  0  0  0  0  0  0  0  0  0  0
  -31.0290  -17.8500   19.4860 C   0  0  0  0  0  0  0  0  0  0  0  0
  -30.2790  -19.5240   21.1890 C   0  0  0  0  0  0  0  0  0  0  0  0
  -30.6280  -18.1830   20.8070 C   0  0  0  0  0  0  0  0  0  0  0  0
  -29.8000  -19.7060   22.6240 C   0  0  0  0  0  1  0  0  0  0  0  0
  -31.9900  -16.2910   17.6700 C   0  0  0  0  0  1  0  0  0  0  0  0
  -29.6220  -16.2960   18.2660 C   0  0  0  0  0  1  0  0  0  0  0  0
  -31.0200  -16.3680   18.8970 C   0  0  2  0  0  0  0  0  0  0  0  0
  -31.4600  -15.0810   19.7940 C   0  0  0  0  0  0  0  0  0  0  0  0
  -31.1510  -12.7380   19.0770 C   0  0  0  0  0  2  0  0  0  0  0  0
  -30.1770  -12.6500   17.8870 C   0  0  0  0  0  2  0  0  0  0  0  0
  -28.7130  -12.5550   18.3740 C   0  0  0  0  0  2  0  0  0  0  0  0
  -28.3600  -13.5330   19.5260 C   0  0  0  0  0  3  0  0  0  0  0  0
  -29.4820  -13.6390   20.5810 C   0  0  0  0  0  2  0  0  0  0  0  0
  -30.7480  -13.9030   19.8830 N   0  0  0  0  0  0  0  0  0  0  0  0
  -32.6720  -15.0230   19.9850 O   0  0  0  0  0  0  0  0  0  0  0  0
  -26.0490  -14.2170   20.3930 C   0  0  0  0  0  0  0  0  0  0  0  0
  -24.9640  -13.4750   20.7670 C   0  0  0  0  0  0  0  0  0  0  0  0
  -25.3710  -12.1090   20.6750 C   0  0  0  0  0  0  0  0  0  0  0  0
  -27.0450  -13.2970   20.0930 N   0  0  0  0  0  0  0  0  0  0  0  0
  -26.6460  -12.0260   20.3290 N   0  0  0  0  0  0  0  0  0  0  0  0
  -24.6050  -10.8720   20.8380 C   0  0  0  0  0  0  0  0  0  0  0  0
  -24.9770   -9.9000   21.7920 C   0  0  0  0  0  3  0  0  0  0  0  0
  -24.2160   -8.7220   21.9440 C   0  0  0  0  0  3  0  0  0  0  0  0
  -23.0700   -8.5090   21.1410 C   0  0  0  0  0  0  0  0  0  0  0  0
  -22.7210   -9.4660   20.1720 C   0  0  0  0  0  3  0  0  0  0  0  0
  -23.4820  -10.6370   20.0180 C   0  0  0  0  0  3  0  0  0  0  0  0
  -22.2860   -7.3840   21.2030 O   0  0  0  0  0  0  0  0  0  0  0  0
  -22.0720   -6.7220   22.3860 C   0  0  0  0  0  0  0  0  0  0  0  0
  -21.4520   -7.3470   23.4880 C   0  0  0  0  0  3  0  0  0  0  0  0
  -21.1910   -6.6090   24.6600 C   0  0  0  0  0  3  0  0  0  0  0  0
  -21.5370   -5.2460   24.7270 C   0  0  0  0  0  0  0  0  0  0  0  0
  -22.1490   -4.6210   23.6270 C   0  0  0  0  0  3  0  0  0  0  0  0
  -22.4130   -5.3570   22.4590 C   0  0  0  0  0  0  0  0  0  0  0  0
  -22.9840   -4.7440   21.3940 F   0  0  0  0  0  0  0  0  0  0  0  0
  -21.2770   -4.5330   25.8490 F   0  0  0  0  0  0  0  0  0  0  0  0
  -23.5960  -13.9950   21.0970 C   0  0  0  0  0  0  0  0  0  0  0  0
  -22.8710  -13.2980   21.9660 N   0  0  0  0  0  0  0  0  0  0  0  0
  -23.1790  -15.0510   20.6210 O   0  0  0  0  0  0  0  0  0  0  0  0
  -23.2220  -12.4420   22.3680 H   0  0  0  0  0  0  0  0  0  0  0  0
  -21.9540  -13.6270   22.2340 H   0  0  0  0  0  0  0  0  0  0  0  0
  -26.2620  -15.5870   20.2590 N   0  0  0  0  0  0  0  0  0  0  0  0
  -25.5310  -16.2690   20.4290 H   0  0  0  0  0  0  0  0  0  0  0  0
  -27.1450  -16.0080   19.9980 H   0  0  0  0  0  0  0  0  0  0  0  0
  -31.2030  -22.7590   21.4000 C   0  0  0  0  0  1  0  0  0  0  0  0
  -30.0120  -22.1300   20.6610 C   0  0  0  0  0  3  0  0  0  0  0  0
  -29.5770  -23.0440   19.5400 N   0  0  0  0  0  4  0  0  0  0  0  0
  -30.3920  -23.4030   19.0690 H   0  0  0  0  0  0  0  0  0  0  0  0
  -29.1200  -22.4290   18.8830 H   0  0  0  0  0  0  0  0  0  0  0  0
  -28.5700  -24.1700   19.7690 C   0  0  0  0  0  2  0  0  0  0  0  0
  -29.0350  -25.5170   20.4540 C   0  0  0  0  0  2  0  0  0  0  0  0
  -28.7490  -26.8050   19.8050 O   0  0  0  0  0  0  0  0  0  0  0  0
  -24.4790  -31.5910   23.1000 C   0  0  0  0  0  0  0  0  0  0  0  0
  -27.5110  -27.4360   19.9050 C   0  0  0  0  0  0  0  0  0  0  0  0
  -23.4140  -30.1760   21.3770 C   0  0  0  0  0  3  0  0  0  0  0  0
  -25.0070  -28.8020   19.9210 C   0  0  0  0  0  0  0  0  0  0  0  0
  -25.9130  -30.7200   21.2450 C   0  0  0  0  0  2  0  0  0  0  0  0
  -26.1160  -29.3780   20.5530 C   0  0  0  0  0  0  0  0  0  0  0  0
  -27.3710  -28.7080   20.5280 C   0  0  0  0  0  3  0  0  0  0  0  0
  -26.3760  -26.8850   19.2720 C   0  0  0  0  0  3  0  0  0  0  0  0
  -25.1360  -27.5610   19.2730 C   0  0  0  0  0  3  0  0  0  0  0  0
  -23.7010  -29.5700   19.9770 C   0  0  0  0  0  2  0  0  0  0  0  0
  -24.6170  -30.8460   21.9660 N   0  0  0  0  0  0  0  0  0  0  0  0
  -23.3720  -31.7560   23.6290 O   0  0  0  0  0  0  0  0  0  0  0  0
  -22.8230  -29.0710   22.2830 C   0  0  0  0  0  0  0  0  0  0  0  0
  -21.5190  -28.7910   22.1230 N   0  0  0  0  0  0  0  0  0  0  0  0
  -23.5390  -28.4660   23.0870 O   0  0  0  0  0  0  0  0  0  0  0  0
  -21.0010  -29.3360   21.4480 H   0  0  0  0  0  0  0  0  0  0  0  0
  -18.2390  -27.3110   22.5000 C   0  0  0  0  0  0  0  0  0  0  0  0
  -20.7650  -27.7570   22.8340 C   0  0  0  0  0  3  0  0  0  0  0  0
  -20.9900  -26.3660   22.1990 C   0  0  0  0  0  2  0  0  0  0  0  0
  -19.9350  -26.0040   21.1500 C   0  0  0  0  0  2  0  0  0  0  0  0
  -18.5340  -26.0100   21.7710 C   0  0  0  0  0  2  0  0  0  0  0  0
  -19.2880  -28.1390   22.9830 C   0  0  0  0  0  0  0  0  0  0  0  0
  -18.9570  -29.3530   23.6250 C   0  0  0  0  0  3  0  0  0  0  0  0
  -17.6140  -29.7420   23.7840 C   0  0  0  0  0  3  0  0  0  0  0  0
  -16.5810  -28.9110   23.3150 C   0  0  0  0  0  3  0  0  0  0  0  0
  -16.8960  -27.6970   22.6810 C   0  0  0  0  0  3  0  0  0  0  0  0
  -25.6980  -32.2940   23.7730 C   0  0  0  0  0  3  0  0  0  0  0  0
  -25.2910  -33.6660   24.1100 N   0  0  0  0  0  0  0  0  0  0  0  0
  -25.5900  -34.7500   23.3810 C   0  0  0  0  0  0  0  0  0  0  0  0
  -26.3010  -34.7020   22.3740 O   0  0  0  0  0  0  0  0  0  0  0  0
  -24.6560  -33.7690   24.8870 H   0  0  0  0  0  0  0  0  0  0  0  0
  -23.7620  -36.4350   22.9940 C   0  0  0  0  0  1  0  0  0  0  0  0
  -25.0010  -36.0970   23.8390 C   0  0  0  0  0  3  0  0  0  0  0  0
  -27.0390  -37.1080   24.7590 C   0  0  0  0  0  1  0  0  0  0  0  0
  -25.9680  -37.2150   23.7730 N   0  0  0  0  0  0  0  0  0  0  0  0
  -25.5010  -38.1070   23.9080 H   0  0  0  0  0  0  0  0  0  0  0  0
  -26.2220  -31.5380   25.0560 C   0  0  1  0  0  0  0  0  0  0  0  0
  -25.1130  -31.2130   26.0850 C   0  0  0  0  0  1  0  0  0  0  0  0
  -26.9030  -30.2090   24.6600 C   0  0  0  0  0  1  0  0  0  0  0  0
  -27.3030  -32.3910   25.7610 C   0  0  0  0  0  1  0  0  0  0  0  0
  -30.5180  -17.1850   21.7350 O   0  0  0  0  0  0  0  0  0  0  0  0
  -31.3350  -16.7180   21.8620 H   0  0  0  0  0  0  0  0  0  0  0  0
  1  3  1  0
  2  1  2  0
  2  4  1  0
  3 48  1  0
  3  5  2  0
  4  6  2  0
  5  7  1  0
  6  5  1  0
  6 95  1  0
 10  8  1  6
  9 10  1  0
 10  4  1  0
 10 11  1  0
 11 17  1  0
 11 18  2  0
 12 17  1  0
 13 14  1  0
 13 12  1  0
 15 14  1  0
 15 22  1  0
 15 16  1  0
 17 16  1  0
 19 20  2  0
 20 39  1  0
 21 20  1  0
 21 24  1  0
 22 23  1  0
 22 19  1  0
 23 21  2  0
 24 25  1  0
 25 26  2  0
 27 30  1  0
 27 26  1  0
 28 27  2  0
 29 28  1  0
 29 24  2  0
 30 31  1  0
 31 36  2  0
 31 32  1  0
 32 33  2  0
 33 34  1  0
 34 38  1  0
 35 34  2  0
 36 35  1  0
 37 36  1  0
 39 40  1  0
 40 43  1  0
 40 42  1  0
 41 39  2  0
 44 19  1  0
 44 45  1  0
 46 44  1  0
 48 47  1  0
 49 52  1  0
 49 48  1  0
 50 49  1  0
 51 49  1  0
 52 53  1  0
 54 56  1  0
 54 53  1  0
 55 66  2  0
 56 61  1  0
 57 65  1  0
 57 67  1  0
 58 64  1  0
 58 60  1  0
 59 65  1  0
 60 59  1  0
 61 60  2  0
 62 63  1  0
 62 56  2  0
 63 58  2  0
 64 57  1  0
 65 55  1  0
 67 69  2  0
 68 67  1  0
 70 68  1  0
 71 80  2  0
 71 76  1  0
 72 68  1  0
 72 76  1  0
 73 72  1  0
 74 75  1  0
 74 73  1  0
 75 71  1  0
 76 77  2  0
 77 78  1  0
 79 78  2  0
 80 79  1  0
 81 55  1  0
 81 82  1  0
 81 91  1  0
 82 85  1  0
 83 87  1  0
 83 82  1  0
 84 83  2  0
 87 86  1  0
 89 87  1  0
 89 90  1  0
 89 88  1  0
 91 94  1  1
 91 92  1  0
 93 91  1  0
 95 96  1  0
M  ISO  4  10 100  11 100  53 101  54 101
M  END
>  <TORSDO>  (28) 
F 22

>  <SCORE>  (28) 
-10.483

>  <name>  (28) 
27

>  <ligand_id>  (28) 
27

>  <original_smiles>  (28) 
[H]Oc1c(C([H])([H])[H])c(C([H])(C([H])([H])[H])[N+]([H])([H])C([H])([H])C([H])([H])Oc2c([H])c([H])c3c(c2[H])C([H])([H])N(C(=O)C([H])(N([H])C(=O)C([H])(N([H])C([H])([H])[H])C([H])([H])[H])C(C([H])([H])[H])(C([H])([H])[H])C([H])([H])[H])C([H])(C(=O)N([H])C2([H])c4c([H])c([H])c([H])c([H])c4C([H])([H])C([H])([H])C2([H])[H])C3([H])[H])c([H])c([H])c1C(C(=O)N1C([H])([H])C([H])([H])C([H])([H])C([H])(n2nc(-c3c([H])c([H])c(Oc4c([H])c([H])c(F)c([H])c4F)c([H])c3[H])c(C(=O)N([H])[H])c2N([H])[H])C1([H])[H])(C([H])([H])[H])C([H])([H])[H]

>  <smiles>  (28) 
[H]Oc1c(C([H])([H])[H])c(C([H])(C([H])([H])[H])[N+]([H])([H])C([H])([H])C([H])([H])Oc2c([H])c([H])c3c(c2[H])C([H])([H])N(C(=O)C([H])(N([H])C(=O)C([H])(N([H])C([H])([H])[H])C([H])([H])[H])C(C([H])([H])[H])(C([H])([H])[H])C([H])([H])[H])C([H])(C(=O)N([H])C2([H])c4c([H])c([H])c([H])c([H])c4C([H])([H])C([H])([H])C2([H])[H])C3([H])[H])c([H])c([H])c1C(C(=O)N1C([H])([H])C([H])([H])C([H])([H])C([H])(n2nc(-c3c([H])c([H])c(Oc4c([H])c([H])c(F)c([H])c4F)c([H])c3[H])c(C(=O)N([H])[H])c2N([H])[H])C1([H])[H])(C([H])([H])[H])C([H])([H])[H]

$$$$
28:0:0
     RDKit          3D

 91 99  0  0  1  0  0  0  0  0999 V2000
  -27.5750  -20.9600   19.7280 C   0  0  0  0  0  3  0  0  0  0  0  0
  -26.5570  -21.9080   19.5760 C   0  0  0  0  0  3  0  0  0  0  0  0
  -28.9980  -22.7040   20.6410 C   0  0  0  0  0  3  0  0  0  0  0  0
  -28.8050  -21.3000   20.3200 C   0  0  0  0  0  0  0  0  0  0  0  0
  -27.9710  -23.7150   20.4750 C   0  0  0  0  0  0  0  0  0  0  0  0
  -26.7120  -23.2560   19.9900 C   0  0  0  0  0  0  0  0  0  0  0  0
  -29.8340  -20.1700   20.5440 C   0  0  0  0  0  0  0  0  0  0  0  0
  -31.0390  -20.4150   20.6500 O   0  0  0  0  0  0  0  0  0  0  0  0
  -29.3620  -18.6600   20.7080 C   0  0  0  0  0  2  0  0  0  0  0  0
  -30.4070  -17.4550   20.5720 C   0  0  0  0  0  3  0  0  0  0  0  0
  -29.9050  -15.9890   20.9730 C   0  0  0  0  0  3  0  0  0  0  0  0
  -30.7070  -14.7150   20.4670 C   0  0  0  0  0  0  0  0  0  0  0  0
  -30.5090  -12.4910   19.3530 C   0  0  0  0  0  2  0  0  0  0  0  0
  -29.5810  -12.6420   18.1240 C   0  0  0  0  0  2  0  0  0  0  0  0
  -28.1040  -12.4710   18.5290 C   0  0  0  0  0  2  0  0  0  0  0  0
  -27.7290  -13.3200   19.7720 C   0  0  0  0  0  3  0  0  0  0  0  0
  -28.7730  -13.1610   20.9020 C   0  0  0  0  0  2  0  0  0  0  0  0
  -30.0940  -13.4930   20.3560 N   0  0  0  0  0  0  0  0  0  0  0  0
  -31.8600  -14.8760   20.0520 O   0  0  0  0  0  0  0  0  0  0  0  0
  -25.3240  -13.9140   20.4590 C   0  0  0  0  0  0  0  0  0  0  0  0
  -24.2570  -13.1370   20.8190 C   0  0  0  0  0  0  0  0  0  0  0  0
  -24.7280  -11.7880   20.8070 C   0  0  0  0  0  0  0  0  0  0  0  0
  -26.3750  -13.0360   20.2390 N   0  0  0  0  0  0  0  0  0  0  0  0
  -26.0220  -11.7530   20.5140 N   0  0  0  0  0  0  0  0  0  0  0  0
  -24.0070  -10.5230   21.0000 C   0  0  0  0  0  0  0  0  0  0  0  0
  -24.4310   -9.5680   21.9510 C   0  0  0  0  0  3  0  0  0  0  0  0
  -23.7100   -8.3700   22.1280 C   0  0  0  0  0  3  0  0  0  0  0  0
  -22.5490   -8.1190   21.3570 C   0  0  0  0  0  0  0  0  0  0  0  0
  -22.1460   -9.0630   20.3970 C   0  0  0  0  0  3  0  0  0  0  0  0
  -22.8690  -10.2530   20.2160 C   0  0  0  0  0  3  0  0  0  0  0  0
  -21.8000   -6.9710   21.4480 O   0  0  0  0  0  0  0  0  0  0  0  0
  -21.7400   -6.2430   22.6090 C   0  0  0  0  0  0  0  0  0  0  0  0
  -21.2830   -6.8070   23.8220 C   0  0  0  0  0  3  0  0  0  0  0  0
  -21.1710   -6.0020   24.9730 C   0  0  0  0  0  3  0  0  0  0  0  0
  -21.5000   -4.6360   24.9140 C   0  0  0  0  0  0  0  0  0  0  0  0
  -21.9480   -4.0720   23.7070 C   0  0  0  0  0  3  0  0  0  0  0  0
  -22.0650   -4.8750   22.5580 C   0  0  0  0  0  0  0  0  0  0  0  0
  -22.4780   -4.3210   21.3920 F   0  0  0  0  0  0  0  0  0  0  0  0
  -21.3860   -3.8600   26.0180 F   0  0  0  0  0  0  0  0  0  0  0  0
  -22.8510  -13.6070   21.0620 C   0  0  0  0  0  0  0  0  0  0  0  0
  -22.1080  -12.9170   21.9220 N   0  0  0  0  0  0  0  0  0  0  0  0
  -22.4150  -14.6230   20.5240 O   0  0  0  0  0  0  0  0  0  0  0  0
  -22.4610  -12.0940   22.3850 H   0  0  0  0  0  0  0  0  0  0  0  0
  -21.1690  -13.2290   22.1230 H   0  0  0  0  0  0  0  0  0  0  0  0
  -25.4800  -15.2850   20.2710 N   0  0  0  0  0  0  0  0  0  0  0  0
  -24.6950  -15.9220   20.3740 H   0  0  0  0  0  0  0  0  0  0  0  0
  -26.3230  -15.7440   19.9470 H   0  0  0  0  0  0  0  0  0  0  0  0
  -24.4690  -23.7340   19.2620 C   0  0  0  0  0  1  0  0  0  0  0  0
  -25.6340  -24.1120   19.9960 O   0  0  0  0  0  0  0  0  0  0  0  0
  -28.1080  -25.2050   21.0340 C   0  0  0  0  0  2  0  0  0  0  0  0
  -28.2610  -26.4210   20.1780 O   0  0  0  0  0  0  0  0  0  0  0  0
  -24.5850  -31.8860   23.2220 C   0  0  0  0  0  0  0  0  0  0  0  0
  -27.1980  -27.3340   20.1570 C   0  0  0  0  0  0  0  0  0  0  0  0
  -23.3890  -30.5050   21.5570 C   0  0  0  0  0  3  0  0  0  0  0  0
  -24.8530  -28.9680   20.1260 C   0  0  0  0  0  0  0  0  0  0  0  0
  -25.9310  -30.8160   21.3990 C   0  0  0  0  0  2  0  0  0  0  0  0
  -26.0160  -29.4380   20.7540 C   0  0  0  0  0  0  0  0  0  0  0  0
  -27.1950  -28.6300   20.7690 C   0  0  0  0  0  3  0  0  0  0  0  0
  -26.0410  -26.9550   19.4560 C   0  0  0  0  0  3  0  0  0  0  0  0
  -24.8690  -27.7320   19.4630 C   0  0  0  0  0  3  0  0  0  0  0  0
  -23.6160  -29.8420   20.1730 C   0  0  0  0  0  2  0  0  0  0  0  0
  -24.6530  -31.0890   22.1160 N   0  0  0  0  0  0  0  0  0  0  0  0
  -23.4970  -32.1550   23.7560 O   0  0  0  0  0  0  0  0  0  0  0  0
  -22.7250  -29.4780   22.5050 C   0  0  0  0  0  0  0  0  0  0  0  0
  -21.3980  -29.3060   22.3780 N   0  0  0  0  0  0  0  0  0  0  0  0
  -23.4020  -28.8380   23.3150 O   0  0  0  0  0  0  0  0  0  0  0  0
  -20.9150  -29.8770   21.6980 H   0  0  0  0  0  0  0  0  0  0  0  0
  -18.0110  -28.1270   22.8750 C   0  0  0  0  0  0  0  0  0  0  0  0
  -20.5720  -28.3650   23.1370 C   0  0  0  0  0  3  0  0  0  0  0  0
  -20.6610  -26.9400   22.5430 C   0  0  0  0  0  2  0  0  0  0  0  0
  -19.5520  -26.6390   21.5290 C   0  0  0  0  0  2  0  0  0  0  0  0
  -18.1730  -26.7860   22.1790 C   0  0  0  0  0  2  0  0  0  0  0  0
  -19.1370  -28.8750   23.3100 C   0  0  0  0  0  0  0  0  0  0  0  0
  -18.9290  -30.1290   23.9250 C   0  0  0  0  0  3  0  0  0  0  0  0
  -17.6290  -30.6350   24.1070 C   0  0  0  0  0  3  0  0  0  0  0  0
  -16.5170  -29.8840   23.6850 C   0  0  0  0  0  3  0  0  0  0  0  0
  -16.7090  -28.6320   23.0750 C   0  0  0  0  0  3  0  0  0  0  0  0
  -25.8630  -32.5120   23.8560 C   0  0  0  0  0  3  0  0  0  0  0  0
  -25.5570  -33.9120   24.1820 N   0  0  0  0  0  0  0  0  0  0  0  0
  -25.8930  -34.9640   23.4210 C   0  0  0  0  0  0  0  0  0  0  0  0
  -26.5610  -34.8570   22.3900 O   0  0  0  0  0  0  0  0  0  0  0  0
  -24.9820  -34.0730   24.9940 H   0  0  0  0  0  0  0  0  0  0  0  0
  -24.1730  -36.7660   23.0590 C   0  0  0  0  0  1  0  0  0  0  0  0
  -25.4090  -36.3560   23.8760 C   0  0  0  0  0  3  0  0  0  0  0  0
  -27.5410  -37.2370   24.7150 C   0  0  0  0  0  1  0  0  0  0  0  0
  -26.4470  -37.4050   23.7660 N   0  0  0  0  0  0  0  0  0  0  0  0
  -26.0410  -38.3270   23.9090 H   0  0  0  0  0  0  0  0  0  0  0  0
  -26.3600  -31.7410   25.1400 C   0  0  1  0  0  0  0  0  0  0  0  0
  -25.2520  -31.5120   26.1940 C   0  0  0  0  0  1  0  0  0  0  0  0
  -26.9390  -30.3580   24.7570 C   0  0  0  0  0  1  0  0  0  0  0  0
  -27.5060  -32.5350   25.8110 C   0  0  0  0  0  1  0  0  0  0  0  0
  1  4  1  0
  2  1  2  0
  2  6  1  0
  4  7  1  0
  4  3  2  0
  5  3  1  0
  5 50  1  0
  6 49  1  0
  6  5  2  0
  7  8  2  0
  7  9  1  0
 10  9  1  0
 10 11  2  0
 12 11  1  0
 13 18  1  0
 14 15  1  0
 14 13  1  0
 16 15  1  0
 16 23  1  0
 16 17  1  0
 18 12  1  0
 18 17  1  0
 19 12  2  0
 20 21  2  0
 21 40  1  0
 22 21  1  0
 22 25  1  0
 23 20  1  0
 23 24  1  0
 24 22  2  0
 25 26  1  0
 26 27  2  0
 28 31  1  0
 28 27  1  0
 29 28  2  0
 30 29  1  0
 30 25  2  0
 31 32  1  0
 32 33  1  0
 33 34  2  0
 35 34  1  0
 35 39  1  0
 36 35  2  0
 37 32  2  0
 37 36  1  0
 38 37  1  0
 40 41  1  0
 41 44  1  0
 41 43  1  0
 42 40  2  0
 45 46  1  0
 45 20  1  0
 47 45  1  0
 48 49  1  0
 51 50  1  0
 52 63  2  0
 53 51  1  0
 53 58  1  0
 54 62  1  0
 54 64  1  0
 55 61  1  0
 55 57  1  0
 56 62  1  0
 57 58  2  0
 57 56  1  0
 59 60  1  0
 59 53  2  0
 60 55  2  0
 61 54  1  0
 62 52  1  0
 64 66  2  0
 65 64  1  0
 67 65  1  0
 68 77  2  0
 68 73  1  0
 69 65  1  0
 69 73  1  0
 70 69  1  0
 71 72  1  0
 71 70  1  0
 72 68  1  0
 73 74  2  0
 74 75  1  0
 76 75  2  0
 77 76  1  0
 78 52  1  0
 78 79  1  0
 78 88  1  0
 79 82  1  0
 80 84  1  0
 80 79  1  0
 81 80  2  0
 84 83  1  0
 86 84  1  0
 86 87  1  0
 86 85  1  0
 88 91  1  1
 88 89  1  0
 90 88  1  0
M  ISO  4  11 100  12 100  50 101  51 101
M  END
>  <TORSDO>  (29) 
F 22

>  <SCORE>  (29) 
-13.037

>  <name>  (29) 
28

>  <ligand_id>  (29) 
28

>  <original_smiles>  (29) 
[H]c1c([H])c([H])c2c(c1[H])C([H])([H])C([H])([H])C([H])([H])C2([H])N([H])C(=O)C1([H])N(C(=O)C([H])(N([H])C(=O)C([H])(N([H])C([H])([H])[H])C([H])([H])[H])C(C([H])([H])[H])(C([H])([H])[H])C([H])([H])[H])C([H])([H])c2c([H])c(OC([H])([H])c3c([H])c(C(=O)C([H])([H])C([H])([H])C([H])([H])C(=O)N4C([H])([H])C([H])([H])C([H])([H])C([H])(n5nc(-c6c([H])c([H])c(Oc7c([H])c([H])c(F)c([H])c7F)c([H])c6[H])c(C(=O)N([H])[H])c5N([H])[H])C4([H])[H])c([H])c([H])c3OC([H])([H])[H])c([H])c([H])c2C1([H])[H]

>  <smiles>  (29) 
[H]c1c([H])c([H])c2c(c1[H])C([H])([H])C([H])([H])C([H])([H])C2([H])N([H])C(=O)C1([H])N(C(=O)C([H])(N([H])C(=O)C([H])(N([H])C([H])([H])[H])C([H])([H])[H])C(C([H])([H])[H])(C([H])([H])[H])C([H])([H])[H])C([H])([H])c2c([H])c(OC([H])([H])c3c([H])c(C(=O)C([H])([H])C([H])([H])C([H])([H])C(=O)N4C([H])([H])C([H])([H])C([H])([H])C([H])(n5nc(-c6c([H])c([H])c(Oc7c([H])c([H])c(F)c([H])c7F)c([H])c6[H])c(C(=O)N([H])[H])c5N([H])[H])C4([H])[H])c([H])c([H])c3OC([H])([H])[H])c([H])c([H])c2C1([H])[H]

$$$$
29:0:0
     RDKit          3D

 91 99  0  0  1  0  0  0  0  0999 V2000
  -27.0930  -22.3450   21.4270 C   0  0  0  0  0  3  0  0  0  0  0  0
  -26.0190  -22.8140   22.1840 C   0  0  0  0  0  3  0  0  0  0  0  0
  -26.5360  -25.0370   21.4730 C   0  0  0  0  0  3  0  0  0  0  0  0
  -28.0080  -23.1320   20.6630 C   0  0  0  0  0  0  0  0  0  0  0  0
  -25.7650  -24.1800   22.2580 C   0  0  0  0  0  0  0  0  0  0  0  0
  -27.5810  -24.6870   20.5620 C   0  0  0  0  0  0  0  0  0  0  0  0
  -29.1610  -21.9100   20.2570 C   0  0  0  0  0  0  0  0  0  0  0  0
  -30.1940  -22.2790   19.6920 O   0  0  0  0  0  0  0  0  0  0  0  0
  -29.0800  -20.1480   20.5500 C   0  0  0  0  0  3  0  0  0  0  0  0
  -30.1080  -18.6890   20.1870 C   0  0  0  0  0  3  0  0  0  0  0  0
  -30.6410  -15.7540   20.1330 C   0  0  0  0  0  0  0  0  0  0  0  0
  -30.6170  -13.3400   19.1580 C   0  0  0  0  0  2  0  0  0  0  0  0
  -29.6560  -13.1610   17.9540 C   0  0  0  0  0  2  0  0  0  0  0  0
  -28.2300  -12.8470   18.4350 C   0  0  0  0  0  2  0  0  0  0  0  0
  -27.8070  -13.7540   19.6180 C   0  0  0  0  0  3  0  0  0  0  0  0
  -28.8940  -13.8790   20.7070 C   0  0  0  0  0  2  0  0  0  0  0  0
  -30.0890  -14.4390   20.0520 N   0  0  0  0  0  0  0  0  0  0  0  0
  -31.8450  -15.7740   19.8360 O   0  0  0  0  0  0  0  0  0  0  0  0
  -29.8800  -17.0220   20.3420 N   0  0  0  0  0  0  0  0  0  0  0  0
  -28.9210  -16.8040   20.5720 H   0  0  0  0  0  0  0  0  0  0  0  0
  -25.4600  -14.2370   20.4840 C   0  0  0  0  0  0  0  0  0  0  0  0
  -24.4250  -13.4260   20.8570 C   0  0  0  0  0  0  0  0  0  0  0  0
  -24.9100  -12.0870   20.7470 C   0  0  0  0  0  0  0  0  0  0  0  0
  -26.5060  -13.3910   20.1620 N   0  0  0  0  0  0  0  0  0  0  0  0
  -26.1900  -12.0880   20.3870 N   0  0  0  0  0  0  0  0  0  0  0  0
  -24.2070  -10.8050   20.9040 C   0  0  0  0  0  0  0  0  0  0  0  0
  -24.6480   -9.8280   21.8230 C   0  0  0  0  0  3  0  0  0  0  0  0
  -23.9410   -8.6140   21.9720 C   0  0  0  0  0  3  0  0  0  0  0  0
  -22.7810   -8.3690   21.2000 C   0  0  0  0  0  0  0  0  0  0  0  0
  -22.3610   -9.3360   20.2680 C   0  0  0  0  0  3  0  0  0  0  0  0
  -23.0680  -10.5400   20.1180 C   0  0  0  0  0  3  0  0  0  0  0  0
  -22.0470   -7.2090   21.2580 O   0  0  0  0  0  0  0  0  0  0  0  0
  -21.9180   -6.4970   22.4240 C   0  0  0  0  0  0  0  0  0  0  0  0
  -21.3770   -7.0730   23.5930 C   0  0  0  0  0  3  0  0  0  0  0  0
  -21.1990   -6.2850   24.7480 C   0  0  0  0  0  3  0  0  0  0  0  0
  -21.5510   -4.9230   24.7330 C   0  0  0  0  0  0  0  0  0  0  0  0
  -22.0850   -4.3460   23.5670 C   0  0  0  0  0  3  0  0  0  0  0  0
  -22.2640   -5.1310   22.4150 C   0  0  0  0  0  0  0  0  0  0  0  0
  -22.7590   -4.5650   21.2880 F   0  0  0  0  0  0  0  0  0  0  0  0
  -21.3730   -4.1630   25.8390 F   0  0  0  0  0  0  0  0  0  0  0  0
  -23.0320  -13.8680   21.1960 C   0  0  0  0  0  0  0  0  0  0  0  0
  -22.3520  -13.1380   22.0720 N   0  0  0  0  0  0  0  0  0  0  0  0
  -22.5560  -14.8980   20.7180 O   0  0  0  0  0  0  0  0  0  0  0  0
  -22.7530  -12.3050   22.4790 H   0  0  0  0  0  0  0  0  0  0  0  0
  -21.4190  -13.4150   22.3400 H   0  0  0  0  0  0  0  0  0  0  0  0
  -25.5930  -15.6160   20.3610 N   0  0  0  0  0  0  0  0  0  0  0  0
  -24.8130  -16.2450   20.5190 H   0  0  0  0  0  0  0  0  0  0  0  0
  -26.4030  -16.0830   19.9730 H   0  0  0  0  0  0  0  0  0  0  0  0
  -23.8290  -23.8890   23.6550 C   0  0  0  0  0  1  0  0  0  0  0  0
  -24.7820  -24.7490   23.0400 O   0  0  0  0  0  0  0  0  0  0  0  0
  -27.8800  -26.0470   19.8950 O   0  0  0  0  0  0  0  0  0  0  0  0
  -24.6570  -32.0840   23.2010 C   0  0  0  0  0  0  0  0  0  0  0  0
  -26.9770  -27.2550   19.9070 C   0  0  0  0  0  0  0  0  0  0  0  0
  -23.3800  -30.8000   21.5360 C   0  0  0  0  0  3  0  0  0  0  0  0
  -24.7450  -29.2200   20.0020 C   0  0  0  0  0  0  0  0  0  0  0  0
  -25.9490  -30.9320   21.3360 C   0  0  0  0  0  2  0  0  0  0  0  0
  -25.9600  -29.5510   20.6180 C   0  0  0  0  0  0  0  0  0  0  0  0
  -27.0710  -28.5880   20.5550 C   0  0  0  0  0  3  0  0  0  0  0  0
  -25.7430  -27.0980   19.2360 C   0  0  0  0  0  3  0  0  0  0  0  0
  -24.6620  -28.0140   19.2910 C   0  0  0  0  0  3  0  0  0  0  0  0
  -23.5560  -30.1750   20.1240 C   0  0  0  0  0  2  0  0  0  0  0  0
  -24.6860  -31.2970   22.0770 N   0  0  0  0  0  0  0  0  0  0  0  0
  -23.5900  -32.3840   23.7620 O   0  0  0  0  0  0  0  0  0  0  0  0
  -22.6770  -29.7840   22.4740 C   0  0  0  0  0  0  0  0  0  0  0  0
  -21.3450  -29.6340   22.3470 N   0  0  0  0  0  0  0  0  0  0  0  0
  -23.3380  -29.1330   23.2860 O   0  0  0  0  0  0  0  0  0  0  0  0
  -20.8650  -30.2100   21.6700 H   0  0  0  0  0  0  0  0  0  0  0  0
  -17.9460  -28.4790   22.8770 C   0  0  0  0  0  0  0  0  0  0  0  0
  -20.5170  -28.6830   23.0950 C   0  0  0  0  0  3  0  0  0  0  0  0
  -20.5750  -27.2730   22.4600 C   0  0  0  0  0  2  0  0  0  0  0  0
  -19.4450  -27.0170   21.4560 C   0  0  0  0  0  2  0  0  0  0  0  0
  -18.0800  -27.1590   22.1360 C   0  0  0  0  0  2  0  0  0  0  0  0
  -19.0890  -29.2020   23.3140 C   0  0  0  0  0  0  0  0  0  0  0  0
  -18.9050  -30.4360   23.9720 C   0  0  0  0  0  3  0  0  0  0  0  0
  -17.6130  -30.9500   24.1940 C   0  0  0  0  0  3  0  0  0  0  0  0
  -16.4860  -30.2260   23.7700 C   0  0  0  0  0  3  0  0  0  0  0  0
  -16.6530  -28.9910   23.1190 C   0  0  0  0  0  3  0  0  0  0  0  0
  -25.9620  -32.6600   23.8270 C   0  0  0  0  0  3  0  0  0  0  0  0
  -26.4820  -31.8170   25.0570 C   0  0  1  0  0  0  0  0  0  0  0  0
  -25.4050  -31.5610   26.1370 C   0  0  0  0  0  1  0  0  0  0  0  0
  -27.0190  -30.4420   24.5990 C   0  0  0  0  0  1  0  0  0  0  0  0
  -27.6680  -32.5490   25.7290 C   0  0  0  0  0  1  0  0  0  0  0  0
  -25.6920  -34.0480   24.2440 N   0  0  0  0  0  0  0  0  0  0  0  0
  -26.0320  -35.1410   23.5480 C   0  0  0  0  0  0  0  0  0  0  0  0
  -26.6690  -35.0840   22.4920 O   0  0  0  0  0  0  0  0  0  0  0  0
  -25.1230  -34.1660   25.0700 H   0  0  0  0  0  0  0  0  0  0  0  0
  -24.3390  -36.9970   23.3760 C   0  0  0  0  0  1  0  0  0  0  0  0
  -25.6010  -36.5120   24.1070 C   0  0  0  0  0  3  0  0  0  0  0  0
  -27.7890  -37.3010   24.8990 C   0  0  0  0  0  1  0  0  0  0  0  0
  -26.6560  -37.5470   24.0110 N   0  0  0  0  0  0  0  0  0  0  0  0
  -26.2780  -38.4660   24.2250 H   0  0  0  0  0  0  0  0  0  0  0  0
  1  2  1  0
  2  5  2  0
  3  5  1  0
  4  1  2  0
  5 50  1  0
  6  4  1  0
  6  3  2  0
  7  9  1  0
  7  4  1  0
  8  7  2  0
 10 19  1  0
 10  9  2  0
 11 19  1  0
 12 17  1  0
 13 14  1  0
 13 12  1  0
 15 14  1  0
 15 24  1  0
 15 16  1  0
 17 11  1  0
 17 16  1  0
 18 11  2  0
 19 20  1  0
 21 22  2  0
 22 41  1  0
 23 22  1  0
 23 26  1  0
 24 25  1  0
 24 21  1  0
 25 23  2  0
 26 27  1  0
 27 28  2  0
 29 32  1  0
 29 28  1  0
 30 29  2  0
 31 30  1  0
 31 26  2  0
 32 33  1  0
 33 34  1  0
 34 35  2  0
 36 35  1  0
 36 40  1  0
 37 36  2  0
 38 33  2  0
 38 37  1  0
 39 38  1  0
 41 42  1  0
 42 45  1  0
 42 44  1  0
 43 41  2  0
 46 21  1  0
 46 47  1  0
 48 46  1  0
 50 49  1  0
 51 53  1  0
 51  6  1  0
 52 63  2  0
 53 58  1  0
 54 62  1  0
 54 64  1  0
 55 61  1  0
 55 57  1  0
 56 62  1  0
 57 56  1  0
 58 57  2  0
 59 60  1  0
 59 53  2  0
 60 55  2  0
 61 54  1  0
 62 52  1  0
 64 66  2  0
 65 64  1  0
 67 65  1  0
 68 77  2  0
 68 73  1  0
 69 65  1  0
 69 73  1  0
 70 69  1  0
 71 72  1  0
 71 70  1  0
 72 68  1  0
 73 74  2  0
 74 75  1  0
 76 75  2  0
 77 76  1  0
 78 52  1  0
 78 83  1  0
 78 79  1  0
 79 82  1  1
 79 80  1  0
 81 79  1  0
 83 86  1  0
 84 88  1  0
 84 83  1  0
 85 84  2  0
 88 87  1  0
 90 88  1  0
 90 91  1  0
 90 89  1  0
M  ISO  4   6 101  11 100  19 100  51 101
M  END
>  <TORSDO>  (30) 
F 20

>  <SCORE>  (30) 
-13.173

>  <name>  (30) 
29

>  <ligand_id>  (30) 
29

>  <original_smiles>  (30) 
[H]c1c([H])c([H])c2c(c1[H])C([H])([H])C([H])([H])C([H])([H])C2([H])N([H])C(=O)C1([H])N(C(=O)C([H])(N([H])C(=O)C([H])(N([H])C([H])([H])[H])C([H])([H])[H])C(C([H])([H])[H])(C([H])([H])[H])C([H])([H])[H])C([H])([H])c2c([H])c(Oc3c([H])c(OC([H])([H])[H])c([H])c([H])c3C(=O)C([H])([H])C([H])([H])N([H])C(=O)N3C([H])([H])C([H])([H])C([H])([H])C([H])(n4nc(-c5c([H])c([H])c(Oc6c([H])c([H])c(F)c([H])c6F)c([H])c5[H])c(C(=O)N([H])[H])c4N([H])[H])C3([H])[H])c([H])c([H])c2C1([H])[H]

>  <smiles>  (30) 
[H]c1c([H])c([H])c2c(c1[H])C([H])([H])C([H])([H])C([H])([H])C2([H])N([H])C(=O)C1([H])N(C(=O)C([H])(N([H])C(=O)C([H])(N([H])C([H])([H])[H])C([H])([H])[H])C(C([H])([H])[H])(C([H])([H])[H])C([H])([H])[H])C([H])([H])c2c([H])c(Oc3c([H])c(OC([H])([H])[H])c([H])c([H])c3C(=O)C([H])([H])C([H])([H])N([H])C(=O)N3C([H])([H])C([H])([H])C([H])([H])C([H])(n4nc(-c5c([H])c([H])c(Oc6c([H])c([H])c(F)c([H])c6F)c([H])c5[H])c(C(=O)N([H])[H])c4N([H])[H])C3([H])[H])c([H])c([H])c2C1([H])[H]

$$$$
30:0:0
     RDKit          3D

 91 99  0  0  1  0  0  0  0  0999 V2000
  -30.5210  -22.1390   21.0550 C   0  0  0  0  0  3  0  0  0  0  0  0
  -31.4340  -21.0870   21.2890 C   0  0  0  0  0  3  0  0  0  0  0  0
  -28.9680  -20.4480   20.2620 C   0  0  0  0  0  3  0  0  0  0  0  0
  -29.2350  -21.9110   20.5220 C   0  0  0  0  0  0  0  0  0  0  0  0
  -29.9070  -19.2890   20.4800 C   0  0  0  0  0  0  0  0  0  0  0  0
  -31.1640  -19.7260   21.0020 C   0  0  0  0  0  0  0  0  0  0  0  0
  -32.3240  -18.7530   21.2060 C   0  0  0  0  0  1  0  0  0  0  0  0
  -29.9860  -16.4590   20.7290 C   0  0  0  0  0  2  0  0  0  0  0  0
  -29.8910  -17.7130   20.0340 C   0  0  0  0  0  3  0  0  0  0  0  0
  -30.5320  -15.0580   20.2550 C   0  0  0  0  0  0  0  0  0  0  0  0
  -30.3240  -12.6780   19.3750 C   0  0  0  0  0  2  0  0  0  0  0  0
  -29.4010  -12.6170   18.1350 C   0  0  0  0  0  2  0  0  0  0  0  0
  -27.9440  -12.4000   18.5680 C   0  0  0  0  0  2  0  0  0  0  0  0
  -27.5360  -13.3340   19.7380 C   0  0  0  0  0  3  0  0  0  0  0  0
  -28.5970  -13.4120   20.8620 C   0  0  0  0  0  2  0  0  0  0  0  0
  -29.8730  -13.8120   20.2530 N   0  0  0  0  0  0  0  0  0  0  0  0
  -31.6920  -15.0030   19.8370 O   0  0  0  0  0  0  0  0  0  0  0  0
  -25.1620  -13.8840   20.5040 C   0  0  0  0  0  0  0  0  0  0  0  0
  -24.1050  -13.1010   20.8790 C   0  0  0  0  0  0  0  0  0  0  0  0
  -24.5790  -11.7540   20.8470 C   0  0  0  0  0  0  0  0  0  0  0  0
  -26.2090  -13.0160   20.2520 N   0  0  0  0  0  0  0  0  0  0  0  0
  -25.8690  -11.7280   20.5270 N   0  0  0  0  0  0  0  0  0  0  0  0
  -23.8610  -10.4860   21.0410 C   0  0  0  0  0  0  0  0  0  0  0  0
  -24.3090   -9.5150   21.9630 C   0  0  0  0  0  3  0  0  0  0  0  0
  -23.5860   -8.3170   22.1500 C   0  0  0  0  0  3  0  0  0  0  0  0
  -22.3990   -8.0790   21.4130 C   0  0  0  0  0  0  0  0  0  0  0  0
  -21.9700   -9.0410   20.4830 C   0  0  0  0  0  3  0  0  0  0  0  0
  -22.6920  -10.2310   20.2940 C   0  0  0  0  0  3  0  0  0  0  0  0
  -21.6430   -6.9340   21.5100 O   0  0  0  0  0  0  0  0  0  0  0  0
  -21.6260   -6.1800   22.6560 C   0  0  0  0  0  0  0  0  0  0  0  0
  -21.2420   -6.7220   23.9030 C   0  0  0  0  0  3  0  0  0  0  0  0
  -21.1690   -5.8940   25.0400 C   0  0  0  0  0  3  0  0  0  0  0  0
  -21.4690   -4.5210   24.9320 C   0  0  0  0  0  0  0  0  0  0  0  0
  -21.8480   -3.9790   23.6920 C   0  0  0  0  0  3  0  0  0  0  0  0
  -21.9230   -4.8060   22.5580 C   0  0  0  0  0  0  0  0  0  0  0  0
  -22.2650   -4.2720   21.3610 F   0  0  0  0  0  0  0  0  0  0  0  0
  -21.3970   -3.7240   26.0230 F   0  0  0  0  0  0  0  0  0  0  0  0
  -22.7080  -13.5700   21.1580 C   0  0  0  0  0  0  0  0  0  0  0  0
  -21.9910  -12.8760   22.0330 N   0  0  0  0  0  0  0  0  0  0  0  0
  -22.2650  -14.5920   20.6370 O   0  0  0  0  0  0  0  0  0  0  0  0
  -22.3670  -12.0520   22.4800 H   0  0  0  0  0  0  0  0  0  0  0  0
  -21.0540  -13.1740   22.2610 H   0  0  0  0  0  0  0  0  0  0  0  0
  -25.3200  -15.2550   20.3320 N   0  0  0  0  0  0  0  0  0  0  0  0
  -24.5660  -15.9200   20.4590 H   0  0  0  0  0  0  0  0  0  0  0  0
  -26.1870  -15.6910   20.0390 H   0  0  0  0  0  0  0  0  0  0  0  0
  -29.9790  -17.6630   18.6980 O   0  0  0  0  0  0  0  0  0  0  0  0
  -29.8480  -18.5460   18.3700 H   0  0  0  0  0  0  0  0  0  0  0  0
  -28.2550  -23.2340   20.5440 C   0  0  0  0  0  0  0  0  0  0  0  0
  -27.2290  -23.1330   21.2220 O   0  0  0  0  0  0  0  0  0  0  0  0
  -28.4060  -24.7090   19.7480 C   0  0  0  0  0  2  0  0  0  0  0  0
  -28.2590  -26.1540   20.3780 O   0  0  0  0  0  0  0  0  0  0  0  0
  -24.6390  -31.9060   23.2320 C   0  0  0  0  0  0  0  0  0  0  0  0
  -27.1980  -27.1350   20.2280 C   0  0  0  0  0  0  0  0  0  0  0  0
  -23.4290  -30.5000   21.6060 C   0  0  0  0  0  3  0  0  0  0  0  0
  -24.8690  -28.9050   20.1790 C   0  0  0  0  0  0  0  0  0  0  0  0
  -25.9790  -30.7550   21.4240 C   0  0  0  0  0  2  0  0  0  0  0  0
  -26.0490  -29.3510   20.7850 C   0  0  0  0  0  0  0  0  0  0  0  0
  -27.2060  -28.4790   20.7980 C   0  0  0  0  0  3  0  0  0  0  0  0
  -25.9940  -26.8000   19.5700 C   0  0  0  0  0  3  0  0  0  0  0  0
  -24.8570  -27.6460   19.5540 C   0  0  0  0  0  3  0  0  0  0  0  0
  -23.6410  -29.8090   20.2300 C   0  0  0  0  0  2  0  0  0  0  0  0
  -24.7020  -31.0770   22.1430 N   0  0  0  0  0  0  0  0  0  0  0  0
  -23.5560  -32.1960   23.7650 O   0  0  0  0  0  0  0  0  0  0  0  0
  -22.7510  -29.5060   22.5840 C   0  0  0  0  0  0  0  0  0  0  0  0
  -21.4230  -29.3330   22.4660 N   0  0  0  0  0  0  0  0  0  0  0  0
  -23.4260  -28.8880   23.4120 O   0  0  0  0  0  0  0  0  0  0  0  0
  -20.9320  -29.8790   21.7710 H   0  0  0  0  0  0  0  0  0  0  0  0
  -18.0480  -28.1140   22.9790 C   0  0  0  0  0  0  0  0  0  0  0  0
  -20.6050  -28.4020   23.2500 C   0  0  0  0  0  3  0  0  0  0  0  0
  -20.7200  -26.9620   22.6960 C   0  0  0  0  0  2  0  0  0  0  0  0
  -19.6240  -26.6150   21.6850 C   0  0  0  0  0  2  0  0  0  0  0  0
  -18.2390  -26.7570   22.3230 C   0  0  0  0  0  2  0  0  0  0  0  0
  -19.1600  -28.8920   23.4000 C   0  0  0  0  0  0  0  0  0  0  0  0
  -18.9280  -30.1600   23.9760 C   0  0  0  0  0  3  0  0  0  0  0  0
  -17.6180  -30.6530   24.1300 C   0  0  0  0  0  3  0  0  0  0  0  0
  -16.5210  -29.8720   23.7210 C   0  0  0  0  0  3  0  0  0  0  0  0
  -16.7380  -28.6040   23.1540 C   0  0  0  0  0  3  0  0  0  0  0  0
  -25.9200  -32.5460   23.8460 C   0  0  0  0  0  3  0  0  0  0  0  0
  -26.4420  -31.7800   25.1240 C   0  0  1  0  0  0  0  0  0  0  0  0
  -25.3560  -31.5540   26.2010 C   0  0  0  0  0  1  0  0  0  0  0  0
  -27.0150  -30.3980   24.7380 C   0  0  0  0  0  1  0  0  0  0  0  0
  -27.6020  -32.5710   25.7750 C   0  0  0  0  0  1  0  0  0  0  0  0
  -25.6080  -33.9470   24.1810 N   0  0  0  0  0  0  0  0  0  0  0  0
  -25.9310  -35.0060   23.4260 C   0  0  0  0  0  0  0  0  0  0  0  0
  -26.5870  -34.9070   22.3870 O   0  0  0  0  0  0  0  0  0  0  0  0
  -25.0180  -34.0940   24.9870 H   0  0  0  0  0  0  0  0  0  0  0  0
  -24.1950  -36.8000   23.1080 C   0  0  0  0  0  1  0  0  0  0  0  0
  -25.4490  -36.3940   23.8970 C   0  0  0  0  0  3  0  0  0  0  0  0
  -27.5990  -37.2800   24.6880 C   0  0  0  0  0  1  0  0  0  0  0  0
  -26.4770  -37.4480   23.7700 N   0  0  0  0  0  0  0  0  0  0  0  0
  -26.0730  -38.3670   23.9300 H   0  0  0  0  0  0  0  0  0  0  0  0
  1  2  1  0
  3  5  2  0
  3  4  1  0
  4 48  1  0
  4  1  2  0
  5  6  1  0
  6  7  1  0
  6  2  2  0
  9  5  1  0
  9  8  1  0
 10  8  1  0
 11 16  1  0
 12 13  1  0
 12 11  1  0
 14 13  1  0
 14 21  1  0
 14 15  1  0
 16 10  1  0
 16 15  1  0
 17 10  2  0
 18 19  2  0
 19 38  1  0
 20 19  1  0
 20 23  1  0
 21 18  1  0
 21 22  1  0
 22 20  2  0
 23 24  1  0
 24 25  2  0
 26 29  1  0
 26 25  1  0
 27 26  2  0
 28 27  1  0
 28 23  2  0
 29 30  1  0
 30 31  1  0
 31 32  2  0
 33 32  1  0
 33 37  1  0
 34 33  2  0
 35 30  2  0
 35 34  1  0
 36 35  1  0
 38 39  1  0
 39 42  1  0
 39 41  1  0
 40 38  2  0
 43 44  1  0
 43 18  1  0
 45 43  1  0
 46  9  1  0
 47 46  1  0
 48 49  2  0
 50 51  1  0
 50 48  1  0
 52 63  2  0
 53 51  1  0
 53 58  1  0
 54 62  1  0
 54 64  1  0
 55 61  1  0
 55 57  1  0
 56 62  1  0
 57 58  2  0
 57 56  1  0
 59 53  2  0
 60 59  1  0
 60 55  2  0
 61 54  1  0
 62 52  1  0
 64 66  2  0
 65 64  1  0
 67 65  1  0
 68 77  2  0
 68 73  1  0
 69 65  1  0
 69 73  1  0
 70 69  1  0
 71 72  1  0
 71 70  1  0
 72 68  1  0
 73 74  2  0
 74 75  1  0
 76 75  2  0
 77 76  1  0
 78 52  1  0
 78 83  1  0
 78 79  1  0
 79 82  1  1
 79 80  1  0
 81 79  1  0
 83 86  1  0
 84 88  1  0
 84 83  1  0
 85 84  2  0
 88 87  1  0
 90 88  1  0
 90 91  1  0
 90 89  1  0
M  ISO  4   8 100  10 100  50 101  51 101
M  END
>  <TORSDO>  (31) 
F 20

>  <SCORE>  (31) 
-14.327

>  <name>  (31) 
30

>  <ligand_id>  (31) 
30

>  <original_smiles>  (31) 
[H]OC(=C([H])C(=O)N1C([H])([H])C([H])([H])C([H])([H])C([H])(n2nc(-c3c([H])c([H])c(Oc4c([H])c([H])c(F)c([H])c4F)c([H])c3[H])c(C(=O)N([H])[H])c2N([H])[H])C1([H])[H])c1c([H])c(C(=O)C([H])([H])Oc2c([H])c([H])c3c(c2[H])C([H])([H])N(C(=O)C([H])(N([H])C(=O)C([H])(N([H])C([H])([H])[H])C([H])([H])[H])C(C([H])([H])[H])(C([H])([H])[H])C([H])([H])[H])C([H])(C(=O)N([H])C2([H])c4c([H])c([H])c([H])c([H])c4C([H])([H])C([H])([H])C2([H])[H])C3([H])[H])c([H])c([H])c1C([H])([H])[H]

>  <smiles>  (31) 
[H]OC(=C([H])C(=O)N1C([H])([H])C([H])([H])C([H])([H])C([H])(n2nc(-c3c([H])c([H])c(Oc4c([H])c([H])c(F)c([H])c4F)c([H])c3[H])c(C(=O)N([H])[H])c2N([H])[H])C1([H])[H])c1c([H])c(C(=O)C([H])([H])Oc2c([H])c([H])c3c(c2[H])C([H])([H])N(C(=O)C([H])(N([H])C(=O)C([H])(N([H])C([H])([H])[H])C([H])([H])[H])C(C([H])([H])[H])(C([H])([H])[H])C([H])([H])[H])C([H])(C(=O)N([H])C2([H])c4c([H])c([H])c([H])c([H])c4C([H])([H])C([H])([H])C2([H])[H])C3([H])[H])c([H])c([H])c1C([H])([H])[H]

$$$$
31:0:0
     RDKit          3D

 88 94  0  0  1  0  0  0  0  0999 V2000
  -27.9180  -20.7250   20.1590 C   0  0  0  0  0  3  0  0  0  0  0  0
  -27.6040  -22.2710   20.1870 C   0  0  0  0  0  3  0  0  0  0  0  0
  -29.6900  -22.6470   19.9350 C   0  0  0  0  0  3  0  0  0  0  0  0
  -29.1610  -19.8340   20.0150 C   0  0  0  0  0  3  0  0  0  0  0  0
  -28.4430  -23.5390   20.0770 C   0  0  0  0  0  0  0  0  0  0  0  0
  -30.0180  -21.0970   19.9110 C   0  0  0  0  0  0  0  0  0  0  0  0
  -27.9450  -17.4850   19.5030 C   0  0  0  0  0  1  0  0  0  0  0  0
  -29.2060  -17.7020   21.6660 C   0  0  0  0  0  1  0  0  0  0  0  0
  -29.3070  -17.8340   20.1330 C   0  0  0  0  0  2  0  0  0  0  0  0
  -30.2330  -16.0820   19.7650 C   0  0  0  0  0  2  0  0  0  0  0  0
  -30.4280  -13.4600   18.8890 C   0  0  0  0  0  2  0  0  0  0  0  0
  -29.4610  -12.9350   17.7720 C   0  0  0  0  0  2  0  0  0  0  0  0
  -28.1200  -12.4690   18.3560 C   0  0  0  0  0  2  0  0  0  0  0  0
  -27.6500  -13.4520   19.4430 C   0  0  0  0  0  3  0  0  0  0  0  0
  -28.7550  -13.8680   20.4520 C   0  0  0  0  0  2  0  0  0  0  0  0
  -29.8200  -14.6270   19.7230 N   0  0  0  0  0  0  0  0  0  0  0  0
  -31.4400  -16.0160   19.4310 O   0  0  0  0  0  1  0  0  0  0  0  0
  -25.3920  -13.9130   20.4980 C   0  0  0  0  0  0  0  0  0  0  0  0
  -24.3750  -13.1100   20.9240 C   0  0  0  0  0  0  0  0  0  0  0  0
  -24.8330  -11.7660   20.7570 C   0  0  0  0  0  0  0  0  0  0  0  0
  -26.4010  -13.0630   20.0850 N   0  0  0  0  0  0  0  0  0  0  0  0
  -26.0860  -11.7580   20.3040 N   0  0  0  0  0  0  0  0  0  0  0  0
  -24.1200  -10.4960   20.9450 C   0  0  0  0  0  0  0  0  0  0  0  0
  -24.5790   -9.5140   21.8520 C   0  0  0  0  0  3  0  0  0  0  0  0
  -23.8600   -8.3140   22.0330 C   0  0  0  0  0  3  0  0  0  0  0  0
  -22.6650   -8.0850   21.3090 C   0  0  0  0  0  0  0  0  0  0  0  0
  -22.2230   -9.0550   20.3930 C   0  0  0  0  0  3  0  0  0  0  0  0
  -22.9440  -10.2470   20.2080 C   0  0  0  0  0  3  0  0  0  0  0  0
  -21.9160   -6.9370   21.4010 O   0  0  0  0  0  0  0  0  0  0  0  0
  -21.8160   -6.2330   22.5750 C   0  0  0  0  0  0  0  0  0  0  0  0
  -21.3100   -6.8200   23.7560 C   0  0  0  0  0  3  0  0  0  0  0  0
  -21.1610   -6.0410   24.9200 C   0  0  0  0  0  3  0  0  0  0  0  0
  -21.5080   -4.6770   24.9060 C   0  0  0  0  0  0  0  0  0  0  0  0
  -22.0070   -4.0900   23.7300 C   0  0  0  0  0  3  0  0  0  0  0  0
  -22.1580   -4.8660   22.5670 C   0  0  0  0  0  0  0  0  0  0  0  0
  -22.6180   -4.2890   21.4310 F   0  0  0  0  0  0  0  0  0  0  0  0
  -21.3580   -3.9260   26.0220 F   0  0  0  0  0  0  0  0  0  0  0  0
  -23.0160  -13.5700   21.3640 C   0  0  0  0  0  0  0  0  0  0  0  0
  -22.3830  -12.8310   22.2660 N   0  0  0  0  0  0  0  0  0  0  0  0
  -22.5330  -14.6220   20.9450 O   0  0  0  0  0  0  0  0  0  0  0  0
  -22.7930  -11.9830   22.6260 H   0  0  0  0  0  0  0  0  0  0  0  0
  -21.4750  -13.1190   22.6020 H   0  0  0  0  0  0  0  0  0  0  0  0
  -25.5330  -15.2920   20.3960 N   0  0  0  0  0  0  0  0  0  0  0  0
  -24.7830  -15.9260   20.6470 H   0  0  0  0  0  0  0  0  0  0  0  0
  -26.3450  -15.7640   20.0220 H   0  0  0  0  0  0  0  0  0  0  0  0
  -31.3500  -20.8310   19.7950 O   0  0  0  0  0  0  0  0  0  0  0  0
  -31.5430  -19.8980   19.8390 H   0  0  0  0  0  0  0  0  0  0  0  0
  -28.2720  -25.2430   20.1150 O   0  0  0  0  0  0  0  0  0  0  0  0
  -24.7030  -31.7700   23.0850 C   0  0  0  0  0  0  0  0  0  0  0  0
  -27.2680  -26.5200   20.1110 C   0  0  0  0  0  0  0  0  0  0  0  0
  -23.5380  -30.3640   21.4410 C   0  0  0  0  0  3  0  0  0  0  0  0
  -25.0030  -28.6830   20.0430 C   0  0  0  0  0  0  0  0  0  0  0  0
  -26.1250  -30.4570   21.3570 C   0  0  0  0  0  2  0  0  0  0  0  0
  -26.1970  -29.0010   20.7010 C   0  0  0  0  0  0  0  0  0  0  0  0
  -27.2980  -27.9540   20.6960 C   0  0  0  0  0  3  0  0  0  0  0  0
  -26.0370  -26.4760   19.3890 C   0  0  0  0  0  3  0  0  0  0  0  0
  -24.9750  -27.4500   19.3630 C   0  0  0  0  0  3  0  0  0  0  0  0
  -23.7990  -29.6540   20.0780 C   0  0  0  0  0  2  0  0  0  0  0  0
  -24.8150  -30.9030   22.0120 N   0  0  0  0  0  0  0  0  0  0  0  0
  -23.6010  -32.0730   23.5800 O   0  0  0  0  0  0  0  0  0  0  0  0
  -22.8020  -29.4000   22.4120 C   0  0  0  0  0  0  0  0  0  0  0  0
  -21.4720  -29.2400   22.2730 N   0  0  0  0  0  0  0  0  0  0  0  0
  -23.4470  -28.7900   23.2680 O   0  0  0  0  0  0  0  0  0  0  0  0
  -20.9970  -29.7810   21.5630 H   0  0  0  0  0  0  0  0  0  0  0  0
  -18.0950  -27.9640   22.7390 C   0  0  0  0  0  0  0  0  0  0  0  0
  -20.6450  -28.2960   23.0390 C   0  0  0  0  0  3  0  0  0  0  0  0
  -20.7850  -26.8580   22.4830 C   0  0  0  0  0  2  0  0  0  0  0  0
  -19.7110  -26.5030   21.4510 C   0  0  0  0  0  2  0  0  0  0  0  0
  -18.3150  -26.6180   22.0700 C   0  0  0  0  0  2  0  0  0  0  0  0
  -19.1880  -28.7590   23.1800 C   0  0  0  0  0  0  0  0  0  0  0  0
  -18.9240  -30.0120   23.7720 C   0  0  0  0  0  3  0  0  0  0  0  0
  -17.6030  -30.4750   23.9240 C   0  0  0  0  0  3  0  0  0  0  0  0
  -16.5260  -29.6800   23.4960 C   0  0  0  0  0  3  0  0  0  0  0  0
  -16.7730  -28.4250   22.9110 C   0  0  0  0  0  3  0  0  0  0  0  0
  -25.9500  -32.4370   23.7430 C   0  0  0  0  0  3  0  0  0  0  0  0
  -25.6010  -33.8290   24.1060 N   0  0  0  0  0  0  0  0  0  0  0  0
  -25.9040  -34.9180   23.3850 C   0  0  0  0  0  0  0  0  0  0  0  0
  -26.5580  -34.8600   22.3420 O   0  0  0  0  0  0  0  0  0  0  0  0
  -25.0140  -33.9450   24.9190 H   0  0  0  0  0  0  0  0  0  0  0  0
  -24.1350  -36.7000   23.1480 C   0  0  0  0  0  1  0  0  0  0  0  0
  -25.4110  -36.2900   23.9000 C   0  0  0  0  0  3  0  0  0  0  0  0
  -27.5510  -37.2080   24.6870 C   0  0  0  0  0  1  0  0  0  0  0  0
  -26.4220  -37.3650   23.7750 N   0  0  0  0  0  0  0  0  0  0  0  0
  -26.0030  -38.2750   23.9430 H   0  0  0  0  0  0  0  0  0  0  0  0
  -26.4520  -31.6700   25.0310 C   0  0  1  0  0  0  0  0  0  0  0  0
  -25.3430  -31.4150   26.0800 C   0  0  0  0  0  1  0  0  0  0  0  0
  -27.0600  -30.2990   24.6610 C   0  0  0  0  0  1  0  0  0  0  0  0
  -27.5810  -32.4760   25.7150 C   0  0  0  0  0  1  0  0  0  0  0  0
  1  2  1  0
  3  5  1  0
  4  1  2  0
  5 48  1  0
  5  2  2  0
  6  3  2  0
  6  4  1  0
  7  9  1  0
  9  8  1  0
 11 16  1  0
 12 13  1  0
 12 11  1  0
 14 13  1  0
 14 21  1  0
 14 15  1  0
 16 10  1  0
 16 15  1  0
 17 10  1  0
 18 19  2  0
 19 38  1  0
 20 19  1  0
 20 23  1  0
 21 22  1  0
 21 18  1  0
 22 20  2  0
 23 24  1  0
 24 25  2  0
 26 29  1  0
 26 25  1  0
 27 26  2  0
 28 27  1  0
 28 23  2  0
 29 30  1  0
 30 31  1  0
 31 32  2  0
 33 32  1  0
 33 37  1  0
 34 33  2  0
 35 30  2  0
 35 34  1  0
 36 35  1  0
 38 39  1  0
 39 42  1  0
 39 41  1  0
 40 38  2  0
 43 18  1  0
 43 44  1  0
 45 43  1  0
 46 47  1  0
 46  6  1  0
 49 60  2  0
 50 48  1  0
 50 55  1  0
 51 59  1  0
 51 61  1  0
 52 58  1  0
 52 54  1  0
 53 59  1  0
 54 53  1  0
 55 54  2  0
 56 50  2  0
 57 56  1  0
 57 52  2  0
 58 51  1  0
 59 49  1  0
 61 63  2  0
 62 61  1  0
 64 62  1  0
 65 74  2  0
 65 70  1  0
 66 62  1  0
 66 70  1  0
 67 66  1  0
 68 69  1  0
 68 67  1  0
 69 65  1  0
 70 71  2  0
 71 72  1  0
 73 72  2  0
 74 73  1  0
 75 49  1  0
 75 76  1  0
 75 85  1  0
 76 79  1  0
 77 81  1  0
 77 76  1  0
 78 77  2  0
 81 80  1  0
 83 81  1  0
 83 84  1  0
 83 82  1  0
 85 88  1  1
 85 86  1  0
 87 85  1  0
M  ISO  4   5 101   9 100  10 100  48 101
M  END
>  <TORSDO>  (32) 
F 18

>  <SCORE>  (32) 
-15.157

>  <name>  (32) 
31

>  <ligand_id>  (32) 
31

>  <original_smiles>  (32) 
[H]Oc1c([H])c(Oc2c([H])c([H])c3c(c2[H])C([H])([H])N(C(=O)C([H])(N([H])C(=O)C([H])(N([H])C([H])([H])[H])C([H])([H])[H])C(C([H])([H])[H])(C([H])([H])[H])C([H])([H])[H])C([H])(C(=O)N([H])C2([H])c4c([H])c([H])c([H])c([H])c4C([H])([H])C([H])([H])C2([H])[H])C3([H])[H])c([H])c([H])c1C(C(=O)N1C([H])([H])C([H])([H])C([H])([H])C([H])(n2nc(-c3c([H])c([H])c(Oc4c([H])c([H])c(F)c([H])c4F)c([H])c3[H])c(C(=O)N([H])[H])c2N([H])[H])C1([H])[H])(C([H])([H])[H])C([H])([H])[H]

>  <smiles>  (32) 
[H]Oc1c([H])c(Oc2c([H])c([H])c3c(c2[H])C([H])([H])N(C(=O)C([H])(N([H])C(=O)C([H])(N([H])C([H])([H])[H])C([H])([H])[H])C(C([H])([H])[H])(C([H])([H])[H])C([H])([H])[H])C([H])(C(=O)N([H])C2([H])c4c([H])c([H])c([H])c([H])c4C([H])([H])C([H])([H])C2([H])[H])C3([H])[H])c([H])c([H])c1C(C(=O)N1C([H])([H])C([H])([H])C([H])([H])C([H])(n2nc(-c3c([H])c([H])c(Oc4c([H])c([H])c(F)c([H])c4F)c([H])c3[H])c(C(=O)N([H])[H])c2N([H])[H])C1([H])[H])(C([H])([H])[H])C([H])([H])[H]

$$$$
32:0:0
     RDKit          3D

 91 99  0  0  1  0  0  0  0  0999 V2000
  -30.4870  -19.2390   19.0980 C   0  0  0  0  0  3  0  0  0  0  0  0
  -29.9840  -16.6730   19.3320 C   0  0  0  0  0  0  0  0  0  0  0  0
  -30.8730  -17.8230   19.0830 C   0  0  0  0  0  0  0  0  0  0  0  0
  -29.1720  -19.7910   19.2730 C   0  0  0  0  0  0  0  0  0  0  0  0
  -28.6570  -17.2320   19.6400 C   0  0  0  0  0  0  0  0  0  0  0  0
  -28.2640  -18.6690   19.4810 C   0  0  0  0  0  0  0  0  0  0  0  0
  -26.7800  -19.0160   19.4120 C   0  0  0  0  0  1  0  0  0  0  0  0
  -30.5390  -15.0780   19.3800 C   0  0  0  0  0  0  0  0  0  0  0  0
  -30.3270  -12.6440   18.5860 C   0  0  0  0  0  2  0  0  0  0  0  0
  -29.2940  -12.4180   17.4600 C   0  0  0  0  0  2  0  0  0  0  0  0
  -27.8820  -12.2100   18.0410 C   0  0  0  0  0  2  0  0  0  0  0  0
  -27.5500  -13.2310   19.1570 C   0  0  0  0  0  3  0  0  0  0  0  0
  -28.7080  -13.3240   20.1700 C   0  0  0  0  0  2  0  0  0  0  0  0
  -29.8840  -13.8170   19.4250 N   0  0  0  0  0  0  0  0  0  0  0  0
  -31.7400  -14.9340   19.1420 O   0  0  0  0  0  0  0  0  0  0  0  0
  -25.2610  -13.8350   20.1290 C   0  0  0  0  0  0  0  0  0  0  0  0
  -24.2280  -13.0810   20.6010 C   0  0  0  0  0  0  0  0  0  0  0  0
  -24.6610  -11.7230   20.5230 C   0  0  0  0  0  0  0  0  0  0  0  0
  -26.2680  -12.9430   19.7960 N   0  0  0  0  0  0  0  0  0  0  0  0
  -25.9180  -11.6630   20.0990 N   0  0  0  0  0  0  0  0  0  0  0  0
  -23.9220  -10.4780   20.7640 C   0  0  0  0  0  0  0  0  0  0  0  0
  -24.3850   -9.5050   21.6740 C   0  0  0  0  0  3  0  0  0  0  0  0
  -23.6360   -8.3310   21.9100 C   0  0  0  0  0  3  0  0  0  0  0  0
  -22.4110   -8.1270   21.2300 C   0  0  0  0  0  0  0  0  0  0  0  0
  -21.9650   -9.0900   20.3070 C   0  0  0  0  0  3  0  0  0  0  0  0
  -22.7140  -10.2530   20.0730 C   0  0  0  0  0  3  0  0  0  0  0  0
  -21.6310   -7.0060   21.3710 O   0  0  0  0  0  0  0  0  0  0  0  0
  -21.6000   -6.2970   22.5450 C   0  0  0  0  0  0  0  0  0  0  0  0
  -21.2300   -6.9010   23.7660 C   0  0  0  0  0  3  0  0  0  0  0  0
  -21.1410   -6.1250   24.9380 C   0  0  0  0  0  3  0  0  0  0  0  0
  -21.4180   -4.7440   24.8930 C   0  0  0  0  0  0  0  0  0  0  0  0
  -21.7840   -4.1410   23.6760 C   0  0  0  0  0  3  0  0  0  0  0  0
  -21.8720   -4.9160   22.5070 C   0  0  0  0  0  0  0  0  0  0  0  0
  -22.2020   -4.3250   21.3340 F   0  0  0  0  0  0  0  0  0  0  0  0
  -21.3260   -3.9950   26.0160 F   0  0  0  0  0  0  0  0  0  0  0  0
  -22.8770  -13.5940   21.0070 C   0  0  0  0  0  0  0  0  0  0  0  0
  -22.2180  -12.9160   21.9390 N   0  0  0  0  0  0  0  0  0  0  0  0
  -22.4260  -14.6400   20.5430 O   0  0  0  0  0  0  0  0  0  0  0  0
  -22.5970  -12.0690   22.3290 H   0  0  0  0  0  0  0  0  0  0  0  0
  -21.3410  -13.2760   22.2930 H   0  0  0  0  0  0  0  0  0  0  0  0
  -25.3960  -15.2020   19.9190 N   0  0  0  0  0  0  0  0  0  0  0  0
  -24.6190  -15.8320   20.0910 H   0  0  0  0  0  0  0  0  0  0  0  0
  -26.1810  -15.6460   19.4640 H   0  0  0  0  0  0  0  0  0  0  0  0
  -33.2810  -17.8780   19.9680 C   0  0  0  0  0  1  0  0  0  0  0  0
  -32.3610  -17.6220   18.7580 C   0  0  0  0  0  2  0  0  0  0  0  0
  -26.5210  -16.6390   21.1510 C   0  0  0  0  0  1  0  0  0  0  0  0
  -27.6510  -16.2100   20.1960 C   0  0  0  0  0  2  0  0  0  0  0  0
  -28.7630  -21.4180   18.9400 C   0  0  0  0  0  2  0  0  0  0  0  0
  -28.8790  -22.9230   19.7790 C   0  0  0  0  0  3  0  0  0  0  0  0
  -28.1280  -24.4210   19.3270 C   0  0  0  0  0  3  0  0  0  0  0  0
  -28.2660  -25.9170   19.8650 O   0  0  0  0  0  0  0  0  0  0  0  0
  -24.5500  -31.5580   23.0220 C   0  0  0  0  0  0  0  0  0  0  0  0
  -27.2140  -26.9290   19.8230 C   0  0  0  0  0  0  0  0  0  0  0  0
  -23.3870  -30.1870   21.3430 C   0  0  0  0  0  3  0  0  0  0  0  0
  -24.8630  -28.6830   19.8630 C   0  0  0  0  0  0  0  0  0  0  0  0
  -25.9390  -30.4860   21.1970 C   0  0  0  0  0  2  0  0  0  0  0  0
  -26.0390  -29.1100   20.4950 C   0  0  0  0  0  0  0  0  0  0  0  0
  -27.2060  -28.2440   20.4670 C   0  0  0  0  0  3  0  0  0  0  0  0
  -26.0110  -26.6310   19.1480 C   0  0  0  0  0  3  0  0  0  0  0  0
  -24.8670  -27.4610   19.1780 C   0  0  0  0  0  3  0  0  0  0  0  0
  -23.6220  -29.5600   19.9430 C   0  0  0  0  0  2  0  0  0  0  0  0
  -24.6490  -30.7650   21.9090 N   0  0  0  0  0  0  0  0  0  0  0  0
  -23.4510  -31.8090   23.5460 O   0  0  0  0  0  0  0  0  0  0  0  0
  -22.7140  -29.1450   22.2710 C   0  0  0  0  0  0  0  0  0  0  0  0
  -21.3830  -28.9850   22.1530 N   0  0  0  0  0  0  0  0  0  0  0  0
  -23.3950  -28.4850   23.0610 O   0  0  0  0  0  0  0  0  0  0  0  0
  -20.8940  -29.5670   21.4880 H   0  0  0  0  0  0  0  0  0  0  0  0
  -18.0100  -27.7630   22.6480 C   0  0  0  0  0  0  0  0  0  0  0  0
  -20.5740  -28.0180   22.8950 C   0  0  0  0  0  3  0  0  0  0  0  0
  -20.6720  -26.6220   22.2470 C   0  0  0  0  0  2  0  0  0  0  0  0
  -19.5620  -26.3550   21.2250 C   0  0  0  0  0  2  0  0  0  0  0  0
  -18.1840  -26.4540   21.8920 C   0  0  0  0  0  2  0  0  0  0  0  0
  -19.1340  -28.5050   23.0990 C   0  0  0  0  0  0  0  0  0  0  0  0
  -18.9220  -29.7370   23.7540 C   0  0  0  0  0  3  0  0  0  0  0  0
  -17.6210  -30.2300   23.9620 C   0  0  0  0  0  3  0  0  0  0  0  0
  -16.5120  -29.4780   23.5400 C   0  0  0  0  0  3  0  0  0  0  0  0
  -16.7060  -28.2470   22.8880 C   0  0  0  0  0  3  0  0  0  0  0  0
  -25.8100  -32.1970   23.6840 C   0  0  0  0  0  3  0  0  0  0  0  0
  -25.4800  -33.5840   24.0460 N   0  0  0  0  0  0  0  0  0  0  0  0
  -25.8030  -34.6630   23.3220 C   0  0  0  0  0  0  0  0  0  0  0  0
  -26.4810  -34.5940   22.2930 O   0  0  0  0  0  0  0  0  0  0  0  0
  -24.8890  -33.7170   24.8530 H   0  0  0  0  0  0  0  0  0  0  0  0
  -24.0590  -36.4490   23.0130 C   0  0  0  0  0  1  0  0  0  0  0  0
  -25.3000  -36.0350   23.8150 C   0  0  0  0  0  3  0  0  0  0  0  0
  -27.4220  -36.9240   24.6760 C   0  0  0  0  0  1  0  0  0  0  0  0
  -26.3230  -37.1010   23.7340 N   0  0  0  0  0  0  0  0  0  0  0  0
  -25.9050  -38.0120   23.9030 H   0  0  0  0  0  0  0  0  0  0  0  0
  -26.3130  -31.4110   24.9570 C   0  0  1  0  0  0  0  0  0  0  0  0
  -25.2060  -31.1560   26.0050 C   0  0  0  0  0  1  0  0  0  0  0  0
  -26.9120  -30.0440   24.5550 C   0  0  0  0  0  1  0  0  0  0  0  0
  -27.4510  -32.1970   25.6520 C   0  0  0  0  0  1  0  0  0  0  0  0
  1  4  1  0
  2  8  1  0
  2  5  2  0
  3  1  2  0
  3  2  1  0
  4  6  2  0
  5 47  1  0
  6  5  1  0
  7  6  1  0
  8 14  1  0
  9 14  1  0
 10 11  1  0
 10  9  1  0
 12 11  1  0
 12 19  1  0
 12 13  1  0
 14 13  1  0
 15  8  2  0
 16 17  2  0
 17 36  1  0
 18 17  1  0
 18 21  1  0
 19 20  1  0
 19 16  1  0
 20 18  2  0
 21 22  1  0
 22 23  2  0
 24 27  1  0
 24 23  1  0
 25 24  2  0
 26 25  1  0
 26 21  2  0
 27 28  1  0
 28 29  1  0
 29 30  2  0
 31 30  1  0
 31 35  1  0
 32 31  2  0
 33 28  2  0
 33 32  1  0
 34 33  1  0
 36 37  1  0
 37 40  1  0
 37 39  1  0
 38 36  2  0
 41 42  1  0
 41 16  1  0
 43 41  1  0
 45  3  1  0
 45 44  1  0
 47 46  1  0
 48  4  1  0
 48 49  1  0
 50 49  2  0
 50 51  1  0
 52 63  2  0
 53 51  1  0
 53 58  1  0
 54 62  1  0
 54 64  1  0
 55 61  1  0
 55 57  1  0
 56 62  1  0
 57 56  1  0
 58 57  2  0
 59 60  1  0
 59 53  2  0
 60 55  2  0
 61 54  1  0
 62 52  1  0
 64 66  2  0
 65 64  1  0
 67 65  1  0
 68 77  2  0
 68 73  1  0
 69 65  1  0
 69 73  1  0
 70 69  1  0
 71 72  1  0
 71 70  1  0
 72 68  1  0
 73 74  2  0
 74 75  1  0
 76 75  2  0
 77 76  1  0
 78 52  1  0
 78 79  1  0
 78 88  1  0
 79 82  1  0
 80 84  1  0
 80 79  1  0
 81 80  2  0
 84 83  1  0
 86 84  1  0
 86 87  1  0
 86 85  1  0
 88 91  1  1
 88 89  1  0
 90 88  1  0
M  ISO  4   2 100   8 100  50 101  51 101
M  END
>  <TORSDO>  (33) 
F 21

>  <SCORE>  (33) 
-12.394

>  <name>  (33) 
32

>  <ligand_id>  (33) 
32

>  <original_smiles>  (33) 
[H]c1c([H])c([H])c2c(c1[H])C([H])([H])C([H])([H])C([H])([H])C2([H])N([H])C(=O)C1([H])N(C(=O)C([H])(N([H])C(=O)C([H])(N([H])C([H])([H])[H])C([H])([H])[H])C(C([H])([H])[H])(C([H])([H])[H])C([H])([H])[H])C([H])([H])c2c([H])c(OC([H])([H])C([H])([H])C([H])([H])c3c([H])c(C([H])([H])C([H])([H])[H])c(C(=O)N4C([H])([H])C([H])([H])C([H])([H])C([H])(n5nc(-c6c([H])c([H])c(Oc7c([H])c([H])c(F)c([H])c7F)c([H])c6[H])c(C(=O)N([H])[H])c5N([H])[H])C4([H])[H])c(C([H])([H])C([H])([H])[H])c3C([H])([H])[H])c([H])c([H])c2C1([H])[H]

>  <smiles>  (33) 
[H]c1c([H])c([H])c2c(c1[H])C([H])([H])C([H])([H])C([H])([H])C2([H])N([H])C(=O)C1([H])N(C(=O)C([H])(N([H])C(=O)C([H])(N([H])C([H])([H])[H])C([H])([H])[H])C(C([H])([H])[H])(C([H])([H])[H])C([H])([H])[H])C([H])([H])c2c([H])c(OC([H])([H])C([H])([H])C([H])([H])c3c([H])c(C([H])([H])C([H])([H])[H])c(C(=O)N4C([H])([H])C([H])([H])C([H])([H])C([H])(n5nc(-c6c([H])c([H])c(Oc7c([H])c([H])c(F)c([H])c7F)c([H])c6[H])c(C(=O)N([H])[H])c5N([H])[H])C4([H])[H])c(C([H])([H])C([H])([H])[H])c3C([H])([H])[H])c([H])c([H])c2C1([H])[H]

$$$$
33:0:0
     RDKit          3D

 89 97  0  0  1  0  0  0  0  0999 V2000
  -28.7880  -21.5610   19.1260 C   0  0  0  0  0  3  0  0  0  0  0  0
  -28.9000  -23.2020   21.2410 C   0  0  0  0  0  3  0  0  0  0  0  0
  -29.1870  -20.6350   20.2320 C   0  0  0  0  0  0  0  0  0  0  0  0
  -28.5090  -23.0770   19.0660 C   0  0  0  0  0  0  0  0  0  0  0  0
  -29.1820  -21.6900   21.2970 C   0  0  0  0  0  0  0  0  0  0  0  0
  -28.4940  -24.1210   20.1380 C   0  0  0  0  0  0  0  0  0  0  0  0
  -28.2080  -23.6210   17.6820 C   0  0  0  0  0  1  0  0  0  0  0  0
  -29.4880  -21.1670   22.6890 C   0  0  0  0  0  1  0  0  0  0  0  0
  -29.6780  -17.3520   20.3440 C   0  0  0  0  0  0  0  0  0  0  0  0
  -29.1580  -18.8190   20.3880 C   0  0  0  0  0  0  0  0  0  0  0  0
  -30.5530  -15.8750   20.1890 C   0  0  0  0  0  0  0  0  0  0  0  0
  -30.6510  -13.3350   19.3450 C   0  0  0  0  0  2  0  0  0  0  0  0
  -29.7360  -12.9740   18.1380 C   0  0  0  0  0  2  0  0  0  0  0  0
  -28.3190  -12.6110   18.6070 C   0  0  0  0  0  2  0  0  0  0  0  0
  -27.8300  -13.5860   19.7020 C   0  0  0  0  0  3  0  0  0  0  0  0
  -28.8790  -13.8740   20.7990 C   0  0  0  0  0  2  0  0  0  0  0  0
  -30.0530  -14.4980   20.1470 N   0  0  0  0  0  0  0  0  0  0  0  0
  -31.7800  -15.8020   19.9610 O   0  0  0  0  0  0  0  0  0  0  0  0
  -25.4910  -14.0820   20.5520 C   0  0  0  0  0  0  0  0  0  0  0  0
  -24.4440  -13.2860   20.9210 C   0  0  0  0  0  0  0  0  0  0  0  0
  -24.9180  -11.9410   20.8350 C   0  0  0  0  0  0  0  0  0  0  0  0
  -26.5300  -13.2240   20.2480 N   0  0  0  0  0  0  0  0  0  0  0  0
  -26.2020  -11.9260   20.4870 N   0  0  0  0  0  0  0  0  0  0  0  0
  -24.1990  -10.6690   21.0050 C   0  0  0  0  0  0  0  0  0  0  0  0
  -24.6250   -9.6950   21.9330 C   0  0  0  0  0  3  0  0  0  0  0  0
  -23.9010   -8.4930   22.0930 C   0  0  0  0  0  3  0  0  0  0  0  0
  -22.7370   -8.2580   21.3250 C   0  0  0  0  0  0  0  0  0  0  0  0
  -22.3290   -9.2210   20.3850 C   0  0  0  0  0  3  0  0  0  0  0  0
  -23.0540  -10.4140   20.2230 C   0  0  0  0  0  3  0  0  0  0  0  0
  -21.9850   -7.1090   21.3940 O   0  0  0  0  0  0  0  0  0  0  0  0
  -21.8690   -6.3930   22.5580 C   0  0  0  0  0  0  0  0  0  0  0  0
  -21.3380   -6.9670   23.7350 C   0  0  0  0  0  3  0  0  0  0  0  0
  -21.1710   -6.1770   24.8900 C   0  0  0  0  0  3  0  0  0  0  0  0
  -21.5240   -4.8140   24.8680 C   0  0  0  0  0  0  0  0  0  0  0  0
  -22.0480   -4.2400   23.6960 C   0  0  0  0  0  3  0  0  0  0  0  0
  -22.2160   -5.0270   22.5440 C   0  0  0  0  0  0  0  0  0  0  0  0
  -22.7010   -4.4640   21.4110 F   0  0  0  0  0  0  0  0  0  0  0  0
  -21.3580   -4.0520   25.9750 F   0  0  0  0  0  0  0  0  0  0  0  0
  -23.0520  -13.7490   21.2370 C   0  0  0  0  0  0  0  0  0  0  0  0
  -22.3520  -13.0340   22.1110 N   0  0  0  0  0  0  0  0  0  0  0  0
  -22.5950  -14.7790   20.7450 O   0  0  0  0  0  0  0  0  0  0  0  0
  -22.7360  -12.2000   22.5310 H   0  0  0  0  0  0  0  0  0  0  0  0
  -21.4200  -13.3260   22.3650 H   0  0  0  0  0  0  0  0  0  0  0  0
  -25.6430  -15.4600   20.4210 N   0  0  0  0  0  0  0  0  0  0  0  0
  -24.8850  -16.1090   20.6030 H   0  0  0  0  0  0  0  0  0  0  0  0
  -26.5000  -15.9250   20.1440 H   0  0  0  0  0  0  0  0  0  0  0  0
  -27.8830  -18.6930   20.7720 O   0  0  0  0  0  0  0  0  0  0  0  0
  -27.5140  -19.5680   20.8030 H   0  0  0  0  0  0  0  0  0  0  0  0
  -28.4200  -25.7430   20.0640 O   0  0  0  0  0  0  0  0  0  0  0  0
  -24.8420  -31.8690   23.2570 C   0  0  0  0  0  0  0  0  0  0  0  0
  -27.3990  -26.9150   20.0890 C   0  0  0  0  0  0  0  0  0  0  0  0
  -23.6650  -30.5330   21.5600 C   0  0  0  0  0  3  0  0  0  0  0  0
  -25.1230  -28.9410   20.0940 C   0  0  0  0  0  0  0  0  0  0  0  0
  -26.2430  -30.6850   21.4580 C   0  0  0  0  0  2  0  0  0  0  0  0
  -26.3110  -29.2770   20.7520 C   0  0  0  0  0  0  0  0  0  0  0  0
  -27.4310  -28.2920   20.7190 C   0  0  0  0  0  3  0  0  0  0  0  0
  -26.1780  -26.7920   19.3790 C   0  0  0  0  0  3  0  0  0  0  0  0
  -25.0940  -27.7260   19.3870 C   0  0  0  0  0  3  0  0  0  0  0  0
  -23.9140  -29.8880   20.1650 C   0  0  0  0  0  2  0  0  0  0  0  0
  -24.9400  -31.0610   22.1450 N   0  0  0  0  0  0  0  0  0  0  0  0
  -23.7460  -32.1460   23.7740 O   0  0  0  0  0  0  0  0  0  0  0  0
  -22.9470  -29.5180   22.4890 C   0  0  0  0  0  0  0  0  0  0  0  0
  -21.6180  -29.3560   22.3420 N   0  0  0  0  0  0  0  0  0  0  0  0
  -23.5990  -28.8740   23.3150 O   0  0  0  0  0  0  0  0  0  0  0  0
  -21.1420  -29.9250   21.6570 H   0  0  0  0  0  0  0  0  0  0  0  0
  -18.2390  -28.0900   22.7680 C   0  0  0  0  0  0  0  0  0  0  0  0
  -20.7910  -28.3860   23.0720 C   0  0  0  0  0  3  0  0  0  0  0  0
  -20.9190  -26.9730   22.4580 C   0  0  0  0  0  2  0  0  0  0  0  0
  -19.8360  -26.6670   21.4170 C   0  0  0  0  0  2  0  0  0  0  0  0
  -18.4440  -26.7690   22.0460 C   0  0  0  0  0  2  0  0  0  0  0  0
  -19.3390  -28.8570   23.2350 C   0  0  0  0  0  0  0  0  0  0  0  0
  -19.0900  -30.0910   23.8750 C   0  0  0  0  0  3  0  0  0  0  0  0
  -17.7740  -30.5600   24.0470 C   0  0  0  0  0  3  0  0  0  0  0  0
  -16.6880  -29.7920   23.5920 C   0  0  0  0  0  3  0  0  0  0  0  0
  -16.9210  -28.5590   22.9580 C   0  0  0  0  0  3  0  0  0  0  0  0
  -26.1010  -32.4970   23.9290 C   0  0  0  0  0  3  0  0  0  0  0  0
  -25.7620  -33.8710   24.3480 N   0  0  0  0  0  0  0  0  0  0  0  0
  -26.0650  -34.9840   23.6660 C   0  0  0  0  0  0  0  0  0  0  0  0
  -26.7160  -34.9630   22.6190 O   0  0  0  0  0  0  0  0  0  0  0  0
  -25.1790  -33.9580   25.1680 H   0  0  0  0  0  0  0  0  0  0  0  0
  -24.2980  -36.7740   23.4920 C   0  0  0  0  0  1  0  0  0  0  0  0
  -25.5730  -36.3340   24.2320 C   0  0  0  0  0  3  0  0  0  0  0  0
  -27.7130  -37.2140   25.0600 C   0  0  0  0  0  1  0  0  0  0  0  0
  -26.5850  -37.4120   24.1540 N   0  0  0  0  0  0  0  0  0  0  0  0
  -26.1660  -38.3150   24.3610 H   0  0  0  0  0  0  0  0  0  0  0  0
  -26.6130  -31.6700   25.1740 C   0  0  1  0  0  0  0  0  0  0  0  0
  -25.5150  -31.3750   26.2230 C   0  0  0  0  0  1  0  0  0  0  0  0
  -27.2110  -30.3140   24.7350 C   0  0  0  0  0  1  0  0  0  0  0  0
  -27.7540  -32.4400   25.8810 C   0  0  0  0  0  1  0  0  0  0  0  0
  1  3  1  0
  2  5  1  0
  3 10  1  0
  3  5  2  0
  4  1  2  0
  4  6  1  0
  5  8  1  0
  6  2  2  0
  7  4  1  0
  9 10  2  0
 10 47  1  0
 11  9  2  0
 12 17  1  0
 13 14  1  0
 13 12  1  0
 15 14  1  0
 15 22  1  0
 15 16  1  0
 17 11  1  0
 17 16  1  0
 18 11  2  0
 19 20  2  0
 20 39  1  0
 21 20  1  0
 21 24  1  0
 22 23  1  0
 22 19  1  0
 23 21  2  0
 24 25  1  0
 25 26  2  0
 27 30  1  0
 27 26  1  0
 28 27  2  0
 29 28  1  0
 29 24  2  0
 30 31  1  0
 31 32  1  0
 32 33  2  0
 34 33  1  0
 34 38  1  0
 35 34  2  0
 36 31  2  0
 36 35  1  0
 37 36  1  0
 39 40  1  0
 40 43  1  0
 40 42  1  0
 41 39  2  0
 44 19  1  0
 44 45  1  0
 46 44  1  0
 47 48  1  0
 49 51  1  0
 49  6  1  0
 50 61  2  0
 51 56  1  0
 52 60  1  0
 52 62  1  0
 53 59  1  0
 53 55  1  0
 54 60  1  0
 55 54  1  0
 56 55  2  0
 57 58  1  0
 57 51  2  0
 58 53  2  0
 59 52  1  0
 60 50  1  0
 62 64  2  0
 63 62  1  0
 65 63  1  0
 66 75  2  0
 66 71  1  0
 67 63  1  0
 67 71  1  0
 68 67  1  0
 69 70  1  0
 69 68  1  0
 70 66  1  0
 71 72  2  0
 72 73  1  0
 74 73  2  0
 75 74  1  0
 76 50  1  0
 76 77  1  0
 76 86  1  0
 77 80  1  0
 78 82  1  0
 78 77  1  0
 79 78  2  0
 82 81  1  0
 84 82  1  0
 84 85  1  0
 84 83  1  0
 86 89  1  1
 86 87  1  0
 88 86  1  0
M  ISO  4   6 101   9 100  11 100  49 101
M  END
>  <TORSDO>  (34) 
F 18

>  <SCORE>  (34) 
-15.328

>  <name>  (34) 
33

>  <ligand_id>  (34) 
33

>  <original_smiles>  (34) 
[H]OC(=C([H])C(=O)N1C([H])([H])C([H])([H])C([H])([H])C([H])(n2nc(-c3c([H])c([H])c(Oc4c([H])c([H])c(F)c([H])c4F)c([H])c3[H])c(C(=O)N([H])[H])c2N([H])[H])C1([H])[H])c1c([H])c(C([H])([H])[H])c(Oc2c([H])c([H])c3c(c2[H])C([H])([H])N(C(=O)C([H])(N([H])C(=O)C([H])(N([H])C([H])([H])[H])C([H])([H])[H])C(C([H])([H])[H])(C([H])([H])[H])C([H])([H])[H])C([H])(C(=O)N([H])C2([H])c4c([H])c([H])c([H])c([H])c4C([H])([H])C([H])([H])C2([H])[H])C3([H])[H])c([H])c1C([H])([H])[H]

>  <smiles>  (34) 
[H]OC(=C([H])C(=O)N1C([H])([H])C([H])([H])C([H])([H])C([H])(n2nc(-c3c([H])c([H])c(Oc4c([H])c([H])c(F)c([H])c4F)c([H])c3[H])c(C(=O)N([H])[H])c2N([H])[H])C1([H])[H])c1c([H])c(C([H])([H])[H])c(Oc2c([H])c([H])c3c(c2[H])C([H])([H])N(C(=O)C([H])(N([H])C(=O)C([H])(N([H])C([H])([H])[H])C([H])([H])[H])C(C([H])([H])[H])(C([H])([H])[H])C([H])([H])[H])C([H])(C(=O)N([H])C2([H])c4c([H])c([H])c([H])c([H])c4C([H])([H])C([H])([H])C2([H])[H])C3([H])[H])c([H])c1C([H])([H])[H]

$$$$
34:0:0
     RDKit          3D

 89 97  0  0  1  0  0  0  0  0999 V2000
  -29.6610  -22.5540   19.1210 C   0  0  0  0  0  3  0  0  0  0  0  0
  -27.7510  -23.8870   20.5880 C   0  0  0  0  0  3  0  0  0  0  0  0
  -28.9210  -21.6040   19.9310 C   0  0  0  0  0  0  0  0  0  0  0  0
  -29.4690  -24.0270   19.0510 C   0  0  0  0  0  0  0  0  0  0  0  0
  -27.9390  -22.4200   20.6650 C   0  0  0  0  0  0  0  0  0  0  0  0
  -28.4840  -24.8270   19.7740 C   0  0  0  0  0  0  0  0  0  0  0  0
  -30.4060  -24.7940   18.1370 C   0  0  0  0  0  1  0  0  0  0  0  0
  -27.0020  -21.7240   21.6420 C   0  0  0  0  0  1  0  0  0  0  0  0
  -28.9560  -19.8980   19.9440 C   0  0  0  0  0  0  0  0  0  0  0  0
  -27.8420  -19.3730   20.0110 O   0  0  0  0  0  0  0  0  0  0  0  0
  -30.1330  -18.6640   19.8960 C   0  0  0  0  0  3  0  0  0  0  0  0
  -29.8340  -16.9450   20.1690 C   0  0  0  0  0  3  0  0  0  0  0  0
  -30.7190  -15.5010   19.8600 C   0  0  0  0  0  0  0  0  0  0  0  0
  -30.6850  -13.0790   18.9720 C   0  0  0  0  0  2  0  0  0  0  0  0
  -29.6890  -12.9450   17.7910 C   0  0  0  0  0  2  0  0  0  0  0  0
  -28.2590  -12.6850   18.3020 C   0  0  0  0  0  2  0  0  0  0  0  0
  -27.8830  -13.6220   19.4760 C   0  0  0  0  0  3  0  0  0  0  0  0
  -28.9940  -13.7070   20.5430 C   0  0  0  0  0  2  0  0  0  0  0  0
  -30.2110  -14.1830   19.8720 N   0  0  0  0  0  0  0  0  0  0  0  0
  -31.8990  -15.5750   19.4910 O   0  0  0  0  0  0  0  0  0  0  0  0
  -25.5660  -14.1710   20.4030 C   0  0  0  0  0  0  0  0  0  0  0  0
  -24.5240  -13.3860   20.8110 C   0  0  0  0  0  0  0  0  0  0  0  0
  -24.9770  -12.0360   20.6970 C   0  0  0  0  0  0  0  0  0  0  0  0
  -26.5840  -13.3000   20.0550 N   0  0  0  0  0  0  0  0  0  0  0  0
  -26.2460  -12.0060   20.3000 N   0  0  0  0  0  0  0  0  0  0  0  0
  -24.2550  -10.7710   20.8880 C   0  0  0  0  0  0  0  0  0  0  0  0
  -24.6740   -9.8150   21.8390 C   0  0  0  0  0  3  0  0  0  0  0  0
  -23.9490   -8.6170   22.0180 C   0  0  0  0  0  3  0  0  0  0  0  0
  -22.7910   -8.3650   21.2430 C   0  0  0  0  0  0  0  0  0  0  0  0
  -22.3920   -9.3100   20.2810 C   0  0  0  0  0  3  0  0  0  0  0  0
  -23.1180  -10.4990   20.1010 C   0  0  0  0  0  3  0  0  0  0  0  0
  -22.0400   -7.2170   21.3280 O   0  0  0  0  0  0  0  0  0  0  0  0
  -21.8920   -6.5410   22.5120 C   0  0  0  0  0  0  0  0  0  0  0  0
  -21.2870   -7.1370   23.6410 C   0  0  0  0  0  3  0  0  0  0  0  0
  -21.0900   -6.3840   24.8150 C   0  0  0  0  0  3  0  0  0  0  0  0
  -21.4910   -5.0350   24.8610 C   0  0  0  0  0  0  0  0  0  0  0  0
  -22.0880   -4.4380   23.7370 C   0  0  0  0  0  3  0  0  0  0  0  0
  -22.2850   -5.1890   22.5650 C   0  0  0  0  0  0  0  0  0  0  0  0
  -22.8430   -4.6030   21.4790 F   0  0  0  0  0  0  0  0  0  0  0  0
  -21.2960   -4.3080   25.9860 F   0  0  0  0  0  0  0  0  0  0  0  0
  -23.1510  -13.8600   21.1890 C   0  0  0  0  0  0  0  0  0  0  0  0
  -22.4770  -13.1390   22.0770 N   0  0  0  0  0  0  0  0  0  0  0  0
  -22.6870  -14.9040   20.7330 O   0  0  0  0  0  0  0  0  0  0  0  0
  -22.8670  -12.2930   22.4670 H   0  0  0  0  0  0  0  0  0  0  0  0
  -21.5580  -13.4380   22.3720 H   0  0  0  0  0  0  0  0  0  0  0  0
  -25.7270  -15.5470   20.2720 N   0  0  0  0  0  0  0  0  0  0  0  0
  -24.9780  -16.2000   20.4740 H   0  0  0  0  0  0  0  0  0  0  0  0
  -26.5630  -16.0020   19.9250 H   0  0  0  0  0  0  0  0  0  0  0  0
  -28.4320  -26.3410   19.7860 O   0  0  0  0  0  0  0  0  0  0  0  0
  -24.7380  -31.9270   23.1370 C   0  0  0  0  0  0  0  0  0  0  0  0
  -27.3360  -27.3180   19.8490 C   0  0  0  0  0  0  0  0  0  0  0  0
  -23.5410  -30.6030   21.4360 C   0  0  0  0  0  3  0  0  0  0  0  0
  -24.9940  -29.1000   19.9210 C   0  0  0  0  0  0  0  0  0  0  0  0
  -26.0950  -30.8800   21.2710 C   0  0  0  0  0  2  0  0  0  0  0  0
  -26.1760  -29.5110   20.5490 C   0  0  0  0  0  0  0  0  0  0  0  0
  -27.3410  -28.6390   20.4920 C   0  0  0  0  0  3  0  0  0  0  0  0
  -26.1240  -27.0330   19.1850 C   0  0  0  0  0  3  0  0  0  0  0  0
  -24.9860  -27.8800   19.2240 C   0  0  0  0  0  3  0  0  0  0  0  0
  -23.7610  -29.9930   20.0240 C   0  0  0  0  0  2  0  0  0  0  0  0
  -24.8120  -31.1600   22.0030 N   0  0  0  0  0  0  0  0  0  0  0  0
  -23.6520  -32.1720   23.6870 O   0  0  0  0  0  0  0  0  0  0  0  0
  -22.8760  -29.5460   22.3550 C   0  0  0  0  0  0  0  0  0  0  0  0
  -21.5490  -29.3670   22.2310 N   0  0  0  0  0  0  0  0  0  0  0  0
  -23.5600  -28.8890   23.1440 O   0  0  0  0  0  0  0  0  0  0  0  0
  -21.0510  -29.9490   21.5720 H   0  0  0  0  0  0  0  0  0  0  0  0
  -18.1780  -28.1360   22.7540 C   0  0  0  0  0  0  0  0  0  0  0  0
  -20.7460  -28.3790   22.9600 C   0  0  0  0  0  3  0  0  0  0  0  0
  -20.8250  -26.9910   22.2820 C   0  0  0  0  0  2  0  0  0  0  0  0
  -19.6920  -26.7420   21.2820 C   0  0  0  0  0  2  0  0  0  0  0  0
  -18.3310  -26.8400   21.9760 C   0  0  0  0  0  2  0  0  0  0  0  0
  -19.3120  -28.8660   23.2020 C   0  0  0  0  0  0  0  0  0  0  0  0
  -19.1120  -30.0800   23.8940 C   0  0  0  0  0  3  0  0  0  0  0  0
  -17.8140  -30.5650   24.1400 C   0  0  0  0  0  3  0  0  0  0  0  0
  -16.6960  -29.8320   23.7060 C   0  0  0  0  0  3  0  0  0  0  0  0
  -16.8800  -28.6190   23.0200 C   0  0  0  0  0  3  0  0  0  0  0  0
  -26.0100  -32.5480   23.7890 C   0  0  0  0  0  3  0  0  0  0  0  0
  -26.5180  -31.7420   25.0480 C   0  0  1  0  0  0  0  0  0  0  0  0
  -25.4170  -31.4700   26.1000 C   0  0  0  0  0  1  0  0  0  0  0  0
  -27.1100  -30.3780   24.6270 C   0  0  0  0  0  1  0  0  0  0  0  0
  -27.6600  -32.5220   25.7430 C   0  0  0  0  0  1  0  0  0  0  0  0
  -25.6910  -33.9360   24.1680 N   0  0  0  0  0  0  0  0  0  0  0  0
  -25.9790  -35.0180   23.4320 C   0  0  0  0  0  0  0  0  0  0  0  0
  -26.6040  -34.9530   22.3710 O   0  0  0  0  0  0  0  0  0  0  0  0
  -25.1310  -34.0580   24.9980 H   0  0  0  0  0  0  0  0  0  0  0  0
  -24.1980  -36.7870   23.2400 C   0  0  0  0  0  1  0  0  0  0  0  0
  -25.4990  -36.3870   23.9550 C   0  0  0  0  0  3  0  0  0  0  0  0
  -27.6600  -37.3100   24.6710 C   0  0  0  0  0  1  0  0  0  0  0  0
  -26.5010  -37.4640   23.7950 N   0  0  0  0  0  0  0  0  0  0  0  0
  -26.0860  -38.3740   23.9760 H   0  0  0  0  0  0  0  0  0  0  0  0
  1  3  1  0
  2  5  1  0
  3  9  1  0
  3  5  2  0
  4  1  2  0
  4  6  1  0
  5  8  1  0
  6 49  1  0
  6  2  2  0
  7  4  1  0
  9 10  2  0
 11  9  1  0
 11 12  2  0
 13 19  1  0
 13 12  1  0
 14 19  1  0
 15 16  1  0
 15 14  1  0
 17 16  1  0
 17 24  1  0
 17 18  1  0
 19 18  1  0
 20 13  2  0
 21 22  2  0
 22 41  1  0
 23 22  1  0
 23 26  1  0
 24 25  1  0
 24 21  1  0
 25 23  2  0
 26 27  1  0
 27 28  2  0
 29 32  1  0
 29 28  1  0
 30 29  2  0
 31 30  1  0
 31 26  2  0
 32 33  1  0
 33 38  2  0
 33 34  1  0
 34 35  2  0
 35 36  1  0
 36 40  1  0
 37 36  2  0
 38 37  1  0
 39 38  1  0
 41 42  1  0
 42 45  1  0
 42 44  1  0
 43 41  2  0
 46 21  1  0
 46 47  1  0
 48 46  1  0
 49 51  1  0
 50 61  2  0
 51 56  1  0
 52 60  1  0
 52 62  1  0
 53 59  1  0
 53 55  1  0
 54 60  1  0
 55 54  1  0
 56 55  2  0
 57 58  1  0
 57 51  2  0
 58 53  2  0
 59 52  1  0
 60 50  1  0
 62 64  2  0
 63 62  1  0
 65 63  1  0
 66 75  2  0
 66 71  1  0
 67 63  1  0
 67 71  1  0
 68 67  1  0
 69 70  1  0
 69 68  1  0
 70 66  1  0
 71 72  2  0
 72 73  1  0
 74 73  2  0
 75 74  1  0
 76 50  1  0
 76 81  1  0
 76 77  1  0
 77 80  1  1
 77 78  1  0
 79 77  1  0
 81 84  1  0
 82 86  1  0
 82 81  1  0
 83 82  2  0
 86 85  1  0
 88 86  1  0
 88 89  1  0
 88 87  1  0
M  ISO  4   6 101  12 100  13 100  49 101
M  END
>  <TORSDO>  (35) 
F 19

>  <SCORE>  (35) 
-14.032

>  <name>  (35) 
34

>  <ligand_id>  (35) 
34

>  <original_smiles>  (35) 
[H]c1c([H])c([H])c2c(c1[H])C([H])([H])C([H])([H])C([H])([H])C2([H])N([H])C(=O)C1([H])N(C(=O)C([H])(N([H])C(=O)C([H])(N([H])C([H])([H])[H])C([H])([H])[H])C(C([H])([H])[H])(C([H])([H])[H])C([H])([H])[H])C([H])([H])c2c([H])c(Oc3c([H])c(C([H])([H])[H])c(C(=O)C([H])([H])C([H])([H])C(=O)N4C([H])([H])C([H])([H])C([H])([H])C([H])(n5nc(-c6c([H])c([H])c(Oc7c([H])c([H])c(F)c([H])c7F)c([H])c6[H])c(C(=O)N([H])[H])c5N([H])[H])C4([H])[H])c([H])c3C([H])([H])[H])c([H])c([H])c2C1([H])[H]

>  <smiles>  (35) 
[H]c1c([H])c([H])c2c(c1[H])C([H])([H])C([H])([H])C([H])([H])C2([H])N([H])C(=O)C1([H])N(C(=O)C([H])(N([H])C(=O)C([H])(N([H])C([H])([H])[H])C([H])([H])[H])C(C([H])([H])[H])(C([H])([H])[H])C([H])([H])[H])C([H])([H])c2c([H])c(Oc3c([H])c(C([H])([H])[H])c(C(=O)C([H])([H])C([H])([H])C(=O)N4C([H])([H])C([H])([H])C([H])([H])C([H])(n5nc(-c6c([H])c([H])c(Oc7c([H])c([H])c(F)c([H])c7F)c([H])c6[H])c(C(=O)N([H])[H])c5N([H])[H])C4([H])[H])c([H])c3C([H])([H])[H])c([H])c([H])c2C1([H])[H]

$$$$
35:0:0
     RDKit          3D

 92100  0  0  1  0  0  0  0  0999 V2000
  -29.2960  -23.2720   20.3010 C   0  0  0  0  0  3  0  0  0  0  0  0
  -29.4520  -24.5280   22.3810 C   0  0  0  0  0  3  0  0  0  0  0  0
  -29.0120  -24.4710   19.6060 C   0  0  0  0  0  3  0  0  0  0  0  0
  -29.1910  -25.7260   21.6850 C   0  0  0  0  0  3  0  0  0  0  0  0
  -29.5080  -23.2910   21.6980 C   0  0  0  0  0  0  0  0  0  0  0  0
  -28.9480  -25.7020   20.2960 C   0  0  0  0  0  0  0  0  0  0  0  0
  -29.7000  -22.0370   22.4810 C   0  0  0  0  0  0  0  0  0  0  0  0
  -29.1000  -21.8250   23.5380 O   0  0  0  0  0  0  0  0  0  0  0  0
  -30.7350  -21.0270   21.9640 C   0  0  0  0  0  2  0  0  0  0  0  0
  -31.2410  -20.0090   23.0320 C   0  0  0  0  0  2  0  0  0  0  0  0
  -30.6510  -18.5860   22.8920 C   0  0  0  0  0  2  0  0  0  0  0  0
  -31.2710  -17.8400   21.6870 C   0  0  0  0  0  2  0  0  0  0  0  0
  -30.3230  -16.8510   20.9780 C   0  0  0  0  0  2  0  0  0  0  0  0
  -31.1140  -14.5840   20.3910 C   0  0  0  0  0  0  0  0  0  0  0  0
  -30.7500  -12.4890   19.1170 C   0  0  0  0  0  2  0  0  0  0  0  0
  -29.7770  -12.7590   17.9490 C   0  0  0  0  0  2  0  0  0  0  0  0
  -28.3070  -12.6640   18.4080 C   0  0  0  0  0  2  0  0  0  0  0  0
  -28.0400  -13.4590   19.7100 C   0  0  0  0  0  3  0  0  0  0  0  0
  -29.1050  -13.1170   20.7770 C   0  0  0  0  0  2  0  0  0  0  0  0
  -30.4360  -13.4180   20.2150 N   0  0  0  0  0  0  0  0  0  0  0  0
  -32.1230  -14.8940   19.7450 O   0  0  0  0  0  0  0  0  0  0  0  0
  -30.5310  -15.4270   21.2560 N   0  0  0  0  0  0  0  0  0  0  0  0
  -29.8090  -14.9920   21.8120 H   0  0  0  0  0  0  0  0  0  0  0  0
  -25.6820  -14.1330   20.4940 C   0  0  0  0  0  0  0  0  0  0  0  0
  -24.5910  -13.3850   20.8530 C   0  0  0  0  0  0  0  0  0  0  0  0
  -24.9950  -12.0200   20.7440 C   0  0  0  0  0  0  0  0  0  0  0  0
  -26.6860  -13.2230   20.2020 N   0  0  0  0  0  0  0  0  0  0  0  0
  -26.2750  -11.9450   20.4010 N   0  0  0  0  0  0  0  0  0  0  0  0
  -24.2270  -10.7750   20.8920 C   0  0  0  0  0  0  0  0  0  0  0  0
  -24.6430   -9.7530   21.7730 C   0  0  0  0  0  3  0  0  0  0  0  0
  -23.8810   -8.5730   21.9130 C   0  0  0  0  0  3  0  0  0  0  0  0
  -22.6860   -8.4090   21.1730 C   0  0  0  0  0  0  0  0  0  0  0  0
  -22.2890   -9.4180   20.2770 C   0  0  0  0  0  3  0  0  0  0  0  0
  -23.0520  -10.5900   20.1340 C   0  0  0  0  0  3  0  0  0  0  0  0
  -21.8920   -7.2900   21.2260 O   0  0  0  0  0  0  0  0  0  0  0  0
  -21.7980   -6.5290   22.3640 C   0  0  0  0  0  0  0  0  0  0  0  0
  -21.3770   -7.0740   23.5960 C   0  0  0  0  0  3  0  0  0  0  0  0
  -21.2320   -6.2390   24.7230 C   0  0  0  0  0  3  0  0  0  0  0  0
  -21.4980   -4.8610   24.6170 C   0  0  0  0  0  0  0  0  0  0  0  0
  -21.9120   -4.3160   23.3880 C   0  0  0  0  0  3  0  0  0  0  0  0
  -22.0590   -5.1480   22.2650 C   0  0  0  0  0  0  0  0  0  0  0  0
  -22.4380   -4.6130   21.0790 F   0  0  0  0  0  0  0  0  0  0  0  0
  -21.3500   -4.0570   25.6970 F   0  0  0  0  0  0  0  0  0  0  0  0
  -23.2190  -13.8940   21.1950 C   0  0  0  0  0  0  0  0  0  0  0  0
  -22.5020  -13.1880   22.0630 N   0  0  0  0  0  0  0  0  0  0  0  0
  -22.7960  -14.9510   20.7290 O   0  0  0  0  0  0  0  0  0  0  0  0
  -22.8580  -12.3310   22.4600 H   0  0  0  0  0  0  0  0  0  0  0  0
  -21.5840  -13.5050   22.3360 H   0  0  0  0  0  0  0  0  0  0  0  0
  -25.9060  -15.5020   20.3820 N   0  0  0  0  0  0  0  0  0  0  0  0
  -25.1820  -16.1990   20.5250 H   0  0  0  0  0  0  0  0  0  0  0  0
  -26.8020  -15.9070   20.1450 H   0  0  0  0  0  0  0  0  0  0  0  0
  -28.7100  -26.8630   19.5980 O   0  0  0  0  0  0  0  0  0  0  0  0
  -24.6960  -31.6240   23.0610 C   0  0  0  0  0  0  0  0  0  0  0  0
  -27.4890  -27.4820   19.7260 C   0  0  0  0  0  0  0  0  0  0  0  0
  -23.5150  -30.2290   21.3910 C   0  0  0  0  0  3  0  0  0  0  0  0
  -25.0070  -28.8210   19.8720 C   0  0  0  0  0  0  0  0  0  0  0  0
  -26.0080  -30.7340   21.1400 C   0  0  0  0  0  2  0  0  0  0  0  0
  -26.1470  -29.3950   20.4470 C   0  0  0  0  0  0  0  0  0  0  0  0
  -27.3910  -28.7320   20.3740 C   0  0  0  0  0  3  0  0  0  0  0  0
  -26.3330  -26.9090   19.1530 C   0  0  0  0  0  3  0  0  0  0  0  0
  -25.0930  -27.5740   19.2260 C   0  0  0  0  0  3  0  0  0  0  0  0
  -23.7190  -29.6060   19.9830 C   0  0  0  0  0  2  0  0  0  0  0  0
  -24.7580  -30.8770   21.9230 N   0  0  0  0  0  0  0  0  0  0  0  0
  -23.6200  -31.8170   23.6450 O   0  0  0  0  0  0  0  0  0  0  0  0
  -22.9450  -29.1410   22.3280 C   0  0  0  0  0  0  0  0  0  0  0  0
  -21.6390  -28.8550   22.1890 N   0  0  0  0  0  0  0  0  0  0  0  0
  -23.6730  -28.5550   23.1320 O   0  0  0  0  0  0  0  0  0  0  0  0
  -21.1070  -29.3830   21.5120 H   0  0  0  0  0  0  0  0  0  0  0  0
  -18.3960  -27.3080   22.5640 C   0  0  0  0  0  0  0  0  0  0  0  0
  -20.9000  -27.8370   22.9350 C   0  0  0  0  0  3  0  0  0  0  0  0
  -21.1760  -26.4250   22.3720 C   0  0  0  0  0  2  0  0  0  0  0  0
  -20.1580  -25.9850   21.3170 C   0  0  0  0  0  2  0  0  0  0  0  0
  -18.7420  -25.9850   21.9020 C   0  0  0  0  0  2  0  0  0  0  0  0
  -19.4090  -28.1850   23.0350 C   0  0  0  0  0  0  0  0  0  0  0  0
  -19.0360  -29.4190   23.6100 C   0  0  0  0  0  3  0  0  0  0  0  0
  -17.6810  -29.7800   23.7190 C   0  0  0  0  0  3  0  0  0  0  0  0
  -16.6790  -28.9030   23.2660 C   0  0  0  0  0  3  0  0  0  0  0  0
  -17.0380  -27.6680   22.6930 C   0  0  0  0  0  3  0  0  0  0  0  0
  -25.9680  -32.2930   23.6720 C   0  0  0  0  0  3  0  0  0  0  0  0
  -25.6060  -33.6630   24.0520 N   0  0  0  0  0  0  0  0  0  0  0  0
  -25.8990  -34.7560   23.3340 C   0  0  0  0  0  0  0  0  0  0  0  0
  -26.5750  -34.7160   22.3020 O   0  0  0  0  0  0  0  0  0  0  0  0
  -25.0000  -33.7660   24.8530 H   0  0  0  0  0  0  0  0  0  0  0  0
  -24.0990  -36.4870   23.0430 C   0  0  0  0  0  1  0  0  0  0  0  0
  -25.3550  -36.1040   23.8420 C   0  0  0  0  0  3  0  0  0  0  0  0
  -27.4570  -37.0340   24.7070 C   0  0  0  0  0  1  0  0  0  0  0  0
  -26.3430  -37.2040   23.7750 N   0  0  0  0  0  0  0  0  0  0  0  0
  -25.9000  -38.0960   23.9760 H   0  0  0  0  0  0  0  0  0  0  0  0
  -26.5520  -31.5080   24.9100 C   0  0  1  0  0  0  0  0  0  0  0  0
  -25.5020  -31.2050   26.0050 C   0  0  0  0  0  1  0  0  0  0  0  0
  -27.1710  -30.1640   24.4620 C   0  0  0  0  0  1  0  0  0  0  0  0
  -27.6900  -32.3300   25.5610 C   0  0  0  0  0  1  0  0  0  0  0  0
  1  5  1  0
  3  6  1  0
  3  1  2  0
  4  2  1  0
  5  2  2  0
  5  7  1  0
  6  4  2  0
  7  8  2  0
  9  7  1  0
  9 10  1  0
 11 10  1  0
 12 11  1  0
 13 22  1  0
 13 12  1  0
 14 22  1  0
 15 20  1  0
 16 17  1  0
 16 15  1  0
 18 17  1  0
 18 27  1  0
 18 19  1  0
 20 14  1  0
 20 19  1  0
 21 14  2  0
 22 23  1  0
 24 25  2  0
 25 44  1  0
 26 25  1  0
 26 29  1  0
 27 28  1  0
 27 24  1  0
 28 26  2  0
 29 30  1  0
 30 31  2  0
 32 35  1  0
 32 31  1  0
 33 32  2  0
 34 33  1  0
 34 29  2  0
 35 36  1  0
 36 37  1  0
 37 38  2  0
 39 38  1  0
 39 43  1  0
 40 39  2  0
 41 36  2  0
 41 40  1  0
 42 41  1  0
 44 45  1  0
 45 48  1  0
 45 47  1  0
 46 44  2  0
 49 24  1  0
 49 50  1  0
 51 49  1  0
 52 54  1  0
 52  6  1  0
 53 64  2  0
 54 59  1  0
 55 63  1  0
 55 65  1  0
 56 62  1  0
 56 58  1  0
 57 63  1  0
 58 57  1  0
 59 58  2  0
 60 61  1  0
 60 54  2  0
 61 56  2  0
 62 55  1  0
 63 53  1  0
 65 67  2  0
 66 65  1  0
 68 66  1  0
 69 78  2  0
 69 74  1  0
 70 66  1  0
 70 74  1  0
 71 70  1  0
 72 73  1  0
 72 71  1  0
 73 69  1  0
 74 75  2  0
 75 76  1  0
 77 76  2  0
 78 77  1  0
 79 53  1  0
 79 80  1  0
 79 89  1  0
 80 83  1  0
 81 85  1  0
 81 80  1  0
 82 81  2  0
 85 84  1  0
 87 85  1  0
 87 88  1  0
 87 86  1  0
 89 92  1  1
 89 90  1  0
 91 89  1  0
M  ISO  4   6 101  14 100  22 100  52 101
M  END
>  <TORSDO>  (36) 
F 22

>  <SCORE>  (36) 
-11.808

>  <name>  (36) 
35

>  <ligand_id>  (36) 
35

>  <original_smiles>  (36) 
[H]c1c([H])c([H])c2c(c1[H])C([H])([H])C([H])([H])C([H])([H])C2([H])N([H])C(=O)C1([H])N(C(=O)C([H])(N([H])C(=O)C([H])(N([H])C([H])([H])[H])C([H])([H])[H])C(C([H])([H])[H])(C([H])([H])[H])C([H])([H])[H])C([H])([H])c2c([H])c(Oc3c([H])c([H])c(C(=O)C([H])([H])C([H])([H])C([H])([H])C([H])([H])C([H])([H])N([H])C(=O)N4C([H])([H])C([H])([H])C([H])([H])C([H])(n5nc(-c6c([H])c([H])c(Oc7c([H])c([H])c(F)c([H])c7F)c([H])c6[H])c(C(=O)N([H])[H])c5N([H])[H])C4([H])[H])c([H])c3[H])c([H])c([H])c2C1([H])[H]

>  <smiles>  (36) 
[H]c1c([H])c([H])c2c(c1[H])C([H])([H])C([H])([H])C([H])([H])C2([H])N([H])C(=O)C1([H])N(C(=O)C([H])(N([H])C(=O)C([H])(N([H])C([H])([H])[H])C([H])([H])[H])C(C([H])([H])[H])(C([H])([H])[H])C([H])([H])[H])C([H])([H])c2c([H])c(Oc3c([H])c([H])c(C(=O)C([H])([H])C([H])([H])C([H])([H])C([H])([H])C([H])([H])N([H])C(=O)N4C([H])([H])C([H])([H])C([H])([H])C([H])(n5nc(-c6c([H])c([H])c(Oc7c([H])c([H])c(F)c([H])c7F)c([H])c6[H])c(C(=O)N([H])[H])c5N([H])[H])C4([H])[H])c([H])c3[H])c([H])c([H])c2C1([H])[H]

$$$$
36:0:0
     RDKit          3D

 92100  0  0  1  0  0  0  0  0999 V2000
  -30.3600  -18.2110   19.4870 C   0  0  0  0  0  3  0  0  0  0  0  0
  -28.5500  -16.6960   19.8400 C   0  0  0  0  0  3  0  0  0  0  0  0
  -29.9590  -16.7310   19.6830 C   0  0  0  0  0  0  0  0  0  0  0  0
  -29.4830  -19.4800   19.3080 C   0  0  0  0  0  0  0  0  0  0  0  0
  -27.6660  -17.8110   19.7060 C   0  0  0  0  0  0  0  0  0  0  0  0
  -28.1060  -19.1330   19.3590 C   0  0  0  0  0  0  0  0  0  0  0  0
  -30.8310  -15.2880   19.9100 C   0  0  0  0  0  0  0  0  0  0  0  0
  -31.0580  -12.6830   19.8580 C   0  0  0  0  0  2  0  0  0  0  0  0
  -30.2870  -12.0220   18.6800 C   0  0  0  0  0  2  0  0  0  0  0  0
  -28.8150  -11.7770   19.0560 C   0  0  0  0  0  2  0  0  0  0  0  0
  -28.2060  -13.0070   19.7670 C   0  0  0  0  0  3  0  0  0  0  0  0
  -29.1120  -13.5390   20.8900 C   0  0  0  0  0  2  0  0  0  0  0  0
  -30.3720  -13.9740   20.2580 N   0  0  0  0  0  0  0  0  0  0  0  0
  -32.0490  -15.2820   19.6700 O   0  0  0  0  0  0  0  0  0  0  0  0
  -25.8410  -13.7090   20.3970 C   0  0  0  0  0  0  0  0  0  0  0  0
  -24.7300  -13.0040   20.7640 C   0  0  0  0  0  0  0  0  0  0  0  0
  -25.1260  -11.6320   20.7920 C   0  0  0  0  0  0  0  0  0  0  0  0
  -26.8440  -12.7750   20.2250 N   0  0  0  0  0  0  0  0  0  0  0  0
  -26.4240  -11.5190   20.5280 N   0  0  0  0  0  0  0  0  0  0  0  0
  -24.3270  -10.4170   20.9920 C   0  0  0  0  0  0  0  0  0  0  0  0
  -24.7000   -9.4330   21.9320 C   0  0  0  0  0  3  0  0  0  0  0  0
  -23.9050   -8.2820   22.1200 C   0  0  0  0  0  3  0  0  0  0  0  0
  -22.7190   -8.1090   21.3660 C   0  0  0  0  0  0  0  0  0  0  0  0
  -22.3620   -9.0820   20.4150 C   0  0  0  0  0  3  0  0  0  0  0  0
  -23.1590  -10.2240   20.2280 C   0  0  0  0  0  3  0  0  0  0  0  0
  -21.8980   -7.0120   21.4610 O   0  0  0  0  0  0  0  0  0  0  0  0
  -21.8110   -6.2750   22.6150 C   0  0  0  0  0  0  0  0  0  0  0  0
  -21.4350   -6.8600   23.8440 C   0  0  0  0  0  3  0  0  0  0  0  0
  -21.2900   -6.0560   24.9910 C   0  0  0  0  0  3  0  0  0  0  0  0
  -21.5100   -4.6680   24.9120 C   0  0  0  0  0  0  0  0  0  0  0  0
  -21.8780   -4.0820   23.6880 C   0  0  0  0  0  3  0  0  0  0  0  0
  -22.0250   -4.8830   22.5420 C   0  0  0  0  0  0  0  0  0  0  0  0
  -22.3610   -4.3120   21.3600 F   0  0  0  0  0  0  0  0  0  0  0  0
  -21.3610   -3.8940   26.0120 F   0  0  0  0  0  0  0  0  0  0  0  0
  -23.3550  -13.5650   20.9750 C   0  0  0  0  0  0  0  0  0  0  0  0
  -22.5830  -12.9670   21.8750 N   0  0  0  0  0  0  0  0  0  0  0  0
  -22.9770  -14.5720   20.3770 O   0  0  0  0  0  0  0  0  0  0  0  0
  -22.9000  -12.1490   22.3730 H   0  0  0  0  0  0  0  0  0  0  0  0
  -21.6610  -13.3340   22.0670 H   0  0  0  0  0  0  0  0  0  0  0  0
  -26.0770  -15.0580   20.1620 N   0  0  0  0  0  0  0  0  0  0  0  0
  -25.3430  -15.7520   20.2480 H   0  0  0  0  0  0  0  0  0  0  0  0
  -26.9780  -15.4570   19.9290 H   0  0  0  0  0  0  0  0  0  0  0  0
  -25.9880  -17.1290   21.5090 C   0  0  0  0  0  1  0  0  0  0  0  0
  -25.5150  -16.5740   19.0830 C   0  0  0  0  0  1  0  0  0  0  0  0
  -26.1860  -17.5630   20.0460 C   0  0  0  0  0  3  0  0  0  0  0  0
  -29.8270  -21.1700   19.2780 C   0  0  0  0  0  0  0  0  0  0  0  0
  -30.9890  -21.4490   19.5830 O   0  0  0  0  0  0  0  0  0  0  0  0
  -28.9210  -22.6100   18.8490 C   0  0  0  0  0  2  0  0  0  0  0  0
  -28.5840  -24.2340   19.5680 C   0  0  0  0  0  2  0  0  0  0  0  0
  -28.6120  -25.8460   19.2140 O   0  0  0  0  0  0  0  0  0  0  0  0
  -24.9210  -31.2680   22.9970 C   0  0  0  0  0  0  0  0  0  0  0  0
  -27.5600  -26.8830   19.3830 C   0  0  0  0  0  0  0  0  0  0  0  0
  -23.7540  -30.0850   21.1820 C   0  0  0  0  0  3  0  0  0  0  0  0
  -25.2320  -28.7070   19.5700 C   0  0  0  0  0  0  0  0  0  0  0  0
  -26.3160  -30.3640   21.0700 C   0  0  0  0  0  2  0  0  0  0  0  0
  -26.4140  -29.0520   20.2390 C   0  0  0  0  0  0  0  0  0  0  0  0
  -27.5770  -28.1690   20.1160 C   0  0  0  0  0  3  0  0  0  0  0  0
  -26.3440  -26.6850   18.6960 C   0  0  0  0  0  3  0  0  0  0  0  0
  -25.2210  -27.5460   18.7790 C   0  0  0  0  0  3  0  0  0  0  0  0
  -23.9980  -29.5950   19.7280 C   0  0  0  0  0  2  0  0  0  0  0  0
  -25.0190  -30.5900   21.8070 N   0  0  0  0  0  0  0  0  0  0  0  0
  -23.8250  -31.4660   23.5470 O   0  0  0  0  0  0  0  0  0  0  0  0
  -23.0780  -28.9550   22.0000 C   0  0  0  0  0  0  0  0  0  0  0  0
  -21.7490  -28.7950   21.8590 N   0  0  0  0  0  0  0  0  0  0  0  0
  -23.7550  -28.2280   22.7320 O   0  0  0  0  0  0  0  0  0  0  0  0
  -21.2570  -29.4400   21.2560 H   0  0  0  0  0  0  0  0  0  0  0  0
  -18.3790  -27.4900   22.2110 C   0  0  0  0  0  0  0  0  0  0  0  0
  -20.9390  -27.7490   22.4940 C   0  0  0  0  0  3  0  0  0  0  0  0
  -21.0500  -26.4100   21.7240 C   0  0  0  0  0  2  0  0  0  0  0  0
  -19.9450  -26.2200   20.6810 C   0  0  0  0  0  2  0  0  0  0  0  0
  -18.5660  -26.2540   21.3470 C   0  0  0  0  0  2  0  0  0  0  0  0
  -19.4920  -28.2000   22.7350 C   0  0  0  0  0  0  0  0  0  0  0  0
  -19.2620  -29.3580   23.5080 C   0  0  0  0  0  3  0  0  0  0  0  0
  -17.9530  -29.8080   23.7610 C   0  0  0  0  0  3  0  0  0  0  0  0
  -16.8550  -29.0940   23.2500 C   0  0  0  0  0  3  0  0  0  0  0  0
  -17.0690  -27.9370   22.4800 C   0  0  0  0  0  3  0  0  0  0  0  0
  -26.1770  -31.8430   23.7180 C   0  0  0  0  0  3  0  0  0  0  0  0
  -25.8340  -33.1820   24.2300 N   0  0  0  0  0  0  0  0  0  0  0  0
  -26.1980  -34.3380   23.6600 C   0  0  0  0  0  0  0  0  0  0  0  0
  -26.9200  -34.3920   22.6620 O   0  0  0  0  0  0  0  0  0  0  0  0
  -25.1910  -33.2150   25.0070 H   0  0  0  0  0  0  0  0  0  0  0  0
  -24.4850  -36.1830   23.5010 C   0  0  0  0  0  1  0  0  0  0  0  0
  -25.6830  -35.6450   24.3000 C   0  0  0  0  0  3  0  0  0  0  0  0
  -27.7740  -36.3810   25.3610 C   0  0  0  0  0  1  0  0  0  0  0  0
  -26.7160  -36.7010   24.4060 N   0  0  0  0  0  0  0  0  0  0  0  0
  -26.2980  -37.5830   24.6830 H   0  0  0  0  0  0  0  0  0  0  0  0
  -26.6890  -30.9260   24.8980 C   0  0  1  0  0  0  0  0  0  0  0  0
  -25.5890  -30.5490   25.9210 C   0  0  0  0  0  1  0  0  0  0  0  0
  -27.2890  -29.6100   24.3520 C   0  0  0  0  0  1  0  0  0  0  0  0
  -27.8270  -31.6450   25.6610 C   0  0  0  0  0  1  0  0  0  0  0  0
  -26.7510  -20.2860   17.8130 C   0  0  0  0  0  1  0  0  0  0  0  0
  -27.1810  -20.1320   19.1660 O   0  0  0  0  0  0  0  0  0  0  0  0
  1  3  1  0
  3  2  2  0
  3  7  1  0
  4  6  1  0
  4  1  2  0
  5  2  1  0
  5 45  1  0
  6  5  2  0
  7 13  1  0
  8 13  1  0
  9 10  1  0
  9  8  1  0
 11 10  1  0
 11 18  1  0
 11 12  1  0
 13 12  1  0
 14  7  2  0
 15 16  2  0
 16 17  1  0
 16 35  1  0
 17 20  1  0
 18 15  1  0
 18 19  1  0
 19 17  2  0
 20 21  1  0
 21 22  2  0
 23 26  1  0
 23 22  1  0
 24 23  2  0
 25 24  1  0
 25 20  2  0
 26 27  1  0
 27 28  1  0
 28 29  2  0
 30 29  1  0
 30 34  1  0
 31 30  2  0
 32 27  2  0
 32 31  1  0
 33 32  1  0
 35 36  1  0
 36 39  1  0
 36 38  1  0
 37 35  2  0
 40 41  1  0
 40 15  1  0
 42 40  1  0
 44 45  1  0
 45 43  1  0
 46  4  1  0
 46 47  2  0
 48 46  1  0
 48 49  1  0
 50 52  1  0
 50 49  1  0
 51 62  2  0
 52 57  1  0
 53 61  1  0
 53 63  1  0
 54 60  1  0
 54 56  1  0
 55 61  1  0
 56 55  1  0
 57 56  2  0
 58 59  1  0
 58 52  2  0
 59 54  2  0
 60 53  1  0
 61 51  1  0
 63 65  2  0
 64 63  1  0
 66 64  1  0
 67 76  2  0
 67 72  1  0
 68 64  1  0
 68 72  1  0
 69 68  1  0
 70 71  1  0
 70 69  1  0
 71 67  1  0
 72 73  2  0
 73 74  1  0
 75 74  2  0
 76 75  1  0
 77 51  1  0
 77 78  1  0
 77 87  1  0
 78 81  1  0
 79 78  1  0
 79 83  1  0
 80 79  2  0
 83 82  1  0
 83 85  1  0
 85 86  1  0
 85 84  1  0
 87 90  1  1
 87 88  1  0
 89 87  1  0
 91 92  1  0
 92  6  1  0
M  ISO  4   3 100   7 100  49 101  50 101
M  END
>  <TORSDO>  (37) 
F 21

>  <SCORE>  (37) 
-9.547

>  <name>  (37) 
36

>  <ligand_id>  (37) 
36

>  <original_smiles>  (37) 
[H]c1c([H])c([H])c2c(c1[H])C([H])([H])C([H])([H])C([H])([H])C2([H])N([H])C(=O)C1([H])N(C(=O)C([H])(N([H])C(=O)C([H])(N([H])C([H])([H])[H])C([H])([H])[H])C(C([H])([H])[H])(C([H])([H])[H])C([H])([H])[H])C([H])([H])c2c([H])c(OC([H])([H])C([H])([H])C(=O)c3c([H])c(C(=O)N4C([H])([H])C([H])([H])C([H])([H])C([H])(n5nc(-c6c([H])c([H])c(Oc7c([H])c([H])c(F)c([H])c7F)c([H])c6[H])c(C(=O)N([H])[H])c5N([H])[H])C4([H])[H])c([H])c(C([H])(C([H])([H])[H])C([H])([H])[H])c3OC([H])([H])[H])c([H])c([H])c2C1([H])[H]

>  <smiles>  (37) 
[H]c1c([H])c([H])c2c(c1[H])C([H])([H])C([H])([H])C([H])([H])C2([H])N([H])C(=O)C1([H])N(C(=O)C([H])(N([H])C(=O)C([H])(N([H])C([H])([H])[H])C([H])([H])[H])C(C([H])([H])[H])(C([H])([H])[H])C([H])([H])[H])C([H])([H])c2c([H])c(OC([H])([H])C([H])([H])C(=O)c3c([H])c(C(=O)N4C([H])([H])C([H])([H])C([H])([H])C([H])(n5nc(-c6c([H])c([H])c(Oc7c([H])c([H])c(F)c([H])c7F)c([H])c6[H])c(C(=O)N([H])[H])c5N([H])[H])C4([H])[H])c([H])c(C([H])(C([H])([H])[H])C([H])([H])[H])c3OC([H])([H])[H])c([H])c([H])c2C1([H])[H]

$$$$
37:0:0
     RDKit          3D

 90 98  0  0  1  0  0  0  0  0999 V2000
  -28.7590  -21.6110   18.4980 C   0  0  0  0  0  3  0  0  0  0  0  0
  -28.3690  -22.8000   17.8210 C   0  0  0  0  0  3  0  0  0  0  0  0
  -28.7520  -22.9780   20.4820 C   0  0  0  0  0  3  0  0  0  0  0  0
  -28.9920  -21.5460   19.8880 C   0  0  0  0  0  0  0  0  0  0  0  0
  -28.1780  -24.0820   18.4200 C   0  0  0  0  0  0  0  0  0  0  0  0
  -28.3300  -24.3280   19.8080 C   0  0  0  0  0  0  0  0  0  0  0  0
  -29.3650  -19.9460   20.5070 C   0  0  0  0  0  0  0  0  0  0  0  0
  -29.2070  -19.8280   21.7250 O   0  0  0  0  0  0  0  0  0  0  0  0
  -29.9620  -18.4280   19.7860 C   0  0  0  0  0  2  0  0  0  0  0  0
  -30.5760  -15.4850   20.0380 C   0  0  0  0  0  0  0  0  0  0  0  0
  -30.5470  -13.0110   19.1860 C   0  0  0  0  0  2  0  0  0  0  0  0
  -29.6060  -12.7800   17.9730 C   0  0  0  0  0  2  0  0  0  0  0  0
  -28.1730  -12.4910   18.4490 C   0  0  0  0  0  2  0  0  0  0  0  0
  -27.7420  -13.4560   19.5810 C   0  0  0  0  0  3  0  0  0  0  0  0
  -28.8120  -13.6340   20.6820 C   0  0  0  0  0  2  0  0  0  0  0  0
  -30.0190  -14.1620   20.0220 N   0  0  0  0  0  0  0  0  0  0  0  0
  -31.7770  -15.4700   19.7260 O   0  0  0  0  0  0  0  0  0  0  0  0
  -29.8310  -16.7790   20.2040 N   0  0  0  0  0  0  0  0  0  0  0  0
  -28.8970  -16.5910   20.5390 H   0  0  0  0  0  0  0  0  0  0  0  0
  -25.3940  -14.0090   20.3920 C   0  0  0  0  0  0  0  0  0  0  0  0
  -24.3410  -13.2310   20.7840 C   0  0  0  0  0  0  0  0  0  0  0  0
  -24.8070  -11.8810   20.7390 C   0  0  0  0  0  0  0  0  0  0  0  0
  -26.4290  -13.1340   20.1230 N   0  0  0  0  0  0  0  0  0  0  0  0
  -26.0910  -11.8470   20.3990 N   0  0  0  0  0  0  0  0  0  0  0  0
  -24.0830  -10.6190   20.9430 C   0  0  0  0  0  0  0  0  0  0  0  0
  -24.5210   -9.6570   21.8810 C   0  0  0  0  0  3  0  0  0  0  0  0
  -23.7940   -8.4620   22.0750 C   0  0  0  0  0  3  0  0  0  0  0  0
  -22.6140   -8.2200   21.3320 C   0  0  0  0  0  0  0  0  0  0  0  0
  -22.1950   -9.1690   20.3820 C   0  0  0  0  0  3  0  0  0  0  0  0
  -22.9230  -10.3560   20.1880 C   0  0  0  0  0  3  0  0  0  0  0  0
  -21.8580   -7.0780   21.4350 O   0  0  0  0  0  0  0  0  0  0  0  0
  -21.8030   -6.3540   22.5990 C   0  0  0  0  0  0  0  0  0  0  0  0
  -21.3570   -6.9240   23.8100 C   0  0  0  0  0  3  0  0  0  0  0  0
  -21.2520   -6.1260   24.9670 C   0  0  0  0  0  3  0  0  0  0  0  0
  -21.5800   -4.7580   24.9120 C   0  0  0  0  0  0  0  0  0  0  0  0
  -22.0170   -4.1870   23.7040 C   0  0  0  0  0  3  0  0  0  0  0  0
  -22.1260   -4.9830   22.5500 C   0  0  0  0  0  0  0  0  0  0  0  0
  -22.5280   -4.4230   21.3830 F   0  0  0  0  0  0  0  0  0  0  0  0
  -21.4710   -3.9890   26.0200 F   0  0  0  0  0  0  0  0  0  0  0  0
  -22.9500  -13.7090   21.0820 C   0  0  0  0  0  0  0  0  0  0  0  0
  -22.2410  -13.0120   21.9630 N   0  0  0  0  0  0  0  0  0  0  0  0
  -22.5040  -14.7340   20.5690 O   0  0  0  0  0  0  0  0  0  0  0  0
  -22.6180  -12.1840   22.3980 H   0  0  0  0  0  0  0  0  0  0  0  0
  -21.3070  -13.3110   22.2060 H   0  0  0  0  0  0  0  0  0  0  0  0
  -25.5520  -15.3790   20.2080 N   0  0  0  0  0  0  0  0  0  0  0  0
  -24.7850  -16.0320   20.3290 H   0  0  0  0  0  0  0  0  0  0  0  0
  -26.3810  -15.8100   19.8220 H   0  0  0  0  0  0  0  0  0  0  0  0
  -28.9450  -25.6280   16.8460 C   0  0  0  0  0  1  0  0  0  0  0  0
  -27.8490  -25.1290   17.5980 O   0  0  0  0  0  0  0  0  0  0  0  0
  -28.2630  -25.8310   20.2310 O   0  0  0  0  0  0  0  0  0  0  0  0
  -24.6620  -31.8460   23.1440 C   0  0  0  0  0  0  0  0  0  0  0  0
  -27.2510  -26.9480   20.1070 C   0  0  0  0  0  0  0  0  0  0  0  0
  -23.4780  -30.4430   21.5050 C   0  0  0  0  0  3  0  0  0  0  0  0
  -24.9380  -28.8460   20.0710 C   0  0  0  0  0  0  0  0  0  0  0  0
  -26.0440  -30.6600   21.3590 C   0  0  0  0  0  2  0  0  0  0  0  0
  -26.1230  -29.2480   20.6960 C   0  0  0  0  0  0  0  0  0  0  0  0
  -27.2650  -28.3180   20.6940 C   0  0  0  0  0  3  0  0  0  0  0  0
  -26.0310  -26.7130   19.4310 C   0  0  0  0  0  3  0  0  0  0  0  0
  -24.9190  -27.6010   19.4180 C   0  0  0  0  0  3  0  0  0  0  0  0
  -23.7110  -29.7620   20.1260 C   0  0  0  0  0  2  0  0  0  0  0  0
  -24.7490  -31.0130   22.0550 N   0  0  0  0  0  0  0  0  0  0  0  0
  -23.5710  -32.1270   23.6680 O   0  0  0  0  0  0  0  0  0  0  0  0
  -22.7920  -29.4440   22.4720 C   0  0  0  0  0  0  0  0  0  0  0  0
  -21.4610  -29.2740   22.3580 N   0  0  0  0  0  0  0  0  0  0  0  0
  -23.4640  -28.8190   23.2960 O   0  0  0  0  0  0  0  0  0  0  0  0
  -20.9680  -29.8300   21.6720 H   0  0  0  0  0  0  0  0  0  0  0  0
  -18.0900  -28.0320   22.8810 C   0  0  0  0  0  0  0  0  0  0  0  0
  -20.6490  -28.3270   23.1310 C   0  0  0  0  0  3  0  0  0  0  0  0
  -20.7630  -26.8970   22.5530 C   0  0  0  0  0  2  0  0  0  0  0  0
  -19.6590  -26.5650   21.5430 C   0  0  0  0  0  2  0  0  0  0  0  0
  -18.2790  -26.6890   22.1950 C   0  0  0  0  0  2  0  0  0  0  0  0
  -19.2020  -28.8080   23.3060 C   0  0  0  0  0  0  0  0  0  0  0  0
  -18.9690  -30.0610   23.9130 C   0  0  0  0  0  3  0  0  0  0  0  0
  -17.6580  -30.5410   24.0930 C   0  0  0  0  0  3  0  0  0  0  0  0
  -16.5610  -29.7640   23.6800 C   0  0  0  0  0  3  0  0  0  0  0  0
  -16.7790  -28.5110   23.0810 C   0  0  0  0  0  3  0  0  0  0  0  0
  -25.9260  -32.5020   23.7780 C   0  0  0  0  0  3  0  0  0  0  0  0
  -26.4420  -31.7390   25.0610 C   0  0  1  0  0  0  0  0  0  0  0  0
  -25.3440  -31.4980   26.1250 C   0  0  0  0  0  1  0  0  0  0  0  0
  -27.0370  -30.3640   24.6850 C   0  0  0  0  0  1  0  0  0  0  0  0
  -27.5840  -32.5450   25.7260 C   0  0  0  0  0  1  0  0  0  0  0  0
  -25.5940  -33.8970   24.1220 N   0  0  0  0  0  0  0  0  0  0  0  0
  -25.9240  -34.9700   23.3890 C   0  0  0  0  0  0  0  0  0  0  0  0
  -26.6020  -34.8900   22.3620 O   0  0  0  0  0  0  0  0  0  0  0  0
  -24.9930  -34.0320   24.9210 H   0  0  0  0  0  0  0  0  0  0  0  0
  -24.1970  -36.7720   23.0530 C   0  0  0  0  0  1  0  0  0  0  0  0
  -25.4270  -36.3490   23.8720 C   0  0  0  0  0  3  0  0  0  0  0  0
  -27.5420  -37.2290   24.7560 C   0  0  0  0  0  1  0  0  0  0  0  0
  -26.4570  -37.4070   23.7960 N   0  0  0  0  0  0  0  0  0  0  0  0
  -26.0440  -38.3230   23.9510 H   0  0  0  0  0  0  0  0  0  0  0  0
  1  4  1  0
  2  5  1  0
  2  1  2  0
  4  3  2  0
  4  7  1  0
  5  6  2  0
  6 50  1  0
  6  3  1  0
  7  8  2  0
  9 18  1  0
  9  7  1  0
 10 18  1  0
 11 16  1  0
 12 13  1  0
 12 11  1  0
 14 13  1  0
 14 23  1  0
 14 15  1  0
 16 10  1  0
 16 15  1  0
 17 10  2  0
 18 19  1  0
 20 21  2  0
 21 40  1  0
 22 21  1  0
 22 25  1  0
 23 20  1  0
 23 24  1  0
 24 22  2  0
 25 26  1  0
 26 27  2  0
 28 31  1  0
 28 27  1  0
 29 28  2  0
 30 29  1  0
 30 25  2  0
 31 32  1  0
 32 33  1  0
 33 34  2  0
 35 34  1  0
 35 39  1  0
 36 35  2  0
 37 32  2  0
 37 36  1  0
 38 37  1  0
 40 41  1  0
 41 44  1  0
 41 43  1  0
 42 40  2  0
 45 46  1  0
 45 20  1  0
 47 45  1  0
 48 49  1  0
 49  5  1  0
 51 62  2  0
 52 50  1  0
 52 57  1  0
 53 61  1  0
 53 63  1  0
 54 60  1  0
 54 56  1  0
 55 61  1  0
 56 55  1  0
 57 56  2  0
 58 52  2  0
 59 58  1  0
 59 54  2  0
 60 53  1  0
 61 51  1  0
 63 65  2  0
 64 63  1  0
 66 64  1  0
 67 76  2  0
 67 72  1  0
 68 64  1  0
 68 72  1  0
 69 68  1  0
 70 71  1  0
 70 69  1  0
 71 67  1  0
 72 73  2  0
 73 74  1  0
 75 74  2  0
 76 75  1  0
 77 51  1  0
 77 82  1  0
 77 78  1  0
 78 81  1  1
 78 79  1  0
 80 78  1  0
 82 85  1  0
 83 87  1  0
 83 82  1  0
 84 83  2  0
 87 86  1  0
 89 87  1  0
 89 90  1  0
 89 88  1  0
M  ISO  4   6 101  10 100  18 100  50 101
M  END
>  <TORSDO>  (38) 
F 19

>  <SCORE>  (38) 
-14.834

>  <name>  (38) 
37

>  <ligand_id>  (38) 
37

>  <original_smiles>  (38) 
[H]c1c([H])c([H])c2c(c1[H])C([H])([H])C([H])([H])C([H])([H])C2([H])N([H])C(=O)C1([H])N(C(=O)C([H])(N([H])C(=O)C([H])(N([H])C([H])([H])[H])C([H])([H])[H])C(C([H])([H])[H])(C([H])([H])[H])C([H])([H])[H])C([H])([H])c2c([H])c(Oc3c([H])c(C(=O)C([H])([H])N([H])C(=O)N4C([H])([H])C([H])([H])C([H])([H])C([H])(n5nc(-c6c([H])c([H])c(Oc7c([H])c([H])c(F)c([H])c7F)c([H])c6[H])c(C(=O)N([H])[H])c5N([H])[H])C4([H])[H])c([H])c([H])c3OC([H])([H])[H])c([H])c([H])c2C1([H])[H]

>  <smiles>  (38) 
[H]c1c([H])c([H])c2c(c1[H])C([H])([H])C([H])([H])C([H])([H])C2([H])N([H])C(=O)C1([H])N(C(=O)C([H])(N([H])C(=O)C([H])(N([H])C([H])([H])[H])C([H])([H])[H])C(C([H])([H])[H])(C([H])([H])[H])C([H])([H])[H])C([H])([H])c2c([H])c(Oc3c([H])c(C(=O)C([H])([H])N([H])C(=O)N4C([H])([H])C([H])([H])C([H])([H])C([H])(n5nc(-c6c([H])c([H])c(Oc7c([H])c([H])c(F)c([H])c7F)c([H])c6[H])c(C(=O)N([H])[H])c5N([H])[H])C4([H])[H])c([H])c([H])c3OC([H])([H])[H])c([H])c([H])c2C1([H])[H]

$$$$
38:0:0
     RDKit          3D

 92100  0  0  1  0  0  0  0  0999 V2000
  -28.0810  -22.9610   21.1840 C   0  0  0  0  0  3  0  0  0  0  0  0
  -27.9830  -24.3860   21.2400 C   0  0  0  0  0  3  0  0  0  0  0  0
  -28.9710  -23.1200   18.9490 C   0  0  0  0  0  3  0  0  0  0  0  0
  -28.5820  -22.2920   20.0340 C   0  0  0  0  0  0  0  0  0  0  0  0
  -28.3780  -25.2090   20.1520 C   0  0  0  0  0  0  0  0  0  0  0  0
  -28.8930  -24.5390   19.0140 C   0  0  0  0  0  0  0  0  0  0  0  0
  -28.5090  -20.7760   19.8400 C   0  0  0  0  0  0  0  0  0  0  0  0
  -27.7060  -20.3100   19.0270 O   0  0  0  0  0  0  0  0  0  0  0  0
  -29.4580  -19.7700   20.5840 C   0  0  0  0  0  2  0  0  0  0  0  0
  -29.1830  -18.2160   20.3290 C   0  0  0  0  0  3  0  0  0  0  0  0
  -30.2380  -17.1620   20.8590 C   0  0  0  0  0  3  0  0  0  0  0  0
  -30.6210  -14.6430   20.4000 C   0  0  0  0  0  0  0  0  0  0  0  0
  -30.3850  -12.4250   19.3120 C   0  0  0  0  0  2  0  0  0  0  0  0
  -29.4370  -12.5730   18.1020 C   0  0  0  0  0  2  0  0  0  0  0  0
  -27.9670  -12.4100   18.5400 C   0  0  0  0  0  2  0  0  0  0  0  0
  -27.6180  -13.2670   19.7870 C   0  0  0  0  0  3  0  0  0  0  0  0
  -28.6800  -13.1030   20.8960 C   0  0  0  0  0  2  0  0  0  0  0  0
  -29.9860  -13.4370   20.3090 N   0  0  0  0  0  0  0  0  0  0  0  0
  -31.7830  -14.7940   20.0110 O   0  0  0  0  0  0  0  0  0  0  0  0
  -29.8520  -15.7140   20.7590 N   0  0  0  0  0  0  0  0  0  0  0  0
  -28.9040  -15.4870   21.0220 H   0  0  0  0  0  0  0  0  0  0  0  0
  -25.2300  -13.8650   20.5210 C   0  0  0  0  0  0  0  0  0  0  0  0
  -24.1650  -13.0910   20.8930 C   0  0  0  0  0  0  0  0  0  0  0  0
  -24.6270  -11.7390   20.8540 C   0  0  0  0  0  0  0  0  0  0  0  0
  -26.2720  -12.9850   20.2770 N   0  0  0  0  0  0  0  0  0  0  0  0
  -25.9160  -11.7020   20.5390 N   0  0  0  0  0  0  0  0  0  0  0  0
  -23.9020  -10.4760   21.0440 C   0  0  0  0  0  0  0  0  0  0  0  0
  -24.3460   -9.5020   21.9650 C   0  0  0  0  0  3  0  0  0  0  0  0
  -23.6220   -8.3030   22.1420 C   0  0  0  0  0  3  0  0  0  0  0  0
  -22.4420   -8.0700   21.3980 C   0  0  0  0  0  0  0  0  0  0  0  0
  -22.0180   -9.0330   20.4650 C   0  0  0  0  0  3  0  0  0  0  0  0
  -22.7420  -10.2230   20.2850 C   0  0  0  0  0  3  0  0  0  0  0  0
  -21.6900   -6.9240   21.4840 O   0  0  0  0  0  0  0  0  0  0  0  0
  -21.6510   -6.1720   22.6300 C   0  0  0  0  0  0  0  0  0  0  0  0
  -21.2310   -6.7160   23.8640 C   0  0  0  0  0  3  0  0  0  0  0  0
  -21.1430   -5.8910   25.0030 C   0  0  0  0  0  3  0  0  0  0  0  0
  -21.4630   -4.5230   24.9100 C   0  0  0  0  0  0  0  0  0  0  0  0
  -21.8770   -3.9800   23.6810 C   0  0  0  0  0  3  0  0  0  0  0  0
  -21.9670   -4.8020   22.5440 C   0  0  0  0  0  0  0  0  0  0  0  0
  -22.3470   -4.2680   21.3580 F   0  0  0  0  0  0  0  0  0  0  0  0
  -21.3700   -3.7290   26.0020 F   0  0  0  0  0  0  0  0  0  0  0  0
  -22.7690  -13.5670   21.1750 C   0  0  0  0  0  0  0  0  0  0  0  0
  -22.0470  -12.8610   22.0390 N   0  0  0  0  0  0  0  0  0  0  0  0
  -22.3280  -14.5960   20.6650 O   0  0  0  0  0  0  0  0  0  0  0  0
  -22.4180  -12.0280   22.4710 H   0  0  0  0  0  0  0  0  0  0  0  0
  -21.1110  -13.1590   22.2750 H   0  0  0  0  0  0  0  0  0  0  0  0
  -25.3930  -15.2370   20.3460 N   0  0  0  0  0  0  0  0  0  0  0  0
  -24.6210  -15.8850   20.4520 H   0  0  0  0  0  0  0  0  0  0  0  0
  -26.2320  -15.6760   19.9900 H   0  0  0  0  0  0  0  0  0  0  0  0
  -29.3240  -25.2810   17.9550 O   0  0  0  0  0  0  0  0  0  0  0  0
  -29.2510  -26.2110   18.1490 H   0  0  0  0  0  0  0  0  0  0  0  0
  -28.3760  -26.6160   20.2010 O   0  0  0  0  0  0  0  0  0  0  0  0
  -24.5930  -31.9180   23.2500 C   0  0  0  0  0  0  0  0  0  0  0  0
  -27.2120  -27.3830   20.2050 C   0  0  0  0  0  0  0  0  0  0  0  0
  -23.3850  -30.5140   21.6140 C   0  0  0  0  0  3  0  0  0  0  0  0
  -24.8320  -28.9520   20.1970 C   0  0  0  0  0  0  0  0  0  0  0  0
  -25.9170  -30.8410   21.4210 C   0  0  0  0  0  2  0  0  0  0  0  0
  -25.9960  -29.4600   20.7880 C   0  0  0  0  0  0  0  0  0  0  0  0
  -27.1860  -28.6830   20.7880 C   0  0  0  0  0  3  0  0  0  0  0  0
  -26.0300  -26.9110   19.5960 C   0  0  0  0  0  3  0  0  0  0  0  0
  -24.8480  -27.6810   19.5950 C   0  0  0  0  0  3  0  0  0  0  0  0
  -23.5940  -29.8250   20.2370 C   0  0  0  0  0  2  0  0  0  0  0  0
  -24.6500  -31.1090   22.1510 N   0  0  0  0  0  0  0  0  0  0  0  0
  -23.5110  -32.1980   23.7870 O   0  0  0  0  0  0  0  0  0  0  0  0
  -22.7260  -29.5020   22.5800 C   0  0  0  0  0  0  0  0  0  0  0  0
  -21.4000  -29.3240   22.4540 N   0  0  0  0  0  0  0  0  0  0  0  0
  -23.4060  -28.8790   23.4000 O   0  0  0  0  0  0  0  0  0  0  0  0
  -20.9120  -29.8780   21.7630 H   0  0  0  0  0  0  0  0  0  0  0  0
  -18.0220  -28.1420   22.9620 C   0  0  0  0  0  0  0  0  0  0  0  0
  -20.5810  -28.3900   23.2270 C   0  0  0  0  0  3  0  0  0  0  0  0
  -20.6750  -26.9580   22.6510 C   0  0  0  0  0  2  0  0  0  0  0  0
  -19.5700  -26.6400   21.6400 C   0  0  0  0  0  2  0  0  0  0  0  0
  -18.1900  -26.7920   22.2870 C   0  0  0  0  0  2  0  0  0  0  0  0
  -19.1440  -28.9000   23.3890 C   0  0  0  0  0  0  0  0  0  0  0  0
  -18.9320  -30.1650   23.9790 C   0  0  0  0  0  3  0  0  0  0  0  0
  -17.6300  -30.6730   24.1470 C   0  0  0  0  0  3  0  0  0  0  0  0
  -16.5210  -29.9110   23.7360 C   0  0  0  0  0  3  0  0  0  0  0  0
  -16.7180  -28.6480   23.1500 C   0  0  0  0  0  3  0  0  0  0  0  0
  -25.8790  -32.5490   23.8680 C   0  0  0  0  0  3  0  0  0  0  0  0
  -25.5740  -33.9490   24.1950 N   0  0  0  0  0  0  0  0  0  0  0  0
  -25.9080  -34.9990   23.4330 C   0  0  0  0  0  0  0  0  0  0  0  0
  -26.5760  -34.8900   22.4010 O   0  0  0  0  0  0  0  0  0  0  0  0
  -24.9800  -34.1070   24.9960 H   0  0  0  0  0  0  0  0  0  0  0  0
  -24.1870  -36.7970   23.0730 C   0  0  0  0  0  1  0  0  0  0  0  0
  -25.4260  -36.3900   23.8870 C   0  0  0  0  0  3  0  0  0  0  0  0
  -27.5610  -37.2700   24.7210 C   0  0  0  0  0  1  0  0  0  0  0  0
  -26.4630  -37.4390   23.7730 N   0  0  0  0  0  0  0  0  0  0  0  0
  -26.0610  -38.3620   23.9140 H   0  0  0  0  0  0  0  0  0  0  0  0
  -26.3960  -31.7800   25.1460 C   0  0  1  0  0  0  0  0  0  0  0  0
  -25.3030  -31.5440   26.2140 C   0  0  0  0  0  1  0  0  0  0  0  0
  -26.9770  -30.4020   24.7550 C   0  0  0  0  0  1  0  0  0  0  0  0
  -27.5480  -32.5730   25.8040 C   0  0  0  0  0  1  0  0  0  0  0  0
  1  2  1  0
  3  6  2  0
  3  4  1  0
  4  1  2  0
  5 52  1  0
  5  2  2  0
  6  5  1  0
  7  4  1  0
  7  9  1  0
  8  7  2  0
 10  9  1  0
 10 11  2  0
 12 20  1  0
 13 18  1  0
 14 15  1  0
 14 13  1  0
 16 15  1  0
 16 25  1  0
 16 17  1  0
 18 12  1  0
 18 17  1  0
 19 12  2  0
 20 11  1  0
 20 21  1  0
 22 23  2  0
 23 42  1  0
 24 23  1  0
 24 27  1  0
 25 22  1  0
 25 26  1  0
 26 24  2  0
 27 28  1  0
 28 29  2  0
 30 33  1  0
 30 29  1  0
 31 30  2  0
 32 31  1  0
 32 27  2  0
 33 34  1  0
 34 35  1  0
 35 36  2  0
 37 36  1  0
 37 41  1  0
 38 37  2  0
 39 34  2  0
 39 38  1  0
 40 39  1  0
 42 43  1  0
 43 46  1  0
 43 45  1  0
 44 42  2  0
 47 48  1  0
 47 22  1  0
 49 47  1  0
 50 51  1  0
 50  6  1  0
 52 54  1  0
 53 64  2  0
 54 59  1  0
 55 63  1  0
 55 65  1  0
 56 62  1  0
 56 58  1  0
 57 63  1  0
 58 57  1  0
 59 58  2  0
 60 54  2  0
 61 60  1  0
 61 56  2  0
 62 55  1  0
 63 53  1  0
 65 67  2  0
 66 65  1  0
 68 66  1  0
 69 78  2  0
 69 74  1  0
 70 66  1  0
 70 74  1  0
 71 70  1  0
 72 73  1  0
 72 71  1  0
 73 69  1  0
 74 75  2  0
 75 76  1  0
 77 76  2  0
 78 77  1  0
 79 53  1  0
 79 80  1  0
 79 89  1  0
 80 83  1  0
 81 85  1  0
 81 80  1  0
 82 81  2  0
 85 84  1  0
 87 85  1  0
 87 88  1  0
 87 86  1  0
 89 92  1  1
 89 90  1  0
 91 89  1  0
M  ISO  4   5 101  12 100  20 100  52 101
M  END
>  <TORSDO>  (39) 
F 21

>  <SCORE>  (39) 
-13.788

>  <name>  (39) 
38

>  <ligand_id>  (39) 
38

>  <original_smiles>  (39) 
[H]Oc1c([H])c(C(=O)C([H])([H])C([H])([H])C([H])([H])N([H])C(=O)N2C([H])([H])C([H])([H])C([H])([H])C([H])(n3nc(-c4c([H])c([H])c(Oc5c([H])c([H])c(F)c([H])c5F)c([H])c4[H])c(C(=O)N([H])[H])c3N([H])[H])C2([H])[H])c([H])c([H])c1Oc1c([H])c([H])c2c(c1[H])C([H])([H])N(C(=O)C([H])(N([H])C(=O)C([H])(N([H])C([H])([H])[H])C([H])([H])[H])C(C([H])([H])[H])(C([H])([H])[H])C([H])([H])[H])C([H])(C(=O)N([H])C1([H])c3c([H])c([H])c([H])c([H])c3C([H])([H])C([H])([H])C1([H])[H])C2([H])[H]

>  <smiles>  (39) 
[H]Oc1c([H])c(C(=O)C([H])([H])C([H])([H])C([H])([H])N([H])C(=O)N2C([H])([H])C([H])([H])C([H])([H])C([H])(n3nc(-c4c([H])c([H])c(Oc5c([H])c([H])c(F)c([H])c5F)c([H])c4[H])c(C(=O)N([H])[H])c3N([H])[H])C2([H])[H])c([H])c([H])c1Oc1c([H])c([H])c2c(c1[H])C([H])([H])N(C(=O)C([H])(N([H])C(=O)C([H])(N([H])C([H])([H])[H])C([H])([H])[H])C(C([H])([H])[H])(C([H])([H])[H])C([H])([H])[H])C([H])(C(=O)N([H])C1([H])c3c([H])c([H])c([H])c([H])c3C([H])([H])C([H])([H])C1([H])[H])C2([H])[H]

$$$$
39:0:0
     RDKit          3D

 91100  0  0  1  0  0  0  0  0999 V2000
  -28.3970  -22.0200   21.7970 C   0  0  0  0  0  3  0  0  0  0  0  0
  -27.8510  -23.1880   22.3860 C   0  0  0  0  0  3  0  0  0  0  0  0
  -28.9250  -23.4040   19.8770 C   0  0  0  0  0  3  0  0  0  0  0  0
  -28.9710  -22.0290   20.5130 C   0  0  0  0  0  0  0  0  0  0  0  0
  -28.3500  -24.6810   20.4590 C   0  0  0  0  0  0  0  0  0  0  0  0
  -27.8320  -24.4630   21.7600 C   0  0  0  0  0  0  0  0  0  0  0  0
  -27.3330  -25.5060   22.4630 F   0  0  0  0  0  0  0  0  0  0  0  0
  -28.3900  -26.0990   19.9760 O   0  0  0  0  0  0  0  0  0  0  0  0
  -24.7080  -31.8120   23.0590 C   0  0  0  0  0  0  0  0  0  0  0  0
  -27.3260  -27.0990   20.0070 C   0  0  0  0  0  0  0  0  0  0  0  0
  -23.5180  -30.4240   21.4040 C   0  0  0  0  0  3  0  0  0  0  0  0
  -24.9820  -28.8640   19.9710 C   0  0  0  0  0  0  0  0  0  0  0  0
  -26.0720  -30.7040   21.2430 C   0  0  0  0  0  2  0  0  0  0  0  0
  -26.1600  -29.3070   20.5870 C   0  0  0  0  0  0  0  0  0  0  0  0
  -27.3310  -28.4440   20.5820 C   0  0  0  0  0  3  0  0  0  0  0  0
  -26.1160  -26.7730   19.3510 C   0  0  0  0  0  3  0  0  0  0  0  0
  -24.9750  -27.6140   19.3330 C   0  0  0  0  0  3  0  0  0  0  0  0
  -23.7470  -29.7580   20.0210 C   0  0  0  0  0  2  0  0  0  0  0  0
  -24.7840  -31.0070   21.9540 N   0  0  0  0  0  0  0  0  0  0  0  0
  -23.6210  -32.0760   23.5960 O   0  0  0  0  0  0  0  0  0  0  0  0
  -22.8540  -29.4040   22.3610 C   0  0  0  0  0  0  0  0  0  0  0  0
  -21.5240  -29.2290   22.2520 N   0  0  0  0  0  0  0  0  0  0  0  0
  -23.5380  -28.7710   23.1690 O   0  0  0  0  0  0  0  0  0  0  0  0
  -21.0210  -29.7980   21.5850 H   0  0  0  0  0  0  0  0  0  0  0  0
  -18.1540  -28.0090   22.7990 C   0  0  0  0  0  0  0  0  0  0  0  0
  -20.7180  -28.2730   23.0160 C   0  0  0  0  0  3  0  0  0  0  0  0
  -20.8080  -26.8540   22.4090 C   0  0  0  0  0  2  0  0  0  0  0  0
  -19.6880  -26.5540   21.4080 C   0  0  0  0  0  2  0  0  0  0  0  0
  -18.3190  -26.6780   22.0830 C   0  0  0  0  0  2  0  0  0  0  0  0
  -19.2790  -28.7660   23.2200 C   0  0  0  0  0  0  0  0  0  0  0  0
  -19.0700  -30.0130   23.8500 C   0  0  0  0  0  3  0  0  0  0  0  0
  -17.7650  -30.5030   24.0590 C   0  0  0  0  0  3  0  0  0  0  0  0
  -16.6550  -29.7450   23.6470 C   0  0  0  0  0  3  0  0  0  0  0  0
  -16.8510  -28.4990   23.0250 C   0  0  0  0  0  3  0  0  0  0  0  0
  -25.9800  -32.4600   23.6890 C   0  0  0  0  0  3  0  0  0  0  0  0
  -25.6400  -33.8420   24.0660 N   0  0  0  0  0  0  0  0  0  0  0  0
  -25.9450  -34.9320   23.3490 C   0  0  0  0  0  0  0  0  0  0  0  0
  -26.6070  -34.8780   22.3090 O   0  0  0  0  0  0  0  0  0  0  0  0
  -25.0520  -33.9560   24.8800 H   0  0  0  0  0  0  0  0  0  0  0  0
  -24.1830  -36.7100   23.0830 C   0  0  0  0  0  1  0  0  0  0  0  0
  -25.4400  -36.2940   23.8650 C   0  0  0  0  0  3  0  0  0  0  0  0
  -27.5630  -37.1960   24.7090 C   0  0  0  0  0  1  0  0  0  0  0  0
  -26.4520  -37.3700   23.7800 N   0  0  0  0  0  0  0  0  0  0  0  0
  -26.0250  -38.2760   23.9580 H   0  0  0  0  0  0  0  0  0  0  0  0
  -26.5220  -31.6700   24.9450 C   0  0  1  0  0  0  0  0  0  0  0  0
  -25.4440  -31.3880   26.0180 C   0  0  0  0  0  1  0  0  0  0  0  0
  -27.1290  -30.3130   24.5230 C   0  0  0  0  0  1  0  0  0  0  0  0
  -27.6570  -32.4730   25.6200 C   0  0  0  0  0  1  0  0  0  0  0  0
  -29.6990  -20.5990   19.9820 C   0  0  0  0  0  2  0  0  0  0  0  0
  -30.7790  -15.1470   19.8640 C   0  0  0  0  0  0  0  0  0  0  0  0
  -30.5710  -12.8020   18.8660 C   0  0  0  0  0  2  0  0  0  0  0  0
  -29.5370  -12.7290   17.7180 C   0  0  0  0  0  2  0  0  0  0  0  0
  -28.1280  -12.4710   18.2730 C   0  0  0  0  0  2  0  0  0  0  0  0
  -27.8050  -13.3860   19.4820 C   0  0  0  0  0  3  0  0  0  0  0  0
  -28.9470  -13.4410   20.5190 C   0  0  0  0  0  2  0  0  0  0  0  0
  -30.1560  -13.8890   19.8160 N   0  0  0  0  0  0  0  0  0  0  0  0
  -31.9200  -15.1710   19.3850 O   0  0  0  0  0  0  0  0  0  0  0  0
  -30.0340  -17.6310   19.5990 C   0  0  0  0  0  0  0  0  0  0  0  0
  -29.8760  -18.3670   21.8030 C   0  0  0  0  0  2  0  0  0  0  0  0
  -29.9940  -16.7910   21.6750 C   0  0  0  0  0  2  0  0  0  0  0  0
  -29.4570  -18.9350   20.4210 C   0  0  0  0  0  3  0  0  0  0  0  0
  -30.1160  -16.3770   20.2590 N   0  0  0  0  0  0  0  0  0  0  0  0
  -30.3450  -17.7780   18.4120 O   0  0  0  0  0  0  0  0  0  0  0  0
  -25.5210  -13.9310   20.4920 C   0  0  0  0  0  0  0  0  0  0  0  0
  -24.4830  -13.1430   20.9100 C   0  0  0  0  0  0  0  0  0  0  0  0
  -24.9240  -11.7940   20.7500 C   0  0  0  0  0  0  0  0  0  0  0  0
  -26.5210  -13.0610   20.0930 N   0  0  0  0  0  0  0  0  0  0  0  0
  -26.1810  -11.7670   20.3150 N   0  0  0  0  0  0  0  0  0  0  0  0
  -24.2000  -10.5260   20.9330 C   0  0  0  0  0  0  0  0  0  0  0  0
  -24.6320   -9.5550   21.8630 C   0  0  0  0  0  3  0  0  0  0  0  0
  -23.9070   -8.3560   22.0360 C   0  0  0  0  0  3  0  0  0  0  0  0
  -22.7350   -8.1190   21.2800 C   0  0  0  0  0  0  0  0  0  0  0  0
  -22.3220   -9.0780   20.3370 C   0  0  0  0  0  3  0  0  0  0  0  0
  -23.0480  -10.2690   20.1630 C   0  0  0  0  0  3  0  0  0  0  0  0
  -21.9840   -6.9740   21.3650 O   0  0  0  0  0  0  0  0  0  0  0  0
  -21.8230   -6.2990   22.5500 C   0  0  0  0  0  0  0  0  0  0  0  0
  -21.2640   -6.9190   23.6880 C   0  0  0  0  0  3  0  0  0  0  0  0
  -21.0520   -6.1710   24.8630 C   0  0  0  0  0  3  0  0  0  0  0  0
  -21.3900   -4.8060   24.9010 C   0  0  0  0  0  0  0  0  0  0  0  0
  -21.9440   -4.1870   23.7670 C   0  0  0  0  0  3  0  0  0  0  0  0
  -22.1570   -4.9310   22.5930 C   0  0  0  0  0  0  0  0  0  0  0  0
  -22.6700   -4.3240   21.4950 F   0  0  0  0  0  0  0  0  0  0  0  0
  -21.1810   -4.0840   26.0270 F   0  0  0  0  0  0  0  0  0  0  0  0
  -23.1260  -13.6140   21.3400 C   0  0  0  0  0  0  0  0  0  0  0  0
  -22.4750  -12.8840   22.2400 N   0  0  0  0  0  0  0  0  0  0  0  0
  -22.6520  -14.6650   20.9130 O   0  0  0  0  0  0  0  0  0  0  0  0
  -22.8730  -12.0330   22.6110 H   0  0  0  0  0  0  0  0  0  0  0  0
  -21.5670  -13.1840   22.5660 H   0  0  0  0  0  0  0  0  0  0  0  0
  -25.6900  -15.3070   20.3890 N   0  0  0  0  0  0  0  0  0  0  0  0
  -24.9670  -15.9680   20.6480 H   0  0  0  0  0  0  0  0  0  0  0  0
  -26.5330  -15.7520   20.0530 H   0  0  0  0  0  0  0  0  0  0  0  0
  1  2  1  0
  3  5  2  0
  3  4  1  0
  4  1  2  0
  5  6  1  0
  6  2  2  0
  6  7  1  0
  8 10  1  0
  8  5  1  0
  9 20  2  0
 10 15  1  0
 11 19  1  0
 11 21  1  0
 12 18  1  0
 12 14  1  0
 13 19  1  0
 14 13  1  0
 15 14  2  0
 16 10  2  0
 17 16  1  0
 17 12  2  0
 18 11  1  0
 19  9  1  0
 21 23  2  0
 22 21  1  0
 24 22  1  0
 25 34  2  0
 25 30  1  0
 26 22  1  0
 26 30  1  0
 27 26  1  0
 28 29  1  0
 28 27  1  0
 29 25  1  0
 30 31  2  0
 31 32  1  0
 33 32  2  0
 34 33  1  0
 35  9  1  0
 35 36  1  0
 35 45  1  0
 36 39  1  0
 37 41  1  0
 37 36  1  0
 38 37  2  0
 41 40  1  0
 43 41  1  0
 43 44  1  0
 43 42  1  0
 45 48  1  1
 45 46  1  0
 47 45  1  0
 49  4  1  0
 50 62  1  0
 51 56  1  0
 52 53  1  0
 52 51  1  0
 54 53  1  0
 54 67  1  0
 54 55  1  0
 56 50  1  0
 56 55  1  0
 57 50  2  0
 58 62  1  0
 58 61  1  0
 60 59  1  0
 61 49  1  0
 61 59  1  0
 62 60  1  0
 63 58  2  0
 64 65  2  0
 65 84  1  0
 66 65  1  0
 66 69  1  0
 67 68  1  0
 67 64  1  0
 68 66  2  0
 69 70  1  0
 70 71  2  0
 72 75  1  0
 72 71  1  0
 73 72  2  0
 74 73  1  0
 74 69  2  0
 75 76  1  0
 76 81  2  0
 76 77  1  0
 77 78  2  0
 78 79  1  0
 79 83  1  0
 80 79  2  0
 81 80  1  0
 82 81  1  0
 84 85  1  0
 85 88  1  0
 85 87  1  0
 86 84  2  0
 89 64  1  0
 89 90  1  0
 91 89  1  0
M  ISO  4   5 101   8 101  50 100  62 100
M  END
>  <TORSDO>  (40) 
F 17

>  <SCORE>  (40) 
-14.567

>  <name>  (40) 
39

>  <ligand_id>  (40) 
39

>  <original_smiles>  (40) 
[H]c1c([H])c([H])c2c(c1[H])C([H])([H])C([H])([H])C([H])([H])C2([H])N([H])C(=O)C1([H])N(C(=O)C([H])(N([H])C(=O)C([H])(N([H])C([H])([H])[H])C([H])([H])[H])C(C([H])([H])[H])(C([H])([H])[H])C([H])([H])[H])C([H])([H])c2c([H])c(Oc3c([H])c(C([H])([H])C4([H])C(=O)N(C(=O)N5C([H])([H])C([H])([H])C([H])([H])C([H])(n6nc(-c7c([H])c([H])c(Oc8c([H])c([H])c(F)c([H])c8F)c([H])c7[H])c(C(=O)N([H])[H])c6N([H])[H])C5([H])[H])C([H])([H])C4([H])[H])c([H])c([H])c3F)c([H])c([H])c2C1([H])[H]

>  <smiles>  (40) 
[H]c1c([H])c([H])c2c(c1[H])C([H])([H])C([H])([H])C([H])([H])C2([H])N([H])C(=O)C1([H])N(C(=O)C([H])(N([H])C(=O)C([H])(N([H])C([H])([H])[H])C([H])([H])[H])C(C([H])([H])[H])(C([H])([H])[H])C([H])([H])[H])C([H])([H])c2c([H])c(Oc3c([H])c(C([H])([H])C4([H])C(=O)N(C(=O)N5C([H])([H])C([H])([H])C([H])([H])C([H])(n6nc(-c7c([H])c([H])c(Oc8c([H])c([H])c(F)c([H])c8F)c([H])c7[H])c(C(=O)N([H])[H])c6N([H])[H])C5([H])[H])C([H])([H])C4([H])[H])c([H])c([H])c3F)c([H])c([H])c2C1([H])[H]

$$$$
40:0:0
     RDKit          3D

 97105  0  0  1  0  0  0  0  0999 V2000
  -27.5750  -17.9640   19.5880 C   0  0  0  0  0  1  0  0  0  0  0  0
  -28.9850  -18.4080   20.0050 C   0  0  0  0  0  3  0  0  0  0  0  0
  -32.1870  -17.7170   19.5750 C   0  0  0  0  0  3  0  0  0  0  0  0
  -31.9890  -18.0650   20.9330 C   0  0  0  0  0  3  0  0  0  0  0  0
  -30.3260  -16.1580   19.8070 C   0  0  0  0  0  3  0  0  0  0  0  0
  -31.3110  -16.7740   18.9670 C   0  0  0  0  0  0  0  0  0  0  0  0
  -29.7820  -17.1900   20.6790 C   0  0  0  0  0  3  0  0  0  0  0  0
  -30.7690  -17.7030   21.5400 C   0  0  0  0  0  0  0  0  0  0  0  0
  -30.7930  -14.7340   20.2860 C   0  0  0  0  0  0  0  0  0  0  0  0
  -30.4480  -12.4860   19.3340 C   0  0  0  0  0  2  0  0  0  0  0  0
  -29.5220  -12.5550   18.1090 C   0  0  0  0  0  2  0  0  0  0  0  0
  -28.0560  -12.3980   18.5470 C   0  0  0  0  0  2  0  0  0  0  0  0
  -27.6780  -13.3170   19.7390 C   0  0  0  0  0  3  0  0  0  0  0  0
  -28.7420  -13.3070   20.8500 C   0  0  0  0  0  2  0  0  0  0  0  0
  -30.0410  -13.5880   20.2290 N   0  0  0  0  0  0  0  0  0  0  0  0
  -32.0170  -14.6040   20.2920 O   0  0  0  0  0  0  0  0  0  0  0  0
  -25.3020  -13.8880   20.4950 C   0  0  0  0  0  0  0  0  0  0  0  0
  -24.2350  -13.1120   20.8520 C   0  0  0  0  0  0  0  0  0  0  0  0
  -24.7030  -11.7630   20.8280 C   0  0  0  0  0  0  0  0  0  0  0  0
  -26.3450  -13.0140   20.2520 N   0  0  0  0  0  0  0  0  0  0  0  0
  -25.9970  -11.7300   20.5280 N   0  0  0  0  0  0  0  0  0  0  0  0
  -23.9770  -10.5020   21.0230 C   0  0  0  0  0  0  0  0  0  0  0  0
  -24.4020   -9.5440   21.9690 C   0  0  0  0  0  3  0  0  0  0  0  0
  -23.6790   -8.3460   22.1490 C   0  0  0  0  0  3  0  0  0  0  0  0
  -22.5160   -8.0960   21.3840 C   0  0  0  0  0  0  0  0  0  0  0  0
  -22.1090   -9.0420   20.4260 C   0  0  0  0  0  3  0  0  0  0  0  0
  -22.8340  -10.2330   20.2450 C   0  0  0  0  0  3  0  0  0  0  0  0
  -21.7630   -6.9510   21.4740 O   0  0  0  0  0  0  0  0  0  0  0  0
  -21.6940   -6.2250   22.6350 C   0  0  0  0  0  0  0  0  0  0  0  0
  -21.2430   -6.7930   23.8460 C   0  0  0  0  0  3  0  0  0  0  0  0
  -21.1250   -5.9900   24.9970 C   0  0  0  0  0  3  0  0  0  0  0  0
  -21.4460   -4.6210   24.9390 C   0  0  0  0  0  0  0  0  0  0  0  0
  -21.8900   -4.0530   23.7310 C   0  0  0  0  0  3  0  0  0  0  0  0
  -22.0110   -4.8520   22.5830 C   0  0  0  0  0  0  0  0  0  0  0  0
  -22.4170   -4.2960   21.4150 F   0  0  0  0  0  0  0  0  0  0  0  0
  -21.3250   -3.8470   26.0430 F   0  0  0  0  0  0  0  0  0  0  0  0
  -22.8360  -13.5880   21.1040 C   0  0  0  0  0  0  0  0  0  0  0  0
  -22.0990  -12.9000   21.9690 N   0  0  0  0  0  0  0  0  0  0  0  0
  -22.4020  -14.6060   20.5650 O   0  0  0  0  0  0  0  0  0  0  0  0
  -22.4590  -12.0750   22.4240 H   0  0  0  0  0  0  0  0  0  0  0  0
  -21.1610  -13.2060   22.1770 H   0  0  0  0  0  0  0  0  0  0  0  0
  -25.4690  -15.2580   20.3340 N   0  0  0  0  0  0  0  0  0  0  0  0
  -24.7150  -15.9160   20.4960 H   0  0  0  0  0  0  0  0  0  0  0  0
  -26.3540  -15.6990   20.1230 H   0  0  0  0  0  0  0  0  0  0  0  0
  -30.4540  -18.0870   22.8410 N   0  0  0  0  0  0  0  0  0  0  0  0
  -31.2440  -18.2090   23.4660 H   0  0  0  0  0  0  0  0  0  0  0  0
  -29.7430  -17.5200   23.2930 H   0  0  0  0  0  0  0  0  0  0  0  0
  -31.8680  -17.2300   16.5030 C   0  0  0  0  0  1  0  0  0  0  0  0
  -31.7110  -16.1840   17.6180 C   0  0  0  0  0  2  0  0  0  0  0  0
  -28.9510  -19.7550   20.7420 N   0  0  0  0  0  4  0  0  0  0  0  0
  -28.3510  -19.6480   21.5440 H   0  0  0  0  0  0  0  0  0  0  0  0
  -29.8790  -19.8850   21.1150 H   0  0  0  0  0  0  0  0  0  0  0  0
  -28.5690  -21.0350   19.9920 C   0  0  0  0  0  3  0  0  0  0  0  0
  -28.7240  -22.4310   20.7740 C   0  0  0  0  0  3  0  0  0  0  0  0
  -28.4450  -23.8350   20.0380 C   0  0  0  0  0  3  0  0  0  0  0  0
  -28.3660  -25.1440   20.9520 C   0  0  0  0  0  3  0  0  0  0  0  0
  -28.4620  -26.5080   20.3900 O   0  0  0  0  0  0  0  0  0  0  0  0
  -24.6110  -31.8780   23.3210 C   0  0  0  0  0  0  0  0  0  0  0  0
  -27.3260  -27.3180   20.3780 C   0  0  0  0  0  0  0  0  0  0  0  0
  -23.4540  -30.4520   21.6680 C   0  0  0  0  0  3  0  0  0  0  0  0
  -24.9470  -28.8880   20.3010 C   0  0  0  0  0  0  0  0  0  0  0  0
  -25.9910  -30.7940   21.5310 C   0  0  0  0  0  2  0  0  0  0  0  0
  -26.0980  -29.4050   20.9110 C   0  0  0  0  0  0  0  0  0  0  0  0
  -27.2920  -28.6320   20.9360 C   0  0  0  0  0  3  0  0  0  0  0  0
  -26.1550  -26.8410   19.7580 C   0  0  0  0  0  3  0  0  0  0  0  0
  -24.9760  -27.6080   19.7180 C   0  0  0  0  0  3  0  0  0  0  0  0
  -23.7050  -29.7520   20.3040 C   0  0  0  0  0  2  0  0  0  0  0  0
  -24.7040  -31.0610   22.2310 N   0  0  0  0  0  0  0  0  0  0  0  0
  -23.5150  -32.1490   23.8320 O   0  0  0  0  0  0  0  0  0  0  0  0
  -22.7780  -29.4420   22.6240 C   0  0  0  0  0  0  0  0  0  0  0  0
  -21.4520  -29.2650   22.4800 N   0  0  0  0  0  0  0  0  0  0  0  0
  -23.4440  -28.8200   23.4550 O   0  0  0  0  0  0  0  0  0  0  0  0
  -20.9730  -29.8210   21.7840 H   0  0  0  0  0  0  0  0  0  0  0  0
  -18.0660  -28.0820   22.9490 C   0  0  0  0  0  0  0  0  0  0  0  0
  -20.6240  -28.3320   23.2430 C   0  0  0  0  0  3  0  0  0  0  0  0
  -20.7220  -26.8980   22.6730 C   0  0  0  0  0  2  0  0  0  0  0  0
  -19.6320  -26.5780   21.6460 C   0  0  0  0  0  2  0  0  0  0  0  0
  -18.2440  -26.7320   22.2760 C   0  0  0  0  0  2  0  0  0  0  0  0
  -19.1830  -28.8400   23.3900 C   0  0  0  0  0  0  0  0  0  0  0  0
  -18.9650  -30.1050   23.9770 C   0  0  0  0  0  3  0  0  0  0  0  0
  -17.6610  -30.6130   24.1290 C   0  0  0  0  0  3  0  0  0  0  0  0
  -16.5580  -29.8520   23.7050 C   0  0  0  0  0  3  0  0  0  0  0  0
  -16.7600  -28.5880   23.1230 C   0  0  0  0  0  3  0  0  0  0  0  0
  -25.8750  -32.5280   23.9660 C   0  0  0  0  0  3  0  0  0  0  0  0
  -25.5540  -33.9320   24.2600 N   0  0  0  0  0  0  0  0  0  0  0  0
  -25.8930  -34.9710   23.4820 C   0  0  0  0  0  0  0  0  0  0  0  0
  -26.5810  -34.8470   22.4650 O   0  0  0  0  0  0  0  0  0  0  0  0
  -24.9520  -34.1010   25.0530 H   0  0  0  0  0  0  0  0  0  0  0  0
  -24.1640  -36.7470   23.0540 C   0  0  0  0  0  1  0  0  0  0  0  0
  -25.3910  -36.3670   23.9000 C   0  0  0  0  0  3  0  0  0  0  0  0
  -27.5070  -37.2780   24.7450 C   0  0  0  0  0  1  0  0  0  0  0  0
  -26.4190  -37.4260   23.7850 N   0  0  0  0  0  0  0  0  0  0  0  0
  -26.0020  -38.3440   23.9180 H   0  0  0  0  0  0  0  0  0  0  0  0
  -26.3580  -31.7850   25.2710 C   0  0  1  0  0  0  0  0  0  0  0  0
  -25.2410  -31.5600   26.3160 C   0  0  0  0  0  1  0  0  0  0  0  0
  -26.9590  -30.4040   24.9240 C   0  0  0  0  0  1  0  0  0  0  0  0
  -27.4900  -32.5960   25.9480 C   0  0  0  0  0  1  0  0  0  0  0  0
  2  1  1  0
  2 50  1  0
  3  4  1  0
  4  8  2  0
  5  9  1  0
  5  7  1  0
  6  3  2  0
  6  5  1  0
  7  2  1  0
  7  8  1  0
  8 45  1  0
  9 16  2  0
 10 15  1  0
 11 12  1  0
 11 10  1  0
 13 12  1  0
 13 20  1  0
 13 14  1  0
 15  9  1  0
 15 14  1  0
 17 18  2  0
 18 37  1  0
 19 18  1  0
 19 22  1  0
 20 17  1  0
 20 21  1  0
 21 19  2  0
 22 23  1  0
 23 24  2  0
 25 28  1  0
 25 24  1  0
 26 25  2  0
 27 26  1  0
 27 22  2  0
 28 29  1  0
 29 30  1  0
 30 31  2  0
 32 31  1  0
 32 36  1  0
 33 32  2  0
 34 29  2  0
 34 33  1  0
 35 34  1  0
 37 38  1  0
 38 41  1  0
 38 40  1  0
 39 37  2  0
 42 17  1  0
 42 43  1  0
 44 42  1  0
 45 47  1  0
 45 46  1  0
 48 49  1  0
 49  6  1  0
 50 52  1  0
 50 51  1  0
 53 50  1  0
 53 54  2  0
 55 54  1  0
 55 56  2  0
 57 56  1  0
 58 69  2  0
 59 57  1  0
 59 64  1  0
 60 68  1  0
 60 70  1  0
 61 67  1  0
 61 63  1  0
 62 68  1  0
 63 64  2  0
 63 62  1  0
 65 59  2  0
 66 65  1  0
 66 61  2  0
 67 60  1  0
 68 58  1  0
 70 72  2  0
 71 70  1  0
 73 71  1  0
 74 83  2  0
 74 79  1  0
 75 71  1  0
 75 79  1  0
 76 75  1  0
 77 78  1  0
 77 76  1  0
 78 74  1  0
 79 80  2  0
 80 81  1  0
 82 81  2  0
 83 82  1  0
 84 58  1  0
 84 85  1  0
 84 94  1  0
 85 88  1  0
 86 90  1  0
 86 85  1  0
 87 86  2  0
 90 89  1  0
 92 90  1  0
 92 93  1  0
 92 91  1  0
 94 97  1  1
 94 95  1  0
 96 94  1  0
M  ISO  4   5 100   9 100  56 101  57 101
M  END
>  <TORSDO>  (41) 
F 24

>  <SCORE>  (41) 
-13.115

>  <name>  (41) 
40

>  <ligand_id>  (41) 
40

>  <original_smiles>  (41) 
[H]c1c([H])c([H])c2c(c1[H])C([H])([H])C([H])([H])C([H])([H])C2([H])N([H])C(=O)C1([H])N(C(=O)C([H])(N([H])C(=O)C([H])(N([H])C([H])([H])[H])C([H])([H])[H])C(C([H])([H])[H])(C([H])([H])[H])C([H])([H])[H])C([H])([H])c2c([H])c(OC([H])([H])C([H])([H])C([H])([H])C([H])([H])[N+]([H])([H])C([H])(c3c(C(=O)N4C([H])([H])C([H])([H])C([H])([H])C([H])(n5nc(-c6c([H])c([H])c(Oc7c([H])c([H])c(F)c([H])c7F)c([H])c6[H])c(C(=O)N([H])[H])c5N([H])[H])C4([H])[H])c(C([H])([H])C([H])([H])[H])c([H])c([H])c3N([H])[H])C([H])([H])[H])c([H])c([H])c2C1([H])[H]

>  <smiles>  (41) 
[H]c1c([H])c([H])c2c(c1[H])C([H])([H])C([H])([H])C([H])([H])C2([H])N([H])C(=O)C1([H])N(C(=O)C([H])(N([H])C(=O)C([H])(N([H])C([H])([H])[H])C([H])([H])[H])C(C([H])([H])[H])(C([H])([H])[H])C([H])([H])[H])C([H])([H])c2c([H])c(OC([H])([H])C([H])([H])C([H])([H])C([H])([H])[N+]([H])([H])C([H])(c3c(C(=O)N4C([H])([H])C([H])([H])C([H])([H])C([H])(n5nc(-c6c([H])c([H])c(Oc7c([H])c([H])c(F)c([H])c7F)c([H])c6[H])c(C(=O)N([H])[H])c5N([H])[H])C4([H])[H])c(C([H])([H])C([H])([H])[H])c([H])c([H])c3N([H])[H])C([H])([H])[H])c([H])c([H])c2C1([H])[H]

$$$$
41:0:0
     RDKit          3D

 93101  0  0  1  0  0  0  0  0999 V2000
  -29.3880  -21.8770   20.6490 C   0  0  0  0  0  3  0  0  0  0  0  0
  -30.7170  -20.7830   18.9250 C   0  0  0  0  0  3  0  0  0  0  0  0
  -30.1670  -23.1560   18.7340 C   0  0  0  0  0  3  0  0  0  0  0  0
  -30.0470  -20.6990   20.1720 C   0  0  0  0  0  0  0  0  0  0  0  0
  -29.4160  -23.1070   19.9250 C   0  0  0  0  0  0  0  0  0  0  0  0
  -30.7760  -22.0030   18.2160 C   0  0  0  0  0  0  0  0  0  0  0  0
  -31.4760  -22.1080   16.8780 C   0  0  0  0  0  1  0  0  0  0  0  0
  -30.0500  -19.4250   20.9960 C   0  0  0  0  0  0  0  0  0  0  0  0
  -29.7780  -19.4450   22.2000 O   0  0  0  0  0  0  0  0  0  0  0  0
  -30.3440  -18.0440   20.3230 C   0  0  0  0  0  2  0  0  0  0  0  0
  -30.8990  -16.8920   21.2370 C   0  0  0  0  0  2  0  0  0  0  0  0
  -31.0040  -14.5650   20.1580 C   0  0  0  0  0  0  0  0  0  0  0  0
  -30.6270  -12.4360   18.9420 C   0  0  0  0  0  2  0  0  0  0  0  0
  -29.6440  -12.6640   17.7760 C   0  0  0  0  0  2  0  0  0  0  0  0
  -28.1850  -12.5350   18.2510 C   0  0  0  0  0  2  0  0  0  0  0  0
  -27.9080  -13.3470   19.5420 C   0  0  0  0  0  3  0  0  0  0  0  0
  -28.9930  -13.0940   20.6120 C   0  0  0  0  0  2  0  0  0  0  0  0
  -30.3050  -13.4040   20.0080 N   0  0  0  0  0  0  0  0  0  0  0  0
  -32.0760  -14.7730   19.5840 O   0  0  0  0  0  0  0  0  0  0  0  0
  -30.4120  -15.5240   20.9090 N   0  0  0  0  0  0  0  0  0  0  0  0
  -29.5480  -15.2460   21.3530 H   0  0  0  0  0  0  0  0  0  0  0  0
  -25.5390  -13.9830   20.3130 C   0  0  0  0  0  0  0  0  0  0  0  0
  -24.4680  -13.2240   20.7070 C   0  0  0  0  0  0  0  0  0  0  0  0
  -24.9080  -11.8670   20.6530 C   0  0  0  0  0  0  0  0  0  0  0  0
  -26.5640  -13.0880   20.0530 N   0  0  0  0  0  0  0  0  0  0  0  0
  -26.1890  -11.8080   20.3110 N   0  0  0  0  0  0  0  0  0  0  0  0
  -24.1670  -10.6140   20.8540 C   0  0  0  0  0  0  0  0  0  0  0  0
  -24.5660   -9.6660   21.8200 C   0  0  0  0  0  3  0  0  0  0  0  0
  -23.8240   -8.4800   22.0080 C   0  0  0  0  0  3  0  0  0  0  0  0
  -22.6690   -8.2350   21.2280 C   0  0  0  0  0  0  0  0  0  0  0  0
  -22.2920   -9.1710   20.2500 C   0  0  0  0  0  3  0  0  0  0  0  0
  -23.0330  -10.3490   20.0620 C   0  0  0  0  0  3  0  0  0  0  0  0
  -21.9000   -7.1010   21.3240 O   0  0  0  0  0  0  0  0  0  0  0  0
  -21.7570   -6.4280   22.5100 C   0  0  0  0  0  0  0  0  0  0  0  0
  -21.2020   -7.0440   23.6530 C   0  0  0  0  0  3  0  0  0  0  0  0
  -21.0070   -6.2950   24.8310 C   0  0  0  0  0  3  0  0  0  0  0  0
  -21.3560   -4.9320   24.8660 C   0  0  0  0  0  0  0  0  0  0  0  0
  -21.9010   -4.3160   23.7270 C   0  0  0  0  0  3  0  0  0  0  0  0
  -22.0980   -5.0610   22.5510 C   0  0  0  0  0  0  0  0  0  0  0  0
  -22.6060   -4.4550   21.4510 F   0  0  0  0  0  0  0  0  0  0  0  0
  -21.1610   -4.2130   25.9960 F   0  0  0  0  0  0  0  0  0  0  0  0
  -23.0890  -13.7210   21.0270 C   0  0  0  0  0  0  0  0  0  0  0  0
  -22.3840  -13.0270   21.9160 N   0  0  0  0  0  0  0  0  0  0  0  0
  -22.6480  -14.7570   20.5340 O   0  0  0  0  0  0  0  0  0  0  0  0
  -22.7630  -12.1930   22.3370 H   0  0  0  0  0  0  0  0  0  0  0  0
  -21.4610  -13.3390   22.1800 H   0  0  0  0  0  0  0  0  0  0  0  0
  -25.7170  -15.3490   20.1360 N   0  0  0  0  0  0  0  0  0  0  0  0
  -24.9480  -16.0090   20.2080 H   0  0  0  0  0  0  0  0  0  0  0  0
  -26.5470  -15.7610   19.7310 H   0  0  0  0  0  0  0  0  0  0  0  0
  -28.7030  -24.3440   20.4190 C   0  0  0  0  0  0  0  0  0  0  0  0
  -28.2310  -24.4200   21.5600 O   0  0  0  0  0  0  0  0  0  0  0  0
  -28.5410  -25.5470   19.4430 C   0  0  0  0  0  2  0  0  0  0  0  0
  -28.3320  -26.7750   20.1480 O   0  0  0  0  0  0  0  0  0  0  0  0
  -24.5550  -31.9080   23.2260 C   0  0  0  0  0  0  0  0  0  0  0  0
  -27.1230  -27.4330   20.1290 C   0  0  0  0  0  0  0  0  0  0  0  0
  -23.3170  -30.5080   21.6060 C   0  0  0  0  0  3  0  0  0  0  0  0
  -24.7340  -28.9510   20.1670 C   0  0  0  0  0  0  0  0  0  0  0  0
  -25.8410  -30.8450   21.3760 C   0  0  0  0  0  2  0  0  0  0  0  0
  -25.9010  -29.4730   20.7320 C   0  0  0  0  0  0  0  0  0  0  0  0
  -27.0940  -28.7220   20.7070 C   0  0  0  0  0  3  0  0  0  0  0  0
  -25.9300  -26.9070   19.5820 C   0  0  0  0  0  3  0  0  0  0  0  0
  -24.7420  -27.6680   19.5900 C   0  0  0  0  0  3  0  0  0  0  0  0
  -23.5010  -29.8270   20.2240 C   0  0  0  0  0  2  0  0  0  0  0  0
  -24.5900  -31.1020   22.1280 N   0  0  0  0  0  0  0  0  0  0  0  0
  -23.4850  -32.1910   23.7790 O   0  0  0  0  0  0  0  0  0  0  0  0
  -22.6730  -29.4930   22.5780 C   0  0  0  0  0  0  0  0  0  0  0  0
  -21.3560  -29.2760   22.4300 N   0  0  0  0  0  0  0  0  0  0  0  0
  -23.3530  -28.9030   23.4220 O   0  0  0  0  0  0  0  0  0  0  0  0
  -20.8660  -29.8090   21.7250 H   0  0  0  0  0  0  0  0  0  0  0  0
  -18.0110  -27.9790   22.8510 C   0  0  0  0  0  0  0  0  0  0  0  0
  -20.5460  -28.3370   23.2060 C   0  0  0  0  0  3  0  0  0  0  0  0
  -20.7200  -26.8900   22.6890 C   0  0  0  0  0  2  0  0  0  0  0  0
  -19.6690  -26.4910   21.6480 C   0  0  0  0  0  2  0  0  0  0  0  0
  -18.2600  -26.6110   22.2360 C   0  0  0  0  0  2  0  0  0  0  0  0
  -19.0860  -28.7950   23.2910 C   0  0  0  0  0  0  0  0  0  0  0  0
  -18.8040  -30.0720   23.8230 C   0  0  0  0  0  3  0  0  0  0  0  0
  -17.4780  -30.5350   23.9190 C   0  0  0  0  0  3  0  0  0  0  0  0
  -16.4170  -29.7160   23.4950 C   0  0  0  0  0  3  0  0  0  0  0  0
  -16.6850  -28.4400   22.9690 C   0  0  0  0  0  3  0  0  0  0  0  0
  -25.8550  -32.5290   23.8260 C   0  0  0  0  0  3  0  0  0  0  0  0
  -25.5630  -33.9300   24.1580 N   0  0  0  0  0  0  0  0  0  0  0  0
  -25.9050  -34.9790   23.3970 C   0  0  0  0  0  0  0  0  0  0  0  0
  -26.5740  -34.8680   22.3660 O   0  0  0  0  0  0  0  0  0  0  0  0
  -24.9690  -34.0920   24.9590 H   0  0  0  0  0  0  0  0  0  0  0  0
  -24.2090  -36.7990   23.0240 C   0  0  0  0  0  1  0  0  0  0  0  0
  -25.4300  -36.3730   23.8550 C   0  0  0  0  0  3  0  0  0  0  0  0
  -27.5590  -37.2240   24.7310 C   0  0  0  0  0  1  0  0  0  0  0  0
  -26.4780  -37.4100   23.7660 N   0  0  0  0  0  0  0  0  0  0  0  0
  -26.0840  -38.3350   23.9070 H   0  0  0  0  0  0  0  0  0  0  0  0
  -26.3900  -31.7540   25.0930 C   0  0  1  0  0  0  0  0  0  0  0  0
  -25.3130  -31.5130   26.1760 C   0  0  0  0  0  1  0  0  0  0  0  0
  -26.9660  -30.3760   24.6880 C   0  0  0  0  0  1  0  0  0  0  0  0
  -27.5490  -32.5460   25.7430 C   0  0  0  0  0  1  0  0  0  0  0  0
  2  4  2  0
  3  5  1  0
  4  1  1  0
  4  8  1  0
  5 50  1  0
  5  1  2  0
  6  3  2  0
  6  2  1  0
  7  6  1  0
  8  9  2  0
 10  8  1  0
 10 11  1  0
 12 20  1  0
 13 18  1  0
 14 15  1  0
 14 13  1  0
 16 15  1  0
 16 25  1  0
 16 17  1  0
 18 12  1  0
 18 17  1  0
 19 12  2  0
 20 11  1  0
 20 21  1  0
 22 23  2  0
 23 42  1  0
 24 23  1  0
 24 27  1  0
 25 26  1  0
 25 22  1  0
 26 24  2  0
 27 28  1  0
 28 29  2  0
 30 33  1  0
 30 29  1  0
 31 30  2  0
 32 31  1  0
 32 27  2  0
 33 34  1  0
 34 39  2  0
 34 35  1  0
 35 36  2  0
 36 37  1  0
 37 41  1  0
 38 37  2  0
 39 38  1  0
 40 39  1  0
 42 43  1  0
 43 46  1  0
 43 45  1  0
 44 42  2  0
 47 48  1  0
 47 22  1  0
 49 47  1  0
 50 51  2  0
 52 53  1  0
 52 50  1  0
 54 65  2  0
 55 53  1  0
 55 60  1  0
 56 64  1  0
 56 66  1  0
 57 63  1  0
 57 59  1  0
 58 64  1  0
 59 58  1  0
 60 59  2  0
 61 62  1  0
 61 55  2  0
 62 57  2  0
 63 56  1  0
 64 54  1  0
 66 68  2  0
 67 66  1  0
 69 67  1  0
 70 79  2  0
 70 75  1  0
 71 67  1  0
 71 75  1  0
 72 71  1  0
 73 74  1  0
 73 72  1  0
 74 70  1  0
 75 76  2  0
 76 77  1  0
 78 77  2  0
 79 78  1  0
 80 54  1  0
 80 81  1  0
 80 90  1  0
 81 84  1  0
 82 86  1  0
 82 81  1  0
 83 82  2  0
 86 85  1  0
 88 86  1  0
 88 89  1  0
 88 87  1  0
 90 93  1  1
 90 91  1  0
 92 90  1  0
M  ISO  4  12 100  20 100  52 101  53 101
M  END
>  <TORSDO>  (42) 
F 21

>  <SCORE>  (42) 
-12.722

>  <name>  (42) 
41

>  <ligand_id>  (42) 
41

>  <original_smiles>  (42) 
[H]c1c([H])c([H])c2c(c1[H])C([H])([H])C([H])([H])C([H])([H])C2([H])N([H])C(=O)C1([H])N(C(=O)C([H])(N([H])C(=O)C([H])(N([H])C([H])([H])[H])C([H])([H])[H])C(C([H])([H])[H])(C([H])([H])[H])C([H])([H])[H])C([H])([H])c2c([H])c(OC([H])([H])C(=O)c3c([H])c(C(=O)C([H])([H])C([H])([H])N([H])C(=O)N4C([H])([H])C([H])([H])C([H])([H])C([H])(n5nc(-c6c([H])c([H])c(Oc7c([H])c([H])c(F)c([H])c7F)c([H])c6[H])c(C(=O)N([H])[H])c5N([H])[H])C4([H])[H])c([H])c(C([H])([H])[H])c3[H])c([H])c([H])c2C1([H])[H]

>  <smiles>  (42) 
[H]c1c([H])c([H])c2c(c1[H])C([H])([H])C([H])([H])C([H])([H])C2([H])N([H])C(=O)C1([H])N(C(=O)C([H])(N([H])C(=O)C([H])(N([H])C([H])([H])[H])C([H])([H])[H])C(C([H])([H])[H])(C([H])([H])[H])C([H])([H])[H])C([H])([H])c2c([H])c(OC([H])([H])C(=O)c3c([H])c(C(=O)C([H])([H])C([H])([H])N([H])C(=O)N4C([H])([H])C([H])([H])C([H])([H])C([H])(n5nc(-c6c([H])c([H])c(Oc7c([H])c([H])c(F)c([H])c7F)c([H])c6[H])c(C(=O)N([H])[H])c5N([H])[H])C4([H])[H])c([H])c(C([H])([H])[H])c3[H])c([H])c([H])c2C1([H])[H]

$$$$
42:0:0
     RDKit          3D

 95103  0  0  1  0  0  0  0  0999 V2000
  -28.2780  -19.2080   20.7420 C   0  0  0  0  0  3  0  0  0  0  0  0
  -27.7320  -20.3730   21.2980 C   0  0  0  0  0  3  0  0  0  0  0  0
  -29.1560  -20.5820   18.9420 C   0  0  0  0  0  3  0  0  0  0  0  0
  -29.0520  -19.2380   19.5680 C   0  0  0  0  0  0  0  0  0  0  0  0
  -28.5650  -21.8440   19.4720 C   0  0  0  0  0  0  0  0  0  0  0  0
  -27.8760  -21.6480   20.7040 C   0  0  0  0  0  0  0  0  0  0  0  0
  -27.3320  -22.7000   21.4250 N   0  0  0  0  0  0  0  0  0  0  0  0
  -26.7910  -22.4680   22.2560 H   0  0  0  0  0  0  0  0  0  0  0  0
  -26.9380  -23.4780   20.9100 H   0  0  0  0  0  0  0  0  0  0  0  0
  -29.5550  -17.7680   19.0520 C   0  0  0  0  0  3  0  0  0  0  0  0
  -31.0020  -17.0300   19.4070 C   0  0  0  0  0  0  0  0  0  0  0  0
  -31.4960  -15.4470   19.2570 C   0  0  0  0  0  0  0  0  0  0  0  0
  -31.2710  -12.9630   18.8520 C   0  0  0  0  0  2  0  0  0  0  0  0
  -30.3020  -12.6930   17.6770 C   0  0  0  0  0  2  0  0  0  0  0  0
  -28.8510  -12.6120   18.1860 C   0  0  0  0  0  2  0  0  0  0  0  0
  -28.4950  -13.7640   19.1630 C   0  0  0  0  0  3  0  0  0  0  0  0
  -29.5920  -13.9880   20.2220 C   0  0  0  0  0  2  0  0  0  0  0  0
  -30.8530  -14.2370   19.5140 N   0  0  0  0  0  0  0  0  0  0  0  0
  -32.6530  -15.3200   18.8310 O   0  0  0  0  0  0  0  0  0  0  0  0
  -26.2610  -14.5430   20.1500 C   0  0  0  0  0  0  0  0  0  0  0  0
  -25.1570  -13.8580   20.5830 C   0  0  0  0  0  0  0  0  0  0  0  0
  -25.4690  -12.4720   20.4430 C   0  0  0  0  0  0  0  0  0  0  0  0
  -27.1820  -13.5770   19.7720 N   0  0  0  0  0  0  0  0  0  0  0  0
  -26.7200  -12.3220   20.0150 N   0  0  0  0  0  0  0  0  0  0  0  0
  -24.6270  -11.2830   20.6350 C   0  0  0  0  0  0  0  0  0  0  0  0
  -24.9840  -10.2640   21.5450 C   0  0  0  0  0  3  0  0  0  0  0  0
  -24.1500   -9.1410   21.7280 C   0  0  0  0  0  3  0  0  0  0  0  0
  -22.9400   -9.0290   21.0030 C   0  0  0  0  0  0  0  0  0  0  0  0
  -22.5990  -10.0330   20.0810 C   0  0  0  0  0  3  0  0  0  0  0  0
  -23.4320  -11.1480   19.8960 C   0  0  0  0  0  3  0  0  0  0  0  0
  -22.0780   -7.9630   21.0950 O   0  0  0  0  0  0  0  0  0  0  0  0
  -21.9120   -7.2730   22.2690 C   0  0  0  0  0  0  0  0  0  0  0  0
  -21.4810   -7.9090   23.4530 C   0  0  0  0  0  3  0  0  0  0  0  0
  -21.2600   -7.1490   24.6200 C   0  0  0  0  0  3  0  0  0  0  0  0
  -21.4580   -5.7550   24.6020 C   0  0  0  0  0  0  0  0  0  0  0  0
  -21.8830   -5.1200   23.4220 C   0  0  0  0  0  3  0  0  0  0  0  0
  -22.1060   -5.8780   22.2580 C   0  0  0  0  0  0  0  0  0  0  0  0
  -22.4950   -5.2580   21.1180 F   0  0  0  0  0  0  0  0  0  0  0  0
  -21.2370   -5.0240   25.7200 F   0  0  0  0  0  0  0  0  0  0  0  0
  -23.8460  -14.4620   20.9920 C   0  0  0  0  0  0  0  0  0  0  0  0
  -23.1310  -13.8140   21.9060 N   0  0  0  0  0  0  0  0  0  0  0  0
  -23.4700  -15.5420   20.5370 O   0  0  0  0  0  0  0  0  0  0  0  0
  -23.4490  -12.9420   22.3010 H   0  0  0  0  0  0  0  0  0  0  0  0
  -22.2480  -14.2000   22.2160 H   0  0  0  0  0  0  0  0  0  0  0  0
  -26.5490  -15.8970   20.0190 N   0  0  0  0  0  0  0  0  0  0  0  0
  -25.8370  -16.6010   20.1800 H   0  0  0  0  0  0  0  0  0  0  0  0
  -27.3820  -16.2690   19.5790 H   0  0  0  0  0  0  0  0  0  0  0  0
  -31.9780  -17.9430   20.0330 N   0  0  0  0  0  4  0  0  0  0  0  0
  -32.9120  -17.6300   19.8240 H   0  0  0  0  0  0  0  0  0  0  0  0
  -31.8480  -18.8080   19.5330 H   0  0  0  0  0  0  0  0  0  0  0  0
  -32.4210  -19.6980   21.6840 C   0  0  0  0  0  1  0  0  0  0  0  0
  -31.8440  -18.2850   21.4600 C   0  0  0  0  0  2  0  0  0  0  0  0
  -28.7740  -23.3780   18.8590 C   0  0  0  0  0  2  0  0  0  0  0  0
  -27.7750  -24.7370   19.0440 C   0  0  0  0  0  2  0  0  0  0  0  0
  -28.1000  -26.2640   18.8990 O   0  0  0  0  0  0  0  0  0  0  0  0
  -24.7020  -31.4750   22.9000 C   0  0  0  0  0  0  0  0  0  0  0  0
  -27.0680  -27.2600   19.0630 C   0  0  0  0  0  0  0  0  0  0  0  0
  -23.3970  -30.2880   21.1840 C   0  0  0  0  0  3  0  0  0  0  0  0
  -24.7480  -28.9660   19.4500 C   0  0  0  0  0  0  0  0  0  0  0  0
  -25.9340  -30.6200   20.8730 C   0  0  0  0  0  2  0  0  0  0  0  0
  -25.9680  -29.3340   20.0290 C   0  0  0  0  0  0  0  0  0  0  0  0
  -27.1350  -28.5030   19.8180 C   0  0  0  0  0  3  0  0  0  0  0  0
  -25.8210  -27.0160   18.4550 C   0  0  0  0  0  3  0  0  0  0  0  0
  -24.6890  -27.8270   18.6400 C   0  0  0  0  0  3  0  0  0  0  0  0
  -23.5220  -29.8230   19.7120 C   0  0  0  0  0  2  0  0  0  0  0  0
  -24.7000  -30.8090   21.7060 N   0  0  0  0  0  0  0  0  0  0  0  0
  -23.6540  -31.6630   23.5410 O   0  0  0  0  0  0  0  0  0  0  0  0
  -22.8110  -29.1380   22.0430 C   0  0  0  0  0  0  0  0  0  0  0  0
  -21.4780  -28.9500   21.9930 N   0  0  0  0  0  0  0  0  0  0  0  0
  -23.5540  -28.4230   22.7190 O   0  0  0  0  0  0  0  0  0  0  0  0
  -20.9310  -29.6110   21.4550 H   0  0  0  0  0  0  0  0  0  0  0  0
  -18.1720  -27.5570   22.4670 C   0  0  0  0  0  0  0  0  0  0  0  0
  -20.7310  -27.8860   22.6670 C   0  0  0  0  0  3  0  0  0  0  0  0
  -20.8560  -26.5390   21.9180 C   0  0  0  0  0  2  0  0  0  0  0  0
  -19.7300  -26.3020   20.9070 C   0  0  0  0  0  2  0  0  0  0  0  0
  -18.3610  -26.3260   21.5940 C   0  0  0  0  0  2  0  0  0  0  0  0
  -19.2830  -28.3040   22.9500 C   0  0  0  0  0  0  0  0  0  0  0  0
  -19.0460  -29.4680   23.7090 C   0  0  0  0  0  3  0  0  0  0  0  0
  -17.7320  -29.8930   23.9900 C   0  0  0  0  0  3  0  0  0  0  0  0
  -16.6410  -29.1380   23.5270 C   0  0  0  0  0  3  0  0  0  0  0  0
  -16.8590  -27.9740   22.7720 C   0  0  0  0  0  3  0  0  0  0  0  0
  -26.0180  -32.0480   23.5070 C   0  0  0  0  0  3  0  0  0  0  0  0
  -25.7170  -33.3800   24.0480 N   0  0  0  0  0  0  0  0  0  0  0  0
  -25.9960  -34.5400   23.4350 C   0  0  0  0  0  0  0  0  0  0  0  0
  -26.6050  -34.5970   22.3630 O   0  0  0  0  0  0  0  0  0  0  0  0
  -25.1590  -33.4080   24.8900 H   0  0  0  0  0  0  0  0  0  0  0  0
  -24.2310  -36.3370   23.4660 C   0  0  0  0  0  1  0  0  0  0  0  0
  -25.5290  -35.8390   24.1200 C   0  0  0  0  0  3  0  0  0  0  0  0
  -27.7040  -36.6430   24.9360 C   0  0  0  0  0  1  0  0  0  0  0  0
  -26.5430  -36.9170   24.0910 N   0  0  0  0  0  0  0  0  0  0  0  0
  -26.1380  -37.7970   24.3960 H   0  0  0  0  0  0  0  0  0  0  0  0
  -26.6380  -31.1230   24.6280 C   0  0  1  0  0  0  0  0  0  0  0  0
  -25.6270  -30.7340   25.7320 C   0  0  0  0  0  1  0  0  0  0  0  0
  -27.1990  -29.8160   24.0200 C   0  0  0  0  0  1  0  0  0  0  0  0
  -27.8310  -31.8420   25.2990 C   0  0  0  0  0  1  0  0  0  0  0  0
  1  2  1  0
  3  5  2  0
  3  4  1  0
  4  1  2  0
  5  6  1  0
  6  2  2  0
  6  7  1  0
  7  8  1  0
  9  7  1  0
 10 11  2  0
 10  4  1  0
 11 48  1  0
 12 11  1  0
 12 18  1  0
 13 18  1  0
 14 15  1  0
 14 13  1  0
 16 15  1  0
 16 23  1  0
 16 17  1  0
 18 17  1  0
 19 12  2  0
 20 21  2  0
 21 40  1  0
 22 21  1  0
 22 25  1  0
 23 24  1  0
 23 20  1  0
 24 22  2  0
 25 26  1  0
 26 27  2  0
 28 31  1  0
 28 27  1  0
 29 28  2  0
 30 29  1  0
 30 25  2  0
 31 32  1  0
 32 33  1  0
 33 34  2  0
 35 34  1  0
 35 39  1  0
 36 35  2  0
 37 32  2  0
 37 36  1  0
 38 37  1  0
 40 41  1  0
 41 44  1  0
 41 43  1  0
 42 40  2  0
 45 20  1  0
 45 46  1  0
 47 45  1  0
 48 52  1  0
 49 48  1  0
 50 48  1  0
 52 51  1  0
 53 54  1  0
 53  5  1  0
 55 54  1  0
 55 57  1  0
 56 67  2  0
 57 62  1  0
 58 66  1  0
 58 68  1  0
 59 65  1  0
 59 61  1  0
 60 66  1  0
 61 60  1  0
 62 61  2  0
 63 64  1  0
 63 57  2  0
 64 59  2  0
 65 58  1  0
 66 56  1  0
 68 70  2  0
 69 68  1  0
 71 69  1  0
 72 81  2  0
 72 77  1  0
 73 69  1  0
 73 77  1  0
 74 73  1  0
 75 76  1  0
 75 74  1  0
 76 72  1  0
 77 78  2  0
 78 79  1  0
 80 79  2  0
 81 80  1  0
 82 56  1  0
 82 83  1  0
 82 92  1  0
 83 86  1  0
 84 83  1  0
 84 88  1  0
 85 84  2  0
 88 87  1  0
 90 88  1  0
 90 91  1  0
 90 89  1  0
 92 95  1  1
 92 93  1  0
 94 92  1  0
M  ISO  4  11 100  12 100  54 101  55 101
M  END
>  <TORSDO>  (43) 
F 23

>  <SCORE>  (43) 
-10.107

>  <name>  (43) 
42

>  <ligand_id>  (43) 
42

>  <original_smiles>  (43) 
[H]c1c([H])c([H])c2c(c1[H])C([H])([H])C([H])([H])C([H])([H])C2([H])N([H])C(=O)C1([H])N(C(=O)C([H])(N([H])C(=O)C([H])(N([H])C([H])([H])[H])C([H])([H])[H])C(C([H])([H])[H])(C([H])([H])[H])C([H])([H])[H])C([H])([H])c2c([H])c(OC([H])([H])C([H])([H])c3c([H])c(C([H])([H])C([H])(C(=O)N4C([H])([H])C([H])([H])C([H])([H])C([H])(n5nc(-c6c([H])c([H])c(Oc7c([H])c([H])c(F)c([H])c7F)c([H])c6[H])c(C(=O)N([H])[H])c5N([H])[H])C4([H])[H])[N+]([H])([H])C([H])([H])C([H])([H])[H])c([H])c([H])c3N([H])[H])c([H])c([H])c2C1([H])[H]

>  <smiles>  (43) 
[H]c1c([H])c([H])c2c(c1[H])C([H])([H])C([H])([H])C([H])([H])C2([H])N([H])C(=O)C1([H])N(C(=O)C([H])(N([H])C(=O)C([H])(N([H])C([H])([H])[H])C([H])([H])[H])C(C([H])([H])[H])(C([H])([H])[H])C([H])([H])[H])C([H])([H])c2c([H])c(OC([H])([H])C([H])([H])c3c([H])c(C([H])([H])C([H])(C(=O)N4C([H])([H])C([H])([H])C([H])([H])C([H])(n5nc(-c6c([H])c([H])c(Oc7c([H])c([H])c(F)c([H])c7F)c([H])c6[H])c(C(=O)N([H])[H])c5N([H])[H])C4([H])[H])[N+]([H])([H])C([H])([H])C([H])([H])[H])c([H])c([H])c3N([H])[H])c([H])c([H])c2C1([H])[H]

$$$$
43:0:0
     RDKit          3D

 93101  0  0  1  0  0  0  0  0999 V2000
  -28.2820  -21.1360   19.0380 C   0  0  0  0  0  3  0  0  0  0  0  0
  -28.6380  -19.7340   19.1040 C   0  0  0  0  0  3  0  0  0  0  0  0
  -29.5520  -21.5710   20.9720 C   0  0  0  0  0  3  0  0  0  0  0  0
  -28.7310  -22.1510   19.9490 C   0  0  0  0  0  0  0  0  0  0  0  0
  -29.5350  -19.1680   20.0670 C   0  0  0  0  0  0  0  0  0  0  0  0
  -29.9430  -20.1650   21.0350 C   0  0  0  0  0  0  0  0  0  0  0  0
  -28.5570  -23.7200   19.6210 C   0  0  0  0  0  0  0  0  0  0  0  0
  -28.8710  -24.0830   18.4820 O   0  0  0  0  0  0  0  0  0  0  0  0
  -27.9510  -24.9090   20.5590 C   0  0  0  0  0  2  0  0  0  0  0  0
  -28.1800  -26.3930   20.1920 O   0  0  0  0  0  0  0  0  0  0  0  0
  -24.6430  -32.0010   23.3550 C   0  0  0  0  0  0  0  0  0  0  0  0
  -27.1140  -27.3440   20.2130 C   0  0  0  0  0  0  0  0  0  0  0  0
  -23.4020  -30.6560   21.7020 C   0  0  0  0  0  3  0  0  0  0  0  0
  -24.8060  -29.0870   20.2360 C   0  0  0  0  0  0  0  0  0  0  0  0
  -25.9530  -30.9000   21.5060 C   0  0  0  0  0  2  0  0  0  0  0  0
  -25.9980  -29.5200   20.8330 C   0  0  0  0  0  0  0  0  0  0  0  0
  -27.1570  -28.6670   20.7980 C   0  0  0  0  0  3  0  0  0  0  0  0
  -25.8990  -26.9930   19.5910 C   0  0  0  0  0  3  0  0  0  0  0  0
  -24.7660  -27.8350   19.6010 C   0  0  0  0  0  3  0  0  0  0  0  0
  -23.5950  -30.0010   20.3080 C   0  0  0  0  0  2  0  0  0  0  0  0
  -24.6860  -31.2060   22.2430 N   0  0  0  0  0  0  0  0  0  0  0  0
  -23.5680  -32.2920   23.9020 O   0  0  0  0  0  0  0  0  0  0  0  0
  -22.7190  -29.6420   22.6520 C   0  0  0  0  0  0  0  0  0  0  0  0
  -21.3920  -29.4700   22.5130 N   0  0  0  0  0  0  0  0  0  0  0  0
  -23.3850  -29.0100   23.4770 O   0  0  0  0  0  0  0  0  0  0  0  0
  -20.9140  -30.0330   21.8230 H   0  0  0  0  0  0  0  0  0  0  0  0
  -18.0130  -28.2430   22.9500 C   0  0  0  0  0  0  0  0  0  0  0  0
  -20.5630  -28.5280   23.2700 C   0  0  0  0  0  3  0  0  0  0  0  0
  -20.6890  -27.0950   22.7040 C   0  0  0  0  0  2  0  0  0  0  0  0
  -19.6100  -26.7590   21.6670 C   0  0  0  0  0  2  0  0  0  0  0  0
  -18.2150  -26.8930   22.2820 C   0  0  0  0  0  2  0  0  0  0  0  0
  -19.1150  -29.0170   23.3990 C   0  0  0  0  0  0  0  0  0  0  0  0
  -18.8730  -30.2780   23.9850 C   0  0  0  0  0  3  0  0  0  0  0  0
  -17.5610  -30.7670   24.1250 C   0  0  0  0  0  3  0  0  0  0  0  0
  -16.4720  -29.9900   23.6920 C   0  0  0  0  0  3  0  0  0  0  0  0
  -16.6990  -28.7300   23.1110 C   0  0  0  0  0  3  0  0  0  0  0  0
  -25.9390  -32.6010   23.9790 C   0  0  0  0  0  3  0  0  0  0  0  0
  -25.6690  -34.0120   24.3040 N   0  0  0  0  0  0  0  0  0  0  0  0
  -26.0380  -35.0530   23.5460 C   0  0  0  0  0  0  0  0  0  0  0  0
  -26.7100  -34.9260   22.5180 O   0  0  0  0  0  0  0  0  0  0  0  0
  -25.0750  -34.1850   25.1010 H   0  0  0  0  0  0  0  0  0  0  0  0
  -24.3810  -36.9100   23.1700 C   0  0  0  0  0  1  0  0  0  0  0  0
  -25.5950  -36.4580   23.9990 C   0  0  0  0  0  3  0  0  0  0  0  0
  -27.7420  -37.2710   24.8700 C   0  0  0  0  0  1  0  0  0  0  0  0
  -26.6660  -37.4750   23.9040 N   0  0  0  0  0  0  0  0  0  0  0  0
  -26.2900  -38.4080   24.0400 H   0  0  0  0  0  0  0  0  0  0  0  0
  -26.4240  -31.8260   25.2660 C   0  0  1  0  0  0  0  0  0  0  0  0
  -25.3170  -31.6280   26.3280 C   0  0  0  0  0  1  0  0  0  0  0  0
  -26.9700  -30.4290   24.8900 C   0  0  0  0  0  1  0  0  0  0  0  0
  -27.5930  -32.5910   25.9300 C   0  0  0  0  0  1  0  0  0  0  0  0
  -30.8000  -17.7530   18.3750 C   0  0  0  0  0  1  0  0  0  0  0  0
  -30.3020  -17.7220   19.8380 C   0  0  0  0  0  3  0  0  0  0  0  0
  -30.5460  -15.0540   20.0290 C   0  0  0  0  0  0  0  0  0  0  0  0
  -30.3480  -12.7440   19.0490 C   0  0  0  0  0  2  0  0  0  0  0  0
  -29.3620  -12.7440   17.8600 C   0  0  0  0  0  2  0  0  0  0  0  0
  -27.9220  -12.5230   18.3540 C   0  0  0  0  0  2  0  0  0  0  0  0
  -27.5670  -13.4130   19.5740 C   0  0  0  0  0  3  0  0  0  0  0  0
  -28.6750  -13.4100   20.6490 C   0  0  0  0  0  2  0  0  0  0  0  0
  -29.9170  -13.8170   19.9850 N   0  0  0  0  0  0  0  0  0  0  0  0
  -31.7450  -15.0850   19.7370 O   0  0  0  0  0  0  0  0  0  0  0  0
  -29.8160  -16.2630   20.1470 N   0  0  0  0  0  0  0  0  0  0  0  0
  -28.8370  -16.1650   20.3640 H   0  0  0  0  0  0  0  0  0  0  0  0
  -25.2120  -13.9360   20.4270 C   0  0  0  0  0  0  0  0  0  0  0  0
  -24.1790  -13.1360   20.8320 C   0  0  0  0  0  0  0  0  0  0  0  0
  -24.6660  -11.7950   20.7610 C   0  0  0  0  0  0  0  0  0  0  0  0
  -26.2590  -13.0830   20.1290 N   0  0  0  0  0  0  0  0  0  0  0  0
  -25.9430  -11.7880   20.3960 N   0  0  0  0  0  0  0  0  0  0  0  0
  -23.9700  -10.5170   20.9610 C   0  0  0  0  0  0  0  0  0  0  0  0
  -24.4300   -9.5630   21.8970 C   0  0  0  0  0  3  0  0  0  0  0  0
  -23.7310   -8.3520   22.0860 C   0  0  0  0  0  3  0  0  0  0  0  0
  -22.5600   -8.0840   21.3380 C   0  0  0  0  0  0  0  0  0  0  0  0
  -22.1200   -9.0250   20.3920 C   0  0  0  0  0  3  0  0  0  0  0  0
  -22.8200  -10.2280   20.2010 C   0  0  0  0  0  3  0  0  0  0  0  0
  -21.8310   -6.9230   21.4360 O   0  0  0  0  0  0  0  0  0  0  0  0
  -21.7820   -6.1990   22.6010 C   0  0  0  0  0  0  0  0  0  0  0  0
  -21.2800   -6.7510   23.8000 C   0  0  0  0  0  3  0  0  0  0  0  0
  -21.1840   -5.9510   24.9560 C   0  0  0  0  0  3  0  0  0  0  0  0
  -21.5790   -4.6010   24.9140 C   0  0  0  0  0  0  0  0  0  0  0  0
  -22.0720   -4.0480   23.7200 C   0  0  0  0  0  3  0  0  0  0  0  0
  -22.1710   -4.8440   22.5660 C   0  0  0  0  0  0  0  0  0  0  0  0
  -22.6280   -4.3020   21.4120 F   0  0  0  0  0  0  0  0  0  0  0  0
  -21.4770   -3.8300   26.0220 F   0  0  0  0  0  0  0  0  0  0  0  0
  -22.7860  -13.5830   21.1670 C   0  0  0  0  0  0  0  0  0  0  0  0
  -22.1030  -12.8570   22.0430 N   0  0  0  0  0  0  0  0  0  0  0  0
  -22.3120  -14.6120   20.6850 O   0  0  0  0  0  0  0  0  0  0  0  0
  -22.5000  -12.0250   22.4540 H   0  0  0  0  0  0  0  0  0  0  0  0
  -21.1700  -13.1370   22.3100 H   0  0  0  0  0  0  0  0  0  0  0  0
  -25.3410  -15.3130   20.2620 N   0  0  0  0  0  0  0  0  0  0  0  0
  -24.5650  -15.9480   20.4110 H   0  0  0  0  0  0  0  0  0  0  0  0
  -26.1560  -15.7700   19.8760 H   0  0  0  0  0  0  0  0  0  0  0  0
  -30.9330  -19.7790   22.1260 C   0  0  0  0  0  2  0  0  0  0  0  0
  -31.4140  -18.2800   23.8860 C   0  0  0  0  0  1  0  0  0  0  0  0
  -30.4930  -18.6480   22.8690 O   0  0  0  0  0  0  0  0  0  0  0  0
  1  2  2  0
  1  4  1  0
  2  5  1  0
  3  6  1  0
  4  3  2  0
  5  6  2  0
  6 91  1  0
  7  4  1  0
  7  9  1  0
  8  7  2  0
 10 12  1  0
 10  9  1  0
 11 22  2  0
 12 17  1  0
 13 21  1  0
 13 23  1  0
 14 20  1  0
 14 16  1  0
 15 21  1  0
 16 15  1  0
 17 16  2  0
 18 19  1  0
 18 12  2  0
 19 14  2  0
 20 13  1  0
 21 11  1  0
 23 25  2  0
 24 23  1  0
 26 24  1  0
 27 36  2  0
 27 32  1  0
 28 24  1  0
 28 32  1  0
 29 28  1  0
 30 31  1  0
 30 29  1  0
 31 27  1  0
 32 33  2  0
 33 34  1  0
 35 34  2  0
 36 35  1  0
 37 11  1  0
 37 38  1  0
 37 47  1  0
 38 41  1  0
 39 43  1  0
 39 38  1  0
 40 39  2  0
 43 42  1  0
 45 43  1  0
 45 46  1  0
 45 44  1  0
 47 50  1  1
 47 48  1  0
 49 47  1  0
 52 51  1  0
 52  5  1  0
 52 61  1  0
 53 61  1  0
 54 59  1  0
 55 56  1  0
 55 54  1  0
 57 56  1  0
 57 66  1  0
 57 58  1  0
 59 53  1  0
 59 58  1  0
 60 53  2  0
 61 62  1  0
 63 64  2  0
 64 83  1  0
 65 64  1  0
 65 68  1  0
 66 67  1  0
 66 63  1  0
 67 65  2  0
 68 69  1  0
 69 70  2  0
 71 74  1  0
 71 70  1  0
 72 71  2  0
 73 72  1  0
 73 68  2  0
 74 75  1  0
 75 76  1  0
 76 77  2  0
 78 77  1  0
 78 82  1  0
 79 78  2  0
 80 75  2  0
 80 79  1  0
 81 80  1  0
 83 84  1  0
 84 87  1  0
 84 86  1  0
 85 83  2  0
 88 89  1  0
 88 63  1  0
 90 88  1  0
 91 93  1  0
 93 92  1  0
M  ISO  4   9 101  10 101  53 100  61 100
M  END
>  <TORSDO>  (44) 
F 21

>  <SCORE>  (44) 
-12.268

>  <name>  (44) 
43

>  <ligand_id>  (44) 
43

>  <original_smiles>  (44) 
[H]c1c([H])c([H])c2c(c1[H])C([H])([H])C([H])([H])C([H])([H])C2([H])N([H])C(=O)C1([H])N(C(=O)C([H])(N([H])C(=O)C([H])(N([H])C([H])([H])[H])C([H])([H])[H])C(C([H])([H])[H])(C([H])([H])[H])C([H])([H])[H])C([H])([H])c2c([H])c(OC([H])([H])C(=O)c3c([H])c([H])c(C([H])(N([H])C(=O)N4C([H])([H])C([H])([H])C([H])([H])C([H])(n5nc(-c6c([H])c([H])c(Oc7c([H])c([H])c(F)c([H])c7F)c([H])c6[H])c(C(=O)N([H])[H])c5N([H])[H])C4([H])[H])C([H])([H])[H])c(C([H])([H])OC([H])([H])[H])c3[H])c([H])c([H])c2C1([H])[H]

>  <smiles>  (44) 
[H]c1c([H])c([H])c2c(c1[H])C([H])([H])C([H])([H])C([H])([H])C2([H])N([H])C(=O)C1([H])N(C(=O)C([H])(N([H])C(=O)C([H])(N([H])C([H])([H])[H])C([H])([H])[H])C(C([H])([H])[H])(C([H])([H])[H])C([H])([H])[H])C([H])([H])c2c([H])c(OC([H])([H])C(=O)c3c([H])c([H])c(C([H])(N([H])C(=O)N4C([H])([H])C([H])([H])C([H])([H])C([H])(n5nc(-c6c([H])c([H])c(Oc7c([H])c([H])c(F)c([H])c7F)c([H])c6[H])c(C(=O)N([H])[H])c5N([H])[H])C4([H])[H])C([H])([H])[H])c(C([H])([H])OC([H])([H])[H])c3[H])c([H])c([H])c2C1([H])[H]

$$$$
44:0:0
     RDKit          3D

 89 97  0  0  1  0  0  0  0  0999 V2000
  -26.7080  -21.8270   19.2220 C   0  0  0  0  0  3  0  0  0  0  0  0
  -27.5570  -20.7110   19.5060 C   0  0  0  0  0  3  0  0  0  0  0  0
  -26.9400  -23.2140   19.5030 C   0  0  0  0  0  3  0  0  0  0  0  0
  -28.8170  -20.7810   20.1400 C   0  0  0  0  0  0  0  0  0  0  0  0
  -28.0920  -23.7600   20.1280 C   0  0  0  0  0  0  0  0  0  0  0  0
  -28.9900  -22.4050   20.4330 C   0  0  0  0  0  0  0  0  0  0  0  0
  -29.4770  -17.5430   20.1160 C   0  0  0  0  0  3  0  0  0  0  0  0
  -29.6620  -19.1030   20.3010 C   0  0  0  0  0  0  0  0  0  0  0  0
  -30.3130  -15.9820   20.1250 C   0  0  0  0  0  0  0  0  0  0  0  0
  -30.4740  -13.3760   19.3550 C   0  0  0  0  0  2  0  0  0  0  0  0
  -29.5970  -12.8990   18.1560 C   0  0  0  0  0  2  0  0  0  0  0  0
  -28.1910  -12.5000   18.6230 C   0  0  0  0  0  2  0  0  0  0  0  0
  -27.6580  -13.4990   19.6720 C   0  0  0  0  0  3  0  0  0  0  0  0
  -28.6820  -13.9080   20.7600 C   0  0  0  0  0  2  0  0  0  0  0  0
  -29.8270  -14.5760   20.0840 N   0  0  0  0  0  0  0  0  0  0  0  0
  -31.5480  -15.8670   19.9610 O   0  0  0  0  0  0  0  0  0  0  0  0
  -25.3230  -13.9730   20.5270 C   0  0  0  0  0  0  0  0  0  0  0  0
  -24.2840  -13.1730   20.9060 C   0  0  0  0  0  0  0  0  0  0  0  0
  -24.7670  -11.8280   20.8260 C   0  0  0  0  0  0  0  0  0  0  0  0
  -26.3660  -13.1210   20.2260 N   0  0  0  0  0  0  0  0  0  0  0  0
  -26.0510  -11.8190   20.4710 N   0  0  0  0  0  0  0  0  0  0  0  0
  -24.0540  -10.5550   21.0040 C   0  0  0  0  0  0  0  0  0  0  0  0
  -24.4810   -9.5890   21.9410 C   0  0  0  0  0  3  0  0  0  0  0  0
  -23.7600   -8.3870   22.1140 C   0  0  0  0  0  3  0  0  0  0  0  0
  -22.5950   -8.1420   21.3480 C   0  0  0  0  0  0  0  0  0  0  0  0
  -22.1830   -9.0980   20.4030 C   0  0  0  0  0  3  0  0  0  0  0  0
  -22.9060  -10.2910   20.2300 C   0  0  0  0  0  3  0  0  0  0  0  0
  -21.8470   -6.9910   21.4250 O   0  0  0  0  0  0  0  0  0  0  0  0
  -21.7440   -6.2790   22.5930 C   0  0  0  0  0  0  0  0  0  0  0  0
  -21.1850   -6.8420   23.7610 C   0  0  0  0  0  3  0  0  0  0  0  0
  -21.0310   -6.0530   24.9190 C   0  0  0  0  0  3  0  0  0  0  0  0
  -21.4240   -4.7020   24.9080 C   0  0  0  0  0  0  0  0  0  0  0  0
  -21.9740   -4.1370   23.7440 C   0  0  0  0  0  3  0  0  0  0  0  0
  -22.1310   -4.9230   22.5890 C   0  0  0  0  0  0  0  0  0  0  0  0
  -22.6390   -4.3680   21.4630 F   0  0  0  0  0  0  0  0  0  0  0  0
  -21.2710   -3.9410   26.0180 F   0  0  0  0  0  0  0  0  0  0  0  0
  -22.8910  -13.6320   21.2210 C   0  0  0  0  0  0  0  0  0  0  0  0
  -22.1970  -12.9190   22.0990 N   0  0  0  0  0  0  0  0  0  0  0  0
  -22.4290  -14.6610   20.7290 O   0  0  0  0  0  0  0  0  0  0  0  0
  -22.5820  -12.0840   22.5120 H   0  0  0  0  0  0  0  0  0  0  0  0
  -21.2670  -13.2120   22.3660 H   0  0  0  0  0  0  0  0  0  0  0  0
  -25.4660  -15.3510   20.3810 N   0  0  0  0  0  0  0  0  0  0  0  0
  -24.6950  -15.9930   20.5450 H   0  0  0  0  0  0  0  0  0  0  0  0
  -26.3000  -15.8080   20.0350 H   0  0  0  0  0  0  0  0  0  0  0  0
  -30.8970  -19.3840   20.7310 O   0  0  0  0  0  0  0  0  0  0  0  0
  -30.9080  -20.2950   20.9940 H   0  0  0  0  0  0  0  0  0  0  0  0
  -30.0590  -22.5190   22.5100 C   0  0  0  0  0  1  0  0  0  0  0  0
  -30.1490  -22.7090   21.1000 O   0  0  0  0  0  0  0  0  0  0  0  0
  -28.1540  -25.4250   20.2820 O   0  0  0  0  0  0  0  0  0  0  0  0
  -24.6510  -31.8700   23.2300 C   0  0  0  0  0  0  0  0  0  0  0  0
  -27.1930  -26.7030   20.2270 C   0  0  0  0  0  0  0  0  0  0  0  0
  -23.4760  -30.4750   21.5850 C   0  0  0  0  0  3  0  0  0  0  0  0
  -24.9310  -28.8240   20.1680 C   0  0  0  0  0  0  0  0  0  0  0  0
  -26.0580  -30.5840   21.4890 C   0  0  0  0  0  2  0  0  0  0  0  0
  -26.1230  -29.1410   20.8300 C   0  0  0  0  0  0  0  0  0  0  0  0
  -27.2220  -28.1100   20.8350 C   0  0  0  0  0  3  0  0  0  0  0  0
  -25.9890  -26.6650   19.4600 C   0  0  0  0  0  3  0  0  0  0  0  0
  -24.9150  -27.6130   19.4550 C   0  0  0  0  0  3  0  0  0  0  0  0
  -23.7280  -29.7850   20.2120 C   0  0  0  0  0  2  0  0  0  0  0  0
  -24.7530  -31.0120   22.1530 N   0  0  0  0  0  0  0  0  0  0  0  0
  -23.5530  -32.1650   23.7340 O   0  0  0  0  0  0  0  0  0  0  0  0
  -22.7510  -29.4950   22.5520 C   0  0  0  0  0  0  0  0  0  0  0  0
  -21.4190  -29.3370   22.4210 N   0  0  0  0  0  0  0  0  0  0  0  0
  -23.4040  -28.8790   23.3970 O   0  0  0  0  0  0  0  0  0  0  0  0
  -20.9410  -29.8890   21.7240 H   0  0  0  0  0  0  0  0  0  0  0  0
  -18.0370  -28.0930   22.9240 C   0  0  0  0  0  0  0  0  0  0  0  0
  -20.5950  -28.3910   23.1850 C   0  0  0  0  0  3  0  0  0  0  0  0
  -20.7100  -26.9600   22.6070 C   0  0  0  0  0  2  0  0  0  0  0  0
  -19.6130  -26.6270   21.5910 C   0  0  0  0  0  2  0  0  0  0  0  0
  -18.2290  -26.7500   22.2370 C   0  0  0  0  0  2  0  0  0  0  0  0
  -19.1450  -28.8710   23.3540 C   0  0  0  0  0  0  0  0  0  0  0  0
  -18.9070  -30.1190   23.9670 C   0  0  0  0  0  3  0  0  0  0  0  0
  -17.5940  -30.5940   24.1450 C   0  0  0  0  0  3  0  0  0  0  0  0
  -16.5000  -29.8180   23.7220 C   0  0  0  0  0  3  0  0  0  0  0  0
  -16.7230  -28.5660   23.1200 C   0  0  0  0  0  3  0  0  0  0  0  0
  -25.9040  -32.5270   23.8810 C   0  0  0  0  0  3  0  0  0  0  0  0
  -26.3740  -31.7900   25.1980 C   0  0  1  0  0  0  0  0  0  0  0  0
  -25.2470  -31.5880   26.2390 C   0  0  0  0  0  1  0  0  0  0  0  0
  -26.9630  -30.3990   24.8790 C   0  0  0  0  0  1  0  0  0  0  0  0
  -27.5070  -32.5990   25.8740 C   0  0  0  0  0  1  0  0  0  0  0  0
  -25.5810  -33.9350   24.1940 N   0  0  0  0  0  0  0  0  0  0  0  0
  -25.9140  -34.9940   23.4390 C   0  0  0  0  0  0  0  0  0  0  0  0
  -26.5780  -34.8870   22.4080 O   0  0  0  0  0  0  0  0  0  0  0  0
  -24.9880  -34.0920   24.9950 H   0  0  0  0  0  0  0  0  0  0  0  0
  -24.1900  -36.8040   23.1050 C   0  0  0  0  0  1  0  0  0  0  0  0
  -25.4380  -36.3900   23.9010 C   0  0  0  0  0  3  0  0  0  0  0  0
  -27.5790  -37.2850   24.7130 C   0  0  0  0  0  1  0  0  0  0  0  0
  -26.4740  -37.4390   23.7690 N   0  0  0  0  0  0  0  0  0  0  0  0
  -26.0710  -38.3630   23.9010 H   0  0  0  0  0  0  0  0  0  0  0  0
  1  3  2  0
  1  2  1  0
  2  4  2  0
  3  5  1  0
  4  8  1  0
  4  6  1  0
  5 49  1  0
  5  6  2  0
  6 48  1  0
  7  9  1  0
  7  8  2  0
  8 45  1  0
 10 15  1  0
 11 12  1  0
 11 10  1  0
 13 12  1  0
 13 20  1  0
 13 14  1  0
 15  9  1  0
 15 14  1  0
 16  9  2  0
 17 18  2  0
 18 37  1  0
 19 18  1  0
 19 22  1  0
 20 21  1  0
 20 17  1  0
 21 19  2  0
 22 23  1  0
 23 24  2  0
 25 28  1  0
 25 24  1  0
 26 25  2  0
 27 26  1  0
 27 22  2  0
 28 29  1  0
 29 30  1  0
 30 31  2  0
 32 31  1  0
 32 36  1  0
 33 32  2  0
 34 29  2  0
 34 33  1  0
 35 34  1  0
 37 38  1  0
 38 41  1  0
 38 40  1  0
 39 37  2  0
 42 17  1  0
 42 43  1  0
 44 42  1  0
 45 46  1  0
 48 47  1  0
 50 61  2  0
 51 49  1  0
 51 56  1  0
 52 60  1  0
 52 62  1  0
 53 59  1  0
 53 55  1  0
 54 60  1  0
 55 56  2  0
 55 54  1  0
 57 51  2  0
 58 57  1  0
 58 53  2  0
 59 52  1  0
 60 50  1  0
 62 64  2  0
 63 62  1  0
 65 63  1  0
 66 75  2  0
 66 71  1  0
 67 63  1  0
 67 71  1  0
 68 67  1  0
 69 70  1  0
 69 68  1  0
 70 66  1  0
 71 72  2  0
 72 73  1  0
 74 73  2  0
 75 74  1  0
 76 50  1  0
 76 81  1  0
 76 77  1  0
 77 80  1  1
 77 78  1  0
 79 77  1  0
 81 84  1  0
 82 86  1  0
 82 81  1  0
 83 82  2  0
 86 85  1  0
 88 89  1  0
 88 86  1  0
 88 87  1  0
M  ISO  4   5 101   7 100   9 100  49 101
M  END
>  <TORSDO>  (45) 
F 19

>  <SCORE>  (45) 
-15.786

>  <name>  (45) 
44

>  <ligand_id>  (45) 
44

>  <original_smiles>  (45) 
[H]OC(=C([H])C(=O)N1C([H])([H])C([H])([H])C([H])([H])C([H])(n2nc(-c3c([H])c([H])c(Oc4c([H])c([H])c(F)c([H])c4F)c([H])c3[H])c(C(=O)N([H])[H])c2N([H])[H])C1([H])[H])c1c([H])c([H])c([H])c(Oc2c([H])c([H])c3c(c2[H])C([H])([H])N(C(=O)C([H])(N([H])C(=O)C([H])(N([H])C([H])([H])[H])C([H])([H])[H])C(C([H])([H])[H])(C([H])([H])[H])C([H])([H])[H])C([H])(C(=O)N([H])C2([H])c4c([H])c([H])c([H])c([H])c4C([H])([H])C([H])([H])C2([H])[H])C3([H])[H])c1OC([H])([H])[H]

>  <smiles>  (45) 
[H]OC(=C([H])C(=O)N1C([H])([H])C([H])([H])C([H])([H])C([H])(n2nc(-c3c([H])c([H])c(Oc4c([H])c([H])c(F)c([H])c4F)c([H])c3[H])c(C(=O)N([H])[H])c2N([H])[H])C1([H])[H])c1c([H])c([H])c([H])c(Oc2c([H])c([H])c3c(c2[H])C([H])([H])N(C(=O)C([H])(N([H])C(=O)C([H])(N([H])C([H])([H])[H])C([H])([H])[H])C(C([H])([H])[H])(C([H])([H])[H])C([H])([H])[H])C([H])(C(=O)N([H])C2([H])c4c([H])c([H])c([H])c([H])c4C([H])([H])C([H])([H])C2([H])[H])C3([H])[H])c1OC([H])([H])[H]

$$$$
45:0:0
     RDKit          3D

 91 99  0  0  1  0  0  0  0  0999 V2000
  -28.9930  -19.8520   19.2740 C   0  0  0  0  0  3  0  0  0  0  0  0
  -28.7710  -21.2860   19.3430 C   0  0  0  0  0  3  0  0  0  0  0  0
  -29.9050  -19.8620   21.4410 C   0  0  0  0  0  3  0  0  0  0  0  0
  -29.5960  -19.0530   20.3070 C   0  0  0  0  0  0  0  0  0  0  0  0
  -29.1420  -22.1120   20.4570 C   0  0  0  0  0  0  0  0  0  0  0  0
  -29.7080  -21.3020   21.5180 C   0  0  0  0  0  0  0  0  0  0  0  0
  -30.1900  -21.9700   22.7980 C   0  0  0  0  0  1  0  0  0  0  0  0
  -29.8860  -16.3010   20.6560 C   0  0  0  0  0  3  0  0  0  0  0  0
  -30.1250  -17.5720   20.0780 C   0  0  0  0  0  0  0  0  0  0  0  0
  -30.6330  -14.9770   20.3550 C   0  0  0  0  0  0  0  0  0  0  0  0
  -30.4480  -12.6470   19.4120 C   0  0  0  0  0  2  0  0  0  0  0  0
  -29.5450  -12.6780   18.1580 C   0  0  0  0  0  2  0  0  0  0  0  0
  -28.0690  -12.4910   18.5540 C   0  0  0  0  0  2  0  0  0  0  0  0
  -27.6610  -13.3940   19.7490 C   0  0  0  0  0  3  0  0  0  0  0  0
  -28.6970  -13.3650   20.8920 C   0  0  0  0  0  2  0  0  0  0  0  0
  -29.9970  -13.7390   20.3220 N   0  0  0  0  0  0  0  0  0  0  0  0
  -31.8270  -14.9700   20.0370 O   0  0  0  0  0  0  0  0  0  0  0  0
  -25.2660  -13.9730   20.4440 C   0  0  0  0  0  0  0  0  0  0  0  0
  -24.1970  -13.1990   20.7980 C   0  0  0  0  0  0  0  0  0  0  0  0
  -24.6630  -11.8480   20.7820 C   0  0  0  0  0  0  0  0  0  0  0  0
  -26.3150  -13.0950   20.2240 N   0  0  0  0  0  0  0  0  0  0  0  0
  -25.9600  -11.8120   20.4940 N   0  0  0  0  0  0  0  0  0  0  0  0
  -23.9330  -10.5850   20.9700 C   0  0  0  0  0  0  0  0  0  0  0  0
  -24.3430   -9.6270   21.9230 C   0  0  0  0  0  3  0  0  0  0  0  0
  -23.6140   -8.4310   22.0970 C   0  0  0  0  0  3  0  0  0  0  0  0
  -22.4590   -8.1840   21.3180 C   0  0  0  0  0  0  0  0  0  0  0  0
  -22.0660   -9.1300   20.3550 C   0  0  0  0  0  3  0  0  0  0  0  0
  -22.7970  -10.3190   20.1800 C   0  0  0  0  0  3  0  0  0  0  0  0
  -21.7040   -7.0390   21.4000 O   0  0  0  0  0  0  0  0  0  0  0  0
  -21.6170   -6.3160   22.5620 C   0  0  0  0  0  0  0  0  0  0  0  0
  -21.1220   -6.8820   23.7570 C   0  0  0  0  0  3  0  0  0  0  0  0
  -20.9830   -6.0840   24.9100 C   0  0  0  0  0  3  0  0  0  0  0  0
  -21.3300   -4.7200   24.8680 C   0  0  0  0  0  0  0  0  0  0  0  0
  -21.8180   -4.1530   23.6780 C   0  0  0  0  0  3  0  0  0  0  0  0
  -21.9590   -4.9490   22.5280 C   0  0  0  0  0  0  0  0  0  0  0  0
  -22.4080   -4.3940   21.3770 F   0  0  0  0  0  0  0  0  0  0  0  0
  -21.1900   -3.9500   25.9730 F   0  0  0  0  0  0  0  0  0  0  0  0
  -22.7940  -13.6760   21.0390 C   0  0  0  0  0  0  0  0  0  0  0  0
  -22.0510  -12.9890   21.9000 N   0  0  0  0  0  0  0  0  0  0  0  0
  -22.3650  -14.6950   20.5000 O   0  0  0  0  0  0  0  0  0  0  0  0
  -22.4100  -12.1660   22.3590 H   0  0  0  0  0  0  0  0  0  0  0  0
  -21.1100  -13.2950   22.1030 H   0  0  0  0  0  0  0  0  0  0  0  0
  -25.4300  -15.3430   20.2650 N   0  0  0  0  0  0  0  0  0  0  0  0
  -24.6610  -15.9970   20.3650 H   0  0  0  0  0  0  0  0  0  0  0  0
  -26.2870  -15.7840   19.9550 H   0  0  0  0  0  0  0  0  0  0  0  0
  -31.0500  -17.6400   19.1100 O   0  0  0  0  0  0  0  0  0  0  0  0
  -31.1250  -18.5530   18.8580 H   0  0  0  0  0  0  0  0  0  0  0  0
  -29.1920  -23.7310   20.4540 C   0  0  0  0  0  0  0  0  0  0  0  0
  -30.2470  -24.2610   20.8180 O   0  0  0  0  0  0  0  0  0  0  0  0
  -28.0290  -24.8020   20.0530 C   0  0  0  0  0  2  0  0  0  0  0  0
  -28.2890  -26.3160   20.2440 O   0  0  0  0  0  0  0  0  0  0  0  0
  -24.6270  -31.9010   23.2730 C   0  0  0  0  0  0  0  0  0  0  0  0
  -27.2170  -27.2650   20.1860 C   0  0  0  0  0  0  0  0  0  0  0  0
  -23.4270  -30.5180   21.6220 C   0  0  0  0  0  3  0  0  0  0  0  0
  -24.8770  -28.9690   20.1770 C   0  0  0  0  0  0  0  0  0  0  0  0
  -25.9760  -30.8060   21.4510 C   0  0  0  0  0  2  0  0  0  0  0  0
  -26.0530  -29.4250   20.7850 C   0  0  0  0  0  0  0  0  0  0  0  0
  -27.2260  -28.5870   20.7730 C   0  0  0  0  0  3  0  0  0  0  0  0
  -26.0150  -26.8990   19.5420 C   0  0  0  0  0  3  0  0  0  0  0  0
  -24.8680  -27.7190   19.5420 C   0  0  0  0  0  3  0  0  0  0  0  0
  -23.6460  -29.8560   20.2360 C   0  0  0  0  0  2  0  0  0  0  0  0
  -24.6960  -31.0950   22.1700 N   0  0  0  0  0  0  0  0  0  0  0  0
  -23.5420  -32.1740   23.8090 O   0  0  0  0  0  0  0  0  0  0  0  0
  -22.7570  -29.4960   22.5740 C   0  0  0  0  0  0  0  0  0  0  0  0
  -21.4300  -29.3180   22.4460 N   0  0  0  0  0  0  0  0  0  0  0  0
  -23.4330  -28.8660   23.3920 O   0  0  0  0  0  0  0  0  0  0  0  0
  -20.9410  -29.8790   21.7620 H   0  0  0  0  0  0  0  0  0  0  0  0
  -18.0570  -28.0940   22.9340 C   0  0  0  0  0  0  0  0  0  0  0  0
  -20.6120  -28.3720   23.2100 C   0  0  0  0  0  3  0  0  0  0  0  0
  -20.7250  -26.9440   22.6270 C   0  0  0  0  0  2  0  0  0  0  0  0
  -19.6280  -26.6190   21.6090 C   0  0  0  0  0  2  0  0  0  0  0  0
  -18.2440  -26.7510   22.2500 C   0  0  0  0  0  2  0  0  0  0  0  0
  -19.1690  -28.8620   23.3710 C   0  0  0  0  0  0  0  0  0  0  0  0
  -18.9390  -30.1180   23.9730 C   0  0  0  0  0  3  0  0  0  0  0  0
  -17.6300  -30.6090   24.1400 C   0  0  0  0  0  3  0  0  0  0  0  0
  -16.5330  -29.8390   23.7180 C   0  0  0  0  0  3  0  0  0  0  0  0
  -16.7470  -28.5830   23.1230 C   0  0  0  0  0  3  0  0  0  0  0  0
  -25.9050  -32.5330   23.9030 C   0  0  0  0  0  3  0  0  0  0  0  0
  -26.4100  -31.7640   25.1870 C   0  0  1  0  0  0  0  0  0  0  0  0
  -25.3080  -31.5370   26.2480 C   0  0  0  0  0  1  0  0  0  0  0  0
  -26.9880  -30.3820   24.8080 C   0  0  0  0  0  1  0  0  0  0  0  0
  -27.5590  -32.5570   25.8530 C   0  0  0  0  0  1  0  0  0  0  0  0
  -25.5950  -33.9330   24.2320 N   0  0  0  0  0  0  0  0  0  0  0  0
  -25.9110  -34.9860   23.4670 C   0  0  0  0  0  0  0  0  0  0  0  0
  -26.5630  -34.8810   22.4240 O   0  0  0  0  0  0  0  0  0  0  0  0
  -25.0110  -34.0870   25.0420 H   0  0  0  0  0  0  0  0  0  0  0  0
  -24.1690  -36.7740   23.1510 C   0  0  0  0  0  1  0  0  0  0  0  0
  -25.4320  -36.3750   23.9310 C   0  0  0  0  0  3  0  0  0  0  0  0
  -27.5810  -37.2770   24.7070 C   0  0  0  0  0  1  0  0  0  0  0  0
  -26.4580  -37.4320   23.7860 N   0  0  0  0  0  0  0  0  0  0  0  0
  -26.0510  -38.3520   23.9310 H   0  0  0  0  0  0  0  0  0  0  0  0
  1  2  2  0
  1  4  1  0
  2  5  1  0
  3  6  1  0
  4  3  2  0
  5  6  2  0
  6  7  1  0
  9  4  1  0
  9  8  2  0
 10  8  1  0
 11 16  1  0
 12 13  1  0
 12 11  1  0
 14 13  1  0
 14 21  1  0
 14 15  1  0
 16 10  1  0
 16 15  1  0
 17 10  2  0
 18 19  2  0
 19 38  1  0
 20 19  1  0
 20 23  1  0
 21 18  1  0
 21 22  1  0
 22 20  2  0
 23 24  1  0
 24 25  2  0
 26 29  1  0
 26 25  1  0
 27 26  2  0
 28 27  1  0
 28 23  2  0
 29 30  1  0
 30 31  1  0
 31 32  2  0
 33 32  1  0
 33 37  1  0
 34 33  2  0
 35 30  2  0
 35 34  1  0
 36 35  1  0
 38 39  1  0
 39 42  1  0
 39 41  1  0
 40 38  2  0
 43 44  1  0
 43 18  1  0
 45 43  1  0
 46  9  1  0
 47 46  1  0
 48  5  1  0
 48 49  2  0
 50 51  1  0
 50 48  1  0
 52 63  2  0
 53 51  1  0
 53 58  1  0
 54 62  1  0
 54 64  1  0
 55 61  1  0
 55 57  1  0
 56 62  1  0
 57 56  1  0
 58 57  2  0
 59 53  2  0
 60 59  1  0
 60 55  2  0
 61 54  1  0
 62 52  1  0
 64 66  2  0
 65 64  1  0
 67 65  1  0
 68 77  2  0
 68 73  1  0
 69 65  1  0
 69 73  1  0
 70 69  1  0
 71 72  1  0
 71 70  1  0
 72 68  1  0
 73 74  2  0
 74 75  1  0
 76 75  2  0
 77 76  1  0
 78 52  1  0
 78 83  1  0
 78 79  1  0
 79 82  1  1
 79 80  1  0
 81 79  1  0
 83 86  1  0
 84 88  1  0
 84 83  1  0
 85 84  2  0
 88 87  1  0
 90 91  1  0
 90 88  1  0
 90 89  1  0
M  ISO  4   8 100  10 100  50 101  51 101
M  END
>  <TORSDO>  (46) 
F 20

>  <SCORE>  (46) 
-14.131

>  <name>  (46) 
45

>  <ligand_id>  (46) 
45

>  <original_smiles>  (46) 
[H]OC(=C([H])C(=O)N1C([H])([H])C([H])([H])C([H])([H])C([H])(n2nc(-c3c([H])c([H])c(Oc4c([H])c([H])c(F)c([H])c4F)c([H])c3[H])c(C(=O)N([H])[H])c2N([H])[H])C1([H])[H])c1c([H])c([H])c(C(=O)C([H])([H])Oc2c([H])c([H])c3c(c2[H])C([H])([H])N(C(=O)C([H])(N([H])C(=O)C([H])(N([H])C([H])([H])[H])C([H])([H])[H])C(C([H])([H])[H])(C([H])([H])[H])C([H])([H])[H])C([H])(C(=O)N([H])C2([H])c4c([H])c([H])c([H])c([H])c4C([H])([H])C([H])([H])C2([H])[H])C3([H])[H])c(C([H])([H])[H])c1[H]

>  <smiles>  (46) 
[H]OC(=C([H])C(=O)N1C([H])([H])C([H])([H])C([H])([H])C([H])(n2nc(-c3c([H])c([H])c(Oc4c([H])c([H])c(F)c([H])c4F)c([H])c3[H])c(C(=O)N([H])[H])c2N([H])[H])C1([H])[H])c1c([H])c([H])c(C(=O)C([H])([H])Oc2c([H])c([H])c3c(c2[H])C([H])([H])N(C(=O)C([H])(N([H])C(=O)C([H])(N([H])C([H])([H])[H])C([H])([H])[H])C(C([H])([H])[H])(C([H])([H])[H])C([H])([H])[H])C([H])(C(=O)N([H])C2([H])c4c([H])c([H])c([H])c([H])c4C([H])([H])C([H])([H])C2([H])[H])C3([H])[H])c(C([H])([H])[H])c1[H]

$$$$
46:0:0
     RDKit          3D

 94 97  0  0  1  0  0  0  0  0999 V2000
  -24.9300  -25.5850   21.9840 C   0  0  0  0  0 15  0  0  0  0  0  0
  -26.0610  -21.6690   23.1320 C   0  0  0  0  0  3  0  0  0  0  0  0
  -27.0250  -20.9630   22.3300 C   0  0  0  0  0  3  0  0  0  0  0  0
  -25.5960  -23.0110   22.9740 C   0  0  0  0  0  3  0  0  0  0  0  0
  -27.0410  -22.9570   21.0400 C   0  0  0  0  0  3  0  0  0  0  0  0
  -27.7100  -21.4200   21.1570 C   0  0  0  0  0  0  0  0  0  0  0  0
  -25.9720  -23.9040   21.9400 C   0  0  0  0  0  3  0  0  0  0  0  0
  -29.8970  -18.9010   20.3580 C   0  0  0  0  0  3  0  0  0  0  0  0
  -28.6510  -19.9140   20.3720 C   0  0  0  0  0  0  0  0  0  0  0  0
  -30.8140  -17.4450   19.7500 C   0  0  0  0  0  0  0  0  0  0  0  0
  -31.4540  -14.9130   18.8090 C   0  0  0  0  0  2  0  0  0  0  0  0
  -30.5960  -14.2220   17.6870 C   0  0  0  0  0  2  0  0  0  0  0  0
  -29.2980  -13.6500   18.2660 C   0  0  0  0  0  2  0  0  0  0  0  0
  -28.7480  -14.6270   19.3260 C   0  0  0  0  0  3  0  0  0  0  0  0
  -29.7540  -15.1090   20.3810 C   0  0  0  0  0  2  0  0  0  0  0  0
  -30.6700  -15.9690   19.6690 N   0  0  0  0  0  0  0  0  0  0  0  0
  -31.9540  -17.5620   19.2020 O   0  0  0  0  0  0  0  0  0  0  0  0
  -26.6590  -14.9570   20.6610 C   0  0  0  0  0  0  0  0  0  0  0  0
  -25.7040  -14.1020   21.1090 C   0  0  0  0  0  0  0  0  0  0  0  0
  -26.1100  -12.7990   20.6890 C   0  0  0  0  0  0  0  0  0  0  0  0
  -27.5710  -14.1700   20.0000 N   0  0  0  0  0  0  0  0  0  0  0  0
  -27.2800  -12.8520   20.0690 N   0  0  0  0  0  0  0  0  0  0  0  0
  -25.4120  -11.5190   20.7800 C   0  0  0  0  0  0  0  0  0  0  0  0
  -25.8140  -10.5200   21.6920 C   0  0  0  0  0  3  0  0  0  0  0  0
  -25.1040   -9.3040   21.7690 C   0  0  0  0  0  3  0  0  0  0  0  0
  -23.9850   -9.0850   20.9340 C   0  0  0  0  0  0  0  0  0  0  0  0
  -23.6070  -10.0730   20.0100 C   0  0  0  0  0  3  0  0  0  0  0  0
  -24.3160  -11.2810   19.9290 C   0  0  0  0  0  3  0  0  0  0  0  0
  -23.2490   -7.9270   20.9230 O   0  0  0  0  0  0  0  0  0  0  0  0
  -22.8400   -7.3250   22.0840 C   0  0  0  0  0  0  0  0  0  0  0  0
  -22.0850   -8.0170   23.0570 C   0  0  0  0  0  3  0  0  0  0  0  0
  -21.6290   -7.3410   24.2060 C   0  0  0  0  0  3  0  0  0  0  0  0
  -21.9130   -5.9730   24.3770 C   0  0  0  0  0  0  0  0  0  0  0  0
  -22.6590   -5.2810   23.4070 C   0  0  0  0  0  3  0  0  0  0  0  0
  -23.1190   -5.9550   22.2620 C   0  0  0  0  0  0  0  0  0  0  0  0
  -23.8210   -5.2810   21.3200 F   0  0  0  0  0  0  0  0  0  0  0  0
  -21.4670   -5.3200   25.4750 F   0  0  0  0  0  0  0  0  0  0  0  0
  -24.4420  -14.4990   21.8060 C   0  0  0  0  0  0  0  0  0  0  0  0
  -23.9660  -13.6660   22.7230 N   0  0  0  0  0  0  0  0  0  0  0  0
  -23.8990  -15.5780   21.5750 O   0  0  0  0  0  0  0  0  0  0  0  0
  -24.4270  -12.7880   22.9170 H   0  0  0  0  0  0  0  0  0  0  0  0
  -23.1260  -13.9040   23.2340 H   0  0  0  0  0  0  0  0  0  0  0  0
  -26.8100  -16.3310   20.7440 N   0  0  0  0  0  0  0  0  0  0  0  0
  -26.1050  -16.9060   21.1900 H   0  0  0  0  0  0  0  0  0  0  0  0
  -27.6500  -16.8580   20.5250 H   0  0  0  0  0  0  0  0  0  0  0  0
  -27.7260  -19.4810   19.5130 O   0  0  0  0  0  0  0  0  0  0  0  0
  -26.9040  -19.8880   19.7650 H   0  0  0  0  0  0  0  0  0  0  0  0
  -24.2310  -27.0830   23.2210 C   0  0  0  0  0  2  0  0  0  0  0  0
  -23.1690  -28.6630   23.4540 N   0  0  0  0  0  0  0  0  0  0  0  0
  -22.3060  -28.2990   23.8090 H   0  0  0  0  0  0  0  0  0  0  0  0
  -23.6020  -29.1030   24.2550 H   0  0  0  0  0  0  0  0  0  0  0  0
  -22.5070  -30.1920   22.4510 C   0  0  0  0  0 15  0  0  0  0  0  0
  -21.7870  -29.9530   20.1160 C   0  0  0  0  0 15  0  0  0  0  0  0
  -22.9780  -28.6160   18.8730 O   0  0  0  0  0  1  0  0  0  0  0  0
  -24.9940  -31.2150   22.6770 C   0  0  0  0  0  0  0  0  0  0  0  0
  -24.4400  -28.0080   18.5510 C   0  0  0  0  0  3  0  0  0  0  0  0
  -23.8610  -29.9980   20.9150 C   0  0  0  0  0  3  0  0  0  0  0  0
  -24.6850  -30.4080   18.4310 C   0  0  0  0  0  3  0  0  0  0  0  0
  -26.1180  -30.5750   20.5020 C   0  0  0  0  0  2  0  0  0  0  0  0
  -25.7330  -29.8850   19.1820 C   0  0  0  0  0  3  0  0  0  0  0  0
  -25.7190  -28.4860   19.0940 C   0  0  0  0  0  2  0  0  0  0  0  0
  -24.5740  -28.2600   17.2110 C   0  0  0  0  0  2  0  0  0  0  0  0
  -24.2890  -29.6420   17.2470 C   0  0  0  0  0  2  0  0  0  0  0  0
  -23.6810  -30.8980   19.4740 C   0  0  0  0  0  2  0  0  0  0  0  0
  -25.0160  -30.5760   21.4780 N   0  0  0  0  0  0  0  0  0  0  0  0
  -23.9690  -31.4970   23.3320 O   0  0  0  0  0  0  0  0  0  0  0  0
  -23.6540  -28.1990   21.0840 C   0  0  0  0  0  3  0  0  0  0  0  0
  -22.3080  -27.3080   20.6380 N   0  0  0  0  0  2  0  0  0  0  0  0
  -24.3540  -27.7830   21.9470 O   0  0  0  0  0  0  0  0  0  0  0  0
  -22.5640  -26.3390   20.5220 H   0  0  0  0  0  0  0  0  0  0  0  0
  -17.8170  -28.3180   21.8380 C   0  0  0  0  0  0  0  0  0  0  0  0
  -20.4190  -27.4400   21.0140 C   0  0  0  0  0  2  0  0  0  0  0  0
  -19.8150  -27.4280   19.7070 C   0  0  0  0  0  2  0  0  0  0  0  0
  -18.3890  -27.0070   19.7600 C   0  0  0  0  0  2  0  0  0  0  0  0
  -17.3600  -27.7520   20.5560 C   0  0  0  0  0  2  0  0  0  0  0  0
  -19.2410  -28.4150   22.0940 C   0  0  0  0  0  0  0  0  0  0  0  0
  -19.3130  -29.3420   23.2700 C   0  0  0  0  0  3  0  0  0  0  0  0
  -18.2430  -29.8470   24.0960 C   0  0  0  0  0  3  0  0  0  0  0  0
  -16.9070  -29.5860   23.7710 C   0  0  0  0  0  3  0  0  0  0  0  0
  -16.7230  -28.8340   22.6170 C   0  0  0  0  0  3  0  0  0  0  0  0
  -26.3550  -31.5020   23.2940 C   0  0  0  0  0  3  0  0  0  0  0  0
  -26.3450  -32.8660   23.8180 N   0  0  0  0  0  0  0  0  0  0  0  0
  -26.9160  -33.9000   23.1940 C   0  0  0  0  0  0  0  0  0  0  0  0
  -27.5490  -33.7820   22.1430 O   0  0  0  0  0  0  0  0  0  0  0  0
  -25.8180  -33.0380   24.6620 H   0  0  0  0  0  0  0  0  0  0  0  0
  -25.7270  -36.1160   23.1090 C   0  0  0  0  0  1  0  0  0  0  0  0
  -26.7740  -35.2780   23.8560 C   0  0  0  0  0  3  0  0  0  0  0  0
  -29.0220  -35.4150   24.8410 C   0  0  0  0  0  1  0  0  0  0  0  0
  -28.0490  -36.0180   23.9340 N   0  0  0  0  0  0  0  0  0  0  0  0
  -27.8810  -36.9730   24.2330 H   0  0  0  0  0  0  0  0  0  0  0  0
  -26.6690  -30.4430   24.4180 C   0  0  1  0  0  0  0  0  0  0  0  0
  -25.5040  -30.2220   25.4180 C   0  0  0  0  0  1  0  0  0  0  0  0
  -27.0540  -29.0550   23.8420 C   0  0  0  0  0  1  0  0  0  0  0  0
  -27.9060  -30.9050   25.2100 C   0  0  0  0  0  1  0  0  0  0  0  0
  3  2  2  0
  4  2  1  0
  5  6  2  0
  5  7  1  0
  6  3  1  0
  7  4  2  0
  8  9  2  0
  9  6  1  0
 10  8  1  0
 11 16  1  0
 12 13  1  0
 12 11  1  0
 14 13  1  0
 14 21  1  0
 14 15  1  0
 16 10  1  0
 16 15  1  0
 17 10  2  0
 18 43  1  0
 18 19  2  0
 19 38  1  0
 20 23  1  0
 20 19  1  0
 21 22  1  0
 21 18  1  0
 22 20  2  0
 23 24  1  0
 24 25  2  0
 26 25  1  0
 27 26  2  0
 28 27  1  0
 28 23  2  0
 29 26  1  0
 29 30  1  0
 30 35  2  0
 30 31  1  0
 31 32  2  0
 32 33  1  0
 33 37  1  0
 34 33  2  0
 35 34  1  0
 36 35  1  0
 38 39  1  0
 39 41  1  0
 39 42  1  0
 40 38  2  0
 43 44  1  0
 45 43  1  0
 46 47  1  0
 46  9  1  0
 48 49  1  0
 49 50  1  0
 49 51  1  0
 55 66  2  0
 56 54  1  0
 56 61  1  0
 57 67  1  0
 57 65  1  0
 58 63  1  0
 58 60  1  0
 58 64  1  0
 59 65  1  0
 60 61  1  0
 60 59  1  0
 62 63  1  0
 62 56  1  0
 64 57  1  0
 65 55  1  0
 67 68  1  0
 67 69  1  0
 69 48  1  0
 70 68  1  0
 71 76  2  0
 71 80  1  0
 72 76  1  0
 73 74  1  0
 73 72  1  0
 74 75  1  0
 75 71  1  0
 76 77  1  0
 77 78  2  0
 79 78  1  0
 80 79  2  0
 81 55  1  0
 81 82  1  0
 81 91  1  0
 82 85  1  0
 83 82  1  0
 83 87  1  0
 84 83  2  0
 87 86  1  0
 87 89  1  0
 89 90  1  0
 89 88  1  0
 91 94  1  1
 91 92  1  0
 93 91  1  0
M  ISO  4   8 100  10 100  53 101  54 101
M  END
>  <TORSDO>  (47) 
F 23

>  <SCORE>  (47) 
13.131

>  <name>  (47) 
46

>  <ligand_id>  (47) 
46

>  <original_smiles>  (47) 
[H]OC(=C([H])C(=O)N1C([H])([H])C([H])([H])C([H])([H])C([H])(n2nc(-c3c([H])c([H])c(Oc4c([H])c([H])c(F)c([H])c4F)c([H])c3[H])c(C(=O)N([H])[H])c2N([H])[H])C1([H])[H])c1c([H])c([H])c([H])c(C([H])([H])C([H])([H])[N+]([H])([H])C([H])([H])C([H])([H])Oc2c([H])c([H])c3c(c2[H])C([H])([H])N(C(=O)C([H])(N([H])C(=O)C([H])(N([H])C([H])([H])[H])C([H])([H])[H])C(C([H])([H])[H])(C([H])([H])[H])C([H])([H])[H])C([H])(C(=O)N([H])C2([H])c4c([H])c([H])c([H])c([H])c4C([H])([H])C([H])([H])C2([H])[H])C3([H])[H])c1[H]

>  <smiles>  (47) 
[H]OC(=C([H])C(=O)N1C([H])([H])C([H])([H])C([H])([H])C([H])(n2nc(-c3c([H])c([H])c(Oc4c([H])c([H])c(F)c([H])c4F)c([H])c3[H])c(C(=O)N([H])[H])c2N([H])[H])C1([H])[H])c1c([H])c([H])c([H])c(C([H])([H])C([H])([H])[N+]([H])([H])C([H])([H])C([H])([H])Oc2c([H])c([H])c3c(c2[H])C([H])([H])N(C(=O)C([H])(N([H])C(=O)C([H])(N([H])C([H])([H])[H])C([H])([H])[H])C(C([H])([H])[H])(C([H])([H])[H])C([H])([H])[H])C([H])(C(=O)N([H])C2([H])c4c([H])c([H])c([H])c([H])c4C([H])([H])C([H])([H])C2([H])[H])C3([H])[H])c1[H]

$$$$
47:0:0
     RDKit          3D

 90 98  0  0  1  0  0  0  0  0999 V2000
  -29.4040  -19.2040   20.6130 C   0  0  0  0  0  3  0  0  0  0  0  0
  -30.3590  -19.2630   18.0570 C   0  0  0  0  0  3  0  0  0  0  0  0
  -29.3820  -20.5360   19.9420 C   0  0  0  0  0  0  0  0  0  0  0  0
  -29.8820  -17.9040   20.0590 C   0  0  0  0  0  0  0  0  0  0  0  0
  -29.9240  -20.4860   18.6210 C   0  0  0  0  0  0  0  0  0  0  0  0
  -30.3220  -18.0130   18.7130 C   0  0  0  0  0  0  0  0  0  0  0  0
  -30.0520  -21.7000   17.7090 C   0  0  0  0  0  1  0  0  0  0  0  0
  -30.7390  -16.8100   17.8830 C   0  0  0  0  0  1  0  0  0  0  0  0
  -28.7980  -21.9130   20.5890 C   0  0  0  0  0  0  0  0  0  0  0  0
  -28.3080  -21.8380   21.7190 O   0  0  0  0  0  0  0  0  0  0  0  0
  -28.7870  -23.4390   19.9410 C   0  0  0  0  0  3  0  0  0  0  0  0
  -28.0580  -24.7870   20.6310 C   0  0  0  0  0  3  0  0  0  0  0  0
  -28.2680  -26.2870   20.2780 O   0  0  0  0  0  0  0  0  0  0  0  0
  -24.5830  -31.9370   23.2750 C   0  0  0  0  0  0  0  0  0  0  0  0
  -27.1900  -27.2370   20.2680 C   0  0  0  0  0  0  0  0  0  0  0  0
  -23.3940  -30.5280   21.6380 C   0  0  0  0  0  3  0  0  0  0  0  0
  -24.8520  -28.9520   20.2270 C   0  0  0  0  0  0  0  0  0  0  0  0
  -25.9450  -30.8070   21.4790 C   0  0  0  0  0  2  0  0  0  0  0  0
  -26.0280  -29.4140   20.8340 C   0  0  0  0  0  0  0  0  0  0  0  0
  -27.2010  -28.5720   20.8330 C   0  0  0  0  0  3  0  0  0  0  0  0
  -25.9880  -26.8670   19.6310 C   0  0  0  0  0  3  0  0  0  0  0  0
  -24.8420  -27.6910   19.6120 C   0  0  0  0  0  3  0  0  0  0  0  0
  -23.6220  -29.8450   20.2630 C   0  0  0  0  0  2  0  0  0  0  0  0
  -24.6600  -31.1110   22.1860 N   0  0  0  0  0  0  0  0  0  0  0  0
  -23.4950  -32.2220   23.7970 O   0  0  0  0  0  0  0  0  0  0  0  0
  -22.7160  -29.5230   22.6020 C   0  0  0  0  0  0  0  0  0  0  0  0
  -21.3910  -29.3410   22.4650 N   0  0  0  0  0  0  0  0  0  0  0  0
  -23.3860  -28.9070   23.4350 O   0  0  0  0  0  0  0  0  0  0  0  0
  -20.9080  -29.8930   21.7680 H   0  0  0  0  0  0  0  0  0  0  0  0
  -18.0110  -28.1370   22.9600 C   0  0  0  0  0  0  0  0  0  0  0  0
  -20.5680  -28.4050   23.2350 C   0  0  0  0  0  3  0  0  0  0  0  0
  -20.6740  -26.9720   22.6640 C   0  0  0  0  0  2  0  0  0  0  0  0
  -19.5760  -26.6450   21.6470 C   0  0  0  0  0  2  0  0  0  0  0  0
  -18.1920  -26.7880   22.2860 C   0  0  0  0  0  2  0  0  0  0  0  0
  -19.1270  -28.9040   23.3900 C   0  0  0  0  0  0  0  0  0  0  0  0
  -18.9030  -30.1650   23.9830 C   0  0  0  0  0  3  0  0  0  0  0  0
  -17.5960  -30.6620   24.1460 C   0  0  0  0  0  3  0  0  0  0  0  0
  -16.4950  -29.8940   23.7320 C   0  0  0  0  0  3  0  0  0  0  0  0
  -16.7030  -28.6330   23.1440 C   0  0  0  0  0  3  0  0  0  0  0  0
  -25.8570  -32.5780   23.9050 C   0  0  0  0  0  3  0  0  0  0  0  0
  -26.3470  -31.8340   25.2090 C   0  0  1  0  0  0  0  0  0  0  0  0
  -25.2350  -31.6250   26.2630 C   0  0  0  0  0  1  0  0  0  0  0  0
  -26.9290  -30.4450   24.8600 C   0  0  0  0  0  1  0  0  0  0  0  0
  -27.4910  -32.6370   25.8710 C   0  0  0  0  0  1  0  0  0  0  0  0
  -25.5490  -33.9860   24.2050 N   0  0  0  0  0  0  0  0  0  0  0  0
  -25.9030  -35.0270   23.4410 C   0  0  0  0  0  0  0  0  0  0  0  0
  -26.5920  -34.9030   22.4260 O   0  0  0  0  0  0  0  0  0  0  0  0
  -24.9390  -34.1560   24.9930 H   0  0  0  0  0  0  0  0  0  0  0  0
  -24.2100  -36.8390   23.0160 C   0  0  0  0  0  1  0  0  0  0  0  0
  -25.4190  -36.4260   23.8700 C   0  0  0  0  0  3  0  0  0  0  0  0
  -27.5350  -37.2970   24.7620 C   0  0  0  0  0  1  0  0  0  0  0  0
  -26.4680  -37.4660   23.7790 N   0  0  0  0  0  0  0  0  0  0  0  0
  -26.0700  -38.3940   23.9010 H   0  0  0  0  0  0  0  0  0  0  0  0
  -29.8130  -16.4350   20.8260 C   0  0  0  0  0  2  0  0  0  0  0  0
  -30.6290  -15.0230   20.4780 C   0  0  0  0  0  0  0  0  0  0  0  0
  -30.5450  -12.6780   19.5160 C   0  0  0  0  0  2  0  0  0  0  0  0
  -29.6430  -12.6670   18.2570 C   0  0  0  0  0  2  0  0  0  0  0  0
  -28.1640  -12.4690   18.6430 C   0  0  0  0  0  2  0  0  0  0  0  0
  -27.7340  -13.3770   19.8260 C   0  0  0  0  0  3  0  0  0  0  0  0
  -28.7600  -13.3520   20.9780 C   0  0  0  0  0  2  0  0  0  0  0  0
  -30.0550  -13.7550   20.4210 N   0  0  0  0  0  0  0  0  0  0  0  0
  -31.8290  -15.0900   20.1840 O   0  0  0  0  0  0  0  0  0  0  0  0
  -25.3260  -13.9460   20.4830 C   0  0  0  0  0  0  0  0  0  0  0  0
  -24.2570  -13.1660   20.8300 C   0  0  0  0  0  0  0  0  0  0  0  0
  -24.7320  -11.8200   20.8290 C   0  0  0  0  0  0  0  0  0  0  0  0
  -26.3830  -13.0730   20.2850 N   0  0  0  0  0  0  0  0  0  0  0  0
  -26.0320  -11.7900   20.5610 N   0  0  0  0  0  0  0  0  0  0  0  0
  -24.0090  -10.5530   21.0110 C   0  0  0  0  0  0  0  0  0  0  0  0
  -24.4090   -9.6050   21.9800 C   0  0  0  0  0  3  0  0  0  0  0  0
  -23.6850   -8.4060   22.1500 C   0  0  0  0  0  3  0  0  0  0  0  0
  -22.5470   -8.1430   21.3500 C   0  0  0  0  0  0  0  0  0  0  0  0
  -22.1670   -9.0790   20.3710 C   0  0  0  0  0  3  0  0  0  0  0  0
  -22.8920  -10.2710   20.2000 C   0  0  0  0  0  3  0  0  0  0  0  0
  -21.7980   -6.9940   21.4260 O   0  0  0  0  0  0  0  0  0  0  0  0
  -21.6940   -6.2790   22.5930 C   0  0  0  0  0  0  0  0  0  0  0  0
  -21.1780   -6.8530   23.7760 C   0  0  0  0  0  3  0  0  0  0  0  0
  -21.0250   -6.0640   24.9320 C   0  0  0  0  0  3  0  0  0  0  0  0
  -21.3750   -4.7000   24.9070 C   0  0  0  0  0  0  0  0  0  0  0  0
  -21.8820   -4.1270   23.7280 C   0  0  0  0  0  3  0  0  0  0  0  0
  -22.0390   -4.9130   22.5740 C   0  0  0  0  0  0  0  0  0  0  0  0
  -22.5100   -4.3500   21.4350 F   0  0  0  0  0  0  0  0  0  0  0  0
  -21.2210   -3.9390   26.0150 F   0  0  0  0  0  0  0  0  0  0  0  0
  -22.8470  -13.6350   21.0500 C   0  0  0  0  0  0  0  0  0  0  0  0
  -22.0990  -12.9440   21.9020 N   0  0  0  0  0  0  0  0  0  0  0  0
  -22.4180  -14.6500   20.5030 O   0  0  0  0  0  0  0  0  0  0  0  0
  -22.4570  -12.1240   22.3660 H   0  0  0  0  0  0  0  0  0  0  0  0
  -21.1530  -13.2440   22.0960 H   0  0  0  0  0  0  0  0  0  0  0  0
  -25.4850  -15.3150   20.2960 N   0  0  0  0  0  0  0  0  0  0  0  0
  -24.7100  -15.9660   20.3780 H   0  0  0  0  0  0  0  0  0  0  0  0
  -26.3400  -15.7580   19.9840 H   0  0  0  0  0  0  0  0  0  0  0  0
  2  5  2  0
  2  6  1  0
  3  9  1  0
  3  1  2  0
  4  1  1  0
  4 54  1  0
  5  3  1  0
  6  4  2  0
  7  5  1  0
  8  6  1  0
  9 10  2  0
 11  9  1  0
 11 12  2  0
 13 12  1  0
 14 25  2  0
 15 13  1  0
 15 20  1  0
 16 24  1  0
 16 26  1  0
 17 23  1  0
 17 19  1  0
 18 24  1  0
 19 18  1  0
 20 19  2  0
 21 15  2  0
 22 21  1  0
 22 17  2  0
 23 16  1  0
 24 14  1  0
 26 28  2  0
 27 26  1  0
 29 27  1  0
 30 39  2  0
 30 35  1  0
 31 27  1  0
 31 35  1  0
 32 31  1  0
 33 34  1  0
 33 32  1  0
 34 30  1  0
 35 36  2  0
 36 37  1  0
 38 37  2  0
 39 38  1  0
 40 14  1  0
 40 45  1  0
 40 41  1  0
 41 44  1  1
 41 42  1  0
 43 41  1  0
 45 48  1  0
 46 50  1  0
 46 45  1  0
 47 46  2  0
 50 49  1  0
 52 50  1  0
 52 53  1  0
 52 51  1  0
 55 54  1  0
 56 61  1  0
 57 58  1  0
 57 56  1  0
 59 58  1  0
 59 66  1  0
 59 60  1  0
 61 55  1  0
 61 60  1  0
 62 55  2  0
 63 64  2  0
 64 83  1  0
 65 64  1  0
 65 68  1  0
 66 63  1  0
 66 67  1  0
 67 65  2  0
 68 69  1  0
 69 70  2  0
 71 74  1  0
 71 70  1  0
 72 71  2  0
 73 72  1  0
 73 68  2  0
 74 75  1  0
 75 76  1  0
 76 77  2  0
 78 77  1  0
 78 82  1  0
 79 78  2  0
 80 75  2  0
 80 79  1  0
 81 80  1  0
 83 84  1  0
 84 87  1  0
 84 86  1  0
 85 83  2  0
 88 89  1  0
 88 63  1  0
 90 88  1  0
M  ISO  4  12 101  13 101  54 100  55 100
M  END
>  <TORSDO>  (48) 
F 20

>  <SCORE>  (48) 
-13.627

>  <name>  (48) 
47

>  <ligand_id>  (48) 
47

>  <original_smiles>  (48) 
[H]c1c([H])c([H])c2c(c1[H])C([H])([H])C([H])([H])C([H])([H])C2([H])N([H])C(=O)C1([H])N(C(=O)C([H])(N([H])C(=O)C([H])(N([H])C([H])([H])[H])C([H])([H])[H])C(C([H])([H])[H])(C([H])([H])[H])C([H])([H])[H])C([H])([H])c2c([H])c(OC([H])([H])C([H])([H])C(=O)c3c([H])c(C([H])([H])C(=O)N4C([H])([H])C([H])([H])C([H])([H])C([H])(n5nc(-c6c([H])c([H])c(Oc7c([H])c([H])c(F)c([H])c7F)c([H])c6[H])c(C(=O)N([H])[H])c5N([H])[H])C4([H])[H])c(C([H])([H])[H])c([H])c3C([H])([H])[H])c([H])c([H])c2C1([H])[H]

>  <smiles>  (48) 
[H]c1c([H])c([H])c2c(c1[H])C([H])([H])C([H])([H])C([H])([H])C2([H])N([H])C(=O)C1([H])N(C(=O)C([H])(N([H])C(=O)C([H])(N([H])C([H])([H])[H])C([H])([H])[H])C(C([H])([H])[H])(C([H])([H])[H])C([H])([H])[H])C([H])([H])c2c([H])c(OC([H])([H])C([H])([H])C(=O)c3c([H])c(C([H])([H])C(=O)N4C([H])([H])C([H])([H])C([H])([H])C([H])(n5nc(-c6c([H])c([H])c(Oc7c([H])c([H])c(F)c([H])c7F)c([H])c6[H])c(C(=O)N([H])[H])c5N([H])[H])C4([H])[H])c(C([H])([H])[H])c([H])c3C([H])([H])[H])c([H])c([H])c2C1([H])[H]

$$$$
48:0:0
     RDKit          3D

 89 97  0  0  1  0  0  0  0  0999 V2000
  -28.2680  -22.8130   17.8380 C   0  0  0  0  0  3  0  0  0  0  0  0
  -28.7410  -21.6400   18.4910 C   0  0  0  0  0  3  0  0  0  0  0  0
  -28.1120  -24.0920   18.4480 C   0  0  0  0  0  3  0  0  0  0  0  0
  -28.9120  -23.0350   20.4530 C   0  0  0  0  0  3  0  0  0  0  0  0
  -29.1060  -21.6010   19.8540 C   0  0  0  0  0  0  0  0  0  0  0  0
  -28.4150  -24.3650   19.8000 C   0  0  0  0  0  0  0  0  0  0  0  0
  -29.5580  -20.0230   20.4560 C   0  0  0  0  0  0  0  0  0  0  0  0
  -29.5650  -19.9580   21.6880 O   0  0  0  0  0  0  0  0  0  0  0  0
  -31.5710  -18.6820   19.3680 C   0  0  0  0  0  1  0  0  0  0  0  0
  -30.0830  -18.4410   19.6700 C   0  0  0  0  0  3  0  0  0  0  0  0
  -30.6840  -15.4910   19.9540 C   0  0  0  0  0  0  0  0  0  0  0  0
  -30.6080  -13.0240   19.0940 C   0  0  0  0  0  2  0  0  0  0  0  0
  -29.6640  -12.8180   17.8810 C   0  0  0  0  0  2  0  0  0  0  0  0
  -28.2250  -12.5560   18.3520 C   0  0  0  0  0  2  0  0  0  0  0  0
  -27.8110  -13.5180   19.4940 C   0  0  0  0  0  3  0  0  0  0  0  0
  -28.8850  -13.6730   20.5940 C   0  0  0  0  0  2  0  0  0  0  0  0
  -30.1030  -14.1810   19.9370 N   0  0  0  0  0  0  0  0  0  0  0  0
  -31.8820  -15.4490   19.6320 O   0  0  0  0  0  0  0  0  0  0  0  0
  -29.9670  -16.8010   20.1320 N   0  0  0  0  0  0  0  0  0  0  0  0
  -29.0420  -16.6230   20.4970 H   0  0  0  0  0  0  0  0  0  0  0  0
  -25.4690  -14.0940   20.3050 C   0  0  0  0  0  0  0  0  0  0  0  0
  -24.4100  -13.3290   20.7050 C   0  0  0  0  0  0  0  0  0  0  0  0
  -24.8630  -11.9740   20.6670 C   0  0  0  0  0  0  0  0  0  0  0  0
  -26.4960  -13.2090   20.0380 N   0  0  0  0  0  0  0  0  0  0  0  0
  -26.1470  -11.9270   20.3220 N   0  0  0  0  0  0  0  0  0  0  0  0
  -24.1270  -10.7210   20.8780 C   0  0  0  0  0  0  0  0  0  0  0  0
  -24.5430   -9.7690   21.8350 C   0  0  0  0  0  3  0  0  0  0  0  0
  -23.8040   -8.5830   22.0350 C   0  0  0  0  0  3  0  0  0  0  0  0
  -22.6340   -8.3400   21.2770 C   0  0  0  0  0  0  0  0  0  0  0  0
  -22.2360   -9.2790   20.3110 C   0  0  0  0  0  3  0  0  0  0  0  0
  -22.9760  -10.4570   20.1090 C   0  0  0  0  0  3  0  0  0  0  0  0
  -21.8660   -7.2050   21.3860 O   0  0  0  0  0  0  0  0  0  0  0  0
  -21.7690   -6.5100   22.5650 C   0  0  0  0  0  0  0  0  0  0  0  0
  -21.2760   -7.1100   23.7450 C   0  0  0  0  0  3  0  0  0  0  0  0
  -21.1270   -6.3420   24.9170 C   0  0  0  0  0  3  0  0  0  0  0  0
  -21.4630   -4.9750   24.9100 C   0  0  0  0  0  0  0  0  0  0  0  0
  -21.9490   -4.3740   23.7350 C   0  0  0  0  0  3  0  0  0  0  0  0
  -22.0980   -5.1400   22.5650 C   0  0  0  0  0  0  0  0  0  0  0  0
  -22.5470   -4.5520   21.4300 F   0  0  0  0  0  0  0  0  0  0  0  0
  -21.3140   -4.2330   26.0330 F   0  0  0  0  0  0  0  0  0  0  0  0
  -23.0250  -13.8220   21.0040 C   0  0  0  0  0  0  0  0  0  0  0  0
  -22.3150  -13.1480   21.9000 N   0  0  0  0  0  0  0  0  0  0  0  0
  -22.5840  -14.8430   20.4760 O   0  0  0  0  0  0  0  0  0  0  0  0
  -22.6860  -12.3230   22.3470 H   0  0  0  0  0  0  0  0  0  0  0  0
  -21.3860  -13.4610   22.1430 H   0  0  0  0  0  0  0  0  0  0  0  0
  -25.6380  -15.4630   20.1150 N   0  0  0  0  0  0  0  0  0  0  0  0
  -24.8700  -16.1170   20.2220 H   0  0  0  0  0  0  0  0  0  0  0  0
  -26.4610  -15.8840   19.7060 H   0  0  0  0  0  0  0  0  0  0  0  0
  -28.3540  -25.8660   20.2090 O   0  0  0  0  0  0  0  0  0  0  0  0
  -24.6820  -31.8330   23.0980 C   0  0  0  0  0  0  0  0  0  0  0  0
  -27.3370  -26.9710   20.0750 C   0  0  0  0  0  0  0  0  0  0  0  0
  -23.5260  -30.4310   21.4370 C   0  0  0  0  0  3  0  0  0  0  0  0
  -25.0130  -28.8510   20.0130 C   0  0  0  0  0  0  0  0  0  0  0  0
  -26.0920  -30.6670   21.3230 C   0  0  0  0  0  2  0  0  0  0  0  0
  -26.1870  -29.2580   20.6570 C   0  0  0  0  0  0  0  0  0  0  0  0
  -27.3360  -28.3370   20.6680 C   0  0  0  0  0  3  0  0  0  0  0  0
  -26.1320  -26.7300   19.3750 C   0  0  0  0  0  3  0  0  0  0  0  0
  -25.0130  -27.6090   19.3520 C   0  0  0  0  0  3  0  0  0  0  0  0
  -23.7810  -29.7560   20.0590 C   0  0  0  0  0  2  0  0  0  0  0  0
  -24.7880  -31.0060   22.0070 N   0  0  0  0  0  0  0  0  0  0  0  0
  -23.5830  -32.1060   23.6090 O   0  0  0  0  0  0  0  0  0  0  0  0
  -22.8330  -29.4220   22.3920 C   0  0  0  0  0  0  0  0  0  0  0  0
  -21.5010  -29.2650   22.2740 N   0  0  0  0  0  0  0  0  0  0  0  0
  -23.5010  -28.7820   23.2060 O   0  0  0  0  0  0  0  0  0  0  0  0
  -21.0140  -29.8350   21.5970 H   0  0  0  0  0  0  0  0  0  0  0  0
  -18.1170  -28.0600   22.7980 C   0  0  0  0  0  0  0  0  0  0  0  0
  -20.6820  -28.3130   23.0340 C   0  0  0  0  0  3  0  0  0  0  0  0
  -20.7690  -26.8940   22.4250 C   0  0  0  0  0  2  0  0  0  0  0  0
  -19.6530  -26.6000   21.4170 C   0  0  0  0  0  2  0  0  0  0  0  0
  -18.2810  -26.7310   22.0840 C   0  0  0  0  0  2  0  0  0  0  0  0
  -19.2440  -28.8120   23.2310 C   0  0  0  0  0  0  0  0  0  0  0  0
  -19.0340  -30.0560   23.8630 C   0  0  0  0  0  3  0  0  0  0  0  0
  -17.7310  -30.5500   24.0650 C   0  0  0  0  0  3  0  0  0  0  0  0
  -16.6200  -29.7980   23.6470 C   0  0  0  0  0  3  0  0  0  0  0  0
  -16.8150  -28.5540   23.0190 C   0  0  0  0  0  3  0  0  0  0  0  0
  -25.9360  -32.4920   23.7500 C   0  0  0  0  0  3  0  0  0  0  0  0
  -25.5920  -33.8830   24.0980 N   0  0  0  0  0  0  0  0  0  0  0  0
  -25.9160  -34.9610   23.3710 C   0  0  0  0  0  0  0  0  0  0  0  0
  -26.5970  -34.8890   22.3450 O   0  0  0  0  0  0  0  0  0  0  0  0
  -24.9850  -34.0110   24.8940 H   0  0  0  0  0  0  0  0  0  0  0  0
  -24.1710  -36.7470   23.0390 C   0  0  0  0  0  1  0  0  0  0  0  0
  -25.4070  -36.3350   23.8530 C   0  0  0  0  0  3  0  0  0  0  0  0
  -27.5160  -37.2350   24.7350 C   0  0  0  0  0  1  0  0  0  0  0  0
  -26.4280  -37.4040   23.7760 N   0  0  0  0  0  0  0  0  0  0  0  0
  -26.0070  -38.3170   23.9310 H   0  0  0  0  0  0  0  0  0  0  0  0
  -26.4390  -31.7250   25.0350 C   0  0  1  0  0  0  0  0  0  0  0  0
  -25.3320  -31.4690   26.0840 C   0  0  0  0  0  1  0  0  0  0  0  0
  -27.0500  -30.3560   24.6580 C   0  0  0  0  0  1  0  0  0  0  0  0
  -27.5680  -32.5330   25.7200 C   0  0  0  0  0  1  0  0  0  0  0  0
  1  3  2  0
  1  2  1  0
  2  5  2  0
  3  6  1  0
  5  4  1  0
  5  7  1  0
  6 49  1  0
  6  4  2  0
  7  8  2  0
 10  9  1  0
 10 19  1  0
 10  7  1  0
 11 19  1  0
 12 17  1  0
 13 14  1  0
 13 12  1  0
 15 14  1  0
 15 24  1  0
 15 16  1  0
 17 11  1  0
 17 16  1  0
 18 11  2  0
 19 20  1  0
 21 22  2  0
 22 41  1  0
 23 22  1  0
 23 26  1  0
 24 21  1  0
 24 25  1  0
 25 23  2  0
 26 27  1  0
 27 28  2  0
 29 32  1  0
 29 28  1  0
 30 29  2  0
 31 30  1  0
 31 26  2  0
 32 33  1  0
 33 34  1  0
 34 35  2  0
 36 35  1  0
 36 40  1  0
 37 36  2  0
 38 33  2  0
 38 37  1  0
 39 38  1  0
 41 42  1  0
 42 45  1  0
 42 44  1  0
 43 41  2  0
 46 47  1  0
 46 21  1  0
 48 46  1  0
 50 61  2  0
 51 49  1  0
 51 56  1  0
 52 60  1  0
 52 62  1  0
 53 59  1  0
 53 55  1  0
 54 60  1  0
 55 56  2  0
 55 54  1  0
 57 51  2  0
 58 57  1  0
 58 53  2  0
 59 52  1  0
 60 50  1  0
 62 64  2  0
 63 62  1  0
 65 63  1  0
 66 75  2  0
 66 71  1  0
 67 63  1  0
 67 71  1  0
 68 67  1  0
 69 70  1  0
 69 68  1  0
 70 66  1  0
 71 72  2  0
 72 73  1  0
 74 73  2  0
 75 74  1  0
 76 50  1  0
 76 77  1  0
 76 86  1  0
 77 80  1  0
 78 82  1  0
 78 77  1  0
 79 78  2  0
 82 81  1  0
 84 82  1  0
 84 85  1  0
 84 83  1  0
 86 89  1  1
 86 87  1  0
 88 86  1  0
M  ISO  4   6 101  11 100  19 100  49 101
M  END
>  <TORSDO>  (49) 
F 18

>  <SCORE>  (49) 
-15.436

>  <name>  (49) 
48

>  <ligand_id>  (49) 
48

>  <original_smiles>  (49) 
[H]c1c([H])c(Oc2c([H])c([H])c3c(c2[H])C([H])([H])N(C(=O)C([H])(N([H])C(=O)C([H])(N([H])C([H])([H])[H])C([H])([H])[H])C(C([H])([H])[H])(C([H])([H])[H])C([H])([H])[H])C([H])(C(=O)N([H])C2([H])c4c([H])c([H])c([H])c([H])c4C([H])([H])C([H])([H])C2([H])[H])C3([H])[H])c([H])c(C(=O)C([H])(N([H])C(=O)N2C([H])([H])C([H])([H])C([H])([H])C([H])(n3nc(-c4c([H])c([H])c(Oc5c([H])c([H])c(F)c([H])c5F)c([H])c4[H])c(C(=O)N([H])[H])c3N([H])[H])C2([H])[H])C([H])([H])[H])c1[H]

>  <smiles>  (49) 
[H]c1c([H])c(Oc2c([H])c([H])c3c(c2[H])C([H])([H])N(C(=O)C([H])(N([H])C(=O)C([H])(N([H])C([H])([H])[H])C([H])([H])[H])C(C([H])([H])[H])(C([H])([H])[H])C([H])([H])[H])C([H])(C(=O)N([H])C2([H])c4c([H])c([H])c([H])c([H])c4C([H])([H])C([H])([H])C2([H])[H])C3([H])[H])c([H])c(C(=O)C([H])(N([H])C(=O)N2C([H])([H])C([H])([H])C([H])([H])C([H])(n3nc(-c4c([H])c([H])c(Oc5c([H])c([H])c(F)c([H])c5F)c([H])c4[H])c(C(=O)N([H])[H])c3N([H])[H])C2([H])[H])C([H])([H])[H])c1[H]

$$$$
49:0:0
     RDKit          3D

 92100  0  0  1  0  0  0  0  0999 V2000
  -28.9000  -21.8900   21.6250 C   0  0  0  0  0  3  0  0  0  0  0  0
  -28.5330  -23.0720   22.3170 C   0  0  0  0  0  3  0  0  0  0  0  0
  -29.0870  -21.8140   20.2310 C   0  0  0  0  0  0  0  0  0  0  0  0
  -28.3330  -24.3560   21.7260 C   0  0  0  0  0  0  0  0  0  0  0  0
  -28.4680  -24.5570   20.3300 C   0  0  0  0  0  0  0  0  0  0  0  0
  -28.8520  -23.2260   19.6270 C   0  0  0  0  0  0  0  0  0  0  0  0
  -29.0220  -23.3250   18.2870 F   0  0  0  0  0  0  0  0  0  0  0  0
  -29.4860  -20.2530   19.5880 C   0  0  0  0  0  0  0  0  0  0  0  0
  -29.4410  -20.1840   18.3600 O   0  0  0  0  0  0  0  0  0  0  0  0
  -31.4520  -18.9590   20.7370 C   0  0  0  0  0  1  0  0  0  0  0  0
  -29.1350  -18.4380   21.5300 C   0  0  0  0  0  1  0  0  0  0  0  0
  -30.0040  -18.7010   20.2780 C   0  0  1  0  0  0  0  0  0  0  0  0
  -30.0300  -17.0570   19.5160 C   0  0  0  0  0  2  0  0  0  0  0  0
  -30.8610  -15.5120   19.7330 C   0  0  0  0  0  0  0  0  0  0  0  0
  -30.8210  -13.0320   18.9650 C   0  0  0  0  0  2  0  0  0  0  0  0
  -29.8530  -12.8010   17.7750 C   0  0  0  0  0  2  0  0  0  0  0  0
  -28.4110  -12.5600   18.2700 C   0  0  0  0  0  2  0  0  0  0  0  0
  -28.0140  -13.5510   19.3930 C   0  0  0  0  0  3  0  0  0  0  0  0
  -29.1050  -13.7240   20.4660 C   0  0  0  0  0  2  0  0  0  0  0  0
  -30.3170  -14.1950   19.7800 N   0  0  0  0  0  0  0  0  0  0  0  0
  -32.0850  -15.4850   19.5400 O   0  0  0  0  0  0  0  0  0  0  0  0
  -25.7180  -14.1730   20.3030 C   0  0  0  0  0  0  0  0  0  0  0  0
  -24.6480  -13.4240   20.7120 C   0  0  0  0  0  0  0  0  0  0  0  0
  -25.0600  -12.0600   20.6200 C   0  0  0  0  0  0  0  0  0  0  0  0
  -26.7070  -13.2650   19.9740 N   0  0  0  0  0  0  0  0  0  0  0  0
  -26.3300  -11.9850   20.2330 N   0  0  0  0  0  0  0  0  0  0  0  0
  -24.2960  -10.8200   20.8220 C   0  0  0  0  0  0  0  0  0  0  0  0
  -24.6900   -9.8570   21.7780 C   0  0  0  0  0  3  0  0  0  0  0  0
  -23.9290   -8.6830   21.9680 C   0  0  0  0  0  3  0  0  0  0  0  0
  -22.7620   -8.4620   21.2000 C   0  0  0  0  0  0  0  0  0  0  0  0
  -22.3880   -9.4100   20.2320 C   0  0  0  0  0  3  0  0  0  0  0  0
  -23.1470  -10.5770   20.0410 C   0  0  0  0  0  3  0  0  0  0  0  0
  -21.9760   -7.3390   21.2940 O   0  0  0  0  0  0  0  0  0  0  0  0
  -21.8160   -6.6690   22.4810 C   0  0  0  0  0  0  0  0  0  0  0  0
  -21.2810   -7.3000   23.6250 C   0  0  0  0  0  3  0  0  0  0  0  0
  -21.0710   -6.5600   24.8040 C   0  0  0  0  0  3  0  0  0  0  0  0
  -21.3810   -5.1860   24.8390 C   0  0  0  0  0  0  0  0  0  0  0  0
  -21.9080   -4.5540   23.6990 C   0  0  0  0  0  3  0  0  0  0  0  0
  -22.1210   -5.2940   22.5230 C   0  0  0  0  0  0  0  0  0  0  0  0
  -22.6110   -4.6760   21.4200 F   0  0  0  0  0  0  0  0  0  0  0  0
  -21.1710   -4.4720   25.9700 F   0  0  0  0  0  0  0  0  0  0  0  0
  -23.2880  -13.9460   21.0690 C   0  0  0  0  0  0  0  0  0  0  0  0
  -22.5910  -13.2630   21.9710 N   0  0  0  0  0  0  0  0  0  0  0  0
  -22.8530  -14.9890   20.5850 O   0  0  0  0  0  0  0  0  0  0  0  0
  -22.9670  -12.4240   22.3870 H   0  0  0  0  0  0  0  0  0  0  0  0
  -21.6730  -13.5820   22.2470 H   0  0  0  0  0  0  0  0  0  0  0  0
  -25.9300  -15.5400   20.1550 N   0  0  0  0  0  0  0  0  0  0  0  0
  -25.2000  -16.2270   20.3120 H   0  0  0  0  0  0  0  0  0  0  0  0
  -26.7760  -15.9450   19.7820 H   0  0  0  0  0  0  0  0  0  0  0  0
  -28.3470  -25.4830   23.8640 C   0  0  0  0  0  1  0  0  0  0  0  0
  -28.0250  -25.4740   22.4770 O   0  0  0  0  0  0  0  0  0  0  0  0
  -28.3980  -26.0310   19.8910 O   0  0  0  0  0  0  0  0  0  0  0  0
  -24.6430  -31.8360   23.0630 C   0  0  0  0  0  0  0  0  0  0  0  0
  -27.3310  -27.0710   19.9860 C   0  0  0  0  0  0  0  0  0  0  0  0
  -23.4820  -30.4210   21.4190 C   0  0  0  0  0  3  0  0  0  0  0  0
  -24.9700  -28.8730   19.9780 C   0  0  0  0  0  0  0  0  0  0  0  0
  -26.0390  -30.7130   21.2590 C   0  0  0  0  0  2  0  0  0  0  0  0
  -26.1480  -29.3090   20.5960 C   0  0  0  0  0  0  0  0  0  0  0  0
  -27.3220  -28.4290   20.5810 C   0  0  0  0  0  3  0  0  0  0  0  0
  -26.1200  -26.7890   19.3160 C   0  0  0  0  0  3  0  0  0  0  0  0
  -24.9760  -27.6300   19.3220 C   0  0  0  0  0  3  0  0  0  0  0  0
  -23.7220  -29.7560   20.0370 C   0  0  0  0  0  2  0  0  0  0  0  0
  -24.7420  -31.0160   21.9670 N   0  0  0  0  0  0  0  0  0  0  0  0
  -23.5490  -32.0870   23.5940 O   0  0  0  0  0  0  0  0  0  0  0  0
  -22.8250  -29.3930   22.3750 C   0  0  0  0  0  0  0  0  0  0  0  0
  -21.5050  -29.1770   22.2430 N   0  0  0  0  0  0  0  0  0  0  0  0
  -23.5110  -28.7900   23.2030 O   0  0  0  0  0  0  0  0  0  0  0  0
  -21.0040  -29.7120   21.5490 H   0  0  0  0  0  0  0  0  0  0  0  0
  -18.1700  -27.8330   22.7290 C   0  0  0  0  0  0  0  0  0  0  0  0
  -20.7150  -28.2040   23.0070 C   0  0  0  0  0  3  0  0  0  0  0  0
  -20.8750  -26.7810   22.4240 C   0  0  0  0  0  2  0  0  0  0  0  0
  -19.7900  -26.4170   21.4040 C   0  0  0  0  0  2  0  0  0  0  0  0
  -18.4020  -26.5000   22.0420 C   0  0  0  0  0  2  0  0  0  0  0  0
  -19.2530  -28.6420   23.1670 C   0  0  0  0  0  0  0  0  0  0  0  0
  -18.9750  -29.8880   23.7710 C   0  0  0  0  0  3  0  0  0  0  0  0
  -17.6480  -30.3290   23.9360 C   0  0  0  0  0  3  0  0  0  0  0  0
  -16.5800  -29.5170   23.5140 C   0  0  0  0  0  3  0  0  0  0  0  0
  -16.8420  -28.2710   22.9180 C   0  0  0  0  0  3  0  0  0  0  0  0
  -25.8970  -32.5110   23.6970 C   0  0  0  0  0  3  0  0  0  0  0  0
  -26.4430  -31.7360   24.9590 C   0  0  1  0  0  0  0  0  0  0  0  0
  -25.3570  -31.4300   26.0190 C   0  0  0  0  0  1  0  0  0  0  0  0
  -27.0830  -30.3920   24.5430 C   0  0  0  0  0  1  0  0  0  0  0  0
  -27.5600  -32.5620   25.6430 C   0  0  0  0  0  1  0  0  0  0  0  0
  -25.5320  -33.8880   24.0700 N   0  0  0  0  0  0  0  0  0  0  0  0
  -25.8180  -34.9810   23.3500 C   0  0  0  0  0  0  0  0  0  0  0  0
  -26.4820  -34.9370   22.3120 O   0  0  0  0  0  0  0  0  0  0  0  0
  -24.9380  -33.9930   24.8800 H   0  0  0  0  0  0  0  0  0  0  0  0
  -24.0220  -36.7260   23.0740 C   0  0  0  0  0  1  0  0  0  0  0  0
  -25.2870  -36.3370   23.8600 C   0  0  0  0  0  3  0  0  0  0  0  0
  -27.3950  -37.2700   24.7100 C   0  0  0  0  0  1  0  0  0  0  0  0
  -26.2820  -37.4300   23.7770 N   0  0  0  0  0  0  0  0  0  0  0  0
  -25.8460  -38.3310   23.9550 H   0  0  0  0  0  0  0  0  0  0  0  0
  1  2  1  0
  3  1  2  0
  4  2  2  0
  4 51  1  0
  5  4  1  0
  6  3  1  0
  6  5  2  0
  7  6  1  0
  8  3  1  0
  8 12  1  0
  9  8  2  0
 12 10  1  1
 12 11  1  0
 13 14  1  0
 13 12  1  0
 14 20  1  0
 15 20  1  0
 16 17  1  0
 16 15  1  0
 18 17  1  0
 18 25  1  0
 18 19  1  0
 20 19  1  0
 21 14  2  0
 22 23  2  0
 23 42  1  0
 24 23  1  0
 24 27  1  0
 25 26  1  0
 25 22  1  0
 26 24  2  0
 27 28  1  0
 28 29  2  0
 30 33  1  0
 30 29  1  0
 31 30  2  0
 32 31  1  0
 32 27  2  0
 33 34  1  0
 34 39  2  0
 34 35  1  0
 35 36  2  0
 36 37  1  0
 37 41  1  0
 38 37  2  0
 39 38  1  0
 40 39  1  0
 42 43  1  0
 43 46  1  0
 43 45  1  0
 44 42  2  0
 47 22  1  0
 47 48  1  0
 49 47  1  0
 51 50  1  0
 52 54  1  0
 52  5  1  0
 53 64  2  0
 54 59  1  0
 55 63  1  0
 55 65  1  0
 56 62  1  0
 56 58  1  0
 57 63  1  0
 58 57  1  0
 59 58  2  0
 60 61  1  0
 60 54  2  0
 61 56  2  0
 62 55  1  0
 63 53  1  0
 65 67  2  0
 66 65  1  0
 68 66  1  0
 69 78  2  0
 69 74  1  0
 70 66  1  0
 70 74  1  0
 71 70  1  0
 72 73  1  0
 72 71  1  0
 73 69  1  0
 74 75  2  0
 75 76  1  0
 77 76  2  0
 78 77  1  0
 79 53  1  0
 79 84  1  0
 79 80  1  0
 80 83  1  1
 80 81  1  0
 82 80  1  0
 84 87  1  0
 85 89  1  0
 85 84  1  0
 86 85  2  0
 89 88  1  0
 91 89  1  0
 91 92  1  0
 91 90  1  0
M  ISO  4   5 101  13 100  14 100  52 101
M  END
>  <TORSDO>  (50) 
F 20

>  <SCORE>  (50) 
-14.176

>  <name>  (50) 
49

>  <ligand_id>  (50) 
49

>  <original_smiles>  (50) 
[H]c1c([H])c([H])c2c(c1[H])C([H])([H])C([H])([H])C([H])([H])C2([H])N([H])C(=O)C1([H])N(C(=O)C([H])(N([H])C(=O)C([H])(N([H])C([H])([H])[H])C([H])([H])[H])C(C([H])([H])[H])(C([H])([H])[H])C([H])([H])[H])C([H])([H])c2c([H])c(Oc3c(F)c(C(=O)C(C([H])([H])[H])(C([H])([H])[H])C([H])([H])C(=O)N4C([H])([H])C([H])([H])C([H])([H])C([H])(n5nc(-c6c([H])c([H])c(Oc7c([H])c([H])c(F)c([H])c7F)c([H])c6[H])c(C(=O)N([H])[H])c5N([H])[H])C4([H])[H])c([H])c([H])c3OC([H])([H])[H])c([H])c([H])c2C1([H])[H]

>  <smiles>  (50) 
[H]c1c([H])c([H])c2c(c1[H])C([H])([H])C([H])([H])C([H])([H])C2([H])N([H])C(=O)C1([H])N(C(=O)C([H])(N([H])C(=O)C([H])(N([H])C([H])([H])[H])C([H])([H])[H])C(C([H])([H])[H])(C([H])([H])[H])C([H])([H])[H])C([H])([H])c2c([H])c(Oc3c(F)c(C(=O)C(C([H])([H])[H])(C([H])([H])[H])C([H])([H])C(=O)N4C([H])([H])C([H])([H])C([H])([H])C([H])(n5nc(-c6c([H])c([H])c(Oc7c([H])c([H])c(F)c([H])c7F)c([H])c6[H])c(C(=O)N([H])[H])c5N([H])[H])C4([H])[H])c([H])c([H])c3OC([H])([H])[H])c([H])c([H])c2C1([H])[H]

$$$$
50:0:0
     RDKit          3D

 90 98  0  0  1  0  0  0  0  0999 V2000
  -27.5000  -21.9850   20.4510 C   0  0  0  0  0  3  0  0  0  0  0  0
  -27.3030  -23.4610   20.4390 C   0  0  0  0  0  3  0  0  0  0  0  0
  -29.7490  -22.2300   20.1070 C   0  0  0  0  0  3  0  0  0  0  0  0
  -28.7330  -21.2030   20.2900 C   0  0  0  0  0  0  0  0  0  0  0  0
  -28.3190  -24.4810   20.2530 C   0  0  0  0  0  0  0  0  0  0  0  0
  -29.5590  -23.7110   20.0920 C   0  0  0  0  0  0  0  0  0  0  0  0
  -28.7640  -19.4810   20.3330 C   0  0  0  0  0  0  0  0  0  0  0  0
  -27.6430  -18.9790   20.4640 O   0  0  0  0  0  0  0  0  0  0  0  0
  -29.9400  -18.2150   20.2470 C   0  0  0  0  0  2  0  0  0  0  0  0
  -30.4470  -15.3250   20.2200 C   0  0  0  0  0  0  0  0  0  0  0  0
  -30.4220  -12.8920   19.3340 C   0  0  0  0  0  2  0  0  0  0  0  0
  -29.4830  -12.6980   18.1180 C   0  0  0  0  0  2  0  0  0  0  0  0
  -28.0410  -12.4210   18.5810 C   0  0  0  0  0  2  0  0  0  0  0  0
  -27.6060  -13.3740   19.7240 C   0  0  0  0  0  3  0  0  0  0  0  0
  -28.6720  -13.5130   20.8310 C   0  0  0  0  0  2  0  0  0  0  0  0
  -29.8890  -14.0190   20.1800 N   0  0  0  0  0  0  0  0  0  0  0  0
  -31.6590  -15.3460   19.9620 O   0  0  0  0  0  0  0  0  0  0  0  0
  -29.6730  -16.5750   20.3470 N   0  0  0  0  0  0  0  0  0  0  0  0
  -28.6950  -16.3860   20.5160 H   0  0  0  0  0  0  0  0  0  0  0  0
  -25.2500  -13.9090   20.5380 C   0  0  0  0  0  0  0  0  0  0  0  0
  -24.1990  -13.1210   20.9140 C   0  0  0  0  0  0  0  0  0  0  0  0
  -24.6710  -11.7740   20.8480 C   0  0  0  0  0  0  0  0  0  0  0  0
  -26.2910  -13.0440   20.2550 N   0  0  0  0  0  0  0  0  0  0  0  0
  -25.9560  -11.7520   20.5100 N   0  0  0  0  0  0  0  0  0  0  0  0
  -23.9530  -10.5050   21.0270 C   0  0  0  0  0  0  0  0  0  0  0  0
  -24.3820   -9.5370   21.9620 C   0  0  0  0  0  3  0  0  0  0  0  0
  -23.6600   -8.3350   22.1310 C   0  0  0  0  0  3  0  0  0  0  0  0
  -22.4950   -8.0930   21.3650 C   0  0  0  0  0  0  0  0  0  0  0  0
  -22.0850   -9.0500   20.4200 C   0  0  0  0  0  3  0  0  0  0  0  0
  -22.8080  -10.2420   20.2490 C   0  0  0  0  0  3  0  0  0  0  0  0
  -21.7460   -6.9430   21.4430 O   0  0  0  0  0  0  0  0  0  0  0  0
  -21.6540   -6.2230   22.6060 C   0  0  0  0  0  0  0  0  0  0  0  0
  -21.1380   -6.7860   23.7930 C   0  0  0  0  0  3  0  0  0  0  0  0
  -20.9960   -5.9900   24.9470 C   0  0  0  0  0  3  0  0  0  0  0  0
  -21.3590   -4.6310   24.9140 C   0  0  0  0  0  0  0  0  0  0  0  0
  -21.8680   -4.0660   23.7310 C   0  0  0  0  0  3  0  0  0  0  0  0
  -22.0120   -4.8600   22.5800 C   0  0  0  0  0  0  0  0  0  0  0  0
  -22.4820   -4.3050   21.4370 F   0  0  0  0  0  0  0  0  0  0  0  0
  -21.2160   -3.8630   26.0200 F   0  0  0  0  0  0  0  0  0  0  0  0
  -22.8060  -13.5870   21.2170 C   0  0  0  0  0  0  0  0  0  0  0  0
  -22.0990  -12.8780   22.0910 N   0  0  0  0  0  0  0  0  0  0  0  0
  -22.3530  -14.6160   20.7160 O   0  0  0  0  0  0  0  0  0  0  0  0
  -22.4790  -12.0470   22.5180 H   0  0  0  0  0  0  0  0  0  0  0  0
  -21.1650  -13.1740   22.3380 H   0  0  0  0  0  0  0  0  0  0  0  0
  -25.4000  -15.2850   20.3820 N   0  0  0  0  0  0  0  0  0  0  0  0
  -24.6290  -15.9280   20.5230 H   0  0  0  0  0  0  0  0  0  0  0  0
  -26.2270  -15.7380   20.0180 H   0  0  0  0  0  0  0  0  0  0  0  0
  -30.6850  -24.4580   19.9120 O   0  0  0  0  0  0  0  0  0  0  0  0
  -30.4770  -25.3880   19.9210 H   0  0  0  0  0  0  0  0  0  0  0  0
  -28.2640  -26.0170   20.2610 O   0  0  0  0  0  0  0  0  0  0  0  0
  -24.6470  -31.9130   23.2510 C   0  0  0  0  0  0  0  0  0  0  0  0
  -27.1940  -27.0450   20.2470 C   0  0  0  0  0  0  0  0  0  0  0  0
  -23.4490  -30.5210   21.6080 C   0  0  0  0  0  3  0  0  0  0  0  0
  -24.8930  -28.9070   20.1920 C   0  0  0  0  0  0  0  0  0  0  0  0
  -26.0130  -30.7280   21.4660 C   0  0  0  0  0  2  0  0  0  0  0  0
  -26.0770  -29.3180   20.8170 C   0  0  0  0  0  0  0  0  0  0  0  0
  -27.2200  -28.4050   20.8220 C   0  0  0  0  0  3  0  0  0  0  0  0
  -25.9840  -26.7750   19.5720 C   0  0  0  0  0  3  0  0  0  0  0  0
  -24.8690  -27.6550   19.5520 C   0  0  0  0  0  3  0  0  0  0  0  0
  -23.6780  -29.8320   20.2330 C   0  0  0  0  0  2  0  0  0  0  0  0
  -24.7250  -31.0810   22.1620 N   0  0  0  0  0  0  0  0  0  0  0  0
  -23.5590  -32.2060   23.7710 O   0  0  0  0  0  0  0  0  0  0  0  0
  -22.7520  -29.5280   22.5740 C   0  0  0  0  0  0  0  0  0  0  0  0
  -21.4230  -29.3640   22.4420 N   0  0  0  0  0  0  0  0  0  0  0  0
  -23.4130  -28.9040   23.4080 O   0  0  0  0  0  0  0  0  0  0  0  0
  -20.9430  -29.9170   21.7460 H   0  0  0  0  0  0  0  0  0  0  0  0
  -18.0350  -28.1690   22.9450 C   0  0  0  0  0  0  0  0  0  0  0  0
  -20.5950  -28.4280   23.2110 C   0  0  0  0  0  3  0  0  0  0  0  0
  -20.6930  -26.9960   22.6360 C   0  0  0  0  0  2  0  0  0  0  0  0
  -19.5910  -26.6780   21.6190 C   0  0  0  0  0  2  0  0  0  0  0  0
  -18.2090  -26.8230   22.2630 C   0  0  0  0  0  2  0  0  0  0  0  0
  -19.1550  -28.9300   23.3750 C   0  0  0  0  0  0  0  0  0  0  0  0
  -18.9360  -30.1890   23.9760 C   0  0  0  0  0  3  0  0  0  0  0  0
  -17.6300  -30.6880   24.1470 C   0  0  0  0  0  3  0  0  0  0  0  0
  -16.5250  -29.9250   23.7310 C   0  0  0  0  0  3  0  0  0  0  0  0
  -16.7290  -28.6670   23.1350 C   0  0  0  0  0  3  0  0  0  0  0  0
  -25.9200  -32.5490   23.8850 C   0  0  0  0  0  3  0  0  0  0  0  0
  -26.4260  -31.7770   25.1670 C   0  0  1  0  0  0  0  0  0  0  0  0
  -25.3230  -31.5400   26.2280 C   0  0  0  0  0  1  0  0  0  0  0  0
  -27.0120  -30.3980   24.7870 C   0  0  0  0  0  1  0  0  0  0  0  0
  -27.5710  -32.5700   25.8390 C   0  0  0  0  0  1  0  0  0  0  0  0
  -25.6050  -33.9470   24.2290 N   0  0  0  0  0  0  0  0  0  0  0  0
  -25.9050  -35.0100   23.4700 C   0  0  0  0  0  0  0  0  0  0  0  0
  -26.5370  -34.9180   22.4150 O   0  0  0  0  0  0  0  0  0  0  0  0
  -25.0370  -34.0910   25.0500 H   0  0  0  0  0  0  0  0  0  0  0  0
  -24.1400  -36.7900   23.2160 C   0  0  0  0  0  1  0  0  0  0  0  0
  -25.4280  -36.3950   23.9560 C   0  0  0  0  0  3  0  0  0  0  0  0
  -27.5900  -37.3120   24.6770 C   0  0  0  0  0  1  0  0  0  0  0  0
  -26.4420  -37.4600   23.7860 N   0  0  0  0  0  0  0  0  0  0  0  0
  -26.0320  -38.3770   23.9460 H   0  0  0  0  0  0  0  0  0  0  0  0
  2  1  1  0
  3  4  1  0
  4  7  1  0
  4  1  2  0
  5 50  1  0
  5  2  2  0
  6  3  2  0
  6  5  1  0
  7  8  2  0
  9  7  1  0
  9 18  1  0
 10 18  1  0
 11 16  1  0
 12 13  1  0
 12 11  1  0
 14 13  1  0
 14 23  1  0
 14 15  1  0
 16 10  1  0
 16 15  1  0
 17 10  2  0
 18 19  1  0
 20 21  2  0
 21 40  1  0
 22 21  1  0
 22 25  1  0
 23 24  1  0
 23 20  1  0
 24 22  2  0
 25 26  1  0
 26 27  2  0
 28 31  1  0
 28 27  1  0
 29 28  2  0
 30 29  1  0
 30 25  2  0
 31 32  1  0
 32 33  1  0
 33 34  2  0
 35 34  1  0
 35 39  1  0
 36 35  2  0
 37 32  2  0
 37 36  1  0
 38 37  1  0
 40 41  1  0
 41 44  1  0
 41 43  1  0
 42 40  2  0
 45 46  1  0
 45 20  1  0
 47 45  1  0
 48 49  1  0
 48  6  1  0
 51 62  2  0
 52 50  1  0
 52 57  1  0
 53 61  1  0
 53 63  1  0
 54 60  1  0
 54 56  1  0
 55 61  1  0
 56 57  2  0
 56 55  1  0
 58 52  2  0
 59 58  1  0
 59 54  2  0
 60 53  1  0
 61 51  1  0
 63 65  2  0
 64 63  1  0
 66 64  1  0
 67 76  2  0
 67 72  1  0
 68 64  1  0
 68 72  1  0
 69 68  1  0
 70 71  1  0
 70 69  1  0
 71 67  1  0
 72 73  2  0
 73 74  1  0
 75 74  2  0
 76 75  1  0
 77 51  1  0
 77 82  1  0
 77 78  1  0
 78 81  1  1
 78 79  1  0
 80 78  1  0
 82 85  1  0
 83 87  1  0
 83 82  1  0
 84 83  2  0
 87 86  1  0
 89 90  1  0
 89 87  1  0
 89 88  1  0
M  ISO  4   5 101  10 100  18 100  50 101
M  END
>  <TORSDO>  (51) 
F 19

>  <SCORE>  (51) 
-15.428

>  <name>  (51) 
50

>  <ligand_id>  (51) 
50

>  <original_smiles>  (51) 
[H]Oc1c([H])c(C(=O)C([H])([H])N([H])C(=O)N2C([H])([H])C([H])([H])C([H])([H])C([H])(n3nc(-c4c([H])c([H])c(Oc5c([H])c([H])c(F)c([H])c5F)c([H])c4[H])c(C(=O)N([H])[H])c3N([H])[H])C2([H])[H])c([H])c([H])c1Oc1c([H])c([H])c2c(c1[H])C([H])([H])N(C(=O)C([H])(N([H])C(=O)C([H])(N([H])C([H])([H])[H])C([H])([H])[H])C(C([H])([H])[H])(C([H])([H])[H])C([H])([H])[H])C([H])(C(=O)N([H])C1([H])c3c([H])c([H])c([H])c([H])c3C([H])([H])C([H])([H])C1([H])[H])C2([H])[H]

>  <smiles>  (51) 
[H]Oc1c([H])c(C(=O)C([H])([H])N([H])C(=O)N2C([H])([H])C([H])([H])C([H])([H])C([H])(n3nc(-c4c([H])c([H])c(Oc5c([H])c([H])c(F)c([H])c5F)c([H])c4[H])c(C(=O)N([H])[H])c3N([H])[H])C2([H])[H])c([H])c([H])c1Oc1c([H])c([H])c2c(c1[H])C([H])([H])N(C(=O)C([H])(N([H])C(=O)C([H])(N([H])C([H])([H])[H])C([H])([H])[H])C(C([H])([H])[H])(C([H])([H])[H])C([H])([H])[H])C([H])(C(=O)N([H])C1([H])c3c([H])c([H])c([H])c([H])c3C([H])([H])C([H])([H])C1([H])[H])C2([H])[H]

$$$$
51:0:0
     RDKit          3D

 91 99  0  0  1  0  0  0  0  0999 V2000
  -29.6590  -22.2640   18.7770 C   0  0  0  0  0  3  0  0  0  0  0  0
  -29.8600  -23.5150   18.1520 C   0  0  0  0  0  3  0  0  0  0  0  0
  -28.8660  -22.1240   19.9290 C   0  0  0  0  0  0  0  0  0  0  0  0
  -29.3100  -24.7300   18.6410 C   0  0  0  0  0  0  0  0  0  0  0  0
  -28.2950  -23.4280   20.4240 C   0  0  0  0  0  0  0  0  0  0  0  0
  -28.5100  -24.7850   19.8080 C   0  0  0  0  0  0  0  0  0  0  0  0
  -29.6350  -26.0150   17.9030 C   0  0  0  0  0  1  0  0  0  0  0  0
  -27.4000  -23.3660   21.6440 C   0  0  0  0  0  1  0  0  0  0  0  0
  -28.2690  -26.1580   20.3160 O   0  0  0  0  0  0  0  0  0  0  0  0
  -24.6440  -31.8690   23.1950 C   0  0  0  0  0  0  0  0  0  0  0  0
  -27.1990  -27.1220   20.1550 C   0  0  0  0  0  0  0  0  0  0  0  0
  -23.4310  -30.4650   21.5690 C   0  0  0  0  0  3  0  0  0  0  0  0
  -24.8660  -28.8750   20.1280 C   0  0  0  0  0  0  0  0  0  0  0  0
  -25.9790  -30.7260   21.3770 C   0  0  0  0  0  2  0  0  0  0  0  0
  -26.0470  -29.3260   20.7310 C   0  0  0  0  0  0  0  0  0  0  0  0
  -27.2040  -28.4610   20.7300 C   0  0  0  0  0  3  0  0  0  0  0  0
  -25.9970  -26.7740   19.5050 C   0  0  0  0  0  3  0  0  0  0  0  0
  -24.8570  -27.6160   19.4980 C   0  0  0  0  0  3  0  0  0  0  0  0
  -23.6400  -29.7770   20.1900 C   0  0  0  0  0  2  0  0  0  0  0  0
  -24.7070  -31.0430   22.1020 N   0  0  0  0  0  0  0  0  0  0  0  0
  -23.5630  -32.1550   23.7310 O   0  0  0  0  0  0  0  0  0  0  0  0
  -22.7590  -29.4670   22.5440 C   0  0  0  0  0  0  0  0  0  0  0  0
  -21.4290  -29.2980   22.4310 N   0  0  0  0  0  0  0  0  0  0  0  0
  -23.4350  -28.8450   23.3680 O   0  0  0  0  0  0  0  0  0  0  0  0
  -20.9370  -29.8520   21.7420 H   0  0  0  0  0  0  0  0  0  0  0  0
  -18.0540  -28.0880   22.9600 C   0  0  0  0  0  0  0  0  0  0  0  0
  -20.6130  -28.3650   23.2120 C   0  0  0  0  0  3  0  0  0  0  0  0
  -20.7180  -26.9280   22.6490 C   0  0  0  0  0  2  0  0  0  0  0  0
  -19.6110  -26.5930   21.6430 C   0  0  0  0  0  2  0  0  0  0  0  0
  -18.2330  -26.7360   22.2910 C   0  0  0  0  0  2  0  0  0  0  0  0
  -19.1710  -28.8600   23.3790 C   0  0  0  0  0  0  0  0  0  0  0  0
  -18.9480  -30.1230   23.9680 C   0  0  0  0  0  3  0  0  0  0  0  0
  -17.6410  -30.6160   24.1400 C   0  0  0  0  0  3  0  0  0  0  0  0
  -16.5390  -29.8430   23.7340 C   0  0  0  0  0  3  0  0  0  0  0  0
  -16.7460  -28.5810   23.1500 C   0  0  0  0  0  3  0  0  0  0  0  0
  -25.9260  -32.5080   23.8110 C   0  0  0  0  0  3  0  0  0  0  0  0
  -26.4510  -31.7420   25.0890 C   0  0  1  0  0  0  0  0  0  0  0  0
  -25.3670  -31.5130   26.1680 C   0  0  0  0  0  1  0  0  0  0  0  0
  -27.0290  -30.3610   24.7000 C   0  0  0  0  0  1  0  0  0  0  0  0
  -27.6070  -32.5360   25.7420 C   0  0  0  0  0  1  0  0  0  0  0  0
  -25.6140  -33.9070   24.1480 N   0  0  0  0  0  0  0  0  0  0  0  0
  -25.9360  -34.9670   23.3940 C   0  0  0  0  0  0  0  0  0  0  0  0
  -26.5960  -34.8700   22.3560 O   0  0  0  0  0  0  0  0  0  0  0  0
  -25.0270  -34.0540   24.9560 H   0  0  0  0  0  0  0  0  0  0  0  0
  -24.2040  -36.7660   23.0710 C   0  0  0  0  0  1  0  0  0  0  0  0
  -25.4530  -36.3530   23.8660 C   0  0  0  0  0  3  0  0  0  0  0  0
  -27.5970  -37.2360   24.6820 C   0  0  0  0  0  1  0  0  0  0  0  0
  -26.4850  -37.4090   23.7510 N   0  0  0  0  0  0  0  0  0  0  0  0
  -26.0790  -38.3260   23.9120 H   0  0  0  0  0  0  0  0  0  0  0  0
  -28.5700  -20.5480   20.4010 C   0  0  0  0  0  2  0  0  0  0  0  0
  -29.6090  -19.1980   20.5930 C   0  0  0  0  0  2  0  0  0  0  0  0
  -30.3110  -17.7340   18.5440 C   0  0  0  0  0  1  0  0  0  0  0  0
  -29.5150  -17.6610   19.8540 C   0  0  0  0  0  0  0  0  0  0  0  0
  -30.4640  -15.0130   20.2350 C   0  0  0  0  0  0  0  0  0  0  0  0
  -30.3470  -12.6430   19.3230 C   0  0  0  0  0  2  0  0  0  0  0  0
  -29.3960  -12.6070   18.1030 C   0  0  0  0  0  2  0  0  0  0  0  0
  -27.9420  -12.3840   18.5580 C   0  0  0  0  0  2  0  0  0  0  0  0
  -27.5550  -13.3000   19.7500 C   0  0  0  0  0  3  0  0  0  0  0  0
  -28.6290  -13.3150   20.8590 C   0  0  0  0  0  2  0  0  0  0  0  0
  -29.8910  -13.7360   20.2390 N   0  0  0  0  0  0  0  0  0  0  0  0
  -31.6320  -15.0890   19.8380 O   0  0  0  0  0  0  0  0  0  0  0  0
  -29.6800  -16.1910   20.4860 N   0  0  0  0  0  4  0  0  0  0  0  0
  -28.8400  -15.9240   20.9780 H   0  0  0  0  0  0  0  0  0  0  0  0
  -25.1880  -13.8660   20.5390 C   0  0  0  0  0  0  0  0  0  0  0  0
  -24.1340  -13.0870   20.9260 C   0  0  0  0  0  0  0  0  0  0  0  0
  -24.5990  -11.7370   20.8750 C   0  0  0  0  0  0  0  0  0  0  0  0
  -26.2270  -12.9920   20.2700 N   0  0  0  0  0  0  0  0  0  0  0  0
  -25.8840  -11.7060   20.5370 N   0  0  0  0  0  0  0  0  0  0  0  0
  -23.8780  -10.4720   21.0700 C   0  0  0  0  0  0  0  0  0  0  0  0
  -24.3350   -9.4920   21.9780 C   0  0  0  0  0  3  0  0  0  0  0  0
  -23.6110   -8.2940   22.1630 C   0  0  0  0  0  3  0  0  0  0  0  0
  -22.4150   -8.0670   21.4390 C   0  0  0  0  0  0  0  0  0  0  0  0
  -21.9770   -9.0360   20.5200 C   0  0  0  0  0  3  0  0  0  0  0  0
  -22.7010  -10.2260   20.3340 C   0  0  0  0  0  3  0  0  0  0  0  0
  -21.6620   -6.9220   21.5350 O   0  0  0  0  0  0  0  0  0  0  0  0
  -21.6570   -6.1550   22.6730 C   0  0  0  0  0  0  0  0  0  0  0  0
  -21.2780   -6.6850   23.9250 C   0  0  0  0  0  3  0  0  0  0  0  0
  -21.2200   -5.8470   25.0560 C   0  0  0  0  0  3  0  0  0  0  0  0
  -21.5310   -4.4790   24.9360 C   0  0  0  0  0  0  0  0  0  0  0  0
  -21.9020   -3.9490   23.6880 C   0  0  0  0  0  3  0  0  0  0  0  0
  -21.9630   -4.7840   22.5590 C   0  0  0  0  0  0  0  0  0  0  0  0
  -22.3020   -4.2640   21.3550 F   0  0  0  0  0  0  0  0  0  0  0  0
  -21.4690   -3.6710   26.0200 F   0  0  0  0  0  0  0  0  0  0  0  0
  -22.7420  -13.5610   21.2290 C   0  0  0  0  0  0  0  0  0  0  0  0
  -22.0320  -12.8570   22.1030 N   0  0  0  0  0  0  0  0  0  0  0  0
  -22.2960  -14.5910   20.7270 O   0  0  0  0  0  0  0  0  0  0  0  0
  -22.4070  -12.0260   22.5340 H   0  0  0  0  0  0  0  0  0  0  0  0
  -21.0980  -13.1560   22.3460 H   0  0  0  0  0  0  0  0  0  0  0  0
  -25.3480  -15.2380   20.3660 N   0  0  0  0  0  0  0  0  0  0  0  0
  -24.5800  -15.8900   20.4790 H   0  0  0  0  0  0  0  0  0  0  0  0
  -26.1850  -15.6740   20.0020 H   0  0  0  0  0  0  0  0  0  0  0  0
  1  3  1  0
  2  4  1  0
  2  1  2  0
  3 50  1  0
  3  5  2  0
  4  6  2  0
  5  8  1  0
  6  9  1  0
  6  5  1  0
  7  4  1  0
 10 21  2  0
 11  9  1  0
 11 16  1  0
 12 20  1  0
 12 22  1  0
 13 19  1  0
 13 15  1  0
 14 20  1  0
 15 14  1  0
 16 15  2  0
 17 11  2  0
 18 17  1  0
 18 13  2  0
 19 12  1  0
 20 10  1  0
 22 24  2  0
 23 22  1  0
 25 23  1  0
 26 35  2  0
 26 31  1  0
 27 23  1  0
 27 31  1  0
 28 27  1  0
 29 30  1  0
 29 28  1  0
 30 26  1  0
 31 32  2  0
 32 33  1  0
 34 33  2  0
 35 34  1  0
 36 10  1  0
 36 41  1  0
 36 37  1  0
 37 40  1  1
 37 38  1  0
 39 37  1  0
 41 44  1  0
 42 46  1  0
 42 41  1  0
 43 42  2  0
 46 45  1  0
 48 46  1  0
 48 49  1  0
 48 47  1  0
 50 51  1  0
 52 53  1  0
 53 62  2  0
 53 51  1  0
 54 60  1  0
 54 62  1  0
 55 60  1  0
 56 57  1  0
 56 55  1  0
 58 57  1  0
 58 67  1  0
 58 59  1  0
 60 59  1  0
 61 54  2  0
 62 63  1  0
 64 65  2  0
 65 84  1  0
 66 65  1  0
 66 69  1  0
 67 68  1  0
 67 64  1  0
 68 66  2  0
 69 70  1  0
 70 71  2  0
 72 75  1  0
 72 71  1  0
 73 72  2  0
 74 73  1  0
 74 69  2  0
 75 76  1  0
 76 77  1  0
 77 78  2  0
 79 78  1  0
 79 83  1  0
 80 79  2  0
 81 76  2  0
 81 80  1  0
 82 81  1  0
 84 85  1  0
 85 88  1  0
 85 87  1  0
 86 84  2  0
 89 90  1  0
 89 64  1  0
 91 89  1  0
M  ISO  4   6 101   9 101  54 100  62 100
M  END
>  <TORSDO>  (52) 
F 19

>  <SCORE>  (52) 
-15.241

>  <name>  (52) 
51

>  <ligand_id>  (52) 
51

>  <original_smiles>  (52) 
[H]c1c([H])c([H])c2c(c1[H])C([H])([H])C([H])([H])C([H])([H])C2([H])N([H])C(=O)C1([H])N(C(=O)C([H])(N([H])C(=O)C([H])(N([H])C([H])([H])[H])C([H])([H])[H])C(C([H])([H])[H])(C([H])([H])[H])C([H])([H])[H])C([H])([H])c2c([H])c(Oc3c(C([H])([H])[H])c([H])c([H])c(C([H])([H])C([H])([H])C([H])(N([H])C(=O)N4C([H])([H])C([H])([H])C([H])([H])C([H])(n5nc(-c6c([H])c([H])c(Oc7c([H])c([H])c(F)c([H])c7F)c([H])c6[H])c(C(=O)N([H])[H])c5N([H])[H])C4([H])[H])C([H])([H])[H])c3C([H])([H])[H])c([H])c([H])c2C1([H])[H]

>  <smiles>  (52) 
[H]c1c([H])c([H])c2c(c1[H])C([H])([H])C([H])([H])C([H])([H])C2([H])N([H])C(=O)C1([H])N(C(=O)C([H])(N([H])C(=O)C([H])(N([H])C([H])([H])[H])C([H])([H])[H])C(C([H])([H])[H])(C([H])([H])[H])C([H])([H])[H])C([H])([H])c2c([H])c(Oc3c(C([H])([H])[H])c([H])c([H])c(C([H])([H])C([H])([H])C([H])(N([H])C(=O)N4C([H])([H])C([H])([H])C([H])([H])C([H])(n5nc(-c6c([H])c([H])c(Oc7c([H])c([H])c(F)c([H])c7F)c([H])c6[H])c(C(=O)N([H])[H])c5N([H])[H])C4([H])[H])C([H])([H])[H])c3C([H])([H])[H])c([H])c([H])c2C1([H])[H]

$$$$
52:0:0
     RDKit          3D

 93101  0  0  1  0  0  0  0  0999 V2000
  -28.8830  -20.3910   20.1610 C   0  0  0  0  0  3  0  0  0  0  0  0
  -30.5220  -19.4450   21.6660 C   0  0  0  0  0  3  0  0  0  0  0  0
  -29.6410  -19.1690   20.6000 C   0  0  0  0  0  0  0  0  0  0  0  0
  -29.0180  -21.7860   20.7090 C   0  0  0  0  0  0  0  0  0  0  0  0
  -30.0100  -21.8750   21.7190 C   0  0  0  0  0  0  0  0  0  0  0  0
  -30.7220  -20.7420   22.1880 C   0  0  0  0  0  0  0  0  0  0  0  0
  -31.6360  -20.9200   23.1730 F   0  0  0  0  0  0  0  0  0  0  0  0
  -30.3050  -23.0940   22.3270 N   0  0  0  0  0  0  0  0  0  0  0  0
  -30.1340  -23.9340   21.7880 H   0  0  0  0  0  0  0  0  0  0  0  0
  -31.1990  -23.1230   22.8040 H   0  0  0  0  0  0  0  0  0  0  0  0
  -30.0200  -16.4000   20.6540 C   0  0  0  0  0  2  0  0  0  0  0  0
  -29.7730  -17.6630   20.0200 C   0  0  0  0  0  3  0  0  0  0  0  0
  -30.6120  -15.0690   20.0880 C   0  0  0  0  0  0  0  0  0  0  0  0
  -30.4030  -12.7240   19.1330 C   0  0  0  0  0  2  0  0  0  0  0  0
  -29.4400  -12.7210   17.9250 C   0  0  0  0  0  2  0  0  0  0  0  0
  -27.9970  -12.5020   18.4050 C   0  0  0  0  0  2  0  0  0  0  0  0
  -27.6350  -13.4130   19.6050 C   0  0  0  0  0  3  0  0  0  0  0  0
  -28.7220  -13.4220   20.6990 C   0  0  0  0  0  2  0  0  0  0  0  0
  -29.9820  -13.8200   20.0670 N   0  0  0  0  0  0  0  0  0  0  0  0
  -31.7570  -15.0660   19.6220 O   0  0  0  0  0  0  0  0  0  0  0  0
  -25.2860  -13.9810   20.4350 C   0  0  0  0  0  0  0  0  0  0  0  0
  -24.2350  -13.2010   20.8330 C   0  0  0  0  0  0  0  0  0  0  0  0
  -24.6970  -11.8510   20.7690 C   0  0  0  0  0  0  0  0  0  0  0  0
  -26.3180  -13.1040   20.1450 N   0  0  0  0  0  0  0  0  0  0  0  0
  -25.9780  -11.8190   20.4160 N   0  0  0  0  0  0  0  0  0  0  0  0
  -23.9760  -10.5890   20.9740 C   0  0  0  0  0  0  0  0  0  0  0  0
  -24.4280   -9.6150   21.8910 C   0  0  0  0  0  3  0  0  0  0  0  0
  -23.7050   -8.4180   22.0750 C   0  0  0  0  0  3  0  0  0  0  0  0
  -22.5160   -8.1820   21.3490 C   0  0  0  0  0  0  0  0  0  0  0  0
  -22.0840   -9.1450   20.4200 C   0  0  0  0  0  3  0  0  0  0  0  0
  -22.8050  -10.3340   20.2310 C   0  0  0  0  0  3  0  0  0  0  0  0
  -21.7580   -7.0440   21.4530 O   0  0  0  0  0  0  0  0  0  0  0  0
  -21.7260   -6.3050   22.6100 C   0  0  0  0  0  0  0  0  0  0  0  0
  -21.2950   -6.8590   23.8340 C   0  0  0  0  0  3  0  0  0  0  0  0
  -21.2040   -6.0430   24.9790 C   0  0  0  0  0  3  0  0  0  0  0  0
  -21.5370   -4.6790   24.9020 C   0  0  0  0  0  0  0  0  0  0  0  0
  -21.9630   -4.1260   23.6830 C   0  0  0  0  0  3  0  0  0  0  0  0
  -22.0540   -4.9370   22.5370 C   0  0  0  0  0  0  0  0  0  0  0  0
  -22.4470   -4.3930   21.3590 F   0  0  0  0  0  0  0  0  0  0  0  0
  -21.4470   -3.8930   26.0020 F   0  0  0  0  0  0  0  0  0  0  0  0
  -22.8510  -13.6780   21.1600 C   0  0  0  0  0  0  0  0  0  0  0  0
  -22.1490  -12.9740   22.0400 N   0  0  0  0  0  0  0  0  0  0  0  0
  -22.3980  -14.7140   20.6680 O   0  0  0  0  0  0  0  0  0  0  0  0
  -22.5230  -12.1370   22.4640 H   0  0  0  0  0  0  0  0  0  0  0  0
  -21.2240  -13.2840   22.3020 H   0  0  0  0  0  0  0  0  0  0  0  0
  -25.4400  -15.3550   20.2780 N   0  0  0  0  0  0  0  0  0  0  0  0
  -24.6760  -16.0010   20.4430 H   0  0  0  0  0  0  0  0  0  0  0  0
  -26.2770  -15.8150   19.9390 H   0  0  0  0  0  0  0  0  0  0  0  0
  -29.7890  -17.6770   18.6800 O   0  0  0  0  0  0  0  0  0  0  0  0
  -29.6530  -18.5730   18.3950 H   0  0  0  0  0  0  0  0  0  0  0  0
  -28.0520  -23.1400   20.4830 C   0  0  0  0  0  2  0  0  0  0  0  0
  -28.3880  -24.7050   19.8730 C   0  0  0  0  0  2  0  0  0  0  0  0
  -28.2610  -26.1830   20.4180 O   0  0  0  0  0  0  0  0  0  0  0  0
  -24.6310  -31.9410   23.2530 C   0  0  0  0  0  0  0  0  0  0  0  0
  -27.2010  -27.1610   20.2700 C   0  0  0  0  0  0  0  0  0  0  0  0
  -23.4370  -30.5350   21.6160 C   0  0  0  0  0  3  0  0  0  0  0  0
  -24.8880  -28.9380   20.2030 C   0  0  0  0  0  0  0  0  0  0  0  0
  -25.9920  -30.7790   21.4710 C   0  0  0  0  0  2  0  0  0  0  0  0
  -26.0620  -29.3800   20.8210 C   0  0  0  0  0  0  0  0  0  0  0  0
  -27.2140  -28.5040   20.8390 C   0  0  0  0  0  3  0  0  0  0  0  0
  -26.0020  -26.8240   19.6110 C   0  0  0  0  0  3  0  0  0  0  0  0
  -24.8700  -27.6770   19.5850 C   0  0  0  0  0  3  0  0  0  0  0  0
  -23.6650  -29.8470   20.2430 C   0  0  0  0  0  2  0  0  0  0  0  0
  -24.7060  -31.1110   22.1670 N   0  0  0  0  0  0  0  0  0  0  0  0
  -23.5450  -32.2320   23.7740 O   0  0  0  0  0  0  0  0  0  0  0  0
  -22.7510  -29.5390   22.5830 C   0  0  0  0  0  0  0  0  0  0  0  0
  -21.4220  -29.3720   22.4520 N   0  0  0  0  0  0  0  0  0  0  0  0
  -23.4160  -28.9170   23.4160 O   0  0  0  0  0  0  0  0  0  0  0  0
  -20.9400  -29.9240   21.7560 H   0  0  0  0  0  0  0  0  0  0  0  0
  -18.0390  -28.1830   22.9560 C   0  0  0  0  0  0  0  0  0  0  0  0
  -20.5980  -28.4440   23.2290 C   0  0  0  0  0  3  0  0  0  0  0  0
  -20.6970  -27.0070   22.6640 C   0  0  0  0  0  2  0  0  0  0  0  0
  -19.5970  -26.6790   21.6480 C   0  0  0  0  0  2  0  0  0  0  0  0
  -18.2140  -26.8310   22.2870 C   0  0  0  0  0  2  0  0  0  0  0  0
  -19.1570  -28.9470   23.3840 C   0  0  0  0  0  0  0  0  0  0  0  0
  -18.9370  -30.2120   23.9700 C   0  0  0  0  0  3  0  0  0  0  0  0
  -17.6310  -30.7130   24.1330 C   0  0  0  0  0  3  0  0  0  0  0  0
  -16.5280  -29.9470   23.7200 C   0  0  0  0  0  3  0  0  0  0  0  0
  -16.7320  -28.6840   23.1360 C   0  0  0  0  0  3  0  0  0  0  0  0
  -25.9080  -32.5790   23.8830 C   0  0  0  0  0  3  0  0  0  0  0  0
  -25.6040  -33.9870   24.1900 N   0  0  0  0  0  0  0  0  0  0  0  0
  -25.9530  -35.0300   23.4270 C   0  0  0  0  0  0  0  0  0  0  0  0
  -26.6310  -34.9110   22.4040 O   0  0  0  0  0  0  0  0  0  0  0  0
  -25.0050  -34.1550   24.9850 H   0  0  0  0  0  0  0  0  0  0  0  0
  -24.2510  -36.8450   23.0390 C   0  0  0  0  0  1  0  0  0  0  0  0
  -25.4750  -36.4280   23.8700 C   0  0  0  0  0  3  0  0  0  0  0  0
  -27.6030  -37.3030   24.7300 C   0  0  0  0  0  1  0  0  0  0  0  0
  -26.5200  -37.4690   23.7640 N   0  0  0  0  0  0  0  0  0  0  0  0
  -26.1210  -38.3940   23.8970 H   0  0  0  0  0  0  0  0  0  0  0  0
  -26.4010  -31.8320   25.1850 C   0  0  1  0  0  0  0  0  0  0  0  0
  -25.2940  -31.6270   26.2440 C   0  0  0  0  0  1  0  0  0  0  0  0
  -26.9800  -30.4410   24.8370 C   0  0  0  0  0  1  0  0  0  0  0  0
  -27.5450  -32.6350   25.8460 C   0  0  0  0  0  1  0  0  0  0  0  0
  1  3  2  0
  1  4  1  0
  2  6  2  0
  3  2  1  0
  4  5  2  0
  5  6  1  0
  5  8  1  0
  6  7  1  0
  8 10  1  0
  9  8  1  0
 12  3  1  0
 12 11  1  0
 13 11  1  0
 14 19  1  0
 15 16  1  0
 15 14  1  0
 17 16  1  0
 17 24  1  0
 17 18  1  0
 19 13  1  0
 19 18  1  0
 20 13  2  0
 21 22  2  0
 22 41  1  0
 23 22  1  0
 23 26  1  0
 24 25  1  0
 24 21  1  0
 25 23  2  0
 26 27  1  0
 27 28  2  0
 29 32  1  0
 29 28  1  0
 30 29  2  0
 31 30  1  0
 31 26  2  0
 32 33  1  0
 33 34  1  0
 34 35  2  0
 36 35  1  0
 36 40  1  0
 37 36  2  0
 38 33  2  0
 38 37  1  0
 39 38  1  0
 41 42  1  0
 42 45  1  0
 42 44  1  0
 43 41  2  0
 46 21  1  0
 46 47  1  0
 48 46  1  0
 49 12  1  0
 50 49  1  0
 51  4  1  0
 52 53  1  0
 52 51  1  0
 54 65  2  0
 55 53  1  0
 55 60  1  0
 56 64  1  0
 56 66  1  0
 57 63  1  0
 57 59  1  0
 58 64  1  0
 59 60  2  0
 59 58  1  0
 61 55  2  0
 62 61  1  0
 62 57  2  0
 63 56  1  0
 64 54  1  0
 66 68  2  0
 67 66  1  0
 69 67  1  0
 70 79  2  0
 70 75  1  0
 71 67  1  0
 71 75  1  0
 72 71  1  0
 73 74  1  0
 73 72  1  0
 74 70  1  0
 75 76  2  0
 76 77  1  0
 78 77  2  0
 79 78  1  0
 80 54  1  0
 80 81  1  0
 80 90  1  0
 81 84  1  0
 82 86  1  0
 82 81  1  0
 83 82  2  0
 86 85  1  0
 88 86  1  0
 88 89  1  0
 88 87  1  0
 90 93  1  1
 90 91  1  0
 92 90  1  0
M  ISO  4  11 100  13 100  52 101  53 101
M  END
>  <TORSDO>  (53) 
F 21

>  <SCORE>  (53) 
-14.990

>  <name>  (53) 
52

>  <ligand_id>  (53) 
52

>  <original_smiles>  (53) 
[H]OC(=C([H])C(=O)N1C([H])([H])C([H])([H])C([H])([H])C([H])(n2nc(-c3c([H])c([H])c(Oc4c([H])c([H])c(F)c([H])c4F)c([H])c3[H])c(C(=O)N([H])[H])c2N([H])[H])C1([H])[H])c1c([H])c(F)c(N([H])[H])c(C([H])([H])C([H])([H])Oc2c([H])c([H])c3c(c2[H])C([H])([H])N(C(=O)C([H])(N([H])C(=O)C([H])(N([H])C([H])([H])[H])C([H])([H])[H])C(C([H])([H])[H])(C([H])([H])[H])C([H])([H])[H])C([H])(C(=O)N([H])C2([H])c4c([H])c([H])c([H])c([H])c4C([H])([H])C([H])([H])C2([H])[H])C3([H])[H])c1[H]

>  <smiles>  (53) 
[H]OC(=C([H])C(=O)N1C([H])([H])C([H])([H])C([H])([H])C([H])(n2nc(-c3c([H])c([H])c(Oc4c([H])c([H])c(F)c([H])c4F)c([H])c3[H])c(C(=O)N([H])[H])c2N([H])[H])C1([H])[H])c1c([H])c(F)c(N([H])[H])c(C([H])([H])C([H])([H])Oc2c([H])c([H])c3c(c2[H])C([H])([H])N(C(=O)C([H])(N([H])C(=O)C([H])(N([H])C([H])([H])[H])C([H])([H])[H])C(C([H])([H])[H])(C([H])([H])[H])C([H])([H])[H])C([H])(C(=O)N([H])C2([H])c4c([H])c([H])c([H])c([H])c4C([H])([H])C([H])([H])C2([H])[H])C3([H])[H])c1[H]

$$$$
53:0:0
     RDKit          3D

 93101  0  0  1  0  0  0  0  0999 V2000
  -28.9830  -20.5790   20.9100 C   0  0  0  0  0  3  0  0  0  0  0  0
  -29.9580  -20.6420   18.6960 C   0  0  0  0  0  3  0  0  0  0  0  0
  -29.2610  -21.9540   21.0690 C   0  0  0  0  0  3  0  0  0  0  0  0
  -30.2460  -22.0100   18.8620 C   0  0  0  0  0  3  0  0  0  0  0  0
  -29.3530  -19.8950   19.7310 C   0  0  0  0  0  0  0  0  0  0  0  0
  -29.9300  -22.6930   20.0610 C   0  0  0  0  0  0  0  0  0  0  0  0
  -29.1000  -18.4350   19.5200 C   0  0  0  0  0  0  0  0  0  0  0  0
  -29.1230  -17.9060   18.4030 O   0  0  0  0  0  0  0  0  0  0  0  0
  -28.8500  -17.5280   20.7340 C   0  0  0  0  0  2  0  0  0  0  0  0
  -30.1170  -16.7820   21.2330 C   0  0  0  0  0  2  0  0  0  0  0  0
  -30.6330  -14.4080   20.5670 C   0  0  0  0  0  0  0  0  0  0  0  0
  -30.3650  -12.2810   19.3450 C   0  0  0  0  0  2  0  0  0  0  0  0
  -29.4470  -12.5600   18.1360 C   0  0  0  0  0  2  0  0  0  0  0  0
  -27.9610  -12.4230   18.5360 C   0  0  0  0  0  2  0  0  0  0  0  0
  -27.6160  -13.2230   19.8220 C   0  0  0  0  0  3  0  0  0  0  0  0
  -28.6460  -12.9150   20.9330 C   0  0  0  0  0  2  0  0  0  0  0  0
  -29.9870  -13.2240   20.4050 N   0  0  0  0  0  0  0  0  0  0  0  0
  -31.7300  -14.6660   20.0600 O   0  0  0  0  0  0  0  0  0  0  0  0
  -29.9050  -15.3310   21.2100 N   0  0  0  0  0  0  0  0  0  0  0  0
  -29.0300  -14.9990   21.5870 H   0  0  0  0  0  0  0  0  0  0  0  0
  -25.2040  -13.8570   20.4720 C   0  0  0  0  0  0  0  0  0  0  0  0
  -24.1270  -13.0930   20.8350 C   0  0  0  0  0  0  0  0  0  0  0  0
  -24.5810  -11.7400   20.8230 C   0  0  0  0  0  0  0  0  0  0  0  0
  -26.2490  -12.9670   20.2710 N   0  0  0  0  0  0  0  0  0  0  0  0
  -25.8750  -11.6890   20.5310 N   0  0  0  0  0  0  0  0  0  0  0  0
  -23.8480  -10.4820   21.0180 C   0  0  0  0  0  0  0  0  0  0  0  0
  -24.2710   -9.5250   21.9660 C   0  0  0  0  0  3  0  0  0  0  0  0
  -23.5450   -8.3260   22.1450 C   0  0  0  0  0  3  0  0  0  0  0  0
  -22.3810   -8.0810   21.3790 C   0  0  0  0  0  0  0  0  0  0  0  0
  -21.9790   -9.0270   20.4180 C   0  0  0  0  0  3  0  0  0  0  0  0
  -22.7060  -10.2150   20.2380 C   0  0  0  0  0  3  0  0  0  0  0  0
  -21.6230   -6.9380   21.4690 O   0  0  0  0  0  0  0  0  0  0  0  0
  -21.5660   -6.2020   22.6250 C   0  0  0  0  0  0  0  0  0  0  0  0
  -21.1250   -6.7610   23.8450 C   0  0  0  0  0  3  0  0  0  0  0  0
  -21.0160   -5.9490   24.9930 C   0  0  0  0  0  3  0  0  0  0  0  0
  -21.3370   -4.5790   24.9200 C   0  0  0  0  0  0  0  0  0  0  0  0
  -21.7710   -4.0200   23.7040 C   0  0  0  0  0  3  0  0  0  0  0  0
  -21.8790   -4.8310   22.5590 C   0  0  0  0  0  0  0  0  0  0  0  0
  -22.2790   -4.2820   21.3870 F   0  0  0  0  0  0  0  0  0  0  0  0
  -21.2250   -3.7980   26.0190 F   0  0  0  0  0  0  0  0  0  0  0  0
  -22.7250  -13.5760   21.0860 C   0  0  0  0  0  0  0  0  0  0  0  0
  -21.9810  -12.8850   21.9420 N   0  0  0  0  0  0  0  0  0  0  0  0
  -22.3000  -14.5980   20.5510 O   0  0  0  0  0  0  0  0  0  0  0  0
  -22.3370  -12.0540   22.3920 H   0  0  0  0  0  0  0  0  0  0  0  0
  -21.0410  -13.1930   22.1500 H   0  0  0  0  0  0  0  0  0  0  0  0
  -25.3770  -15.2250   20.2880 N   0  0  0  0  0  0  0  0  0  0  0  0
  -24.6080  -15.8820   20.3640 H   0  0  0  0  0  0  0  0  0  0  0  0
  -26.2300  -15.6490   19.9490 H   0  0  0  0  0  0  0  0  0  0  0  0
  -31.2000  -24.6760   19.2720 C   0  0  0  0  0  1  0  0  0  0  0  0
  -30.2960  -24.0530   20.2380 N   0  0  0  0  0  0  0  0  0  0  0  0
  -29.7010  -24.8940   21.2850 C   0  0  0  0  0  2  0  0  0  0  0  0
  -28.3270  -25.4770   20.8990 C   0  0  0  0  0  2  0  0  0  0  0  0
  -28.4550  -26.7320   20.2220 O   0  0  0  0  0  0  0  0  0  0  0  0
  -24.5960  -31.8800   23.2290 C   0  0  0  0  0  0  0  0  0  0  0  0
  -27.2860  -27.4550   20.1890 C   0  0  0  0  0  0  0  0  0  0  0  0
  -23.4030  -30.4630   21.5850 C   0  0  0  0  0  3  0  0  0  0  0  0
  -24.8750  -28.9220   20.1780 C   0  0  0  0  0  0  0  0  0  0  0  0
  -25.9250  -30.8380   21.3990 C   0  0  0  0  0  2  0  0  0  0  0  0
  -26.0240  -29.4670   20.7670 C   0  0  0  0  0  0  0  0  0  0  0  0
  -27.2340  -28.7410   20.7670 C   0  0  0  0  0  3  0  0  0  0  0  0
  -26.1240  -26.9210   19.5910 C   0  0  0  0  0  3  0  0  0  0  0  0
  -24.9180  -27.6480   19.5860 C   0  0  0  0  0  3  0  0  0  0  0  0
  -23.6210  -29.7650   20.2140 C   0  0  0  0  0  2  0  0  0  0  0  0
  -24.6580  -31.0770   22.1300 N   0  0  0  0  0  0  0  0  0  0  0  0
  -23.5110  -32.1500   23.7650 O   0  0  0  0  0  0  0  0  0  0  0  0
  -22.7500  -29.4470   22.5500 C   0  0  0  0  0  0  0  0  0  0  0  0
  -21.4260  -29.2650   22.4190 N   0  0  0  0  0  0  0  0  0  0  0  0
  -23.4320  -28.8270   23.3700 O   0  0  0  0  0  0  0  0  0  0  0  0
  -20.9400  -29.8210   21.7280 H   0  0  0  0  0  0  0  0  0  0  0  0
  -18.0470  -28.0880   22.9240 C   0  0  0  0  0  0  0  0  0  0  0  0
  -20.6070  -28.3290   23.1890 C   0  0  0  0  0  3  0  0  0  0  0  0
  -20.7000  -26.9000   22.6080 C   0  0  0  0  0  2  0  0  0  0  0  0
  -19.5950  -26.5830   21.5970 C   0  0  0  0  0  2  0  0  0  0  0  0
  -18.2140  -26.7410   22.2390 C   0  0  0  0  0  2  0  0  0  0  0  0
  -19.1720  -28.8420   23.3520 C   0  0  0  0  0  0  0  0  0  0  0  0
  -18.9650  -30.1070   23.9430 C   0  0  0  0  0  3  0  0  0  0  0  0
  -17.6640  -30.6160   24.1150 C   0  0  0  0  0  3  0  0  0  0  0  0
  -16.5530  -29.8570   23.7080 C   0  0  0  0  0  3  0  0  0  0  0  0
  -16.7440  -28.5950   23.1180 C   0  0  0  0  0  3  0  0  0  0  0  0
  -25.8780  -32.5150   23.8540 C   0  0  0  0  0  3  0  0  0  0  0  0
  -25.5690  -33.9140   24.1770 N   0  0  0  0  0  0  0  0  0  0  0  0
  -25.9080  -34.9630   23.4150 C   0  0  0  0  0  0  0  0  0  0  0  0
  -26.5860  -34.8570   22.3900 O   0  0  0  0  0  0  0  0  0  0  0  0
  -24.9740  -34.0720   24.9770 H   0  0  0  0  0  0  0  0  0  0  0  0
  -24.1860  -36.7530   23.0250 C   0  0  0  0  0  1  0  0  0  0  0  0
  -25.4140  -36.3520   23.8610 C   0  0  0  0  0  3  0  0  0  0  0  0
  -27.5330  -37.2320   24.7310 C   0  0  0  0  0  1  0  0  0  0  0  0
  -26.4490  -37.4050   23.7670 N   0  0  0  0  0  0  0  0  0  0  0  0
  -26.0400  -38.3240   23.9090 H   0  0  0  0  0  0  0  0  0  0  0  0
  -26.3950  -31.7480   25.1340 C   0  0  1  0  0  0  0  0  0  0  0  0
  -25.3000  -31.5020   26.1980 C   0  0  0  0  0  1  0  0  0  0  0  0
  -26.9920  -30.3780   24.7440 C   0  0  0  0  0  1  0  0  0  0  0  0
  -27.5390  -32.5510   25.8000 C   0  0  0  0  0  1  0  0  0  0  0  0
  1  3  1  0
  2  4  2  0
  2  5  1  0
  4  6  1  0
  5  1  2  0
  6 50  1  0
  6  3  2  0
  7  5  1  0
  7  9  1  0
  8  7  2  0
  9 10  1  0
 11 19  1  0
 12 17  1  0
 13 14  1  0
 13 12  1  0
 15 14  1  0
 15 24  1  0
 15 16  1  0
 17 11  1  0
 17 16  1  0
 18 11  2  0
 19 10  1  0
 19 20  1  0
 21 22  2  0
 22 41  1  0
 23 22  1  0
 23 26  1  0
 24 21  1  0
 24 25  1  0
 25 23  2  0
 26 27  1  0
 27 28  2  0
 29 32  1  0
 29 28  1  0
 30 29  2  0
 31 30  1  0
 31 26  2  0
 32 33  1  0
 33 34  1  0
 34 35  2  0
 36 35  1  0
 36 40  1  0
 37 36  2  0
 38 33  2  0
 38 37  1  0
 39 38  1  0
 41 42  1  0
 42 45  1  0
 42 44  1  0
 43 41  2  0
 46 47  1  0
 46 21  1  0
 48 46  1  0
 49 50  1  0
 50 51  1  0
 52 51  1  0
 53 52  1  0
 54 65  2  0
 55 53  1  0
 55 60  1  0
 56 64  1  0
 56 66  1  0
 57 63  1  0
 57 59  1  0
 58 64  1  0
 59 58  1  0
 60 59  2  0
 61 55  2  0
 62 61  1  0
 62 57  2  0
 63 56  1  0
 64 54  1  0
 66 68  2  0
 67 66  1  0
 69 67  1  0
 70 79  2  0
 70 75  1  0
 71 67  1  0
 71 75  1  0
 72 71  1  0
 73 74  1  0
 73 72  1  0
 74 70  1  0
 75 76  2  0
 76 77  1  0
 78 77  2  0
 79 78  1  0
 80 54  1  0
 80 81  1  0
 80 90  1  0
 81 84  1  0
 82 86  1  0
 82 81  1  0
 83 82  2  0
 86 85  1  0
 88 86  1  0
 88 89  1  0
 88 87  1  0
 90 93  1  1
 90 91  1  0
 92 90  1  0
M  ISO  4  11 100  19 100  52 101  53 101
M  END
>  <TORSDO>  (54) 
F 22

>  <SCORE>  (54) 
-13.373

>  <name>  (54) 
53

>  <ligand_id>  (54) 
53

>  <original_smiles>  (54) 
[H]c1c([H])c([H])c2c(c1[H])C([H])([H])C([H])([H])C([H])([H])C2([H])N([H])C(=O)C1([H])N(C(=O)C([H])(N([H])C(=O)C([H])(N([H])C([H])([H])[H])C([H])([H])[H])C(C([H])([H])[H])(C([H])([H])[H])C([H])([H])[H])C([H])([H])c2c([H])c(OC([H])([H])C([H])([H])N(c3c([H])c([H])c(C(=O)C([H])([H])C([H])([H])N([H])C(=O)N4C([H])([H])C([H])([H])C([H])([H])C([H])(n5nc(-c6c([H])c([H])c(Oc7c([H])c([H])c(F)c([H])c7F)c([H])c6[H])c(C(=O)N([H])[H])c5N([H])[H])C4([H])[H])c([H])c3[H])C([H])([H])[H])c([H])c([H])c2C1([H])[H]

>  <smiles>  (54) 
[H]c1c([H])c([H])c2c(c1[H])C([H])([H])C([H])([H])C([H])([H])C2([H])N([H])C(=O)C1([H])N(C(=O)C([H])(N([H])C(=O)C([H])(N([H])C([H])([H])[H])C([H])([H])[H])C(C([H])([H])[H])(C([H])([H])[H])C([H])([H])[H])C([H])([H])c2c([H])c(OC([H])([H])C([H])([H])N(c3c([H])c([H])c(C(=O)C([H])([H])C([H])([H])N([H])C(=O)N4C([H])([H])C([H])([H])C([H])([H])C([H])(n5nc(-c6c([H])c([H])c(Oc7c([H])c([H])c(F)c([H])c7F)c([H])c6[H])c(C(=O)N([H])[H])c5N([H])[H])C4([H])[H])c([H])c3[H])C([H])([H])[H])c([H])c([H])c2C1([H])[H]

$$$$
54:0:0
     RDKit          3D

 97105  0  0  1  0  0  0  0  0999 V2000
  -31.9250  -17.3530   19.5780 C   0  0  0  0  0  3  0  0  0  0  0  0
  -29.3470  -17.3860   22.4300 C   0  0  0  0  0  3  0  0  0  0  0  0
  -29.1600  -16.0100   22.6570 C   0  0  0  0  0  3  0  0  0  0  0  0
  -30.2400  -17.8250   21.4360 C   0  0  0  0  0  3  0  0  0  0  0  0
  -30.7640  -15.5070   20.8950 C   0  0  0  0  0  3  0  0  0  0  0  0
  -29.8630  -15.0540   21.8860 C   0  0  0  0  0  0  0  0  0  0  0  0
  -30.9590  -16.8870   20.6650 C   0  0  0  0  0  0  0  0  0  0  0  0
  -29.6670  -13.5860   22.0840 C   0  0  0  0  0  0  0  0  0  0  0  0
  -28.8700  -13.1330   23.3020 C   0  0  0  0  0  1  0  0  0  0  0  0
  -30.1080  -12.7300   21.3130 O   0  0  0  0  0  0  0  0  0  0  0  0
  -32.5580  -16.1690   18.8030 C   0  0  0  0  0  2  0  0  0  0  0  0
  -32.0630  -13.8220   18.1690 C   0  0  0  0  0  0  0  0  0  0  0  0
  -31.2490  -11.6170   17.4310 C   0  0  0  0  0  2  0  0  0  0  0  0
  -30.0530  -11.7890   16.4750 C   0  0  0  0  0  2  0  0  0  0  0  0
  -28.7360  -11.8810   17.2680 C   0  0  0  0  0  2  0  0  0  0  0  0
  -28.8070  -12.9040   18.4330 C   0  0  0  0  0  3  0  0  0  0  0  0
  -30.0880  -12.7000   19.2730 C   0  0  0  0  0  2  0  0  0  0  0  0
  -31.2470  -12.7540   18.3660 N   0  0  0  0  0  0  0  0  0  0  0  0
  -32.9720  -13.8270   17.3340 O   0  0  0  0  0  0  0  0  0  0  0  0
  -31.7980  -14.9180   18.8970 N   0  0  0  0  0  0  0  0  0  0  0  0
  -31.0420  -14.8750   19.5650 H   0  0  0  0  0  0  0  0  0  0  0  0
  -26.8790  -13.8950   19.8180 C   0  0  0  0  0  0  0  0  0  0  0  0
  -25.8060  -13.3150   20.4400 C   0  0  0  0  0  0  0  0  0  0  0  0
  -25.9290  -11.9100   20.2110 C   0  0  0  0  0  0  0  0  0  0  0  0
  -27.6030  -12.8540   19.2590 N   0  0  0  0  0  0  0  0  0  0  0  0
  -27.0480  -11.6490   19.5460 N   0  0  0  0  0  0  0  0  0  0  0  0
  -25.0180  -10.8050   20.5350 C   0  0  0  0  0  0  0  0  0  0  0  0
  -25.4630   -9.6650   21.2410 C   0  0  0  0  0  3  0  0  0  0  0  0
  -24.5640   -8.6230   21.5570 C   0  0  0  0  0  3  0  0  0  0  0  0
  -23.2060   -8.7160   21.1720 C   0  0  0  0  0  0  0  0  0  0  0  0
  -22.7740   -9.8420   20.4490 C   0  0  0  0  0  3  0  0  0  0  0  0
  -23.6700  -10.8760   20.1300 C   0  0  0  0  0  3  0  0  0  0  0  0
  -22.2680   -7.7420   21.4120 O   0  0  0  0  0  0  0  0  0  0  0  0
  -22.1130   -7.1840   22.6560 C   0  0  0  0  0  0  0  0  0  0  0  0
  -21.8890   -7.9730   23.8040 C   0  0  0  0  0  3  0  0  0  0  0  0
  -21.6660   -7.3540   25.0510 C   0  0  0  0  0  3  0  0  0  0  0  0
  -21.6580   -5.9500   25.1510 C   0  0  0  0  0  0  0  0  0  0  0  0
  -21.8770   -5.1630   24.0070 C   0  0  0  0  0  3  0  0  0  0  0  0
  -22.1010   -5.7770   22.7620 C   0  0  0  0  0  0  0  0  0  0  0  0
  -22.2900   -5.0140   21.6600 F   0  0  0  0  0  0  0  0  0  0  0  0
  -21.4370   -5.3560   26.3460 F   0  0  0  0  0  0  0  0  0  0  0  0
  -24.6750  -14.0290   21.1230 C   0  0  0  0  0  0  0  0  0  0  0  0
  -24.1120  -13.4280   22.1650 N   0  0  0  0  0  0  0  0  0  0  0  0
  -24.3140  -15.1490   20.7640 O   0  0  0  0  0  0  0  0  0  0  0  0
  -24.4190  -12.5170   22.4710 H   0  0  0  0  0  0  0  0  0  0  0  0
  -23.3610  -13.8850   22.6620 H   0  0  0  0  0  0  0  0  0  0  0  0
  -27.2920  -15.2140   19.6610 N   0  0  0  0  0  0  0  0  0  0  0  0
  -26.7970  -15.9990   20.0690 H   0  0  0  0  0  0  0  0  0  0  0  0
  -28.1180  -15.4910   19.1490 H   0  0  0  0  0  0  0  0  0  0  0  0
  -33.0340  -18.2850   20.1300 C   0  0  0  0  0  2  0  0  0  0  0  0
  -32.6480  -19.2180   21.3060 C   0  0  0  0  0  2  0  0  0  0  0  0
  -32.5350  -20.7100   20.9300 C   0  0  0  0  0  2  0  0  0  0  0  0
  -31.7320  -21.5190   21.9710 C   0  0  0  0  0  2  0  0  0  0  0  0
  -31.5680  -23.0090   21.6110 C   0  0  0  0  0  2  0  0  0  0  0  0
  -30.5660  -23.7400   22.5290 C   0  0  0  0  0  2  0  0  0  0  0  0
  -30.5300  -25.2680   22.3330 C   0  0  0  0  0  2  0  0  0  0  0  0
  -30.1020  -25.6000   21.0120 O   0  0  0  0  0  0  0  0  0  0  0  0
  -25.3030  -30.2450   23.5660 C   0  0  0  0  0  0  0  0  0  0  0  0
  -28.9130  -26.2820   20.8740 C   0  0  0  0  0  0  0  0  0  0  0  0
  -24.6110  -28.9380   21.5790 C   0  0  0  0  0  3  0  0  0  0  0  0
  -26.4650  -27.6210   20.4260 C   0  0  0  0  0  0  0  0  0  0  0  0
  -27.0760  -29.4630   22.0020 C   0  0  0  0  0  2  0  0  0  0  0  0
  -27.4070  -28.1620   21.3090 C   0  0  0  0  0  0  0  0  0  0  0  0
  -28.6330  -27.5030   21.5330 C   0  0  0  0  0  3  0  0  0  0  0  0
  -27.9610  -25.7560   19.9770 C   0  0  0  0  0  3  0  0  0  0  0  0
  -26.7350  -26.4140   19.7550 C   0  0  0  0  0  3  0  0  0  0  0  0
  -25.1810  -28.3970   20.2400 C   0  0  0  0  0  2  0  0  0  0  0  0
  -25.6660  -29.5590   22.4450 N   0  0  0  0  0  0  0  0  0  0  0  0
  -24.1110  -30.4040   23.8600 O   0  0  0  0  0  0  0  0  0  0  0  0
  -23.8370  -27.7990   22.2800 C   0  0  0  0  0  0  0  0  0  0  0  0
  -22.5730  -27.6000   21.8740 N   0  0  0  0  0  0  0  0  0  0  0  0
  -24.3800  -27.1020   23.1420 O   0  0  0  0  0  0  0  0  0  0  0  0
  -22.1990  -28.2150   21.1650 H   0  0  0  0  0  0  0  0  0  0  0  0
  -19.2070  -26.3180   21.6100 C   0  0  0  0  0  0  0  0  0  0  0  0
  -21.6680  -26.5620   22.3640 C   0  0  0  0  0  3  0  0  0  0  0  0
  -21.9180  -25.2200   21.6380 C   0  0  0  0  0  2  0  0  0  0  0  0
  -21.0210  -25.0220   20.4130 C   0  0  0  0  0  2  0  0  0  0  0  0
  -19.5430  -25.0700   20.8120 C   0  0  0  0  0  2  0  0  0  0  0  0
  -20.2070  -27.0280   22.3260 C   0  0  0  0  0  0  0  0  0  0  0  0
  -19.8480  -28.2030   23.0220 C   0  0  0  0  0  3  0  0  0  0  0  0
  -18.5190  -28.6670   23.0150 C   0  0  0  0  0  3  0  0  0  0  0  0
  -17.5310  -27.9530   22.3170 C   0  0  0  0  0  3  0  0  0  0  0  0
  -17.8740  -26.7790   21.6200 C   0  0  0  0  0  3  0  0  0  0  0  0
  -26.3650  -30.8820   24.5170 C   0  0  0  0  0  3  0  0  0  0  0  0
  -26.3730  -30.2420   25.9590 C   0  0  1  0  0  0  0  0  0  0  0  0
  -24.9820  -30.2190   26.6350 C   0  0  0  0  0  1  0  0  0  0  0  0
  -26.9000  -28.7890   25.9070 C   0  0  0  0  0  1  0  0  0  0  0  0
  -27.3360  -31.0290   26.8770 C   0  0  0  0  0  1  0  0  0  0  0  0
  -26.0880  -32.3220   24.5870 N   0  0  0  0  0  0  0  0  0  0  0  0
  -26.7820  -33.2620   23.9320 C   0  0  0  0  0  0  0  0  0  0  0  0
  -27.7800  -33.0060   23.2510 O   0  0  0  0  0  0  0  0  0  0  0  0
  -25.2530  -32.6000   25.0840 H   0  0  0  0  0  0  0  0  0  0  0  0
  -25.5650  -35.1200   22.7520 C   0  0  0  0  0  1  0  0  0  0  0  0
  -26.2900  -34.7170   24.0460 C   0  0  0  0  0  3  0  0  0  0  0  0
  -27.9170  -35.5600   25.6800 C   0  0  0  0  0  1  0  0  0  0  0  0
  -27.3730  -35.6830   24.3310 N   0  0  0  0  0  0  0  0  0  0  0  0
  -27.0470  -36.6370   24.2070 H   0  0  0  0  0  0  0  0  0  0  0  0
  1 11  1  0
  1 50  1  0
  1  7  1  0
  2  3  1  0
  4  2  2  0
  5  6  1  0
  6  8  1  0
  6  3  2  0
  7  5  2  0
  7  4  1  0
  8  9  1  0
 10  8  2  0
 11 20  1  0
 12 18  1  0
 12 20  1  0
 13 18  1  0
 14 15  1  0
 14 13  1  0
 16 15  1  0
 16 25  1  0
 16 17  1  0
 18 17  1  0
 19 12  2  0
 20 21  1  0
 22 23  2  0
 23 42  1  0
 24 23  1  0
 24 27  1  0
 25 26  1  0
 25 22  1  0
 26 24  2  0
 27 28  1  0
 28 29  2  0
 30 33  1  0
 30 29  1  0
 31 30  2  0
 32 31  1  0
 32 27  2  0
 33 34  1  0
 34 39  2  0
 34 35  1  0
 35 36  2  0
 36 37  1  0
 37 41  1  0
 38 37  2  0
 39 38  1  0
 40 39  1  0
 42 43  1  0
 43 45  1  0
 43 46  1  0
 44 42  2  0
 47 22  1  0
 47 48  1  0
 49 47  1  0
 50 51  1  0
 52 51  1  0
 52 53  1  0
 54 53  1  0
 54 55  1  0
 56 55  1  0
 57 56  1  0
 58 69  2  0
 59 57  1  0
 59 64  1  0
 60 70  1  0
 60 68  1  0
 61 63  1  0
 62 68  1  0
 63 64  2  0
 63 62  1  0
 65 59  2  0
 66 65  1  0
 66 61  2  0
 67 61  1  0
 67 60  1  0
 68 58  1  0
 70 72  2  0
 71 70  1  0
 73 71  1  0
 74 83  2  0
 74 79  1  0
 75 71  1  0
 76 75  1  0
 77 78  1  0
 77 76  1  0
 78 74  1  0
 79 75  1  0
 79 80  2  0
 81 80  1  0
 82 81  2  0
 83 82  1  0
 84 58  1  0
 84 89  1  0
 84 85  1  0
 85 86  1  1
 85 88  1  0
 87 85  1  0
 89 92  1  0
 90 94  1  0
 90 89  1  0
 91 90  2  0
 94 93  1  0
 94 96  1  0
 96 95  1  0
 97 96  1  0
M  ISO  4  12 100  20 100  56 101  57 101
M  END
>  <TORSDO>  (55) 
F 26

>  <SCORE>  (55) 
3.957

>  <name>  (55) 
54

>  <ligand_id>  (55) 
54

>  <original_smiles>  (55) 
[H]c1c([H])c([H])c2c(c1[H])C([H])([H])C([H])([H])C([H])([H])C2([H])N([H])C(=O)C1([H])N(C(=O)C([H])(N([H])C(=O)C([H])(N([H])C([H])([H])[H])C([H])([H])[H])C(C([H])([H])[H])(C([H])([H])[H])C([H])([H])[H])C([H])([H])c2c([H])c(OC([H])([H])C([H])([H])C([H])([H])C([H])([H])C([H])([H])C([H])([H])C([H])([H])C([H])(c3c([H])c([H])c([H])c(C(=O)C([H])([H])[H])c3[H])C([H])([H])N([H])C(=O)N3C([H])([H])C([H])([H])C([H])([H])C([H])(n4nc(-c5c([H])c([H])c(Oc6c([H])c([H])c(F)c([H])c6F)c([H])c5[H])c(C(=O)N([H])[H])c4N([H])[H])C3([H])[H])c([H])c([H])c2C1([H])[H]

>  <smiles>  (55) 
[H]c1c([H])c([H])c2c(c1[H])C([H])([H])C([H])([H])C([H])([H])C2([H])N([H])C(=O)C1([H])N(C(=O)C([H])(N([H])C(=O)C([H])(N([H])C([H])([H])[H])C([H])([H])[H])C(C([H])([H])[H])(C([H])([H])[H])C([H])([H])[H])C([H])([H])c2c([H])c(OC([H])([H])C([H])([H])C([H])([H])C([H])([H])C([H])([H])C([H])([H])C([H])([H])C([H])(c3c([H])c([H])c([H])c(C(=O)C([H])([H])[H])c3[H])C([H])([H])N([H])C(=O)N3C([H])([H])C([H])([H])C([H])([H])C([H])(n4nc(-c5c([H])c([H])c(Oc6c([H])c([H])c(F)c([H])c6F)c([H])c5[H])c(C(=O)N([H])[H])c4N([H])[H])C3([H])[H])c([H])c([H])c2C1([H])[H]

$$$$
55:0:0
     RDKit          3D

 97105  0  0  1  0  0  0  0  0999 V2000
  -29.1180  -18.4610   20.5720 C   0  0  0  0  0  0  0  0  0  0  0  0
  -29.4200  -19.8040   20.4710 N   0  0  0  0  0  0  0  0  0  0  0  0
  -27.9960  -18.0920   20.9220 O   0  0  0  0  0  0  0  0  0  0  0  0
  -30.3870  -20.0080   20.2690 H   0  0  0  0  0  0  0  0  0  0  0  0
  -28.4840  -21.0020   20.4480 C   0  0  0  0  0  3  0  0  0  0  0  0
  -29.1140  -22.4870   20.4770 C   0  0  0  0  0  3  0  0  0  0  0  0
  -28.2560  -23.7790   20.0170 C   0  0  0  0  0  2  0  0  0  0  0  0
  -28.3210  -25.1440   20.8660 C   0  0  0  0  0  2  0  0  0  0  0  0
  -28.3900  -26.5020   20.2570 O   0  0  0  0  0  0  0  0  0  0  0  0
  -24.5970  -31.9190   23.2250 C   0  0  0  0  0  0  0  0  0  0  0  0
  -27.2640  -27.3350   20.2570 C   0  0  0  0  0  0  0  0  0  0  0  0
  -23.4230  -30.5000   21.5800 C   0  0  0  0  0  3  0  0  0  0  0  0
  -24.9000  -28.9370   20.1910 C   0  0  0  0  0  0  0  0  0  0  0  0
  -25.9620  -30.8280   21.4250 C   0  0  0  0  0  2  0  0  0  0  0  0
  -26.0580  -29.4420   20.7960 C   0  0  0  0  0  0  0  0  0  0  0  0
  -27.2470  -28.6530   20.8130 C   0  0  0  0  0  3  0  0  0  0  0  0
  -26.0870  -26.8760   19.6350 C   0  0  0  0  0  3  0  0  0  0  0  0
  -24.9170  -27.6620   19.5990 C   0  0  0  0  0  3  0  0  0  0  0  0
  -23.6580  -29.8090   20.2100 C   0  0  0  0  0  2  0  0  0  0  0  0
  -24.6790  -31.1010   22.1340 N   0  0  0  0  0  0  0  0  0  0  0  0
  -23.5060  -32.1950   23.7460 O   0  0  0  0  0  0  0  0  0  0  0  0
  -22.7500  -29.4910   22.5420 C   0  0  0  0  0  0  0  0  0  0  0  0
  -21.4230  -29.3200   22.4130 N   0  0  0  0  0  0  0  0  0  0  0  0
  -23.4230  -28.8620   23.3610 O   0  0  0  0  0  0  0  0  0  0  0  0
  -20.9360  -29.8780   21.7250 H   0  0  0  0  0  0  0  0  0  0  0  0
  -18.0370  -28.1630   22.9360 C   0  0  0  0  0  0  0  0  0  0  0  0
  -20.6010  -28.3870   23.1860 C   0  0  0  0  0  3  0  0  0  0  0  0
  -20.6800  -26.9600   22.5980 C   0  0  0  0  0  2  0  0  0  0  0  0
  -19.5660  -26.6590   21.5900 C   0  0  0  0  0  2  0  0  0  0  0  0
  -18.1910  -26.8190   22.2450 C   0  0  0  0  0  2  0  0  0  0  0  0
  -19.1700  -28.9050   23.3620 C   0  0  0  0  0  0  0  0  0  0  0  0
  -18.9730  -30.1660   23.9680 C   0  0  0  0  0  3  0  0  0  0  0  0
  -17.6760  -30.6840   24.1490 C   0  0  0  0  0  3  0  0  0  0  0  0
  -16.5590  -29.9370   23.7370 C   0  0  0  0  0  3  0  0  0  0  0  0
  -16.7400  -28.6780   23.1390 C   0  0  0  0  0  3  0  0  0  0  0  0
  -25.8690  -32.5640   23.8590 C   0  0  0  0  0  3  0  0  0  0  0  0
  -25.5520  -33.9660   24.1680 N   0  0  0  0  0  0  0  0  0  0  0  0
  -25.8940  -35.0110   23.4030 C   0  0  0  0  0  0  0  0  0  0  0  0
  -26.5790  -34.8960   22.3830 O   0  0  0  0  0  0  0  0  0  0  0  0
  -24.9470  -34.1300   24.9590 H   0  0  0  0  0  0  0  0  0  0  0  0
  -24.1780  -36.8010   22.9920 C   0  0  0  0  0  1  0  0  0  0  0  0
  -25.3990  -36.4040   23.8370 C   0  0  0  0  0  3  0  0  0  0  0  0
  -27.5120  -37.2960   24.7140 C   0  0  0  0  0  1  0  0  0  0  0  0
  -26.4360  -37.4550   23.7400 N   0  0  0  0  0  0  0  0  0  0  0  0
  -26.0270  -38.3770   23.8680 H   0  0  0  0  0  0  0  0  0  0  0  0
  -26.3700  -31.8100   25.1520 C   0  0  1  0  0  0  0  0  0  0  0  0
  -25.2600  -31.5790   26.2040 C   0  0  0  0  0  1  0  0  0  0  0  0
  -26.9640  -30.4300   24.7880 C   0  0  0  0  0  1  0  0  0  0  0  0
  -27.5100  -32.6140   25.8190 C   0  0  0  0  0  1  0  0  0  0  0  0
  -30.1630  -17.3420   20.1320 C   0  0  0  0  0  3  0  0  0  0  0  0
  -30.6560  -14.7650   20.4180 C   0  0  0  0  0  0  0  0  0  0  0  0
  -30.4640  -12.5020   19.3960 C   0  0  0  0  0  2  0  0  0  0  0  0
  -29.5450  -12.5980   18.1590 C   0  0  0  0  0  2  0  0  0  0  0  0
  -28.0710  -12.4220   18.5670 C   0  0  0  0  0  2  0  0  0  0  0  0
  -27.6800  -13.2990   19.7860 C   0  0  0  0  0  3  0  0  0  0  0  0
  -28.7210  -13.1940   20.9240 C   0  0  0  0  0  2  0  0  0  0  0  0
  -30.0270  -13.5440   20.3540 N   0  0  0  0  0  0  0  0  0  0  0  0
  -31.8490  -14.8550   20.1340 O   0  0  0  0  0  0  0  0  0  0  0  0
  -29.8720  -15.8960   20.5480 N   0  0  0  0  0  0  0  0  0  0  0  0
  -28.9170  -15.7330   20.8270 H   0  0  0  0  0  0  0  0  0  0  0  0
  -25.2750  -13.8850   20.4520 C   0  0  0  0  0  0  0  0  0  0  0  0
  -24.2070  -13.1090   20.8100 C   0  0  0  0  0  0  0  0  0  0  0  0
  -24.6790  -11.7600   20.8110 C   0  0  0  0  0  0  0  0  0  0  0  0
  -26.3290  -13.0080   20.2540 N   0  0  0  0  0  0  0  0  0  0  0  0
  -25.9760  -11.7250   20.5320 N   0  0  0  0  0  0  0  0  0  0  0  0
  -23.9570  -10.4960   21.0070 C   0  0  0  0  0  0  0  0  0  0  0  0
  -24.3770   -9.5440   21.9600 C   0  0  0  0  0  3  0  0  0  0  0  0
  -23.6540   -8.3460   22.1420 C   0  0  0  0  0  3  0  0  0  0  0  0
  -22.4990   -8.0880   21.3650 C   0  0  0  0  0  0  0  0  0  0  0  0
  -22.0980   -9.0280   20.4010 C   0  0  0  0  0  3  0  0  0  0  0  0
  -22.8210  -10.2200   20.2190 C   0  0  0  0  0  3  0  0  0  0  0  0
  -21.7520   -6.9390   21.4540 O   0  0  0  0  0  0  0  0  0  0  0  0
  -21.6820   -6.2120   22.6150 C   0  0  0  0  0  0  0  0  0  0  0  0
  -21.2140   -6.7780   23.8200 C   0  0  0  0  0  3  0  0  0  0  0  0
  -21.0950   -5.9800   24.9750 C   0  0  0  0  0  3  0  0  0  0  0  0
  -21.4290   -4.6130   24.9240 C   0  0  0  0  0  0  0  0  0  0  0  0
  -21.8890   -4.0450   23.7220 C   0  0  0  0  0  3  0  0  0  0  0  0
  -22.0120   -4.8420   22.5710 C   0  0  0  0  0  0  0  0  0  0  0  0
  -22.4350   -4.2860   21.4110 F   0  0  0  0  0  0  0  0  0  0  0  0
  -21.3070   -3.8430   26.0300 F   0  0  0  0  0  0  0  0  0  0  0  0
  -22.8020  -13.5810   21.0420 C   0  0  0  0  0  0  0  0  0  0  0  0
  -22.0620  -12.8910   21.9030 N   0  0  0  0  0  0  0  0  0  0  0  0
  -22.3670  -14.5970   20.5020 O   0  0  0  0  0  0  0  0  0  0  0  0
  -22.4300  -12.0710   22.3610 H   0  0  0  0  0  0  0  0  0  0  0  0
  -21.1170  -13.1860   22.1080 H   0  0  0  0  0  0  0  0  0  0  0  0
  -25.4340  -15.2530   20.2560 N   0  0  0  0  0  0  0  0  0  0  0  0
  -24.6640  -15.9050   20.3510 H   0  0  0  0  0  0  0  0  0  0  0  0
  -26.2820  -15.6950   19.9250 H   0  0  0  0  0  0  0  0  0  0  0  0
  -30.2930  -17.4270   18.5770 C   0  0  0  0  0  2  0  0  0  0  0  0
  -33.5170  -16.2950   16.8770 C   0  0  0  0  0  3  0  0  0  0  0  0
  -34.2560  -17.4830   16.7740 C   0  0  0  0  0  3  0  0  0  0  0  0
  -32.2480  -16.3110   17.4750 C   0  0  0  0  0  3  0  0  0  0  0  0
  -33.7280  -18.6970   17.2620 C   0  0  0  0  0  0  0  0  0  0  0  0
  -31.6980  -17.5090   17.9750 C   0  0  0  0  0  0  0  0  0  0  0  0
  -32.4320  -18.7250   17.8470 C   0  0  0  0  0  0  0  0  0  0  0  0
  -34.5900  -19.9470   17.1430 C   0  0  0  0  0  1  0  0  0  0  0  0
  -31.8470  -20.0500   18.3330 C   0  0  0  0  0  1  0  0  0  0  0  0
  1  3  2  0
  2  1  1  0
  4  2  1  0
  5  2  1  0
  5  6  2  0
  7  6  1  0
  7  8  1  0
  9  8  1  0
 10 21  2  0
 11  9  1  0
 11 16  1  0
 12 20  1  0
 12 22  1  0
 13 19  1  0
 13 15  1  0
 14 20  1  0
 15 16  2  0
 15 14  1  0
 17 11  2  0
 18 17  1  0
 18 13  2  0
 19 12  1  0
 20 10  1  0
 22 24  2  0
 23 22  1  0
 25 23  1  0
 26 35  2  0
 26 31  1  0
 27 23  1  0
 27 31  1  0
 28 27  1  0
 29 30  1  0
 29 28  1  0
 30 26  1  0
 31 32  2  0
 32 33  1  0
 34 33  2  0
 35 34  1  0
 36 10  1  0
 36 37  1  0
 36 46  1  0
 37 40  1  0
 38 42  1  0
 38 37  1  0
 39 38  2  0
 42 41  1  0
 44 42  1  0
 44 45  1  0
 44 43  1  0
 46 49  1  1
 46 47  1  0
 48 46  1  0
 50 89  1  0
 50 59  1  0
 50  1  1  0
 51 59  1  0
 52 57  1  0
 53 54  1  0
 53 52  1  0
 55 54  1  0
 55 64  1  0
 55 56  1  0
 57 51  1  0
 57 56  1  0
 58 51  2  0
 59 60  1  0
 61 62  2  0
 62 63  1  0
 62 81  1  0
 63 66  1  0
 64 61  1  0
 64 65  1  0
 65 63  2  0
 66 67  1  0
 67 68  2  0
 69 72  1  0
 69 68  1  0
 70 69  2  0
 71 70  1  0
 71 66  2  0
 72 73  1  0
 73 74  1  0
 74 75  2  0
 76 75  1  0
 76 80  1  0
 77 76  2  0
 78 73  2  0
 78 77  1  0
 79 78  1  0
 81 82  1  0
 82 85  1  0
 82 84  1  0
 83 81  2  0
 86 87  1  0
 86 61  1  0
 88 86  1  0
 90 92  1  0
 91 90  2  0
 91 93  1  0
 92 94  2  0
 93 95  2  0
 94 89  1  0
 95 94  1  0
 95 97  1  0
 96 93  1  0
M  ISO  4   8 101   9 101  51 100  59 100
M  END
>  <TORSDO>  (56) 
F 23

>  <SCORE>  (56) 
-12.899

>  <name>  (56) 
55

>  <ligand_id>  (56) 
55

>  <original_smiles>  (56) 
[H]c1c([H])c(C([H])([H])[H])c(C([H])([H])[H])c(C([H])([H])C([H])(C(=O)N([H])C([H])([H])C([H])([H])C([H])([H])C([H])([H])Oc2c([H])c([H])c3c(c2[H])C([H])([H])N(C(=O)C([H])(N([H])C(=O)C([H])(N([H])C([H])([H])[H])C([H])([H])[H])C(C([H])([H])[H])(C([H])([H])[H])C([H])([H])[H])C([H])(C(=O)N([H])C2([H])c4c([H])c([H])c([H])c([H])c4C([H])([H])C([H])([H])C2([H])[H])C3([H])[H])N([H])C(=O)N2C([H])([H])C([H])([H])C([H])([H])C([H])(n3nc(-c4c([H])c([H])c(Oc5c([H])c([H])c(F)c([H])c5F)c([H])c4[H])c(C(=O)N([H])[H])c3N([H])[H])C2([H])[H])c1[H]

>  <smiles>  (56) 
[H]c1c([H])c(C([H])([H])[H])c(C([H])([H])[H])c(C([H])([H])C([H])(C(=O)N([H])C([H])([H])C([H])([H])C([H])([H])C([H])([H])Oc2c([H])c([H])c3c(c2[H])C([H])([H])N(C(=O)C([H])(N([H])C(=O)C([H])(N([H])C([H])([H])[H])C([H])([H])[H])C(C([H])([H])[H])(C([H])([H])[H])C([H])([H])[H])C([H])(C(=O)N([H])C2([H])c4c([H])c([H])c([H])c([H])c4C([H])([H])C([H])([H])C2([H])[H])C3([H])[H])N([H])C(=O)N2C([H])([H])C([H])([H])C([H])([H])C([H])(n3nc(-c4c([H])c([H])c(Oc5c([H])c([H])c(F)c([H])c5F)c([H])c4[H])c(C(=O)N([H])[H])c3N([H])[H])C2([H])[H])c1[H]

$$$$
56:0:0
     RDKit          3D

 96105  0  0  1  0  0  0  0  0999 V2000
  -29.0750  -23.6080   21.2810 C   0  0  0  0  0  3  0  0  0  0  0  0
  -27.1450  -22.1520   21.5880 C   0  0  0  0  0  3  0  0  0  0  0  0
  -28.5390  -22.3030   21.4530 C   0  0  0  0  0  0  0  0  0  0  0  0
  -28.2440  -24.7650   21.3240 C   0  0  0  0  0  0  0  0  0  0  0  0
  -26.8500  -24.5780   21.5460 C   0  0  0  0  0  0  0  0  0  0  0  0
  -26.3100  -23.2790   21.6410 C   0  0  0  0  0  0  0  0  0  0  0  0
  -24.9780  -23.1140   21.8380 F   0  0  0  0  0  0  0  0  0  0  0  0
  -25.9610  -25.6350   21.7350 N   0  0  0  0  0  0  0  0  0  0  0  0
  -26.2130  -26.5380   21.3490 H   0  0  0  0  0  0  0  0  0  0  0  0
  -24.9900  -25.3960   21.5680 H   0  0  0  0  0  0  0  0  0  0  0  0
  -29.4210  -21.0630   21.6500 C   0  0  0  0  0  2  0  0  0  0  0  0
  -29.9380  -20.3620   20.3700 C   0  0  0  0  0  2  0  0  0  0  0  0
  -30.7500  -14.7750   20.2050 C   0  0  0  0  0  0  0  0  0  0  0  0
  -30.3590  -12.6040   19.0760 C   0  0  0  0  0  2  0  0  0  0  0  0
  -29.3830  -12.7510   17.8920 C   0  0  0  0  0  2  0  0  0  0  0  0
  -27.9330  -12.5780   18.3700 C   0  0  0  0  0  2  0  0  0  0  0  0
  -27.6140  -13.4410   19.6170 C   0  0  0  0  0  3  0  0  0  0  0  0
  -28.7140  -13.3220   20.7020 C   0  0  0  0  0  2  0  0  0  0  0  0
  -30.0120  -13.6270   20.0810 N   0  0  0  0  0  0  0  0  0  0  0  0
  -31.8900  -14.8460   19.7350 O   0  0  0  0  0  0  0  0  0  0  0  0
  -28.8680  -18.0410   20.1320 C   0  0  0  0  0  2  0  0  0  0  0  0
  -30.6620  -18.2400   21.7650 C   0  0  0  0  0  2  0  0  0  0  0  0
  -29.0300  -16.4990   20.1120 C   0  0  0  0  0  2  0  0  0  0  0  0
  -31.0740  -16.7530   21.6220 C   0  0  0  0  0  2  0  0  0  0  0  0
  -30.1440  -18.8150   20.4400 C   0  0  0  0  0  3  0  0  0  0  0  0
  -30.1930  -15.8770   20.7960 N   0  0  0  0  0  0  0  0  0  0  0  0
  -25.2440  -14.0280   20.4200 C   0  0  0  0  0  0  0  0  0  0  0  0
  -24.1940  -13.2440   20.8170 C   0  0  0  0  0  0  0  0  0  0  0  0
  -24.6670  -11.8980   20.7630 C   0  0  0  0  0  0  0  0  0  0  0  0
  -26.2860  -13.1560   20.1500 N   0  0  0  0  0  0  0  0  0  0  0  0
  -25.9460  -11.8710   20.4180 N   0  0  0  0  0  0  0  0  0  0  0  0
  -23.9590  -10.6280   20.9610 C   0  0  0  0  0  0  0  0  0  0  0  0
  -24.4070   -9.6750   21.9010 C   0  0  0  0  0  3  0  0  0  0  0  0
  -23.7000   -8.4680   22.0870 C   0  0  0  0  0  3  0  0  0  0  0  0
  -22.5310   -8.2080   21.3330 C   0  0  0  0  0  0  0  0  0  0  0  0
  -22.1050   -9.1490   20.3800 C   0  0  0  0  0  3  0  0  0  0  0  0
  -22.8130  -10.3470   20.1920 C   0  0  0  0  0  3  0  0  0  0  0  0
  -21.7940   -7.0520   21.4280 O   0  0  0  0  0  0  0  0  0  0  0  0
  -21.7290   -6.3350   22.5960 C   0  0  0  0  0  0  0  0  0  0  0  0
  -21.2620   -6.9070   23.7990 C   0  0  0  0  0  3  0  0  0  0  0  0
  -21.1500   -6.1140   24.9580 C   0  0  0  0  0  3  0  0  0  0  0  0
  -21.4920   -4.7480   24.9140 C   0  0  0  0  0  0  0  0  0  0  0  0
  -21.9520   -4.1760   23.7160 C   0  0  0  0  0  3  0  0  0  0  0  0
  -22.0670   -4.9670   22.5600 C   0  0  0  0  0  0  0  0  0  0  0  0
  -22.4920   -4.4060   21.4020 F   0  0  0  0  0  0  0  0  0  0  0  0
  -21.3750   -3.9840   26.0260 F   0  0  0  0  0  0  0  0  0  0  0  0
  -22.8030  -13.7070   21.1360 C   0  0  0  0  0  0  0  0  0  0  0  0
  -22.1100  -12.9860   22.0110 N   0  0  0  0  0  0  0  0  0  0  0  0
  -22.3420  -14.7360   20.6460 O   0  0  0  0  0  0  0  0  0  0  0  0
  -22.4990  -12.1490   22.4200 H   0  0  0  0  0  0  0  0  0  0  0  0
  -21.1790  -13.2720   22.2780 H   0  0  0  0  0  0  0  0  0  0  0  0
  -25.3870  -15.4000   20.2440 N   0  0  0  0  0  0  0  0  0  0  0  0
  -24.6150  -16.0430   20.3810 H   0  0  0  0  0  0  0  0  0  0  0  0
  -26.2170  -15.8480   19.8780 H   0  0  0  0  0  0  0  0  0  0  0  0
  -28.8940  -26.1690   21.3040 C   0  0  0  0  0  2  0  0  0  0  0  0
  -28.6970  -26.9750   20.1220 O   0  0  0  0  0  0  0  0  0  0  0  0
  -24.6460  -31.9640   23.2400 C   0  0  0  0  0  0  0  0  0  0  0  0
  -27.5460  -27.7310   20.1020 C   0  0  0  0  0  0  0  0  0  0  0  0
  -23.5490  -30.5700   21.5170 C   0  0  0  0  0  3  0  0  0  0  0  0
  -25.1070  -29.1590   20.0670 C   0  0  0  0  0  0  0  0  0  0  0  0
  -26.0630  -31.0360   21.4120 C   0  0  0  0  0  2  0  0  0  0  0  0
  -26.2210  -29.6950   20.7260 C   0  0  0  0  0  0  0  0  0  0  0  0
  -27.4440  -28.9820   20.7550 C   0  0  0  0  0  3  0  0  0  0  0  0
  -26.4310  -27.2300   19.4030 C   0  0  0  0  0  3  0  0  0  0  0  0
  -25.2090  -27.9250   19.3980 C   0  0  0  0  0  3  0  0  0  0  0  0
  -23.8260  -29.9610   20.1160 C   0  0  0  0  0  2  0  0  0  0  0  0
  -24.7670  -31.2100   22.1120 N   0  0  0  0  0  0  0  0  0  0  0  0
  -23.5400  -32.1660   23.7620 O   0  0  0  0  0  0  0  0  0  0  0  0
  -22.9250  -29.4830   22.4220 C   0  0  0  0  0  0  0  0  0  0  0  0
  -21.6060  -29.2700   22.2840 N   0  0  0  0  0  0  0  0  0  0  0  0
  -23.6240  -28.8410   23.2100 O   0  0  0  0  0  0  0  0  0  0  0  0
  -21.1010  -29.8520   21.6300 H   0  0  0  0  0  0  0  0  0  0  0  0
  -18.2510  -28.0150   22.7710 C   0  0  0  0  0  0  0  0  0  0  0  0
  -20.8140  -28.2740   23.0070 C   0  0  0  0  0  3  0  0  0  0  0  0
  -20.9100  -26.8850   22.3340 C   0  0  0  0  0  2  0  0  0  0  0  0
  -19.7890  -26.6240   21.3240 C   0  0  0  0  0  2  0  0  0  0  0  0
  -18.4200  -26.7150   22.0040 C   0  0  0  0  0  2  0  0  0  0  0  0
  -19.3730  -28.7550   23.2290 C   0  0  0  0  0  0  0  0  0  0  0  0
  -19.1560  -29.9750   23.9060 C   0  0  0  0  0  3  0  0  0  0  0  0
  -17.8510  -30.4530   24.1300 C   0  0  0  0  0  3  0  0  0  0  0  0
  -16.7450  -29.7090   23.6840 C   0  0  0  0  0  3  0  0  0  0  0  0
  -16.9450  -28.4920   23.0090 C   0  0  0  0  0  3  0  0  0  0  0  0
  -25.8850  -32.6320   23.9140 C   0  0  0  0  0  3  0  0  0  0  0  0
  -26.3690  -31.8740   25.2130 C   0  0  1  0  0  0  0  0  0  0  0  0
  -25.2420  -31.5950   26.2360 C   0  0  0  0  0  1  0  0  0  0  0  0
  -27.0150  -30.5180   24.8440 C   0  0  0  0  0  1  0  0  0  0  0  0
  -27.4620  -32.7030   25.9230 C   0  0  0  0  0  1  0  0  0  0  0  0
  -25.5250  -34.0220   24.2240 N   0  0  0  0  0  0  0  0  0  0  0  0
  -25.8430  -35.0770   23.4620 C   0  0  0  0  0  0  0  0  0  0  0  0
  -26.5400  -34.9870   22.4490 O   0  0  0  0  0  0  0  0  0  0  0  0
  -24.8990  -34.1600   25.0040 H   0  0  0  0  0  0  0  0  0  0  0  0
  -24.0560  -36.8030   23.0600 C   0  0  0  0  0  1  0  0  0  0  0  0
  -25.2990  -36.4530   23.8930 C   0  0  0  0  0  3  0  0  0  0  0  0
  -27.3890  -37.4280   24.7390 C   0  0  0  0  0  1  0  0  0  0  0  0
  -26.2950  -37.5400   23.7790 N   0  0  0  0  0  0  0  0  0  0  0  0
  -25.8530  -38.4470   23.9010 H   0  0  0  0  0  0  0  0  0  0  0  0
  1  4  2  0
  1  3  1  0
  2  6  1  0
  3  2  2  0
  3 11  1  0
  4  5  1  0
  5  6  2  0
  5  8  1  0
  6  7  1  0
  9  8  1  0
 10  8  1  0
 12 11  1  0
 13 26  1  0
 14 19  1  0
 15 16  1  0
 15 14  1  0
 17 16  1  0
 17 30  1  0
 17 18  1  0
 19 13  1  0
 19 18  1  0
 20 13  2  0
 21 25  1  0
 23 21  1  0
 23 26  1  0
 24 22  1  0
 25 12  1  0
 25 22  1  0
 26 24  1  0
 27 28  2  0
 28 47  1  0
 29 28  1  0
 29 32  1  0
 30 31  1  0
 30 27  1  0
 31 29  2  0
 32 33  1  0
 33 34  2  0
 35 38  1  0
 35 34  1  0
 36 35  2  0
 37 36  1  0
 37 32  2  0
 38 39  1  0
 39 40  1  0
 40 41  2  0
 42 41  1  0
 42 46  1  0
 43 42  2  0
 44 39  2  0
 44 43  1  0
 45 44  1  0
 47 48  1  0
 48 51  1  0
 48 50  1  0
 49 47  2  0
 52 53  1  0
 52 27  1  0
 54 52  1  0
 55  4  1  0
 56 55  1  0
 57 68  2  0
 58 56  1  0
 58 63  1  0
 59 67  1  0
 59 69  1  0
 60 66  1  0
 60 62  1  0
 61 67  1  0
 62 63  2  0
 62 61  1  0
 64 58  2  0
 65 64  1  0
 65 60  2  0
 66 59  1  0
 67 57  1  0
 69 71  2  0
 70 69  1  0
 72 70  1  0
 73 82  2  0
 73 78  1  0
 74 70  1  0
 74 78  1  0
 75 74  1  0
 76 77  1  0
 76 75  1  0
 77 73  1  0
 78 79  2  0
 79 80  1  0
 81 80  2  0
 82 81  1  0
 83 57  1  0
 83 88  1  0
 83 84  1  0
 84 87  1  1
 84 85  1  0
 86 84  1  0
 88 91  1  0
 89 93  1  0
 89 88  1  0
 90 89  2  0
 93 92  1  0
 95 93  1  0
 95 96  1  0
 95 94  1  0
M  ISO  4  13 100  26 100  55 101  56 101
M  END
>  <TORSDO>  (57) 
F 20

>  <SCORE>  (57) 
-14.174

>  <name>  (57) 
56

>  <ligand_id>  (57) 
56

>  <original_smiles>  (57) 
[H]c1c([H])c([H])c2c(c1[H])C([H])([H])C([H])([H])C([H])([H])C2([H])N([H])C(=O)C1([H])N(C(=O)C([H])(N([H])C(=O)C([H])(N([H])C([H])([H])[H])C([H])([H])[H])C(C([H])([H])[H])(C([H])([H])[H])C([H])([H])[H])C([H])([H])c2c([H])c(OC([H])([H])c3c([H])c(C([H])([H])C([H])([H])C4([H])C([H])([H])C([H])([H])N(C(=O)N5C([H])([H])C([H])([H])C([H])([H])C([H])(n6nc(-c7c([H])c([H])c(Oc8c([H])c([H])c(F)c([H])c8F)c([H])c7[H])c(C(=O)N([H])[H])c6N([H])[H])C5([H])[H])C([H])([H])C4([H])[H])c([H])c(F)c3N([H])[H])c([H])c([H])c2C1([H])[H]

>  <smiles>  (57) 
[H]c1c([H])c([H])c2c(c1[H])C([H])([H])C([H])([H])C([H])([H])C2([H])N([H])C(=O)C1([H])N(C(=O)C([H])(N([H])C(=O)C([H])(N([H])C([H])([H])[H])C([H])([H])[H])C(C([H])([H])[H])(C([H])([H])[H])C([H])([H])[H])C([H])([H])c2c([H])c(OC([H])([H])c3c([H])c(C([H])([H])C([H])([H])C4([H])C([H])([H])C([H])([H])N(C(=O)N5C([H])([H])C([H])([H])C([H])([H])C([H])(n6nc(-c7c([H])c([H])c(Oc8c([H])c([H])c(F)c([H])c8F)c([H])c7[H])c(C(=O)N([H])[H])c6N([H])[H])C5([H])[H])C([H])([H])C4([H])[H])c([H])c(F)c3N([H])[H])c([H])c([H])c2C1([H])[H]

$$$$
57:0:0
     RDKit          3D

 89 97  0  0  1  0  0  0  0  0999 V2000
  -27.7220  -22.9080   22.1320 C   0  0  0  0  0  3  0  0  0  0  0  0
  -28.2500  -21.7600   21.4990 C   0  0  0  0  0  3  0  0  0  0  0  0
  -27.7130  -24.2230   21.5860 C   0  0  0  0  0  0  0  0  0  0  0  0
  -28.8320  -21.7980   20.2220 C   0  0  0  0  0  0  0  0  0  0  0  0
  -28.2520  -24.5360   20.3050 C   0  0  0  0  0  0  0  0  0  0  0  0
  -28.8260  -23.2400   19.6610 C   0  0  0  0  0  0  0  0  0  0  0  0
  -27.1250  -25.3120   22.4680 C   0  0  0  0  0  1  0  0  0  0  0  0
  -30.2790  -24.4140   18.1930 C   0  0  0  0  0  1  0  0  0  0  0  0
  -29.4180  -23.3070   18.4220 O   0  0  0  0  0  0  0  0  0  0  0  0
  -28.2760  -26.0300   19.9220 O   0  0  0  0  0  0  0  0  0  0  0  0
  -24.6730  -31.9170   23.0980 C   0  0  0  0  0  0  0  0  0  0  0  0
  -27.2350  -27.1020   19.9850 C   0  0  0  0  0  0  0  0  0  0  0  0
  -23.4670  -30.5230   21.4660 C   0  0  0  0  0  3  0  0  0  0  0  0
  -24.9110  -28.9480   20.0080 C   0  0  0  0  0  0  0  0  0  0  0  0
  -26.0300  -30.7650   21.2760 C   0  0  0  0  0  2  0  0  0  0  0  0
  -26.1040  -29.3610   20.6140 C   0  0  0  0  0  0  0  0  0  0  0  0
  -27.2610  -28.4570   20.5830 C   0  0  0  0  0  3  0  0  0  0  0  0
  -26.0120  -26.8420   19.3310 C   0  0  0  0  0  3  0  0  0  0  0  0
  -24.8850  -27.7080   19.3520 C   0  0  0  0  0  3  0  0  0  0  0  0
  -23.6840  -29.8580   20.0790 C   0  0  0  0  0  2  0  0  0  0  0  0
  -24.7470  -31.0980   21.9990 N   0  0  0  0  0  0  0  0  0  0  0  0
  -23.5890  -32.1860   23.6400 O   0  0  0  0  0  0  0  0  0  0  0  0
  -22.8000  -29.5090   22.4320 C   0  0  0  0  0  0  0  0  0  0  0  0
  -21.4700  -29.3300   22.3320 N   0  0  0  0  0  0  0  0  0  0  0  0
  -23.4860  -28.8850   23.2450 O   0  0  0  0  0  0  0  0  0  0  0  0
  -20.9690  -29.8850   21.6530 H   0  0  0  0  0  0  0  0  0  0  0  0
  -18.1070  -28.0750   22.8780 C   0  0  0  0  0  0  0  0  0  0  0  0
  -20.6680  -28.3740   23.1060 C   0  0  0  0  0  3  0  0  0  0  0  0
  -20.7780  -26.9460   22.5180 C   0  0  0  0  0  2  0  0  0  0  0  0
  -19.6640  -26.6170   21.5190 C   0  0  0  0  0  2  0  0  0  0  0  0
  -18.2910  -26.7360   22.1840 C   0  0  0  0  0  2  0  0  0  0  0  0
  -19.2210  -28.8520   23.2970 C   0  0  0  0  0  0  0  0  0  0  0  0
  -18.9890  -30.1010   23.9090 C   0  0  0  0  0  3  0  0  0  0  0  0
  -17.6780  -30.5780   24.1040 C   0  0  0  0  0  3  0  0  0  0  0  0
  -16.5810  -29.7970   23.7010 C   0  0  0  0  0  3  0  0  0  0  0  0
  -16.7950  -28.5470   23.0950 C   0  0  0  0  0  3  0  0  0  0  0  0
  -25.9450  -32.5690   23.7190 C   0  0  0  0  0  3  0  0  0  0  0  0
  -26.4740  -31.8010   24.9930 C   0  0  1  0  0  0  0  0  0  0  0  0
  -25.3900  -31.5570   26.0710 C   0  0  0  0  0  1  0  0  0  0  0  0
  -27.0590  -30.4270   24.6020 C   0  0  0  0  0  1  0  0  0  0  0  0
  -27.6320  -32.5960   25.6390 C   0  0  0  0  0  1  0  0  0  0  0  0
  -25.6200  -33.9640   24.0720 N   0  0  0  0  0  0  0  0  0  0  0  0
  -25.9430  -35.0380   23.3370 C   0  0  0  0  0  0  0  0  0  0  0  0
  -26.6090  -34.9570   22.3030 O   0  0  0  0  0  0  0  0  0  0  0  0
  -25.0290  -34.1000   24.8800 H   0  0  0  0  0  0  0  0  0  0  0  0
  -24.2180  -36.8430   23.0150 C   0  0  0  0  0  1  0  0  0  0  0  0
  -25.4510  -36.4160   23.8270 C   0  0  0  0  0  3  0  0  0  0  0  0
  -27.5740  -37.2870   24.7020 C   0  0  0  0  0  1  0  0  0  0  0  0
  -26.4840  -37.4730   23.7490 N   0  0  0  0  0  0  0  0  0  0  0  0
  -26.0750  -38.3900   23.9100 H   0  0  0  0  0  0  0  0  0  0  0  0
  -29.2580  -20.2340   19.5820 C   0  0  0  0  0  2  0  0  0  0  0  0
  -29.9110  -18.7040   20.2740 C   0  0  0  0  0  2  0  0  0  0  0  0
  -29.6480  -16.9560   19.9220 C   0  0  0  0  0  2  0  0  0  0  0  0
  -30.5630  -15.4550   19.9820 C   0  0  0  0  0  0  0  0  0  0  0  0
  -30.5770  -12.9910   19.1800 C   0  0  0  0  0  2  0  0  0  0  0  0
  -29.6140  -12.7910   17.9810 C   0  0  0  0  0  2  0  0  0  0  0  0
  -28.1780  -12.5160   18.4620 C   0  0  0  0  0  2  0  0  0  0  0  0
  -27.7580  -13.4760   19.6010 C   0  0  0  0  0  3  0  0  0  0  0  0
  -28.8440  -13.6250   20.6870 C   0  0  0  0  0  2  0  0  0  0  0  0
  -30.0590  -14.1230   20.0250 N   0  0  0  0  0  0  0  0  0  0  0  0
  -31.7780  -15.4860   19.7360 O   0  0  0  0  0  0  0  0  0  0  0  0
  -25.4170  -14.0230   20.4580 C   0  0  0  0  0  0  0  0  0  0  0  0
  -24.3730  -13.2430   20.8650 C   0  0  0  0  0  0  0  0  0  0  0  0
  -24.8390  -11.8910   20.7960 C   0  0  0  0  0  0  0  0  0  0  0  0
  -26.4500  -13.1520   20.1590 N   0  0  0  0  0  0  0  0  0  0  0  0
  -26.1160  -11.8630   20.4310 N   0  0  0  0  0  0  0  0  0  0  0  0
  -24.1200  -10.6270   20.9970 C   0  0  0  0  0  0  0  0  0  0  0  0
  -24.5500   -9.6750   21.9470 C   0  0  0  0  0  3  0  0  0  0  0  0
  -23.8270   -8.4760   22.1390 C   0  0  0  0  0  3  0  0  0  0  0  0
  -22.6600   -8.2210   21.3800 C   0  0  0  0  0  0  0  0  0  0  0  0
  -22.2510   -9.1610   20.4180 C   0  0  0  0  0  3  0  0  0  0  0  0
  -22.9740  -10.3510   20.2250 C   0  0  0  0  0  3  0  0  0  0  0  0
  -21.9110   -7.0750   21.4790 O   0  0  0  0  0  0  0  0  0  0  0  0
  -21.8100   -6.3780   22.6570 C   0  0  0  0  0  0  0  0  0  0  0  0
  -21.2730   -6.9620   23.8250 C   0  0  0  0  0  3  0  0  0  0  0  0
  -21.1240   -6.1890   24.9940 C   0  0  0  0  0  3  0  0  0  0  0  0
  -21.5050   -4.8350   24.9980 C   0  0  0  0  0  0  0  0  0  0  0  0
  -22.0370   -4.2500   23.8350 C   0  0  0  0  0  3  0  0  0  0  0  0
  -22.1880   -5.0190   22.6680 C   0  0  0  0  0  0  0  0  0  0  0  0
  -22.6790   -4.4450   21.5440 F   0  0  0  0  0  0  0  0  0  0  0  0
  -21.3580   -4.0910   26.1200 F   0  0  0  0  0  0  0  0  0  0  0  0
  -22.9880  -13.7150   21.1980 C   0  0  0  0  0  0  0  0  0  0  0  0
  -22.2950  -13.0100   22.0860 N   0  0  0  0  0  0  0  0  0  0  0  0
  -22.5300  -14.7430   20.7020 O   0  0  0  0  0  0  0  0  0  0  0  0
  -22.6770  -12.1750   22.5070 H   0  0  0  0  0  0  0  0  0  0  0  0
  -21.3660  -13.3070   22.3490 H   0  0  0  0  0  0  0  0  0  0  0  0
  -25.5760  -15.3960   20.2890 N   0  0  0  0  0  0  0  0  0  0  0  0
  -24.8240  -16.0610   20.4400 H   0  0  0  0  0  0  0  0  0  0  0  0
  -26.4180  -15.8280   19.9330 H   0  0  0  0  0  0  0  0  0  0  0  0
  2  1  2  0
  3  1  1  0
  3  7  1  0
  4  2  1  0
  5  3  2  0
  6  4  2  0
  6  5  1  0
  8  9  1  0
  9  6  1  0
 10 12  1  0
 10  5  1  0
 11 22  2  0
 12 17  1  0
 13 21  1  0
 13 23  1  0
 14 20  1  0
 14 16  1  0
 15 21  1  0
 16 15  1  0
 17 16  2  0
 18 19  1  0
 18 12  2  0
 19 14  2  0
 20 13  1  0
 21 11  1  0
 23 25  2  0
 24 23  1  0
 26 24  1  0
 27 36  2  0
 27 32  1  0
 28 24  1  0
 28 32  1  0
 29 28  1  0
 30 31  1  0
 30 29  1  0
 31 27  1  0
 32 33  2  0
 33 34  1  0
 35 34  2  0
 36 35  1  0
 37 11  1  0
 37 42  1  0
 37 38  1  0
 38 41  1  1
 38 39  1  0
 40 38  1  0
 42 45  1  0
 43 47  1  0
 43 42  1  0
 44 43  2  0
 47 46  1  0
 49 47  1  0
 49 50  1  0
 49 48  1  0
 51  4  1  0
 51 52  1  0
 53 54  1  0
 53 52  1  0
 54 60  1  0
 55 60  1  0
 56 57  1  0
 56 55  1  0
 58 57  1  0
 58 65  1  0
 58 59  1  0
 60 59  1  0
 61 54  2  0
 62 63  2  0
 63 82  1  0
 64 63  1  0
 64 67  1  0
 65 66  1  0
 65 62  1  0
 66 64  2  0
 67 68  1  0
 68 69  2  0
 70 73  1  0
 70 69  1  0
 71 70  2  0
 72 71  1  0
 72 67  2  0
 73 74  1  0
 74 79  2  0
 74 75  1  0
 75 76  2  0
 76 77  1  0
 77 81  1  0
 78 77  2  0
 79 78  1  0
 80 79  1  0
 82 83  1  0
 83 86  1  0
 83 85  1  0
 84 82  2  0
 87 88  1  0
 87 62  1  0
 89 87  1  0
M  ISO  4   5 101  10 101  53 100  54 100
M  END
>  <TORSDO>  (58) 
F 20

>  <SCORE>  (58) 
-15.022

>  <name>  (58) 
57

>  <ligand_id>  (58) 
57

>  <original_smiles>  (58) 
[H]c1c([H])c([H])c2c(c1[H])C([H])([H])C([H])([H])C([H])([H])C2([H])N([H])C(=O)C1([H])N(C(=O)C([H])(N([H])C(=O)C([H])(N([H])C([H])([H])[H])C([H])([H])[H])C(C([H])([H])[H])(C([H])([H])[H])C([H])([H])[H])C([H])([H])c2c([H])c(Oc3c(OC([H])([H])[H])c(C([H])([H])C([H])([H])C([H])([H])C(=O)N4C([H])([H])C([H])([H])C([H])([H])C([H])(n5nc(-c6c([H])c([H])c(Oc7c([H])c([H])c(F)c([H])c7F)c([H])c6[H])c(C(=O)N([H])[H])c5N([H])[H])C4([H])[H])c([H])c([H])c3C([H])([H])[H])c([H])c([H])c2C1([H])[H]

>  <smiles>  (58) 
[H]c1c([H])c([H])c2c(c1[H])C([H])([H])C([H])([H])C([H])([H])C2([H])N([H])C(=O)C1([H])N(C(=O)C([H])(N([H])C(=O)C([H])(N([H])C([H])([H])[H])C([H])([H])[H])C(C([H])([H])[H])(C([H])([H])[H])C([H])([H])[H])C([H])([H])c2c([H])c(Oc3c(OC([H])([H])[H])c(C([H])([H])C([H])([H])C([H])([H])C(=O)N4C([H])([H])C([H])([H])C([H])([H])C([H])(n5nc(-c6c([H])c([H])c(Oc7c([H])c([H])c(F)c([H])c7F)c([H])c6[H])c(C(=O)N([H])[H])c5N([H])[H])C4([H])[H])c([H])c([H])c3C([H])([H])[H])c([H])c([H])c2C1([H])[H]

$$$$
58:0:0
     RDKit          3D

 99108  0  0  1  0  0  0  0  0999 V2000
  -30.5530  -20.8330   21.2550 C   0  0  0  0  0  3  0  0  0  0  0  0
  -31.1300  -19.6420   21.7090 C   0  0  0  0  0  3  0  0  0  0  0  0
  -30.9550  -21.4060   20.0360 C   0  0  0  0  0  0  0  0  0  0  0  0
  -32.1070  -18.9840   20.9420 C   0  0  0  0  0  0  0  0  0  0  0  0
  -31.9470  -20.7580   19.2470 C   0  0  0  0  0  0  0  0  0  0  0  0
  -32.5080  -19.5270   19.6910 C   0  0  0  0  0  0  0  0  0  0  0  0
  -32.4490  -21.4080   17.9580 C   0  0  0  0  0  1  0  0  0  0  0  0
  -33.5480  -18.8180   18.8230 C   0  0  0  0  0  1  0  0  0  0  0  0
  -29.9510  -23.0940   18.4510 C   0  0  0  0  0  3  0  0  0  0  0  0
  -30.2990  -22.6730   19.6840 C   0  0  0  0  0  3  0  0  0  0  0  0
  -28.9090  -26.1820   16.5100 C   0  0  0  0  0  3  0  0  0  0  0  0
  -29.3870  -24.8890   16.8110 C   0  0  0  0  0  3  0  0  0  0  0  0
  -28.4140  -27.0110   17.5360 C   0  0  0  0  0  3  0  0  0  0  0  0
  -28.8440  -25.2400   19.1510 C   0  0  0  0  0  3  0  0  0  0  0  0
  -29.3630  -24.4070   18.1380 C   0  0  0  0  0  0  0  0  0  0  0  0
  -28.3880  -26.5340   18.8620 C   0  0  0  0  0  0  0  0  0  0  0  0
  -28.0560  -27.3180   19.9330 O   0  0  0  0  0  0  0  0  0  0  0  0
  -24.5550  -32.3190   23.4630 C   0  0  0  0  0  0  0  0  0  0  0  0
  -26.8670  -27.9920   20.0120 C   0  0  0  0  0  0  0  0  0  0  0  0
  -23.1860  -30.9800   21.8930 C   0  0  0  0  0  3  0  0  0  0  0  0
  -24.4860  -29.4690   20.3000 C   0  0  0  0  0  0  0  0  0  0  0  0
  -25.6810  -31.3290   21.4780 C   0  0  0  0  0  2  0  0  0  0  0  0
  -25.6900  -29.9800   20.7960 C   0  0  0  0  0  0  0  0  0  0  0  0
  -26.8810  -29.2430   20.6570 C   0  0  0  0  0  3  0  0  0  0  0  0
  -25.6480  -27.4710   19.5270 C   0  0  0  0  0  3  0  0  0  0  0  0
  -24.4560  -28.2100   19.6680 C   0  0  0  0  0  3  0  0  0  0  0  0
  -23.2590  -30.3330   20.4810 C   0  0  0  0  0  2  0  0  0  0  0  0
  -24.4970  -31.5540   22.3360 N   0  0  0  0  0  0  0  0  0  0  0  0
  -23.5310  -32.5880   24.1060 O   0  0  0  0  0  0  0  0  0  0  0  0
  -22.6100  -29.9400   22.8780 C   0  0  0  0  0  0  0  0  0  0  0  0
  -21.3340  -29.5750   22.6800 N   0  0  0  0  0  0  0  0  0  0  0  0
  -23.3110  -29.4610   23.7740 O   0  0  0  0  0  0  0  0  0  0  0  0
  -20.8260  -30.0190   21.9290 H   0  0  0  0  0  0  0  0  0  0  0  0
  -18.1900  -27.8160   22.9040 C   0  0  0  0  0  0  0  0  0  0  0  0
  -20.5940  -28.5840   23.4580 C   0  0  0  0  0  3  0  0  0  0  0  0
  -21.0290  -27.1470   23.0870 C   0  0  0  0  0  2  0  0  0  0  0  0
  -20.1620  -26.5160   21.9920 C   0  0  0  0  0  2  0  0  0  0  0  0
  -18.6960  -26.4620   22.4350 C   0  0  0  0  0  2  0  0  0  0  0  0
  -19.0830  -28.8170   23.3690 C   0  0  0  0  0  0  0  0  0  0  0  0
  -18.5630  -30.0710   23.7590 C   0  0  0  0  0  3  0  0  0  0  0  0
  -17.1810  -30.3290   23.6940 C   0  0  0  0  0  3  0  0  0  0  0  0
  -16.3000  -29.3290   23.2480 C   0  0  0  0  0  3  0  0  0  0  0  0
  -16.8040  -28.0740   22.8600 C   0  0  0  0  0  3  0  0  0  0  0  0
  -25.9040  -32.9120   23.9830 C   0  0  0  0  0  3  0  0  0  0  0  0
  -26.4890  -32.1340   25.2250 C   0  0  1  0  0  0  0  0  0  0  0  0
  -25.4490  -31.8640   26.3360 C   0  0  0  0  0  1  0  0  0  0  0  0
  -27.0770  -30.7740   24.7840 C   0  0  0  0  0  1  0  0  0  0  0  0
  -27.6550  -32.9390   25.8460 C   0  0  0  0  0  1  0  0  0  0  0  0
  -25.6670  -34.3220   24.3180 N   0  0  0  0  0  0  0  0  0  0  0  0
  -25.9630  -35.3520   23.5150 C   0  0  0  0  0  0  0  0  0  0  0  0
  -26.5400  -35.2160   22.4330 O   0  0  0  0  0  0  0  0  0  0  0  0
  -25.1550  -34.5050   25.1670 H   0  0  0  0  0  0  0  0  0  0  0  0
  -24.2670  -37.1900   23.2680 C   0  0  0  0  0  1  0  0  0  0  0  0
  -25.5530  -36.7600   23.9890 C   0  0  0  0  0  3  0  0  0  0  0  0
  -27.7660  -37.5920   24.6500 C   0  0  0  0  0  1  0  0  0  0  0  0
  -26.6040  -37.7800   23.7840 N   0  0  0  0  0  0  0  0  0  0  0  0
  -26.2370  -38.7140   23.9470 H   0  0  0  0  0  0  0  0  0  0  0  0
  -32.6930  -17.6950   21.5060 C   0  0  0  0  0  2  0  0  0  0  0  0
  -32.1320  -16.4400   20.8100 C   0  0  0  0  0  2  0  0  0  0  0  0
  -30.3370  -14.2130   19.6800 C   0  0  0  0  0  0  0  0  0  0  0  0
  -29.9570  -11.9980   18.6640 C   0  0  0  0  0  2  0  0  0  0  0  0
  -28.8680  -12.0040   17.5810 C   0  0  0  0  0  2  0  0  0  0  0  0
  -27.4740  -11.8160   18.2090 C   0  0  0  0  0  2  0  0  0  0  0  0
  -27.2220  -12.7810   19.3980 C   0  0  0  0  0  3  0  0  0  0  0  0
  -28.4060  -12.7450   20.3860 C   0  0  0  0  0  2  0  0  0  0  0  0
  -29.6450  -13.0470   19.6430 N   0  0  0  0  0  0  0  0  0  0  0  0
  -31.1710  -14.5040   18.8180 O   0  0  0  0  0  0  0  0  0  0  0  0
  -30.7550  -15.9720   21.3260 C   0  0  0  0  0  0  0  0  0  0  0  0
  -30.0910  -14.9400   20.7810 N   0  0  0  0  0  0  0  0  0  0  0  0
  -30.2750  -16.5130   22.3250 O   0  0  0  0  0  0  0  0  0  0  0  0
  -29.2990  -14.6260   21.3160 H   0  0  0  0  0  0  0  0  0  0  0  0
  -24.9690  -13.3510   20.5100 C   0  0  0  0  0  0  0  0  0  0  0  0
  -23.9670  -12.5580   21.0030 C   0  0  0  0  0  0  0  0  0  0  0  0
  -24.4050  -11.2100   20.8240 C   0  0  0  0  0  0  0  0  0  0  0  0
  -25.9570  -12.4840   20.0690 N   0  0  0  0  0  0  0  0  0  0  0  0
  -25.6300  -11.1900   20.3120 N   0  0  0  0  0  0  0  0  0  0  0  0
  -23.7110   -9.9370   21.0590 C   0  0  0  0  0  0  0  0  0  0  0  0
  -24.2170   -8.9760   21.9590 C   0  0  0  0  0  3  0  0  0  0  0  0
  -23.5220   -7.7690   22.1830 C   0  0  0  0  0  3  0  0  0  0  0  0
  -22.3050   -7.5140   21.5060 C   0  0  0  0  0  0  0  0  0  0  0  0
  -21.8180   -8.4660   20.5920 C   0  0  0  0  0  3  0  0  0  0  0  0
  -22.5150   -9.6640   20.3670 C   0  0  0  0  0  3  0  0  0  0  0  0
  -21.5740   -6.3590   21.6400 O   0  0  0  0  0  0  0  0  0  0  0  0
  -21.5570   -5.6500   22.8140 C   0  0  0  0  0  0  0  0  0  0  0  0
  -21.0920   -6.2170   24.0220 C   0  0  0  0  0  3  0  0  0  0  0  0
  -21.0250   -5.4310   25.1880 C   0  0  0  0  0  3  0  0  0  0  0  0
  -21.4140   -4.0790   25.1510 C   0  0  0  0  0  0  0  0  0  0  0  0
  -21.8720   -3.5110   23.9490 C   0  0  0  0  0  3  0  0  0  0  0  0
  -21.9410   -4.2940   22.7840 C   0  0  0  0  0  0  0  0  0  0  0  0
  -22.3620   -3.7350   21.6230 F   0  0  0  0  0  0  0  0  0  0  0  0
  -21.3440   -3.3200   26.2700 F   0  0  0  0  0  0  0  0  0  0  0  0
  -22.6340  -13.0160   21.5200 C   0  0  0  0  0  0  0  0  0  0  0  0
  -22.0610  -12.2860   22.4700 N   0  0  0  0  0  0  0  0  0  0  0  0
  -22.1150  -14.0560   21.1160 O   0  0  0  0  0  0  0  0  0  0  0  0
  -22.4970  -11.4450   22.8210 H   0  0  0  0  0  0  0  0  0  0  0  0
  -21.1700  -12.5730   22.8510 H   0  0  0  0  0  0  0  0  0  0  0  0
  -25.1150  -14.7300   20.3830 N   0  0  0  0  0  0  0  0  0  0  0  0
  -24.3920  -15.3840   20.6600 H   0  0  0  0  0  0  0  0  0  0  0  0
  -25.9120  -15.1820   19.9490 H   0  0  0  0  0  0  0  0  0  0  0  0
  1  2  1  0
  3  1  2  0
  4 58  1  0
  4  2  2  0
  5  6  2  0
  5  3  1  0
  6  4  1  0
  7  5  1  0
  8  6  1  0
  9 10  2  0
 10  3  1  0
 11 12  2  0
 11 13  1  0
 12 15  1  0
 13 16  2  0
 15  9  1  0
 15 14  2  0
 16 14  1  0
 16 17  1  0
 17 19  1  0
 18 29  2  0
 19 24  1  0
 20 28  1  0
 20 30  1  0
 21 27  1  0
 21 23  1  0
 22 28  1  0
 23 22  1  0
 24 23  2  0
 25 26  1  0
 25 19  2  0
 26 21  2  0
 27 20  1  0
 28 18  1  0
 30 32  2  0
 31 30  1  0
 33 31  1  0
 34 39  1  0
 35 31  1  0
 36 35  1  0
 37 38  1  0
 37 36  1  0
 38 34  1  0
 39 35  1  0
 39 40  2  0
 41 40  1  0
 42 41  2  0
 43 34  2  0
 43 42  1  0
 44 18  1  0
 44 49  1  0
 44 45  1  0
 45 48  1  1
 45 46  1  0
 47 45  1  0
 49 52  1  0
 50 54  1  0
 50 49  1  0
 51 50  2  0
 54 53  1  0
 56 57  1  0
 56 54  1  0
 56 55  1  0
 59 68  1  0
 59 58  1  0
 60 69  1  0
 61 66  1  0
 62 63  1  0
 62 61  1  0
 64 63  1  0
 64 75  1  0
 64 65  1  0
 66 60  1  0
 66 65  1  0
 67 60  2  0
 68 70  2  0
 69 71  1  0
 69 68  1  0
 72 73  2  0
 73 92  1  0
 74 73  1  0
 74 77  1  0
 75 76  1  0
 75 72  1  0
 76 74  2  0
 77 78  1  0
 78 79  2  0
 80 83  1  0
 80 79  1  0
 81 80  2  0
 82 81  1  0
 82 77  2  0
 83 84  1  0
 84 85  1  0
 85 86  2  0
 87 86  1  0
 87 91  1  0
 88 87  2  0
 89 84  2  0
 89 88  1  0
 90 89  1  0
 92 93  1  0
 93 95  1  0
 93 96  1  0
 94 92  2  0
 97 72  1  0
 97 98  1  0
 99 97  1  0
M  ISO  4  16 101  17 101  60 100  69 100
M  END
>  <TORSDO>  (59) 
F 20

>  <SCORE>  (59) 
-11.024

>  <name>  (59) 
58

>  <ligand_id>  (59) 
58

>  <original_smiles>  (59) 
[H]C(=C([H])c1c([H])c([H])c(C([H])([H])C([H])([H])C(=O)N([H])C(=O)N2C([H])([H])C([H])([H])C([H])([H])C([H])(n3nc(-c4c([H])c([H])c(Oc5c([H])c([H])c(F)c([H])c5F)c([H])c4[H])c(C(=O)N([H])[H])c3N([H])[H])C2([H])[H])c(C([H])([H])[H])c1C([H])([H])[H])c1c([H])c([H])c([H])c(Oc2c([H])c([H])c3c(c2[H])C([H])([H])N(C(=O)C([H])(N([H])C(=O)C([H])(N([H])C([H])([H])[H])C([H])([H])[H])C(C([H])([H])[H])(C([H])([H])[H])C([H])([H])[H])C([H])(C(=O)N([H])C2([H])c4c([H])c([H])c([H])c([H])c4C([H])([H])C([H])([H])C2([H])[H])C3([H])[H])c1[H]

>  <smiles>  (59) 
[H]C(=C([H])c1c([H])c([H])c(C([H])([H])C([H])([H])C(=O)N([H])C(=O)N2C([H])([H])C([H])([H])C([H])([H])C([H])(n3nc(-c4c([H])c([H])c(Oc5c([H])c([H])c(F)c([H])c5F)c([H])c4[H])c(C(=O)N([H])[H])c3N([H])[H])C2([H])[H])c(C([H])([H])[H])c1C([H])([H])[H])c1c([H])c([H])c([H])c(Oc2c([H])c([H])c3c(c2[H])C([H])([H])N(C(=O)C([H])(N([H])C(=O)C([H])(N([H])C([H])([H])[H])C([H])([H])[H])C(C([H])([H])[H])(C([H])([H])[H])C([H])([H])[H])C([H])(C(=O)N([H])C2([H])c4c([H])c([H])c([H])c([H])c4C([H])([H])C([H])([H])C2([H])[H])C3([H])[H])c1[H]

$$$$
59:0:0
     RDKit          3D

 93102  0  0  1  0  0  0  0  0999 V2000
  -27.9120  -18.1310   19.3200 C   0  0  0  0  0  3  0  0  0  0  0  0
  -28.5930  -16.8920   19.4870 C   0  0  0  0  0  3  0  0  0  0  0  0
  -28.4220  -19.3970   19.7130 C   0  0  0  0  0  0  0  0  0  0  0  0
  -29.8290  -16.7090   20.1590 C   0  0  0  0  0  0  0  0  0  0  0  0
  -29.6890  -19.3920   20.3480 C   0  0  0  0  0  0  0  0  0  0  0  0
  -30.3610  -18.0540   20.5760 C   0  0  0  0  0  0  0  0  0  0  0  0
  -27.5500  -20.6470   19.4780 C   0  0  0  0  0  0  0  0  0  0  0  0
  -30.3160  -20.8660   20.6000 C   0  0  0  0  0  2  0  0  0  0  0  0
  -28.1020  -22.0860   19.1210 C   0  0  0  0  0  2  0  0  0  0  0  0
  -29.5680  -22.2940   21.0510 C   0  0  0  0  0  2  0  0  0  0  0  0
  -28.3830  -23.1380   20.2770 C   0  0  2  0  0  0  0  0  0  0  0  0
  -27.1600  -23.2180   21.2150 C   0  0  0  0  0  1  0  0  0  0  0  0
  -26.3210  -20.5360   19.4920 O   0  0  0  0  0  0  0  0  0  0  0  0
  -30.5450  -15.2170   20.1710 C   0  0  0  0  0  0  0  0  0  0  0  0
  -30.4210  -12.8000   19.3400 C   0  0  0  0  0  2  0  0  0  0  0  0
  -29.4950  -12.6450   18.1100 C   0  0  0  0  0  2  0  0  0  0  0  0
  -28.0500  -12.3650   18.5610 C   0  0  0  0  0  2  0  0  0  0  0  0
  -27.6020  -13.3400   19.6720 C   0  0  0  0  0  3  0  0  0  0  0  0
  -28.6560  -13.5360   20.7860 C   0  0  0  0  0  2  0  0  0  0  0  0
  -29.9220  -13.9510   20.1640 N   0  0  0  0  0  0  0  0  0  0  0  0
  -31.7650  -15.1730   19.9760 O   0  0  0  0  0  0  0  0  0  0  0  0
  -25.2480  -13.9530   20.4480 C   0  0  0  0  0  0  0  0  0  0  0  0
  -24.1800  -13.1870   20.8160 C   0  0  0  0  0  0  0  0  0  0  0  0
  -24.6360  -11.8320   20.7820 C   0  0  0  0  0  0  0  0  0  0  0  0
  -26.2790  -13.0610   20.1970 N   0  0  0  0  0  0  0  0  0  0  0  0
  -25.9230  -11.7830   20.4690 N   0  0  0  0  0  0  0  0  0  0  0  0
  -23.9060  -10.5760   20.9680 C   0  0  0  0  0  0  0  0  0  0  0  0
  -24.3260   -9.6160   21.9140 C   0  0  0  0  0  3  0  0  0  0  0  0
  -23.5960   -8.4200   22.0890 C   0  0  0  0  0  3  0  0  0  0  0  0
  -22.4360   -8.1790   21.3150 C   0  0  0  0  0  0  0  0  0  0  0  0
  -22.0370   -9.1290   20.3590 C   0  0  0  0  0  3  0  0  0  0  0  0
  -22.7660  -10.3170   20.1830 C   0  0  0  0  0  3  0  0  0  0  0  0
  -21.6790   -7.0360   21.3980 O   0  0  0  0  0  0  0  0  0  0  0  0
  -21.5930   -6.3150   22.5620 C   0  0  0  0  0  0  0  0  0  0  0  0
  -21.0880   -6.8800   23.7530 C   0  0  0  0  0  3  0  0  0  0  0  0
  -20.9520   -6.0830   24.9070 C   0  0  0  0  0  3  0  0  0  0  0  0
  -21.3110   -4.7220   24.8690 C   0  0  0  0  0  0  0  0  0  0  0  0
  -21.8090   -4.1570   23.6820 C   0  0  0  0  0  3  0  0  0  0  0  0
  -21.9460   -4.9510   22.5310 C   0  0  0  0  0  0  0  0  0  0  0  0
  -22.4080   -4.3980   21.3830 F   0  0  0  0  0  0  0  0  0  0  0  0
  -21.1720   -3.9540   25.9750 F   0  0  0  0  0  0  0  0  0  0  0  0
  -22.7860  -13.6730   21.0880 C   0  0  0  0  0  0  0  0  0  0  0  0
  -22.0510  -12.9760   21.9450 N   0  0  0  0  0  0  0  0  0  0  0  0
  -22.3590  -14.7070   20.5760 O   0  0  0  0  0  0  0  0  0  0  0  0
  -22.4070  -12.1380   22.3810 H   0  0  0  0  0  0  0  0  0  0  0  0
  -21.1160  -13.2860   22.1700 H   0  0  0  0  0  0  0  0  0  0  0  0
  -25.4210  -15.3240   20.2810 N   0  0  0  0  0  0  0  0  0  0  0  0
  -24.6610  -15.9790   20.4300 H   0  0  0  0  0  0  0  0  0  0  0  0
  -26.2910  -15.7760   20.0370 H   0  0  0  0  0  0  0  0  0  0  0  0
  -32.8700  -18.4840   20.3720 C   0  0  0  0  0  1  0  0  0  0  0  0
  -31.7100  -18.0730   21.2880 C   0  0  0  0  0  2  0  0  0  0  0  0
  -28.4980  -24.7620   19.6840 C   0  0  0  0  0  2  0  0  0  0  0  0
  -28.3590  -26.2200   20.2830 O   0  0  0  0  0  0  0  0  0  0  0  0
  -24.6040  -31.8380   23.2670 C   0  0  0  0  0  0  0  0  0  0  0  0
  -27.2870  -27.1980   20.1510 C   0  0  0  0  0  0  0  0  0  0  0  0
  -23.4500  -30.4860   21.5570 C   0  0  0  0  0  3  0  0  0  0  0  0
  -24.9410  -28.9550   20.1130 C   0  0  0  0  0  0  0  0  0  0  0  0
  -26.0060  -30.7610   21.4610 C   0  0  0  0  0  2  0  0  0  0  0  0
  -26.1030  -29.3850   20.7650 C   0  0  0  0  0  0  0  0  0  0  0  0
  -27.2670  -28.5230   20.7670 C   0  0  0  0  0  3  0  0  0  0  0  0
  -26.0990  -26.8790   19.4560 C   0  0  0  0  0  3  0  0  0  0  0  0
  -24.9560  -27.7190   19.4430 C   0  0  0  0  0  3  0  0  0  0  0  0
  -23.7060  -29.8460   20.1650 C   0  0  0  0  0  2  0  0  0  0  0  0
  -24.7060  -31.0520   22.1510 N   0  0  0  0  0  0  0  0  0  0  0  0
  -23.5040  -32.1010   23.7790 O   0  0  0  0  0  0  0  0  0  0  0  0
  -22.7530  -29.4520   22.4760 C   0  0  0  0  0  0  0  0  0  0  0  0
  -21.4220  -29.3000   22.3370 N   0  0  0  0  0  0  0  0  0  0  0  0
  -23.4130  -28.7860   23.2780 O   0  0  0  0  0  0  0  0  0  0  0  0
  -20.9450  -29.8940   21.6710 H   0  0  0  0  0  0  0  0  0  0  0  0
  -18.0220  -28.1370   22.8040 C   0  0  0  0  0  0  0  0  0  0  0  0
  -20.5870  -28.3400   23.0650 C   0  0  0  0  0  3  0  0  0  0  0  0
  -20.6600  -26.9390   22.4150 C   0  0  0  0  0  2  0  0  0  0  0  0
  -19.5460  -26.6900   21.3920 C   0  0  0  0  0  2  0  0  0  0  0  0
  -18.1710  -26.8240   22.0530 C   0  0  0  0  0  2  0  0  0  0  0  0
  -19.1570  -28.8560   23.2640 C   0  0  0  0  0  0  0  0  0  0  0  0
  -18.9630  -30.0860   23.9280 C   0  0  0  0  0  3  0  0  0  0  0  0
  -17.6680  -30.5980   24.1330 C   0  0  0  0  0  3  0  0  0  0  0  0
  -16.5480  -29.8750   23.6880 C   0  0  0  0  0  3  0  0  0  0  0  0
  -16.7270  -28.6440   23.0300 C   0  0  0  0  0  3  0  0  0  0  0  0
  -25.8610  -32.4630   23.9450 C   0  0  0  0  0  3  0  0  0  0  0  0
  -25.5340  -33.8500   24.3150 N   0  0  0  0  0  0  0  0  0  0  0  0
  -25.8870  -34.9340   23.6110 C   0  0  0  0  0  0  0  0  0  0  0  0
  -26.5870  -34.8700   22.5970 O   0  0  0  0  0  0  0  0  0  0  0  0
  -24.9150  -33.9730   25.1040 H   0  0  0  0  0  0  0  0  0  0  0  0
  -24.1840  -36.7570   23.2620 C   0  0  0  0  0  1  0  0  0  0  0  0
  -25.3870  -36.3050   24.1080 C   0  0  0  0  0  3  0  0  0  0  0  0
  -27.4800  -37.1480   25.0800 C   0  0  0  0  0  1  0  0  0  0  0  0
  -26.4270  -37.3570   24.0890 N   0  0  0  0  0  0  0  0  0  0  0  0
  -26.0160  -38.2720   24.2520 H   0  0  0  0  0  0  0  0  0  0  0  0
  -26.3470  -31.6590   25.2150 C   0  0  1  0  0  0  0  0  0  0  0  0
  -25.2270  -31.3880   26.2480 C   0  0  0  0  0  1  0  0  0  0  0  0
  -26.9460  -30.2940   24.8080 C   0  0  0  0  0  1  0  0  0  0  0  0
  -27.4760  -32.4420   25.9270 C   0  0  0  0  0  1  0  0  0  0  0  0
  1  2  2  0
  1  3  1  0
  2  4  1  0
  3  5  2  0
  4 14  1  0
  4  6  2  0
  5  6  1  0
  5  8  1  0
  6 51  1  0
  7 13  2  0
  7  3  1  0
  8 10  1  0
  9  7  1  0
  9 11  1  0
 11 10  1  0
 11 12  1  1
 15 20  1  0
 16 17  1  0
 16 15  1  0
 18 17  1  0
 18 25  1  0
 18 19  1  0
 20 14  1  0
 20 19  1  0
 21 14  2  0
 22 23  2  0
 23 42  1  0
 24 23  1  0
 24 27  1  0
 25 22  1  0
 25 26  1  0
 26 24  2  0
 27 28  1  0
 28 29  2  0
 30 33  1  0
 30 29  1  0
 31 30  2  0
 32 31  1  0
 32 27  2  0
 33 34  1  0
 34 35  1  0
 35 36  2  0
 37 36  1  0
 37 41  1  0
 38 37  2  0
 39 34  2  0
 39 38  1  0
 40 39  1  0
 42 43  1  0
 43 46  1  0
 43 45  1  0
 44 42  2  0
 47 48  1  0
 47 22  1  0
 49 47  1  0
 50 51  1  0
 52 11  1  0
 52 53  1  0
 54 65  2  0
 55 53  1  0
 55 60  1  0
 56 64  1  0
 56 66  1  0
 57 63  1  0
 57 59  1  0
 58 64  1  0
 59 60  2  0
 59 58  1  0
 61 55  2  0
 62 61  1  0
 62 57  2  0
 63 56  1  0
 64 54  1  0
 66 68  2  0
 67 66  1  0
 69 67  1  0
 70 79  2  0
 70 75  1  0
 71 67  1  0
 71 75  1  0
 72 71  1  0
 73 74  1  0
 73 72  1  0
 74 70  1  0
 75 76  2  0
 76 77  1  0
 78 77  2  0
 79 78  1  0
 80 54  1  0
 80 81  1  0
 80 90  1  0
 81 84  1  0
 82 86  1  0
 82 81  1  0
 83 82  2  0
 86 85  1  0
 88 86  1  0
 88 89  1  0
 88 87  1  0
 90 93  1  1
 90 91  1  0
 92 90  1  0
M  ISO  4   4 100  14 100  52 101  53 101
M  END
>  <TORSDO>  (60) 
F 18

>  <SCORE>  (60) 
-15.292

>  <name>  (60) 
59

>  <ligand_id>  (60) 
59

>  <original_smiles>  (60) 
[H]c1c([H])c([H])c2c(c1[H])C([H])([H])C([H])([H])C([H])([H])C2([H])N([H])C(=O)C1([H])N(C(=O)C([H])(N([H])C(=O)C([H])(N([H])C([H])([H])[H])C([H])([H])[H])C(C([H])([H])[H])(C([H])([H])[H])C([H])([H])[H])C([H])([H])c2c([H])c(OC([H])([H])C3(C([H])([H])[H])C([H])([H])C(=O)c4c([H])c([H])c(C(=O)N5C([H])([H])C([H])([H])C([H])([H])C([H])(n6nc(-c7c([H])c([H])c(Oc8c([H])c([H])c(F)c([H])c8F)c([H])c7[H])c(C(=O)N([H])[H])c6N([H])[H])C5([H])[H])c(C([H])([H])C([H])([H])[H])c4C([H])([H])C3([H])[H])c([H])c([H])c2C1([H])[H]

>  <smiles>  (60) 
[H]c1c([H])c([H])c2c(c1[H])C([H])([H])C([H])([H])C([H])([H])C2([H])N([H])C(=O)C1([H])N(C(=O)C([H])(N([H])C(=O)C([H])(N([H])C([H])([H])[H])C([H])([H])[H])C(C([H])([H])[H])(C([H])([H])[H])C([H])([H])[H])C([H])([H])c2c([H])c(OC([H])([H])C3(C([H])([H])[H])C([H])([H])C(=O)c4c([H])c([H])c(C(=O)N5C([H])([H])C([H])([H])C([H])([H])C([H])(n6nc(-c7c([H])c([H])c(Oc8c([H])c([H])c(F)c([H])c8F)c([H])c7[H])c(C(=O)N([H])[H])c6N([H])[H])C5([H])[H])c(C([H])([H])C([H])([H])[H])c4C([H])([H])C3([H])[H])c([H])c([H])c2C1([H])[H]

$$$$
60:0:0
     RDKit          3D

 91 99  0  0  1  0  0  0  0  0999 V2000
  -29.0770  -22.4040   20.0470 C   0  0  0  0  0  3  0  0  0  0  0  0
  -29.1240  -18.0540   19.1150 C   0  0  0  0  0  3  0  0  0  0  0  0
  -28.8380  -19.5460   19.1370 C   0  0  0  0  0  3  0  0  0  0  0  0
  -29.7070  -19.6800   21.1970 C   0  0  0  0  0  3  0  0  0  0  0  0
  -29.7460  -17.1720   20.1270 C   0  0  0  0  0  0  0  0  0  0  0  0
  -29.0920  -20.5690   20.1800 C   0  0  0  0  0  0  0  0  0  0  0  0
  -30.0090  -18.1860   21.1840 C   0  0  0  0  0  0  0  0  0  0  0  0
  -30.3520  -15.5340   19.9630 C   0  0  0  0  0  0  0  0  0  0  0  0
  -30.2990  -13.0420   19.0750 C   0  0  0  0  0  2  0  0  0  0  0  0
  -29.3320  -12.7510   17.8950 C   0  0  0  0  0  2  0  0  0  0  0  0
  -27.9290  -12.4120   18.4200 C   0  0  0  0  0  2  0  0  0  0  0  0
  -27.5010  -13.3870   19.5420 C   0  0  0  0  0  3  0  0  0  0  0  0
  -28.5940  -13.6380   20.6030 C   0  0  0  0  0  2  0  0  0  0  0  0
  -29.7660  -14.2070   19.9080 N   0  0  0  0  0  0  0  0  0  0  0  0
  -31.5620  -15.4200   19.6940 O   0  0  0  0  0  0  0  0  0  0  0  0
  -25.1950  -13.9040   20.4700 C   0  0  0  0  0  0  0  0  0  0  0  0
  -24.1580  -13.1140   20.8790 C   0  0  0  0  0  0  0  0  0  0  0  0
  -24.6230  -11.7650   20.7800 C   0  0  0  0  0  0  0  0  0  0  0  0
  -26.2180  -13.0380   20.1340 N   0  0  0  0  0  0  0  0  0  0  0  0
  -25.8930  -11.7430   20.3890 N   0  0  0  0  0  0  0  0  0  0  0  0
  -23.9050  -10.4980   20.9740 C   0  0  0  0  0  0  0  0  0  0  0  0
  -24.3570   -9.5230   21.8900 C   0  0  0  0  0  3  0  0  0  0  0  0
  -23.6340   -8.3250   22.0750 C   0  0  0  0  0  3  0  0  0  0  0  0
  -22.4470   -8.0910   21.3430 C   0  0  0  0  0  0  0  0  0  0  0  0
  -22.0150   -9.0540   20.4140 C   0  0  0  0  0  3  0  0  0  0  0  0
  -22.7370  -10.2440   20.2260 C   0  0  0  0  0  3  0  0  0  0  0  0
  -21.6940   -6.9460   21.4390 O   0  0  0  0  0  0  0  0  0  0  0  0
  -21.6290   -6.2230   22.6020 C   0  0  0  0  0  0  0  0  0  0  0  0
  -21.1710   -6.7930   23.8090 C   0  0  0  0  0  3  0  0  0  0  0  0
  -21.0530   -5.9960   24.9660 C   0  0  0  0  0  3  0  0  0  0  0  0
  -21.3830   -4.6280   24.9150 C   0  0  0  0  0  0  0  0  0  0  0  0
  -21.8360   -4.0570   23.7130 C   0  0  0  0  0  3  0  0  0  0  0  0
  -21.9550   -4.8520   22.5590 C   0  0  0  0  0  0  0  0  0  0  0  0
  -22.3710   -4.2920   21.3980 F   0  0  0  0  0  0  0  0  0  0  0  0
  -21.2640   -3.8600   26.0220 F   0  0  0  0  0  0  0  0  0  0  0  0
  -22.7800  -13.5830   21.2390 C   0  0  0  0  0  0  0  0  0  0  0  0
  -22.1000  -12.8660   22.1250 N   0  0  0  0  0  0  0  0  0  0  0  0
  -22.3190  -14.6220   20.7710 O   0  0  0  0  0  0  0  0  0  0  0  0
  -22.4890  -12.0250   22.5250 H   0  0  0  0  0  0  0  0  0  0  0  0
  -21.1770  -13.1660   22.4070 H   0  0  0  0  0  0  0  0  0  0  0  0
  -25.3480  -15.2800   20.3270 N   0  0  0  0  0  0  0  0  0  0  0  0
  -24.5880  -15.9260   20.5030 H   0  0  0  0  0  0  0  0  0  0  0  0
  -26.1800  -15.7360   19.9720 H   0  0  0  0  0  0  0  0  0  0  0  0
  -30.6320  -17.7210   22.3050 O   0  0  0  0  0  0  0  0  0  0  0  0
  -30.7370  -18.3820   22.9830 H   0  0  0  0  0  0  0  0  0  0  0  0
  -30.4460  -22.7860   20.4270 N   0  0  0  0  0  4  0  0  0  0  0  0
  -30.5520  -22.7970   21.4250 H   0  0  0  0  0  0  0  0  0  0  0  0
  -30.6630  -23.7020   20.0750 H   0  0  0  0  0  0  0  0  0  0  0  0
  -31.1060  -22.1380   20.0370 H   0  0  0  0  0  0  0  0  0  0  0  0
  -28.0430  -23.9490   20.3850 C   0  0  0  0  0  2  0  0  0  0  0  0
  -28.2170  -25.6630   20.2560 O   0  0  0  0  0  0  0  0  0  0  0  0
  -24.6570  -31.8380   23.1740 C   0  0  0  0  0  0  0  0  0  0  0  0
  -27.2120  -26.8180   20.2260 C   0  0  0  0  0  0  0  0  0  0  0  0
  -23.4710  -30.4230   21.5500 C   0  0  0  0  0  3  0  0  0  0  0  0
  -24.9250  -28.7840   20.1500 C   0  0  0  0  0  0  0  0  0  0  0  0
  -26.0450  -30.6030   21.4140 C   0  0  0  0  0  2  0  0  0  0  0  0
  -26.1180  -29.1720   20.7740 C   0  0  0  0  0  0  0  0  0  0  0  0
  -27.2510  -28.2160   20.7760 C   0  0  0  0  0  3  0  0  0  0  0  0
  -25.9830  -26.6170   19.5520 C   0  0  0  0  0  3  0  0  0  0  0  0
  -24.8920  -27.5330   19.5140 C   0  0  0  0  0  3  0  0  0  0  0  0
  -23.7110  -29.7210   20.1840 C   0  0  0  0  0  2  0  0  0  0  0  0
  -24.7480  -30.9860   22.0990 N   0  0  0  0  0  0  0  0  0  0  0  0
  -23.5650  -32.1340   23.6880 O   0  0  0  0  0  0  0  0  0  0  0  0
  -22.7680  -29.4430   22.5270 C   0  0  0  0  0  0  0  0  0  0  0  0
  -21.4350  -29.2840   22.4100 N   0  0  0  0  0  0  0  0  0  0  0  0
  -23.4320  -28.8240   23.3620 O   0  0  0  0  0  0  0  0  0  0  0  0
  -20.9500  -29.8360   21.7160 H   0  0  0  0  0  0  0  0  0  0  0  0
  -18.0530  -28.0770   22.9490 C   0  0  0  0  0  0  0  0  0  0  0  0
  -20.6150  -28.3520   23.1910 C   0  0  0  0  0  3  0  0  0  0  0  0
  -20.7140  -26.9150   22.6250 C   0  0  0  0  0  2  0  0  0  0  0  0
  -19.6070  -26.5860   21.6190 C   0  0  0  0  0  2  0  0  0  0  0  0
  -18.2300  -26.7280   22.2730 C   0  0  0  0  0  2  0  0  0  0  0  0
  -19.1730  -28.8470   23.3660 C   0  0  0  0  0  0  0  0  0  0  0  0
  -18.9520  -30.1070   23.9630 C   0  0  0  0  0  3  0  0  0  0  0  0
  -17.6450  -30.5990   24.1430 C   0  0  0  0  0  3  0  0  0  0  0  0
  -16.5400  -29.8280   23.7380 C   0  0  0  0  0  3  0  0  0  0  0  0
  -16.7460  -28.5690   23.1470 C   0  0  0  0  0  3  0  0  0  0  0  0
  -25.9210  -32.4970   23.8060 C   0  0  0  0  0  3  0  0  0  0  0  0
  -26.4420  -31.7340   25.0870 C   0  0  1  0  0  0  0  0  0  0  0  0
  -25.3490  -31.4880   26.1540 C   0  0  0  0  0  1  0  0  0  0  0  0
  -27.0390  -30.3590   24.7080 C   0  0  0  0  0  1  0  0  0  0  0  0
  -27.5840  -32.5380   25.7500 C   0  0  0  0  0  1  0  0  0  0  0  0
  -25.5870  -33.8910   24.1560 N   0  0  0  0  0  0  0  0  0  0  0  0
  -25.8860  -34.9660   23.4120 C   0  0  0  0  0  0  0  0  0  0  0  0
  -26.5320  -34.8870   22.3640 O   0  0  0  0  0  0  0  0  0  0  0  0
  -25.0090  -34.0240   24.9730 H   0  0  0  0  0  0  0  0  0  0  0  0
  -24.1160  -36.7410   23.1480 C   0  0  0  0  0  1  0  0  0  0  0  0
  -25.3940  -36.3430   23.9060 C   0  0  0  0  0  3  0  0  0  0  0  0
  -27.5400  -37.2610   24.6710 C   0  0  0  0  0  1  0  0  0  0  0  0
  -26.4030  -37.4160   23.7670 N   0  0  0  0  0  0  0  0  0  0  0  0
  -25.9870  -38.3270   23.9350 H   0  0  0  0  0  0  0  0  0  0  0  0
  1  6  1  0
  1 50  1  0
  1 46  1  0
  2  3  2  0
  2  5  1  0
  3  6  1  0
  5  7  2  0
  6  4  2  0
  7  4  1  0
  7 44  1  0
  8  5  1  0
  9 14  1  0
 10 11  1  0
 10  9  1  0
 12 11  1  0
 12 19  1  0
 12 13  1  0
 14  8  1  0
 14 13  1  0
 15  8  2  0
 16 17  2  0
 17 36  1  0
 18 17  1  0
 18 21  1  0
 19 20  1  0
 19 16  1  0
 20 18  2  0
 21 22  1  0
 22 23  2  0
 24 27  1  0
 24 23  1  0
 25 24  2  0
 26 25  1  0
 26 21  2  0
 27 28  1  0
 28 29  1  0
 29 30  2  0
 31 30  1  0
 31 35  1  0
 32 31  2  0
 33 28  2  0
 33 32  1  0
 34 33  1  0
 36 37  1  0
 37 40  1  0
 37 39  1  0
 38 36  2  0
 41 16  1  0
 41 42  1  0
 43 41  1  0
 44 45  1  0
 46 47  1  0
 48 46  1  0
 49 46  1  0
 51 50  1  0
 52 63  2  0
 53 51  1  0
 53 58  1  0
 54 62  1  0
 54 64  1  0
 55 61  1  0
 55 57  1  0
 56 62  1  0
 57 58  2  0
 57 56  1  0
 59 53  2  0
 60 59  1  0
 60 55  2  0
 61 54  1  0
 62 52  1  0
 64 66  2  0
 65 64  1  0
 67 65  1  0
 68 77  2  0
 68 73  1  0
 69 65  1  0
 69 73  1  0
 70 69  1  0
 71 72  1  0
 71 70  1  0
 72 68  1  0
 73 74  2  0
 74 75  1  0
 76 75  2  0
 77 76  1  0
 78 52  1  0
 78 83  1  0
 78 79  1  0
 79 82  1  1
 79 80  1  0
 81 79  1  0
 83 86  1  0
 84 88  1  0
 84 83  1  0
 85 84  2  0
 88 87  1  0
 90 88  1  0
 90 91  1  0
 90 89  1  0
M  ISO  4   5 100   8 100  50 101  51 101
M  END
>  <TORSDO>  (61) 
F 20

>  <SCORE>  (61) 
-16.428

>  <name>  (61) 
60

>  <ligand_id>  (61) 
60

>  <original_smiles>  (61) 
[H]Oc1c([H])c(C([H])(C([H])([H])Oc2c([H])c([H])c3c(c2[H])C([H])([H])N(C(=O)C([H])(N([H])C(=O)C([H])(N([H])C([H])([H])[H])C([H])([H])[H])C(C([H])([H])[H])(C([H])([H])[H])C([H])([H])[H])C([H])(C(=O)N([H])C2([H])c4c([H])c([H])c([H])c([H])c4C([H])([H])C([H])([H])C2([H])[H])C3([H])[H])[N+]([H])([H])[H])c([H])c([H])c1C(=O)N1C([H])([H])C([H])([H])C([H])([H])C([H])(n2nc(-c3c([H])c([H])c(Oc4c([H])c([H])c(F)c([H])c4F)c([H])c3[H])c(C(=O)N([H])[H])c2N([H])[H])C1([H])[H]

>  <smiles>  (61) 
[H]Oc1c([H])c(C([H])(C([H])([H])Oc2c([H])c([H])c3c(c2[H])C([H])([H])N(C(=O)C([H])(N([H])C(=O)C([H])(N([H])C([H])([H])[H])C([H])([H])[H])C(C([H])([H])[H])(C([H])([H])[H])C([H])([H])[H])C([H])(C(=O)N([H])C2([H])c4c([H])c([H])c([H])c([H])c4C([H])([H])C([H])([H])C2([H])[H])C3([H])[H])[N+]([H])([H])[H])c([H])c([H])c1C(=O)N1C([H])([H])C([H])([H])C([H])([H])C([H])(n2nc(-c3c([H])c([H])c(Oc4c([H])c([H])c(F)c([H])c4F)c([H])c3[H])c(C(=O)N([H])[H])c2N([H])[H])C1([H])[H]

$$$$
61:0:0
     RDKit          3D

 90 98  0  0  1  0  0  0  0  0999 V2000
  -28.3140  -22.7600   17.8860 C   0  0  0  0  0  3  0  0  0  0  0  0
  -28.7500  -21.5950   18.5770 C   0  0  0  0  0  3  0  0  0  0  0  0
  -28.1550  -24.0510   18.4630 C   0  0  0  0  0  3  0  0  0  0  0  0
  -29.0780  -21.5790   19.9500 C   0  0  0  0  0  0  0  0  0  0  0  0
  -28.4220  -24.3490   19.8170 C   0  0  0  0  0  0  0  0  0  0  0  0
  -28.8930  -23.0310   20.5220 C   0  0  0  0  0  0  0  0  0  0  0  0
  -29.1860  -23.1720   21.8370 F   0  0  0  0  0  0  0  0  0  0  0  0
  -29.9430  -20.1820   22.0520 C   0  0  0  0  0  1  0  0  0  0  0  0
  -29.4040  -19.9600   20.6330 C   0  0  0  0  0  3  0  0  0  0  0  0
  -30.0020  -16.9670   20.4760 C   0  0  0  0  0  3  0  0  0  0  0  0
  -30.1150  -18.4150   20.1020 C   0  0  0  0  0  0  0  0  0  0  0  0
  -30.7560  -15.5340   20.1280 C   0  0  0  0  0  0  0  0  0  0  0  0
  -30.6960  -13.0640   19.2520 C   0  0  0  0  0  2  0  0  0  0  0  0
  -29.7650  -12.8780   18.0250 C   0  0  0  0  0  2  0  0  0  0  0  0
  -28.3200  -12.6100   18.4750 C   0  0  0  0  0  2  0  0  0  0  0  0
  -27.8930  -13.5600   19.6200 C   0  0  0  0  0  3  0  0  0  0  0  0
  -28.9550  -13.6980   20.7340 C   0  0  0  0  0  2  0  0  0  0  0  0
  -30.1850  -14.2130   20.1070 N   0  0  0  0  0  0  0  0  0  0  0  0
  -31.9530  -15.4740   19.8010 O   0  0  0  0  0  0  0  0  0  0  0  0
  -25.5430  -14.1290   20.4150 C   0  0  0  0  0  0  0  0  0  0  0  0
  -24.4800  -13.3590   20.7930 C   0  0  0  0  0  0  0  0  0  0  0  0
  -24.9320  -12.0050   20.7480 C   0  0  0  0  0  0  0  0  0  0  0  0
  -26.5720  -13.2460   20.1480 N   0  0  0  0  0  0  0  0  0  0  0  0
  -26.2200  -11.9610   20.4180 N   0  0  0  0  0  0  0  0  0  0  0  0
  -24.1940  -10.7500   20.9410 C   0  0  0  0  0  0  0  0  0  0  0  0
  -24.6040   -9.7860   21.8890 C   0  0  0  0  0  3  0  0  0  0  0  0
  -23.8620   -8.5990   22.0720 C   0  0  0  0  0  3  0  0  0  0  0  0
  -22.6950   -8.3660   21.3060 C   0  0  0  0  0  0  0  0  0  0  0  0
  -22.3030   -9.3170   20.3480 C   0  0  0  0  0  3  0  0  0  0  0  0
  -23.0450  -10.4960   20.1630 C   0  0  0  0  0  3  0  0  0  0  0  0
  -21.9270   -7.2300   21.3960 O   0  0  0  0  0  0  0  0  0  0  0  0
  -21.8240   -6.5210   22.5670 C   0  0  0  0  0  0  0  0  0  0  0  0
  -21.3550   -7.1140   23.7580 C   0  0  0  0  0  3  0  0  0  0  0  0
  -21.1990   -6.3320   24.9200 C   0  0  0  0  0  3  0  0  0  0  0  0
  -21.5030   -4.9580   24.8910 C   0  0  0  0  0  0  0  0  0  0  0  0
  -21.9660   -4.3650   23.7030 C   0  0  0  0  0  3  0  0  0  0  0  0
  -22.1220   -5.1440   22.5440 C   0  0  0  0  0  0  0  0  0  0  0  0
  -22.5480   -4.5620   21.3960 F   0  0  0  0  0  0  0  0  0  0  0  0
  -21.3480   -4.2040   26.0050 F   0  0  0  0  0  0  0  0  0  0  0  0
  -23.0910  -13.8500   21.0800 C   0  0  0  0  0  0  0  0  0  0  0  0
  -22.3690  -13.1690   21.9620 N   0  0  0  0  0  0  0  0  0  0  0  0
  -22.6560  -14.8760   20.5570 O   0  0  0  0  0  0  0  0  0  0  0  0
  -22.7350  -12.3400   22.4070 H   0  0  0  0  0  0  0  0  0  0  0  0
  -21.4370  -13.4810   22.1960 H   0  0  0  0  0  0  0  0  0  0  0  0
  -25.7170  -15.5000   20.2450 N   0  0  0  0  0  0  0  0  0  0  0  0
  -24.9580  -16.1600   20.3780 H   0  0  0  0  0  0  0  0  0  0  0  0
  -26.5660  -15.9350   19.9100 H   0  0  0  0  0  0  0  0  0  0  0  0
  -30.9960  -18.7490   19.1510 O   0  0  0  0  0  0  0  0  0  0  0  0
  -30.9850  -19.6960   19.0760 H   0  0  0  0  0  0  0  0  0  0  0  0
  -28.3540  -25.8650   20.1860 O   0  0  0  0  0  0  0  0  0  0  0  0
  -24.6230  -31.8250   23.0390 C   0  0  0  0  0  0  0  0  0  0  0  0
  -27.3290  -26.9640   20.0460 C   0  0  0  0  0  0  0  0  0  0  0  0
  -23.4830  -30.3990   21.3890 C   0  0  0  0  0  3  0  0  0  0  0  0
  -24.9860  -28.8240   19.9750 C   0  0  0  0  0  0  0  0  0  0  0  0
  -26.0470  -30.6590   21.2730 C   0  0  0  0  0  2  0  0  0  0  0  0
  -26.1570  -29.2460   20.6160 C   0  0  0  0  0  0  0  0  0  0  0  0
  -27.3140  -28.3350   20.6300 C   0  0  0  0  0  3  0  0  0  0  0  0
  -26.1250  -26.7100   19.3470 C   0  0  0  0  0  3  0  0  0  0  0  0
  -24.9990  -27.5800   19.3190 C   0  0  0  0  0  3  0  0  0  0  0  0
  -23.7450  -29.7190   20.0150 C   0  0  0  0  0  2  0  0  0  0  0  0
  -24.7380  -30.9920   21.9530 N   0  0  0  0  0  0  0  0  0  0  0  0
  -23.5220  -32.0890   23.5480 O   0  0  0  0  0  0  0  0  0  0  0  0
  -22.8020  -29.3900   22.3510 C   0  0  0  0  0  0  0  0  0  0  0  0
  -21.4720  -29.2110   22.2310 N   0  0  0  0  0  0  0  0  0  0  0  0
  -23.4760  -28.7680   23.1760 O   0  0  0  0  0  0  0  0  0  0  0  0
  -20.9780  -29.7640   21.5440 H   0  0  0  0  0  0  0  0  0  0  0  0
  -18.1090  -27.9450   22.7420 C   0  0  0  0  0  0  0  0  0  0  0  0
  -20.6640  -28.2560   22.9990 C   0  0  0  0  0  3  0  0  0  0  0  0
  -20.7890  -26.8280   22.4140 C   0  0  0  0  0  2  0  0  0  0  0  0
  -19.6900  -26.4940   21.4010 C   0  0  0  0  0  2  0  0  0  0  0  0
  -18.3080  -26.6060   22.0510 C   0  0  0  0  0  2  0  0  0  0  0  0
  -19.2150  -28.7260   23.1730 C   0  0  0  0  0  0  0  0  0  0  0  0
  -18.9720  -29.9760   23.7840 C   0  0  0  0  0  3  0  0  0  0  0  0
  -17.6570  -30.4460   23.9650 C   0  0  0  0  0  3  0  0  0  0  0  0
  -16.5660  -29.6620   23.5480 C   0  0  0  0  0  3  0  0  0  0  0  0
  -16.7930  -28.4130   22.9430 C   0  0  0  0  0  3  0  0  0  0  0  0
  -25.8700  -32.5040   23.6860 C   0  0  0  0  0  3  0  0  0  0  0  0
  -26.4000  -31.7380   24.9610 C   0  0  1  0  0  0  0  0  0  0  0  0
  -25.3070  -31.4570   26.0200 C   0  0  0  0  0  1  0  0  0  0  0  0
  -27.0300  -30.3810   24.5710 C   0  0  0  0  0  1  0  0  0  0  0  0
  -27.5200  -32.5610   25.6380 C   0  0  0  0  0  1  0  0  0  0  0  0
  -25.5010  -33.8860   24.0460 N   0  0  0  0  0  0  0  0  0  0  0  0
  -25.8140  -34.9760   23.3340 C   0  0  0  0  0  0  0  0  0  0  0  0
  -26.5040  -34.9290   22.3130 O   0  0  0  0  0  0  0  0  0  0  0  0
  -24.8860  -33.9940   24.8390 H   0  0  0  0  0  0  0  0  0  0  0  0
  -24.0470  -36.7440   23.0080 C   0  0  0  0  0  1  0  0  0  0  0  0
  -25.2810  -36.3370   23.8310 C   0  0  0  0  0  3  0  0  0  0  0  0
  -27.3720  -37.2520   24.7430 C   0  0  0  0  0  1  0  0  0  0  0  0
  -26.2880  -37.4220   23.7790 N   0  0  0  0  0  0  0  0  0  0  0  0
  -25.8530  -38.3250   23.9450 H   0  0  0  0  0  0  0  0  0  0  0  0
  1  3  2  0
  1  2  1  0
  2  4  2  0
  3  5  1  0
  4  6  1  0
  4  9  1  0
  5 50  1  0
  5  6  2  0
  6  7  1  0
  9  8  1  0
 11 10  2  0
 11  9  1  0
 12 10  1  0
 13 18  1  0
 14 15  1  0
 14 13  1  0
 16 15  1  0
 16 23  1  0
 16 17  1  0
 18 12  1  0
 18 17  1  0
 19 12  2  0
 20 21  2  0
 21 40  1  0
 22 21  1  0
 22 25  1  0
 23 20  1  0
 23 24  1  0
 24 22  2  0
 25 26  1  0
 26 27  2  0
 28 31  1  0
 28 27  1  0
 29 28  2  0
 30 29  1  0
 30 25  2  0
 31 32  1  0
 32 33  1  0
 33 34  2  0
 35 34  1  0
 35 39  1  0
 36 35  2  0
 37 32  2  0
 37 36  1  0
 38 37  1  0
 40 41  1  0
 41 44  1  0
 41 43  1  0
 42 40  2  0
 45 46  1  0
 45 20  1  0
 47 45  1  0
 48 11  1  0
 49 48  1  0
 51 62  2  0
 52 50  1  0
 52 57  1  0
 53 61  1  0
 53 63  1  0
 54 60  1  0
 54 56  1  0
 55 61  1  0
 56 57  2  0
 56 55  1  0
 58 52  2  0
 59 58  1  0
 59 54  2  0
 60 53  1  0
 61 51  1  0
 63 65  2  0
 64 63  1  0
 66 64  1  0
 67 76  2  0
 67 72  1  0
 68 64  1  0
 68 72  1  0
 69 68  1  0
 70 71  1  0
 70 69  1  0
 71 67  1  0
 72 73  2  0
 73 74  1  0
 75 74  2  0
 76 75  1  0
 77 51  1  0
 77 82  1  0
 77 78  1  0
 78 81  1  1
 78 79  1  0
 80 78  1  0
 82 85  1  0
 83 87  1  0
 83 82  1  0
 84 83  2  0
 87 86  1  0
 89 87  1  0
 89 90  1  0
 89 88  1  0
M  ISO  4   5 101  10 100  12 100  50 101
M  END
>  <TORSDO>  (62) 
F 19

>  <SCORE>  (62) 
-14.736

>  <name>  (62) 
61

>  <ligand_id>  (62) 
61

>  <original_smiles>  (62) 
[H]OC(=C([H])C(=O)N1C([H])([H])C([H])([H])C([H])([H])C([H])(n2nc(-c3c([H])c([H])c(Oc4c([H])c([H])c(F)c([H])c4F)c([H])c3[H])c(C(=O)N([H])[H])c2N([H])[H])C1([H])[H])C([H])(c1c([H])c([H])c([H])c(Oc2c([H])c([H])c3c(c2[H])C([H])([H])N(C(=O)C([H])(N([H])C(=O)C([H])(N([H])C([H])([H])[H])C([H])([H])[H])C(C([H])([H])[H])(C([H])([H])[H])C([H])([H])[H])C([H])(C(=O)N([H])C2([H])c4c([H])c([H])c([H])c([H])c4C([H])([H])C([H])([H])C2([H])[H])C3([H])[H])c1F)C([H])([H])[H]

>  <smiles>  (62) 
[H]OC(=C([H])C(=O)N1C([H])([H])C([H])([H])C([H])([H])C([H])(n2nc(-c3c([H])c([H])c(Oc4c([H])c([H])c(F)c([H])c4F)c([H])c3[H])c(C(=O)N([H])[H])c2N([H])[H])C1([H])[H])C([H])(c1c([H])c([H])c([H])c(Oc2c([H])c([H])c3c(c2[H])C([H])([H])N(C(=O)C([H])(N([H])C(=O)C([H])(N([H])C([H])([H])[H])C([H])([H])[H])C(C([H])([H])[H])(C([H])([H])[H])C([H])([H])[H])C([H])(C(=O)N([H])C2([H])c4c([H])c([H])c([H])c([H])c4C([H])([H])C([H])([H])C2([H])[H])C3([H])[H])c1F)C([H])([H])[H]

$$$$
62:0:0
     RDKit          3D

 90 98  0  0  1  0  0  0  0  0999 V2000
  -31.5620  -21.0910   20.3700 C   0  0  0  0  0  3  0  0  0  0  0  0
  -31.1850  -19.7360   20.2320 C   0  0  0  0  0  3  0  0  0  0  0  0
  -30.6250  -22.1460   20.3590 C   0  0  0  0  0  3  0  0  0  0  0  0
  -28.8870  -20.4710   20.0840 C   0  0  0  0  0  3  0  0  0  0  0  0
  -29.8380  -19.3190   20.1150 C   0  0  0  0  0  0  0  0  0  0  0  0
  -29.2390  -21.9160   20.2160 C   0  0  0  0  0  0  0  0  0  0  0  0
  -29.5990  -17.7290   19.8380 C   0  0  0  0  0  0  0  0  0  0  0  0
  -28.8320  -17.4340   18.9190 O   0  0  0  0  0  0  0  0  0  0  0  0
  -31.4630  -16.8680   21.4600 C   0  0  0  0  0  1  0  0  0  0  0  0
  -29.1600  -16.2370   21.8540 C   0  0  0  0  0  1  0  0  0  0  0  0
  -30.1790  -16.4220   20.7050 C   0  0  1  0  0  0  0  0  0  0  0  0
  -30.5860  -14.9450   19.9850 C   0  0  0  0  0  0  0  0  0  0  0  0
  -30.3140  -12.6210   18.9480 C   0  0  0  0  0  2  0  0  0  0  0  0
  -29.3140  -12.6180   17.7650 C   0  0  0  0  0  2  0  0  0  0  0  0
  -27.8710  -12.4280   18.2620 C   0  0  0  0  0  2  0  0  0  0  0  0
  -27.5620  -13.3070   19.5020 C   0  0  0  0  0  3  0  0  0  0  0  0
  -28.6810  -13.2600   20.5620 C   0  0  0  0  0  2  0  0  0  0  0  0
  -29.9280  -13.7030   19.9190 N   0  0  0  0  0  0  0  0  0  0  0  0
  -31.6970  -14.9320   19.4340 O   0  0  0  0  0  0  0  0  0  0  0  0
  -25.2360  -13.8860   20.3960 C   0  0  0  0  0  0  0  0  0  0  0  0
  -24.1910  -13.1130   20.8190 C   0  0  0  0  0  0  0  0  0  0  0  0
  -24.6420  -11.7590   20.7340 C   0  0  0  0  0  0  0  0  0  0  0  0
  -26.2540  -13.0070   20.0740 N   0  0  0  0  0  0  0  0  0  0  0  0
  -25.9120  -11.7210   20.3450 N   0  0  0  0  0  0  0  0  0  0  0  0
  -23.9150  -10.4980   20.9500 C   0  0  0  0  0  0  0  0  0  0  0  0
  -24.3780   -9.5270   21.8660 C   0  0  0  0  0  3  0  0  0  0  0  0
  -23.6540   -8.3330   22.0740 C   0  0  0  0  0  3  0  0  0  0  0  0
  -22.4530   -8.0990   21.3630 C   0  0  0  0  0  0  0  0  0  0  0  0
  -22.0060   -9.0560   20.4350 C   0  0  0  0  0  3  0  0  0  0  0  0
  -22.7290  -10.2440   20.2280 C   0  0  0  0  0  3  0  0  0  0  0  0
  -21.6990   -6.9570   21.4770 O   0  0  0  0  0  0  0  0  0  0  0  0
  -21.6700   -6.2250   22.6360 C   0  0  0  0  0  0  0  0  0  0  0  0
  -21.2830   -6.7970   23.8670 C   0  0  0  0  0  3  0  0  0  0  0  0
  -21.2030   -5.9940   25.0210 C   0  0  0  0  0  3  0  0  0  0  0  0
  -21.4970   -4.6180   24.9450 C   0  0  0  0  0  0  0  0  0  0  0  0
  -21.8780   -4.0470   23.7180 C   0  0  0  0  0  3  0  0  0  0  0  0
  -21.9620   -4.8490   22.5660 C   0  0  0  0  0  0  0  0  0  0  0  0
  -22.3090   -4.2900   21.3820 F   0  0  0  0  0  0  0  0  0  0  0  0
  -21.4110   -3.8440   26.0520 F   0  0  0  0  0  0  0  0  0  0  0  0
  -22.8160  -13.5940   21.1840 C   0  0  0  0  0  0  0  0  0  0  0  0
  -22.1340  -12.8970   22.0870 N   0  0  0  0  0  0  0  0  0  0  0  0
  -22.3560  -14.6270   20.6990 O   0  0  0  0  0  0  0  0  0  0  0  0
  -22.5100  -12.0570   22.5020 H   0  0  0  0  0  0  0  0  0  0  0  0
  -21.2160  -13.2100   22.3690 H   0  0  0  0  0  0  0  0  0  0  0  0
  -25.4060  -15.2590   20.2400 N   0  0  0  0  0  0  0  0  0  0  0  0
  -24.6880  -15.9320   20.4800 H   0  0  0  0  0  0  0  0  0  0  0  0
  -26.2530  -15.6880   19.8900 H   0  0  0  0  0  0  0  0  0  0  0  0
  -28.2570  -23.2360   20.3800 C   0  0  0  0  0  2  0  0  0  0  0  0
  -28.4280  -24.7530   19.6530 C   0  0  0  0  0  2  0  0  0  0  0  0
  -28.2960  -26.1920   20.2430 O   0  0  0  0  0  0  0  0  0  0  0  0
  -24.6380  -31.8340   23.1940 C   0  0  0  0  0  0  0  0  0  0  0  0
  -27.2110  -27.1330   20.1350 C   0  0  0  0  0  0  0  0  0  0  0  0
  -23.4320  -30.4400   21.5550 C   0  0  0  0  0  3  0  0  0  0  0  0
  -24.8760  -28.8670   20.1170 C   0  0  0  0  0  0  0  0  0  0  0  0
  -25.9830  -30.7090   21.3810 C   0  0  0  0  0  2  0  0  0  0  0  0
  -26.0530  -29.3200   20.7200 C   0  0  0  0  0  0  0  0  0  0  0  0
  -27.2180  -28.4680   20.7100 C   0  0  0  0  0  3  0  0  0  0  0  0
  -26.0040  -26.7710   19.5000 C   0  0  0  0  0  3  0  0  0  0  0  0
  -24.8610  -27.6080   19.4930 C   0  0  0  0  0  3  0  0  0  0  0  0
  -23.6490  -29.7680   20.1720 C   0  0  0  0  0  2  0  0  0  0  0  0
  -24.7040  -31.0160   22.0990 N   0  0  0  0  0  0  0  0  0  0  0  0
  -23.5540  -32.1170   23.7270 O   0  0  0  0  0  0  0  0  0  0  0  0
  -22.7580  -29.4310   22.5170 C   0  0  0  0  0  0  0  0  0  0  0  0
  -21.4270  -29.2700   22.4030 N   0  0  0  0  0  0  0  0  0  0  0  0
  -23.4330  -28.7920   23.3290 O   0  0  0  0  0  0  0  0  0  0  0  0
  -20.9380  -29.8350   21.7230 H   0  0  0  0  0  0  0  0  0  0  0  0
  -18.0420  -28.0920   22.9300 C   0  0  0  0  0  0  0  0  0  0  0  0
  -20.6060  -28.3350   23.1760 C   0  0  0  0  0  3  0  0  0  0  0  0
  -20.6930  -26.9060   22.5890 C   0  0  0  0  0  2  0  0  0  0  0  0
  -19.5790  -26.5970   21.5840 C   0  0  0  0  0  2  0  0  0  0  0  0
  -18.2040  -26.7480   22.2410 C   0  0  0  0  0  2  0  0  0  0  0  0
  -19.1700  -28.8440   23.3550 C   0  0  0  0  0  0  0  0  0  0  0  0
  -18.9640  -30.1020   23.9610 C   0  0  0  0  0  3  0  0  0  0  0  0
  -17.6630  -30.6100   24.1440 C   0  0  0  0  0  3  0  0  0  0  0  0
  -16.5500  -29.8550   23.7330 C   0  0  0  0  0  3  0  0  0  0  0  0
  -16.7410  -28.5970   23.1340 C   0  0  0  0  0  3  0  0  0  0  0  0
  -25.9170  -32.4670   23.8200 C   0  0  0  0  0  3  0  0  0  0  0  0
  -26.4350  -31.6920   25.0930 C   0  0  1  0  0  0  0  0  0  0  0  0
  -25.3410  -31.4540   26.1620 C   0  0  0  0  0  1  0  0  0  0  0  0
  -27.0150  -30.3140   24.6990 C   0  0  0  0  0  1  0  0  0  0  0  0
  -27.5850  -32.4860   25.7590 C   0  0  0  0  0  1  0  0  0  0  0  0
  -25.6040  -33.8640   24.1640 N   0  0  0  0  0  0  0  0  0  0  0  0
  -25.9340  -34.9270   23.4190 C   0  0  0  0  0  0  0  0  0  0  0  0
  -26.5990  -34.8370   22.3840 O   0  0  0  0  0  0  0  0  0  0  0  0
  -25.0170  -34.0090   24.9720 H   0  0  0  0  0  0  0  0  0  0  0  0
  -24.2020  -36.7250   23.1060 C   0  0  0  0  0  1  0  0  0  0  0  0
  -25.4510  -36.3100   23.9010 C   0  0  0  0  0  3  0  0  0  0  0  0
  -27.5920  -37.1880   24.7230 C   0  0  0  0  0  1  0  0  0  0  0  0
  -26.4790  -37.3670   23.7930 N   0  0  0  0  0  0  0  0  0  0  0  0
  -26.0720  -38.2830   23.9610 H   0  0  0  0  0  0  0  0  0  0  0  0
  2  1  2  0
  3  1  1  0
  4  5  2  0
  4  6  1  0
  5  2  1  0
  6  3  2  0
  6 48  1  0
  7  5  1  0
  7 11  1  0
  8  7  2  0
 11  9  1  1
 11 10  1  0
 12 11  1  0
 13 18  1  0
 14 15  1  0
 14 13  1  0
 16 15  1  0
 16 23  1  0
 16 17  1  0
 18 12  1  0
 18 17  1  0
 19 12  2  0
 20 21  2  0
 21 40  1  0
 22 21  1  0
 22 25  1  0
 23 24  1  0
 23 20  1  0
 24 22  2  0
 25 26  1  0
 26 27  2  0
 28 31  1  0
 28 27  1  0
 29 28  2  0
 30 29  1  0
 30 25  2  0
 31 32  1  0
 32 33  1  0
 33 34  2  0
 35 34  1  0
 35 39  1  0
 36 35  2  0
 37 32  2  0
 37 36  1  0
 38 37  1  0
 40 41  1  0
 41 44  1  0
 41 43  1  0
 42 40  2  0
 45 20  1  0
 45 46  1  0
 47 45  1  0
 49 50  1  0
 49 48  1  0
 51 62  2  0
 52 50  1  0
 52 57  1  0
 53 61  1  0
 53 63  1  0
 54 60  1  0
 54 56  1  0
 55 61  1  0
 56 55  1  0
 57 56  2  0
 58 52  2  0
 59 58  1  0
 59 54  2  0
 60 53  1  0
 61 51  1  0
 63 65  2  0
 64 63  1  0
 66 64  1  0
 67 76  2  0
 67 72  1  0
 68 64  1  0
 68 72  1  0
 69 68  1  0
 70 71  1  0
 70 69  1  0
 71 67  1  0
 72 73  2  0
 73 74  1  0
 75 74  2  0
 76 75  1  0
 77 51  1  0
 77 82  1  0
 77 78  1  0
 78 81  1  1
 78 79  1  0
 80 78  1  0
 82 85  1  0
 83 87  1  0
 83 82  1  0
 84 83  2  0
 87 86  1  0
 89 87  1  0
 89 90  1  0
 89 88  1  0
M  ISO  4  11 100  12 100  49 101  50 101
M  END
>  <TORSDO>  (63) 
F 20

>  <SCORE>  (63) 
-13.074

>  <name>  (63) 
62

>  <ligand_id>  (63) 
62

>  <original_smiles>  (63) 
[H]c1c([H])c(C(=O)C(C(=O)N2C([H])([H])C([H])([H])C([H])([H])C([H])(n3nc(-c4c([H])c([H])c(Oc5c([H])c([H])c(F)c([H])c5F)c([H])c4[H])c(C(=O)N([H])[H])c3N([H])[H])C2([H])[H])(C([H])([H])[H])C([H])([H])[H])c([H])c(C([H])([H])C([H])([H])Oc2c([H])c([H])c3c(c2[H])C([H])([H])N(C(=O)C([H])(N([H])C(=O)C([H])(N([H])C([H])([H])[H])C([H])([H])[H])C(C([H])([H])[H])(C([H])([H])[H])C([H])([H])[H])C([H])(C(=O)N([H])C2([H])c4c([H])c([H])c([H])c([H])c4C([H])([H])C([H])([H])C2([H])[H])C3([H])[H])c1[H]

>  <smiles>  (63) 
[H]c1c([H])c(C(=O)C(C(=O)N2C([H])([H])C([H])([H])C([H])([H])C([H])(n3nc(-c4c([H])c([H])c(Oc5c([H])c([H])c(F)c([H])c5F)c([H])c4[H])c(C(=O)N([H])[H])c3N([H])[H])C2([H])[H])(C([H])([H])[H])C([H])([H])[H])c([H])c(C([H])([H])C([H])([H])Oc2c([H])c([H])c3c(c2[H])C([H])([H])N(C(=O)C([H])(N([H])C(=O)C([H])(N([H])C([H])([H])[H])C([H])([H])[H])C(C([H])([H])[H])(C([H])([H])[H])C([H])([H])[H])C([H])(C(=O)N([H])C2([H])c4c([H])c([H])c([H])c([H])c4C([H])([H])C([H])([H])C2([H])[H])C3([H])[H])c1[H]

$$$$
63:0:0
     RDKit          3D

 91 99  0  0  1  0  0  0  0  0999 V2000
  -28.1660  -19.0300   20.2130 C   0  0  0  0  0  3  0  0  0  0  0  0
  -27.2300  -20.0890   20.1660 C   0  0  0  0  0  3  0  0  0  0  0  0
  -29.8930  -20.7150   20.0010 C   0  0  0  0  0  3  0  0  0  0  0  0
  -29.5510  -19.2670   20.1320 C   0  0  0  0  0  0  0  0  0  0  0  0
  -28.9470  -21.8700   19.9490 C   0  0  0  0  0  0  0  0  0  0  0  0
  -27.5930  -21.4540   20.0400 C   0  0  0  0  0  0  0  0  0  0  0  0
  -31.3970  -18.0570   18.8420 C   0  0  0  0  0  1  0  0  0  0  0  0
  -30.5760  -17.9630   20.1400 C   0  0  0  0  0  3  0  0  0  0  0  0
  -30.9240  -15.2200   20.2830 C   0  0  0  0  0  0  0  0  0  0  0  0
  -30.7890  -12.8560   19.3770 C   0  0  0  0  0  2  0  0  0  0  0  0
  -29.8740  -12.7960   18.1320 C   0  0  0  0  0  2  0  0  0  0  0  0
  -28.4050  -12.5940   18.5520 C   0  0  0  0  0  2  0  0  0  0  0  0
  -27.9860  -13.5380   19.7100 C   0  0  0  0  0  3  0  0  0  0  0  0
  -29.0280  -13.5750   20.8480 C   0  0  0  0  0  2  0  0  0  0  0  0
  -30.3050  -13.9700   20.2430 N   0  0  0  0  0  0  0  0  0  0  0  0
  -32.1370  -15.2390   20.0460 O   0  0  0  0  0  0  0  0  0  0  0  0
  -30.1770  -16.4370   20.3600 N   0  0  0  0  0  0  0  0  0  0  0  0
  -29.1950  -16.2900   20.5330 H   0  0  0  0  0  0  0  0  0  0  0  0
  -25.6070  -14.1310   20.4360 C   0  0  0  0  0  0  0  0  0  0  0  0
  -24.5330  -13.3630   20.7930 C   0  0  0  0  0  0  0  0  0  0  0  0
  -24.9860  -12.0080   20.7570 C   0  0  0  0  0  0  0  0  0  0  0  0
  -26.6440  -13.2460   20.1970 N   0  0  0  0  0  0  0  0  0  0  0  0
  -26.2800  -11.9620   20.4580 N   0  0  0  0  0  0  0  0  0  0  0  0
  -24.2470  -10.7500   20.9300 C   0  0  0  0  0  0  0  0  0  0  0  0
  -24.6320   -9.7930   21.8930 C   0  0  0  0  0  3  0  0  0  0  0  0
  -23.8910   -8.6020   22.0550 C   0  0  0  0  0  3  0  0  0  0  0  0
  -22.7500   -8.3610   21.2530 C   0  0  0  0  0  0  0  0  0  0  0  0
  -22.3850   -9.3080   20.2790 C   0  0  0  0  0  3  0  0  0  0  0  0
  -23.1260  -10.4890   20.1160 C   0  0  0  0  0  3  0  0  0  0  0  0
  -21.9850   -7.2220   21.3210 O   0  0  0  0  0  0  0  0  0  0  0  0
  -21.8360   -6.5250   22.4940 C   0  0  0  0  0  0  0  0  0  0  0  0
  -21.2490   -7.1090   23.6370 C   0  0  0  0  0  3  0  0  0  0  0  0
  -21.0520   -6.3360   24.8000 C   0  0  0  0  0  3  0  0  0  0  0  0
  -21.4300   -4.9810   24.8170 C   0  0  0  0  0  0  0  0  0  0  0  0
  -22.0100   -4.3960   23.6770 C   0  0  0  0  0  3  0  0  0  0  0  0
  -22.2090   -5.1660   22.5180 C   0  0  0  0  0  0  0  0  0  0  0  0
  -22.7480   -4.5920   21.4150 F   0  0  0  0  0  0  0  0  0  0  0  0
  -21.2340   -4.2350   25.9300 F   0  0  0  0  0  0  0  0  0  0  0  0
  -23.1380  -13.8510   21.0510 C   0  0  0  0  0  0  0  0  0  0  0  0
  -22.4000  -13.1650   21.9160 N   0  0  0  0  0  0  0  0  0  0  0  0
  -22.7120  -14.8760   20.5220 O   0  0  0  0  0  0  0  0  0  0  0  0
  -22.7580  -12.3350   22.3650 H   0  0  0  0  0  0  0  0  0  0  0  0
  -21.4630  -13.4740   22.1330 H   0  0  0  0  0  0  0  0  0  0  0  0
  -25.7820  -15.5010   20.2660 N   0  0  0  0  0  0  0  0  0  0  0  0
  -25.0100  -16.1520   20.3580 H   0  0  0  0  0  0  0  0  0  0  0  0
  -26.6120  -15.9260   19.8760 H   0  0  0  0  0  0  0  0  0  0  0  0
  -26.5720  -22.3540   20.0260 O   0  0  0  0  0  0  0  0  0  0  0  0
  -26.8680  -23.2540   20.0310 H   0  0  0  0  0  0  0  0  0  0  0  0
  -29.3330  -23.4940   19.8620 C   0  0  0  0  0  3  0  0  0  0  0  0
  -28.2960  -24.8270   19.6430 C   0  0  0  0  0  3  0  0  0  0  0  0
  -28.5650  -26.3600   19.8360 O   0  0  0  0  0  0  0  0  0  0  0  0
  -24.7500  -31.6960   23.2450 C   0  0  0  0  0  0  0  0  0  0  0  0
  -27.4920  -27.3300   19.8460 C   0  0  0  0  0  0  0  0  0  0  0  0
  -23.6160  -30.4330   21.4600 C   0  0  0  0  0  3  0  0  0  0  0  0
  -25.1260  -29.0300   19.9260 C   0  0  0  0  0  0  0  0  0  0  0  0
  -26.1670  -30.7650   21.3740 C   0  0  0  0  0  2  0  0  0  0  0  0
  -26.2860  -29.4410   20.5980 C   0  0  0  0  0  0  0  0  0  0  0  0
  -27.4690  -28.6110   20.5390 C   0  0  0  0  0  3  0  0  0  0  0  0
  -26.3020  -27.0290   19.1460 C   0  0  0  0  0  3  0  0  0  0  0  0
  -25.1490  -27.8400   19.1860 C   0  0  0  0  0  3  0  0  0  0  0  0
  -23.8790  -29.8940   20.0290 C   0  0  0  0  0  2  0  0  0  0  0  0
  -24.8640  -30.9810   22.0840 N   0  0  0  0  0  0  0  0  0  0  0  0
  -23.6480  -31.9060   23.7740 O   0  0  0  0  0  0  0  0  0  0  0  0
  -22.9430  -29.3260   22.3100 C   0  0  0  0  0  0  0  0  0  0  0  0
  -21.6190  -29.1480   22.1510 N   0  0  0  0  0  0  0  0  0  0  0  0
  -23.6160  -28.6320   23.0770 O   0  0  0  0  0  0  0  0  0  0  0  0
  -21.1320  -29.7610   21.5120 H   0  0  0  0  0  0  0  0  0  0  0  0
  -18.2420  -27.8950   22.5420 C   0  0  0  0  0  0  0  0  0  0  0  0
  -20.8030  -28.1280   22.8160 C   0  0  0  0  0  3  0  0  0  0  0  0
  -20.8990  -26.7700   22.0810 C   0  0  0  0  0  2  0  0  0  0  0  0
  -19.7890  -26.5650   21.0460 C   0  0  0  0  0  2  0  0  0  0  0  0
  -18.4130  -26.6330   21.7140 C   0  0  0  0  0  2  0  0  0  0  0  0
  -19.3640  -28.6050   23.0460 C   0  0  0  0  0  0  0  0  0  0  0  0
  -19.1490  -29.7900   23.7840 C   0  0  0  0  0  3  0  0  0  0  0  0
  -17.8440  -30.2650   24.0200 C   0  0  0  0  0  3  0  0  0  0  0  0
  -16.7370  -29.5510   23.5300 C   0  0  0  0  0  3  0  0  0  0  0  0
  -16.9370  -28.3660   22.7970 C   0  0  0  0  0  3  0  0  0  0  0  0
  -26.0010  -32.2990   23.9550 C   0  0  0  0  0  3  0  0  0  0  0  0
  -26.4410  -31.4830   25.2330 C   0  0  1  0  0  0  0  0  0  0  0  0
  -25.2890  -31.2240   26.2340 C   0  0  0  0  0  1  0  0  0  0  0  0
  -27.0320  -30.1120   24.8350 C   0  0  0  0  0  1  0  0  0  0  0  0
  -27.5610  -32.2450   25.9800 C   0  0  0  0  0  1  0  0  0  0  0  0
  -25.6810  -33.6890   24.3190 N   0  0  0  0  0  0  0  0  0  0  0  0
  -25.9950  -34.7640   23.5850 C   0  0  0  0  0  0  0  0  0  0  0  0
  -26.6500  -34.6910   22.5420 O   0  0  0  0  0  0  0  0  0  0  0  0
  -25.0960  -33.8180   25.1320 H   0  0  0  0  0  0  0  0  0  0  0  0
  -24.2200  -36.5310   23.3420 C   0  0  0  0  0  1  0  0  0  0  0  0
  -25.5080  -36.1380   24.0840 C   0  0  0  0  0  3  0  0  0  0  0  0
  -27.6550  -37.0650   24.8330 C   0  0  0  0  0  1  0  0  0  0  0  0
  -26.5140  -37.2110   23.9340 N   0  0  0  0  0  0  0  0  0  0  0  0
  -26.0960  -38.1240   24.0980 H   0  0  0  0  0  0  0  0  0  0  0  0
  2  1  1  0
  3  4  1  0
  4  8  1  0
  4  1  2  0
  5  3  2  0
  5  6  1  0
  6  2  2  0
  8  7  1  0
  8 17  1  0
  9 17  1  0
 10 15  1  0
 11 12  1  0
 11 10  1  0
 13 12  1  0
 13 22  1  0
 13 14  1  0
 15  9  1  0
 15 14  1  0
 16  9  2  0
 17 18  1  0
 19 20  2  0
 20 39  1  0
 21 20  1  0
 21 24  1  0
 22 19  1  0
 22 23  1  0
 23 21  2  0
 24 25  1  0
 25 26  2  0
 27 30  1  0
 27 26  1  0
 28 27  2  0
 29 28  1  0
 29 24  2  0
 30 31  1  0
 31 36  2  0
 31 32  1  0
 32 33  2  0
 33 34  1  0
 34 38  1  0
 35 34  2  0
 36 35  1  0
 37 36  1  0
 39 40  1  0
 40 43  1  0
 40 42  1  0
 41 39  2  0
 44 45  1  0
 44 19  1  0
 46 44  1  0
 47 48  1  0
 47  6  1  0
 49  5  1  0
 50 51  1  0
 50 49  2  0
 51 53  1  0
 52 63  2  0
 53 58  1  0
 54 62  1  0
 54 64  1  0
 55 61  1  0
 55 57  1  0
 56 62  1  0
 57 56  1  0
 58 57  2  0
 59 60  1  0
 59 53  2  0
 60 55  2  0
 61 54  1  0
 62 52  1  0
 64 66  2  0
 65 64  1  0
 67 65  1  0
 68 77  2  0
 68 73  1  0
 69 65  1  0
 69 73  1  0
 70 69  1  0
 71 72  1  0
 71 70  1  0
 72 68  1  0
 73 74  2  0
 74 75  1  0
 76 75  2  0
 77 76  1  0
 78 52  1  0
 78 83  1  0
 78 79  1  0
 79 82  1  1
 79 80  1  0
 81 79  1  0
 83 86  1  0
 84 88  1  0
 84 83  1  0
 85 84  2  0
 88 87  1  0
 90 88  1  0
 90 91  1  0
 90 89  1  0
M  ISO  4   9 100  17 100  50 101  51 101
M  END
>  <TORSDO>  (64) 
F 20

>  <SCORE>  (64) 
-13.796

>  <name>  (64) 
63

>  <ligand_id>  (64) 
63

>  <original_smiles>  (64) 
[H]Oc1c([H])c([H])c(C([H])(N([H])C(=O)N2C([H])([H])C([H])([H])C([H])([H])C([H])(n3nc(-c4c([H])c([H])c(Oc5c([H])c([H])c(F)c([H])c5F)c([H])c4[H])c(C(=O)N([H])[H])c3N([H])[H])C2([H])[H])C([H])([H])[H])c([H])c1C([H])([H])C([H])([H])Oc1c([H])c([H])c2c(c1[H])C([H])([H])N(C(=O)C([H])(N([H])C(=O)C([H])(N([H])C([H])([H])[H])C([H])([H])[H])C(C([H])([H])[H])(C([H])([H])[H])C([H])([H])[H])C([H])(C(=O)N([H])C1([H])c3c([H])c([H])c([H])c([H])c3C([H])([H])C([H])([H])C1([H])[H])C2([H])[H]

>  <smiles>  (64) 
[H]Oc1c([H])c([H])c(C([H])(N([H])C(=O)N2C([H])([H])C([H])([H])C([H])([H])C([H])(n3nc(-c4c([H])c([H])c(Oc5c([H])c([H])c(F)c([H])c5F)c([H])c4[H])c(C(=O)N([H])[H])c3N([H])[H])C2([H])[H])C([H])([H])[H])c([H])c1C([H])([H])C([H])([H])Oc1c([H])c([H])c2c(c1[H])C([H])([H])N(C(=O)C([H])(N([H])C(=O)C([H])(N([H])C([H])([H])[H])C([H])([H])[H])C(C([H])([H])[H])(C([H])([H])[H])C([H])([H])[H])C([H])(C(=O)N([H])C1([H])c3c([H])c([H])c([H])c([H])c3C([H])([H])C([H])([H])C1([H])[H])C2([H])[H]

$$$$
64:0:0
     RDKit          3D

 93101  0  0  1  0  0  0  0  0999 V2000
  -29.2550  -21.0570   19.0490 C   0  0  0  0  0  3  0  0  0  0  0  0
  -28.9170  -22.4380   18.7980 C   0  0  0  0  0  3  0  0  0  0  0  0
  -29.5950  -21.6110   21.3240 C   0  0  0  0  0  3  0  0  0  0  0  0
  -29.6040  -20.5560   20.3390 C   0  0  0  0  0  0  0  0  0  0  0  0
  -28.8870  -23.4810   19.7840 C   0  0  0  0  0  0  0  0  0  0  0  0
  -29.2690  -23.0060   21.0750 C   0  0  0  0  0  0  0  0  0  0  0  0
  -29.3320  -23.9970   22.2220 C   0  0  0  0  0  1  0  0  0  0  0  0
  -29.8280  -19.0260   20.7660 C   0  0  0  0  0  0  0  0  0  0  0  0
  -29.6390  -18.7890   21.9640 O   0  0  0  0  0  0  0  0  0  0  0  0
  -30.3020  -17.7150   19.8720 C   0  0  0  0  0  3  0  0  0  0  0  0
  -29.5760  -17.7940   18.5910 N   0  0  0  0  0  4  0  0  0  0  0  0
  -28.5820  -17.7570   18.7370 H   0  0  0  0  0  0  0  0  0  0  0  0
  -29.8500  -17.0520   17.9740 H   0  0  0  0  0  0  0  0  0  0  0  0
  -29.7980  -18.6620   18.1360 H   0  0  0  0  0  0  0  0  0  0  0  0
  -30.1470  -16.2030   20.5540 C   0  0  0  0  0  2  0  0  0  0  0  0
  -30.8430  -14.8380   19.9960 C   0  0  0  0  0  0  0  0  0  0  0  0
  -30.5750  -12.5630   18.9400 C   0  0  0  0  0  2  0  0  0  0  0  0
  -29.5610  -12.6600   17.7750 C   0  0  0  0  0  2  0  0  0  0  0  0
  -28.1190  -12.4810   18.2860 C   0  0  0  0  0  2  0  0  0  0  0  0
  -27.8290  -13.3400   19.5440 C   0  0  0  0  0  3  0  0  0  0  0  0
  -28.9550  -13.2280   20.5950 C   0  0  0  0  0  2  0  0  0  0  0  0
  -30.2170  -13.6000   19.9410 N   0  0  0  0  0  0  0  0  0  0  0  0
  -31.9770  -14.9290   19.5170 O   0  0  0  0  0  0  0  0  0  0  0  0
  -25.5050  -13.9430   20.4460 C   0  0  0  0  0  0  0  0  0  0  0  0
  -24.4490  -13.1770   20.8550 C   0  0  0  0  0  0  0  0  0  0  0  0
  -24.8800  -11.8190   20.7460 C   0  0  0  0  0  0  0  0  0  0  0  0
  -26.5140  -13.0540   20.1110 N   0  0  0  0  0  0  0  0  0  0  0  0
  -26.1480  -11.7680   20.3540 N   0  0  0  0  0  0  0  0  0  0  0  0
  -24.1400  -10.5660   20.9390 C   0  0  0  0  0  0  0  0  0  0  0  0
  -24.5690   -9.5860   21.8620 C   0  0  0  0  0  3  0  0  0  0  0  0
  -23.8260   -8.3980   22.0430 C   0  0  0  0  0  3  0  0  0  0  0  0
  -22.6400   -8.1820   21.3010 C   0  0  0  0  0  0  0  0  0  0  0  0
  -22.2300   -9.1510   20.3670 C   0  0  0  0  0  3  0  0  0  0  0  0
  -22.9730  -10.3300   20.1850 C   0  0  0  0  0  3  0  0  0  0  0  0
  -21.8700   -7.0470   21.3910 O   0  0  0  0  0  0  0  0  0  0  0  0
  -21.7850   -6.3280   22.5560 C   0  0  0  0  0  0  0  0  0  0  0  0
  -21.2940   -6.9000   23.7510 C   0  0  0  0  0  3  0  0  0  0  0  0
  -21.1540   -6.1060   24.9070 C   0  0  0  0  0  3  0  0  0  0  0  0
  -21.4960   -4.7420   24.8690 C   0  0  0  0  0  0  0  0  0  0  0  0
  -21.9800   -4.1690   23.6790 C   0  0  0  0  0  3  0  0  0  0  0  0
  -22.1200   -4.9600   22.5250 C   0  0  0  0  0  0  0  0  0  0  0  0
  -22.5670   -4.3980   21.3770 F   0  0  0  0  0  0  0  0  0  0  0  0
  -21.3560   -3.9770   25.9770 F   0  0  0  0  0  0  0  0  0  0  0  0
  -23.0830  -13.6710   21.2310 C   0  0  0  0  0  0  0  0  0  0  0  0
  -22.3960  -12.9600   22.1170 N   0  0  0  0  0  0  0  0  0  0  0  0
  -22.6350  -14.7240   20.7770 O   0  0  0  0  0  0  0  0  0  0  0  0
  -22.7740  -12.1080   22.5100 H   0  0  0  0  0  0  0  0  0  0  0  0
  -21.4820  -13.2720   22.4120 H   0  0  0  0  0  0  0  0  0  0  0  0
  -25.6830  -15.3150   20.3060 N   0  0  0  0  0  0  0  0  0  0  0  0
  -24.9300  -15.9750   20.4730 H   0  0  0  0  0  0  0  0  0  0  0  0
  -26.5130  -15.7500   19.9290 H   0  0  0  0  0  0  0  0  0  0  0  0
  -28.4140  -24.9710   19.3240 C   0  0  0  0  0  2  0  0  0  0  0  0
  -28.2720  -26.2340   20.1620 O   0  0  0  0  0  0  0  0  0  0  0  0
  -24.5320  -31.7610   23.1240 C   0  0  0  0  0  0  0  0  0  0  0  0
  -27.1760  -27.1480   20.0550 C   0  0  0  0  0  0  0  0  0  0  0  0
  -23.3490  -30.3710   21.4670 C   0  0  0  0  0  3  0  0  0  0  0  0
  -24.8160  -28.8290   20.0390 C   0  0  0  0  0  0  0  0  0  0  0  0
  -25.8980  -30.6700   21.3150 C   0  0  0  0  0  2  0  0  0  0  0  0
  -25.9860  -29.2900   20.6540 C   0  0  0  0  0  0  0  0  0  0  0  0
  -27.1610  -28.4610   20.6550 C   0  0  0  0  0  3  0  0  0  0  0  0
  -25.9690  -26.7660   19.4200 C   0  0  0  0  0  3  0  0  0  0  0  0
  -24.8170  -27.5760   19.4120 C   0  0  0  0  0  3  0  0  0  0  0  0
  -23.5790  -29.7080   20.0850 C   0  0  0  0  0  2  0  0  0  0  0  0
  -24.6120  -30.9530   22.0250 N   0  0  0  0  0  0  0  0  0  0  0  0
  -23.4410  -32.0350   23.6480 O   0  0  0  0  0  0  0  0  0  0  0  0
  -22.6730  -29.3500   22.4160 C   0  0  0  0  0  0  0  0  0  0  0  0
  -21.3470  -29.1740   22.2790 N   0  0  0  0  0  0  0  0  0  0  0  0
  -23.3430  -28.7180   23.2370 O   0  0  0  0  0  0  0  0  0  0  0  0
  -20.8630  -29.7370   21.5940 H   0  0  0  0  0  0  0  0  0  0  0  0
  -17.9660  -27.9660   22.7510 C   0  0  0  0  0  0  0  0  0  0  0  0
  -20.5230  -28.2300   23.0380 C   0  0  0  0  0  3  0  0  0  0  0  0
  -20.6310  -26.8020   22.4530 C   0  0  0  0  0  2  0  0  0  0  0  0
  -19.5370  -26.4840   21.4290 C   0  0  0  0  0  2  0  0  0  0  0  0
  -18.1510  -26.6220   22.0650 C   0  0  0  0  0  2  0  0  0  0  0  0
  -19.0810  -28.7280   23.1930 C   0  0  0  0  0  0  0  0  0  0  0  0
  -18.8550  -29.9840   23.7950 C   0  0  0  0  0  3  0  0  0  0  0  0
  -17.5480  -30.4800   23.9580 C   0  0  0  0  0  3  0  0  0  0  0  0
  -16.4480  -29.7150   23.5310 C   0  0  0  0  0  3  0  0  0  0  0  0
  -16.6580  -28.4600   22.9340 C   0  0  0  0  0  3  0  0  0  0  0  0
  -25.8050  -32.3970   23.7640 C   0  0  0  0  0  3  0  0  0  0  0  0
  -25.4790  -33.7870   24.1180 N   0  0  0  0  0  0  0  0  0  0  0  0
  -25.7730  -34.8550   23.3640 C   0  0  0  0  0  0  0  0  0  0  0  0
  -26.4140  -34.7750   22.3130 O   0  0  0  0  0  0  0  0  0  0  0  0
  -24.9060  -33.9220   24.9380 H   0  0  0  0  0  0  0  0  0  0  0  0
  -24.0040  -36.6230   23.0880 C   0  0  0  0  0  1  0  0  0  0  0  0
  -25.2790  -36.2310   23.8530 C   0  0  0  0  0  3  0  0  0  0  0  0
  -27.4180  -37.1520   24.6300 C   0  0  0  0  0  1  0  0  0  0  0  0
  -26.2900  -37.3030   23.7150 N   0  0  0  0  0  0  0  0  0  0  0  0
  -25.8710  -38.2160   23.8780 H   0  0  0  0  0  0  0  0  0  0  0  0
  -26.3190  -31.6100   25.0330 C   0  0  1  0  0  0  0  0  0  0  0  0
  -25.2200  -31.3440   26.0890 C   0  0  0  0  0  1  0  0  0  0  0  0
  -26.9200  -30.2440   24.6280 C   0  0  0  0  0  1  0  0  0  0  0  0
  -27.4560  -32.4060   25.7170 C   0  0  0  0  0  1  0  0  0  0  0  0
  1  4  1  0
  2  1  2  0
  2  5  1  0
  4  8  1  0
  4  3  2  0
  5  6  2  0
  6  3  1  0
  6  7  1  0
  8  9  2  0
 10 15  1  0
 10  8  1  0
 11 12  1  0
 11 10  1  0
 13 11  1  0
 14 11  1  0
 16 15  1  0
 17 22  1  0
 18 19  1  0
 18 17  1  0
 20 19  1  0
 20 27  1  0
 20 21  1  0
 22 16  1  0
 22 21  1  0
 23 16  2  0
 24 25  2  0
 25 44  1  0
 26 25  1  0
 26 29  1  0
 27 28  1  0
 27 24  1  0
 28 26  2  0
 29 30  1  0
 30 31  2  0
 32 35  1  0
 32 31  1  0
 33 32  2  0
 34 33  1  0
 34 29  2  0
 35 36  1  0
 36 37  1  0
 37 38  2  0
 39 38  1  0
 39 43  1  0
 40 39  2  0
 41 36  2  0
 41 40  1  0
 42 41  1  0
 44 45  1  0
 45 48  1  0
 45 47  1  0
 46 44  2  0
 49 24  1  0
 49 50  1  0
 51 49  1  0
 52  5  1  0
 52 53  1  0
 54 65  2  0
 55 53  1  0
 55 60  1  0
 56 64  1  0
 56 66  1  0
 57 63  1  0
 57 59  1  0
 58 64  1  0
 59 60  2  0
 59 58  1  0
 61 55  2  0
 62 61  1  0
 62 57  2  0
 63 56  1  0
 64 54  1  0
 66 68  2  0
 67 66  1  0
 69 67  1  0
 70 79  2  0
 70 75  1  0
 71 67  1  0
 71 75  1  0
 72 71  1  0
 73 74  1  0
 73 72  1  0
 74 70  1  0
 75 76  2  0
 76 77  1  0
 78 77  2  0
 79 78  1  0
 80 54  1  0
 80 81  1  0
 80 90  1  0
 81 84  1  0
 82 86  1  0
 82 81  1  0
 83 82  2  0
 86 85  1  0
 88 86  1  0
 88 89  1  0
 88 87  1  0
 90 93  1  1
 90 91  1  0
 92 90  1  0
M  ISO  4  15 100  16 100  52 101  53 101
M  END
>  <TORSDO>  (65) 
F 21

>  <SCORE>  (65) 
-12.968

>  <name>  (65) 
64

>  <ligand_id>  (65) 
64

>  <original_smiles>  (65) 
[H]c1c([H])c([H])c2c(c1[H])C([H])([H])C([H])([H])C([H])([H])C2([H])N([H])C(=O)C1([H])N(C(=O)C([H])(N([H])C(=O)C([H])(N([H])C([H])([H])[H])C([H])([H])[H])C(C([H])([H])[H])(C([H])([H])[H])C([H])([H])[H])C([H])([H])c2c([H])c(OC([H])([H])c3c([H])c([H])c(C(=O)C([H])(C([H])([H])C(=O)N4C([H])([H])C([H])([H])C([H])([H])C([H])(n5nc(-c6c([H])c([H])c(Oc7c([H])c([H])c(F)c([H])c7F)c([H])c6[H])c(C(=O)N([H])[H])c5N([H])[H])C4([H])[H])[N+]([H])([H])[H])c([H])c3C([H])([H])[H])c([H])c([H])c2C1([H])[H]

>  <smiles>  (65) 
[H]c1c([H])c([H])c2c(c1[H])C([H])([H])C([H])([H])C([H])([H])C2([H])N([H])C(=O)C1([H])N(C(=O)C([H])(N([H])C(=O)C([H])(N([H])C([H])([H])[H])C([H])([H])[H])C(C([H])([H])[H])(C([H])([H])[H])C([H])([H])[H])C([H])([H])c2c([H])c(OC([H])([H])c3c([H])c([H])c(C(=O)C([H])(C([H])([H])C(=O)N4C([H])([H])C([H])([H])C([H])([H])C([H])(n5nc(-c6c([H])c([H])c(Oc7c([H])c([H])c(F)c([H])c7F)c([H])c6[H])c(C(=O)N([H])[H])c5N([H])[H])C4([H])[H])[N+]([H])([H])[H])c([H])c3C([H])([H])[H])c([H])c([H])c2C1([H])[H]

$$$$
65:0:0
     RDKit          3D

 89 97  0  0  1  0  0  0  0  0999 V2000
  -27.9250  -23.8770   22.6380 C   0  0  0  0  0  3  0  0  0  0  0  0
  -28.3560  -22.7150   21.9630 C   0  0  0  0  0  3  0  0  0  0  0  0
  -27.9140  -25.1330   21.9980 C   0  0  0  0  0  3  0  0  0  0  0  0
  -28.7500  -24.0700   19.9800 C   0  0  0  0  0  3  0  0  0  0  0  0
  -28.7910  -22.7720   20.6210 C   0  0  0  0  0  0  0  0  0  0  0  0
  -28.3220  -25.2730   20.6550 C   0  0  0  0  0  0  0  0  0  0  0  0
  -29.1850  -21.4670   19.8970 C   0  0  0  0  0  0  0  0  0  0  0  0
  -29.0770  -21.3800   18.6710 O   0  0  0  0  0  0  0  0  0  0  0  0
  -29.8090  -20.2210   20.6590 C   0  0  0  0  0  2  0  0  0  0  0  0
  -29.3520  -18.7360   20.2690 C   0  0  0  0  0  2  0  0  0  0  0  0
  -30.3430  -17.5000   20.5280 C   0  0  0  0  0  2  0  0  0  0  0  0
  -29.7160  -16.0300   20.6270 C   0  0  0  0  0  2  0  0  0  0  0  0
  -30.5650  -14.7320   20.2680 C   0  0  0  0  0  0  0  0  0  0  0  0
  -30.3600  -12.4800   19.2180 C   0  0  0  0  0  2  0  0  0  0  0  0
  -29.4030  -12.6020   18.0090 C   0  0  0  0  0  2  0  0  0  0  0  0
  -27.9340  -12.4400   18.4490 C   0  0  0  0  0  2  0  0  0  0  0  0
  -27.5850  -13.3110   19.6830 C   0  0  0  0  0  3  0  0  0  0  0  0
  -28.6540  -13.1710   20.7890 C   0  0  0  0  0  2  0  0  0  0  0  0
  -29.9610  -13.5020   20.2080 N   0  0  0  0  0  0  0  0  0  0  0  0
  -31.7300  -14.8710   19.8810 O   0  0  0  0  0  0  0  0  0  0  0  0
  -25.2050  -13.9260   20.4280 C   0  0  0  0  0  0  0  0  0  0  0  0
  -24.1390  -13.1580   20.8120 C   0  0  0  0  0  0  0  0  0  0  0  0
  -24.5950  -11.8050   20.7830 C   0  0  0  0  0  0  0  0  0  0  0  0
  -26.2420  -13.0380   20.1850 N   0  0  0  0  0  0  0  0  0  0  0  0
  -25.8810  -11.7580   20.4610 N   0  0  0  0  0  0  0  0  0  0  0  0
  -23.8660  -10.5470   20.9860 C   0  0  0  0  0  0  0  0  0  0  0  0
  -24.3100   -9.5760   21.9090 C   0  0  0  0  0  3  0  0  0  0  0  0
  -23.5820   -8.3830   22.0990 C   0  0  0  0  0  3  0  0  0  0  0  0
  -22.3950   -8.1510   21.3650 C   0  0  0  0  0  0  0  0  0  0  0  0
  -21.9700   -9.1110   20.4300 C   0  0  0  0  0  3  0  0  0  0  0  0
  -22.6980  -10.2960   20.2370 C   0  0  0  0  0  3  0  0  0  0  0  0
  -21.6360   -7.0100   21.4650 O   0  0  0  0  0  0  0  0  0  0  0  0
  -21.6140   -6.2600   22.6130 C   0  0  0  0  0  0  0  0  0  0  0  0
  -21.2310   -6.8090   23.8570 C   0  0  0  0  0  3  0  0  0  0  0  0
  -21.1550   -5.9850   24.9960 C   0  0  0  0  0  3  0  0  0  0  0  0
  -21.4530   -4.6120   24.8960 C   0  0  0  0  0  0  0  0  0  0  0  0
  -21.8290   -4.0630   23.6580 C   0  0  0  0  0  3  0  0  0  0  0  0
  -21.9060   -4.8840   22.5200 C   0  0  0  0  0  0  0  0  0  0  0  0
  -22.2490   -4.3440   21.3250 F   0  0  0  0  0  0  0  0  0  0  0  0
  -21.3720   -3.8200   25.9890 F   0  0  0  0  0  0  0  0  0  0  0  0
  -22.7450  -13.6420   21.0950 C   0  0  0  0  0  0  0  0  0  0  0  0
  -22.0240  -12.9540   21.9720 N   0  0  0  0  0  0  0  0  0  0  0  0
  -22.3060  -14.6670   20.5740 O   0  0  0  0  0  0  0  0  0  0  0  0
  -22.3930  -12.1250   22.4150 H   0  0  0  0  0  0  0  0  0  0  0  0
  -21.0890  -13.2600   22.2040 H   0  0  0  0  0  0  0  0  0  0  0  0
  -25.3750  -15.2950   20.2460 N   0  0  0  0  0  0  0  0  0  0  0  0
  -24.6140  -15.9550   20.3660 H   0  0  0  0  0  0  0  0  0  0  0  0
  -26.2290  -15.7310   19.9220 H   0  0  0  0  0  0  0  0  0  0  0  0
  -28.3500  -26.5630   20.0810 O   0  0  0  0  0  0  0  0  0  0  0  0
  -24.5970  -31.9040   23.2090 C   0  0  0  0  0  0  0  0  0  0  0  0
  -27.2230  -27.3920   20.1170 C   0  0  0  0  0  0  0  0  0  0  0  0
  -23.3920  -30.5090   21.5630 C   0  0  0  0  0  3  0  0  0  0  0  0
  -24.8450  -28.9700   20.1250 C   0  0  0  0  0  0  0  0  0  0  0  0
  -25.9260  -30.8460   21.3700 C   0  0  0  0  0  2  0  0  0  0  0  0
  -26.0110  -29.4700   20.7210 C   0  0  0  0  0  0  0  0  0  0  0  0
  -27.2040  -28.6900   20.7100 C   0  0  0  0  0  3  0  0  0  0  0  0
  -26.0380  -26.9350   19.5050 C   0  0  0  0  0  3  0  0  0  0  0  0
  -24.8580  -27.7060   19.5110 C   0  0  0  0  0  3  0  0  0  0  0  0
  -23.6040  -29.8380   20.1790 C   0  0  0  0  0  2  0  0  0  0  0  0
  -24.6570  -31.1040   22.1040 N   0  0  0  0  0  0  0  0  0  0  0  0
  -23.5160  -32.1740   23.7500 O   0  0  0  0  0  0  0  0  0  0  0  0
  -22.7380  -29.4860   22.5200 C   0  0  0  0  0  0  0  0  0  0  0  0
  -21.4140  -29.2990   22.3930 N   0  0  0  0  0  0  0  0  0  0  0  0
  -23.4210  -28.8610   23.3370 O   0  0  0  0  0  0  0  0  0  0  0  0
  -20.9230  -29.8550   21.7060 H   0  0  0  0  0  0  0  0  0  0  0  0
  -18.0480  -28.0640   22.8730 C   0  0  0  0  0  0  0  0  0  0  0  0
  -20.6020  -28.3530   23.1590 C   0  0  0  0  0  3  0  0  0  0  0  0
  -20.7230  -26.9220   22.5870 C   0  0  0  0  0  2  0  0  0  0  0  0
  -19.6320  -26.5840   21.5670 C   0  0  0  0  0  2  0  0  0  0  0  0
  -18.2450  -26.7150   22.2010 C   0  0  0  0  0  2  0  0  0  0  0  0
  -19.1550  -28.8390   23.3080 C   0  0  0  0  0  0  0  0  0  0  0  0
  -18.9170  -30.1010   23.8960 C   0  0  0  0  0  3  0  0  0  0  0  0
  -17.6050  -30.5870   24.0530 C   0  0  0  0  0  3  0  0  0  0  0  0
  -16.5140  -29.8090   23.6330 C   0  0  0  0  0  3  0  0  0  0  0  0
  -16.7350  -28.5500   23.0490 C   0  0  0  0  0  3  0  0  0  0  0  0
  -25.8810  -32.5360   23.8290 C   0  0  0  0  0  3  0  0  0  0  0  0
  -25.5700  -33.9320   24.1700 N   0  0  0  0  0  0  0  0  0  0  0  0
  -25.8960  -34.9900   23.4160 C   0  0  0  0  0  0  0  0  0  0  0  0
  -26.5640  -34.8950   22.3820 O   0  0  0  0  0  0  0  0  0  0  0  0
  -24.9790  -34.0800   24.9740 H   0  0  0  0  0  0  0  0  0  0  0  0
  -24.1630  -36.7810   23.0810 C   0  0  0  0  0  1  0  0  0  0  0  0
  -25.4080  -36.3750   23.8840 C   0  0  0  0  0  3  0  0  0  0  0  0
  -27.5460  -37.2590   24.7110 C   0  0  0  0  0  1  0  0  0  0  0  0
  -26.4390  -37.4310   23.7730 N   0  0  0  0  0  0  0  0  0  0  0  0
  -26.0310  -38.3490   23.9290 H   0  0  0  0  0  0  0  0  0  0  0  0
  -26.4050  -31.7590   25.0980 C   0  0  1  0  0  0  0  0  0  0  0  0
  -25.3180  -31.5120   26.1700 C   0  0  0  0  0  1  0  0  0  0  0  0
  -26.9900  -30.3840   24.6970 C   0  0  0  0  0  1  0  0  0  0  0  0
  -27.5580  -32.5510   25.7600 C   0  0  0  0  0  1  0  0  0  0  0  0
  2  1  2  0
  3  1  1  0
  4  5  2  0
  4  6  1  0
  5  2  1  0
  6  3  2  0
  7  5  1  0
  7  9  1  0
  8  7  2  0
 10 11  1  0
 10  9  1  0
 11 12  1  0
 13 12  1  0
 14 19  1  0
 15 16  1  0
 15 14  1  0
 17 16  1  0
 17 24  1  0
 17 18  1  0
 19 13  1  0
 19 18  1  0
 20 13  2  0
 21 22  2  0
 22 41  1  0
 23 22  1  0
 23 26  1  0
 24 21  1  0
 24 25  1  0
 25 23  2  0
 26 27  1  0
 27 28  2  0
 29 32  1  0
 29 28  1  0
 30 29  2  0
 31 30  1  0
 31 26  2  0
 32 33  1  0
 33 34  1  0
 34 35  2  0
 36 35  1  0
 36 40  1  0
 37 36  2  0
 38 33  2  0
 38 37  1  0
 39 38  1  0
 41 42  1  0
 42 45  1  0
 42 44  1  0
 43 41  2  0
 46 47  1  0
 46 21  1  0
 48 46  1  0
 49 51  1  0
 49  6  1  0
 50 61  2  0
 51 56  1  0
 52 60  1  0
 52 62  1  0
 53 59  1  0
 53 55  1  0
 54 60  1  0
 55 54  1  0
 56 55  2  0
 57 58  1  0
 57 51  2  0
 58 53  2  0
 59 52  1  0
 60 50  1  0
 62 64  2  0
 63 62  1  0
 65 63  1  0
 66 75  2  0
 66 71  1  0
 67 63  1  0
 67 71  1  0
 68 67  1  0
 69 70  1  0
 69 68  1  0
 70 66  1  0
 71 72  2  0
 72 73  1  0
 74 73  2  0
 75 74  1  0
 76 50  1  0
 76 77  1  0
 76 86  1  0
 77 80  1  0
 78 82  1  0
 78 77  1  0
 79 78  2  0
 82 81  1  0
 84 82  1  0
 84 85  1  0
 84 83  1  0
 86 89  1  1
 86 87  1  0
 88 86  1  0
M  ISO  4   6 101  12 100  13 100  49 101
M  END
>  <TORSDO>  (66) 
F 21

>  <SCORE>  (66) 
-13.027

>  <name>  (66) 
65

>  <ligand_id>  (66) 
65

>  <original_smiles>  (66) 
[H]c1c([H])c(Oc2c([H])c([H])c3c(c2[H])C([H])([H])N(C(=O)C([H])(N([H])C(=O)C([H])(N([H])C([H])([H])[H])C([H])([H])[H])C(C([H])([H])[H])(C([H])([H])[H])C([H])([H])[H])C([H])(C(=O)N([H])C2([H])c4c([H])c([H])c([H])c([H])c4C([H])([H])C([H])([H])C2([H])[H])C3([H])[H])c([H])c(C(=O)C([H])([H])C([H])([H])C([H])([H])C([H])([H])C(=O)N2C([H])([H])C([H])([H])C([H])([H])C([H])(n3nc(-c4c([H])c([H])c(Oc5c([H])c([H])c(F)c([H])c5F)c([H])c4[H])c(C(=O)N([H])[H])c3N([H])[H])C2([H])[H])c1[H]

>  <smiles>  (66) 
[H]c1c([H])c(Oc2c([H])c([H])c3c(c2[H])C([H])([H])N(C(=O)C([H])(N([H])C(=O)C([H])(N([H])C([H])([H])[H])C([H])([H])[H])C(C([H])([H])[H])(C([H])([H])[H])C([H])([H])[H])C([H])(C(=O)N([H])C2([H])c4c([H])c([H])c([H])c([H])c4C([H])([H])C([H])([H])C2([H])[H])C3([H])[H])c([H])c(C(=O)C([H])([H])C([H])([H])C([H])([H])C([H])([H])C(=O)N2C([H])([H])C([H])([H])C([H])([H])C([H])(n3nc(-c4c([H])c([H])c(Oc5c([H])c([H])c(F)c([H])c5F)c([H])c4[H])c(C(=O)N([H])[H])c3N([H])[H])C2([H])[H])c1[H]

$$$$
66:0:0
     RDKit          3D

 90 98  0  0  1  0  0  0  0  0999 V2000
  -28.4940  -21.2080   19.5900 C   0  0  0  0  0  3  0  0  0  0  0  0
  -29.9850  -21.3100   21.4110 C   0  0  0  0  0  3  0  0  0  0  0  0
  -28.7520  -19.7760   19.4880 C   0  0  0  0  0  3  0  0  0  0  0  0
  -30.2400  -19.8900   21.3120 C   0  0  0  0  0  3  0  0  0  0  0  0
  -29.1270  -22.0740   20.5450 C   0  0  0  0  0  0  0  0  0  0  0  0
  -29.6670  -19.0350   20.3220 C   0  0  0  0  0  0  0  0  0  0  0  0
  -29.0600  -23.6830   20.6960 C   0  0  0  0  0  0  0  0  0  0  0  0
  -29.8910  -24.2030   21.4480 O   0  0  0  0  0  0  0  0  0  0  0  0
  -28.0380  -24.7600   20.0200 C   0  0  0  0  0  2  0  0  0  0  0  0
  -28.2610  -26.2700   20.2710 O   0  0  0  0  0  0  0  0  0  0  0  0
  -24.6090  -31.8860   23.2390 C   0  0  0  0  0  0  0  0  0  0  0  0
  -27.1900  -27.2170   20.1930 C   0  0  0  0  0  0  0  0  0  0  0  0
  -23.4040  -30.4890   21.6020 C   0  0  0  0  0  3  0  0  0  0  0  0
  -24.8500  -28.9260   20.1680 C   0  0  0  0  0  0  0  0  0  0  0  0
  -25.9530  -30.7730   21.4250 C   0  0  0  0  0  2  0  0  0  0  0  0
  -26.0280  -29.3850   20.7720 C   0  0  0  0  0  0  0  0  0  0  0  0
  -27.1980  -28.5450   20.7690 C   0  0  0  0  0  3  0  0  0  0  0  0
  -25.9880  -26.8490   19.5480 C   0  0  0  0  0  3  0  0  0  0  0  0
  -24.8410  -27.6710   19.5420 C   0  0  0  0  0  3  0  0  0  0  0  0
  -23.6190  -29.8140   20.2220 C   0  0  0  0  0  2  0  0  0  0  0  0
  -24.6750  -31.0700   22.1440 N   0  0  0  0  0  0  0  0  0  0  0  0
  -23.5250  -32.1670   23.7730 O   0  0  0  0  0  0  0  0  0  0  0  0
  -22.7340  -29.4780   22.5660 C   0  0  0  0  0  0  0  0  0  0  0  0
  -21.4080  -29.2990   22.4400 N   0  0  0  0  0  0  0  0  0  0  0  0
  -23.4110  -28.8560   23.3890 O   0  0  0  0  0  0  0  0  0  0  0  0
  -20.9190  -29.8530   21.7510 H   0  0  0  0  0  0  0  0  0  0  0  0
  -18.0350  -28.0760   22.9330 C   0  0  0  0  0  0  0  0  0  0  0  0
  -20.5910  -28.3610   23.2140 C   0  0  0  0  0  3  0  0  0  0  0  0
  -20.7080  -26.9260   22.6490 C   0  0  0  0  0  2  0  0  0  0  0  0
  -19.6140  -26.5870   21.6320 C   0  0  0  0  0  2  0  0  0  0  0  0
  -18.2270  -26.7240   22.2670 C   0  0  0  0  0  2  0  0  0  0  0  0
  -19.1460  -28.8510   23.3640 C   0  0  0  0  0  0  0  0  0  0  0  0
  -18.9120  -30.1150   23.9480 C   0  0  0  0  0  3  0  0  0  0  0  0
  -17.6010  -30.6040   24.1060 C   0  0  0  0  0  3  0  0  0  0  0  0
  -16.5060  -29.8270   23.6910 C   0  0  0  0  0  3  0  0  0  0  0  0
  -16.7240  -28.5650   23.1100 C   0  0  0  0  0  3  0  0  0  0  0  0
  -25.8890  -32.5230   23.8610 C   0  0  0  0  0  3  0  0  0  0  0  0
  -26.4030  -31.7570   25.1420 C   0  0  1  0  0  0  0  0  0  0  0  0
  -25.3090  -31.5270   26.2110 C   0  0  0  0  0  1  0  0  0  0  0  0
  -26.9840  -30.3750   24.7610 C   0  0  0  0  0  1  0  0  0  0  0  0
  -27.5550  -32.5520   25.8010 C   0  0  0  0  0  1  0  0  0  0  0  0
  -25.5780  -33.9230   24.1900 N   0  0  0  0  0  0  0  0  0  0  0  0
  -25.9070  -34.9770   23.4330 C   0  0  0  0  0  0  0  0  0  0  0  0
  -26.5710  -34.8740   22.3980 O   0  0  0  0  0  0  0  0  0  0  0  0
  -24.9870  -34.0760   24.9950 H   0  0  0  0  0  0  0  0  0  0  0  0
  -24.1770  -36.7740   23.0920 C   0  0  0  0  0  1  0  0  0  0  0  0
  -25.4230  -36.3670   23.8950 C   0  0  0  0  0  3  0  0  0  0  0  0
  -27.5630  -37.2510   24.7150 C   0  0  0  0  0  1  0  0  0  0  0  0
  -26.4560  -37.4190   23.7760 N   0  0  0  0  0  0  0  0  0  0  0  0
  -26.0510  -38.3390   23.9260 H   0  0  0  0  0  0  0  0  0  0  0  0
  -30.4730  -17.4820   18.4390 C   0  0  0  0  0  1  0  0  0  0  0  0
  -30.2920  -17.5530   19.9690 C   0  0  0  0  0  3  0  0  0  0  0  0
  -30.5840  -14.9210   20.3480 C   0  0  0  0  0  0  0  0  0  0  0  0
  -30.3910  -12.6060   19.3790 C   0  0  0  0  0  2  0  0  0  0  0  0
  -29.4640  -12.6270   18.1430 C   0  0  0  0  0  2  0  0  0  0  0  0
  -27.9960  -12.4400   18.5690 C   0  0  0  0  0  2  0  0  0  0  0  0
  -27.6060  -13.3440   19.7690 C   0  0  0  0  0  3  0  0  0  0  0  0
  -28.6610  -13.3140   20.8970 C   0  0  0  0  0  2  0  0  0  0  0  0
  -29.9440  -13.6890   20.2950 N   0  0  0  0  0  0  0  0  0  0  0  0
  -31.7850  -14.9480   20.0650 O   0  0  0  0  0  0  0  0  0  0  0  0
  -29.8570  -16.1310   20.4520 N   0  0  0  0  0  0  0  0  0  0  0  0
  -28.8810  -16.0330   20.6920 H   0  0  0  0  0  0  0  0  0  0  0  0
  -25.2200  -13.9260   20.4920 C   0  0  0  0  0  0  0  0  0  0  0  0
  -24.1550  -13.1510   20.8610 C   0  0  0  0  0  0  0  0  0  0  0  0
  -24.6210  -11.8010   20.8390 C   0  0  0  0  0  0  0  0  0  0  0  0
  -26.2650  -13.0470   20.2620 N   0  0  0  0  0  0  0  0  0  0  0  0
  -25.9130  -11.7640   20.5370 N   0  0  0  0  0  0  0  0  0  0  0  0
  -23.8930  -10.5390   21.0300 C   0  0  0  0  0  0  0  0  0  0  0  0
  -24.3210   -9.5730   21.9660 C   0  0  0  0  0  3  0  0  0  0  0  0
  -23.5920   -8.3760   22.1450 C   0  0  0  0  0  3  0  0  0  0  0  0
  -22.4200   -8.1390   21.3890 C   0  0  0  0  0  0  0  0  0  0  0  0
  -22.0110   -9.0940   20.4410 C   0  0  0  0  0  3  0  0  0  0  0  0
  -22.7410  -10.2800   20.2590 C   0  0  0  0  0  3  0  0  0  0  0  0
  -21.6640   -6.9960   21.4770 O   0  0  0  0  0  0  0  0  0  0  0  0
  -21.6100   -6.2560   22.6310 C   0  0  0  0  0  0  0  0  0  0  0  0
  -21.1800   -6.8140   23.8540 C   0  0  0  0  0  3  0  0  0  0  0  0
  -21.0730   -6.0010   25.0000 C   0  0  0  0  0  3  0  0  0  0  0  0
  -21.3850   -4.6310   24.9230 C   0  0  0  0  0  0  0  0  0  0  0  0
  -21.8080   -4.0720   23.7050 C   0  0  0  0  0  3  0  0  0  0  0  0
  -21.9160   -4.8820   22.5610 C   0  0  0  0  0  0  0  0  0  0  0  0
  -22.3030   -4.3340   21.3840 F   0  0  0  0  0  0  0  0  0  0  0  0
  -21.2760   -3.8470   26.0220 F   0  0  0  0  0  0  0  0  0  0  0  0
  -22.7560  -13.6290   21.1210 C   0  0  0  0  0  0  0  0  0  0  0  0
  -22.0220  -12.9380   21.9850 N   0  0  0  0  0  0  0  0  0  0  0  0
  -22.3220  -14.6520   20.5910 O   0  0  0  0  0  0  0  0  0  0  0  0
  -22.3870  -12.1110   22.4350 H   0  0  0  0  0  0  0  0  0  0  0  0
  -21.0840  -13.2410   22.2020 H   0  0  0  0  0  0  0  0  0  0  0  0
  -25.3830  -15.2960   20.3080 N   0  0  0  0  0  0  0  0  0  0  0  0
  -24.6100  -15.9470   20.4060 H   0  0  0  0  0  0  0  0  0  0  0  0
  -26.2230  -15.7330   19.9530 H   0  0  0  0  0  0  0  0  0  0  0  0
  1  5  1  0
  3  1  2  0
  3  6  1  0
  4  2  1  0
  5  7  1  0
  5  2  2  0
  6  4  2  0
  7  8  2  0
  9 10  1  0
  9  7  1  0
 11 22  2  0
 12 10  1  0
 12 17  1  0
 13 21  1  0
 13 23  1  0
 14 20  1  0
 14 16  1  0
 15 21  1  0
 16 15  1  0
 17 16  2  0
 18 12  2  0
 19 18  1  0
 19 14  2  0
 20 13  1  0
 21 11  1  0
 23 25  2  0
 24 23  1  0
 26 24  1  0
 27 36  2  0
 27 32  1  0
 28 24  1  0
 28 32  1  0
 29 28  1  0
 30 31  1  0
 30 29  1  0
 31 27  1  0
 32 33  2  0
 33 34  1  0
 35 34  2  0
 36 35  1  0
 37 11  1  0
 37 42  1  0
 37 38  1  0
 38 41  1  1
 38 39  1  0
 40 38  1  0
 42 45  1  0
 43 47  1  0
 43 42  1  0
 44 43  2  0
 47 46  1  0
 49 47  1  0
 49 50  1  0
 49 48  1  0
 52 51  1  0
 52  6  1  0
 52 61  1  0
 53 61  1  0
 54 59  1  0
 55 56  1  0
 55 54  1  0
 57 56  1  0
 57 66  1  0
 57 58  1  0
 59 53  1  0
 59 58  1  0
 60 53  2  0
 61 62  1  0
 63 64  2  0
 64 83  1  0
 65 64  1  0
 65 68  1  0
 66 63  1  0
 66 67  1  0
 67 65  2  0
 68 69  1  0
 69 70  2  0
 71 74  1  0
 71 70  1  0
 72 71  2  0
 73 72  1  0
 73 68  2  0
 74 75  1  0
 75 76  1  0
 76 77  2  0
 78 77  1  0
 78 82  1  0
 79 78  2  0
 80 75  2  0
 80 79  1  0
 81 80  1  0
 83 84  1  0
 84 87  1  0
 84 86  1  0
 85 83  2  0
 88 89  1  0
 88 63  1  0
 90 88  1  0
M  ISO  4   9 101  10 101  53 100  61 100
M  END
>  <TORSDO>  (67) 
F 19

>  <SCORE>  (67) 
-14.283

>  <name>  (67) 
66

>  <ligand_id>  (67) 
66

>  <original_smiles>  (67) 
[H]c1c([H])c([H])c2c(c1[H])C([H])([H])C([H])([H])C([H])([H])C2([H])N([H])C(=O)C1([H])N(C(=O)C([H])(N([H])C(=O)C([H])(N([H])C([H])([H])[H])C([H])([H])[H])C(C([H])([H])[H])(C([H])([H])[H])C([H])([H])[H])C([H])([H])c2c([H])c(OC([H])([H])C(=O)c3c([H])c([H])c(C([H])(N([H])C(=O)N4C([H])([H])C([H])([H])C([H])([H])C([H])(n5nc(-c6c([H])c([H])c(Oc7c([H])c([H])c(F)c([H])c7F)c([H])c6[H])c(C(=O)N([H])[H])c5N([H])[H])C4([H])[H])C([H])([H])[H])c([H])c3[H])c([H])c([H])c2C1([H])[H]

>  <smiles>  (67) 
[H]c1c([H])c([H])c2c(c1[H])C([H])([H])C([H])([H])C([H])([H])C2([H])N([H])C(=O)C1([H])N(C(=O)C([H])(N([H])C(=O)C([H])(N([H])C([H])([H])[H])C([H])([H])[H])C(C([H])([H])[H])(C([H])([H])[H])C([H])([H])[H])C([H])([H])c2c([H])c(OC([H])([H])C(=O)c3c([H])c([H])c(C([H])(N([H])C(=O)N4C([H])([H])C([H])([H])C([H])([H])C([H])(n5nc(-c6c([H])c([H])c(Oc7c([H])c([H])c(F)c([H])c7F)c([H])c6[H])c(C(=O)N([H])[H])c5N([H])[H])C4([H])[H])C([H])([H])[H])c([H])c3[H])c([H])c([H])c2C1([H])[H]

$$$$
67:0:0
     RDKit          3D

 90 98  0  0  1  0  0  0  0  0999 V2000
  -28.2460  -22.0120   19.1890 C   0  0  0  0  0  3  0  0  0  0  0  0
  -28.0310  -23.4880   19.1790 C   0  0  0  0  0  3  0  0  0  0  0  0
  -29.0150  -22.1260   21.3350 C   0  0  0  0  0  3  0  0  0  0  0  0
  -28.7840  -21.1670   20.2580 C   0  0  0  0  0  0  0  0  0  0  0  0
  -28.7980  -23.6070   21.3390 C   0  0  0  0  0  0  0  0  0  0  0  0
  -28.2630  -24.4410   20.2600 C   0  0  0  0  0  0  0  0  0  0  0  0
  -29.1730  -24.3500   22.6060 C   0  0  0  0  0  1  0  0  0  0  0  0
  -28.7230  -19.4470   20.3440 C   0  0  0  0  0  0  0  0  0  0  0  0
  -27.5710  -19.0700   20.5640 O   0  0  0  0  0  0  0  0  0  0  0  0
  -29.5330  -16.6880   20.3090 C   0  0  0  0  0  3  0  0  0  0  0  0
  -29.7800  -18.1390   20.1910 C   0  0  0  0  0  0  0  0  0  0  0  0
  -30.4040  -15.3230   20.1530 C   0  0  0  0  0  0  0  0  0  0  0  0
  -30.3950  -12.8730   19.2980 C   0  0  0  0  0  2  0  0  0  0  0  0
  -29.4620  -12.6830   18.0740 C   0  0  0  0  0  2  0  0  0  0  0  0
  -28.0180  -12.4050   18.5270 C   0  0  0  0  0  2  0  0  0  0  0  0
  -27.5760  -13.3580   19.6650 C   0  0  0  0  0  3  0  0  0  0  0  0
  -28.6350  -13.5010   20.7750 C   0  0  0  0  0  2  0  0  0  0  0  0
  -29.8650  -14.0050   20.1440 N   0  0  0  0  0  0  0  0  0  0  0  0
  -31.6150  -15.3190   19.8870 O   0  0  0  0  0  0  0  0  0  0  0  0
  -25.2180  -13.8920   20.4740 C   0  0  0  0  0  0  0  0  0  0  0  0
  -24.1690  -13.1030   20.8540 C   0  0  0  0  0  0  0  0  0  0  0  0
  -24.6450  -11.7570   20.7990 C   0  0  0  0  0  0  0  0  0  0  0  0
  -26.2610  -13.0260   20.1960 N   0  0  0  0  0  0  0  0  0  0  0  0
  -25.9300  -11.7360   20.4600 N   0  0  0  0  0  0  0  0  0  0  0  0
  -23.9290  -10.4880   20.9870 C   0  0  0  0  0  0  0  0  0  0  0  0
  -24.3590   -9.5280   21.9300 C   0  0  0  0  0  3  0  0  0  0  0  0
  -23.6400   -8.3260   22.1070 C   0  0  0  0  0  3  0  0  0  0  0  0
  -22.4760   -8.0750   21.3410 C   0  0  0  0  0  0  0  0  0  0  0  0
  -22.0670   -9.0220   20.3870 C   0  0  0  0  0  3  0  0  0  0  0  0
  -22.7860  -10.2150   20.2080 C   0  0  0  0  0  3  0  0  0  0  0  0
  -21.7310   -6.9230   21.4260 O   0  0  0  0  0  0  0  0  0  0  0  0
  -21.6390   -6.2100   22.5950 C   0  0  0  0  0  0  0  0  0  0  0  0
  -21.1080   -6.7770   23.7740 C   0  0  0  0  0  3  0  0  0  0  0  0
  -20.9670   -5.9870   24.9320 C   0  0  0  0  0  3  0  0  0  0  0  0
  -21.3460   -4.6320   24.9120 C   0  0  0  0  0  0  0  0  0  0  0  0
  -21.8700   -4.0650   23.7370 C   0  0  0  0  0  3  0  0  0  0  0  0
  -22.0130   -4.8520   22.5810 C   0  0  0  0  0  0  0  0  0  0  0  0
  -22.4970   -4.2940   21.4460 F   0  0  0  0  0  0  0  0  0  0  0  0
  -21.2050   -3.8720   26.0230 F   0  0  0  0  0  0  0  0  0  0  0  0
  -22.7740  -13.5680   21.1530 C   0  0  0  0  0  0  0  0  0  0  0  0
  -22.0680  -12.8640   22.0300 N   0  0  0  0  0  0  0  0  0  0  0  0
  -22.3200  -14.5920   20.6430 O   0  0  0  0  0  0  0  0  0  0  0  0
  -22.4500  -12.0360   22.4630 H   0  0  0  0  0  0  0  0  0  0  0  0
  -21.1320  -13.1560   22.2720 H   0  0  0  0  0  0  0  0  0  0  0  0
  -25.3670  -15.2650   20.3110 N   0  0  0  0  0  0  0  0  0  0  0  0
  -24.5980  -15.9110   20.4520 H   0  0  0  0  0  0  0  0  0  0  0  0
  -26.2010  -15.7190   19.9600 H   0  0  0  0  0  0  0  0  0  0  0  0
  -31.0290  -18.5360   19.9010 O   0  0  0  0  0  0  0  0  0  0  0  0
  -31.0160  -19.4840   19.8410 H   0  0  0  0  0  0  0  0  0  0  0  0
  -28.2410  -25.9780   20.2330 O   0  0  0  0  0  0  0  0  0  0  0  0
  -24.6550  -31.8960   23.2330 C   0  0  0  0  0  0  0  0  0  0  0  0
  -27.1820  -27.0180   20.2210 C   0  0  0  0  0  0  0  0  0  0  0  0
  -23.4480  -30.5040   21.5980 C   0  0  0  0  0  3  0  0  0  0  0  0
  -24.8840  -28.8870   20.1760 C   0  0  0  0  0  0  0  0  0  0  0  0
  -26.0120  -30.7080   21.4430 C   0  0  0  0  0  2  0  0  0  0  0  0
  -26.0720  -29.2960   20.7940 C   0  0  0  0  0  0  0  0  0  0  0  0
  -27.2130  -28.3810   20.7930 C   0  0  0  0  0  3  0  0  0  0  0  0
  -25.9660  -26.7520   19.5550 C   0  0  0  0  0  3  0  0  0  0  0  0
  -24.8530  -27.6350   19.5380 C   0  0  0  0  0  3  0  0  0  0  0  0
  -23.6690  -29.8140   20.2230 C   0  0  0  0  0  2  0  0  0  0  0  0
  -24.7260  -31.0630   22.1460 N   0  0  0  0  0  0  0  0  0  0  0  0
  -23.5680  -32.1910   23.7590 O   0  0  0  0  0  0  0  0  0  0  0  0
  -22.7550  -29.5130   22.5680 C   0  0  0  0  0  0  0  0  0  0  0  0
  -21.4250  -29.3470   22.4420 N   0  0  0  0  0  0  0  0  0  0  0  0
  -23.4200  -28.8910   23.4010 O   0  0  0  0  0  0  0  0  0  0  0  0
  -20.9410  -29.8990   21.7470 H   0  0  0  0  0  0  0  0  0  0  0  0
  -18.0410  -28.1460   22.9550 C   0  0  0  0  0  0  0  0  0  0  0  0
  -20.6010  -28.4130   23.2170 C   0  0  0  0  0  3  0  0  0  0  0  0
  -20.7030  -26.9790   22.6470 C   0  0  0  0  0  2  0  0  0  0  0  0
  -19.6000  -26.6530   21.6340 C   0  0  0  0  0  2  0  0  0  0  0  0
  -18.2180  -26.7960   22.2790 C   0  0  0  0  0  2  0  0  0  0  0  0
  -19.1590  -28.9110   23.3810 C   0  0  0  0  0  0  0  0  0  0  0  0
  -18.9370  -30.1720   23.9760 C   0  0  0  0  0  3  0  0  0  0  0  0
  -17.6300  -30.6680   24.1490 C   0  0  0  0  0  3  0  0  0  0  0  0
  -16.5270  -29.9000   23.7350 C   0  0  0  0  0  3  0  0  0  0  0  0
  -16.7330  -28.6410   23.1450 C   0  0  0  0  0  3  0  0  0  0  0  0
  -25.9310  -32.5330   23.8620 C   0  0  0  0  0  3  0  0  0  0  0  0
  -26.4430  -31.7620   25.1410 C   0  0  1  0  0  0  0  0  0  0  0  0
  -25.3470  -31.5250   26.2070 C   0  0  0  0  0  1  0  0  0  0  0  0
  -27.0270  -30.3820   24.7580 C   0  0  0  0  0  1  0  0  0  0  0  0
  -27.5920  -32.5550   25.8060 C   0  0  0  0  0  1  0  0  0  0  0  0
  -25.6170  -33.9310   24.2070 N   0  0  0  0  0  0  0  0  0  0  0  0
  -25.9150  -34.9940   23.4480 C   0  0  0  0  0  0  0  0  0  0  0  0
  -26.5440  -34.9030   22.3910 O   0  0  0  0  0  0  0  0  0  0  0  0
  -25.0500  -34.0750   25.0300 H   0  0  0  0  0  0  0  0  0  0  0  0
  -24.1540  -36.7790   23.1960 C   0  0  0  0  0  1  0  0  0  0  0  0
  -25.4410  -36.3790   23.9360 C   0  0  0  0  0  3  0  0  0  0  0  0
  -27.6040  -37.2910   24.6620 C   0  0  0  0  0  1  0  0  0  0  0  0
  -26.4580  -37.4430   23.7700 N   0  0  0  0  0  0  0  0  0  0  0  0
  -26.0500  -38.3600   23.9310 H   0  0  0  0  0  0  0  0  0  0  0  0
  1  4  1  0
  2  1  2  0
  2  6  1  0
  3  5  1  0
  4  8  1  0
  4  3  2  0
  5  7  1  0
  6  5  2  0
  8  9  2  0
 11 10  2  0
 11  8  1  0
 12 10  1  0
 13 18  1  0
 14 15  1  0
 14 13  1  0
 16 15  1  0
 16 23  1  0
 16 17  1  0
 18 12  1  0
 18 17  1  0
 19 12  2  0
 20 21  2  0
 21 40  1  0
 22 21  1  0
 22 25  1  0
 23 24  1  0
 23 20  1  0
 24 22  2  0
 25 26  1  0
 26 27  2  0
 28 31  1  0
 28 27  1  0
 29 28  2  0
 30 29  1  0
 30 25  2  0
 31 32  1  0
 32 33  1  0
 33 34  2  0
 35 34  1  0
 35 39  1  0
 36 35  2  0
 37 32  2  0
 37 36  1  0
 38 37  1  0
 40 41  1  0
 41 44  1  0
 41 43  1  0
 42 40  2  0
 45 46  1  0
 45 20  1  0
 47 45  1  0
 48 11  1  0
 49 48  1  0
 50  6  1  0
 51 62  2  0
 52 50  1  0
 52 57  1  0
 53 61  1  0
 53 63  1  0
 54 60  1  0
 54 56  1  0
 55 61  1  0
 56 55  1  0
 57 56  2  0
 58 52  2  0
 59 58  1  0
 59 54  2  0
 60 53  1  0
 61 51  1  0
 63 65  2  0
 64 63  1  0
 66 64  1  0
 67 76  2  0
 67 72  1  0
 68 64  1  0
 68 72  1  0
 69 68  1  0
 70 71  1  0
 70 69  1  0
 71 67  1  0
 72 73  2  0
 73 74  1  0
 75 74  2  0
 76 75  1  0
 77 51  1  0
 77 82  1  0
 77 78  1  0
 78 81  1  1
 78 79  1  0
 80 78  1  0
 82 85  1  0
 83 87  1  0
 83 82  1  0
 84 83  2  0
 87 86  1  0
 89 90  1  0
 89 87  1  0
 89 88  1  0
M  ISO  4   6 101  10 100  12 100  50 101
M  END
>  <TORSDO>  (68) 
F 19

>  <SCORE>  (68) 
-14.878

>  <name>  (68) 
67

>  <ligand_id>  (68) 
67

>  <original_smiles>  (68) 
[H]OC(C(=O)c1c([H])c([H])c(Oc2c([H])c([H])c3c(c2[H])C([H])([H])N(C(=O)C([H])(N([H])C(=O)C([H])(N([H])C([H])([H])[H])C([H])([H])[H])C(C([H])([H])[H])(C([H])([H])[H])C([H])([H])[H])C([H])(C(=O)N([H])C2([H])c4c([H])c([H])c([H])c([H])c4C([H])([H])C([H])([H])C2([H])[H])C3([H])[H])c(C([H])([H])[H])c1[H])=C([H])C(=O)N1C([H])([H])C([H])([H])C([H])([H])C([H])(n2nc(-c3c([H])c([H])c(Oc4c([H])c([H])c(F)c([H])c4F)c([H])c3[H])c(C(=O)N([H])[H])c2N([H])[H])C1([H])[H]

>  <smiles>  (68) 
[H]OC(C(=O)c1c([H])c([H])c(Oc2c([H])c([H])c3c(c2[H])C([H])([H])N(C(=O)C([H])(N([H])C(=O)C([H])(N([H])C([H])([H])[H])C([H])([H])[H])C(C([H])([H])[H])(C([H])([H])[H])C([H])([H])[H])C([H])(C(=O)N([H])C2([H])c4c([H])c([H])c([H])c([H])c4C([H])([H])C([H])([H])C2([H])[H])C3([H])[H])c(C([H])([H])[H])c1[H])=C([H])C(=O)N1C([H])([H])C([H])([H])C([H])([H])C([H])(n2nc(-c3c([H])c([H])c(Oc4c([H])c([H])c(F)c([H])c4F)c([H])c3[H])c(C(=O)N([H])[H])c2N([H])[H])C1([H])[H]

$$$$
68:0:0
     RDKit          3D

 99108  0  0  1  0  0  0  0  0999 V2000
  -28.6690  -22.7350   21.3400 C   0  0  0  0  0  2  0  0  0  0  0  0
  -28.2910  -24.2400   21.5720 C   0  0  0  0  0  2  0  0  0  0  0  0
  -28.6970  -22.5000   19.8200 C   0  0  0  0  0  3  0  0  0  0  0  0
  -29.0560  -23.9780   19.3100 C   0  0  0  0  0  3  0  0  0  0  0  0
  -28.1550  -24.9340   20.1940 C   0  0  0  0  0  3  0  0  0  0  0  0
  -29.6890  -21.0780   17.9160 C   0  0  0  0  0  3  0  0  0  0  0  0
  -30.1130  -19.8820   17.3160 C   0  0  0  0  0  3  0  0  0  0  0  0
  -29.5780  -19.9210   20.0460 C   0  0  0  0  0  3  0  0  0  0  0  0
  -30.0190  -18.6580   19.4570 C   0  0  0  0  0  0  0  0  0  0  0  0
  -29.3810  -21.1530   19.2900 C   0  0  0  0  0  0  0  0  0  0  0  0
  -30.2680  -18.6970   18.0560 C   0  0  0  0  0  0  0  0  0  0  0  0
  -30.7440  -17.5840   17.3590 N   0  0  0  0  0  0  0  0  0  0  0  0
  -31.2120  -17.7480   16.4740 H   0  0  0  0  0  0  0  0  0  0  0  0
  -31.1950  -16.8660   17.9130 H   0  0  0  0  0  0  0  0  0  0  0  0
  -29.9760  -16.0460   19.9540 C   0  0  0  0  0  2  0  0  0  0  0  0
  -30.4020  -17.3500   20.2040 C   0  0  0  0  0  3  0  0  0  0  0  0
  -30.6980  -14.7730   20.3280 C   0  0  0  0  0  0  0  0  0  0  0  0
  -30.4320  -12.4880   19.3990 C   0  0  0  0  0  2  0  0  0  0  0  0
  -29.5240  -12.5740   18.1570 C   0  0  0  0  0  2  0  0  0  0  0  0
  -28.0430  -12.4140   18.5610 C   0  0  0  0  0  2  0  0  0  0  0  0
  -27.6500  -13.3200   19.7570 C   0  0  0  0  0  3  0  0  0  0  0  0
  -28.6980  -13.2870   20.8870 C   0  0  0  0  0  2  0  0  0  0  0  0
  -30.0110  -13.5780   20.3010 N   0  0  0  0  0  0  0  0  0  0  0  0
  -31.9260  -14.7410   20.2500 O   0  0  0  0  0  0  0  0  0  0  0  0
  -25.2620  -13.9220   20.4520 C   0  0  0  0  0  0  0  0  0  0  0  0
  -24.1850  -13.1560   20.8070 C   0  0  0  0  0  0  0  0  0  0  0  0
  -24.6470  -11.8040   20.8070 C   0  0  0  0  0  0  0  0  0  0  0  0
  -26.3060  -13.0380   20.2420 N   0  0  0  0  0  0  0  0  0  0  0  0
  -25.9440  -11.7600   20.5230 N   0  0  0  0  0  0  0  0  0  0  0  0
  -23.9110  -10.5460   21.0000 C   0  0  0  0  0  0  0  0  0  0  0  0
  -24.3300   -9.5890   21.9530 C   0  0  0  0  0  3  0  0  0  0  0  0
  -23.5990   -8.3960   22.1330 C   0  0  0  0  0  3  0  0  0  0  0  0
  -22.4380   -8.1510   21.3640 C   0  0  0  0  0  0  0  0  0  0  0  0
  -22.0390   -9.0950   20.4030 C   0  0  0  0  0  3  0  0  0  0  0  0
  -22.7680  -10.2810   20.2190 C   0  0  0  0  0  3  0  0  0  0  0  0
  -21.6810   -7.0080   21.4540 O   0  0  0  0  0  0  0  0  0  0  0  0
  -21.6160   -6.2770   22.6140 C   0  0  0  0  0  0  0  0  0  0  0  0
  -21.1840   -6.8440   23.8320 C   0  0  0  0  0  3  0  0  0  0  0  0
  -21.0690   -6.0390   24.9820 C   0  0  0  0  0  3  0  0  0  0  0  0
  -21.3730   -4.6670   24.9150 C   0  0  0  0  0  0  0  0  0  0  0  0
  -21.7950   -4.0970   23.7000 C   0  0  0  0  0  3  0  0  0  0  0  0
  -21.9130   -4.9010   22.5530 C   0  0  0  0  0  0  0  0  0  0  0  0
  -22.3010   -4.3420   21.3800 F   0  0  0  0  0  0  0  0  0  0  0  0
  -21.2510   -3.8920   26.0160 F   0  0  0  0  0  0  0  0  0  0  0  0
  -22.7840  -13.6420   21.0370 C   0  0  0  0  0  0  0  0  0  0  0  0
  -22.0350  -12.9610   21.8980 N   0  0  0  0  0  0  0  0  0  0  0  0
  -22.3620  -14.6610   20.4930 O   0  0  0  0  0  0  0  0  0  0  0  0
  -22.3960  -12.1400   22.3620 H   0  0  0  0  0  0  0  0  0  0  0  0
  -21.0900  -13.2580   22.0930 H   0  0  0  0  0  0  0  0  0  0  0  0
  -25.4340  -15.2890   20.2610 N   0  0  0  0  0  0  0  0  0  0  0  0
  -24.6710  -15.9500   20.3530 H   0  0  0  0  0  0  0  0  0  0  0  0
  -26.3000  -15.7190   19.9680 H   0  0  0  0  0  0  0  0  0  0  0  0
  -31.4080  -17.5680   21.0650 O   0  0  0  0  0  0  0  0  0  0  0  0
  -31.7160  -18.4550   20.9290 H   0  0  0  0  0  0  0  0  0  0  0  0
  -28.8210  -24.2240   17.8690 N   0  0  0  0  0  4  0  0  0  0  0  0
  -27.8870  -23.9840   17.5880 H   0  0  0  0  0  0  0  0  0  0  0  0
  -29.4730  -23.7050   17.3080 H   0  0  0  0  0  0  0  0  0  0  0  0
  -28.9670  -25.1990   17.6590 H   0  0  0  0  0  0  0  0  0  0  0  0
  -28.3370  -26.4320   20.1940 O   0  0  0  0  0  0  0  0  0  0  0  0
  -24.6060  -31.8950   23.2340 C   0  0  0  0  0  0  0  0  0  0  0  0
  -27.2140  -27.2980   20.1750 C   0  0  0  0  0  0  0  0  0  0  0  0
  -23.4000  -30.4900   21.6030 C   0  0  0  0  0  3  0  0  0  0  0  0
  -24.8500  -28.9410   20.1740 C   0  0  0  0  0  0  0  0  0  0  0  0
  -25.9420  -30.8040   21.4130 C   0  0  0  0  0  2  0  0  0  0  0  0
  -26.0220  -29.4180   20.7720 C   0  0  0  0  0  0  0  0  0  0  0  0
  -27.2060  -28.6110   20.7610 C   0  0  0  0  0  3  0  0  0  0  0  0
  -26.0120  -26.8980   19.5400 C   0  0  0  0  0  3  0  0  0  0  0  0
  -24.8500  -27.6890   19.5500 C   0  0  0  0  0  3  0  0  0  0  0  0
  -23.6130  -29.8170   20.2220 C   0  0  0  0  0  2  0  0  0  0  0  0
  -24.6680  -31.0800   22.1390 N   0  0  0  0  0  0  0  0  0  0  0  0
  -23.5220  -32.1720   23.7680 O   0  0  0  0  0  0  0  0  0  0  0  0
  -22.7410  -29.4740   22.5640 C   0  0  0  0  0  0  0  0  0  0  0  0
  -21.4130  -29.2970   22.4440 N   0  0  0  0  0  0  0  0  0  0  0  0
  -23.4210  -28.8480   23.3810 O   0  0  0  0  0  0  0  0  0  0  0  0
  -20.9240  -29.8480   21.7520 H   0  0  0  0  0  0  0  0  0  0  0  0
  -18.0350  -28.1060   22.9530 C   0  0  0  0  0  0  0  0  0  0  0  0
  -20.5960  -28.3620   23.2170 C   0  0  0  0  0  3  0  0  0  0  0  0
  -20.6980  -26.9330   22.6380 C   0  0  0  0  0  2  0  0  0  0  0  0
  -19.5910  -26.6100   21.6290 C   0  0  0  0  0  2  0  0  0  0  0  0
  -18.2100  -26.7580   22.2740 C   0  0  0  0  0  2  0  0  0  0  0  0
  -19.1570  -28.8670   23.3800 C   0  0  0  0  0  0  0  0  0  0  0  0
  -18.9410  -30.1300   23.9740 C   0  0  0  0  0  3  0  0  0  0  0  0
  -17.6360  -30.6320   24.1450 C   0  0  0  0  0  3  0  0  0  0  0  0
  -16.5300  -29.8670   23.7360 C   0  0  0  0  0  3  0  0  0  0  0  0
  -16.7310  -28.6070   23.1450 C   0  0  0  0  0  3  0  0  0  0  0  0
  -25.8890  -32.5310   23.8490 C   0  0  0  0  0  3  0  0  0  0  0  0
  -25.5770  -33.9280   24.1810 N   0  0  0  0  0  0  0  0  0  0  0  0
  -25.9040  -34.9820   23.4200 C   0  0  0  0  0  0  0  0  0  0  0  0
  -26.5720  -34.8800   22.3870 O   0  0  0  0  0  0  0  0  0  0  0  0
  -24.9880  -34.0810   24.9850 H   0  0  0  0  0  0  0  0  0  0  0  0
  -24.1750  -36.7750   23.0630 C   0  0  0  0  0  1  0  0  0  0  0  0
  -25.4130  -36.3700   23.8790 C   0  0  0  0  0  3  0  0  0  0  0  0
  -27.5440  -37.2560   24.7190 C   0  0  0  0  0  1  0  0  0  0  0  0
  -26.4450  -37.4260   23.7740 N   0  0  0  0  0  0  0  0  0  0  0  0
  -26.0350  -38.3450   23.9240 H   0  0  0  0  0  0  0  0  0  0  0  0
  -26.4030  -31.7610   25.1260 C   0  0  1  0  0  0  0  0  0  0  0  0
  -25.3070  -31.5220   26.1910 C   0  0  0  0  0  1  0  0  0  0  0  0
  -26.9880  -30.3830   24.7370 C   0  0  0  0  0  1  0  0  0  0  0  0
  -27.5510  -32.5560   25.7890 C   0  0  0  0  0  1  0  0  0  0  0  0
  1  2  1  0
  3 10  1  0
  3  1  1  0
  4 55  1  0
  4  3  1  0
  4  5  1  0
  5 59  1  0
  5  2  1  0
  6 10  1  0
  7  6  2  0
  7 11  1  0
  9  8  1  0
  9 16  1  0
 10  8  2  0
 11  9  2  0
 12 14  1  0
 12 11  1  0
 13 12  1  0
 15 17  1  0
 16 15  1  0
 16 53  1  0
 18 23  1  0
 19 20  1  0
 19 18  1  0
 21 20  1  0
 21 28  1  0
 21 22  1  0
 23 17  1  0
 23 22  1  0
 24 17  2  0
 25 26  2  0
 26 45  1  0
 27 26  1  0
 27 30  1  0
 28 25  1  0
 28 29  1  0
 29 27  2  0
 30 31  1  0
 31 32  2  0
 33 36  1  0
 33 32  1  0
 34 33  2  0
 35 34  1  0
 35 30  2  0
 36 37  1  0
 37 38  1  0
 38 39  2  0
 40 39  1  0
 40 44  1  0
 41 40  2  0
 42 37  2  0
 42 41  1  0
 43 42  1  0
 45 46  1  0
 46 49  1  0
 46 48  1  0
 47 45  2  0
 50 51  1  0
 50 25  1  0
 52 50  1  0
 54 53  1  0
 56 55  1  0
 57 55  1  0
 58 55  1  0
 60 71  2  0
 61 59  1  0
 61 66  1  0
 62 70  1  0
 62 72  1  0
 63 69  1  0
 63 65  1  0
 64 70  1  0
 65 64  1  0
 66 65  2  0
 67 68  1  0
 67 61  2  0
 68 63  2  0
 69 62  1  0
 70 60  1  0
 72 74  2  0
 73 72  1  0
 75 73  1  0
 76 85  2  0
 76 81  1  0
 77 73  1  0
 77 81  1  0
 78 77  1  0
 79 80  1  0
 79 78  1  0
 80 76  1  0
 81 82  2  0
 82 83  1  0
 84 83  2  0
 85 84  1  0
 86 60  1  0
 86 87  1  0
 86 96  1  0
 87 90  1  0
 88 92  1  0
 88 87  1  0
 89 88  2  0
 92 91  1  0
 94 92  1  0
 94 95  1  0
 94 93  1  0
 96 99  1  1
 96 97  1  0
 98 96  1  0
M  ISO  4   5 101  15 100  17 100  59 101
M  END
>  <TORSDO>  (69) 
F 21

>  <SCORE>  (69) 
-14.337

>  <name>  (69) 
68

>  <ligand_id>  (69) 
68

>  <original_smiles>  (69) 
[H]OC(=C([H])C(=O)N1C([H])([H])C([H])([H])C([H])([H])C([H])(n2nc(-c3c([H])c([H])c(Oc4c([H])c([H])c(F)c([H])c4F)c([H])c3[H])c(C(=O)N([H])[H])c2N([H])[H])C1([H])[H])c1c([H])c(C2([H])C([H])([H])C([H])([H])C([H])(Oc3c([H])c([H])c4c(c3[H])C([H])([H])N(C(=O)C([H])(N([H])C(=O)C([H])(N([H])C([H])([H])[H])C([H])([H])[H])C(C([H])([H])[H])(C([H])([H])[H])C([H])([H])[H])C([H])(C(=O)N([H])C3([H])c5c([H])c([H])c([H])c([H])c5C([H])([H])C([H])([H])C3([H])[H])C4([H])[H])C2([H])[N+]([H])([H])[H])c([H])c([H])c1N([H])[H]

>  <smiles>  (69) 
[H]OC(=C([H])C(=O)N1C([H])([H])C([H])([H])C([H])([H])C([H])(n2nc(-c3c([H])c([H])c(Oc4c([H])c([H])c(F)c([H])c4F)c([H])c3[H])c(C(=O)N([H])[H])c2N([H])[H])C1([H])[H])c1c([H])c(C2([H])C([H])([H])C([H])([H])C([H])(Oc3c([H])c([H])c4c(c3[H])C([H])([H])N(C(=O)C([H])(N([H])C(=O)C([H])(N([H])C([H])([H])[H])C([H])([H])[H])C(C([H])([H])[H])(C([H])([H])[H])C([H])([H])[H])C([H])(C(=O)N([H])C3([H])c5c([H])c([H])c([H])c([H])c5C([H])([H])C([H])([H])C3([H])[H])C4([H])[H])C2([H])[N+]([H])([H])[H])c([H])c([H])c1N([H])[H]

$$$$
69:0:0
     RDKit          3D

 93101  0  0  1  0  0  0  0  0999 V2000
  -28.6400  -23.8980   22.2000 C   0  0  0  0  0  3  0  0  0  0  0  0
  -28.3780  -25.2230   21.7990 C   0  0  0  0  0  3  0  0  0  0  0  0
  -29.0500  -24.6470   19.5400 C   0  0  0  0  0  3  0  0  0  0  0  0
  -29.1250  -22.9200   21.2910 C   0  0  0  0  0  0  0  0  0  0  0  0
  -28.6010  -25.6090   20.4660 C   0  0  0  0  0  0  0  0  0  0  0  0
  -29.3080  -23.3160   19.9330 C   0  0  0  0  0  0  0  0  0  0  0  0
  -29.4700  -21.5710   21.8820 C   0  0  0  0  0  0  0  0  0  0  0  0
  -29.6110  -21.4270   23.1030 O   0  0  0  0  0  0  0  0  0  0  0  0
  -29.6100  -20.3180   20.9880 C   0  0  0  0  0  2  0  0  0  0  0  0
  -30.2840  -19.1110   21.6850 C   0  0  0  0  0  2  0  0  0  0  0  0
  -30.0700  -17.7690   20.9610 C   0  0  0  0  0  2  0  0  0  0  0  0
  -30.8490  -16.6200   21.6340 C   0  0  0  0  0  2  0  0  0  0  0  0
  -30.8190  -14.4800   20.3240 C   0  0  0  0  0  0  0  0  0  0  0  0
  -30.4230  -12.3970   19.0600 C   0  0  0  0  0  2  0  0  0  0  0  0
  -29.4480  -12.6470   17.8940 C   0  0  0  0  0  2  0  0  0  0  0  0
  -27.9840  -12.5250   18.3610 C   0  0  0  0  0  2  0  0  0  0  0  0
  -27.7000  -13.3360   19.6530 C   0  0  0  0  0  3  0  0  0  0  0  0
  -28.7760  -13.0520   20.7230 C   0  0  0  0  0  2  0  0  0  0  0  0
  -30.1000  -13.3420   20.1370 N   0  0  0  0  0  0  0  0  0  0  0  0
  -31.8430  -14.7520   19.6900 O   0  0  0  0  0  0  0  0  0  0  0  0
  -30.3270  -15.3090   21.2520 N   0  0  0  0  0  0  0  0  0  0  0  0
  -29.5060  -14.9850   21.7400 H   0  0  0  0  0  0  0  0  0  0  0  0
  -25.3170  -13.9710   20.4020 C   0  0  0  0  0  0  0  0  0  0  0  0
  -24.2490  -13.2090   20.7970 C   0  0  0  0  0  0  0  0  0  0  0  0
  -24.6970  -11.8530   20.7620 C   0  0  0  0  0  0  0  0  0  0  0  0
  -26.3500  -13.0790   20.1560 N   0  0  0  0  0  0  0  0  0  0  0  0
  -25.9800  -11.8020   20.4270 N   0  0  0  0  0  0  0  0  0  0  0  0
  -23.9650  -10.5990   20.9740 C   0  0  0  0  0  0  0  0  0  0  0  0
  -24.4180   -9.6270   21.8940 C   0  0  0  0  0  3  0  0  0  0  0  0
  -23.6870   -8.4360   22.0940 C   0  0  0  0  0  3  0  0  0  0  0  0
  -22.4900   -8.2090   21.3730 C   0  0  0  0  0  0  0  0  0  0  0  0
  -22.0560   -9.1690   20.4420 C   0  0  0  0  0  3  0  0  0  0  0  0
  -22.7880  -10.3520   20.2410 C   0  0  0  0  0  3  0  0  0  0  0  0
  -21.7290   -7.0700   21.4820 O   0  0  0  0  0  0  0  0  0  0  0  0
  -21.7100   -6.3230   22.6340 C   0  0  0  0  0  0  0  0  0  0  0  0
  -21.3420   -6.8820   23.8770 C   0  0  0  0  0  3  0  0  0  0  0  0
  -21.2670   -6.0640   25.0220 C   0  0  0  0  0  3  0  0  0  0  0  0
  -21.5540   -4.6900   24.9250 C   0  0  0  0  0  0  0  0  0  0  0  0
  -21.9150   -4.1300   23.6860 C   0  0  0  0  0  3  0  0  0  0  0  0
  -21.9910   -4.9450   22.5430 C   0  0  0  0  0  0  0  0  0  0  0  0
  -22.3200   -4.3980   21.3480 F   0  0  0  0  0  0  0  0  0  0  0  0
  -21.4750   -3.9010   26.0220 F   0  0  0  0  0  0  0  0  0  0  0  0
  -22.8620  -13.7010   21.0990 C   0  0  0  0  0  0  0  0  0  0  0  0
  -22.1480  -13.0180   21.9870 N   0  0  0  0  0  0  0  0  0  0  0  0
  -22.4190  -14.7250   20.5810 O   0  0  0  0  0  0  0  0  0  0  0  0
  -22.5170  -12.1910   22.4330 H   0  0  0  0  0  0  0  0  0  0  0  0
  -21.2180  -13.3330   22.2280 H   0  0  0  0  0  0  0  0  0  0  0  0
  -25.4900  -15.3390   20.2130 N   0  0  0  0  0  0  0  0  0  0  0  0
  -24.7370  -16.0060   20.3430 H   0  0  0  0  0  0  0  0  0  0  0  0
  -26.3430  -15.7690   19.8780 H   0  0  0  0  0  0  0  0  0  0  0  0
  -29.7610  -22.4710   18.9590 O   0  0  0  0  0  0  0  0  0  0  0  0
  -29.8110  -22.8770   18.0990 H   0  0  0  0  0  0  0  0  0  0  0  0
  -28.4910  -26.9180   20.0690 O   0  0  0  0  0  0  0  0  0  0  0  0
  -24.5940  -31.9520   23.2560 C   0  0  0  0  0  0  0  0  0  0  0  0
  -27.2860  -27.5690   20.1550 C   0  0  0  0  0  0  0  0  0  0  0  0
  -23.3990  -30.5420   21.6110 C   0  0  0  0  0  3  0  0  0  0  0  0
  -24.8660  -29.0180   20.1850 C   0  0  0  0  0  0  0  0  0  0  0  0
  -25.9160  -30.9320   21.4080 C   0  0  0  0  0  2  0  0  0  0  0  0
  -26.0150  -29.5620   20.7730 C   0  0  0  0  0  0  0  0  0  0  0  0
  -27.2270  -28.8400   20.7610 C   0  0  0  0  0  3  0  0  0  0  0  0
  -26.1240  -27.0250   19.5690 C   0  0  0  0  0  3  0  0  0  0  0  0
  -24.9120  -27.7460   19.5850 C   0  0  0  0  0  3  0  0  0  0  0  0
  -23.6120  -29.8630   20.2300 C   0  0  0  0  0  2  0  0  0  0  0  0
  -24.6550  -31.1570   22.1510 N   0  0  0  0  0  0  0  0  0  0  0  0
  -23.5130  -32.2110   23.7990 O   0  0  0  0  0  0  0  0  0  0  0  0
  -22.7600  -29.5120   22.5690 C   0  0  0  0  0  0  0  0  0  0  0  0
  -21.4380  -29.3170   22.4420 N   0  0  0  0  0  0  0  0  0  0  0  0
  -23.4520  -28.8900   23.3790 O   0  0  0  0  0  0  0  0  0  0  0  0
  -20.9430  -29.8680   21.7550 H   0  0  0  0  0  0  0  0  0  0  0  0
  -18.0790  -28.0880   22.9300 C   0  0  0  0  0  0  0  0  0  0  0  0
  -20.6320  -28.3700   23.2090 C   0  0  0  0  0  3  0  0  0  0  0  0
  -20.7510  -26.9420   22.6290 C   0  0  0  0  0  2  0  0  0  0  0  0
  -19.6540  -26.6100   21.6120 C   0  0  0  0  0  2  0  0  0  0  0  0
  -18.2700  -26.7410   22.2520 C   0  0  0  0  0  2  0  0  0  0  0  0
  -19.1870  -28.8600   23.3640 C   0  0  0  0  0  0  0  0  0  0  0  0
  -18.9550  -30.1210   23.9540 C   0  0  0  0  0  3  0  0  0  0  0  0
  -17.6450  -30.6100   24.1150 C   0  0  0  0  0  3  0  0  0  0  0  0
  -16.5500  -29.8340   23.6980 C   0  0  0  0  0  3  0  0  0  0  0  0
  -16.7670  -28.5750   23.1120 C   0  0  0  0  0  3  0  0  0  0  0  0
  -25.8770  -32.5930   23.8740 C   0  0  0  0  0  3  0  0  0  0  0  0
  -25.5600  -33.9900   24.1970 N   0  0  0  0  0  0  0  0  0  0  0  0
  -25.8960  -35.0410   23.4370 C   0  0  0  0  0  0  0  0  0  0  0  0
  -26.5760  -34.9370   22.4120 O   0  0  0  0  0  0  0  0  0  0  0  0
  -24.9580  -34.1450   24.9920 H   0  0  0  0  0  0  0  0  0  0  0  0
  -24.1630  -36.8220   23.0570 C   0  0  0  0  0  1  0  0  0  0  0  0
  -25.3980  -36.4280   23.8840 C   0  0  0  0  0  3  0  0  0  0  0  0
  -27.5230  -37.3200   24.7300 C   0  0  0  0  0  1  0  0  0  0  0  0
  -26.4260  -37.4850   23.7780 N   0  0  0  0  0  0  0  0  0  0  0  0
  -26.0160  -38.4040   23.9240 H   0  0  0  0  0  0  0  0  0  0  0  0
  -26.4010  -31.8290   25.1510 C   0  0  1  0  0  0  0  0  0  0  0  0
  -25.3090  -31.5870   26.2200 C   0  0  0  0  0  1  0  0  0  0  0  0
  -26.9930  -30.4550   24.7610 C   0  0  0  0  0  1  0  0  0  0  0  0
  -27.5470  -32.6330   25.8110 C   0  0  0  0  0  1  0  0  0  0  0  0
  2  1  1  0
  3  6  2  0
  3  5  1  0
  4  7  1  0
  4  1  2  0
  5  2  2  0
  6  4  1  0
  7  8  2  0
  9 10  1  0
  9  7  1  0
 11 12  1  0
 11 10  1  0
 13 21  1  0
 14 19  1  0
 15 16  1  0
 15 14  1  0
 17 16  1  0
 17 26  1  0
 17 18  1  0
 19 13  1  0
 19 18  1  0
 20 13  2  0
 21 12  1  0
 21 22  1  0
 23 24  2  0
 24 43  1  0
 25 24  1  0
 25 28  1  0
 26 23  1  0
 26 27  1  0
 27 25  2  0
 28 29  1  0
 29 30  2  0
 31 34  1  0
 31 30  1  0
 32 31  2  0
 33 32  1  0
 33 28  2  0
 34 35  1  0
 35 36  1  0
 36 37  2  0
 38 37  1  0
 38 42  1  0
 39 38  2  0
 40 35  2  0
 40 39  1  0
 41 40  1  0
 43 44  1  0
 44 47  1  0
 44 46  1  0
 45 43  2  0
 48 49  1  0
 48 23  1  0
 50 48  1  0
 51  6  1  0
 52 51  1  0
 53 55  1  0
 53  5  1  0
 54 65  2  0
 55 60  1  0
 56 64  1  0
 56 66  1  0
 57 63  1  0
 57 59  1  0
 58 64  1  0
 59 58  1  0
 60 59  2  0
 61 62  1  0
 61 55  2  0
 62 57  2  0
 63 56  1  0
 64 54  1  0
 66 68  2  0
 67 66  1  0
 69 67  1  0
 70 79  2  0
 70 75  1  0
 71 67  1  0
 71 75  1  0
 72 71  1  0
 73 74  1  0
 73 72  1  0
 74 70  1  0
 75 76  2  0
 76 77  1  0
 78 77  2  0
 79 78  1  0
 80 54  1  0
 80 81  1  0
 80 90  1  0
 81 84  1  0
 82 86  1  0
 82 81  1  0
 83 82  2  0
 86 85  1  0
 88 86  1  0
 88 89  1  0
 88 87  1  0
 90 93  1  1
 90 91  1  0
 92 90  1  0
M  ISO  4   5 101  13 100  21 100  53 101
M  END
>  <TORSDO>  (70) 
F 22

>  <SCORE>  (70) 
-13.337

>  <name>  (70) 
69

>  <ligand_id>  (70) 
69

>  <original_smiles>  (70) 
[H]Oc1c([H])c(Oc2c([H])c([H])c3c(c2[H])C([H])([H])N(C(=O)C([H])(N([H])C(=O)C([H])(N([H])C([H])([H])[H])C([H])([H])[H])C(C([H])([H])[H])(C([H])([H])[H])C([H])([H])[H])C([H])(C(=O)N([H])C2([H])c4c([H])c([H])c([H])c([H])c4C([H])([H])C([H])([H])C2([H])[H])C3([H])[H])c([H])c([H])c1C(=O)C([H])([H])C([H])([H])C([H])([H])C([H])([H])N([H])C(=O)N1C([H])([H])C([H])([H])C([H])([H])C([H])(n2nc(-c3c([H])c([H])c(Oc4c([H])c([H])c(F)c([H])c4F)c([H])c3[H])c(C(=O)N([H])[H])c2N([H])[H])C1([H])[H]

>  <smiles>  (70) 
[H]Oc1c([H])c(Oc2c([H])c([H])c3c(c2[H])C([H])([H])N(C(=O)C([H])(N([H])C(=O)C([H])(N([H])C([H])([H])[H])C([H])([H])[H])C(C([H])([H])[H])(C([H])([H])[H])C([H])([H])[H])C([H])(C(=O)N([H])C2([H])c4c([H])c([H])c([H])c([H])c4C([H])([H])C([H])([H])C2([H])[H])C3([H])[H])c([H])c([H])c1C(=O)C([H])([H])C([H])([H])C([H])([H])C([H])([H])N([H])C(=O)N1C([H])([H])C([H])([H])C([H])([H])C([H])(n2nc(-c3c([H])c([H])c(Oc4c([H])c([H])c(F)c([H])c4F)c([H])c3[H])c(C(=O)N([H])[H])c2N([H])[H])C1([H])[H]

$$$$
70:0:0
     RDKit          3D

 89 97  0  0  1  0  0  0  0  0999 V2000
  -27.8970  -21.8870   20.6590 C   0  0  0  0  0  3  0  0  0  0  0  0
  -29.8980  -22.3610   19.6790 C   0  0  0  0  0  3  0  0  0  0  0  0
  -27.5630  -23.3570   20.6700 C   0  0  0  0  0  3  0  0  0  0  0  0
  -29.5700  -23.8070   19.6860 C   0  0  0  0  0  3  0  0  0  0  0  0
  -29.1180  -21.2260   20.1650 C   0  0  0  0  0  0  0  0  0  0  0  0
  -28.3740  -24.4780   20.1750 C   0  0  0  0  0  0  0  0  0  0  0  0
  -29.7150  -19.5930   20.0780 C   0  0  0  0  0  0  0  0  0  0  0  0
  -30.8680  -19.5320   19.6470 O   0  0  0  0  0  0  0  0  0  0  0  0
  -29.3650  -16.6250   20.4150 C   0  0  0  0  0  3  0  0  0  0  0  0
  -29.0870  -18.0910   20.4400 C   0  0  0  0  0  0  0  0  0  0  0  0
  -30.3480  -15.3750   20.0930 C   0  0  0  0  0  0  0  0  0  0  0  0
  -30.3980  -12.9290   19.1980 C   0  0  0  0  0  2  0  0  0  0  0  0
  -29.4280  -12.7420   18.0000 C   0  0  0  0  0  2  0  0  0  0  0  0
  -27.9920  -12.4530   18.4810 C   0  0  0  0  0  2  0  0  0  0  0  0
  -27.5800  -13.3840   19.6460 C   0  0  0  0  0  3  0  0  0  0  0  0
  -28.6680  -13.4750   20.7340 C   0  0  0  0  0  2  0  0  0  0  0  0
  -29.8750  -14.0270   20.0900 N   0  0  0  0  0  0  0  0  0  0  0  0
  -31.5390  -15.4530   19.7520 O   0  0  0  0  0  0  0  0  0  0  0  0
  -25.2370  -13.9190   20.5060 C   0  0  0  0  0  0  0  0  0  0  0  0
  -24.1910  -13.1300   20.8950 C   0  0  0  0  0  0  0  0  0  0  0  0
  -24.6580  -11.7830   20.8090 C   0  0  0  0  0  0  0  0  0  0  0  0
  -26.2700  -13.0530   20.1950 N   0  0  0  0  0  0  0  0  0  0  0  0
  -25.9370  -11.7600   20.4430 N   0  0  0  0  0  0  0  0  0  0  0  0
  -23.9420  -10.5130   20.9930 C   0  0  0  0  0  0  0  0  0  0  0  0
  -24.3770   -9.5460   21.9260 C   0  0  0  0  0  3  0  0  0  0  0  0
  -23.6580   -8.3440   22.0990 C   0  0  0  0  0  3  0  0  0  0  0  0
  -22.4880   -8.1000   21.3400 C   0  0  0  0  0  0  0  0  0  0  0  0
  -22.0720   -9.0570   20.3970 C   0  0  0  0  0  3  0  0  0  0  0  0
  -22.7920  -10.2500   20.2210 C   0  0  0  0  0  3  0  0  0  0  0  0
  -21.7400   -6.9500   21.4220 O   0  0  0  0  0  0  0  0  0  0  0  0
  -21.6410   -6.2390   22.5910 C   0  0  0  0  0  0  0  0  0  0  0  0
  -21.1110   -6.8090   23.7680 C   0  0  0  0  0  3  0  0  0  0  0  0
  -20.9630   -6.0210   24.9280 C   0  0  0  0  0  3  0  0  0  0  0  0
  -21.3340   -4.6640   24.9100 C   0  0  0  0  0  0  0  0  0  0  0  0
  -21.8570   -4.0930   23.7350 C   0  0  0  0  0  3  0  0  0  0  0  0
  -22.0070   -4.8780   22.5790 C   0  0  0  0  0  0  0  0  0  0  0  0
  -22.4910   -4.3160   21.4450 F   0  0  0  0  0  0  0  0  0  0  0  0
  -21.1850   -3.9050   26.0200 F   0  0  0  0  0  0  0  0  0  0  0  0
  -22.8060  -13.5960   21.2340 C   0  0  0  0  0  0  0  0  0  0  0  0
  -22.1130  -12.8750   22.1090 N   0  0  0  0  0  0  0  0  0  0  0  0
  -22.3480  -14.6350   20.7600 O   0  0  0  0  0  0  0  0  0  0  0  0
  -22.4970  -12.0340   22.5140 H   0  0  0  0  0  0  0  0  0  0  0  0
  -21.1840  -13.1690   22.3780 H   0  0  0  0  0  0  0  0  0  0  0  0
  -25.3900  -15.2960   20.3640 N   0  0  0  0  0  0  0  0  0  0  0  0
  -24.6290  -15.9430   20.5420 H   0  0  0  0  0  0  0  0  0  0  0  0
  -26.2280  -15.7560   20.0330 H   0  0  0  0  0  0  0  0  0  0  0  0
  -27.8580  -18.3310   20.9280 O   0  0  0  0  0  0  0  0  0  0  0  0
  -27.7320  -19.2720   20.9150 H   0  0  0  0  0  0  0  0  0  0  0  0
  -28.2540  -26.0150   20.2270 O   0  0  0  0  0  0  0  0  0  0  0  0
  -24.6340  -31.9100   23.2460 C   0  0  0  0  0  0  0  0  0  0  0  0
  -27.1730  -27.0360   20.2210 C   0  0  0  0  0  0  0  0  0  0  0  0
  -23.4260  -30.5120   21.6170 C   0  0  0  0  0  3  0  0  0  0  0  0
  -24.8620  -28.8990   20.1880 C   0  0  0  0  0  0  0  0  0  0  0  0
  -25.9880  -30.7260   21.4490 C   0  0  0  0  0  2  0  0  0  0  0  0
  -26.0500  -29.3140   20.8000 C   0  0  0  0  0  0  0  0  0  0  0  0
  -27.1950  -28.4010   20.7920 C   0  0  0  0  0  3  0  0  0  0  0  0
  -25.9540  -26.7660   19.5610 C   0  0  0  0  0  3  0  0  0  0  0  0
  -24.8360  -27.6450   19.5500 C   0  0  0  0  0  3  0  0  0  0  0  0
  -23.6430  -29.8210   20.2410 C   0  0  0  0  0  2  0  0  0  0  0  0
  -24.7040  -31.0770   22.1570 N   0  0  0  0  0  0  0  0  0  0  0  0
  -23.5500  -32.2010   23.7770 O   0  0  0  0  0  0  0  0  0  0  0  0
  -22.7400  -29.5190   22.5910 C   0  0  0  0  0  0  0  0  0  0  0  0
  -21.4120  -29.3420   22.4650 N   0  0  0  0  0  0  0  0  0  0  0  0
  -23.4100  -28.9070   23.4270 O   0  0  0  0  0  0  0  0  0  0  0  0
  -20.9240  -29.8860   21.7680 H   0  0  0  0  0  0  0  0  0  0  0  0
  -18.0420  -28.0980   22.9700 C   0  0  0  0  0  0  0  0  0  0  0  0
  -20.5970  -28.4020   23.2420 C   0  0  0  0  0  3  0  0  0  0  0  0
  -20.7190  -26.9650   22.6830 C   0  0  0  0  0  2  0  0  0  0  0  0
  -19.6270  -26.6180   21.6660 C   0  0  0  0  0  2  0  0  0  0  0  0
  -18.2410  -26.7470   22.3030 C   0  0  0  0  0  2  0  0  0  0  0  0
  -19.1480  -28.8820   23.3960 C   0  0  0  0  0  0  0  0  0  0  0  0
  -18.9050  -30.1430   23.9810 C   0  0  0  0  0  3  0  0  0  0  0  0
  -17.5910  -30.6230   24.1430 C   0  0  0  0  0  3  0  0  0  0  0  0
  -16.5010  -29.8380   23.7310 C   0  0  0  0  0  3  0  0  0  0  0  0
  -16.7270  -28.5770   23.1500 C   0  0  0  0  0  3  0  0  0  0  0  0
  -25.9110  -32.5520   23.8700 C   0  0  0  0  0  3  0  0  0  0  0  0
  -26.4280  -31.7860   25.1510 C   0  0  1  0  0  0  0  0  0  0  0  0
  -25.3360  -31.5520   26.2210 C   0  0  0  0  0  1  0  0  0  0  0  0
  -27.0130  -30.4060   24.7710 C   0  0  0  0  0  1  0  0  0  0  0  0
  -27.5780  -32.5840   25.8100 C   0  0  0  0  0  1  0  0  0  0  0  0
  -25.5950  -33.9510   24.2100 N   0  0  0  0  0  0  0  0  0  0  0  0
  -25.8990  -35.0130   23.4520 C   0  0  0  0  0  0  0  0  0  0  0  0
  -26.5340  -34.9180   22.3990 O   0  0  0  0  0  0  0  0  0  0  0  0
  -25.0250  -34.0960   25.0300 H   0  0  0  0  0  0  0  0  0  0  0  0
  -24.1450  -36.8010   23.1800 C   0  0  0  0  0  1  0  0  0  0  0  0
  -25.4230  -36.3990   23.9350 C   0  0  0  0  0  3  0  0  0  0  0  0
  -27.5800  -37.3070   24.6840 C   0  0  0  0  0  1  0  0  0  0  0  0
  -26.4430  -37.4600   23.7800 N   0  0  0  0  0  0  0  0  0  0  0  0
  -26.0360  -38.3770   23.9350 H   0  0  0  0  0  0  0  0  0  0  0  0
  1  3  1  0
  2  4  2  0
  2  5  1  0
  4  6  1  0
  5  1  2  0
  6 49  1  0
  6  3  2  0
  7  5  1  0
  7 10  1  0
  8  7  2  0
  9 10  2  0
 10 47  1  0
 11  9  1  0
 12 17  1  0
 13 14  1  0
 13 12  1  0
 15 14  1  0
 15 22  1  0
 15 16  1  0
 17 11  1  0
 17 16  1  0
 18 11  2  0
 19 20  2  0
 20 39  1  0
 21 20  1  0
 21 24  1  0
 22 23  1  0
 22 19  1  0
 23 21  2  0
 24 25  1  0
 25 26  2  0
 27 30  1  0
 27 26  1  0
 28 27  2  0
 29 28  1  0
 29 24  2  0
 30 31  1  0
 31 32  1  0
 32 33  2  0
 34 33  1  0
 34 38  1  0
 35 34  2  0
 36 31  2  0
 36 35  1  0
 37 36  1  0
 39 40  1  0
 40 43  1  0
 40 42  1  0
 41 39  2  0
 44 19  1  0
 44 45  1  0
 46 44  1  0
 48 47  1  0
 50 61  2  0
 51 49  1  0
 51 56  1  0
 52 60  1  0
 52 62  1  0
 53 59  1  0
 53 55  1  0
 54 60  1  0
 55 54  1  0
 56 55  2  0
 57 51  2  0
 58 57  1  0
 58 53  2  0
 59 52  1  0
 60 50  1  0
 62 64  2  0
 63 62  1  0
 65 63  1  0
 66 75  2  0
 66 71  1  0
 67 63  1  0
 67 71  1  0
 68 67  1  0
 69 70  1  0
 69 68  1  0
 70 66  1  0
 71 72  2  0
 72 73  1  0
 74 73  2  0
 75 74  1  0
 76 50  1  0
 76 81  1  0
 76 77  1  0
 77 80  1  1
 77 78  1  0
 79 77  1  0
 81 84  1  0
 82 86  1  0
 82 81  1  0
 83 82  2  0
 86 85  1  0
 88 89  1  0
 88 86  1  0
 88 87  1  0
M  ISO  4   6 101   9 100  11 100  49 101
M  END
>  <TORSDO>  (71) 
F 19

>  <SCORE>  (71) 
-14.965

>  <name>  (71) 
70

>  <ligand_id>  (71) 
70

>  <original_smiles>  (71) 
[H]OC(C(=O)c1c([H])c([H])c(Oc2c([H])c([H])c3c(c2[H])C([H])([H])N(C(=O)C([H])(N([H])C(=O)C([H])(N([H])C([H])([H])[H])C([H])([H])[H])C(C([H])([H])[H])(C([H])([H])[H])C([H])([H])[H])C([H])(C(=O)N([H])C2([H])c4c([H])c([H])c([H])c([H])c4C([H])([H])C([H])([H])C2([H])[H])C3([H])[H])c([H])c1[H])=C([H])C(=O)N1C([H])([H])C([H])([H])C([H])([H])C([H])(n2nc(-c3c([H])c([H])c(Oc4c([H])c([H])c(F)c([H])c4F)c([H])c3[H])c(C(=O)N([H])[H])c2N([H])[H])C1([H])[H]

>  <smiles>  (71) 
[H]OC(C(=O)c1c([H])c([H])c(Oc2c([H])c([H])c3c(c2[H])C([H])([H])N(C(=O)C([H])(N([H])C(=O)C([H])(N([H])C([H])([H])[H])C([H])([H])[H])C(C([H])([H])[H])(C([H])([H])[H])C([H])([H])[H])C([H])(C(=O)N([H])C2([H])c4c([H])c([H])c([H])c([H])c4C([H])([H])C([H])([H])C2([H])[H])C3([H])[H])c([H])c1[H])=C([H])C(=O)N1C([H])([H])C([H])([H])C([H])([H])C([H])(n2nc(-c3c([H])c([H])c(Oc4c([H])c([H])c(F)c([H])c4F)c([H])c3[H])c(C(=O)N([H])[H])c2N([H])[H])C1([H])[H]

$$$$
71:0:0
     RDKit          3D

 96104  0  0  1  0  0  0  0  0999 V2000
  -27.8280  -22.0540   21.4170 C   0  0  0  0  0  2  0  0  0  0  0  0
  -28.0020  -18.4460   20.0200 C   0  0  0  0  0  3  0  0  0  0  0  0
  -27.5110  -19.7290   20.3680 C   0  0  0  0  0  3  0  0  0  0  0  0
  -29.9680  -18.8290   21.3830 C   0  0  0  0  0  3  0  0  0  0  0  0
  -29.2780  -18.0050   20.4640 C   0  0  0  0  0  0  0  0  0  0  0  0
  -28.2730  -20.5990   21.1790 C   0  0  0  0  0  0  0  0  0  0  0  0
  -29.4810  -20.1100   21.7300 C   0  0  0  0  0  0  0  0  0  0  0  0
  -30.2180  -20.8900   22.5560 F   0  0  0  0  0  0  0  0  0  0  0  0
  -30.5890  -15.8180   20.6130 C   0  0  0  0  0  3  0  0  0  0  0  0
  -29.9160  -16.7710   19.9090 C   0  0  0  0  0  0  0  0  0  0  0  0
  -31.3300  -14.7290   19.9540 C   0  0  0  0  0  0  0  0  0  0  0  0
  -30.9380  -12.6120   18.7390 C   0  0  0  0  0  2  0  0  0  0  0  0
  -29.9100  -12.9060   17.6250 C   0  0  0  0  0  2  0  0  0  0  0  0
  -28.4620  -12.8150   18.1590 C   0  0  0  0  0  2  0  0  0  0  0  0
  -28.2580  -13.5750   19.5010 C   0  0  0  0  0  3  0  0  0  0  0  0
  -29.3860  -13.2290   20.4940 C   0  0  0  0  0  2  0  0  0  0  0  0
  -30.6670  -13.5440   19.8480 N   0  0  0  0  0  0  0  0  0  0  0  0
  -32.4300  -14.9090   19.4200 O   0  0  0  0  0  0  0  0  0  0  0  0
  -25.9640  -14.2150   20.4680 C   0  0  0  0  0  0  0  0  0  0  0  0
  -24.8950  -13.4600   20.8690 C   0  0  0  0  0  0  0  0  0  0  0  0
  -25.2870  -12.0970   20.6850 C   0  0  0  0  0  0  0  0  0  0  0  0
  -26.9410  -13.3150   20.0740 N   0  0  0  0  0  0  0  0  0  0  0  0
  -26.5400  -12.0310   20.2540 N   0  0  0  0  0  0  0  0  0  0  0  0
  -24.5200  -10.8520   20.8320 C   0  0  0  0  0  0  0  0  0  0  0  0
  -24.9150   -9.8420   21.7390 C   0  0  0  0  0  3  0  0  0  0  0  0
  -24.1510   -8.6630   21.8730 C   0  0  0  0  0  3  0  0  0  0  0  0
  -22.9770   -8.4870   21.1020 C   0  0  0  0  0  0  0  0  0  0  0  0
  -22.6040   -9.4830   20.1830 C   0  0  0  0  0  3  0  0  0  0  0  0
  -23.3690  -10.6540   20.0460 C   0  0  0  0  0  3  0  0  0  0  0  0
  -22.1870   -7.3640   21.1500 O   0  0  0  0  0  0  0  0  0  0  0  0
  -22.0020   -6.6650   22.3140 C   0  0  0  0  0  0  0  0  0  0  0  0
  -21.4810   -7.2740   23.4760 C   0  0  0  0  0  3  0  0  0  0  0  0
  -21.2450   -6.5010   24.6310 C   0  0  0  0  0  3  0  0  0  0  0  0
  -21.5170   -5.1200   24.6230 C   0  0  0  0  0  0  0  0  0  0  0  0
  -22.0350   -4.5110   23.4640 C   0  0  0  0  0  3  0  0  0  0  0  0
  -22.2720   -5.2810   22.3130 C   0  0  0  0  0  0  0  0  0  0  0  0
  -22.7490   -4.6840   21.1940 F   0  0  0  0  0  0  0  0  0  0  0  0
  -21.2830   -4.3770   25.7280 F   0  0  0  0  0  0  0  0  0  0  0  0
  -23.5510  -13.9660   21.3060 C   0  0  0  0  0  0  0  0  0  0  0  0
  -22.8810  -13.2490   22.2010 N   0  0  0  0  0  0  0  0  0  0  0  0
  -23.1050  -15.0340   20.8870 O   0  0  0  0  0  0  0  0  0  0  0  0
  -23.2440  -12.3800   22.5630 H   0  0  0  0  0  0  0  0  0  0  0  0
  -21.9840  -13.5760   22.5310 H   0  0  0  0  0  0  0  0  0  0  0  0
  -26.1860  -15.5860   20.3930 N   0  0  0  0  0  0  0  0  0  0  0  0
  -25.4840  -16.2750   20.6360 H   0  0  0  0  0  0  0  0  0  0  0  0
  -27.0510  -16.0000   20.0700 H   0  0  0  0  0  0  0  0  0  0  0  0
  -29.8620  -16.7240   18.5680 O   0  0  0  0  0  0  0  0  0  0  0  0
  -29.5690  -17.5760   18.2660 H   0  0  0  0  0  0  0  0  0  0  0  0
  -28.2590  -23.0060   20.2630 C   0  0  0  0  0  2  0  0  0  0  0  0
  -28.0800  -24.5490   20.4600 C   0  0  0  0  0  3  0  0  0  0  0  0
  -28.9070  -25.0590   21.5790 N   0  0  0  0  0  4  0  0  0  0  0  0
  -29.8870  -24.8850   21.4280 H   0  0  0  0  0  0  0  0  0  0  0  0
  -28.6440  -24.6580   22.4630 H   0  0  0  0  0  0  0  0  0  0  0  0
  -28.7930  -26.0580   21.6470 H   0  0  0  0  0  0  0  0  0  0  0  0
  -28.4400  -25.3360   19.1620 C   0  0  0  0  0  2  0  0  0  0  0  0
  -28.4220  -26.7720   19.3130 O   0  0  0  0  0  0  0  0  0  0  0  0
  -24.7100  -31.6170   22.9520 C   0  0  0  0  0  0  0  0  0  0  0  0
  -27.2250  -27.4590   19.3930 C   0  0  0  0  0  0  0  0  0  0  0  0
  -23.4270  -30.3210   21.2780 C   0  0  0  0  0  3  0  0  0  0  0  0
  -24.8170  -28.9240   19.6550 C   0  0  0  0  0  0  0  0  0  0  0  0
  -25.9320  -30.7430   20.9620 C   0  0  0  0  0  2  0  0  0  0  0  0
  -25.9990  -29.4260   20.2130 C   0  0  0  0  0  0  0  0  0  0  0  0
  -27.2050  -28.7010   20.0780 C   0  0  0  0  0  3  0  0  0  0  0  0
  -26.0250  -26.9810   18.8280 C   0  0  0  0  0  3  0  0  0  0  0  0
  -24.8250  -27.7040   18.9600 C   0  0  0  0  0  3  0  0  0  0  0  0
  -23.5610  -29.7430   19.8420 C   0  0  0  0  0  2  0  0  0  0  0  0
  -24.7100  -30.9070   21.7880 N   0  0  0  0  0  0  0  0  0  0  0  0
  -23.6610  -31.8240   23.5780 O   0  0  0  0  0  0  0  0  0  0  0  0
  -22.8520  -29.2200   22.1990 C   0  0  0  0  0  0  0  0  0  0  0  0
  -21.5300  -29.0010   22.1200 N   0  0  0  0  0  0  0  0  0  0  0  0
  -23.5940  -28.5650   22.9360 O   0  0  0  0  0  0  0  0  0  0  0  0
  -20.9890  -29.5890   21.5010 H   0  0  0  0  0  0  0  0  0  0  0  0
  -18.2310  -27.6310   22.6500 C   0  0  0  0  0  0  0  0  0  0  0  0
  -20.7810  -27.9860   22.8600 C   0  0  0  0  0  3  0  0  0  0  0  0
  -20.9270  -26.5960   22.1980 C   0  0  0  0  0  2  0  0  0  0  0  0
  -19.8090  -26.2830   21.2000 C   0  0  0  0  0  2  0  0  0  0  0  0
  -18.4420  -26.3310   21.8920 C   0  0  0  0  0  2  0  0  0  0  0  0
  -19.3290  -28.4150   23.0900 C   0  0  0  0  0  0  0  0  0  0  0  0
  -19.0770  -29.6310   23.7600 C   0  0  0  0  0  3  0  0  0  0  0  0
  -17.7590  -30.0650   23.9930 C   0  0  0  0  0  3  0  0  0  0  0  0
  -16.6750  -29.2760   23.5720 C   0  0  0  0  0  3  0  0  0  0  0  0
  -16.9120  -28.0610   22.9040 C   0  0  0  0  0  3  0  0  0  0  0  0
  -26.0230  -32.2240   23.5420 C   0  0  0  0  0  3  0  0  0  0  0  0
  -25.7050  -33.5740   24.0250 N   0  0  0  0  0  0  0  0  0  0  0  0
  -25.9670  -34.7040   23.3520 C   0  0  0  0  0  0  0  0  0  0  0  0
  -26.5710  -34.7180   22.2760 O   0  0  0  0  0  0  0  0  0  0  0  0
  -25.1590  -33.6350   24.8700 H   0  0  0  0  0  0  0  0  0  0  0  0
  -24.1770  -36.4680   23.2940 C   0  0  0  0  0  1  0  0  0  0  0  0
  -25.4840  -36.0280   23.9720 C   0  0  0  0  0  3  0  0  0  0  0  0
  -27.6500  -36.9010   24.7290 C   0  0  0  0  0  1  0  0  0  0  0  0
  -26.4790  -37.1200   23.8860 N   0  0  0  0  0  0  0  0  0  0  0  0
  -26.0610  -38.0080   24.1520 H   0  0  0  0  0  0  0  0  0  0  0  0
  -26.6500  -31.3510   24.6990 C   0  0  1  0  0  0  0  0  0  0  0  0
  -25.6400  -30.9730   25.8070 C   0  0  0  0  0  1  0  0  0  0  0  0
  -27.2440  -30.0390   24.1340 C   0  0  0  0  0  1  0  0  0  0  0  0
  -27.8210  -32.1160   25.3590 C   0  0  0  0  0  1  0  0  0  0  0  0
  2  3  2  0
  2  5  1  0
  3  6  1  0
  4  7  1  0
  5  4  2  0
  6  1  1  0
  6  7  2  0
  7  8  1  0
 10  5  1  0
 10  9  2  0
 11  9  1  0
 12 17  1  0
 13 14  1  0
 13 12  1  0
 15 14  1  0
 15 22  1  0
 15 16  1  0
 17 11  1  0
 17 16  1  0
 18 11  2  0
 19 20  2  0
 20 39  1  0
 21 24  1  0
 21 20  1  0
 22 23  1  0
 22 19  1  0
 23 21  2  0
 24 25  1  0
 25 26  2  0
 27 30  1  0
 27 26  1  0
 28 27  2  0
 29 28  1  0
 29 24  2  0
 30 31  1  0
 31 32  1  0
 32 33  2  0
 34 33  1  0
 34 38  1  0
 35 34  2  0
 36 31  2  0
 36 35  1  0
 37 36  1  0
 39 40  1  0
 40 43  1  0
 40 42  1  0
 41 39  2  0
 44 19  1  0
 44 45  1  0
 46 44  1  0
 47 10  1  0
 48 47  1  0
 49 50  1  0
 49  1  1  0
 50 55  1  0
 50 51  1  0
 51 54  1  0
 51 53  1  0
 52 51  1  0
 55 56  1  0
 56 58  1  0
 57 68  2  0
 58 63  1  0
 59 67  1  0
 59 69  1  0
 60 66  1  0
 60 62  1  0
 61 67  1  0
 62 61  1  0
 63 62  2  0
 64 65  1  0
 64 58  2  0
 65 60  2  0
 66 59  1  0
 67 57  1  0
 69 71  2  0
 70 69  1  0
 72 70  1  0
 73 82  2  0
 73 78  1  0
 74 70  1  0
 74 78  1  0
 75 74  1  0
 76 77  1  0
 76 75  1  0
 77 73  1  0
 78 79  2  0
 79 80  1  0
 81 80  2  0
 82 81  1  0
 83 57  1  0
 83 84  1  0
 83 93  1  0
 84 87  1  0
 85 89  1  0
 85 84  1  0
 86 85  2  0
 89 88  1  0
 91 89  1  0
 91 92  1  0
 91 90  1  0
 93 96  1  1
 93 94  1  0
 95 93  1  0
M  ISO  4   9 100  11 100  55 101  56 101
M  END
>  <TORSDO>  (72) 
F 23

>  <SCORE>  (72) 
-10.579

>  <name>  (72) 
71

>  <ligand_id>  (72) 
71

>  <original_smiles>  (72) 
[H]OC(=C([H])C(=O)N1C([H])([H])C([H])([H])C([H])([H])C([H])(n2nc(-c3c([H])c([H])c(Oc4c([H])c([H])c(F)c([H])c4F)c([H])c3[H])c(C(=O)N([H])[H])c2N([H])[H])C1([H])[H])c1c([H])c([H])c(C([H])([H])C([H])([H])C([H])(C([H])([H])Oc2c([H])c([H])c3c(c2[H])C([H])([H])N(C(=O)C([H])(N([H])C(=O)C([H])(N([H])C([H])([H])[H])C([H])([H])[H])C(C([H])([H])[H])(C([H])([H])[H])C([H])([H])[H])C([H])(C(=O)N([H])C2([H])c4c([H])c([H])c([H])c([H])c4C([H])([H])C([H])([H])C2([H])[H])C3([H])[H])[N+]([H])([H])[H])c(F)c1[H]

>  <smiles>  (72) 
[H]OC(=C([H])C(=O)N1C([H])([H])C([H])([H])C([H])([H])C([H])(n2nc(-c3c([H])c([H])c(Oc4c([H])c([H])c(F)c([H])c4F)c([H])c3[H])c(C(=O)N([H])[H])c2N([H])[H])C1([H])[H])c1c([H])c([H])c(C([H])([H])C([H])([H])C([H])(C([H])([H])Oc2c([H])c([H])c3c(c2[H])C([H])([H])N(C(=O)C([H])(N([H])C(=O)C([H])(N([H])C([H])([H])[H])C([H])([H])[H])C(C([H])([H])[H])(C([H])([H])[H])C([H])([H])[H])C([H])(C(=O)N([H])C2([H])c4c([H])c([H])c([H])c([H])c4C([H])([H])C([H])([H])C2([H])[H])C3([H])[H])[N+]([H])([H])[H])c(F)c1[H]

$$$$
72:0:0
     RDKit          3D

 90 98  0  0  1  0  0  0  0  0999 V2000
  -30.9780  -20.1250   22.2050 C   0  0  0  0  0  3  0  0  0  0  0  0
  -30.5910  -18.8460   21.7490 C   0  0  0  0  0  3  0  0  0  0  0  0
  -30.4280  -21.3070   21.6640 C   0  0  0  0  0  3  0  0  0  0  0  0
  -29.0900  -19.9350   20.1800 C   0  0  0  0  0  3  0  0  0  0  0  0
  -29.6190  -18.6910   20.7370 C   0  0  0  0  0  0  0  0  0  0  0  0
  -29.4770  -21.2650   20.6230 C   0  0  0  0  0  0  0  0  0  0  0  0
  -29.5520  -15.9530   20.3240 C   0  0  0  0  0  0  0  0  0  0  0  0
  -29.0950  -17.2740   20.3760 C   0  0  0  0  0  0  0  0  0  0  0  0
  -30.5480  -14.8030   20.3220 C   0  0  0  0  0  0  0  0  0  0  0  0
  -30.4010  -12.5070   19.3450 C   0  0  0  0  0  2  0  0  0  0  0  0
  -29.4600  -12.5820   18.1180 C   0  0  0  0  0  2  0  0  0  0  0  0
  -27.9870  -12.4050   18.5420 C   0  0  0  0  0  2  0  0  0  0  0  0
  -27.6070  -13.2960   19.7520 C   0  0  0  0  0  3  0  0  0  0  0  0
  -28.6630  -13.2030   20.8750 C   0  0  0  0  0  2  0  0  0  0  0  0
  -29.9700  -13.5520   20.3000 N   0  0  0  0  0  0  0  0  0  0  0  0
  -31.7560  -14.9010   20.0590 O   0  0  0  0  0  0  0  0  0  0  0  0
  -25.2200  -13.8930   20.4760 C   0  0  0  0  0  0  0  0  0  0  0  0
  -24.1530  -13.1210   20.8460 C   0  0  0  0  0  0  0  0  0  0  0  0
  -24.6170  -11.7710   20.8270 C   0  0  0  0  0  0  0  0  0  0  0  0
  -26.2630  -13.0120   20.2450 N   0  0  0  0  0  0  0  0  0  0  0  0
  -25.9090  -11.7310   20.5210 N   0  0  0  0  0  0  0  0  0  0  0  0
  -23.8920  -10.5090   21.0240 C   0  0  0  0  0  0  0  0  0  0  0  0
  -24.3280   -9.5420   21.9570 C   0  0  0  0  0  3  0  0  0  0  0  0
  -23.6040   -8.3460   22.1410 C   0  0  0  0  0  3  0  0  0  0  0  0
  -22.4270   -8.1070   21.3910 C   0  0  0  0  0  0  0  0  0  0  0  0
  -22.0100   -9.0610   20.4470 C   0  0  0  0  0  3  0  0  0  0  0  0
  -22.7350  -10.2490   20.2610 C   0  0  0  0  0  3  0  0  0  0  0  0
  -21.6730   -6.9620   21.4850 O   0  0  0  0  0  0  0  0  0  0  0  0
  -21.6350   -6.2180   22.6370 C   0  0  0  0  0  0  0  0  0  0  0  0
  -21.2310   -6.7730   23.8720 C   0  0  0  0  0  3  0  0  0  0  0  0
  -21.1400   -5.9550   25.0150 C   0  0  0  0  0  3  0  0  0  0  0  0
  -21.4420   -4.5830   24.9260 C   0  0  0  0  0  0  0  0  0  0  0  0
  -21.8400   -4.0270   23.6970 C   0  0  0  0  0  3  0  0  0  0  0  0
  -21.9320   -4.8430   22.5550 C   0  0  0  0  0  0  0  0  0  0  0  0
  -22.2950   -4.2970   21.3690 F   0  0  0  0  0  0  0  0  0  0  0  0
  -21.3480   -3.7950   26.0230 F   0  0  0  0  0  0  0  0  0  0  0  0
  -22.7550  -13.5980   21.1100 C   0  0  0  0  0  0  0  0  0  0  0  0
  -22.0250  -12.9070   21.9790 N   0  0  0  0  0  0  0  0  0  0  0  0
  -22.3170  -14.6200   20.5830 O   0  0  0  0  0  0  0  0  0  0  0  0
  -22.3900  -12.0800   22.4260 H   0  0  0  0  0  0  0  0  0  0  0  0
  -21.0870  -13.2110   22.2000 H   0  0  0  0  0  0  0  0  0  0  0  0
  -25.3850  -15.2630   20.2980 N   0  0  0  0  0  0  0  0  0  0  0  0
  -24.6270  -15.9220   20.4340 H   0  0  0  0  0  0  0  0  0  0  0  0
  -26.2640  -15.7160   20.0610 H   0  0  0  0  0  0  0  0  0  0  0  0
  -27.7850  -17.3750   20.1170 O   0  0  0  0  0  0  0  0  0  0  0  0
  -27.5360  -18.2760   20.2810 H   0  0  0  0  0  0  0  0  0  0  0  0
  -29.0800  -22.6500   19.9350 C   0  0  0  0  0  2  0  0  0  0  0  0
  -28.0940  -23.7400   20.6030 C   0  0  0  0  0  2  0  0  0  0  0  0
  -28.5040  -25.2630   20.9840 C   0  0  0  0  0  2  0  0  0  0  0  0
  -28.3830  -26.4920   20.1470 O   0  0  0  0  0  0  0  0  0  0  0  0
  -24.6270  -31.9130   23.2390 C   0  0  0  0  0  0  0  0  0  0  0  0
  -27.2520  -27.3240   20.2210 C   0  0  0  0  0  0  0  0  0  0  0  0
  -23.4250  -30.4950   21.6130 C   0  0  0  0  0  3  0  0  0  0  0  0
  -24.8790  -28.9300   20.2010 C   0  0  0  0  0  0  0  0  0  0  0  0
  -25.9610  -30.8230   21.4150 C   0  0  0  0  0  2  0  0  0  0  0  0
  -26.0490  -29.4330   20.7880 C   0  0  0  0  0  0  0  0  0  0  0  0
  -27.2400  -28.6430   20.7830 C   0  0  0  0  0  3  0  0  0  0  0  0
  -26.0610  -26.8730   19.6210 C   0  0  0  0  0  3  0  0  0  0  0  0
  -24.8870  -27.6560   19.6090 C   0  0  0  0  0  3  0  0  0  0  0  0
  -23.6390  -29.8040   20.2400 C   0  0  0  0  0  2  0  0  0  0  0  0
  -24.6900  -31.0970   22.1450 N   0  0  0  0  0  0  0  0  0  0  0  0
  -23.5440  -32.1880   23.7760 O   0  0  0  0  0  0  0  0  0  0  0  0
  -22.7680  -29.4860   22.5850 C   0  0  0  0  0  0  0  0  0  0  0  0
  -21.4430  -29.3010   22.4650 N   0  0  0  0  0  0  0  0  0  0  0  0
  -23.4520  -28.8700   23.4070 O   0  0  0  0  0  0  0  0  0  0  0  0
  -20.9480  -29.8500   21.7760 H   0  0  0  0  0  0  0  0  0  0  0  0
  -18.0750  -28.0840   22.9820 C   0  0  0  0  0  0  0  0  0  0  0  0
  -20.6320  -28.3640   23.2450 C   0  0  0  0  0  3  0  0  0  0  0  0
  -20.7430  -26.9280   22.6810 C   0  0  0  0  0  2  0  0  0  0  0  0
  -19.6420  -26.5890   21.6710 C   0  0  0  0  0  2  0  0  0  0  0  0
  -18.2600  -26.7300   22.3170 C   0  0  0  0  0  2  0  0  0  0  0  0
  -19.1890  -28.8580   23.4040 C   0  0  0  0  0  0  0  0  0  0  0  0
  -18.9610  -30.1230   23.9850 C   0  0  0  0  0  3  0  0  0  0  0  0
  -17.6530  -30.6160   24.1500 C   0  0  0  0  0  3  0  0  0  0  0  0
  -16.5540  -29.8400   23.7440 C   0  0  0  0  0  3  0  0  0  0  0  0
  -16.7650  -28.5760   23.1660 C   0  0  0  0  0  3  0  0  0  0  0  0
  -25.9070  -32.5580   23.8530 C   0  0  0  0  0  3  0  0  0  0  0  0
  -25.5900  -33.9560   24.1800 N   0  0  0  0  0  0  0  0  0  0  0  0
  -25.9170  -35.0090   23.4190 C   0  0  0  0  0  0  0  0  0  0  0  0
  -26.5860  -34.9070   22.3870 O   0  0  0  0  0  0  0  0  0  0  0  0
  -24.9950  -34.1080   24.9800 H   0  0  0  0  0  0  0  0  0  0  0  0
  -24.1800  -36.7960   23.0640 C   0  0  0  0  0  1  0  0  0  0  0  0
  -25.4240  -36.3970   23.8740 C   0  0  0  0  0  3  0  0  0  0  0  0
  -27.5580  -37.2910   24.7010 C   0  0  0  0  0  1  0  0  0  0  0  0
  -26.4530  -37.4550   23.7600 N   0  0  0  0  0  0  0  0  0  0  0  0
  -26.0440  -38.3730   23.9070 H   0  0  0  0  0  0  0  0  0  0  0  0
  -26.4330  -31.7960   25.1310 C   0  0  1  0  0  0  0  0  0  0  0  0
  -25.3470  -31.5600   26.2070 C   0  0  0  0  0  1  0  0  0  0  0  0
  -27.0210  -30.4190   24.7450 C   0  0  0  0  0  1  0  0  0  0  0  0
  -27.5830  -32.6000   25.7830 C   0  0  0  0  0  1  0  0  0  0  0  0
  2  1  1  0
  3  1  2  0
  4  6  2  0
  4  5  1  0
  5  2  2  0
  6  3  1  0
  7  8  2  0
  8  5  1  0
  9  7  2  0
 10 15  1  0
 11 12  1  0
 11 10  1  0
 13 12  1  0
 13 20  1  0
 13 14  1  0
 15  9  1  0
 15 14  1  0
 16  9  2  0
 17 18  2  0
 18 37  1  0
 19 18  1  0
 19 22  1  0
 20 17  1  0
 20 21  1  0
 21 19  2  0
 22 23  1  0
 23 24  2  0
 25 28  1  0
 25 24  1  0
 26 25  2  0
 27 26  1  0
 27 22  2  0
 28 29  1  0
 29 30  1  0
 30 31  2  0
 32 31  1  0
 32 36  1  0
 33 32  2  0
 34 29  2  0
 34 33  1  0
 35 34  1  0
 37 38  1  0
 38 41  1  0
 38 40  1  0
 39 37  2  0
 42 43  1  0
 42 17  1  0
 44 42  1  0
 45 46  1  0
 45  8  1  0
 47 48  1  0
 47  6  1  0
 48 49  1  0
 50 52  1  0
 50 49  1  0
 51 62  2  0
 52 57  1  0
 53 61  1  0
 53 63  1  0
 54 60  1  0
 54 56  1  0
 55 61  1  0
 56 55  1  0
 57 56  2  0
 58 52  2  0
 59 58  1  0
 59 54  2  0
 60 53  1  0
 61 51  1  0
 63 65  2  0
 64 63  1  0
 66 64  1  0
 67 76  2  0
 67 72  1  0
 68 64  1  0
 68 72  1  0
 69 68  1  0
 70 71  1  0
 70 69  1  0
 71 67  1  0
 72 73  2  0
 73 74  1  0
 75 74  2  0
 76 75  1  0
 77 51  1  0
 77 78  1  0
 77 87  1  0
 78 81  1  0
 79 83  1  0
 79 78  1  0
 80 79  2  0
 83 82  1  0
 85 83  1  0
 85 86  1  0
 85 84  1  0
 87 90  1  1
 87 88  1  0
 89 87  1  0
M  ISO  4   7 100   9 100  49 101  50 101
M  END
>  <TORSDO>  (73) 
F 21

>  <SCORE>  (73) 
-13.767

>  <name>  (73) 
72

>  <ligand_id>  (73) 
72

>  <original_smiles>  (73) 
[H]OC(=C([H])C(=O)N1C([H])([H])C([H])([H])C([H])([H])C([H])(n2nc(-c3c([H])c([H])c(Oc4c([H])c([H])c(F)c([H])c4F)c([H])c3[H])c(C(=O)N([H])[H])c2N([H])[H])C1([H])[H])c1c([H])c([H])c([H])c(C([H])([H])C([H])([H])C([H])([H])Oc2c([H])c([H])c3c(c2[H])C([H])([H])N(C(=O)C([H])(N([H])C(=O)C([H])(N([H])C([H])([H])[H])C([H])([H])[H])C(C([H])([H])[H])(C([H])([H])[H])C([H])([H])[H])C([H])(C(=O)N([H])C2([H])c4c([H])c([H])c([H])c([H])c4C([H])([H])C([H])([H])C2([H])[H])C3([H])[H])c1[H]

>  <smiles>  (73) 
[H]OC(=C([H])C(=O)N1C([H])([H])C([H])([H])C([H])([H])C([H])(n2nc(-c3c([H])c([H])c(Oc4c([H])c([H])c(F)c([H])c4F)c([H])c3[H])c(C(=O)N([H])[H])c2N([H])[H])C1([H])[H])c1c([H])c([H])c([H])c(C([H])([H])C([H])([H])C([H])([H])Oc2c([H])c([H])c3c(c2[H])C([H])([H])N(C(=O)C([H])(N([H])C(=O)C([H])(N([H])C([H])([H])[H])C([H])([H])[H])C(C([H])([H])[H])(C([H])([H])[H])C([H])([H])[H])C([H])(C(=O)N([H])C2([H])c4c([H])c([H])c([H])c([H])c4C([H])([H])C([H])([H])C2([H])[H])C3([H])[H])c1[H]

$$$$
73:0:0
     RDKit          3D

 92100  0  0  1  0  0  0  0  0999 V2000
  -29.8180  -20.3980   18.1520 C   0  0  0  0  0  3  0  0  0  0  0  0
  -29.5730  -22.4970   17.0160 C   0  0  0  0  0  3  0  0  0  0  0  0
  -28.9370  -22.3710   19.4320 C   0  0  0  0  0  0  0  0  0  0  0  0
  -29.9270  -21.1560   16.9850 C   0  0  0  0  0  0  0  0  0  0  0  0
  -29.3060  -20.8690   19.3910 C   0  0  0  0  0  0  0  0  0  0  0  0
  -29.0960  -23.0830   18.1930 C   0  0  0  0  0  0  0  0  0  0  0  0
  -28.3480  -23.3700   20.5320 C   0  0  0  0  0  3  0  0  0  0  0  0
  -28.0530  -24.7610   20.7860 C   0  0  0  0  0  3  0  0  0  0  0  0
  -28.2430  -26.0960   20.1870 O   0  0  0  0  0  0  0  0  0  0  0  0
  -24.6470  -31.8670   23.2140 C   0  0  0  0  0  0  0  0  0  0  0  0
  -27.2130  -27.1120   20.2090 C   0  0  0  0  0  0  0  0  0  0  0  0
  -23.4480  -30.4570   21.5890 C   0  0  0  0  0  3  0  0  0  0  0  0
  -24.8930  -28.8680   20.1720 C   0  0  0  0  0  0  0  0  0  0  0  0
  -26.0010  -30.7190   21.4170 C   0  0  0  0  0  2  0  0  0  0  0  0
  -26.0740  -29.3160   20.7780 C   0  0  0  0  0  0  0  0  0  0  0  0
  -27.2380  -28.4510   20.7800 C   0  0  0  0  0  3  0  0  0  0  0  0
  -26.0110  -26.7770   19.5600 C   0  0  0  0  0  3  0  0  0  0  0  0
  -24.8740  -27.6130   19.5460 C   0  0  0  0  0  3  0  0  0  0  0  0
  -23.6680  -29.7690   20.2160 C   0  0  0  0  0  2  0  0  0  0  0  0
  -24.7210  -31.0360   22.1290 N   0  0  0  0  0  0  0  0  0  0  0  0
  -23.5590  -32.1540   23.7380 O   0  0  0  0  0  0  0  0  0  0  0  0
  -22.7680  -29.4570   22.5590 C   0  0  0  0  0  0  0  0  0  0  0  0
  -21.4410  -29.2810   22.4300 N   0  0  0  0  0  0  0  0  0  0  0  0
  -23.4400  -28.8410   23.3900 O   0  0  0  0  0  0  0  0  0  0  0  0
  -20.9520  -29.8300   21.7360 H   0  0  0  0  0  0  0  0  0  0  0  0
  -18.0670  -28.0640   22.9420 C   0  0  0  0  0  0  0  0  0  0  0  0
  -20.6240  -28.3480   23.2080 C   0  0  0  0  0  3  0  0  0  0  0  0
  -20.7350  -26.9090   22.6510 C   0  0  0  0  0  2  0  0  0  0  0  0
  -19.6370  -26.5690   21.6380 C   0  0  0  0  0  2  0  0  0  0  0  0
  -18.2530  -26.7110   22.2780 C   0  0  0  0  0  2  0  0  0  0  0  0
  -19.1790  -28.8390   23.3650 C   0  0  0  0  0  0  0  0  0  0  0  0
  -18.9490  -30.1040   23.9480 C   0  0  0  0  0  3  0  0  0  0  0  0
  -17.6400  -30.5960   24.1080 C   0  0  0  0  0  3  0  0  0  0  0  0
  -16.5430  -29.8210   23.6970 C   0  0  0  0  0  3  0  0  0  0  0  0
  -16.7580  -28.5550   23.1220 C   0  0  0  0  0  3  0  0  0  0  0  0
  -25.9230  -32.5100   23.8350 C   0  0  0  0  0  3  0  0  0  0  0  0
  -25.6060  -33.9080   24.1700 N   0  0  0  0  0  0  0  0  0  0  0  0
  -25.9300  -34.9670   23.4160 C   0  0  0  0  0  0  0  0  0  0  0  0
  -26.5970  -34.8710   22.3820 O   0  0  0  0  0  0  0  0  0  0  0  0
  -25.0180  -34.0570   24.9780 H   0  0  0  0  0  0  0  0  0  0  0  0
  -24.1970  -36.7560   23.0730 C   0  0  0  0  0  1  0  0  0  0  0  0
  -25.4420  -36.3540   23.8820 C   0  0  0  0  0  3  0  0  0  0  0  0
  -27.5810  -37.2370   24.7060 C   0  0  0  0  0  1  0  0  0  0  0  0
  -26.4760  -37.4080   23.7660 N   0  0  0  0  0  0  0  0  0  0  0  0
  -26.0710  -38.3290   23.9160 H   0  0  0  0  0  0  0  0  0  0  0  0
  -26.4400  -31.7430   25.1140 C   0  0  1  0  0  0  0  0  0  0  0  0
  -25.3490  -31.5100   26.1850 C   0  0  0  0  0  1  0  0  0  0  0  0
  -27.0240  -30.3640   24.7320 C   0  0  0  0  0  1  0  0  0  0  0  0
  -27.5930  -32.5370   25.7690 C   0  0  0  0  0  1  0  0  0  0  0  0
  -31.8280  -20.0390   15.7120 C   0  0  0  0  0  1  0  0  0  0  0  0
  -30.3700  -20.5070   15.6820 C   0  0  0  0  0  2  0  0  0  0  0  0
  -28.7440  -24.3930   18.0430 O   0  0  0  0  0  0  0  0  0  0  0  0
  -28.8760  -24.7300   17.1640 H   0  0  0  0  0  0  0  0  0  0  0  0
  -29.2400  -19.5430   20.4050 C   0  0  0  0  0  3  0  0  0  0  0  0
  -29.8060  -17.9620   19.9590 C   0  0  0  0  0  3  0  0  0  0  0  0
  -29.6800  -16.4410   20.7310 C   0  0  0  0  0  2  0  0  0  0  0  0
  -30.4710  -15.0060   20.3490 C   0  0  0  0  0  0  0  0  0  0  0  0
  -30.3920  -12.6370   19.4160 C   0  0  0  0  0  2  0  0  0  0  0  0
  -29.4710  -12.6000   18.1700 C   0  0  0  0  0  2  0  0  0  0  0  0
  -28.0030  -12.3900   18.5860 C   0  0  0  0  0  2  0  0  0  0  0  0
  -27.5880  -13.3060   19.7650 C   0  0  0  0  0  3  0  0  0  0  0  0
  -28.6320  -13.3070   20.9010 C   0  0  0  0  0  2  0  0  0  0  0  0
  -29.9110  -13.7240   20.3170 N   0  0  0  0  0  0  0  0  0  0  0  0
  -31.6570  -15.0700   20.0050 O   0  0  0  0  0  0  0  0  0  0  0  0
  -25.1990  -13.8880   20.4710 C   0  0  0  0  0  0  0  0  0  0  0  0
  -24.1300  -13.1140   20.8370 C   0  0  0  0  0  0  0  0  0  0  0  0
  -24.5970  -11.7650   20.8250 C   0  0  0  0  0  0  0  0  0  0  0  0
  -26.2450  -13.0080   20.2510 N   0  0  0  0  0  0  0  0  0  0  0  0
  -25.8920  -11.7260   20.5310 N   0  0  0  0  0  0  0  0  0  0  0  0
  -23.8660  -10.5050   21.0210 C   0  0  0  0  0  0  0  0  0  0  0  0
  -24.2920   -9.5410   21.9620 C   0  0  0  0  0  3  0  0  0  0  0  0
  -23.5620   -8.3470   22.1470 C   0  0  0  0  0  3  0  0  0  0  0  0
  -22.3900   -8.1080   21.3900 C   0  0  0  0  0  0  0  0  0  0  0  0
  -21.9820   -9.0580   20.4370 C   0  0  0  0  0  3  0  0  0  0  0  0
  -22.7140  -10.2450   20.2520 C   0  0  0  0  0  3  0  0  0  0  0  0
  -21.6320   -6.9650   21.4830 O   0  0  0  0  0  0  0  0  0  0  0  0
  -21.5880   -6.2220   22.6350 C   0  0  0  0  0  0  0  0  0  0  0  0
  -21.1830   -6.7810   23.8680 C   0  0  0  0  0  3  0  0  0  0  0  0
  -21.0860   -5.9650   25.0130 C   0  0  0  0  0  3  0  0  0  0  0  0
  -21.3830   -4.5910   24.9260 C   0  0  0  0  0  0  0  0  0  0  0  0
  -21.7810   -4.0330   23.6990 C   0  0  0  0  0  3  0  0  0  0  0  0
  -21.8810   -4.8460   22.5570 C   0  0  0  0  0  0  0  0  0  0  0  0
  -22.2450   -4.2990   21.3710 F   0  0  0  0  0  0  0  0  0  0  0  0
  -21.2820   -3.8040   26.0230 F   0  0  0  0  0  0  0  0  0  0  0  0
  -22.7300  -13.5940   21.0850 C   0  0  0  0  0  0  0  0  0  0  0  0
  -21.9900  -12.9080   21.9500 N   0  0  0  0  0  0  0  0  0  0  0  0
  -22.2990  -14.6130   20.5470 O   0  0  0  0  0  0  0  0  0  0  0  0
  -22.3500  -12.0820   22.4070 H   0  0  0  0  0  0  0  0  0  0  0  0
  -21.0500  -13.2130   22.1570 H   0  0  0  0  0  0  0  0  0  0  0  0
  -25.3620  -15.2560   20.2830 N   0  0  0  0  0  0  0  0  0  0  0  0
  -24.5910  -15.9070   20.3680 H   0  0  0  0  0  0  0  0  0  0  0  0
  -26.2200  -15.6980   19.9770 H   0  0  0  0  0  0  0  0  0  0  0  0
  1  5  1  0
  2  6  2  0
  3  7  1  0
  4  2  1  0
  4  1  2  0
  5  3  2  0
  5 54  1  0
  6  3  1  0
  7  8  2  0
  9 11  1  0
  9  8  1  0
 10 21  2  0
 11 16  1  0
 12 20  1  0
 12 22  1  0
 13 19  1  0
 13 15  1  0
 14 20  1  0
 15 16  2  0
 15 14  1  0
 17 11  2  0
 18 17  1  0
 18 13  2  0
 19 12  1  0
 20 10  1  0
 22 24  2  0
 23 22  1  0
 25 23  1  0
 26 35  2  0
 26 31  1  0
 27 23  1  0
 27 31  1  0
 28 27  1  0
 29 30  1  0
 29 28  1  0
 30 26  1  0
 31 32  2  0
 32 33  1  0
 34 33  2  0
 35 34  1  0
 36 10  1  0
 36 37  1  0
 36 46  1  0
 37 40  1  0
 38 42  1  0
 38 37  1  0
 39 38  2  0
 42 41  1  0
 44 42  1  0
 44 45  1  0
 44 43  1  0
 46 49  1  1
 46 47  1  0
 48 46  1  0
 51 50  1  0
 51  4  1  0
 52  6  1  0
 53 52  1  0
 55 54  2  0
 55 56  1  0
 57 56  1  0
 58 63  1  0
 59 60  1  0
 59 58  1  0
 61 60  1  0
 61 68  1  0
 61 62  1  0
 63 57  1  0
 63 62  1  0
 64 57  2  0
 65 66  2  0
 66 85  1  0
 67 66  1  0
 67 70  1  0
 68 65  1  0
 68 69  1  0
 69 67  2  0
 70 71  1  0
 71 72  2  0
 73 76  1  0
 73 72  1  0
 74 73  2  0
 75 74  1  0
 75 70  2  0
 76 77  1  0
 77 78  1  0
 78 79  2  0
 80 79  1  0
 80 84  1  0
 81 80  2  0
 82 77  2  0
 82 81  1  0
 83 82  1  0
 85 86  1  0
 86 89  1  0
 86 88  1  0
 87 85  2  0
 90 91  1  0
 90 65  1  0
 92 90  1  0
M  ISO  4   8 101   9 101  56 100  57 100
M  END
>  <TORSDO>  (74) 
F 22

>  <SCORE>  (74) 
-14.329

>  <name>  (74) 
73

>  <ligand_id>  (74) 
73

>  <original_smiles>  (74) 
[H]Oc1c([H])c(C([H])([H])C([H])([H])[H])c([H])c(C([H])([H])C([H])([H])C([H])([H])C(=O)N2C([H])([H])C([H])([H])C([H])([H])C([H])(n3nc(-c4c([H])c([H])c(Oc5c([H])c([H])c(F)c([H])c5F)c([H])c4[H])c(C(=O)N([H])[H])c3N([H])[H])C2([H])[H])c1C([H])=C([H])Oc1c([H])c([H])c2c(c1[H])C([H])([H])N(C(=O)C([H])(N([H])C(=O)C([H])(N([H])C([H])([H])[H])C([H])([H])[H])C(C([H])([H])[H])(C([H])([H])[H])C([H])([H])[H])C([H])(C(=O)N([H])C1([H])c3c([H])c([H])c([H])c([H])c3C([H])([H])C([H])([H])C1([H])[H])C2([H])[H]

>  <smiles>  (74) 
[H]Oc1c([H])c(C([H])([H])C([H])([H])[H])c([H])c(C([H])([H])C([H])([H])C([H])([H])C(=O)N2C([H])([H])C([H])([H])C([H])([H])C([H])(n3nc(-c4c([H])c([H])c(Oc5c([H])c([H])c(F)c([H])c5F)c([H])c4[H])c(C(=O)N([H])[H])c3N([H])[H])C2([H])[H])c1C([H])=C([H])Oc1c([H])c([H])c2c(c1[H])C([H])([H])N(C(=O)C([H])(N([H])C(=O)C([H])(N([H])C([H])([H])[H])C([H])([H])[H])C(C([H])([H])[H])(C([H])([H])[H])C([H])([H])[H])C([H])(C(=O)N([H])C1([H])c3c([H])c([H])c([H])c([H])c3C([H])([H])C([H])([H])C1([H])[H])C2([H])[H]

$$$$
74:0:0
     RDKit          3D

 93101  0  0  1  0  0  0  0  0999 V2000
  -30.2620  -20.9320   20.7740 C   0  0  0  0  0  3  0  0  0  0  0  0
  -30.6730  -19.5680   20.8190 C   0  0  0  0  0  3  0  0  0  0  0  0
  -28.9570  -21.3050   20.3630 C   0  0  0  0  0  0  0  0  0  0  0  0
  -29.7940  -18.5010   20.4810 C   0  0  0  0  0  0  0  0  0  0  0  0
  -28.1100  -20.2440   19.9250 C   0  0  0  0  0  0  0  0  0  0  0  0
  -28.5200  -18.8790   19.9890 C   0  0  0  0  0  0  0  0  0  0  0  0
  -27.6490  -17.9100   19.6140 F   0  0  0  0  0  0  0  0  0  0  0  0
  -26.8460  -20.5100   19.4760 O   0  0  0  0  0  0  0  0  0  0  0  0
  -26.6770  -21.4370   19.3770 H   0  0  0  0  0  0  0  0  0  0  0  0
  -28.4060  -22.7590   20.5760 C   0  0  0  0  0  2  0  0  0  0  0  0
  -28.9350  -24.0150   19.7780 C   0  0  0  0  0  2  0  0  0  0  0  0
  -28.2820  -25.3660   20.2860 C   0  0  0  0  0  2  0  0  0  0  0  0
  -28.3960  -26.5960   19.4970 O   0  0  0  0  0  0  0  0  0  0  0  0
  -24.6010  -31.6300   22.9290 C   0  0  0  0  0  0  0  0  0  0  0  0
  -27.2690  -27.4100   19.5290 C   0  0  0  0  0  0  0  0  0  0  0  0
  -23.3990  -30.3190   21.2140 C   0  0  0  0  0  3  0  0  0  0  0  0
  -24.8620  -28.9190   19.6550 C   0  0  0  0  0  0  0  0  0  0  0  0
  -25.9180  -30.7340   21.0040 C   0  0  0  0  0  2  0  0  0  0  0  0
  -26.0240  -29.4100   20.2650 C   0  0  0  0  0  0  0  0  0  0  0  0
  -27.2350  -28.6670   20.1940 C   0  0  0  0  0  3  0  0  0  0  0  0
  -26.0930  -26.9590   18.8940 C   0  0  0  0  0  3  0  0  0  0  0  0
  -24.8950  -27.6970   18.9590 C   0  0  0  0  0  3  0  0  0  0  0  0
  -23.6010  -29.7460   19.7860 C   0  0  0  0  0  2  0  0  0  0  0  0
  -24.6590  -30.9060   21.7740 N   0  0  0  0  0  0  0  0  0  0  0  0
  -23.5220  -31.8410   23.5020 O   0  0  0  0  0  0  0  0  0  0  0  0
  -22.7820  -29.2210   22.1120 C   0  0  0  0  0  0  0  0  0  0  0  0
  -21.4540  -29.0450   22.0240 N   0  0  0  0  0  0  0  0  0  0  0  0
  -23.4970  -28.5320   22.8450 O   0  0  0  0  0  0  0  0  0  0  0  0
  -20.9370  -29.6540   21.4050 H   0  0  0  0  0  0  0  0  0  0  0  0
  -18.0940  -27.8470   22.6160 C   0  0  0  0  0  0  0  0  0  0  0  0
  -20.6680  -28.0430   22.7450 C   0  0  0  0  0  3  0  0  0  0  0  0
  -20.7070  -26.6780   22.0190 C   0  0  0  0  0  2  0  0  0  0  0  0
  -19.5370  -26.4790   21.0510 C   0  0  0  0  0  2  0  0  0  0  0  0
  -18.2000  -26.5740   21.7950 C   0  0  0  0  0  2  0  0  0  0  0  0
  -19.2520  -28.5450   23.0500 C   0  0  0  0  0  0  0  0  0  0  0  0
  -19.0970  -29.7430   23.7810 C   0  0  0  0  0  3  0  0  0  0  0  0
  -17.8160  -30.2420   24.0810 C   0  0  0  0  0  3  0  0  0  0  0  0
  -16.6720  -29.5390   23.6630 C   0  0  0  0  0  3  0  0  0  0  0  0
  -16.8130  -28.3430   22.9370 C   0  0  0  0  0  3  0  0  0  0  0  0
  -25.8810  -32.2480   23.5710 C   0  0  0  0  0  3  0  0  0  0  0  0
  -25.5470  -33.6110   24.0030 N   0  0  0  0  0  0  0  0  0  0  0  0
  -25.8520  -34.7220   23.3190 C   0  0  0  0  0  0  0  0  0  0  0  0
  -26.5130  -34.7060   22.2770 O   0  0  0  0  0  0  0  0  0  0  0  0
  -24.9530  -33.6960   24.8160 H   0  0  0  0  0  0  0  0  0  0  0  0
  -24.0820  -36.4980   23.1100 C   0  0  0  0  0  1  0  0  0  0  0  0
  -25.3410  -36.0650   23.8780 C   0  0  0  0  0  3  0  0  0  0  0  0
  -27.4650  -36.9330   24.7500 C   0  0  0  0  0  1  0  0  0  0  0  0
  -26.3510  -37.1450   23.8300 N   0  0  0  0  0  0  0  0  0  0  0  0
  -25.9280  -38.0440   24.0460 H   0  0  0  0  0  0  0  0  0  0  0  0
  -26.4400  -31.4020   24.7810 C   0  0  1  0  0  0  0  0  0  0  0  0
  -25.3740  -31.0650   25.8490 C   0  0  0  0  0  1  0  0  0  0  0  0
  -27.0410  -30.0670   24.2810 C   0  0  0  0  0  1  0  0  0  0  0  0
  -27.5880  -32.1710   25.4750 C   0  0  0  0  0  1  0  0  0  0  0  0
  -30.1420  -16.9870   20.7280 C   0  0  0  0  0  3  0  0  0  0  0  0
  -31.0710  -17.4030   23.1180 C   0  0  0  0  0  1  0  0  0  0  0  0
  -31.3080  -16.7770   21.7320 C   0  0  0  0  0  2  0  0  0  0  0  0
  -30.1980  -16.0810   19.4340 C   0  0  0  0  0  2  0  0  0  0  0  0
  -31.0110  -14.7280   19.4000 C   0  0  0  0  0  0  0  0  0  0  0  0
  -30.7380  -12.3740   18.6830 C   0  0  0  0  0  2  0  0  0  0  0  0
  -29.7060  -12.3390   17.5350 C   0  0  0  0  0  2  0  0  0  0  0  0
  -28.2740  -12.2230   18.0930 C   0  0  0  0  0  2  0  0  0  0  0  0
  -27.9910  -13.2460   19.2230 C   0  0  0  0  0  3  0  0  0  0  0  0
  -29.1350  -13.2800   20.2610 C   0  0  0  0  0  2  0  0  0  0  0  0
  -30.3970  -13.5160   19.5530 N   0  0  0  0  0  0  0  0  0  0  0  0
  -32.1590  -14.7920   18.9520 O   0  0  0  0  0  0  0  0  0  0  0  0
  -25.7430  -13.9390   20.2550 C   0  0  0  0  0  0  0  0  0  0  0  0
  -24.6790  -13.2080   20.7120 C   0  0  0  0  0  0  0  0  0  0  0  0
  -25.0520  -11.8360   20.5650 C   0  0  0  0  0  0  0  0  0  0  0  0
  -26.6950  -13.0160   19.8550 N   0  0  0  0  0  0  0  0  0  0  0  0
  -26.2930  -11.7430   20.1040 N   0  0  0  0  0  0  0  0  0  0  0  0
  -24.2770  -10.6070   20.7820 C   0  0  0  0  0  0  0  0  0  0  0  0
  -24.6950   -9.6220   21.7030 C   0  0  0  0  0  3  0  0  0  0  0  0
  -23.9230   -8.4570   21.9060 C   0  0  0  0  0  3  0  0  0  0  0  0
  -22.7180   -8.2720   21.1890 C   0  0  0  0  0  0  0  0  0  0  0  0
  -22.3160   -9.2460   20.2570 C   0  0  0  0  0  3  0  0  0  0  0  0
  -23.0880  -10.4020   20.0530 C   0  0  0  0  0  3  0  0  0  0  0  0
  -21.9150   -7.1630   21.3030 O   0  0  0  0  0  0  0  0  0  0  0  0
  -21.7930   -6.4810   22.4870 C   0  0  0  0  0  0  0  0  0  0  0  0
  -21.3410   -7.1120   23.6660 C   0  0  0  0  0  3  0  0  0  0  0  0
  -21.1640   -6.3610   24.8450 C   0  0  0  0  0  3  0  0  0  0  0  0
  -21.4280   -4.9770   24.8440 C   0  0  0  0  0  0  0  0  0  0  0  0
  -21.8720   -4.3460   23.6690 C   0  0  0  0  0  3  0  0  0  0  0  0
  -22.0510   -5.0960   22.4940 C   0  0  0  0  0  0  0  0  0  0  0  0
  -22.4600   -4.4790   21.3590 F   0  0  0  0  0  0  0  0  0  0  0  0
  -21.2500   -4.2530   25.9730 F   0  0  0  0  0  0  0  0  0  0  0  0
  -23.3540  -13.7460   21.1700 C   0  0  0  0  0  0  0  0  0  0  0  0
  -22.7000  -13.0560   22.0970 N   0  0  0  0  0  0  0  0  0  0  0  0
  -22.9140  -14.8120   20.7410 O   0  0  0  0  0  0  0  0  0  0  0  0
  -23.0710  -12.1930   22.4650 H   0  0  0  0  0  0  0  0  0  0  0  0
  -21.8170  -13.3960   22.4480 H   0  0  0  0  0  0  0  0  0  0  0  0
  -25.9700  -15.3060   20.1250 N   0  0  0  0  0  0  0  0  0  0  0  0
  -25.2740  -15.9980   20.3790 H   0  0  0  0  0  0  0  0  0  0  0  0
  -26.8280  -15.7160   19.7820 H   0  0  0  0  0  0  0  0  0  0  0  0
  1  2  1  0
  3 10  1  0
  3  1  2  0
  4 54  1  0
  4  2  2  0
  5  6  2  0
  5  3  1  0
  6  4  1  0
  7  6  1  0
  8  5  1  0
  9  8  1  0
 11 12  1  0
 11 10  1  0
 13 15  1  0
 13 12  1  0
 14 25  2  0
 15 20  1  0
 16 24  1  0
 16 26  1  0
 17 23  1  0
 17 19  1  0
 18 24  1  0
 19 18  1  0
 20 19  2  0
 21 22  1  0
 21 15  2  0
 22 17  2  0
 23 16  1  0
 24 14  1  0
 26 28  2  0
 27 26  1  0
 29 27  1  0
 30 39  2  0
 30 35  1  0
 31 27  1  0
 31 35  1  0
 32 31  1  0
 33 34  1  0
 33 32  1  0
 34 30  1  0
 35 36  2  0
 36 37  1  0
 38 37  2  0
 39 38  1  0
 40 14  1  0
 40 41  1  0
 40 50  1  0
 41 44  1  0
 42 46  1  0
 42 41  1  0
 43 42  2  0
 46 45  1  0
 48 46  1  0
 48 49  1  0
 48 47  1  0
 50 53  1  1
 50 51  1  0
 52 50  1  0
 54 57  1  0
 54 56  1  0
 56 55  1  0
 58 57  1  0
 58 64  1  0
 59 64  1  0
 60 61  1  0
 60 59  1  0
 62 61  1  0
 62 69  1  0
 62 63  1  0
 64 63  1  0
 65 58  2  0
 66 67  2  0
 67 86  1  0
 68 67  1  0
 68 71  1  0
 69 70  1  0
 69 66  1  0
 70 68  2  0
 71 72  1  0
 72 73  2  0
 74 77  1  0
 74 73  1  0
 75 74  2  0
 76 75  1  0
 76 71  2  0
 77 78  1  0
 78 83  2  0
 78 79  1  0
 79 80  2  0
 81 80  1  0
 81 85  1  0
 82 81  2  0
 83 82  1  0
 84 83  1  0
 86 87  1  0
 87 90  1  0
 87 89  1  0
 88 86  2  0
 91 66  1  0
 91 92  1  0
 93 91  1  0
M  ISO  4  12 101  13 101  57 100  58 100
M  END
>  <TORSDO>  (75) 
F 23

>  <SCORE>  (75) 
-11.821

>  <name>  (75) 
74

>  <ligand_id>  (75) 
74

>  <original_smiles>  (75) 
[H]Oc1c(F)c(C([H])(C([H])([H])C(=O)N2C([H])([H])C([H])([H])C([H])([H])C([H])(n3nc(-c4c([H])c([H])c(Oc5c([H])c([H])c(F)c([H])c5F)c([H])c4[H])c(C(=O)N([H])[H])c3N([H])[H])C2([H])[H])C([H])([H])C([H])([H])[H])c([H])c([H])c1C([H])([H])C([H])([H])C([H])([H])Oc1c([H])c([H])c2c(c1[H])C([H])([H])N(C(=O)C([H])(N([H])C(=O)C([H])(N([H])C([H])([H])[H])C([H])([H])[H])C(C([H])([H])[H])(C([H])([H])[H])C([H])([H])[H])C([H])(C(=O)N([H])C1([H])c3c([H])c([H])c([H])c([H])c3C([H])([H])C([H])([H])C1([H])[H])C2([H])[H]

>  <smiles>  (75) 
[H]Oc1c(F)c(C([H])(C([H])([H])C(=O)N2C([H])([H])C([H])([H])C([H])([H])C([H])(n3nc(-c4c([H])c([H])c(Oc5c([H])c([H])c(F)c([H])c5F)c([H])c4[H])c(C(=O)N([H])[H])c3N([H])[H])C2([H])[H])C([H])([H])C([H])([H])[H])c([H])c([H])c1C([H])([H])C([H])([H])C([H])([H])Oc1c([H])c([H])c2c(c1[H])C([H])([H])N(C(=O)C([H])(N([H])C(=O)C([H])(N([H])C([H])([H])[H])C([H])([H])[H])C(C([H])([H])[H])(C([H])([H])[H])C([H])([H])[H])C([H])(C(=O)N([H])C1([H])c3c([H])c([H])c([H])c([H])c3C([H])([H])C([H])([H])C1([H])[H])C2([H])[H]

$$$$
75:0:0
     RDKit          3D

 90 98  0  0  1  0  0  0  0  0999 V2000
  -29.3280  -22.2790   21.1430 C   0  0  0  0  0  3  0  0  0  0  0  0
  -29.1360  -23.7490   21.1590 C   0  0  0  0  0  3  0  0  0  0  0  0
  -27.7170  -23.6080   19.3530 C   0  0  0  0  0  3  0  0  0  0  0  0
  -28.7290  -21.3240   20.2270 C   0  0  0  0  0  0  0  0  0  0  0  0
  -27.8930  -22.1370   19.3330 C   0  0  0  0  0  0  0  0  0  0  0  0
  -28.2970  -24.5550   20.2820 C   0  0  0  0  0  0  0  0  0  0  0  0
  -27.1710  -21.4890   18.3260 N   0  0  0  0  0  0  0  0  0  0  0  0
  -26.4200  -21.9980   17.8710 H   0  0  0  0  0  0  0  0  0  0  0  0
  -26.9370  -20.5100   18.4700 H   0  0  0  0  0  0  0  0  0  0  0  0
  -28.7090  -19.6270   20.3170 C   0  0  0  0  0  0  0  0  0  0  0  0
  -27.5720  -19.1470   20.3570 O   0  0  0  0  0  0  0  0  0  0  0  0
  -29.8580  -18.3640   20.3220 C   0  0  0  0  0  3  0  0  0  0  0  0
  -29.5120  -16.6460   20.5120 C   0  0  0  0  0  3  0  0  0  0  0  0
  -30.4130  -15.2020   20.2600 C   0  0  0  0  0  0  0  0  0  0  0  0
  -30.3970  -12.7970   19.3330 C   0  0  0  0  0  2  0  0  0  0  0  0
  -29.4460  -12.6940   18.1150 C   0  0  0  0  0  2  0  0  0  0  0  0
  -27.9940  -12.4390   18.5650 C   0  0  0  0  0  2  0  0  0  0  0  0
  -27.5830  -13.3550   19.7450 C   0  0  0  0  0  3  0  0  0  0  0  0
  -28.6530  -13.4100   20.8520 C   0  0  0  0  0  2  0  0  0  0  0  0
  -29.8990  -13.8880   20.2340 N   0  0  0  0  0  0  0  0  0  0  0  0
  -31.6110  -15.2730   19.9510 O   0  0  0  0  0  0  0  0  0  0  0  0
  -25.2220  -13.9020   20.5520 C   0  0  0  0  0  0  0  0  0  0  0  0
  -24.1690  -13.1160   20.9290 C   0  0  0  0  0  0  0  0  0  0  0  0
  -24.6380  -11.7680   20.8670 C   0  0  0  0  0  0  0  0  0  0  0  0
  -26.2610  -13.0330   20.2700 N   0  0  0  0  0  0  0  0  0  0  0  0
  -25.9220  -11.7430   20.5260 N   0  0  0  0  0  0  0  0  0  0  0  0
  -23.9170  -10.5010   21.0500 C   0  0  0  0  0  0  0  0  0  0  0  0
  -24.3580   -9.5270   21.9730 C   0  0  0  0  0  3  0  0  0  0  0  0
  -23.6360   -8.3260   22.1470 C   0  0  0  0  0  3  0  0  0  0  0  0
  -22.4600   -8.0900   21.3950 C   0  0  0  0  0  0  0  0  0  0  0  0
  -22.0390   -9.0520   20.4610 C   0  0  0  0  0  3  0  0  0  0  0  0
  -22.7610  -10.2450   20.2870 C   0  0  0  0  0  3  0  0  0  0  0  0
  -21.7090   -6.9420   21.4780 O   0  0  0  0  0  0  0  0  0  0  0  0
  -21.6500   -6.2010   22.6320 C   0  0  0  0  0  0  0  0  0  0  0  0
  -21.1780   -6.7480   23.8450 C   0  0  0  0  0  3  0  0  0  0  0  0
  -21.0680   -5.9320   24.9880 C   0  0  0  0  0  3  0  0  0  0  0  0
  -21.4210   -4.5710   24.9200 C   0  0  0  0  0  0  0  0  0  0  0  0
  -21.8860   -4.0240   23.7110 C   0  0  0  0  0  3  0  0  0  0  0  0
  -21.9970   -4.8360   22.5700 C   0  0  0  0  0  0  0  0  0  0  0  0
  -22.4250   -4.2980   21.4020 F   0  0  0  0  0  0  0  0  0  0  0  0
  -21.3090   -3.7860   26.0170 F   0  0  0  0  0  0  0  0  0  0  0  0
  -22.7760  -13.5840   21.2340 C   0  0  0  0  0  0  0  0  0  0  0  0
  -22.0680  -12.8750   22.1060 N   0  0  0  0  0  0  0  0  0  0  0  0
  -22.3240  -14.6150   20.7340 O   0  0  0  0  0  0  0  0  0  0  0  0
  -22.4480  -12.0440   22.5330 H   0  0  0  0  0  0  0  0  0  0  0  0
  -21.1330  -13.1690   22.3510 H   0  0  0  0  0  0  0  0  0  0  0  0
  -25.3790  -15.2770   20.3990 N   0  0  0  0  0  0  0  0  0  0  0  0
  -24.6180  -15.9300   20.5490 H   0  0  0  0  0  0  0  0  0  0  0  0
  -26.2270  -15.7280   20.0810 H   0  0  0  0  0  0  0  0  0  0  0  0
  -28.2600  -26.0720   20.2640 O   0  0  0  0  0  0  0  0  0  0  0  0
  -24.6260  -31.8910   23.2500 C   0  0  0  0  0  0  0  0  0  0  0  0
  -27.1780  -27.0660   20.2430 C   0  0  0  0  0  0  0  0  0  0  0  0
  -23.4210  -30.4920   21.6200 C   0  0  0  0  0  3  0  0  0  0  0  0
  -24.8610  -28.8860   20.2010 C   0  0  0  0  0  0  0  0  0  0  0  0
  -25.9800  -30.7210   21.4560 C   0  0  0  0  0  2  0  0  0  0  0  0
  -26.0450  -29.3150   20.8110 C   0  0  0  0  0  0  0  0  0  0  0  0
  -27.1980  -28.4220   20.8100 C   0  0  0  0  0  3  0  0  0  0  0  0
  -25.9630  -26.7650   19.5890 C   0  0  0  0  0  3  0  0  0  0  0  0
  -24.8380  -27.6290   19.5720 C   0  0  0  0  0  3  0  0  0  0  0  0
  -23.6410  -29.8000   20.2460 C   0  0  0  0  0  2  0  0  0  0  0  0
  -24.6970  -31.0610   22.1630 N   0  0  0  0  0  0  0  0  0  0  0  0
  -23.5410  -32.1840   23.7780 O   0  0  0  0  0  0  0  0  0  0  0  0
  -22.7350  -29.4980   22.5920 C   0  0  0  0  0  0  0  0  0  0  0  0
  -21.4060  -29.3270   22.4650 N   0  0  0  0  0  0  0  0  0  0  0  0
  -23.4030  -28.8810   23.4250 O   0  0  0  0  0  0  0  0  0  0  0  0
  -20.9210  -29.8740   21.7680 H   0  0  0  0  0  0  0  0  0  0  0  0
  -18.0280  -28.1100   22.9720 C   0  0  0  0  0  0  0  0  0  0  0  0
  -20.5850  -28.3930   23.2420 C   0  0  0  0  0  3  0  0  0  0  0  0
  -20.6960  -26.9560   22.6820 C   0  0  0  0  0  2  0  0  0  0  0  0
  -19.5990  -26.6160   21.6670 C   0  0  0  0  0  2  0  0  0  0  0  0
  -18.2160  -26.7580   22.3050 C   0  0  0  0  0  2  0  0  0  0  0  0
  -19.1400  -28.8850   23.3970 C   0  0  0  0  0  0  0  0  0  0  0  0
  -18.9090  -30.1480   23.9830 C   0  0  0  0  0  3  0  0  0  0  0  0
  -17.6000  -30.6380   24.1450 C   0  0  0  0  0  3  0  0  0  0  0  0
  -16.5030  -29.8620   23.7330 C   0  0  0  0  0  3  0  0  0  0  0  0
  -16.7170  -28.6000   23.1540 C   0  0  0  0  0  3  0  0  0  0  0  0
  -25.9040  -32.5320   23.8740 C   0  0  0  0  0  3  0  0  0  0  0  0
  -26.4120  -31.7710   25.1610 C   0  0  1  0  0  0  0  0  0  0  0  0
  -25.3140  -31.5460   26.2280 C   0  0  0  0  0  1  0  0  0  0  0  0
  -26.9910  -30.3860   24.7900 C   0  0  0  0  0  1  0  0  0  0  0  0
  -27.5630  -32.5660   25.8210 C   0  0  0  0  0  1  0  0  0  0  0  0
  -25.5930  -33.9330   24.2030 N   0  0  0  0  0  0  0  0  0  0  0  0
  -25.9080  -34.9890   23.4400 C   0  0  0  0  0  0  0  0  0  0  0  0
  -26.5550  -34.8840   22.3950 O   0  0  0  0  0  0  0  0  0  0  0  0
  -25.0130  -34.0870   25.0160 H   0  0  0  0  0  0  0  0  0  0  0  0
  -24.1650  -36.7800   23.1360 C   0  0  0  0  0  1  0  0  0  0  0  0
  -25.4330  -36.3800   23.9080 C   0  0  0  0  0  3  0  0  0  0  0  0
  -27.5870  -37.2800   24.6690 C   0  0  0  0  0  1  0  0  0  0  0  0
  -26.4580  -37.4360   23.7550 N   0  0  0  0  0  0  0  0  0  0  0  0
  -26.0540  -38.3550   23.9050 H   0  0  0  0  0  0  0  0  0  0  0  0
  1  2  1  0
  3  6  1  0
  4 10  1  0
  4  1  2  0
  5  3  2  0
  5  4  1  0
  6  2  2  0
  7  9  1  0
  7  5  1  0
  8  7  1  0
 10 12  1  0
 10 11  2  0
 12 13  2  0
 14 13  1  0
 15 20  1  0
 16 17  1  0
 16 15  1  0
 18 17  1  0
 18 25  1  0
 18 19  1  0
 20 14  1  0
 20 19  1  0
 21 14  2  0
 22 23  2  0
 23 42  1  0
 24 23  1  0
 24 27  1  0
 25 26  1  0
 25 22  1  0
 26 24  2  0
 27 28  1  0
 28 29  2  0
 30 33  1  0
 30 29  1  0
 31 30  2  0
 32 31  1  0
 32 27  2  0
 33 34  1  0
 34 35  1  0
 35 36  2  0
 37 36  1  0
 37 41  1  0
 38 37  2  0
 39 34  2  0
 39 38  1  0
 40 39  1  0
 42 43  1  0
 43 46  1  0
 43 45  1  0
 44 42  2  0
 47 48  1  0
 47 22  1  0
 49 47  1  0
 50  6  1  0
 51 62  2  0
 52 50  1  0
 52 57  1  0
 53 61  1  0
 53 63  1  0
 54 60  1  0
 54 56  1  0
 55 61  1  0
 56 55  1  0
 57 56  2  0
 58 52  2  0
 59 58  1  0
 59 54  2  0
 60 53  1  0
 61 51  1  0
 63 65  2  0
 64 63  1  0
 66 64  1  0
 67 76  2  0
 67 72  1  0
 68 64  1  0
 68 72  1  0
 69 68  1  0
 70 71  1  0
 70 69  1  0
 71 67  1  0
 72 73  2  0
 73 74  1  0
 75 74  2  0
 76 75  1  0
 77 51  1  0
 77 82  1  0
 77 78  1  0
 78 81  1  1
 78 79  1  0
 80 78  1  0
 82 85  1  0
 83 87  1  0
 83 82  1  0
 84 83  2  0
 87 86  1  0
 89 90  1  0
 89 87  1  0
 89 88  1  0
M  ISO  4   6 101  13 100  14 100  50 101
M  END
>  <TORSDO>  (76) 
F 20

>  <SCORE>  (76) 
-15.792

>  <name>  (76) 
75

>  <ligand_id>  (76) 
75

>  <original_smiles>  (76) 
[H]c1c([H])c([H])c2c(c1[H])C([H])([H])C([H])([H])C([H])([H])C2([H])N([H])C(=O)C1([H])N(C(=O)C([H])(N([H])C(=O)C([H])(N([H])C([H])([H])[H])C([H])([H])[H])C(C([H])([H])[H])(C([H])([H])[H])C([H])([H])[H])C([H])([H])c2c([H])c(Oc3c([H])c([H])c(C(=O)C([H])([H])C([H])([H])C(=O)N4C([H])([H])C([H])([H])C([H])([H])C([H])(n5nc(-c6c([H])c([H])c(Oc7c([H])c([H])c(F)c([H])c7F)c([H])c6[H])c(C(=O)N([H])[H])c5N([H])[H])C4([H])[H])c(N([H])[H])c3[H])c([H])c([H])c2C1([H])[H]

>  <smiles>  (76) 
[H]c1c([H])c([H])c2c(c1[H])C([H])([H])C([H])([H])C([H])([H])C2([H])N([H])C(=O)C1([H])N(C(=O)C([H])(N([H])C(=O)C([H])(N([H])C([H])([H])[H])C([H])([H])[H])C(C([H])([H])[H])(C([H])([H])[H])C([H])([H])[H])C([H])([H])c2c([H])c(Oc3c([H])c([H])c(C(=O)C([H])([H])C([H])([H])C(=O)N4C([H])([H])C([H])([H])C([H])([H])C([H])(n5nc(-c6c([H])c([H])c(Oc7c([H])c([H])c(F)c([H])c7F)c([H])c6[H])c(C(=O)N([H])[H])c5N([H])[H])C4([H])[H])c(N([H])[H])c3[H])c([H])c([H])c2C1([H])[H]

$$$$
76:0:0
     RDKit          3D

 92101  0  0  1  0  0  0  0  0999 V2000
  -27.8390  -22.4470   20.4990 C   0  0  0  0  0  3  0  0  0  0  0  0
  -30.1160  -23.0160   20.6880 C   0  0  0  0  0  3  0  0  0  0  0  0
  -27.5080  -23.8610   20.3040 C   0  0  0  0  0  3  0  0  0  0  0  0
  -29.7910  -24.4080   20.4810 C   0  0  0  0  0  3  0  0  0  0  0  0
  -29.1710  -21.9410   20.7170 C   0  0  0  0  0  0  0  0  0  0  0  0
  -28.4740  -24.9310   20.2930 C   0  0  0  0  0  0  0  0  0  0  0  0
  -29.6610  -20.4750   21.1920 C   0  0  0  0  0  0  0  0  0  0  0  0
  -30.4430  -20.4880   22.1470 O   0  0  0  0  0  0  0  0  0  0  0  0
  -28.4870  -18.9020   19.5220 C   0  0  0  0  0  3  0  0  0  0  0  0
  -28.2700  -17.6540   18.9020 C   0  0  0  0  0  3  0  0  0  0  0  0
  -29.9840  -17.7370   21.0570 C   0  0  0  0  0  3  0  0  0  0  0  0
  -29.3750  -19.0200   20.6040 C   0  0  0  0  0  0  0  0  0  0  0  0
  -29.7480  -16.3980   20.4660 C   0  0  0  0  0  0  0  0  0  0  0  0
  -28.9060  -16.4640   19.3240 C   0  0  0  0  0  0  0  0  0  0  0  0
  -28.7390  -15.3850   18.5290 F   0  0  0  0  0  0  0  0  0  0  0  0
  -30.5160  -15.0190   20.7670 C   0  0  0  0  0  0  0  0  0  0  0  0
  -30.4810  -12.6370   19.9310 C   0  0  0  0  0  2  0  0  0  0  0  0
  -29.6430  -12.5150   18.6370 C   0  0  0  0  0  2  0  0  0  0  0  0
  -28.1420  -12.3430   18.9590 C   0  0  0  0  0  2  0  0  0  0  0  0
  -27.6370  -13.2820   20.0870 C   0  0  0  0  0  3  0  0  0  0  0  0
  -28.6170  -13.3660   21.2710 C   0  0  0  0  0  2  0  0  0  0  0  0
  -29.9270  -13.7570   20.7360 N   0  0  0  0  0  0  0  0  0  0  0  0
  -31.7520  -15.0550   20.7380 O   0  0  0  0  0  0  0  0  0  0  0  0
  -25.2080  -13.8390   20.6580 C   0  0  0  0  0  0  0  0  0  0  0  0
  -24.1340  -13.0510   20.9610 C   0  0  0  0  0  0  0  0  0  0  0  0
  -24.6220  -11.7090   20.9880 C   0  0  0  0  0  0  0  0  0  0  0  0
  -26.2790  -12.9710   20.5070 N   0  0  0  0  0  0  0  0  0  0  0  0
  -25.9320  -11.6880   20.7760 N   0  0  0  0  0  0  0  0  0  0  0  0
  -23.9080  -10.4360   21.1440 C   0  0  0  0  0  0  0  0  0  0  0  0
  -24.2990   -9.4840   22.1110 C   0  0  0  0  0  3  0  0  0  0  0  0
  -23.5830   -8.2760   22.2560 C   0  0  0  0  0  3  0  0  0  0  0  0
  -22.4620   -8.0140   21.4320 C   0  0  0  0  0  0  0  0  0  0  0  0
  -22.0930   -8.9540   20.4550 C   0  0  0  0  0  3  0  0  0  0  0  0
  -22.8090  -10.1530   20.3090 C   0  0  0  0  0  3  0  0  0  0  0  0
  -21.7230   -6.8570   21.4850 O   0  0  0  0  0  0  0  0  0  0  0  0
  -21.6280   -6.1160   22.6350 C   0  0  0  0  0  0  0  0  0  0  0  0
  -21.1180   -6.6630   23.8330 C   0  0  0  0  0  3  0  0  0  0  0  0
  -20.9730   -5.8460   24.9720 C   0  0  0  0  0  3  0  0  0  0  0  0
  -21.3260   -4.4840   24.9150 C   0  0  0  0  0  0  0  0  0  0  0  0
  -21.8280   -3.9380   23.7210 C   0  0  0  0  0  3  0  0  0  0  0  0
  -21.9760   -4.7520   22.5830 C   0  0  0  0  0  0  0  0  0  0  0  0
  -22.4400   -4.2140   21.4290 F   0  0  0  0  0  0  0  0  0  0  0  0
  -21.1790   -3.6980   26.0060 F   0  0  0  0  0  0  0  0  0  0  0  0
  -22.7130  -13.5070   21.1180 C   0  0  0  0  0  0  0  0  0  0  0  0
  -21.9330  -12.8080   21.9350 N   0  0  0  0  0  0  0  0  0  0  0  0
  -22.2990  -14.5190   20.5520 O   0  0  0  0  0  0  0  0  0  0  0  0
  -22.2780  -11.9920   22.4150 H   0  0  0  0  0  0  0  0  0  0  0  0
  -20.9750  -13.0960   22.0840 H   0  0  0  0  0  0  0  0  0  0  0  0
  -25.3610  -15.2100   20.4720 N   0  0  0  0  0  0  0  0  0  0  0  0
  -24.5790  -15.8530   20.5230 H   0  0  0  0  0  0  0  0  0  0  0  0
  -26.2290  -15.6600   20.2080 H   0  0  0  0  0  0  0  0  0  0  0  0
  -28.3260  -26.3770   20.1110 O   0  0  0  0  0  0  0  0  0  0  0  0
  -24.5740  -31.8920   23.1600 C   0  0  0  0  0  0  0  0  0  0  0  0
  -27.1830  -27.2350   20.1230 C   0  0  0  0  0  0  0  0  0  0  0  0
  -23.3780  -30.4960   21.5130 C   0  0  0  0  0  3  0  0  0  0  0  0
  -24.8320  -28.9270   20.0900 C   0  0  0  0  0  0  0  0  0  0  0  0
  -25.9240  -30.7840   21.3470 C   0  0  0  0  0  2  0  0  0  0  0  0
  -26.0020  -29.3930   20.7020 C   0  0  0  0  0  0  0  0  0  0  0  0
  -27.1730  -28.5590   20.7070 C   0  0  0  0  0  3  0  0  0  0  0  0
  -25.9950  -26.8570   19.4650 C   0  0  0  0  0  3  0  0  0  0  0  0
  -24.8380  -27.6700   19.4590 C   0  0  0  0  0  3  0  0  0  0  0  0
  -23.6000  -29.8170   20.1330 C   0  0  0  0  0  2  0  0  0  0  0  0
  -24.6440  -31.0790   22.0610 N   0  0  0  0  0  0  0  0  0  0  0  0
  -23.4880  -32.1690   23.6900 O   0  0  0  0  0  0  0  0  0  0  0  0
  -22.7070  -29.4830   22.4720 C   0  0  0  0  0  0  0  0  0  0  0  0
  -21.3770  -29.3240   22.3590 N   0  0  0  0  0  0  0  0  0  0  0  0
  -23.3840  -28.8430   23.2810 O   0  0  0  0  0  0  0  0  0  0  0  0
  -20.8880  -29.8910   21.6800 H   0  0  0  0  0  0  0  0  0  0  0  0
  -17.9910  -28.1620   22.8970 C   0  0  0  0  0  0  0  0  0  0  0  0
  -20.5560  -28.3850   23.1270 C   0  0  0  0  0  3  0  0  0  0  0  0
  -20.6290  -26.9620   22.5280 C   0  0  0  0  0  2  0  0  0  0  0  0
  -19.5070  -26.6710   21.5260 C   0  0  0  0  0  2  0  0  0  0  0  0
  -18.1380  -26.8220   22.1950 C   0  0  0  0  0  2  0  0  0  0  0  0
  -19.1260  -28.9030   23.3210 C   0  0  0  0  0  0  0  0  0  0  0  0
  -18.9320  -30.1560   23.9390 C   0  0  0  0  0  3  0  0  0  0  0  0
  -17.6370  -30.6710   24.1370 C   0  0  0  0  0  3  0  0  0  0  0  0
  -16.5160  -29.9260   23.7280 C   0  0  0  0  0  3  0  0  0  0  0  0
  -16.6940  -28.6740   23.1140 C   0  0  0  0  0  3  0  0  0  0  0  0
  -25.8530  -32.5280   23.7880 C   0  0  0  0  0  3  0  0  0  0  0  0
  -25.5340  -33.9210   24.1360 N   0  0  0  0  0  0  0  0  0  0  0  0
  -25.8820  -34.9880   23.4040 C   0  0  0  0  0  0  0  0  0  0  0  0
  -26.5710  -34.9040   22.3840 O   0  0  0  0  0  0  0  0  0  0  0  0
  -24.9250  -34.0610   24.9260 H   0  0  0  0  0  0  0  0  0  0  0  0
  -24.1800  -36.8060   23.0340 C   0  0  0  0  0  1  0  0  0  0  0  0
  -25.3890  -36.3700   23.8790 C   0  0  0  0  0  3  0  0  0  0  0  0
  -27.4980  -37.2210   24.8080 C   0  0  0  0  0  1  0  0  0  0  0  0
  -26.4320  -37.4180   23.8280 N   0  0  0  0  0  0  0  0  0  0  0  0
  -26.0280  -38.3380   23.9810 H   0  0  0  0  0  0  0  0  0  0  0  0
  -26.3710  -31.7500   25.0610 C   0  0  1  0  0  0  0  0  0  0  0  0
  -25.2780  -31.5000   26.1270 C   0  0  0  0  0  1  0  0  0  0  0  0
  -26.9600  -30.3760   24.6630 C   0  0  0  0  0  1  0  0  0  0  0  0
  -27.5190  -32.5430   25.7290 C   0  0  0  0  0  1  0  0  0  0  0  0
  1  5  1  0
  2  5  2  0
  3  1  2  0
  4  2  1  0
  5  7  1  0
  6  3  1  0
  6  4  2  0
  7  8  2  0
  9 12  1  0
 10 14  1  0
 10  9  2  0
 12 11  2  0
 12  7  1  0
 13 16  1  0
 13 11  1  0
 14 13  2  0
 15 14  1  0
 17 22  1  0
 18 19  1  0
 18 17  1  0
 20 19  1  0
 20 27  1  0
 20 21  1  0
 22 16  1  0
 22 21  1  0
 23 16  2  0
 24 25  2  0
 25 26  1  0
 25 44  1  0
 26 29  1  0
 27 24  1  0
 27 28  1  0
 28 26  2  0
 29 30  1  0
 30 31  2  0
 32 35  1  0
 32 31  1  0
 33 32  2  0
 34 33  1  0
 34 29  2  0
 35 36  1  0
 36 37  1  0
 37 38  2  0
 39 38  1  0
 39 43  1  0
 40 39  2  0
 41 36  2  0
 41 40  1  0
 42 41  1  0
 44 45  1  0
 45 48  1  0
 45 47  1  0
 46 44  2  0
 49 50  1  0
 49 24  1  0
 51 49  1  0
 52 54  1  0
 52  6  1  0
 53 64  2  0
 54 59  1  0
 55 63  1  0
 55 65  1  0
 56 62  1  0
 56 58  1  0
 57 63  1  0
 58 59  2  0
 58 57  1  0
 60 54  2  0
 61 60  1  0
 61 56  2  0
 62 55  1  0
 63 53  1  0
 65 67  2  0
 66 65  1  0
 68 66  1  0
 69 78  2  0
 69 74  1  0
 70 66  1  0
 70 74  1  0
 71 70  1  0
 72 73  1  0
 72 71  1  0
 73 69  1  0
 74 75  2  0
 75 76  1  0
 77 76  2  0
 78 77  1  0
 79 53  1  0
 79 80  1  0
 79 89  1  0
 80 83  1  0
 81 85  1  0
 81 80  1  0
 82 81  2  0
 85 84  1  0
 87 85  1  0
 87 88  1  0
 87 86  1  0
 89 92  1  1
 89 90  1  0
 91 89  1  0
M  ISO  4   6 101  13 100  16 100  52 101
M  END
>  <TORSDO>  (77) 
F 18

>  <SCORE>  (77) 
-14.735

>  <name>  (77) 
76

>  <ligand_id>  (77) 
76

>  <original_smiles>  (77) 
[H]c1c([H])c([H])c2c(c1[H])C([H])([H])C([H])([H])C([H])([H])C2([H])N([H])C(=O)C1([H])N(C(=O)C([H])(N([H])C(=O)C([H])(N([H])C([H])([H])[H])C([H])([H])[H])C(C([H])([H])[H])(C([H])([H])[H])C([H])([H])[H])C([H])([H])c2c([H])c(Oc3c([H])c([H])c(C(=O)c4c([H])c([H])c(F)c(C(=O)N5C([H])([H])C([H])([H])C([H])([H])C([H])(n6nc(-c7c([H])c([H])c(Oc8c([H])c([H])c(F)c([H])c8F)c([H])c7[H])c(C(=O)N([H])[H])c6N([H])[H])C5([H])[H])c4[H])c([H])c3[H])c([H])c([H])c2C1([H])[H]

>  <smiles>  (77) 
[H]c1c([H])c([H])c2c(c1[H])C([H])([H])C([H])([H])C([H])([H])C2([H])N([H])C(=O)C1([H])N(C(=O)C([H])(N([H])C(=O)C([H])(N([H])C([H])([H])[H])C([H])([H])[H])C(C([H])([H])[H])(C([H])([H])[H])C([H])([H])[H])C([H])([H])c2c([H])c(Oc3c([H])c([H])c(C(=O)c4c([H])c([H])c(F)c(C(=O)N5C([H])([H])C([H])([H])C([H])([H])C([H])(n6nc(-c7c([H])c([H])c(Oc8c([H])c([H])c(F)c([H])c8F)c([H])c7[H])c(C(=O)N([H])[H])c6N([H])[H])C5([H])[H])c4[H])c([H])c3[H])c([H])c([H])c2C1([H])[H]

$$$$
77:0:0
     RDKit          3D

 90 97  0  0  1  0  0  0  0  0999 V2000
  -28.2800  -22.0060   20.1110 C   0  0  0  0  0  0  0  0  0  0  0  0
  -28.1530  -23.2600   20.5550 N   0  0  0  0  0  0  0  0  0  0  0  0
  -28.7410  -21.7420   19.0010 O   0  0  0  0  0  0  0  0  0  0  0  0
  -27.7610  -23.3900   21.4770 H   0  0  0  0  0  0  0  0  0  0  0  0
  -27.7610  -20.8920   21.0310 C   0  0  0  0  0  2  0  0  0  0  0  0
  -28.8280  -19.8910   21.5300 C   0  0  0  0  0  2  0  0  0  0  0  0
  -29.2470  -18.8170   20.5080 C   0  0  0  0  0  2  0  0  0  0  0  0
  -29.9300  -17.5990   21.1560 C   0  0  0  0  0  2  0  0  0  0  0  0
  -30.4380  -16.5990   20.0960 C   0  0  0  0  0  2  0  0  0  0  0  0
  -31.2550  -14.3840   19.7020 C   0  0  0  0  0  0  0  0  0  0  0  0
  -30.6640  -12.3080   18.5080 C   0  0  0  0  0  2  0  0  0  0  0  0
  -29.6150  -12.5880   17.4160 C   0  0  0  0  0  2  0  0  0  0  0  0
  -28.1910  -12.5170   18.0000 C   0  0  0  0  0  2  0  0  0  0  0  0
  -28.0360  -13.3600   19.2930 C   0  0  0  0  0  3  0  0  0  0  0  0
  -29.1840  -13.0630   20.2860 C   0  0  0  0  0  2  0  0  0  0  0  0
  -30.4660  -13.2820   19.5920 N   0  0  0  0  0  0  0  0  0  0  0  0
  -32.2390  -14.5860   18.9810 O   0  0  0  0  0  0  0  0  0  0  0  0
  -31.6800  -15.3620   21.8480 C   0  0  0  0  0  1  0  0  0  0  0  0
  -30.8760  -15.2950   20.6240 N   0  0  0  0  0  0  0  0  0  0  0  0
  -25.7810  -14.0900   20.3000 C   0  0  0  0  0  0  0  0  0  0  0  0
  -24.7050  -13.3720   20.7490 C   0  0  0  0  0  0  0  0  0  0  0  0
  -25.0560  -11.9960   20.5970 C   0  0  0  0  0  0  0  0  0  0  0  0
  -26.7260  -13.1530   19.9080 N   0  0  0  0  0  0  0  0  0  0  0  0
  -26.2970  -11.8860   20.1400 N   0  0  0  0  0  0  0  0  0  0  0  0
  -24.2640  -10.7770   20.8050 C   0  0  0  0  0  0  0  0  0  0  0  0
  -24.6360   -9.8100   21.7640 C   0  0  0  0  0  3  0  0  0  0  0  0
  -23.8470   -8.6550   21.9600 C   0  0  0  0  0  3  0  0  0  0  0  0
  -22.6730   -8.4600   21.1960 C   0  0  0  0  0  0  0  0  0  0  0  0
  -22.3190   -9.4160   20.2270 C   0  0  0  0  0  3  0  0  0  0  0  0
  -23.1060  -10.5620   20.0300 C   0  0  0  0  0  3  0  0  0  0  0  0
  -21.8600   -7.3570   21.2980 O   0  0  0  0  0  0  0  0  0  0  0  0
  -21.6600   -6.7190   22.4960 C   0  0  0  0  0  0  0  0  0  0  0  0
  -21.1320   -7.3930   23.6190 C   0  0  0  0  0  3  0  0  0  0  0  0
  -20.8760   -6.6820   24.8090 C   0  0  0  0  0  3  0  0  0  0  0  0
  -21.1390   -5.3010   24.8760 C   0  0  0  0  0  0  0  0  0  0  0  0
  -21.6600   -4.6280   23.7580 C   0  0  0  0  0  3  0  0  0  0  0  0
  -21.9180   -5.3360   22.5700 C   0  0  0  0  0  0  0  0  0  0  0  0
  -22.3990   -4.6780   21.4870 F   0  0  0  0  0  0  0  0  0  0  0  0
  -20.8880   -4.6170   26.0170 F   0  0  0  0  0  0  0  0  0  0  0  0
  -23.3860  -13.9270   21.2050 C   0  0  0  0  0  0  0  0  0  0  0  0
  -22.7300  -13.2560   22.1450 N   0  0  0  0  0  0  0  0  0  0  0  0
  -22.9510  -14.9900   20.7620 O   0  0  0  0  0  0  0  0  0  0  0  0
  -23.0960  -12.3930   22.5220 H   0  0  0  0  0  0  0  0  0  0  0  0
  -21.8500  -13.6090   22.4930 H   0  0  0  0  0  0  0  0  0  0  0  0
  -26.0290  -15.4540   20.1770 N   0  0  0  0  0  0  0  0  0  0  0  0
  -25.3370  -16.1550   20.4140 H   0  0  0  0  0  0  0  0  0  0  0  0
  -26.8870  -15.8480   19.8100 H   0  0  0  0  0  0  0  0  0  0  0  0
  -28.4140  -24.4650   19.7720 C   0  0  0  0  0  2  0  0  0  0  0  0
  -28.3590  -25.7170   20.6650 C   0  0  0  0  0  2  0  0  0  0  0  0
  -28.4020  -26.9220   19.8980 O   0  0  0  0  0  0  0  0  0  0  0  0
  -24.6050  -31.9200   23.2060 C   0  0  0  0  0  0  0  0  0  0  0  0
  -27.2290  -27.6340   19.9300 C   0  0  0  0  0  0  0  0  0  0  0  0
  -23.3740  -30.5550   21.5490 C   0  0  0  0  0  3  0  0  0  0  0  0
  -24.8120  -29.0800   20.0440 C   0  0  0  0  0  0  0  0  0  0  0  0
  -25.8870  -30.9600   21.2990 C   0  0  0  0  0  2  0  0  0  0  0  0
  -25.9740  -29.6120   20.6180 C   0  0  0  0  0  0  0  0  0  0  0  0
  -27.1880  -28.8960   20.5550 C   0  0  0  0  0  3  0  0  0  0  0  0
  -26.0550  -27.1060   19.3540 C   0  0  0  0  0  3  0  0  0  0  0  0
  -24.8450  -27.8240   19.4110 C   0  0  0  0  0  3  0  0  0  0  0  0
  -23.5570  -29.9170   20.1440 C   0  0  0  0  0  2  0  0  0  0  0  0
  -24.6420  -31.1570   22.0770 N   0  0  0  0  0  0  0  0  0  0  0  0
  -23.5340  -32.1620   23.7810 O   0  0  0  0  0  0  0  0  0  0  0  0
  -22.7570  -29.4990   22.4920 C   0  0  0  0  0  0  0  0  0  0  0  0
  -21.4400  -29.2730   22.3580 N   0  0  0  0  0  0  0  0  0  0  0  0
  -23.4600  -28.8830   23.2980 O   0  0  0  0  0  0  0  0  0  0  0  0
  -20.9320  -29.8270   21.6830 H   0  0  0  0  0  0  0  0  0  0  0  0
  -18.1180  -27.9220   22.7870 C   0  0  0  0  0  0  0  0  0  0  0  0
  -20.6540  -28.2970   23.1110 C   0  0  0  0  0  3  0  0  0  0  0  0
  -20.8350  -26.8730   22.5340 C   0  0  0  0  0  2  0  0  0  0  0  0
  -19.7690  -26.5030   21.4980 C   0  0  0  0  0  2  0  0  0  0  0  0
  -18.3690  -26.5830   22.1150 C   0  0  0  0  0  2  0  0  0  0  0  0
  -19.1920  -28.7330   23.2410 C   0  0  0  0  0  0  0  0  0  0  0  0
  -18.9040  -29.9850   23.8270 C   0  0  0  0  0  3  0  0  0  0  0  0
  -17.5760  -30.4280   23.9650 C   0  0  0  0  0  3  0  0  0  0  0  0
  -16.5160  -29.6150   23.5280 C   0  0  0  0  0  3  0  0  0  0  0  0
  -16.7880  -28.3640   22.9450 C   0  0  0  0  0  3  0  0  0  0  0  0
  -25.9000  -32.5440   23.8140 C   0  0  0  0  0  3  0  0  0  0  0  0
  -25.5960  -33.9390   24.1630 N   0  0  0  0  0  0  0  0  0  0  0  0
  -25.9290  -34.9980   23.4150 C   0  0  0  0  0  0  0  0  0  0  0  0
  -26.5960  -34.9060   22.3790 O   0  0  0  0  0  0  0  0  0  0  0  0
  -25.0070  -34.0850   24.9690 H   0  0  0  0  0  0  0  0  0  0  0  0
  -24.2050  -36.7970   23.0830 C   0  0  0  0  0  1  0  0  0  0  0  0
  -25.4460  -36.3820   23.8890 C   0  0  0  0  0  3  0  0  0  0  0  0
  -27.5830  -37.2510   24.7280 C   0  0  0  0  0  1  0  0  0  0  0  0
  -26.4820  -37.4340   23.7860 N   0  0  0  0  0  0  0  0  0  0  0  0
  -26.0790  -38.3530   23.9440 H   0  0  0  0  0  0  0  0  0  0  0  0
  -26.4390  -31.7560   25.0710 C   0  0  1  0  0  0  0  0  0  0  0  0
  -25.3620  -31.4950   26.1490 C   0  0  0  0  0  1  0  0  0  0  0  0
  -27.0250  -30.3890   24.6460 C   0  0  0  0  0  1  0  0  0  0  0  0
  -27.5950  -32.5480   25.7290 C   0  0  0  0  0  1  0  0  0  0  0  0
  1  2  1  0
  1  5  1  0
  2  4  1  0
  3  1  2  0
  5  6  1  0
  7  8  1  0
  7  6  1  0
  9 19  1  0
  9  8  1  0
 10 19  1  0
 11 16  1  0
 12 13  1  0
 12 11  1  0
 14 13  1  0
 14 23  1  0
 14 15  1  0
 16 10  1  0
 16 15  1  0
 17 10  2  0
 19 18  1  0
 20 21  2  0
 21 40  1  0
 22 21  1  0
 22 25  1  0
 23 24  1  0
 23 20  1  0
 24 22  2  0
 25 26  1  0
 26 27  2  0
 28 31  1  0
 28 27  1  0
 29 28  2  0
 30 29  1  0
 30 25  2  0
 31 32  1  0
 32 37  2  0
 32 33  1  0
 33 34  2  0
 34 35  1  0
 35 39  1  0
 36 35  2  0
 37 36  1  0
 38 37  1  0
 40 41  1  0
 41 44  1  0
 41 43  1  0
 42 40  2  0
 45 20  1  0
 45 46  1  0
 47 45  1  0
 48  2  1  0
 48 49  1  0
 50 52  1  0
 50 49  1  0
 51 62  2  0
 52 57  1  0
 53 61  1  0
 53 63  1  0
 54 60  1  0
 54 56  1  0
 55 61  1  0
 56 55  1  0
 57 56  2  0
 58 59  1  0
 58 52  2  0
 59 54  2  0
 60 53  1  0
 61 51  1  0
 63 65  2  0
 64 63  1  0
 66 64  1  0
 67 76  2  0
 67 72  1  0
 68 64  1  0
 68 72  1  0
 69 68  1  0
 70 71  1  0
 70 69  1  0
 71 67  1  0
 72 73  2  0
 73 74  1  0
 75 74  2  0
 76 75  1  0
 77 51  1  0
 77 78  1  0
 77 87  1  0
 78 81  1  0
 79 83  1  0
 79 78  1  0
 80 79  2  0
 83 82  1  0
 85 83  1  0
 85 86  1  0
 85 84  1  0
 87 90  1  1
 87 88  1  0
 89 87  1  0
M  ISO  4  10 100  19 100  49 101  50 101
M  END
>  <TORSDO>  (78) 
F 23

>  <SCORE>  (78) 
-10.296

>  <name>  (78) 
77

>  <ligand_id>  (78) 
77

>  <original_smiles>  (78) 
[H]c1c([H])c([H])c2c(c1[H])C([H])([H])C([H])([H])C([H])([H])C2([H])N([H])C(=O)C1([H])N(C(=O)C([H])(N([H])C(=O)C([H])(N([H])C([H])([H])[H])C([H])([H])[H])C(C([H])([H])[H])(C([H])([H])[H])C([H])([H])[H])C([H])([H])c2c([H])c(OC([H])([H])C([H])([H])N([H])C(=O)C([H])([H])C([H])([H])C([H])([H])C([H])([H])C([H])([H])N(C(=O)N3C([H])([H])C([H])([H])C([H])([H])C([H])(n4nc(-c5c([H])c([H])c(Oc6c([H])c([H])c(F)c([H])c6F)c([H])c5[H])c(C(=O)N([H])[H])c4N([H])[H])C3([H])[H])C([H])([H])[H])c([H])c([H])c2C1([H])[H]

>  <smiles>  (78) 
[H]c1c([H])c([H])c2c(c1[H])C([H])([H])C([H])([H])C([H])([H])C2([H])N([H])C(=O)C1([H])N(C(=O)C([H])(N([H])C(=O)C([H])(N([H])C([H])([H])[H])C([H])([H])[H])C(C([H])([H])[H])(C([H])([H])[H])C([H])([H])[H])C([H])([H])c2c([H])c(OC([H])([H])C([H])([H])N([H])C(=O)C([H])([H])C([H])([H])C([H])([H])C([H])([H])C([H])([H])N(C(=O)N3C([H])([H])C([H])([H])C([H])([H])C([H])(n4nc(-c5c([H])c([H])c(Oc6c([H])c([H])c(F)c([H])c6F)c([H])c5[H])c(C(=O)N([H])[H])c4N([H])[H])C3([H])[H])C([H])([H])[H])c([H])c([H])c2C1([H])[H]

$$$$
78:0:0
     RDKit          3D

 90 98  0  0  1  0  0  0  0  0999 V2000
  -30.5750  -19.9830   20.8300 C   0  0  0  0  0  3  0  0  0  0  0  0
  -28.5640  -19.8720   19.5830 C   0  0  0  0  0  3  0  0  0  0  0  0
  -30.3650  -21.4010   21.0040 C   0  0  0  0  0  3  0  0  0  0  0  0
  -28.3450  -21.2950   19.7690 C   0  0  0  0  0  3  0  0  0  0  0  0
  -29.6810  -19.1330   20.1080 C   0  0  0  0  0  0  0  0  0  0  0  0
  -29.2530  -22.1380   20.4790 C   0  0  0  0  0  0  0  0  0  0  0  0
  -29.9990  -17.6250   19.6860 C   0  0  0  0  0  0  0  0  0  0  0  0
  -30.1270  -17.4030   18.4790 O   0  0  0  0  0  0  0  0  0  0  0  0
  -31.1560  -16.6730   21.7480 C   0  0  0  0  0  1  0  0  0  0  0  0
  -28.7480  -16.2520   21.4120 C   0  0  0  0  0  1  0  0  0  0  0  0
  -30.0990  -16.3250   20.6710 C   0  0  1  0  0  0  0  0  0  0  0  0
  -30.5890  -14.8740   20.0170 C   0  0  0  0  0  0  0  0  0  0  0  0
  -30.3030  -12.6010   18.9370 C   0  0  0  0  0  2  0  0  0  0  0  0
  -29.2830  -12.6480   17.7740 C   0  0  0  0  0  2  0  0  0  0  0  0
  -27.8470  -12.4560   18.2950 C   0  0  0  0  0  2  0  0  0  0  0  0
  -27.5550  -13.3200   19.5480 C   0  0  0  0  0  3  0  0  0  0  0  0
  -28.6870  -13.1900   20.5880 C   0  0  0  0  0  2  0  0  0  0  0  0
  -29.9310  -13.6420   19.9440 N   0  0  0  0  0  0  0  0  0  0  0  0
  -31.7150  -14.8910   19.5020 O   0  0  0  0  0  0  0  0  0  0  0  0
  -25.2240  -13.9020   20.4450 C   0  0  0  0  0  0  0  0  0  0  0  0
  -24.1810  -13.1260   20.8650 C   0  0  0  0  0  0  0  0  0  0  0  0
  -24.6330  -11.7720   20.7720 C   0  0  0  0  0  0  0  0  0  0  0  0
  -26.2460  -13.0250   20.1210 N   0  0  0  0  0  0  0  0  0  0  0  0
  -25.9010  -11.7370   20.3800 N   0  0  0  0  0  0  0  0  0  0  0  0
  -23.9100  -10.5100   20.9760 C   0  0  0  0  0  0  0  0  0  0  0  0
  -24.3820   -9.5280   21.8730 C   0  0  0  0  0  3  0  0  0  0  0  0
  -23.6600   -8.3300   22.0690 C   0  0  0  0  0  3  0  0  0  0  0  0
  -22.4520   -8.1070   21.3650 C   0  0  0  0  0  0  0  0  0  0  0  0
  -21.9980   -9.0800   20.4570 C   0  0  0  0  0  3  0  0  0  0  0  0
  -22.7210  -10.2690   20.2610 C   0  0  0  0  0  3  0  0  0  0  0  0
  -21.6980   -6.9640   21.4700 O   0  0  0  0  0  0  0  0  0  0  0  0
  -21.6840   -6.2140   22.6200 C   0  0  0  0  0  0  0  0  0  0  0  0
  -21.3080   -6.7660   23.8640 C   0  0  0  0  0  3  0  0  0  0  0  0
  -21.2400   -5.9450   25.0070 C   0  0  0  0  0  3  0  0  0  0  0  0
  -21.5360   -4.5720   24.9090 C   0  0  0  0  0  0  0  0  0  0  0  0
  -21.9040   -4.0190   23.6690 C   0  0  0  0  0  3  0  0  0  0  0  0
  -21.9740   -4.8370   22.5280 C   0  0  0  0  0  0  0  0  0  0  0  0
  -22.3080   -4.2940   21.3310 F   0  0  0  0  0  0  0  0  0  0  0  0
  -21.4630   -3.7820   26.0030 F   0  0  0  0  0  0  0  0  0  0  0  0
  -22.8090  -13.6030   21.2410 C   0  0  0  0  0  0  0  0  0  0  0  0
  -22.1350  -12.8930   22.1390 N   0  0  0  0  0  0  0  0  0  0  0  0
  -22.3450  -14.6430   20.7730 O   0  0  0  0  0  0  0  0  0  0  0  0
  -22.5250  -12.0520   22.5400 H   0  0  0  0  0  0  0  0  0  0  0  0
  -21.2170  -13.1980   22.4310 H   0  0  0  0  0  0  0  0  0  0  0  0
  -25.3780  -15.2760   20.2840 N   0  0  0  0  0  0  0  0  0  0  0  0
  -24.6110  -15.9240   20.4340 H   0  0  0  0  0  0  0  0  0  0  0  0
  -26.2100  -15.7240   19.9260 H   0  0  0  0  0  0  0  0  0  0  0  0
  -29.1550  -23.7440   20.7390 C   0  0  0  0  0  3  0  0  0  0  0  0
  -28.0770  -24.8250   20.1410 C   0  0  0  0  0  3  0  0  0  0  0  0
  -28.2500  -26.3190   20.3960 O   0  0  0  0  0  0  0  0  0  0  0  0
  -24.5760  -31.9330   23.2580 C   0  0  0  0  0  0  0  0  0  0  0  0
  -27.1640  -27.2340   20.2960 C   0  0  0  0  0  0  0  0  0  0  0  0
  -23.3760  -30.5190   21.6270 C   0  0  0  0  0  3  0  0  0  0  0  0
  -24.8250  -28.9280   20.2280 C   0  0  0  0  0  0  0  0  0  0  0  0
  -25.9250  -30.7870   21.4730 C   0  0  0  0  0  2  0  0  0  0  0  0
  -25.9980  -29.3960   20.8350 C   0  0  0  0  0  0  0  0  0  0  0  0
  -27.1670  -28.5630   20.8530 C   0  0  0  0  0  3  0  0  0  0  0  0
  -25.9690  -26.8440   19.6480 C   0  0  0  0  0  3  0  0  0  0  0  0
  -24.8200  -27.6620   19.6160 C   0  0  0  0  0  3  0  0  0  0  0  0
  -23.5980  -29.8210   20.2590 C   0  0  0  0  0  2  0  0  0  0  0  0
  -24.6440  -31.1000   22.1740 N   0  0  0  0  0  0  0  0  0  0  0  0
  -23.4880  -32.2330   23.7730 O   0  0  0  0  0  0  0  0  0  0  0  0
  -22.6890  -29.5260   22.5950 C   0  0  0  0  0  0  0  0  0  0  0  0
  -21.3610  -29.3690   22.4640 N   0  0  0  0  0  0  0  0  0  0  0  0
  -23.3520  -28.8990   23.4250 O   0  0  0  0  0  0  0  0  0  0  0  0
  -20.8860  -29.9250   21.7660 H   0  0  0  0  0  0  0  0  0  0  0  0
  -17.9600  -28.2310   22.9730 C   0  0  0  0  0  0  0  0  0  0  0  0
  -20.5230  -28.4500   23.2380 C   0  0  0  0  0  3  0  0  0  0  0  0
  -20.6010  -27.0130   22.6720 C   0  0  0  0  0  2  0  0  0  0  0  0
  -19.4940  -26.7030   21.6580 C   0  0  0  0  0  2  0  0  0  0  0  0
  -18.1150  -26.8750   22.3020 C   0  0  0  0  0  2  0  0  0  0  0  0
  -19.0920  -28.9770   23.3960 C   0  0  0  0  0  0  0  0  0  0  0  0
  -18.8950  -30.2470   23.9810 C   0  0  0  0  0  3  0  0  0  0  0  0
  -17.5990  -30.7700   24.1480 C   0  0  0  0  0  3  0  0  0  0  0  0
  -16.4810  -30.0200   23.7410 C   0  0  0  0  0  3  0  0  0  0  0  0
  -16.6630  -28.7510   23.1590 C   0  0  0  0  0  3  0  0  0  0  0  0
  -25.8570  -32.5630   23.8860 C   0  0  0  0  0  3  0  0  0  0  0  0
  -26.3520  -31.8090   25.1810 C   0  0  1  0  0  0  0  0  0  0  0  0
  -25.2430  -31.5960   26.2400 C   0  0  0  0  0  1  0  0  0  0  0  0
  -26.9330  -30.4230   24.8210 C   0  0  0  0  0  1  0  0  0  0  0  0
  -27.5000  -32.6080   25.8440 C   0  0  0  0  0  1  0  0  0  0  0  0
  -25.5540  -33.9690   24.1930 N   0  0  0  0  0  0  0  0  0  0  0  0
  -25.8900  -35.0090   23.4190 C   0  0  0  0  0  0  0  0  0  0  0  0
  -26.5560  -34.8860   22.3860 O   0  0  0  0  0  0  0  0  0  0  0  0
  -24.9640  -34.1360   24.9940 H   0  0  0  0  0  0  0  0  0  0  0  0
  -24.1640  -36.8040   23.0640 C   0  0  0  0  0  1  0  0  0  0  0  0
  -25.4180  -36.4080   23.8600 C   0  0  0  0  0  3  0  0  0  0  0  0
  -27.5640  -37.3010   24.6480 C   0  0  0  0  0  1  0  0  0  0  0  0
  -26.4530  -37.4530   23.7120 N   0  0  0  0  0  0  0  0  0  0  0  0
  -26.0530  -38.3790   23.8470 H   0  0  0  0  0  0  0  0  0  0  0  0
  1  3  1  0
  2  4  2  0
  2  5  1  0
  4  6  1  0
  5  1  2  0
  6 48  1  0
  6  3  2  0
  7  5  1  0
  7 11  1  0
  8  7  2  0
 11 10  1  1
 11  9  1  0
 12 11  1  0
 13 18  1  0
 14 15  1  0
 14 13  1  0
 16 15  1  0
 16 23  1  0
 16 17  1  0
 18 12  1  0
 18 17  1  0
 19 12  2  0
 20 21  2  0
 21 40  1  0
 22 21  1  0
 22 25  1  0
 23 24  1  0
 23 20  1  0
 24 22  2  0
 25 26  1  0
 26 27  2  0
 28 31  1  0
 28 27  1  0
 29 28  2  0
 30 29  1  0
 30 25  2  0
 31 32  1  0
 32 33  1  0
 33 34  2  0
 35 34  1  0
 35 39  1  0
 36 35  2  0
 37 32  2  0
 37 36  1  0
 38 37  1  0
 40 41  1  0
 41 44  1  0
 41 43  1  0
 42 40  2  0
 45 46  1  0
 45 20  1  0
 47 45  1  0
 49 50  1  0
 49 48  2  0
 51 62  2  0
 52 50  1  0
 52 57  1  0
 53 61  1  0
 53 63  1  0
 54 60  1  0
 54 56  1  0
 55 61  1  0
 56 57  2  0
 56 55  1  0
 58 52  2  0
 59 58  1  0
 59 54  2  0
 60 53  1  0
 61 51  1  0
 63 65  2  0
 64 63  1  0
 66 64  1  0
 67 76  2  0
 67 72  1  0
 68 64  1  0
 68 72  1  0
 69 68  1  0
 70 71  1  0
 70 69  1  0
 71 67  1  0
 72 73  2  0
 73 74  1  0
 75 74  2  0
 76 75  1  0
 77 51  1  0
 77 82  1  0
 77 78  1  0
 78 81  1  1
 78 79  1  0
 80 78  1  0
 82 85  1  0
 83 87  1  0
 83 82  1  0
 84 83  2  0
 87 86  1  0
 89 90  1  0
 89 87  1  0
 89 88  1  0
M  ISO  4  11 100  12 100  49 101  50 101
M  END
>  <TORSDO>  (79) 
F 20

>  <SCORE>  (79) 
-13.399

>  <name>  (79) 
78

>  <ligand_id>  (79) 
78

>  <original_smiles>  (79) 
[H]c1c([H])c([H])c2c(c1[H])C([H])([H])C([H])([H])C([H])([H])C2([H])N([H])C(=O)C1([H])N(C(=O)C([H])(N([H])C(=O)C([H])(N([H])C([H])([H])[H])C([H])([H])[H])C(C([H])([H])[H])(C([H])([H])[H])C([H])([H])[H])C([H])([H])c2c([H])c(OC([H])([H])C([H])([H])c3c([H])c([H])c(C(=O)C(C(=O)N4C([H])([H])C([H])([H])C([H])([H])C([H])(n5nc(-c6c([H])c([H])c(Oc7c([H])c([H])c(F)c([H])c7F)c([H])c6[H])c(C(=O)N([H])[H])c5N([H])[H])C4([H])[H])(C([H])([H])[H])C([H])([H])[H])c([H])c3[H])c([H])c([H])c2C1([H])[H]

>  <smiles>  (79) 
[H]c1c([H])c([H])c2c(c1[H])C([H])([H])C([H])([H])C([H])([H])C2([H])N([H])C(=O)C1([H])N(C(=O)C([H])(N([H])C(=O)C([H])(N([H])C([H])([H])[H])C([H])([H])[H])C(C([H])([H])[H])(C([H])([H])[H])C([H])([H])[H])C([H])([H])c2c([H])c(OC([H])([H])C([H])([H])c3c([H])c([H])c(C(=O)C(C(=O)N4C([H])([H])C([H])([H])C([H])([H])C([H])(n5nc(-c6c([H])c([H])c(Oc7c([H])c([H])c(F)c([H])c7F)c([H])c6[H])c(C(=O)N([H])[H])c5N([H])[H])C4([H])[H])(C([H])([H])[H])C([H])([H])[H])c([H])c3[H])c([H])c([H])c2C1([H])[H]

$$$$
79:0:0
     RDKit          3D

 90 98  0  0  1  0  0  0  0  0999 V2000
  -28.7990  -22.1030   21.3700 C   0  0  0  0  0  3  0  0  0  0  0  0
  -28.6170  -23.5790   21.4020 C   0  0  0  0  0  3  0  0  0  0  0  0
  -28.0610  -22.0880   19.1960 C   0  0  0  0  0  3  0  0  0  0  0  0
  -28.5600  -21.2050   20.2510 C   0  0  0  0  0  0  0  0  0  0  0  0
  -28.1490  -24.4610   20.3410 C   0  0  0  0  0  0  0  0  0  0  0  0
  -27.8790  -23.5770   19.2080 C   0  0  0  0  0  0  0  0  0  0  0  0
  -27.4830  -18.9890   19.2320 C   0  0  0  0  0  1  0  0  0  0  0  0
  -28.5340  -19.4520   20.2650 C   0  0  0  0  0  3  0  0  0  0  0  0
  -29.7560  -18.1600   20.2770 C   0  0  0  0  0  2  0  0  0  0  0  0
  -30.3820  -15.2950   20.2630 C   0  0  0  0  0  0  0  0  0  0  0  0
  -30.3970  -12.8720   19.3660 C   0  0  0  0  0  2  0  0  0  0  0  0
  -29.4630  -12.6820   18.1430 C   0  0  0  0  0  2  0  0  0  0  0  0
  -28.0210  -12.4050   18.6020 C   0  0  0  0  0  2  0  0  0  0  0  0
  -27.5790  -13.3630   19.7350 C   0  0  0  0  0  3  0  0  0  0  0  0
  -28.6310  -13.4660   20.8550 C   0  0  0  0  0  2  0  0  0  0  0  0
  -29.8500  -13.9830   20.2220 N   0  0  0  0  0  0  0  0  0  0  0  0
  -31.5960  -15.3450   20.0270 O   0  0  0  0  0  0  0  0  0  0  0  0
  -29.5610  -16.5160   20.3700 N   0  0  0  0  0  0  0  0  0  0  0  0
  -28.5960  -16.2710   20.5430 H   0  0  0  0  0  0  0  0  0  0  0  0
  -25.2110  -13.9080   20.5030 C   0  0  0  0  0  0  0  0  0  0  0  0
  -24.1580  -13.1220   20.8750 C   0  0  0  0  0  0  0  0  0  0  0  0
  -24.6360  -11.7750   20.8320 C   0  0  0  0  0  0  0  0  0  0  0  0
  -26.2570  -13.0410   20.2500 N   0  0  0  0  0  0  0  0  0  0  0  0
  -25.9250  -11.7520   20.5170 N   0  0  0  0  0  0  0  0  0  0  0  0
  -23.9240  -10.5040   21.0130 C   0  0  0  0  0  0  0  0  0  0  0  0
  -24.3490   -9.5450   21.9590 C   0  0  0  0  0  3  0  0  0  0  0  0
  -23.6320   -8.3410   22.1260 C   0  0  0  0  0  3  0  0  0  0  0  0
  -22.4780   -8.0880   21.3490 C   0  0  0  0  0  0  0  0  0  0  0  0
  -22.0720   -9.0360   20.3930 C   0  0  0  0  0  3  0  0  0  0  0  0
  -22.7910  -10.2310   20.2230 C   0  0  0  0  0  3  0  0  0  0  0  0
  -21.7310   -6.9360   21.4290 O   0  0  0  0  0  0  0  0  0  0  0  0
  -21.6420   -6.2150   22.5940 C   0  0  0  0  0  0  0  0  0  0  0  0
  -21.1360   -6.7810   23.7840 C   0  0  0  0  0  3  0  0  0  0  0  0
  -20.9980   -5.9840   24.9380 C   0  0  0  0  0  3  0  0  0  0  0  0
  -21.3560   -4.6230   24.9020 C   0  0  0  0  0  0  0  0  0  0  0  0
  -21.8590   -4.0590   23.7170 C   0  0  0  0  0  3  0  0  0  0  0  0
  -21.9980   -4.8520   22.5650 C   0  0  0  0  0  0  0  0  0  0  0  0
  -22.4610   -4.2970   21.4180 F   0  0  0  0  0  0  0  0  0  0  0  0
  -21.2160   -3.8560   26.0080 F   0  0  0  0  0  0  0  0  0  0  0  0
  -22.7580  -13.5840   21.1500 C   0  0  0  0  0  0  0  0  0  0  0  0
  -22.0390  -12.8720   22.0100 N   0  0  0  0  0  0  0  0  0  0  0  0
  -22.3120  -14.6090   20.6370 O   0  0  0  0  0  0  0  0  0  0  0  0
  -22.4140  -12.0420   22.4460 H   0  0  0  0  0  0  0  0  0  0  0  0
  -21.0980  -13.1590   22.2390 H   0  0  0  0  0  0  0  0  0  0  0  0
  -25.3620  -15.2810   20.3290 N   0  0  0  0  0  0  0  0  0  0  0  0
  -24.5840  -15.9250   20.4230 H   0  0  0  0  0  0  0  0  0  0  0  0
  -26.1830  -15.7120   19.9260 H   0  0  0  0  0  0  0  0  0  0  0  0
  -26.8270  -23.5140   17.0290 C   0  0  0  0  0  1  0  0  0  0  0  0
  -27.4330  -24.2520   18.0870 O   0  0  0  0  0  0  0  0  0  0  0  0
  -28.1840  -25.9950   20.3780 O   0  0  0  0  0  0  0  0  0  0  0  0
  -24.6480  -31.9830   23.2790 C   0  0  0  0  0  0  0  0  0  0  0  0
  -27.1480  -27.0500   20.3400 C   0  0  0  0  0  0  0  0  0  0  0  0
  -23.4390  -30.5730   21.6630 C   0  0  0  0  0  3  0  0  0  0  0  0
  -24.8700  -28.9320   20.2700 C   0  0  0  0  0  0  0  0  0  0  0  0
  -26.0050  -30.7600   21.5150 C   0  0  0  0  0  2  0  0  0  0  0  0
  -26.0580  -29.3390   20.8870 C   0  0  0  0  0  0  0  0  0  0  0  0
  -27.1930  -28.4150   20.9040 C   0  0  0  0  0  3  0  0  0  0  0  0
  -25.9340  -26.7840   19.6730 C   0  0  0  0  0  3  0  0  0  0  0  0
  -24.8280  -27.6730   19.6460 C   0  0  0  0  0  3  0  0  0  0  0  0
  -23.6620  -29.8680   20.2970 C   0  0  0  0  0  2  0  0  0  0  0  0
  -24.7180  -31.1310   22.2060 N   0  0  0  0  0  0  0  0  0  0  0  0
  -23.5600  -32.2910   23.7940 O   0  0  0  0  0  0  0  0  0  0  0  0
  -22.7420  -29.5940   22.6420 C   0  0  0  0  0  0  0  0  0  0  0  0
  -21.4150  -29.4190   22.5040 N   0  0  0  0  0  0  0  0  0  0  0  0
  -23.4000  -28.9910   23.4940 O   0  0  0  0  0  0  0  0  0  0  0  0
  -20.9400  -29.9490   21.7860 H   0  0  0  0  0  0  0  0  0  0  0  0
  -18.0310  -28.2180   23.0030 C   0  0  0  0  0  0  0  0  0  0  0  0
  -20.5870  -28.5000   23.2900 C   0  0  0  0  0  3  0  0  0  0  0  0
  -20.7020  -27.0550   22.7510 C   0  0  0  0  0  2  0  0  0  0  0  0
  -19.6150  -26.7030   21.7330 C   0  0  0  0  0  2  0  0  0  0  0  0
  -18.2240  -26.8560   22.3550 C   0  0  0  0  0  2  0  0  0  0  0  0
  -19.1420  -28.9960   23.4260 C   0  0  0  0  0  0  0  0  0  0  0  0
  -18.9070  -30.2670   23.9920 C   0  0  0  0  0  3  0  0  0  0  0  0
  -17.5990  -30.7640   24.1370 C   0  0  0  0  0  3  0  0  0  0  0  0
  -16.5030  -29.9850   23.7280 C   0  0  0  0  0  3  0  0  0  0  0  0
  -16.7200  -28.7130   23.1670 C   0  0  0  0  0  3  0  0  0  0  0  0
  -25.9280  -32.6250   23.9000 C   0  0  0  0  0  3  0  0  0  0  0  0
  -26.4360  -31.8630   25.1850 C   0  0  1  0  0  0  0  0  0  0  0  0
  -25.3340  -31.6310   26.2470 C   0  0  0  0  0  1  0  0  0  0  0  0
  -27.0330  -30.4860   24.8130 C   0  0  0  0  0  1  0  0  0  0  0  0
  -27.5780  -32.6630   25.8530 C   0  0  0  0  0  1  0  0  0  0  0  0
  -25.6150  -34.0260   24.2370 N   0  0  0  0  0  0  0  0  0  0  0  0
  -25.9140  -35.0820   23.4690 C   0  0  0  0  0  0  0  0  0  0  0  0
  -26.5470  -34.9800   22.4170 O   0  0  0  0  0  0  0  0  0  0  0  0
  -25.0610  -34.1740   25.0660 H   0  0  0  0  0  0  0  0  0  0  0  0
  -24.1530  -36.8550   23.1820 C   0  0  0  0  0  1  0  0  0  0  0  0
  -25.4340  -36.4700   23.9430 C   0  0  0  0  0  3  0  0  0  0  0  0
  -27.5910  -37.3830   24.6780 C   0  0  0  0  0  1  0  0  0  0  0  0
  -26.4510  -37.5330   23.7770 N   0  0  0  0  0  0  0  0  0  0  0  0
  -26.0440  -38.4510   23.9340 H   0  0  0  0  0  0  0  0  0  0  0  0
  1  2  1  0
  3  6  2  0
  3  4  1  0
  4  8  1  0
  4  1  2  0
  5 50  1  0
  5  2  2  0
  6  5  1  0
  8  7  1  0
  8  9  1  0
  9 18  1  0
 10 18  1  0
 11 16  1  0
 12 13  1  0
 12 11  1  0
 14 13  1  0
 14 23  1  0
 14 15  1  0
 16 10  1  0
 16 15  1  0
 17 10  2  0
 18 19  1  0
 20 21  2  0
 21 40  1  0
 22 21  1  0
 22 25  1  0
 23 20  1  0
 23 24  1  0
 24 22  2  0
 25 26  1  0
 26 27  2  0
 28 31  1  0
 28 27  1  0
 29 28  2  0
 30 29  1  0
 30 25  2  0
 31 32  1  0
 32 33  1  0
 33 34  2  0
 35 34  1  0
 35 39  1  0
 36 35  2  0
 37 32  2  0
 37 36  1  0
 38 37  1  0
 40 41  1  0
 41 44  1  0
 41 43  1  0
 42 40  2  0
 45 46  1  0
 45 20  1  0
 47 45  1  0
 48 49  1  0
 49  6  1  0
 51 62  2  0
 52 50  1  0
 52 57  1  0
 53 61  1  0
 53 63  1  0
 54 60  1  0
 54 56  1  0
 55 61  1  0
 56 57  2  0
 56 55  1  0
 58 52  2  0
 59 58  1  0
 59 54  2  0
 60 53  1  0
 61 51  1  0
 63 65  2  0
 64 63  1  0
 66 64  1  0
 67 76  2  0
 67 72  1  0
 68 64  1  0
 68 72  1  0
 69 68  1  0
 70 71  1  0
 70 69  1  0
 71 67  1  0
 72 73  2  0
 73 74  1  0
 75 74  2  0
 76 75  1  0
 77 51  1  0
 77 82  1  0
 77 78  1  0
 78 81  1  1
 78 79  1  0
 80 78  1  0
 82 85  1  0
 83 87  1  0
 83 82  1  0
 84 83  2  0
 87 86  1  0
 89 90  1  0
 89 87  1  0
 89 88  1  0
M  ISO  4   5 101  10 100  18 100  50 101
M  END
>  <TORSDO>  (80) 
F 19

>  <SCORE>  (80) 
-14.885

>  <name>  (80) 
79

>  <ligand_id>  (80) 
79

>  <original_smiles>  (80) 
[H]c1c([H])c([H])c2c(c1[H])C([H])([H])C([H])([H])C([H])([H])C2([H])N([H])C(=O)C1([H])N(C(=O)C([H])(N([H])C(=O)C([H])(N([H])C([H])([H])[H])C([H])([H])[H])C(C([H])([H])[H])(C([H])([H])[H])C([H])([H])[H])C([H])([H])c2c([H])c(Oc3c([H])c([H])c(C([H])(C([H])([H])[H])C([H])([H])N([H])C(=O)N4C([H])([H])C([H])([H])C([H])([H])C([H])(n5nc(-c6c([H])c([H])c(Oc7c([H])c([H])c(F)c([H])c7F)c([H])c6[H])c(C(=O)N([H])[H])c5N([H])[H])C4([H])[H])c([H])c3OC([H])([H])[H])c([H])c([H])c2C1([H])[H]

>  <smiles>  (80) 
[H]c1c([H])c([H])c2c(c1[H])C([H])([H])C([H])([H])C([H])([H])C2([H])N([H])C(=O)C1([H])N(C(=O)C([H])(N([H])C(=O)C([H])(N([H])C([H])([H])[H])C([H])([H])[H])C(C([H])([H])[H])(C([H])([H])[H])C([H])([H])[H])C([H])([H])c2c([H])c(Oc3c([H])c([H])c(C([H])(C([H])([H])[H])C([H])([H])N([H])C(=O)N4C([H])([H])C([H])([H])C([H])([H])C([H])(n5nc(-c6c([H])c([H])c(Oc7c([H])c([H])c(F)c([H])c7F)c([H])c6[H])c(C(=O)N([H])[H])c5N([H])[H])C4([H])[H])c([H])c3OC([H])([H])[H])c([H])c([H])c2C1([H])[H]

$$$$
80:0:0
     RDKit          3D

 93101  0  0  1  0  0  0  0  0999 V2000
  -27.8800  -19.7220   20.3470 C   0  0  0  0  0  3  0  0  0  0  0  0
  -28.3960  -17.2140   20.1800 C   0  0  0  0  0  3  0  0  0  0  0  0
  -30.1110  -18.8380   20.5310 C   0  0  0  0  0  3  0  0  0  0  0  0
  -27.5010  -18.3440   20.1820 C   0  0  0  0  0  0  0  0  0  0  0  0
  -29.2000  -20.1880   20.5470 C   0  0  0  0  0  0  0  0  0  0  0  0
  -29.8070  -17.2550   20.3260 C   0  0  0  0  0  0  0  0  0  0  0  0
  -30.6730  -15.6750   20.2950 C   0  0  0  0  0  0  0  0  0  0  0  0
  -30.9480  -13.0660   19.6720 C   0  0  0  0  0  2  0  0  0  0  0  0
  -30.1340  -12.5430   18.4500 C   0  0  0  0  0  2  0  0  0  0  0  0
  -28.7040  -12.1500   18.8530 C   0  0  0  0  0  2  0  0  0  0  0  0
  -28.1040  -13.1890   19.8260 C   0  0  0  0  0  3  0  0  0  0  0  0
  -29.0680  -13.5990   20.9630 C   0  0  0  0  0  2  0  0  0  0  0  0
  -30.2420  -14.2620   20.3380 N   0  0  0  0  0  0  0  0  0  0  0  0
  -31.9070  -15.6450   20.1080 O   0  0  0  0  0  0  0  0  0  0  0  0
  -25.7250  -13.6830   20.5580 C   0  0  0  0  0  0  0  0  0  0  0  0
  -24.6640  -12.8910   20.8890 C   0  0  0  0  0  0  0  0  0  0  0  0
  -25.1390  -11.5440   20.8160 C   0  0  0  0  0  0  0  0  0  0  0  0
  -26.7780  -12.8260   20.3050 N   0  0  0  0  0  0  0  0  0  0  0  0
  -26.4390  -11.5280   20.5260 N   0  0  0  0  0  0  0  0  0  0  0  0
  -24.4090  -10.2750   20.9440 C   0  0  0  0  0  0  0  0  0  0  0  0
  -24.8460   -9.2520   21.8130 C   0  0  0  0  0  3  0  0  0  0  0  0
  -24.1120   -8.0520   21.9370 C   0  0  0  0  0  3  0  0  0  0  0  0
  -22.9230   -7.8670   21.1900 C   0  0  0  0  0  0  0  0  0  0  0  0
  -22.5030   -8.8790   20.3100 C   0  0  0  0  0  3  0  0  0  0  0  0
  -23.2380  -10.0690   20.1830 C   0  0  0  0  0  3  0  0  0  0  0  0
  -22.1590   -6.7260   21.2260 O   0  0  0  0  0  0  0  0  0  0  0  0
  -22.1160   -5.9220   22.3370 C   0  0  0  0  0  0  0  0  0  0  0  0
  -21.7040   -6.4130   23.5960 C   0  0  0  0  0  3  0  0  0  0  0  0
  -21.6110   -5.5380   24.6970 C   0  0  0  0  0  3  0  0  0  0  0  0
  -21.9170   -4.1740   24.5390 C   0  0  0  0  0  0  0  0  0  0  0  0
  -22.3200   -3.6810   23.2860 C   0  0  0  0  0  3  0  0  0  0  0  0
  -22.4180   -4.5540   22.1890 C   0  0  0  0  0  0  0  0  0  0  0  0
  -22.7870   -4.0710   20.9780 F   0  0  0  0  0  0  0  0  0  0  0  0
  -21.8200   -3.3310   25.5950 F   0  0  0  0  0  0  0  0  0  0  0  0
  -23.2620  -13.3570   21.1440 C   0  0  0  0  0  0  0  0  0  0  0  0
  -22.5240  -12.6490   21.9890 N   0  0  0  0  0  0  0  0  0  0  0  0
  -22.8300  -14.3880   20.6290 O   0  0  0  0  0  0  0  0  0  0  0  0
  -22.8880  -11.8160   22.4290 H   0  0  0  0  0  0  0  0  0  0  0  0
  -21.5820  -12.9450   22.2020 H   0  0  0  0  0  0  0  0  0  0  0  0
  -25.8720  -15.0570   20.4020 N   0  0  0  0  0  0  0  0  0  0  0  0
  -25.0300  -15.6210   20.3620 H   0  0  0  0  0  0  0  0  0  0  0  0
  -26.6360  -15.4460   19.8670 H   0  0  0  0  0  0  0  0  0  0  0  0
  -26.0450  -18.0300   20.0560 C   0  0  0  0  0  0  0  0  0  0  0  0
  -25.4980  -17.1940   20.7890 O   0  0  0  0  0  0  0  0  0  0  0  0
  -25.2140  -18.7300   18.9300 C   0  0  0  0  0  0  0  0  0  0  0  0
  -24.0020  -18.1990   18.7830 N   0  0  0  0  0  0  0  0  0  0  0  0
  -25.6120  -19.6670   18.2340 O   0  0  0  0  0  0  0  0  0  0  0  0
  -23.7540  -17.4320   19.3980 H   0  0  0  0  0  0  0  0  0  0  0  0
  -23.3540  -18.5440   18.0950 H   0  0  0  0  0  0  0  0  0  0  0  0
  -29.3310  -22.0280   20.8060 C   0  0  0  0  0  0  0  0  0  0  0  0
  -30.4750  -22.3460   21.1450 O   0  0  0  0  0  0  0  0  0  0  0  0
  -28.2570  -23.5830   20.6930 C   0  0  0  0  0  2  0  0  0  0  0  0
  -28.4820  -25.3480   20.8650 O   0  0  0  0  0  0  0  0  0  0  0  0
  -24.9170  -31.8530   23.3500 C   0  0  0  0  0  0  0  0  0  0  0  0
  -27.5330  -26.5900   20.7280 C   0  0  0  0  0  0  0  0  0  0  0  0
  -23.8030  -30.4010   21.7090 C   0  0  0  0  0  3  0  0  0  0  0  0
  -25.3030  -28.6700   20.4550 C   0  0  0  0  0  0  0  0  0  0  0  0
  -26.3880  -30.4990   21.7280 C   0  0  0  0  0  2  0  0  0  0  0  0
  -26.4690  -29.0340   21.1380 C   0  0  0  0  0  0  0  0  0  0  0  0
  -27.5690  -28.0230   21.2360 C   0  0  0  0  0  3  0  0  0  0  0  0
  -26.3370  -26.4460   19.9760 C   0  0  0  0  0  3  0  0  0  0  0  0
  -25.2800  -27.4010   19.8490 C   0  0  0  0  0  3  0  0  0  0  0  0
  -24.1100  -29.6400   20.3860 C   0  0  0  0  0  2  0  0  0  0  0  0
  -25.0580  -30.9540   22.3140 N   0  0  0  0  0  0  0  0  0  0  0  0
  -23.8010  -32.1880   23.7850 O   0  0  0  0  0  0  0  0  0  0  0  0
  -23.0170  -29.4780   22.6800 C   0  0  0  0  0  0  0  0  0  0  0  0
  -21.6860  -29.3570   22.5040 N   0  0  0  0  0  0  0  0  0  0  0  0
  -23.6190  -28.8660   23.5670 O   0  0  0  0  0  0  0  0  0  0  0  0
  -21.2520  -29.9000   21.7710 H   0  0  0  0  0  0  0  0  0  0  0  0
  -18.2390  -28.3010   22.9580 C   0  0  0  0  0  0  0  0  0  0  0  0
  -20.8020  -28.4680   23.2690 C   0  0  0  0  0  3  0  0  0  0  0  0
  -20.8550  -27.0250   22.7150 C   0  0  0  0  0  2  0  0  0  0  0  0
  -19.7610  -26.7350   21.6810 C   0  0  0  0  0  2  0  0  0  0  0  0
  -18.3740  -26.9410   22.2930 C   0  0  0  0  0  2  0  0  0  0  0  0
  -19.3780  -29.0240   23.4010 C   0  0  0  0  0  0  0  0  0  0  0  0
  -19.1940  -30.2970   23.9850 C   0  0  0  0  0  3  0  0  0  0  0  0
  -17.9050  -30.8440   24.1290 C   0  0  0  0  0  3  0  0  0  0  0  0
  -16.7800  -30.1180   23.6980 C   0  0  0  0  0  3  0  0  0  0  0  0
  -16.9480  -28.8480   23.1190 C   0  0  0  0  0  3  0  0  0  0  0  0
  -26.1500  -32.5170   24.0340 C   0  0  0  0  0  3  0  0  0  0  0  0
  -26.5860  -31.7840   25.3640 C   0  0  1  0  0  0  0  0  0  0  0  0
  -25.4260  -31.5560   26.3630 C   0  0  0  0  0  1  0  0  0  0  0  0
  -27.2090  -30.4040   25.0580 C   0  0  0  0  0  1  0  0  0  0  0  0
  -27.6810  -32.6080   26.0810 C   0  0  0  0  0  1  0  0  0  0  0  0
  -25.8120  -33.9240   24.3300 N   0  0  0  0  0  0  0  0  0  0  0  0
  -26.1530  -34.9770   23.5750 C   0  0  0  0  0  0  0  0  0  0  0  0
  -26.8410  -34.8660   22.5570 O   0  0  0  0  0  0  0  0  0  0  0  0
  -25.2000  -34.0810   25.1170 H   0  0  0  0  0  0  0  0  0  0  0  0
  -24.4080  -36.7590   23.2060 C   0  0  0  0  0  1  0  0  0  0  0  0
  -25.6580  -36.3720   24.0130 C   0  0  0  0  0  3  0  0  0  0  0  0
  -27.7900  -37.2990   24.8120 C   0  0  0  0  0  1  0  0  0  0  0  0
  -26.6810  -37.4330   23.8720 N   0  0  0  0  0  0  0  0  0  0  0  0
  -26.2660  -38.3530   23.9980 H   0  0  0  0  0  0  0  0  0  0  0  0
  1  5  1  0
  2  4  1  0
  2  6  2  0
  3  5  2  0
  4  1  2  0
  5 50  1  0
  6  3  1  0
  7  6  1  0
  7 13  1  0
  8 13  1  0
  9 10  1  0
  9  8  1  0
 11 10  1  0
 11 18  1  0
 11 12  1  0
 13 12  1  0
 14  7  2  0
 15 16  2  0
 16 35  1  0
 17 16  1  0
 17 20  1  0
 18 19  1  0
 18 15  1  0
 19 17  2  0
 20 21  1  0
 21 22  2  0
 23 26  1  0
 23 22  1  0
 24 23  2  0
 25 24  1  0
 25 20  2  0
 26 27  1  0
 27 28  1  0
 28 29  2  0
 30 29  1  0
 30 34  1  0
 31 30  2  0
 32 27  2  0
 32 31  1  0
 33 32  1  0
 35 36  1  0
 36 39  1  0
 36 38  1  0
 37 35  2  0
 40 15  1  0
 41 40  1  0
 42 40  1  0
 43  4  1  0
 43 44  2  0
 45 43  1  0
 46 45  1  0
 46 48  1  0
 47 45  2  0
 49 46  1  0
 50 51  2  0
 52 50  1  0
 52 53  1  0
 54 65  2  0
 55 53  1  0
 55 60  1  0
 56 64  1  0
 56 66  1  0
 57 59  1  0
 58 64  1  0
 59 60  2  0
 59 58  1  0
 61 55  2  0
 62 61  1  0
 62 57  2  0
 63 57  1  0
 63 56  1  0
 64 54  1  0
 66 68  2  0
 67 66  1  0
 69 67  1  0
 70 79  2  0
 70 75  1  0
 71 67  1  0
 71 75  1  0
 72 71  1  0
 73 74  1  0
 73 72  1  0
 74 70  1  0
 75 76  2  0
 76 77  1  0
 78 77  2  0
 79 78  1  0
 80 54  1  0
 80 85  1  0
 80 81  1  0
 81 84  1  1
 81 82  1  0
 83 81  1  0
 85 88  1  0
 86 90  1  0
 86 85  1  0
 87 86  2  0
 90 89  1  0
 92 93  1  0
 92 90  1  0
 92 91  1  0
M  ISO  4   6 100   7 100  52 101  53 101
M  END
>  <TORSDO>  (81) 
F 20

>  <SCORE>  (81) 
-11.412

>  <name>  (81) 
80

>  <ligand_id>  (81) 
80

>  <original_smiles>  (81) 
[H]c1c([H])c([H])c2c(c1[H])C([H])([H])C([H])([H])C([H])([H])C2([H])N([H])C(=O)C1([H])N(C(=O)C([H])(N([H])C(=O)C([H])(N([H])C([H])([H])[H])C([H])([H])[H])C(C([H])([H])[H])(C([H])([H])[H])C([H])([H])[H])C([H])([H])c2c([H])c(OC([H])([H])C(=O)c3c([H])c(C(=O)C(=O)N([H])[H])c([H])c(C(=O)N4C([H])([H])C([H])([H])C([H])([H])C([H])(n5nc(-c6c([H])c([H])c(Oc7c([H])c([H])c(F)c([H])c7F)c([H])c6[H])c(C(=O)N([H])[H])c5N([H])[H])C4([H])[H])c3[H])c([H])c([H])c2C1([H])[H]

>  <smiles>  (81) 
[H]c1c([H])c([H])c2c(c1[H])C([H])([H])C([H])([H])C([H])([H])C2([H])N([H])C(=O)C1([H])N(C(=O)C([H])(N([H])C(=O)C([H])(N([H])C([H])([H])[H])C([H])([H])[H])C(C([H])([H])[H])(C([H])([H])[H])C([H])([H])[H])C([H])([H])c2c([H])c(OC([H])([H])C(=O)c3c([H])c(C(=O)C(=O)N([H])[H])c([H])c(C(=O)N4C([H])([H])C([H])([H])C([H])([H])C([H])(n5nc(-c6c([H])c([H])c(Oc7c([H])c([H])c(F)c([H])c7F)c([H])c6[H])c(C(=O)N([H])[H])c5N([H])[H])C4([H])[H])c3[H])c([H])c([H])c2C1([H])[H]

$$$$
81:0:0
     RDKit          3D

 90 98  0  0  1  0  0  0  0  0999 V2000
  -29.3700  -22.2630   19.1020 C   0  0  0  0  0  3  0  0  0  0  0  0
  -29.1190  -23.7240   19.0060 C   0  0  0  0  0  3  0  0  0  0  0  0
  -28.5770  -23.8060   21.2410 C   0  0  0  0  0  3  0  0  0  0  0  0
  -29.2560  -21.4330   20.2890 C   0  0  0  0  0  0  0  0  0  0  0  0
  -28.6810  -24.6310   20.0610 C   0  0  0  0  0  0  0  0  0  0  0  0
  -28.8330  -22.3520   21.3500 C   0  0  0  0  0  0  0  0  0  0  0  0
  -29.3320  -19.7470   20.4960 C   0  0  0  0  0  0  0  0  0  0  0  0
  -28.4210  -19.3020   21.1980 O   0  0  0  0  0  0  0  0  0  0  0  0
  -30.3410  -18.4540   20.0020 C   0  0  0  0  0  2  0  0  0  0  0  0
  -30.4960  -16.8270   22.0750 C   0  0  0  0  0  1  0  0  0  0  0  0
  -30.2400  -16.7750   20.5550 C   0  0  0  0  0  3  0  0  0  0  0  0
  -30.9800  -15.3110   20.0170 C   0  0  0  0  0  0  0  0  0  0  0  0
  -30.8010  -12.9610   18.9560 C   0  0  0  0  0  2  0  0  0  0  0  0
  -29.7980  -12.9530   17.7750 C   0  0  0  0  0  2  0  0  0  0  0  0
  -28.3580  -12.7340   18.2750 C   0  0  0  0  0  2  0  0  0  0  0  0
  -28.0350  -13.6120   19.5100 C   0  0  0  0  0  3  0  0  0  0  0  0
  -29.1490  -13.5670   20.5730 C   0  0  0  0  0  2  0  0  0  0  0  0
  -30.3880  -14.0290   19.9280 N   0  0  0  0  0  0  0  0  0  0  0  0
  -32.1500  -15.3410   19.6090 O   0  0  0  0  0  0  0  0  0  0  0  0
  -25.7240  -14.2180   20.4140 C   0  0  0  0  0  0  0  0  0  0  0  0
  -24.6580  -13.4590   20.8100 C   0  0  0  0  0  0  0  0  0  0  0  0
  -25.0770  -12.0980   20.6950 C   0  0  0  0  0  0  0  0  0  0  0  0
  -26.7220  -13.3220   20.0730 N   0  0  0  0  0  0  0  0  0  0  0  0
  -26.3480  -12.0370   20.3110 N   0  0  0  0  0  0  0  0  0  0  0  0
  -24.3210  -10.8510   20.8740 C   0  0  0  0  0  0  0  0  0  0  0  0
  -24.7260   -9.8640   21.7990 C   0  0  0  0  0  3  0  0  0  0  0  0
  -23.9700   -8.6850   21.9670 C   0  0  0  0  0  3  0  0  0  0  0  0
  -22.7920   -8.4830   21.2080 C   0  0  0  0  0  0  0  0  0  0  0  0
  -22.4040   -9.4580   20.2720 C   0  0  0  0  0  3  0  0  0  0  0  0
  -23.1620  -10.6290   20.1030 C   0  0  0  0  0  3  0  0  0  0  0  0
  -22.0080   -7.3570   21.2850 O   0  0  0  0  0  0  0  0  0  0  0  0
  -21.8550   -6.6650   22.4590 C   0  0  0  0  0  0  0  0  0  0  0  0
  -21.3510   -7.2800   23.6260 C   0  0  0  0  0  3  0  0  0  0  0  0
  -21.1440   -6.5150   24.7920 C   0  0  0  0  0  3  0  0  0  0  0  0
  -21.4300   -5.1370   24.7900 C   0  0  0  0  0  0  0  0  0  0  0  0
  -21.9270   -4.5220   23.6270 C   0  0  0  0  0  3  0  0  0  0  0  0
  -22.1350   -5.2830   22.4650 C   0  0  0  0  0  0  0  0  0  0  0  0
  -22.5940   -4.6820   21.3400 F   0  0  0  0  0  0  0  0  0  0  0  0
  -21.2250   -4.4000   25.9070 F   0  0  0  0  0  0  0  0  0  0  0  0
  -23.2930  -13.9670   21.1750 C   0  0  0  0  0  0  0  0  0  0  0  0
  -22.5970  -13.2680   22.0640 N   0  0  0  0  0  0  0  0  0  0  0  0
  -22.8570  -15.0170   20.7070 O   0  0  0  0  0  0  0  0  0  0  0  0
  -22.9640  -12.4150   22.4610 H   0  0  0  0  0  0  0  0  0  0  0  0
  -21.6850  -13.5890   22.3530 H   0  0  0  0  0  0  0  0  0  0  0  0
  -25.9230  -15.5900   20.2890 N   0  0  0  0  0  0  0  0  0  0  0  0
  -25.1900  -16.2620   20.4880 H   0  0  0  0  0  0  0  0  0  0  0  0
  -26.7740  -16.0220   19.9550 H   0  0  0  0  0  0  0  0  0  0  0  0
  -29.8090  -21.9230   23.4200 C   0  0  0  0  0  1  0  0  0  0  0  0
  -28.6500  -21.8320   22.6040 O   0  0  0  0  0  0  0  0  0  0  0  0
  -28.6160  -26.1430   19.9710 O   0  0  0  0  0  0  0  0  0  0  0  0
  -24.7560  -31.7040   23.1790 C   0  0  0  0  0  0  0  0  0  0  0  0
  -27.5080  -27.1070   19.9980 C   0  0  0  0  0  0  0  0  0  0  0  0
  -23.6300  -30.3600   21.4480 C   0  0  0  0  0  3  0  0  0  0  0  0
  -25.1470  -28.8640   19.9900 C   0  0  0  0  0  0  0  0  0  0  0  0
  -26.1850  -30.6610   21.3640 C   0  0  0  0  0  2  0  0  0  0  0  0
  -26.3040  -29.2900   20.6530 C   0  0  0  0  0  0  0  0  0  0  0  0
  -27.4790  -28.4300   20.6360 C   0  0  0  0  0  3  0  0  0  0  0  0
  -26.3210  -26.8050   19.2990 C   0  0  0  0  0  3  0  0  0  0  0  0
  -25.1730  -27.6400   19.2980 C   0  0  0  0  0  3  0  0  0  0  0  0
  -23.9030  -29.7450   20.0480 C   0  0  0  0  0  2  0  0  0  0  0  0
  -24.8770  -30.9320   22.0530 N   0  0  0  0  0  0  0  0  0  0  0  0
  -23.6510  -31.9410   23.6910 O   0  0  0  0  0  0  0  0  0  0  0  0
  -22.9450  -29.3010   22.3490 C   0  0  0  0  0  0  0  0  0  0  0  0
  -21.6190  -29.1260   22.2000 N   0  0  0  0  0  0  0  0  0  0  0  0
  -23.6120  -28.6380   23.1480 O   0  0  0  0  0  0  0  0  0  0  0  0
  -21.1370  -29.7140   21.5340 H   0  0  0  0  0  0  0  0  0  0  0  0
  -18.2440  -27.8680   22.6130 C   0  0  0  0  0  0  0  0  0  0  0  0
  -20.8000  -28.1380   22.9080 C   0  0  0  0  0  3  0  0  0  0  0  0
  -20.9170  -26.7450   22.2480 C   0  0  0  0  0  2  0  0  0  0  0  0
  -19.8230  -26.4750   21.2090 C   0  0  0  0  0  2  0  0  0  0  0  0
  -18.4370  -26.5660   21.8540 C   0  0  0  0  0  2  0  0  0  0  0  0
  -19.3540  -28.6130   23.0940 C   0  0  0  0  0  0  0  0  0  0  0  0
  -19.1180  -29.8310   23.7690 C   0  0  0  0  0  3  0  0  0  0  0  0
  -17.8070  -30.3060   23.9630 C   0  0  0  0  0  3  0  0  0  0  0  0
  -16.7130  -29.5580   23.4960 C   0  0  0  0  0  3  0  0  0  0  0  0
  -16.9320  -28.3400   22.8280 C   0  0  0  0  0  3  0  0  0  0  0  0
  -26.0010  -32.3400   23.8710 C   0  0  0  0  0  3  0  0  0  0  0  0
  -26.5070  -31.5150   25.1190 C   0  0  1  0  0  0  0  0  0  0  0  0
  -25.3950  -31.2010   26.1480 C   0  0  0  0  0  1  0  0  0  0  0  0
  -27.1290  -30.1700   24.6770 C   0  0  0  0  0  1  0  0  0  0  0  0
  -27.6260  -32.2970   25.8470 C   0  0  0  0  0  1  0  0  0  0  0  0
  -25.6400  -33.7080   24.2790 N   0  0  0  0  0  0  0  0  0  0  0  0
  -25.9440  -34.8180   23.5930 C   0  0  0  0  0  0  0  0  0  0  0  0
  -26.6220  -34.7990   22.5620 O   0  0  0  0  0  0  0  0  0  0  0  0
  -25.0370  -33.7950   25.0840 H   0  0  0  0  0  0  0  0  0  0  0  0
  -24.1570  -36.5740   23.3540 C   0  0  0  0  0  1  0  0  0  0  0  0
  -25.4160  -36.1620   24.1330 C   0  0  0  0  0  3  0  0  0  0  0  0
  -27.5240  -37.0720   25.0100 C   0  0  0  0  0  1  0  0  0  0  0  0
  -26.4140  -37.2540   24.0770 N   0  0  0  0  0  0  0  0  0  0  0  0
  -25.9800  -38.1510   24.2740 H   0  0  0  0  0  0  0  0  0  0  0  0
  1  4  1  0
  2  1  2  0
  2  5  1  0
  3  6  1  0
  4  7  1  0
  4  6  2  0
  5  3  2  0
  6 49  1  0
  7  8  2  0
  9  7  1  0
  9 11  1  0
 11 10  1  0
 12 11  1  0
 13 18  1  0
 14 15  1  0
 14 13  1  0
 16 15  1  0
 16 23  1  0
 16 17  1  0
 18 12  1  0
 18 17  1  0
 19 12  2  0
 20 21  2  0
 21 40  1  0
 22 21  1  0
 22 25  1  0
 23 24  1  0
 23 20  1  0
 24 22  2  0
 25 26  1  0
 26 27  2  0
 28 31  1  0
 28 27  1  0
 29 28  2  0
 30 29  1  0
 30 25  2  0
 31 32  1  0
 32 37  2  0
 32 33  1  0
 33 34  2  0
 35 34  1  0
 35 39  1  0
 36 35  2  0
 37 36  1  0
 38 37  1  0
 40 41  1  0
 41 44  1  0
 41 43  1  0
 42 40  2  0
 45 20  1  0
 45 46  1  0
 47 45  1  0
 49 48  1  0
 50 52  1  0
 50  5  1  0
 51 62  2  0
 52 57  1  0
 53 61  1  0
 53 63  1  0
 54 60  1  0
 54 56  1  0
 55 61  1  0
 56 55  1  0
 57 56  2  0
 58 52  2  0
 59 58  1  0
 59 54  2  0
 60 53  1  0
 61 51  1  0
 63 65  2  0
 64 63  1  0
 66 64  1  0
 67 76  2  0
 67 72  1  0
 68 64  1  0
 68 72  1  0
 69 68  1  0
 70 71  1  0
 70 69  1  0
 71 67  1  0
 72 73  2  0
 73 74  1  0
 75 74  2  0
 76 75  1  0
 77 51  1  0
 77 82  1  0
 77 78  1  0
 78 81  1  1
 78 79  1  0
 80 78  1  0
 82 85  1  0
 83 87  1  0
 83 82  1  0
 84 83  2  0
 87 86  1  0
 89 87  1  0
 89 90  1  0
 89 88  1  0
M  ISO  4   5 101  11 100  12 100  50 101
M  END
>  <TORSDO>  (82) 
F 20

>  <SCORE>  (82) 
-14.415

>  <name>  (82) 
81

>  <ligand_id>  (82) 
81

>  <original_smiles>  (82) 
[H]c1c([H])c([H])c2c(c1[H])C([H])([H])C([H])([H])C([H])([H])C2([H])N([H])C(=O)C1([H])N(C(=O)C([H])(N([H])C(=O)C([H])(N([H])C([H])([H])[H])C([H])([H])[H])C(C([H])([H])[H])(C([H])([H])[H])C([H])([H])[H])C([H])([H])c2c([H])c(Oc3c([H])c([H])c(C(=O)C([H])([H])C([H])(C(=O)N4C([H])([H])C([H])([H])C([H])([H])C([H])(n5nc(-c6c([H])c([H])c(Oc7c([H])c([H])c(F)c([H])c7F)c([H])c6[H])c(C(=O)N([H])[H])c5N([H])[H])C4([H])[H])C([H])([H])[H])c(OC([H])([H])[H])c3[H])c([H])c([H])c2C1([H])[H]

>  <smiles>  (82) 
[H]c1c([H])c([H])c2c(c1[H])C([H])([H])C([H])([H])C([H])([H])C2([H])N([H])C(=O)C1([H])N(C(=O)C([H])(N([H])C(=O)C([H])(N([H])C([H])([H])[H])C([H])([H])[H])C(C([H])([H])[H])(C([H])([H])[H])C([H])([H])[H])C([H])([H])c2c([H])c(Oc3c([H])c([H])c(C(=O)C([H])([H])C([H])(C(=O)N4C([H])([H])C([H])([H])C([H])([H])C([H])(n5nc(-c6c([H])c([H])c(Oc7c([H])c([H])c(F)c([H])c7F)c([H])c6[H])c(C(=O)N([H])[H])c5N([H])[H])C4([H])[H])C([H])([H])[H])c(OC([H])([H])[H])c3[H])c([H])c([H])c2C1([H])[H]

$$$$
82:0:0
     RDKit          3D

 90 98  0  0  1  0  0  0  0  0999 V2000
  -29.5960  -19.8430   21.5410 C   0  0  0  0  0  3  0  0  0  0  0  0
  -29.3470  -21.2700   21.5580 C   0  0  0  0  0  3  0  0  0  0  0  0
  -28.9900  -21.2460   19.2230 C   0  0  0  0  0  3  0  0  0  0  0  0
  -29.5870  -19.0340   20.3610 C   0  0  0  0  0  0  0  0  0  0  0  0
  -29.0700  -22.0630   20.3970 C   0  0  0  0  0  0  0  0  0  0  0  0
  -29.2360  -19.8150   19.2040 C   0  0  0  0  0  0  0  0  0  0  0  0
  -29.2160  -19.1940   18.0000 F   0  0  0  0  0  0  0  0  0  0  0  0
  -29.7660  -16.2640   20.4810 C   0  0  0  0  0  3  0  0  0  0  0  0
  -30.2310  -17.5870   20.2890 C   0  0  0  0  0  0  0  0  0  0  0  0
  -30.5640  -14.9470   20.3160 C   0  0  0  0  0  0  0  0  0  0  0  0
  -30.3760  -12.6160   19.3830 C   0  0  0  0  0  2  0  0  0  0  0  0
  -29.4500  -12.6310   18.1460 C   0  0  0  0  0  2  0  0  0  0  0  0
  -27.9830  -12.4400   18.5690 C   0  0  0  0  0  2  0  0  0  0  0  0
  -27.5880  -13.3540   19.7600 C   0  0  0  0  0  3  0  0  0  0  0  0
  -28.6410  -13.3390   20.8860 C   0  0  0  0  0  2  0  0  0  0  0  0
  -29.9300  -13.7090   20.2920 N   0  0  0  0  0  0  0  0  0  0  0  0
  -31.7660  -14.9370   20.0310 O   0  0  0  0  0  0  0  0  0  0  0  0
  -25.2070  -13.9260   20.5080 C   0  0  0  0  0  0  0  0  0  0  0  0
  -24.1450  -13.1490   20.8760 C   0  0  0  0  0  0  0  0  0  0  0  0
  -24.6110  -11.7980   20.8390 C   0  0  0  0  0  0  0  0  0  0  0  0
  -26.2500  -13.0520   20.2600 N   0  0  0  0  0  0  0  0  0  0  0  0
  -25.9010  -11.7660   20.5260 N   0  0  0  0  0  0  0  0  0  0  0  0
  -23.8860  -10.5340   21.0240 C   0  0  0  0  0  0  0  0  0  0  0  0
  -24.3060   -9.5710   21.9690 C   0  0  0  0  0  3  0  0  0  0  0  0
  -23.5790   -8.3740   22.1430 C   0  0  0  0  0  3  0  0  0  0  0  0
  -22.4190   -8.1290   21.3710 C   0  0  0  0  0  0  0  0  0  0  0  0
  -22.0190   -9.0800   20.4150 C   0  0  0  0  0  3  0  0  0  0  0  0
  -22.7460  -10.2680   20.2390 C   0  0  0  0  0  3  0  0  0  0  0  0
  -21.6650   -6.9830   21.4520 O   0  0  0  0  0  0  0  0  0  0  0  0
  -21.5840   -6.2560   22.6120 C   0  0  0  0  0  0  0  0  0  0  0  0
  -21.0930   -6.8180   23.8110 C   0  0  0  0  0  3  0  0  0  0  0  0
  -20.9610   -6.0160   24.9630 C   0  0  0  0  0  3  0  0  0  0  0  0
  -21.3090   -4.6540   24.9160 C   0  0  0  0  0  0  0  0  0  0  0  0
  -21.7940   -4.0910   23.7220 C   0  0  0  0  0  3  0  0  0  0  0  0
  -21.9270   -4.8900   22.5720 C   0  0  0  0  0  0  0  0  0  0  0  0
  -22.3740   -4.3370   21.4190 F   0  0  0  0  0  0  0  0  0  0  0  0
  -21.1760   -3.8810   26.0190 F   0  0  0  0  0  0  0  0  0  0  0  0
  -22.7480  -13.6220   21.1510 C   0  0  0  0  0  0  0  0  0  0  0  0
  -22.0200  -12.9220   22.0140 N   0  0  0  0  0  0  0  0  0  0  0  0
  -22.3090  -14.6500   20.6340 O   0  0  0  0  0  0  0  0  0  0  0  0
  -22.3880  -12.0920   22.4540 H   0  0  0  0  0  0  0  0  0  0  0  0
  -21.0830  -13.2230   22.2390 H   0  0  0  0  0  0  0  0  0  0  0  0
  -25.3680  -15.2980   20.3380 N   0  0  0  0  0  0  0  0  0  0  0  0
  -24.6000  -15.9500   20.4550 H   0  0  0  0  0  0  0  0  0  0  0  0
  -26.2140  -15.7410   20.0010 H   0  0  0  0  0  0  0  0  0  0  0  0
  -31.5240  -17.7510   19.9730 O   0  0  0  0  0  0  0  0  0  0  0  0
  -31.6850  -18.6840   19.8990 H   0  0  0  0  0  0  0  0  0  0  0  0
  -29.1620  -23.6970   20.4180 C   0  0  0  0  0  3  0  0  0  0  0  0
  -28.0080  -24.8250   20.0750 C   0  0  0  0  0  3  0  0  0  0  0  0
  -28.2550  -26.3360   20.2180 O   0  0  0  0  0  0  0  0  0  0  0  0
  -24.6360  -31.9240   23.2590 C   0  0  0  0  0  0  0  0  0  0  0  0
  -27.1790  -27.2760   20.1670 C   0  0  0  0  0  0  0  0  0  0  0  0
  -23.4140  -30.5400   21.6230 C   0  0  0  0  0  3  0  0  0  0  0  0
  -24.8450  -28.9810   20.1720 C   0  0  0  0  0  0  0  0  0  0  0  0
  -25.9620  -30.8210   21.4260 C   0  0  0  0  0  2  0  0  0  0  0  0
  -26.0280  -29.4380   20.7650 C   0  0  0  0  0  0  0  0  0  0  0  0
  -27.1980  -28.6000   20.7460 C   0  0  0  0  0  3  0  0  0  0  0  0
  -25.9700  -26.9050   19.5390 C   0  0  0  0  0  3  0  0  0  0  0  0
  -24.8250  -27.7270   19.5440 C   0  0  0  0  0  3  0  0  0  0  0  0
  -23.6170  -29.8730   20.2370 C   0  0  0  0  0  2  0  0  0  0  0  0
  -24.6910  -31.1150   22.1580 N   0  0  0  0  0  0  0  0  0  0  0  0
  -23.5570  -32.2040   23.8020 O   0  0  0  0  0  0  0  0  0  0  0  0
  -22.7510  -29.5240   22.5850 C   0  0  0  0  0  0  0  0  0  0  0  0
  -21.4240  -29.3420   22.4600 N   0  0  0  0  0  0  0  0  0  0  0  0
  -23.4300  -28.9030   23.4070 O   0  0  0  0  0  0  0  0  0  0  0  0
  -20.9330  -29.8950   21.7710 H   0  0  0  0  0  0  0  0  0  0  0  0
  -18.0540  -28.1170   22.9610 C   0  0  0  0  0  0  0  0  0  0  0  0
  -20.6100  -28.4000   23.2320 C   0  0  0  0  0  3  0  0  0  0  0  0
  -20.7240  -26.9670   22.6610 C   0  0  0  0  0  2  0  0  0  0  0  0
  -19.6260  -26.6330   21.6450 C   0  0  0  0  0  2  0  0  0  0  0  0
  -18.2420  -26.7680   22.2880 C   0  0  0  0  0  2  0  0  0  0  0  0
  -19.1660  -28.8900   23.3900 C   0  0  0  0  0  0  0  0  0  0  0  0
  -18.9340  -30.1510   23.9810 C   0  0  0  0  0  3  0  0  0  0  0  0
  -17.6250  -30.6400   24.1460 C   0  0  0  0  0  3  0  0  0  0  0  0
  -16.5270  -29.8650   23.7310 C   0  0  0  0  0  3  0  0  0  0  0  0
  -16.7430  -28.6050   23.1450 C   0  0  0  0  0  3  0  0  0  0  0  0
  -25.9240  -32.5520   23.8750 C   0  0  0  0  0  3  0  0  0  0  0  0
  -26.4470  -31.7740   25.1450 C   0  0  1  0  0  0  0  0  0  0  0  0
  -25.3610  -31.5330   26.2190 C   0  0  0  0  0  1  0  0  0  0  0  0
  -27.0260  -30.3980   24.7450 C   0  0  0  0  0  1  0  0  0  0  0  0
  -27.6020  -32.5640   25.8030 C   0  0  0  0  0  1  0  0  0  0  0  0
  -25.6190  -33.9500   24.2180 N   0  0  0  0  0  0  0  0  0  0  0  0
  -25.9200  -35.0070   23.4540 C   0  0  0  0  0  0  0  0  0  0  0  0
  -26.5530  -34.9100   22.3990 O   0  0  0  0  0  0  0  0  0  0  0  0
  -25.0510  -34.0990   25.0400 H   0  0  0  0  0  0  0  0  0  0  0  0
  -24.1650  -36.7910   23.1830 C   0  0  0  0  0  1  0  0  0  0  0  0
  -25.4460  -36.3940   23.9340 C   0  0  0  0  0  3  0  0  0  0  0  0
  -27.6090  -37.2970   24.6670 C   0  0  0  0  0  1  0  0  0  0  0  0
  -26.4660  -37.4540   23.7730 N   0  0  0  0  0  0  0  0  0  0  0  0
  -26.0600  -38.3710   23.9340 H   0  0  0  0  0  0  0  0  0  0  0  0
  1  2  1  0
  3  5  1  0
  4  1  2  0
  5 48  1  0
  5  2  2  0
  6  3  2  0
  6  4  1  0
  7  6  1  0
  9  4  1  0
  9  8  2  0
 10  8  1  0
 11 16  1  0
 12 13  1  0
 12 11  1  0
 14 13  1  0
 14 21  1  0
 14 15  1  0
 16 10  1  0
 16 15  1  0
 17 10  2  0
 18 19  2  0
 19 38  1  0
 20 19  1  0
 20 23  1  0
 21 18  1  0
 21 22  1  0
 22 20  2  0
 23 24  1  0
 24 25  2  0
 26 29  1  0
 26 25  1  0
 27 26  2  0
 28 27  1  0
 28 23  2  0
 29 30  1  0
 30 31  1  0
 31 32  2  0
 33 32  1  0
 33 37  1  0
 34 33  2  0
 35 30  2  0
 35 34  1  0
 36 35  1  0
 38 39  1  0
 39 42  1  0
 39 41  1  0
 40 38  2  0
 43 44  1  0
 43 18  1  0
 45 43  1  0
 46  9  1  0
 47 46  1  0
 49 50  1  0
 49 48  2  0
 51 62  2  0
 52 50  1  0
 52 57  1  0
 53 61  1  0
 53 63  1  0
 54 60  1  0
 54 56  1  0
 55 61  1  0
 56 55  1  0
 57 56  2  0
 58 59  1  0
 58 52  2  0
 59 54  2  0
 60 53  1  0
 61 51  1  0
 63 65  2  0
 64 63  1  0
 66 64  1  0
 67 76  2  0
 67 72  1  0
 68 64  1  0
 68 72  1  0
 69 68  1  0
 70 71  1  0
 70 69  1  0
 71 67  1  0
 72 73  2  0
 73 74  1  0
 75 74  2  0
 76 75  1  0
 77 51  1  0
 77 82  1  0
 77 78  1  0
 78 81  1  1
 78 79  1  0
 80 78  1  0
 82 85  1  0
 83 87  1  0
 83 82  1  0
 84 83  2  0
 87 86  1  0
 89 87  1  0
 89 90  1  0
 89 88  1  0
M  ISO  4   8 100  10 100  49 101  50 101
M  END
>  <TORSDO>  (83) 
F 20

>  <SCORE>  (83) 
-13.801

>  <name>  (83) 
82

>  <ligand_id>  (83) 
82

>  <original_smiles>  (83) 
[H]OC(=C([H])C(=O)N1C([H])([H])C([H])([H])C([H])([H])C([H])(n2nc(-c3c([H])c([H])c(Oc4c([H])c([H])c(F)c([H])c4F)c([H])c3[H])c(C(=O)N([H])[H])c2N([H])[H])C1([H])[H])c1c([H])c([H])c(C([H])([H])C([H])([H])Oc2c([H])c([H])c3c(c2[H])C([H])([H])N(C(=O)C([H])(N([H])C(=O)C([H])(N([H])C([H])([H])[H])C([H])([H])[H])C(C([H])([H])[H])(C([H])([H])[H])C([H])([H])[H])C([H])(C(=O)N([H])C2([H])c4c([H])c([H])c([H])c([H])c4C([H])([H])C([H])([H])C2([H])[H])C3([H])[H])c([H])c1F

>  <smiles>  (83) 
[H]OC(=C([H])C(=O)N1C([H])([H])C([H])([H])C([H])([H])C([H])(n2nc(-c3c([H])c([H])c(Oc4c([H])c([H])c(F)c([H])c4F)c([H])c3[H])c(C(=O)N([H])[H])c2N([H])[H])C1([H])[H])c1c([H])c([H])c(C([H])([H])C([H])([H])Oc2c([H])c([H])c3c(c2[H])C([H])([H])N(C(=O)C([H])(N([H])C(=O)C([H])(N([H])C([H])([H])[H])C([H])([H])[H])C(C([H])([H])[H])(C([H])([H])[H])C([H])([H])[H])C([H])(C(=O)N([H])C2([H])c4c([H])c([H])c([H])c([H])c4C([H])([H])C([H])([H])C2([H])[H])C3([H])[H])c([H])c1F

$$$$
83:0:0
     RDKit          3D

 91 99  0  0  1  0  0  0  0  0999 V2000
  -29.4920  -19.4420   21.3910 C   0  0  0  0  0  3  0  0  0  0  0  0
  -29.3370  -20.6870   22.0570 C   0  0  0  0  0  3  0  0  0  0  0  0
  -29.3670  -20.6840   19.3170 C   0  0  0  0  0  3  0  0  0  0  0  0
  -29.5590  -19.3570   19.9830 C   0  0  0  0  0  0  0  0  0  0  0  0
  -29.1510  -22.0120   19.9690 C   0  0  0  0  0  0  0  0  0  0  0  0
  -29.2170  -21.9330   21.3820 C   0  0  0  0  0  0  0  0  0  0  0  0
  -28.8850  -17.7930   18.0490 C   0  0  0  0  0  1  0  0  0  0  0  0
  -29.8340  -17.8820   19.2550 C   0  0  0  0  0  3  0  0  0  0  0  0
  -30.5980  -15.2650   19.6770 C   0  0  0  0  0  0  0  0  0  0  0  0
  -30.5300  -12.8400   18.9300 C   0  0  0  0  0  2  0  0  0  0  0  0
  -29.5320  -12.6570   17.7610 C   0  0  0  0  0  2  0  0  0  0  0  0
  -28.1090  -12.4140   18.3030 C   0  0  0  0  0  2  0  0  0  0  0  0
  -27.7280  -13.4070   19.4330 C   0  0  0  0  0  3  0  0  0  0  0  0
  -28.8450  -13.5650   20.4870 C   0  0  0  0  0  2  0  0  0  0  0  0
  -30.0630  -13.9790   19.7780 N   0  0  0  0  0  0  0  0  0  0  0  0
  -31.7330  -15.3520   19.2020 O   0  0  0  0  0  0  0  0  0  0  0  0
  -29.8060  -16.4340   19.9080 N   0  0  0  0  0  0  0  0  0  0  0  0
  -28.9510  -16.2370   20.4090 H   0  0  0  0  0  0  0  0  0  0  0  0
  -25.4390  -13.9520   20.4390 C   0  0  0  0  0  0  0  0  0  0  0  0
  -24.4110  -13.1630   20.8760 C   0  0  0  0  0  0  0  0  0  0  0  0
  -24.8570  -11.8150   20.7300 C   0  0  0  0  0  0  0  0  0  0  0  0
  -26.4420  -13.0850   20.0420 N   0  0  0  0  0  0  0  0  0  0  0  0
  -26.1080  -11.7910   20.2810 N   0  0  0  0  0  0  0  0  0  0  0  0
  -24.1420  -10.5480   20.9310 C   0  0  0  0  0  0  0  0  0  0  0  0
  -24.6000   -9.5750   21.8470 C   0  0  0  0  0  3  0  0  0  0  0  0
  -23.8780   -8.3750   22.0340 C   0  0  0  0  0  3  0  0  0  0  0  0
  -22.6860   -8.1410   21.3080 C   0  0  0  0  0  0  0  0  0  0  0  0
  -22.2490   -9.1020   20.3820 C   0  0  0  0  0  3  0  0  0  0  0  0
  -22.9710  -10.2920   20.1890 C   0  0  0  0  0  3  0  0  0  0  0  0
  -21.9370   -6.9920   21.4040 O   0  0  0  0  0  0  0  0  0  0  0  0
  -21.8620   -6.2800   22.5740 C   0  0  0  0  0  0  0  0  0  0  0  0
  -21.3500   -6.8450   23.7620 C   0  0  0  0  0  3  0  0  0  0  0  0
  -21.2220   -6.0540   24.9210 C   0  0  0  0  0  3  0  0  0  0  0  0
  -21.6040   -4.7000   24.8930 C   0  0  0  0  0  0  0  0  0  0  0  0
  -22.1150   -4.1360   23.7120 C   0  0  0  0  0  3  0  0  0  0  0  0
  -22.2390   -4.9230   22.5560 C   0  0  0  0  0  0  0  0  0  0  0  0
  -22.7120   -4.3690   21.4110 F   0  0  0  0  0  0  0  0  0  0  0  0
  -21.4790   -3.9360   26.0060 F   0  0  0  0  0  0  0  0  0  0  0  0
  -23.0540  -13.6350   21.3100 C   0  0  0  0  0  0  0  0  0  0  0  0
  -22.4070  -12.9050   22.2110 N   0  0  0  0  0  0  0  0  0  0  0  0
  -22.5800  -14.6900   20.8880 O   0  0  0  0  0  0  0  0  0  0  0  0
  -22.8100  -12.0550   22.5820 H   0  0  0  0  0  0  0  0  0  0  0  0
  -21.5030  -13.2090   22.5420 H   0  0  0  0  0  0  0  0  0  0  0  0
  -25.5890  -15.3290   20.3220 N   0  0  0  0  0  0  0  0  0  0  0  0
  -24.8160  -15.9580   20.5140 H   0  0  0  0  0  0  0  0  0  0  0  0
  -26.3740  -15.7990   19.8880 H   0  0  0  0  0  0  0  0  0  0  0  0
  -30.5090  -23.5060   22.5310 C   0  0  0  0  0  1  0  0  0  0  0  0
  -29.2040  -23.0820   22.1310 O   0  0  0  0  0  0  0  0  0  0  0  0
  -28.9850  -23.4980   19.2220 C   0  0  0  0  0  3  0  0  0  0  0  0
  -28.1470  -24.8840   19.7600 C   0  0  0  0  0  3  0  0  0  0  0  0
  -28.1720  -26.3530   19.2050 O   0  0  0  0  0  0  0  0  0  0  0  0
  -24.4870  -31.5650   22.9340 C   0  0  0  0  0  0  0  0  0  0  0  0
  -27.0580  -27.2700   19.3310 C   0  0  0  0  0  0  0  0  0  0  0  0
  -23.2410  -30.2890   21.2250 C   0  0  0  0  0  3  0  0  0  0  0  0
  -24.6620  -28.9130   19.5800 C   0  0  0  0  0  0  0  0  0  0  0  0
  -25.7680  -30.6730   20.9500 C   0  0  0  0  0  2  0  0  0  0  0  0
  -25.8570  -29.3500   20.1690 C   0  0  0  0  0  0  0  0  0  0  0  0
  -27.0510  -28.5450   20.0280 C   0  0  0  0  0  3  0  0  0  0  0  0
  -25.8320  -26.9350   18.7150 C   0  0  0  0  0  3  0  0  0  0  0  0
  -24.6620  -27.7190   18.8400 C   0  0  0  0  0  3  0  0  0  0  0  0
  -23.4080  -29.7520   19.7770 C   0  0  0  0  0  2  0  0  0  0  0  0
  -24.5210  -30.8600   21.7620 N   0  0  0  0  0  0  0  0  0  0  0  0
  -23.4240  -31.7510   23.5480 O   0  0  0  0  0  0  0  0  0  0  0  0
  -22.6570  -29.1660   22.1220 C   0  0  0  0  0  0  0  0  0  0  0  0
  -21.3320  -28.9450   22.0450 N   0  0  0  0  0  0  0  0  0  0  0  0
  -23.3970  -28.5030   22.8520 O   0  0  0  0  0  0  0  0  0  0  0  0
  -20.7850  -29.5420   21.4410 H   0  0  0  0  0  0  0  0  0  0  0  0
  -18.0430  -27.5390   22.5900 C   0  0  0  0  0  0  0  0  0  0  0  0
  -20.5970  -27.8980   22.7590 C   0  0  0  0  0  3  0  0  0  0  0  0
  -20.7320  -26.5330   22.0430 C   0  0  0  0  0  2  0  0  0  0  0  0
  -19.5960  -26.2590   21.0530 C   0  0  0  0  0  2  0  0  0  0  0  0
  -18.2440  -26.2730   21.7720 C   0  0  0  0  0  2  0  0  0  0  0  0
  -19.1490  -28.3090   23.0390 C   0  0  0  0  0  0  0  0  0  0  0  0
  -18.9090  -29.4920   23.7710 C   0  0  0  0  0  3  0  0  0  0  0  0
  -17.5950  -29.9120   24.0500 C   0  0  0  0  0  3  0  0  0  0  0  0
  -16.5040  -29.1370   23.6170 C   0  0  0  0  0  3  0  0  0  0  0  0
  -16.7290  -27.9490   22.8970 C   0  0  0  0  0  3  0  0  0  0  0  0
  -25.7790  -32.1870   23.5480 C   0  0  0  0  0  3  0  0  0  0  0  0
  -26.3770  -31.3340   24.7350 C   0  0  1  0  0  0  0  0  0  0  0  0
  -25.3480  -30.9920   25.8370 C   0  0  0  0  0  1  0  0  0  0  0  0
  -26.9630  -30.0020   24.2130 C   0  0  0  0  0  1  0  0  0  0  0  0
  -27.5420  -32.0970   25.4050 C   0  0  0  0  0  1  0  0  0  0  0  0
  -25.4450  -33.5450   24.0140 N   0  0  0  0  0  0  0  0  0  0  0  0
  -25.7050  -34.6710   23.3360 C   0  0  0  0  0  0  0  0  0  0  0  0
  -26.3160  -34.6820   22.2670 O   0  0  0  0  0  0  0  0  0  0  0  0
  -24.8940  -33.6020   24.8560 H   0  0  0  0  0  0  0  0  0  0  0  0
  -23.8980  -36.4230   23.2570 C   0  0  0  0  0  1  0  0  0  0  0  0
  -25.2070  -36.0000   23.9430 C   0  0  0  0  0  3  0  0  0  0  0  0
  -27.3640  -36.9060   24.6960 C   0  0  0  0  0  1  0  0  0  0  0  0
  -26.1910  -37.1020   23.8450 N   0  0  0  0  0  0  0  0  0  0  0  0
  -25.7630  -37.9870   24.0970 H   0  0  0  0  0  0  0  0  0  0  0  0
  1  2  1  0
  3  5  2  0
  3  4  1  0
  4  1  2  0
  5  6  1  0
  6  2  2  0
  6 48  1  0
  8  7  1  0
  8 17  1  0
  8  4  1  0
  9 15  1  0
  9 17  1  0
 10 15  1  0
 11 12  1  0
 11 10  1  0
 13 12  1  0
 13 22  1  0
 13 14  1  0
 15 14  1  0
 16  9  2  0
 17 18  1  0
 19 20  2  0
 20 39  1  0
 21 20  1  0
 21 24  1  0
 22 23  1  0
 22 19  1  0
 23 21  2  0
 24 25  1  0
 25 26  2  0
 27 30  1  0
 27 26  1  0
 28 27  2  0
 29 28  1  0
 29 24  2  0
 30 31  1  0
 31 32  1  0
 32 33  2  0
 34 33  1  0
 34 38  1  0
 35 34  2  0
 36 31  2  0
 36 35  1  0
 37 36  1  0
 39 40  1  0
 40 43  1  0
 40 42  1  0
 41 39  2  0
 44 19  1  0
 44 45  1  0
 46 44  1  0
 48 47  1  0
 49 50  2  0
 49  5  1  0
 51 53  1  0
 51 50  1  0
 52 63  2  0
 53 58  1  0
 54 62  1  0
 54 64  1  0
 55 61  1  0
 55 57  1  0
 56 62  1  0
 57 56  1  0
 58 57  2  0
 59 60  1  0
 59 53  2  0
 60 55  2  0
 61 54  1  0
 62 52  1  0
 64 66  2  0
 65 64  1  0
 67 65  1  0
 68 77  2  0
 68 73  1  0
 69 65  1  0
 69 73  1  0
 70 69  1  0
 71 72  1  0
 71 70  1  0
 72 68  1  0
 73 74  2  0
 74 75  1  0
 76 75  2  0
 77 76  1  0
 78 52  1  0
 78 83  1  0
 78 79  1  0
 79 82  1  1
 79 80  1  0
 81 79  1  0
 83 86  1  0
 84 88  1  0
 84 83  1  0
 85 84  2  0
 88 87  1  0
 90 88  1  0
 90 91  1  0
 90 89  1  0
M  ISO  4   9 100  17 100  50 101  51 101
M  END
>  <TORSDO>  (84) 
F 20

>  <SCORE>  (84) 
-12.481

>  <name>  (84) 
83

>  <ligand_id>  (84) 
83

>  <original_smiles>  (84) 
[H]c1c([H])c([H])c2c(c1[H])C([H])([H])C([H])([H])C([H])([H])C2([H])N([H])C(=O)C1([H])N(C(=O)C([H])(N([H])C(=O)C([H])(N([H])C([H])([H])[H])C([H])([H])[H])C(C([H])([H])[H])(C([H])([H])[H])C([H])([H])[H])C([H])([H])c2c([H])c(OC([H])([H])C([H])([H])c3c([H])c(C([H])(N([H])C(=O)N4C([H])([H])C([H])([H])C([H])([H])C([H])(n5nc(-c6c([H])c([H])c(Oc7c([H])c([H])c(F)c([H])c7F)c([H])c6[H])c(C(=O)N([H])[H])c5N([H])[H])C4([H])[H])C([H])([H])[H])c([H])c([H])c3OC([H])([H])[H])c([H])c([H])c2C1([H])[H]

>  <smiles>  (84) 
[H]c1c([H])c([H])c2c(c1[H])C([H])([H])C([H])([H])C([H])([H])C2([H])N([H])C(=O)C1([H])N(C(=O)C([H])(N([H])C(=O)C([H])(N([H])C([H])([H])[H])C([H])([H])[H])C(C([H])([H])[H])(C([H])([H])[H])C([H])([H])[H])C([H])([H])c2c([H])c(OC([H])([H])C([H])([H])c3c([H])c(C([H])(N([H])C(=O)N4C([H])([H])C([H])([H])C([H])([H])C([H])(n5nc(-c6c([H])c([H])c(Oc7c([H])c([H])c(F)c([H])c7F)c([H])c6[H])c(C(=O)N([H])[H])c5N([H])[H])C4([H])[H])C([H])([H])[H])c([H])c([H])c3OC([H])([H])[H])c([H])c([H])c2C1([H])[H]

$$$$
84:0:0
     RDKit          3D

 99107  0  0  1  0  0  0  0  0999 V2000
  -29.5510  -17.0580   20.6850 C   0  0  0  0  0  0  0  0  0  0  0  0
  -30.7400  -14.6980   20.3760 C   0  0  0  0  0  0  0  0  0  0  0  0
  -30.3780  -12.6070   19.0480 C   0  0  0  0  0  2  0  0  0  0  0  0
  -29.3880  -12.8440   17.8860 C   0  0  0  0  0  2  0  0  0  0  0  0
  -27.9300  -12.6730   18.3530 C   0  0  0  0  0  2  0  0  0  0  0  0
  -27.6400  -13.4010   19.6890 C   0  0  0  0  0  3  0  0  0  0  0  0
  -28.7400  -13.1630   20.7440 C   0  0  0  0  0  2  0  0  0  0  0  0
  -30.0350  -13.5370   20.1550 N   0  0  0  0  0  0  0  0  0  0  0  0
  -31.8530  -14.8560   19.8700 O   0  0  0  0  0  0  0  0  0  0  0  0
  -30.1630  -15.7200   21.0980 N   0  0  0  0  0  4  0  0  0  0  0  0
  -30.5270  -15.7450   22.0430 H   0  0  0  0  0  0  0  0  0  0  0  0
  -25.2470  -13.9270   20.4400 C   0  0  0  0  0  0  0  0  0  0  0  0
  -24.2020  -13.1260   20.8210 C   0  0  0  0  0  0  0  0  0  0  0  0
  -24.6970  -11.7890   20.7720 C   0  0  0  0  0  0  0  0  0  0  0  0
  -26.3110  -13.0750   20.1940 N   0  0  0  0  0  0  0  0  0  0  0  0
  -25.9870  -11.7820   20.4550 N   0  0  0  0  0  0  0  0  0  0  0  0
  -24.0000  -10.5110   20.9540 C   0  0  0  0  0  0  0  0  0  0  0  0
  -24.4390   -9.5680   21.9080 C   0  0  0  0  0  3  0  0  0  0  0  0
  -23.7410   -8.3530   22.0830 C   0  0  0  0  0  3  0  0  0  0  0  0
  -22.5920   -8.0780   21.3060 C   0  0  0  0  0  0  0  0  0  0  0  0
  -22.1710   -9.0130   20.3460 C   0  0  0  0  0  3  0  0  0  0  0  0
  -22.8660  -10.2190   20.1680 C   0  0  0  0  0  3  0  0  0  0  0  0
  -21.8600   -6.9180   21.3930 O   0  0  0  0  0  0  0  0  0  0  0  0
  -21.7800   -6.2050   22.5610 C   0  0  0  0  0  0  0  0  0  0  0  0
  -21.2900   -6.7800   23.7530 C   0  0  0  0  0  3  0  0  0  0  0  0
  -21.1580   -5.9920   24.9130 C   0  0  0  0  0  3  0  0  0  0  0  0
  -21.5060   -4.6280   24.8810 C   0  0  0  0  0  0  0  0  0  0  0  0
  -21.9870   -4.0520   23.6910 C   0  0  0  0  0  3  0  0  0  0  0  0
  -22.1210   -4.8380   22.5350 C   0  0  0  0  0  0  0  0  0  0  0  0
  -22.5680   -4.2730   21.3860 F   0  0  0  0  0  0  0  0  0  0  0  0
  -21.3700   -3.8680   25.9920 F   0  0  0  0  0  0  0  0  0  0  0  0
  -22.7990  -13.5760   21.1010 C   0  0  0  0  0  0  0  0  0  0  0  0
  -22.0910  -12.8680   21.9740 N   0  0  0  0  0  0  0  0  0  0  0  0
  -22.3380  -14.5900   20.5810 O   0  0  0  0  0  0  0  0  0  0  0  0
  -22.4790  -12.0530   22.4230 H   0  0  0  0  0  0  0  0  0  0  0  0
  -21.1460  -13.1480   22.1960 H   0  0  0  0  0  0  0  0  0  0  0  0
  -25.3600  -15.2940   20.2520 N   0  0  0  0  0  0  0  0  0  0  0  0
  -24.5320  -15.8800   20.2480 H   0  0  0  0  0  0  0  0  0  0  0  0
  -26.1420  -15.7100   19.7660 H   0  0  0  0  0  0  0  0  0  0  0  0
  -29.1750  -17.0890   19.1730 C   0  0  0  0  0  2  0  0  0  0  0  0
  -26.3180  -19.6820   19.1550 C   0  0  0  0  0  3  0  0  0  0  0  0
  -27.0760  -18.5370   19.4560 C   0  0  0  0  0  3  0  0  0  0  0  0
  -28.6620  -19.1180   17.7100 C   0  0  0  0  0  3  0  0  0  0  0  0
  -26.7300  -20.5660   18.1390 C   0  0  0  0  0  0  0  0  0  0  0  0
  -28.2760  -18.2550   18.7580 C   0  0  0  0  0  0  0  0  0  0  0  0
  -27.8970  -20.2610   17.4000 C   0  0  0  0  0  0  0  0  0  0  0  0
  -28.3110  -21.0670   16.3930 F   0  0  0  0  0  0  0  0  0  0  0  0
  -25.9060  -21.7920   17.8640 C   0  0  0  0  0  0  0  0  0  0  0  0
  -26.5400  -22.9580   17.9010 N   0  0  0  0  0  0  0  0  0  0  0  0
  -24.6910  -21.7180   17.6850 O   0  0  0  0  0  0  0  0  0  0  0  0
  -27.5310  -22.9900   18.0830 H   0  0  0  0  0  0  0  0  0  0  0  0
  -26.0310  -23.8160   17.7460 H   0  0  0  0  0  0  0  0  0  0  0  0
  -30.1740  -18.4370   21.2840 C   0  0  0  0  0  2  0  0  0  0  0  0
  -29.7500  -19.8900   20.6920 C   0  0  0  0  0  2  0  0  0  0  0  0
  -29.6900  -21.2550   21.5460 C   0  0  0  0  0  2  0  0  0  0  0  0
  -29.9070  -22.6630   20.7950 C   0  0  0  0  0  2  0  0  0  0  0  0
  -28.7890  -23.8060   20.5970 C   0  0  0  0  0  2  0  0  0  0  0  0
  -28.7810  -25.1840   21.4220 C   0  0  0  0  0  2  0  0  0  0  0  0
  -28.8000  -26.5000   20.7360 O   0  0  0  0  0  0  0  0  0  0  0  0
  -24.7360  -31.9010   23.3130 C   0  0  0  0  0  0  0  0  0  0  0  0
  -27.6390  -27.2800   20.6580 C   0  0  0  0  0  0  0  0  0  0  0  0
  -23.6640  -30.3940   21.6750 C   0  0  0  0  0  3  0  0  0  0  0  0
  -25.2300  -28.8100   20.4230 C   0  0  0  0  0  0  0  0  0  0  0  0
  -26.1990  -30.7780   21.6150 C   0  0  0  0  0  2  0  0  0  0  0  0
  -26.3540  -29.3720   21.0430 C   0  0  0  0  0  0  0  0  0  0  0  0
  -27.5660  -28.6240   21.1320 C   0  0  0  0  0  3  0  0  0  0  0  0
  -26.4900  -26.7520   20.0340 C   0  0  0  0  0  3  0  0  0  0  0  0
  -25.3020  -27.5030   19.9060 C   0  0  0  0  0  3  0  0  0  0  0  0
  -23.9780  -29.6600   20.3450 C   0  0  0  0  0  2  0  0  0  0  0  0
  -24.8820  -31.0440   22.2610 N   0  0  0  0  0  0  0  0  0  0  0  0
  -23.6170  -32.1720   23.7750 O   0  0  0  0  0  0  0  0  0  0  0  0
  -22.9700  -29.4050   22.6430 C   0  0  0  0  0  0  0  0  0  0  0  0
  -21.6530  -29.2070   22.4670 N   0  0  0  0  0  0  0  0  0  0  0  0
  -23.6180  -28.8190   23.5120 O   0  0  0  0  0  0  0  0  0  0  0  0
  -21.1880  -29.7240   21.7320 H   0  0  0  0  0  0  0  0  0  0  0  0
  -18.2550  -28.0450   22.8990 C   0  0  0  0  0  0  0  0  0  0  0  0
  -20.8070  -28.2950   23.2400 C   0  0  0  0  0  3  0  0  0  0  0  0
  -20.9150  -26.8470   22.7130 C   0  0  0  0  0  2  0  0  0  0  0  0
  -19.8410  -26.4990   21.6790 C   0  0  0  0  0  2  0  0  0  0  0  0
  -18.4420  -26.6760   22.2710 C   0  0  0  0  0  2  0  0  0  0  0  0
  -19.3660  -28.8100   23.3440 C   0  0  0  0  0  0  0  0  0  0  0  0
  -19.1380  -30.0860   23.9050 C   0  0  0  0  0  3  0  0  0  0  0  0
  -17.8300  -30.5940   24.0230 C   0  0  0  0  0  3  0  0  0  0  0  0
  -16.7330  -29.8260   23.5910 C   0  0  0  0  0  3  0  0  0  0  0  0
  -16.9470  -28.5540   23.0350 C   0  0  0  0  0  3  0  0  0  0  0  0
  -25.9640  -32.5940   23.9780 C   0  0  0  0  0  3  0  0  0  0  0  0
  -26.4390  -31.8820   25.3030 C   0  0  1  0  0  0  0  0  0  0  0  0
  -25.3000  -31.6240   26.3140 C   0  0  0  0  0  1  0  0  0  0  0  0
  -27.1030  -30.5220   24.9850 C   0  0  0  0  0  1  0  0  0  0  0  0
  -27.5080  -32.7460   26.0110 C   0  0  0  0  0  1  0  0  0  0  0  0
  -25.5930  -33.9910   24.2470 N   0  0  0  0  0  0  0  0  0  0  0  0
  -25.9280  -35.0310   23.4730 C   0  0  0  0  0  0  0  0  0  0  0  0
  -26.6500  -34.9190   22.4770 O   0  0  0  0  0  0  0  0  0  0  0  0
  -24.9540  -34.1490   25.0110 H   0  0  0  0  0  0  0  0  0  0  0  0
  -24.1610  -36.7570   22.9910 C   0  0  0  0  0  1  0  0  0  0  0  0
  -25.3770  -36.4150   23.8650 C   0  0  0  0  0  3  0  0  0  0  0  0
  -27.4410  -37.4050   24.7530 C   0  0  0  0  0  1  0  0  0  0  0  0
  -26.3760  -37.4990   23.7600 N   0  0  0  0  0  0  0  0  0  0  0  0
  -25.9320  -38.4080   23.8590 H   0  0  0  0  0  0  0  0  0  0  0  0
  1 10  2  0
  1 53  1  0
  2 10  1  0
  3  8  1  0
  4  5  1  0
  4  3  1  0
  6  5  1  0
  6 15  1  0
  6  7  1  0
  8  2  1  0
  8  7  1  0
  9  2  2  0
 10 11  1  0
 12 13  2  0
 13 32  1  0
 14 13  1  0
 14 17  1  0
 15 12  1  0
 15 16  1  0
 16 14  2  0
 17 18  1  0
 18 19  2  0
 20 23  1  0
 20 19  1  0
 21 20  2  0
 22 21  1  0
 22 17  2  0
 23 24  1  0
 24 25  1  0
 25 26  2  0
 27 26  1  0
 27 31  1  0
 28 27  2  0
 29 24  2  0
 29 28  1  0
 30 29  1  0
 32 33  1  0
 33 36  1  0
 33 35  1  0
 34 32  2  0
 37 12  1  0
 38 37  1  0
 39 37  1  0
 40  1  1  0
 41 42  1  0
 43 45  1  0
 44 41  2  0
 45 40  1  0
 45 42  2  0
 46 43  2  0
 46 44  1  0
 47 46  1  0
 48 49  1  0
 48 44  1  0
 49 51  1  0
 50 48  2  0
 52 49  1  0
 54 53  1  0
 54 55  1  0
 56 55  1  0
 57 56  1  0
 57 58  1  0
 59 58  1  0
 60 71  2  0
 61 59  1  0
 61 66  1  0
 62 70  1  0
 62 72  1  0
 63 65  1  0
 64 70  1  0
 65 66  2  0
 65 64  1  0
 67 61  2  0
 68 67  1  0
 68 63  2  0
 69 63  1  0
 69 62  1  0
 70 60  1  0
 72 74  2  0
 73 72  1  0
 75 73  1  0
 76 85  2  0
 76 81  1  0
 77 73  1  0
 77 81  1  0
 78 77  1  0
 79 80  1  0
 79 78  1  0
 80 76  1  0
 81 82  2  0
 82 83  1  0
 84 83  2  0
 85 84  1  0
 86 60  1  0
 86 91  1  0
 86 87  1  0
 87 90  1  1
 87 88  1  0
 89 87  1  0
 91 94  1  0
 92 96  1  0
 92 91  1  0
 93 92  2  0
 96 95  1  0
 98 99  1  0
 98 96  1  0
 98 97  1  0
M  ISO  4   2 100  10 100  58 101  59 101
M  END
>  <TORSDO>  (85) 
F 25

>  <SCORE>  (85) 
-12.319

>  <name>  (85) 
84

>  <ligand_id>  (85) 
84

>  <original_smiles>  (85) 
[H]c1c([H])c([H])c2c(c1[H])C([H])([H])C([H])([H])C([H])([H])C2([H])N([H])C(=O)C1([H])N(C(=O)C([H])(N([H])C(=O)C([H])(N([H])C([H])([H])[H])C([H])([H])[H])C(C([H])([H])[H])(C([H])([H])[H])C([H])([H])[H])C([H])([H])c2c([H])c(OC([H])([H])C([H])([H])C([H])([H])C([H])([H])C([H])([H])C([H])([H])C([H])(N([H])C(=O)N3C([H])([H])C([H])([H])C([H])([H])C([H])(n4nc(-c5c([H])c([H])c(Oc6c([H])c([H])c(F)c([H])c6F)c([H])c5[H])c(C(=O)N([H])[H])c4N([H])[H])C3([H])[H])C([H])([H])c3c([H])c([H])c(C(=O)N([H])[H])c(F)c3[H])c([H])c([H])c2C1([H])[H]

>  <smiles>  (85) 
[H]c1c([H])c([H])c2c(c1[H])C([H])([H])C([H])([H])C([H])([H])C2([H])N([H])C(=O)C1([H])N(C(=O)C([H])(N([H])C(=O)C([H])(N([H])C([H])([H])[H])C([H])([H])[H])C(C([H])([H])[H])(C([H])([H])[H])C([H])([H])[H])C([H])([H])c2c([H])c(OC([H])([H])C([H])([H])C([H])([H])C([H])([H])C([H])([H])C([H])([H])C([H])(N([H])C(=O)N3C([H])([H])C([H])([H])C([H])([H])C([H])(n4nc(-c5c([H])c([H])c(Oc6c([H])c([H])c(F)c([H])c6F)c([H])c5[H])c(C(=O)N([H])[H])c4N([H])[H])C3([H])[H])C([H])([H])c3c([H])c([H])c(C(=O)N([H])[H])c(F)c3[H])c([H])c([H])c2C1([H])[H]

$$$$
85:0:0
     RDKit          3D

 88 96  0  0  1  0  0  0  0  0999 V2000
  -28.2810  -20.1990   19.6610 C   0  0  0  0  0  3  0  0  0  0  0  0
  -29.9510  -20.8190   21.0980 C   0  0  0  0  0  3  0  0  0  0  0  0
  -27.8540  -21.6200   19.6000 C   0  0  0  0  0  3  0  0  0  0  0  0
  -29.5250  -22.2430   21.0420 C   0  0  0  0  0  3  0  0  0  0  0  0
  -29.3980  -19.6460   20.4080 C   0  0  0  0  0  0  0  0  0  0  0  0
  -28.4360  -22.7930   20.2580 C   0  0  0  0  0  0  0  0  0  0  0  0
  -29.6570  -16.6810   20.4830 C   0  0  0  0  0  3  0  0  0  0  0  0
  -30.0740  -18.0890   20.3910 C   0  0  0  0  0  0  0  0  0  0  0  0
  -30.4570  -15.2700   20.3710 C   0  0  0  0  0  0  0  0  0  0  0  0
  -30.4080  -12.8260   19.5330 C   0  0  0  0  0  2  0  0  0  0  0  0
  -29.5140  -12.6580   18.2810 C   0  0  0  0  0  2  0  0  0  0  0  0
  -28.0540  -12.3980   18.6910 C   0  0  0  0  0  2  0  0  0  0  0  0
  -27.5890  -13.3570   19.8150 C   0  0  0  0  0  3  0  0  0  0  0  0
  -28.6190  -13.5040   20.9540 C   0  0  0  0  0  2  0  0  0  0  0  0
  -29.8740  -13.9750   20.3530 N   0  0  0  0  0  0  0  0  0  0  0  0
  -31.6730  -15.2080   20.1420 O   0  0  0  0  0  0  0  0  0  0  0  0
  -25.2100  -13.8970   20.5560 C   0  0  0  0  0  0  0  0  0  0  0  0
  -24.1490  -13.1120   20.9120 C   0  0  0  0  0  0  0  0  0  0  0  0
  -24.6240  -11.7650   20.8810 C   0  0  0  0  0  0  0  0  0  0  0  0
  -26.2590  -13.0300   20.3130 N   0  0  0  0  0  0  0  0  0  0  0  0
  -25.9180  -11.7390   20.5760 N   0  0  0  0  0  0  0  0  0  0  0  0
  -23.9000  -10.4980   21.0590 C   0  0  0  0  0  0  0  0  0  0  0  0
  -24.3200   -9.5320   22.0000 C   0  0  0  0  0  3  0  0  0  0  0  0
  -23.5970   -8.3330   22.1680 C   0  0  0  0  0  3  0  0  0  0  0  0
  -22.4380   -8.0890   21.3950 C   0  0  0  0  0  0  0  0  0  0  0  0
  -22.0350   -9.0420   20.4420 C   0  0  0  0  0  3  0  0  0  0  0  0
  -22.7610  -10.2340   20.2740 C   0  0  0  0  0  3  0  0  0  0  0  0
  -21.6860   -6.9410   21.4720 O   0  0  0  0  0  0  0  0  0  0  0  0
  -21.6060   -6.2070   22.6280 C   0  0  0  0  0  0  0  0  0  0  0  0
  -21.1180   -6.7630   23.8310 C   0  0  0  0  0  3  0  0  0  0  0  0
  -20.9890   -5.9550   24.9780 C   0  0  0  0  0  3  0  0  0  0  0  0
  -21.3370   -4.5930   24.9220 C   0  0  0  0  0  0  0  0  0  0  0  0
  -21.8160   -4.0360   23.7240 C   0  0  0  0  0  3  0  0  0  0  0  0
  -21.9470   -4.8410   22.5790 C   0  0  0  0  0  0  0  0  0  0  0  0
  -22.3920   -4.2940   21.4210 F   0  0  0  0  0  0  0  0  0  0  0  0
  -21.2040   -3.8130   26.0210 F   0  0  0  0  0  0  0  0  0  0  0  0
  -22.7480  -13.5820   21.1690 C   0  0  0  0  0  0  0  0  0  0  0  0
  -22.0140  -12.8840   22.0290 N   0  0  0  0  0  0  0  0  0  0  0  0
  -22.3110  -14.6040   20.6410 O   0  0  0  0  0  0  0  0  0  0  0  0
  -22.3780  -12.0580   22.4800 H   0  0  0  0  0  0  0  0  0  0  0  0
  -21.0730  -13.1840   22.2430 H   0  0  0  0  0  0  0  0  0  0  0  0
  -25.3660  -15.2700   20.3890 N   0  0  0  0  0  0  0  0  0  0  0  0
  -24.5900  -15.9140   20.4960 H   0  0  0  0  0  0  0  0  0  0  0  0
  -26.2110  -15.7210   20.0610 H   0  0  0  0  0  0  0  0  0  0  0  0
  -31.8800  -18.3070   18.6180 C   0  0  0  0  0  1  0  0  0  0  0  0
  -31.5670  -18.2930   20.1200 C   0  0  0  0  0  2  0  0  0  0  0  0
  -27.7070  -24.3680   20.1720 C   0  0  0  0  0  2  0  0  0  0  0  0
  -28.1470  -25.9290   20.3120 O   0  0  0  0  0  0  0  0  0  0  0  0
  -24.6470  -31.8990   23.2760 C   0  0  0  0  0  0  0  0  0  0  0  0
  -27.1660  -27.0410   20.2450 C   0  0  0  0  0  0  0  0  0  0  0  0
  -23.4440  -30.5160   21.6370 C   0  0  0  0  0  3  0  0  0  0  0  0
  -24.8810  -28.9200   20.2060 C   0  0  0  0  0  0  0  0  0  0  0  0
  -26.0110  -30.7220   21.4870 C   0  0  0  0  0  2  0  0  0  0  0  0
  -26.0720  -29.3180   20.8260 C   0  0  0  0  0  0  0  0  0  0  0  0
  -27.2120  -28.3990   20.8240 C   0  0  0  0  0  3  0  0  0  0  0  0
  -25.9480  -26.7980   19.5700 C   0  0  0  0  0  3  0  0  0  0  0  0
  -24.8430  -27.6790   19.5570 C   0  0  0  0  0  3  0  0  0  0  0  0
  -23.6670  -29.8420   20.2560 C   0  0  0  0  0  2  0  0  0  0  0  0
  -24.7220  -31.0700   22.1860 N   0  0  0  0  0  0  0  0  0  0  0  0
  -23.5600  -32.1920   23.8000 O   0  0  0  0  0  0  0  0  0  0  0  0
  -22.7480  -29.5160   22.5980 C   0  0  0  0  0  0  0  0  0  0  0  0
  -21.4180  -29.3490   22.4660 N   0  0  0  0  0  0  0  0  0  0  0  0
  -23.4110  -28.8910   23.4300 O   0  0  0  0  0  0  0  0  0  0  0  0
  -20.9370  -29.9000   21.7700 H   0  0  0  0  0  0  0  0  0  0  0  0
  -18.0340  -28.1390   22.9620 C   0  0  0  0  0  0  0  0  0  0  0  0
  -20.5930  -28.4130   23.2370 C   0  0  0  0  0  3  0  0  0  0  0  0
  -20.7010  -26.9790   22.6710 C   0  0  0  0  0  2  0  0  0  0  0  0
  -19.6040  -26.6480   21.6530 C   0  0  0  0  0  2  0  0  0  0  0  0
  -18.2190  -26.7890   22.2900 C   0  0  0  0  0  2  0  0  0  0  0  0
  -19.1480  -28.9080   23.3930 C   0  0  0  0  0  0  0  0  0  0  0  0
  -18.9200  -30.1690   23.9850 C   0  0  0  0  0  3  0  0  0  0  0  0
  -17.6110  -30.6640   24.1480 C   0  0  0  0  0  3  0  0  0  0  0  0
  -16.5120  -29.8920   23.7310 C   0  0  0  0  0  3  0  0  0  0  0  0
  -16.7240  -28.6320   23.1440 C   0  0  0  0  0  3  0  0  0  0  0  0
  -25.9240  -32.5330   23.9050 C   0  0  0  0  0  3  0  0  0  0  0  0
  -26.4130  -31.7760   25.2030 C   0  0  1  0  0  0  0  0  0  0  0  0
  -25.3040  -31.5710   26.2630 C   0  0  0  0  0  1  0  0  0  0  0  0
  -26.9820  -30.3830   24.8480 C   0  0  0  0  0  1  0  0  0  0  0  0
  -27.5660  -32.5660   25.8650 C   0  0  0  0  0  1  0  0  0  0  0  0
  -25.6190  -33.9380   24.2230 N   0  0  0  0  0  0  0  0  0  0  0  0
  -25.9480  -34.9870   23.4570 C   0  0  0  0  0  0  0  0  0  0  0  0
  -26.6050  -34.8720   22.4180 O   0  0  0  0  0  0  0  0  0  0  0  0
  -25.0330  -34.1000   25.0280 H   0  0  0  0  0  0  0  0  0  0  0  0
  -24.2260  -36.7940   23.1240 C   0  0  0  0  0  1  0  0  0  0  0  0
  -25.4820  -36.3850   23.9120 C   0  0  0  0  0  3  0  0  0  0  0  0
  -27.6310  -37.2750   24.6980 C   0  0  0  0  0  1  0  0  0  0  0  0
  -26.5190  -37.4290   23.7630 N   0  0  0  0  0  0  0  0  0  0  0  0
  -26.1220  -38.3550   23.8900 H   0  0  0  0  0  0  0  0  0  0  0  0
  1  5  1  0
  3  1  2  0
  3  6  1  0
  4  2  1  0
  5  2  2  0
  6  4  2  0
  8  5  1  0
  8  7  2  0
  9  7  1  0
 10 15  1  0
 11 12  1  0
 11 10  1  0
 13 12  1  0
 13 20  1  0
 13 14  1  0
 15  9  1  0
 15 14  1  0
 16  9  2  0
 17 18  2  0
 18 37  1  0
 19 18  1  0
 19 22  1  0
 20 17  1  0
 20 21  1  0
 21 19  2  0
 22 23  1  0
 23 24  2  0
 25 28  1  0
 25 24  1  0
 26 25  2  0
 27 26  1  0
 27 22  2  0
 28 29  1  0
 29 30  1  0
 30 31  2  0
 32 31  1  0
 32 36  1  0
 33 32  2  0
 34 29  2  0
 34 33  1  0
 35 34  1  0
 37 38  1  0
 38 41  1  0
 38 40  1  0
 39 37  2  0
 42 43  1  0
 42 17  1  0
 44 42  1  0
 45 46  1  0
 46  8  1  0
 47  6  1  0
 47 48  1  0
 49 60  2  0
 50 48  1  0
 50 55  1  0
 51 59  1  0
 51 61  1  0
 52 58  1  0
 52 54  1  0
 53 59  1  0
 54 53  1  0
 55 54  2  0
 56 50  2  0
 57 56  1  0
 57 52  2  0
 58 51  1  0
 59 49  1  0
 61 63  2  0
 62 61  1  0
 64 62  1  0
 65 74  2  0
 65 70  1  0
 66 62  1  0
 66 70  1  0
 67 66  1  0
 68 69  1  0
 68 67  1  0
 69 65  1  0
 70 71  2  0
 71 72  1  0
 73 72  2  0
 74 73  1  0
 75 49  1  0
 75 80  1  0
 75 76  1  0
 76 79  1  1
 76 77  1  0
 78 76  1  0
 80 83  1  0
 81 85  1  0
 81 80  1  0
 82 81  2  0
 85 84  1  0
 87 88  1  0
 87 85  1  0
 87 86  1  0
M  ISO  4   7 100   9 100  47 101  48 101
M  END
>  <TORSDO>  (86) 
F 19

>  <SCORE>  (86) 
-15.307

>  <name>  (86) 
85

>  <ligand_id>  (86) 
85

>  <original_smiles>  (86) 
[H]C(C(=O)N1C([H])([H])C([H])([H])C([H])([H])C([H])(n2nc(-c3c([H])c([H])c(Oc4c([H])c([H])c(F)c([H])c4F)c([H])c3[H])c(C(=O)N([H])[H])c2N([H])[H])C1([H])[H])=C(c1c([H])c([H])c(C([H])([H])Oc2c([H])c([H])c3c(c2[H])C([H])([H])N(C(=O)C([H])(N([H])C(=O)C([H])(N([H])C([H])([H])[H])C([H])([H])[H])C(C([H])([H])[H])(C([H])([H])[H])C([H])([H])[H])C([H])(C(=O)N([H])C2([H])c4c([H])c([H])c([H])c([H])c4C([H])([H])C([H])([H])C2([H])[H])C3([H])[H])c([H])c1[H])C([H])([H])C([H])([H])[H]

>  <smiles>  (86) 
[H]C(C(=O)N1C([H])([H])C([H])([H])C([H])([H])C([H])(n2nc(-c3c([H])c([H])c(Oc4c([H])c([H])c(F)c([H])c4F)c([H])c3[H])c(C(=O)N([H])[H])c2N([H])[H])C1([H])[H])=C(c1c([H])c([H])c(C([H])([H])Oc2c([H])c([H])c3c(c2[H])C([H])([H])N(C(=O)C([H])(N([H])C(=O)C([H])(N([H])C([H])([H])[H])C([H])([H])[H])C(C([H])([H])[H])(C([H])([H])[H])C([H])([H])[H])C([H])(C(=O)N([H])C2([H])c4c([H])c([H])c([H])c([H])c4C([H])([H])C([H])([H])C2([H])[H])C3([H])[H])c([H])c1[H])C([H])([H])C([H])([H])[H]

$$$$
86:0:0
     RDKit          3D

 89 97  0  0  1  0  0  0  0  0999 V2000
  -29.8330  -22.7230   19.3930 C   0  0  0  0  0  3  0  0  0  0  0  0
  -29.6400  -24.1890   19.2840 C   0  0  0  0  0  3  0  0  0  0  0  0
  -27.8070  -24.0900   20.6780 C   0  0  0  0  0  3  0  0  0  0  0  0
  -29.0330  -21.7980   20.1710 C   0  0  0  0  0  0  0  0  0  0  0  0
  -28.6120  -25.0130   19.9070 C   0  0  0  0  0  0  0  0  0  0  0  0
  -27.9890  -22.6190   20.7960 C   0  0  0  0  0  0  0  0  0  0  0  0
  -29.0670  -20.0980   20.2660 C   0  0  0  0  0  0  0  0  0  0  0  0
  -27.9620  -19.5750   20.4290 O   0  0  0  0  0  0  0  0  0  0  0  0
  -30.2440  -18.8670   20.1960 C   0  0  0  0  0  3  0  0  0  0  0  0
  -29.9470  -17.1480   20.4490 C   0  0  0  0  0  3  0  0  0  0  0  0
  -30.8950  -15.7190   20.2880 C   0  0  0  0  0  0  0  0  0  0  0  0
  -30.9620  -13.2920   19.4280 C   0  0  0  0  0  2  0  0  0  0  0  0
  -30.0590  -13.1380   18.1790 C   0  0  0  0  0  2  0  0  0  0  0  0
  -28.5930  -12.8760   18.5790 C   0  0  0  0  0  2  0  0  0  0  0  0
  -28.1240  -13.8120   19.7200 C   0  0  0  0  0  3  0  0  0  0  0  0
  -29.1510  -13.9110   20.8640 C   0  0  0  0  0  2  0  0  0  0  0  0
  -30.4090  -14.3940   20.2800 N   0  0  0  0  0  0  0  0  0  0  0  0
  -32.1050  -15.8060   20.0370 O   0  0  0  0  0  0  0  0  0  0  0  0
  -25.7370  -14.3450   20.4530 C   0  0  0  0  0  0  0  0  0  0  0  0
  -24.6750  -13.5520   20.7930 C   0  0  0  0  0  0  0  0  0  0  0  0
  -25.1550  -12.2060   20.7460 C   0  0  0  0  0  0  0  0  0  0  0  0
  -26.7890  -13.4820   20.2040 N   0  0  0  0  0  0  0  0  0  0  0  0
  -26.4520  -12.1890   20.4500 N   0  0  0  0  0  0  0  0  0  0  0  0
  -24.4370  -10.9340   20.9040 C   0  0  0  0  0  0  0  0  0  0  0  0
  -24.8340   -9.9770   21.8630 C   0  0  0  0  0  3  0  0  0  0  0  0
  -24.1160   -8.7710   22.0130 C   0  0  0  0  0  3  0  0  0  0  0  0
  -22.9850   -8.5140   21.2000 C   0  0  0  0  0  0  0  0  0  0  0  0
  -22.6080   -9.4600   20.2300 C   0  0  0  0  0  3  0  0  0  0  0  0
  -23.3280  -10.6570   20.0810 C   0  0  0  0  0  3  0  0  0  0  0  0
  -22.2430   -7.3600   21.2550 O   0  0  0  0  0  0  0  0  0  0  0  0
  -22.1140   -6.6400   22.4160 C   0  0  0  0  0  0  0  0  0  0  0  0
  -21.5560   -7.2050   23.5840 C   0  0  0  0  0  3  0  0  0  0  0  0
  -21.3790   -6.4110   24.7350 C   0  0  0  0  0  3  0  0  0  0  0  0
  -21.7500   -5.0530   24.7170 C   0  0  0  0  0  0  0  0  0  0  0  0
  -22.2980   -4.4860   23.5530 C   0  0  0  0  0  3  0  0  0  0  0  0
  -22.4770   -5.2780   22.4050 C   0  0  0  0  0  0  0  0  0  0  0  0
  -22.9880   -4.7230   21.2800 F   0  0  0  0  0  0  0  0  0  0  0  0
  -21.5710   -4.2880   25.8190 F   0  0  0  0  0  0  0  0  0  0  0  0
  -23.2700  -14.0090   21.0490 C   0  0  0  0  0  0  0  0  0  0  0  0
  -22.5320  -13.2880   21.8840 N   0  0  0  0  0  0  0  0  0  0  0  0
  -22.8340  -15.0460   20.5460 O   0  0  0  0  0  0  0  0  0  0  0  0
  -22.8990  -12.4510   22.3150 H   0  0  0  0  0  0  0  0  0  0  0  0
  -21.5860  -13.5720   22.0950 H   0  0  0  0  0  0  0  0  0  0  0  0
  -25.8880  -15.7210   20.3060 N   0  0  0  0  0  0  0  0  0  0  0  0
  -25.1130  -16.3640   20.4340 H   0  0  0  0  0  0  0  0  0  0  0  0
  -26.7440  -16.1820   20.0250 H   0  0  0  0  0  0  0  0  0  0  0  0
  -25.7740  -22.3710   21.6230 C   0  0  0  0  0  1  0  0  0  0  0  0
  -27.1290  -21.9440   21.6330 O   0  0  0  0  0  0  0  0  0  0  0  0
  -28.5740  -26.5280   19.8510 O   0  0  0  0  0  0  0  0  0  0  0  0
  -24.9100  -32.0030   23.4220 C   0  0  0  0  0  0  0  0  0  0  0  0
  -27.4960  -27.5200   19.9480 C   0  0  0  0  0  0  0  0  0  0  0  0
  -23.7210  -30.7670   21.6530 C   0  0  0  0  0  3  0  0  0  0  0  0
  -25.1750  -29.3220   20.0830 C   0  0  0  0  0  0  0  0  0  0  0  0
  -26.2810  -31.0250   21.5260 C   0  0  0  0  0  2  0  0  0  0  0  0
  -26.3540  -29.6910   20.7410 C   0  0  0  0  0  0  0  0  0  0  0  0
  -27.5120  -28.8100   20.6530 C   0  0  0  0  0  3  0  0  0  0  0  0
  -26.2890  -27.2810   19.2590 C   0  0  0  0  0  3  0  0  0  0  0  0
  -25.1600  -28.1360   19.3280 C   0  0  0  0  0  3  0  0  0  0  0  0
  -23.9490  -30.2190   20.2160 C   0  0  0  0  0  2  0  0  0  0  0  0
  -24.9910  -31.2870   22.2560 N   0  0  0  0  0  0  0  0  0  0  0  0
  -23.8210  -32.2350   23.9700 O   0  0  0  0  0  0  0  0  0  0  0  0
  -23.0380  -29.6760   22.5160 C   0  0  0  0  0  0  0  0  0  0  0  0
  -21.7150  -29.4970   22.3470 N   0  0  0  0  0  0  0  0  0  0  0  0
  -23.7040  -28.9960   23.3000 O   0  0  0  0  0  0  0  0  0  0  0  0
  -21.2350  -30.0960   21.6900 H   0  0  0  0  0  0  0  0  0  0  0  0
  -18.3440  -28.2050   22.6970 C   0  0  0  0  0  0  0  0  0  0  0  0
  -20.8950  -28.4810   23.0180 C   0  0  0  0  0  3  0  0  0  0  0  0
  -21.0260  -27.1090   22.3140 C   0  0  0  0  0  2  0  0  0  0  0  0
  -19.9410  -26.8660   21.2600 C   0  0  0  0  0  2  0  0  0  0  0  0
  -18.5510  -26.9290   21.8980 C   0  0  0  0  0  2  0  0  0  0  0  0
  -19.4460  -28.9410   23.2090 C   0  0  0  0  0  0  0  0  0  0  0  0
  -19.1980  -30.1370   23.9170 C   0  0  0  0  0  3  0  0  0  0  0  0
  -17.8820  -30.5970   24.1170 C   0  0  0  0  0  3  0  0  0  0  0  0
  -16.7960  -29.8560   23.6200 C   0  0  0  0  0  3  0  0  0  0  0  0
  -17.0270  -28.6620   22.9160 C   0  0  0  0  0  3  0  0  0  0  0  0
  -26.1810  -32.5820   24.1140 C   0  0  0  0  0  3  0  0  0  0  0  0
  -26.6890  -31.6960   25.3190 C   0  0  1  0  0  0  0  0  0  0  0  0
  -25.5890  -31.3570   26.3520 C   0  0  0  0  0  1  0  0  0  0  0  0
  -27.2810  -30.3600   24.8130 C   0  0  0  0  0  1  0  0  0  0  0  0
  -27.8300  -32.4290   26.0640 C   0  0  0  0  0  1  0  0  0  0  0  0
  -25.8600  -33.9410   24.5840 N   0  0  0  0  0  0  0  0  0  0  0  0
  -26.1620  -35.0720   23.9290 C   0  0  0  0  0  0  0  0  0  0  0  0
  -26.8070  -35.0800   22.8780 O   0  0  0  0  0  0  0  0  0  0  0  0
  -25.2800  -34.0070   25.4080 H   0  0  0  0  0  0  0  0  0  0  0  0
  -24.3920  -36.8590   23.8210 C   0  0  0  0  0  1  0  0  0  0  0  0
  -25.6750  -36.4040   24.5360 C   0  0  0  0  0  3  0  0  0  0  0  0
  -27.8240  -37.2550   25.3650 C   0  0  0  0  0  1  0  0  0  0  0  0
  -26.6870  -37.4810   24.4770 N   0  0  0  0  0  0  0  0  0  0  0  0
  -26.2730  -38.3780   24.7140 H   0  0  0  0  0  0  0  0  0  0  0  0
  1  4  1  0
  2  1  2  0
  2  5  1  0
  3  6  1  0
  4  7  1  0
  4  6  2  0
  5  3  2  0
  6 48  1  0
  7  8  2  0
  9  7  1  0
  9 10  2  0
 11 10  1  0
 12 17  1  0
 13 14  1  0
 13 12  1  0
 15 14  1  0
 15 22  1  0
 15 16  1  0
 17 11  1  0
 17 16  1  0
 18 11  2  0
 19 20  2  0
 20 39  1  0
 21 20  1  0
 21 24  1  0
 22 23  1  0
 22 19  1  0
 23 21  2  0
 24 25  1  0
 25 26  2  0
 27 30  1  0
 27 26  1  0
 28 27  2  0
 29 28  1  0
 29 24  2  0
 30 31  1  0
 31 32  1  0
 32 33  2  0
 34 33  1  0
 34 38  1  0
 35 34  2  0
 36 31  2  0
 36 35  1  0
 37 36  1  0
 39 40  1  0
 40 43  1  0
 40 42  1  0
 41 39  2  0
 44 45  1  0
 44 19  1  0
 46 44  1  0
 47 48  1  0
 49  5  1  0
 49 51  1  0
 50 61  2  0
 51 56  1  0
 52 60  1  0
 52 62  1  0
 53 59  1  0
 53 55  1  0
 54 60  1  0
 55 54  1  0
 56 55  2  0
 57 58  1  0
 57 51  2  0
 58 53  2  0
 59 52  1  0
 60 50  1  0
 62 64  2  0
 63 62  1  0
 65 63  1  0
 66 75  2  0
 66 71  1  0
 67 63  1  0
 67 71  1  0
 68 67  1  0
 69 70  1  0
 69 68  1  0
 70 66  1  0
 71 72  2  0
 72 73  1  0
 74 73  2  0
 75 74  1  0
 76 50  1  0
 76 81  1  0
 76 77  1  0
 77 80  1  1
 77 78  1  0
 79 77  1  0
 81 84  1  0
 82 86  1  0
 82 81  1  0
 83 82  2  0
 86 85  1  0
 88 86  1  0
 88 89  1  0
 88 87  1  0
M  ISO  4   5 101  10 100  11 100  49 101
M  END
>  <TORSDO>  (87) 
F 20

>  <SCORE>  (87) 
-12.249

>  <name>  (87) 
86

>  <ligand_id>  (87) 
86

>  <original_smiles>  (87) 
[H]c1c([H])c([H])c2c(c1[H])C([H])([H])C([H])([H])C([H])([H])C2([H])N([H])C(=O)C1([H])N(C(=O)C([H])(N([H])C(=O)C([H])(N([H])C([H])([H])[H])C([H])([H])[H])C(C([H])([H])[H])(C([H])([H])[H])C([H])([H])[H])C([H])([H])c2c([H])c(Oc3c([H])c([H])c(C(=O)C([H])([H])C([H])([H])C(=O)N4C([H])([H])C([H])([H])C([H])([H])C([H])(n5nc(-c6c([H])c([H])c(Oc7c([H])c([H])c(F)c([H])c7F)c([H])c6[H])c(C(=O)N([H])[H])c5N([H])[H])C4([H])[H])c(OC([H])([H])[H])c3[H])c([H])c([H])c2C1([H])[H]

>  <smiles>  (87) 
[H]c1c([H])c([H])c2c(c1[H])C([H])([H])C([H])([H])C([H])([H])C2([H])N([H])C(=O)C1([H])N(C(=O)C([H])(N([H])C(=O)C([H])(N([H])C([H])([H])[H])C([H])([H])[H])C(C([H])([H])[H])(C([H])([H])[H])C([H])([H])[H])C([H])([H])c2c([H])c(Oc3c([H])c([H])c(C(=O)C([H])([H])C([H])([H])C(=O)N4C([H])([H])C([H])([H])C([H])([H])C([H])(n5nc(-c6c([H])c([H])c(Oc7c([H])c([H])c(F)c([H])c7F)c([H])c6[H])c(C(=O)N([H])[H])c5N([H])[H])C4([H])[H])c(OC([H])([H])[H])c3[H])c([H])c([H])c2C1([H])[H]

$$$$
87:0:0
     RDKit          3D

 94103  0  0  1  0  0  0  0  0999 V2000
  -28.0700  -23.6600   21.6670 C   0  0  0  0  0  3  0  0  0  0  0  0
  -28.2610  -23.3870   19.2400 C   0  0  0  0  0  3  0  0  0  0  0  0
  -28.3410  -25.0300   21.5280 C   0  0  0  0  0  3  0  0  0  0  0  0
  -28.5690  -24.7430   19.1060 C   0  0  0  0  0  3  0  0  0  0  0  0
  -28.0180  -22.8460   20.5190 C   0  0  0  0  0  0  0  0  0  0  0  0
  -28.5700  -25.5640   20.2460 C   0  0  0  0  0  0  0  0  0  0  0  0
  -28.6730  -26.9060   20.0780 O   0  0  0  0  0  0  0  0  0  0  0  0
  -24.8650  -31.8490   23.4110 C   0  0  0  0  0  0  0  0  0  0  0  0
  -27.4870  -27.5900   20.1260 C   0  0  0  0  0  0  0  0  0  0  0  0
  -23.6490  -30.5440   21.6950 C   0  0  0  0  0  3  0  0  0  0  0  0
  -25.0930  -29.0640   20.2130 C   0  0  0  0  0  0  0  0  0  0  0  0
  -26.1750  -30.8950   21.5270 C   0  0  0  0  0  2  0  0  0  0  0  0
  -26.2490  -29.5580   20.8310 C   0  0  0  0  0  0  0  0  0  0  0  0
  -27.4480  -28.8230   20.7960 C   0  0  0  0  0  3  0  0  0  0  0  0
  -26.3140  -27.0940   19.5070 C   0  0  0  0  0  3  0  0  0  0  0  0
  -25.1150  -27.8240   19.5560 C   0  0  0  0  0  3  0  0  0  0  0  0
  -23.8580  -29.9270   20.2870 C   0  0  0  0  0  2  0  0  0  0  0  0
  -24.9140  -31.1050   22.2710 N   0  0  0  0  0  0  0  0  0  0  0  0
  -23.7850  -32.1100   23.9570 O   0  0  0  0  0  0  0  0  0  0  0  0
  -22.9820  -29.4840   22.6000 C   0  0  0  0  0  0  0  0  0  0  0  0
  -21.6580  -29.3210   22.4470 N   0  0  0  0  0  0  0  0  0  0  0  0
  -23.6510  -28.8150   23.3910 O   0  0  0  0  0  0  0  0  0  0  0  0
  -21.1840  -29.9130   21.7790 H   0  0  0  0  0  0  0  0  0  0  0  0
  -18.2650  -28.1560   22.8480 C   0  0  0  0  0  0  0  0  0  0  0  0
  -20.8210  -28.3610   23.1640 C   0  0  0  0  0  3  0  0  0  0  0  0
  -20.9110  -26.9560   22.5230 C   0  0  0  0  0  2  0  0  0  0  0  0
  -19.8170  -26.6980   21.4820 C   0  0  0  0  0  2  0  0  0  0  0  0
  -18.4300  -26.8350   22.1150 C   0  0  0  0  0  2  0  0  0  0  0  0
  -19.3890  -28.8800   23.3260 C   0  0  0  0  0  0  0  0  0  0  0  0
  -19.1820  -30.1200   23.9690 C   0  0  0  0  0  3  0  0  0  0  0  0
  -17.8840  -30.6350   24.1390 C   0  0  0  0  0  3  0  0  0  0  0  0
  -16.7740  -29.9070   23.6780 C   0  0  0  0  0  3  0  0  0  0  0  0
  -16.9640  -28.6700   23.0390 C   0  0  0  0  0  3  0  0  0  0  0  0
  -26.1580  -32.4280   24.0660 C   0  0  0  0  0  3  0  0  0  0  0  0
  -26.6650  -31.5790   25.2960 C   0  0  1  0  0  0  0  0  0  0  0  0
  -25.5670  -31.2920   26.3450 C   0  0  0  0  0  1  0  0  0  0  0  0
  -27.2350  -30.2210   24.8230 C   0  0  0  0  0  1  0  0  0  0  0  0
  -27.8220  -32.3230   26.0040 C   0  0  0  0  0  1  0  0  0  0  0  0
  -25.8670  -33.8090   24.4680 N   0  0  0  0  0  0  0  0  0  0  0  0
  -26.2240  -34.8940   23.7680 C   0  0  0  0  0  0  0  0  0  0  0  0
  -26.9060  -34.8360   22.7410 O   0  0  0  0  0  0  0  0  0  0  0  0
  -25.2630  -33.9300   25.2670 H   0  0  0  0  0  0  0  0  0  0  0  0
  -24.5320  -36.7310   23.4760 C   0  0  0  0  0  1  0  0  0  0  0  0
  -25.7480  -36.2640   24.2900 C   0  0  0  0  0  3  0  0  0  0  0  0
  -27.8780  -37.0620   25.2140 C   0  0  0  0  0  1  0  0  0  0  0  0
  -26.8000  -37.3030   24.2580 N   0  0  0  0  0  0  0  0  0  0  0  0
  -26.4060  -38.2210   24.4480 H   0  0  0  0  0  0  0  0  0  0  0  0
  -27.7960  -21.3670   20.6550 C   0  0  0  0  0  2  0  0  0  0  0  0
  -28.9490  -20.6490   19.9550 C   0  0  0  0  0  2  0  0  0  0  0  0
  -29.7840  -17.3270   21.8060 C   0  0  0  0  0  2  0  0  0  0  0  0
  -29.9460  -17.0270   19.2790 C   0  0  0  0  0  2  0  0  0  0  0  0
  -29.6380  -18.8360   21.5950 C   0  0  0  0  0  2  0  0  0  0  0  0
  -29.8440  -18.5270   19.0940 C   0  0  0  0  0  2  0  0  0  0  0  0
  -30.5550  -16.6560   20.6540 C   0  0  0  0  0  3  0  0  0  0  0  0
  -29.0210  -19.1570   20.2200 C   0  0  2  0  0  0  0  0  0  0  0  0
  -27.7830  -18.6600   20.1580 F   0  0  0  0  0  0  0  0  0  0  0  0
  -31.0240  -14.3240   20.0480 C   0  0  0  0  0  0  0  0  0  0  0  0
  -30.5630  -12.2440   18.8380 C   0  0  0  0  0  2  0  0  0  0  0  0
  -29.5190  -12.5130   17.7370 C   0  0  0  0  0  2  0  0  0  0  0  0
  -28.0870  -12.3860   18.2930 C   0  0  0  0  0  2  0  0  0  0  0  0
  -27.8790  -13.2030   19.5950 C   0  0  0  0  0  3  0  0  0  0  0  0
  -29.0170  -12.9070   20.5990 C   0  0  0  0  0  2  0  0  0  0  0  0
  -30.3100  -13.1810   19.9370 N   0  0  0  0  0  0  0  0  0  0  0  0
  -32.0300  -14.5860   19.3800 O   0  0  0  0  0  0  0  0  0  0  0  0
  -30.4540  -15.2260   20.8420 N   0  0  0  0  0  0  0  0  0  0  0  0
  -29.6780  -14.8930   21.3920 H   0  0  0  0  0  0  0  0  0  0  0  0
  -25.5730  -13.8350   20.5660 C   0  0  0  0  0  0  0  0  0  0  0  0
  -24.5200  -13.0680   20.9900 C   0  0  0  0  0  0  0  0  0  0  0  0
  -24.9310  -11.7100   20.8260 C   0  0  0  0  0  0  0  0  0  0  0  0
  -26.5640  -12.9430   20.1800 N   0  0  0  0  0  0  0  0  0  0  0  0
  -26.1820  -11.6570   20.3870 N   0  0  0  0  0  0  0  0  0  0  0  0
  -24.1870  -10.4570   21.0070 C   0  0  0  0  0  0  0  0  0  0  0  0
  -24.6310   -9.4580   21.9020 C   0  0  0  0  0  3  0  0  0  0  0  0
  -23.8900   -8.2680   22.0720 C   0  0  0  0  0  3  0  0  0  0  0  0
  -22.6900   -8.0700   21.3490 C   0  0  0  0  0  0  0  0  0  0  0  0
  -22.2640   -9.0580   20.4440 C   0  0  0  0  0  3  0  0  0  0  0  0
  -23.0060  -10.2390   20.2710 C   0  0  0  0  0  3  0  0  0  0  0  0
  -21.9190   -6.9360   21.4310 O   0  0  0  0  0  0  0  0  0  0  0  0
  -21.8270   -6.2100   22.5920 C   0  0  0  0  0  0  0  0  0  0  0  0
  -21.3670   -6.7870   23.7960 C   0  0  0  0  0  3  0  0  0  0  0  0
  -21.2220   -5.9880   24.9480 C   0  0  0  0  0  3  0  0  0  0  0  0
  -21.5270   -4.6140   24.8960 C   0  0  0  0  0  0  0  0  0  0  0  0
  -21.9800   -4.0380   23.6970 C   0  0  0  0  0  3  0  0  0  0  0  0
  -22.1270   -4.8340   22.5460 C   0  0  0  0  0  0  0  0  0  0  0  0
  -22.5440   -4.2700   21.3880 F   0  0  0  0  0  0  0  0  0  0  0  0
  -21.3800   -3.8450   26.0000 F   0  0  0  0  0  0  0  0  0  0  0  0
  -23.1740  -13.5620   21.4350 C   0  0  0  0  0  0  0  0  0  0  0  0
  -22.5230  -12.8380   22.3400 N   0  0  0  0  0  0  0  0  0  0  0  0
  -22.7100  -14.6210   21.0170 O   0  0  0  0  0  0  0  0  0  0  0  0
  -22.9130  -11.9790   22.7000 H   0  0  0  0  0  0  0  0  0  0  0  0
  -21.6250  -13.1490   22.6810 H   0  0  0  0  0  0  0  0  0  0  0  0
  -25.7650  -15.2100   20.4620 N   0  0  0  0  0  0  0  0  0  0  0  0
  -25.0360  -15.8750   20.6940 H   0  0  0  0  0  0  0  0  0  0  0  0
  -26.6040  -15.6510   20.1040 H   0  0  0  0  0  0  0  0  0  0  0  0
  2  5  1  0
  3  1  1  0
  4  2  2  0
  4  6  1  0
  5 48  1  0
  5  1  2  0
  6  3  2  0
  7  9  1  0
  7  6  1  0
  8 19  2  0
  9 14  1  0
 10 18  1  0
 10 20  1  0
 11 17  1  0
 11 13  1  0
 12 18  1  0
 13 12  1  0
 14 13  2  0
 15 16  1  0
 15  9  2  0
 16 11  2  0
 17 10  1  0
 18  8  1  0
 20 22  2  0
 21 20  1  0
 23 21  1  0
 24 33  2  0
 24 29  1  0
 25 21  1  0
 25 29  1  0
 26 25  1  0
 27 28  1  0
 27 26  1  0
 28 24  1  0
 29 30  2  0
 30 31  1  0
 32 31  2  0
 33 32  1  0
 34  8  1  0
 34 39  1  0
 34 35  1  0
 35 38  1  1
 35 36  1  0
 37 35  1  0
 39 42  1  0
 40 44  1  0
 40 39  1  0
 41 40  2  0
 44 43  1  0
 46 44  1  0
 46 47  1  0
 46 45  1  0
 49 55  1  0
 49 48  1  0
 51 54  1  0
 52 50  1  0
 53 51  1  0
 53 55  1  0
 54 65  1  0
 54 50  1  0
 55 56  1  1
 55 52  1  0
 57 65  1  0
 58 63  1  0
 59 60  1  0
 59 58  1  0
 61 60  1  0
 61 70  1  0
 61 62  1  0
 63 57  1  0
 63 62  1  0
 64 57  2  0
 65 66  1  0
 67 68  2  0
 68 87  1  0
 69 68  1  0
 69 72  1  0
 70 71  1  0
 70 67  1  0
 71 69  2  0
 72 73  1  0
 73 74  2  0
 75 78  1  0
 75 74  1  0
 76 75  2  0
 77 76  1  0
 77 72  2  0
 78 79  1  0
 79 80  1  0
 80 81  2  0
 82 81  1  0
 82 86  1  0
 83 82  2  0
 84 79  2  0
 84 83  1  0
 85 84  1  0
 87 88  1  0
 88 91  1  0
 88 90  1  0
 89 87  2  0
 92 67  1  0
 92 93  1  0
 94 92  1  0
M  ISO  4   6 101   7 101  57 100  65 100
M  END
>  <TORSDO>  (88) 
F 19

>  <SCORE>  (88) 
-13.037

>  <name>  (88) 
87

>  <ligand_id>  (88) 
87

>  <original_smiles>  (88) 
[H]c1c([H])c([H])c2c(c1[H])C([H])([H])C([H])([H])C([H])([H])C2([H])N([H])C(=O)C1([H])N(C(=O)C([H])(N([H])C(=O)C([H])(N([H])C([H])([H])[H])C([H])([H])[H])C(C([H])([H])[H])(C([H])([H])[H])C([H])([H])[H])C([H])([H])c2c([H])c(Oc3c([H])c([H])c(C([H])([H])C([H])([H])C4(F)C([H])([H])C([H])([H])C([H])(N([H])C(=O)N5C([H])([H])C([H])([H])C([H])([H])C([H])(n6nc(-c7c([H])c([H])c(Oc8c([H])c([H])c(F)c([H])c8F)c([H])c7[H])c(C(=O)N([H])[H])c6N([H])[H])C5([H])[H])C([H])([H])C4([H])[H])c([H])c3[H])c([H])c([H])c2C1([H])[H]

>  <smiles>  (88) 
[H]c1c([H])c([H])c2c(c1[H])C([H])([H])C([H])([H])C([H])([H])C2([H])N([H])C(=O)C1([H])N(C(=O)C([H])(N([H])C(=O)C([H])(N([H])C([H])([H])[H])C([H])([H])[H])C(C([H])([H])[H])(C([H])([H])[H])C([H])([H])[H])C([H])([H])c2c([H])c(Oc3c([H])c([H])c(C([H])([H])C([H])([H])C4(F)C([H])([H])C([H])([H])C([H])(N([H])C(=O)N5C([H])([H])C([H])([H])C([H])([H])C([H])(n6nc(-c7c([H])c([H])c(Oc8c([H])c([H])c(F)c([H])c8F)c([H])c7[H])c(C(=O)N([H])[H])c6N([H])[H])C5([H])[H])C([H])([H])C4([H])[H])c([H])c3[H])c([H])c([H])c2C1([H])[H]

$$$$
88:0:0
     RDKit          3D

 94102  0  0  1  0  0  0  0  0999 V2000
  -28.3240  -21.2510   19.4290 C   0  0  0  0  0  3  0  0  0  0  0  0
  -30.1900  -21.7280   20.5110 C   0  0  0  0  0  3  0  0  0  0  0  0
  -29.5240  -20.5190   19.9480 C   0  0  0  0  0  0  0  0  0  0  0  0
  -27.9380  -22.7490   19.4390 C   0  0  0  0  0  0  0  0  0  0  0  0
  -28.6460  -23.9430   20.0210 C   0  0  0  0  0  0  0  0  0  0  0  0
  -29.8270  -23.2080   20.5480 C   0  0  0  0  0  0  0  0  0  0  0  0
  -30.7440  -23.9900   21.1660 F   0  0  0  0  0  0  0  0  0  0  0  0
  -26.7410  -23.0360   18.7830 N   0  0  0  0  0  0  0  0  0  0  0  0
  -26.4340  -22.3610   18.0900 H   0  0  0  0  0  0  0  0  0  0  0  0
  -26.6340  -23.9860   18.4440 H   0  0  0  0  0  0  0  0  0  0  0  0
  -28.4660  -25.5560   19.9600 O   0  0  0  0  0  0  0  0  0  0  0  0
  -24.5810  -31.5410   23.0070 C   0  0  0  0  0  0  0  0  0  0  0  0
  -27.3850  -26.6640   19.9620 C   0  0  0  0  0  0  0  0  0  0  0  0
  -23.4700  -30.0920   21.3580 C   0  0  0  0  0  3  0  0  0  0  0  0
  -25.0050  -28.5540   19.9180 C   0  0  0  0  0  0  0  0  0  0  0  0
  -26.0350  -30.3900   21.2310 C   0  0  0  0  0  2  0  0  0  0  0  0
  -26.1760  -28.9720   20.5600 C   0  0  0  0  0  0  0  0  0  0  0  0
  -27.3480  -28.0540   20.5530 C   0  0  0  0  0  3  0  0  0  0  0  0
  -26.1730  -26.4520   19.2570 C   0  0  0  0  0  3  0  0  0  0  0  0
  -25.0380  -27.3180   19.2440 C   0  0  0  0  0  3  0  0  0  0  0  0
  -23.7440  -29.4300   19.9770 C   0  0  0  0  0  2  0  0  0  0  0  0
  -24.7180  -30.7090   21.9170 N   0  0  0  0  0  0  0  0  0  0  0  0
  -23.4710  -31.7650   23.5240 O   0  0  0  0  0  0  0  0  0  0  0  0
  -22.8240  -29.0550   22.3170 C   0  0  0  0  0  0  0  0  0  0  0  0
  -21.5090  -28.7970   22.1800 N   0  0  0  0  0  0  0  0  0  0  0  0
  -23.5230  -28.4780   23.1560 O   0  0  0  0  0  0  0  0  0  0  0  0
  -20.9870  -29.3330   21.5020 H   0  0  0  0  0  0  0  0  0  0  0  0
  -18.2390  -27.2670   22.5760 C   0  0  0  0  0  0  0  0  0  0  0  0
  -20.7460  -27.7980   22.9350 C   0  0  0  0  0  3  0  0  0  0  0  0
  -21.0120  -26.3700   22.4050 C   0  0  0  0  0  2  0  0  0  0  0  0
  -19.9960  -25.9240   21.3500 C   0  0  0  0  0  2  0  0  0  0  0  0
  -18.5800  -25.9340   21.9290 C   0  0  0  0  0  2  0  0  0  0  0  0
  -19.2550  -28.1520   23.0280 C   0  0  0  0  0  0  0  0  0  0  0  0
  -18.8820  -29.3930   23.5880 C   0  0  0  0  0  3  0  0  0  0  0  0
  -17.5260  -29.7550   23.6980 C   0  0  0  0  0  3  0  0  0  0  0  0
  -16.5260  -28.8720   23.2570 C   0  0  0  0  0  3  0  0  0  0  0  0
  -16.8810  -27.6310   22.7040 C   0  0  0  0  0  3  0  0  0  0  0  0
  -25.8050  -32.2570   23.6540 C   0  0  0  0  0  3  0  0  0  0  0  0
  -25.4030  -33.6390   23.9960 N   0  0  0  0  0  0  0  0  0  0  0  0
  -25.7220  -34.7320   23.2890 C   0  0  0  0  0  0  0  0  0  0  0  0
  -26.4360  -34.6860   22.2860 O   0  0  0  0  0  0  0  0  0  0  0  0
  -24.7730  -33.7480   24.7770 H   0  0  0  0  0  0  0  0  0  0  0  0
  -23.9250  -36.4610   22.9130 C   0  0  0  0  0  1  0  0  0  0  0  0
  -25.1580  -36.0930   23.7580 C   0  0  0  0  0  3  0  0  0  0  0  0
  -27.2240  -37.0530   24.6790 C   0  0  0  0  0  1  0  0  0  0  0  0
  -26.1460  -37.1950   23.7030 N   0  0  0  0  0  0  0  0  0  0  0  0
  -25.6980  -38.0930   23.8530 H   0  0  0  0  0  0  0  0  0  0  0  0
  -26.3390  -31.5250   24.9490 C   0  0  1  0  0  0  0  0  0  0  0  0
  -25.2470  -31.2410   26.0080 C   0  0  0  0  0  1  0  0  0  0  0  0
  -26.9940  -30.1730   24.5950 C   0  0  0  0  0  1  0  0  0  0  0  0
  -27.4470  -32.3750   25.6120 C   0  0  0  0  0  1  0  0  0  0  0  0
  -30.0390  -18.7260   20.2040 C   0  0  0  0  0  0  0  0  0  0  0  0
  -30.7950  -15.6640   19.6080 C   0  0  0  0  0  0  0  0  0  0  0  0
  -30.7380  -13.1290   18.7530 C   0  0  0  0  0  2  0  0  0  0  0  0
  -29.7600  -12.7630   17.6050 C   0  0  0  0  0  2  0  0  0  0  0  0
  -28.3390  -12.5040   18.1400 C   0  0  0  0  0  2  0  0  0  0  0  0
  -27.9560  -13.5180   19.2430 C   0  0  0  0  0  3  0  0  0  0  0  0
  -29.0740  -13.7510   20.2810 C   0  0  0  0  0  2  0  0  0  0  0  0
  -30.2070  -14.3310   19.5290 N   0  0  0  0  0  0  0  0  0  0  0  0
  -32.0250  -15.5490   19.4570 O   0  0  0  0  0  0  0  0  0  0  0  0
  -30.0730  -17.0460   19.6150 N   0  0  0  0  0  4  0  0  0  0  0  0
  -29.1170  -16.8310   19.3660 H   0  0  0  0  0  0  0  0  0  0  0  0
  -25.7060  -14.1810   20.1960 C   0  0  0  0  0  0  0  0  0  0  0  0
  -24.6230  -13.4680   20.6200 C   0  0  0  0  0  0  0  0  0  0  0  0
  -24.9960  -12.0910   20.5250 C   0  0  0  0  0  0  0  0  0  0  0  0
  -26.6620  -13.2480   19.8500 N   0  0  0  0  0  0  0  0  0  0  0  0
  -26.2580  -11.9770   20.1170 N   0  0  0  0  0  0  0  0  0  0  0  0
  -24.2020  -10.8760   20.7510 C   0  0  0  0  0  0  0  0  0  0  0  0
  -24.6330   -9.8630   21.6350 C   0  0  0  0  0  3  0  0  0  0  0  0
  -23.8410   -8.7140   21.8470 C   0  0  0  0  0  3  0  0  0  0  0  0
  -22.6040   -8.5710   21.1720 C   0  0  0  0  0  0  0  0  0  0  0  0
  -22.1920   -9.5730   20.2770 C   0  0  0  0  0  3  0  0  0  0  0  0
  -22.9810  -10.7140   20.0650 C   0  0  0  0  0  3  0  0  0  0  0  0
  -21.7830   -7.4780   21.2910 O   0  0  0  0  0  0  0  0  0  0  0  0
  -21.7660   -6.7130   22.4290 C   0  0  0  0  0  0  0  0  0  0  0  0
  -21.4830   -7.2680   23.6950 C   0  0  0  0  0  3  0  0  0  0  0  0
  -21.4080   -6.4320   24.8280 C   0  0  0  0  0  3  0  0  0  0  0  0
  -21.6030   -5.0450   24.6940 C   0  0  0  0  0  0  0  0  0  0  0  0
  -21.8790   -4.4910   23.4300 C   0  0  0  0  0  3  0  0  0  0  0  0
  -21.9560   -5.3240   22.3020 C   0  0  0  0  0  0  0  0  0  0  0  0
  -22.1980   -4.7840   21.0840 F   0  0  0  0  0  0  0  0  0  0  0  0
  -21.5210   -4.2400   25.7800 F   0  0  0  0  0  0  0  0  0  0  0  0
  -23.2830  -14.0340   20.9920 C   0  0  0  0  0  0  0  0  0  0  0  0
  -22.5750  -13.3850   21.9070 N   0  0  0  0  0  0  0  0  0  0  0  0
  -22.8740  -15.0870   20.5050 O   0  0  0  0  0  0  0  0  0  0  0  0
  -22.9200  -12.5390   22.3330 H   0  0  0  0  0  0  0  0  0  0  0  0
  -21.6750  -13.7410   22.1900 H   0  0  0  0  0  0  0  0  0  0  0  0
  -25.9420  -15.5450   20.0430 N   0  0  0  0  0  0  0  0  0  0  0  0
  -25.2300  -16.2320   20.2540 H   0  0  0  0  0  0  0  0  0  0  0  0
  -26.7720  -15.9430   19.6250 H   0  0  0  0  0  0  0  0  0  0  0  0
  -30.9070  -18.6850   21.4930 C   0  0  0  0  0  2  0  0  0  0  0  0
  -30.1550  -19.0800   22.7870 C   0  0  0  0  0  2  0  0  0  0  0  0
  -30.2580  -19.3130   25.3480 C   0  0  0  0  0  1  0  0  0  0  0  0
  -31.0330  -18.9960   24.0540 C   0  0  0  0  0  2  0  0  0  0  0  0
  1  4  2  0
  1  3  1  0
  2  6  1  0
  3 52  1  0
  3  2  2  0
  4  5  1  0
  5  6  2  0
  6  7  1  0
  8  4  1  0
  9  8  1  0
 10  8  1  0
 11 13  1  0
 11  5  1  0
 12 23  2  0
 13 18  1  0
 14 22  1  0
 14 24  1  0
 15 21  1  0
 15 17  1  0
 16 22  1  0
 17 16  1  0
 18 17  2  0
 19 13  2  0
 20 19  1  0
 20 15  2  0
 21 14  1  0
 22 12  1  0
 24 26  2  0
 25 24  1  0
 27 25  1  0
 28 37  2  0
 28 33  1  0
 29 25  1  0
 29 33  1  0
 30 29  1  0
 31 32  1  0
 31 30  1  0
 32 28  1  0
 33 34  2  0
 34 35  1  0
 36 35  2  0
 37 36  1  0
 38 12  1  0
 38 39  1  0
 38 48  1  0
 39 42  1  0
 40 44  1  0
 40 39  1  0
 41 40  2  0
 44 43  1  0
 46 44  1  0
 46 47  1  0
 46 45  1  0
 48 51  1  1
 48 49  1  0
 50 48  1  0
 52 91  1  0
 53 61  1  0
 54 59  1  0
 55 56  1  0
 55 54  1  0
 57 56  1  0
 57 66  1  0
 57 58  1  0
 59 53  1  0
 59 58  1  0
 60 53  2  0
 61 52  2  0
 62 61  1  0
 63 64  2  0
 64 83  1  0
 65 64  1  0
 65 68  1  0
 66 67  1  0
 66 63  1  0
 67 65  2  0
 68 69  1  0
 69 70  2  0
 71 74  1  0
 71 70  1  0
 72 71  2  0
 73 72  1  0
 73 68  2  0
 74 75  1  0
 75 76  1  0
 76 77  2  0
 78 77  1  0
 78 82  1  0
 79 78  2  0
 80 75  2  0
 80 79  1  0
 81 80  1  0
 83 84  1  0
 84 87  1  0
 84 86  1  0
 85 83  2  0
 88 63  1  0
 88 89  1  0
 90 88  1  0
 91 92  1  0
 92 94  1  0
 94 93  1  0
M  ISO  4   5 101  11 101  53 100  61 100
M  END
>  <TORSDO>  (89) 
F 21

>  <SCORE>  (89) 
-10.610

>  <name>  (89) 
88

>  <ligand_id>  (89) 
88

>  <original_smiles>  (89) 
[H]c1c([H])c([H])c2c(c1[H])C([H])([H])C([H])([H])C([H])([H])C2([H])N([H])C(=O)C1([H])N(C(=O)C([H])(N([H])C(=O)C([H])(N([H])C([H])([H])[H])C([H])([H])[H])C(C([H])([H])[H])(C([H])([H])[H])C([H])([H])[H])C([H])([H])c2c([H])c(Oc3c(F)c([H])c(C([H])(N([H])C(=O)N4C([H])([H])C([H])([H])C([H])([H])C([H])(n5nc(-c6c([H])c([H])c(Oc7c([H])c([H])c(F)c([H])c7F)c([H])c6[H])c(C(=O)N([H])[H])c5N([H])[H])C4([H])[H])C([H])([H])C([H])([H])C([H])([H])C([H])([H])[H])c([H])c3N([H])[H])c([H])c([H])c2C1([H])[H]

>  <smiles>  (89) 
[H]c1c([H])c([H])c2c(c1[H])C([H])([H])C([H])([H])C([H])([H])C2([H])N([H])C(=O)C1([H])N(C(=O)C([H])(N([H])C(=O)C([H])(N([H])C([H])([H])[H])C([H])([H])[H])C(C([H])([H])[H])(C([H])([H])[H])C([H])([H])[H])C([H])([H])c2c([H])c(Oc3c(F)c([H])c(C([H])(N([H])C(=O)N4C([H])([H])C([H])([H])C([H])([H])C([H])(n5nc(-c6c([H])c([H])c(Oc7c([H])c([H])c(F)c([H])c7F)c([H])c6[H])c(C(=O)N([H])[H])c5N([H])[H])C4([H])[H])C([H])([H])C([H])([H])C([H])([H])C([H])([H])[H])c([H])c3N([H])[H])c([H])c([H])c2C1([H])[H]

$$$$
89:0:0
     RDKit          3D

 90 98  0  0  1  0  0  0  0  0999 V2000
  -30.2960  -20.9350   20.4350 C   0  0  0  0  0  3  0  0  0  0  0  0
  -29.8680  -22.3530   20.3460 C   0  0  0  0  0  3  0  0  0  0  0  0
  -28.3550  -20.2220   19.4250 C   0  0  0  0  0  3  0  0  0  0  0  0
  -29.5990  -19.7320   19.9810 C   0  0  0  0  0  0  0  0  0  0  0  0
  -28.6300  -22.8420   19.7740 C   0  0  0  0  0  0  0  0  0  0  0  0
  -27.9030  -21.6460   19.3300 C   0  0  0  0  0  0  0  0  0  0  0  0
  -31.0980  -18.1560   18.6070 C   0  0  0  0  0  1  0  0  0  0  0  0
  -30.3430  -18.1610   19.9480 C   0  0  0  0  0  0  0  0  0  0  0  0
  -30.6210  -15.3040   20.1280 C   0  0  0  0  0  0  0  0  0  0  0  0
  -30.5300  -12.8770   19.2600 C   0  0  0  0  0  2  0  0  0  0  0  0
  -29.5920  -12.7020   18.0410 C   0  0  0  0  0  2  0  0  0  0  0  0
  -28.1450  -12.4530   18.5020 C   0  0  0  0  0  2  0  0  0  0  0  0
  -27.7220  -13.4180   19.6390 C   0  0  0  0  0  3  0  0  0  0  0  0
  -28.7890  -13.5520   20.7470 C   0  0  0  0  0  2  0  0  0  0  0  0
  -30.0190  -14.0220   20.0940 N   0  0  0  0  0  0  0  0  0  0  0  0
  -31.8370  -15.2760   19.8880 O   0  0  0  0  0  0  0  0  0  0  0  0
  -29.9050  -16.5910   20.2060 N   0  0  0  0  0  4  0  0  0  0  0  0
  -28.9200  -16.4780   20.3920 H   0  0  0  0  0  0  0  0  0  0  0  0
  -25.3650  -13.9830   20.4310 C   0  0  0  0  0  0  0  0  0  0  0  0
  -24.3070  -13.2070   20.8150 C   0  0  0  0  0  0  0  0  0  0  0  0
  -24.7700  -11.8570   20.7740 C   0  0  0  0  0  0  0  0  0  0  0  0
  -26.4020  -13.1060   20.1690 N   0  0  0  0  0  0  0  0  0  0  0  0
  -26.0560  -11.8200   20.4440 N   0  0  0  0  0  0  0  0  0  0  0  0
  -24.0420  -10.5950   20.9710 C   0  0  0  0  0  0  0  0  0  0  0  0
  -24.4720   -9.6310   21.9090 C   0  0  0  0  0  3  0  0  0  0  0  0
  -23.7420   -8.4380   22.0950 C   0  0  0  0  0  3  0  0  0  0  0  0
  -22.5670   -8.1980   21.3430 C   0  0  0  0  0  0  0  0  0  0  0  0
  -22.1570   -9.1510   20.3930 C   0  0  0  0  0  3  0  0  0  0  0  0
  -22.8870  -10.3360   20.2060 C   0  0  0  0  0  3  0  0  0  0  0  0
  -21.8090   -7.0570   21.4370 O   0  0  0  0  0  0  0  0  0  0  0  0
  -21.7470   -6.3280   22.5980 C   0  0  0  0  0  0  0  0  0  0  0  0
  -21.3090   -6.8970   23.8130 C   0  0  0  0  0  3  0  0  0  0  0  0
  -21.1950   -6.0940   24.9660 C   0  0  0  0  0  3  0  0  0  0  0  0
  -21.5090   -4.7240   24.9040 C   0  0  0  0  0  0  0  0  0  0  0  0
  -21.9410   -4.1540   23.6930 C   0  0  0  0  0  3  0  0  0  0  0  0
  -22.0560   -4.9540   22.5420 C   0  0  0  0  0  0  0  0  0  0  0  0
  -22.4520   -4.3950   21.3730 F   0  0  0  0  0  0  0  0  0  0  0  0
  -21.3930   -3.9500   26.0090 F   0  0  0  0  0  0  0  0  0  0  0  0
  -22.9140  -13.6870   21.1030 C   0  0  0  0  0  0  0  0  0  0  0  0
  -22.1960  -12.9950   21.9780 N   0  0  0  0  0  0  0  0  0  0  0  0
  -22.4740  -14.7140   20.5870 O   0  0  0  0  0  0  0  0  0  0  0  0
  -22.5670  -12.1650   22.4180 H   0  0  0  0  0  0  0  0  0  0  0  0
  -21.2620  -13.2980   22.2140 H   0  0  0  0  0  0  0  0  0  0  0  0
  -25.5260  -15.3530   20.2530 N   0  0  0  0  0  0  0  0  0  0  0  0
  -24.7570  -16.0050   20.3730 H   0  0  0  0  0  0  0  0  0  0  0  0
  -26.3580  -15.7890   19.8780 H   0  0  0  0  0  0  0  0  0  0  0  0
  -25.9140  -20.9220   18.1560 C   0  0  0  0  0  1  0  0  0  0  0  0
  -26.6910  -21.9560   18.7470 O   0  0  0  0  0  0  0  0  0  0  0  0
  -28.0060  -24.4410   19.4860 C   0  0  0  0  0  2  0  0  0  0  0  0
  -28.3520  -25.9830   19.8670 O   0  0  0  0  0  0  0  0  0  0  0  0
  -24.6430  -31.7140   23.0290 C   0  0  0  0  0  0  0  0  0  0  0  0
  -27.3350  -27.0650   19.8260 C   0  0  0  0  0  0  0  0  0  0  0  0
  -23.4930  -30.3600   21.3260 C   0  0  0  0  0  3  0  0  0  0  0  0
  -24.9880  -28.8660   19.8440 C   0  0  0  0  0  0  0  0  0  0  0  0
  -26.0530  -30.6500   21.2030 C   0  0  0  0  0  2  0  0  0  0  0  0
  -26.1620  -29.2770   20.4890 C   0  0  0  0  0  0  0  0  0  0  0  0
  -27.3310  -28.3970   20.4610 C   0  0  0  0  0  3  0  0  0  0  0  0
  -26.1300  -26.8050   19.1340 C   0  0  0  0  0  3  0  0  0  0  0  0
  -24.9960  -27.6500   19.1460 C   0  0  0  0  0  3  0  0  0  0  0  0
  -23.7450  -29.7460   19.9230 C   0  0  0  0  0  2  0  0  0  0  0  0
  -24.7500  -30.9320   21.9070 N   0  0  0  0  0  0  0  0  0  0  0  0
  -23.5440  -31.9530   23.5550 O   0  0  0  0  0  0  0  0  0  0  0  0
  -22.8220  -29.3030   22.2430 C   0  0  0  0  0  0  0  0  0  0  0  0
  -21.4890  -29.1500   22.1420 N   0  0  0  0  0  0  0  0  0  0  0  0
  -23.5060  -28.6240   23.0130 O   0  0  0  0  0  0  0  0  0  0  0  0
  -20.9890  -29.7500   21.5000 H   0  0  0  0  0  0  0  0  0  0  0  0
  -18.1040  -27.9800   22.7250 C   0  0  0  0  0  0  0  0  0  0  0  0
  -20.6810  -28.1690   22.8740 C   0  0  0  0  0  3  0  0  0  0  0  0
  -20.7170  -26.7890   22.1800 C   0  0  0  0  0  2  0  0  0  0  0  0
  -19.5570  -26.5740   21.2010 C   0  0  0  0  0  2  0  0  0  0  0  0
  -18.2130  -26.6900   21.9270 C   0  0  0  0  0  2  0  0  0  0  0  0
  -19.2620  -28.6820   23.1560 C   0  0  0  0  0  0  0  0  0  0  0  0
  -19.1010  -29.8900   23.8670 C   0  0  0  0  0  3  0  0  0  0  0  0
  -17.8190  -30.3970   24.1490 C   0  0  0  0  0  3  0  0  0  0  0  0
  -16.6780  -29.6920   23.7300 C   0  0  0  0  0  3  0  0  0  0  0  0
  -16.8210  -28.4840   23.0240 C   0  0  0  0  0  3  0  0  0  0  0  0
  -25.8960  -32.3600   23.6940 C   0  0  0  0  0  3  0  0  0  0  0  0
  -26.4030  -31.5640   24.9610 C   0  0  1  0  0  0  0  0  0  0  0  0
  -25.2960  -31.2830   26.0050 C   0  0  0  0  0  1  0  0  0  0  0  0
  -27.0150  -30.2040   24.5510 C   0  0  0  0  0  1  0  0  0  0  0  0
  -27.5300  -32.3590   25.6610 C   0  0  0  0  0  1  0  0  0  0  0  0
  -25.5460  -33.7410   24.0700 N   0  0  0  0  0  0  0  0  0  0  0  0
  -25.8460  -34.8310   23.3510 C   0  0  0  0  0  0  0  0  0  0  0  0
  -26.5110  -34.7810   22.3130 O   0  0  0  0  0  0  0  0  0  0  0  0
  -24.9530  -33.8510   24.8790 H   0  0  0  0  0  0  0  0  0  0  0  0
  -24.0600  -36.5880   23.0980 C   0  0  0  0  0  1  0  0  0  0  0  0
  -25.3320  -36.1920   23.8640 C   0  0  0  0  0  3  0  0  0  0  0  0
  -27.4570  -37.1200   24.6750 C   0  0  0  0  0  1  0  0  0  0  0  0
  -26.3310  -37.2780   23.7590 N   0  0  0  0  0  0  0  0  0  0  0  0
  -25.9020  -38.1820   23.9370 H   0  0  0  0  0  0  0  0  0  0  0  0
  2  1  1  0
  3  4  1  0
  4  1  2  0
  5  2  2  0
  6  3  2  0
  6  5  1  0
  7  8  1  0
  8  4  1  0
  8 17  2  0
  9 17  1  0
 10 15  1  0
 11 12  1  0
 11 10  1  0
 13 12  1  0
 13 22  1  0
 13 14  1  0
 15  9  1  0
 15 14  1  0
 16  9  2  0
 17 18  1  0
 19 20  2  0
 20 39  1  0
 21 20  1  0
 21 24  1  0
 22 19  1  0
 22 23  1  0
 23 21  2  0
 24 25  1  0
 25 26  2  0
 27 30  1  0
 27 26  1  0
 28 27  2  0
 29 28  1  0
 29 24  2  0
 30 31  1  0
 31 32  1  0
 32 33  2  0
 34 33  1  0
 34 38  1  0
 35 34  2  0
 36 31  2  0
 36 35  1  0
 37 36  1  0
 39 40  1  0
 40 43  1  0
 40 42  1  0
 41 39  2  0
 44 45  1  0
 44 19  1  0
 46 44  1  0
 47 48  1  0
 48  6  1  0
 49  5  1  0
 49 50  1  0
 51 62  2  0
 52 50  1  0
 52 57  1  0
 53 61  1  0
 53 63  1  0
 54 60  1  0
 54 56  1  0
 55 61  1  0
 56 55  1  0
 57 56  2  0
 58 59  1  0
 58 52  2  0
 59 54  2  0
 60 53  1  0
 61 51  1  0
 63 65  2  0
 64 63  1  0
 66 64  1  0
 67 76  2  0
 67 72  1  0
 68 64  1  0
 68 72  1  0
 69 68  1  0
 70 71  1  0
 70 69  1  0
 71 67  1  0
 72 73  2  0
 73 74  1  0
 75 74  2  0
 76 75  1  0
 77 51  1  0
 77 82  1  0
 77 78  1  0
 78 81  1  1
 78 79  1  0
 80 78  1  0
 82 85  1  0
 83 87  1  0
 83 82  1  0
 84 83  2  0
 87 86  1  0
 89 87  1  0
 89 90  1  0
 89 88  1  0
M  ISO  4   9 100  17 100  49 101  50 101
M  END
>  <TORSDO>  (90) 
F 19

>  <SCORE>  (90) 
-15.190

>  <name>  (90) 
89

>  <ligand_id>  (90) 
89

>  <original_smiles>  (90) 
[H]c1c([H])c([H])c2c(c1[H])C([H])([H])C([H])([H])C([H])([H])C2([H])N([H])C(=O)C1([H])N(C(=O)C([H])(N([H])C(=O)C([H])(N([H])C([H])([H])[H])C([H])([H])[H])C(C([H])([H])[H])(C([H])([H])[H])C([H])([H])[H])C([H])([H])c2c([H])c(OC([H])([H])c3c([H])c([H])c(C([H])(N([H])C(=O)N4C([H])([H])C([H])([H])C([H])([H])C([H])(n5nc(-c6c([H])c([H])c(Oc7c([H])c([H])c(F)c([H])c7F)c([H])c6[H])c(C(=O)N([H])[H])c5N([H])[H])C4([H])[H])C([H])([H])[H])c([H])c3OC([H])([H])[H])c([H])c([H])c2C1([H])[H]

>  <smiles>  (90) 
[H]c1c([H])c([H])c2c(c1[H])C([H])([H])C([H])([H])C([H])([H])C2([H])N([H])C(=O)C1([H])N(C(=O)C([H])(N([H])C(=O)C([H])(N([H])C([H])([H])[H])C([H])([H])[H])C(C([H])([H])[H])(C([H])([H])[H])C([H])([H])[H])C([H])([H])c2c([H])c(OC([H])([H])c3c([H])c([H])c(C([H])(N([H])C(=O)N4C([H])([H])C([H])([H])C([H])([H])C([H])(n5nc(-c6c([H])c([H])c(Oc7c([H])c([H])c(F)c([H])c7F)c([H])c6[H])c(C(=O)N([H])[H])c5N([H])[H])C4([H])[H])C([H])([H])[H])c([H])c3OC([H])([H])[H])c([H])c([H])c2C1([H])[H]

$$$$
90:0:0
     RDKit          3D

 92100  0  0  1  0  0  0  0  0999 V2000
  -28.4470  -19.6050   20.7750 C   0  0  0  0  0  3  0  0  0  0  0  0
  -27.6410  -20.7390   21.0100 C   0  0  0  0  0  3  0  0  0  0  0  0
  -29.7500  -20.9640   19.2740 C   0  0  0  0  0  3  0  0  0  0  0  0
  -29.5410  -19.6200   19.8920 C   0  0  0  0  0  0  0  0  0  0  0  0
  -28.9380  -22.1990   19.5050 C   0  0  0  0  0  0  0  0  0  0  0  0
  -27.8770  -22.0170   20.4390 C   0  0  0  0  0  0  0  0  0  0  0  0
  -30.2300  -18.1880   19.5250 C   0  0  0  0  0  0  0  0  0  0  0  0
  -30.6390  -18.0910   18.3670 O   0  0  0  0  0  0  0  0  0  0  0  0
  -31.8310  -17.2340   21.2480 C   0  0  0  0  0  1  0  0  0  0  0  0
  -29.5020  -16.6370   21.6400 C   0  0  0  0  0  1  0  0  0  0  0  0
  -30.5300  -16.8400   20.4860 C   0  0  1  0  0  0  0  0  0  0  0  0
  -30.9760  -15.3680   19.7780 C   0  0  0  0  0  0  0  0  0  0  0  0
  -30.8060  -12.9530   18.9390 C   0  0  0  0  0  2  0  0  0  0  0  0
  -29.8350  -12.7960   17.7410 C   0  0  0  0  0  2  0  0  0  0  0  0
  -28.3990  -12.5720   18.2590 C   0  0  0  0  0  2  0  0  0  0  0  0
  -28.0240  -13.5990   19.3590 C   0  0  0  0  0  3  0  0  0  0  0  0
  -29.1160  -13.6700   20.4410 C   0  0  0  0  0  2  0  0  0  0  0  0
  -30.3620  -14.1050   19.7960 N   0  0  0  0  0  0  0  0  0  0  0  0
  -32.0640  -15.3710   19.1830 O   0  0  0  0  0  0  0  0  0  0  0  0
  -25.7520  -14.2600   20.3430 C   0  0  0  0  0  0  0  0  0  0  0  0
  -24.6780  -13.5150   20.7580 C   0  0  0  0  0  0  0  0  0  0  0  0
  -25.0590  -12.1500   20.5930 C   0  0  0  0  0  0  0  0  0  0  0  0
  -26.7110  -13.3440   19.9470 N   0  0  0  0  0  0  0  0  0  0  0  0
  -26.3100  -12.0650   20.1620 N   0  0  0  0  0  0  0  0  0  0  0  0
  -24.2810  -10.9160   20.7660 C   0  0  0  0  0  0  0  0  0  0  0  0
  -24.7190   -9.8850   21.6270 C   0  0  0  0  0  3  0  0  0  0  0  0
  -23.9460   -8.7150   21.7940 C   0  0  0  0  0  3  0  0  0  0  0  0
  -22.7220   -8.5680   21.0970 C   0  0  0  0  0  0  0  0  0  0  0  0
  -22.2990   -9.5900   20.2290 C   0  0  0  0  0  3  0  0  0  0  0  0
  -23.0720  -10.7520   20.0600 C   0  0  0  0  0  3  0  0  0  0  0  0
  -21.9220   -7.4530   21.1690 O   0  0  0  0  0  0  0  0  0  0  0  0
  -21.8550   -6.6890   22.3070 C   0  0  0  0  0  0  0  0  0  0  0  0
  -21.4590   -7.2340   23.5480 C   0  0  0  0  0  3  0  0  0  0  0  0
  -21.3360   -6.4010   24.6780 C   0  0  0  0  0  3  0  0  0  0  0  0
  -21.5990   -5.0210   24.5670 C   0  0  0  0  0  0  0  0  0  0  0  0
  -21.9900   -4.4750   23.3300 C   0  0  0  0  0  3  0  0  0  0  0  0
  -22.1150   -5.3080   22.2040 C   0  0  0  0  0  0  0  0  0  0  0  0
  -22.4690   -4.7740   21.0100 F   0  0  0  0  0  0  0  0  0  0  0  0
  -21.4760   -4.2170   25.6480 F   0  0  0  0  0  0  0  0  0  0  0  0
  -23.3450  -14.0470   21.1950 C   0  0  0  0  0  0  0  0  0  0  0  0
  -22.6640  -13.3370   22.0920 N   0  0  0  0  0  0  0  0  0  0  0  0
  -22.9180  -15.1250   20.7840 O   0  0  0  0  0  0  0  0  0  0  0  0
  -23.0230  -12.4640   22.4470 H   0  0  0  0  0  0  0  0  0  0  0  0
  -21.7800  -13.6810   22.4400 H   0  0  0  0  0  0  0  0  0  0  0  0
  -25.9860  -15.6250   20.2540 N   0  0  0  0  0  0  0  0  0  0  0  0
  -25.2690  -16.3170   20.4440 H   0  0  0  0  0  0  0  0  0  0  0  0
  -26.8640  -16.0310   19.9580 H   0  0  0  0  0  0  0  0  0  0  0  0
  -26.1900  -23.1070   21.8530 C   0  0  0  0  0  1  0  0  0  0  0  0
  -27.0740  -23.1020   20.7250 O   0  0  0  0  0  0  0  0  0  0  0  0
  -29.1910  -23.7200   18.8740 C   0  0  0  0  0  2  0  0  0  0  0  0
  -28.0770  -25.0010   18.7470 C   0  0  0  0  0  2  0  0  0  0  0  0
  -28.3050  -26.5430   18.7780 O   0  0  0  0  0  0  0  0  0  0  0  0
  -24.7450  -31.4780   22.9340 C   0  0  0  0  0  0  0  0  0  0  0  0
  -27.2100  -27.4680   18.9590 C   0  0  0  0  0  0  0  0  0  0  0  0
  -23.4550  -30.3550   21.1570 C   0  0  0  0  0  3  0  0  0  0  0  0
  -24.8350  -29.1020   19.3820 C   0  0  0  0  0  0  0  0  0  0  0  0
  -25.9860  -30.7330   20.8730 C   0  0  0  0  0  2  0  0  0  0  0  0
  -26.0450  -29.4850   19.9740 C   0  0  0  0  0  0  0  0  0  0  0  0
  -27.2340  -28.6950   19.7360 C   0  0  0  0  0  3  0  0  0  0  0  0
  -25.9670  -27.1840   18.3530 C   0  0  0  0  0  3  0  0  0  0  0  0
  -24.8080  -27.9710   18.5520 C   0  0  0  0  0  3  0  0  0  0  0  0
  -23.5930  -29.9380   19.6680 C   0  0  0  0  0  2  0  0  0  0  0  0
  -24.7500  -30.8660   21.7120 N   0  0  0  0  0  0  0  0  0  0  0  0
  -23.6980  -31.6340   23.5790 O   0  0  0  0  0  0  0  0  0  0  0  0
  -22.8660  -29.1780   21.9730 C   0  0  0  0  0  0  0  0  0  0  0  0
  -21.5340  -28.9990   21.9150 N   0  0  0  0  0  0  0  0  0  0  0  0
  -23.6050  -28.4320   22.6200 O   0  0  0  0  0  0  0  0  0  0  0  0
  -20.9890  -29.6620   21.3810 H   0  0  0  0  0  0  0  0  0  0  0  0
  -18.2180  -27.6360   22.4410 C   0  0  0  0  0  0  0  0  0  0  0  0
  -20.7850  -27.9180   22.5610 C   0  0  0  0  0  3  0  0  0  0  0  0
  -20.8670  -26.6130   21.7320 C   0  0  0  0  0  2  0  0  0  0  0  0
  -19.6890  -26.4350   20.7670 C   0  0  0  0  0  2  0  0  0  0  0  0
  -18.3650  -26.4280   21.5310 C   0  0  0  0  0  2  0  0  0  0  0  0
  -19.3520  -28.3440   22.9140 C   0  0  0  0  0  0  0  0  0  0  0  0
  -19.1570  -29.4750   23.7360 C   0  0  0  0  0  3  0  0  0  0  0  0
  -17.8600  -29.9000   24.0800 C   0  0  0  0  0  3  0  0  0  0  0  0
  -16.7410  -29.1850   23.6200 C   0  0  0  0  0  3  0  0  0  0  0  0
  -16.9200  -28.0550   22.8030 C   0  0  0  0  0  3  0  0  0  0  0  0
  -26.0570  -32.0330   23.5750 C   0  0  0  0  0  3  0  0  0  0  0  0
  -25.7580  -33.3570   24.1390 N   0  0  0  0  0  0  0  0  0  0  0  0
  -26.0270  -34.5220   23.5350 C   0  0  0  0  0  0  0  0  0  0  0  0
  -26.6250  -34.5900   22.4590 O   0  0  0  0  0  0  0  0  0  0  0  0
  -25.2290  -33.3740   24.9970 H   0  0  0  0  0  0  0  0  0  0  0  0
  -24.2640  -36.3180   23.5810 C   0  0  0  0  0  1  0  0  0  0  0  0
  -25.5610  -35.8140   24.2350 C   0  0  0  0  0  3  0  0  0  0  0  0
  -27.7360  -36.6010   25.0570 C   0  0  0  0  0  1  0  0  0  0  0  0
  -26.5740  -36.8910   24.2230 N   0  0  0  0  0  0  0  0  0  0  0  0
  -26.1700  -37.7700   24.5360 H   0  0  0  0  0  0  0  0  0  0  0  0
  -26.6500  -31.0860   24.6920 C   0  0  1  0  0  0  0  0  0  0  0  0
  -25.6250  -30.6800   25.7770 C   0  0  0  0  0  1  0  0  0  0  0  0
  -27.2130  -29.7860   24.0710 C   0  0  0  0  0  1  0  0  0  0  0  0
  -27.8380  -31.7850   25.3940 C   0  0  0  0  0  1  0  0  0  0  0  0
  1  2  1  0
  3  5  2  0
  3  4  1  0
  4  1  2  0
  5  6  1  0
  6 49  1  0
  6  2  2  0
  7  4  1  0
  7 11  1  0
  8  7  2  0
 11  9  1  1
 11 10  1  0
 12 18  1  0
 12 11  1  0
 13 18  1  0
 14 15  1  0
 14 13  1  0
 16 15  1  0
 16 23  1  0
 16 17  1  0
 18 17  1  0
 19 12  2  0
 20 21  2  0
 21 40  1  0
 22 21  1  0
 22 25  1  0
 23 24  1  0
 23 20  1  0
 24 22  2  0
 25 26  1  0
 26 27  2  0
 28 31  1  0
 28 27  1  0
 29 28  2  0
 30 29  1  0
 30 25  2  0
 31 32  1  0
 32 33  1  0
 33 34  2  0
 35 34  1  0
 35 39  1  0
 36 35  2  0
 37 32  2  0
 37 36  1  0
 38 37  1  0
 40 41  1  0
 41 44  1  0
 41 43  1  0
 42 40  2  0
 45 20  1  0
 45 46  1  0
 47 45  1  0
 49 48  1  0
 50  5  1  0
 51 52  1  0
 51 50  1  0
 52 54  1  0
 53 64  2  0
 54 59  1  0
 55 63  1  0
 55 65  1  0
 56 62  1  0
 56 58  1  0
 57 63  1  0
 58 57  1  0
 59 58  2  0
 60 61  1  0
 60 54  2  0
 61 56  2  0
 62 55  1  0
 63 53  1  0
 65 67  2  0
 66 65  1  0
 68 66  1  0
 69 78  2  0
 69 74  1  0
 70 66  1  0
 70 74  1  0
 71 70  1  0
 72 73  1  0
 72 71  1  0
 73 69  1  0
 74 75  2  0
 75 76  1  0
 77 76  2  0
 78 77  1  0
 79 53  1  0
 79 80  1  0
 79 89  1  0
 80 83  1  0
 81 80  1  0
 81 85  1  0
 82 81  2  0
 85 84  1  0
 87 85  1  0
 87 88  1  0
 87 86  1  0
 89 92  1  1
 89 90  1  0
 91 89  1  0
M  ISO  4  11 100  12 100  51 101  52 101
M  END
>  <TORSDO>  (91) 
F 21

>  <SCORE>  (91) 
-10.846

>  <name>  (91) 
90

>  <ligand_id>  (91) 
90

>  <original_smiles>  (91) 
[H]c1c([H])c([H])c2c(c1[H])C([H])([H])C([H])([H])C([H])([H])C2([H])N([H])C(=O)C1([H])N(C(=O)C([H])(N([H])C(=O)C([H])(N([H])C([H])([H])[H])C([H])([H])[H])C(C([H])([H])[H])(C([H])([H])[H])C([H])([H])[H])C([H])([H])c2c([H])c(OC([H])([H])C([H])([H])c3c([H])c(C(=O)C(C(=O)N4C([H])([H])C([H])([H])C([H])([H])C([H])(n5nc(-c6c([H])c([H])c(Oc7c([H])c([H])c(F)c([H])c7F)c([H])c6[H])c(C(=O)N([H])[H])c5N([H])[H])C4([H])[H])(C([H])([H])[H])C([H])([H])[H])c([H])c([H])c3OC([H])([H])[H])c([H])c([H])c2C1([H])[H]

>  <smiles>  (91) 
[H]c1c([H])c([H])c2c(c1[H])C([H])([H])C([H])([H])C([H])([H])C2([H])N([H])C(=O)C1([H])N(C(=O)C([H])(N([H])C(=O)C([H])(N([H])C([H])([H])[H])C([H])([H])[H])C(C([H])([H])[H])(C([H])([H])[H])C([H])([H])[H])C([H])([H])c2c([H])c(OC([H])([H])C([H])([H])c3c([H])c(C(=O)C(C(=O)N4C([H])([H])C([H])([H])C([H])([H])C([H])(n5nc(-c6c([H])c([H])c(Oc7c([H])c([H])c(F)c([H])c7F)c([H])c6[H])c(C(=O)N([H])[H])c5N([H])[H])C4([H])[H])(C([H])([H])[H])C([H])([H])[H])c([H])c([H])c3OC([H])([H])[H])c([H])c([H])c2C1([H])[H]

$$$$
91:0:0
     RDKit          3D

 88 96  0  0  1  0  0  0  0  0999 V2000
  -29.6140  -22.3130   19.5590 C   0  0  0  0  0  3  0  0  0  0  0  0
  -29.4030  -23.7810   19.5150 C   0  0  0  0  0  3  0  0  0  0  0  0
  -27.6720  -22.1300   20.7840 C   0  0  0  0  0  3  0  0  0  0  0  0
  -28.7580  -21.3410   20.2110 C   0  0  0  0  0  0  0  0  0  0  0  0
  -27.4540  -23.5970   20.7510 C   0  0  0  0  0  0  0  0  0  0  0  0
  -28.3140  -24.5630   20.0950 C   0  0  0  0  0  0  0  0  0  0  0  0
  -26.2410  -24.1240   21.4960 C   0  0  0  0  0  1  0  0  0  0  0  0
  -28.8430  -19.6580   20.4220 C   0  0  0  0  0  0  0  0  0  0  0  0
  -27.9530  -19.2140   21.1490 O   0  0  0  0  0  0  0  0  0  0  0  0
  -29.8380  -18.3720   19.8990 C   0  0  0  0  0  3  0  0  0  0  0  0
  -29.6200  -16.6660   20.2980 C   0  0  0  0  0  3  0  0  0  0  0  0
  -30.4520  -15.2180   19.8840 C   0  0  0  0  0  0  0  0  0  0  0  0
  -30.3790  -12.8130   18.9530 C   0  0  0  0  0  2  0  0  0  0  0  0
  -29.3580  -12.7020   17.7910 C   0  0  0  0  0  2  0  0  0  0  0  0
  -27.9360  -12.4440   18.3250 C   0  0  0  0  0  2  0  0  0  0  0  0
  -27.5920  -13.3610   19.5270 C   0  0  0  0  0  3  0  0  0  0  0  0
  -28.7270  -13.4210   20.5700 C   0  0  0  0  0  2  0  0  0  0  0  0
  -29.9310  -13.9050   19.8820 N   0  0  0  0  0  0  0  0  0  0  0  0
  -31.6180  -15.2870   19.4670 O   0  0  0  0  0  0  0  0  0  0  0  0
  -25.2970  -13.9050   20.5080 C   0  0  0  0  0  0  0  0  0  0  0  0
  -24.2610  -13.1170   20.9290 C   0  0  0  0  0  0  0  0  0  0  0  0
  -24.7080  -11.7680   20.7890 C   0  0  0  0  0  0  0  0  0  0  0  0
  -26.3050  -13.0350   20.1290 N   0  0  0  0  0  0  0  0  0  0  0  0
  -25.9660  -11.7400   20.3630 N   0  0  0  0  0  0  0  0  0  0  0  0
  -23.9860  -10.5020   20.9780 C   0  0  0  0  0  0  0  0  0  0  0  0
  -24.4240   -9.5310   21.9040 C   0  0  0  0  0  3  0  0  0  0  0  0
  -23.6980   -8.3320   22.0830 C   0  0  0  0  0  3  0  0  0  0  0  0
  -22.5200   -8.0970   21.3350 C   0  0  0  0  0  0  0  0  0  0  0  0
  -22.1000   -9.0570   20.3980 C   0  0  0  0  0  3  0  0  0  0  0  0
  -22.8260  -10.2470   20.2180 C   0  0  0  0  0  3  0  0  0  0  0  0
  -21.7660   -6.9510   21.4230 O   0  0  0  0  0  0  0  0  0  0  0  0
  -21.6500   -6.2540   22.5980 C   0  0  0  0  0  0  0  0  0  0  0  0
  -21.1170   -6.8460   23.7650 C   0  0  0  0  0  3  0  0  0  0  0  0
  -20.9500   -6.0740   24.9320 C   0  0  0  0  0  3  0  0  0  0  0  0
  -21.3050   -4.7120   24.9330 C   0  0  0  0  0  0  0  0  0  0  0  0
  -21.8310   -4.1210   23.7710 C   0  0  0  0  0  3  0  0  0  0  0  0
  -22.0010   -4.8890   22.6070 C   0  0  0  0  0  0  0  0  0  0  0  0
  -22.4870   -4.3090   21.4840 F   0  0  0  0  0  0  0  0  0  0  0  0
  -21.1380   -3.9670   26.0510 F   0  0  0  0  0  0  0  0  0  0  0  0
  -22.8970  -13.5900   21.3420 C   0  0  0  0  0  0  0  0  0  0  0  0
  -22.2400  -12.8580   22.2340 N   0  0  0  0  0  0  0  0  0  0  0  0
  -22.4290  -14.6430   20.9100 O   0  0  0  0  0  0  0  0  0  0  0  0
  -22.6350  -12.0070   22.6040 H   0  0  0  0  0  0  0  0  0  0  0  0
  -21.3270  -13.1520   22.5500 H   0  0  0  0  0  0  0  0  0  0  0  0
  -25.4580  -15.2810   20.3900 N   0  0  0  0  0  0  0  0  0  0  0  0
  -24.7120  -15.9320   20.6120 H   0  0  0  0  0  0  0  0  0  0  0  0
  -26.2810  -15.7380   20.0200 H   0  0  0  0  0  0  0  0  0  0  0  0
  -28.2730  -26.0800   20.1190 O   0  0  0  0  0  0  0  0  0  0  0  0
  -24.5990  -31.8480   23.1590 C   0  0  0  0  0  0  0  0  0  0  0  0
  -27.1910  -27.0750   20.1120 C   0  0  0  0  0  0  0  0  0  0  0  0
  -23.4130  -30.4690   21.4960 C   0  0  0  0  0  3  0  0  0  0  0  0
  -24.8730  -28.8890   20.0680 C   0  0  0  0  0  0  0  0  0  0  0  0
  -25.9730  -30.7080   21.3610 C   0  0  0  0  0  2  0  0  0  0  0  0
  -26.0490  -29.3100   20.6980 C   0  0  0  0  0  0  0  0  0  0  0  0
  -27.2030  -28.4220   20.6990 C   0  0  0  0  0  3  0  0  0  0  0  0
  -25.9880  -26.7800   19.4360 C   0  0  0  0  0  3  0  0  0  0  0  0
  -24.8610  -27.6400   19.4200 C   0  0  0  0  0  3  0  0  0  0  0  0
  -23.6480  -29.7990   20.1140 C   0  0  0  0  0  2  0  0  0  0  0  0
  -24.6820  -31.0340   22.0600 N   0  0  0  0  0  0  0  0  0  0  0  0
  -23.5080  -32.1310   23.6810 O   0  0  0  0  0  0  0  0  0  0  0  0
  -22.7190  -29.4610   22.4460 C   0  0  0  0  0  0  0  0  0  0  0  0
  -21.3890  -29.3060   22.3190 N   0  0  0  0  0  0  0  0  0  0  0  0
  -23.3820  -28.8180   23.2630 O   0  0  0  0  0  0  0  0  0  0  0  0
  -20.9070  -29.8770   21.6380 H   0  0  0  0  0  0  0  0  0  0  0  0
  -17.9910  -28.1460   22.8390 C   0  0  0  0  0  0  0  0  0  0  0  0
  -20.5580  -28.3610   23.0740 C   0  0  0  0  0  3  0  0  0  0  0  0
  -20.6270  -26.9440   22.4600 C   0  0  0  0  0  2  0  0  0  0  0  0
  -19.5060  -26.6680   21.4520 C   0  0  0  0  0  2  0  0  0  0  0  0
  -18.1350  -26.8150   22.1210 C   0  0  0  0  0  2  0  0  0  0  0  0
  -19.1280  -28.8800   23.2730 C   0  0  0  0  0  0  0  0  0  0  0  0
  -18.9370  -30.1250   23.9100 C   0  0  0  0  0  3  0  0  0  0  0  0
  -17.6430  -30.6380   24.1140 C   0  0  0  0  0  3  0  0  0  0  0  0
  -16.5210  -29.9030   23.6950 C   0  0  0  0  0  3  0  0  0  0  0  0
  -16.6950  -28.6590   23.0640 C   0  0  0  0  0  3  0  0  0  0  0  0
  -25.8700  -32.4810   23.8050 C   0  0  0  0  0  3  0  0  0  0  0  0
  -26.3750  -31.6970   25.0800 C   0  0  1  0  0  0  0  0  0  0  0  0
  -25.2710  -31.4440   26.1340 C   0  0  0  0  0  1  0  0  0  0  0  0
  -26.9660  -30.3240   24.6850 C   0  0  0  0  0  1  0  0  0  0  0  0
  -27.5150  -32.4860   25.7650 C   0  0  0  0  0  1  0  0  0  0  0  0
  -25.5490  -33.8750   24.1610 N   0  0  0  0  0  0  0  0  0  0  0  0
  -25.8640  -34.9470   23.4230 C   0  0  0  0  0  0  0  0  0  0  0  0
  -26.5180  -34.8690   22.3800 O   0  0  0  0  0  0  0  0  0  0  0  0
  -24.9640  -34.0090   24.9720 H   0  0  0  0  0  0  0  0  0  0  0  0
  -24.1140  -36.7370   23.1470 C   0  0  0  0  0  1  0  0  0  0  0  0
  -25.3790  -36.3250   23.9170 C   0  0  0  0  0  3  0  0  0  0  0  0
  -27.5200  -37.2210   24.7160 C   0  0  0  0  0  1  0  0  0  0  0  0
  -26.3980  -37.3900   23.7950 N   0  0  0  0  0  0  0  0  0  0  0  0
  -25.9870  -38.3040   23.9610 H   0  0  0  0  0  0  0  0  0  0  0  0
  1  4  1  0
  2  1  2  0
  2  6  1  0
  4  8  1  0
  4  3  2  0
  5  3  1  0
  5  7  1  0
  6 48  1  0
  6  5  2  0
  8  9  2  0
 10 11  2  0
 10  8  1  0
 12 11  1  0
 13 18  1  0
 14 15  1  0
 14 13  1  0
 16 15  1  0
 16 23  1  0
 16 17  1  0
 18 12  1  0
 18 17  1  0
 19 12  2  0
 20 21  2  0
 21 40  1  0
 22 21  1  0
 22 25  1  0
 23 24  1  0
 23 20  1  0
 24 22  2  0
 25 26  1  0
 26 27  2  0
 28 31  1  0
 28 27  1  0
 29 28  2  0
 30 29  1  0
 30 25  2  0
 31 32  1  0
 32 37  2  0
 32 33  1  0
 33 34  2  0
 34 35  1  0
 35 39  1  0
 36 35  2  0
 37 36  1  0
 38 37  1  0
 40 41  1  0
 41 44  1  0
 41 43  1  0
 42 40  2  0
 45 20  1  0
 45 46  1  0
 47 45  1  0
 49 60  2  0
 50 48  1  0
 50 55  1  0
 51 59  1  0
 51 61  1  0
 52 58  1  0
 52 54  1  0
 53 59  1  0
 54 55  2  0
 54 53  1  0
 56 50  2  0
 57 56  1  0
 57 52  2  0
 58 51  1  0
 59 49  1  0
 61 63  2  0
 62 61  1  0
 64 62  1  0
 65 74  2  0
 65 70  1  0
 66 62  1  0
 66 70  1  0
 67 66  1  0
 68 69  1  0
 68 67  1  0
 69 65  1  0
 70 71  2  0
 71 72  1  0
 73 72  2  0
 74 73  1  0
 75 49  1  0
 75 80  1  0
 75 76  1  0
 76 79  1  1
 76 77  1  0
 78 76  1  0
 80 83  1  0
 81 85  1  0
 81 80  1  0
 82 81  2  0
 85 84  1  0
 87 85  1  0
 87 88  1  0
 87 86  1  0
M  ISO  4   6 101  11 100  12 100  48 101
M  END
>  <TORSDO>  (92) 
F 19

>  <SCORE>  (92) 
-15.327

>  <name>  (92) 
91

>  <ligand_id>  (92) 
91

>  <original_smiles>  (92) 
[H]c1c([H])c([H])c2c(c1[H])C([H])([H])C([H])([H])C([H])([H])C2([H])N([H])C(=O)C1([H])N(C(=O)C([H])(N([H])C(=O)C([H])(N([H])C([H])([H])[H])C([H])([H])[H])C(C([H])([H])[H])(C([H])([H])[H])C([H])([H])[H])C([H])([H])c2c([H])c(Oc3c([H])c([H])c(C(=O)C([H])([H])C([H])([H])C(=O)N4C([H])([H])C([H])([H])C([H])([H])C([H])(n5nc(-c6c([H])c([H])c(Oc7c([H])c([H])c(F)c([H])c7F)c([H])c6[H])c(C(=O)N([H])[H])c5N([H])[H])C4([H])[H])c([H])c3C([H])([H])[H])c([H])c([H])c2C1([H])[H]

>  <smiles>  (92) 
[H]c1c([H])c([H])c2c(c1[H])C([H])([H])C([H])([H])C([H])([H])C2([H])N([H])C(=O)C1([H])N(C(=O)C([H])(N([H])C(=O)C([H])(N([H])C([H])([H])[H])C([H])([H])[H])C(C([H])([H])[H])(C([H])([H])[H])C([H])([H])[H])C([H])([H])c2c([H])c(Oc3c([H])c([H])c(C(=O)C([H])([H])C([H])([H])C(=O)N4C([H])([H])C([H])([H])C([H])([H])C([H])(n5nc(-c6c([H])c([H])c(Oc7c([H])c([H])c(F)c([H])c7F)c([H])c6[H])c(C(=O)N([H])[H])c5N([H])[H])C4([H])[H])c([H])c3C([H])([H])[H])c([H])c([H])c2C1([H])[H]

$$$$
92:0:0
     RDKit          3D

 92100  0  0  1  0  0  0  0  0999 V2000
  -31.1170  -22.6990   20.5830 C   0  0  0  0  0  3  0  0  0  0  0  0
  -30.0170  -22.4470   22.7340 C   0  0  0  0  0  3  0  0  0  0  0  0
  -30.7770  -24.0720   20.5680 C   0  0  0  0  0  3  0  0  0  0  0  0
  -29.6780  -23.8190   22.7170 C   0  0  0  0  0  3  0  0  0  0  0  0
  -30.7660  -21.8780   21.6800 C   0  0  0  0  0  0  0  0  0  0  0  0
  -30.0760  -24.6570   21.6500 C   0  0  0  0  0  0  0  0  0  0  0  0
  -31.1010  -26.7890   22.4690 C   0  0  0  0  0  1  0  0  0  0  0  0
  -29.8700  -26.1780   21.7810 C   0  0  0  0  0  3  0  0  0  0  0  0
  -29.5490  -26.9640   20.4780 C   0  0  0  0  0  2  0  0  0  0  0  0
  -28.2750  -26.6350   19.9260 O   0  0  0  0  0  0  0  0  0  0  0  0
  -24.5430  -31.8780   23.1730 C   0  0  0  0  0  0  0  0  0  0  0  0
  -27.1690  -27.4610   20.0430 C   0  0  0  0  0  0  0  0  0  0  0  0
  -23.3170  -30.4840   21.5370 C   0  0  0  0  0  3  0  0  0  0  0  0
  -24.7580  -28.9580   20.0910 C   0  0  0  0  0  0  0  0  0  0  0  0
  -25.8380  -30.8490   21.3120 C   0  0  0  0  0  2  0  0  0  0  0  0
  -25.9190  -29.4790   20.6750 C   0  0  0  0  0  0  0  0  0  0  0  0
  -27.1250  -28.7370   20.6620 C   0  0  0  0  0  3  0  0  0  0  0  0
  -25.9860  -26.9580   19.4630 C   0  0  0  0  0  3  0  0  0  0  0  0
  -24.7850  -27.6910   19.4840 C   0  0  0  0  0  3  0  0  0  0  0  0
  -23.5100  -29.8090   20.1520 C   0  0  0  0  0  2  0  0  0  0  0  0
  -24.5830  -31.0830   22.0660 N   0  0  0  0  0  0  0  0  0  0  0  0
  -23.4690  -32.1490   23.7270 O   0  0  0  0  0  0  0  0  0  0  0  0
  -22.6750  -29.4610   22.5010 C   0  0  0  0  0  0  0  0  0  0  0  0
  -21.3460  -29.2920   22.3960 N   0  0  0  0  0  0  0  0  0  0  0  0
  -23.3690  -28.8240   23.2990 O   0  0  0  0  0  0  0  0  0  0  0  0
  -20.8490  -29.8540   21.7190 H   0  0  0  0  0  0  0  0  0  0  0  0
  -17.9730  -28.1210   22.9370 C   0  0  0  0  0  0  0  0  0  0  0  0
  -20.5370  -28.3540   23.1720 C   0  0  0  0  0  3  0  0  0  0  0  0
  -20.6180  -26.9270   22.5790 C   0  0  0  0  0  2  0  0  0  0  0  0
  -19.4970  -26.6270   21.5800 C   0  0  0  0  0  2  0  0  0  0  0  0
  -18.1270  -26.7770   22.2470 C   0  0  0  0  0  2  0  0  0  0  0  0
  -19.1040  -28.8710   23.3580 C   0  0  0  0  0  0  0  0  0  0  0  0
  -18.9040  -30.1310   23.9600 C   0  0  0  0  0  3  0  0  0  0  0  0
  -17.6060  -30.6410   24.1500 C   0  0  0  0  0  3  0  0  0  0  0  0
  -16.4900  -29.8870   23.7470 C   0  0  0  0  0  3  0  0  0  0  0  0
  -16.6750  -28.6310   23.1450 C   0  0  0  0  0  3  0  0  0  0  0  0
  -25.8390  -32.5000   23.7790 C   0  0  0  0  0  3  0  0  0  0  0  0
  -25.5340  -33.8930   24.1330 N   0  0  0  0  0  0  0  0  0  0  0  0
  -25.8700  -34.9560   23.3910 C   0  0  0  0  0  0  0  0  0  0  0  0
  -26.5370  -34.8670   22.3550 O   0  0  0  0  0  0  0  0  0  0  0  0
  -24.9350  -34.0360   24.9330 H   0  0  0  0  0  0  0  0  0  0  0  0
  -24.1550  -36.7640   23.0620 C   0  0  0  0  0  1  0  0  0  0  0  0
  -25.3900  -36.3370   23.8700 C   0  0  0  0  0  3  0  0  0  0  0  0
  -27.5250  -37.1940   24.7290 C   0  0  0  0  0  1  0  0  0  0  0  0
  -26.4290  -37.3860   23.7830 N   0  0  0  0  0  0  0  0  0  0  0  0
  -26.0260  -38.3040   23.9430 H   0  0  0  0  0  0  0  0  0  0  0  0
  -26.3830  -31.7100   25.0330 C   0  0  1  0  0  0  0  0  0  0  0  0
  -25.3090  -31.4570   26.1150 C   0  0  0  0  0  1  0  0  0  0  0  0
  -26.9570  -30.3380   24.6070 C   0  0  0  0  0  1  0  0  0  0  0  0
  -27.5460  -32.4960   25.6820 C   0  0  0  0  0  1  0  0  0  0  0  0
  -31.2670  -20.4330   21.7800 C   0  0  0  0  0  2  0  0  0  0  0  0
  -30.2240  -19.3480   21.4290 C   0  0  0  0  0  2  0  0  0  0  0  0
  -30.7380  -17.8860   21.5770 C   0  0  0  0  0  2  0  0  0  0  0  0
  -29.9010  -16.8870   20.7430 C   0  0  0  0  0  2  0  0  0  0  0  0
  -30.7290  -14.5230   20.5270 C   0  0  0  0  0  0  0  0  0  0  0  0
  -30.4970  -12.3680   19.3480 C   0  0  0  0  0  2  0  0  0  0  0  0
  -29.5680  -12.5760   18.1320 C   0  0  0  0  0  2  0  0  0  0  0  0
  -28.0810  -12.4470   18.5240 C   0  0  0  0  0  2  0  0  0  0  0  0
  -27.7260  -13.2640   19.7970 C   0  0  0  0  0  3  0  0  0  0  0  0
  -28.7580  -12.9980   20.9160 C   0  0  0  0  0  2  0  0  0  0  0  0
  -30.0980  -13.3260   20.3910 N   0  0  0  0  0  0  0  0  0  0  0  0
  -31.8170  -14.7810   20.0010 O   0  0  0  0  0  0  0  0  0  0  0  0
  -29.9920  -15.4730   21.1300 N   0  0  0  0  0  0  0  0  0  0  0  0
  -29.1670  -15.1080   21.5850 H   0  0  0  0  0  0  0  0  0  0  0  0
  -25.3070  -13.8790   20.4420 C   0  0  0  0  0  0  0  0  0  0  0  0
  -24.2330  -13.1100   20.8000 C   0  0  0  0  0  0  0  0  0  0  0  0
  -24.6980  -11.7590   20.7980 C   0  0  0  0  0  0  0  0  0  0  0  0
  -26.3600  -12.9960   20.2450 N   0  0  0  0  0  0  0  0  0  0  0  0
  -25.9930  -11.7170   20.5140 N   0  0  0  0  0  0  0  0  0  0  0  0
  -23.9720  -10.4980   20.9940 C   0  0  0  0  0  0  0  0  0  0  0  0
  -24.3920   -9.5450   21.9490 C   0  0  0  0  0  3  0  0  0  0  0  0
  -23.6670   -8.3480   22.1330 C   0  0  0  0  0  3  0  0  0  0  0  0
  -22.5080   -8.0960   21.3610 C   0  0  0  0  0  0  0  0  0  0  0  0
  -22.1070   -9.0370   20.3970 C   0  0  0  0  0  3  0  0  0  0  0  0
  -22.8320  -10.2260   20.2100 C   0  0  0  0  0  3  0  0  0  0  0  0
  -21.7560   -6.9490   21.4530 O   0  0  0  0  0  0  0  0  0  0  0  0
  -21.6890   -6.2220   22.6140 C   0  0  0  0  0  0  0  0  0  0  0  0
  -21.2350   -6.7900   23.8250 C   0  0  0  0  0  3  0  0  0  0  0  0
  -21.1130   -5.9890   24.9780 C   0  0  0  0  0  3  0  0  0  0  0  0
  -21.4380   -4.6200   24.9220 C   0  0  0  0  0  0  0  0  0  0  0  0
  -21.8840   -4.0510   23.7180 C   0  0  0  0  0  3  0  0  0  0  0  0
  -22.0060   -4.8490   22.5670 C   0  0  0  0  0  0  0  0  0  0  0  0
  -22.4160   -4.2900   21.4030 F   0  0  0  0  0  0  0  0  0  0  0  0
  -21.3150   -3.8500   26.0280 F   0  0  0  0  0  0  0  0  0  0  0  0
  -22.8290  -13.5870   21.0380 C   0  0  0  0  0  0  0  0  0  0  0  0
  -22.0830  -12.9050   21.9010 N   0  0  0  0  0  0  0  0  0  0  0  0
  -22.3970  -14.6040   20.4950 O   0  0  0  0  0  0  0  0  0  0  0  0
  -22.4400  -12.0860   22.3710 H   0  0  0  0  0  0  0  0  0  0  0  0
  -21.1400  -13.2100   22.0980 H   0  0  0  0  0  0  0  0  0  0  0  0
  -25.4730  -15.2470   20.2450 N   0  0  0  0  0  0  0  0  0  0  0  0
  -24.7100  -15.9080   20.3300 H   0  0  0  0  0  0  0  0  0  0  0  0
  -26.3290  -15.6800   19.9220 H   0  0  0  0  0  0  0  0  0  0  0  0
  1  5  1  0
  3  1  2  0
  3  6  1  0
  4  2  1  0
  5 51  1  0
  5  2  2  0
  6  8  1  0
  6  4  2  0
  8  7  1  0
  9  8  1  0
 10 12  1  0
 10  9  1  0
 11 22  2  0
 12 17  1  0
 13 21  1  0
 13 23  1  0
 14 20  1  0
 14 16  1  0
 15 21  1  0
 16 15  1  0
 17 16  2  0
 18 19  1  0
 18 12  2  0
 19 14  2  0
 20 13  1  0
 21 11  1  0
 23 25  2  0
 24 23  1  0
 26 24  1  0
 27 36  2  0
 27 32  1  0
 28 24  1  0
 28 32  1  0
 29 28  1  0
 30 31  1  0
 30 29  1  0
 31 27  1  0
 32 33  2  0
 33 34  1  0
 35 34  2  0
 36 35  1  0
 37 11  1  0
 37 38  1  0
 37 47  1  0
 38 41  1  0
 39 43  1  0
 39 38  1  0
 40 39  2  0
 43 42  1  0
 45 43  1  0
 45 46  1  0
 45 44  1  0
 47 50  1  1
 47 48  1  0
 49 47  1  0
 52 53  1  0
 52 51  1  0
 54 63  1  0
 54 53  1  0
 55 63  1  0
 56 61  1  0
 57 58  1  0
 57 56  1  0
 59 58  1  0
 59 68  1  0
 59 60  1  0
 61 55  1  0
 61 60  1  0
 62 55  2  0
 63 64  1  0
 65 66  2  0
 66 85  1  0
 67 66  1  0
 67 70  1  0
 68 65  1  0
 68 69  1  0
 69 67  2  0
 70 71  1  0
 71 72  2  0
 73 76  1  0
 73 72  1  0
 74 73  2  0
 75 74  1  0
 75 70  2  0
 76 77  1  0
 77 78  1  0
 78 79  2  0
 80 79  1  0
 80 84  1  0
 81 80  2  0
 82 77  2  0
 82 81  1  0
 83 82  1  0
 85 86  1  0
 86 89  1  0
 86 88  1  0
 87 85  2  0
 90 91  1  0
 90 65  1  0
 92 90  1  0
M  ISO  4   9 101  10 101  55 100  63 100
M  END
>  <TORSDO>  (93) 
F 22

>  <SCORE>  (93) 
-13.225

>  <name>  (93) 
92

>  <ligand_id>  (93) 
92

>  <original_smiles>  (93) 
[H]c1c([H])c([H])c2c(c1[H])C([H])([H])C([H])([H])C([H])([H])C2([H])N([H])C(=O)C1([H])N(C(=O)C([H])(N([H])C(=O)C([H])(N([H])C([H])([H])[H])C([H])([H])[H])C(C([H])([H])[H])(C([H])([H])[H])C([H])([H])[H])C([H])([H])c2c([H])c(OC([H])([H])C([H])(c3c([H])c([H])c(C([H])([H])C([H])([H])C([H])([H])C([H])([H])N([H])C(=O)N4C([H])([H])C([H])([H])C([H])([H])C([H])(n5nc(-c6c([H])c([H])c(Oc7c([H])c([H])c(F)c([H])c7F)c([H])c6[H])c(C(=O)N([H])[H])c5N([H])[H])C4([H])[H])c([H])c3[H])C([H])([H])[H])c([H])c([H])c2C1([H])[H]

>  <smiles>  (93) 
[H]c1c([H])c([H])c2c(c1[H])C([H])([H])C([H])([H])C([H])([H])C2([H])N([H])C(=O)C1([H])N(C(=O)C([H])(N([H])C(=O)C([H])(N([H])C([H])([H])[H])C([H])([H])[H])C(C([H])([H])[H])(C([H])([H])[H])C([H])([H])[H])C([H])([H])c2c([H])c(OC([H])([H])C([H])(c3c([H])c([H])c(C([H])([H])C([H])([H])C([H])([H])C([H])([H])N([H])C(=O)N4C([H])([H])C([H])([H])C([H])([H])C([H])(n5nc(-c6c([H])c([H])c(Oc7c([H])c([H])c(F)c([H])c7F)c([H])c6[H])c(C(=O)N([H])[H])c5N([H])[H])C4([H])[H])c([H])c3[H])C([H])([H])[H])c([H])c([H])c2C1([H])[H]

$$$$
93:0:0
     RDKit          3D

 89 97  0  0  1  0  0  0  0  0999 V2000
  -29.2880  -20.5460   19.0360 C   0  0  0  0  0  3  0  0  0  0  0  0
  -28.8900  -21.9690   18.9270 C   0  0  0  0  0  3  0  0  0  0  0  0
  -29.3760  -20.7370   21.3150 C   0  0  0  0  0  3  0  0  0  0  0  0
  -29.5490  -19.7660   20.2360 C   0  0  0  0  0  0  0  0  0  0  0  0
  -28.6990  -22.9330   19.9990 C   0  0  0  0  0  0  0  0  0  0  0  0
  -28.9780  -22.1760   21.2200 C   0  0  0  0  0  0  0  0  0  0  0  0
  -28.8210  -22.9250   22.5320 C   0  0  0  0  0  1  0  0  0  0  0  0
  -29.8450  -16.8160   20.5230 C   0  0  0  0  0  3  0  0  0  0  0  0
  -30.2100  -18.2120   20.2590 C   0  0  0  0  0  0  0  0  0  0  0  0
  -30.6660  -15.4210   20.4370 C   0  0  0  0  0  0  0  0  0  0  0  0
  -30.6480  -12.9680   19.6200 C   0  0  0  0  0  2  0  0  0  0  0  0
  -29.7820  -12.7840   18.3490 C   0  0  0  0  0  2  0  0  0  0  0  0
  -28.3120  -12.5270   18.7260 C   0  0  0  0  0  2  0  0  0  0  0  0
  -27.8200  -13.4990   19.8270 C   0  0  0  0  0  3  0  0  0  0  0  0
  -28.8200  -13.6530   20.9910 C   0  0  0  0  0  2  0  0  0  0  0  0
  -30.0930  -14.1210   20.4200 N   0  0  0  0  0  0  0  0  0  0  0  0
  -31.8880  -15.3830   20.2360 O   0  0  0  0  0  0  0  0  0  0  0  0
  -25.4200  -14.0530   20.4880 C   0  0  0  0  0  0  0  0  0  0  0  0
  -24.3500  -13.2730   20.8280 C   0  0  0  0  0  0  0  0  0  0  0  0
  -24.8250  -11.9250   20.8310 C   0  0  0  0  0  0  0  0  0  0  0  0
  -26.4750  -13.1820   20.2910 N   0  0  0  0  0  0  0  0  0  0  0  0
  -26.1280  -11.8970   20.5670 N   0  0  0  0  0  0  0  0  0  0  0  0
  -24.0990  -10.6610   21.0100 C   0  0  0  0  0  0  0  0  0  0  0  0
  -24.4850   -9.7160   21.9860 C   0  0  0  0  0  3  0  0  0  0  0  0
  -23.7540   -8.5190   22.1520 C   0  0  0  0  0  3  0  0  0  0  0  0
  -22.6250   -8.2570   21.3410 C   0  0  0  0  0  0  0  0  0  0  0  0
  -22.2590   -9.1890   20.3540 C   0  0  0  0  0  3  0  0  0  0  0  0
  -22.9900  -10.3780   20.1860 C   0  0  0  0  0  3  0  0  0  0  0  0
  -21.8740   -7.1100   21.4130 O   0  0  0  0  0  0  0  0  0  0  0  0
  -21.7440   -6.4050   22.5840 C   0  0  0  0  0  0  0  0  0  0  0  0
  -21.1970   -6.9890   23.7470 C   0  0  0  0  0  3  0  0  0  0  0  0
  -21.0180   -6.2090   24.9070 C   0  0  0  0  0  3  0  0  0  0  0  0
  -21.3760   -4.8480   24.9050 C   0  0  0  0  0  0  0  0  0  0  0  0
  -21.9160   -4.2640   23.7450 C   0  0  0  0  0  3  0  0  0  0  0  0
  -22.0960   -5.0400   22.5870 C   0  0  0  0  0  0  0  0  0  0  0  0
  -22.5970   -4.4670   21.4660 F   0  0  0  0  0  0  0  0  0  0  0  0
  -21.1970   -4.0980   26.0160 F   0  0  0  0  0  0  0  0  0  0  0  0
  -22.9410  -13.7450   21.0370 C   0  0  0  0  0  0  0  0  0  0  0  0
  -22.1880  -13.0650   21.8940 N   0  0  0  0  0  0  0  0  0  0  0  0
  -22.5160  -14.7530   20.4740 O   0  0  0  0  0  0  0  0  0  0  0  0
  -22.5440  -12.2520   22.3720 H   0  0  0  0  0  0  0  0  0  0  0  0
  -21.2400  -13.3670   22.0780 H   0  0  0  0  0  0  0  0  0  0  0  0
  -25.5800  -15.4230   20.3030 N   0  0  0  0  0  0  0  0  0  0  0  0
  -24.8040  -16.0710   20.3820 H   0  0  0  0  0  0  0  0  0  0  0  0
  -26.4340  -15.8650   19.9880 H   0  0  0  0  0  0  0  0  0  0  0  0
  -31.4920  -18.3830   19.9160 O   0  0  0  0  0  0  0  0  0  0  0  0
  -31.6280  -19.3140   19.7880 H   0  0  0  0  0  0  0  0  0  0  0  0
  -27.9030  -24.4720   19.8200 C   0  0  0  0  0  2  0  0  0  0  0  0
  -28.2860  -26.0500   19.9340 O   0  0  0  0  0  0  0  0  0  0  0  0
  -24.6970  -31.8590   23.0940 C   0  0  0  0  0  0  0  0  0  0  0  0
  -27.2730  -27.1360   19.9040 C   0  0  0  0  0  0  0  0  0  0  0  0
  -23.4950  -30.4900   21.4390 C   0  0  0  0  0  3  0  0  0  0  0  0
  -24.9430  -28.9600   19.9470 C   0  0  0  0  0  0  0  0  0  0  0  0
  -26.0520  -30.7580   21.2520 C   0  0  0  0  0  2  0  0  0  0  0  0
  -26.1350  -29.3710   20.5580 C   0  0  0  0  0  0  0  0  0  0  0  0
  -27.2960  -28.4800   20.5150 C   0  0  0  0  0  3  0  0  0  0  0  0
  -26.0490  -26.8760   19.2440 C   0  0  0  0  0  3  0  0  0  0  0  0
  -24.9230  -27.7330   19.2690 C   0  0  0  0  0  3  0  0  0  0  0  0
  -23.7090  -29.8540   20.0390 C   0  0  0  0  0  2  0  0  0  0  0  0
  -24.7690  -31.0600   21.9820 N   0  0  0  0  0  0  0  0  0  0  0  0
  -23.6120  -32.1160   23.6430 O   0  0  0  0  0  0  0  0  0  0  0  0
  -22.8360  -29.4540   22.3870 C   0  0  0  0  0  0  0  0  0  0  0  0
  -21.5070  -29.2690   22.2790 N   0  0  0  0  0  0  0  0  0  0  0  0
  -23.5270  -28.8190   23.1890 O   0  0  0  0  0  0  0  0  0  0  0  0
  -21.0020  -29.8320   21.6090 H   0  0  0  0  0  0  0  0  0  0  0  0
  -18.1540  -27.9900   22.8110 C   0  0  0  0  0  0  0  0  0  0  0  0
  -20.7140  -28.2980   23.0390 C   0  0  0  0  0  3  0  0  0  0  0  0
  -20.8320  -26.8820   22.4280 C   0  0  0  0  0  2  0  0  0  0  0  0
  -19.7190  -26.5640   21.4240 C   0  0  0  0  0  2  0  0  0  0  0  0
  -18.3460  -26.6630   22.0940 C   0  0  0  0  0  2  0  0  0  0  0  0
  -19.2650  -28.7640   23.2410 C   0  0  0  0  0  0  0  0  0  0  0  0
  -19.0300  -30.0030   23.8760 C   0  0  0  0  0  3  0  0  0  0  0  0
  -17.7180  -30.4700   24.0810 C   0  0  0  0  0  3  0  0  0  0  0  0
  -16.6230  -29.6940   23.6650 C   0  0  0  0  0  3  0  0  0  0  0  0
  -16.8410  -28.4550   23.0360 C   0  0  0  0  0  3  0  0  0  0  0  0
  -25.9690  -32.5050   23.7200 C   0  0  0  0  0  3  0  0  0  0  0  0
  -26.5140  -31.7080   24.9700 C   0  0  1  0  0  0  0  0  0  0  0  0
  -25.4400  -31.4260   26.0480 C   0  0  0  0  0  1  0  0  0  0  0  0
  -27.1130  -30.3490   24.5420 C   0  0  0  0  0  1  0  0  0  0  0  0
  -27.6630  -32.5020   25.6360 C   0  0  0  0  0  1  0  0  0  0  0  0
  -25.6340  -33.8860   24.1060 N   0  0  0  0  0  0  0  0  0  0  0  0
  -25.9120  -34.9750   23.3760 C   0  0  0  0  0  0  0  0  0  0  0  0
  -26.5410  -34.9240   22.3180 O   0  0  0  0  0  0  0  0  0  0  0  0
  -25.0650  -33.9970   24.9330 H   0  0  0  0  0  0  0  0  0  0  0  0
  -24.1260  -36.7390   23.1720 C   0  0  0  0  0  1  0  0  0  0  0  0
  -25.4160  -36.3370   23.9050 C   0  0  0  0  0  3  0  0  0  0  0  0
  -27.5630  -37.2580   24.6640 C   0  0  0  0  0  1  0  0  0  0  0  0
  -26.4160  -37.4200   23.7730 N   0  0  0  0  0  0  0  0  0  0  0  0
  -25.9950  -38.3260   23.9620 H   0  0  0  0  0  0  0  0  0  0  0  0
  1  4  1  0
  2  1  2  0
  2  5  1  0
  4  9  1  0
  4  3  2  0
  5  6  2  0
  6  3  1  0
  6  7  1  0
  9  8  2  0
 10  8  1  0
 11 16  1  0
 12 13  1  0
 12 11  1  0
 14 13  1  0
 14 21  1  0
 14 15  1  0
 16 10  1  0
 16 15  1  0
 17 10  2  0
 18 19  2  0
 19 20  1  0
 19 38  1  0
 20 23  1  0
 21 18  1  0
 21 22  1  0
 22 20  2  0
 23 24  1  0
 24 25  2  0
 26 29  1  0
 26 25  1  0
 27 26  2  0
 28 27  1  0
 28 23  2  0
 29 30  1  0
 30 35  2  0
 30 31  1  0
 31 32  2  0
 33 32  1  0
 33 37  1  0
 34 33  2  0
 35 34  1  0
 36 35  1  0
 38 39  1  0
 39 42  1  0
 39 41  1  0
 40 38  2  0
 43 44  1  0
 43 18  1  0
 45 43  1  0
 46  9  1  0
 47 46  1  0
 48 49  1  0
 48  5  1  0
 50 61  2  0
 51 49  1  0
 51 56  1  0
 52 60  1  0
 52 62  1  0
 53 59  1  0
 53 55  1  0
 54 60  1  0
 55 54  1  0
 56 55  2  0
 57 58  1  0
 57 51  2  0
 58 53  2  0
 59 52  1  0
 60 50  1  0
 62 64  2  0
 63 62  1  0
 65 63  1  0
 66 75  2  0
 66 71  1  0
 67 63  1  0
 67 71  1  0
 68 67  1  0
 69 70  1  0
 69 68  1  0
 70 66  1  0
 71 72  2  0
 72 73  1  0
 74 73  2  0
 75 74  1  0
 76 50  1  0
 76 81  1  0
 76 77  1  0
 77 80  1  1
 77 78  1  0
 79 77  1  0
 81 84  1  0
 82 86  1  0
 82 81  1  0
 83 82  2  0
 86 85  1  0
 88 86  1  0
 88 89  1  0
 88 87  1  0
M  ISO  4   8 100  10 100  48 101  49 101
M  END
>  <TORSDO>  (94) 
F 19

>  <SCORE>  (94) 
-14.724

>  <name>  (94) 
93

>  <ligand_id>  (94) 
93

>  <original_smiles>  (94) 
[H]OC(=C([H])C(=O)N1C([H])([H])C([H])([H])C([H])([H])C([H])(n2nc(-c3c([H])c([H])c(Oc4c([H])c([H])c(F)c([H])c4F)c([H])c3[H])c(C(=O)N([H])[H])c2N([H])[H])C1([H])[H])c1c([H])c([H])c(C([H])([H])Oc2c([H])c([H])c3c(c2[H])C([H])([H])N(C(=O)C([H])(N([H])C(=O)C([H])(N([H])C([H])([H])[H])C([H])([H])[H])C(C([H])([H])[H])(C([H])([H])[H])C([H])([H])[H])C([H])(C(=O)N([H])C2([H])c4c([H])c([H])c([H])c([H])c4C([H])([H])C([H])([H])C2([H])[H])C3([H])[H])c(C([H])([H])[H])c1[H]

>  <smiles>  (94) 
[H]OC(=C([H])C(=O)N1C([H])([H])C([H])([H])C([H])([H])C([H])(n2nc(-c3c([H])c([H])c(Oc4c([H])c([H])c(F)c([H])c4F)c([H])c3[H])c(C(=O)N([H])[H])c2N([H])[H])C1([H])[H])c1c([H])c([H])c(C([H])([H])Oc2c([H])c([H])c3c(c2[H])C([H])([H])N(C(=O)C([H])(N([H])C(=O)C([H])(N([H])C([H])([H])[H])C([H])([H])[H])C(C([H])([H])[H])(C([H])([H])[H])C([H])([H])[H])C([H])(C(=O)N([H])C2([H])c4c([H])c([H])c([H])c([H])c4C([H])([H])C([H])([H])C2([H])[H])C3([H])[H])c(C([H])([H])[H])c1[H]

$$$$
94:0:0
     RDKit          3D

 96104  0  0  1  0  0  0  0  0999 V2000
  -28.4490  -23.0570   22.1610 C   0  0  0  0  0  3  0  0  0  0  0  0
  -27.6040  -24.0670   22.6330 C   0  0  0  0  0  3  0  0  0  0  0  0
  -29.2330  -24.5420   20.4090 C   0  0  0  0  0  3  0  0  0  0  0  0
  -29.2860  -23.2750   21.0480 C   0  0  0  0  0  0  0  0  0  0  0  0
  -27.5470  -25.3400   22.0090 C   0  0  0  0  0  0  0  0  0  0  0  0
  -28.3640  -25.5790   20.8550 C   0  0  0  0  0  0  0  0  0  0  0  0
  -30.2630  -22.1970   20.6190 C   0  0  0  0  0  0  0  0  0  0  0  0
  -29.8970  -20.9270   20.8750 N   0  0  0  0  0  0  0  0  0  0  0  0
  -31.3200  -22.4900   20.0600 O   0  0  0  0  0  0  0  0  0  0  0  0
  -28.9920  -20.8210   21.3080 H   0  0  0  0  0  0  0  0  0  0  0  0
  -30.6750  -19.6990   20.6650 C   0  0  0  0  0  2  0  0  0  0  0  0
  -29.7540  -18.4430   20.6800 C   0  0  0  0  0  2  0  0  0  0  0  0
  -29.9920  -17.4070   21.8110 C   0  0  0  0  0  2  0  0  0  0  0  0
  -31.6790  -15.6600   22.6190 C   0  0  0  0  0  1  0  0  0  0  0  0
  -30.8680  -16.1860   21.4240 C   0  0  0  0  0  3  0  0  0  0  0  0
  -30.3470  -14.3030   19.8680 C   0  0  0  0  0  0  0  0  0  0  0  0
  -29.9080  -12.1890   18.6700 C   0  0  0  0  0  2  0  0  0  0  0  0
  -28.8290  -12.3880   17.5920 C   0  0  0  0  0  2  0  0  0  0  0  0
  -27.4230  -12.1850   18.1850 C   0  0  0  0  0  2  0  0  0  0  0  0
  -27.2100  -12.9980   19.4910 C   0  0  0  0  0  3  0  0  0  0  0  0
  -28.3940  -12.8020   20.4660 C   0  0  0  0  0  2  0  0  0  0  0  0
  -29.6420  -13.1440   19.7590 N   0  0  0  0  0  0  0  0  0  0  0  0
  -31.2620  -14.6090   19.1000 O   0  0  0  0  0  0  0  0  0  0  0  0
  -30.0460  -15.0760   20.9210 N   0  0  0  0  0  0  0  0  0  0  0  0
  -29.2830  -14.7610   21.5040 H   0  0  0  0  0  0  0  0  0  0  0  0
  -24.8850  -13.5000   20.4800 C   0  0  0  0  0  0  0  0  0  0  0  0
  -23.8970  -12.6770   20.9550 C   0  0  0  0  0  0  0  0  0  0  0  0
  -24.4010  -11.3470   20.8400 C   0  0  0  0  0  0  0  0  0  0  0  0
  -25.9310  -12.6640   20.1150 N   0  0  0  0  0  0  0  0  0  0  0  0
  -25.6470  -11.3630   20.3840 N   0  0  0  0  0  0  0  0  0  0  0  0
  -23.7510  -10.0540   21.0880 C   0  0  0  0  0  0  0  0  0  0  0  0
  -24.2650   -9.1370   22.0310 C   0  0  0  0  0  3  0  0  0  0  0  0
  -23.6130   -7.9070   22.2630 C   0  0  0  0  0  3  0  0  0  0  0  0
  -22.4320   -7.5850   21.5540 C   0  0  0  0  0  0  0  0  0  0  0  0
  -21.9360   -8.4920   20.6000 C   0  0  0  0  0  3  0  0  0  0  0  0
  -22.5900   -9.7130   20.3660 C   0  0  0  0  0  3  0  0  0  0  0  0
  -21.7430   -6.4040   21.6980 O   0  0  0  0  0  0  0  0  0  0  0  0
  -21.7140   -5.7280   22.8920 C   0  0  0  0  0  0  0  0  0  0  0  0
  -21.2080   -6.3160   24.0710 C   0  0  0  0  0  3  0  0  0  0  0  0
  -21.1330   -5.5610   25.2580 C   0  0  0  0  0  3  0  0  0  0  0  0
  -21.5560   -4.2170   25.2670 C   0  0  0  0  0  0  0  0  0  0  0  0
  -22.0560   -3.6290   24.0920 C   0  0  0  0  0  3  0  0  0  0  0  0
  -22.1330   -4.3820   22.9070 C   0  0  0  0  0  0  0  0  0  0  0  0
  -22.5960   -3.8040   21.7740 F   0  0  0  0  0  0  0  0  0  0  0  0
  -21.4780   -3.4900   26.4050 F   0  0  0  0  0  0  0  0  0  0  0  0
  -22.5240  -13.0930   21.4030 C   0  0  0  0  0  0  0  0  0  0  0  0
  -21.9380  -12.3610   22.3430 N   0  0  0  0  0  0  0  0  0  0  0  0
  -21.9820  -14.1010   20.9510 O   0  0  0  0  0  0  0  0  0  0  0  0
  -22.3860  -11.5410   22.7230 H   0  0  0  0  0  0  0  0  0  0  0  0
  -21.0250  -12.6210   22.6890 H   0  0  0  0  0  0  0  0  0  0  0  0
  -24.9770  -14.8780   20.3120 N   0  0  0  0  0  0  0  0  0  0  0  0
  -24.2080  -15.5050   20.5220 H   0  0  0  0  0  0  0  0  0  0  0  0
  -25.7730  -15.3520   19.9000 H   0  0  0  0  0  0  0  0  0  0  0  0
  -25.8490  -26.0570   23.5950 C   0  0  0  0  0  1  0  0  0  0  0  0
  -26.7260  -26.3350   22.5010 O   0  0  0  0  0  0  0  0  0  0  0  0
  -28.3970  -26.7880   20.1500 O   0  0  0  0  0  0  0  0  0  0  0  0
  -24.5800  -31.9240   23.2370 C   0  0  0  0  0  0  0  0  0  0  0  0
  -27.2650  -27.5710   20.0770 C   0  0  0  0  0  0  0  0  0  0  0  0
  -23.3900  -30.5550   21.5490 C   0  0  0  0  0  3  0  0  0  0  0  0
  -24.8670  -29.0710   20.0840 C   0  0  0  0  0  0  0  0  0  0  0  0
  -25.9080  -30.9420   21.3700 C   0  0  0  0  0  2  0  0  0  0  0  0
  -26.0150  -29.5880   20.6960 C   0  0  0  0  0  0  0  0  0  0  0  0
  -27.2190  -28.8490   20.6840 C   0  0  0  0  0  3  0  0  0  0  0  0
  -26.1070  -27.0750   19.4400 C   0  0  0  0  0  3  0  0  0  0  0  0
  -24.9090  -27.8170   19.4440 C   0  0  0  0  0  3  0  0  0  0  0  0
  -23.6160  -29.9150   20.1520 C   0  0  0  0  0  2  0  0  0  0  0  0
  -24.6440  -31.1520   22.1130 N   0  0  0  0  0  0  0  0  0  0  0  0
  -23.4930  -32.1850   23.7720 O   0  0  0  0  0  0  0  0  0  0  0  0
  -22.7370  -29.5100   22.4810 C   0  0  0  0  0  0  0  0  0  0  0  0
  -21.4150  -29.3230   22.3410 N   0  0  0  0  0  0  0  0  0  0  0  0
  -23.4170  -28.8760   23.2930 O   0  0  0  0  0  0  0  0  0  0  0  0
  -20.9320  -29.8840   21.6540 H   0  0  0  0  0  0  0  0  0  0  0  0
  -18.0480  -28.0990   22.7910 C   0  0  0  0  0  0  0  0  0  0  0  0
  -20.6000  -28.3650   23.0860 C   0  0  0  0  0  3  0  0  0  0  0  0
  -20.7150  -26.9490   22.4780 C   0  0  0  0  0  2  0  0  0  0  0  0
  -19.6220  -26.6420   21.4460 C   0  0  0  0  0  2  0  0  0  0  0  0
  -18.2360  -26.7700   22.0800 C   0  0  0  0  0  2  0  0  0  0  0  0
  -19.1590  -28.8560   23.2490 C   0  0  0  0  0  0  0  0  0  0  0  0
  -18.9290  -30.1030   23.8720 C   0  0  0  0  0  3  0  0  0  0  0  0
  -17.6200  -30.5910   24.0400 C   0  0  0  0  0  3  0  0  0  0  0  0
  -16.5240  -29.8320   23.5970 C   0  0  0  0  0  3  0  0  0  0  0  0
  -16.7390  -28.5880   22.9790 C   0  0  0  0  0  3  0  0  0  0  0  0
  -25.8600  -32.5440   23.8800 C   0  0  0  0  0  3  0  0  0  0  0  0
  -25.5570  -33.9400   24.2150 N   0  0  0  0  0  0  0  0  0  0  0  0
  -25.9140  -34.9940   23.4730 C   0  0  0  0  0  0  0  0  0  0  0  0
  -26.6080  -34.8940   22.4560 O   0  0  0  0  0  0  0  0  0  0  0  0
  -24.9490  -34.0950   25.0080 H   0  0  0  0  0  0  0  0  0  0  0  0
  -24.2150  -36.8030   23.0710 C   0  0  0  0  0  1  0  0  0  0  0  0
  -25.4230  -36.3810   23.9250 C   0  0  0  0  0  3  0  0  0  0  0  0
  -27.5350  -37.2310   24.8460 C   0  0  0  0  0  1  0  0  0  0  0  0
  -26.4710  -37.4220   23.8640 N   0  0  0  0  0  0  0  0  0  0  0  0
  -26.0720  -38.3460   24.0130 H   0  0  0  0  0  0  0  0  0  0  0  0
  -26.3570  -31.7620   25.1560 C   0  0  1  0  0  0  0  0  0  0  0  0
  -25.2480  -31.5270   26.2080 C   0  0  0  0  0  1  0  0  0  0  0  0
  -26.9380  -30.3820   24.7660 C   0  0  0  0  0  1  0  0  0  0  0  0
  -27.5000  -32.5470   25.8440 C   0  0  0  0  0  1  0  0  0  0  0  0
  1  2  1  0
  3  6  2  0
  3  4  1  0
  4  1  2  0
  5 55  1  0
  5  2  2  0
  6  5  1  0
  7  8  1  0
  7  4  1  0
  8 10  1  0
  9  7  2  0
 11 12  1  0
 11  8  1  0
 12 13  1  0
 15 13  1  0
 15 14  1  0
 16 24  1  0
 17 22  1  0
 18 19  1  0
 18 17  1  0
 20 19  1  0
 20 29  1  0
 20 21  1  0
 22 16  1  0
 22 21  1  0
 23 16  2  0
 24 15  1  0
 24 25  1  0
 26 27  2  0
 27 46  1  0
 28 27  1  0
 28 31  1  0
 29 30  1  0
 29 26  1  0
 30 28  2  0
 31 32  1  0
 32 33  2  0
 34 37  1  0
 34 33  1  0
 35 34  2  0
 36 35  1  0
 36 31  2  0
 37 38  1  0
 38 43  2  0
 38 39  1  0
 39 40  2  0
 40 41  1  0
 41 45  1  0
 42 41  2  0
 43 42  1  0
 44 43  1  0
 46 47  1  0
 47 50  1  0
 47 49  1  0
 48 46  2  0
 51 26  1  0
 51 52  1  0
 53 51  1  0
 55 54  1  0
 56  6  1  0
 57 68  2  0
 58 56  1  0
 58 63  1  0
 59 67  1  0
 59 69  1  0
 60 66  1  0
 60 62  1  0
 61 67  1  0
 62 61  1  0
 63 62  2  0
 64 65  1  0
 64 58  2  0
 65 60  2  0
 66 59  1  0
 67 57  1  0
 69 71  2  0
 70 69  1  0
 72 70  1  0
 73 82  2  0
 73 78  1  0
 74 70  1  0
 74 78  1  0
 75 74  1  0
 76 77  1  0
 76 75  1  0
 77 73  1  0
 78 79  2  0
 79 80  1  0
 81 80  2  0
 82 81  1  0
 83 57  1  0
 83 84  1  0
 83 93  1  0
 84 87  1  0
 85 89  1  0
 85 84  1  0
 86 85  2  0
 89 88  1  0
 91 89  1  0
 91 92  1  0
 91 90  1  0
 93 96  1  1
 93 94  1  0
 95 93  1  0
M  ISO  4   6 101  16 100  24 100  56 101
M  END
>  <TORSDO>  (95) 
F 22

>  <SCORE>  (95) 
-10.668

>  <name>  (95) 
94

>  <ligand_id>  (95) 
94

>  <original_smiles>  (95) 
[H]c1c([H])c([H])c2c(c1[H])C([H])([H])C([H])([H])C([H])([H])C2([H])N([H])C(=O)C1([H])N(C(=O)C([H])(N([H])C(=O)C([H])(N([H])C([H])([H])[H])C([H])([H])[H])C(C([H])([H])[H])(C([H])([H])[H])C([H])([H])[H])C([H])([H])c2c([H])c(Oc3c([H])c(C(=O)N([H])C([H])([H])C([H])([H])C([H])([H])C([H])(N([H])C(=O)N4C([H])([H])C([H])([H])C([H])([H])C([H])(n5nc(-c6c([H])c([H])c(Oc7c([H])c([H])c(F)c([H])c7F)c([H])c6[H])c(C(=O)N([H])[H])c5N([H])[H])C4([H])[H])C([H])([H])[H])c([H])c([H])c3OC([H])([H])[H])c([H])c([H])c2C1([H])[H]

>  <smiles>  (95) 
[H]c1c([H])c([H])c2c(c1[H])C([H])([H])C([H])([H])C([H])([H])C2([H])N([H])C(=O)C1([H])N(C(=O)C([H])(N([H])C(=O)C([H])(N([H])C([H])([H])[H])C([H])([H])[H])C(C([H])([H])[H])(C([H])([H])[H])C([H])([H])[H])C([H])([H])c2c([H])c(Oc3c([H])c(C(=O)N([H])C([H])([H])C([H])([H])C([H])([H])C([H])(N([H])C(=O)N4C([H])([H])C([H])([H])C([H])([H])C([H])(n5nc(-c6c([H])c([H])c(Oc7c([H])c([H])c(F)c([H])c7F)c([H])c6[H])c(C(=O)N([H])[H])c5N([H])[H])C4([H])[H])C([H])([H])[H])c([H])c([H])c3OC([H])([H])[H])c([H])c([H])c2C1([H])[H]

$$$$
95:0:0
     RDKit          3D

 92100  0  0  1  0  0  0  0  0999 V2000
  -29.8780  -19.4830   20.3950 C   0  0  0  0  0  3  0  0  0  0  0  0
  -30.5070  -18.3660   20.9930 C   0  0  0  0  0  3  0  0  0  0  0  0
  -29.6730  -18.0870   18.4360 C   0  0  0  0  0  3  0  0  0  0  0  0
  -29.4160  -19.4800   19.0690 C   0  0  0  0  0  0  0  0  0  0  0  0
  -30.7590  -17.0990   20.3730 C   0  0  0  0  0  0  0  0  0  0  0  0
  -30.3270  -16.8100   19.0280 C   0  0  0  0  0  0  0  0  0  0  0  0
  -30.7670  -15.3330   18.3210 C   0  0  0  0  0  0  0  0  0  0  0  0
  -30.4240  -12.9060   17.4370 C   0  0  0  0  0  2  0  0  0  0  0  0
  -29.1600  -12.7520   16.5500 C   0  0  0  0  0  2  0  0  0  0  0  0
  -27.9190  -12.4660   17.4130 C   0  0  0  0  0  2  0  0  0  0  0  0
  -27.8620  -13.3950   18.6460 C   0  0  0  0  0  3  0  0  0  0  0  0
  -29.2080  -13.4960   19.3850 C   0  0  0  0  0  2  0  0  0  0  0  0
  -30.2110  -14.0190   18.4420 N   0  0  0  0  0  0  0  0  0  0  0  0
  -31.7480  -15.3400   17.5630 O   0  0  0  0  0  0  0  0  0  0  0  0
  -26.0070  -13.9410   20.3070 C   0  0  0  0  0  0  0  0  0  0  0  0
  -25.0490  -13.1750   20.9110 C   0  0  0  0  0  0  0  0  0  0  0  0
  -25.2940  -11.8320   20.4900 C   0  0  0  0  0  0  0  0  0  0  0  0
  -26.7670  -13.0690   19.5500 N   0  0  0  0  0  0  0  0  0  0  0  0
  -26.3760  -11.7790   19.7220 N   0  0  0  0  0  0  0  0  0  0  0  0
  -24.5190  -10.6050   20.7290 C   0  0  0  0  0  0  0  0  0  0  0  0
  -24.9750   -9.6010   21.6110 C   0  0  0  0  0  3  0  0  0  0  0  0
  -24.2020   -8.4420   21.8380 C   0  0  0  0  0  3  0  0  0  0  0  0
  -22.9590   -8.2780   21.1830 C   0  0  0  0  0  0  0  0  0  0  0  0
  -22.5200   -9.2690   20.2880 C   0  0  0  0  0  3  0  0  0  0  0  0
  -23.2930  -10.4200   20.0590 C   0  0  0  0  0  3  0  0  0  0  0  0
  -22.1530   -7.1730   21.3210 O   0  0  0  0  0  0  0  0  0  0  0  0
  -21.8710   -6.6380   22.5530 C   0  0  0  0  0  0  0  0  0  0  0  0
  -21.2710   -7.4010   23.5770 C   0  0  0  0  0  3  0  0  0  0  0  0
  -20.9350   -6.7930   24.8030 C   0  0  0  0  0  3  0  0  0  0  0  0
  -21.1880   -5.4220   25.0040 C   0  0  0  0  0  0  0  0  0  0  0  0
  -21.7810   -4.6600   23.9820 C   0  0  0  0  0  3  0  0  0  0  0  0
  -22.1190   -5.2650   22.7590 C   0  0  0  0  0  0  0  0  0  0  0  0
  -22.6690   -4.5210   21.7710 F   0  0  0  0  0  0  0  0  0  0  0  0
  -20.8590   -4.8370   26.1790 F   0  0  0  0  0  0  0  0  0  0  0  0
  -23.9100  -13.6770   21.7490 C   0  0  0  0  0  0  0  0  0  0  0  0
  -23.4920  -12.9020   22.7430 N   0  0  0  0  0  0  0  0  0  0  0  0
  -23.4160  -14.7870   21.5530 O   0  0  0  0  0  0  0  0  0  0  0  0
  -23.9120  -12.0010   22.9150 H   0  0  0  0  0  0  0  0  0  0  0  0
  -22.7420  -13.2160   23.3410 H   0  0  0  0  0  0  0  0  0  0  0  0
  -26.2820  -15.3050   20.3140 N   0  0  0  0  0  0  0  0  0  0  0  0
  -25.6900  -15.9670   20.8030 H   0  0  0  0  0  0  0  0  0  0  0  0
  -26.9900  -15.7550   19.7480 H   0  0  0  0  0  0  0  0  0  0  0  0
  -31.6030  -16.1470   21.1810 C   0  0  0  0  0  0  0  0  0  0  0  0
  -32.8150  -15.9990   20.9990 O   0  0  0  0  0  0  0  0  0  0  0  0
  -30.9470  -15.3120   22.3120 C   0  0  0  0  0  0  0  0  0  0  0  0
  -30.5140  -13.8880   21.9880 C   0  0  0  0  0  1  0  0  0  0  0  0
  -30.7940  -15.7790   23.4470 O   0  0  0  0  0  0  0  0  0  0  0  0
  -28.6640  -20.9440   18.5700 C   0  0  0  0  0  0  0  0  0  0  0  0
  -28.0400  -20.8650   17.5100 O   0  0  0  0  0  0  0  0  0  0  0  0
  -28.6260  -22.5650   19.2410 C   0  0  0  0  0  2  0  0  0  0  0  0
  -27.7370  -24.0790   18.8030 C   0  0  0  0  0  2  0  0  0  0  0  0
  -27.9100  -25.7000   19.0860 O   0  0  0  0  0  0  0  0  0  0  0  0
  -24.7040  -31.5250   22.6430 C   0  0  0  0  0  0  0  0  0  0  0  0
  -26.8860  -26.7850   19.1500 C   0  0  0  0  0  0  0  0  0  0  0  0
  -23.3190  -30.1730   21.1230 C   0  0  0  0  0  3  0  0  0  0  0  0
  -24.5850  -28.6370   19.4650 C   0  0  0  0  0  0  0  0  0  0  0  0
  -25.8430  -30.4180   20.6580 C   0  0  0  0  0  2  0  0  0  0  0  0
  -25.8370  -29.0340   19.9460 C   0  0  0  0  0  0  0  0  0  0  0  0
  -26.9770  -28.1280   19.7710 C   0  0  0  0  0  3  0  0  0  0  0  0
  -25.5980  -26.5460   18.6180 C   0  0  0  0  0  3  0  0  0  0  0  0
  -24.4870  -27.4150   18.7780 C   0  0  0  0  0  3  0  0  0  0  0  0
  -23.3750  -29.5400   19.7050 C   0  0  0  0  0  2  0  0  0  0  0  0
  -24.6510  -30.7310   21.5260 N   0  0  0  0  0  0  0  0  0  0  0  0
  -23.6890  -31.7850   23.3100 O   0  0  0  0  0  0  0  0  0  0  0  0
  -22.7620  -29.1360   22.1330 C   0  0  0  0  0  0  0  0  0  0  0  0
  -21.4520  -28.8390   22.0610 N   0  0  0  0  0  0  0  0  0  0  0  0
  -23.5150  -28.6000   22.9500 O   0  0  0  0  0  0  0  0  0  0  0  0
  -20.8900  -29.3280   21.3770 H   0  0  0  0  0  0  0  0  0  0  0  0
  -18.2370  -27.2750   22.6830 C   0  0  0  0  0  0  0  0  0  0  0  0
  -20.7540  -27.8430   22.8810 C   0  0  0  0  0  3  0  0  0  0  0  0
  -21.0090  -26.4110   22.3550 C   0  0  0  0  0  2  0  0  0  0  0  0
  -19.9340  -25.9280   21.3760 C   0  0  0  0  0  2  0  0  0  0  0  0
  -18.5570  -25.9340   22.0460 C   0  0  0  0  0  2  0  0  0  0  0  0
  -19.2670  -28.1780   23.0610 C   0  0  0  0  0  0  0  0  0  0  0  0
  -18.9130  -29.4230   23.6230 C   0  0  0  0  0  3  0  0  0  0  0  0
  -17.5620  -29.7730   23.8070 C   0  0  0  0  0  3  0  0  0  0  0  0
  -16.5470  -28.8720   23.4430 C   0  0  0  0  0  3  0  0  0  0  0  0
  -16.8860  -27.6240   22.8870 C   0  0  0  0  0  3  0  0  0  0  0  0
  -26.0410  -32.1620   23.1300 C   0  0  0  0  0  3  0  0  0  0  0  0
  -25.7280  -33.4620   23.7500 N   0  0  0  0  0  0  0  0  0  0  0  0
  -25.8980  -34.6530   23.1630 C   0  0  0  0  0  0  0  0  0  0  0  0
  -26.4000  -34.7780   22.0430 O   0  0  0  0  0  0  0  0  0  0  0  0
  -25.2600  -33.4330   24.6430 H   0  0  0  0  0  0  0  0  0  0  0  0
  -24.0940  -36.3970   23.3890 C   0  0  0  0  0  1  0  0  0  0  0  0
  -25.4430  -35.9070   23.9390 C   0  0  0  0  0  3  0  0  0  0  0  0
  -27.6440  -36.7350   24.6530 C   0  0  0  0  0  1  0  0  0  0  0  0
  -26.4240  -37.0150   23.9000 N   0  0  0  0  0  0  0  0  0  0  0  0
  -26.0170  -37.8720   24.2650 H   0  0  0  0  0  0  0  0  0  0  0  0
  -26.8240  -31.2480   24.1540 C   0  0  1  0  0  0  0  0  0  0  0  0
  -25.9390  -30.6940   25.2950 C   0  0  0  0  0  1  0  0  0  0  0  0
  -27.4700  -30.0410   23.4370 C   0  0  0  0  0  1  0  0  0  0  0  0
  -27.9820  -32.0510   24.7920 C   0  0  0  0  0  1  0  0  0  0  0  0
  1  2  1  0
  3  6  2  0
  3  4  1  0
  4  1  2  0
  5  2  2  0
  5 43  1  0
  6  5  1  0
  7 13  1  0
  7  6  1  0
  8 13  1  0
  9 10  1  0
  9  8  1  0
 11 10  1  0
 11 12  1  0
 11 18  1  0
 13 12  1  0
 14  7  2  0
 15 40  1  0
 15 16  2  0
 16 35  1  0
 17 20  1  0
 17 16  1  0
 18 19  1  0
 18 15  1  0
 19 17  2  0
 20 21  1  0
 21 22  2  0
 23 26  1  0
 23 22  1  0
 24 23  2  0
 25 24  1  0
 25 20  2  0
 26 27  1  0
 27 32  2  0
 27 28  1  0
 28 29  2  0
 29 30  1  0
 30 34  1  0
 31 30  2  0
 32 31  1  0
 33 32  1  0
 35 36  1  0
 36 38  1  0
 36 39  1  0
 37 35  2  0
 40 41  1  0
 42 40  1  0
 43 45  1  0
 44 43  2  0
 45 47  2  0
 46 45  1  0
 48  4  1  0
 48 50  1  0
 49 48  2  0
 51 52  1  0
 51 50  1  0
 52 54  1  0
 53 64  2  0
 54 59  1  0
 55 63  1  0
 55 65  1  0
 56 62  1  0
 56 58  1  0
 57 63  1  0
 58 57  1  0
 59 58  2  0
 60 61  1  0
 60 54  2  0
 61 56  2  0
 62 55  1  0
 63 53  1  0
 65 67  2  0
 66 65  1  0
 68 66  1  0
 69 78  2  0
 69 74  1  0
 70 66  1  0
 70 74  1  0
 71 70  1  0
 72 73  1  0
 72 71  1  0
 73 69  1  0
 74 75  2  0
 75 76  1  0
 77 76  2  0
 78 77  1  0
 79 53  1  0
 79 80  1  0
 79 89  1  0
 80 83  1  0
 81 80  1  0
 81 85  1  0
 82 81  2  0
 85 84  1  0
 87 85  1  0
 87 88  1  0
 87 86  1  0
 89 92  1  1
 89 90  1  0
 91 89  1  0
M  ISO  4   6 100   7 100  51 101  52 101
M  END
>  <TORSDO>  (96) 
F 21

>  <SCORE>  (96) 
-4.182

>  <name>  (96) 
95

>  <ligand_id>  (96) 
95

>  <original_smiles>  (96) 
[H]c1c([H])c([H])c2c(c1[H])C([H])([H])C([H])([H])C([H])([H])C2([H])N([H])C(=O)C1([H])N(C(=O)C([H])(N([H])C(=O)C([H])(N([H])C([H])([H])[H])C([H])([H])[H])C(C([H])([H])[H])(C([H])([H])[H])C([H])([H])[H])C([H])([H])c2c([H])c(OC([H])([H])C([H])([H])C(=O)c3c([H])c([H])c(C(=O)C(=O)C([H])([H])[H])c(C(=O)N4C([H])([H])C([H])([H])C([H])([H])C([H])(n5nc(-c6c([H])c([H])c(Oc7c([H])c([H])c(F)c([H])c7F)c([H])c6[H])c(C(=O)N([H])[H])c5N([H])[H])C4([H])[H])c3[H])c([H])c([H])c2C1([H])[H]

>  <smiles>  (96) 
[H]c1c([H])c([H])c2c(c1[H])C([H])([H])C([H])([H])C([H])([H])C2([H])N([H])C(=O)C1([H])N(C(=O)C([H])(N([H])C(=O)C([H])(N([H])C([H])([H])[H])C([H])([H])[H])C(C([H])([H])[H])(C([H])([H])[H])C([H])([H])[H])C([H])([H])c2c([H])c(OC([H])([H])C([H])([H])C(=O)c3c([H])c([H])c(C(=O)C(=O)C([H])([H])[H])c(C(=O)N4C([H])([H])C([H])([H])C([H])([H])C([H])(n5nc(-c6c([H])c([H])c(Oc7c([H])c([H])c(F)c([H])c7F)c([H])c6[H])c(C(=O)N([H])[H])c5N([H])[H])C4([H])[H])c3[H])c([H])c([H])c2C1([H])[H]

$$$$
96:0:0
     RDKit          3D

 95103  0  0  1  0  0  0  0  0999 V2000
  -29.1100  -22.1040   18.2400 C   0  0  0  0  0  1  0  0  0  0  0  0
  -29.4620  -22.0800   19.7350 C   0  0  0  0  0  3  0  0  0  0  0  0
  -28.9090  -19.5720   20.1970 C   0  0  0  0  0  3  0  0  0  0  0  0
  -31.5920  -19.0230   20.7730 C   0  0  0  0  0  3  0  0  0  0  0  0
  -29.3050  -18.2510   20.5480 C   0  0  0  0  0  0  0  0  0  0  0  0
  -29.8450  -20.6380   20.1560 C   0  0  0  0  0  0  0  0  0  0  0  0
  -30.6650  -17.9580   20.8350 C   0  0  0  0  0  0  0  0  0  0  0  0
  -31.1950  -20.3350   20.4420 C   0  0  0  0  0  0  0  0  0  0  0  0
  -28.2440  -17.1700   20.6350 C   0  0  0  0  0  1  0  0  0  0  0  0
  -32.1340  -21.3100   20.3900 F   0  0  0  0  0  0  0  0  0  0  0  0
  -31.1720  -16.5830   21.3250 C   0  0  0  0  0  2  0  0  0  0  0  0
  -31.0900  -14.3850   20.0940 C   0  0  0  0  0  0  0  0  0  0  0  0
  -30.6860  -12.2290   18.9450 C   0  0  0  0  0  2  0  0  0  0  0  0
  -29.6870  -12.4190   17.7860 C   0  0  0  0  0  2  0  0  0  0  0  0
  -28.2350  -12.3090   18.2900 C   0  0  0  0  0  2  0  0  0  0  0  0
  -27.9730  -13.1740   19.5510 C   0  0  0  0  0  3  0  0  0  0  0  0
  -29.0730  -12.9510   20.6100 C   0  0  0  0  0  2  0  0  0  0  0  0
  -30.3730  -13.2320   19.9770 N   0  0  0  0  0  0  0  0  0  0  0  0
  -32.1730  -14.5560   19.5270 O   0  0  0  0  0  0  0  0  0  0  0  0
  -30.5200  -15.3580   20.8290 N   0  0  0  0  0  0  0  0  0  0  0  0
  -29.6150  -15.1420   21.2160 H   0  0  0  0  0  0  0  0  0  0  0  0
  -25.6330  -13.8420   20.3900 C   0  0  0  0  0  0  0  0  0  0  0  0
  -24.5630  -13.0960   20.8060 C   0  0  0  0  0  0  0  0  0  0  0  0
  -24.9790  -11.7320   20.7280 C   0  0  0  0  0  0  0  0  0  0  0  0
  -26.6380  -12.9330   20.0940 N   0  0  0  0  0  0  0  0  0  0  0  0
  -26.2500  -11.6580   20.3530 N   0  0  0  0  0  0  0  0  0  0  0  0
  -24.2240  -10.4900   20.9330 C   0  0  0  0  0  0  0  0  0  0  0  0
  -24.6370   -9.5210   21.8740 C   0  0  0  0  0  3  0  0  0  0  0  0
  -23.8820   -8.3430   22.0650 C   0  0  0  0  0  3  0  0  0  0  0  0
  -22.7000   -8.1280   21.3180 C   0  0  0  0  0  0  0  0  0  0  0  0
  -22.3070   -9.0850   20.3660 C   0  0  0  0  0  3  0  0  0  0  0  0
  -23.0610  -10.2540   20.1720 C   0  0  0  0  0  3  0  0  0  0  0  0
  -21.9180   -7.0030   21.4190 O   0  0  0  0  0  0  0  0  0  0  0  0
  -21.8100   -6.3060   22.5960 C   0  0  0  0  0  0  0  0  0  0  0  0
  -21.3330   -6.9100   23.7790 C   0  0  0  0  0  3  0  0  0  0  0  0
  -21.1720   -6.1390   24.9480 C   0  0  0  0  0  3  0  0  0  0  0  0
  -21.4780   -4.7660   24.9340 C   0  0  0  0  0  0  0  0  0  0  0  0
  -21.9470   -4.1610   23.7550 C   0  0  0  0  0  3  0  0  0  0  0  0
  -22.1100   -4.9290   22.5890 C   0  0  0  0  0  0  0  0  0  0  0  0
  -22.5430   -4.3370   21.4500 F   0  0  0  0  0  0  0  0  0  0  0  0
  -21.3160   -4.0230   26.0540 F   0  0  0  0  0  0  0  0  0  0  0  0
  -23.1990  -13.6120   21.1600 C   0  0  0  0  0  0  0  0  0  0  0  0
  -22.4970  -12.9270   22.0550 N   0  0  0  0  0  0  0  0  0  0  0  0
  -22.7650  -14.6580   20.6780 O   0  0  0  0  0  0  0  0  0  0  0  0
  -22.8610  -12.0790   22.4640 H   0  0  0  0  0  0  0  0  0  0  0  0
  -21.5830  -13.2530   22.3360 H   0  0  0  0  0  0  0  0  0  0  0  0
  -25.8240  -15.2080   20.2150 N   0  0  0  0  0  0  0  0  0  0  0  0
  -25.0710  -15.8720   20.3500 H   0  0  0  0  0  0  0  0  0  0  0  0
  -26.6390  -15.6120   19.7750 H   0  0  0  0  0  0  0  0  0  0  0  0
  -28.3780  -22.6990   20.5530 N   0  0  0  0  0  4  0  0  0  0  0  0
  -27.4930  -22.5290   20.1030 H   0  0  0  0  0  0  0  0  0  0  0  0
  -28.3580  -22.1860   21.4200 H   0  0  0  0  0  0  0  0  0  0  0  0
  -28.4910  -24.1500   20.9350 C   0  0  0  0  0  2  0  0  0  0  0  0
  -28.5670  -25.1880   19.7750 C   0  0  0  0  0  2  0  0  0  0  0  0
  -28.4800  -26.5600   20.2390 O   0  0  0  0  0  0  0  0  0  0  0  0
  -24.6350  -31.7770   23.2420 C   0  0  0  0  0  0  0  0  0  0  0  0
  -27.2860  -27.2710   20.2150 C   0  0  0  0  0  0  0  0  0  0  0  0
  -23.4390  -30.3730   21.5980 C   0  0  0  0  0  3  0  0  0  0  0  0
  -24.8990  -28.8180   20.1980 C   0  0  0  0  0  0  0  0  0  0  0  0
  -25.9720  -30.7080   21.4250 C   0  0  0  0  0  2  0  0  0  0  0  0
  -26.0560  -29.3310   20.7930 C   0  0  0  0  0  0  0  0  0  0  0  0
  -27.2490  -28.5670   20.7950 C   0  0  0  0  0  3  0  0  0  0  0  0
  -26.0970  -26.7770   19.6270 C   0  0  0  0  0  3  0  0  0  0  0  0
  -24.9160  -27.5420   19.6150 C   0  0  0  0  0  3  0  0  0  0  0  0
  -23.6600  -29.6850   20.2240 C   0  0  0  0  0  2  0  0  0  0  0  0
  -24.7010  -30.9690   22.1460 N   0  0  0  0  0  0  0  0  0  0  0  0
  -23.5490  -32.0580   23.7680 O   0  0  0  0  0  0  0  0  0  0  0  0
  -22.7720  -29.3600   22.5560 C   0  0  0  0  0  0  0  0  0  0  0  0
  -21.4460  -29.1960   22.4290 N   0  0  0  0  0  0  0  0  0  0  0  0
  -23.4470  -28.7230   23.3700 O   0  0  0  0  0  0  0  0  0  0  0  0
  -20.9630  -29.7620   21.7440 H   0  0  0  0  0  0  0  0  0  0  0  0
  -18.0510  -28.0690   22.9410 C   0  0  0  0  0  0  0  0  0  0  0  0
  -20.6140  -28.2690   23.1960 C   0  0  0  0  0  3  0  0  0  0  0  0
  -20.6830  -26.8410   22.6060 C   0  0  0  0  0  2  0  0  0  0  0  0
  -19.5660  -26.5520   21.5970 C   0  0  0  0  0  2  0  0  0  0  0  0
  -18.1920  -26.7210   22.2510 C   0  0  0  0  0  2  0  0  0  0  0  0
  -19.1880  -28.8020   23.3680 C   0  0  0  0  0  0  0  0  0  0  0  0
  -19.0020  -30.0660   23.9710 C   0  0  0  0  0  3  0  0  0  0  0  0
  -17.7100  -30.5940   24.1510 C   0  0  0  0  0  3  0  0  0  0  0  0
  -16.5870  -29.8570   23.7400 C   0  0  0  0  0  3  0  0  0  0  0  0
  -16.7580  -28.5970   23.1400 C   0  0  0  0  0  3  0  0  0  0  0  0
  -25.9170  -32.4070   23.8720 C   0  0  0  0  0  3  0  0  0  0  0  0
  -25.6080  -33.8060   24.1970 N   0  0  0  0  0  0  0  0  0  0  0  0
  -25.9440  -34.8560   23.4350 C   0  0  0  0  0  0  0  0  0  0  0  0
  -26.6160  -34.7480   22.4070 O   0  0  0  0  0  0  0  0  0  0  0  0
  -25.0110  -33.9630   24.9950 H   0  0  0  0  0  0  0  0  0  0  0  0
  -24.2190  -36.6490   23.0670 C   0  0  0  0  0  1  0  0  0  0  0  0
  -25.4560  -36.2450   23.8860 C   0  0  0  0  0  3  0  0  0  0  0  0
  -27.5840  -37.1350   24.7290 C   0  0  0  0  0  1  0  0  0  0  0  0
  -26.4890  -37.2970   23.7750 N   0  0  0  0  0  0  0  0  0  0  0  0
  -26.0820  -38.2170   23.9140 H   0  0  0  0  0  0  0  0  0  0  0  0
  -26.4240  -31.6350   25.1520 C   0  0  1  0  0  0  0  0  0  0  0  0
  -25.3230  -31.3960   26.2100 C   0  0  0  0  0  1  0  0  0  0  0  0
  -27.0120  -30.2580   24.7640 C   0  0  0  0  0  1  0  0  0  0  0  0
  -27.5660  -32.4310   25.8250 C   0  0  0  0  0  1  0  0  0  0  0  0
  2  1  1  0
  2  6  1  0
  2 50  1  0
  3  5  1  0
  4  7  1  0
  5  9  1  0
  5  7  2  0
  6  3  2  0
  6  8  1  0
  7 11  1  0
  8  4  2  0
 10  8  1  0
 12 20  1  0
 13 18  1  0
 14 15  1  0
 14 13  1  0
 16 15  1  0
 16 25  1  0
 16 17  1  0
 18 12  1  0
 18 17  1  0
 19 12  2  0
 20 21  1  0
 20 11  1  0
 22 23  2  0
 23 42  1  0
 24 23  1  0
 24 27  1  0
 25 26  1  0
 25 22  1  0
 26 24  2  0
 27 28  1  0
 28 29  2  0
 30 33  1  0
 30 29  1  0
 31 30  2  0
 32 31  1  0
 32 27  2  0
 33 34  1  0
 34 35  1  0
 35 36  2  0
 37 36  1  0
 37 41  1  0
 38 37  2  0
 39 34  2  0
 39 38  1  0
 40 39  1  0
 42 43  1  0
 43 46  1  0
 43 45  1  0
 44 42  2  0
 47 48  1  0
 47 22  1  0
 49 47  1  0
 50 53  1  0
 50 52  1  0
 51 50  1  0
 54 55  1  0
 54 53  1  0
 56 67  2  0
 57 55  1  0
 57 62  1  0
 58 66  1  0
 58 68  1  0
 59 65  1  0
 59 61  1  0
 60 66  1  0
 61 62  2  0
 61 60  1  0
 63 57  2  0
 64 63  1  0
 64 59  2  0
 65 58  1  0
 66 56  1  0
 68 70  2  0
 69 68  1  0
 71 69  1  0
 72 81  2  0
 72 77  1  0
 73 69  1  0
 73 77  1  0
 74 73  1  0
 75 76  1  0
 75 74  1  0
 76 72  1  0
 77 78  2  0
 78 79  1  0
 80 79  2  0
 81 80  1  0
 82 56  1  0
 82 83  1  0
 82 92  1  0
 83 86  1  0
 84 88  1  0
 84 83  1  0
 85 84  2  0
 88 87  1  0
 90 88  1  0
 90 91  1  0
 90 89  1  0
 92 95  1  1
 92 93  1  0
 94 92  1  0
M  ISO  4  12 100  20 100  54 101  55 101
M  END
>  <TORSDO>  (97) 
F 21

>  <SCORE>  (97) 
-13.494

>  <name>  (97) 
96

>  <ligand_id>  (97) 
96

>  <original_smiles>  (97) 
[H]c1c([H])c([H])c2c(c1[H])C([H])([H])C([H])([H])C([H])([H])C2([H])N([H])C(=O)C1([H])N(C(=O)C([H])(N([H])C(=O)C([H])(N([H])C([H])([H])[H])C([H])([H])[H])C(C([H])([H])[H])(C([H])([H])[H])C([H])([H])[H])C([H])([H])c2c([H])c(OC([H])([H])C([H])([H])[N+]([H])([H])C([H])(c3c([H])c(C([H])([H])[H])c(C([H])([H])N([H])C(=O)N4C([H])([H])C([H])([H])C([H])([H])C([H])(n5nc(-c6c([H])c([H])c(Oc7c([H])c([H])c(F)c([H])c7F)c([H])c6[H])c(C(=O)N([H])[H])c5N([H])[H])C4([H])[H])c([H])c3F)C([H])([H])[H])c([H])c([H])c2C1([H])[H]

>  <smiles>  (97) 
[H]c1c([H])c([H])c2c(c1[H])C([H])([H])C([H])([H])C([H])([H])C2([H])N([H])C(=O)C1([H])N(C(=O)C([H])(N([H])C(=O)C([H])(N([H])C([H])([H])[H])C([H])([H])[H])C(C([H])([H])[H])(C([H])([H])[H])C([H])([H])[H])C([H])([H])c2c([H])c(OC([H])([H])C([H])([H])[N+]([H])([H])C([H])(c3c([H])c(C([H])([H])[H])c(C([H])([H])N([H])C(=O)N4C([H])([H])C([H])([H])C([H])([H])C([H])(n5nc(-c6c([H])c([H])c(Oc7c([H])c([H])c(F)c([H])c7F)c([H])c6[H])c(C(=O)N([H])[H])c5N([H])[H])C4([H])[H])c([H])c3F)C([H])([H])[H])c([H])c([H])c2C1([H])[H]

$$$$
97:0:0
     RDKit          3D

 91 99  0  0  1  0  0  0  0  0999 V2000
  -29.3600  -21.1850   20.6240 C   0  0  0  0  0  3  0  0  0  0  0  0
  -27.1320  -20.7000   19.0260 C   0  0  0  0  0  3  0  0  0  0  0  0
  -29.0560  -19.8100   20.2570 C   0  0  0  0  0  0  0  0  0  0  0  0
  -28.5500  -22.3250   20.2170 C   0  0  0  0  0  0  0  0  0  0  0  0
  -27.9240  -19.6140   19.4380 C   0  0  0  0  0  0  0  0  0  0  0  0
  -27.4150  -22.0200   19.4250 C   0  0  0  0  0  0  0  0  0  0  0  0
  -27.5460  -18.3590   19.0900 F   0  0  0  0  0  0  0  0  0  0  0  0
  -26.5290  -22.9820   19.0750 F   0  0  0  0  0  0  0  0  0  0  0  0
  -29.7580  -18.5150   20.8470 C   0  0  0  0  0  2  0  0  0  0  0  0
  -30.1470  -17.2620   19.9120 C   0  0  0  0  0  2  0  0  0  0  0  0
  -30.7670  -14.7270   20.1150 C   0  0  0  0  0  0  0  0  0  0  0  0
  -30.4880  -12.4940   19.0560 C   0  0  0  0  0  2  0  0  0  0  0  0
  -29.5120  -12.6410   17.8680 C   0  0  0  0  0  2  0  0  0  0  0  0
  -28.0550  -12.4830   18.3410 C   0  0  0  0  0  2  0  0  0  0  0  0
  -27.7410  -13.3410   19.5950 C   0  0  0  0  0  3  0  0  0  0  0  0
  -28.8320  -13.1840   20.6810 C   0  0  0  0  0  2  0  0  0  0  0  0
  -30.1240  -13.5150   20.0660 N   0  0  0  0  0  0  0  0  0  0  0  0
  -31.9110  -14.8470   19.6740 O   0  0  0  0  0  0  0  0  0  0  0  0
  -30.0160  -15.8390   20.4430 N   0  0  0  0  0  0  0  0  0  0  0  0
  -29.1180  -15.6190   20.8460 H   0  0  0  0  0  0  0  0  0  0  0  0
  -25.3790  -13.9550   20.3940 C   0  0  0  0  0  0  0  0  0  0  0  0
  -24.3170  -13.1890   20.7910 C   0  0  0  0  0  0  0  0  0  0  0  0
  -24.7640  -11.8330   20.7370 C   0  0  0  0  0  0  0  0  0  0  0  0
  -26.4070  -13.0660   20.1210 N   0  0  0  0  0  0  0  0  0  0  0  0
  -26.0440  -11.7840   20.3900 N   0  0  0  0  0  0  0  0  0  0  0  0
  -24.0320  -10.5760   20.9430 C   0  0  0  0  0  0  0  0  0  0  0  0
  -24.4690   -9.6120   21.8770 C   0  0  0  0  0  3  0  0  0  0  0  0
  -23.7370   -8.4200   22.0700 C   0  0  0  0  0  3  0  0  0  0  0  0
  -22.5540   -8.1860   21.3290 C   0  0  0  0  0  0  0  0  0  0  0  0
  -22.1350   -9.1400   20.3870 C   0  0  0  0  0  3  0  0  0  0  0  0
  -22.8660  -10.3230   20.1920 C   0  0  0  0  0  3  0  0  0  0  0  0
  -21.7910   -7.0470   21.4330 O   0  0  0  0  0  0  0  0  0  0  0  0
  -21.7430   -6.3170   22.5940 C   0  0  0  0  0  0  0  0  0  0  0  0
  -21.2990   -6.8800   23.8100 C   0  0  0  0  0  3  0  0  0  0  0  0
  -21.1960   -6.0760   24.9620 C   0  0  0  0  0  3  0  0  0  0  0  0
  -21.5280   -4.7090   24.9000 C   0  0  0  0  0  0  0  0  0  0  0  0
  -21.9640   -4.1460   23.6880 C   0  0  0  0  0  3  0  0  0  0  0  0
  -22.0690   -4.9470   22.5390 C   0  0  0  0  0  0  0  0  0  0  0  0
  -22.4700   -4.3950   21.3680 F   0  0  0  0  0  0  0  0  0  0  0  0
  -21.4220   -3.9330   26.0040 F   0  0  0  0  0  0  0  0  0  0  0  0
  -22.9330  -13.6770   21.1070 C   0  0  0  0  0  0  0  0  0  0  0  0
  -22.2250  -12.9840   21.9920 N   0  0  0  0  0  0  0  0  0  0  0  0
  -22.4870  -14.7080   20.6030 O   0  0  0  0  0  0  0  0  0  0  0  0
  -22.5970  -12.1500   22.4190 H   0  0  0  0  0  0  0  0  0  0  0  0
  -21.2970  -13.2930   22.2450 H   0  0  0  0  0  0  0  0  0  0  0  0
  -25.5480  -15.3250   20.2230 N   0  0  0  0  0  0  0  0  0  0  0  0
  -24.7850  -15.9800   20.3600 H   0  0  0  0  0  0  0  0  0  0  0  0
  -26.3820  -15.7700   19.8600 H   0  0  0  0  0  0  0  0  0  0  0  0
  -28.7650  -23.8200   20.7330 C   0  0  0  0  0  3  0  0  0  0  0  0
  -28.5200  -25.0950   19.7760 C   0  0  0  0  0  3  0  0  0  0  0  0
  -28.4710  -26.4920   20.3210 O   0  0  0  0  0  0  0  0  0  0  0  0
  -24.5850  -31.8590   23.2320 C   0  0  0  0  0  0  0  0  0  0  0  0
  -27.3350  -27.3290   20.2180 C   0  0  0  0  0  0  0  0  0  0  0  0
  -23.4480  -30.4690   21.5430 C   0  0  0  0  0  3  0  0  0  0  0  0
  -24.9580  -28.9470   20.1500 C   0  0  0  0  0  0  0  0  0  0  0  0
  -25.9930  -30.8010   21.4510 C   0  0  0  0  0  2  0  0  0  0  0  0
  -26.1040  -29.4290   20.7940 C   0  0  0  0  0  0  0  0  0  0  0  0
  -27.2890  -28.6300   20.8240 C   0  0  0  0  0  3  0  0  0  0  0  0
  -26.1630  -26.9230   19.5340 C   0  0  0  0  0  3  0  0  0  0  0  0
  -24.9930  -27.7010   19.5130 C   0  0  0  0  0  3  0  0  0  0  0  0
  -23.7150  -29.8120   20.1630 C   0  0  0  0  0  2  0  0  0  0  0  0
  -24.6930  -31.0590   22.1320 N   0  0  0  0  0  0  0  0  0  0  0  0
  -23.4830  -32.1230   23.7340 O   0  0  0  0  0  0  0  0  0  0  0  0
  -22.7670  -29.4330   22.4690 C   0  0  0  0  0  0  0  0  0  0  0  0
  -21.4460  -29.2480   22.3060 N   0  0  0  0  0  0  0  0  0  0  0  0
  -23.4280  -28.7980   23.2950 O   0  0  0  0  0  0  0  0  0  0  0  0
  -20.9740  -29.8000   21.6040 H   0  0  0  0  0  0  0  0  0  0  0  0
  -18.0560  -28.0660   22.7510 C   0  0  0  0  0  0  0  0  0  0  0  0
  -20.6140  -28.2970   23.0450 C   0  0  0  0  0  3  0  0  0  0  0  0
  -20.7160  -26.8820   22.4300 C   0  0  0  0  0  2  0  0  0  0  0  0
  -19.6120  -26.5890   21.4080 C   0  0  0  0  0  2  0  0  0  0  0  0
  -18.2300  -26.7310   22.0500 C   0  0  0  0  0  2  0  0  0  0  0  0
  -19.1770  -28.8070   23.2100 C   0  0  0  0  0  0  0  0  0  0  0  0
  -18.9630  -30.0550   23.8340 C   0  0  0  0  0  3  0  0  0  0  0  0
  -17.6600  -30.5640   24.0030 C   0  0  0  0  0  3  0  0  0  0  0  0
  -16.5540  -29.8200   23.5570 C   0  0  0  0  0  3  0  0  0  0  0  0
  -16.7530  -28.5730   22.9380 C   0  0  0  0  0  3  0  0  0  0  0  0
  -25.8420  -32.4990   23.8980 C   0  0  0  0  0  3  0  0  0  0  0  0
  -26.3040  -31.7460   25.2060 C   0  0  1  0  0  0  0  0  0  0  0  0
  -25.1650  -31.5200   26.2260 C   0  0  0  0  0  1  0  0  0  0  0  0
  -26.9060  -30.3650   24.8600 C   0  0  0  0  0  1  0  0  0  0  0  0
  -27.4210  -32.5520   25.9080 C   0  0  0  0  0  1  0  0  0  0  0  0
  -25.5190  -33.9030   24.1970 N   0  0  0  0  0  0  0  0  0  0  0  0
  -25.8780  -34.9450   23.4360 C   0  0  0  0  0  0  0  0  0  0  0  0
  -26.5860  -34.8290   22.4310 O   0  0  0  0  0  0  0  0  0  0  0  0
  -24.8910  -34.0670   24.9700 H   0  0  0  0  0  0  0  0  0  0  0  0
  -24.1650  -36.7360   22.9920 C   0  0  0  0  0  1  0  0  0  0  0  0
  -25.3730  -36.3390   23.8570 C   0  0  0  0  0  3  0  0  0  0  0  0
  -27.4660  -37.2420   24.7680 C   0  0  0  0  0  1  0  0  0  0  0  0
  -26.4090  -37.3920   23.7730 N   0  0  0  0  0  0  0  0  0  0  0  0
  -25.9960  -38.3130   23.8850 H   0  0  0  0  0  0  0  0  0  0  0  0
  2  6  2  0
  2  5  1  0
  3  1  1  0
  3  9  1  0
  4  1  2  0
  4 49  1  0
  5  3  2  0
  6  4  1  0
  7  5  1  0
  8  6  1  0
 10 19  1  0
 10  9  1  0
 11 19  1  0
 12 17  1  0
 13 14  1  0
 13 12  1  0
 15 14  1  0
 15 24  1  0
 15 16  1  0
 17 11  1  0
 17 16  1  0
 18 11  2  0
 19 20  1  0
 21 22  2  0
 22 41  1  0
 23 22  1  0
 23 26  1  0
 24 25  1  0
 24 21  1  0
 25 23  2  0
 26 27  1  0
 27 28  2  0
 29 32  1  0
 29 28  1  0
 30 29  2  0
 31 30  1  0
 31 26  2  0
 32 33  1  0
 33 34  1  0
 34 35  2  0
 36 35  1  0
 36 40  1  0
 37 36  2  0
 38 33  2  0
 38 37  1  0
 39 38  1  0
 41 42  1  0
 42 45  1  0
 42 44  1  0
 43 41  2  0
 46 47  1  0
 46 21  1  0
 48 46  1  0
 50 51  1  0
 50 49  2  0
 52 63  2  0
 53 51  1  0
 53 58  1  0
 54 62  1  0
 54 64  1  0
 55 61  1  0
 55 57  1  0
 56 62  1  0
 57 58  2  0
 57 56  1  0
 59 53  2  0
 60 59  1  0
 60 55  2  0
 61 54  1  0
 62 52  1  0
 64 66  2  0
 65 64  1  0
 67 65  1  0
 68 77  2  0
 68 73  1  0
 69 65  1  0
 69 73  1  0
 70 69  1  0
 71 72  1  0
 71 70  1  0
 72 68  1  0
 73 74  2  0
 74 75  1  0
 76 75  2  0
 77 76  1  0
 78 52  1  0
 78 83  1  0
 78 79  1  0
 79 82  1  1
 79 80  1  0
 81 79  1  0
 83 86  1  0
 84 88  1  0
 84 83  1  0
 85 84  2  0
 88 87  1  0
 90 88  1  0
 90 91  1  0
 90 89  1  0
M  ISO  4  11 100  19 100  50 101  51 101
M  END
>  <TORSDO>  (98) 
F 20

>  <SCORE>  (98) 
-13.911

>  <name>  (98) 
97

>  <ligand_id>  (98) 
97

>  <original_smiles>  (98) 
[H]c1c([H])c([H])c2c(c1[H])C([H])([H])C([H])([H])C([H])([H])C2([H])N([H])C(=O)C1([H])N(C(=O)C([H])(N([H])C(=O)C([H])(N([H])C([H])([H])[H])C([H])([H])[H])C(C([H])([H])[H])(C([H])([H])[H])C([H])([H])[H])C([H])([H])c2c([H])c(OC([H])([H])C([H])([H])c3c([H])c(C([H])([H])C([H])([H])N([H])C(=O)N4C([H])([H])C([H])([H])C([H])([H])C([H])(n5nc(-c6c([H])c([H])c(Oc7c([H])c([H])c(F)c([H])c7F)c([H])c6[H])c(C(=O)N([H])[H])c5N([H])[H])C4([H])[H])c(F)c([H])c3F)c([H])c([H])c2C1([H])[H]

>  <smiles>  (98) 
[H]c1c([H])c([H])c2c(c1[H])C([H])([H])C([H])([H])C([H])([H])C2([H])N([H])C(=O)C1([H])N(C(=O)C([H])(N([H])C(=O)C([H])(N([H])C([H])([H])[H])C([H])([H])[H])C(C([H])([H])[H])(C([H])([H])[H])C([H])([H])[H])C([H])([H])c2c([H])c(OC([H])([H])C([H])([H])c3c([H])c(C([H])([H])C([H])([H])N([H])C(=O)N4C([H])([H])C([H])([H])C([H])([H])C([H])(n5nc(-c6c([H])c([H])c(Oc7c([H])c([H])c(F)c([H])c7F)c([H])c6[H])c(C(=O)N([H])[H])c5N([H])[H])C4([H])[H])c(F)c([H])c3F)c([H])c([H])c2C1([H])[H]

$$$$
