0:0:0
     RDKit          3D

 91 99  0  0  1  0  0  0  0  0999 V2000
  -30.0920  -21.0430   17.6190 C   0  0  0  0  0  3  0  0  0  0  0  0
  -29.0050  -20.1480   17.5800 C   0  0  0  0  0  3  0  0  0  0  0  0
  -29.4730  -21.5110   19.9100 C   0  0  0  0  0  3  0  0  0  0  0  0
  -30.3190  -21.7760   18.8000 C   0  0  0  0  0  0  0  0  0  0  0  0
  -28.4080  -19.7290   18.7910 C   0  0  0  0  0  0  0  0  0  0  0  0
  -29.1160  -19.9930   19.9930 C   0  0  0  0  0  3  0  0  0  0  0  0
  -31.3040  -22.9360   18.7610 C   0  0  0  0  0  1  0  0  0  0  0  0
  -27.1610  -18.8720   18.7220 C   0  0  0  0  0  1  0  0  0  0  0  0
  -28.8420  -22.9520   20.5680 C   0  0  0  0  0  0  0  0  0  0  0  0
  -28.6420  -22.9440   21.7870 O   0  0  0  0  0  0  0  0  0  0  0  0
  -28.3600  -24.4340   19.7890 C   0  0  0  0  0  2  0  0  0  0  0  0
  -28.3370  -25.9670   20.3610 O   0  0  0  0  0  0  0  0  0  0  0  0
  -24.6650  -31.8690   23.1970 C   0  0  0  0  0  0  0  0  0  0  0  0
  -27.3020  -27.0250   20.2240 C   0  0  0  0  0  0  0  0  0  0  0  0
  -23.4910  -30.4430   21.5660 C   0  0  0  0  0  3  0  0  0  0  0  0
  -24.9650  -28.8460   20.1590 C   0  0  0  0  0  0  0  0  0  0  0  0
  -26.0510  -30.6920   21.4260 C   0  0  0  0  0  2  0  0  0  0  0  0
  -26.1410  -29.2800   20.7830 C   0  0  0  0  0  0  0  0  0  0  0  0
  -27.2990  -28.3840   20.8000 C   0  0  0  0  0  3  0  0  0  0  0  0
  -26.0970  -26.7380   19.5420 C   0  0  0  0  0  3  0  0  0  0  0  0
  -24.9650  -27.5940   19.5230 C   0  0  0  0  0  3  0  0  0  0  0  0
  -23.7320  -29.7460   20.1970 C   0  0  0  0  0  2  0  0  0  0  0  0
  -24.7570  -31.0280   22.1160 N   0  0  0  0  0  0  0  0  0  0  0  0
  -23.5720  -32.1530   23.7130 O   0  0  0  0  0  0  0  0  0  0  0  0
  -22.8050  -29.4510   22.5390 C   0  0  0  0  0  0  0  0  0  0  0  0
  -21.4750  -29.2840   22.4230 N   0  0  0  0  0  0  0  0  0  0  0  0
  -23.4750  -28.8300   23.3680 O   0  0  0  0  0  0  0  0  0  0  0  0
  -20.9880  -29.8350   21.7290 H   0  0  0  0  0  0  0  0  0  0  0  0
  -18.0940  -28.0850   22.9630 C   0  0  0  0  0  0  0  0  0  0  0  0
  -20.6570  -28.3490   23.2010 C   0  0  0  0  0  3  0  0  0  0  0  0
  -20.7500  -26.9170   22.6260 C   0  0  0  0  0  2  0  0  0  0  0  0
  -19.6380  -26.5950   21.6220 C   0  0  0  0  0  2  0  0  0  0  0  0
  -18.2630  -26.7380   22.2800 C   0  0  0  0  0  2  0  0  0  0  0  0
  -19.2170  -28.8480   23.3800 C   0  0  0  0  0  0  0  0  0  0  0  0
  -19.0020  -30.1060   23.9840 C   0  0  0  0  0  3  0  0  0  0  0  0
  -17.6980  -30.6040   24.1680 C   0  0  0  0  0  3  0  0  0  0  0  0
  -16.5910  -29.8390   23.7630 C   0  0  0  0  0  3  0  0  0  0  0  0
  -16.7890  -28.5800   23.1690 C   0  0  0  0  0  3  0  0  0  0  0  0
  -25.9290  -32.5290   23.8280 C   0  0  0  0  0  3  0  0  0  0  0  0
  -26.4330  -31.7860   25.1280 C   0  0  1  0  0  0  0  0  0  0  0  0
  -25.3270  -31.5600   26.1850 C   0  0  0  0  0  1  0  0  0  0  0  0
  -27.0300  -30.4050   24.7770 C   0  0  0  0  0  1  0  0  0  0  0  0
  -27.5670  -32.6010   25.7910 C   0  0  0  0  0  1  0  0  0  0  0  0
  -25.6000  -33.9310   24.1410 N   0  0  0  0  0  0  0  0  0  0  0  0
  -25.9260  -34.9830   23.3780 C   0  0  0  0  0  0  0  0  0  0  0  0
  -26.5950  -34.8770   22.3480 O   0  0  0  0  0  0  0  0  0  0  0  0
  -25.0050  -34.0870   24.9410 H   0  0  0  0  0  0  0  0  0  0  0  0
  -24.1880  -36.7700   23.0120 C   0  0  0  0  0  1  0  0  0  0  0  0
  -25.4320  -36.3740   23.8270 C   0  0  0  0  0  3  0  0  0  0  0  0
  -27.5550  -37.2850   24.6620 C   0  0  0  0  0  1  0  0  0  0  0  0
  -26.4590  -37.4320   23.7080 N   0  0  0  0  0  0  0  0  0  0  0  0
  -26.0460  -38.3530   23.8400 H   0  0  0  0  0  0  0  0  0  0  0  0
  -30.1240  -18.5750   20.1790 C   0  0  0  0  0  2  0  0  0  0  0  0
  -28.2820  -16.7240   20.7590 C   0  0  0  0  0  1  0  0  0  0  0  0
  -29.7890  -16.8540   20.5780 C   0  0  0  0  0  3  0  0  0  0  0  0
  -30.5290  -15.3120   20.1400 C   0  0  0  0  0  0  0  0  0  0  0  0
  -30.4870  -12.9000   19.1620 C   0  0  0  0  0  2  0  0  0  0  0  0
  -29.5060  -12.7630   17.9670 C   0  0  0  0  0  2  0  0  0  0  0  0
  -28.0700  -12.4800   18.4470 C   0  0  0  0  0  2  0  0  0  0  0  0
  -27.6790  -13.3800   19.6440 C   0  0  0  0  0  3  0  0  0  0  0  0
  -28.7860  -13.4170   20.7240 C   0  0  0  0  0  2  0  0  0  0  0  0
  -29.9920  -13.9870   20.0890 N   0  0  0  0  0  0  0  0  0  0  0  0
  -31.7130  -15.3290   19.7690 O   0  0  0  0  0  0  0  0  0  0  0  0
  -25.3130  -13.9150   20.4560 C   0  0  0  0  0  0  0  0  0  0  0  0
  -24.2690  -13.1290   20.8490 C   0  0  0  0  0  0  0  0  0  0  0  0
  -24.7470  -11.7850   20.7900 C   0  0  0  0  0  0  0  0  0  0  0  0
  -26.3620  -13.0550   20.1820 N   0  0  0  0  0  0  0  0  0  0  0  0
  -26.0310  -11.7630   20.4450 N   0  0  0  0  0  0  0  0  0  0  0  0
  -24.0330  -10.5160   20.9830 C   0  0  0  0  0  0  0  0  0  0  0  0
  -24.4750   -9.5540   21.9160 C   0  0  0  0  0  3  0  0  0  0  0  0
  -23.7570   -8.3520   22.0980 C   0  0  0  0  0  3  0  0  0  0  0  0
  -22.5830   -8.1050   21.3470 C   0  0  0  0  0  0  0  0  0  0  0  0
  -22.1610   -9.0550   20.4020 C   0  0  0  0  0  3  0  0  0  0  0  0
  -22.8790  -10.2490   20.2190 C   0  0  0  0  0  3  0  0  0  0  0  0
  -21.8370   -6.9540   21.4390 O   0  0  0  0  0  0  0  0  0  0  0  0
  -21.7710   -6.2320   22.6030 C   0  0  0  0  0  0  0  0  0  0  0  0
  -21.2740   -6.7920   23.8000 C   0  0  0  0  0  3  0  0  0  0  0  0
  -21.1610   -5.9920   24.9560 C   0  0  0  0  0  3  0  0  0  0  0  0
  -21.5350   -4.6360   24.9160 C   0  0  0  0  0  0  0  0  0  0  0  0
  -22.0270   -4.0760   23.7230 C   0  0  0  0  0  3  0  0  0  0  0  0
  -22.1420   -4.8720   22.5700 C   0  0  0  0  0  0  0  0  0  0  0  0
  -22.5960   -4.3230   21.4170 F   0  0  0  0  0  0  0  0  0  0  0  0
  -21.4190   -3.8670   26.0240 F   0  0  0  0  0  0  0  0  0  0  0  0
  -22.8770  -13.5940   21.1650 C   0  0  0  0  0  0  0  0  0  0  0  0
  -22.1790  -12.8800   22.0400 N   0  0  0  0  0  0  0  0  0  0  0  0
  -22.4220  -14.6280   20.6760 O   0  0  0  0  0  0  0  0  0  0  0  0
  -22.5640  -12.0470   22.4580 H   0  0  0  0  0  0  0  0  0  0  0  0
  -21.2460  -13.1700   22.2960 H   0  0  0  0  0  0  0  0  0  0  0  0
  -25.4420  -15.2860   20.2850 N   0  0  0  0  0  0  0  0  0  0  0  0
  -24.6770  -15.9310   20.4480 H   0  0  0  0  0  0  0  0  0  0  0  0
  -26.2930  -15.7420   19.9900 H   0  0  0  0  0  0  0  0  0  0  0  0
  1  4  2  0
  2  1  1  0
  2  5  2  0
  3  6  1  0
  3  9  1  0
  4  3  1  0
  5  6  1  0
  6 53  1  0
  7  4  1  0
  8  5  1  0
  9 10  2  0
 11 12  1  0
 11  9  1  0
 13 24  2  0
 14 12  1  0
 14 19  1  0
 15 23  1  0
 15 25  1  0
 16 22  1  0
 16 18  1  0
 17 23  1  0
 18 19  2  0
 18 17  1  0
 20 14  2  0
 21 20  1  0
 21 16  2  0
 22 15  1  0
 23 13  1  0
 25 27  2  0
 26 25  1  0
 28 26  1  0
 29 38  2  0
 29 34  1  0
 30 26  1  0
 30 34  1  0
 31 30  1  0
 32 33  1  0
 32 31  1  0
 33 29  1  0
 34 35  2  0
 35 36  1  0
 37 36  2  0
 38 37  1  0
 39 13  1  0
 39 44  1  0
 39 40  1  0
 40 43  1  1
 40 41  1  0
 42 40  1  0
 44 47  1  0
 45 49  1  0
 45 44  1  0
 46 45  2  0
 49 48  1  0
 51 49  1  0
 51 52  1  0
 51 50  1  0
 53 55  1  0
 55 54  1  0
 56 55  1  0
 57 62  1  0
 58 59  1  0
 58 57  1  0
 60 59  1  0
 60 67  1  0
 60 61  1  0
 62 56  1  0
 62 61  1  0
 63 56  2  0
 64 65  2  0
 65 84  1  0
 66 65  1  0
 66 69  1  0
 67 68  1  0
 67 64  1  0
 68 66  2  0
 69 70  1  0
 70 71  2  0
 72 75  1  0
 72 71  1  0
 73 72  2  0
 74 73  1  0
 74 69  2  0
 75 76  1  0
 76 77  1  0
 77 78  2  0
 79 78  1  0
 79 83  1  0
 80 79  2  0
 81 76  2  0
 81 80  1  0
 82 81  1  0
 84 85  1  0
 85 88  1  0
 85 87  1  0
 86 84  2  0
 89 90  1  0
 89 64  1  0
 91 89  1  0
M  ISO  4  11 101  12 101  55 100  56 100
M  END
>  <TORSDO>  (1) 
F 20

>  <SCORE>  (1) 
-16.230

>  <name>  (1) 
0

>  <ligand_id>  (1) 
0

>  <original_smiles>  (1) 
[H]c1c([H])c([H])c2c(c1[H])C([H])([H])C([H])([H])C([H])([H])C2([H])N([H])C(=O)C1([H])N(C(=O)C([H])(N([H])C(=O)C([H])(N([H])C([H])([H])[H])C([H])([H])[H])C(C([H])([H])[H])(C([H])([H])[H])C([H])([H])[H])C([H])([H])c2c([H])c(OC([H])([H])C(=O)c3c(C([H])([H])[H])c([H])c([H])c(C([H])([H])[H])c3C([H])([H])C([H])(C(=O)N3C([H])([H])C([H])([H])C([H])([H])C([H])(n4nc(-c5c([H])c([H])c(Oc6c([H])c([H])c(F)c([H])c6F)c([H])c5[H])c(C(=O)N([H])[H])c4N([H])[H])C3([H])[H])C([H])([H])[H])c([H])c([H])c2C1([H])[H]

>  <smiles>  (1) 
[H]c1c([H])c([H])c2c(c1[H])C([H])([H])C([H])([H])C([H])([H])C2([H])N([H])C(=O)C1([H])N(C(=O)C([H])(N([H])C(=O)C([H])(N([H])C([H])([H])[H])C([H])([H])[H])C(C([H])([H])[H])(C([H])([H])[H])C([H])([H])[H])C([H])([H])c2c([H])c(OC([H])([H])C(=O)c3c(C([H])([H])[H])c([H])c([H])c(C([H])([H])[H])c3C([H])([H])C([H])(C(=O)N3C([H])([H])C([H])([H])C([H])([H])C([H])(n4nc(-c5c([H])c([H])c(Oc6c([H])c([H])c(F)c([H])c6F)c([H])c5[H])c(C(=O)N([H])[H])c4N([H])[H])C3([H])[H])C([H])([H])[H])c([H])c([H])c2C1([H])[H]

$$$$
1:0:0
     RDKit          3D

 98106  0  0  1  0  0  0  0  0999 V2000
  -34.7750  -20.7770   20.7340 C   0  0  0  0  0  3  0  0  0  0  0  0
  -34.3100  -20.2700   21.9530 C   0  0  0  0  0  3  0  0  0  0  0  0
  -33.8640  -21.1630   19.7350 C   0  0  0  0  0  0  0  0  0  0  0  0
  -32.9400  -20.0350   22.1560 C   0  0  0  0  0  0  0  0  0  0  0  0
  -32.4650  -20.9880   19.9410 C   0  0  0  0  0  0  0  0  0  0  0  0
  -32.0030  -20.3170   21.1190 C   0  0  0  0  0  0  0  0  0  0  0  0
  -34.4390  -21.7740   18.4570 C   0  0  0  0  0  1  0  0  0  0  0  0
  -32.1590  -20.7330   24.4550 C   0  0  0  0  0  1  0  0  0  0  0  0
  -32.5370  -19.5550   23.5490 C   0  0  0  0  0  2  0  0  0  0  0  0
  -30.5320  -19.9180   21.3370 C   0  0  0  0  0  2  0  0  0  0  0  0
  -30.2960  -18.3830   21.4900 C   0  0  0  0  0  2  0  0  0  0  0  0
  -29.8460  -17.6230   20.2340 C   0  0  0  0  0  2  0  0  0  0  0  0
  -30.4090  -15.1720   20.1640 C   0  0  0  0  0  0  0  0  0  0  0  0
  -30.2610  -12.9150   19.2090 C   0  0  0  0  0  2  0  0  0  0  0  0
  -29.3170  -12.9600   17.9900 C   0  0  0  0  0  2  0  0  0  0  0  0
  -27.8490  -12.7770   18.4250 C   0  0  0  0  0  2  0  0  0  0  0  0
  -27.4470  -13.6820   19.6230 C   0  0  0  0  0  3  0  0  0  0  0  0
  -28.5100  -13.6110   20.7430 C   0  0  0  0  0  2  0  0  0  0  0  0
  -29.8160  -13.9490   20.1510 N   0  0  0  0  0  0  0  0  0  0  0  0
  -31.5330  -15.3800   19.7080 O   0  0  0  0  0  0  0  0  0  0  0  0
  -29.6040  -16.1950   20.5130 N   0  0  0  0  0  0  0  0  0  0  0  0
  -28.6860  -15.9530   20.8530 H   0  0  0  0  0  0  0  0  0  0  0  0
  -25.0330  -14.1950   20.3550 C   0  0  0  0  0  0  0  0  0  0  0  0
  -24.0010  -13.3860   20.7450 C   0  0  0  0  0  0  0  0  0  0  0  0
  -24.5150  -12.0530   20.7240 C   0  0  0  0  0  0  0  0  0  0  0  0
  -26.1110  -13.3560   20.1210 N   0  0  0  0  0  0  0  0  0  0  0  0
  -25.8040  -12.0630   20.4030 N   0  0  0  0  0  0  0  0  0  0  0  0
  -23.8420  -10.7630   20.9320 C   0  0  0  0  0  0  0  0  0  0  0  0
  -24.3380   -9.8160   21.8560 C   0  0  0  0  0  3  0  0  0  0  0  0
  -23.6630   -8.5930   22.0600 C   0  0  0  0  0  3  0  0  0  0  0  0
  -22.4800   -8.3070   21.3360 C   0  0  0  0  0  0  0  0  0  0  0  0
  -22.0030   -9.2430   20.4010 C   0  0  0  0  0  3  0  0  0  0  0  0
  -22.6790  -10.4580   20.1970 C   0  0  0  0  0  3  0  0  0  0  0  0
  -21.7760   -7.1320   21.4460 O   0  0  0  0  0  0  0  0  0  0  0  0
  -21.8030   -6.3820   22.5930 C   0  0  0  0  0  0  0  0  0  0  0  0
  -21.4330   -6.9210   23.8450 C   0  0  0  0  0  3  0  0  0  0  0  0
  -21.4060   -6.0940   24.9860 C   0  0  0  0  0  3  0  0  0  0  0  0
  -21.7400   -4.7320   24.8780 C   0  0  0  0  0  0  0  0  0  0  0  0
  -22.1040   -4.1920   23.6320 C   0  0  0  0  0  3  0  0  0  0  0  0
  -22.1310   -5.0140   22.4910 C   0  0  0  0  0  0  0  0  0  0  0  0
  -22.4590   -4.4850   21.2880 F   0  0  0  0  0  0  0  0  0  0  0  0
  -21.7070   -3.9370   25.9720 F   0  0  0  0  0  0  0  0  0  0  0  0
  -22.5880  -13.8070   21.0240 C   0  0  0  0  0  0  0  0  0  0  0  0
  -21.9050  -13.1030   21.9190 N   0  0  0  0  0  0  0  0  0  0  0  0
  -22.0960  -14.7960   20.4830 O   0  0  0  0  0  0  0  0  0  0  0  0
  -22.3160  -12.3110   22.3910 H   0  0  0  0  0  0  0  0  0  0  0  0
  -20.9540  -13.3640   22.1350 H   0  0  0  0  0  0  0  0  0  0  0  0
  -25.1400  -15.5700   20.1560 N   0  0  0  0  0  0  0  0  0  0  0  0
  -24.3480  -16.1960   20.2650 H   0  0  0  0  0  0  0  0  0  0  0  0
  -25.9590  -16.0330   19.7870 H   0  0  0  0  0  0  0  0  0  0  0  0
  -31.5030  -21.6570   18.9470 C   0  0  0  0  0  2  0  0  0  0  0  0
  -31.1650  -23.0880   19.4340 C   0  0  0  0  0  2  0  0  0  0  0  0
  -30.1980  -23.8100   18.5790 N   0  0  0  0  0  4  0  0  0  0  0  0
  -30.5090  -23.7600   17.6190 H   0  0  0  0  0  0  0  0  0  0  0  0
  -29.3000  -23.3560   18.6340 H   0  0  0  0  0  0  0  0  0  0  0  0
  -30.0580  -25.2420   18.9470 C   0  0  0  0  0  2  0  0  0  0  0  0
  -28.6890  -25.8240   18.5750 C   0  0  0  0  0  2  0  0  0  0  0  0
  -28.6060  -27.1650   19.0620 O   0  0  0  0  0  0  0  0  0  0  0  0
  -24.4880  -31.5510   22.8350 C   0  0  0  0  0  0  0  0  0  0  0  0
  -27.3610  -27.7450   19.1680 C   0  0  0  0  0  0  0  0  0  0  0  0
  -23.3390  -30.2670   21.0610 C   0  0  0  0  0  3  0  0  0  0  0  0
  -24.8530  -29.0330   19.4270 C   0  0  0  0  0  0  0  0  0  0  0  0
  -25.8170  -30.8460   20.8470 C   0  0  0  0  0  2  0  0  0  0  0  0
  -25.9860  -29.5710   20.0490 C   0  0  0  0  0  0  0  0  0  0  0  0
  -27.2370  -28.9330   19.9230 C   0  0  0  0  0  3  0  0  0  0  0  0
  -26.2030  -27.2100   18.5480 C   0  0  0  0  0  3  0  0  0  0  0  0
  -24.9570  -27.8490   18.6790 C   0  0  0  0  0  3  0  0  0  0  0  0
  -23.5560  -29.7890   19.6000 C   0  0  0  0  0  2  0  0  0  0  0  0
  -24.5680  -30.8960   21.6420 N   0  0  0  0  0  0  0  0  0  0  0  0
  -23.4070  -31.6700   23.4270 O   0  0  0  0  0  0  0  0  0  0  0  0
  -22.8030  -29.0840   21.9010 C   0  0  0  0  0  0  0  0  0  0  0  0
  -21.4890  -28.8250   21.7990 N   0  0  0  0  0  0  0  0  0  0  0  0
  -23.5620  -28.4110   22.6030 O   0  0  0  0  0  0  0  0  0  0  0  0
  -20.9280  -29.4290   21.2160 H   0  0  0  0  0  0  0  0  0  0  0  0
  -18.2340  -27.3290   22.2470 C   0  0  0  0  0  0  0  0  0  0  0  0
  -20.7750  -27.7390   22.4700 C   0  0  0  0  0  3  0  0  0  0  0  0
  -20.9570  -26.4000   21.7190 C   0  0  0  0  0  2  0  0  0  0  0  0
  -19.8420  -26.1210   20.7070 C   0  0  0  0  0  2  0  0  0  0  0  0
  -18.4790  -26.0880   21.4050 C   0  0  0  0  0  2  0  0  0  0  0  0
  -19.3120  -28.1110   22.7350 C   0  0  0  0  0  0  0  0  0  0  0  0
  -19.0310  -29.2740   23.4850 C   0  0  0  0  0  3  0  0  0  0  0  0
  -17.7030  -29.6550   23.7500 C   0  0  0  0  0  3  0  0  0  0  0  0
  -16.6390  -28.8700   23.2750 C   0  0  0  0  0  3  0  0  0  0  0  0
  -16.9040  -27.7070   22.5290 C   0  0  0  0  0  3  0  0  0  0  0  0
  -25.7410  -32.2090   23.4940 C   0  0  0  0  0  3  0  0  0  0  0  0
  -26.3790  -31.3270   24.6360 C   0  0  1  0  0  0  0  0  0  0  0  0
  -25.3600  -30.8640   25.7010 C   0  0  0  0  0  1  0  0  0  0  0  0
  -27.0540  -30.0710   24.0370 C   0  0  0  0  0  1  0  0  0  0  0  0
  -27.4890  -32.1260   25.3620 C   0  0  0  0  0  1  0  0  0  0  0  0
  -25.3310  -33.5190   24.0150 N   0  0  0  0  0  0  0  0  0  0  0  0
  -25.5630  -34.6880   23.4030 C   0  0  0  0  0  0  0  0  0  0  0  0
  -26.2180  -34.7830   22.3610 O   0  0  0  0  0  0  0  0  0  0  0  0
  -24.7530  -33.5210   24.8430 H   0  0  0  0  0  0  0  0  0  0  0  0
  -23.6860  -36.3580   23.3200 C   0  0  0  0  0  1  0  0  0  0  0  0
  -24.9740  -35.9510   24.0530 C   0  0  0  0  0  3  0  0  0  0  0  0
  -27.0520  -36.8870   24.9710 C   0  0  0  0  0  1  0  0  0  0  0  0
  -25.9140  -37.0930   24.0790 N   0  0  0  0  0  0  0  0  0  0  0  0
  -25.4390  -37.9440   24.3660 H   0  0  0  0  0  0  0  0  0  0  0  0
  1  2  1  0
  2  4  2  0
  3  5  1  0
  3  1  2  0
  4  9  1  0
  5  6  2  0
  6 10  1  0
  6  4  1  0
  7  3  1  0
  9  8  1  0
 10 11  1  0
 12 21  1  0
 12 11  1  0
 13 21  1  0
 14 19  1  0
 15 16  1  0
 15 14  1  0
 17 16  1  0
 17 26  1  0
 17 18  1  0
 19 13  1  0
 19 18  1  0
 20 13  2  0
 21 22  1  0
 23 24  2  0
 24 43  1  0
 25 24  1  0
 25 28  1  0
 26 23  1  0
 26 27  1  0
 27 25  2  0
 28 29  1  0
 29 30  2  0
 31 34  1  0
 31 30  1  0
 32 31  2  0
 33 32  1  0
 33 28  2  0
 34 35  1  0
 35 36  1  0
 36 37  2  0
 38 37  1  0
 38 42  1  0
 39 38  2  0
 40 35  2  0
 40 39  1  0
 41 40  1  0
 43 44  1  0
 44 47  1  0
 44 46  1  0
 45 43  2  0
 48 49  1  0
 48 23  1  0
 50 48  1  0
 51 52  1  0
 51  5  1  0
 53 55  1  0
 53 56  1  0
 53 52  1  0
 54 53  1  0
 57 56  1  0
 57 58  1  0
 58 60  1  0
 59 70  2  0
 60 65  1  0
 61 69  1  0
 61 71  1  0
 62 68  1  0
 62 64  1  0
 63 69  1  0
 64 63  1  0
 65 64  2  0
 66 67  1  0
 66 60  2  0
 67 62  2  0
 68 61  1  0
 69 59  1  0
 71 73  2  0
 72 71  1  0
 74 72  1  0
 75 84  2  0
 75 80  1  0
 76 72  1  0
 76 80  1  0
 77 76  1  0
 78 79  1  0
 78 77  1  0
 79 75  1  0
 80 81  2  0
 81 82  1  0
 83 82  2  0
 84 83  1  0
 85 59  1  0
 85 90  1  0
 85 86  1  0
 86 89  1  1
 86 87  1  0
 88 86  1  0
 90 93  1  0
 91 90  1  0
 91 95  1  0
 92 91  2  0
 95 94  1  0
 95 97  1  0
 97 98  1  0
 97 96  1  0
M  ISO  4  13 100  21 100  57 101  58 101
M  END
>  <TORSDO>  (2) 
F 25

>  <SCORE>  (2) 
-9.488

>  <name>  (2) 
1

>  <ligand_id>  (2) 
1

>  <original_smiles>  (2) 
[H]c1c([H])c([H])c2c(c1[H])C([H])([H])C([H])([H])C([H])([H])C2([H])N([H])C(=O)C1([H])N(C(=O)C([H])(N([H])C(=O)C([H])(N([H])C([H])([H])[H])C([H])([H])[H])C(C([H])([H])[H])(C([H])([H])[H])C([H])([H])[H])C([H])([H])c2c([H])c(OC([H])([H])C([H])([H])[N+]([H])([H])C([H])([H])C([H])([H])c3c(C([H])([H])[H])c([H])c([H])c(C([H])([H])C([H])([H])[H])c3C([H])([H])C([H])([H])C([H])([H])N([H])C(=O)N3C([H])([H])C([H])([H])C([H])([H])C([H])(n4nc(-c5c([H])c([H])c(Oc6c([H])c([H])c(F)c([H])c6F)c([H])c5[H])c(C(=O)N([H])[H])c4N([H])[H])C3([H])[H])c([H])c([H])c2C1([H])[H]

>  <smiles>  (2) 
[H]c1c([H])c([H])c2c(c1[H])C([H])([H])C([H])([H])C([H])([H])C2([H])N([H])C(=O)C1([H])N(C(=O)C([H])(N([H])C(=O)C([H])(N([H])C([H])([H])[H])C([H])([H])[H])C(C([H])([H])[H])(C([H])([H])[H])C([H])([H])[H])C([H])([H])c2c([H])c(OC([H])([H])C([H])([H])[N+]([H])([H])C([H])([H])C([H])([H])c3c(C([H])([H])[H])c([H])c([H])c(C([H])([H])C([H])([H])[H])c3C([H])([H])C([H])([H])C([H])([H])N([H])C(=O)N3C([H])([H])C([H])([H])C([H])([H])C([H])(n4nc(-c5c([H])c([H])c(Oc6c([H])c([H])c(F)c([H])c6F)c([H])c5[H])c(C(=O)N([H])[H])c4N([H])[H])C3([H])[H])c([H])c([H])c2C1([H])[H]

$$$$
2:0:0
     RDKit          3D

 89 97  0  0  1  0  0  0  0  0999 V2000
  -28.7060  -19.5230   19.1210 C   0  0  0  0  0  3  0  0  0  0  0  0
  -29.8620  -17.0410   20.4020 C   0  0  0  0  0  0  0  0  0  0  0  0
  -28.7970  -18.2780   18.4640 C   0  0  0  0  0  0  0  0  0  0  0  0
  -29.1910  -19.7540   20.4120 C   0  0  0  0  0  0  0  0  0  0  0  0
  -29.4120  -17.1170   19.0350 C   0  0  0  0  0  0  0  0  0  0  0  0
  -29.7560  -18.4540   21.0330 C   0  0  0  0  0  0  0  0  0  0  0  0
  -28.2130  -18.2430   17.0540 C   0  0  0  0  0  1  0  0  0  0  0  0
  -29.6770  -15.9680   18.0670 C   0  0  0  0  0  1  0  0  0  0  0  0
  -30.2860  -18.6060   22.4460 C   0  0  0  0  0  1  0  0  0  0  0  0
  -30.5900  -15.5860   20.8920 C   0  0  0  0  0  0  0  0  0  0  0  0
  -30.7480  -13.0830   20.2020 C   0  0  0  0  0  2  0  0  0  0  0  0
  -29.9790  -12.6670   18.9190 C   0  0  0  0  0  2  0  0  0  0  0  0
  -28.4830  -12.4390   19.2000 C   0  0  0  0  0  2  0  0  0  0  0  0
  -27.8800  -13.4590   20.1970 C   0  0  0  0  0  3  0  0  0  0  0  0
  -28.7970  -13.7480   21.3980 C   0  0  0  0  0  2  0  0  0  0  0  0
  -30.0650  -14.2600   20.8540 N   0  0  0  0  0  0  0  0  0  0  0  0
  -31.8260  -15.5820   20.9750 O   0  0  0  0  0  0  0  0  0  0  0  0
  -25.4360  -13.9620   20.7170 C   0  0  0  0  0  0  0  0  0  0  0  0
  -24.3660  -13.1570   20.9890 C   0  0  0  0  0  0  0  0  0  0  0  0
  -24.8740  -11.8220   21.0330 C   0  0  0  0  0  0  0  0  0  0  0  0
  -26.5220  -13.1140   20.5950 N   0  0  0  0  0  0  0  0  0  0  0  0
  -26.1900  -11.8240   20.8580 N   0  0  0  0  0  0  0  0  0  0  0  0
  -24.1700  -10.5390   21.1680 C   0  0  0  0  0  0  0  0  0  0  0  0
  -24.5260   -9.6030   22.1630 C   0  0  0  0  0  3  0  0  0  0  0  0
  -23.8200   -8.3870   22.2870 C   0  0  0  0  0  3  0  0  0  0  0  0
  -22.7450   -8.0990   21.4140 C   0  0  0  0  0  0  0  0  0  0  0  0
  -22.4110   -9.0240   20.4090 C   0  0  0  0  0  3  0  0  0  0  0  0
  -23.1180  -10.2310   20.2840 C   0  0  0  0  0  3  0  0  0  0  0  0
  -22.0180   -6.9330   21.4430 O   0  0  0  0  0  0  0  0  0  0  0  0
  -21.8500   -6.2180   22.6010 C   0  0  0  0  0  0  0  0  0  0  0  0
  -21.2340   -6.7790   23.7420 C   0  0  0  0  0  3  0  0  0  0  0  0
  -21.0200   -5.9880   24.8880 C   0  0  0  0  0  3  0  0  0  0  0  0
  -21.4120   -4.6360   24.8960 C   0  0  0  0  0  0  0  0  0  0  0  0
  -22.0200   -4.0730   23.7600 C   0  0  0  0  0  3  0  0  0  0  0  0
  -22.2370   -4.8620   22.6160 C   0  0  0  0  0  0  0  0  0  0  0  0
  -22.8050   -4.3090   21.5170 F   0  0  0  0  0  0  0  0  0  0  0  0
  -21.1990   -3.8740   25.9930 F   0  0  0  0  0  0  0  0  0  0  0  0
  -22.9360  -13.5930   21.1010 C   0  0  0  0  0  0  0  0  0  0  0  0
  -22.1450  -12.8930   21.9070 N   0  0  0  0  0  0  0  0  0  0  0  0
  -22.5240  -14.5900   20.5110 O   0  0  0  0  0  0  0  0  0  0  0  0
  -22.4890  -12.0860   22.4060 H   0  0  0  0  0  0  0  0  0  0  0  0
  -21.1800  -13.1680   22.0250 H   0  0  0  0  0  0  0  0  0  0  0  0
  -25.5790  -15.3350   20.5310 N   0  0  0  0  0  0  0  0  0  0  0  0
  -24.7920  -15.9740   20.5510 H   0  0  0  0  0  0  0  0  0  0  0  0
  -26.4560  -15.7940   20.3130 H   0  0  0  0  0  0  0  0  0  0  0  0
  -28.8960  -21.3730   20.9720 C   0  0  0  0  0  3  0  0  0  0  0  0
  -28.6950  -22.9550   20.1440 C   0  0  0  0  0  3  0  0  0  0  0  0
  -27.9860  -24.5320   20.6320 C   0  0  0  0  0  2  0  0  0  0  0  0
  -28.1530  -26.1090   20.2020 O   0  0  0  0  0  0  0  0  0  0  0  0
  -24.6700  -32.0370   23.3310 C   0  0  0  0  0  0  0  0  0  0  0  0
  -27.1320  -27.1870   20.2340 C   0  0  0  0  0  0  0  0  0  0  0  0
  -23.4410  -30.6820   21.6810 C   0  0  0  0  0  3  0  0  0  0  0  0
  -24.8530  -29.0770   20.2300 C   0  0  0  0  0  0  0  0  0  0  0  0
  -26.0070  -30.8690   21.5100 C   0  0  0  0  0  2  0  0  0  0  0  0
  -26.0530  -29.4670   20.8400 C   0  0  0  0  0  0  0  0  0  0  0  0
  -27.1900  -28.5450   20.8100 C   0  0  0  0  0  3  0  0  0  0  0  0
  -25.9030  -26.9390   19.5850 C   0  0  0  0  0  3  0  0  0  0  0  0
  -24.8020  -27.8320   19.5820 C   0  0  0  0  0  3  0  0  0  0  0  0
  -23.6490  -30.0120   20.2950 C   0  0  0  0  0  2  0  0  0  0  0  0
  -24.7280  -31.2210   22.2280 N   0  0  0  0  0  0  0  0  0  0  0  0
  -23.5900  -32.3330   23.8670 O   0  0  0  0  0  0  0  0  0  0  0  0
  -22.7420  -29.6820   22.6400 C   0  0  0  0  0  0  0  0  0  0  0  0
  -21.4130  -29.5170   22.5040 N   0  0  0  0  0  0  0  0  0  0  0  0
  -23.4040  -29.0550   23.4710 O   0  0  0  0  0  0  0  0  0  0  0  0
  -20.9350  -30.0750   21.8120 H   0  0  0  0  0  0  0  0  0  0  0  0
  -18.0330  -28.2840   22.9640 C   0  0  0  0  0  0  0  0  0  0  0  0
  -20.5860  -28.5750   23.2650 C   0  0  0  0  0  3  0  0  0  0  0  0
  -20.7090  -27.1410   22.6990 C   0  0  0  0  0  2  0  0  0  0  0  0
  -19.6250  -26.8050   21.6690 C   0  0  0  0  0  2  0  0  0  0  0  0
  -18.2330  -26.9360   22.2920 C   0  0  0  0  0  2  0  0  0  0  0  0
  -19.1370  -29.0600   23.4070 C   0  0  0  0  0  0  0  0  0  0  0  0
  -18.8950  -30.3190   23.9970 C   0  0  0  0  0  3  0  0  0  0  0  0
  -17.5810  -30.8030   24.1490 C   0  0  0  0  0  3  0  0  0  0  0  0
  -16.4920  -30.0250   23.7200 C   0  0  0  0  0  3  0  0  0  0  0  0
  -16.7180  -28.7680   23.1330 C   0  0  0  0  0  3  0  0  0  0  0  0
  -25.9560  -32.6510   23.9620 C   0  0  0  0  0  3  0  0  0  0  0  0
  -26.4710  -31.8490   25.2220 C   0  0  1  0  0  0  0  0  0  0  0  0
  -25.3820  -31.6050   26.2930 C   0  0  0  0  0  1  0  0  0  0  0  0
  -27.0350  -30.4710   24.8070 C   0  0  0  0  0  1  0  0  0  0  0  0
  -27.6350  -32.6170   25.8910 C   0  0  0  0  0  1  0  0  0  0  0  0
  -25.6580  -34.0450   24.3350 N   0  0  0  0  0  0  0  0  0  0  0  0
  -26.0240  -35.1230   23.6310 C   0  0  0  0  0  0  0  0  0  0  0  0
  -26.7110  -35.0480   22.6090 O   0  0  0  0  0  0  0  0  0  0  0  0
  -25.0470  -34.1760   25.1290 H   0  0  0  0  0  0  0  0  0  0  0  0
  -24.3590  -36.9840   23.3040 C   0  0  0  0  0  1  0  0  0  0  0  0
  -25.5570  -36.5030   24.1370 C   0  0  0  0  0  3  0  0  0  0  0  0
  -27.6800  -37.2950   25.0880 C   0  0  0  0  0  1  0  0  0  0  0  0
  -26.6200  -37.5320   24.1120 N   0  0  0  0  0  0  0  0  0  0  0  0
  -26.2320  -38.4560   24.2840 H   0  0  0  0  0  0  0  0  0  0  0  0
  1  4  1  0
  2 10  1  0
  2  6  1  0
  3  5  1  0
  3  1  2  0
  4 46  1  0
  4  6  2  0
  5  2  2  0
  6  9  1  0
  7  3  1  0
  8  5  1  0
 10 17  2  0
 11 16  1  0
 12 13  1  0
 12 11  1  0
 14 13  1  0
 14 21  1  0
 14 15  1  0
 16 10  1  0
 16 15  1  0
 18 19  2  0
 19 20  1  0
 19 38  1  0
 20 23  1  0
 21 18  1  0
 21 22  1  0
 22 20  2  0
 23 24  1  0
 24 25  2  0
 26 29  1  0
 26 25  1  0
 27 26  2  0
 28 27  1  0
 28 23  2  0
 29 30  1  0
 30 35  2  0
 30 31  1  0
 31 32  2  0
 32 33  1  0
 33 37  1  0
 34 33  2  0
 35 34  1  0
 36 35  1  0
 38 39  1  0
 39 42  1  0
 39 41  1  0
 40 38  2  0
 43 44  1  0
 43 18  1  0
 45 43  1  0
 47 48  1  0
 47 46  2  0
 49 51  1  0
 49 48  1  0
 50 61  2  0
 51 56  1  0
 52 60  1  0
 52 62  1  0
 53 59  1  0
 53 55  1  0
 54 60  1  0
 55 54  1  0
 56 55  2  0
 57 51  2  0
 58 57  1  0
 58 53  2  0
 59 52  1  0
 60 50  1  0
 62 64  2  0
 63 62  1  0
 65 63  1  0
 66 75  2  0
 66 71  1  0
 67 63  1  0
 67 71  1  0
 68 67  1  0
 69 70  1  0
 69 68  1  0
 70 66  1  0
 71 72  2  0
 72 73  1  0
 74 73  2  0
 75 74  1  0
 76 50  1  0
 76 81  1  0
 76 77  1  0
 77 80  1  1
 77 78  1  0
 79 77  1  0
 81 84  1  0
 82 86  1  0
 82 81  1  0
 83 82  2  0
 86 85  1  0
 88 86  1  0
 88 89  1  0
 88 87  1  0
M  ISO  4   2 100  10 100  48 101  49 101
M  END
>  <TORSDO>  (3) 
F 19

>  <SCORE>  (3) 
-13.900

>  <name>  (3) 
2

>  <ligand_id>  (3) 
2

>  <original_smiles>  (3) 
[H]c1c([H])c([H])c2c(c1[H])C([H])([H])C([H])([H])C([H])([H])C2([H])N([H])C(=O)C1([H])N(C(=O)C([H])(N([H])C(=O)C([H])(N([H])C([H])([H])[H])C([H])([H])[H])C(C([H])([H])[H])(C([H])([H])[H])C([H])([H])[H])C([H])([H])c2c([H])c(OC([H])([H])C([H])([H])C([H])([H])c3c([H])c(C([H])([H])[H])c(C([H])([H])[H])c(C(=O)N4C([H])([H])C([H])([H])C([H])([H])C([H])(n5nc(-c6c([H])c([H])c(Oc7c([H])c([H])c(F)c([H])c7F)c([H])c6[H])c(C(=O)N([H])[H])c5N([H])[H])C4([H])[H])c3C([H])([H])[H])c([H])c([H])c2C1([H])[H]

>  <smiles>  (3) 
[H]c1c([H])c([H])c2c(c1[H])C([H])([H])C([H])([H])C([H])([H])C2([H])N([H])C(=O)C1([H])N(C(=O)C([H])(N([H])C(=O)C([H])(N([H])C([H])([H])[H])C([H])([H])[H])C(C([H])([H])[H])(C([H])([H])[H])C([H])([H])[H])C([H])([H])c2c([H])c(OC([H])([H])C([H])([H])C([H])([H])c3c([H])c(C([H])([H])[H])c(C([H])([H])[H])c(C(=O)N4C([H])([H])C([H])([H])C([H])([H])C([H])(n5nc(-c6c([H])c([H])c(Oc7c([H])c([H])c(F)c([H])c7F)c([H])c6[H])c(C(=O)N([H])[H])c5N([H])[H])C4([H])[H])c3C([H])([H])[H])c([H])c([H])c2C1([H])[H]

$$$$
3:0:0
     RDKit          3D

 97105  0  0  1  0  0  0  0  0999 V2000
  -28.7220  -24.7480   20.1800 C   0  0  0  0  0  3  0  0  0  0  0  0
  -29.4680  -26.0860   22.5450 C   0  0  0  0  0  0  0  0  0  0  0  0
  -29.1730  -23.9350   21.3050 C   0  0  0  0  0  0  0  0  0  0  0  0
  -29.5240  -24.6590   22.4980 C   0  0  0  0  0  0  0  0  0  0  0  0
  -28.8470  -26.8230   21.4930 C   0  0  0  0  0  0  0  0  0  0  0  0
  -28.5410  -26.1990   20.2320 C   0  0  0  0  0  0  0  0  0  0  0  0
  -28.5570  -28.2990   21.7980 C   0  0  0  0  0  1  0  0  0  0  0  0
  -30.3120  -26.8110   23.5800 C   0  0  0  0  0  0  0  0  0  0  0  0
  -31.5070  -26.5250   23.7140 O   0  0  0  0  0  0  0  0  0  0  0  0
  -29.7020  -27.9090   24.4770 C   0  0  0  0  0  2  0  0  0  0  0  0
  -30.2520  -29.7870   26.0850 C   0  0  0  0  0  1  0  0  0  0  0  0
  -30.5030  -28.3130   25.7290 C   0  0  0  0  0  2  0  0  0  0  0  0
  -29.9620  -23.9050   23.7890 C   0  0  0  0  0  2  0  0  0  0  0  0
  -28.0900  -25.0930   25.1050 C   0  0  0  0  0  1  0  0  0  0  0  0
  -28.8300  -23.7760   24.8310 C   0  0  0  0  0  2  0  0  0  0  0  0
  -29.5870  -22.3750   21.3200 C   0  0  0  0  0  2  0  0  0  0  0  0
  -29.2920  -21.1010   20.3950 C   0  0  0  0  0  2  0  0  0  0  0  0
  -29.6870  -19.7130   21.1550 C   0  0  0  0  0  2  0  0  0  0  0  0
  -30.3190  -18.3870   20.4970 C   0  0  0  0  0  3  0  0  0  0  0  0
  -30.1840  -17.0090   21.3290 C   0  0  0  0  0  3  0  0  0  0  0  0
  -31.0500  -15.7190   20.9570 C   0  0  0  0  0  0  0  0  0  0  0  0
  -31.0620  -13.4080   20.0020 C   0  0  0  0  0  2  0  0  0  0  0  0
  -30.2610  -13.4470   18.6810 C   0  0  0  0  0  2  0  0  0  0  0  0
  -28.7580  -13.2250   18.9450 C   0  0  0  0  0  2  0  0  0  0  0  0
  -28.2200  -14.1100   20.0990 C   0  0  0  0  0  3  0  0  0  0  0  0
  -29.1560  -14.0770   21.3270 C   0  0  0  0  0  2  0  0  0  0  0  0
  -30.5050  -14.4560   20.8840 N   0  0  0  0  0  0  0  0  0  0  0  0
  -32.2330  -15.8910   20.6500 O   0  0  0  0  0  0  0  0  0  0  0  0
  -25.7490  -14.6210   20.5820 C   0  0  0  0  0  0  0  0  0  0  0  0
  -24.6780  -13.8150   20.8420 C   0  0  0  0  0  0  0  0  0  0  0  0
  -25.1840  -12.4750   20.8520 C   0  0  0  0  0  0  0  0  0  0  0  0
  -26.8400  -13.7760   20.4470 N   0  0  0  0  0  0  0  0  0  0  0  0
  -26.4980  -12.4810   20.6670 N   0  0  0  0  0  0  0  0  0  0  0  0
  -24.4810  -11.1930   20.9660 C   0  0  0  0  0  0  0  0  0  0  0  0
  -24.8770  -10.2160   21.9050 C   0  0  0  0  0  3  0  0  0  0  0  0
  -24.1720   -8.9960   22.0130 C   0  0  0  0  0  3  0  0  0  0  0  0
  -23.0600   -8.7440   21.1760 C   0  0  0  0  0  0  0  0  0  0  0  0
  -22.6810   -9.7100   20.2260 C   0  0  0  0  0  3  0  0  0  0  0  0
  -23.3870  -10.9200   20.1190 C   0  0  0  0  0  3  0  0  0  0  0  0
  -22.3390   -7.5740   21.1850 O   0  0  0  0  0  0  0  0  0  0  0  0
  -22.2150   -6.8100   22.3180 C   0  0  0  0  0  0  0  0  0  0  0  0
  -21.6830   -7.3380   23.5140 C   0  0  0  0  0  3  0  0  0  0  0  0
  -21.5130   -6.5030   24.6360 C   0  0  0  0  0  3  0  0  0  0  0  0
  -21.8640   -5.1430   24.5620 C   0  0  0  0  0  0  0  0  0  0  0  0
  -22.3900   -4.6150   23.3710 C   0  0  0  0  0  3  0  0  0  0  0  0
  -22.5640   -5.4460   22.2510 C   0  0  0  0  0  0  0  0  0  0  0  0
  -23.0520   -4.9290   21.1000 F   0  0  0  0  0  0  0  0  0  0  0  0
  -21.6930   -4.3400   25.6390 F   0  0  0  0  0  0  0  0  0  0  0  0
  -23.2440  -14.2450   20.9820 C   0  0  0  0  0  0  0  0  0  0  0  0
  -22.4640  -13.5320   21.7810 N   0  0  0  0  0  0  0  0  0  0  0  0
  -22.8250  -15.2570   20.4180 O   0  0  0  0  0  0  0  0  0  0  0  0
  -22.8190  -12.7180   22.2610 H   0  0  0  0  0  0  0  0  0  0  0  0
  -21.5010  -13.8090   21.9200 H   0  0  0  0  0  0  0  0  0  0  0  0
  -25.8870  -15.9980   20.4300 N   0  0  0  0  0  0  0  0  0  0  0  0
  -25.0930  -16.6270   20.4720 H   0  0  0  0  0  0  0  0  0  0  0  0
  -26.7510  -16.4620   20.1810 H   0  0  0  0  0  0  0  0  0  0  0  0
  -28.2210  -26.9790   19.0610 O   0  0  0  0  0  0  0  0  0  0  0  0
  -24.7520  -31.9590   22.8670 C   0  0  0  0  0  0  0  0  0  0  0  0
  -27.1570  -27.8950   19.0640 C   0  0  0  0  0  0  0  0  0  0  0  0
  -23.4130  -30.6570   21.2570 C   0  0  0  0  0  3  0  0  0  0  0  0
  -24.7420  -29.3540   19.4890 C   0  0  0  0  0  0  0  0  0  0  0  0
  -25.8840  -31.1620   20.7750 C   0  0  0  0  0  2  0  0  0  0  0  0
  -25.9530  -29.8750   19.9650 C   0  0  0  0  0  0  0  0  0  0  0  0
  -27.1740  -29.1680   19.7230 C   0  0  0  0  0  3  0  0  0  0  0  0
  -25.9290  -27.4520   18.5350 C   0  0  0  0  0  3  0  0  0  0  0  0
  -24.7330  -28.1610   18.7520 C   0  0  0  0  0  3  0  0  0  0  0  0
  -23.4730  -30.1240   19.7980 C   0  0  0  0  0  2  0  0  0  0  0  0
  -24.7110  -31.2670   21.6910 N   0  0  0  0  0  0  0  0  0  0  0  0
  -23.7380  -32.1110   23.5650 O   0  0  0  0  0  0  0  0  0  0  0  0
  -22.9370  -29.5170   22.1910 C   0  0  0  0  0  0  0  0  0  0  0  0
  -21.6340  -29.1890   22.1380 N   0  0  0  0  0  0  0  0  0  0  0  0
  -23.7340  -28.9360   22.9310 O   0  0  0  0  0  0  0  0  0  0  0  0
  -21.0460  -29.7130   21.5090 H   0  0  0  0  0  0  0  0  0  0  0  0
  -18.4830  -27.4820   22.6630 C   0  0  0  0  0  0  0  0  0  0  0  0
  -20.9790  -28.1210   22.8980 C   0  0  0  0  0  3  0  0  0  0  0  0
  -21.2910  -26.7270   22.3050 C   0  0  0  0  0  2  0  0  0  0  0  0
  -20.2300  -26.2520   21.3050 C   0  0  0  0  0  2  0  0  0  0  0  0
  -18.8530  -26.1810   21.9710 C   0  0  0  0  0  2  0  0  0  0  0  0
  -19.4810  -28.3980   23.0850 C   0  0  0  0  0  0  0  0  0  0  0  0
  -19.0910  -29.6020   23.7030 C   0  0  0  0  0  3  0  0  0  0  0  0
  -17.7350  -29.8950   23.9140 C   0  0  0  0  0  3  0  0  0  0  0  0
  -16.7430  -28.9820   23.5060 C   0  0  0  0  0  3  0  0  0  0  0  0
  -17.1190  -27.7760   22.8850 C   0  0  0  0  0  3  0  0  0  0  0  0
  -26.0690  -32.6180   23.3780 C   0  0  0  0  0  3  0  0  0  0  0  0
  -26.7930  -31.7690   24.4940 C   0  0  1  0  0  0  0  0  0  0  0  0
  -25.8740  -31.3890   25.6800 C   0  0  0  0  0  1  0  0  0  0  0  0
  -27.3610  -30.4570   23.8950 C   0  0  0  0  0  1  0  0  0  0  0  0
  -27.9900  -32.5730   25.0590 C   0  0  0  0  0  1  0  0  0  0  0  0
  -25.7370  -33.9590   23.8730 N   0  0  0  0  0  0  0  0  0  0  0  0
  -25.9770  -35.1030   23.2140 C   0  0  0  0  0  0  0  0  0  0  0  0
  -26.5690  -35.1440   22.1320 O   0  0  0  0  0  0  0  0  0  0  0  0
  -25.1990  -34.0080   24.7250 H   0  0  0  0  0  0  0  0  0  0  0  0
  -24.1820  -36.8570   23.1840 C   0  0  0  0  0  1  0  0  0  0  0  0
  -25.4870  -36.4090   23.8600 C   0  0  0  0  0  3  0  0  0  0  0  0
  -27.6470  -37.2790   24.6390 C   0  0  0  0  0  1  0  0  0  0  0  0
  -26.4730  -37.5100   23.8010 N   0  0  0  0  0  0  0  0  0  0  0  0
  -26.0440  -38.3880   24.0740 H   0  0  0  0  0  0  0  0  0  0  0  0
  1  6  2  0
  1  3  1  0
  2  8  1  0
  3 16  1  0
  3  4  2  0
  4  2  1  0
  4 13  1  0
  5  7  1  0
  5  2  2  0
  6  5  1  0
  8  9  2  0
  8 10  1  0
 10 12  1  0
 12 11  1  0
 13 15  1  0
 15 14  1  0
 17 18  1  0
 17 16  1  0
 19 18  1  0
 19 20  2  0
 21 20  1  0
 22 27  1  0
 23 24  1  0
 23 22  1  0
 25 24  1  0
 25 32  1  0
 25 26  1  0
 27 21  1  0
 27 26  1  0
 28 21  2  0
 29 30  2  0
 30 31  1  0
 30 49  1  0
 31 34  1  0
 32 29  1  0
 32 33  1  0
 33 31  2  0
 34 35  1  0
 35 36  2  0
 37 40  1  0
 37 36  1  0
 38 37  2  0
 39 38  1  0
 39 34  2  0
 40 41  1  0
 41 42  1  0
 42 43  2  0
 44 43  1  0
 44 48  1  0
 45 44  2  0
 46 41  2  0
 46 45  1  0
 47 46  1  0
 49 50  1  0
 50 53  1  0
 50 52  1  0
 51 49  2  0
 54 55  1  0
 54 29  1  0
 56 54  1  0
 57 59  1  0
 57  6  1  0
 58 69  2  0
 59 64  1  0
 60 68  1  0
 60 70  1  0
 61 67  1  0
 61 63  1  0
 62 68  1  0
 63 62  1  0
 64 63  2  0
 65 66  1  0
 65 59  2  0
 66 61  2  0
 67 60  1  0
 68 58  1  0
 70 72  2  0
 71 70  1  0
 73 71  1  0
 74 83  2  0
 74 79  1  0
 75 71  1  0
 75 79  1  0
 76 75  1  0
 77 78  1  0
 77 76  1  0
 78 74  1  0
 79 80  2  0
 80 81  1  0
 82 81  2  0
 83 82  1  0
 84 58  1  0
 84 89  1  0
 84 85  1  0
 85 88  1  1
 85 86  1  0
 87 85  1  0
 89 92  1  0
 90 94  1  0
 90 89  1  0
 91 90  2  0
 94 93  1  0
 96 94  1  0
 96 97  1  0
 96 95  1  0
M  ISO  4   6 101  20 100  21 100  57 101
M  END
>  <TORSDO>  (4) 
F 26

>  <SCORE>  (4) 
-6.013

>  <name>  (4) 
3

>  <ligand_id>  (4) 
3

>  <original_smiles>  (4) 
[H]c1c([H])c([H])c2c(c1[H])C([H])([H])C([H])([H])C([H])([H])C2([H])N([H])C(=O)C1([H])N(C(=O)C([H])(N([H])C(=O)C([H])(N([H])C([H])([H])[H])C([H])([H])[H])C(C([H])([H])[H])(C([H])([H])[H])C([H])([H])[H])C([H])([H])c2c([H])c(Oc3c([H])c(C([H])([H])C([H])([H])C([H])([H])C([H])([H])C([H])([H])C(=O)N4C([H])([H])C([H])([H])C([H])([H])C([H])(n5nc(-c6c([H])c([H])c(Oc7c([H])c([H])c(F)c([H])c7F)c([H])c6[H])c(C(=O)N([H])[H])c5N([H])[H])C4([H])[H])c(C([H])([H])C([H])([H])C([H])([H])[H])c(C(=O)C([H])([H])C([H])([H])C([H])([H])[H])c3C([H])([H])[H])c([H])c([H])c2C1([H])[H]

>  <smiles>  (4) 
[H]c1c([H])c([H])c2c(c1[H])C([H])([H])C([H])([H])C([H])([H])C2([H])N([H])C(=O)C1([H])N(C(=O)C([H])(N([H])C(=O)C([H])(N([H])C([H])([H])[H])C([H])([H])[H])C(C([H])([H])[H])(C([H])([H])[H])C([H])([H])[H])C([H])([H])c2c([H])c(Oc3c([H])c(C([H])([H])C([H])([H])C([H])([H])C([H])([H])C([H])([H])C(=O)N4C([H])([H])C([H])([H])C([H])([H])C([H])(n5nc(-c6c([H])c([H])c(Oc7c([H])c([H])c(F)c([H])c7F)c([H])c6[H])c(C(=O)N([H])[H])c5N([H])[H])C4([H])[H])c(C([H])([H])C([H])([H])C([H])([H])[H])c(C(=O)C([H])([H])C([H])([H])C([H])([H])[H])c3C([H])([H])[H])c([H])c([H])c2C1([H])[H]

$$$$
4:0:0
     RDKit          3D

 88 96  0  0  1  0  0  0  0  0999 V2000
  -29.7470  -21.7110   20.6650 C   0  0  0  0  0  3  0  0  0  0  0  0
  -27.6690  -22.8620   19.4340 C   0  0  0  0  0  3  0  0  0  0  0  0
  -29.1200  -20.5470   19.9780 C   0  0  0  0  0  0  0  0  0  0  0  0
  -27.9910  -21.3460   19.3800 C   0  0  0  0  0  0  0  0  0  0  0  0
  -29.4200  -23.2020   20.7550 C   0  0  0  0  0  0  0  0  0  0  0  0
  -28.3350  -24.0200   20.1220 C   0  0  0  0  0  0  0  0  0  0  0  0
  -27.0210  -20.5330   18.5440 C   0  0  0  0  0  1  0  0  0  0  0  0
  -29.7300  -18.8160   19.9840 C   0  0  0  0  0  3  0  0  0  0  0  0
  -29.4830  -17.2950   19.8880 C   0  0  0  0  0  3  0  0  0  0  0  0
  -30.3530  -15.8080   19.8500 C   0  0  0  0  0  0  0  0  0  0  0  0
  -30.4790  -13.2290   19.1360 C   0  0  0  0  0  2  0  0  0  0  0  0
  -29.5550  -12.7880   17.9620 C   0  0  0  0  0  2  0  0  0  0  0  0
  -28.1500  -12.4280   18.4710 C   0  0  0  0  0  2  0  0  0  0  0  0
  -27.6600  -13.4510   19.5210 C   0  0  0  0  0  3  0  0  0  0  0  0
  -28.7200  -13.8110   20.5850 C   0  0  0  0  0  2  0  0  0  0  0  0
  -29.8690  -14.4240   19.8810 N   0  0  0  0  0  0  0  0  0  0  0  0
  -31.5790  -15.7410   19.6310 O   0  0  0  0  0  0  0  0  0  0  0  0
  -25.3520  -13.9680   20.4400 C   0  0  0  0  0  0  0  0  0  0  0  0
  -24.3110  -13.1810   20.8440 C   0  0  0  0  0  0  0  0  0  0  0  0
  -24.7730  -11.8310   20.7460 C   0  0  0  0  0  0  0  0  0  0  0  0
  -26.3740  -13.1010   20.1060 N   0  0  0  0  0  0  0  0  0  0  0  0
  -26.0450  -11.8070   20.3590 N   0  0  0  0  0  0  0  0  0  0  0  0
  -24.0490  -10.5660   20.9390 C   0  0  0  0  0  0  0  0  0  0  0  0
  -24.4790   -9.6030   21.8760 C   0  0  0  0  0  3  0  0  0  0  0  0
  -23.7530   -8.4060   22.0590 C   0  0  0  0  0  3  0  0  0  0  0  0
  -22.5800   -8.1650   21.3040 C   0  0  0  0  0  0  0  0  0  0  0  0
  -22.1680   -9.1180   20.3560 C   0  0  0  0  0  3  0  0  0  0  0  0
  -22.8960  -10.3050   20.1720 C   0  0  0  0  0  3  0  0  0  0  0  0
  -21.8260   -7.0210   21.3950 O   0  0  0  0  0  0  0  0  0  0  0  0
  -21.7110   -6.3260   22.5730 C   0  0  0  0  0  0  0  0  0  0  0  0
  -21.1380   -6.9040   23.7270 C   0  0  0  0  0  3  0  0  0  0  0  0
  -20.9760   -6.1330   24.8940 C   0  0  0  0  0  3  0  0  0  0  0  0
  -21.3760   -4.7830   24.9090 C   0  0  0  0  0  0  0  0  0  0  0  0
  -21.9410   -4.2030   23.7590 C   0  0  0  0  0  3  0  0  0  0  0  0
  -22.1040   -4.9720   22.5940 C   0  0  0  0  0  0  0  0  0  0  0  0
  -22.6300   -4.4030   21.4830 F   0  0  0  0  0  0  0  0  0  0  0  0
  -21.2120   -4.0390   26.0280 F   0  0  0  0  0  0  0  0  0  0  0  0
  -22.9330  -13.6550   21.1970 C   0  0  0  0  0  0  0  0  0  0  0  0
  -22.2560  -12.9530   22.0970 N   0  0  0  0  0  0  0  0  0  0  0  0
  -22.4690  -14.6860   20.7110 O   0  0  0  0  0  0  0  0  0  0  0  0
  -22.6460  -12.1210   22.5140 H   0  0  0  0  0  0  0  0  0  0  0  0
  -21.3330  -13.2550   22.3760 H   0  0  0  0  0  0  0  0  0  0  0  0
  -25.5080  -15.3440   20.2940 N   0  0  0  0  0  0  0  0  0  0  0  0
  -24.7490  -15.9930   20.4690 H   0  0  0  0  0  0  0  0  0  0  0  0
  -26.3340  -15.7900   19.9170 H   0  0  0  0  0  0  0  0  0  0  0  0
  -29.7840  -24.7760   22.5080 C   0  0  0  0  0  1  0  0  0  0  0  0
  -30.3200  -23.8540   21.5650 O   0  0  0  0  0  0  0  0  0  0  0  0
  -28.1920  -25.6460   20.1780 O   0  0  0  0  0  0  0  0  0  0  0  0
  -24.5660  -31.8460   23.1950 C   0  0  0  0  0  0  0  0  0  0  0  0
  -27.1640  -26.8150   20.1720 C   0  0  0  0  0  0  0  0  0  0  0  0
  -23.4150  -30.4740   21.5110 C   0  0  0  0  0  3  0  0  0  0  0  0
  -24.8930  -28.8490   20.1010 C   0  0  0  0  0  0  0  0  0  0  0  0
  -25.9950  -30.6190   21.4450 C   0  0  0  0  0  2  0  0  0  0  0  0
  -26.0720  -29.1960   20.7700 C   0  0  0  0  0  0  0  0  0  0  0  0
  -27.1890  -28.2070   20.7740 C   0  0  0  0  0  3  0  0  0  0  0  0
  -25.9550  -26.6830   19.4440 C   0  0  0  0  0  3  0  0  0  0  0  0
  -24.8730  -27.6200   19.4160 C   0  0  0  0  0  3  0  0  0  0  0  0
  -23.6850  -29.7990   20.1340 C   0  0  0  0  0  2  0  0  0  0  0  0
  -24.6820  -31.0140   22.1030 N   0  0  0  0  0  0  0  0  0  0  0  0
  -23.4620  -32.1330   23.6900 O   0  0  0  0  0  0  0  0  0  0  0  0
  -22.6840  -29.4780   22.4510 C   0  0  0  0  0  0  0  0  0  0  0  0
  -21.3540  -29.3250   22.3020 N   0  0  0  0  0  0  0  0  0  0  0  0
  -23.3260  -28.8390   23.2880 O   0  0  0  0  0  0  0  0  0  0  0  0
  -20.8860  -29.8910   21.6060 H   0  0  0  0  0  0  0  0  0  0  0  0
  -17.9460  -28.1660   22.8060 C   0  0  0  0  0  0  0  0  0  0  0  0
  -20.5150  -28.3730   23.0420 C   0  0  0  0  0  3  0  0  0  0  0  0
  -20.5790  -26.9660   22.4030 C   0  0  0  0  0  2  0  0  0  0  0  0
  -19.4570  -26.7130   21.3900 C   0  0  0  0  0  2  0  0  0  0  0  0
  -18.0870  -26.8500   22.0600 C   0  0  0  0  0  2  0  0  0  0  0  0
  -19.0850  -28.8890   23.2530 C   0  0  0  0  0  0  0  0  0  0  0  0
  -18.8950  -30.1200   23.9170 C   0  0  0  0  0  3  0  0  0  0  0  0
  -17.6000  -30.6290   24.1340 C   0  0  0  0  0  3  0  0  0  0  0  0
  -16.4770  -29.9040   23.6990 C   0  0  0  0  0  3  0  0  0  0  0  0
  -16.6520  -28.6740   23.0420 C   0  0  0  0  0  3  0  0  0  0  0  0
  -25.8130  -32.4900   23.8740 C   0  0  0  0  0  3  0  0  0  0  0  0
  -25.5000  -33.9030   24.1680 N   0  0  0  0  0  0  0  0  0  0  0  0
  -25.8710  -34.9490   23.4170 C   0  0  0  0  0  0  0  0  0  0  0  0
  -26.5680  -34.8250   22.4070 O   0  0  0  0  0  0  0  0  0  0  0  0
  -24.8820  -34.0720   24.9480 H   0  0  0  0  0  0  0  0  0  0  0  0
  -24.1850  -36.7780   23.0070 C   0  0  0  0  0  1  0  0  0  0  0  0
  -25.3980  -36.3530   23.8510 C   0  0  0  0  0  3  0  0  0  0  0  0
  -27.5160  -37.2280   24.7400 C   0  0  0  0  0  1  0  0  0  0  0  0
  -26.4520  -37.3890   23.7520 N   0  0  0  0  0  0  0  0  0  0  0  0
  -26.0570  -38.3190   23.8590 H   0  0  0  0  0  0  0  0  0  0  0  0
  -26.2440  -31.7520   25.2040 C   0  0  1  0  0  0  0  0  0  0  0  0
  -25.0900  -31.5670   26.2170 C   0  0  0  0  0  1  0  0  0  0  0  0
  -26.8220  -30.3520   24.9000 C   0  0  0  0  0  1  0  0  0  0  0  0
  -27.3720  -32.5480   25.9020 C   0  0  0  0  0  1  0  0  0  0  0  0
  1  5  1  0
  2  6  1  0
  3  8  1  0
  3  1  2  0
  4  2  2  0
  4  3  1  0
  5 47  1  0
  6 48  1  0
  6  5  2  0
  7  4  1  0
  9  8  2  0
 10 16  1  0
 10  9  1  0
 11 16  1  0
 12 13  1  0
 12 11  1  0
 14 13  1  0
 14 21  1  0
 14 15  1  0
 16 15  1  0
 17 10  2  0
 18 19  2  0
 19 38  1  0
 20 19  1  0
 20 23  1  0
 21 22  1  0
 21 18  1  0
 22 20  2  0
 23 24  1  0
 24 25  2  0
 26 29  1  0
 26 25  1  0
 27 26  2  0
 28 27  1  0
 28 23  2  0
 29 30  1  0
 30 35  2  0
 30 31  1  0
 31 32  2  0
 32 33  1  0
 33 37  1  0
 34 33  2  0
 35 34  1  0
 36 35  1  0
 38 39  1  0
 39 42  1  0
 39 41  1  0
 40 38  2  0
 43 18  1  0
 43 44  1  0
 45 43  1  0
 47 46  1  0
 49 60  2  0
 50 48  1  0
 50 55  1  0
 51 59  1  0
 51 61  1  0
 52 58  1  0
 52 54  1  0
 53 59  1  0
 54 55  2  0
 54 53  1  0
 56 50  2  0
 57 56  1  0
 57 52  2  0
 58 51  1  0
 59 49  1  0
 61 63  2  0
 62 61  1  0
 64 62  1  0
 65 74  2  0
 65 70  1  0
 66 62  1  0
 66 70  1  0
 67 66  1  0
 68 69  1  0
 68 67  1  0
 69 65  1  0
 70 71  2  0
 71 72  1  0
 73 72  2  0
 74 73  1  0
 75 49  1  0
 75 76  1  0
 75 85  1  0
 76 79  1  0
 77 81  1  0
 77 76  1  0
 78 77  2  0
 81 80  1  0
 83 81  1  0
 83 84  1  0
 83 82  1  0
 85 88  1  1
 85 86  1  0
 87 85  1  0
M  ISO  4   6 101   9 100  10 100  48 101
M  END
>  <TORSDO>  (5) 
F 18

>  <SCORE>  (5) 
-15.377

>  <name>  (5) 
4

>  <ligand_id>  (5) 
4

>  <original_smiles>  (5) 
[H]C(C(=O)N1C([H])([H])C([H])([H])C([H])([H])C([H])(n2nc(-c3c([H])c([H])c(Oc4c([H])c([H])c(F)c([H])c4F)c([H])c3[H])c(C(=O)N([H])[H])c2N([H])[H])C1([H])[H])=C([H])c1c([H])c(OC([H])([H])[H])c(Oc2c([H])c([H])c3c(c2[H])C([H])([H])N(C(=O)C([H])(N([H])C(=O)C([H])(N([H])C([H])([H])[H])C([H])([H])[H])C(C([H])([H])[H])(C([H])([H])[H])C([H])([H])[H])C([H])(C(=O)N([H])C2([H])c4c([H])c([H])c([H])c([H])c4C([H])([H])C([H])([H])C2([H])[H])C3([H])[H])c([H])c1C([H])([H])[H]

>  <smiles>  (5) 
[H]C(C(=O)N1C([H])([H])C([H])([H])C([H])([H])C([H])(n2nc(-c3c([H])c([H])c(Oc4c([H])c([H])c(F)c([H])c4F)c([H])c3[H])c(C(=O)N([H])[H])c2N([H])[H])C1([H])[H])=C([H])c1c([H])c(OC([H])([H])[H])c(Oc2c([H])c([H])c3c(c2[H])C([H])([H])N(C(=O)C([H])(N([H])C(=O)C([H])(N([H])C([H])([H])[H])C([H])([H])[H])C(C([H])([H])[H])(C([H])([H])[H])C([H])([H])[H])C([H])(C(=O)N([H])C2([H])c4c([H])c([H])c([H])c([H])c4C([H])([H])C([H])([H])C2([H])[H])C3([H])[H])c([H])c1C([H])([H])[H]

$$$$
5:0:0
     RDKit          3D

 94102  0  0  1  0  0  0  0  0999 V2000
  -29.4890  -20.9010   22.3840 C   0  0  0  0  0  3  0  0  0  0  0  0
  -29.5020  -20.1200   21.2230 C   0  0  0  0  0  0  0  0  0  0  0  0
  -29.7350  -22.2680   22.3330 C   0  0  0  0  0  0  0  0  0  0  0  0
  -29.8020  -20.6580   19.9260 C   0  0  0  0  0  0  0  0  0  0  0  0
  -29.7460  -22.1960   19.8440 C   0  0  0  0  0  0  0  0  0  0  0  0
  -29.8650  -22.8970   21.0850 C   0  0  0  0  0  0  0  0  0  0  0  0
  -29.1170  -18.6600   21.4690 C   0  0  0  0  0  1  0  0  0  0  0  0
  -29.7900  -23.0620   23.6290 C   0  0  0  0  0  1  0  0  0  0  0  0
  -31.4570  -24.6060   21.0270 C   0  0  0  0  0  1  0  0  0  0  0  0
  -30.0820  -24.2510   21.1060 O   0  0  0  0  0  0  0  0  0  0  0  0
  -30.0850  -19.4130   18.8730 C   0  0  0  0  0  2  0  0  0  0  0  0
  -32.3460  -18.2890   18.2440 C   0  0  0  0  0  1  0  0  0  0  0  0
  -31.1490  -18.0910   19.1910 C   0  0  0  0  0  3  0  0  0  0  0  0
  -31.5480  -15.2980   19.3540 C   0  0  0  0  0  0  0  0  0  0  0  0
  -31.4090  -12.8030   18.8670 C   0  0  0  0  0  2  0  0  0  0  0  0
  -30.4170  -12.5080   17.7190 C   0  0  0  0  0  2  0  0  0  0  0  0
  -28.9830  -12.3590   18.2620 C   0  0  0  0  0  2  0  0  0  0  0  0
  -28.6180  -13.4760   19.2750 C   0  0  0  0  0  3  0  0  0  0  0  0
  -29.7310  -13.7330   20.3100 C   0  0  0  0  0  2  0  0  0  0  0  0
  -30.9490  -14.0500   19.5520 N   0  0  0  0  0  0  0  0  0  0  0  0
  -32.7450  -15.2700   19.0540 O   0  0  0  0  0  0  0  0  0  0  0  0
  -30.7940  -16.5240   19.3020 N   0  0  0  0  0  0  0  0  0  0  0  0
  -29.8140  -16.3550   19.4700 H   0  0  0  0  0  0  0  0  0  0  0  0
  -26.3890  -14.1890   20.3000 C   0  0  0  0  0  0  0  0  0  0  0  0
  -25.3050  -13.4800   20.7370 C   0  0  0  0  0  0  0  0  0  0  0  0
  -25.6430  -12.1000   20.5770 C   0  0  0  0  0  0  0  0  0  0  0  0
  -27.3200  -13.2470   19.8990 N   0  0  0  0  0  0  0  0  0  0  0  0
  -26.8890  -11.9790   20.1320 N   0  0  0  0  0  0  0  0  0  0  0  0
  -24.8290  -10.8920   20.7690 C   0  0  0  0  0  0  0  0  0  0  0  0
  -25.1840   -9.9020   21.7130 C   0  0  0  0  0  3  0  0  0  0  0  0
  -24.3710   -8.7630   21.8940 C   0  0  0  0  0  3  0  0  0  0  0  0
  -23.1910   -8.6040   21.1310 C   0  0  0  0  0  0  0  0  0  0  0  0
  -22.8540   -9.5810   20.1780 C   0  0  0  0  0  3  0  0  0  0  0  0
  -23.6660  -10.7130   19.9940 C   0  0  0  0  0  3  0  0  0  0  0  0
  -22.3540   -7.5170   21.2210 O   0  0  0  0  0  0  0  0  0  0  0  0
  -22.1130   -6.8900   22.4180 C   0  0  0  0  0  0  0  0  0  0  0  0
  -21.5440   -7.5730   23.5150 C   0  0  0  0  0  3  0  0  0  0  0  0
  -21.2490   -6.8740   24.7020 C   0  0  0  0  0  3  0  0  0  0  0  0
  -21.5130   -5.4940   24.7930 C   0  0  0  0  0  0  0  0  0  0  0  0
  -22.0760   -4.8120   23.7010 C   0  0  0  0  0  3  0  0  0  0  0  0
  -22.3710   -5.5070   22.5150 C   0  0  0  0  0  0  0  0  0  0  0  0
  -22.8930   -4.8410   21.4570 F   0  0  0  0  0  0  0  0  0  0  0  0
  -21.2230   -4.8200   25.9310 F   0  0  0  0  0  0  0  0  0  0  0  0
  -23.9900  -14.0510   21.1780 C   0  0  0  0  0  0  0  0  0  0  0  0
  -23.3070  -13.3760   22.0960 N   0  0  0  0  0  0  0  0  0  0  0  0
  -23.5830  -15.1280   20.7430 O   0  0  0  0  0  0  0  0  0  0  0  0
  -23.6530  -12.5030   22.4660 H   0  0  0  0  0  0  0  0  0  0  0  0
  -22.4270  -13.7370   22.4340 H   0  0  0  0  0  0  0  0  0  0  0  0
  -26.6520  -15.5510   20.1830 N   0  0  0  0  0  0  0  0  0  0  0  0
  -25.9510  -16.2500   20.4020 H   0  0  0  0  0  0  0  0  0  0  0  0
  -27.4690  -15.9420   19.7340 H   0  0  0  0  0  0  0  0  0  0  0  0
  -29.5800  -23.3290   18.6560 C   0  0  0  0  0  2  0  0  0  0  0  0
  -28.4910  -24.6630   18.7110 C   0  0  0  0  0  2  0  0  0  0  0  0
  -28.6680  -26.2270   18.8110 O   0  0  0  0  0  0  0  0  0  0  0  0
  -24.7370  -31.0910   22.7810 C   0  0  0  0  0  0  0  0  0  0  0  0
  -27.5350  -27.1280   18.9470 C   0  0  0  0  0  0  0  0  0  0  0  0
  -23.5700  -29.8460   21.0060 C   0  0  0  0  0  3  0  0  0  0  0  0
  -25.0640  -28.6510   19.2900 C   0  0  0  0  0  0  0  0  0  0  0  0
  -26.0760  -30.3770   20.7620 C   0  0  0  0  0  2  0  0  0  0  0  0
  -26.2370  -29.1080   19.9020 C   0  0  0  0  0  0  0  0  0  0  0  0
  -27.4700  -28.3680   19.7150 C   0  0  0  0  0  3  0  0  0  0  0  0
  -26.3180  -26.7870   18.3120 C   0  0  0  0  0  3  0  0  0  0  0  0
  -25.1180  -27.5100   18.4790 C   0  0  0  0  0  3  0  0  0  0  0  0
  -23.7660  -29.4070   19.5320 C   0  0  0  0  0  2  0  0  0  0  0  0
  -24.8170  -30.4550   21.5730 N   0  0  0  0  0  0  0  0  0  0  0  0
  -23.6620  -31.1850   23.3960 O   0  0  0  0  0  0  0  0  0  0  0  0
  -23.0430  -28.6440   21.8320 C   0  0  0  0  0  0  0  0  0  0  0  0
  -21.7440  -28.3240   21.6940 N   0  0  0  0  0  0  0  0  0  0  0  0
  -23.8070  -28.0060   22.5610 O   0  0  0  0  0  0  0  0  0  0  0  0
  -21.1760  -28.9020   21.0900 H   0  0  0  0  0  0  0  0  0  0  0  0
  -18.5620  -26.6200   22.0210 C   0  0  0  0  0  0  0  0  0  0  0  0
  -21.0630  -27.1990   22.3410 C   0  0  0  0  0  3  0  0  0  0  0  0
  -21.3560  -25.8720   21.6030 C   0  0  0  0  0  2  0  0  0  0  0  0
  -20.3010  -25.5230   20.5470 C   0  0  0  0  0  2  0  0  0  0  0  0
  -18.9170  -25.3990   21.1910 C   0  0  0  0  0  2  0  0  0  0  0  0
  -19.5670  -27.4740   22.5470 C   0  0  0  0  0  0  0  0  0  0  0  0
  -19.1800  -28.6140   23.2850 C   0  0  0  0  0  3  0  0  0  0  0  0
  -17.8190  -28.9030   23.5010 C   0  0  0  0  0  3  0  0  0  0  0  0
  -16.8280  -28.0480   22.9890 C   0  0  0  0  0  3  0  0  0  0  0  0
  -17.2000  -26.9090   22.2540 C   0  0  0  0  0  3  0  0  0  0  0  0
  -25.9850  -31.7510   23.4410 C   0  0  0  0  0  3  0  0  0  0  0  0
  -25.5970  -33.0940   23.8980 N   0  0  0  0  0  0  0  0  0  0  0  0
  -25.8830  -34.2350   23.2540 C   0  0  0  0  0  0  0  0  0  0  0  0
  -26.5700  -34.2680   22.2290 O   0  0  0  0  0  0  0  0  0  0  0  0
  -24.9870  -33.1390   24.7000 H   0  0  0  0  0  0  0  0  0  0  0  0
  -24.0760  -35.9750   23.0490 C   0  0  0  0  0  1  0  0  0  0  0  0
  -25.3220  -35.5460   23.8400 C   0  0  0  0  0  3  0  0  0  0  0  0
  -27.3950  -36.4450   24.8020 C   0  0  0  0  0  1  0  0  0  0  0  0
  -26.3040  -36.6530   23.8550 N   0  0  0  0  0  0  0  0  0  0  0  0
  -25.8500  -37.5340   24.0820 H   0  0  0  0  0  0  0  0  0  0  0  0
  -26.5670  -30.9090   24.6430 C   0  0  1  0  0  0  0  0  0  0  0  0
  -25.5070  -30.5130   25.6970 C   0  0  0  0  0  1  0  0  0  0  0  0
  -27.2290  -29.6080   24.1350 C   0  0  0  0  0  1  0  0  0  0  0  0
  -27.6740  -31.7160   25.3600 C   0  0  0  0  0  1  0  0  0  0  0  0
  2  7  1  0
  2  1  2  0
  3  1  1  0
  3  8  1  0
  4  2  1  0
  5  4  2  0
  5  6  1  0
  6 10  1  0
  6  3  2  0
  9 10  1  0
 11 13  1  0
 11  4  1  0
 13 12  1  0
 13 22  1  0
 14 20  1  0
 15 20  1  0
 16 17  1  0
 16 15  1  0
 18 17  1  0
 18 27  1  0
 18 19  1  0
 20 19  1  0
 21 14  2  0
 22 14  1  0
 22 23  1  0
 24 25  2  0
 25 44  1  0
 26 25  1  0
 26 29  1  0
 27 28  1  0
 27 24  1  0
 28 26  2  0
 29 30  1  0
 30 31  2  0
 32 35  1  0
 32 31  1  0
 33 32  2  0
 34 33  1  0
 34 29  2  0
 35 36  1  0
 36 41  2  0
 36 37  1  0
 37 38  2  0
 38 39  1  0
 39 43  1  0
 40 39  2  0
 41 40  1  0
 42 41  1  0
 44 45  1  0
 45 48  1  0
 45 47  1  0
 46 44  2  0
 49 24  1  0
 49 50  1  0
 51 49  1  0
 52 53  1  0
 52  5  1  0
 53 54  1  0
 54 56  1  0
 55 66  2  0
 56 61  1  0
 57 65  1  0
 57 67  1  0
 58 64  1  0
 58 60  1  0
 59 65  1  0
 60 59  1  0
 61 60  2  0
 62 63  1  0
 62 56  2  0
 63 58  2  0
 64 57  1  0
 65 55  1  0
 67 69  2  0
 68 67  1  0
 70 68  1  0
 71 80  2  0
 71 76  1  0
 72 68  1  0
 72 76  1  0
 73 72  1  0
 74 75  1  0
 74 73  1  0
 75 71  1  0
 76 77  2  0
 77 78  1  0
 79 78  2  0
 80 79  1  0
 81 55  1  0
 81 82  1  0
 81 91  1  0
 82 85  1  0
 83 87  1  0
 83 82  1  0
 84 83  2  0
 87 86  1  0
 87 89  1  0
 89 90  1  0
 89 88  1  0
 91 94  1  1
 91 92  1  0
 93 91  1  0
M  ISO  4  14 100  22 100  53 101  54 101
M  END
>  <TORSDO>  (6) 
F 21

>  <SCORE>  (6) 
-9.935

>  <name>  (6) 
5

>  <ligand_id>  (6) 
5

>  <original_smiles>  (6) 
[H]c1c([H])c([H])c2c(c1[H])C([H])([H])C([H])([H])C([H])([H])C2([H])N([H])C(=O)C1([H])N(C(=O)C([H])(N([H])C(=O)C([H])(N([H])C([H])([H])[H])C([H])([H])[H])C(C([H])([H])[H])(C([H])([H])[H])C([H])([H])[H])C([H])([H])c2c([H])c(OC([H])([H])C([H])([H])c3c(OC([H])([H])[H])c(C([H])([H])[H])c([H])c(C([H])([H])[H])c3C([H])([H])C([H])(N([H])C(=O)N3C([H])([H])C([H])([H])C([H])([H])C([H])(n4nc(-c5c([H])c([H])c(Oc6c([H])c([H])c(F)c([H])c6F)c([H])c5[H])c(C(=O)N([H])[H])c4N([H])[H])C3([H])[H])C([H])([H])[H])c([H])c([H])c2C1([H])[H]

>  <smiles>  (6) 
[H]c1c([H])c([H])c2c(c1[H])C([H])([H])C([H])([H])C([H])([H])C2([H])N([H])C(=O)C1([H])N(C(=O)C([H])(N([H])C(=O)C([H])(N([H])C([H])([H])[H])C([H])([H])[H])C(C([H])([H])[H])(C([H])([H])[H])C([H])([H])[H])C([H])([H])c2c([H])c(OC([H])([H])C([H])([H])c3c(OC([H])([H])[H])c(C([H])([H])[H])c([H])c(C([H])([H])[H])c3C([H])([H])C([H])(N([H])C(=O)N3C([H])([H])C([H])([H])C([H])([H])C([H])(n4nc(-c5c([H])c([H])c(Oc6c([H])c([H])c(F)c([H])c6F)c([H])c5[H])c(C(=O)N([H])[H])c4N([H])[H])C3([H])[H])C([H])([H])[H])c([H])c([H])c2C1([H])[H]

$$$$
6:0:0
     RDKit          3D

 96104  0  0  1  0  0  0  0  0999 V2000
  -27.9660  -21.9760   19.7890 C   0  0  0  0  0  3  0  0  0  0  0  0
  -27.6910  -23.4300   19.8210 C   0  0  0  0  0  3  0  0  0  0  0  0
  -30.1660  -22.3600   20.3870 C   0  0  0  0  0  3  0  0  0  0  0  0
  -29.2260  -21.3030   20.0820 C   0  0  0  0  0  0  0  0  0  0  0  0
  -29.9000  -23.8100   20.4210 C   0  0  0  0  0  0  0  0  0  0  0  0
  -28.6360  -24.4780   20.1550 C   0  0  0  0  0  0  0  0  0  0  0  0
  -31.0570  -24.7030   20.8200 C   0  0  0  0  0  1  0  0  0  0  0  0
  -28.5110  -25.9840   20.2060 O   0  0  0  0  0  0  0  0  0  0  0  0
  -24.8070  -31.7560   23.1450 C   0  0  0  0  0  0  0  0  0  0  0  0
  -27.4030  -26.9420   20.1820 C   0  0  0  0  0  0  0  0  0  0  0  0
  -23.6260  -30.3580   21.4950 C   0  0  0  0  0  3  0  0  0  0  0  0
  -25.0850  -28.7490   20.1040 C   0  0  0  0  0  0  0  0  0  0  0  0
  -26.1840  -30.5900   21.3680 C   0  0  0  0  0  2  0  0  0  0  0  0
  -26.2560  -29.1810   20.7340 C   0  0  0  0  0  0  0  0  0  0  0  0
  -27.4090  -28.2950   20.7510 C   0  0  0  0  0  3  0  0  0  0  0  0
  -26.2040  -26.6340   19.5050 C   0  0  0  0  0  3  0  0  0  0  0  0
  -25.0750  -27.4940   19.4720 C   0  0  0  0  0  3  0  0  0  0  0  0
  -23.8640  -29.6630   20.1290 C   0  0  0  0  0  2  0  0  0  0  0  0
  -24.8930  -30.9290   22.0570 N   0  0  0  0  0  0  0  0  0  0  0  0
  -23.7150  -32.0520   23.6540 O   0  0  0  0  0  0  0  0  0  0  0  0
  -22.9270  -29.3650   22.4560 C   0  0  0  0  0  0  0  0  0  0  0  0
  -21.5950  -29.2220   22.3340 N   0  0  0  0  0  0  0  0  0  0  0  0
  -23.5870  -28.7240   23.2780 O   0  0  0  0  0  0  0  0  0  0  0  0
  -21.1170  -29.7880   21.6460 H   0  0  0  0  0  0  0  0  0  0  0  0
  -18.1920  -28.0850   22.8490 C   0  0  0  0  0  0  0  0  0  0  0  0
  -20.7590  -28.2990   23.1050 C   0  0  0  0  0  3  0  0  0  0  0  0
  -20.8300  -26.8690   22.5210 C   0  0  0  0  0  2  0  0  0  0  0  0
  -19.7180  -26.5760   21.5090 C   0  0  0  0  0  2  0  0  0  0  0  0
  -18.3420  -26.7390   22.1610 C   0  0  0  0  0  2  0  0  0  0  0  0
  -19.3280  -28.8240   23.2770 C   0  0  0  0  0  0  0  0  0  0  0  0
  -19.1360  -30.0830   23.8870 C   0  0  0  0  0  3  0  0  0  0  0  0
  -17.8420  -30.6040   24.0690 C   0  0  0  0  0  3  0  0  0  0  0  0
  -16.7210  -29.8630   23.6550 C   0  0  0  0  0  3  0  0  0  0  0  0
  -16.8970  -28.6050   23.0510 C   0  0  0  0  0  3  0  0  0  0  0  0
  -26.0740  -32.3970   23.7880 C   0  0  0  0  0  3  0  0  0  0  0  0
  -25.7490  -33.7910   24.1390 N   0  0  0  0  0  0  0  0  0  0  0  0
  -26.0710  -34.8620   23.4010 C   0  0  0  0  0  0  0  0  0  0  0  0
  -26.7330  -34.7790   22.3640 O   0  0  0  0  0  0  0  0  0  0  0  0
  -25.1520  -33.9270   24.9430 H   0  0  0  0  0  0  0  0  0  0  0  0
  -24.3290  -36.6550   23.1000 C   0  0  0  0  0  1  0  0  0  0  0  0
  -25.5820  -36.2420   23.8880 C   0  0  0  0  0  3  0  0  0  0  0  0
  -27.7200  -37.1320   24.7070 C   0  0  0  0  0  1  0  0  0  0  0  0
  -26.6070  -37.3030   23.7770 N   0  0  0  0  0  0  0  0  0  0  0  0
  -26.1950  -38.2190   23.9380 H   0  0  0  0  0  0  0  0  0  0  0  0
  -26.5820  -31.6170   25.0630 C   0  0  1  0  0  0  0  0  0  0  0  0
  -25.4800  -31.3610   26.1180 C   0  0  0  0  0  1  0  0  0  0  0  0
  -27.1770  -30.2460   24.6690 C   0  0  0  0  0  1  0  0  0  0  0  0
  -27.7200  -32.4120   25.7470 C   0  0  0  0  0  1  0  0  0  0  0  0
  -29.4420  -19.6370   20.4380 C   0  0  0  0  0  3  0  0  0  0  0  0
  -28.1850  -19.1680   21.0550 N   0  0  0  0  0  4  0  0  0  0  0  0
  -28.3750  -18.6470   21.8970 H   0  0  0  0  0  0  0  0  0  0  0  0
  -27.6800  -19.9980   21.3230 H   0  0  0  0  0  0  0  0  0  0  0  0
  -27.3420  -18.3650   20.1590 C   0  0  0  0  0  2  0  0  0  0  0  0
  -25.8360  -18.4850   20.3940 C   0  0  0  0  0  2  0  0  0  0  0  0
  -23.6710  -17.2930   19.6590 C   0  0  0  0  0  1  0  0  0  0  0  0
  -25.1310  -17.6060   19.3450 C   0  0  0  0  0  2  0  0  0  0  0  0
  -30.5850  -18.3210   20.1280 C   0  0  0  0  0  2  0  0  0  0  0  0
  -31.4370  -16.9100   18.1910 C   0  0  0  0  0  1  0  0  0  0  0  0
  -29.1820  -16.4160   18.8790 C   0  0  0  0  0  1  0  0  0  0  0  0
  -30.5650  -16.6890   19.4630 C   0  0  2  0  0  0  0  0  0  0  0  0
  -31.2740  -15.2130   20.0570 C   0  0  0  0  0  0  0  0  0  0  0  0
  -31.2230  -12.7110   19.5000 C   0  0  0  0  0  2  0  0  0  0  0  0
  -30.3080  -12.4030   18.2890 C   0  0  0  0  0  2  0  0  0  0  0  0
  -28.8650  -12.1410   18.7540 C   0  0  0  0  0  2  0  0  0  0  0  0
  -28.3870  -13.2090   19.7610 C   0  0  0  0  0  3  0  0  0  0  0  0
  -29.4360  -13.5210   20.8550 C   0  0  0  0  0  2  0  0  0  0  0  0
  -30.6870  -13.9300   20.1870 N   0  0  0  0  0  0  0  0  0  0  0  0
  -32.5100  -15.1760   20.0510 O   0  0  0  0  0  0  0  0  0  0  0  0
  -26.0680  -13.8860   20.5880 C   0  0  0  0  0  0  0  0  0  0  0  0
  -24.9730  -13.1570   20.9420 C   0  0  0  0  0  0  0  0  0  0  0  0
  -25.3650  -11.7860   20.8390 C   0  0  0  0  0  0  0  0  0  0  0  0
  -27.0590  -12.9630   20.2920 N   0  0  0  0  0  0  0  0  0  0  0  0
  -26.6480  -11.6930   20.5120 N   0  0  0  0  0  0  0  0  0  0  0  0
  -24.5770  -10.5600   20.9670 C   0  0  0  0  0  0  0  0  0  0  0  0
  -24.9750   -9.5210   21.8390 C   0  0  0  0  0  3  0  0  0  0  0  0
  -24.1910   -8.3540   21.9640 C   0  0  0  0  0  3  0  0  0  0  0  0
  -22.9990   -8.2190   21.2120 C   0  0  0  0  0  0  0  0  0  0  0  0
  -22.6200   -9.2440   20.3280 C   0  0  0  0  0  3  0  0  0  0  0  0
  -23.4040  -10.4020   20.2010 C   0  0  0  0  0  3  0  0  0  0  0  0
  -22.1900   -7.1090   21.2500 O   0  0  0  0  0  0  0  0  0  0  0  0
  -22.0630   -6.3520   22.3870 C   0  0  0  0  0  0  0  0  0  0  0  0
  -21.6100   -6.9030   23.6050 C   0  0  0  0  0  3  0  0  0  0  0  0
  -21.4270   -6.0740   24.7290 C   0  0  0  0  0  3  0  0  0  0  0  0
  -21.6890   -4.6940   24.6360 C   0  0  0  0  0  0  0  0  0  0  0  0
  -22.1340   -4.1410   23.4210 C   0  0  0  0  0  3  0  0  0  0  0  0
  -22.3170   -4.9680   22.2990 C   0  0  0  0  0  0  0  0  0  0  0  0
  -22.7280   -4.4270   21.1270 F   0  0  0  0  0  0  0  0  0  0  0  0
  -21.5050   -3.8950   25.7120 F   0  0  0  0  0  0  0  0  0  0  0  0
  -23.6050  -13.6920   21.2530 C   0  0  0  0  0  0  0  0  0  0  0  0
  -22.8610  -13.0130   22.1160 N   0  0  0  0  0  0  0  0  0  0  0  0
  -23.2070  -14.7500   20.7620 O   0  0  0  0  0  0  0  0  0  0  0  0
  -23.1970  -12.1520   22.5220 H   0  0  0  0  0  0  0  0  0  0  0  0
  -21.9460  -13.3550   22.3760 H   0  0  0  0  0  0  0  0  0  0  0  0
  -26.2940  -15.2520   20.4540 N   0  0  0  0  0  0  0  0  0  0  0  0
  -25.5320  -15.9170   20.5240 H   0  0  0  0  0  0  0  0  0  0  0  0
  -27.1150  -15.6250   20.0000 H   0  0  0  0  0  0  0  0  0  0  0  0
  1  2  2  0
  1  4  1  0
  2  6  1  0
  3  5  1  0
  4  3  2  0
  4 49  1  0
  5  7  1  0
  6  8  1  0
  6  5  2  0
  9 20  2  0
 10  8  1  0
 10 15  1  0
 11 19  1  0
 11 21  1  0
 12 18  1  0
 12 14  1  0
 13 19  1  0
 14 15  2  0
 14 13  1  0
 16 10  2  0
 17 16  1  0
 17 12  2  0
 18 11  1  0
 19  9  1  0
 21 23  2  0
 22 21  1  0
 24 22  1  0
 25 34  2  0
 25 30  1  0
 26 22  1  0
 26 30  1  0
 27 26  1  0
 28 29  1  0
 28 27  1  0
 29 25  1  0
 30 31  2  0
 31 32  1  0
 33 32  2  0
 34 33  1  0
 35  9  1  0
 35 36  1  0
 35 45  1  0
 36 39  1  0
 37 41  1  0
 37 36  1  0
 38 37  2  0
 41 40  1  0
 43 41  1  0
 43 44  1  0
 43 42  1  0
 45 48  1  1
 45 46  1  0
 47 45  1  0
 49 57  1  0
 49 50  1  0
 50 52  1  0
 50 51  1  0
 53 54  1  0
 53 50  1  0
 56 55  1  0
 56 54  1  0
 60 58  1  6
 59 60  1  0
 60 61  1  0
 60 57  1  0
 61 67  1  0
 62 67  1  0
 63 64  1  0
 63 62  1  0
 65 64  1  0
 65 72  1  0
 65 66  1  0
 67 66  1  0
 68 61  2  0
 69 70  2  0
 70 89  1  0
 71 70  1  0
 71 74  1  0
 72 73  1  0
 72 69  1  0
 73 71  2  0
 74 75  1  0
 75 76  2  0
 77 80  1  0
 77 76  1  0
 78 77  2  0
 79 78  1  0
 79 74  2  0
 80 81  1  0
 81 82  1  0
 82 83  2  0
 84 83  1  0
 84 88  1  0
 85 84  2  0
 86 81  2  0
 86 85  1  0
 87 86  1  0
 89 90  1  0
 90 93  1  0
 90 92  1  0
 91 89  2  0
 94 95  1  0
 94 69  1  0
 96 94  1  0
M  ISO  4   6 101   8 101  60 100  61 100
M  END
>  <TORSDO>  (7) 
F 23

>  <SCORE>  (7) 
-10.580

>  <name>  (7) 
6

>  <ligand_id>  (7) 
6

>  <original_smiles>  (7) 
[H]c1c([H])c([H])c2c(c1[H])C([H])([H])C([H])([H])C([H])([H])C2([H])N([H])C(=O)C1([H])N(C(=O)C([H])(N([H])C(=O)C([H])(N([H])C([H])([H])[H])C([H])([H])[H])C(C([H])([H])[H])(C([H])([H])[H])C([H])([H])[H])C([H])([H])c2c([H])c(Oc3c([H])c([H])c(C([H])(C([H])([H])C(C(=O)N4C([H])([H])C([H])([H])C([H])([H])C([H])(n5nc(-c6c([H])c([H])c(Oc7c([H])c([H])c(F)c([H])c7F)c([H])c6[H])c(C(=O)N([H])[H])c5N([H])[H])C4([H])[H])(C([H])([H])[H])C([H])([H])[H])[N+]([H])([H])C([H])([H])C([H])([H])C([H])([H])C([H])([H])[H])c([H])c3C([H])([H])[H])c([H])c([H])c2C1([H])[H]

>  <smiles>  (7) 
[H]c1c([H])c([H])c2c(c1[H])C([H])([H])C([H])([H])C([H])([H])C2([H])N([H])C(=O)C1([H])N(C(=O)C([H])(N([H])C(=O)C([H])(N([H])C([H])([H])[H])C([H])([H])[H])C(C([H])([H])[H])(C([H])([H])[H])C([H])([H])[H])C([H])([H])c2c([H])c(Oc3c([H])c([H])c(C([H])(C([H])([H])C(C(=O)N4C([H])([H])C([H])([H])C([H])([H])C([H])(n5nc(-c6c([H])c([H])c(Oc7c([H])c([H])c(F)c([H])c7F)c([H])c6[H])c(C(=O)N([H])[H])c5N([H])[H])C4([H])[H])(C([H])([H])[H])C([H])([H])[H])[N+]([H])([H])C([H])([H])C([H])([H])C([H])([H])C([H])([H])[H])c([H])c3C([H])([H])[H])c([H])c([H])c2C1([H])[H]

$$$$
7:0:0
     RDKit          3D

 90 98  0  0  1  0  0  0  0  0999 V2000
  -31.2320  -20.9310   20.3060 C   0  0  0  0  0  3  0  0  0  0  0  0
  -30.9060  -19.5350   20.2710 C   0  0  0  0  0  3  0  0  0  0  0  0
  -30.3440  -22.0630   20.2730 C   0  0  0  0  0  0  0  0  0  0  0  0
  -28.9270  -21.9670   20.1940 C   0  0  0  0  0  0  0  0  0  0  0  0
  -29.5930  -19.0100   20.1970 C   0  0  0  0  0  0  0  0  0  0  0  0
  -28.6480  -20.3460   20.1620 C   0  0  0  0  0  0  0  0  0  0  0  0
  -30.9670  -23.4480   20.3180 C   0  0  0  0  0  1  0  0  0  0  0  0
  -30.2440  -15.8640   20.0840 C   0  0  0  0  0  0  0  0  0  0  0  0
  -30.3780  -13.2980   19.2320 C   0  0  0  0  0  2  0  0  0  0  0  0
  -29.4670  -12.8350   18.0540 C   0  0  0  0  0  2  0  0  0  0  0  0
  -28.0720  -12.4340   18.5550 C   0  0  0  0  0  2  0  0  0  0  0  0
  -27.5680  -13.4240   19.6260 C   0  0  0  0  0  3  0  0  0  0  0  0
  -28.6220  -13.7860   20.7020 C   0  0  0  0  0  2  0  0  0  0  0  0
  -29.7430  -14.4720   20.0060 N   0  0  0  0  0  0  0  0  0  0  0  0
  -31.4770  -15.7880   19.8940 O   0  0  0  0  0  0  0  0  0  0  0  0
  -29.4670  -17.2520   20.1770 N   0  0  0  0  0  0  0  0  0  0  0  0
  -28.4910  -17.0050   20.2450 H   0  0  0  0  0  0  0  0  0  0  0  0
  -25.2290  -13.9060   20.4780 C   0  0  0  0  0  0  0  0  0  0  0  0
  -24.1920  -13.1070   20.8660 C   0  0  0  0  0  0  0  0  0  0  0  0
  -24.6790  -11.7640   20.7990 C   0  0  0  0  0  0  0  0  0  0  0  0
  -26.2770  -13.0540   20.1880 N   0  0  0  0  0  0  0  0  0  0  0  0
  -25.9630  -11.7560   20.4470 N   0  0  0  0  0  0  0  0  0  0  0  0
  -23.9710  -10.4900   20.9900 C   0  0  0  0  0  0  0  0  0  0  0  0
  -24.4150   -9.5280   21.9240 C   0  0  0  0  0  3  0  0  0  0  0  0
  -23.7020   -8.3240   22.1060 C   0  0  0  0  0  3  0  0  0  0  0  0
  -22.5300   -8.0720   21.3550 C   0  0  0  0  0  0  0  0  0  0  0  0
  -22.1040   -9.0220   20.4090 C   0  0  0  0  0  3  0  0  0  0  0  0
  -22.8190  -10.2170   20.2260 C   0  0  0  0  0  3  0  0  0  0  0  0
  -21.7870   -6.9180   21.4460 O   0  0  0  0  0  0  0  0  0  0  0  0
  -21.7180   -6.1970   22.6110 C   0  0  0  0  0  0  0  0  0  0  0  0
  -21.2150   -6.7560   23.8050 C   0  0  0  0  0  3  0  0  0  0  0  0
  -21.0960   -5.9600   24.9610 C   0  0  0  0  0  3  0  0  0  0  0  0
  -21.4720   -4.6040   24.9230 C   0  0  0  0  0  0  0  0  0  0  0  0
  -21.9690   -4.0430   23.7340 C   0  0  0  0  0  3  0  0  0  0  0  0
  -22.0880   -4.8370   22.5800 C   0  0  0  0  0  0  0  0  0  0  0  0
  -22.5480   -4.2870   21.4310 F   0  0  0  0  0  0  0  0  0  0  0  0
  -21.3520   -3.8350   26.0310 F   0  0  0  0  0  0  0  0  0  0  0  0
  -22.7970  -13.5620   21.1760 C   0  0  0  0  0  0  0  0  0  0  0  0
  -22.1040  -12.8540   22.0600 N   0  0  0  0  0  0  0  0  0  0  0  0
  -22.3320  -14.5830   20.6700 O   0  0  0  0  0  0  0  0  0  0  0  0
  -22.4950  -12.0290   22.4910 H   0  0  0  0  0  0  0  0  0  0  0  0
  -21.1700  -13.1420   22.3120 H   0  0  0  0  0  0  0  0  0  0  0  0
  -25.3630  -15.2810   20.3140 N   0  0  0  0  0  0  0  0  0  0  0  0
  -24.5830  -15.9170   20.4450 H   0  0  0  0  0  0  0  0  0  0  0  0
  -26.1780  -15.7320   19.9210 H   0  0  0  0  0  0  0  0  0  0  0  0
  -27.2990  -20.0090   20.0880 N   0  0  0  0  0  0  0  0  0  0  0  0
  -26.6220  -20.7050   20.3800 H   0  0  0  0  0  0  0  0  0  0  0  0
  -27.0370  -19.0710   20.3720 H   0  0  0  0  0  0  0  0  0  0  0  0
  -27.9560  -23.6250   20.1230 C   0  0  0  0  0  2  0  0  0  0  0  0
  -28.1770  -25.4200   20.2480 O   0  0  0  0  0  0  0  0  0  0  0  0
  -24.7210  -31.8480   23.2030 C   0  0  0  0  0  0  0  0  0  0  0  0
  -27.2240  -26.6850   20.2080 C   0  0  0  0  0  0  0  0  0  0  0  0
  -23.5310  -30.4580   21.5640 C   0  0  0  0  0  3  0  0  0  0  0  0
  -24.9730  -28.7890   20.1530 C   0  0  0  0  0  0  0  0  0  0  0  0
  -26.1150  -30.5630   21.4530 C   0  0  0  0  0  2  0  0  0  0  0  0
  -26.1730  -29.1210   20.7930 C   0  0  0  0  0  0  0  0  0  0  0  0
  -27.2790  -28.1010   20.7830 C   0  0  0  0  0  3  0  0  0  0  0  0
  -25.9880  -26.5900   19.5130 C   0  0  0  0  0  3  0  0  0  0  0  0
  -24.9250  -27.5510   19.4880 C   0  0  0  0  0  3  0  0  0  0  0  0
  -23.7730  -29.7570   20.1950 C   0  0  0  0  0  2  0  0  0  0  0  0
  -24.8150  -30.9910   22.1260 N   0  0  0  0  0  0  0  0  0  0  0  0
  -23.6280  -32.1550   23.7090 O   0  0  0  0  0  0  0  0  0  0  0  0
  -22.8020  -29.4890   22.5350 C   0  0  0  0  0  0  0  0  0  0  0  0
  -21.4690  -29.3420   22.4070 N   0  0  0  0  0  0  0  0  0  0  0  0
  -23.4510  -28.8650   23.3790 O   0  0  0  0  0  0  0  0  0  0  0  0
  -20.9930  -29.8940   21.7070 H   0  0  0  0  0  0  0  0  0  0  0  0
  -18.0730  -28.1500   22.9300 C   0  0  0  0  0  0  0  0  0  0  0  0
  -20.6370  -28.4070   23.1780 C   0  0  0  0  0  3  0  0  0  0  0  0
  -20.7260  -26.9760   22.5980 C   0  0  0  0  0  2  0  0  0  0  0  0
  -19.6190  -26.6650   21.5860 C   0  0  0  0  0  2  0  0  0  0  0  0
  -18.2420  -26.8070   22.2380 C   0  0  0  0  0  2  0  0  0  0  0  0
  -19.1960  -28.9080   23.3560 C   0  0  0  0  0  0  0  0  0  0  0  0
  -18.9800  -30.1610   23.9690 C   0  0  0  0  0  3  0  0  0  0  0  0
  -17.6760  -30.6570   24.1560 C   0  0  0  0  0  3  0  0  0  0  0  0
  -16.5690  -29.8980   23.7410 C   0  0  0  0  0  3  0  0  0  0  0  0
  -16.7670  -28.6450   23.1350 C   0  0  0  0  0  3  0  0  0  0  0  0
  -25.9830  -32.4970   23.8500 C   0  0  0  0  0  3  0  0  0  0  0  0
  -25.6630  -33.9000   24.1860 N   0  0  0  0  0  0  0  0  0  0  0  0
  -25.9670  -34.9650   23.4330 C   0  0  0  0  0  0  0  0  0  0  0  0
  -26.6010  -34.8720   22.3790 O   0  0  0  0  0  0  0  0  0  0  0  0
  -25.0930  -34.0440   25.0060 H   0  0  0  0  0  0  0  0  0  0  0  0
  -24.2090  -36.7560   23.1890 C   0  0  0  0  0  1  0  0  0  0  0  0
  -25.4990  -36.3540   23.9210 C   0  0  0  0  0  3  0  0  0  0  0  0
  -27.6660  -37.2700   24.6330 C   0  0  0  0  0  1  0  0  0  0  0  0
  -26.5150  -37.4170   23.7460 N   0  0  0  0  0  0  0  0  0  0  0  0
  -26.1080  -38.3340   23.9050 H   0  0  0  0  0  0  0  0  0  0  0  0
  -26.4700  -31.7390   25.1480 C   0  0  1  0  0  0  0  0  0  0  0  0
  -25.3560  -31.5220   26.2010 C   0  0  0  0  0  1  0  0  0  0  0  0
  -27.0510  -30.3510   24.7980 C   0  0  0  0  0  1  0  0  0  0  0  0
  -27.6140  -32.5330   25.8210 C   0  0  0  0  0  1  0  0  0  0  0  0
  2  1  2  0
  3  1  1  0
  3  7  1  0
  4  3  2  0
  5  2  1  0
  6  4  1  0
  6  5  2  0
  8 16  1  0
  9 14  1  0
 10 11  1  0
 10  9  1  0
 12 11  1  0
 12 21  1  0
 12 13  1  0
 14  8  1  0
 14 13  1  0
 15  8  2  0
 16  5  1  0
 16 17  1  0
 18 19  2  0
 19 38  1  0
 20 19  1  0
 20 23  1  0
 21 22  1  0
 21 18  1  0
 22 20  2  0
 23 24  1  0
 24 25  2  0
 26 29  1  0
 26 25  1  0
 27 26  2  0
 28 27  1  0
 28 23  2  0
 29 30  1  0
 30 31  1  0
 31 32  2  0
 33 32  1  0
 33 37  1  0
 34 33  2  0
 35 30  2  0
 35 34  1  0
 36 35  1  0
 38 39  1  0
 39 42  1  0
 39 41  1  0
 40 38  2  0
 43 44  1  0
 43 18  1  0
 45 43  1  0
 46  6  1  0
 46 48  1  0
 46 47  1  0
 49  4  1  0
 49 50  1  0
 51 62  2  0
 52 50  1  0
 52 57  1  0
 53 61  1  0
 53 63  1  0
 54 60  1  0
 54 56  1  0
 55 61  1  0
 56 55  1  0
 57 56  2  0
 58 52  2  0
 59 58  1  0
 59 54  2  0
 60 53  1  0
 61 51  1  0
 63 65  2  0
 64 63  1  0
 66 64  1  0
 67 76  2  0
 67 72  1  0
 68 64  1  0
 68 72  1  0
 69 68  1  0
 70 71  1  0
 70 69  1  0
 71 67  1  0
 72 73  2  0
 73 74  1  0
 75 74  2  0
 76 75  1  0
 77 51  1  0
 77 78  1  0
 77 87  1  0
 78 81  1  0
 79 83  1  0
 79 78  1  0
 80 79  2  0
 83 82  1  0
 85 86  1  0
 85 83  1  0
 85 84  1  0
 87 90  1  1
 87 88  1  0
 89 87  1  0
M  ISO  4   8 100  16 100  49 101  50 101
M  END
>  <TORSDO>  (8) 
F 18

>  <SCORE>  (8) 
-16.393

>  <name>  (8) 
7

>  <ligand_id>  (8) 
7

>  <original_smiles>  (8) 
[H]c1c([H])c([H])c2c(c1[H])C([H])([H])C([H])([H])C([H])([H])C2([H])N([H])C(=O)C1([H])N(C(=O)C([H])(N([H])C(=O)C([H])(N([H])C([H])([H])[H])C([H])([H])[H])C(C([H])([H])[H])(C([H])([H])[H])C([H])([H])[H])C([H])([H])c2c([H])c(OC([H])([H])c3c(N([H])[H])c(N([H])C(=O)N4C([H])([H])C([H])([H])C([H])([H])C([H])(n5nc(-c6c([H])c([H])c(Oc7c([H])c([H])c(F)c([H])c7F)c([H])c6[H])c(C(=O)N([H])[H])c5N([H])[H])C4([H])[H])c([H])c([H])c3C([H])([H])[H])c([H])c([H])c2C1([H])[H]

>  <smiles>  (8) 
[H]c1c([H])c([H])c2c(c1[H])C([H])([H])C([H])([H])C([H])([H])C2([H])N([H])C(=O)C1([H])N(C(=O)C([H])(N([H])C(=O)C([H])(N([H])C([H])([H])[H])C([H])([H])[H])C(C([H])([H])[H])(C([H])([H])[H])C([H])([H])[H])C([H])([H])c2c([H])c(OC([H])([H])c3c(N([H])[H])c(N([H])C(=O)N4C([H])([H])C([H])([H])C([H])([H])C([H])(n5nc(-c6c([H])c([H])c(Oc7c([H])c([H])c(F)c([H])c7F)c([H])c6[H])c(C(=O)N([H])[H])c5N([H])[H])C4([H])[H])c([H])c([H])c3C([H])([H])[H])c([H])c([H])c2C1([H])[H]

$$$$
8:0:0
     RDKit          3D

 93101  0  0  1  0  0  0  0  0999 V2000
  -30.3350  -20.0520   21.3980 C   0  0  0  0  0  2  0  0  0  0  0  0
  -30.5220  -17.4040   21.2970 C   0  0  0  0  0  3  0  0  0  0  0  0
  -30.4450  -16.1430   20.5870 C   0  0  0  0  0  0  0  0  0  0  0  0
  -29.9320  -18.6430   20.8150 C   0  0  0  0  0  0  0  0  0  0  0  0
  -29.9420  -16.3030   19.2570 C   0  0  0  0  0  0  0  0  0  0  0  0
  -29.1020  -17.3910   18.9050 C   0  0  0  0  0  0  0  0  0  0  0  0
  -29.0570  -18.5470   19.7110 C   0  0  0  0  0  0  0  0  0  0  0  0
  -30.5250  -15.5100   18.0980 C   0  0  0  0  0  1  0  0  0  0  0  0
  -28.3660  -17.4200   17.5680 C   0  0  0  0  0  1  0  0  0  0  0  0
  -31.1640  -14.8220   21.0470 C   0  0  0  0  0  0  0  0  0  0  0  0
  -31.0660  -12.3760   20.5610 C   0  0  0  0  0  2  0  0  0  0  0  0
  -30.3390  -12.0980   19.2260 C   0  0  0  0  0  2  0  0  0  0  0  0
  -28.8060  -12.0790   19.4080 C   0  0  0  0  0  2  0  0  0  0  0  0
  -28.2570  -13.1920   20.3460 C   0  0  0  0  0  3  0  0  0  0  0  0
  -29.1290  -13.3770   21.5980 C   0  0  0  0  0  2  0  0  0  0  0  0
  -30.5070  -13.6120   21.1500 N   0  0  0  0  0  0  0  0  0  0  0  0
  -32.3970  -14.8400   21.0660 O   0  0  0  0  0  0  0  0  0  0  0  0
  -25.8350  -13.9430   20.7140 C   0  0  0  0  0  0  0  0  0  0  0  0
  -24.6850  -13.2400   20.9570 C   0  0  0  0  0  0  0  0  0  0  0  0
  -25.0750  -11.8680   21.0360 C   0  0  0  0  0  0  0  0  0  0  0  0
  -26.8490  -13.0000   20.6630 N   0  0  0  0  0  0  0  0  0  0  0  0
  -26.3900  -11.7520   20.9200 N   0  0  0  0  0  0  0  0  0  0  0  0
  -24.2660  -10.6490   21.1520 C   0  0  0  0  0  0  0  0  0  0  0  0
  -24.5720   -9.6450   22.0960 C   0  0  0  0  0  3  0  0  0  0  0  0
  -23.7660   -8.4910   22.2000 C   0  0  0  0  0  3  0  0  0  0  0  0
  -22.6400   -8.3360   21.3570 C   0  0  0  0  0  0  0  0  0  0  0  0
  -22.3560   -9.3270   20.4000 C   0  0  0  0  0  3  0  0  0  0  0  0
  -23.1640  -10.4720   20.2950 C   0  0  0  0  0  3  0  0  0  0  0  0
  -21.8080   -7.2440   21.3730 O   0  0  0  0  0  0  0  0  0  0  0  0
  -21.6830   -6.4530   22.4860 C   0  0  0  0  0  0  0  0  0  0  0  0
  -21.2660   -6.9760   23.7300 C   0  0  0  0  0  3  0  0  0  0  0  0
  -21.0870   -6.1150   24.8310 C   0  0  0  0  0  3  0  0  0  0  0  0
  -21.3150   -4.7340   24.6880 C   0  0  0  0  0  0  0  0  0  0  0  0
  -21.7250   -4.2100   23.4490 C   0  0  0  0  0  3  0  0  0  0  0  0
  -21.9060   -5.0680   22.3510 C   0  0  0  0  0  0  0  0  0  0  0  0
  -22.2840   -4.5560   21.1540 F   0  0  0  0  0  0  0  0  0  0  0  0
  -21.1370   -3.9060   25.7440 F   0  0  0  0  0  0  0  0  0  0  0  0
  -23.2930  -13.7980   21.0120 C   0  0  0  0  0  0  0  0  0  0  0  0
  -22.4170  -13.1800   21.7960 N   0  0  0  0  0  0  0  0  0  0  0  0
  -22.9890  -14.8180   20.3950 O   0  0  0  0  0  0  0  0  0  0  0  0
  -22.6740  -12.3500   22.3110 H   0  0  0  0  0  0  0  0  0  0  0  0
  -21.4780  -13.5450   21.8840 H   0  0  0  0  0  0  0  0  0  0  0  0
  -26.0970  -15.2920   20.5070 N   0  0  0  0  0  0  0  0  0  0  0  0
  -27.0090  -15.6560   20.2630 H   0  0  0  0  0  0  0  0  0  0  0  0
  -25.3620  -15.9870   20.4650 H   0  0  0  0  0  0  0  0  0  0  0  0
  -26.8850  -19.4240   19.5620 C   0  0  0  0  0  1  0  0  0  0  0  0
  -28.2820  -19.6080   19.3190 O   0  0  0  0  0  0  0  0  0  0  0  0
  -29.3650  -21.3330   21.4920 C   0  0  0  0  0  2  0  0  0  0  0  0
  -29.3600  -22.5140   20.4060 C   0  0  0  0  0  2  0  0  0  0  0  0
  -29.1300  -24.0090   20.8890 C   0  0  0  0  0  0  0  0  0  0  0  0
  -29.5660  -24.3680   21.9880 O   0  0  0  0  0  0  0  0  0  0  0  0
  -28.3510  -25.0400   19.9750 C   0  0  0  0  0  2  0  0  0  0  0  0
  -28.4820  -26.4870   20.3060 O   0  0  0  0  0  0  0  0  0  0  0  0
  -24.6750  -31.8120   23.3020 C   0  0  0  0  0  0  0  0  0  0  0  0
  -27.3620  -27.3310   20.2040 C   0  0  0  0  0  0  0  0  0  0  0  0
  -23.5100  -30.4620   21.5930 C   0  0  0  0  0  3  0  0  0  0  0  0
  -24.9950  -28.9460   20.1610 C   0  0  0  0  0  0  0  0  0  0  0  0
  -26.0540  -30.7780   21.4840 C   0  0  0  0  0  2  0  0  0  0  0  0
  -26.1470  -29.4200   20.8010 C   0  0  0  0  0  0  0  0  0  0  0  0
  -27.3300  -28.6230   20.8130 C   0  0  0  0  0  3  0  0  0  0  0  0
  -26.1910  -26.9210   19.5180 C   0  0  0  0  0  3  0  0  0  0  0  0
  -25.0220  -27.7040   19.5090 C   0  0  0  0  0  3  0  0  0  0  0  0
  -23.7560  -29.8190   20.2020 C   0  0  0  0  0  2  0  0  0  0  0  0
  -24.7640  -31.0340   22.1840 N   0  0  0  0  0  0  0  0  0  0  0  0
  -23.5800  -32.0770   23.8180 O   0  0  0  0  0  0  0  0  0  0  0  0
  -22.8210  -29.4230   22.5100 C   0  0  0  0  0  0  0  0  0  0  0  0
  -21.4930  -29.2800   22.3690 N   0  0  0  0  0  0  0  0  0  0  0  0
  -23.4820  -28.7540   23.3090 O   0  0  0  0  0  0  0  0  0  0  0  0
  -21.0200  -29.8730   21.7000 H   0  0  0  0  0  0  0  0  0  0  0  0
  -18.0860  -28.1550   22.8400 C   0  0  0  0  0  0  0  0  0  0  0  0
  -20.6510  -28.3290   23.0980 C   0  0  0  0  0  3  0  0  0  0  0  0
  -20.7090  -26.9250   22.4580 C   0  0  0  0  0  2  0  0  0  0  0  0
  -19.5910  -26.6840   21.4380 C   0  0  0  0  0  2  0  0  0  0  0  0
  -18.2170  -26.8360   22.0990 C   0  0  0  0  0  2  0  0  0  0  0  0
  -19.2290  -28.8650   23.2940 C   0  0  0  0  0  0  0  0  0  0  0  0
  -19.0510  -30.1030   23.9490 C   0  0  0  0  0  3  0  0  0  0  0  0
  -17.7620  -30.6300   24.1500 C   0  0  0  0  0  3  0  0  0  0  0  0
  -16.6330  -29.9180   23.7090 C   0  0  0  0  0  3  0  0  0  0  0  0
  -16.7970  -28.6810   23.0620 C   0  0  0  0  0  3  0  0  0  0  0  0
  -25.9430  -32.4240   23.9730 C   0  0  0  0  0  3  0  0  0  0  0  0
  -25.6290  -33.8140   24.3340 N   0  0  0  0  0  0  0  0  0  0  0  0
  -25.9980  -34.8870   23.6210 C   0  0  0  0  0  0  0  0  0  0  0  0
  -26.7090  -34.8110   22.6150 O   0  0  0  0  0  0  0  0  0  0  0  0
  -25.0070  -33.9480   25.1180 H   0  0  0  0  0  0  0  0  0  0  0  0
  -24.2940  -36.7010   23.2560 C   0  0  0  0  0  1  0  0  0  0  0  0
  -25.5030  -36.2650   24.1010 C   0  0  0  0  0  3  0  0  0  0  0  0
  -27.6100  -37.1120   25.0370 C   0  0  0  0  0  1  0  0  0  0  0  0
  -26.5460  -37.3140   24.0550 N   0  0  0  0  0  0  0  0  0  0  0  0
  -26.1400  -38.2330   24.2110 H   0  0  0  0  0  0  0  0  0  0  0  0
  -26.4270  -31.6170   25.2410 C   0  0  1  0  0  0  0  0  0  0  0  0
  -25.3120  -31.3600   26.2830 C   0  0  0  0  0  1  0  0  0  0  0  0
  -27.0090  -30.2450   24.8280 C   0  0  0  0  0  1  0  0  0  0  0  0
  -27.5710  -32.3880   25.9450 C   0  0  0  0  0  1  0  0  0  0  0  0
  1 48  1  0
  3 10  1  0
  3  2  2  0
  4  2  1  0
  4  1  1  0
  5  3  1  0
  6  5  2  0
  6  7  1  0
  7  4  2  0
  8  5  1  0
  9  6  1  0
 10 17  2  0
 10 16  1  0
 11 16  1  0
 12 13  1  0
 12 11  1  0
 14 13  1  0
 14 21  1  0
 14 15  1  0
 16 15  1  0
 18 19  2  0
 19 38  1  0
 19 20  1  0
 20 23  1  0
 21 18  1  0
 21 22  1  0
 22 20  2  0
 23 24  1  0
 24 25  2  0
 26 29  1  0
 26 25  1  0
 27 26  2  0
 28 27  1  0
 28 23  2  0
 29 30  1  0
 30 31  1  0
 31 32  2  0
 33 32  1  0
 33 37  1  0
 34 33  2  0
 35 30  2  0
 35 34  1  0
 36 35  1  0
 38 39  1  0
 39 42  1  0
 39 41  1  0
 40 38  2  0
 43 18  1  0
 44 43  1  0
 45 43  1  0
 47 46  1  0
 47  7  1  0
 49 50  1  0
 49 48  1  0
 50 51  2  0
 52 53  1  0
 52 50  1  0
 54 65  2  0
 55 53  1  0
 55 60  1  0
 56 64  1  0
 56 66  1  0
 57 63  1  0
 57 59  1  0
 58 64  1  0
 59 60  2  0
 59 58  1  0
 61 55  2  0
 62 61  1  0
 62 57  2  0
 63 56  1  0
 64 54  1  0
 66 68  2  0
 67 66  1  0
 69 67  1  0
 70 79  2  0
 70 75  1  0
 71 67  1  0
 71 75  1  0
 72 71  1  0
 73 74  1  0
 73 72  1  0
 74 70  1  0
 75 76  2  0
 76 77  1  0
 78 77  2  0
 79 78  1  0
 80 54  1  0
 80 81  1  0
 80 90  1  0
 81 84  1  0
 82 86  1  0
 82 81  1  0
 83 82  2  0
 86 85  1  0
 88 86  1  0
 88 89  1  0
 88 87  1  0
 90 93  1  1
 90 91  1  0
 92 90  1  0
M  ISO  4   3 100  10 100  52 101  53 101
M  END
>  <TORSDO>  (9) 
F 22

>  <SCORE>  (9) 
-11.285

>  <name>  (9) 
8

>  <ligand_id>  (9) 
8

>  <original_smiles>  (9) 
[H]c1c([H])c([H])c2c(c1[H])C([H])([H])C([H])([H])C([H])([H])C2([H])N([H])C(=O)C1([H])N(C(=O)C([H])(N([H])C(=O)C([H])(N([H])C([H])([H])[H])C([H])([H])[H])C(C([H])([H])[H])(C([H])([H])[H])C([H])([H])[H])C([H])([H])c2c([H])c(OC([H])([H])C(=O)C([H])([H])C([H])([H])C([H])([H])c3c([H])c(C(=O)N4C([H])([H])C([H])([H])C([H])([H])C([H])(n5nc(-c6c([H])c([H])c(Oc7c([H])c([H])c(F)c([H])c7F)c([H])c6[H])c(C(=O)N([H])[H])c5N([H])[H])C4([H])[H])c(C([H])([H])[H])c(C([H])([H])[H])c3OC([H])([H])[H])c([H])c([H])c2C1([H])[H]

>  <smiles>  (9) 
[H]c1c([H])c([H])c2c(c1[H])C([H])([H])C([H])([H])C([H])([H])C2([H])N([H])C(=O)C1([H])N(C(=O)C([H])(N([H])C(=O)C([H])(N([H])C([H])([H])[H])C([H])([H])[H])C(C([H])([H])[H])(C([H])([H])[H])C([H])([H])[H])C([H])([H])c2c([H])c(OC([H])([H])C(=O)C([H])([H])C([H])([H])C([H])([H])c3c([H])c(C(=O)N4C([H])([H])C([H])([H])C([H])([H])C([H])(n5nc(-c6c([H])c([H])c(Oc7c([H])c([H])c(F)c([H])c7F)c([H])c6[H])c(C(=O)N([H])[H])c5N([H])[H])C4([H])[H])c(C([H])([H])[H])c(C([H])([H])[H])c3OC([H])([H])[H])c([H])c([H])c2C1([H])[H]

$$$$
9:0:0
     RDKit          3D

 91 99  0  0  1  0  0  0  0  0999 V2000
  -27.6240  -21.5500   18.7830 C   0  0  0  0  0  3  0  0  0  0  0  0
  -27.1770  -22.5070   17.8610 C   0  0  0  0  0  3  0  0  0  0  0  0
  -28.7500  -23.3090   20.0360 C   0  0  0  0  0  3  0  0  0  0  0  0
  -28.4420  -21.9190   19.8670 C   0  0  0  0  0  0  0  0  0  0  0  0
  -27.5290  -23.8660   17.9900 C   0  0  0  0  0  0  0  0  0  0  0  0
  -28.2970  -24.3030   19.1070 C   0  0  0  0  0  0  0  0  0  0  0  0
  -27.1250  -24.8040   16.8590 C   0  0  0  0  0  1  0  0  0  0  0  0
  -28.9130  -20.7970   20.8240 C   0  0  0  0  0  2  0  0  0  0  0  0
  -29.6490  -19.5710   20.1610 C   0  0  0  0  0  2  0  0  0  0  0  0
  -29.4150  -18.1550   20.8080 C   0  0  0  0  0  2  0  0  0  0  0  0
  -30.2880  -17.0050   20.1970 C   0  0  0  0  0  2  0  0  0  0  0  0
  -30.6300  -14.5100   20.2230 C   0  0  0  0  0  0  0  0  0  0  0  0
  -30.3010  -12.3170   19.1410 C   0  0  0  0  0  2  0  0  0  0  0  0
  -29.3450  -12.5150   17.9470 C   0  0  0  0  0  2  0  0  0  0  0  0
  -27.8760  -12.3920   18.4050 C   0  0  0  0  0  2  0  0  0  0  0  0
  -27.5640  -13.2330   19.6740 C   0  0  0  0  0  3  0  0  0  0  0  0
  -28.6470  -13.0410   20.7630 C   0  0  0  0  0  2  0  0  0  0  0  0
  -29.9530  -13.3290   20.1550 N   0  0  0  0  0  0  0  0  0  0  0  0
  -31.7790  -14.6320   19.7880 O   0  0  0  0  0  0  0  0  0  0  0  0
  -29.9090  -15.6090   20.5560 N   0  0  0  0  0  0  0  0  0  0  0  0
  -28.9650  -15.4470   20.8770 H   0  0  0  0  0  0  0  0  0  0  0  0
  -25.1870  -13.8400   20.4480 C   0  0  0  0  0  0  0  0  0  0  0  0
  -24.1270  -13.0700   20.8410 C   0  0  0  0  0  0  0  0  0  0  0  0
  -24.5860  -11.7170   20.8010 C   0  0  0  0  0  0  0  0  0  0  0  0
  -26.2240  -12.9570   20.1880 N   0  0  0  0  0  0  0  0  0  0  0  0
  -25.8680  -11.6750   20.4610 N   0  0  0  0  0  0  0  0  0  0  0  0
  -23.8610  -10.4560   21.0090 C   0  0  0  0  0  0  0  0  0  0  0  0
  -24.3180   -9.4830   21.9240 C   0  0  0  0  0  3  0  0  0  0  0  0
  -23.5930   -8.2870   22.1200 C   0  0  0  0  0  3  0  0  0  0  0  0
  -22.3960   -8.0560   21.4010 C   0  0  0  0  0  0  0  0  0  0  0  0
  -21.9580   -9.0180   20.4730 C   0  0  0  0  0  3  0  0  0  0  0  0
  -22.6840  -10.2050   20.2760 C   0  0  0  0  0  3  0  0  0  0  0  0
  -21.6410   -6.9120   21.5070 O   0  0  0  0  0  0  0  0  0  0  0  0
  -21.6330   -6.1580   22.6530 C   0  0  0  0  0  0  0  0  0  0  0  0
  -21.2660   -6.7030   23.9020 C   0  0  0  0  0  3  0  0  0  0  0  0
  -21.2040   -5.8750   25.0410 C   0  0  0  0  0  3  0  0  0  0  0  0
  -21.5020   -4.5030   24.9330 C   0  0  0  0  0  0  0  0  0  0  0  0
  -21.8640   -3.9580   23.6880 C   0  0  0  0  0  3  0  0  0  0  0  0
  -21.9270   -4.7830   22.5520 C   0  0  0  0  0  0  0  0  0  0  0  0
  -22.2550   -4.2470   21.3520 F   0  0  0  0  0  0  0  0  0  0  0  0
  -21.4380   -3.7070   26.0260 F   0  0  0  0  0  0  0  0  0  0  0  0
  -22.7360  -13.5490   21.1450 C   0  0  0  0  0  0  0  0  0  0  0  0
  -22.0240  -12.8560   22.0270 N   0  0  0  0  0  0  0  0  0  0  0  0
  -22.2890  -14.5740   20.6330 O   0  0  0  0  0  0  0  0  0  0  0  0
  -22.3970  -12.0270   22.4650 H   0  0  0  0  0  0  0  0  0  0  0  0
  -21.0940  -13.1630   22.2730 H   0  0  0  0  0  0  0  0  0  0  0  0
  -25.3510  -15.2090   20.2710 N   0  0  0  0  0  0  0  0  0  0  0  0
  -24.5950  -15.8660   20.4280 H   0  0  0  0  0  0  0  0  0  0  0  0
  -26.1950  -15.6540   19.9310 H   0  0  0  0  0  0  0  0  0  0  0  0
  -28.7810  -25.7810   19.1820 C   0  0  0  0  0  2  0  0  0  0  0  0
  -28.3820  -26.6230   20.2850 O   0  0  0  0  0  0  0  0  0  0  0  0
  -24.5820  -31.8880   23.2450 C   0  0  0  0  0  0  0  0  0  0  0  0
  -27.2250  -27.3840   20.2100 C   0  0  0  0  0  0  0  0  0  0  0  0
  -23.3830  -30.4830   21.6020 C   0  0  0  0  0  3  0  0  0  0  0  0
  -24.8410  -28.9290   20.1930 C   0  0  0  0  0  0  0  0  0  0  0  0
  -25.9150  -30.8190   21.4260 C   0  0  0  0  0  2  0  0  0  0  0  0
  -25.9980  -29.4420   20.7900 C   0  0  0  0  0  0  0  0  0  0  0  0
  -27.1890  -28.6740   20.8010 C   0  0  0  0  0  3  0  0  0  0  0  0
  -26.0420  -26.8850   19.6280 C   0  0  0  0  0  3  0  0  0  0  0  0
  -24.8570  -27.6480   19.6120 C   0  0  0  0  0  3  0  0  0  0  0  0
  -23.6010  -29.7970   20.2260 C   0  0  0  0  0  2  0  0  0  0  0  0
  -24.6450  -31.0800   22.1480 N   0  0  0  0  0  0  0  0  0  0  0  0
  -23.4970  -32.1670   23.7740 O   0  0  0  0  0  0  0  0  0  0  0  0
  -22.7190  -29.4710   22.5620 C   0  0  0  0  0  0  0  0  0  0  0  0
  -21.3940  -29.2890   22.4220 N   0  0  0  0  0  0  0  0  0  0  0  0
  -23.3920  -28.8500   23.3890 O   0  0  0  0  0  0  0  0  0  0  0  0
  -20.9130  -29.8430   21.7260 H   0  0  0  0  0  0  0  0  0  0  0  0
  -18.0180  -28.0870   22.8820 C   0  0  0  0  0  0  0  0  0  0  0  0
  -20.5710  -28.3560   23.1890 C   0  0  0  0  0  3  0  0  0  0  0  0
  -20.6850  -26.9190   22.6260 C   0  0  0  0  0  2  0  0  0  0  0  0
  -19.6000  -26.5860   21.5980 C   0  0  0  0  0  2  0  0  0  0  0  0
  -18.2080  -26.7320   22.2210 C   0  0  0  0  0  2  0  0  0  0  0  0
  -19.1290  -28.8550   23.3220 C   0  0  0  0  0  0  0  0  0  0  0  0
  -18.8980  -30.1250   23.8960 C   0  0  0  0  0  3  0  0  0  0  0  0
  -17.5900  -30.6250   24.0380 C   0  0  0  0  0  3  0  0  0  0  0  0
  -16.4940  -29.8540   23.6140 C   0  0  0  0  0  3  0  0  0  0  0  0
  -16.7090  -28.5860   23.0420 C   0  0  0  0  0  3  0  0  0  0  0  0
  -25.8640  -32.5180   23.8720 C   0  0  0  0  0  3  0  0  0  0  0  0
  -25.5580  -33.9190   24.1940 N   0  0  0  0  0  0  0  0  0  0  0  0
  -25.9000  -34.9670   23.4330 C   0  0  0  0  0  0  0  0  0  0  0  0
  -26.5770  -34.8570   22.4080 O   0  0  0  0  0  0  0  0  0  0  0  0
  -24.9560  -34.0780   24.9890 H   0  0  0  0  0  0  0  0  0  0  0  0
  -24.1790  -36.7610   23.0600 C   0  0  0  0  0  1  0  0  0  0  0  0
  -25.4140  -36.3590   23.8810 C   0  0  0  0  0  3  0  0  0  0  0  0
  -27.5470  -37.2390   24.7200 C   0  0  0  0  0  1  0  0  0  0  0  0
  -26.4510  -37.4080   23.7690 N   0  0  0  0  0  0  0  0  0  0  0  0
  -26.0460  -38.3300   23.9120 H   0  0  0  0  0  0  0  0  0  0  0  0
  -26.3720  -31.7510   25.1540 C   0  0  1  0  0  0  0  0  0  0  0  0
  -25.2740  -31.5230   26.2190 C   0  0  0  0  0  1  0  0  0  0  0  0
  -26.9520  -30.3690   24.7720 C   0  0  0  0  0  1  0  0  0  0  0  0
  -27.5230  -32.5430   25.8180 C   0  0  0  0  0  1  0  0  0  0  0  0
  1  4  1  0
  2  5  1  0
  2  1  2  0
  4  3  2  0
  4  8  1  0
  5  6  2  0
  6 50  1  0
  6  3  1  0
  7  5  1  0
  9 10  1  0
  9  8  1  0
 11 20  1  0
 11 10  1  0
 12 20  1  0
 13 18  1  0
 14 15  1  0
 14 13  1  0
 16 15  1  0
 16 25  1  0
 16 17  1  0
 18 12  1  0
 18 17  1  0
 19 12  2  0
 20 21  1  0
 22 23  2  0
 23 42  1  0
 24 23  1  0
 24 27  1  0
 25 22  1  0
 25 26  1  0
 26 24  2  0
 27 28  1  0
 28 29  2  0
 30 33  1  0
 30 29  1  0
 31 30  2  0
 32 31  1  0
 32 27  2  0
 33 34  1  0
 34 35  1  0
 35 36  2  0
 37 36  1  0
 37 41  1  0
 38 37  2  0
 39 34  2  0
 39 38  1  0
 40 39  1  0
 42 43  1  0
 43 46  1  0
 43 45  1  0
 44 42  2  0
 47 48  1  0
 47 22  1  0
 49 47  1  0
 50 51  1  0
 52 63  2  0
 53 51  1  0
 53 58  1  0
 54 62  1  0
 54 64  1  0
 55 61  1  0
 55 57  1  0
 56 62  1  0
 57 58  2  0
 57 56  1  0
 59 53  2  0
 60 59  1  0
 60 55  2  0
 61 54  1  0
 62 52  1  0
 64 66  2  0
 65 64  1  0
 67 65  1  0
 68 77  2  0
 68 73  1  0
 69 65  1  0
 69 73  1  0
 70 69  1  0
 71 72  1  0
 71 70  1  0
 72 68  1  0
 73 74  2  0
 74 75  1  0
 76 75  2  0
 77 76  1  0
 78 52  1  0
 78 79  1  0
 78 88  1  0
 79 82  1  0
 80 84  1  0
 80 79  1  0
 81 80  2  0
 84 83  1  0
 86 84  1  0
 86 87  1  0
 86 85  1  0
 88 91  1  1
 88 89  1  0
 90 88  1  0
M  ISO  4  12 100  20 100  50 101  51 101
M  END
>  <TORSDO>  (10) 
F 21

>  <SCORE>  (10) 
-13.324

>  <name>  (10) 
9

>  <ligand_id>  (10) 
9

>  <original_smiles>  (10) 
[H]c1c([H])c([H])c2c(c1[H])C([H])([H])C([H])([H])C([H])([H])C2([H])N([H])C(=O)C1([H])N(C(=O)C([H])(N([H])C(=O)C([H])(N([H])C([H])([H])[H])C([H])([H])[H])C(C([H])([H])[H])(C([H])([H])[H])C([H])([H])[H])C([H])([H])c2c([H])c(OC([H])([H])c3c([H])c(C([H])([H])C([H])([H])C([H])([H])C([H])([H])N([H])C(=O)N4C([H])([H])C([H])([H])C([H])([H])C([H])(n5nc(-c6c([H])c([H])c(Oc7c([H])c([H])c(F)c([H])c7F)c([H])c6[H])c(C(=O)N([H])[H])c5N([H])[H])C4([H])[H])c([H])c([H])c3C([H])([H])[H])c([H])c([H])c2C1([H])[H]

>  <smiles>  (10) 
[H]c1c([H])c([H])c2c(c1[H])C([H])([H])C([H])([H])C([H])([H])C2([H])N([H])C(=O)C1([H])N(C(=O)C([H])(N([H])C(=O)C([H])(N([H])C([H])([H])[H])C([H])([H])[H])C(C([H])([H])[H])(C([H])([H])[H])C([H])([H])[H])C([H])([H])c2c([H])c(OC([H])([H])c3c([H])c(C([H])([H])C([H])([H])C([H])([H])C([H])([H])N([H])C(=O)N4C([H])([H])C([H])([H])C([H])([H])C([H])(n5nc(-c6c([H])c([H])c(Oc7c([H])c([H])c(F)c([H])c7F)c([H])c6[H])c(C(=O)N([H])[H])c5N([H])[H])C4([H])[H])c([H])c([H])c3C([H])([H])[H])c([H])c([H])c2C1([H])[H]

$$$$
10:0:0
     RDKit          3D

 92100  0  0  1  0  0  0  0  0999 V2000
  -28.1290  -24.6400   22.4270 C   0  0  0  0  0  3  0  0  0  0  0  0
  -27.9580  -25.3130   21.2150 C   0  0  0  0  0  3  0  0  0  0  0  0
  -28.8450  -22.6980   21.2000 C   0  0  0  0  0  3  0  0  0  0  0  0
  -28.6360  -23.2460   19.8910 C   0  0  0  0  0  0  0  0  0  0  0  0
  -28.6320  -23.3450   22.4240 C   0  0  0  0  0  0  0  0  0  0  0  0
  -28.2000  -24.8040   19.8980 C   0  0  0  0  0  0  0  0  0  0  0  0
  -28.9840  -22.7190   23.6260 N   0  0  0  0  0  0  0  0  0  0  0  0
  -29.1100  -23.3000   24.4510 H   0  0  0  0  0  0  0  0  0  0  0  0
  -29.6770  -21.9720   23.5930 H   0  0  0  0  0  0  0  0  0  0  0  0
  -29.1410  -21.8990   18.9320 C   0  0  0  0  0  0  0  0  0  0  0  0
  -29.7320  -22.1690   17.8860 O   0  0  0  0  0  0  0  0  0  0  0  0
  -28.9770  -20.1370   19.2080 C   0  0  0  0  0  3  0  0  0  0  0  0
  -30.0220  -18.6580   18.9240 C   0  0  0  0  0  3  0  0  0  0  0  0
  -30.7740  -15.7980   19.3570 C   0  0  0  0  0  0  0  0  0  0  0  0
  -30.9380  -13.2360   18.8910 C   0  0  0  0  0  2  0  0  0  0  0  0
  -29.9870  -12.7230   17.7790 C   0  0  0  0  0  2  0  0  0  0  0  0
  -28.5950  -12.4040   18.3540 C   0  0  0  0  0  2  0  0  0  0  0  0
  -28.1160  -13.5190   19.3220 C   0  0  0  0  0  3  0  0  0  0  0  0
  -29.1910  -13.9590   20.3340 C   0  0  0  0  0  2  0  0  0  0  0  0
  -30.3300  -14.4560   19.5510 N   0  0  0  0  0  0  0  0  0  0  0  0
  -31.9670  -15.8450   19.0240 O   0  0  0  0  0  0  0  0  0  0  0  0
  -29.9130  -17.0210   19.3500 N   0  0  0  0  0  0  0  0  0  0  0  0
  -28.9710  -16.7770   19.6350 H   0  0  0  0  0  0  0  0  0  0  0  0
  -25.8720  -14.0760   20.3970 C   0  0  0  0  0  0  0  0  0  0  0  0
  -24.8420  -13.2990   20.8450 C   0  0  0  0  0  0  0  0  0  0  0  0
  -25.2650  -11.9450   20.6730 C   0  0  0  0  0  0  0  0  0  0  0  0
  -26.8510  -13.1980   19.9680 N   0  0  0  0  0  0  0  0  0  0  0  0
  -26.5070  -11.9070   20.2060 N   0  0  0  0  0  0  0  0  0  0  0  0
  -24.5350  -10.6850   20.8700 C   0  0  0  0  0  0  0  0  0  0  0  0
  -24.8870   -9.7780   21.8910 C   0  0  0  0  0  3  0  0  0  0  0  0
  -24.1540   -8.5860   22.0750 C   0  0  0  0  0  3  0  0  0  0  0  0
  -23.0470   -8.2960   21.2350 C   0  0  0  0  0  0  0  0  0  0  0  0
  -22.7170   -9.1950   20.2070 C   0  0  0  0  0  3  0  0  0  0  0  0
  -23.4520  -10.3770   20.0200 C   0  0  0  0  0  3  0  0  0  0  0  0
  -22.2940   -7.1540   21.3190 O   0  0  0  0  0  0  0  0  0  0  0  0
  -21.9150   -6.6240   22.5300 C   0  0  0  0  0  0  0  0  0  0  0  0
  -21.1140   -7.3480   23.4380 C   0  0  0  0  0  3  0  0  0  0  0  0
  -20.6870   -6.7440   24.6370 C   0  0  0  0  0  3  0  0  0  0  0  0
  -21.0550   -5.4180   24.9300 C   0  0  0  0  0  0  0  0  0  0  0  0
  -21.8550   -4.6950   24.0250 C   0  0  0  0  0  3  0  0  0  0  0  0
  -22.2790   -5.2960   22.8270 C   0  0  0  0  0  0  0  0  0  0  0  0
  -23.0260   -4.5870   21.9470 F   0  0  0  0  0  0  0  0  0  0  0  0
  -20.6460   -4.8350   26.0800 F   0  0  0  0  0  0  0  0  0  0  0  0
  -23.4980  -13.7860   21.3050 C   0  0  0  0  0  0  0  0  0  0  0  0
  -22.8690  -13.0650   22.2290 N   0  0  0  0  0  0  0  0  0  0  0  0
  -23.0220  -14.8360   20.8840 O   0  0  0  0  0  0  0  0  0  0  0  0
  -23.2780  -12.2200   22.6000 H   0  0  0  0  0  0  0  0  0  0  0  0
  -21.9670  -13.3690   22.5720 H   0  0  0  0  0  0  0  0  0  0  0  0
  -26.0440  -15.4560   20.2840 N   0  0  0  0  0  0  0  0  0  0  0  0
  -25.3270  -16.1160   20.5570 H   0  0  0  0  0  0  0  0  0  0  0  0
  -26.8290  -15.8990   19.8250 H   0  0  0  0  0  0  0  0  0  0  0  0
  -28.0160  -26.0560   19.0090 O   0  0  0  0  0  0  0  0  0  0  0  0
  -24.9520  -31.5640   23.2110 C   0  0  0  0  0  0  0  0  0  0  0  0
  -27.0850  -27.2220   19.2320 C   0  0  0  0  0  0  0  0  0  0  0  0
  -23.5660  -30.4540   21.5060 C   0  0  0  0  0  3  0  0  0  0  0  0
  -24.8320  -29.1110   19.6890 C   0  0  0  0  0  0  0  0  0  0  0  0
  -26.1020  -30.6960   21.1190 C   0  0  0  0  0  2  0  0  0  0  0  0
  -26.0840  -29.4050   20.2510 C   0  0  0  0  0  0  0  0  0  0  0  0
  -27.2020  -28.4830   20.0070 C   0  0  0  0  0  3  0  0  0  0  0  0
  -25.8170  -27.1130   18.6240 C   0  0  0  0  0  3  0  0  0  0  0  0
  -24.7250  -27.9900   18.8490 C   0  0  0  0  0  3  0  0  0  0  0  0
  -23.6380  -30.0060   20.0190 C   0  0  0  0  0  2  0  0  0  0  0  0
  -24.8990  -30.9260   21.9980 N   0  0  0  0  0  0  0  0  0  0  0  0
  -23.9320  -31.7510   23.8940 O   0  0  0  0  0  0  0  0  0  0  0  0
  -22.9690  -29.3080   22.3680 C   0  0  0  0  0  0  0  0  0  0  0  0
  -21.6490  -29.0590   22.2590 N   0  0  0  0  0  0  0  0  0  0  0  0
  -23.7010  -28.6480   23.1080 O   0  0  0  0  0  0  0  0  0  0  0  0
  -21.1030  -29.6500   21.6470 H   0  0  0  0  0  0  0  0  0  0  0  0
  -18.4250  -27.4120   22.5520 C   0  0  0  0  0  0  0  0  0  0  0  0
  -20.9210  -27.9820   22.9380 C   0  0  0  0  0  3  0  0  0  0  0  0
  -21.2230  -26.6100   22.2890 C   0  0  0  0  0  2  0  0  0  0  0  0
  -20.2080  -26.2170   21.2090 C   0  0  0  0  0  2  0  0  0  0  0  0
  -18.7990  -26.1440   21.8020 C   0  0  0  0  0  2  0  0  0  0  0  0
  -19.4230  -28.2810   23.0710 C   0  0  0  0  0  0  0  0  0  0  0  0
  -19.0220  -29.4610   23.7390 C   0  0  0  0  0  3  0  0  0  0  0  0
  -17.6580  -29.7780   23.8840 C   0  0  0  0  0  3  0  0  0  0  0  0
  -16.6770  -28.9090   23.3770 C   0  0  0  0  0  3  0  0  0  0  0  0
  -17.0610  -27.7270   22.7210 C   0  0  0  0  0  3  0  0  0  0  0  0
  -26.2940  -32.1020   23.7920 C   0  0  0  0  0  3  0  0  0  0  0  0
  -26.9280  -31.1430   24.8760 C   0  0  1  0  0  0  0  0  0  0  0  0
  -25.9440  -30.7390   26.0020 C   0  0  0  0  0  1  0  0  0  0  0  0
  -27.4550  -29.8430   24.2280 C   0  0  0  0  0  1  0  0  0  0  0  0
  -28.1510  -31.8260   25.5290 C   0  0  0  0  0  1  0  0  0  0  0  0
  -26.0320  -33.4260   24.3850 N   0  0  0  0  0  0  0  0  0  0  0  0
  -26.3860  -34.5980   23.8400 C   0  0  0  0  0  0  0  0  0  0  0  0
  -27.0350  -34.6730   22.7910 O   0  0  0  0  0  0  0  0  0  0  0  0
  -25.4510  -33.4400   25.2120 H   0  0  0  0  0  0  0  0  0  0  0  0
  -24.7470  -36.5100   23.8670 C   0  0  0  0  0  1  0  0  0  0  0  0
  -25.9660  -35.8920   24.5690 C   0  0  0  0  0  3  0  0  0  0  0  0
  -28.1330  -36.5050   25.5510 C   0  0  0  0  0  1  0  0  0  0  0  0
  -27.0490  -36.8990   24.6560 N   0  0  0  0  0  0  0  0  0  0  0  0
  -26.6830  -37.7940   24.9710 H   0  0  0  0  0  0  0  0  0  0  0  0
  2  1  2  0
  3  5  2  0
  4  6  2  0
  4  3  1  0
  5  1  1  0
  5  7  1  0
  6  2  1  0
  7  8  1  0
  9  7  1  0
 10 12  1  0
 10  4  1  0
 11 10  2  0
 13 12  2  0
 13 22  1  0
 14 20  1  0
 15 20  1  0
 16 17  1  0
 16 15  1  0
 18 17  1  0
 18 27  1  0
 18 19  1  0
 20 19  1  0
 21 14  2  0
 22 14  1  0
 22 23  1  0
 24 25  2  0
 25 44  1  0
 26 25  1  0
 26 29  1  0
 27 28  1  0
 27 24  1  0
 28 26  2  0
 29 30  1  0
 30 31  2  0
 32 35  1  0
 32 31  1  0
 33 32  2  0
 34 33  1  0
 34 29  2  0
 35 36  1  0
 36 41  2  0
 36 37  1  0
 37 38  2  0
 38 39  1  0
 39 43  1  0
 40 39  2  0
 41 40  1  0
 42 41  1  0
 44 45  1  0
 45 48  1  0
 45 47  1  0
 46 44  2  0
 49 24  1  0
 49 50  1  0
 51 49  1  0
 52 54  1  0
 52  6  1  0
 53 64  2  0
 54 59  1  0
 55 63  1  0
 55 65  1  0
 56 62  1  0
 56 58  1  0
 57 63  1  0
 58 57  1  0
 59 58  2  0
 60 61  1  0
 60 54  2  0
 61 56  2  0
 62 55  1  0
 63 53  1  0
 65 67  2  0
 66 65  1  0
 68 66  1  0
 69 78  2  0
 69 74  1  0
 70 66  1  0
 70 74  1  0
 71 70  1  0
 72 73  1  0
 72 71  1  0
 73 69  1  0
 74 75  2  0
 75 76  1  0
 77 76  2  0
 78 77  1  0
 79 53  1  0
 79 84  1  0
 79 80  1  0
 80 83  1  1
 80 81  1  0
 82 80  1  0
 84 87  1  0
 85 84  1  0
 85 89  1  0
 86 85  2  0
 89 88  1  0
 89 91  1  0
 91 92  1  0
 91 90  1  0
M  ISO  4   6 101  14 100  22 100  52 101
M  END
>  <TORSDO>  (11) 
F 20

>  <SCORE>  (11) 
-12.198

>  <name>  (11) 
10

>  <ligand_id>  (11) 
10

>  <original_smiles>  (11) 
[H]c1c([H])c([H])c2c(c1[H])C([H])([H])C([H])([H])C([H])([H])C2([H])N([H])C(=O)C1([H])N(C(=O)C([H])(N([H])C(=O)C([H])(N([H])C([H])([H])[H])C([H])([H])[H])C(C([H])([H])[H])(C([H])([H])[H])C([H])([H])[H])C([H])([H])c2c([H])c(Oc3c([H])c([H])c(N([H])[H])c([H])c3C(=O)C([H])([H])C([H])([H])N([H])C(=O)N3C([H])([H])C([H])([H])C([H])([H])C([H])(n4nc(-c5c([H])c([H])c(Oc6c([H])c([H])c(F)c([H])c6F)c([H])c5[H])c(C(=O)N([H])[H])c4N([H])[H])C3([H])[H])c([H])c([H])c2C1([H])[H]

>  <smiles>  (11) 
[H]c1c([H])c([H])c2c(c1[H])C([H])([H])C([H])([H])C([H])([H])C2([H])N([H])C(=O)C1([H])N(C(=O)C([H])(N([H])C(=O)C([H])(N([H])C([H])([H])[H])C([H])([H])[H])C(C([H])([H])[H])(C([H])([H])[H])C([H])([H])[H])C([H])([H])c2c([H])c(Oc3c([H])c([H])c(N([H])[H])c([H])c3C(=O)C([H])([H])C([H])([H])N([H])C(=O)N3C([H])([H])C([H])([H])C([H])([H])C([H])(n4nc(-c5c([H])c([H])c(Oc6c([H])c([H])c(F)c([H])c6F)c([H])c5[H])c(C(=O)N([H])[H])c4N([H])[H])C3([H])[H])c([H])c([H])c2C1([H])[H]

$$$$
11:0:0
     RDKit          3D

 87 95  0  0  1  0  0  0  0  0999 V2000
  -28.6310  -21.4970   21.3180 C   0  0  0  0  0  3  0  0  0  0  0  0
  -28.2830  -22.9930   21.3360 C   0  0  0  0  0  3  0  0  0  0  0  0
  -29.1200  -21.6460   19.1660 C   0  0  0  0  0  3  0  0  0  0  0  0
  -29.1010  -20.5950   20.2270 C   0  0  0  0  0  0  0  0  0  0  0  0
  -28.7760  -23.1440   19.1710 C   0  0  0  0  0  0  0  0  0  0  0  0
  -28.2890  -24.0380   20.2660 C   0  0  0  0  0  0  0  0  0  0  0  0
  -29.0240  -23.8690   17.8620 C   0  0  0  0  0  1  0  0  0  0  0  0
  -28.2050  -25.6560   20.3130 O   0  0  0  0  0  0  0  0  0  0  0  0
  -24.6590  -31.9120   23.2430 C   0  0  0  0  0  0  0  0  0  0  0  0
  -27.1780  -26.8190   20.2900 C   0  0  0  0  0  0  0  0  0  0  0  0
  -23.4640  -30.5070   21.6150 C   0  0  0  0  0  3  0  0  0  0  0  0
  -24.9060  -28.8420   20.2170 C   0  0  0  0  0  0  0  0  0  0  0  0
  -26.0410  -30.6450   21.4920 C   0  0  0  0  0  2  0  0  0  0  0  0
  -26.0990  -29.2060   20.8490 C   0  0  0  0  0  0  0  0  0  0  0  0
  -27.2170  -28.2210   20.8560 C   0  0  0  0  0  3  0  0  0  0  0  0
  -25.9520  -26.6620   19.5950 C   0  0  0  0  0  3  0  0  0  0  0  0
  -24.8690  -27.5950   19.5670 C   0  0  0  0  0  3  0  0  0  0  0  0
  -23.7020  -29.7980   20.2490 C   0  0  0  0  0  2  0  0  0  0  0  0
  -24.7450  -31.0560   22.1680 N   0  0  0  0  0  0  0  0  0  0  0  0
  -23.5670  -32.2190   23.7530 O   0  0  0  0  0  0  0  0  0  0  0  0
  -22.7460  -29.5400   22.5940 C   0  0  0  0  0  0  0  0  0  0  0  0
  -21.4150  -29.3820   22.4630 N   0  0  0  0  0  0  0  0  0  0  0  0
  -23.3980  -28.9290   23.4430 O   0  0  0  0  0  0  0  0  0  0  0  0
  -20.9380  -29.9260   21.7560 H   0  0  0  0  0  0  0  0  0  0  0  0
  -18.0280  -28.1670   22.9640 C   0  0  0  0  0  0  0  0  0  0  0  0
  -20.5850  -28.4540   23.2420 C   0  0  0  0  0  3  0  0  0  0  0  0
  -20.6970  -27.0140   22.6880 C   0  0  0  0  0  2  0  0  0  0  0  0
  -19.6050  -26.6730   21.6700 C   0  0  0  0  0  2  0  0  0  0  0  0
  -18.2180  -26.8140   22.3020 C   0  0  0  0  0  2  0  0  0  0  0  0
  -19.1370  -28.9440   23.3920 C   0  0  0  0  0  0  0  0  0  0  0  0
  -18.9020  -30.2070   23.9760 C   0  0  0  0  0  3  0  0  0  0  0  0
  -17.5910  -30.6950   24.1350 C   0  0  0  0  0  3  0  0  0  0  0  0
  -16.4950  -29.9160   23.7200 C   0  0  0  0  0  3  0  0  0  0  0  0
  -16.7150  -28.6540   23.1420 C   0  0  0  0  0  3  0  0  0  0  0  0
  -25.9240  -32.5620   23.8790 C   0  0  0  0  0  3  0  0  0  0  0  0
  -25.6070  -33.9640   24.2140 N   0  0  0  0  0  0  0  0  0  0  0  0
  -25.9210  -35.0280   23.4620 C   0  0  0  0  0  0  0  0  0  0  0  0
  -26.5670  -34.9320   22.4160 O   0  0  0  0  0  0  0  0  0  0  0  0
  -25.0310  -34.1100   25.0300 H   0  0  0  0  0  0  0  0  0  0  0  0
  -24.1750  -36.8240   23.1820 C   0  0  0  0  0  1  0  0  0  0  0  0
  -25.4480  -36.4170   23.9420 C   0  0  0  0  0  3  0  0  0  0  0  0
  -27.6060  -37.3190   24.6960 C   0  0  0  0  0  1  0  0  0  0  0  0
  -26.4720  -37.4760   23.7910 N   0  0  0  0  0  0  0  0  0  0  0  0
  -26.0660  -38.3960   23.9460 H   0  0  0  0  0  0  0  0  0  0  0  0
  -26.4210  -31.8050   25.1740 C   0  0  1  0  0  0  0  0  0  0  0  0
  -25.3140  -31.5870   26.2330 C   0  0  0  0  0  1  0  0  0  0  0  0
  -27.0010  -30.4180   24.8190 C   0  0  0  0  0  1  0  0  0  0  0  0
  -27.5690  -32.6020   25.8390 C   0  0  0  0  0  1  0  0  0  0  0  0
  -29.8560  -18.8800   20.2300 C   0  0  0  0  0  2  0  0  0  0  0  0
  -30.2780  -15.7520   20.1540 C   0  0  0  0  0  0  0  0  0  0  0  0
  -30.3590  -13.2150   19.3040 C   0  0  0  0  0  2  0  0  0  0  0  0
  -29.4330  -12.7960   18.1270 C   0  0  0  0  0  2  0  0  0  0  0  0
  -28.0330  -12.4160   18.6330 C   0  0  0  0  0  2  0  0  0  0  0  0
  -27.5430  -13.4090   19.7090 C   0  0  0  0  0  3  0  0  0  0  0  0
  -28.6100  -13.7370   20.7830 C   0  0  0  0  0  2  0  0  0  0  0  0
  -29.7460  -14.3860   20.0800 N   0  0  0  0  0  0  0  0  0  0  0  0
  -31.5110  -15.6740   19.9900 O   0  0  0  0  0  0  0  0  0  0  0  0
  -28.0780  -17.0320   20.1810 C   0  0  0  0  0  1  0  0  0  0  0  0
  -29.5300  -17.1360   20.2140 N   0  0  0  0  0  0  0  0  0  0  0  0
  -25.2030  -13.9150   20.5590 C   0  0  0  0  0  0  0  0  0  0  0  0
  -24.1610  -13.1230   20.9460 C   0  0  0  0  0  0  0  0  0  0  0  0
  -24.6410  -11.7780   20.8740 C   0  0  0  0  0  0  0  0  0  0  0  0
  -26.2470  -13.0580   20.2700 N   0  0  0  0  0  0  0  0  0  0  0  0
  -25.9240  -11.7630   20.5250 N   0  0  0  0  0  0  0  0  0  0  0  0
  -23.9270  -10.5090   21.0590 C   0  0  0  0  0  0  0  0  0  0  0  0
  -24.3830   -9.5330   21.9720 C   0  0  0  0  0  3  0  0  0  0  0  0
  -23.6650   -8.3310   22.1500 C   0  0  0  0  0  3  0  0  0  0  0  0
  -22.4780   -8.0970   21.4160 C   0  0  0  0  0  0  0  0  0  0  0  0
  -22.0430   -9.0620   20.4910 C   0  0  0  0  0  3  0  0  0  0  0  0
  -22.7600  -10.2560   20.3120 C   0  0  0  0  0  3  0  0  0  0  0  0
  -21.7300   -6.9480   21.5050 O   0  0  0  0  0  0  0  0  0  0  0  0
  -21.6940   -6.2010   22.6550 C   0  0  0  0  0  0  0  0  0  0  0  0
  -21.2530   -6.7420   23.8820 C   0  0  0  0  0  3  0  0  0  0  0  0
  -21.1660   -5.9200   25.0240 C   0  0  0  0  0  3  0  0  0  0  0  0
  -21.5080   -4.5580   24.9380 C   0  0  0  0  0  0  0  0  0  0  0  0
  -21.9430   -4.0160   23.7170 C   0  0  0  0  0  3  0  0  0  0  0  0
  -22.0320   -4.8350   22.5770 C   0  0  0  0  0  0  0  0  0  0  0  0
  -22.4310   -4.3030   21.3970 F   0  0  0  0  0  0  0  0  0  0  0  0
  -21.4160   -3.7660   26.0320 F   0  0  0  0  0  0  0  0  0  0  0  0
  -22.7690  -13.5870   21.2580 C   0  0  0  0  0  0  0  0  0  0  0  0
  -22.0720  -12.8780   22.1370 N   0  0  0  0  0  0  0  0  0  0  0  0
  -22.3110  -14.6140   20.7600 O   0  0  0  0  0  0  0  0  0  0  0  0
  -22.4560  -12.0480   22.5630 H   0  0  0  0  0  0  0  0  0  0  0  0
  -21.1390  -13.1710   22.3900 H   0  0  0  0  0  0  0  0  0  0  0  0
  -25.3340  -15.2900   20.3990 N   0  0  0  0  0  0  0  0  0  0  0  0
  -24.5560  -15.9230   20.5510 H   0  0  0  0  0  0  0  0  0  0  0  0
  -26.1620  -15.7550   20.0560 H   0  0  0  0  0  0  0  0  0  0  0  0
  1  2  1  0
  3  5  2  0
  3  4  1  0
  4 49  1  0
  4  1  2  0
  5  6  1  0
  6  8  1  0
  6  2  2  0
  7  5  1  0
  9 20  2  0
 10  8  1  0
 10 15  1  0
 11 19  1  0
 11 21  1  0
 12 18  1  0
 12 14  1  0
 13 19  1  0
 14 15  2  0
 14 13  1  0
 16 10  2  0
 17 16  1  0
 17 12  2  0
 18 11  1  0
 19  9  1  0
 21 23  2  0
 22 21  1  0
 24 22  1  0
 25 34  2  0
 25 30  1  0
 26 22  1  0
 26 30  1  0
 27 26  1  0
 28 29  1  0
 28 27  1  0
 29 25  1  0
 30 31  2  0
 31 32  1  0
 33 32  2  0
 34 33  1  0
 35  9  1  0
 35 36  1  0
 35 45  1  0
 36 39  1  0
 37 41  1  0
 37 36  1  0
 38 37  2  0
 41 40  1  0
 43 41  1  0
 43 44  1  0
 43 42  1  0
 45 48  1  1
 45 46  1  0
 47 45  1  0
 50 59  1  0
 51 56  1  0
 52 53  1  0
 52 51  1  0
 54 53  1  0
 54 63  1  0
 54 55  1  0
 56 50  1  0
 56 55  1  0
 57 50  2  0
 58 59  1  0
 59 49  1  0
 60 61  2  0
 61 80  1  0
 62 61  1  0
 62 65  1  0
 63 64  1  0
 63 60  1  0
 64 62  2  0
 65 66  1  0
 66 67  2  0
 68 71  1  0
 68 67  1  0
 69 68  2  0
 70 69  1  0
 70 65  2  0
 71 72  1  0
 72 73  1  0
 73 74  2  0
 75 74  1  0
 75 79  1  0
 76 75  2  0
 77 72  2  0
 77 76  1  0
 78 77  1  0
 80 81  1  0
 81 84  1  0
 81 83  1  0
 82 80  2  0
 85 86  1  0
 85 60  1  0
 87 85  1  0
M  ISO  4   6 101   8 101  50 100  59 100
M  END
>  <TORSDO>  (12) 
F 17

>  <SCORE>  (12) 
-15.990

>  <name>  (12) 
11

>  <ligand_id>  (12) 
11

>  <original_smiles>  (12) 
[H]c1c([H])c([H])c2c(c1[H])C([H])([H])C([H])([H])C([H])([H])C2([H])N([H])C(=O)C1([H])N(C(=O)C([H])(N([H])C(=O)C([H])(N([H])C([H])([H])[H])C([H])([H])[H])C(C([H])([H])[H])(C([H])([H])[H])C([H])([H])[H])C([H])([H])c2c([H])c(Oc3c([H])c([H])c(C([H])([H])N(C(=O)N4C([H])([H])C([H])([H])C([H])([H])C([H])(n5nc(-c6c([H])c([H])c(Oc7c([H])c([H])c(F)c([H])c7F)c([H])c6[H])c(C(=O)N([H])[H])c5N([H])[H])C4([H])[H])C([H])([H])[H])c([H])c3C([H])([H])[H])c([H])c([H])c2C1([H])[H]

>  <smiles>  (12) 
[H]c1c([H])c([H])c2c(c1[H])C([H])([H])C([H])([H])C([H])([H])C2([H])N([H])C(=O)C1([H])N(C(=O)C([H])(N([H])C(=O)C([H])(N([H])C([H])([H])[H])C([H])([H])[H])C(C([H])([H])[H])(C([H])([H])[H])C([H])([H])[H])C([H])([H])c2c([H])c(Oc3c([H])c([H])c(C([H])([H])N(C(=O)N4C([H])([H])C([H])([H])C([H])([H])C([H])(n5nc(-c6c([H])c([H])c(Oc7c([H])c([H])c(F)c([H])c7F)c([H])c6[H])c(C(=O)N([H])[H])c5N([H])[H])C4([H])[H])C([H])([H])[H])c([H])c3C([H])([H])[H])c([H])c([H])c2C1([H])[H]

$$$$
12:0:0
     RDKit          3D

 95103  0  0  1  0  0  0  0  0999 V2000
  -28.2850  -24.3580   20.0550 C   0  0  0  0  0  3  0  0  0  0  0  0
  -26.7110  -24.3250   22.3650 C   0  0  0  0  0  3  0  0  0  0  0  0
  -27.7120  -23.1260   20.4880 C   0  0  0  0  0  0  0  0  0  0  0  0
  -26.8140  -23.1600   21.5810 C   0  0  0  0  0  0  0  0  0  0  0  0
  -28.0440  -25.5770   20.7360 C   0  0  0  0  0  0  0  0  0  0  0  0
  -27.3370  -25.5180   21.9580 C   0  0  0  0  0  0  0  0  0  0  0  0
  -27.1910  -26.6220   22.7290 F   0  0  0  0  0  0  0  0  0  0  0  0
  -26.0150  -22.0610   21.9300 N   0  0  0  0  0  0  0  0  0  0  0  0
  -25.7110  -21.4280   21.1920 H   0  0  0  0  0  0  0  0  0  0  0  0
  -25.3350  -22.1470   22.6730 H   0  0  0  0  0  0  0  0  0  0  0  0
  -28.3910  -26.8070   20.1780 O   0  0  0  0  0  0  0  0  0  0  0  0
  -24.5900  -31.9740   23.2020 C   0  0  0  0  0  0  0  0  0  0  0  0
  -27.3210  -27.6620   20.0270 C   0  0  0  0  0  0  0  0  0  0  0  0
  -23.4220  -30.5950   21.5150 C   0  0  0  0  0  3  0  0  0  0  0  0
  -24.9190  -29.1530   20.0340 C   0  0  0  0  0  0  0  0  0  0  0  0
  -25.9400  -31.0130   21.3440 C   0  0  0  0  0  2  0  0  0  0  0  0
  -26.0580  -29.6690   20.6620 C   0  0  0  0  0  0  0  0  0  0  0  0
  -27.2680  -28.9300   20.6590 C   0  0  0  0  0  3  0  0  0  0  0  0
  -26.1790  -27.1900   19.3450 C   0  0  0  0  0  3  0  0  0  0  0  0
  -24.9750  -27.9180   19.3660 C   0  0  0  0  0  3  0  0  0  0  0  0
  -23.6500  -29.9710   20.1100 C   0  0  0  0  0  2  0  0  0  0  0  0
  -24.6700  -31.2030   22.0800 N   0  0  0  0  0  0  0  0  0  0  0  0
  -23.5030  -32.2070   23.7460 O   0  0  0  0  0  0  0  0  0  0  0  0
  -22.7790  -29.5360   22.4400 C   0  0  0  0  0  0  0  0  0  0  0  0
  -21.4550  -29.3450   22.3080 N   0  0  0  0  0  0  0  0  0  0  0  0
  -23.4680  -28.8820   23.2270 O   0  0  0  0  0  0  0  0  0  0  0  0
  -20.9650  -29.9540   21.6690 H   0  0  0  0  0  0  0  0  0  0  0  0
  -18.0930  -28.1120   22.7630 C   0  0  0  0  0  0  0  0  0  0  0  0
  -20.6490  -28.3680   23.0370 C   0  0  0  0  0  3  0  0  0  0  0  0
  -20.7530  -26.9590   22.4110 C   0  0  0  0  0  2  0  0  0  0  0  0
  -19.6560  -26.6790   21.3800 C   0  0  0  0  0  2  0  0  0  0  0  0
  -18.2710  -26.7870   22.0430 C   0  0  0  0  0  2  0  0  0  0  0  0
  -19.2090  -28.8620   23.2160 C   0  0  0  0  0  0  0  0  0  0  0  0
  -18.9970  -30.1090   23.8440 C   0  0  0  0  0  3  0  0  0  0  0  0
  -17.6950  -30.6060   24.0190 C   0  0  0  0  0  3  0  0  0  0  0  0
  -16.5920  -29.8480   23.5990 C   0  0  0  0  0  3  0  0  0  0  0  0
  -16.7860  -28.6070   22.9780 C   0  0  0  0  0  3  0  0  0  0  0  0
  -25.8670  -32.6020   23.8460 C   0  0  0  0  0  3  0  0  0  0  0  0
  -25.5510  -33.9970   24.1750 N   0  0  0  0  0  0  0  0  0  0  0  0
  -25.8840  -35.0540   23.4180 C   0  0  0  0  0  0  0  0  0  0  0  0
  -26.5600  -34.9530   22.3880 O   0  0  0  0  0  0  0  0  0  0  0  0
  -24.9620  -34.1530   24.9790 H   0  0  0  0  0  0  0  0  0  0  0  0
  -24.1490  -36.8400   23.0450 C   0  0  0  0  0  1  0  0  0  0  0  0
  -25.3860  -36.4420   23.8670 C   0  0  0  0  0  3  0  0  0  0  0  0
  -27.5100  -37.3420   24.7080 C   0  0  0  0  0  1  0  0  0  0  0  0
  -26.4120  -37.5010   23.7580 N   0  0  0  0  0  0  0  0  0  0  0  0
  -26.0030  -38.4210   23.8970 H   0  0  0  0  0  0  0  0  0  0  0  0
  -26.3670  -31.8280   25.1250 C   0  0  1  0  0  0  0  0  0  0  0  0
  -25.2600  -31.5750   26.1740 C   0  0  0  0  0  1  0  0  0  0  0  0
  -26.9580  -30.4540   24.7270 C   0  0  0  0  0  1  0  0  0  0  0  0
  -27.5030  -32.6180   25.8130 C   0  0  0  0  0  1  0  0  0  0  0  0
  -28.0760  -21.8030   19.7610 C   0  0  0  0  0  2  0  0  0  0  0  0
  -28.4460  -20.6100   20.7020 C   0  0  0  0  0  2  0  0  0  0  0  0
  -29.5840  -19.6560   20.2550 C   0  0  0  0  0  2  0  0  0  0  0  0
  -29.2830  -18.1120   20.2620 C   0  0  0  0  0  2  0  0  0  0  0  0
  -31.7370  -17.6860   21.0360 C   0  0  0  0  0  1  0  0  0  0  0  0
  -30.2840  -17.1760   21.0310 C   0  0  0  0  0  3  0  0  0  0  0  0
  -30.9060  -14.7970   20.0490 C   0  0  0  0  0  0  0  0  0  0  0  0
  -30.6860  -12.5860   18.9140 C   0  0  0  0  0  2  0  0  0  0  0  0
  -29.7100  -12.7290   17.7260 C   0  0  0  0  0  2  0  0  0  0  0  0
  -28.2400  -12.6050   18.1770 C   0  0  0  0  0  2  0  0  0  0  0  0
  -27.9270  -13.4600   19.4350 C   0  0  0  0  0  3  0  0  0  0  0  0
  -28.9970  -13.2360   20.5230 C   0  0  0  0  0  2  0  0  0  0  0  0
  -30.3010  -13.5800   19.9320 N   0  0  0  0  0  0  0  0  0  0  0  0
  -32.0130  -15.0310   19.5470 O   0  0  0  0  0  0  0  0  0  0  0  0
  -30.1380  -15.7350   20.6730 N   0  0  0  0  0  0  0  0  0  0  0  0
  -29.2440  -15.3490   20.9440 H   0  0  0  0  0  0  0  0  0  0  0  0
  -25.5710  -14.1150   20.2150 C   0  0  0  0  0  0  0  0  0  0  0  0
  -24.5040  -13.3620   20.6140 C   0  0  0  0  0  0  0  0  0  0  0  0
  -24.9310  -12.0000   20.5680 C   0  0  0  0  0  0  0  0  0  0  0  0
  -26.5860  -13.2110   19.9480 N   0  0  0  0  0  0  0  0  0  0  0  0
  -26.2080  -11.9340   20.2140 N   0  0  0  0  0  0  0  0  0  0  0  0
  -24.1810  -10.7570   20.7810 C   0  0  0  0  0  0  0  0  0  0  0  0
  -24.5940   -9.8050   21.7390 C   0  0  0  0  0  3  0  0  0  0  0  0
  -23.8480   -8.6240   21.9410 C   0  0  0  0  0  3  0  0  0  0  0  0
  -22.6780   -8.3870   21.1790 C   0  0  0  0  0  0  0  0  0  0  0  0
  -22.2840   -9.3280   20.2130 C   0  0  0  0  0  3  0  0  0  0  0  0
  -23.0300  -10.4990   20.0100 C   0  0  0  0  0  3  0  0  0  0  0  0
  -21.9040   -7.2570   21.2880 O   0  0  0  0  0  0  0  0  0  0  0  0
  -21.8020   -6.5670   22.4700 C   0  0  0  0  0  0  0  0  0  0  0  0
  -21.3320   -7.1810   23.6520 C   0  0  0  0  0  3  0  0  0  0  0  0
  -21.1710   -6.4190   24.8270 C   0  0  0  0  0  3  0  0  0  0  0  0
  -21.4670   -5.0420   24.8190 C   0  0  0  0  0  0  0  0  0  0  0  0
  -21.9280   -4.4270   23.6420 C   0  0  0  0  0  3  0  0  0  0  0  0
  -22.0890   -5.1870   22.4700 C   0  0  0  0  0  0  0  0  0  0  0  0
  -22.5130   -4.5850   21.3330 F   0  0  0  0  0  0  0  0  0  0  0  0
  -21.3050   -4.3090   25.9450 F   0  0  0  0  0  0  0  0  0  0  0  0
  -23.1280  -13.8750   20.9350 C   0  0  0  0  0  0  0  0  0  0  0  0
  -22.4170  -13.1940   21.8290 N   0  0  0  0  0  0  0  0  0  0  0  0
  -22.6890  -14.9060   20.4290 O   0  0  0  0  0  0  0  0  0  0  0  0
  -22.7850  -12.3550   22.2560 H   0  0  0  0  0  0  0  0  0  0  0  0
  -21.4940  -13.5120   22.0920 H   0  0  0  0  0  0  0  0  0  0  0  0
  -25.7610  -15.4830   20.0390 N   0  0  0  0  0  0  0  0  0  0  0  0
  -25.0160  -16.1490   20.1990 H   0  0  0  0  0  0  0  0  0  0  0  0
  -26.6040  -15.9070   19.6750 H   0  0  0  0  0  0  0  0  0  0  0  0
  1  3  2  0
  1  5  1  0
  3  4  1  0
  4  8  1  0
  4  2  2  0
  5  6  2  0
  6  2  1  0
  6  7  1  0
  8 10  1  0
  9  8  1  0
 11  5  1  0
 12 23  2  0
 13 11  1  0
 13 18  1  0
 14 22  1  0
 14 24  1  0
 15 21  1  0
 15 17  1  0
 16 22  1  0
 17 16  1  0
 18 17  2  0
 19 20  1  0
 19 13  2  0
 20 15  2  0
 21 14  1  0
 22 12  1  0
 24 26  2  0
 25 24  1  0
 27 25  1  0
 28 37  2  0
 28 33  1  0
 29 25  1  0
 29 33  1  0
 30 29  1  0
 31 32  1  0
 31 30  1  0
 32 28  1  0
 33 34  2  0
 34 35  1  0
 36 35  2  0
 37 36  1  0
 38 12  1  0
 38 39  1  0
 38 48  1  0
 39 42  1  0
 40 44  1  0
 40 39  1  0
 41 40  2  0
 44 43  1  0
 46 44  1  0
 46 47  1  0
 46 45  1  0
 48 51  1  1
 48 49  1  0
 50 48  1  0
 52  3  1  0
 52 53  1  0
 54 55  1  0
 54 53  1  0
 55 57  1  0
 57 56  1  0
 58 66  1  0
 59 64  1  0
 60 61  1  0
 60 59  1  0
 62 61  1  0
 62 71  1  0
 62 63  1  0
 64 58  1  0
 64 63  1  0
 65 58  2  0
 66 67  1  0
 66 57  1  0
 68 69  2  0
 69 88  1  0
 70 69  1  0
 70 73  1  0
 71 72  1  0
 71 68  1  0
 72 70  2  0
 73 74  1  0
 74 75  2  0
 76 79  1  0
 76 75  1  0
 77 76  2  0
 78 77  1  0
 78 73  2  0
 79 80  1  0
 80 85  2  0
 80 81  1  0
 81 82  2  0
 83 82  1  0
 83 87  1  0
 84 83  2  0
 85 84  1  0
 86 85  1  0
 88 89  1  0
 89 92  1  0
 89 91  1  0
 90 88  2  0
 93 94  1  0
 93 68  1  0
 95 93  1  0
M  ISO  4   5 101  11 101  58 100  66 100
M  END
>  <TORSDO>  (13) 
F 22

>  <SCORE>  (13) 
-11.597

>  <name>  (13) 
12

>  <ligand_id>  (13) 
12

>  <original_smiles>  (13) 
[H]c1c([H])c([H])c2c(c1[H])C([H])([H])C([H])([H])C([H])([H])C2([H])N([H])C(=O)C1([H])N(C(=O)C([H])(N([H])C(=O)C([H])(N([H])C([H])([H])[H])C([H])([H])[H])C(C([H])([H])[H])(C([H])([H])[H])C([H])([H])[H])C([H])([H])c2c([H])c(Oc3c([H])c(C([H])([H])C([H])([H])C([H])([H])C([H])([H])C([H])(N([H])C(=O)N4C([H])([H])C([H])([H])C([H])([H])C([H])(n5nc(-c6c([H])c([H])c(Oc7c([H])c([H])c(F)c([H])c7F)c([H])c6[H])c(C(=O)N([H])[H])c5N([H])[H])C4([H])[H])C([H])([H])[H])c(N([H])[H])c([H])c3F)c([H])c([H])c2C1([H])[H]

>  <smiles>  (13) 
[H]c1c([H])c([H])c2c(c1[H])C([H])([H])C([H])([H])C([H])([H])C2([H])N([H])C(=O)C1([H])N(C(=O)C([H])(N([H])C(=O)C([H])(N([H])C([H])([H])[H])C([H])([H])[H])C(C([H])([H])[H])(C([H])([H])[H])C([H])([H])[H])C([H])([H])c2c([H])c(Oc3c([H])c(C([H])([H])C([H])([H])C([H])([H])C([H])([H])C([H])(N([H])C(=O)N4C([H])([H])C([H])([H])C([H])([H])C([H])(n5nc(-c6c([H])c([H])c(Oc7c([H])c([H])c(F)c([H])c7F)c([H])c6[H])c(C(=O)N([H])[H])c5N([H])[H])C4([H])[H])C([H])([H])[H])c(N([H])[H])c([H])c3F)c([H])c([H])c2C1([H])[H]

$$$$
13:0:0
     RDKit          3D

 89 97  0  0  1  0  0  0  0  0999 V2000
  -27.1470  -23.1030   19.9350 C   0  0  0  0  0  3  0  0  0  0  0  0
  -26.8680  -21.7280   19.6190 C   0  0  0  0  0  3  0  0  0  0  0  0
  -29.3390  -22.2790   20.3540 C   0  0  0  0  0  3  0  0  0  0  0  0
  -29.1270  -20.6800   20.0170 C   0  0  0  0  0  0  0  0  0  0  0  0
  -28.3940  -23.6250   20.3590 C   0  0  0  0  0  0  0  0  0  0  0  0
  -27.7520  -20.5840   19.6710 C   0  0  0  0  0  0  0  0  0  0  0  0
  -31.1030  -19.2080   18.8080 C   0  0  0  0  0  1  0  0  0  0  0  0
  -30.1310  -19.0360   19.9850 C   0  0  0  0  0  0  0  0  0  0  0  0
  -30.7350  -15.8150   20.0620 C   0  0  0  0  0  0  0  0  0  0  0  0
  -30.9150  -13.2270   19.3070 C   0  0  0  0  0  2  0  0  0  0  0  0
  -30.0260  -12.7100   18.1380 C   0  0  0  0  0  2  0  0  0  0  0  0
  -28.6320  -12.3090   18.6430 C   0  0  0  0  0  2  0  0  0  0  0  0
  -28.1020  -13.3230   19.6800 C   0  0  0  0  0  3  0  0  0  0  0  0
  -29.1420  -13.7380   20.7480 C   0  0  0  0  0  2  0  0  0  0  0  0
  -30.2520  -14.4170   20.0310 N   0  0  0  0  0  0  0  0  0  0  0  0
  -31.9700  -15.7390   19.8870 O   0  0  0  0  0  0  0  0  0  0  0  0
  -29.9690  -17.2120   20.1010 N   0  0  0  0  0  4  0  0  0  0  0  0
  -28.9850  -16.9970   20.1880 H   0  0  0  0  0  0  0  0  0  0  0  0
  -25.7800  -13.8140   20.5720 C   0  0  0  0  0  0  0  0  0  0  0  0
  -24.7340  -13.0190   20.9470 C   0  0  0  0  0  0  0  0  0  0  0  0
  -25.1990  -11.6710   20.8330 C   0  0  0  0  0  0  0  0  0  0  0  0
  -26.8110  -12.9540   20.2430 N   0  0  0  0  0  0  0  0  0  0  0  0
  -26.4790  -11.6540   20.4680 N   0  0  0  0  0  0  0  0  0  0  0  0
  -24.4710  -10.4050   20.9930 C   0  0  0  0  0  0  0  0  0  0  0  0
  -24.8240   -9.4710   21.9920 C   0  0  0  0  0  3  0  0  0  0  0  0
  -24.0920   -8.2720   22.1400 C   0  0  0  0  0  3  0  0  0  0  0  0
  -22.9960   -7.9980   21.2880 C   0  0  0  0  0  0  0  0  0  0  0  0
  -22.6610   -8.9230   20.2840 C   0  0  0  0  0  3  0  0  0  0  0  0
  -23.3930  -10.1130   20.1350 C   0  0  0  0  0  3  0  0  0  0  0  0
  -22.2460   -6.8470   21.3410 O   0  0  0  0  0  0  0  0  0  0  0  0
  -21.9480   -6.2370   22.5320 C   0  0  0  0  0  0  0  0  0  0  0  0
  -21.2400   -6.9040   23.5540 C   0  0  0  0  0  3  0  0  0  0  0  0
  -20.8910   -6.2160   24.7340 C   0  0  0  0  0  3  0  0  0  0  0  0
  -21.2460   -4.8620   24.8910 C   0  0  0  0  0  0  0  0  0  0  0  0
  -21.9470   -4.1950   23.8720 C   0  0  0  0  0  3  0  0  0  0  0  0
  -22.2950   -4.8810   22.6960 C   0  0  0  0  0  0  0  0  0  0  0  0
  -22.9520   -4.2250   21.7070 F   0  0  0  0  0  0  0  0  0  0  0  0
  -20.9060   -4.1990   26.0220 F   0  0  0  0  0  0  0  0  0  0  0  0
  -23.3530  -13.4920   21.2830 C   0  0  0  0  0  0  0  0  0  0  0  0
  -22.6530  -12.7810   22.1580 N   0  0  0  0  0  0  0  0  0  0  0  0
  -22.9020  -14.5320   20.8030 O   0  0  0  0  0  0  0  0  0  0  0  0
  -23.0320  -11.9430   22.5780 H   0  0  0  0  0  0  0  0  0  0  0  0
  -21.7280  -13.0900   22.4160 H   0  0  0  0  0  0  0  0  0  0  0  0
  -25.9280  -15.1920   20.4490 N   0  0  0  0  0  0  0  0  0  0  0  0
  -25.1300  -15.8060   20.5690 H   0  0  0  0  0  0  0  0  0  0  0  0
  -26.7240  -15.6460   20.0230 H   0  0  0  0  0  0  0  0  0  0  0  0
  -25.9200  -19.1210   19.1090 C   0  0  0  0  0  1  0  0  0  0  0  0
  -27.3090  -19.3110   19.3790 O   0  0  0  0  0  0  0  0  0  0  0  0
  -28.4510  -25.2490   20.7060 O   0  0  0  0  0  0  0  0  0  0  0  0
  -24.7880  -31.7300   23.3930 C   0  0  0  0  0  0  0  0  0  0  0  0
  -27.5000  -26.5220   20.6290 C   0  0  0  0  0  0  0  0  0  0  0  0
  -23.7320  -30.3340   21.6710 C   0  0  0  0  0  3  0  0  0  0  0  0
  -25.2770  -28.6540   20.3870 C   0  0  0  0  0  0  0  0  0  0  0  0
  -26.3190  -30.4180   21.7780 C   0  0  0  0  0  2  0  0  0  0  0  0
  -26.4210  -28.9730   21.1280 C   0  0  0  0  0  0  0  0  0  0  0  0
  -27.5130  -27.9390   21.2140 C   0  0  0  0  0  3  0  0  0  0  0  0
  -26.3310  -26.4500   19.8200 C   0  0  0  0  0  3  0  0  0  0  0  0
  -25.2800  -27.4190   19.7120 C   0  0  0  0  0  3  0  0  0  0  0  0
  -24.0830  -29.6270   20.3280 C   0  0  0  0  0  2  0  0  0  0  0  0
  -24.9680  -30.8650   22.3340 N   0  0  0  0  0  0  0  0  0  0  0  0
  -23.6550  -32.0440   23.8030 O   0  0  0  0  0  0  0  0  0  0  0  0
  -22.9210  -29.3710   22.5830 C   0  0  0  0  0  0  0  0  0  0  0  0
  -21.5910  -29.2890   22.3970 N   0  0  0  0  0  0  0  0  0  0  0  0
  -23.5060  -28.6930   23.4300 O   0  0  0  0  0  0  0  0  0  0  0  0
  -21.1750  -29.8800   21.6920 H   0  0  0  0  0  0  0  0  0  0  0  0
  -18.1100  -28.3010   22.8150 C   0  0  0  0  0  0  0  0  0  0  0  0
  -20.6850  -28.3670   23.0960 C   0  0  0  0  0  3  0  0  0  0  0  0
  -20.6850  -26.9730   22.4200 C   0  0  0  0  0  2  0  0  0  0  0  0
  -19.5620  -26.7970   21.3930 C   0  0  0  0  0  2  0  0  0  0  0  0
  -18.1950  -26.9890   22.0540 C   0  0  0  0  0  2  0  0  0  0  0  0
  -19.2780  -28.9550   23.2920 C   0  0  0  0  0  0  0  0  0  0  0  0
  -19.1390  -30.1840   23.9710 C   0  0  0  0  0  3  0  0  0  0  0  0
  -17.8690  -30.7570   24.1740 C   0  0  0  0  0  3  0  0  0  0  0  0
  -16.7170  -30.0980   23.7090 C   0  0  0  0  0  3  0  0  0  0  0  0
  -16.8390  -28.8710   23.0350 C   0  0  0  0  0  3  0  0  0  0  0  0
  -25.9910  -32.3780   24.1420 C   0  0  0  0  0  3  0  0  0  0  0  0
  -25.6930  -33.8100   24.3520 N   0  0  0  0  0  0  0  0  0  0  0  0
  -26.1300  -34.8140   23.5780 C   0  0  0  0  0  0  0  0  0  0  0  0
  -26.8800  -34.6320   22.6170 O   0  0  0  0  0  0  0  0  0  0  0  0
  -25.0410  -34.0270   25.0910 H   0  0  0  0  0  0  0  0  0  0  0  0
  -24.4910  -36.6420   23.0100 C   0  0  0  0  0  1  0  0  0  0  0  0
  -25.6660  -36.2470   23.9200 C   0  0  0  0  0  3  0  0  0  0  0  0
  -27.7710  -37.1260   24.8340 C   0  0  0  0  0  1  0  0  0  0  0  0
  -26.7400  -37.2600   23.8070 N   0  0  0  0  0  0  0  0  0  0  0  0
  -26.3580  -38.2010   23.8670 H   0  0  0  0  0  0  0  0  0  0  0  0
  -26.2940  -31.6910   25.5320 C   0  0  1  0  0  0  0  0  0  0  0  0
  -25.0540  -31.5570   26.4480 C   0  0  0  0  0  1  0  0  0  0  0  0
  -26.8770  -30.2760   25.3380 C   0  0  0  0  0  1  0  0  0  0  0  0
  -27.3740  -32.5020   26.2880 C   0  0  0  0  0  1  0  0  0  0  0  0
  1  5  1  0
  2  6  1  0
  2  1  2  0
  3  5  2  0
  4  3  1  0
  5 49  1  0
  6  4  2  0
  7  8  1  0
  8  4  1  0
  8 17  2  0
  9 17  1  0
 10 15  1  0
 11 12  1  0
 11 10  1  0
 13 12  1  0
 13 22  1  0
 13 14  1  0
 15  9  1  0
 15 14  1  0
 16  9  2  0
 17 18  1  0
 19 20  2  0
 20 39  1  0
 21 20  1  0
 21 24  1  0
 22 23  1  0
 22 19  1  0
 23 21  2  0
 24 25  1  0
 25 26  2  0
 27 30  1  0
 27 26  1  0
 28 27  2  0
 29 28  1  0
 29 24  2  0
 30 31  1  0
 31 36  2  0
 31 32  1  0
 32 33  2  0
 33 34  1  0
 34 38  1  0
 35 34  2  0
 36 35  1  0
 37 36  1  0
 39 40  1  0
 40 43  1  0
 40 42  1  0
 41 39  2  0
 44 45  1  0
 44 19  1  0
 46 44  1  0
 47 48  1  0
 48  6  1  0
 50 61  2  0
 51 49  1  0
 51 56  1  0
 52 60  1  0
 52 62  1  0
 53 55  1  0
 54 60  1  0
 55 56  2  0
 55 54  1  0
 57 51  2  0
 58 57  1  0
 58 53  2  0
 59 53  1  0
 59 52  1  0
 60 50  1  0
 62 64  2  0
 63 62  1  0
 65 63  1  0
 66 75  2  0
 66 71  1  0
 67 63  1  0
 67 71  1  0
 68 67  1  0
 69 70  1  0
 69 68  1  0
 70 66  1  0
 71 72  2  0
 72 73  1  0
 74 73  2  0
 75 74  1  0
 76 50  1  0
 76 77  1  0
 76 86  1  0
 77 80  1  0
 78 82  1  0
 78 77  1  0
 79 78  2  0
 82 81  1  0
 84 85  1  0
 84 82  1  0
 84 83  1  0
 86 89  1  1
 86 87  1  0
 88 86  1  0
M  ISO  4   5 101   9 100  17 100  49 101
M  END
>  <TORSDO>  (14) 
F 18

>  <SCORE>  (14) 
-13.627

>  <name>  (14) 
13

>  <ligand_id>  (14) 
13

>  <original_smiles>  (14) 
[H]c1c([H])c([H])c2c(c1[H])C([H])([H])C([H])([H])C([H])([H])C2([H])N([H])C(=O)C1([H])N(C(=O)C([H])(N([H])C(=O)C([H])(N([H])C([H])([H])[H])C([H])([H])[H])C(C([H])([H])[H])(C([H])([H])[H])C([H])([H])[H])C([H])([H])c2c([H])c(Oc3c([H])c([H])c(OC([H])([H])[H])c(C([H])(N([H])C(=O)N4C([H])([H])C([H])([H])C([H])([H])C([H])(n5nc(-c6c([H])c([H])c(Oc7c([H])c([H])c(F)c([H])c7F)c([H])c6[H])c(C(=O)N([H])[H])c5N([H])[H])C4([H])[H])C([H])([H])[H])c3[H])c([H])c([H])c2C1([H])[H]

>  <smiles>  (14) 
[H]c1c([H])c([H])c2c(c1[H])C([H])([H])C([H])([H])C([H])([H])C2([H])N([H])C(=O)C1([H])N(C(=O)C([H])(N([H])C(=O)C([H])(N([H])C([H])([H])[H])C([H])([H])[H])C(C([H])([H])[H])(C([H])([H])[H])C([H])([H])[H])C([H])([H])c2c([H])c(Oc3c([H])c([H])c(OC([H])([H])[H])c(C([H])(N([H])C(=O)N4C([H])([H])C([H])([H])C([H])([H])C([H])(n5nc(-c6c([H])c([H])c(Oc7c([H])c([H])c(F)c([H])c7F)c([H])c6[H])c(C(=O)N([H])[H])c5N([H])[H])C4([H])[H])C([H])([H])[H])c3[H])c([H])c([H])c2C1([H])[H]

$$$$
14:0:0
     RDKit          3D

 90 99  0  0  1  0  0  0  0  0999 V2000
  -27.6820  -17.3630   19.1980 C   0  0  0  0  0  3  0  0  0  0  0  0
  -27.0390  -18.5820   18.8620 C   0  0  0  0  0  3  0  0  0  0  0  0
  -28.9590  -17.4780   19.7370 C   0  0  0  0  0  0  0  0  0  0  0  0
  -29.5590  -18.8270   19.8890 C   0  0  0  0  0  0  0  0  0  0  0  0
  -27.5940  -19.8930   19.0490 C   0  0  0  0  0  0  0  0  0  0  0  0
  -28.8940  -20.1510   19.6130 C   0  0  0  0  0  0  0  0  0  0  0  0
  -30.8100  -18.0260   20.3850 C   0  0  0  0  0  2  0  0  0  0  0  0
  -30.0110  -16.5560   20.4830 C   0  0  1  0  0  0  0  0  0  0  0  0
  -26.7040  -21.0290   18.5700 C   0  0  0  0  0  1  0  0  0  0  0  0
  -29.4940  -16.3170   21.9050 C   0  0  0  0  0  1  0  0  0  0  0  0
  -30.6650  -15.0830   19.9190 C   0  0  0  0  0  0  0  0  0  0  0  0
  -30.4940  -12.7270   18.9310 C   0  0  0  0  0  2  0  0  0  0  0  0
  -29.4740  -12.6860   17.7650 C   0  0  0  0  0  2  0  0  0  0  0  0
  -28.0400  -12.4690   18.2830 C   0  0  0  0  0  2  0  0  0  0  0  0
  -27.7220  -13.3680   19.5040 C   0  0  0  0  0  3  0  0  0  0  0  0
  -28.8500  -13.3170   20.5480 C   0  0  0  0  0  2  0  0  0  0  0  0
  -30.0750  -13.8010   19.8890 N   0  0  0  0  0  0  0  0  0  0  0  0
  -31.8200  -15.1110   19.4740 O   0  0  0  0  0  0  0  0  0  0  0  0
  -25.4120  -13.9580   20.4310 C   0  0  0  0  0  0  0  0  0  0  0  0
  -24.3600  -13.1880   20.8390 C   0  0  0  0  0  0  0  0  0  0  0  0
  -24.8020  -11.8350   20.7450 C   0  0  0  0  0  0  0  0  0  0  0  0
  -26.4200  -13.0740   20.0880 N   0  0  0  0  0  0  0  0  0  0  0  0
  -26.0680  -11.7890   20.3490 N   0  0  0  0  0  0  0  0  0  0  0  0
  -24.0700  -10.5800   20.9560 C   0  0  0  0  0  0  0  0  0  0  0  0
  -24.5270   -9.6030   21.8660 C   0  0  0  0  0  3  0  0  0  0  0  0
  -23.7930   -8.4150   22.0680 C   0  0  0  0  0  3  0  0  0  0  0  0
  -22.5870   -8.1990   21.3600 C   0  0  0  0  0  0  0  0  0  0  0  0
  -22.1490   -9.1640   20.4360 C   0  0  0  0  0  3  0  0  0  0  0  0
  -22.8850  -10.3440   20.2330 C   0  0  0  0  0  3  0  0  0  0  0  0
  -21.8190   -7.0660   21.4730 O   0  0  0  0  0  0  0  0  0  0  0  0
  -21.7740   -6.3380   22.6340 C   0  0  0  0  0  0  0  0  0  0  0  0
  -21.3720   -6.9120   23.8590 C   0  0  0  0  0  3  0  0  0  0  0  0
  -21.2750   -6.1110   25.0160 C   0  0  0  0  0  3  0  0  0  0  0  0
  -21.5680   -4.7360   24.9450 C   0  0  0  0  0  0  0  0  0  0  0  0
  -21.9610   -4.1610   23.7240 C   0  0  0  0  0  3  0  0  0  0  0  0
  -22.0600   -4.9580   22.5710 C   0  0  0  0  0  0  0  0  0  0  0  0
  -22.4200   -4.3950   21.3930 F   0  0  0  0  0  0  0  0  0  0  0  0
  -21.4650   -3.9650   26.0520 F   0  0  0  0  0  0  0  0  0  0  0  0
  -22.9940  -13.6820   21.2120 C   0  0  0  0  0  0  0  0  0  0  0  0
  -22.3180  -12.9820   22.1160 N   0  0  0  0  0  0  0  0  0  0  0  0
  -22.5370  -14.7220   20.7370 O   0  0  0  0  0  0  0  0  0  0  0  0
  -22.7070  -12.1440   22.5220 H   0  0  0  0  0  0  0  0  0  0  0  0
  -21.4000  -13.2900   22.4090 H   0  0  0  0  0  0  0  0  0  0  0  0
  -25.5770  -15.3300   20.3080 N   0  0  0  0  0  0  0  0  0  0  0  0
  -24.8360  -15.9780   20.5520 H   0  0  0  0  0  0  0  0  0  0  0  0
  -26.4580  -15.7860   20.1180 H   0  0  0  0  0  0  0  0  0  0  0  0
  -29.3900  -21.7480   19.6840 C   0  0  0  0  0  2  0  0  0  0  0  0
  -28.5420  -23.1550   20.2010 C   0  0  0  0  0  2  0  0  0  0  0  0
  -28.5040  -24.7040   19.4770 C   0  0  0  0  0  2  0  0  0  0  0  0
  -28.3750  -26.1560   20.0680 O   0  0  0  0  0  0  0  0  0  0  0  0
  -24.5780  -31.7100   23.0910 C   0  0  0  0  0  0  0  0  0  0  0  0
  -27.2810  -27.0990   19.9740 C   0  0  0  0  0  0  0  0  0  0  0  0
  -23.4170  -30.3160   21.4210 C   0  0  0  0  0  3  0  0  0  0  0  0
  -24.9090  -28.8020   19.9670 C   0  0  0  0  0  0  0  0  0  0  0  0
  -25.9660  -30.6380   21.2780 C   0  0  0  0  0  2  0  0  0  0  0  0
  -26.0730  -29.2610   20.5950 C   0  0  0  0  0  0  0  0  0  0  0  0
  -27.2530  -28.4240   20.5840 C   0  0  0  0  0  3  0  0  0  0  0  0
  -26.0850  -26.7410   19.3150 C   0  0  0  0  0  3  0  0  0  0  0  0
  -24.9290  -27.5580   19.3140 C   0  0  0  0  0  3  0  0  0  0  0  0
  -23.6600  -29.6700   20.0290 C   0  0  0  0  0  2  0  0  0  0  0  0
  -24.6720  -30.9110   21.9840 N   0  0  0  0  0  0  0  0  0  0  0  0
  -23.4830  -31.9590   23.6200 O   0  0  0  0  0  0  0  0  0  0  0  0
  -22.7590  -29.2760   22.3630 C   0  0  0  0  0  0  0  0  0  0  0  0
  -21.4350  -29.0800   22.2340 N   0  0  0  0  0  0  0  0  0  0  0  0
  -23.4440  -28.6490   23.1750 O   0  0  0  0  0  0  0  0  0  0  0  0
  -20.9360  -29.6420   21.5580 H   0  0  0  0  0  0  0  0  0  0  0  0
  -18.0810  -27.7880   22.7040 C   0  0  0  0  0  0  0  0  0  0  0  0
  -20.6330  -28.1090   22.9860 C   0  0  0  0  0  3  0  0  0  0  0  0
  -20.7710  -26.6900   22.3890 C   0  0  0  0  0  2  0  0  0  0  0  0
  -19.6820  -26.3580   21.3630 C   0  0  0  0  0  2  0  0  0  0  0  0
  -18.2930  -26.4570   22.0030 C   0  0  0  0  0  2  0  0  0  0  0  0
  -19.1800  -28.5730   23.1510 C   0  0  0  0  0  0  0  0  0  0  0  0
  -18.9240  -29.8170   23.7670 C   0  0  0  0  0  3  0  0  0  0  0  0
  -17.6060  -30.2800   23.9370 C   0  0  0  0  0  3  0  0  0  0  0  0
  -16.5230  -29.4940   23.5040 C   0  0  0  0  0  3  0  0  0  0  0  0
  -16.7620  -28.2500   22.8950 C   0  0  0  0  0  3  0  0  0  0  0  0
  -25.8360  -32.3660   23.7360 C   0  0  0  0  0  3  0  0  0  0  0  0
  -26.3650  -31.5850   25.0020 C   0  0  1  0  0  0  0  0  0  0  0  0
  -25.2730  -31.3070   26.0620 C   0  0  0  0  0  1  0  0  0  0  0  0
  -26.9840  -30.2280   24.5980 C   0  0  0  0  0  1  0  0  0  0  0  0
  -27.4920  -32.3960   25.6840 C   0  0  0  0  0  1  0  0  0  0  0  0
  -25.4840  -33.7490   24.1010 N   0  0  0  0  0  0  0  0  0  0  0  0
  -25.7820  -34.8330   23.3720 C   0  0  0  0  0  0  0  0  0  0  0  0
  -26.4480  -34.7770   22.3350 O   0  0  0  0  0  0  0  0  0  0  0  0
  -24.8890  -33.8620   24.9080 H   0  0  0  0  0  0  0  0  0  0  0  0
  -23.9950  -36.5850   23.0900 C   0  0  0  0  0  1  0  0  0  0  0  0
  -25.2590  -36.1960   23.8720 C   0  0  0  0  0  3  0  0  0  0  0  0
  -27.3780  -37.1270   24.6940 C   0  0  0  0  0  1  0  0  0  0  0  0
  -26.2580  -37.2820   23.7710 N   0  0  0  0  0  0  0  0  0  0  0  0
  -25.8250  -38.1850   23.9450 H   0  0  0  0  0  0  0  0  0  0  0  0
  1  3  1  0
  2  5  1  0
  2  1  2  0
  3  4  2  0
  3  8  1  0
  4  7  1  0
  5  6  2  0
  6 47  1  0
  6  4  1  0
  7  8  1  0
  8 10  1  1
  9  5  1  0
 11  8  1  0
 12 17  1  0
 13 14  1  0
 13 12  1  0
 15 14  1  0
 15 22  1  0
 15 16  1  0
 17 11  1  0
 17 16  1  0
 18 11  2  0
 19 20  2  0
 20 39  1  0
 21 20  1  0
 21 24  1  0
 22 23  1  0
 22 19  1  0
 23 21  2  0
 24 25  1  0
 25 26  2  0
 27 30  1  0
 27 26  1  0
 28 27  2  0
 29 28  1  0
 29 24  2  0
 30 31  1  0
 31 32  1  0
 32 33  2  0
 34 33  1  0
 34 38  1  0
 35 34  2  0
 36 31  2  0
 36 35  1  0
 37 36  1  0
 39 40  1  0
 40 43  1  0
 40 42  1  0
 41 39  2  0
 44 19  1  0
 44 45  1  0
 46 44  1  0
 47 48  1  0
 49 50  1  0
 49 48  1  0
 51 62  2  0
 52 50  1  0
 52 57  1  0
 53 61  1  0
 53 63  1  0
 54 60  1  0
 54 56  1  0
 55 61  1  0
 56 55  1  0
 57 56  2  0
 58 52  2  0
 59 58  1  0
 59 54  2  0
 60 53  1  0
 61 51  1  0
 63 65  2  0
 64 63  1  0
 66 64  1  0
 67 76  2  0
 67 72  1  0
 68 64  1  0
 68 72  1  0
 69 68  1  0
 70 71  1  0
 70 69  1  0
 71 67  1  0
 72 73  2  0
 73 74  1  0
 75 74  2  0
 76 75  1  0
 77 51  1  0
 77 82  1  0
 77 78  1  0
 78 81  1  1
 78 79  1  0
 80 78  1  0
 82 85  1  0
 83 87  1  0
 83 82  1  0
 84 83  2  0
 87 86  1  0
 89 87  1  0
 89 90  1  0
 89 88  1  0
M  ISO  4   8 100  11 100  49 101  50 101
M  END
>  <TORSDO>  (15) 
F 19

>  <SCORE>  (15) 
-15.370

>  <name>  (15) 
14

>  <ligand_id>  (15) 
14

>  <original_smiles>  (15) 
[H]c1c([H])c([H])c2c(c1[H])C([H])([H])C([H])([H])C([H])([H])C2([H])N([H])C(=O)C1([H])N(C(=O)C([H])(N([H])C(=O)C([H])(N([H])C([H])([H])[H])C([H])([H])[H])C(C([H])([H])[H])(C([H])([H])[H])C([H])([H])[H])C([H])([H])c2c([H])c(OC([H])([H])C([H])([H])C([H])([H])c3c(C([H])([H])[H])c([H])c([H])c4c3C([H])([H])C4(C(=O)N3C([H])([H])C([H])([H])C([H])([H])C([H])(n4nc(-c5c([H])c([H])c(Oc6c([H])c([H])c(F)c([H])c6F)c([H])c5[H])c(C(=O)N([H])[H])c4N([H])[H])C3([H])[H])C([H])([H])[H])c([H])c([H])c2C1([H])[H]

>  <smiles>  (15) 
[H]c1c([H])c([H])c2c(c1[H])C([H])([H])C([H])([H])C([H])([H])C2([H])N([H])C(=O)C1([H])N(C(=O)C([H])(N([H])C(=O)C([H])(N([H])C([H])([H])[H])C([H])([H])[H])C(C([H])([H])[H])(C([H])([H])[H])C([H])([H])[H])C([H])([H])c2c([H])c(OC([H])([H])C([H])([H])C([H])([H])c3c(C([H])([H])[H])c([H])c([H])c4c3C([H])([H])C4(C(=O)N3C([H])([H])C([H])([H])C([H])([H])C([H])(n4nc(-c5c([H])c([H])c(Oc6c([H])c([H])c(F)c([H])c6F)c([H])c5[H])c(C(=O)N([H])[H])c4N([H])[H])C3([H])[H])C([H])([H])[H])c([H])c([H])c2C1([H])[H]

$$$$
15:0:0
     RDKit          3D

 90 98  0  0  1  0  0  0  0  0999 V2000
  -27.4800  -22.2990   20.9120 C   0  0  0  0  0  3  0  0  0  0  0  0
  -26.8760  -24.7240   20.7220 C   0  0  0  0  0  3  0  0  0  0  0  0
  -28.7330  -22.4210   20.2700 C   0  0  0  0  0  0  0  0  0  0  0  0
  -28.9670  -23.8890   19.8470 C   0  0  0  0  0  0  0  0  0  0  0  0
  -26.5990  -23.3980   21.1570 C   0  0  0  0  0  0  0  0  0  0  0  0
  -28.0480  -25.1170   20.0320 C   0  0  0  0  0  0  0  0  0  0  0  0
  -30.3020  -24.1740   19.1890 C   0  0  0  0  0  1  0  0  0  0  0  0
  -25.4020  -22.3450   22.9560 C   0  0  0  0  0  1  0  0  0  0  0  0
  -25.4240  -23.2600   21.8650 O   0  0  0  0  0  0  0  0  0  0  0  0
  -28.1940  -26.6110   19.7090 O   0  0  0  0  0  0  0  0  0  0  0  0
  -24.8200  -32.2230   23.4870 C   0  0  0  0  0  0  0  0  0  0  0  0
  -27.2030  -27.7160   19.8470 C   0  0  0  0  0  0  0  0  0  0  0  0
  -23.5490  -31.0380   21.7430 C   0  0  0  0  0  3  0  0  0  0  0  0
  -24.9290  -29.5930   20.0980 C   0  0  0  0  0  0  0  0  0  0  0  0
  -26.1080  -31.2470   21.5260 C   0  0  0  0  0  2  0  0  0  0  0  0
  -26.1400  -29.9150   20.7220 C   0  0  0  0  0  0  0  0  0  0  0  0
  -27.2740  -28.9990   20.5790 C   0  0  0  0  0  3  0  0  0  0  0  0
  -25.9780  -27.5700   19.1620 C   0  0  0  0  0  3  0  0  0  0  0  0
  -24.8690  -28.4410   19.2970 C   0  0  0  0  0  3  0  0  0  0  0  0
  -23.7260  -30.5140   20.2880 C   0  0  0  0  0  2  0  0  0  0  0  0
  -24.8490  -31.5210   22.3090 N   0  0  0  0  0  0  0  0  0  0  0  0
  -23.7540  -32.4580   24.0800 O   0  0  0  0  0  0  0  0  0  0  0  0
  -22.8780  -29.9410   22.6110 C   0  0  0  0  0  0  0  0  0  0  0  0
  -21.5530  -29.7550   22.4650 N   0  0  0  0  0  0  0  0  0  0  0  0
  -23.5590  -29.2650   23.3850 O   0  0  0  0  0  0  0  0  0  0  0  0
  -21.0520  -30.3630   21.8290 H   0  0  0  0  0  0  0  0  0  0  0  0
  -18.1970  -28.4350   22.8690 C   0  0  0  0  0  0  0  0  0  0  0  0
  -20.7520  -28.7320   23.1450 C   0  0  0  0  0  3  0  0  0  0  0  0
  -20.8790  -27.3630   22.4380 C   0  0  0  0  0  2  0  0  0  0  0  0
  -19.7810  -27.1160   21.4000 C   0  0  0  0  0  2  0  0  0  0  0  0
  -18.4000  -27.1650   22.0590 C   0  0  0  0  0  2  0  0  0  0  0  0
  -19.3010  -29.1790   23.3660 C   0  0  0  0  0  0  0  0  0  0  0  0
  -19.0540  -30.3690   24.0840 C   0  0  0  0  0  3  0  0  0  0  0  0
  -17.7400  -30.8220   24.2990 C   0  0  0  0  0  3  0  0  0  0  0  0
  -16.6510  -30.0760   23.8130 C   0  0  0  0  0  3  0  0  0  0  0  0
  -16.8810  -28.8800   23.1080 C   0  0  0  0  0  3  0  0  0  0  0  0
  -26.1220  -32.7750   24.1440 C   0  0  0  0  0  3  0  0  0  0  0  0
  -26.6450  -31.8680   25.3240 C   0  0  1  0  0  0  0  0  0  0  0  0
  -25.5720  -31.5400   26.3880 C   0  0  0  0  0  1  0  0  0  0  0  0
  -27.1880  -30.5260   24.7830 C   0  0  0  0  0  1  0  0  0  0  0  0
  -27.8260  -32.5630   26.0430 C   0  0  0  0  0  1  0  0  0  0  0  0
  -25.8470  -34.1370   24.6360 N   0  0  0  0  0  0  0  0  0  0  0  0
  -26.1390  -35.2640   23.9730 C   0  0  0  0  0  0  0  0  0  0  0  0
  -26.7360  -35.2640   22.8930 O   0  0  0  0  0  0  0  0  0  0  0  0
  -25.3250  -34.2100   25.4970 H   0  0  0  0  0  0  0  0  0  0  0  0
  -24.3970  -37.0760   23.9450 C   0  0  0  0  0  1  0  0  0  0  0  0
  -25.7030  -36.6040   24.6020 C   0  0  0  0  0  3  0  0  0  0  0  0
  -27.9050  -37.4180   25.3310 C   0  0  0  0  0  1  0  0  0  0  0  0
  -26.7290  -37.6680   24.5010 N   0  0  0  0  0  0  0  0  0  0  0  0
  -26.3410  -38.5720   24.7610 H   0  0  0  0  0  0  0  0  0  0  0  0
  -29.7480  -20.9940   20.3460 C   0  0  0  0  0  2  0  0  0  0  0  0
  -29.6060  -19.2390   19.9290 C   0  0  0  0  0  2  0  0  0  0  0  0
  -30.9300  -18.0950   21.9350 C   0  0  0  0  0  1  0  0  0  0  0  0
  -30.0710  -17.6790   20.7250 C   0  0  0  0  0  3  0  0  0  0  0  0
  -30.7810  -16.1400   20.2180 C   0  0  0  0  0  0  0  0  0  0  0  0
  -30.8620  -13.6630   19.4080 C   0  0  0  0  0  2  0  0  0  0  0  0
  -29.9780  -13.4060   18.1610 C   0  0  0  0  0  2  0  0  0  0  0  0
  -28.5320  -13.0900   18.5740 C   0  0  0  0  0  2  0  0  0  0  0  0
  -28.0250  -14.0600   19.6690 C   0  0  0  0  0  3  0  0  0  0  0  0
  -29.0410  -14.2820   20.8120 C   0  0  0  0  0  2  0  0  0  0  0  0
  -30.2770  -14.8030   20.2110 N   0  0  0  0  0  0  0  0  0  0  0  0
  -31.9620  -16.1690   19.8420 O   0  0  0  0  0  0  0  0  0  0  0  0
  -25.6460  -14.5430   20.4460 C   0  0  0  0  0  0  0  0  0  0  0  0
  -24.5990  -13.7330   20.7860 C   0  0  0  0  0  0  0  0  0  0  0  0
  -25.0900  -12.3930   20.7070 C   0  0  0  0  0  0  0  0  0  0  0  0
  -26.7030  -13.6980   20.1660 N   0  0  0  0  0  0  0  0  0  0  0  0
  -26.3820  -12.3960   20.3930 N   0  0  0  0  0  0  0  0  0  0  0  0
  -24.3890  -11.1110   20.8520 C   0  0  0  0  0  0  0  0  0  0  0  0
  -24.7670  -10.1630   21.8280 C   0  0  0  0  0  3  0  0  0  0  0  0
  -24.0600   -8.9500   21.9600 C   0  0  0  0  0  3  0  0  0  0  0  0
  -22.9600   -8.6720   21.1150 C   0  0  0  0  0  0  0  0  0  0  0  0
  -22.6020   -9.6070   20.1290 C   0  0  0  0  0  3  0  0  0  0  0  0
  -23.3100  -10.8130   19.9950 C   0  0  0  0  0  3  0  0  0  0  0  0
  -22.2310   -7.5080   21.1530 O   0  0  0  0  0  0  0  0  0  0  0  0
  -22.0250   -6.8250   22.3260 C   0  0  0  0  0  0  0  0  0  0  0  0
  -21.3710   -7.4200   23.4270 C   0  0  0  0  0  3  0  0  0  0  0  0
  -21.1160   -6.6610   24.5870 C   0  0  0  0  0  3  0  0  0  0  0  0
  -21.5080   -5.3110   24.6460 C   0  0  0  0  0  0  0  0  0  0  0  0
  -22.1520   -4.7160   23.5470 C   0  0  0  0  0  3  0  0  0  0  0  0
  -22.4080   -5.4720   22.3890 C   0  0  0  0  0  0  0  0  0  0  0  0
  -23.0110   -4.8880   21.3260 F   0  0  0  0  0  0  0  0  0  0  0  0
  -21.2560   -4.5780   25.7570 F   0  0  0  0  0  0  0  0  0  0  0  0
  -23.1930  -14.1720   21.0710 C   0  0  0  0  0  0  0  0  0  0  0  0
  -22.4790  -13.4360   21.9160 N   0  0  0  0  0  0  0  0  0  0  0  0
  -22.7370  -15.2030   20.5800 O   0  0  0  0  0  0  0  0  0  0  0  0
  -22.8600  -12.6000   22.3320 H   0  0  0  0  0  0  0  0  0  0  0  0
  -21.5360  -13.7150   22.1490 H   0  0  0  0  0  0  0  0  0  0  0  0
  -25.7850  -15.9230   20.3210 N   0  0  0  0  0  0  0  0  0  0  0  0
  -25.0100  -16.5620   20.4640 H   0  0  0  0  0  0  0  0  0  0  0  0
  -26.6280  -16.3880   20.0100 H   0  0  0  0  0  0  0  0  0  0  0  0
  1  5  1  0
  2  5  2  0
  3 51  1  0
  3  1  2  0
  4  6  2  0
  4  3  1  0
  5  9  1  0
  6  2  1  0
  7  4  1  0
  9  8  1  0
 10 12  1  0
 10  6  1  0
 11 22  2  0
 12 17  1  0
 13 21  1  0
 13 23  1  0
 14 20  1  0
 14 16  1  0
 15 21  1  0
 16 15  1  0
 17 16  2  0
 18 19  1  0
 18 12  2  0
 19 14  2  0
 20 13  1  0
 21 11  1  0
 23 25  2  0
 24 23  1  0
 26 24  1  0
 27 36  2  0
 27 32  1  0
 28 24  1  0
 28 32  1  0
 29 28  1  0
 30 31  1  0
 30 29  1  0
 31 27  1  0
 32 33  2  0
 33 34  1  0
 35 34  2  0
 36 35  1  0
 37 11  1  0
 37 42  1  0
 37 38  1  0
 38 41  1  1
 38 39  1  0
 40 38  1  0
 42 45  1  0
 43 47  1  0
 43 42  1  0
 44 43  2  0
 47 46  1  0
 49 47  1  0
 49 50  1  0
 49 48  1  0
 52 51  1  0
 52 54  1  0
 54 53  1  0
 55 54  1  0
 56 61  1  0
 57 58  1  0
 57 56  1  0
 59 58  1  0
 59 66  1  0
 59 60  1  0
 61 55  1  0
 61 60  1  0
 62 55  2  0
 63 64  2  0
 64 83  1  0
 65 64  1  0
 65 68  1  0
 66 67  1  0
 66 63  1  0
 67 65  2  0
 68 69  1  0
 69 70  2  0
 71 74  1  0
 71 70  1  0
 72 71  2  0
 73 72  1  0
 73 68  2  0
 74 75  1  0
 75 80  2  0
 75 76  1  0
 76 77  2  0
 77 78  1  0
 78 82  1  0
 79 78  2  0
 80 79  1  0
 81 80  1  0
 83 84  1  0
 84 87  1  0
 84 86  1  0
 85 83  2  0
 88 63  1  0
 88 89  1  0
 90 88  1  0
M  ISO  4   6 101  10 101  54 100  55 100
M  END
>  <TORSDO>  (16) 
F 20

>  <SCORE>  (16) 
-9.625

>  <name>  (16) 
15

>  <ligand_id>  (16) 
15

>  <original_smiles>  (16) 
[H]c1c([H])c([H])c2c(c1[H])C([H])([H])C([H])([H])C([H])([H])C2([H])N([H])C(=O)C1([H])N(C(=O)C([H])(N([H])C(=O)C([H])(N([H])C([H])([H])[H])C([H])([H])[H])C(C([H])([H])[H])(C([H])([H])[H])C([H])([H])[H])C([H])([H])c2c([H])c(Oc3c([H])c(OC([H])([H])[H])c([H])c(C([H])([H])C([H])([H])C([H])(C(=O)N4C([H])([H])C([H])([H])C([H])([H])C([H])(n5nc(-c6c([H])c([H])c(Oc7c([H])c([H])c(F)c([H])c7F)c([H])c6[H])c(C(=O)N([H])[H])c5N([H])[H])C4([H])[H])C([H])([H])[H])c3C([H])([H])[H])c([H])c([H])c2C1([H])[H]

>  <smiles>  (16) 
[H]c1c([H])c([H])c2c(c1[H])C([H])([H])C([H])([H])C([H])([H])C2([H])N([H])C(=O)C1([H])N(C(=O)C([H])(N([H])C(=O)C([H])(N([H])C([H])([H])[H])C([H])([H])[H])C(C([H])([H])[H])(C([H])([H])[H])C([H])([H])[H])C([H])([H])c2c([H])c(Oc3c([H])c(OC([H])([H])[H])c([H])c(C([H])([H])C([H])([H])C([H])(C(=O)N4C([H])([H])C([H])([H])C([H])([H])C([H])(n5nc(-c6c([H])c([H])c(Oc7c([H])c([H])c(F)c([H])c7F)c([H])c6[H])c(C(=O)N([H])[H])c5N([H])[H])C4([H])[H])C([H])([H])[H])c3C([H])([H])[H])c([H])c([H])c2C1([H])[H]

$$$$
16:0:0
     RDKit          3D

 99107  0  0  1  0  0  0  0  0999 V2000
  -30.9710  -19.4690   22.1980 C   0  0  0  0  0  2  0  0  0  0  0  0
  -30.7530  -16.0380   20.4240 C   0  0  0  0  0  0  0  0  0  0  0  0
  -30.3040  -16.5020   19.1490 C   0  0  0  0  0  0  0  0  0  0  0  0
  -30.8210  -16.9830   21.4920 C   0  0  0  0  0  0  0  0  0  0  0  0
  -29.6440  -17.7460   19.0290 C   0  0  0  0  0  0  0  0  0  0  0  0
  -30.4630  -18.3500   21.2660 C   0  0  0  0  0  0  0  0  0  0  0  0
  -29.8070  -18.6970   20.0560 C   0  0  0  0  0  0  0  0  0  0  0  0
  -30.6920  -15.8090   17.8450 C   0  0  0  0  0  1  0  0  0  0  0  0
  -31.3870  -16.5540   22.8480 C   0  0  0  0  0  1  0  0  0  0  0  0
  -31.4180  -14.6730   20.5630 C   0  0  0  0  0  0  0  0  0  0  0  0
  -31.0820  -12.3390   19.8580 C   0  0  0  0  0  2  0  0  0  0  0  0
  -30.2540  -12.2900   18.5590 C   0  0  0  0  0  2  0  0  0  0  0  0
  -28.7410  -12.3600   18.8530 C   0  0  0  0  0  2  0  0  0  0  0  0
  -28.3360  -13.3900   19.9470 C   0  0  0  0  0  3  0  0  0  0  0  0
  -29.3130  -13.4120   21.1380 C   0  0  0  0  0  2  0  0  0  0  0  0
  -30.6770  -13.5310   20.6110 N   0  0  0  0  0  0  0  0  0  0  0  0
  -32.6320  -14.6610   20.3790 O   0  0  0  0  0  0  0  0  0  0  0  0
  -25.9530  -14.1550   20.5200 C   0  0  0  0  0  0  0  0  0  0  0  0
  -24.8170  -13.4480   20.8090 C   0  0  0  0  0  0  0  0  0  0  0  0
  -25.1950  -12.0710   20.8180 C   0  0  0  0  0  0  0  0  0  0  0  0
  -26.9530  -13.2060   20.3630 N   0  0  0  0  0  0  0  0  0  0  0  0
  -26.4990  -11.9530   20.6110 N   0  0  0  0  0  0  0  0  0  0  0  0
  -24.3840  -10.8540   20.9500 C   0  0  0  0  0  0  0  0  0  0  0  0
  -24.7110   -9.8520   21.8940 C   0  0  0  0  0  3  0  0  0  0  0  0
  -23.9040   -8.7010   22.0210 C   0  0  0  0  0  3  0  0  0  0  0  0
  -22.7590   -8.5450   21.2030 C   0  0  0  0  0  0  0  0  0  0  0  0
  -22.4530   -9.5320   20.2520 C   0  0  0  0  0  3  0  0  0  0  0  0
  -23.2580  -10.6740   20.1220 C   0  0  0  0  0  3  0  0  0  0  0  0
  -21.9280   -7.4490   21.2420 O   0  0  0  0  0  0  0  0  0  0  0  0
  -21.7850   -6.6920   22.3770 C   0  0  0  0  0  0  0  0  0  0  0  0
  -21.3410   -7.2500   23.5940 C   0  0  0  0  0  3  0  0  0  0  0  0
  -21.1380   -6.4220   24.7160 C   0  0  0  0  0  3  0  0  0  0  0  0
  -21.3730   -5.0360   24.6200 C   0  0  0  0  0  0  0  0  0  0  0  0
  -21.8120   -4.4790   23.4060 C   0  0  0  0  0  3  0  0  0  0  0  0
  -22.0120   -5.3050   22.2860 C   0  0  0  0  0  0  0  0  0  0  0  0
  -22.4140   -4.7580   21.1130 F   0  0  0  0  0  0  0  0  0  0  0  0
  -21.1710   -4.2370   25.6930 F   0  0  0  0  0  0  0  0  0  0  0  0
  -23.4350  -14.0100   20.9810 C   0  0  0  0  0  0  0  0  0  0  0  0
  -22.6140  -13.3710   21.8100 N   0  0  0  0  0  0  0  0  0  0  0  0
  -23.0890  -15.0450   20.4150 O   0  0  0  0  0  0  0  0  0  0  0  0
  -22.9070  -12.5280   22.2830 H   0  0  0  0  0  0  0  0  0  0  0  0
  -21.6880  -13.7330   21.9780 H   0  0  0  0  0  0  0  0  0  0  0  0
  -26.2140  -15.5140   20.3620 N   0  0  0  0  0  0  0  0  0  0  0  0
  -25.4900  -16.2130   20.4730 H   0  0  0  0  0  0  0  0  0  0  0  0
  -27.1270  -15.9140   20.1790 H   0  0  0  0  0  0  0  0  0  0  0  0
  -29.4030  -19.9820   19.8350 O   0  0  0  0  0  0  0  0  0  0  0  0
  -29.1320  -20.1500   18.9420 H   0  0  0  0  0  0  0  0  0  0  0  0
  -28.7440  -18.0300   17.8200 C   0  0  0  0  0  2  0  0  0  0  0  0
  -28.2430  -19.1920   15.6330 C   0  0  0  0  0  1  0  0  0  0  0  0
  -29.3310  -18.8650   16.6640 C   0  0  0  0  0  2  0  0  0  0  0  0
  -29.9760  -20.5020   22.7980 C   0  0  0  0  0  2  0  0  0  0  0  0
  -30.5930  -21.9280   22.8330 C   0  0  0  0  0  2  0  0  0  0  0  0
  -29.6860  -23.0870   22.3930 C   0  0  0  0  0  0  0  0  0  0  0  0
  -30.0480  -23.7340   21.2770 N   0  0  0  0  0  0  0  0  0  0  0  0
  -28.7550  -23.4610   23.1090 O   0  0  0  0  0  0  0  0  0  0  0  0
  -30.7640  -23.2970   20.7150 H   0  0  0  0  0  0  0  0  0  0  0  0
  -29.8420  -25.1600   21.0160 C   0  0  0  0  0  2  0  0  0  0  0  0
  -28.5820  -25.4910   20.2070 C   0  0  0  0  0  2  0  0  0  0  0  0
  -28.6300  -26.8980   19.9780 O   0  0  0  0  0  0  0  0  0  0  0  0
  -24.5560  -31.7390   23.1370 C   0  0  0  0  0  0  0  0  0  0  0  0
  -27.4290  -27.5500   19.9660 C   0  0  0  0  0  0  0  0  0  0  0  0
  -23.4310  -30.3560   21.4160 C   0  0  0  0  0  3  0  0  0  0  0  0
  -24.9700  -28.9270   19.9810 C   0  0  0  0  0  0  0  0  0  0  0  0
  -25.9350  -30.8300   21.2840 C   0  0  0  0  0  2  0  0  0  0  0  0
  -26.0900  -29.4910   20.6010 C   0  0  0  0  0  0  0  0  0  0  0  0
  -27.3240  -28.8110   20.5920 C   0  0  0  0  0  3  0  0  0  0  0  0
  -26.2930  -26.9900   19.3400 C   0  0  0  0  0  3  0  0  0  0  0  0
  -25.0620  -27.6720   19.3550 C   0  0  0  0  0  3  0  0  0  0  0  0
  -23.6940  -29.7310   20.0200 C   0  0  0  0  0  2  0  0  0  0  0  0
  -24.6550  -30.9850   22.0050 N   0  0  0  0  0  0  0  0  0  0  0  0
  -23.4590  -31.9420   23.6730 O   0  0  0  0  0  0  0  0  0  0  0  0
  -22.8090  -29.2740   22.3250 C   0  0  0  0  0  0  0  0  0  0  0  0
  -21.4920  -29.0560   22.1830 N   0  0  0  0  0  0  0  0  0  0  0  0
  -23.5070  -28.6320   23.1140 O   0  0  0  0  0  0  0  0  0  0  0  0
  -20.9770  -29.6280   21.5280 H   0  0  0  0  0  0  0  0  0  0  0  0
  -18.1540  -27.7780   22.6530 C   0  0  0  0  0  0  0  0  0  0  0  0
  -20.7090  -28.0630   22.9140 C   0  0  0  0  0  3  0  0  0  0  0  0
  -20.8290  -26.6680   22.2590 C   0  0  0  0  0  2  0  0  0  0  0  0
  -19.7250  -26.3850   21.2360 C   0  0  0  0  0  2  0  0  0  0  0  0
  -18.3480  -26.4710   21.9010 C   0  0  0  0  0  2  0  0  0  0  0  0
  -19.2640  -28.5330   23.1150 C   0  0  0  0  0  0  0  0  0  0  0  0
  -19.0320  -29.7590   23.7730 C   0  0  0  0  0  3  0  0  0  0  0  0
  -17.7240  -30.2320   23.9760 C   0  0  0  0  0  3  0  0  0  0  0  0
  -16.6270  -29.4750   23.5320 C   0  0  0  0  0  3  0  0  0  0  0  0
  -16.8410  -28.2490   22.8760 C   0  0  0  0  0  3  0  0  0  0  0  0
  -25.8100  -32.3960   23.7940 C   0  0  0  0  0  3  0  0  0  0  0  0
  -26.3190  -31.6220   25.0690 C   0  0  1  0  0  0  0  0  0  0  0  0
  -25.2120  -31.3400   26.1090 C   0  0  0  0  0  1  0  0  0  0  0  0
  -26.9550  -30.2700   24.6750 C   0  0  0  0  0  1  0  0  0  0  0  0
  -27.4270  -32.4370   25.7780 C   0  0  0  0  0  1  0  0  0  0  0  0
  -25.4550  -33.7800   24.1350 N   0  0  0  0  0  0  0  0  0  0  0  0
  -25.7710  -34.8500   23.3950 C   0  0  0  0  0  0  0  0  0  0  0  0
  -26.4640  -34.7790   22.3770 O   0  0  0  0  0  0  0  0  0  0  0  0
  -24.8470  -33.9080   24.9320 H   0  0  0  0  0  0  0  0  0  0  0  0
  -23.9940  -36.5870   23.0170 C   0  0  0  0  0  1  0  0  0  0  0  0
  -25.2300  -36.2180   23.8550 C   0  0  0  0  0  3  0  0  0  0  0  0
  -27.3120  -37.1660   24.7470 C   0  0  0  0  0  1  0  0  0  0  0  0
  -26.2290  -37.3060   23.7770 N   0  0  0  0  0  0  0  0  0  0  0  0
  -25.7860  -38.2090   23.9240 H   0  0  0  0  0  0  0  0  0  0  0  0
  1 51  1  0
  2 10  1  0
  2  4  1  0
  3  2  2  0
  4  9  1  0
  5  3  1  0
  5  7  2  0
  6  4  2  0
  6  1  1  0
  7  6  1  0
  8  3  1  0
 10 16  1  0
 11 16  1  0
 12 13  1  0
 12 11  1  0
 14 13  1  0
 14 21  1  0
 14 15  1  0
 16 15  1  0
 17 10  2  0
 18 19  2  0
 19 20  1  0
 19 38  1  0
 20 23  1  0
 21 18  1  0
 21 22  1  0
 22 20  2  0
 23 24  1  0
 24 25  2  0
 26 29  1  0
 26 25  1  0
 27 26  2  0
 28 27  1  0
 28 23  2  0
 29 30  1  0
 30 31  1  0
 31 32  2  0
 33 32  1  0
 33 37  1  0
 34 33  2  0
 35 30  2  0
 35 34  1  0
 36 35  1  0
 38 39  1  0
 39 42  1  0
 39 41  1  0
 40 38  2  0
 43 44  1  0
 43 18  1  0
 45 43  1  0
 46  7  1  0
 47 46  1  0
 48  5  1  0
 49 50  1  0
 50 48  1  0
 51 52  1  0
 53 52  1  0
 53 55  2  0
 54 53  1  0
 56 54  1  0
 57 54  1  0
 58 57  1  0
 59 58  1  0
 60 71  2  0
 61 59  1  0
 61 66  1  0
 62 70  1  0
 62 72  1  0
 63 69  1  0
 63 65  1  0
 64 70  1  0
 65 64  1  0
 66 65  2  0
 67 68  1  0
 67 61  2  0
 68 63  2  0
 69 62  1  0
 70 60  1  0
 72 74  2  0
 73 72  1  0
 75 73  1  0
 76 85  2  0
 76 81  1  0
 77 73  1  0
 77 81  1  0
 78 77  1  0
 79 80  1  0
 79 78  1  0
 80 76  1  0
 81 82  2  0
 82 83  1  0
 84 83  2  0
 85 84  1  0
 86 60  1  0
 86 91  1  0
 86 87  1  0
 87 90  1  1
 87 88  1  0
 89 87  1  0
 91 94  1  0
 92 96  1  0
 92 91  1  0
 93 92  2  0
 96 95  1  0
 98 96  1  0
 98 99  1  0
 98 97  1  0
M  ISO  4   2 100  10 100  58 101  59 101
M  END
>  <TORSDO>  (17) 
F 25

>  <SCORE>  (17) 
-10.344

>  <name>  (17) 
16

>  <ligand_id>  (17) 
16

>  <original_smiles>  (17) 
[H]Oc1c(C([H])([H])C([H])([H])C([H])([H])[H])c(C([H])([H])[H])c(C(=O)N2C([H])([H])C([H])([H])C([H])([H])C([H])(n3nc(-c4c([H])c([H])c(Oc5c([H])c([H])c(F)c([H])c5F)c([H])c4[H])c(C(=O)N([H])[H])c3N([H])[H])C2([H])[H])c(C([H])([H])[H])c1C([H])([H])C([H])([H])C([H])([H])C(=O)N([H])C([H])([H])C([H])([H])Oc1c([H])c([H])c2c(c1[H])C([H])([H])N(C(=O)C([H])(N([H])C(=O)C([H])(N([H])C([H])([H])[H])C([H])([H])[H])C(C([H])([H])[H])(C([H])([H])[H])C([H])([H])[H])C([H])(C(=O)N([H])C1([H])c3c([H])c([H])c([H])c([H])c3C([H])([H])C([H])([H])C1([H])[H])C2([H])[H]

>  <smiles>  (17) 
[H]Oc1c(C([H])([H])C([H])([H])C([H])([H])[H])c(C([H])([H])[H])c(C(=O)N2C([H])([H])C([H])([H])C([H])([H])C([H])(n3nc(-c4c([H])c([H])c(Oc5c([H])c([H])c(F)c([H])c5F)c([H])c4[H])c(C(=O)N([H])[H])c3N([H])[H])C2([H])[H])c(C([H])([H])[H])c1C([H])([H])C([H])([H])C([H])([H])C(=O)N([H])C([H])([H])C([H])([H])Oc1c([H])c([H])c2c(c1[H])C([H])([H])N(C(=O)C([H])(N([H])C(=O)C([H])(N([H])C([H])([H])[H])C([H])([H])[H])C(C([H])([H])[H])(C([H])([H])[H])C([H])([H])[H])C([H])(C(=O)N([H])C1([H])c3c([H])c([H])c([H])c([H])c3C([H])([H])C([H])([H])C1([H])[H])C2([H])[H]

$$$$
17:0:0
     RDKit          3D

 93101  0  0  1  0  0  0  0  0999 V2000
  -29.6580  -23.5480   21.6120 C   0  0  0  0  0  3  0  0  0  0  0  0
  -30.0030  -22.2350   21.2330 C   0  0  0  0  0  3  0  0  0  0  0  0
  -28.4060  -23.8230   19.5480 C   0  0  0  0  0  3  0  0  0  0  0  0
  -28.8520  -24.3510   20.7790 C   0  0  0  0  0  0  0  0  0  0  0  0
  -29.5400  -21.6940   20.0130 C   0  0  0  0  0  0  0  0  0  0  0  0
  -28.7510  -22.5030   19.1600 C   0  0  0  0  0  0  0  0  0  0  0  0
  -29.8480  -20.2470   19.6020 C   0  0  0  0  0  2  0  0  0  0  0  0
  -30.1810  -19.2590   20.7500 C   0  0  0  0  0  2  0  0  0  0  0  0
  -30.0310  -17.7710   20.3540 C   0  0  0  0  0  2  0  0  0  0  0  0
  -30.3990  -16.7920   21.4940 C   0  0  0  0  0  2  0  0  0  0  0  0
  -30.6180  -14.4630   20.5670 C   0  0  0  0  0  0  0  0  0  0  0  0
  -30.3170  -12.3350   19.3540 C   0  0  0  0  0  2  0  0  0  0  0  0
  -29.3820  -12.5600   18.1480 C   0  0  0  0  0  2  0  0  0  0  0  0
  -27.9080  -12.4140   18.5680 C   0  0  0  0  0  2  0  0  0  0  0  0
  -27.5610  -13.2330   19.8420 C   0  0  0  0  0  3  0  0  0  0  0  0
  -28.6080  -12.9870   20.9520 C   0  0  0  0  0  2  0  0  0  0  0  0
  -29.9400  -13.2960   20.4010 N   0  0  0  0  0  0  0  0  0  0  0  0
  -31.7240  -14.6810   20.0650 O   0  0  0  0  0  0  0  0  0  0  0  0
  -29.9550  -15.4170   21.2370 N   0  0  0  0  0  0  0  0  0  0  0  0
  -29.0460  -15.1560   21.5920 H   0  0  0  0  0  0  0  0  0  0  0  0
  -25.1510  -13.8320   20.5220 C   0  0  0  0  0  0  0  0  0  0  0  0
  -24.0820  -13.0550   20.8810 C   0  0  0  0  0  0  0  0  0  0  0  0
  -24.5510  -11.7060   20.8590 C   0  0  0  0  0  0  0  0  0  0  0  0
  -26.2030  -12.9550   20.3050 N   0  0  0  0  0  0  0  0  0  0  0  0
  -25.8440  -11.6700   20.5620 N   0  0  0  0  0  0  0  0  0  0  0  0
  -23.8290  -10.4390   21.0430 C   0  0  0  0  0  0  0  0  0  0  0  0
  -24.2540   -9.4760   21.9840 C   0  0  0  0  0  3  0  0  0  0  0  0
  -23.5320   -8.2740   22.1560 C   0  0  0  0  0  3  0  0  0  0  0  0
  -22.3700   -8.0280   21.3860 C   0  0  0  0  0  0  0  0  0  0  0  0
  -21.9650   -8.9800   20.4330 C   0  0  0  0  0  3  0  0  0  0  0  0
  -22.6880  -10.1720   20.2600 C   0  0  0  0  0  3  0  0  0  0  0  0
  -21.6220   -6.8790   21.4650 O   0  0  0  0  0  0  0  0  0  0  0  0
  -21.5620   -6.1380   22.6180 C   0  0  0  0  0  0  0  0  0  0  0  0
  -21.0980   -6.6840   23.8330 C   0  0  0  0  0  3  0  0  0  0  0  0
  -20.9880   -5.8680   24.9770 C   0  0  0  0  0  3  0  0  0  0  0  0
  -21.3320   -4.5050   24.9050 C   0  0  0  0  0  0  0  0  0  0  0  0
  -21.7880   -3.9560   23.6940 C   0  0  0  0  0  3  0  0  0  0  0  0
  -21.9000   -4.7710   22.5530 C   0  0  0  0  0  0  0  0  0  0  0  0
  -22.3220   -4.2320   21.3820 F   0  0  0  0  0  0  0  0  0  0  0  0
  -21.2190   -3.7200   26.0020 F   0  0  0  0  0  0  0  0  0  0  0  0
  -22.6800  -13.5240   21.1410 C   0  0  0  0  0  0  0  0  0  0  0  0
  -21.9470  -12.8220   21.9990 N   0  0  0  0  0  0  0  0  0  0  0  0
  -22.2400  -14.5460   20.6170 O   0  0  0  0  0  0  0  0  0  0  0  0
  -22.3150  -11.9930   22.4430 H   0  0  0  0  0  0  0  0  0  0  0  0
  -21.0060  -13.1150   22.2160 H   0  0  0  0  0  0  0  0  0  0  0  0
  -25.3100  -15.2030   20.3460 N   0  0  0  0  0  0  0  0  0  0  0  0
  -24.5380  -15.8510   20.4420 H   0  0  0  0  0  0  0  0  0  0  0  0
  -26.1610  -15.6480   20.0240 H   0  0  0  0  0  0  0  0  0  0  0  0
  -28.4130  -25.7330   21.2650 C   0  0  0  0  0  2  0  0  0  0  0  0
  -28.3830  -26.7430   20.2500 O   0  0  0  0  0  0  0  0  0  0  0  0
  -24.5770  -31.9320   23.3250 C   0  0  0  0  0  0  0  0  0  0  0  0
  -27.2350  -27.4950   20.2620 C   0  0  0  0  0  0  0  0  0  0  0  0
  -23.3820  -30.5250   21.6770 C   0  0  0  0  0  3  0  0  0  0  0  0
  -24.8420  -28.9870   20.2630 C   0  0  0  0  0  0  0  0  0  0  0  0
  -25.9060  -30.8880   21.4930 C   0  0  0  0  0  2  0  0  0  0  0  0
  -25.9960  -29.5170   20.8550 C   0  0  0  0  0  0  0  0  0  0  0  0
  -27.1980  -28.7760   20.8550 C   0  0  0  0  0  3  0  0  0  0  0  0
  -26.0680  -26.9700   19.6740 C   0  0  0  0  0  3  0  0  0  0  0  0
  -24.8710  -27.7120   19.6710 C   0  0  0  0  0  3  0  0  0  0  0  0
  -23.5960  -29.8400   20.3010 C   0  0  0  0  0  2  0  0  0  0  0  0
  -24.6400  -31.1300   22.2230 N   0  0  0  0  0  0  0  0  0  0  0  0
  -23.4920  -32.2020   23.8570 O   0  0  0  0  0  0  0  0  0  0  0  0
  -22.7250  -29.5060   22.6360 C   0  0  0  0  0  0  0  0  0  0  0  0
  -21.4050  -29.3110   22.4870 N   0  0  0  0  0  0  0  0  0  0  0  0
  -23.4020  -28.8940   23.4670 O   0  0  0  0  0  0  0  0  0  0  0  0
  -20.9240  -29.8520   21.7830 H   0  0  0  0  0  0  0  0  0  0  0  0
  -18.0360  -28.0820   22.9210 C   0  0  0  0  0  0  0  0  0  0  0  0
  -20.5830  -28.3730   23.2520 C   0  0  0  0  0  3  0  0  0  0  0  0
  -20.7180  -26.9370   22.6950 C   0  0  0  0  0  2  0  0  0  0  0  0
  -19.6430  -26.5870   21.6610 C   0  0  0  0  0  2  0  0  0  0  0  0
  -18.2440  -26.7270   22.2690 C   0  0  0  0  0  2  0  0  0  0  0  0
  -19.1350  -28.8630   23.3690 C   0  0  0  0  0  0  0  0  0  0  0  0
  -18.8870  -30.1310   23.9360 C   0  0  0  0  0  3  0  0  0  0  0  0
  -17.5730  -30.6190   24.0650 C   0  0  0  0  0  3  0  0  0  0  0  0
  -16.4880  -29.8350   23.6370 C   0  0  0  0  0  3  0  0  0  0  0  0
  -16.7200  -28.5690   23.0690 C   0  0  0  0  0  3  0  0  0  0  0  0
  -25.8600  -32.5630   23.9500 C   0  0  0  0  0  3  0  0  0  0  0  0
  -25.5630  -33.9720   24.2340 N   0  0  0  0  0  0  0  0  0  0  0  0
  -25.9290  -34.9990   23.4560 C   0  0  0  0  0  0  0  0  0  0  0  0
  -26.6200  -34.8570   22.4420 O   0  0  0  0  0  0  0  0  0  0  0  0
  -24.9520  -34.1580   25.0160 H   0  0  0  0  0  0  0  0  0  0  0  0
  -24.2430  -36.8100   22.9990 C   0  0  0  0  0  1  0  0  0  0  0  0
  -25.4490  -36.4050   23.8630 C   0  0  0  0  0  3  0  0  0  0  0  0
  -27.5670  -37.2780   24.7490 C   0  0  0  0  0  1  0  0  0  0  0  0
  -26.5020  -37.4400   23.7630 N   0  0  0  0  0  0  0  0  0  0  0  0
  -26.1050  -38.3700   23.8720 H   0  0  0  0  0  0  0  0  0  0  0  0
  -26.3470  -31.8200   25.2540 C   0  0  1  0  0  0  0  0  0  0  0  0
  -25.2340  -31.6250   26.3080 C   0  0  0  0  0  1  0  0  0  0  0  0
  -26.9180  -30.4260   24.9060 C   0  0  0  0  0  1  0  0  0  0  0  0
  -27.4950  -32.6170   25.9150 C   0  0  0  0  0  1  0  0  0  0  0  0
  -28.3770  -21.9940   17.9390 O   0  0  0  0  0  0  0  0  0  0  0  0
  -26.5490  -20.4500   17.7500 C   0  0  0  0  0  1  0  0  0  0  0  0
  -26.9830  -21.9170   17.6690 C   0  0  0  0  0  2  0  0  0  0  0  0
  2  1  1  0
  3  4  1  0
  4 49  1  0
  4  1  2  0
  5  2  2  0
  6  3  2  0
  6  5  1  0
  7  5  1  0
  7  8  1  0
  9  8  1  0
  9 10  1  0
 11 19  1  0
 12 17  1  0
 13 14  1  0
 13 12  1  0
 15 14  1  0
 15 24  1  0
 15 16  1  0
 17 11  1  0
 17 16  1  0
 18 11  2  0
 19 10  1  0
 19 20  1  0
 21 22  2  0
 22 41  1  0
 23 22  1  0
 23 26  1  0
 24 21  1  0
 24 25  1  0
 25 23  2  0
 26 27  1  0
 27 28  2  0
 29 32  1  0
 29 28  1  0
 30 29  2  0
 31 30  1  0
 31 26  2  0
 32 33  1  0
 33 34  1  0
 34 35  2  0
 36 35  1  0
 36 40  1  0
 37 36  2  0
 38 33  2  0
 38 37  1  0
 39 38  1  0
 41 42  1  0
 42 45  1  0
 42 44  1  0
 43 41  2  0
 46 47  1  0
 46 21  1  0
 48 46  1  0
 50 52  1  0
 50 49  1  0
 51 62  2  0
 52 57  1  0
 53 61  1  0
 53 63  1  0
 54 60  1  0
 54 56  1  0
 55 61  1  0
 56 57  2  0
 56 55  1  0
 58 52  2  0
 59 58  1  0
 59 54  2  0
 60 53  1  0
 61 51  1  0
 63 65  2  0
 64 63  1  0
 66 64  1  0
 67 76  2  0
 67 72  1  0
 68 64  1  0
 68 72  1  0
 69 68  1  0
 70 71  1  0
 70 69  1  0
 71 67  1  0
 72 73  2  0
 73 74  1  0
 75 74  2  0
 76 75  1  0
 77 51  1  0
 77 78  1  0
 77 87  1  0
 78 81  1  0
 79 83  1  0
 79 78  1  0
 80 79  2  0
 83 82  1  0
 85 83  1  0
 85 86  1  0
 85 84  1  0
 87 90  1  1
 87 88  1  0
 89 87  1  0
 91  6  1  0
 93 92  1  0
 93 91  1  0
M  ISO  4  11 100  19 100  49 101  50 101
M  END
>  <TORSDO>  (18) 
F 23

>  <SCORE>  (18) 
-12.869

>  <name>  (18) 
17

>  <ligand_id>  (18) 
17

>  <original_smiles>  (18) 
[H]c1c([H])c([H])c2c(c1[H])C([H])([H])C([H])([H])C([H])([H])C2([H])N([H])C(=O)C1([H])N(C(=O)C([H])(N([H])C(=O)C([H])(N([H])C([H])([H])[H])C([H])([H])[H])C(C([H])([H])[H])(C([H])([H])[H])C([H])([H])[H])C([H])([H])c2c([H])c(OC([H])([H])c3c([H])c([H])c(C([H])([H])C([H])([H])C([H])([H])C([H])([H])N([H])C(=O)N4C([H])([H])C([H])([H])C([H])([H])C([H])(n5nc(-c6c([H])c([H])c(Oc7c([H])c([H])c(F)c([H])c7F)c([H])c6[H])c(C(=O)N([H])[H])c5N([H])[H])C4([H])[H])c(OC([H])([H])C([H])([H])[H])c3[H])c([H])c([H])c2C1([H])[H]

>  <smiles>  (18) 
[H]c1c([H])c([H])c2c(c1[H])C([H])([H])C([H])([H])C([H])([H])C2([H])N([H])C(=O)C1([H])N(C(=O)C([H])(N([H])C(=O)C([H])(N([H])C([H])([H])[H])C([H])([H])[H])C(C([H])([H])[H])(C([H])([H])[H])C([H])([H])[H])C([H])([H])c2c([H])c(OC([H])([H])c3c([H])c([H])c(C([H])([H])C([H])([H])C([H])([H])C([H])([H])N([H])C(=O)N4C([H])([H])C([H])([H])C([H])([H])C([H])(n5nc(-c6c([H])c([H])c(Oc7c([H])c([H])c(F)c([H])c7F)c([H])c6[H])c(C(=O)N([H])[H])c5N([H])[H])C4([H])[H])c(OC([H])([H])C([H])([H])[H])c3[H])c([H])c([H])c2C1([H])[H]

$$$$
18:0:0
     RDKit          3D

 92100  0  0  1  0  0  0  0  0999 V2000
  -28.9980  -23.5780   17.8750 C   0  0  0  0  0  3  0  0  0  0  0  0
  -28.9420  -22.1860   18.0790 C   0  0  0  0  0  3  0  0  0  0  0  0
  -28.7950  -23.9410   20.2650 C   0  0  0  0  0  3  0  0  0  0  0  0
  -28.9220  -24.4710   18.9640 C   0  0  0  0  0  0  0  0  0  0  0  0
  -28.8100  -21.6490   19.3790 C   0  0  0  0  0  0  0  0  0  0  0  0
  -28.7320  -22.5330   20.4860 C   0  0  0  0  0  0  0  0  0  0  0  0
  -28.5300  -22.8440   22.8600 C   0  0  0  0  0  1  0  0  0  0  0  0
  -28.5860  -21.9710   21.7370 O   0  0  0  0  0  0  0  0  0  0  0  0
  -28.6580  -20.1290   19.5420 C   0  0  0  0  0  2  0  0  0  0  0  0
  -29.8990  -19.3540   20.0560 C   0  0  0  0  0  2  0  0  0  0  0  0
  -29.6220  -17.8280   20.1510 C   0  0  0  0  0  2  0  0  0  0  0  0
  -30.7790  -16.9650   20.7140 C   0  0  0  0  0  2  0  0  0  0  0  0
  -31.0560  -14.5360   20.0930 C   0  0  0  0  0  0  0  0  0  0  0  0
  -30.6670  -12.3740   18.9680 C   0  0  0  0  0  2  0  0  0  0  0  0
  -29.6690  -12.5800   17.8100 C   0  0  0  0  0  2  0  0  0  0  0  0
  -28.2130  -12.4870   18.3080 C   0  0  0  0  0  2  0  0  0  0  0  0
  -27.9580  -13.3280   19.5890 C   0  0  0  0  0  3  0  0  0  0  0  0
  -29.0640  -13.0870   20.6430 C   0  0  0  0  0  2  0  0  0  0  0  0
  -30.3640  -13.3670   20.0110 N   0  0  0  0  0  0  0  0  0  0  0  0
  -32.1320  -14.7210   19.5180 O   0  0  0  0  0  0  0  0  0  0  0  0
  -30.4240  -15.5350   20.7350 N   0  0  0  0  0  0  0  0  0  0  0  0
  -29.5700  -15.2800   21.2100 H   0  0  0  0  0  0  0  0  0  0  0  0
  -25.6180  -13.9840   20.4360 C   0  0  0  0  0  0  0  0  0  0  0  0
  -24.5500  -13.2320   20.8430 C   0  0  0  0  0  0  0  0  0  0  0  0
  -24.9660  -11.8680   20.7510 C   0  0  0  0  0  0  0  0  0  0  0  0
  -26.6230  -13.0790   20.1290 N   0  0  0  0  0  0  0  0  0  0  0  0
  -26.2370  -11.8000   20.3730 N   0  0  0  0  0  0  0  0  0  0  0  0
  -24.2140  -10.6230   20.9470 C   0  0  0  0  0  0  0  0  0  0  0  0
  -24.6320   -9.6460   21.8770 C   0  0  0  0  0  3  0  0  0  0  0  0
  -23.8830   -8.4640   22.0600 C   0  0  0  0  0  3  0  0  0  0  0  0
  -22.7010   -8.2510   21.3120 C   0  0  0  0  0  0  0  0  0  0  0  0
  -22.3020   -9.2150   20.3700 C   0  0  0  0  0  3  0  0  0  0  0  0
  -23.0520  -10.3890   20.1840 C   0  0  0  0  0  3  0  0  0  0  0  0
  -21.9210   -7.1230   21.4060 O   0  0  0  0  0  0  0  0  0  0  0  0
  -21.8180   -6.4130   22.5760 C   0  0  0  0  0  0  0  0  0  0  0  0
  -21.3010   -6.9940   23.7560 C   0  0  0  0  0  3  0  0  0  0  0  0
  -21.1490   -6.2100   24.9170 C   0  0  0  0  0  3  0  0  0  0  0  0
  -21.5010   -4.8470   24.9000 C   0  0  0  0  0  0  0  0  0  0  0  0
  -22.0100   -4.2660   23.7240 C   0  0  0  0  0  3  0  0  0  0  0  0
  -22.1650   -5.0470   22.5660 C   0  0  0  0  0  0  0  0  0  0  0  0
  -22.6340   -4.4770   21.4290 F   0  0  0  0  0  0  0  0  0  0  0  0
  -21.3480   -4.0910   26.0120 F   0  0  0  0  0  0  0  0  0  0  0  0
  -23.1860  -13.7400   21.2090 C   0  0  0  0  0  0  0  0  0  0  0  0
  -22.4900  -13.0350   22.0950 N   0  0  0  0  0  0  0  0  0  0  0  0
  -22.7490  -14.7920   20.7460 O   0  0  0  0  0  0  0  0  0  0  0  0
  -22.8570  -12.1810   22.4860 H   0  0  0  0  0  0  0  0  0  0  0  0
  -21.5750  -13.3520   22.3820 H   0  0  0  0  0  0  0  0  0  0  0  0
  -25.8220  -15.3530   20.2850 N   0  0  0  0  0  0  0  0  0  0  0  0
  -25.0930  -16.0400   20.4420 H   0  0  0  0  0  0  0  0  0  0  0  0
  -26.6780  -15.7620   19.9290 H   0  0  0  0  0  0  0  0  0  0  0  0
  -29.0130  -25.9770   18.6910 C   0  0  0  0  0  2  0  0  0  0  0  0
  -28.7070  -26.8480   19.7890 O   0  0  0  0  0  0  0  0  0  0  0  0
  -24.6760  -31.7130   23.0860 C   0  0  0  0  0  0  0  0  0  0  0  0
  -27.4900  -27.5020   19.8120 C   0  0  0  0  0  0  0  0  0  0  0  0
  -23.5210  -30.3280   21.3920 C   0  0  0  0  0  3  0  0  0  0  0  0
  -25.0300  -28.9030   19.9050 C   0  0  0  0  0  0  0  0  0  0  0  0
  -26.0320  -30.7880   21.2110 C   0  0  0  0  0  2  0  0  0  0  0  0
  -26.1670  -29.4470   20.5150 C   0  0  0  0  0  0  0  0  0  0  0  0
  -27.3950  -28.7480   20.4760 C   0  0  0  0  0  3  0  0  0  0  0  0
  -26.3290  -26.9630   19.2110 C   0  0  0  0  0  3  0  0  0  0  0  0
  -25.1050  -27.6590   19.2530 C   0  0  0  0  0  3  0  0  0  0  0  0
  -23.7530  -29.7110   19.9860 C   0  0  0  0  0  2  0  0  0  0  0  0
  -24.7600  -30.9580   21.9540 N   0  0  0  0  0  0  0  0  0  0  0  0
  -23.5870  -31.9220   23.6370 O   0  0  0  0  0  0  0  0  0  0  0  0
  -22.9140  -29.2470   22.3130 C   0  0  0  0  0  0  0  0  0  0  0  0
  -21.6000  -29.0100   22.1720 N   0  0  0  0  0  0  0  0  0  0  0  0
  -23.6220  -28.6250   23.1100 O   0  0  0  0  0  0  0  0  0  0  0  0
  -21.0900  -29.5650   21.4990 H   0  0  0  0  0  0  0  0  0  0  0  0
  -18.2790  -27.6560   22.6150 C   0  0  0  0  0  0  0  0  0  0  0  0
  -20.8230  -28.0120   22.9050 C   0  0  0  0  0  3  0  0  0  0  0  0
  -20.9870  -26.6080   22.2780 C   0  0  0  0  0  2  0  0  0  0  0  0
  -19.9030  -26.2760   21.2480 C   0  0  0  0  0  2  0  0  0  0  0  0
  -18.5140  -26.3410   21.8910 C   0  0  0  0  0  2  0  0  0  0  0  0
  -19.3640  -28.4480   23.0770 C   0  0  0  0  0  0  0  0  0  0  0  0
  -19.0910  -29.6790   23.7130 C   0  0  0  0  0  3  0  0  0  0  0  0
  -17.7650  -30.1180   23.8920 C   0  0  0  0  0  3  0  0  0  0  0  0
  -16.6960  -29.3230   23.4460 C   0  0  0  0  0  3  0  0  0  0  0  0
  -16.9530  -28.0940   22.8150 C   0  0  0  0  0  3  0  0  0  0  0  0
  -25.9400  -32.3670   23.7280 C   0  0  0  0  0  3  0  0  0  0  0  0
  -25.5860  -33.7460   24.0930 N   0  0  0  0  0  0  0  0  0  0  0  0
  -25.8810  -34.8270   23.3600 C   0  0  0  0  0  0  0  0  0  0  0  0
  -26.5510  -34.7710   22.3240 O   0  0  0  0  0  0  0  0  0  0  0  0
  -24.9920  -33.8620   24.9010 H   0  0  0  0  0  0  0  0  0  0  0  0
  -24.0950  -36.5710   23.0450 C   0  0  0  0  0  1  0  0  0  0  0  0
  -25.3470  -36.1860   23.8520 C   0  0  0  0  0  3  0  0  0  0  0  0
  -27.4420  -37.1230   24.7250 C   0  0  0  0  0  1  0  0  0  0  0  0
  -26.3450  -37.2750   23.7710 N   0  0  0  0  0  0  0  0  0  0  0  0
  -25.9070  -38.1770   23.9330 H   0  0  0  0  0  0  0  0  0  0  0  0
  -26.4810  -31.5800   24.9840 C   0  0  1  0  0  0  0  0  0  0  0  0
  -25.3950  -31.2770   26.0430 C   0  0  0  0  0  1  0  0  0  0  0  0
  -27.1110  -30.2340   24.5550 C   0  0  0  0  0  1  0  0  0  0  0  0
  -27.6030  -32.3960   25.6700 C   0  0  0  0  0  1  0  0  0  0  0  0
  1  2  2  0
  1  4  1  0
  2  5  1  0
  3  6  1  0
  4  3  2  0
  5  9  1  0
  5  6  2  0
  6  8  1  0
  8  7  1  0
  9 10  1  0
 10 11  1  0
 11 12  1  0
 12 21  1  0
 13 21  1  0
 14 19  1  0
 15 16  1  0
 15 14  1  0
 17 16  1  0
 17 26  1  0
 17 18  1  0
 19 13  1  0
 19 18  1  0
 20 13  2  0
 21 22  1  0
 23 24  2  0
 24 43  1  0
 25 24  1  0
 25 28  1  0
 26 27  1  0
 26 23  1  0
 27 25  2  0
 28 29  1  0
 29 30  2  0
 31 34  1  0
 31 30  1  0
 32 31  2  0
 33 32  1  0
 33 28  2  0
 34 35  1  0
 35 36  1  0
 36 37  2  0
 38 37  1  0
 38 42  1  0
 39 38  2  0
 40 35  2  0
 40 39  1  0
 41 40  1  0
 43 44  1  0
 44 47  1  0
 44 46  1  0
 45 43  2  0
 48 23  1  0
 48 49  1  0
 50 48  1  0
 51  4  1  0
 51 52  1  0
 52 54  1  0
 53 64  2  0
 54 59  1  0
 55 63  1  0
 55 65  1  0
 56 62  1  0
 56 58  1  0
 57 63  1  0
 58 57  1  0
 59 58  2  0
 60 61  1  0
 60 54  2  0
 61 56  2  0
 62 55  1  0
 63 53  1  0
 65 67  2  0
 66 65  1  0
 68 66  1  0
 69 78  2  0
 69 74  1  0
 70 66  1  0
 70 74  1  0
 71 70  1  0
 72 73  1  0
 72 71  1  0
 73 69  1  0
 74 75  2  0
 75 76  1  0
 77 76  2  0
 78 77  1  0
 79 53  1  0
 79 80  1  0
 79 89  1  0
 80 83  1  0
 81 85  1  0
 81 80  1  0
 82 81  2  0
 85 84  1  0
 87 85  1  0
 87 88  1  0
 87 86  1  0
 89 92  1  1
 89 90  1  0
 91 89  1  0
M  ISO  4  13 100  21 100  51 101  52 101
M  END
>  <TORSDO>  (19) 
F 22

>  <SCORE>  (19) 
-12.110

>  <name>  (19) 
18

>  <ligand_id>  (19) 
18

>  <original_smiles>  (19) 
[H]c1c([H])c([H])c2c(c1[H])C([H])([H])C([H])([H])C([H])([H])C2([H])N([H])C(=O)C1([H])N(C(=O)C([H])(N([H])C(=O)C([H])(N([H])C([H])([H])[H])C([H])([H])[H])C(C([H])([H])[H])(C([H])([H])[H])C([H])([H])[H])C([H])([H])c2c([H])c(OC([H])([H])c3c([H])c([H])c(C([H])([H])C([H])([H])C([H])([H])C([H])([H])N([H])C(=O)N4C([H])([H])C([H])([H])C([H])([H])C([H])(n5nc(-c6c([H])c([H])c(Oc7c([H])c([H])c(F)c([H])c7F)c([H])c6[H])c(C(=O)N([H])[H])c5N([H])[H])C4([H])[H])c(OC([H])([H])[H])c3[H])c([H])c([H])c2C1([H])[H]

>  <smiles>  (19) 
[H]c1c([H])c([H])c2c(c1[H])C([H])([H])C([H])([H])C([H])([H])C2([H])N([H])C(=O)C1([H])N(C(=O)C([H])(N([H])C(=O)C([H])(N([H])C([H])([H])[H])C([H])([H])[H])C(C([H])([H])[H])(C([H])([H])[H])C([H])([H])[H])C([H])([H])c2c([H])c(OC([H])([H])c3c([H])c([H])c(C([H])([H])C([H])([H])C([H])([H])C([H])([H])N([H])C(=O)N4C([H])([H])C([H])([H])C([H])([H])C([H])(n5nc(-c6c([H])c([H])c(Oc7c([H])c([H])c(F)c([H])c7F)c([H])c6[H])c(C(=O)N([H])[H])c5N([H])[H])C4([H])[H])c(OC([H])([H])[H])c3[H])c([H])c([H])c2C1([H])[H]

$$$$
19:0:0
     RDKit          3D

 96105  0  0  1  0  0  0  0  0999 V2000
  -28.9480  -21.7020   18.4880 C   0  0  0  0  0  2  0  0  0  0  0  0
  -28.2410  -22.8790   20.6500 C   0  0  0  0  0  2  0  0  0  0  0  0
  -29.0770  -21.5040   20.0150 C   0  0  0  0  0  3  0  0  0  0  0  0
  -29.4090  -23.1040   17.9830 C   0  0  0  0  0  3  0  0  0  0  0  0
  -28.5040  -24.3030   18.4500 C   0  0  0  0  0  3  0  0  0  0  0  0
  -28.4710  -24.4680   19.9890 C   0  0  0  0  0  3  0  0  0  0  0  0
  -29.5350  -23.0290   16.4440 C   0  0  0  0  0  1  0  0  0  0  0  0
  -28.4220  -18.7630   19.6480 C   0  0  0  0  0  3  0  0  0  0  0  0
  -30.1510  -19.1490   21.1290 C   0  0  0  0  0  3  0  0  0  0  0  0
  -29.8110  -16.6640   20.3740 C   0  0  0  0  0  0  0  0  0  0  0  0
  -29.1350  -19.8200   20.3460 C   0  0  0  0  0  0  0  0  0  0  0  0
  -28.7290  -17.3120   19.6480 C   0  0  0  0  0  0  0  0  0  0  0  0
  -30.4710  -17.7100   21.1400 C   0  0  0  0  0  0  0  0  0  0  0  0
  -27.9580  -16.5420   18.8460 F   0  0  0  0  0  0  0  0  0  0  0  0
  -31.5220  -17.3480   21.9140 F   0  0  0  0  0  0  0  0  0  0  0  0
  -30.4390  -15.1430   20.1440 C   0  0  0  0  0  0  0  0  0  0  0  0
  -30.3060  -12.7460   19.2130 C   0  0  0  0  0  2  0  0  0  0  0  0
  -29.3490  -12.6320   18.0000 C   0  0  0  0  0  2  0  0  0  0  0  0
  -27.9100  -12.3760   18.4780 C   0  0  0  0  0  2  0  0  0  0  0  0
  -27.5130  -13.3160   19.6440 C   0  0  0  0  0  3  0  0  0  0  0  0
  -28.5900  -13.4220   20.7380 C   0  0  0  0  0  2  0  0  0  0  0  0
  -29.8260  -13.8710   20.0950 N   0  0  0  0  0  0  0  0  0  0  0  0
  -31.6380  -15.0960   19.8370 O   0  0  0  0  0  0  0  0  0  0  0  0
  -25.1880  -13.8880   20.5120 C   0  0  0  0  0  0  0  0  0  0  0  0
  -24.1350  -13.1140   20.9110 C   0  0  0  0  0  0  0  0  0  0  0  0
  -24.5890  -11.7590   20.8430 C   0  0  0  0  0  0  0  0  0  0  0  0
  -26.2060  -13.0060   20.2020 N   0  0  0  0  0  0  0  0  0  0  0  0
  -25.8640  -11.7190   20.4720 N   0  0  0  0  0  0  0  0  0  0  0  0
  -23.8620  -10.4980   21.0440 C   0  0  0  0  0  0  0  0  0  0  0  0
  -24.3200   -9.5160   21.9510 C   0  0  0  0  0  3  0  0  0  0  0  0
  -23.5880   -8.3240   22.1350 C   0  0  0  0  0  3  0  0  0  0  0  0
  -22.3920   -8.1030   21.4130 C   0  0  0  0  0  0  0  0  0  0  0  0
  -21.9550   -9.0760   20.4960 C   0  0  0  0  0  3  0  0  0  0  0  0
  -22.6850  -10.2600   20.3080 C   0  0  0  0  0  3  0  0  0  0  0  0
  -21.6310   -6.9600   21.5090 O   0  0  0  0  0  0  0  0  0  0  0  0
  -21.6140   -6.2040   22.6530 C   0  0  0  0  0  0  0  0  0  0  0  0
  -21.2110   -6.7410   23.8950 C   0  0  0  0  0  3  0  0  0  0  0  0
  -21.1340   -5.9100   25.0300 C   0  0  0  0  0  3  0  0  0  0  0  0
  -21.4560   -4.5430   24.9260 C   0  0  0  0  0  0  0  0  0  0  0  0
  -21.8550   -4.0060   23.6890 C   0  0  0  0  0  3  0  0  0  0  0  0
  -21.9300   -4.8340   22.5570 C   0  0  0  0  0  0  0  0  0  0  0  0
  -22.2940   -4.3060   21.3640 F   0  0  0  0  0  0  0  0  0  0  0  0
  -21.3800   -3.7440   26.0170 F   0  0  0  0  0  0  0  0  0  0  0  0
  -22.7540  -13.5970   21.2400 C   0  0  0  0  0  0  0  0  0  0  0  0
  -22.0480  -12.8960   22.1160 N   0  0  0  0  0  0  0  0  0  0  0  0
  -22.3100  -14.6400   20.7560 O   0  0  0  0  0  0  0  0  0  0  0  0
  -22.4190  -12.0560   22.5370 H   0  0  0  0  0  0  0  0  0  0  0  0
  -21.1250  -13.2120   22.3780 H   0  0  0  0  0  0  0  0  0  0  0  0
  -25.3590  -15.2610   20.3590 N   0  0  0  0  0  0  0  0  0  0  0  0
  -24.5990  -15.9150   20.5050 H   0  0  0  0  0  0  0  0  0  0  0  0
  -26.1700  -15.6900   19.9270 H   0  0  0  0  0  0  0  0  0  0  0  0
  -28.9890  -25.5600   17.8490 N   0  0  0  0  0  4  0  0  0  0  0  0
  -28.2380  -26.2280   17.7880 H   0  0  0  0  0  0  0  0  0  0  0  0
  -29.3460  -25.3810   16.9260 H   0  0  0  0  0  0  0  0  0  0  0  0
  -29.7190  -25.9640   18.4130 H   0  0  0  0  0  0  0  0  0  0  0  0
  -28.2240  -26.0130   20.4130 O   0  0  0  0  0  0  0  0  0  0  0  0
  -24.6140  -31.8340   23.2380 C   0  0  0  0  0  0  0  0  0  0  0  0
  -27.1600  -27.0100   20.2510 C   0  0  0  0  0  0  0  0  0  0  0  0
  -23.4120  -30.4400   21.5970 C   0  0  0  0  0  3  0  0  0  0  0  0
  -24.8540  -28.8390   20.1680 C   0  0  0  0  0  0  0  0  0  0  0  0
  -25.9690  -30.6710   21.4420 C   0  0  0  0  0  2  0  0  0  0  0  0
  -26.0320  -29.2650   20.7920 C   0  0  0  0  0  0  0  0  0  0  0  0
  -27.1750  -28.3660   20.8120 C   0  0  0  0  0  3  0  0  0  0  0  0
  -25.9600  -26.7080   19.5750 C   0  0  0  0  0  3  0  0  0  0  0  0
  -24.8400  -27.5800   19.5380 C   0  0  0  0  0  3  0  0  0  0  0  0
  -23.6330  -29.7550   20.2160 C   0  0  0  0  0  2  0  0  0  0  0  0
  -24.6860  -31.0110   22.1440 N   0  0  0  0  0  0  0  0  0  0  0  0
  -23.5270  -32.1270   23.7650 O   0  0  0  0  0  0  0  0  0  0  0  0
  -22.7270  -29.4440   22.5660 C   0  0  0  0  0  0  0  0  0  0  0  0
  -21.3990  -29.2770   22.4390 N   0  0  0  0  0  0  0  0  0  0  0  0
  -23.3940  -28.8220   23.3970 O   0  0  0  0  0  0  0  0  0  0  0  0
  -20.9210  -29.8260   21.7390 H   0  0  0  0  0  0  0  0  0  0  0  0
  -18.0150  -28.0790   22.9460 C   0  0  0  0  0  0  0  0  0  0  0  0
  -20.5730  -28.3460   23.2160 C   0  0  0  0  0  3  0  0  0  0  0  0
  -20.6760  -26.9150   22.6440 C   0  0  0  0  0  2  0  0  0  0  0  0
  -19.5730  -26.5860   21.6320 C   0  0  0  0  0  2  0  0  0  0  0  0
  -18.1900  -26.7300   22.2730 C   0  0  0  0  0  2  0  0  0  0  0  0
  -19.1320  -28.8450   23.3750 C   0  0  0  0  0  0  0  0  0  0  0  0
  -18.9080  -30.1040   23.9740 C   0  0  0  0  0  3  0  0  0  0  0  0
  -17.6010  -30.5990   24.1450 C   0  0  0  0  0  3  0  0  0  0  0  0
  -16.4990  -29.8320   23.7280 C   0  0  0  0  0  3  0  0  0  0  0  0
  -16.7080  -28.5750   23.1360 C   0  0  0  0  0  3  0  0  0  0  0  0
  -25.8890  -32.4710   23.8700 C   0  0  0  0  0  3  0  0  0  0  0  0
  -26.3850  -31.7130   25.1650 C   0  0  1  0  0  0  0  0  0  0  0  0
  -25.2770  -31.4950   26.2250 C   0  0  0  0  0  1  0  0  0  0  0  0
  -26.9650  -30.3280   24.8020 C   0  0  0  0  0  1  0  0  0  0  0  0
  -27.5330  -32.5100   25.8300 C   0  0  0  0  0  1  0  0  0  0  0  0
  -25.5800  -33.8750   24.1940 N   0  0  0  0  0  0  0  0  0  0  0  0
  -25.9130  -34.9270   23.4360 C   0  0  0  0  0  0  0  0  0  0  0  0
  -26.5800  -34.8170   22.4050 O   0  0  0  0  0  0  0  0  0  0  0  0
  -24.9880  -34.0320   24.9970 H   0  0  0  0  0  0  0  0  0  0  0  0
  -24.1930  -36.7310   23.0870 C   0  0  0  0  0  1  0  0  0  0  0  0
  -25.4360  -36.3220   23.8910 C   0  0  0  0  0  3  0  0  0  0  0  0
  -27.5790  -37.2020   24.7130 C   0  0  0  0  0  1  0  0  0  0  0  0
  -26.4760  -37.3690   23.7680 N   0  0  0  0  0  0  0  0  0  0  0  0
  -26.0750  -38.2930   23.9060 H   0  0  0  0  0  0  0  0  0  0  0  0
  1  3  1  0
  3 11  1  0
  3  2  1  0
  4  7  1  0
  4  5  1  0
  4  1  1  0
  5 52  1  0
  5  6  1  0
  6 56  1  0
  6  2  1  0
  8 11  1  0
  9 13  1  0
 10 13  2  0
 11  9  2  0
 12  8  2  0
 12 10  1  0
 13 15  1  0
 14 12  1  0
 16 10  1  0
 17 22  1  0
 18 19  1  0
 18 17  1  0
 20 19  1  0
 20 27  1  0
 20 21  1  0
 22 16  1  0
 22 21  1  0
 23 16  2  0
 24 25  2  0
 25 44  1  0
 26 25  1  0
 26 29  1  0
 27 28  1  0
 27 24  1  0
 28 26  2  0
 29 30  1  0
 30 31  2  0
 32 35  1  0
 32 31  1  0
 33 32  2  0
 34 33  1  0
 34 29  2  0
 35 36  1  0
 36 37  1  0
 37 38  2  0
 39 38  1  0
 39 43  1  0
 40 39  2  0
 41 36  2  0
 41 40  1  0
 42 41  1  0
 44 45  1  0
 45 48  1  0
 45 47  1  0
 46 44  2  0
 49 50  1  0
 49 24  1  0
 51 49  1  0
 52 55  1  0
 53 52  1  0
 54 52  1  0
 57 68  2  0
 58 56  1  0
 58 63  1  0
 59 67  1  0
 59 69  1  0
 60 66  1  0
 60 62  1  0
 61 67  1  0
 62 63  2  0
 62 61  1  0
 64 58  2  0
 65 64  1  0
 65 60  2  0
 66 59  1  0
 67 57  1  0
 69 71  2  0
 70 69  1  0
 72 70  1  0
 73 82  2  0
 73 78  1  0
 74 70  1  0
 74 78  1  0
 75 74  1  0
 76 77  1  0
 76 75  1  0
 77 73  1  0
 78 79  2  0
 79 80  1  0
 81 80  2  0
 82 81  1  0
 83 57  1  0
 83 88  1  0
 83 84  1  0
 84 87  1  1
 84 85  1  0
 86 84  1  0
 88 91  1  0
 89 93  1  0
 89 88  1  0
 90 89  2  0
 93 92  1  0
 95 93  1  0
 95 96  1  0
 95 94  1  0
M  ISO  4   6 101  10 100  16 100  56 101
M  END
>  <TORSDO>  (20) 
F 18

>  <SCORE>  (20) 
-15.636

>  <name>  (20) 
19

>  <ligand_id>  (20) 
19

>  <original_smiles>  (20) 
[H]c1c([H])c([H])c2c(c1[H])C([H])([H])C([H])([H])C([H])([H])C2([H])N([H])C(=O)C1([H])N(C(=O)C([H])(N([H])C(=O)C([H])(N([H])C([H])([H])[H])C([H])([H])[H])C(C([H])([H])[H])(C([H])([H])[H])C([H])([H])[H])C([H])([H])c2c([H])c(OC3([H])C([H])([H])C([H])(c4c([H])c(F)c(C(=O)N5C([H])([H])C([H])([H])C([H])([H])C([H])(n6nc(-c7c([H])c([H])c(Oc8c([H])c([H])c(F)c([H])c8F)c([H])c7[H])c(C(=O)N([H])[H])c6N([H])[H])C5([H])[H])c(F)c4[H])C([H])([H])C([H])(C([H])([H])[H])C3([H])[N+]([H])([H])[H])c([H])c([H])c2C1([H])[H]

>  <smiles>  (20) 
[H]c1c([H])c([H])c2c(c1[H])C([H])([H])C([H])([H])C([H])([H])C2([H])N([H])C(=O)C1([H])N(C(=O)C([H])(N([H])C(=O)C([H])(N([H])C([H])([H])[H])C([H])([H])[H])C(C([H])([H])[H])(C([H])([H])[H])C([H])([H])[H])C([H])([H])c2c([H])c(OC3([H])C([H])([H])C([H])(c4c([H])c(F)c(C(=O)N5C([H])([H])C([H])([H])C([H])([H])C([H])(n6nc(-c7c([H])c([H])c(Oc8c([H])c([H])c(F)c([H])c8F)c([H])c7[H])c(C(=O)N([H])[H])c6N([H])[H])C5([H])[H])c(F)c4[H])C([H])([H])C([H])(C([H])([H])[H])C3([H])[N+]([H])([H])[H])c([H])c([H])c2C1([H])[H]

$$$$
20:0:0
     RDKit          3D

 88 96  0  0  1  0  0  0  0  0999 V2000
  -29.9400  -19.3710   21.1860 C   0  0  0  0  0  3  0  0  0  0  0  0
  -28.6230  -18.9380   19.3660 C   0  0  0  0  0  3  0  0  0  0  0  0
  -29.0620  -20.0240   20.2310 C   0  0  0  0  0  0  0  0  0  0  0  0
  -29.8290  -16.8400   20.3850 C   0  0  0  0  0  0  0  0  0  0  0  0
  -30.3080  -17.9280   21.2540 C   0  0  0  0  0  0  0  0  0  0  0  0
  -28.9730  -17.4970   19.4010 C   0  0  0  0  0  0  0  0  0  0  0  0
  -31.3200  -17.5620   22.3290 C   0  0  0  0  0  1  0  0  0  0  0  0
  -28.4240  -16.6880   18.2370 C   0  0  0  0  0  1  0  0  0  0  0  0
  -30.4370  -15.2760   20.3280 C   0  0  0  0  0  0  0  0  0  0  0  0
  -30.3240  -12.8510   19.4610 C   0  0  0  0  0  2  0  0  0  0  0  0
  -29.4100  -12.6660   18.2260 C   0  0  0  0  0  2  0  0  0  0  0  0
  -27.9560  -12.4160   18.6660 C   0  0  0  0  0  2  0  0  0  0  0  0
  -27.5080  -13.3860   19.7870 C   0  0  0  0  0  3  0  0  0  0  0  0
  -28.5560  -13.5490   20.9080 C   0  0  0  0  0  2  0  0  0  0  0  0
  -29.8030  -14.0060   20.2780 N   0  0  0  0  0  0  0  0  0  0  0  0
  -31.6570  -15.1920   20.1450 O   0  0  0  0  0  0  0  0  0  0  0  0
  -25.1380  -13.9360   20.5490 C   0  0  0  0  0  0  0  0  0  0  0  0
  -24.0760  -13.1560   20.9110 C   0  0  0  0  0  0  0  0  0  0  0  0
  -24.5480  -11.8070   20.8800 C   0  0  0  0  0  0  0  0  0  0  0  0
  -26.1830  -13.0650   20.3030 N   0  0  0  0  0  0  0  0  0  0  0  0
  -25.8400  -11.7790   20.5730 N   0  0  0  0  0  0  0  0  0  0  0  0
  -23.8260  -10.5400   21.0660 C   0  0  0  0  0  0  0  0  0  0  0  0
  -24.2610   -9.5690   21.9950 C   0  0  0  0  0  3  0  0  0  0  0  0
  -23.5340   -8.3700   22.1700 C   0  0  0  0  0  3  0  0  0  0  0  0
  -22.3590   -8.1360   21.4170 C   0  0  0  0  0  0  0  0  0  0  0  0
  -21.9430   -9.0970   20.4790 C   0  0  0  0  0  3  0  0  0  0  0  0
  -22.6710  -10.2870   20.3010 C   0  0  0  0  0  3  0  0  0  0  0  0
  -21.6030   -6.9910   21.5020 O   0  0  0  0  0  0  0  0  0  0  0  0
  -21.5640   -6.2380   22.6480 C   0  0  0  0  0  0  0  0  0  0  0  0
  -21.1480   -6.7810   23.8830 C   0  0  0  0  0  3  0  0  0  0  0  0
  -21.0560   -5.9550   25.0210 C   0  0  0  0  0  3  0  0  0  0  0  0
  -21.3700   -4.5860   24.9240 C   0  0  0  0  0  0  0  0  0  0  0  0
  -21.7780   -4.0420   23.6940 C   0  0  0  0  0  3  0  0  0  0  0  0
  -21.8720   -4.8660   22.5590 C   0  0  0  0  0  0  0  0  0  0  0  0
  -22.2460   -4.3310   21.3710 F   0  0  0  0  0  0  0  0  0  0  0  0
  -21.2750   -3.7900   26.0150 F   0  0  0  0  0  0  0  0  0  0  0  0
  -22.6760  -13.6270   21.1750 C   0  0  0  0  0  0  0  0  0  0  0  0
  -21.9450  -12.9270   22.0340 N   0  0  0  0  0  0  0  0  0  0  0  0
  -22.2390  -14.6530   20.6540 O   0  0  0  0  0  0  0  0  0  0  0  0
  -22.3140  -12.0980   22.4780 H   0  0  0  0  0  0  0  0  0  0  0  0
  -21.0040  -13.2230   22.2530 H   0  0  0  0  0  0  0  0  0  0  0  0
  -25.2980  -15.3090   20.3790 N   0  0  0  0  0  0  0  0  0  0  0  0
  -24.5370  -15.9650   20.5150 H   0  0  0  0  0  0  0  0  0  0  0  0
  -26.1650  -15.7600   20.1140 H   0  0  0  0  0  0  0  0  0  0  0  0
  -28.5600  -21.6160   20.0130 C   0  0  0  0  0  3  0  0  0  0  0  0
  -28.6450  -22.9850   20.5110 C   0  0  0  0  0  3  0  0  0  0  0  0
  -27.8510  -24.4390   20.0490 C   0  0  0  0  0  2  0  0  0  0  0  0
  -28.1460  -26.0010   20.3730 O   0  0  0  0  0  0  0  0  0  0  0  0
  -24.6220  -31.9570   23.2640 C   0  0  0  0  0  0  0  0  0  0  0  0
  -27.1470  -27.0870   20.2780 C   0  0  0  0  0  0  0  0  0  0  0  0
  -23.4160  -30.5600   21.6330 C   0  0  0  0  0  3  0  0  0  0  0  0
  -24.8530  -28.9440   20.2210 C   0  0  0  0  0  0  0  0  0  0  0  0
  -25.9800  -30.7670   21.4810 C   0  0  0  0  0  2  0  0  0  0  0  0
  -26.0400  -29.3560   20.8370 C   0  0  0  0  0  0  0  0  0  0  0  0
  -27.1820  -28.4450   20.8490 C   0  0  0  0  0  3  0  0  0  0  0  0
  -25.9350  -26.8200   19.6030 C   0  0  0  0  0  3  0  0  0  0  0  0
  -24.8220  -27.6940   19.5840 C   0  0  0  0  0  3  0  0  0  0  0  0
  -23.6380  -29.8660   20.2620 C   0  0  0  0  0  2  0  0  0  0  0  0
  -24.6930  -31.1210   22.1800 N   0  0  0  0  0  0  0  0  0  0  0  0
  -23.5370  -32.2560   23.7870 O   0  0  0  0  0  0  0  0  0  0  0  0
  -22.7180  -29.5720   22.6060 C   0  0  0  0  0  0  0  0  0  0  0  0
  -21.3880  -29.4100   22.4760 N   0  0  0  0  0  0  0  0  0  0  0  0
  -23.3790  -28.9530   23.4410 O   0  0  0  0  0  0  0  0  0  0  0  0
  -20.9080  -29.9620   21.7810 H   0  0  0  0  0  0  0  0  0  0  0  0
  -18.0030  -28.2120   22.9760 C   0  0  0  0  0  0  0  0  0  0  0  0
  -20.5600  -28.4840   23.2550 C   0  0  0  0  0  3  0  0  0  0  0  0
  -20.6660  -27.0430   22.7040 C   0  0  0  0  0  2  0  0  0  0  0  0
  -19.5720  -26.7040   21.6850 C   0  0  0  0  0  2  0  0  0  0  0  0
  -18.1850  -26.8550   22.3180 C   0  0  0  0  0  2  0  0  0  0  0  0
  -19.1170  -28.9830   23.4020 C   0  0  0  0  0  0  0  0  0  0  0  0
  -18.8890  -30.2500   23.9810 C   0  0  0  0  0  3  0  0  0  0  0  0
  -17.5810  -30.7470   24.1350 C   0  0  0  0  0  3  0  0  0  0  0  0
  -16.4820  -29.9750   23.7220 C   0  0  0  0  0  3  0  0  0  0  0  0
  -16.6930  -28.7090   23.1490 C   0  0  0  0  0  3  0  0  0  0  0  0
  -25.9010  -32.5910   23.8910 C   0  0  0  0  0  3  0  0  0  0  0  0
  -25.5950  -33.9950   24.2200 N   0  0  0  0  0  0  0  0  0  0  0  0
  -25.9170  -35.0490   23.4570 C   0  0  0  0  0  0  0  0  0  0  0  0
  -26.5660  -34.9410   22.4140 O   0  0  0  0  0  0  0  0  0  0  0  0
  -25.0200  -34.1520   25.0350 H   0  0  0  0  0  0  0  0  0  0  0  0
  -24.1810  -36.8460   23.1480 C   0  0  0  0  0  1  0  0  0  0  0  0
  -25.4460  -36.4420   23.9230 C   0  0  0  0  0  3  0  0  0  0  0  0
  -27.6040  -37.3340   24.6860 C   0  0  0  0  0  1  0  0  0  0  0  0
  -26.4750  -37.4940   23.7720 N   0  0  0  0  0  0  0  0  0  0  0  0
  -26.0730  -38.4150   23.9210 H   0  0  0  0  0  0  0  0  0  0  0  0
  -26.4030  -31.8290   25.1780 C   0  0  1  0  0  0  0  0  0  0  0  0
  -25.3050  -31.6120   26.2440 C   0  0  0  0  0  1  0  0  0  0  0  0
  -26.9750  -30.4390   24.8100 C   0  0  0  0  0  1  0  0  0  0  0  0
  -27.5560  -32.6210   25.8390 C   0  0  0  0  0  1  0  0  0  0  0  0
  1  5  1  0
  2  6  2  0
  2  3  1  0
  3  1  2  0
  4  5  2  0
  5  7  1  0
  6  4  1  0
  8  6  1  0
  9  4  1  0
 10 15  1  0
 11 12  1  0
 11 10  1  0
 13 12  1  0
 13 20  1  0
 13 14  1  0
 15  9  1  0
 15 14  1  0
 16  9  2  0
 17 18  2  0
 18 37  1  0
 19 18  1  0
 19 22  1  0
 20 17  1  0
 20 21  1  0
 21 19  2  0
 22 23  1  0
 23 24  2  0
 25 28  1  0
 25 24  1  0
 26 25  2  0
 27 26  1  0
 27 22  2  0
 28 29  1  0
 29 30  1  0
 30 31  2  0
 32 31  1  0
 32 36  1  0
 33 32  2  0
 34 29  2  0
 34 33  1  0
 35 34  1  0
 37 38  1  0
 38 41  1  0
 38 40  1  0
 39 37  2  0
 42 43  1  0
 42 17  1  0
 44 42  1  0
 45  3  1  0
 45 46  2  0
 47 48  1  0
 47 46  1  0
 49 60  2  0
 50 48  1  0
 50 55  1  0
 51 59  1  0
 51 61  1  0
 52 58  1  0
 52 54  1  0
 53 59  1  0
 54 55  2  0
 54 53  1  0
 56 50  2  0
 57 56  1  0
 57 52  2  0
 58 51  1  0
 59 49  1  0
 61 63  2  0
 62 61  1  0
 64 62  1  0
 65 74  2  0
 65 70  1  0
 66 62  1  0
 66 70  1  0
 67 66  1  0
 68 69  1  0
 68 67  1  0
 69 65  1  0
 70 71  2  0
 71 72  1  0
 73 72  2  0
 74 73  1  0
 75 49  1  0
 75 76  1  0
 75 85  1  0
 76 79  1  0
 77 81  1  0
 77 76  1  0
 78 77  2  0
 81 80  1  0
 83 84  1  0
 83 81  1  0
 83 82  1  0
 85 88  1  1
 85 86  1  0
 87 85  1  0
M  ISO  4   4 100   9 100  47 101  48 101
M  END
>  <TORSDO>  (21) 
F 18

>  <SCORE>  (21) 
-14.409

>  <name>  (21) 
20

>  <ligand_id>  (21) 
20

>  <original_smiles>  (21) 
[H]C(=C([H])C([H])([H])Oc1c([H])c([H])c2c(c1[H])C([H])([H])N(C(=O)C([H])(N([H])C(=O)C([H])(N([H])C([H])([H])[H])C([H])([H])[H])C(C([H])([H])[H])(C([H])([H])[H])C([H])([H])[H])C([H])(C(=O)N([H])C1([H])c3c([H])c([H])c([H])c([H])c3C([H])([H])C([H])([H])C1([H])[H])C2([H])[H])c1c([H])c(C([H])([H])[H])c(C(=O)N2C([H])([H])C([H])([H])C([H])([H])C([H])(n3nc(-c4c([H])c([H])c(Oc5c([H])c([H])c(F)c([H])c5F)c([H])c4[H])c(C(=O)N([H])[H])c3N([H])[H])C2([H])[H])c(C([H])([H])[H])c1[H]

>  <smiles>  (21) 
[H]C(=C([H])C([H])([H])Oc1c([H])c([H])c2c(c1[H])C([H])([H])N(C(=O)C([H])(N([H])C(=O)C([H])(N([H])C([H])([H])[H])C([H])([H])[H])C(C([H])([H])[H])(C([H])([H])[H])C([H])([H])[H])C([H])(C(=O)N([H])C1([H])c3c([H])c([H])c([H])c([H])c3C([H])([H])C([H])([H])C1([H])[H])C2([H])[H])c1c([H])c(C([H])([H])[H])c(C(=O)N2C([H])([H])C([H])([H])C([H])([H])C([H])(n3nc(-c4c([H])c([H])c(Oc5c([H])c([H])c(F)c([H])c5F)c([H])c4[H])c(C(=O)N([H])[H])c3N([H])[H])C2([H])[H])c(C([H])([H])[H])c1[H]

$$$$
21:0:0
     RDKit          3D

 90 98  0  0  1  0  0  0  0  0999 V2000
  -29.1580  -19.7070   19.3430 C   0  0  0  0  0  3  0  0  0  0  0  0
  -28.8990  -21.1260   19.2880 C   0  0  0  0  0  3  0  0  0  0  0  0
  -29.8750  -19.0470   20.3880 C   0  0  0  0  0  0  0  0  0  0  0  0
  -30.0110  -21.4210   21.3730 C   0  0  0  0  0  0  0  0  0  0  0  0
  -29.3380  -22.0710   20.2680 C   0  0  0  0  0  0  0  0  0  0  0  0
  -30.2760  -19.9740   21.4180 C   0  0  0  0  0  0  0  0  0  0  0  0
  -31.0720  -19.3730   22.5790 C   0  0  0  0  0  1  0  0  0  0  0  0
  -30.4310  -17.5680   20.2250 C   0  0  0  0  0  3  0  0  0  0  0  0
  -29.9870  -16.2560   20.4790 C   0  0  0  0  0  3  0  0  0  0  0  0
  -30.7690  -14.9650   20.1670 C   0  0  0  0  0  0  0  0  0  0  0  0
  -30.5380  -12.6770   19.1330 C   0  0  0  0  0  2  0  0  0  0  0  0
  -29.5700  -12.7590   17.9300 C   0  0  0  0  0  2  0  0  0  0  0  0
  -28.1150  -12.5580   18.3940 C   0  0  0  0  0  2  0  0  0  0  0  0
  -27.7710  -13.4220   19.6350 C   0  0  0  0  0  3  0  0  0  0  0  0
  -28.8600  -13.3400   20.7240 C   0  0  0  0  0  2  0  0  0  0  0  0
  -30.1350  -13.7280   20.1100 N   0  0  0  0  0  0  0  0  0  0  0  0
  -31.9510  -15.0000   19.8050 O   0  0  0  0  0  0  0  0  0  0  0  0
  -25.4120  -13.9940   20.4530 C   0  0  0  0  0  0  0  0  0  0  0  0
  -24.3570  -13.2150   20.8390 C   0  0  0  0  0  0  0  0  0  0  0  0
  -24.8150  -11.8630   20.7700 C   0  0  0  0  0  0  0  0  0  0  0  0
  -26.4460  -13.1190   20.1630 N   0  0  0  0  0  0  0  0  0  0  0  0
  -26.0960  -11.8300   20.4190 N   0  0  0  0  0  0  0  0  0  0  0  0
  -24.0880  -10.6010   20.9600 C   0  0  0  0  0  0  0  0  0  0  0  0
  -24.5100   -9.6430   21.9080 C   0  0  0  0  0  3  0  0  0  0  0  0
  -23.7850   -8.4440   22.0850 C   0  0  0  0  0  3  0  0  0  0  0  0
  -22.6240   -8.1980   21.3150 C   0  0  0  0  0  0  0  0  0  0  0  0
  -22.2220   -9.1460   20.3580 C   0  0  0  0  0  3  0  0  0  0  0  0
  -22.9470  -10.3340   20.1780 C   0  0  0  0  0  3  0  0  0  0  0  0
  -21.8710   -7.0530   21.4030 O   0  0  0  0  0  0  0  0  0  0  0  0
  -21.7490   -6.3580   22.5780 C   0  0  0  0  0  0  0  0  0  0  0  0
  -21.2240   -6.9540   23.7460 C   0  0  0  0  0  3  0  0  0  0  0  0
  -21.0520   -6.1840   24.9140 C   0  0  0  0  0  3  0  0  0  0  0  0
  -21.3950   -4.8180   24.9130 C   0  0  0  0  0  0  0  0  0  0  0  0
  -21.9100   -4.2210   23.7500 C   0  0  0  0  0  3  0  0  0  0  0  0
  -22.0850   -4.9890   22.5850 C   0  0  0  0  0  0  0  0  0  0  0  0
  -22.5630   -4.4040   21.4600 F   0  0  0  0  0  0  0  0  0  0  0  0
  -21.2220   -4.0760   26.0320 F   0  0  0  0  0  0  0  0  0  0  0  0
  -22.9700  -13.6930   21.1610 C   0  0  0  0  0  0  0  0  0  0  0  0
  -22.2660  -12.9890   22.0390 N   0  0  0  0  0  0  0  0  0  0  0  0
  -22.5210  -14.7270   20.6670 O   0  0  0  0  0  0  0  0  0  0  0  0
  -22.6440  -12.1550   22.4620 H   0  0  0  0  0  0  0  0  0  0  0  0
  -21.3360  -13.2920   22.2930 H   0  0  0  0  0  0  0  0  0  0  0  0
  -25.5710  -15.3670   20.2950 N   0  0  0  0  0  0  0  0  0  0  0  0
  -24.8010  -16.0120   20.4380 H   0  0  0  0  0  0  0  0  0  0  0  0
  -26.4060  -15.8180   19.9390 H   0  0  0  0  0  0  0  0  0  0  0  0
  -30.5170  -22.2860   22.4870 C   0  0  0  0  0  3  0  0  0  0  0  0
  -30.0180  -23.3630   22.8250 O   0  0  0  0  0  0  0  0  0  0  0  0
  -29.3410  -23.6870   19.9620 C   0  0  0  0  0  3  0  0  0  0  0  0
  -28.1800  -24.8110   20.2880 C   0  0  0  0  0  3  0  0  0  0  0  0
  -28.3920  -26.3220   20.0880 O   0  0  0  0  0  0  0  0  0  0  0  0
  -24.5850  -31.8000   23.1290 C   0  0  0  0  0  0  0  0  0  0  0  0
  -27.2910  -27.2330   20.0520 C   0  0  0  0  0  0  0  0  0  0  0  0
  -23.4260  -30.4030   21.4600 C   0  0  0  0  0  3  0  0  0  0  0  0
  -24.9190  -28.8880   20.0270 C   0  0  0  0  0  0  0  0  0  0  0  0
  -25.9710  -30.7420   21.3140 C   0  0  0  0  0  2  0  0  0  0  0  0
  -26.0810  -29.3650   20.6480 C   0  0  0  0  0  0  0  0  0  0  0  0
  -27.2710  -28.5520   20.6430 C   0  0  0  0  0  3  0  0  0  0  0  0
  -26.1040  -26.8490   19.3900 C   0  0  0  0  0  3  0  0  0  0  0  0
  -24.9400  -27.6430   19.3830 C   0  0  0  0  0  3  0  0  0  0  0  0
  -23.6720  -29.7510   20.0740 C   0  0  0  0  0  2  0  0  0  0  0  0
  -24.6800  -31.0010   22.0240 N   0  0  0  0  0  0  0  0  0  0  0  0
  -23.4900  -32.0540   23.6520 O   0  0  0  0  0  0  0  0  0  0  0  0
  -22.7670  -29.3650   22.4010 C   0  0  0  0  0  0  0  0  0  0  0  0
  -21.4430  -29.1710   22.2660 N   0  0  0  0  0  0  0  0  0  0  0  0
  -23.4460  -28.7370   23.2170 O   0  0  0  0  0  0  0  0  0  0  0  0
  -20.9490  -29.7310   21.5850 H   0  0  0  0  0  0  0  0  0  0  0  0
  -18.0800  -27.9100   22.7320 C   0  0  0  0  0  0  0  0  0  0  0  0
  -20.6330  -28.2090   23.0180 C   0  0  0  0  0  3  0  0  0  0  0  0
  -20.7610  -26.7870   22.4230 C   0  0  0  0  0  2  0  0  0  0  0  0
  -19.6690  -26.4620   21.3980 C   0  0  0  0  0  2  0  0  0  0  0  0
  -18.2830  -26.5740   22.0370 C   0  0  0  0  0  2  0  0  0  0  0  0
  -19.1840  -28.6840   23.1790 C   0  0  0  0  0  0  0  0  0  0  0  0
  -18.9400  -29.9330   23.7900 C   0  0  0  0  0  3  0  0  0  0  0  0
  -17.6260  -30.4090   23.9570 C   0  0  0  0  0  3  0  0  0  0  0  0
  -16.5370  -29.6330   23.5250 C   0  0  0  0  0  3  0  0  0  0  0  0
  -16.7650  -28.3840   22.9190 C   0  0  0  0  0  3  0  0  0  0  0  0
  -25.8470  -32.4510   23.7740 C   0  0  0  0  0  3  0  0  0  0  0  0
  -26.3670  -31.6720   25.0440 C   0  0  1  0  0  0  0  0  0  0  0  0
  -25.2700  -31.4000   26.1000 C   0  0  0  0  0  1  0  0  0  0  0  0
  -26.9770  -30.3090   24.6410 C   0  0  0  0  0  1  0  0  0  0  0  0
  -27.4980  -32.4770   25.7260 C   0  0  0  0  0  1  0  0  0  0  0  0
  -25.5030  -33.8380   24.1260 N   0  0  0  0  0  0  0  0  0  0  0  0
  -25.7990  -34.9090   23.3790 C   0  0  0  0  0  0  0  0  0  0  0  0
  -26.4590  -34.8390   22.3390 O   0  0  0  0  0  0  0  0  0  0  0  0
  -24.9130  -33.9670   24.9350 H   0  0  0  0  0  0  0  0  0  0  0  0
  -24.0160  -36.6600   23.0830 C   0  0  0  0  0  1  0  0  0  0  0  0
  -25.2840  -36.2810   23.8640 C   0  0  0  0  0  3  0  0  0  0  0  0
  -27.4100  -37.2160   24.6620 C   0  0  0  0  0  1  0  0  0  0  0  0
  -26.2840  -37.3640   23.7440 N   0  0  0  0  0  0  0  0  0  0  0  0
  -25.8530  -38.2690   23.9140 H   0  0  0  0  0  0  0  0  0  0  0  0
  1  3  1  0
  2  1  2  0
  2  5  1  0
  3  6  2  0
  4  6  1  0
  4 46  1  0
  5  4  2  0
  6  7  1  0
  8  3  1  0
  8  9  2  0
 10  9  1  0
 11 16  1  0
 12 13  1  0
 12 11  1  0
 14 13  1  0
 14 21  1  0
 14 15  1  0
 16 10  1  0
 16 15  1  0
 17 10  2  0
 18 19  2  0
 19 38  1  0
 20 19  1  0
 20 23  1  0
 21 22  1  0
 21 18  1  0
 22 20  2  0
 23 24  1  0
 24 25  2  0
 26 29  1  0
 26 25  1  0
 27 26  2  0
 28 27  1  0
 28 23  2  0
 29 30  1  0
 30 35  2  0
 30 31  1  0
 31 32  2  0
 33 32  1  0
 33 37  1  0
 34 33  2  0
 35 34  1  0
 36 35  1  0
 38 39  1  0
 39 42  1  0
 39 41  1  0
 40 38  2  0
 43 44  1  0
 43 18  1  0
 45 43  1  0
 46 47  2  0
 48  5  1  0
 48 49  2  0
 50 49  1  0
 51 62  2  0
 52 50  1  0
 52 57  1  0
 53 61  1  0
 53 63  1  0
 54 60  1  0
 54 56  1  0
 55 61  1  0
 56 55  1  0
 57 56  2  0
 58 52  2  0
 59 58  1  0
 59 54  2  0
 60 53  1  0
 61 51  1  0
 63 65  2  0
 64 63  1  0
 66 64  1  0
 67 76  2  0
 67 72  1  0
 68 64  1  0
 68 72  1  0
 69 68  1  0
 70 71  1  0
 70 69  1  0
 71 67  1  0
 72 73  2  0
 73 74  1  0
 75 74  2  0
 76 75  1  0
 77 51  1  0
 77 82  1  0
 77 78  1  0
 78 81  1  1
 78 79  1  0
 80 78  1  0
 82 85  1  0
 83 87  1  0
 83 82  1  0
 84 83  2  0
 87 86  1  0
 89 87  1  0
 89 90  1  0
 89 88  1  0
M  ISO  4   9 100  10 100  49 101  50 101
M  END
>  <TORSDO>  (22) 
F 20

>  <SCORE>  (22) 
-13.913

>  <name>  (22) 
21

>  <ligand_id>  (22) 
21

>  <original_smiles>  (22) 
[H]C(=O)c1c(C([H])([H])[H])c(C([H])=C([H])C(=O)N2C([H])([H])C([H])([H])C([H])([H])C([H])(n3nc(-c4c([H])c([H])c(Oc5c([H])c([H])c(F)c([H])c5F)c([H])c4[H])c(C(=O)N([H])[H])c3N([H])[H])C2([H])[H])c([H])c([H])c1C([H])([H])C([H])([H])Oc1c([H])c([H])c2c(c1[H])C([H])([H])N(C(=O)C([H])(N([H])C(=O)C([H])(N([H])C([H])([H])[H])C([H])([H])[H])C(C([H])([H])[H])(C([H])([H])[H])C([H])([H])[H])C([H])(C(=O)N([H])C1([H])c3c([H])c([H])c([H])c([H])c3C([H])([H])C([H])([H])C1([H])[H])C2([H])[H]

>  <smiles>  (22) 
[H]C(=O)c1c(C([H])([H])[H])c(C([H])=C([H])C(=O)N2C([H])([H])C([H])([H])C([H])([H])C([H])(n3nc(-c4c([H])c([H])c(Oc5c([H])c([H])c(F)c([H])c5F)c([H])c4[H])c(C(=O)N([H])[H])c3N([H])[H])C2([H])[H])c([H])c([H])c1C([H])([H])C([H])([H])Oc1c([H])c([H])c2c(c1[H])C([H])([H])N(C(=O)C([H])(N([H])C(=O)C([H])(N([H])C([H])([H])[H])C([H])([H])[H])C(C([H])([H])[H])(C([H])([H])[H])C([H])([H])[H])C([H])(C(=O)N([H])C1([H])c3c([H])c([H])c([H])c([H])c3C([H])([H])C([H])([H])C1([H])[H])C2([H])[H]

$$$$
22:0:0
     RDKit          3D

 92100  0  0  1  0  0  0  0  0999 V2000
  -29.6220  -20.7950   19.9860 C   0  0  0  0  0  3  0  0  0  0  0  0
  -29.4590  -20.8890   22.7200 C   0  0  0  0  0  3  0  0  0  0  0  0
  -29.9040  -19.5190   20.7070 C   0  0  0  0  0  0  0  0  0  0  0  0
  -29.2720  -22.1120   20.5860 C   0  0  0  0  0  0  0  0  0  0  0  0
  -29.8390  -19.6600   22.1290 C   0  0  0  0  0  0  0  0  0  0  0  0
  -29.1710  -22.0650   21.9970 C   0  0  0  0  0  0  0  0  0  0  0  0
  -28.8250  -23.1660   22.7200 O   0  0  0  0  0  0  0  0  0  0  0  0
  -28.7630  -23.0020   23.6550 H   0  0  0  0  0  0  0  0  0  0  0  0
  -30.3930  -18.0960   20.0050 C   0  0  0  0  0  3  0  0  0  0  0  0
  -30.1160  -16.5170   20.5310 C   0  0  0  0  0  3  0  0  0  0  0  0
  -30.8950  -15.1450   20.0590 C   0  0  0  0  0  0  0  0  0  0  0  0
  -30.7510  -12.7820   19.1430 C   0  0  0  0  0  2  0  0  0  0  0  0
  -29.7840  -12.7450   17.9370 C   0  0  0  0  0  2  0  0  0  0  0  0
  -28.3300  -12.5570   18.4070 C   0  0  0  0  0  2  0  0  0  0  0  0
  -27.9610  -13.5030   19.5780 C   0  0  0  0  0  3  0  0  0  0  0  0
  -29.0420  -13.5040   20.6800 C   0  0  0  0  0  2  0  0  0  0  0  0
  -30.3160  -13.8790   20.0540 N   0  0  0  0  0  0  0  0  0  0  0  0
  -32.0500  -15.2380   19.6300 O   0  0  0  0  0  0  0  0  0  0  0  0
  -25.6200  -14.1080   20.4250 C   0  0  0  0  0  0  0  0  0  0  0  0
  -24.5500  -13.3430   20.8010 C   0  0  0  0  0  0  0  0  0  0  0  0
  -24.9800  -11.9840   20.6990 C   0  0  0  0  0  0  0  0  0  0  0  0
  -26.6320  -13.2180   20.1120 N   0  0  0  0  0  0  0  0  0  0  0  0
  -26.2570  -11.9320   20.3400 N   0  0  0  0  0  0  0  0  0  0  0  0
  -24.2320  -10.7310   20.8660 C   0  0  0  0  0  0  0  0  0  0  0  0
  -24.6770   -9.7140   21.7380 C   0  0  0  0  0  3  0  0  0  0  0  0
  -23.9280   -8.5270   21.8960 C   0  0  0  0  0  3  0  0  0  0  0  0
  -22.7190   -8.3500   21.1810 C   0  0  0  0  0  0  0  0  0  0  0  0
  -22.2920   -9.3570   20.2980 C   0  0  0  0  0  3  0  0  0  0  0  0
  -23.0410  -10.5340   20.1380 C   0  0  0  0  0  3  0  0  0  0  0  0
  -21.9410   -7.2190   21.2510 O   0  0  0  0  0  0  0  0  0  0  0  0
  -21.9150   -6.4320   22.3740 C   0  0  0  0  0  0  0  0  0  0  0  0
  -21.5640   -6.9530   23.6390 C   0  0  0  0  0  3  0  0  0  0  0  0
  -21.4800   -6.0940   24.7540 C   0  0  0  0  0  3  0  0  0  0  0  0
  -21.7390   -4.7180   24.6060 C   0  0  0  0  0  0  0  0  0  0  0  0
  -22.0830   -4.1990   23.3460 C   0  0  0  0  0  3  0  0  0  0  0  0
  -22.1680   -5.0530   22.2330 C   0  0  0  0  0  0  0  0  0  0  0  0
  -22.4790   -4.5440   21.0160 F   0  0  0  0  0  0  0  0  0  0  0  0
  -21.6520   -3.8930   25.6740 F   0  0  0  0  0  0  0  0  0  0  0  0
  -23.1760  -13.8380   21.1460 C   0  0  0  0  0  0  0  0  0  0  0  0
  -22.4720  -13.1320   22.0220 N   0  0  0  0  0  0  0  0  0  0  0  0
  -22.7380  -14.8880   20.6750 O   0  0  0  0  0  0  0  0  0  0  0  0
  -22.8410  -12.2790   22.4200 H   0  0  0  0  0  0  0  0  0  0  0  0
  -21.5530  -13.4440   22.3010 H   0  0  0  0  0  0  0  0  0  0  0  0
  -25.8070  -15.4810   20.2980 N   0  0  0  0  0  0  0  0  0  0  0  0
  -25.0600  -16.1440   20.4720 H   0  0  0  0  0  0  0  0  0  0  0  0
  -26.6530  -15.9190   19.9570 H   0  0  0  0  0  0  0  0  0  0  0  0
  -29.1200  -23.5750   19.8140 C   0  0  0  0  0  3  0  0  0  0  0  0
  -28.2480  -24.9380   20.3180 C   0  0  0  0  0  3  0  0  0  0  0  0
  -28.3960  -26.4150   19.8620 O   0  0  0  0  0  0  0  0  0  0  0  0
  -24.5480  -31.8730   22.9620 C   0  0  0  0  0  0  0  0  0  0  0  0
  -27.2780  -27.3230   19.8590 C   0  0  0  0  0  0  0  0  0  0  0  0
  -23.3750  -30.4380   21.3330 C   0  0  0  0  0  3  0  0  0  0  0  0
  -24.8660  -28.9390   19.8710 C   0  0  0  0  0  0  0  0  0  0  0  0
  -25.9090  -30.8290   21.1170 C   0  0  0  0  0  2  0  0  0  0  0  0
  -26.0350  -29.4480   20.4530 C   0  0  0  0  0  0  0  0  0  0  0  0
  -27.2440  -28.6580   20.4220 C   0  0  0  0  0  3  0  0  0  0  0  0
  -26.0810  -26.9060   19.2370 C   0  0  0  0  0  3  0  0  0  0  0  0
  -24.8990  -27.6800   19.2480 C   0  0  0  0  0  3  0  0  0  0  0  0
  -23.5960  -29.7740   19.9470 C   0  0  0  0  0  2  0  0  0  0  0  0
  -24.6290  -31.0690   21.8590 N   0  0  0  0  0  0  0  0  0  0  0  0
  -23.4620  -32.1050   23.5180 O   0  0  0  0  0  0  0  0  0  0  0  0
  -22.7630  -29.3950   22.3030 C   0  0  0  0  0  0  0  0  0  0  0  0
  -21.4400  -29.1740   22.2110 N   0  0  0  0  0  0  0  0  0  0  0  0
  -23.4800  -28.7860   23.1000 O   0  0  0  0  0  0  0  0  0  0  0  0
  -20.9100  -29.7290   21.5520 H   0  0  0  0  0  0  0  0  0  0  0  0
  -18.1280  -27.8150   22.7650 C   0  0  0  0  0  0  0  0  0  0  0  0
  -20.6780  -28.1950   22.9920 C   0  0  0  0  0  3  0  0  0  0  0  0
  -20.8340  -26.7680   22.4150 C   0  0  0  0  0  2  0  0  0  0  0  0
  -19.7340  -26.3990   21.4160 C   0  0  0  0  0  2  0  0  0  0  0  0
  -18.3560  -26.4770   22.0820 C   0  0  0  0  0  2  0  0  0  0  0  0
  -19.2180  -28.6270   23.1780 C   0  0  0  0  0  0  0  0  0  0  0  0
  -18.9520  -29.8750   23.7820 C   0  0  0  0  0  3  0  0  0  0  0  0
  -17.6300  -30.3140   23.9760 C   0  0  0  0  0  3  0  0  0  0  0  0
  -16.5530  -29.4980   23.5820 C   0  0  0  0  0  3  0  0  0  0  0  0
  -16.8040  -28.2520   22.9820 C   0  0  0  0  0  3  0  0  0  0  0  0
  -25.8100  -32.5610   23.5650 C   0  0  0  0  0  3  0  0  0  0  0  0
  -25.4630  -33.9590   23.8670 N   0  0  0  0  0  0  0  0  0  0  0  0
  -25.7790  -35.0090   23.0990 C   0  0  0  0  0  0  0  0  0  0  0  0
  -26.4590  -34.9050   22.0760 O   0  0  0  0  0  0  0  0  0  0  0  0
  -24.8570  -34.1110   24.6610 H   0  0  0  0  0  0  0  0  0  0  0  0
  -24.0130  -36.7620   22.7030 C   0  0  0  0  0  1  0  0  0  0  0  0
  -25.2540  -36.3940   23.5330 C   0  0  0  0  0  3  0  0  0  0  0  0
  -27.3580  -37.3400   24.3710 C   0  0  0  0  0  1  0  0  0  0  0  0
  -26.2630  -37.4700   23.4140 N   0  0  0  0  0  0  0  0  0  0  0  0
  -25.8340  -38.3830   23.5480 H   0  0  0  0  0  0  0  0  0  0  0  0
  -26.3500  -31.8390   24.8610 C   0  0  1  0  0  0  0  0  0  0  0  0
  -25.2720  -31.6130   25.9460 C   0  0  0  0  0  1  0  0  0  0  0  0
  -26.9590  -30.4620   24.5100 C   0  0  0  0  0  1  0  0  0  0  0  0
  -27.4850  -32.6770   25.4940 C   0  0  0  0  0  1  0  0  0  0  0  0
  -30.1960  -18.5480   23.1180 C   0  0  0  0  0  2  0  0  0  0  0  0
  -32.0340  -16.9170   23.9120 C   0  0  0  0  0  1  0  0  0  0  0  0
  -31.7050  -18.2190   23.1600 C   0  0  0  0  0  2  0  0  0  0  0  0
  1  4  2  0
  1  3  1  0
  3  5  2  0
  4  6  1  0
  5  2  1  0
  5 90  1  0
  6  2  2  0
  6  7  1  0
  7  8  1  0
  9 10  2  0
  9  3  1  0
 11 10  1  0
 12 17  1  0
 13 14  1  0
 13 12  1  0
 15 14  1  0
 15 22  1  0
 15 16  1  0
 17 11  1  0
 17 16  1  0
 18 11  2  0
 19 20  2  0
 20 39  1  0
 21 20  1  0
 21 24  1  0
 22 23  1  0
 22 19  1  0
 23 21  2  0
 24 25  1  0
 25 26  2  0
 27 30  1  0
 27 26  1  0
 28 27  2  0
 29 28  1  0
 29 24  2  0
 30 31  1  0
 31 32  1  0
 32 33  2  0
 34 33  1  0
 34 38  1  0
 35 34  2  0
 36 31  2  0
 36 35  1  0
 37 36  1  0
 39 40  1  0
 40 43  1  0
 40 42  1  0
 41 39  2  0
 44 19  1  0
 44 45  1  0
 46 44  1  0
 47 48  2  0
 47  4  1  0
 49 48  1  0
 50 61  2  0
 51 49  1  0
 51 56  1  0
 52 60  1  0
 52 62  1  0
 53 59  1  0
 53 55  1  0
 54 60  1  0
 55 54  1  0
 56 55  2  0
 57 58  1  0
 57 51  2  0
 58 53  2  0
 59 52  1  0
 60 50  1  0
 62 64  2  0
 63 62  1  0
 65 63  1  0
 66 75  2  0
 66 71  1  0
 67 63  1  0
 67 71  1  0
 68 67  1  0
 69 70  1  0
 69 68  1  0
 70 66  1  0
 71 72  2  0
 72 73  1  0
 74 73  2  0
 75 74  1  0
 76 50  1  0
 76 77  1  0
 76 86  1  0
 77 80  1  0
 78 82  1  0
 78 77  1  0
 79 78  2  0
 82 81  1  0
 84 82  1  0
 84 85  1  0
 84 83  1  0
 86 89  1  1
 86 87  1  0
 88 86  1  0
 90 92  1  0
 92 91  1  0
M  ISO  4  10 100  11 100  48 101  49 101
M  END
>  <TORSDO>  (23) 
F 23

>  <SCORE>  (23) 
-6.365

>  <name>  (23) 
22

>  <ligand_id>  (23) 
22

>  <original_smiles>  (23) 
[H]Oc1c([H])c(C([H])([H])C([H])([H])C([H])([H])[H])c(C([H])([H])C([H])([H])C(=O)N2C([H])([H])C([H])([H])C([H])([H])C([H])(n3nc(-c4c([H])c([H])c(Oc5c([H])c([H])c(F)c([H])c5F)c([H])c4[H])c(C(=O)N([H])[H])c3N([H])[H])C2([H])[H])c([H])c1C([H])([H])C([H])([H])Oc1c([H])c([H])c2c(c1[H])C([H])([H])N(C(=O)C([H])(N([H])C(=O)C([H])(N([H])C([H])([H])[H])C([H])([H])[H])C(C([H])([H])[H])(C([H])([H])[H])C([H])([H])[H])C([H])(C(=O)N([H])C1([H])c3c([H])c([H])c([H])c([H])c3C([H])([H])C([H])([H])C1([H])[H])C2([H])[H]

>  <smiles>  (23) 
[H]Oc1c([H])c(C([H])([H])C([H])([H])C([H])([H])[H])c(C([H])([H])C([H])([H])C(=O)N2C([H])([H])C([H])([H])C([H])([H])C([H])(n3nc(-c4c([H])c([H])c(Oc5c([H])c([H])c(F)c([H])c5F)c([H])c4[H])c(C(=O)N([H])[H])c3N([H])[H])C2([H])[H])c([H])c1C([H])([H])C([H])([H])Oc1c([H])c([H])c2c(c1[H])C([H])([H])N(C(=O)C([H])(N([H])C(=O)C([H])(N([H])C([H])([H])[H])C([H])([H])[H])C(C([H])([H])[H])(C([H])([H])[H])C([H])([H])[H])C([H])(C(=O)N([H])C1([H])c3c([H])c([H])c([H])c([H])c3C([H])([H])C([H])([H])C1([H])[H])C2([H])[H]

$$$$
23:0:0
     RDKit          3D

 89 97  0  0  1  0  0  0  0  0999 V2000
  -28.8240  -18.0730   19.4870 C   0  0  0  0  0  3  0  0  0  0  0  0
  -29.8910  -17.3400   20.2110 C   0  0  0  0  0  0  0  0  0  0  0  0
  -28.4910  -19.5620   19.4270 C   0  0  0  0  0  0  0  0  0  0  0  0
  -30.5620  -18.4930   20.8710 C   0  0  0  0  0  0  0  0  0  0  0  0
  -29.1580  -20.7100   20.0980 C   0  0  0  0  0  0  0  0  0  0  0  0
  -30.2170  -19.9770   20.8310 C   0  0  0  0  0  0  0  0  0  0  0  0
  -27.3430  -19.9400   18.5130 C   0  0  0  0  0  1  0  0  0  0  0  0
  -31.7890  -18.1450   21.7110 C   0  0  0  0  0  1  0  0  0  0  0  0
  -30.4640  -15.6850   20.0790 C   0  0  0  0  0  0  0  0  0  0  0  0
  -30.4500  -13.1680   19.2820 C   0  0  0  0  0  2  0  0  0  0  0  0
  -29.5340  -12.8260   18.0760 C   0  0  0  0  0  2  0  0  0  0  0  0
  -28.1160  -12.4920   18.5590 C   0  0  0  0  0  2  0  0  0  0  0  0
  -27.6350  -13.5020   19.6270 C   0  0  0  0  0  3  0  0  0  0  0  0
  -28.6850  -13.8030   20.7190 C   0  0  0  0  0  2  0  0  0  0  0  0
  -29.8790  -14.3580   20.0520 N   0  0  0  0  0  0  0  0  0  0  0  0
  -31.6790  -15.5560   19.8540 O   0  0  0  0  0  0  0  0  0  0  0  0
  -25.2950  -14.0280   20.4650 C   0  0  0  0  0  0  0  0  0  0  0  0
  -24.2460  -13.2420   20.8450 C   0  0  0  0  0  0  0  0  0  0  0  0
  -24.7160  -11.8930   20.7830 C   0  0  0  0  0  0  0  0  0  0  0  0
  -26.3330  -13.1620   20.1800 N   0  0  0  0  0  0  0  0  0  0  0  0
  -26.0010  -11.8690   20.4410 N   0  0  0  0  0  0  0  0  0  0  0  0
  -23.9950  -10.6260   20.9710 C   0  0  0  0  0  0  0  0  0  0  0  0
  -24.4180   -9.6640   21.9160 C   0  0  0  0  0  3  0  0  0  0  0  0
  -23.6890   -8.4670   22.0930 C   0  0  0  0  0  3  0  0  0  0  0  0
  -22.5260   -8.2220   21.3250 C   0  0  0  0  0  0  0  0  0  0  0  0
  -22.1230   -9.1720   20.3700 C   0  0  0  0  0  3  0  0  0  0  0  0
  -22.8510  -10.3600   20.1910 C   0  0  0  0  0  3  0  0  0  0  0  0
  -21.7720   -7.0760   21.4100 O   0  0  0  0  0  0  0  0  0  0  0  0
  -21.6660   -6.3700   22.5810 C   0  0  0  0  0  0  0  0  0  0  0  0
  -21.1380   -6.9490   23.7550 C   0  0  0  0  0  3  0  0  0  0  0  0
  -20.9830   -6.1670   24.9170 C   0  0  0  0  0  3  0  0  0  0  0  0
  -21.3470   -4.8070   24.9050 C   0  0  0  0  0  0  0  0  0  0  0  0
  -21.8680   -4.2270   23.7350 C   0  0  0  0  0  3  0  0  0  0  0  0
  -22.0240   -5.0070   22.5760 C   0  0  0  0  0  0  0  0  0  0  0  0
  -22.5070   -4.4390   21.4440 F   0  0  0  0  0  0  0  0  0  0  0  0
  -21.1890   -4.0540   26.0180 F   0  0  0  0  0  0  0  0  0  0  0  0
  -22.8550  -13.7130   21.1470 C   0  0  0  0  0  0  0  0  0  0  0  0
  -22.1510  -13.0130   22.0300 N   0  0  0  0  0  0  0  0  0  0  0  0
  -22.4030  -14.7370   20.6380 O   0  0  0  0  0  0  0  0  0  0  0  0
  -22.5350  -12.1870   22.4640 H   0  0  0  0  0  0  0  0  0  0  0  0
  -21.2190  -13.3100   22.2790 H   0  0  0  0  0  0  0  0  0  0  0  0
  -25.4510  -15.4020   20.3070 N   0  0  0  0  0  0  0  0  0  0  0  0
  -24.6850  -16.0480   20.4600 H   0  0  0  0  0  0  0  0  0  0  0  0
  -26.3020  -15.8610   20.0050 H   0  0  0  0  0  0  0  0  0  0  0  0
  -30.5910  -21.1130   22.8410 C   0  0  0  0  0  1  0  0  0  0  0  0
  -31.0550  -20.8050   21.5330 O   0  0  0  0  0  0  0  0  0  0  0  0
  -29.0610  -22.5330   19.8710 C   0  0  0  0  0  3  0  0  0  0  0  0
  -27.9880  -24.0760   20.0740 C   0  0  0  0  0  3  0  0  0  0  0  0
  -28.1640  -25.7900   19.9730 O   0  0  0  0  0  0  0  0  0  0  0  0
  -24.6290  -31.8770   23.0860 C   0  0  0  0  0  0  0  0  0  0  0  0
  -27.1580  -26.9460   19.9720 C   0  0  0  0  0  0  0  0  0  0  0  0
  -23.4250  -30.5030   21.4420 C   0  0  0  0  0  3  0  0  0  0  0  0
  -24.8630  -28.9060   19.9770 C   0  0  0  0  0  0  0  0  0  0  0  0
  -25.9960  -30.6930   21.2750 C   0  0  0  0  0  2  0  0  0  0  0  0
  -26.0630  -29.2790   20.5960 C   0  0  0  0  0  0  0  0  0  0  0  0
  -27.1980  -28.3260   20.5620 C   0  0  0  0  0  3  0  0  0  0  0  0
  -25.9240  -26.7610   19.3040 C   0  0  0  0  0  3  0  0  0  0  0  0
  -24.8280  -27.6700   19.3070 C   0  0  0  0  0  3  0  0  0  0  0  0
  -23.6460  -29.8360   20.0530 C   0  0  0  0  0  2  0  0  0  0  0  0
  -24.7070  -31.0530   21.9880 N   0  0  0  0  0  0  0  0  0  0  0  0
  -23.5420  -32.1570   23.6210 O   0  0  0  0  0  0  0  0  0  0  0  0
  -22.7360  -29.4960   22.4010 C   0  0  0  0  0  0  0  0  0  0  0  0
  -21.4060  -29.3180   22.2780 N   0  0  0  0  0  0  0  0  0  0  0  0
  -23.4060  -28.8740   23.2290 O   0  0  0  0  0  0  0  0  0  0  0  0
  -20.9140  -29.8680   21.5860 H   0  0  0  0  0  0  0  0  0  0  0  0
  -18.0420  -28.0410   22.7780 C   0  0  0  0  0  0  0  0  0  0  0  0
  -20.5970  -28.3600   23.0430 C   0  0  0  0  0  3  0  0  0  0  0  0
  -20.7290  -26.9340   22.4590 C   0  0  0  0  0  2  0  0  0  0  0  0
  -19.6350  -26.5950   21.4410 C   0  0  0  0  0  2  0  0  0  0  0  0
  -18.2500  -26.7030   22.0850 C   0  0  0  0  0  2  0  0  0  0  0  0
  -19.1430  -28.8240   23.2120 C   0  0  0  0  0  0  0  0  0  0  0  0
  -18.8960  -30.0710   23.8260 C   0  0  0  0  0  3  0  0  0  0  0  0
  -17.5800  -30.5400   24.0000 C   0  0  0  0  0  3  0  0  0  0  0  0
  -16.4930  -29.7550   23.5790 C   0  0  0  0  0  3  0  0  0  0  0  0
  -16.7240  -28.5060   22.9770 C   0  0  0  0  0  3  0  0  0  0  0  0
  -25.8980  -32.5210   23.7200 C   0  0  0  0  0  3  0  0  0  0  0  0
  -26.4180  -31.7390   24.9900 C   0  0  1  0  0  0  0  0  0  0  0  0
  -25.3270  -31.4860   26.0580 C   0  0  0  0  0  1  0  0  0  0  0  0
  -27.0020  -30.3660   24.5910 C   0  0  0  0  0  1  0  0  0  0  0  0
  -27.5720  -32.5260   25.6550 C   0  0  0  0  0  1  0  0  0  0  0  0
  -25.5730  -33.9130   24.0860 N   0  0  0  0  0  0  0  0  0  0  0  0
  -25.8900  -34.9950   23.3610 C   0  0  0  0  0  0  0  0  0  0  0  0
  -26.5460  -34.9270   22.3200 O   0  0  0  0  0  0  0  0  0  0  0  0
  -24.9830  -34.0380   24.8960 H   0  0  0  0  0  0  0  0  0  0  0  0
  -24.1520  -36.7970   23.0910 C   0  0  0  0  0  1  0  0  0  0  0  0
  -25.4060  -36.3720   23.8690 C   0  0  0  0  0  3  0  0  0  0  0  0
  -27.5470  -37.2480   24.6970 C   0  0  0  0  0  1  0  0  0  0  0  0
  -26.4340  -37.4320   23.7690 N   0  0  0  0  0  0  0  0  0  0  0  0
  -26.0270  -38.3470   23.9400 H   0  0  0  0  0  0  0  0  0  0  0  0
  1  2  1  0
  2  4  2  0
  3  1  2  0
  3  5  1  0
  4  8  1  0
  5  6  2  0
  6  4  1  0
  6 46  1  0
  7  3  1  0
  9  2  1  0
 10 15  1  0
 11 12  1  0
 11 10  1  0
 13 12  1  0
 13 20  1  0
 13 14  1  0
 15  9  1  0
 15 14  1  0
 16  9  2  0
 17 18  2  0
 18 37  1  0
 19 18  1  0
 19 22  1  0
 20 21  1  0
 20 17  1  0
 21 19  2  0
 22 23  1  0
 23 24  2  0
 25 28  1  0
 25 24  1  0
 26 25  2  0
 27 26  1  0
 27 22  2  0
 28 29  1  0
 29 30  1  0
 30 31  2  0
 32 31  1  0
 32 36  1  0
 33 32  2  0
 34 29  2  0
 34 33  1  0
 35 34  1  0
 37 38  1  0
 38 41  1  0
 38 40  1  0
 39 37  2  0
 42 43  1  0
 42 17  1  0
 44 42  1  0
 46 45  1  0
 47 48  2  0
 47  5  1  0
 49 48  1  0
 50 61  2  0
 51 49  1  0
 51 56  1  0
 52 60  1  0
 52 62  1  0
 53 59  1  0
 53 55  1  0
 54 60  1  0
 55 54  1  0
 56 55  2  0
 57 58  1  0
 57 51  2  0
 58 53  2  0
 59 52  1  0
 60 50  1  0
 62 64  2  0
 63 62  1  0
 65 63  1  0
 66 75  2  0
 66 71  1  0
 67 63  1  0
 67 71  1  0
 68 67  1  0
 69 70  1  0
 69 68  1  0
 70 66  1  0
 71 72  2  0
 72 73  1  0
 74 73  2  0
 75 74  1  0
 76 50  1  0
 76 81  1  0
 76 77  1  0
 77 80  1  1
 77 78  1  0
 79 77  1  0
 81 84  1  0
 82 86  1  0
 82 81  1  0
 83 82  2  0
 86 85  1  0
 88 86  1  0
 88 89  1  0
 88 87  1  0
M  ISO  4   2 100   9 100  48 101  49 101
M  END
>  <TORSDO>  (24) 
F 19

>  <SCORE>  (24) 
-16.417

>  <name>  (24) 
23

>  <ligand_id>  (24) 
23

>  <original_smiles>  (24) 
[H]c1c([H])c([H])c2c(c1[H])C([H])([H])C([H])([H])C([H])([H])C2([H])N([H])C(=O)C1([H])N(C(=O)C([H])(N([H])C(=O)C([H])(N([H])C([H])([H])[H])C([H])([H])[H])C(C([H])([H])[H])(C([H])([H])[H])C([H])([H])[H])C([H])([H])c2c([H])c(OC([H])([H])C([H])([H])c3c(OC([H])([H])[H])c(C([H])([H])[H])c(C(=O)N4C([H])([H])C([H])([H])C([H])([H])C([H])(n5nc(-c6c([H])c([H])c(Oc7c([H])c([H])c(F)c([H])c7F)c([H])c6[H])c(C(=O)N([H])[H])c5N([H])[H])C4([H])[H])c([H])c3C([H])([H])[H])c([H])c([H])c2C1([H])[H]

>  <smiles>  (24) 
[H]c1c([H])c([H])c2c(c1[H])C([H])([H])C([H])([H])C([H])([H])C2([H])N([H])C(=O)C1([H])N(C(=O)C([H])(N([H])C(=O)C([H])(N([H])C([H])([H])[H])C([H])([H])[H])C(C([H])([H])[H])(C([H])([H])[H])C([H])([H])[H])C([H])([H])c2c([H])c(OC([H])([H])C([H])([H])c3c(OC([H])([H])[H])c(C([H])([H])[H])c(C(=O)N4C([H])([H])C([H])([H])C([H])([H])C([H])(n5nc(-c6c([H])c([H])c(Oc7c([H])c([H])c(F)c([H])c7F)c([H])c6[H])c(C(=O)N([H])[H])c5N([H])[H])C4([H])[H])c([H])c3C([H])([H])[H])c([H])c([H])c2C1([H])[H]

$$$$
24:0:0
     RDKit          3D

 98107  0  0  1  0  0  0  0  0999 V2000
  -29.3080  -25.1080   24.1230 C   0  0  0  0  0  2  0  0  0  0  0  0
  -29.4010  -23.9550   23.1090 C   0  0  0  0  0  2  0  0  0  0  0  0
  -28.8870  -26.4150   23.4280 C   0  0  0  0  0  2  0  0  0  0  0  0
  -29.9410  -25.6890   21.3290 C   0  0  0  0  0  2  0  0  0  0  0  0
  -30.3430  -24.3220   21.9370 C   0  0  0  0  0  3  0  0  0  0  0  0
  -29.8510  -26.7660   22.3570 N   0  0  1  0  0  4  0  0  0  0  0  0
  -30.7530  -26.8120   22.8100 H   0  0  0  0  0  0  0  0  0  0  0  0
  -31.6540  -23.1650   20.0960 C   0  0  0  0  0  3  0  0  0  0  0  0
  -31.7800  -22.2410   19.0430 C   0  0  0  0  0  3  0  0  0  0  0  0
  -29.4120  -22.3510   20.5370 C   0  0  0  0  0  3  0  0  0  0  0  0
  -30.4620  -23.2460   20.8460 C   0  0  0  0  0  0  0  0  0  0  0  0
  -30.7240  -21.3640   18.7190 C   0  0  0  0  0  0  0  0  0  0  0  0
  -29.5310  -21.4090   19.4900 C   0  0  0  0  0  0  0  0  0  0  0  0
  -28.3550  -20.4720   19.2480 C   0  0  0  0  0  1  0  0  0  0  0  0
  -30.9250  -20.3760   17.5720 C   0  0  0  0  0  2  0  0  0  0  0  0
  -30.2810  -20.7900   16.2300 C   0  0  0  0  0  2  0  0  0  0  0  0
  -30.7600  -22.1500   15.6900 C   0  0  0  0  0  2  0  0  0  0  0  0
  -31.0700  -22.5030   13.2320 C   0  0  0  0  0  0  0  0  0  0  0  0
  -31.1410  -22.9300   10.8010 C   0  0  0  0  0  2  0  0  0  0  0  0
  -31.1080  -24.4410   10.5020 C   0  0  0  0  0  2  0  0  0  0  0  0
  -29.6570  -24.9530   10.4340 C   0  0  0  0  0  2  0  0  0  0  0  0
  -28.8110  -24.5030   11.6540 C   0  0  0  0  0  3  0  0  0  0  0  0
  -28.9740  -22.9870   11.9080 C   0  0  0  0  0  2  0  0  0  0  0  0
  -30.4130  -22.6940   12.0580 N   0  0  0  0  0  0  0  0  0  0  0  0
  -32.3010  -22.4470   13.3130 O   0  0  0  0  0  0  0  0  0  0  0  0
  -30.2910  -22.3670   14.3160 N   0  0  0  0  0  0  0  0  0  0  0  0
  -29.2940  -22.4210   14.1650 H   0  0  0  0  0  0  0  0  0  0  0  0
  -26.6310  -25.7360   12.2540 C   0  0  0  0  0  0  0  0  0  0  0  0
  -25.4080  -25.7830   11.6400 C   0  0  0  0  0  0  0  0  0  0  0  0
  -25.5080  -24.9300   10.4990 C   0  0  0  0  0  0  0  0  0  0  0  0
  -27.4070  -24.8750   11.4930 N   0  0  0  0  0  0  0  0  0  0  0  0
  -26.7000  -24.3490   10.4590 N   0  0  0  0  0  0  0  0  0  0  0  0
  -24.5550  -24.6740    9.4110 C   0  0  0  0  0  0  0  0  0  0  0  0
  -24.1470  -23.3630    9.0780 C   0  0  0  0  0  3  0  0  0  0  0  0
  -23.2180  -23.1440    8.0400 C   0  0  0  0  0  3  0  0  0  0  0  0
  -22.6820  -24.2400    7.3240 C   0  0  0  0  0  0  0  0  0  0  0  0
  -23.1090  -25.5420    7.6420 C   0  0  0  0  0  3  0  0  0  0  0  0
  -24.0390  -25.7580    8.6720 C   0  0  0  0  0  3  0  0  0  0  0  0
  -21.7940  -24.1220    6.2820 O   0  0  0  0  0  0  0  0  0  0  0  0
  -20.9140  -23.0720    6.2020 C   0  0  0  0  0  0  0  0  0  0  0  0
  -19.9880  -22.7970    7.2310 C   0  0  0  0  0  3  0  0  0  0  0  0
  -19.0560  -21.7510    7.0770 C   0  0  0  0  0  3  0  0  0  0  0  0
  -19.0420  -20.9880    5.8940 C   0  0  0  0  0  0  0  0  0  0  0  0
  -19.9600  -21.2650    4.8670 C   0  0  0  0  0  3  0  0  0  0  0  0
  -20.8910  -22.3060    5.0190 C   0  0  0  0  0  0  0  0  0  0  0  0
  -21.7600  -22.5820    4.0170 F   0  0  0  0  0  0  0  0  0  0  0  0
  -18.1420  -19.9880    5.7430 F   0  0  0  0  0  0  0  0  0  0  0  0
  -24.2420  -26.6440   12.0310 C   0  0  0  0  0  0  0  0  0  0  0  0
  -23.0230  -26.1640   11.8080 N   0  0  0  0  0  0  0  0  0  0  0  0
  -24.4050  -27.7310   12.5840 O   0  0  0  0  0  0  0  0  0  0  0  0
  -22.8880  -25.2630   11.3740 H   0  0  0  0  0  0  0  0  0  0  0  0
  -22.2130  -26.7050   12.0770 H   0  0  0  0  0  0  0  0  0  0  0  0
  -27.1520  -26.3650   13.3800 N   0  0  0  0  0  0  0  0  0  0  0  0
  -26.6180  -27.0350   13.9230 H   0  0  0  0  0  0  0  0  0  0  0  0
  -28.1040  -26.2580   13.7090 H   0  0  0  0  0  0  0  0  0  0  0  0
  -29.6170  -28.1150   21.7720 C   0  0  0  0  0  2  0  0  0  0  0  0
  -30.5800  -29.1730   22.3610 C   0  0  0  0  0  2  0  0  0  0  0  0
  -30.0720  -29.7530   23.5700 O   0  0  0  0  0  0  0  0  0  0  0  0
  -24.4500  -28.3930   27.6740 C   0  0  0  0  0  0  0  0  0  0  0  0
  -28.7080  -29.9210   23.7130 C   0  0  0  0  0  0  0  0  0  0  0  0
  -23.9380  -29.2970   25.4290 C   0  0  0  0  0  3  0  0  0  0  0  0
  -25.9250  -30.2170   24.1250 C   0  0  0  0  0  0  0  0  0  0  0  0
  -26.1470  -29.8610   26.5910 C   0  0  0  0  0  2  0  0  0  0  0  0
  -26.7700  -29.9740   25.2140 C   0  0  0  0  0  0  0  0  0  0  0  0
  -28.1600  -29.8310   25.0120 C   0  0  0  0  0  3  0  0  0  0  0  0
  -27.8390  -30.1740   22.6270 C   0  0  0  0  0  3  0  0  0  0  0  0
  -26.4530  -30.3150   22.8290 C   0  0  0  0  0  3  0  0  0  0  0  0
  -24.4490  -30.3590   24.4220 C   0  0  0  0  0  2  0  0  0  0  0  0
  -24.8540  -29.1350   26.6050 N   0  0  0  0  0  0  0  0  0  0  0  0
  -23.3220  -27.8790   27.7090 O   0  0  0  0  0  0  0  0  0  0  0  0
  -23.6770  -27.9750   24.6710 C   0  0  0  0  0  0  0  0  0  0  0  0
  -22.7620  -28.0200   23.6890 N   0  0  0  0  0  0  0  0  0  0  0  0
  -24.3060  -26.9490   24.9490 O   0  0  0  0  0  0  0  0  0  0  0  0
  -22.2780  -28.8930   23.5320 H   0  0  0  0  0  0  0  0  0  0  0  0
  -20.8430  -27.1530   20.7560 C   0  0  0  0  0  0  0  0  0  0  0  0
  -22.3800  -26.9090   22.8190 C   0  0  0  0  0  3  0  0  0  0  0  0
  -23.5070  -26.5770   21.8150 C   0  0  0  0  0  2  0  0  0  0  0  0
  -23.3530  -27.3020   20.4760 C   0  0  0  0  0  2  0  0  0  0  0  0
  -22.0190  -26.9410   19.8170 C   0  0  0  0  0  2  0  0  0  0  0  0
  -21.0160  -27.1520   22.1660 C   0  0  0  0  0  0  0  0  0  0  0  0
  -19.8980  -27.3860   22.9930 C   0  0  0  0  0  3  0  0  0  0  0  0
  -18.6250  -27.6120   22.4370 C   0  0  0  0  0  3  0  0  0  0  0  0
  -18.4560  -27.5930   21.0420 C   0  0  0  0  0  3  0  0  0  0  0  0
  -19.5620  -27.3610   20.2060 C   0  0  0  0  0  3  0  0  0  0  0  0
  -25.3730  -28.1720   28.9130 C   0  0  0  0  0  3  0  0  0  0  0  0
  -24.5150  -28.1410   30.1060 N   0  0  0  0  0  0  0  0  0  0  0  0
  -24.3790  -29.1540   30.9710 C   0  0  0  0  0  0  0  0  0  0  0  0
  -25.0260  -30.2030   30.8820 O   0  0  0  0  0  0  0  0  0  0  0  0
  -23.9130  -27.3390   30.2060 H   0  0  0  0  0  0  0  0  0  0  0  0
  -22.0530  -29.7020   31.7560 C   0  0  0  0  0  1  0  0  0  0  0  0
  -23.3600  -28.9780   32.1150 C   0  0  0  0  0  3  0  0  0  0  0  0
  -24.9360  -28.6470   33.9660 C   0  0  0  0  0  1  0  0  0  0  0  0
  -23.8550  -29.4630   33.4210 N   0  0  0  0  0  0  0  0  0  0  0  0
  -23.1040  -29.4890   34.1050 H   0  0  0  0  0  0  0  0  0  0  0  0
  -26.2400  -26.8570   28.8140 C   0  0  1  0  0  0  0  0  0  0  0  0
  -25.4040  -25.5740   28.6110 C   0  0  0  0  0  1  0  0  0  0  0  0
  -27.2470  -26.9580   27.6450 C   0  0  0  0  0  1  0  0  0  0  0  0
  -27.0740  -26.6820   30.1040 C   0  0  0  0  0  1  0  0  0  0  0  0
  2  1  1  0
  3  1  1  0
  4  5  1  0
  4  6  1  0
  5 11  1  0
  5  2  1  0
  6  7  1  1
  6  3  1  0
  8 11  1  0
  9  8  2  0
 10 11  2  0
 12  9  1  0
 12 13  2  0
 13 10  1  0
 14 13  1  0
 15 12  1  0
 16 15  1  0
 17 16  1  0
 18 25  2  0
 18 26  1  0
 19 24  1  0
 20 19  1  0
 21 20  1  0
 22 21  1  0
 22 23  1  0
 23 24  1  0
 24 18  1  0
 26 17  1  0
 27 26  1  0
 28 53  1  0
 29 48  1  0
 29 28  2  0
 30 29  1  0
 31 22  1  0
 31 28  1  0
 32 30  2  0
 32 31  1  0
 33 30  1  0
 34 33  1  0
 35 34  2  0
 36 37  2  0
 36 35  1  0
 37 38  1  0
 38 33  2  0
 39 36  1  0
 40 39  1  0
 40 41  1  0
 42 41  2  0
 43 42  1  0
 44 45  1  0
 44 43  2  0
 45 40  2  0
 46 45  1  0
 47 43  1  0
 48 50  2  0
 49 48  1  0
 49 52  1  0
 51 49  1  0
 53 55  1  0
 53 54  1  0
 56  6  1  0
 56 57  1  0
 57 58  1  0
 58 60  1  0
 59 70  2  0
 60 65  1  0
 61 71  1  0
 61 69  1  0
 62 68  1  0
 62 64  1  0
 63 69  1  0
 64 63  1  0
 65 64  2  0
 66 67  1  0
 66 60  2  0
 67 62  2  0
 68 61  1  0
 69 59  1  0
 71 73  2  0
 72 71  1  0
 74 72  1  0
 75 80  1  0
 76 72  1  0
 77 76  1  0
 78 77  1  0
 79 78  1  0
 79 75  1  0
 80 76  1  0
 80 81  2  0
 82 81  1  0
 83 82  2  0
 84 75  2  0
 84 83  1  0
 85 59  1  0
 85 86  1  0
 86 89  1  0
 86 87  1  0
 87 91  1  0
 88 87  2  0
 91 90  1  0
 91 93  1  0
 93 92  1  0
 93 94  1  0
 95 85  1  0
 95 98  1  1
 96 95  1  0
 97 95  1  0
M  ISO  4  18 100  26 100  57 101  58 101
M  END
>  <TORSDO>  (25) 
F 22

>  <SCORE>  (25) 
-5.426

>  <name>  (25) 
24

>  <ligand_id>  (25) 
24

>  <original_smiles>  (25) 
[H]c1c([H])c([H])c2c(c1[H])C([H])([H])C([H])([H])C([H])([H])C2([H])N([H])C(=O)C1([H])N(C(=O)C([H])(N([H])C(=O)C([H])(N([H])C([H])([H])[H])C([H])([H])[H])C(C([H])([H])[H])(C([H])([H])[H])C([H])([H])[H])C([H])([H])c2c([H])c(OC([H])([H])C([H])([H])[N+]3([H])C([H])([H])C([H])([H])C([H])([H])C([H])(c4c([H])c([H])c(C([H])([H])C([H])([H])C([H])([H])N([H])C(=O)N5C([H])([H])C([H])([H])C([H])([H])C([H])(n6nc(-c7c([H])c([H])c(Oc8c([H])c([H])c(F)c([H])c8F)c([H])c7[H])c(C(=O)N([H])[H])c6N([H])[H])C5([H])[H])c(C([H])([H])[H])c4[H])C3([H])[H])c([H])c([H])c2C1([H])[H]

>  <smiles>  (25) 
[H]c1c([H])c([H])c2c(c1[H])C([H])([H])C([H])([H])C([H])([H])C2([H])N([H])C(=O)C1([H])N(C(=O)C([H])(N([H])C(=O)C([H])(N([H])C([H])([H])[H])C([H])([H])[H])C(C([H])([H])[H])(C([H])([H])[H])C([H])([H])[H])C([H])([H])c2c([H])c(OC([H])([H])C([H])([H])[N+]3([H])C([H])([H])C([H])([H])C([H])([H])C([H])(c4c([H])c([H])c(C([H])([H])C([H])([H])C([H])([H])N([H])C(=O)N5C([H])([H])C([H])([H])C([H])([H])C([H])(n6nc(-c7c([H])c([H])c(Oc8c([H])c([H])c(F)c([H])c8F)c([H])c7[H])c(C(=O)N([H])[H])c6N([H])[H])C5([H])[H])c(C([H])([H])[H])c4[H])C3([H])[H])c([H])c([H])c2C1([H])[H]

$$$$
25:0:0
     RDKit          3D

 89 97  0  0  1  0  0  0  0  0999 V2000
  -27.1550  -23.6950   19.8690 C   0  0  0  0  0  3  0  0  0  0  0  0
  -26.9320  -22.3560   19.4490 C   0  0  0  0  0  3  0  0  0  0  0  0
  -29.3300  -22.9580   20.5390 C   0  0  0  0  0  3  0  0  0  0  0  0
  -29.1410  -21.4560   20.1410 C   0  0  0  0  0  0  0  0  0  0  0  0
  -28.3690  -24.1840   20.4050 C   0  0  0  0  0  0  0  0  0  0  0  0
  -27.8640  -21.2780   19.5590 C   0  0  0  0  0  0  0  0  0  0  0  0
  -26.5170  -19.7830   18.2210 C   0  0  0  0  0  1  0  0  0  0  0  0
  -27.5580  -19.9910   19.1680 O   0  0  0  0  0  0  0  0  0  0  0  0
  -28.4420  -25.7080   20.7480 O   0  0  0  0  0  0  0  0  0  0  0  0
  -24.6200  -31.8060   23.2460 C   0  0  0  0  0  0  0  0  0  0  0  0
  -27.4350  -26.8260   20.5880 C   0  0  0  0  0  0  0  0  0  0  0  0
  -23.5540  -30.3190   21.6010 C   0  0  0  0  0  3  0  0  0  0  0  0
  -25.1180  -28.6960   20.3230 C   0  0  0  0  0  0  0  0  0  0  0  0
  -26.1210  -30.5660   21.6060 C   0  0  0  0  0  2  0  0  0  0  0  0
  -26.2540  -29.1280   21.0170 C   0  0  0  0  0  0  0  0  0  0  0  0
  -27.3990  -28.2090   21.1390 C   0  0  0  0  0  3  0  0  0  0  0  0
  -26.3000  -26.5990   19.7730 C   0  0  0  0  0  3  0  0  0  0  0  0
  -25.1710  -27.4520   19.6780 C   0  0  0  0  0  3  0  0  0  0  0  0
  -23.8790  -29.5920   20.2670 C   0  0  0  0  0  2  0  0  0  0  0  0
  -24.7820  -30.9290   22.2030 N   0  0  0  0  0  0  0  0  0  0  0  0
  -23.4960  -32.0920   23.6910 O   0  0  0  0  0  0  0  0  0  0  0  0
  -22.8260  -29.3450   22.5650 C   0  0  0  0  0  0  0  0  0  0  0  0
  -21.4990  -29.1780   22.4030 N   0  0  0  0  0  0  0  0  0  0  0  0
  -23.4620  -28.7390   23.4300 O   0  0  0  0  0  0  0  0  0  0  0  0
  -21.0370  -29.7210   21.6860 H   0  0  0  0  0  0  0  0  0  0  0  0
  -18.0950  -28.0090   22.8630 C   0  0  0  0  0  0  0  0  0  0  0  0
  -20.6520  -28.2580   23.1680 C   0  0  0  0  0  3  0  0  0  0  0  0
  -20.7510  -26.8180   22.6110 C   0  0  0  0  0  2  0  0  0  0  0  0
  -19.6640  -26.4950   21.5800 C   0  0  0  0  0  2  0  0  0  0  0  0
  -18.2730  -26.6540   22.1980 C   0  0  0  0  0  2  0  0  0  0  0  0
  -19.2120  -28.7690   23.3040 C   0  0  0  0  0  0  0  0  0  0  0  0
  -18.9890  -30.0340   23.8870 C   0  0  0  0  0  3  0  0  0  0  0  0
  -17.6840  -30.5420   24.0330 C   0  0  0  0  0  3  0  0  0  0  0  0
  -16.5820  -29.7810   23.6050 C   0  0  0  0  0  3  0  0  0  0  0  0
  -16.7880  -28.5160   23.0270 C   0  0  0  0  0  3  0  0  0  0  0  0
  -25.8380  -32.5050   23.9210 C   0  0  0  0  0  3  0  0  0  0  0  0
  -26.2760  -31.8150   25.2730 C   0  0  1  0  0  0  0  0  0  0  0  0
  -25.1060  -31.5650   26.2540 C   0  0  0  0  0  1  0  0  0  0  0  0
  -26.9580  -30.4540   25.0060 C   0  0  0  0  0  1  0  0  0  0  0  0
  -27.3240  -32.6950   25.9940 C   0  0  0  0  0  1  0  0  0  0  0  0
  -25.4740  -33.9130   24.1690 N   0  0  0  0  0  0  0  0  0  0  0  0
  -25.8430  -34.9490   23.4040 C   0  0  0  0  0  0  0  0  0  0  0  0
  -26.5880  -34.8230   22.4280 O   0  0  0  0  0  0  0  0  0  0  0  0
  -24.8210  -34.0830   24.9190 H   0  0  0  0  0  0  0  0  0  0  0  0
  -24.1190  -36.7060   22.8700 C   0  0  0  0  0  1  0  0  0  0  0  0
  -25.3070  -36.3460   23.7780 C   0  0  0  0  0  3  0  0  0  0  0  0
  -27.3630  -37.3010   24.7260 C   0  0  0  0  0  1  0  0  0  0  0  0
  -26.3280  -37.4130   23.7000 N   0  0  0  0  0  0  0  0  0  0  0  0
  -25.8990  -38.3300   23.7820 H   0  0  0  0  0  0  0  0  0  0  0  0
  -29.9920  -19.9260   20.4470 C   0  0  0  0  0  2  0  0  0  0  0  0
  -30.0890  -18.2770   19.6600 C   0  0  0  0  0  2  0  0  0  0  0  0
  -30.8820  -15.3610   19.8800 C   0  0  0  0  0  0  0  0  0  0  0  0
  -30.7590  -12.9090   18.9950 C   0  0  0  0  0  2  0  0  0  0  0  0
  -29.7880  -12.7430   17.7960 C   0  0  0  0  0  2  0  0  0  0  0  0
  -28.3500  -12.5040   18.2860 C   0  0  0  0  0  2  0  0  0  0  0  0
  -27.9760  -13.4600   19.4450 C   0  0  0  0  0  3  0  0  0  0  0  0
  -29.0700  -13.5660   20.5320 C   0  0  0  0  0  2  0  0  0  0  0  0
  -30.2920  -14.0560   19.8710 N   0  0  0  0  0  0  0  0  0  0  0  0
  -32.0570  -15.3380   19.4870 O   0  0  0  0  0  0  0  0  0  0  0  0
  -30.1720  -16.6520   20.1530 N   0  0  0  0  0  0  0  0  0  0  0  0
  -29.3060  -16.4180   20.6170 H   0  0  0  0  0  0  0  0  0  0  0  0
  -25.6580  -14.0780   20.3040 C   0  0  0  0  0  0  0  0  0  0  0  0
  -24.5860  -13.3290   20.7040 C   0  0  0  0  0  0  0  0  0  0  0  0
  -25.0050  -11.9650   20.6290 C   0  0  0  0  0  0  0  0  0  0  0  0
  -26.6590  -13.1740   20.0010 N   0  0  0  0  0  0  0  0  0  0  0  0
  -26.2820  -11.8940   20.2630 N   0  0  0  0  0  0  0  0  0  0  0  0
  -24.2440  -10.7250   20.8270 C   0  0  0  0  0  0  0  0  0  0  0  0
  -24.6160   -9.7750   21.8040 C   0  0  0  0  0  3  0  0  0  0  0  0
  -23.8520   -8.6020   21.9900 C   0  0  0  0  0  3  0  0  0  0  0  0
  -22.7010   -8.3700   21.2000 C   0  0  0  0  0  0  0  0  0  0  0  0
  -22.3480   -9.3080   20.2140 C   0  0  0  0  0  3  0  0  0  0  0  0
  -23.1110  -10.4720   20.0260 C   0  0  0  0  0  3  0  0  0  0  0  0
  -21.9150   -7.2470   21.2930 O   0  0  0  0  0  0  0  0  0  0  0  0
  -21.7200   -6.6020   22.4880 C   0  0  0  0  0  0  0  0  0  0  0  0
  -21.1400   -7.2520   23.5990 C   0  0  0  0  0  3  0  0  0  0  0  0
  -20.8930   -6.5320   24.7850 C   0  0  0  0  0  3  0  0  0  0  0  0
  -21.2160   -5.1650   24.8600 C   0  0  0  0  0  0  0  0  0  0  0  0
  -21.7890   -4.5150   23.7530 C   0  0  0  0  0  3  0  0  0  0  0  0
  -22.0360   -5.2320   22.5690 C   0  0  0  0  0  0  0  0  0  0  0  0
  -22.5690   -4.5950   21.4980 F   0  0  0  0  0  0  0  0  0  0  0  0
  -20.9720   -4.4710   25.9960 F   0  0  0  0  0  0  0  0  0  0  0  0
  -23.2190  -13.8490   21.0380 C   0  0  0  0  0  0  0  0  0  0  0  0
  -22.5140  -13.1830   21.9440 N   0  0  0  0  0  0  0  0  0  0  0  0
  -22.7880  -14.8820   20.5280 O   0  0  0  0  0  0  0  0  0  0  0  0
  -22.8780  -12.3470   22.3790 H   0  0  0  0  0  0  0  0  0  0  0  0
  -21.5980  -13.5130   22.2100 H   0  0  0  0  0  0  0  0  0  0  0  0
  -25.8580  -15.4460   20.1430 N   0  0  0  0  0  0  0  0  0  0  0  0
  -25.1120  -16.1170   20.2920 H   0  0  0  0  0  0  0  0  0  0  0  0
  -26.6930  -15.8610   19.7510 H   0  0  0  0  0  0  0  0  0  0  0  0
  1  5  1  0
  2  6  1  0
  2  1  2  0
  4 50  1  0
  4  3  1  0
  5  3  2  0
  5  9  1  0
  6  4  2  0
  7  8  1  0
  8  6  1  0
 10 21  2  0
 11  9  1  0
 11 16  1  0
 12 20  1  0
 12 22  1  0
 13 15  1  0
 14 20  1  0
 15 16  2  0
 15 14  1  0
 17 11  2  0
 18 17  1  0
 18 13  2  0
 19 13  1  0
 19 12  1  0
 20 10  1  0
 22 24  2  0
 23 22  1  0
 25 23  1  0
 26 35  2  0
 26 31  1  0
 27 23  1  0
 27 31  1  0
 28 27  1  0
 29 30  1  0
 29 28  1  0
 30 26  1  0
 31 32  2  0
 32 33  1  0
 34 33  2  0
 35 34  1  0
 36 10  1  0
 36 41  1  0
 36 37  1  0
 37 40  1  1
 37 38  1  0
 39 37  1  0
 41 44  1  0
 42 46  1  0
 42 41  1  0
 43 42  2  0
 46 45  1  0
 48 46  1  0
 48 49  1  0
 48 47  1  0
 51 60  1  0
 51 50  1  0
 52 60  1  0
 53 58  1  0
 54 55  1  0
 54 53  1  0
 56 55  1  0
 56 65  1  0
 56 57  1  0
 58 52  1  0
 58 57  1  0
 59 52  2  0
 60 61  1  0
 62 63  2  0
 63 82  1  0
 64 63  1  0
 64 67  1  0
 65 66  1  0
 65 62  1  0
 66 64  2  0
 67 68  1  0
 68 69  2  0
 70 73  1  0
 70 69  1  0
 71 70  2  0
 72 71  1  0
 72 67  2  0
 73 74  1  0
 74 79  2  0
 74 75  1  0
 75 76  2  0
 76 77  1  0
 77 81  1  0
 78 77  2  0
 79 78  1  0
 80 79  1  0
 82 83  1  0
 83 86  1  0
 83 85  1  0
 84 82  2  0
 87 88  1  0
 87 62  1  0
 89 87  1  0
M  ISO  4   5 101   9 101  52 100  60 100
M  END
>  <TORSDO>  (26) 
F 19

>  <SCORE>  (26) 
-14.722

>  <name>  (26) 
25

>  <ligand_id>  (26) 
25

>  <original_smiles>  (26) 
[H]c1c([H])c([H])c2c(c1[H])C([H])([H])C([H])([H])C([H])([H])C2([H])N([H])C(=O)C1([H])N(C(=O)C([H])(N([H])C(=O)C([H])(N([H])C([H])([H])[H])C([H])([H])[H])C(C([H])([H])[H])(C([H])([H])[H])C([H])([H])[H])C([H])([H])c2c([H])c(Oc3c([H])c([H])c(OC([H])([H])[H])c(C([H])([H])C([H])([H])N([H])C(=O)N4C([H])([H])C([H])([H])C([H])([H])C([H])(n5nc(-c6c([H])c([H])c(Oc7c([H])c([H])c(F)c([H])c7F)c([H])c6[H])c(C(=O)N([H])[H])c5N([H])[H])C4([H])[H])c3[H])c([H])c([H])c2C1([H])[H]

>  <smiles>  (26) 
[H]c1c([H])c([H])c2c(c1[H])C([H])([H])C([H])([H])C([H])([H])C2([H])N([H])C(=O)C1([H])N(C(=O)C([H])(N([H])C(=O)C([H])(N([H])C([H])([H])[H])C([H])([H])[H])C(C([H])([H])[H])(C([H])([H])[H])C([H])([H])[H])C([H])([H])c2c([H])c(Oc3c([H])c([H])c(OC([H])([H])[H])c(C([H])([H])C([H])([H])N([H])C(=O)N4C([H])([H])C([H])([H])C([H])([H])C([H])(n5nc(-c6c([H])c([H])c(Oc7c([H])c([H])c(F)c([H])c7F)c([H])c6[H])c(C(=O)N([H])[H])c5N([H])[H])C4([H])[H])c3[H])c([H])c([H])c2C1([H])[H]

$$$$
26:0:0
     RDKit          3D

 90 98  0  0  1  0  0  0  0  0999 V2000
  -29.3920  -23.1730   18.0500 C   0  0  0  0  0  3  0  0  0  0  0  0
  -27.3510  -23.7220   19.2670 C   0  0  0  0  0  3  0  0  0  0  0  0
  -29.9810  -22.7150   19.2520 C   0  0  0  0  0  0  0  0  0  0  0  0
  -29.1270  -22.5990   20.3680 C   0  0  0  0  0  0  0  0  0  0  0  0
  -28.0150  -23.5020   18.0280 C   0  0  0  0  0  0  0  0  0  0  0  0
  -28.1850  -23.9630   20.3750 C   0  0  0  0  0  0  0  0  0  0  0  0
  -31.3360  -22.0360   19.2020 C   0  0  0  0  0  1  0  0  0  0  0  0
  -26.0510  -24.0200   16.7450 C   0  0  0  0  0  1  0  0  0  0  0  0
  -27.4150  -23.6160   16.7920 O   0  0  0  0  0  0  0  0  0  0  0  0
  -28.3080  -25.5920   20.5450 O   0  0  0  0  0  0  0  0  0  0  0  0
  -24.7670  -31.9950   23.3700 C   0  0  0  0  0  0  0  0  0  0  0  0
  -27.3510  -26.8460   20.4630 C   0  0  0  0  0  0  0  0  0  0  0  0
  -23.6160  -30.5820   21.7270 C   0  0  0  0  0  3  0  0  0  0  0  0
  -25.0930  -28.9290   20.3550 C   0  0  0  0  0  0  0  0  0  0  0  0
  -26.2010  -30.7060   21.6650 C   0  0  0  0  0  2  0  0  0  0  0  0
  -26.2760  -29.2650   21.0240 C   0  0  0  0  0  0  0  0  0  0  0  0
  -27.3810  -28.2500   21.0530 C   0  0  0  0  0  3  0  0  0  0  0  0
  -26.1450  -26.7710   19.7100 C   0  0  0  0  0  3  0  0  0  0  0  0
  -25.0720  -27.7070   19.6750 C   0  0  0  0  0  3  0  0  0  0  0  0
  -23.8860  -29.8810   20.3660 C   0  0  0  0  0  2  0  0  0  0  0  0
  -24.8850  -31.1300   22.3050 N   0  0  0  0  0  0  0  0  0  0  0  0
  -23.6630  -32.2990   23.8540 O   0  0  0  0  0  0  0  0  0  0  0  0
  -22.8810  -29.6100   22.6900 C   0  0  0  0  0  0  0  0  0  0  0  0
  -21.5560  -29.4340   22.5280 N   0  0  0  0  0  0  0  0  0  0  0  0
  -23.5180  -29.0100   23.5600 O   0  0  0  0  0  0  0  0  0  0  0  0
  -21.0900  -29.9690   21.8070 H   0  0  0  0  0  0  0  0  0  0  0  0
  -18.1710  -28.1740   22.9580 C   0  0  0  0  0  0  0  0  0  0  0  0
  -20.7180  -28.5000   23.2910 C   0  0  0  0  0  3  0  0  0  0  0  0
  -20.8620  -27.0560   22.7530 C   0  0  0  0  0  2  0  0  0  0  0  0
  -19.7990  -26.6910   21.7120 C   0  0  0  0  0  2  0  0  0  0  0  0
  -18.3960  -26.8180   22.3100 C   0  0  0  0  0  2  0  0  0  0  0  0
  -19.2610  -28.9700   23.4030 C   0  0  0  0  0  0  0  0  0  0  0  0
  -18.9950  -30.2340   23.9740 C   0  0  0  0  0  3  0  0  0  0  0  0
  -17.6740  -30.7030   24.1010 C   0  0  0  0  0  3  0  0  0  0  0  0
  -16.5990  -29.9080   23.6670 C   0  0  0  0  0  3  0  0  0  0  0  0
  -16.8490  -28.6450   23.1010 C   0  0  0  0  0  3  0  0  0  0  0  0
  -26.0140  -32.6570   24.0280 C   0  0  0  0  0  3  0  0  0  0  0  0
  -26.4690  -31.9320   25.3560 C   0  0  1  0  0  0  0  0  0  0  0  0
  -25.3290  -31.7300   26.3810 C   0  0  0  0  0  1  0  0  0  0  0  0
  -27.0710  -30.5410   25.0540 C   0  0  0  0  0  1  0  0  0  0  0  0
  -27.5890  -32.7490   26.0410 C   0  0  0  0  0  1  0  0  0  0  0  0
  -25.6890  -34.0690   24.3190 N   0  0  0  0  0  0  0  0  0  0  0  0
  -26.0010  -35.1120   23.5380 C   0  0  0  0  0  0  0  0  0  0  0  0
  -26.6500  -34.9890   22.4980 O   0  0  0  0  0  0  0  0  0  0  0  0
  -25.1040  -34.2350   25.1250 H   0  0  0  0  0  0  0  0  0  0  0  0
  -24.2320  -36.8820   23.2270 C   0  0  0  0  0  1  0  0  0  0  0  0
  -25.5210  -36.5120   23.9790 C   0  0  0  0  0  3  0  0  0  0  0  0
  -27.6770  -37.4650   24.6720 C   0  0  0  0  0  1  0  0  0  0  0  0
  -26.5300  -37.5740   23.7740 N   0  0  0  0  0  0  0  0  0  0  0  0
  -26.1160  -38.4940   23.8990 H   0  0  0  0  0  0  0  0  0  0  0  0
  -28.9980  -20.7490   20.7050 C   0  0  0  0  0  3  0  0  0  0  0  0
  -29.9620  -19.0700   20.3440 C   0  0  0  0  0  3  0  0  0  0  0  0
  -30.5130  -15.9010   20.2750 C   0  0  0  0  0  0  0  0  0  0  0  0
  -30.5940  -13.3800   19.3590 C   0  0  0  0  0  2  0  0  0  0  0  0
  -29.6860  -13.0100   18.1510 C   0  0  0  0  0  2  0  0  0  0  0  0
  -28.2730  -12.6280   18.6180 C   0  0  0  0  0  2  0  0  0  0  0  0
  -27.7770  -13.5880   19.7220 C   0  0  0  0  0  3  0  0  0  0  0  0
  -28.8250  -13.8750   20.8250 C   0  0  0  0  0  2  0  0  0  0  0  0
  -29.9830  -14.5340   20.1700 N   0  0  0  0  0  0  0  0  0  0  0  0
  -31.7380  -15.8340   20.0560 O   0  0  0  0  0  0  0  0  0  0  0  0
  -29.7750  -17.2800   20.4290 N   0  0  0  0  0  0  0  0  0  0  0  0
  -28.7980  -17.0690   20.5800 H   0  0  0  0  0  0  0  0  0  0  0  0
  -25.4230  -14.0710   20.5370 C   0  0  0  0  0  0  0  0  0  0  0  0
  -24.3810  -13.2700   20.9040 C   0  0  0  0  0  0  0  0  0  0  0  0
  -24.8670  -11.9270   20.8370 C   0  0  0  0  0  0  0  0  0  0  0  0
  -26.4740  -13.2190   20.2570 N   0  0  0  0  0  0  0  0  0  0  0  0
  -26.1550  -11.9210   20.5040 N   0  0  0  0  0  0  0  0  0  0  0  0
  -24.1570  -10.6520   21.0100 C   0  0  0  0  0  0  0  0  0  0  0  0
  -24.5770   -9.6930   21.9570 C   0  0  0  0  0  3  0  0  0  0  0  0
  -23.8620   -8.4860   22.1200 C   0  0  0  0  0  3  0  0  0  0  0  0
  -22.7120   -8.2310   21.3360 C   0  0  0  0  0  0  0  0  0  0  0  0
  -22.3110   -9.1790   20.3800 C   0  0  0  0  0  3  0  0  0  0  0  0
  -23.0260  -10.3770   20.2140 C   0  0  0  0  0  3  0  0  0  0  0  0
  -21.9710   -7.0760   21.4080 O   0  0  0  0  0  0  0  0  0  0  0  0
  -21.8700   -6.3560   22.5710 C   0  0  0  0  0  0  0  0  0  0  0  0
  -21.3250   -6.9140   23.7480 C   0  0  0  0  0  3  0  0  0  0  0  0
  -21.1750   -6.1190   24.9010 C   0  0  0  0  0  3  0  0  0  0  0  0
  -21.5590   -4.7640   24.8780 C   0  0  0  0  0  0  0  0  0  0  0  0
  -22.0960   -4.2050   23.7060 C   0  0  0  0  0  3  0  0  0  0  0  0
  -22.2490   -4.9980   22.5540 C   0  0  0  0  0  0  0  0  0  0  0  0
  -22.7480   -4.4480   21.4210 F   0  0  0  0  0  0  0  0  0  0  0  0
  -21.4080   -3.9980   25.9830 F   0  0  0  0  0  0  0  0  0  0  0  0
  -22.9810  -13.7240   21.1970 C   0  0  0  0  0  0  0  0  0  0  0  0
  -22.2720  -13.0090   22.0630 N   0  0  0  0  0  0  0  0  0  0  0  0
  -22.5260  -14.7500   20.6940 O   0  0  0  0  0  0  0  0  0  0  0  0
  -22.6530  -12.1790   22.4920 H   0  0  0  0  0  0  0  0  0  0  0  0
  -21.3330  -13.2970   22.3010 H   0  0  0  0  0  0  0  0  0  0  0  0
  -25.5600  -15.4480   20.3860 N   0  0  0  0  0  0  0  0  0  0  0  0
  -24.7800  -16.0820   20.5190 H   0  0  0  0  0  0  0  0  0  0  0  0
  -26.3880  -15.9060   20.0270 H   0  0  0  0  0  0  0  0  0  0  0  0
  1  3  1  0
  2  6  2  0
  3  4  2  0
  4  6  1  0
  4 51  1  0
  5  1  2  0
  5  2  1  0
  6 10  1  0
  7  3  1  0
  8  9  1  0
  9  5  1  0
 11 22  2  0
 12 10  1  0
 12 17  1  0
 13 21  1  0
 13 23  1  0
 14 20  1  0
 14 16  1  0
 15 21  1  0
 16 17  2  0
 16 15  1  0
 18 12  2  0
 19 18  1  0
 19 14  2  0
 20 13  1  0
 21 11  1  0
 23 25  2  0
 24 23  1  0
 26 24  1  0
 27 36  2  0
 27 32  1  0
 28 24  1  0
 28 32  1  0
 29 28  1  0
 30 31  1  0
 30 29  1  0
 31 27  1  0
 32 33  2  0
 33 34  1  0
 35 34  2  0
 36 35  1  0
 37 11  1  0
 37 42  1  0
 37 38  1  0
 38 41  1  1
 38 39  1  0
 40 38  1  0
 42 45  1  0
 43 47  1  0
 43 42  1  0
 44 43  2  0
 47 46  1  0
 49 50  1  0
 49 47  1  0
 49 48  1  0
 52 61  1  0
 52 51  2  0
 53 61  1  0
 54 59  1  0
 55 56  1  0
 55 54  1  0
 57 56  1  0
 57 66  1  0
 57 58  1  0
 59 53  1  0
 59 58  1  0
 60 53  2  0
 61 62  1  0
 63 64  2  0
 64 83  1  0
 65 64  1  0
 65 68  1  0
 66 67  1  0
 66 63  1  0
 67 65  2  0
 68 69  1  0
 69 70  2  0
 71 74  1  0
 71 70  1  0
 72 71  2  0
 73 72  1  0
 73 68  2  0
 74 75  1  0
 75 76  1  0
 76 77  2  0
 78 77  1  0
 78 82  1  0
 79 78  2  0
 80 75  2  0
 80 79  1  0
 81 80  1  0
 83 84  1  0
 84 87  1  0
 84 86  1  0
 85 83  2  0
 88 89  1  0
 88 63  1  0
 90 88  1  0
M  ISO  4   6 101  10 101  53 100  61 100
M  END
>  <TORSDO>  (27) 
F 19

>  <SCORE>  (27) 
-14.591

>  <name>  (27) 
26

>  <ligand_id>  (27) 
26

>  <original_smiles>  (27) 
[H]c1c([H])c([H])c2c(c1[H])C([H])([H])C([H])([H])C([H])([H])C2([H])N([H])C(=O)C1([H])N(C(=O)C([H])(N([H])C(=O)C([H])(N([H])C([H])([H])[H])C([H])([H])[H])C(C([H])([H])[H])(C([H])([H])[H])C([H])([H])[H])C([H])([H])c2c([H])c(Oc3c([H])c(OC([H])([H])[H])c([H])c(C([H])([H])[H])c3C([H])([H])C([H])([H])N([H])C(=O)N3C([H])([H])C([H])([H])C([H])([H])C([H])(n4nc(-c5c([H])c([H])c(Oc6c([H])c([H])c(F)c([H])c6F)c([H])c5[H])c(C(=O)N([H])[H])c4N([H])[H])C3([H])[H])c([H])c([H])c2C1([H])[H]

>  <smiles>  (27) 
[H]c1c([H])c([H])c2c(c1[H])C([H])([H])C([H])([H])C([H])([H])C2([H])N([H])C(=O)C1([H])N(C(=O)C([H])(N([H])C(=O)C([H])(N([H])C([H])([H])[H])C([H])([H])[H])C(C([H])([H])[H])(C([H])([H])[H])C([H])([H])[H])C([H])([H])c2c([H])c(Oc3c([H])c(OC([H])([H])[H])c([H])c(C([H])([H])[H])c3C([H])([H])C([H])([H])N([H])C(=O)N3C([H])([H])C([H])([H])C([H])([H])C([H])(n4nc(-c5c([H])c([H])c(Oc6c([H])c([H])c(F)c([H])c6F)c([H])c5[H])c(C(=O)N([H])[H])c4N([H])[H])C3([H])[H])c([H])c([H])c2C1([H])[H]

$$$$
27:0:0
     RDKit          3D

 94102  0  0  1  0  0  0  0  0999 V2000
  -27.9780  -24.7030   20.2510 C   0  0  0  0  0  3  0  0  0  0  0  0
  -29.8180  -23.1040   20.3260 C   0  0  0  0  0  3  0  0  0  0  0  0
  -30.2280  -25.3850   19.6090 C   0  0  0  0  0  3  0  0  0  0  0  0
  -28.4450  -23.3890   20.5070 C   0  0  0  0  0  0  0  0  0  0  0  0
  -28.8670  -25.7130   19.8000 C   0  0  0  0  0  0  0  0  0  0  0  0
  -30.7180  -24.0880   19.8870 C   0  0  0  0  0  0  0  0  0  0  0  0
  -33.0110  -24.7380   19.6440 C   0  0  0  0  0  1  0  0  0  0  0  0
  -32.0360  -23.7090   19.7690 O   0  0  0  0  0  0  0  0  0  0  0  0
  -27.4990  -22.3240   20.9590 C   0  0  0  0  0  0  0  0  0  0  0  0
  -26.2770  -22.4840   21.0180 O   0  0  0  0  0  0  0  0  0  0  0  0
  -28.0930  -20.9810   21.4110 C   0  0  0  0  0  2  0  0  0  0  0  0
  -28.6540  -20.1000   20.2640 C   0  0  0  0  0  2  0  0  0  0  0  0
  -29.9560  -19.3550   20.6690 C   0  0  0  0  0  2  0  0  0  0  0  0
  -29.9540  -17.8660   20.2810 C   0  0  0  0  0  2  0  0  0  0  0  0
  -30.9220  -16.9980   21.1100 C   0  0  0  0  0  2  0  0  0  0  0  0
  -31.1060  -14.6630   20.1980 C   0  0  0  0  0  0  0  0  0  0  0  0
  -30.7320  -12.5060   19.0670 C   0  0  0  0  0  2  0  0  0  0  0  0
  -29.7540  -12.6810   17.8900 C   0  0  0  0  0  2  0  0  0  0  0  0
  -28.2940  -12.5570   18.3640 C   0  0  0  0  0  2  0  0  0  0  0  0
  -27.9960  -13.4410   19.6030 C   0  0  0  0  0  3  0  0  0  0  0  0
  -29.0720  -13.2390   20.6950 C   0  0  0  0  0  2  0  0  0  0  0  0
  -30.3980  -13.5060   20.0920 N   0  0  0  0  0  0  0  0  0  0  0  0
  -32.1460  -14.8820   19.5710 O   0  0  0  0  0  0  0  0  0  0  0  0
  -30.5490  -15.5890   20.9930 N   0  0  0  0  0  0  0  0  0  0  0  0
  -29.7130  -15.3080   21.4830 H   0  0  0  0  0  0  0  0  0  0  0  0
  -25.6440  -14.1090   20.4140 C   0  0  0  0  0  0  0  0  0  0  0  0
  -24.5680  -13.3630   20.8080 C   0  0  0  0  0  0  0  0  0  0  0  0
  -24.9830  -11.9970   20.7290 C   0  0  0  0  0  0  0  0  0  0  0  0
  -26.6520  -13.2020   20.1230 N   0  0  0  0  0  0  0  0  0  0  0  0
  -26.2580  -11.9240   20.3720 N   0  0  0  0  0  0  0  0  0  0  0  0
  -24.2260  -10.7510   20.9240 C   0  0  0  0  0  0  0  0  0  0  0  0
  -24.6360   -9.7800   21.8640 C   0  0  0  0  0  3  0  0  0  0  0  0
  -23.8770   -8.6050   22.0580 C   0  0  0  0  0  3  0  0  0  0  0  0
  -22.6970   -8.3890   21.3020 C   0  0  0  0  0  0  0  0  0  0  0  0
  -22.3110   -9.3510   20.3500 C   0  0  0  0  0  3  0  0  0  0  0  0
  -23.0680  -10.5190   20.1570 C   0  0  0  0  0  3  0  0  0  0  0  0
  -21.9170   -7.2610   21.3940 O   0  0  0  0  0  0  0  0  0  0  0  0
  -21.8100   -6.5590   22.5670 C   0  0  0  0  0  0  0  0  0  0  0  0
  -21.3390   -7.1610   23.7550 C   0  0  0  0  0  3  0  0  0  0  0  0
  -21.1760   -6.3820   24.9180 C   0  0  0  0  0  3  0  0  0  0  0  0
  -21.4720   -5.0050   24.8890 C   0  0  0  0  0  0  0  0  0  0  0  0
  -21.9360   -4.4050   23.7060 C   0  0  0  0  0  3  0  0  0  0  0  0
  -22.1010   -5.1810   22.5460 C   0  0  0  0  0  0  0  0  0  0  0  0
  -22.5290   -4.5950   21.4000 F   0  0  0  0  0  0  0  0  0  0  0  0
  -21.3060   -4.2560   26.0010 F   0  0  0  0  0  0  0  0  0  0  0  0
  -23.1930  -13.8720   21.1420 C   0  0  0  0  0  0  0  0  0  0  0  0
  -22.4900  -13.1840   22.0340 N   0  0  0  0  0  0  0  0  0  0  0  0
  -22.7600  -14.9130   20.6490 O   0  0  0  0  0  0  0  0  0  0  0  0
  -22.8630  -12.3450   22.4540 H   0  0  0  0  0  0  0  0  0  0  0  0
  -21.5670  -13.4950   22.2930 H   0  0  0  0  0  0  0  0  0  0  0  0
  -25.8400  -15.4790   20.2550 N   0  0  0  0  0  0  0  0  0  0  0  0
  -25.0850  -16.1360   20.4170 H   0  0  0  0  0  0  0  0  0  0  0  0
  -26.6450  -15.9030   19.8140 H   0  0  0  0  0  0  0  0  0  0  0  0
  -28.5170  -27.0170   19.4990 O   0  0  0  0  0  0  0  0  0  0  0  0
  -24.6580  -31.8020   23.1510 C   0  0  0  0  0  0  0  0  0  0  0  0
  -27.2860  -27.6000   19.7190 C   0  0  0  0  0  0  0  0  0  0  0  0
  -23.4160  -30.4470   21.4980 C   0  0  0  0  0  3  0  0  0  0  0  0
  -24.8410  -29.0190   19.9370 C   0  0  0  0  0  0  0  0  0  0  0  0
  -25.9200  -30.8860   21.2030 C   0  0  0  0  0  2  0  0  0  0  0  0
  -26.0120  -29.5460   20.5010 C   0  0  0  0  0  0  0  0  0  0  0  0
  -27.2310  -28.8400   20.3940 C   0  0  0  0  0  3  0  0  0  0  0  0
  -26.1000  -27.0950   19.1400 C   0  0  0  0  0  3  0  0  0  0  0  0
  -24.8800  -27.7890   19.2600 C   0  0  0  0  0  3  0  0  0  0  0  0
  -23.5800  -29.8440   20.0770 C   0  0  0  0  0  2  0  0  0  0  0  0
  -24.6860  -31.0560   22.0100 N   0  0  0  0  0  0  0  0  0  0  0  0
  -23.5960  -32.0130   23.7560 O   0  0  0  0  0  0  0  0  0  0  0  0
  -22.8410  -29.3590   22.4310 C   0  0  0  0  0  0  0  0  0  0  0  0
  -21.5260  -29.1120   22.3190 N   0  0  0  0  0  0  0  0  0  0  0  0
  -23.5720  -28.7420   23.2090 O   0  0  0  0  0  0  0  0  0  0  0  0
  -20.9980  -29.6670   21.6600 H   0  0  0  0  0  0  0  0  0  0  0  0
  -18.2500  -27.6470   22.7320 C   0  0  0  0  0  0  0  0  0  0  0  0
  -20.7710  -28.1110   23.0680 C   0  0  0  0  0  3  0  0  0  0  0  0
  -21.0040  -26.6960   22.4900 C   0  0  0  0  0  2  0  0  0  0  0  0
  -19.9560  -26.2880   21.4490 C   0  0  0  0  0  2  0  0  0  0  0  0
  -18.5520  -26.3180   22.0600 C   0  0  0  0  0  2  0  0  0  0  0  0
  -19.2930  -28.4960   23.1890 C   0  0  0  0  0  0  0  0  0  0  0  0
  -18.9560  -29.7350   23.7760 C   0  0  0  0  0  3  0  0  0  0  0  0
  -17.6100  -30.1260   23.9110 C   0  0  0  0  0  3  0  0  0  0  0  0
  -16.5830  -29.2770   23.4670 C   0  0  0  0  0  3  0  0  0  0  0  0
  -16.9040  -28.0390   22.8810 C   0  0  0  0  0  3  0  0  0  0  0  0
  -25.9560  -32.4370   23.7410 C   0  0  0  0  0  3  0  0  0  0  0  0
  -25.6400  -33.8230   24.1090 N   0  0  0  0  0  0  0  0  0  0  0  0
  -25.9620  -34.8970   23.3760 C   0  0  0  0  0  0  0  0  0  0  0  0
  -26.6260  -34.8250   22.3370 O   0  0  0  0  0  0  0  0  0  0  0  0
  -25.0480  -33.9530   24.9160 H   0  0  0  0  0  0  0  0  0  0  0  0
  -24.2190  -36.6840   23.0670 C   0  0  0  0  0  1  0  0  0  0  0  0
  -25.4620  -36.2670   23.8690 C   0  0  0  0  0  3  0  0  0  0  0  0
  -27.5890  -37.1440   24.7260 C   0  0  0  0  0  1  0  0  0  0  0  0
  -26.4860  -37.3310   23.7870 N   0  0  0  0  0  0  0  0  0  0  0  0
  -26.0720  -38.2420   23.9620 H   0  0  0  0  0  0  0  0  0  0  0  0
  -26.5260  -31.6480   24.9840 C   0  0  1  0  0  0  0  0  0  0  0  0
  -25.4710  -31.3710   26.0800 C   0  0  0  0  0  1  0  0  0  0  0  0
  -27.1200  -30.2880   24.5430 C   0  0  0  0  0  1  0  0  0  0  0  0
  -27.6850  -32.4460   25.6270 C   0  0  0  0  0  1  0  0  0  0  0  0
  1  4  1  0
  2  4  2  0
  3  5  1  0
  3  6  2  0
  4  9  1  0
  5  1  2  0
  6  2  1  0
  7  8  1  0
  8  6  1  0
  9 10  2  0
  9 11  1  0
 12 13  1  0
 12 11  1  0
 14 13  1  0
 14 15  1  0
 16 24  1  0
 17 22  1  0
 18 19  1  0
 18 17  1  0
 20 19  1  0
 20 29  1  0
 20 21  1  0
 22 16  1  0
 22 21  1  0
 23 16  2  0
 24 15  1  0
 24 25  1  0
 26 27  2  0
 27 46  1  0
 28 27  1  0
 28 31  1  0
 29 30  1  0
 29 26  1  0
 30 28  2  0
 31 32  1  0
 32 33  2  0
 34 37  1  0
 34 33  1  0
 35 34  2  0
 36 35  1  0
 36 31  2  0
 37 38  1  0
 38 39  1  0
 39 40  2  0
 41 40  1  0
 41 45  1  0
 42 41  2  0
 43 38  2  0
 43 42  1  0
 44 43  1  0
 46 47  1  0
 47 50  1  0
 47 49  1  0
 48 46  2  0
 51 26  1  0
 51 52  1  0
 53 51  1  0
 54 56  1  0
 54  5  1  0
 55 66  2  0
 56 61  1  0
 57 65  1  0
 57 67  1  0
 58 64  1  0
 58 60  1  0
 59 65  1  0
 60 59  1  0
 61 60  2  0
 62 63  1  0
 62 56  2  0
 63 58  2  0
 64 57  1  0
 65 55  1  0
 67 69  2  0
 68 67  1  0
 70 68  1  0
 71 80  2  0
 71 76  1  0
 72 68  1  0
 72 76  1  0
 73 72  1  0
 74 75  1  0
 74 73  1  0
 75 71  1  0
 76 77  2  0
 77 78  1  0
 79 78  2  0
 80 79  1  0
 81 55  1  0
 81 82  1  0
 81 91  1  0
 82 85  1  0
 83 87  1  0
 83 82  1  0
 84 83  2  0
 87 86  1  0
 89 87  1  0
 89 90  1  0
 89 88  1  0
 91 94  1  1
 91 92  1  0
 93 91  1  0
M  ISO  4   5 101  16 100  24 100  54 101
M  END
>  <TORSDO>  (28) 
F 23

>  <SCORE>  (28) 
-11.858

>  <name>  (28) 
27

>  <ligand_id>  (28) 
27

>  <original_smiles>  (28) 
[H]c1c([H])c([H])c2c(c1[H])C([H])([H])C([H])([H])C([H])([H])C2([H])N([H])C(=O)C1([H])N(C(=O)C([H])(N([H])C(=O)C([H])(N([H])C([H])([H])[H])C([H])([H])[H])C(C([H])([H])[H])(C([H])([H])[H])C([H])([H])[H])C([H])([H])c2c([H])c(Oc3c([H])c(OC([H])([H])[H])c([H])c(C(=O)C([H])([H])C([H])([H])C([H])([H])C([H])([H])C([H])([H])N([H])C(=O)N4C([H])([H])C([H])([H])C([H])([H])C([H])(n5nc(-c6c([H])c([H])c(Oc7c([H])c([H])c(F)c([H])c7F)c([H])c6[H])c(C(=O)N([H])[H])c5N([H])[H])C4([H])[H])c3[H])c([H])c([H])c2C1([H])[H]

>  <smiles>  (28) 
[H]c1c([H])c([H])c2c(c1[H])C([H])([H])C([H])([H])C([H])([H])C2([H])N([H])C(=O)C1([H])N(C(=O)C([H])(N([H])C(=O)C([H])(N([H])C([H])([H])[H])C([H])([H])[H])C(C([H])([H])[H])(C([H])([H])[H])C([H])([H])[H])C([H])([H])c2c([H])c(Oc3c([H])c(OC([H])([H])[H])c([H])c(C(=O)C([H])([H])C([H])([H])C([H])([H])C([H])([H])C([H])([H])N([H])C(=O)N4C([H])([H])C([H])([H])C([H])([H])C([H])(n5nc(-c6c([H])c([H])c(Oc7c([H])c([H])c(F)c([H])c7F)c([H])c6[H])c(C(=O)N([H])[H])c5N([H])[H])C4([H])[H])c3[H])c([H])c([H])c2C1([H])[H]

$$$$
28:0:0
     RDKit          3D

 96105  0  0  1  0  0  0  0  0999 V2000
  -28.9790  -25.8760   23.5860 C   0  0  0  0  0  3  0  0  0  0  0  0
  -28.8150  -26.7040   22.4630 C   0  0  0  0  0  3  0  0  0  0  0  0
  -28.9890  -24.7690   21.0000 C   0  0  0  0  0  3  0  0  0  0  0  0
  -29.1500  -24.4890   23.4270 C   0  0  0  0  0  0  0  0  0  0  0  0
  -29.1780  -23.9310   22.1230 C   0  0  0  0  0  0  0  0  0  0  0  0
  -28.7890  -26.1570   21.1620 C   0  0  0  0  0  0  0  0  0  0  0  0
  -29.3040  -23.6290   24.6710 C   0  0  0  0  0  1  0  0  0  0  0  0
  -28.5740  -26.9520   20.0590 O   0  0  0  0  0  0  0  0  0  0  0  0
  -24.6910  -31.9520   23.2380 C   0  0  0  0  0  0  0  0  0  0  0  0
  -27.4020  -27.6630   20.0550 C   0  0  0  0  0  0  0  0  0  0  0  0
  -23.4930  -30.5550   21.5790 C   0  0  0  0  0  3  0  0  0  0  0  0
  -24.9640  -29.0770   20.1090 C   0  0  0  0  0  0  0  0  0  0  0  0
  -26.0000  -30.9910   21.3520 C   0  0  0  0  0  2  0  0  0  0  0  0
  -26.1110  -29.6380   20.6850 C   0  0  0  0  0  0  0  0  0  0  0  0
  -27.3350  -28.9450   20.6400 C   0  0  0  0  0  3  0  0  0  0  0  0
  -26.2450  -27.1050   19.4770 C   0  0  0  0  0  3  0  0  0  0  0  0
  -25.0240  -27.8100   19.4960 C   0  0  0  0  0  3  0  0  0  0  0  0
  -23.6990  -29.9010   20.1850 C   0  0  0  0  0  2  0  0  0  0  0  0
  -24.7460  -31.1780   22.1170 N   0  0  0  0  0  0  0  0  0  0  0  0
  -23.6110  -32.1910   23.7960 O   0  0  0  0  0  0  0  0  0  0  0  0
  -22.8760  -29.5030   22.5290 C   0  0  0  0  0  0  0  0  0  0  0  0
  -21.5600  -29.2790   22.3940 N   0  0  0  0  0  0  0  0  0  0  0  0
  -23.5790  -28.8940   23.3390 O   0  0  0  0  0  0  0  0  0  0  0  0
  -21.0550  -29.8260   21.7090 H   0  0  0  0  0  0  0  0  0  0  0  0
  -18.2340  -27.9370   22.8170 C   0  0  0  0  0  0  0  0  0  0  0  0
  -20.7700  -28.3080   23.1480 C   0  0  0  0  0  3  0  0  0  0  0  0
  -20.9490  -26.8820   22.5770 C   0  0  0  0  0  2  0  0  0  0  0  0
  -19.8860  -26.5090   21.5390 C   0  0  0  0  0  2  0  0  0  0  0  0
  -18.4850  -26.5940   22.1510 C   0  0  0  0  0  2  0  0  0  0  0  0
  -19.3070  -28.7480   23.2710 C   0  0  0  0  0  0  0  0  0  0  0  0
  -19.0200  -30.0030   23.8500 C   0  0  0  0  0  3  0  0  0  0  0  0
  -17.6910  -30.4480   23.9800 C   0  0  0  0  0  3  0  0  0  0  0  0
  -16.6320  -29.6330   23.5460 C   0  0  0  0  0  3  0  0  0  0  0  0
  -16.9040  -28.3800   22.9690 C   0  0  0  0  0  3  0  0  0  0  0  0
  -25.9720  -32.5950   23.8570 C   0  0  0  0  0  3  0  0  0  0  0  0
  -26.5010  -31.8270   25.1290 C   0  0  1  0  0  0  0  0  0  0  0  0
  -25.4140  -31.5750   26.2010 C   0  0  0  0  0  1  0  0  0  0  0  0
  -27.0990  -30.4560   24.7300 C   0  0  0  0  0  1  0  0  0  0  0  0
  -27.6440  -32.6320   25.7910 C   0  0  0  0  0  1  0  0  0  0  0  0
  -25.6510  -33.9890   24.1860 N   0  0  0  0  0  0  0  0  0  0  0  0
  -25.9820  -35.0440   23.4290 C   0  0  0  0  0  0  0  0  0  0  0  0
  -26.6640  -34.9450   22.4040 O   0  0  0  0  0  0  0  0  0  0  0  0
  -25.0490  -34.1380   24.9820 H   0  0  0  0  0  0  0  0  0  0  0  0
  -24.2460  -36.8220   23.0530 C   0  0  0  0  0  1  0  0  0  0  0  0
  -25.4800  -36.4280   23.8790 C   0  0  0  0  0  3  0  0  0  0  0  0
  -27.6030  -37.3240   24.7290 C   0  0  0  0  0  1  0  0  0  0  0  0
  -26.5070  -37.4880   23.7780 N   0  0  0  0  0  0  0  0  0  0  0  0
  -26.0930  -38.4050   23.9270 H   0  0  0  0  0  0  0  0  0  0  0  0
  -29.4440  -22.4460   21.9170 C   0  0  0  0  0  2  0  0  0  0  0  0
  -30.9530  -22.1620   21.7550 C   0  0  0  0  0  2  0  0  0  0  0  0
  -31.4700  -20.9320   22.5310 C   0  0  0  0  0  2  0  0  0  0  0  0
  -30.8030  -17.8200   20.3530 C   0  0  0  0  0  2  0  0  0  0  0  0
  -30.5760  -17.2140   22.7640 C   0  0  0  0  0  2  0  0  0  0  0  0
  -31.3770  -19.1910   20.7610 C   0  0  0  0  0  2  0  0  0  0  0  0
  -31.1510  -18.5890   23.1460 C   0  0  0  0  0  2  0  0  0  0  0  0
  -31.1280  -16.7480   21.4100 C   0  0  0  0  0  3  0  0  0  0  0  0
  -30.9020  -19.6260   22.1050 N   0  0  1  0  0  4  0  0  0  0  0  0
  -29.9000  -19.7390   22.0490 H   0  0  0  0  0  0  0  0  0  0  0  0
  -31.0900  -14.5490   20.2280 C   0  0  0  0  0  0  0  0  0  0  0  0
  -30.6980  -12.4170   19.0550 C   0  0  0  0  0  2  0  0  0  0  0  0
  -29.7390  -12.6320   17.8680 C   0  0  0  0  0  2  0  0  0  0  0  0
  -28.2700  -12.5380   18.3230 C   0  0  0  0  0  2  0  0  0  0  0  0
  -27.9750  -13.4060   19.5770 C   0  0  0  0  0  3  0  0  0  0  0  0
  -29.0360  -13.1540   20.6700 C   0  0  0  0  0  2  0  0  0  0  0  0
  -30.3670  -13.4090   20.0860 N   0  0  0  0  0  0  0  0  0  0  0  0
  -32.1420  -14.7700   19.6200 O   0  0  0  0  0  0  0  0  0  0  0  0
  -30.5580  -15.4480   21.0630 N   0  0  0  0  0  0  0  0  0  0  0  0
  -29.6940  -15.1800   21.5100 H   0  0  0  0  0  0  0  0  0  0  0  0
  -25.6070  -14.0940   20.3220 C   0  0  0  0  0  0  0  0  0  0  0  0
  -24.5220  -13.3560   20.7120 C   0  0  0  0  0  0  0  0  0  0  0  0
  -24.9400  -11.9910   20.6740 C   0  0  0  0  0  0  0  0  0  0  0  0
  -26.6210  -13.1790   20.0760 N   0  0  0  0  0  0  0  0  0  0  0  0
  -26.2210  -11.9090   20.3410 N   0  0  0  0  0  0  0  0  0  0  0  0
  -24.1780  -10.7520   20.8820 C   0  0  0  0  0  0  0  0  0  0  0  0
  -24.5860   -9.7840   21.8260 C   0  0  0  0  0  3  0  0  0  0  0  0
  -23.8270   -8.6090   22.0200 C   0  0  0  0  0  3  0  0  0  0  0  0
  -22.6480   -8.3940   21.2670 C   0  0  0  0  0  0  0  0  0  0  0  0
  -22.2590   -9.3510   20.3140 C   0  0  0  0  0  3  0  0  0  0  0  0
  -23.0170  -10.5170   20.1180 C   0  0  0  0  0  3  0  0  0  0  0  0
  -21.8610   -7.2710   21.3700 O   0  0  0  0  0  0  0  0  0  0  0  0
  -21.7670   -6.5630   22.5410 C   0  0  0  0  0  0  0  0  0  0  0  0
  -21.3480   -7.1680   23.7450 C   0  0  0  0  0  3  0  0  0  0  0  0
  -21.1980   -6.3880   24.9100 C   0  0  0  0  0  3  0  0  0  0  0  0
  -21.4560   -5.0050   24.8700 C   0  0  0  0  0  0  0  0  0  0  0  0
  -21.8690   -4.4000   23.6690 C   0  0  0  0  0  3  0  0  0  0  0  0
  -22.0210   -5.1770   22.5070 C   0  0  0  0  0  0  0  0  0  0  0  0
  -22.3980   -4.5860   21.3480 F   0  0  0  0  0  0  0  0  0  0  0  0
  -21.3050   -4.2540   25.9850 F   0  0  0  0  0  0  0  0  0  0  0  0
  -23.1450  -13.8770   21.0110 C   0  0  0  0  0  0  0  0  0  0  0  0
  -22.4170  -13.2110   21.9000 N   0  0  0  0  0  0  0  0  0  0  0  0
  -22.7270  -14.9110   20.4920 O   0  0  0  0  0  0  0  0  0  0  0  0
  -22.7680  -12.3720   22.3400 H   0  0  0  0  0  0  0  0  0  0  0  0
  -21.4950  -13.5420   22.1430 H   0  0  0  0  0  0  0  0  0  0  0  0
  -25.8120  -15.4570   20.1400 N   0  0  0  0  0  0  0  0  0  0  0  0
  -25.0680  -16.1370   20.2620 H   0  0  0  0  0  0  0  0  0  0  0  0
  -26.6710  -15.8700   19.7970 H   0  0  0  0  0  0  0  0  0  0  0  0
  2  1  2  0
  3  6  2  0
  3  5  1  0
  4  1  1  0
  4  7  1  0
  5  4  2  0
  6  2  1  0
  8  6  1  0
  9 20  2  0
 10  8  1  0
 10 15  1  0
 11 19  1  0
 11 21  1  0
 12 18  1  0
 12 14  1  0
 13 19  1  0
 14 13  1  0
 15 14  2  0
 16 17  1  0
 16 10  2  0
 17 12  2  0
 18 11  1  0
 19  9  1  0
 21 23  2  0
 22 21  1  0
 24 22  1  0
 25 34  2  0
 25 30  1  0
 26 22  1  0
 26 30  1  0
 27 26  1  0
 28 29  1  0
 28 27  1  0
 29 25  1  0
 30 31  2  0
 31 32  1  0
 33 32  2  0
 34 33  1  0
 35  9  1  0
 35 40  1  0
 35 36  1  0
 36 39  1  1
 36 37  1  0
 38 36  1  0
 40 43  1  0
 41 45  1  0
 41 40  1  0
 42 41  2  0
 45 44  1  0
 47 45  1  0
 47 48  1  0
 47 46  1  0
 49  5  1  0
 50 49  1  0
 50 51  1  0
 52 54  1  0
 52 56  1  0
 53 55  1  0
 54 57  1  0
 56 67  1  0
 56 53  1  0
 57 51  1  0
 57 55  1  0
 57 58  1  6
 59 67  1  0
 60 65  1  0
 61 62  1  0
 61 60  1  0
 63 62  1  0
 63 72  1  0
 63 64  1  0
 65 59  1  0
 65 64  1  0
 66 59  2  0
 67 68  1  0
 69 70  2  0
 70 89  1  0
 71 70  1  0
 71 74  1  0
 72 69  1  0
 72 73  1  0
 73 71  2  0
 74 75  1  0
 75 76  2  0
 77 80  1  0
 77 76  1  0
 78 77  2  0
 79 78  1  0
 79 74  2  0
 80 81  1  0
 81 82  1  0
 82 83  2  0
 84 83  1  0
 84 88  1  0
 85 84  2  0
 86 81  2  0
 86 85  1  0
 87 86  1  0
 89 90  1  0
 90 93  1  0
 90 92  1  0
 91 89  2  0
 94 95  1  0
 94 69  1  0
 96 94  1  0
M  ISO  4   6 101   8 101  59 100  67 100
M  END
>  <TORSDO>  (29) 
F 20

>  <SCORE>  (29) 
-12.670

>  <name>  (29) 
28

>  <ligand_id>  (29) 
28

>  <original_smiles>  (29) 
[H]c1c([H])c([H])c2c(c1[H])C([H])([H])C([H])([H])C([H])([H])C2([H])N([H])C(=O)C1([H])N(C(=O)C([H])(N([H])C(=O)C([H])(N([H])C([H])([H])[H])C([H])([H])[H])C(C([H])([H])[H])(C([H])([H])[H])C([H])([H])[H])C([H])([H])c2c([H])c(Oc3c([H])c([H])c(C([H])([H])[H])c(C([H])([H])C([H])([H])C([H])([H])[N+]4([H])C([H])([H])C([H])([H])C([H])(N([H])C(=O)N5C([H])([H])C([H])([H])C([H])([H])C([H])(n6nc(-c7c([H])c([H])c(Oc8c([H])c([H])c(F)c([H])c8F)c([H])c7[H])c(C(=O)N([H])[H])c6N([H])[H])C5([H])[H])C([H])([H])C4([H])[H])c3[H])c([H])c([H])c2C1([H])[H]

>  <smiles>  (29) 
[H]c1c([H])c([H])c2c(c1[H])C([H])([H])C([H])([H])C([H])([H])C2([H])N([H])C(=O)C1([H])N(C(=O)C([H])(N([H])C(=O)C([H])(N([H])C([H])([H])[H])C([H])([H])[H])C(C([H])([H])[H])(C([H])([H])[H])C([H])([H])[H])C([H])([H])c2c([H])c(Oc3c([H])c([H])c(C([H])([H])[H])c(C([H])([H])C([H])([H])C([H])([H])[N+]4([H])C([H])([H])C([H])([H])C([H])(N([H])C(=O)N5C([H])([H])C([H])([H])C([H])([H])C([H])(n6nc(-c7c([H])c([H])c(Oc8c([H])c([H])c(F)c([H])c8F)c([H])c7[H])c(C(=O)N([H])[H])c6N([H])[H])C5([H])[H])C([H])([H])C4([H])[H])c3[H])c([H])c([H])c2C1([H])[H]

$$$$
29:0:0
     RDKit          3D

 88 97  0  0  1  0  0  0  0  0999 V2000
  -30.6030  -15.6080   20.0300 C   0  0  0  0  0  0  0  0  0  0  0  0
  -30.5990  -13.0590   19.3440 C   0  0  0  0  0  2  0  0  0  0  0  0
  -29.7080  -12.6740   18.1340 C   0  0  0  0  0  2  0  0  0  0  0  0
  -28.2660  -12.3980   18.5880 C   0  0  0  0  0  2  0  0  0  0  0  0
  -27.7820  -13.4540   19.6100 C   0  0  0  0  0  3  0  0  0  0  0  0
  -28.8110  -13.7680   20.7200 C   0  0  0  0  0  2  0  0  0  0  0  0
  -30.0190  -14.2830   20.0450 N   0  0  0  0  0  0  0  0  0  0  0  0
  -31.8210  -15.5070   19.7910 O   0  0  0  0  0  0  0  0  0  0  0  0
  -28.8130  -20.6280   21.5510 C   0  0  0  0  0  3  0  0  0  0  0  0
  -29.3430  -21.2110   18.9560 C   0  0  0  0  0  3  0  0  0  0  0  0
  -29.2550  -19.4870   20.7800 C   0  0  0  0  0  0  0  0  0  0  0  0
  -29.5510  -19.7670   19.4770 C   0  0  0  0  0  0  0  0  0  0  0  0
  -28.6330  -22.0060   21.0580 C   0  0  0  0  0  0  0  0  0  0  0  0
  -28.8620  -22.4750   19.7040 C   0  0  0  0  0  0  0  0  0  0  0  0
  -29.4720  -17.9110   21.1340 C   0  0  0  0  0  3  0  0  0  0  0  0
  -30.0470  -18.2500   18.9670 C   0  0  0  0  0  3  0  0  0  0  0  0
  -28.1020  -23.0250   22.0490 C   0  0  0  0  0  1  0  0  0  0  0  0
  -29.9200  -16.9810   19.9700 N   0  0  0  0  0  0  0  0  0  0  0  0
  -25.4550  -14.0660   20.4270 C   0  0  0  0  0  0  0  0  0  0  0  0
  -24.3670  -13.3170   20.7810 C   0  0  0  0  0  0  0  0  0  0  0  0
  -24.7800  -11.9520   20.6950 C   0  0  0  0  0  0  0  0  0  0  0  0
  -26.4570  -13.1600   20.1360 N   0  0  0  0  0  0  0  0  0  0  0  0
  -26.0660  -11.8780   20.3650 N   0  0  0  0  0  0  0  0  0  0  0  0
  -24.0030  -10.7140   20.8490 C   0  0  0  0  0  0  0  0  0  0  0  0
  -24.4270   -9.6740   21.7060 C   0  0  0  0  0  3  0  0  0  0  0  0
  -23.6500   -8.5060   21.8540 C   0  0  0  0  0  3  0  0  0  0  0  0
  -22.4320   -8.3680   21.1460 C   0  0  0  0  0  0  0  0  0  0  0  0
  -22.0250   -9.3950   20.2770 C   0  0  0  0  0  3  0  0  0  0  0  0
  -22.8030  -10.5550   20.1260 C   0  0  0  0  0  3  0  0  0  0  0  0
  -21.6250   -7.2580   21.2090 O   0  0  0  0  0  0  0  0  0  0  0  0
  -21.6370   -6.4180   22.2940 C   0  0  0  0  0  0  0  0  0  0  0  0
  -21.3390   -6.8780   23.5950 C   0  0  0  0  0  3  0  0  0  0  0  0
  -21.2940   -5.9690   24.6700 C   0  0  0  0  0  3  0  0  0  0  0  0
  -21.5390   -4.6010   24.4470 C   0  0  0  0  0  0  0  0  0  0  0  0
  -21.8300   -4.1400   23.1510 C   0  0  0  0  0  3  0  0  0  0  0  0
  -21.8750   -5.0460   22.0770 C   0  0  0  0  0  0  0  0  0  0  0  0
  -22.1360   -4.5930   20.8270 F   0  0  0  0  0  0  0  0  0  0  0  0
  -21.4880   -3.7250   25.4790 F   0  0  0  0  0  0  0  0  0  0  0  0
  -22.9940  -13.8410   21.0820 C   0  0  0  0  0  0  0  0  0  0  0  0
  -22.2630  -13.1700   21.9640 N   0  0  0  0  0  0  0  0  0  0  0  0
  -22.5820  -14.8820   20.5700 O   0  0  0  0  0  0  0  0  0  0  0  0
  -22.6110  -12.3290   22.3980 H   0  0  0  0  0  0  0  0  0  0  0  0
  -21.3420  -13.5040   22.2090 H   0  0  0  0  0  0  0  0  0  0  0  0
  -25.6710  -15.4350   20.2980 N   0  0  0  0  0  0  0  0  0  0  0  0
  -24.9350  -16.1150   20.4490 H   0  0  0  0  0  0  0  0  0  0  0  0
  -26.5370  -15.8510   19.9810 H   0  0  0  0  0  0  0  0  0  0  0  0
  -28.3300  -24.1170   19.1160 C   0  0  0  0  0  2  0  0  0  0  0  0
  -28.4490  -25.7670   19.5390 O   0  0  0  0  0  0  0  0  0  0  0  0
  -24.6180  -31.5350   22.8150 C   0  0  0  0  0  0  0  0  0  0  0  0
  -27.4210  -26.8960   19.4980 C   0  0  0  0  0  0  0  0  0  0  0  0
  -23.5010  -30.1790   21.0940 C   0  0  0  0  0  3  0  0  0  0  0  0
  -25.0330  -28.7320   19.5690 C   0  0  0  0  0  0  0  0  0  0  0  0
  -26.0600  -30.5040   20.9720 C   0  0  0  0  0  2  0  0  0  0  0  0
  -26.2030  -29.1320   20.2260 C   0  0  0  0  0  0  0  0  0  0  0  0
  -27.3820  -28.2380   20.1690 C   0  0  0  0  0  3  0  0  0  0  0  0
  -26.2130  -26.6900   18.7880 C   0  0  0  0  0  3  0  0  0  0  0  0
  -25.0700  -27.5380   18.8290 C   0  0  0  0  0  3  0  0  0  0  0  0
  -23.7690  -29.5920   19.6780 C   0  0  0  0  0  2  0  0  0  0  0  0
  -24.7480  -30.7670   21.6810 N   0  0  0  0  0  0  0  0  0  0  0  0
  -23.5140  -31.7350   23.3490 O   0  0  0  0  0  0  0  0  0  0  0  0
  -22.8560  -29.0950   21.9990 C   0  0  0  0  0  0  0  0  0  0  0  0
  -21.5200  -28.9360   21.9350 N   0  0  0  0  0  0  0  0  0  0  0  0
  -23.5650  -28.4000   22.7300 O   0  0  0  0  0  0  0  0  0  0  0  0
  -20.9970  -29.5510   21.3260 H   0  0  0  0  0  0  0  0  0  0  0  0
  -18.1690  -27.6870   22.5670 C   0  0  0  0  0  0  0  0  0  0  0  0
  -20.7450  -27.9200   22.6570 C   0  0  0  0  0  3  0  0  0  0  0  0
  -20.7860  -26.5620   21.9190 C   0  0  0  0  0  2  0  0  0  0  0  0
  -19.6070  -26.3580   20.9630 C   0  0  0  0  0  2  0  0  0  0  0  0
  -18.2800  -26.4270   21.7250 C   0  0  0  0  0  2  0  0  0  0  0  0
  -19.3250  -28.3970   22.9910 C   0  0  0  0  0  0  0  0  0  0  0  0
  -19.1620  -29.5770   23.7480 C   0  0  0  0  0  3  0  0  0  0  0  0
  -17.8780  -30.0500   24.0780 C   0  0  0  0  0  3  0  0  0  0  0  0
  -16.7380  -29.3380   23.6650 C   0  0  0  0  0  3  0  0  0  0  0  0
  -16.8850  -28.1570   22.9160 C   0  0  0  0  0  3  0  0  0  0  0  0
  -25.8490  -32.2110   23.4910 C   0  0  0  0  0  3  0  0  0  0  0  0
  -25.4460  -33.5610   23.9310 N   0  0  0  0  0  0  0  0  0  0  0  0
  -25.7470  -34.7010   23.2940 C   0  0  0  0  0  0  0  0  0  0  0  0
  -26.4510  -34.7310   22.2830 O   0  0  0  0  0  0  0  0  0  0  0  0
  -24.8180  -33.6060   24.7190 H   0  0  0  0  0  0  0  0  0  0  0  0
  -23.9350  -36.4380   23.0700 C   0  0  0  0  0  1  0  0  0  0  0  0
  -25.1790  -36.0170   23.8690 C   0  0  0  0  0  3  0  0  0  0  0  0
  -27.2420  -36.9340   24.8380 C   0  0  0  0  0  1  0  0  0  0  0  0
  -26.1570  -37.1270   23.8800 N   0  0  0  0  0  0  0  0  0  0  0  0
  -25.6990  -38.0100   24.0940 H   0  0  0  0  0  0  0  0  0  0  0  0
  -26.4090  -31.3910   24.7190 C   0  0  1  0  0  0  0  0  0  0  0  0
  -25.3350  -31.0370   25.7740 C   0  0  0  0  0  1  0  0  0  0  0  0
  -27.0580  -30.0680   24.2530 C   0  0  0  0  0  1  0  0  0  0  0  0
  -27.5230  -32.2000   25.4240 C   0  0  0  0  0  1  0  0  0  0  0  0
  1  7  1  0
  2  7  1  0
  3  4  1  0
  3  2  1  0
  5  4  1  0
  5 22  1  0
  5  6  1  0
  7  6  1  0
  8  1  2  0
 10 12  1  0
 10 14  2  0
 11 15  2  0
 11  9  1  0
 12 11  1  0
 13  9  2  0
 13 17  1  0
 14 13  1  0
 16 12  2  0
 16 18  1  0
 18  1  1  0
 18 15  1  0
 19 20  2  0
 20 39  1  0
 21 20  1  0
 21 24  1  0
 22 23  1  0
 22 19  1  0
 23 21  2  0
 24 25  1  0
 25 26  2  0
 27 30  1  0
 27 26  1  0
 28 27  2  0
 29 28  1  0
 29 24  2  0
 30 31  1  0
 31 32  1  0
 32 33  2  0
 34 33  1  0
 34 38  1  0
 35 34  2  0
 36 31  2  0
 36 35  1  0
 37 36  1  0
 39 40  1  0
 40 43  1  0
 40 42  1  0
 41 39  2  0
 44 19  1  0
 44 45  1  0
 46 44  1  0
 47 48  1  0
 47 14  1  0
 49 60  2  0
 50 48  1  0
 50 55  1  0
 51 59  1  0
 51 61  1  0
 52 58  1  0
 52 54  1  0
 53 59  1  0
 54 53  1  0
 55 54  2  0
 56 57  1  0
 56 50  2  0
 57 52  2  0
 58 51  1  0
 59 49  1  0
 61 63  2  0
 62 61  1  0
 64 62  1  0
 65 74  2  0
 65 70  1  0
 66 62  1  0
 66 70  1  0
 67 66  1  0
 68 69  1  0
 68 67  1  0
 69 65  1  0
 70 71  2  0
 71 72  1  0
 73 72  2  0
 74 73  1  0
 75 49  1  0
 75 76  1  0
 75 85  1  0
 76 79  1  0
 77 81  1  0
 77 76  1  0
 78 77  2  0
 81 80  1  0
 81 83  1  0
 83 84  1  0
 83 82  1  0
 85 88  1  1
 85 86  1  0
 87 85  1  0
M  ISO  4   1 100  18 100  47 101  48 101
M  END
>  <TORSDO>  (30) 
F 16

>  <SCORE>  (30) 
-14.912

>  <name>  (30) 
29

>  <ligand_id>  (30) 
29

>  <original_smiles>  (30) 
[H]c1c([H])c([H])c2c(c1[H])C([H])([H])C([H])([H])C([H])([H])C2([H])N([H])C(=O)C1([H])N(C(=O)C([H])(N([H])C(=O)C([H])(N([H])C([H])([H])[H])C([H])([H])[H])C(C([H])([H])[H])(C([H])([H])[H])C([H])([H])[H])C([H])([H])c2c([H])c(OC([H])([H])c3c([H])c4c(c([H])c3C([H])([H])[H])C([H])([H])N(C(=O)N3C([H])([H])C([H])([H])C([H])([H])C([H])(n5nc(-c6c([H])c([H])c(Oc7c([H])c([H])c(F)c([H])c7F)c([H])c6[H])c(C(=O)N([H])[H])c5N([H])[H])C3([H])[H])C4([H])[H])c([H])c([H])c2C1([H])[H]

>  <smiles>  (30) 
[H]c1c([H])c([H])c2c(c1[H])C([H])([H])C([H])([H])C([H])([H])C2([H])N([H])C(=O)C1([H])N(C(=O)C([H])(N([H])C(=O)C([H])(N([H])C([H])([H])[H])C([H])([H])[H])C(C([H])([H])[H])(C([H])([H])[H])C([H])([H])[H])C([H])([H])c2c([H])c(OC([H])([H])c3c([H])c4c(c([H])c3C([H])([H])[H])C([H])([H])N(C(=O)N3C([H])([H])C([H])([H])C([H])([H])C([H])(n5nc(-c6c([H])c([H])c(Oc7c([H])c([H])c(F)c([H])c7F)c([H])c6[H])c(C(=O)N([H])[H])c5N([H])[H])C3([H])[H])C4([H])[H])c([H])c([H])c2C1([H])[H]

$$$$
30:0:0
     RDKit          3D

 91 99  0  0  1  0  0  0  0  0999 V2000
  -26.8130  -22.7180   20.6360 C   0  0  0  0  0  3  0  0  0  0  0  0
  -27.1280  -24.0960   20.5700 C   0  0  0  0  0  3  0  0  0  0  0  0
  -29.3860  -23.4120   20.1220 C   0  0  0  0  0  3  0  0  0  0  0  0
  -27.7440  -21.6620   20.4550 C   0  0  0  0  0  0  0  0  0  0  0  0
  -29.1220  -21.8890   20.1950 C   0  0  0  0  0  0  0  0  0  0  0  0
  -28.4140  -24.6020   20.2770 C   0  0  0  0  0  0  0  0  0  0  0  0
  -27.2120  -20.2500   20.6020 C   0  0  0  0  0  1  0  0  0  0  0  0
  -28.5750  -26.1310   20.2420 O   0  0  0  0  0  0  0  0  0  0  0  0
  -24.7800  -31.9150   23.2640 C   0  0  0  0  0  0  0  0  0  0  0  0
  -27.5320  -27.1960   20.2060 C   0  0  0  0  0  0  0  0  0  0  0  0
  -23.6510  -30.5010   21.5940 C   0  0  0  0  0  3  0  0  0  0  0  0
  -25.1650  -28.9810   20.1590 C   0  0  0  0  0  0  0  0  0  0  0  0
  -26.2040  -30.8160   21.4740 C   0  0  0  0  0  2  0  0  0  0  0  0
  -26.3290  -29.4200   20.8040 C   0  0  0  0  0  0  0  0  0  0  0  0
  -27.5040  -28.5430   20.8150 C   0  0  0  0  0  3  0  0  0  0  0  0
  -26.3450  -26.9280   19.4840 C   0  0  0  0  0  3  0  0  0  0  0  0
  -25.1940  -27.7510   19.4840 C   0  0  0  0  0  3  0  0  0  0  0  0
  -23.9150  -29.8560   20.2050 C   0  0  0  0  0  2  0  0  0  0  0  0
  -24.8970  -31.1050   22.1640 N   0  0  0  0  0  0  0  0  0  0  0  0
  -23.6770  -32.1540   23.7840 O   0  0  0  0  0  0  0  0  0  0  0  0
  -22.9910  -29.4610   22.5380 C   0  0  0  0  0  0  0  0  0  0  0  0
  -21.6680  -29.2500   22.4070 N   0  0  0  0  0  0  0  0  0  0  0  0
  -23.6790  -28.8500   23.3620 O   0  0  0  0  0  0  0  0  0  0  0  0
  -21.1620  -29.8060   21.7320 H   0  0  0  0  0  0  0  0  0  0  0  0
  -18.3440  -27.8640   22.8460 C   0  0  0  0  0  0  0  0  0  0  0  0
  -20.8820  -28.2660   23.1580 C   0  0  0  0  0  3  0  0  0  0  0  0
  -21.0670  -26.8410   22.5840 C   0  0  0  0  0  2  0  0  0  0  0  0
  -20.0030  -26.4640   21.5460 C   0  0  0  0  0  2  0  0  0  0  0  0
  -18.6060  -26.5300   22.1670 C   0  0  0  0  0  2  0  0  0  0  0  0
  -19.4130  -28.6850   23.3000 C   0  0  0  0  0  0  0  0  0  0  0  0
  -19.1110  -29.9260   23.8990 C   0  0  0  0  0  3  0  0  0  0  0  0
  -17.7760  -30.3520   24.0470 C   0  0  0  0  0  3  0  0  0  0  0  0
  -16.7240  -29.5290   23.6100 C   0  0  0  0  0  3  0  0  0  0  0  0
  -17.0090  -28.2870   23.0150 C   0  0  0  0  0  3  0  0  0  0  0  0
  -26.0250  -32.5920   23.9170 C   0  0  0  0  0  3  0  0  0  0  0  0
  -26.5410  -31.8380   25.2050 C   0  0  1  0  0  0  0  0  0  0  0  0
  -25.4340  -31.5610   26.2490 C   0  0  0  0  0  1  0  0  0  0  0  0
  -27.1840  -30.4820   24.8360 C   0  0  0  0  0  1  0  0  0  0  0  0
  -27.6490  -32.6720   25.8920 C   0  0  0  0  0  1  0  0  0  0  0  0
  -25.6580  -33.9790   24.2560 N   0  0  0  0  0  0  0  0  0  0  0  0
  -26.0000  -35.0610   23.5450 C   0  0  0  0  0  0  0  0  0  0  0  0
  -26.7220  -34.9990   22.5480 O   0  0  0  0  0  0  0  0  0  0  0  0
  -25.0210  -34.1010   25.0300 H   0  0  0  0  0  0  0  0  0  0  0  0
  -24.2750  -36.8480   23.1350 C   0  0  0  0  0  1  0  0  0  0  0  0
  -25.4610  -36.4280   24.0150 C   0  0  0  0  0  3  0  0  0  0  0  0
  -27.5200  -37.3180   25.0210 C   0  0  0  0  0  1  0  0  0  0  0  0
  -26.4820  -37.4990   24.0080 N   0  0  0  0  0  0  0  0  0  0  0  0
  -26.0510  -38.4080   24.1540 H   0  0  0  0  0  0  0  0  0  0  0  0
  -30.1560  -20.4800   20.2680 C   0  0  0  0  0  2  0  0  0  0  0  0
  -30.0890  -18.7680   19.6960 C   0  0  0  0  0  2  0  0  0  0  0  0
  -30.5680  -17.2110   20.4570 C   0  0  0  0  0  3  0  0  0  0  0  0
  -31.0970  -15.6120   19.9110 C   0  0  0  0  0  0  0  0  0  0  0  0
  -31.0000  -13.1370   19.0930 C   0  0  0  0  0  2  0  0  0  0  0  0
  -30.0740  -12.9610   17.8610 C   0  0  0  0  0  2  0  0  0  0  0  0
  -28.6260  -12.7040   18.3170 C   0  0  0  0  0  2  0  0  0  0  0  0
  -28.2010  -13.6740   19.4490 C   0  0  0  0  0  3  0  0  0  0  0  0
  -29.2650  -13.8240   20.5600 C   0  0  0  0  0  2  0  0  0  0  0  0
  -30.5120  -14.3030   19.9330 N   0  0  0  0  0  0  0  0  0  0  0  0
  -32.2580  -15.5500   19.4810 O   0  0  0  0  0  0  0  0  0  0  0  0
  -25.8590  -14.2540   20.2740 C   0  0  0  0  0  0  0  0  0  0  0  0
  -24.7960  -13.4880   20.6700 C   0  0  0  0  0  0  0  0  0  0  0  0
  -25.2420  -12.1320   20.6110 C   0  0  0  0  0  0  0  0  0  0  0  0
  -26.8780  -13.3650   19.9840 N   0  0  0  0  0  0  0  0  0  0  0  0
  -26.5230  -12.0830   20.2570 N   0  0  0  0  0  0  0  0  0  0  0  0
  -24.4990  -10.8790   20.8090 C   0  0  0  0  0  0  0  0  0  0  0  0
  -24.8560   -9.9620   21.8230 C   0  0  0  0  0  3  0  0  0  0  0  0
  -24.1130   -8.7770   22.0090 C   0  0  0  0  0  3  0  0  0  0  0  0
  -22.9990   -8.4990   21.1820 C   0  0  0  0  0  0  0  0  0  0  0  0
  -22.6590   -9.4050   20.1630 C   0  0  0  0  0  3  0  0  0  0  0  0
  -23.4040  -10.5830   19.9750 C   0  0  0  0  0  3  0  0  0  0  0  0
  -22.2370   -7.3580   21.2700 O   0  0  0  0  0  0  0  0  0  0  0  0
  -21.9830   -6.7540   22.4750 C   0  0  0  0  0  0  0  0  0  0  0  0
  -21.3370   -7.4340   23.5310 C   0  0  0  0  0  3  0  0  0  0  0  0
  -21.0330   -6.7530   24.7250 C   0  0  0  0  0  3  0  0  0  0  0  0
  -21.3690   -5.3930   24.8660 C   0  0  0  0  0  0  0  0  0  0  0  0
  -22.0080   -4.7120   23.8150 C   0  0  0  0  0  3  0  0  0  0  0  0
  -22.3120   -5.3900   22.6220 C   0  0  0  0  0  0  0  0  0  0  0  0
  -22.9090   -4.7240   21.6050 F   0  0  0  0  0  0  0  0  0  0  0  0
  -21.0710   -4.7370   26.0130 F   0  0  0  0  0  0  0  0  0  0  0  0
  -23.4160  -13.9860   20.9800 C   0  0  0  0  0  0  0  0  0  0  0  0
  -22.7080  -13.3080   21.8750 N   0  0  0  0  0  0  0  0  0  0  0  0
  -22.9750  -15.0090   20.4600 O   0  0  0  0  0  0  0  0  0  0  0  0
  -23.0860  -12.4850   22.3200 H   0  0  0  0  0  0  0  0  0  0  0  0
  -21.7790  -13.6200   22.1240 H   0  0  0  0  0  0  0  0  0  0  0  0
  -26.0310  -15.6250   20.1120 N   0  0  0  0  0  0  0  0  0  0  0  0
  -25.2110  -16.2250   20.1670 H   0  0  0  0  0  0  0  0  0  0  0  0
  -26.7670  -16.0190   19.5410 H   0  0  0  0  0  0  0  0  0  0  0  0
  -29.6970  -17.0560   21.6290 N   0  0  0  0  0  4  0  0  0  0  0  0
  -28.7650  -16.7960   21.3620 H   0  0  0  0  0  0  0  0  0  0  0  0
  -29.6550  -17.9250   22.1300 H   0  0  0  0  0  0  0  0  0  0  0  0
  -30.0790  -16.3650   22.2460 H   0  0  0  0  0  0  0  0  0  0  0  0
  2  1  1  0
  3  5  2  0
  3  6  1  0
  4  7  1  0
  4  1  2  0
  5 49  1  0
  5  4  1  0
  6  2  2  0
  8  6  1  0
  9 20  2  0
 10  8  1  0
 10 15  1  0
 11 19  1  0
 11 21  1  0
 12 18  1  0
 12 14  1  0
 13 19  1  0
 14 15  2  0
 14 13  1  0
 16 17  1  0
 16 10  2  0
 17 12  2  0
 18 11  1  0
 19  9  1  0
 21 23  2  0
 22 21  1  0
 24 22  1  0
 25 34  2  0
 25 30  1  0
 26 22  1  0
 26 30  1  0
 27 26  1  0
 28 29  1  0
 28 27  1  0
 29 25  1  0
 30 31  2  0
 31 32  1  0
 33 32  2  0
 34 33  1  0
 35  9  1  0
 35 40  1  0
 35 36  1  0
 36 39  1  1
 36 37  1  0
 38 36  1  0
 40 43  1  0
 41 45  1  0
 41 40  1  0
 42 41  2  0
 45 44  1  0
 47 45  1  0
 47 48  1  0
 47 46  1  0
 50 49  1  0
 51 50  1  0
 51 88  1  0
 52 58  1  0
 52 51  1  0
 53 58  1  0
 54 55  1  0
 54 53  1  0
 56 55  1  0
 56 63  1  0
 56 57  1  0
 58 57  1  0
 59 52  2  0
 60 61  2  0
 61 80  1  0
 62 61  1  0
 62 65  1  0
 63 64  1  0
 63 60  1  0
 64 62  2  0
 65 66  1  0
 66 67  2  0
 68 71  1  0
 68 67  1  0
 69 68  2  0
 70 69  1  0
 70 65  2  0
 71 72  1  0
 72 77  2  0
 72 73  1  0
 73 74  2  0
 74 75  1  0
 75 79  1  0
 76 75  2  0
 77 76  1  0
 78 77  1  0
 80 81  1  0
 81 84  1  0
 81 83  1  0
 82 80  2  0
 85 86  1  0
 85 60  1  0
 87 85  1  0
 88 90  1  0
 88 91  1  0
 89 88  1  0
M  ISO  4   6 101   8 101  51 100  52 100
M  END
>  <TORSDO>  (31) 
F 20

>  <SCORE>  (31) 
-13.918

>  <name>  (31) 
30

>  <ligand_id>  (31) 
30

>  <original_smiles>  (31) 
[H]c1c([H])c([H])c2c(c1[H])C([H])([H])C([H])([H])C([H])([H])C2([H])N([H])C(=O)C1([H])N(C(=O)C([H])(N([H])C(=O)C([H])(N([H])C([H])([H])[H])C([H])([H])[H])C(C([H])([H])[H])(C([H])([H])[H])C([H])([H])[H])C([H])([H])c2c([H])c(Oc3c([H])c([H])c(C([H])([H])[H])c(C([H])([H])C([H])([H])C([H])(C(=O)N4C([H])([H])C([H])([H])C([H])([H])C([H])(n5nc(-c6c([H])c([H])c(Oc7c([H])c([H])c(F)c([H])c7F)c([H])c6[H])c(C(=O)N([H])[H])c5N([H])[H])C4([H])[H])[N+]([H])([H])[H])c3[H])c([H])c([H])c2C1([H])[H]

>  <smiles>  (31) 
[H]c1c([H])c([H])c2c(c1[H])C([H])([H])C([H])([H])C([H])([H])C2([H])N([H])C(=O)C1([H])N(C(=O)C([H])(N([H])C(=O)C([H])(N([H])C([H])([H])[H])C([H])([H])[H])C(C([H])([H])[H])(C([H])([H])[H])C([H])([H])[H])C([H])([H])c2c([H])c(Oc3c([H])c([H])c(C([H])([H])[H])c(C([H])([H])C([H])([H])C([H])(C(=O)N4C([H])([H])C([H])([H])C([H])([H])C([H])(n5nc(-c6c([H])c([H])c(Oc7c([H])c([H])c(F)c([H])c7F)c([H])c6[H])c(C(=O)N([H])[H])c5N([H])[H])C4([H])[H])[N+]([H])([H])[H])c3[H])c([H])c([H])c2C1([H])[H]

$$$$
31:0:0
     RDKit          3D

 93101  0  0  1  0  0  0  0  0999 V2000
  -32.1020  -21.7710   21.9560 C   0  0  0  0  0  3  0  0  0  0  0  0
  -31.9160  -23.1340   21.7670 C   0  0  0  0  0  3  0  0  0  0  0  0
  -31.1310  -20.8550   21.5360 C   0  0  0  0  0  0  0  0  0  0  0  0
  -30.7310  -23.6130   21.1890 C   0  0  0  0  0  0  0  0  0  0  0  0
  -30.0090  -21.2570   20.7370 C   0  0  0  0  0  0  0  0  0  0  0  0
  -29.7590  -22.7290   20.6080 C   0  0  0  0  0  0  0  0  0  0  0  0
  -31.3190  -19.4490   22.0940 C   0  0  0  0  0  1  0  0  0  0  0  0
  -30.5500  -25.1200   21.3140 C   0  0  0  0  0  1  0  0  0  0  0  0
  -29.1260  -20.0450   20.1770 C   0  0  0  0  0  2  0  0  0  0  0  0
  -29.7600  -18.5700   19.7400 C   0  0  0  0  0  2  0  0  0  0  0  0
  -29.7680  -15.8310   20.3890 C   0  0  0  0  0  0  0  0  0  0  0  0
  -29.4130  -17.1850   20.4940 C   0  0  0  0  0  0  0  0  0  0  0  0
  -30.5760  -14.6410   19.8780 C   0  0  0  0  0  0  0  0  0  0  0  0
  -30.3340  -12.3310   18.9330 C   0  0  0  0  0  2  0  0  0  0  0  0
  -29.3170  -12.3870   17.7710 C   0  0  0  0  0  2  0  0  0  0  0  0
  -27.8770  -12.2280   18.2900 C   0  0  0  0  0  2  0  0  0  0  0  0
  -27.5870  -13.1250   19.5240 C   0  0  0  0  0  3  0  0  0  0  0  0
  -28.7140  -13.0460   20.5740 C   0  0  0  0  0  2  0  0  0  0  0  0
  -29.9720  -13.3980   19.8990 N   0  0  0  0  0  0  0  0  0  0  0  0
  -31.7220  -14.7180   19.4100 O   0  0  0  0  0  0  0  0  0  0  0  0
  -25.2760  -13.7370   20.4510 C   0  0  0  0  0  0  0  0  0  0  0  0
  -24.2260  -12.9720   20.8790 C   0  0  0  0  0  0  0  0  0  0  0  0
  -24.6560  -11.6140   20.7770 C   0  0  0  0  0  0  0  0  0  0  0  0
  -26.2790  -12.8460   20.1090 N   0  0  0  0  0  0  0  0  0  0  0  0
  -25.9190  -11.5630   20.3680 N   0  0  0  0  0  0  0  0  0  0  0  0
  -23.9200  -10.3610   20.9880 C   0  0  0  0  0  0  0  0  0  0  0  0
  -24.3750   -9.3800   21.8980 C   0  0  0  0  0  3  0  0  0  0  0  0
  -23.6370   -8.1930   22.1000 C   0  0  0  0  0  3  0  0  0  0  0  0
  -22.4320   -7.9780   21.3920 C   0  0  0  0  0  0  0  0  0  0  0  0
  -21.9950   -8.9470   20.4710 C   0  0  0  0  0  3  0  0  0  0  0  0
  -22.7330  -10.1260   20.2660 C   0  0  0  0  0  3  0  0  0  0  0  0
  -21.6650   -6.8440   21.5020 O   0  0  0  0  0  0  0  0  0  0  0  0
  -21.6140   -6.1170   22.6640 C   0  0  0  0  0  0  0  0  0  0  0  0
  -21.1950   -6.6900   23.8840 C   0  0  0  0  0  3  0  0  0  0  0  0
  -21.0960   -5.8910   25.0400 C   0  0  0  0  0  3  0  0  0  0  0  0
  -21.4000   -4.5180   24.9780 C   0  0  0  0  0  0  0  0  0  0  0  0
  -21.8090   -3.9430   23.7610 C   0  0  0  0  0  3  0  0  0  0  0  0
  -21.9140   -4.7400   22.6070 C   0  0  0  0  0  0  0  0  0  0  0  0
  -22.2900   -4.1750   21.4340 F   0  0  0  0  0  0  0  0  0  0  0  0
  -21.2970   -3.7490   26.0860 F   0  0  0  0  0  0  0  0  0  0  0  0
  -22.8640  -13.4680   21.2700 C   0  0  0  0  0  0  0  0  0  0  0  0
  -22.1910  -12.7650   22.1740 N   0  0  0  0  0  0  0  0  0  0  0  0
  -22.4080  -14.5140   20.8110 O   0  0  0  0  0  0  0  0  0  0  0  0
  -22.5750  -11.9210   22.5670 H   0  0  0  0  0  0  0  0  0  0  0  0
  -21.2810  -13.0790   22.4800 H   0  0  0  0  0  0  0  0  0  0  0  0
  -25.4560  -15.1100   20.3000 N   0  0  0  0  0  0  0  0  0  0  0  0
  -24.7290  -15.7840   20.5090 H   0  0  0  0  0  0  0  0  0  0  0  0
  -26.3200  -15.5420   19.9960 H   0  0  0  0  0  0  0  0  0  0  0  0
  -28.5240  -17.4750   21.4520 O   0  0  0  0  0  0  0  0  0  0  0  0
  -28.3610  -18.4080   21.4220 H   0  0  0  0  0  0  0  0  0  0  0  0
  -28.4580  -23.4430   20.0120 C   0  0  0  0  0  2  0  0  0  0  0  0
  -28.4430  -24.8860   19.2240 C   0  0  0  0  0  2  0  0  0  0  0  0
  -28.3450  -26.2670   19.8320 O   0  0  0  0  0  0  0  0  0  0  0  0
  -24.5750  -31.5820   23.0220 C   0  0  0  0  0  0  0  0  0  0  0  0
  -27.2070  -27.1110   19.7880 C   0  0  0  0  0  0  0  0  0  0  0  0
  -23.3760  -30.2370   21.3350 C   0  0  0  0  0  3  0  0  0  0  0  0
  -24.8320  -28.7430   19.8460 C   0  0  0  0  0  0  0  0  0  0  0  0
  -25.9190  -30.5600   21.1660 C   0  0  0  0  0  2  0  0  0  0  0  0
  -26.0020  -29.2070   20.4590 C   0  0  0  0  0  0  0  0  0  0  0  0
  -27.1870  -28.4050   20.4160 C   0  0  0  0  0  3  0  0  0  0  0  0
  -26.0030  -26.7100   19.1620 C   0  0  0  0  0  3  0  0  0  0  0  0
  -24.8380  -27.5040   19.1890 C   0  0  0  0  0  3  0  0  0  0  0  0
  -23.5920  -29.6130   19.9310 C   0  0  0  0  0  2  0  0  0  0  0  0
  -24.6420  -30.8110   21.8960 N   0  0  0  0  0  0  0  0  0  0  0  0
  -23.4900  -31.8370   23.5670 O   0  0  0  0  0  0  0  0  0  0  0  0
  -22.7190  -29.1840   22.2600 C   0  0  0  0  0  0  0  0  0  0  0  0
  -21.3900  -29.0210   22.1440 N   0  0  0  0  0  0  0  0  0  0  0  0
  -23.4040  -28.5200   23.0410 O   0  0  0  0  0  0  0  0  0  0  0  0
  -20.8990  -29.6090   21.4860 H   0  0  0  0  0  0  0  0  0  0  0  0
  -18.0080  -27.8410   22.6570 C   0  0  0  0  0  0  0  0  0  0  0  0
  -20.5750  -28.0550   22.8830 C   0  0  0  0  0  3  0  0  0  0  0  0
  -20.6450  -26.6550   22.2310 C   0  0  0  0  0  2  0  0  0  0  0  0
  -19.5170  -26.3980   21.2260 C   0  0  0  0  0  2  0  0  0  0  0  0
  -18.1520  -26.5270   21.9080 C   0  0  0  0  0  2  0  0  0  0  0  0
  -19.1460  -28.5670   23.1010 C   0  0  0  0  0  0  0  0  0  0  0  0
  -18.9570  -29.7990   23.7620 C   0  0  0  0  0  3  0  0  0  0  0  0
  -17.6630  -30.3050   23.9850 C   0  0  0  0  0  3  0  0  0  0  0  0
  -16.5400  -29.5750   23.5580 C   0  0  0  0  0  3  0  0  0  0  0  0
  -16.7120  -28.3450   22.9000 C   0  0  0  0  0  3  0  0  0  0  0  0
  -25.8550  -32.1990   23.6660 C   0  0  0  0  0  3  0  0  0  0  0  0
  -25.5330  -33.5780   24.0630 N   0  0  0  0  0  0  0  0  0  0  0  0
  -25.8580  -34.6710   23.3590 C   0  0  0  0  0  0  0  0  0  0  0  0
  -26.5320  -34.6240   22.3270 O   0  0  0  0  0  0  0  0  0  0  0  0
  -24.9340  -33.6880   24.8670 H   0  0  0  0  0  0  0  0  0  0  0  0
  -24.1200  -36.4700   23.0860 C   0  0  0  0  0  1  0  0  0  0  0  0
  -25.3570  -36.0310   23.8850 C   0  0  0  0  0  3  0  0  0  0  0  0
  -27.4750  -36.8850   24.7850 C   0  0  0  0  0  1  0  0  0  0  0  0
  -26.3830  -37.0950   23.8380 N   0  0  0  0  0  0  0  0  0  0  0  0
  -25.9690  -38.0040   24.0270 H   0  0  0  0  0  0  0  0  0  0  0  0
  -26.3830  -31.3780   24.9060 C   0  0  1  0  0  0  0  0  0  0  0  0
  -25.2970  -31.0900   25.9690 C   0  0  0  0  0  1  0  0  0  0  0  0
  -26.9710  -30.0210   24.4580 C   0  0  0  0  0  1  0  0  0  0  0  0
  -27.5350  -32.1480   25.5950 C   0  0  0  0  0  1  0  0  0  0  0  0
  2  1  1  0
  3  1  2  0
  3  7  1  0
  4  8  1  0
  4  2  2  0
  5  3  1  0
  6  5  2  0
  6  4  1  0
  9  5  1  0
 10  9  1  0
 10 12  1  0
 11 12  2  0
 12 49  1  0
 13 19  1  0
 13 11  2  0
 14 19  1  0
 15 16  1  0
 15 14  1  0
 17 16  1  0
 17 24  1  0
 17 18  1  0
 19 18  1  0
 20 13  2  0
 21 22  2  0
 22 41  1  0
 23 22  1  0
 23 26  1  0
 24 25  1  0
 24 21  1  0
 25 23  2  0
 26 27  1  0
 27 28  2  0
 29 32  1  0
 29 28  1  0
 30 29  2  0
 31 30  1  0
 31 26  2  0
 32 33  1  0
 33 34  1  0
 34 35  2  0
 36 35  1  0
 36 40  1  0
 37 36  2  0
 38 33  2  0
 38 37  1  0
 39 38  1  0
 41 42  1  0
 42 45  1  0
 42 44  1  0
 43 41  2  0
 46 21  1  0
 46 47  1  0
 48 46  1  0
 50 49  1  0
 51  6  1  0
 52 53  1  0
 52 51  1  0
 54 65  2  0
 55 53  1  0
 55 60  1  0
 56 64  1  0
 56 66  1  0
 57 63  1  0
 57 59  1  0
 58 64  1  0
 59 58  1  0
 60 59  2  0
 61 62  1  0
 61 55  2  0
 62 57  2  0
 63 56  1  0
 64 54  1  0
 66 68  2  0
 67 66  1  0
 69 67  1  0
 70 79  2  0
 70 75  1  0
 71 67  1  0
 71 75  1  0
 72 71  1  0
 73 74  1  0
 73 72  1  0
 74 70  1  0
 75 76  2  0
 76 77  1  0
 78 77  2  0
 79 78  1  0
 80 54  1  0
 80 81  1  0
 80 90  1  0
 81 84  1  0
 82 86  1  0
 82 81  1  0
 83 82  2  0
 86 85  1  0
 88 86  1  0
 88 89  1  0
 88 87  1  0
 90 93  1  1
 90 91  1  0
 92 90  1  0
M  ISO  4  11 100  13 100  52 101  53 101
M  END
>  <TORSDO>  (32) 
F 22

>  <SCORE>  (32) 
-11.790

>  <name>  (32) 
31

>  <ligand_id>  (32) 
31

>  <original_smiles>  (32) 
[H]OC(=C([H])C(=O)N1C([H])([H])C([H])([H])C([H])([H])C([H])(n2nc(-c3c([H])c([H])c(Oc4c([H])c([H])c(F)c([H])c4F)c([H])c3[H])c(C(=O)N([H])[H])c2N([H])[H])C1([H])[H])C([H])([H])C([H])([H])c1c(C([H])([H])[H])c([H])c([H])c(C([H])([H])[H])c1C([H])([H])C([H])([H])Oc1c([H])c([H])c2c(c1[H])C([H])([H])N(C(=O)C([H])(N([H])C(=O)C([H])(N([H])C([H])([H])[H])C([H])([H])[H])C(C([H])([H])[H])(C([H])([H])[H])C([H])([H])[H])C([H])(C(=O)N([H])C1([H])c3c([H])c([H])c([H])c([H])c3C([H])([H])C([H])([H])C1([H])[H])C2([H])[H]

>  <smiles>  (32) 
[H]OC(=C([H])C(=O)N1C([H])([H])C([H])([H])C([H])([H])C([H])(n2nc(-c3c([H])c([H])c(Oc4c([H])c([H])c(F)c([H])c4F)c([H])c3[H])c(C(=O)N([H])[H])c2N([H])[H])C1([H])[H])C([H])([H])C([H])([H])c1c(C([H])([H])[H])c([H])c([H])c(C([H])([H])[H])c1C([H])([H])C([H])([H])Oc1c([H])c([H])c2c(c1[H])C([H])([H])N(C(=O)C([H])(N([H])C(=O)C([H])(N([H])C([H])([H])[H])C([H])([H])[H])C(C([H])([H])[H])(C([H])([H])[H])C([H])([H])[H])C([H])(C(=O)N([H])C1([H])c3c([H])c([H])c([H])c([H])c3C([H])([H])C([H])([H])C1([H])[H])C2([H])[H]

$$$$
32:0:0
     RDKit          3D

 88 96  0  0  1  0  0  0  0  0999 V2000
  -28.5070  -20.3580   21.0780 C   0  0  0  0  0  3  0  0  0  0  0  0
  -28.1050  -21.7890   21.0980 C   0  0  0  0  0  3  0  0  0  0  0  0
  -29.5910  -22.2590   19.4120 C   0  0  0  0  0  3  0  0  0  0  0  0
  -29.5050  -19.7320   20.2270 C   0  0  0  0  0  0  0  0  0  0  0  0
  -28.5900  -22.8840   20.2640 C   0  0  0  0  0  0  0  0  0  0  0  0
  -30.0360  -20.8260   19.4030 C   0  0  0  0  0  0  0  0  0  0  0  0
  -30.0410  -18.1270   20.1340 C   0  0  0  0  0  3  0  0  0  0  0  0
  -29.6830  -16.7360   20.4130 C   0  0  0  0  0  3  0  0  0  0  0  0
  -30.4810  -15.3480   20.2020 C   0  0  0  0  0  0  0  0  0  0  0  0
  -30.4100  -12.9090   19.3460 C   0  0  0  0  0  2  0  0  0  0  0  0
  -29.4690  -12.7500   18.1250 C   0  0  0  0  0  2  0  0  0  0  0  0
  -28.0310  -12.4630   18.5900 C   0  0  0  0  0  2  0  0  0  0  0  0
  -27.5970  -13.4200   19.7250 C   0  0  0  0  0  3  0  0  0  0  0  0
  -28.6650  -13.5700   20.8330 C   0  0  0  0  0  2  0  0  0  0  0  0
  -29.9050  -14.0480   20.1960 N   0  0  0  0  0  0  0  0  0  0  0  0
  -31.6830  -15.3280   19.9030 O   0  0  0  0  0  0  0  0  0  0  0  0
  -25.2420  -13.9530   20.5500 C   0  0  0  0  0  0  0  0  0  0  0  0
  -24.1880  -13.1670   20.9270 C   0  0  0  0  0  0  0  0  0  0  0  0
  -24.6560  -11.8170   20.8540 C   0  0  0  0  0  0  0  0  0  0  0  0
  -26.2780  -13.0880   20.2600 N   0  0  0  0  0  0  0  0  0  0  0  0
  -25.9390  -11.7930   20.5080 N   0  0  0  0  0  0  0  0  0  0  0  0
  -23.9310  -10.5510   21.0360 C   0  0  0  0  0  0  0  0  0  0  0  0
  -24.3720   -9.5740   21.9580 C   0  0  0  0  0  3  0  0  0  0  0  0
  -23.6500   -8.3740   22.1310 C   0  0  0  0  0  3  0  0  0  0  0  0
  -22.4730   -8.1400   21.3810 C   0  0  0  0  0  0  0  0  0  0  0  0
  -22.0510   -9.1040   20.4490 C   0  0  0  0  0  3  0  0  0  0  0  0
  -22.7730  -10.2970   20.2730 C   0  0  0  0  0  3  0  0  0  0  0  0
  -21.7230   -6.9920   21.4610 O   0  0  0  0  0  0  0  0  0  0  0  0
  -21.6580   -6.2530   22.6160 C   0  0  0  0  0  0  0  0  0  0  0  0
  -21.1760   -6.8020   23.8240 C   0  0  0  0  0  3  0  0  0  0  0  0
  -21.0610   -5.9890   24.9690 C   0  0  0  0  0  3  0  0  0  0  0  0
  -21.4170   -4.6270   24.9070 C   0  0  0  0  0  0  0  0  0  0  0  0
  -21.8900   -4.0780   23.7000 C   0  0  0  0  0  3  0  0  0  0  0  0
  -22.0090   -4.8890   22.5580 C   0  0  0  0  0  0  0  0  0  0  0  0
  -22.4460   -4.3480   21.3950 F   0  0  0  0  0  0  0  0  0  0  0  0
  -21.2980   -3.8440   26.0040 F   0  0  0  0  0  0  0  0  0  0  0  0
  -22.7970  -13.6370   21.2400 C   0  0  0  0  0  0  0  0  0  0  0  0
  -22.0910  -12.9300   22.1150 N   0  0  0  0  0  0  0  0  0  0  0  0
  -22.3460  -14.6670   20.7430 O   0  0  0  0  0  0  0  0  0  0  0  0
  -22.4640  -12.0940   22.5390 H   0  0  0  0  0  0  0  0  0  0  0  0
  -21.1600  -13.2350   22.3650 H   0  0  0  0  0  0  0  0  0  0  0  0
  -25.3990  -15.3280   20.4010 N   0  0  0  0  0  0  0  0  0  0  0  0
  -24.6350  -15.9790   20.5440 H   0  0  0  0  0  0  0  0  0  0  0  0
  -26.2350  -15.7740   20.0480 H   0  0  0  0  0  0  0  0  0  0  0  0
  -31.8550  -21.3840   17.8930 C   0  0  0  0  0  1  0  0  0  0  0  0
  -31.0350  -20.4110   18.5430 O   0  0  0  0  0  0  0  0  0  0  0  0
  -27.7980  -24.4290   20.1200 C   0  0  0  0  0  2  0  0  0  0  0  0
  -28.1780  -26.0040   20.2860 O   0  0  0  0  0  0  0  0  0  0  0  0
  -24.6360  -31.9380   23.2650 C   0  0  0  0  0  0  0  0  0  0  0  0
  -27.1760  -27.1020   20.2170 C   0  0  0  0  0  0  0  0  0  0  0  0
  -23.4290  -30.5540   21.6220 C   0  0  0  0  0  3  0  0  0  0  0  0
  -24.8740  -28.9640   20.1860 C   0  0  0  0  0  0  0  0  0  0  0  0
  -25.9950  -30.7710   21.4680 C   0  0  0  0  0  2  0  0  0  0  0  0
  -26.0620  -29.3700   20.8050 C   0  0  0  0  0  0  0  0  0  0  0  0
  -27.2090  -28.4580   20.7990 C   0  0  0  0  0  3  0  0  0  0  0  0
  -25.9600  -26.8490   19.5420 C   0  0  0  0  0  3  0  0  0  0  0  0
  -24.8480  -27.7260   19.5290 C   0  0  0  0  0  3  0  0  0  0  0  0
  -23.6540  -29.8800   20.2420 C   0  0  0  0  0  2  0  0  0  0  0  0
  -24.7060  -31.1140   22.1720 N   0  0  0  0  0  0  0  0  0  0  0  0
  -23.5500  -32.2270   23.7950 O   0  0  0  0  0  0  0  0  0  0  0  0
  -22.7360  -29.5540   22.5860 C   0  0  0  0  0  0  0  0  0  0  0  0
  -21.4090  -29.3800   22.4540 N   0  0  0  0  0  0  0  0  0  0  0  0
  -23.4000  -28.9320   23.4200 O   0  0  0  0  0  0  0  0  0  0  0  0
  -20.9260  -29.9290   21.7550 H   0  0  0  0  0  0  0  0  0  0  0  0
  -18.0290  -28.1510   22.9450 C   0  0  0  0  0  0  0  0  0  0  0  0
  -20.5860  -28.4410   23.2250 C   0  0  0  0  0  3  0  0  0  0  0  0
  -20.7030  -27.0080   22.6590 C   0  0  0  0  0  2  0  0  0  0  0  0
  -19.6120  -26.6720   21.6360 C   0  0  0  0  0  2  0  0  0  0  0  0
  -18.2240  -26.8050   22.2690 C   0  0  0  0  0  2  0  0  0  0  0  0
  -19.1390  -28.9270   23.3790 C   0  0  0  0  0  0  0  0  0  0  0  0
  -18.9030  -30.1860   23.9730 C   0  0  0  0  0  3  0  0  0  0  0  0
  -17.5920  -30.6740   24.1320 C   0  0  0  0  0  3  0  0  0  0  0  0
  -16.4980  -29.8990   23.7120 C   0  0  0  0  0  3  0  0  0  0  0  0
  -16.7180  -28.6380   23.1270 C   0  0  0  0  0  3  0  0  0  0  0  0
  -25.9130  -32.5700   23.8950 C   0  0  0  0  0  3  0  0  0  0  0  0
  -26.4120  -31.8040   25.1820 C   0  0  1  0  0  0  0  0  0  0  0  0
  -25.3100  -31.5870   26.2450 C   0  0  0  0  0  1  0  0  0  0  0  0
  -26.9820  -30.4150   24.8150 C   0  0  0  0  0  1  0  0  0  0  0  0
  -27.5680  -32.5890   25.8460 C   0  0  0  0  0  1  0  0  0  0  0  0
  -25.6080  -33.9730   24.2240 N   0  0  0  0  0  0  0  0  0  0  0  0
  -25.9180  -35.0270   23.4590 C   0  0  0  0  0  0  0  0  0  0  0  0
  -26.5580  -34.9200   22.4090 O   0  0  0  0  0  0  0  0  0  0  0  0
  -25.0370  -34.1280   25.0420 H   0  0  0  0  0  0  0  0  0  0  0  0
  -24.1750  -36.8240   23.1670 C   0  0  0  0  0  1  0  0  0  0  0  0
  -25.4480  -36.4200   23.9290 C   0  0  0  0  0  3  0  0  0  0  0  0
  -27.6120  -37.3190   24.6700 C   0  0  0  0  0  1  0  0  0  0  0  0
  -26.4730  -37.4760   23.7700 N   0  0  0  0  0  0  0  0  0  0  0  0
  -26.0690  -38.3960   23.9300 H   0  0  0  0  0  0  0  0  0  0  0  0
  1  2  1  0
  3  5  1  0
  4  1  2  0
  5  2  2  0
  6  3  2  0
  6  4  1  0
  7  4  1  0
  7  8  2  0
  9  8  1  0
 10 15  1  0
 11 12  1  0
 11 10  1  0
 13 12  1  0
 13 20  1  0
 13 14  1  0
 15  9  1  0
 15 14  1  0
 16  9  2  0
 17 18  2  0
 18 37  1  0
 19 18  1  0
 19 22  1  0
 20 21  1  0
 20 17  1  0
 21 19  2  0
 22 23  1  0
 23 24  2  0
 25 28  1  0
 25 24  1  0
 26 25  2  0
 27 26  1  0
 27 22  2  0
 28 29  1  0
 29 30  1  0
 30 31  2  0
 32 31  1  0
 32 36  1  0
 33 32  2  0
 34 29  2  0
 34 33  1  0
 35 34  1  0
 37 38  1  0
 38 41  1  0
 38 40  1  0
 39 37  2  0
 42 43  1  0
 42 17  1  0
 44 42  1  0
 45 46  1  0
 46  6  1  0
 47  5  1  0
 47 48  1  0
 49 60  2  0
 50 48  1  0
 50 55  1  0
 51 59  1  0
 51 61  1  0
 52 58  1  0
 52 54  1  0
 53 59  1  0
 54 53  1  0
 55 54  2  0
 56 50  2  0
 57 56  1  0
 57 52  2  0
 58 51  1  0
 59 49  1  0
 61 63  2  0
 62 61  1  0
 64 62  1  0
 65 74  2  0
 65 70  1  0
 66 62  1  0
 66 70  1  0
 67 66  1  0
 68 69  1  0
 68 67  1  0
 69 65  1  0
 70 71  2  0
 71 72  1  0
 73 72  2  0
 74 73  1  0
 75 49  1  0
 75 80  1  0
 75 76  1  0
 76 79  1  1
 76 77  1  0
 78 76  1  0
 80 83  1  0
 81 85  1  0
 81 80  1  0
 82 81  2  0
 85 84  1  0
 87 85  1  0
 87 88  1  0
 87 86  1  0
M  ISO  4   8 100   9 100  47 101  48 101
M  END
>  <TORSDO>  (33) 
F 19

>  <SCORE>  (33) 
-15.077

>  <name>  (33) 
32

>  <ligand_id>  (33) 
32

>  <original_smiles>  (33) 
[H]C(C(=O)N1C([H])([H])C([H])([H])C([H])([H])C([H])(n2nc(-c3c([H])c([H])c(Oc4c([H])c([H])c(F)c([H])c4F)c([H])c3[H])c(C(=O)N([H])[H])c2N([H])[H])C1([H])[H])=C([H])c1c([H])c([H])c(C([H])([H])Oc2c([H])c([H])c3c(c2[H])C([H])([H])N(C(=O)C([H])(N([H])C(=O)C([H])(N([H])C([H])([H])[H])C([H])([H])[H])C(C([H])([H])[H])(C([H])([H])[H])C([H])([H])[H])C([H])(C(=O)N([H])C2([H])c4c([H])c([H])c([H])c([H])c4C([H])([H])C([H])([H])C2([H])[H])C3([H])[H])c([H])c1OC([H])([H])[H]

>  <smiles>  (33) 
[H]C(C(=O)N1C([H])([H])C([H])([H])C([H])([H])C([H])(n2nc(-c3c([H])c([H])c(Oc4c([H])c([H])c(F)c([H])c4F)c([H])c3[H])c(C(=O)N([H])[H])c2N([H])[H])C1([H])[H])=C([H])c1c([H])c([H])c(C([H])([H])Oc2c([H])c([H])c3c(c2[H])C([H])([H])N(C(=O)C([H])(N([H])C(=O)C([H])(N([H])C([H])([H])[H])C([H])([H])[H])C(C([H])([H])[H])(C([H])([H])[H])C([H])([H])[H])C([H])(C(=O)N([H])C2([H])c4c([H])c([H])c([H])c([H])c4C([H])([H])C([H])([H])C2([H])[H])C3([H])[H])c([H])c1OC([H])([H])[H]

$$$$
33:0:0
     RDKit          3D

 90 98  0  0  1  0  0  0  0  0999 V2000
  -29.5860  -21.7550   19.0740 C   0  0  0  0  0  3  0  0  0  0  0  0
  -28.8380  -23.2220   21.1740 C   0  0  0  0  0  3  0  0  0  0  0  0
  -29.6540  -20.7560   20.1830 C   0  0  0  0  0  0  0  0  0  0  0  0
  -29.2230  -23.2420   18.9940 C   0  0  0  0  0  0  0  0  0  0  0  0
  -29.2120  -21.7110   21.2580 C   0  0  0  0  0  0  0  0  0  0  0  0
  -28.7770  -24.2060   20.0420 C   0  0  0  0  0  0  0  0  0  0  0  0
  -29.3810  -23.8390   17.6080 C   0  0  0  0  0  1  0  0  0  0  0  0
  -30.0930  -17.5360   20.4490 C   0  0  0  0  0  3  0  0  0  0  0  0
  -30.2700  -19.0260   20.0730 C   0  0  0  0  0  0  0  0  0  0  0  0
  -30.8880  -16.0150   20.2350 C   0  0  0  0  0  0  0  0  0  0  0  0
  -30.9690  -13.4750   19.3840 C   0  0  0  0  0  2  0  0  0  0  0  0
  -30.0810  -13.1300   18.1510 C   0  0  0  0  0  2  0  0  0  0  0  0
  -28.6500  -12.7760   18.5820 C   0  0  0  0  0  2  0  0  0  0  0  0
  -28.1460  -13.7410   19.6770 C   0  0  0  0  0  3  0  0  0  0  0  0
  -29.1730  -14.0190   20.8010 C   0  0  0  0  0  2  0  0  0  0  0  0
  -30.3670  -14.6420   20.1830 N   0  0  0  0  0  0  0  0  0  0  0  0
  -32.1100  -15.9170   20.0000 O   0  0  0  0  0  0  0  0  0  0  0  0
  -25.8020  -14.2490   20.5070 C   0  0  0  0  0  0  0  0  0  0  0  0
  -24.7380  -13.4610   20.8430 C   0  0  0  0  0  0  0  0  0  0  0  0
  -25.1930  -12.1110   20.7260 C   0  0  0  0  0  0  0  0  0  0  0  0
  -26.8330  -13.3840   20.1940 N   0  0  0  0  0  0  0  0  0  0  0  0
  -26.4820  -12.0860   20.3950 N   0  0  0  0  0  0  0  0  0  0  0  0
  -24.4510  -10.8480   20.8510 C   0  0  0  0  0  0  0  0  0  0  0  0
  -24.8290   -9.8560   21.7810 C   0  0  0  0  0  3  0  0  0  0  0  0
  -24.0840   -8.6620   21.8980 C   0  0  0  0  0  3  0  0  0  0  0  0
  -22.9450   -8.4520   21.0840 C   0  0  0  0  0  0  0  0  0  0  0  0
  -22.5870   -9.4330   20.1430 C   0  0  0  0  0  3  0  0  0  0  0  0
  -23.3330  -10.6180   20.0240 C   0  0  0  0  0  3  0  0  0  0  0  0
  -22.1750   -7.3130   21.1110 O   0  0  0  0  0  0  0  0  0  0  0  0
  -21.9560   -6.6200   22.2730 C   0  0  0  0  0  0  0  0  0  0  0  0
  -21.3440   -7.2200   23.3960 C   0  0  0  0  0  3  0  0  0  0  0  0
  -21.0730   -6.4520   24.5460 C   0  0  0  0  0  3  0  0  0  0  0  0
  -21.4020   -5.0830   24.5720 C   0  0  0  0  0  0  0  0  0  0  0  0
  -22.0060   -4.4830   23.4540 C   0  0  0  0  0  3  0  0  0  0  0  0
  -22.2780   -5.2480   22.3070 C   0  0  0  0  0  0  0  0  0  0  0  0
  -22.8410   -4.6590   21.2250 F   0  0  0  0  0  0  0  0  0  0  0  0
  -21.1360   -4.3430   25.6740 F   0  0  0  0  0  0  0  0  0  0  0  0
  -23.3500  -13.9380   21.1500 C   0  0  0  0  0  0  0  0  0  0  0  0
  -22.6260  -13.2170   21.9980 N   0  0  0  0  0  0  0  0  0  0  0  0
  -22.9170  -14.9870   20.6740 O   0  0  0  0  0  0  0  0  0  0  0  0
  -22.9900  -12.3690   22.4060 H   0  0  0  0  0  0  0  0  0  0  0  0
  -21.6930  -13.5170   22.2410 H   0  0  0  0  0  0  0  0  0  0  0  0
  -25.9730  -15.6270   20.4100 N   0  0  0  0  0  0  0  0  0  0  0  0
  -25.2100  -16.2740   20.5800 H   0  0  0  0  0  0  0  0  0  0  0  0
  -26.8130  -16.0840   20.0800 H   0  0  0  0  0  0  0  0  0  0  0  0
  -31.3980  -19.1650   19.3670 O   0  0  0  0  0  0  0  0  0  0  0  0
  -31.5340  -20.0940   19.2310 H   0  0  0  0  0  0  0  0  0  0  0  0
  -29.4810  -21.8460   23.6530 C   0  0  0  0  0  1  0  0  0  0  0  0
  -29.2120  -21.0790   22.4850 O   0  0  0  0  0  0  0  0  0  0  0  0
  -28.6400  -25.8270   19.9300 O   0  0  0  0  0  0  0  0  0  0  0  0
  -24.9990  -31.8430   23.2760 C   0  0  0  0  0  0  0  0  0  0  0  0
  -27.6000  -26.9850   19.9850 C   0  0  0  0  0  0  0  0  0  0  0  0
  -23.8280  -30.5260   21.5620 C   0  0  0  0  0  3  0  0  0  0  0  0
  -25.2960  -28.9840   20.0490 C   0  0  0  0  0  0  0  0  0  0  0  0
  -26.4020  -30.7150   21.4430 C   0  0  0  0  0  2  0  0  0  0  0  0
  -26.4850  -29.3210   20.7070 C   0  0  0  0  0  0  0  0  0  0  0  0
  -27.6170  -28.3510   20.6430 C   0  0  0  0  0  3  0  0  0  0  0  0
  -26.3750  -26.8640   19.2780 C   0  0  0  0  0  3  0  0  0  0  0  0
  -25.2790  -27.7840   19.3150 C   0  0  0  0  0  3  0  0  0  0  0  0
  -24.0750  -29.9150   20.1510 C   0  0  0  0  0  2  0  0  0  0  0  0
  -25.1000  -31.0590   22.1480 N   0  0  0  0  0  0  0  0  0  0  0  0
  -23.9030  -32.0950   23.8070 O   0  0  0  0  0  0  0  0  0  0  0  0
  -23.1300  -29.4820   22.4740 C   0  0  0  0  0  0  0  0  0  0  0  0
  -21.7990  -29.3140   22.3420 N   0  0  0  0  0  0  0  0  0  0  0  0
  -23.7970  -28.8230   23.2750 O   0  0  0  0  0  0  0  0  0  0  0  0
  -21.3100  -29.8970   21.6770 H   0  0  0  0  0  0  0  0  0  0  0  0
  -18.4340  -28.0200   22.7930 C   0  0  0  0  0  0  0  0  0  0  0  0
  -20.9920  -28.3190   23.0590 C   0  0  0  0  0  3  0  0  0  0  0  0
  -21.1140  -26.9250   22.4010 C   0  0  0  0  0  2  0  0  0  0  0  0
  -20.0130  -26.6450   21.3710 C   0  0  0  0  0  2  0  0  0  0  0  0
  -18.6330  -26.7220   22.0290 C   0  0  0  0  0  2  0  0  0  0  0  0
  -19.5410  -28.7780   23.2620 C   0  0  0  0  0  0  0  0  0  0  0  0
  -19.2980  -29.9910   23.9420 C   0  0  0  0  0  3  0  0  0  0  0  0
  -17.9840  -30.4470   24.1560 C   0  0  0  0  0  3  0  0  0  0  0  0
  -16.8930  -29.6880   23.6970 C   0  0  0  0  0  3  0  0  0  0  0  0
  -17.1190  -28.4750   23.0220 C   0  0  0  0  0  3  0  0  0  0  0  0
  -26.2540  -32.4720   23.9540 C   0  0  0  0  0  3  0  0  0  0  0  0
  -26.7420  -31.6670   25.2230 C   0  0  1  0  0  0  0  0  0  0  0  0
  -25.6290  -31.4090   26.2650 C   0  0  0  0  0  1  0  0  0  0  0  0
  -27.3260  -30.2950   24.8190 C   0  0  0  0  0  1  0  0  0  0  0  0
  -27.8820  -32.4380   25.9260 C   0  0  0  0  0  1  0  0  0  0  0  0
  -25.9210  -33.8580   24.3400 N   0  0  0  0  0  0  0  0  0  0  0  0
  -26.2540  -34.9560   23.6460 C   0  0  0  0  0  0  0  0  0  0  0  0
  -26.9290  -34.9080   22.6150 O   0  0  0  0  0  0  0  0  0  0  0  0
  -25.3190  -33.9680   25.1430 H   0  0  0  0  0  0  0  0  0  0  0  0
  -24.5230  -36.7710   23.3910 C   0  0  0  0  0  1  0  0  0  0  0  0
  -25.7660  -36.3210   24.1760 C   0  0  0  0  0  3  0  0  0  0  0  0
  -27.8890  -37.1850   25.0620 C   0  0  0  0  0  1  0  0  0  0  0  0
  -26.7970  -37.3810   24.1120 N   0  0  0  0  0  0  0  0  0  0  0  0
  -26.3870  -38.2950   24.2800 H   0  0  0  0  0  0  0  0  0  0  0  0
  1  3  1  0
  2  5  1  0
  3  5  2  0
  4  1  2  0
  4  6  1  0
  5 49  1  0
  6  2  2  0
  7  4  1  0
  9  3  1  0
  9  8  2  0
 10  8  1  0
 11 16  1  0
 12 13  1  0
 12 11  1  0
 14 13  1  0
 14 21  1  0
 14 15  1  0
 16 10  1  0
 16 15  1  0
 17 10  2  0
 18 19  2  0
 19 38  1  0
 20 19  1  0
 20 23  1  0
 21 22  1  0
 21 18  1  0
 22 20  2  0
 23 24  1  0
 24 25  2  0
 26 29  1  0
 26 25  1  0
 27 26  2  0
 28 27  1  0
 28 23  2  0
 29 30  1  0
 30 35  2  0
 30 31  1  0
 31 32  2  0
 32 33  1  0
 33 37  1  0
 34 33  2  0
 35 34  1  0
 36 35  1  0
 38 39  1  0
 39 42  1  0
 39 41  1  0
 40 38  2  0
 43 18  1  0
 43 44  1  0
 45 43  1  0
 46  9  1  0
 47 46  1  0
 49 48  1  0
 50 52  1  0
 50  6  1  0
 51 62  2  0
 52 57  1  0
 53 61  1  0
 53 63  1  0
 54 60  1  0
 54 56  1  0
 55 61  1  0
 56 55  1  0
 57 56  2  0
 58 59  1  0
 58 52  2  0
 59 54  2  0
 60 53  1  0
 61 51  1  0
 63 65  2  0
 64 63  1  0
 66 64  1  0
 67 76  2  0
 67 72  1  0
 68 64  1  0
 68 72  1  0
 69 68  1  0
 70 71  1  0
 70 69  1  0
 71 67  1  0
 72 73  2  0
 73 74  1  0
 75 74  2  0
 76 75  1  0
 77 51  1  0
 77 82  1  0
 77 78  1  0
 78 81  1  1
 78 79  1  0
 80 78  1  0
 82 85  1  0
 83 87  1  0
 83 82  1  0
 84 83  2  0
 87 86  1  0
 89 87  1  0
 89 90  1  0
 89 88  1  0
M  ISO  4   6 101   8 100  10 100  50 101
M  END
>  <TORSDO>  (34) 
F 19

>  <SCORE>  (34) 
-13.649

>  <name>  (34) 
33

>  <ligand_id>  (34) 
33

>  <original_smiles>  (34) 
[H]OC(=C([H])C(=O)N1C([H])([H])C([H])([H])C([H])([H])C([H])(n2nc(-c3c([H])c([H])c(Oc4c([H])c([H])c(F)c([H])c4F)c([H])c3[H])c(C(=O)N([H])[H])c2N([H])[H])C1([H])[H])c1c([H])c(C([H])([H])[H])c(Oc2c([H])c([H])c3c(c2[H])C([H])([H])N(C(=O)C([H])(N([H])C(=O)C([H])(N([H])C([H])([H])[H])C([H])([H])[H])C(C([H])([H])[H])(C([H])([H])[H])C([H])([H])[H])C([H])(C(=O)N([H])C2([H])c4c([H])c([H])c([H])c([H])c4C([H])([H])C([H])([H])C2([H])[H])C3([H])[H])c([H])c1OC([H])([H])[H]

>  <smiles>  (34) 
[H]OC(=C([H])C(=O)N1C([H])([H])C([H])([H])C([H])([H])C([H])(n2nc(-c3c([H])c([H])c(Oc4c([H])c([H])c(F)c([H])c4F)c([H])c3[H])c(C(=O)N([H])[H])c2N([H])[H])C1([H])[H])c1c([H])c(C([H])([H])[H])c(Oc2c([H])c([H])c3c(c2[H])C([H])([H])N(C(=O)C([H])(N([H])C(=O)C([H])(N([H])C([H])([H])[H])C([H])([H])[H])C(C([H])([H])[H])(C([H])([H])[H])C([H])([H])[H])C([H])(C(=O)N([H])C2([H])c4c([H])c([H])c([H])c([H])c4C([H])([H])C([H])([H])C2([H])[H])C3([H])[H])c([H])c1OC([H])([H])[H]

$$$$
34:0:0
     RDKit          3D

 92100  0  0  1  0  0  0  0  0999 V2000
  -28.3980  -23.8640   22.5240 C   0  0  0  0  0  3  0  0  0  0  0  0
  -28.8530  -22.6540   21.9490 C   0  0  0  0  0  0  0  0  0  0  0  0
  -29.1540  -22.5590   20.5540 C   0  0  0  0  0  0  0  0  0  0  0  0
  -28.9630  -23.8560   19.8280 C   0  0  0  0  0  0  0  0  0  0  0  0
  -28.2640  -25.0700   21.8180 C   0  0  0  0  0  0  0  0  0  0  0  0
  -28.5270  -25.1470   20.4350 C   0  0  0  0  0  0  0  0  0  0  0  0
  -29.2500  -23.8720   18.3360 C   0  0  0  0  0  1  0  0  0  0  0  0
  -30.4680  -21.5420   23.5470 C   0  0  0  0  0  1  0  0  0  0  0  0
  -29.0510  -21.5290   22.9550 C   0  0  0  0  0  2  0  0  0  0  0  0
  -27.9350  -26.1890   22.5300 O   0  0  0  0  0  0  0  0  0  0  0  0
  -27.9530  -26.0500   23.4680 H   0  0  0  0  0  0  0  0  0  0  0  0
  -28.4800  -26.4820   19.8410 O   0  0  0  0  0  0  0  0  0  0  0  0
  -24.6870  -31.8620   23.1840 C   0  0  0  0  0  0  0  0  0  0  0  0
  -27.3770  -27.3920   19.9250 C   0  0  0  0  0  0  0  0  0  0  0  0
  -23.5120  -30.4990   21.4980 C   0  0  0  0  0  3  0  0  0  0  0  0
  -24.9910  -29.0290   19.9960 C   0  0  0  0  0  0  0  0  0  0  0  0
  -26.0500  -30.8570   21.3210 C   0  0  0  0  0  2  0  0  0  0  0  0
  -26.1580  -29.4960   20.6130 C   0  0  0  0  0  0  0  0  0  0  0  0
  -27.3540  -28.6930   20.5630 C   0  0  0  0  0  3  0  0  0  0  0  0
  -26.1790  -27.0100   19.2870 C   0  0  0  0  0  3  0  0  0  0  0  0
  -25.0090  -27.7980   19.3210 C   0  0  0  0  0  3  0  0  0  0  0  0
  -23.7380  -29.8850   20.0910 C   0  0  0  0  0  2  0  0  0  0  0  0
  -24.7690  -31.0930   22.0570 N   0  0  0  0  0  0  0  0  0  0  0  0
  -23.5990  -32.0920   23.7320 O   0  0  0  0  0  0  0  0  0  0  0  0
  -22.8730  -29.4340   22.4230 C   0  0  0  0  0  0  0  0  0  0  0  0
  -21.5480  -29.2400   22.3080 N   0  0  0  0  0  0  0  0  0  0  0  0
  -23.5720  -28.7840   23.2060 O   0  0  0  0  0  0  0  0  0  0  0  0
  -21.0420  -29.8190   21.6520 H   0  0  0  0  0  0  0  0  0  0  0  0
  -18.2020  -27.9320   22.7870 C   0  0  0  0  0  0  0  0  0  0  0  0
  -20.7550  -28.2500   23.0430 C   0  0  0  0  0  3  0  0  0  0  0  0
  -20.8880  -26.8470   22.4080 C   0  0  0  0  0  2  0  0  0  0  0  0
  -19.7870  -26.5380   21.3890 C   0  0  0  0  0  2  0  0  0  0  0  0
  -18.4080  -26.6180   22.0510 C   0  0  0  0  0  2  0  0  0  0  0  0
  -19.3040  -28.7060   23.2380 C   0  0  0  0  0  0  0  0  0  0  0  0
  -19.0580  -29.9350   23.8870 C   0  0  0  0  0  3  0  0  0  0  0  0
  -17.7410  -30.3940   24.0840 C   0  0  0  0  0  3  0  0  0  0  0  0
  -16.6530  -29.6170   23.6480 C   0  0  0  0  0  3  0  0  0  0  0  0
  -16.8850  -28.3860   23.0080 C   0  0  0  0  0  3  0  0  0  0  0  0
  -25.9530  -32.5080   23.8280 C   0  0  0  0  0  3  0  0  0  0  0  0
  -25.6040  -33.8810   24.2240 N   0  0  0  0  0  0  0  0  0  0  0  0
  -25.9230  -34.9810   23.5300 C   0  0  0  0  0  0  0  0  0  0  0  0
  -26.6100  -34.9480   22.5070 O   0  0  0  0  0  0  0  0  0  0  0  0
  -24.9930  -33.9780   25.0230 H   0  0  0  0  0  0  0  0  0  0  0  0
  -24.1690  -36.7610   23.2390 C   0  0  0  0  0  1  0  0  0  0  0  0
  -25.4000  -36.3330   24.0550 C   0  0  0  0  0  3  0  0  0  0  0  0
  -27.4960  -37.2050   24.9890 C   0  0  0  0  0  1  0  0  0  0  0  0
  -26.4150  -37.4080   24.0270 N   0  0  0  0  0  0  0  0  0  0  0  0
  -25.9910  -38.3120   24.2170 H   0  0  0  0  0  0  0  0  0  0  0  0
  -26.4970  -31.6970   25.0690 C   0  0  1  0  0  0  0  0  0  0  0  0
  -25.4150  -31.3750   26.1270 C   0  0  0  0  0  1  0  0  0  0  0  0
  -27.1210  -30.3560   24.6190 C   0  0  0  0  0  1  0  0  0  0  0  0
  -27.6250  -32.4950   25.7640 C   0  0  0  0  0  1  0  0  0  0  0  0
  -29.7230  -21.1470   19.8760 C   0  0  0  0  0  3  0  0  0  0  0  0
  -29.7270  -19.5720   20.5030 C   0  0  0  0  0  3  0  0  0  0  0  0
  -30.3050  -18.1580   19.7880 C   0  0  0  0  0  3  0  0  0  0  0  0
  -30.1430  -16.6090   20.4380 C   0  0  0  0  0  3  0  0  0  0  0  0
  -30.8680  -15.2090   19.9170 C   0  0  0  0  0  0  0  0  0  0  0  0
  -30.6770  -12.8820   18.9220 C   0  0  0  0  0  2  0  0  0  0  0  0
  -29.6850  -12.9050   17.7340 C   0  0  0  0  0  2  0  0  0  0  0  0
  -28.2340  -12.7200   18.2200 C   0  0  0  0  0  2  0  0  0  0  0  0
  -27.9070  -13.6070   19.4490 C   0  0  0  0  0  3  0  0  0  0  0  0
  -29.0150  -13.5500   20.5230 C   0  0  0  0  0  2  0  0  0  0  0  0
  -30.2740  -13.9470   19.8820 N   0  0  0  0  0  0  0  0  0  0  0  0
  -32.0180  -15.2840   19.4700 O   0  0  0  0  0  0  0  0  0  0  0  0
  -25.5620  -14.2030   20.2910 C   0  0  0  0  0  0  0  0  0  0  0  0
  -24.5100  -13.4350   20.7070 C   0  0  0  0  0  0  0  0  0  0  0  0
  -24.9600  -12.0810   20.6520 C   0  0  0  0  0  0  0  0  0  0  0  0
  -26.5880  -13.3180   20.0030 N   0  0  0  0  0  0  0  0  0  0  0  0
  -26.2380  -12.0350   20.2840 N   0  0  0  0  0  0  0  0  0  0  0  0
  -24.2310  -10.8250   20.8730 C   0  0  0  0  0  0  0  0  0  0  0  0
  -24.6320   -9.9020   21.8650 C   0  0  0  0  0  3  0  0  0  0  0  0
  -23.9030   -8.7110   22.0710 C   0  0  0  0  0  3  0  0  0  0  0  0
  -22.7570   -8.4330   21.2870 C   0  0  0  0  0  0  0  0  0  0  0  0
  -22.3760   -9.3460   20.2850 C   0  0  0  0  0  3  0  0  0  0  0  0
  -23.1060  -10.5270   20.0780 C   0  0  0  0  0  3  0  0  0  0  0  0
  -22.0020   -7.2920   21.4000 O   0  0  0  0  0  0  0  0  0  0  0  0
  -21.8270   -6.6600   22.6060 C   0  0  0  0  0  0  0  0  0  0  0  0
  -21.2350   -7.3130   23.7100 C   0  0  0  0  0  3  0  0  0  0  0  0
  -21.0120   -6.6050   24.9080 C   0  0  0  0  0  3  0  0  0  0  0  0
  -21.3670   -5.2460   25.0010 C   0  0  0  0  0  0  0  0  0  0  0  0
  -21.9510   -4.5940   23.9010 C   0  0  0  0  0  3  0  0  0  0  0  0
  -22.1770   -5.2980   22.7050 C   0  0  0  0  0  0  0  0  0  0  0  0
  -22.7190   -4.6580   21.6410 F   0  0  0  0  0  0  0  0  0  0  0  0
  -21.1460   -4.5640   26.1490 F   0  0  0  0  0  0  0  0  0  0  0  0
  -23.1290  -13.9230   21.0400 C   0  0  0  0  0  0  0  0  0  0  0  0
  -22.4410  -13.2440   21.9520 N   0  0  0  0  0  0  0  0  0  0  0  0
  -22.6690  -14.9430   20.5260 O   0  0  0  0  0  0  0  0  0  0  0  0
  -22.8260  -12.4210   22.3910 H   0  0  0  0  0  0  0  0  0  0  0  0
  -21.5160  -13.5530   22.2140 H   0  0  0  0  0  0  0  0  0  0  0  0
  -25.7270  -15.5730   20.1100 N   0  0  0  0  0  0  0  0  0  0  0  0
  -24.9680  -16.2310   20.2570 H   0  0  0  0  0  0  0  0  0  0  0  0
  -26.5630  -16.0110   19.7450 H   0  0  0  0  0  0  0  0  0  0  0  0
  2  1  1  0
  2  9  1  0
  3  2  2  0
  4  6  2  0
  4  3  1  0
  5  1  2  0
  5 10  1  0
  6  5  1  0
  7  4  1  0
  9  8  1  0
 10 11  1  0
 12 14  1  0
 12  6  1  0
 13 24  2  0
 14 19  1  0
 15 23  1  0
 15 25  1  0
 16 22  1  0
 16 18  1  0
 17 23  1  0
 18 17  1  0
 19 18  2  0
 20 21  1  0
 20 14  2  0
 21 16  2  0
 22 15  1  0
 23 13  1  0
 25 27  2  0
 26 25  1  0
 28 26  1  0
 29 38  2  0
 29 34  1  0
 30 26  1  0
 30 34  1  0
 31 30  1  0
 32 33  1  0
 32 31  1  0
 33 29  1  0
 34 35  2  0
 35 36  1  0
 37 36  2  0
 38 37  1  0
 39 13  1  0
 39 40  1  0
 39 49  1  0
 40 43  1  0
 41 45  1  0
 41 40  1  0
 42 41  2  0
 45 44  1  0
 47 45  1  0
 47 48  1  0
 47 46  1  0
 49 52  1  1
 49 50  1  0
 51 49  1  0
 53 54  2  0
 53  3  1  0
 55 56  2  0
 55 54  1  0
 57 56  1  0
 58 63  1  0
 59 60  1  0
 59 58  1  0
 61 60  1  0
 61 68  1  0
 61 62  1  0
 63 57  1  0
 63 62  1  0
 64 57  2  0
 65 66  2  0
 66 85  1  0
 67 66  1  0
 67 70  1  0
 68 69  1  0
 68 65  1  0
 69 67  2  0
 70 71  1  0
 71 72  2  0
 73 76  1  0
 73 72  1  0
 74 73  2  0
 75 74  1  0
 75 70  2  0
 76 77  1  0
 77 82  2  0
 77 78  1  0
 78 79  2  0
 79 80  1  0
 80 84  1  0
 81 80  2  0
 82 81  1  0
 83 82  1  0
 85 86  1  0
 86 89  1  0
 86 88  1  0
 87 85  2  0
 90 91  1  0
 90 65  1  0
 92 90  1  0
M  ISO  4   6 101  12 101  56 100  57 100
M  END
>  <TORSDO>  (35) 
F 22

>  <SCORE>  (35) 
-12.832

>  <name>  (35) 
34

>  <ligand_id>  (35) 
34

>  <original_smiles>  (35) 
[H]Oc1c([H])c(C([H])([H])C([H])([H])[H])c(C([H])([H])C([H])([H])C([H])([H])C([H])([H])C(=O)N2C([H])([H])C([H])([H])C([H])([H])C([H])(n3nc(-c4c([H])c([H])c(Oc5c([H])c([H])c(F)c([H])c5F)c([H])c4[H])c(C(=O)N([H])[H])c3N([H])[H])C2([H])[H])c(C([H])([H])[H])c1Oc1c([H])c([H])c2c(c1[H])C([H])([H])N(C(=O)C([H])(N([H])C(=O)C([H])(N([H])C([H])([H])[H])C([H])([H])[H])C(C([H])([H])[H])(C([H])([H])[H])C([H])([H])[H])C([H])(C(=O)N([H])C1([H])c3c([H])c([H])c([H])c([H])c3C([H])([H])C([H])([H])C1([H])[H])C2([H])[H]

>  <smiles>  (35) 
[H]Oc1c([H])c(C([H])([H])C([H])([H])[H])c(C([H])([H])C([H])([H])C([H])([H])C([H])([H])C(=O)N2C([H])([H])C([H])([H])C([H])([H])C([H])(n3nc(-c4c([H])c([H])c(Oc5c([H])c([H])c(F)c([H])c5F)c([H])c4[H])c(C(=O)N([H])[H])c3N([H])[H])C2([H])[H])c(C([H])([H])[H])c1Oc1c([H])c([H])c2c(c1[H])C([H])([H])N(C(=O)C([H])(N([H])C(=O)C([H])(N([H])C([H])([H])[H])C([H])([H])[H])C(C([H])([H])[H])(C([H])([H])[H])C([H])([H])[H])C([H])(C(=O)N([H])C1([H])c3c([H])c([H])c([H])c([H])c3C([H])([H])C([H])([H])C1([H])[H])C2([H])[H]

$$$$
35:0:0
     RDKit          3D

 96105  0  0  1  0  0  0  0  0999 V2000
  -29.1130  -22.0930   21.2440 C   0  0  0  0  0  3  0  0  0  0  0  0
  -27.5110  -21.9220   19.6230 C   0  0  0  0  0  3  0  0  0  0  0  0
  -28.4300  -21.1100   20.4180 C   0  0  0  0  0  0  0  0  0  0  0  0
  -28.0630  -24.3840   20.3780 C   0  0  0  0  0  0  0  0  0  0  0  0
  -28.9500  -23.5760   21.2190 C   0  0  0  0  0  0  0  0  0  0  0  0
  -27.3470  -23.3960   19.5720 C   0  0  0  0  0  0  0  0  0  0  0  0
  -29.7540  -24.2710   22.0630 F   0  0  0  0  0  0  0  0  0  0  0  0
  -26.4830  -23.8330   18.6260 F   0  0  0  0  0  0  0  0  0  0  0  0
  -31.4620  -19.0650   19.6010 C   0  0  0  0  0  3  0  0  0  0  0  0
  -30.6070  -19.5140   18.6560 C   0  0  0  0  0  0  0  0  0  0  0  0
  -31.0060  -18.3810   20.8180 C   0  0  0  0  0  0  0  0  0  0  0  0
  -29.0820  -19.3330   18.7100 C   0  0  0  0  0  2  0  0  0  0  0  0
  -28.6200  -19.3880   20.1680 C   0  0  0  0  0  3  0  0  0  0  0  0
  -29.5410  -18.0080   20.8320 C   0  0  0  0  0  3  0  0  0  0  0  0
  -31.7600  -18.0610   21.7430 O   0  0  0  0  0  0  0  0  0  0  0  0
  -30.3290  -15.2160   20.3080 C   0  0  0  0  0  0  0  0  0  0  0  0
  -30.3690  -12.8020   19.3590 C   0  0  0  0  0  2  0  0  0  0  0  0
  -29.4450  -12.6460   18.1260 C   0  0  0  0  0  2  0  0  0  0  0  0
  -27.9930  -12.3810   18.5780 C   0  0  0  0  0  2  0  0  0  0  0  0
  -27.5600  -13.3250   19.7320 C   0  0  0  0  0  3  0  0  0  0  0  0
  -28.6070  -13.3940   20.8580 C   0  0  0  0  0  2  0  0  0  0  0  0
  -29.8260  -13.9040   20.2290 N   0  0  0  0  0  0  0  0  0  0  0  0
  -31.5490  -15.2920   20.0860 O   0  0  0  0  0  0  0  0  0  0  0  0
  -29.4540  -16.3960   20.4440 N   0  0  0  0  0  0  0  0  0  0  0  0
  -28.5010  -16.0700   20.4730 H   0  0  0  0  0  0  0  0  0  0  0  0
  -25.2140  -13.9070   20.5380 C   0  0  0  0  0  0  0  0  0  0  0  0
  -24.1510  -13.1290   20.9180 C   0  0  0  0  0  0  0  0  0  0  0  0
  -24.6100  -11.7780   20.8560 C   0  0  0  0  0  0  0  0  0  0  0  0
  -26.2390  -13.0210   20.2540 N   0  0  0  0  0  0  0  0  0  0  0  0
  -25.8900  -11.7350   20.5130 N   0  0  0  0  0  0  0  0  0  0  0  0
  -23.8810  -10.5150   21.0390 C   0  0  0  0  0  0  0  0  0  0  0  0
  -24.3110   -9.5450   21.9690 C   0  0  0  0  0  3  0  0  0  0  0  0
  -23.5830   -8.3490   22.1450 C   0  0  0  0  0  3  0  0  0  0  0  0
  -22.4110   -8.1140   21.3850 C   0  0  0  0  0  0  0  0  0  0  0  0
  -22.0020   -9.0720   20.4400 C   0  0  0  0  0  3  0  0  0  0  0  0
  -22.7320  -10.2620   20.2640 C   0  0  0  0  0  3  0  0  0  0  0  0
  -21.6580   -6.9670   21.4610 O   0  0  0  0  0  0  0  0  0  0  0  0
  -21.5790   -6.2350   22.6180 C   0  0  0  0  0  0  0  0  0  0  0  0
  -21.0940   -6.7940   23.8210 C   0  0  0  0  0  3  0  0  0  0  0  0
  -20.9660   -5.9870   24.9710 C   0  0  0  0  0  3  0  0  0  0  0  0
  -21.3110   -4.6240   24.9160 C   0  0  0  0  0  0  0  0  0  0  0  0
  -21.7920   -4.0660   23.7190 C   0  0  0  0  0  3  0  0  0  0  0  0
  -21.9230   -4.8690   22.5750 C   0  0  0  0  0  0  0  0  0  0  0  0
  -22.3650   -4.3200   21.4180 F   0  0  0  0  0  0  0  0  0  0  0  0
  -21.1820   -3.8500   26.0210 F   0  0  0  0  0  0  0  0  0  0  0  0
  -22.7630  -13.6110   21.2150 C   0  0  0  0  0  0  0  0  0  0  0  0
  -22.0450  -12.9010   22.0790 N   0  0  0  0  0  0  0  0  0  0  0  0
  -22.3250  -14.6500   20.7240 O   0  0  0  0  0  0  0  0  0  0  0  0
  -22.4130  -12.0630   22.5050 H   0  0  0  0  0  0  0  0  0  0  0  0
  -21.1120  -13.2040   22.3190 H   0  0  0  0  0  0  0  0  0  0  0  0
  -25.3790  -15.2770   20.3800 N   0  0  0  0  0  0  0  0  0  0  0  0
  -24.6110  -15.9210   20.5210 H   0  0  0  0  0  0  0  0  0  0  0  0
  -26.1680  -15.7100   19.9230 H   0  0  0  0  0  0  0  0  0  0  0  0
  -30.5050  -21.2390   16.9720 C   0  0  0  0  0  1  0  0  0  0  0  0
  -31.1500  -20.0990   17.5400 O   0  0  0  0  0  0  0  0  0  0  0  0
  -28.1200  -25.9190   20.2880 O   0  0  0  0  0  0  0  0  0  0  0  0
  -24.6430  -31.9040   23.2490 C   0  0  0  0  0  0  0  0  0  0  0  0
  -27.1050  -26.9960   20.2530 C   0  0  0  0  0  0  0  0  0  0  0  0
  -23.4310  -30.5130   21.6180 C   0  0  0  0  0  3  0  0  0  0  0  0
  -24.8530  -28.8980   20.1950 C   0  0  0  0  0  0  0  0  0  0  0  0
  -25.9970  -30.7000   21.4640 C   0  0  0  0  0  2  0  0  0  0  0  0
  -26.0430  -29.2880   20.8200 C   0  0  0  0  0  0  0  0  0  0  0  0
  -27.1660  -28.3520   20.8280 C   0  0  0  0  0  3  0  0  0  0  0  0
  -25.9030  -26.7650   19.5550 C   0  0  0  0  0  3  0  0  0  0  0  0
  -24.8050  -27.6570   19.5400 C   0  0  0  0  0  3  0  0  0  0  0  0
  -23.6520  -29.8390   20.2380 C   0  0  0  0  0  2  0  0  0  0  0  0
  -24.7140  -31.0670   22.1660 N   0  0  0  0  0  0  0  0  0  0  0  0
  -23.5560  -32.1990   23.7740 O   0  0  0  0  0  0  0  0  0  0  0  0
  -22.7380  -29.5160   22.5840 C   0  0  0  0  0  0  0  0  0  0  0  0
  -21.4080  -29.3540   22.4650 N   0  0  0  0  0  0  0  0  0  0  0  0
  -23.4030  -28.8970   23.4190 O   0  0  0  0  0  0  0  0  0  0  0  0
  -20.9240  -29.9140   21.7780 H   0  0  0  0  0  0  0  0  0  0  0  0
  -18.0260  -28.1410   22.9670 C   0  0  0  0  0  0  0  0  0  0  0  0
  -20.5850  -28.4180   23.2380 C   0  0  0  0  0  3  0  0  0  0  0  0
  -20.6920  -26.9810   22.6750 C   0  0  0  0  0  2  0  0  0  0  0  0
  -19.5940  -26.6450   21.6610 C   0  0  0  0  0  2  0  0  0  0  0  0
  -18.2100  -26.7880   22.3000 C   0  0  0  0  0  2  0  0  0  0  0  0
  -19.1410  -28.9120   23.3930 C   0  0  0  0  0  0  0  0  0  0  0  0
  -18.9110  -30.1760   23.9820 C   0  0  0  0  0  3  0  0  0  0  0  0
  -17.6020  -30.6690   24.1430 C   0  0  0  0  0  3  0  0  0  0  0  0
  -16.5030  -29.8950   23.7320 C   0  0  0  0  0  3  0  0  0  0  0  0
  -16.7160  -28.6330   23.1500 C   0  0  0  0  0  3  0  0  0  0  0  0
  -25.9180  -32.5430   23.8750 C   0  0  0  0  0  3  0  0  0  0  0  0
  -25.6080  -33.9440   24.2050 N   0  0  0  0  0  0  0  0  0  0  0  0
  -25.9210  -35.0020   23.4420 C   0  0  0  0  0  0  0  0  0  0  0  0
  -26.5660  -34.9010   22.3980 O   0  0  0  0  0  0  0  0  0  0  0  0
  -25.0430  -34.0980   25.0250 H   0  0  0  0  0  0  0  0  0  0  0  0
  -24.1840  -36.8050   23.1430 C   0  0  0  0  0  1  0  0  0  0  0  0
  -25.4480  -36.3940   23.9160 C   0  0  0  0  0  3  0  0  0  0  0  0
  -27.6040  -37.2870   24.6850 C   0  0  0  0  0  1  0  0  0  0  0  0
  -26.4760  -37.4490   23.7710 N   0  0  0  0  0  0  0  0  0  0  0  0
  -26.0720  -38.3680   23.9320 H   0  0  0  0  0  0  0  0  0  0  0  0
  -26.4240  -31.7820   25.1620 C   0  0  1  0  0  0  0  0  0  0  0  0
  -25.3270  -31.5570   26.2300 C   0  0  0  0  0  1  0  0  0  0  0  0
  -27.0020  -30.4010   24.7880 C   0  0  0  0  0  1  0  0  0  0  0  0
  -27.5740  -32.5760   25.8270 C   0  0  0  0  0  1  0  0  0  0  0  0
  2  3  1  0
  3  1  2  0
  4  5  2  0
  5  1  1  0
  5  7  1  0
  6  2  2  0
  6  4  1  0
  8  6  1  0
  9 11  1  0
 10 12  1  0
 10  9  2  0
 11 14  1  0
 11 15  2  0
 12 13  1  0
 13  3  1  0
 13 14  1  0
 14 24  1  0
 16 24  1  0
 17 22  1  0
 18 19  1  0
 18 17  1  0
 20 19  1  0
 20 29  1  0
 20 21  1  0
 22 16  1  0
 22 21  1  0
 23 16  2  0
 24 25  1  0
 26 27  2  0
 27 46  1  0
 28 27  1  0
 28 31  1  0
 29 30  1  0
 29 26  1  0
 30 28  2  0
 31 32  1  0
 32 33  2  0
 34 37  1  0
 34 33  1  0
 35 34  2  0
 36 35  1  0
 36 31  2  0
 37 38  1  0
 38 39  1  0
 39 40  2  0
 41 40  1  0
 41 45  1  0
 42 41  2  0
 43 38  2  0
 43 42  1  0
 44 43  1  0
 46 47  1  0
 47 50  1  0
 47 49  1  0
 48 46  2  0
 51 52  1  0
 51 26  1  0
 53 51  1  0
 54 55  1  0
 55 10  1  0
 56  4  1  0
 57 68  2  0
 58 56  1  0
 58 63  1  0
 59 67  1  0
 59 69  1  0
 60 66  1  0
 60 62  1  0
 61 67  1  0
 62 63  2  0
 62 61  1  0
 64 58  2  0
 65 64  1  0
 65 60  2  0
 66 59  1  0
 67 57  1  0
 69 71  2  0
 70 69  1  0
 72 70  1  0
 73 82  2  0
 73 78  1  0
 74 70  1  0
 74 78  1  0
 75 74  1  0
 76 77  1  0
 76 75  1  0
 77 73  1  0
 78 79  2  0
 79 80  1  0
 81 80  2  0
 82 81  1  0
 83 57  1  0
 83 84  1  0
 83 93  1  0
 84 87  1  0
 85 89  1  0
 85 84  1  0
 86 85  2  0
 89 88  1  0
 91 89  1  0
 91 92  1  0
 91 90  1  0
 93 96  1  1
 93 94  1  0
 95 93  1  0
M  ISO  4   4 101  16 100  24 100  56 101
M  END
>  <TORSDO>  (36) 
F 18

>  <SCORE>  (36) 
-15.566

>  <name>  (36) 
35

>  <ligand_id>  (36) 
35

>  <original_smiles>  (36) 
[H]C1=C(OC([H])([H])[H])C([H])([H])C([H])(c2c([H])c(F)c(Oc3c([H])c([H])c4c(c3[H])C([H])([H])N(C(=O)C([H])(N([H])C(=O)C([H])(N([H])C([H])([H])[H])C([H])([H])[H])C(C([H])([H])[H])(C([H])([H])[H])C([H])([H])[H])C([H])(C(=O)N([H])C3([H])c5c([H])c([H])c([H])c([H])c5C([H])([H])C([H])([H])C3([H])[H])C4([H])[H])c(F)c2[H])C([H])(N([H])C(=O)N2C([H])([H])C([H])([H])C([H])([H])C([H])(n3nc(-c4c([H])c([H])c(Oc5c([H])c([H])c(F)c([H])c5F)c([H])c4[H])c(C(=O)N([H])[H])c3N([H])[H])C2([H])[H])C1=O

>  <smiles>  (36) 
[H]C1=C(OC([H])([H])[H])C([H])([H])C([H])(c2c([H])c(F)c(Oc3c([H])c([H])c4c(c3[H])C([H])([H])N(C(=O)C([H])(N([H])C(=O)C([H])(N([H])C([H])([H])[H])C([H])([H])[H])C(C([H])([H])[H])(C([H])([H])[H])C([H])([H])[H])C([H])(C(=O)N([H])C3([H])c5c([H])c([H])c([H])c([H])c5C([H])([H])C([H])([H])C3([H])[H])C4([H])[H])c(F)c2[H])C([H])(N([H])C(=O)N2C([H])([H])C([H])([H])C([H])([H])C([H])(n3nc(-c4c([H])c([H])c(Oc5c([H])c([H])c(F)c([H])c5F)c([H])c4[H])c(C(=O)N([H])[H])c3N([H])[H])C2([H])[H])C1=O

$$$$
36:0:0
     RDKit          3D

 93101  0  0  1  0  0  0  0  0999 V2000
  -29.8740  -22.8340   18.6550 C   0  0  0  0  0  3  0  0  0  0  0  0
  -28.3010  -23.9390   20.1420 C   0  0  0  0  0  3  0  0  0  0  0  0
  -28.8910  -22.6980   19.6520 C   0  0  0  0  0  0  0  0  0  0  0  0
  -30.3080  -24.0930   18.1950 C   0  0  0  0  0  0  0  0  0  0  0  0
  -28.6990  -25.2560   19.6710 C   0  0  0  0  0  0  0  0  0  0  0  0
  -29.7330  -25.2860   18.7020 C   0  0  0  0  0  0  0  0  0  0  0  0
  -32.7980  -23.7930   17.8340 C   0  0  0  0  0  1  0  0  0  0  0  0
  -31.4450  -24.1100   17.1810 C   0  0  0  0  0  2  0  0  0  0  0  0
  -30.2280  -26.4970   18.3030 O   0  0  0  0  0  0  0  0  0  0  0  0
  -31.0160  -26.4140   17.7770 H   0  0  0  0  0  0  0  0  0  0  0  0
  -28.3830  -26.5150   20.2520 O   0  0  0  0  0  0  0  0  0  0  0  0
  -24.6210  -31.8780   23.2100 C   0  0  0  0  0  0  0  0  0  0  0  0
  -27.2320  -27.3140   20.1280 C   0  0  0  0  0  0  0  0  0  0  0  0
  -23.4050  -30.4730   21.5760 C   0  0  0  0  0  3  0  0  0  0  0  0
  -24.8490  -28.9100   20.1340 C   0  0  0  0  0  0  0  0  0  0  0  0
  -25.9380  -30.7900   21.3780 C   0  0  0  0  0  2  0  0  0  0  0  0
  -26.0140  -29.4100   20.7270 C   0  0  0  0  0  0  0  0  0  0  0  0
  -27.1990  -28.6180   20.7170 C   0  0  0  0  0  3  0  0  0  0  0  0
  -26.0470  -26.8570   19.5160 C   0  0  0  0  0  3  0  0  0  0  0  0
  -24.8700  -27.6420   19.5180 C   0  0  0  0  0  3  0  0  0  0  0  0
  -23.6060  -29.7770   20.1990 C   0  0  0  0  0  2  0  0  0  0  0  0
  -24.6730  -31.0680   22.1110 N   0  0  0  0  0  0  0  0  0  0  0  0
  -23.5420  -32.1570   23.7550 O   0  0  0  0  0  0  0  0  0  0  0  0
  -22.7480  -29.4660   22.5500 C   0  0  0  0  0  0  0  0  0  0  0  0
  -21.4220  -29.2860   22.4310 N   0  0  0  0  0  0  0  0  0  0  0  0
  -23.4320  -28.8470   23.3680 O   0  0  0  0  0  0  0  0  0  0  0  0
  -20.9280  -29.8400   21.7450 H   0  0  0  0  0  0  0  0  0  0  0  0
  -18.0570  -28.0600   22.9340 C   0  0  0  0  0  0  0  0  0  0  0  0
  -20.6110  -28.3470   23.2080 C   0  0  0  0  0  3  0  0  0  0  0  0
  -20.7290  -26.9110   22.6470 C   0  0  0  0  0  2  0  0  0  0  0  0
  -19.6350  -26.5680   21.6320 C   0  0  0  0  0  2  0  0  0  0  0  0
  -18.2500  -26.7050   22.2700 C   0  0  0  0  0  2  0  0  0  0  0  0
  -19.1680  -28.8360   23.3600 C   0  0  0  0  0  0  0  0  0  0  0  0
  -18.9360  -30.1010   23.9410 C   0  0  0  0  0  3  0  0  0  0  0  0
  -17.6260  -30.5920   24.0990 C   0  0  0  0  0  3  0  0  0  0  0  0
  -16.5300  -29.8130   23.6890 C   0  0  0  0  0  3  0  0  0  0  0  0
  -16.7470  -28.5480   23.1150 C   0  0  0  0  0  3  0  0  0  0  0  0
  -25.9090  -32.5120   23.8240 C   0  0  0  0  0  3  0  0  0  0  0  0
  -25.5990  -33.9090   24.1640 N   0  0  0  0  0  0  0  0  0  0  0  0
  -25.9230  -34.9690   23.4100 C   0  0  0  0  0  0  0  0  0  0  0  0
  -26.5810  -34.8720   22.3700 O   0  0  0  0  0  0  0  0  0  0  0  0
  -25.0100  -34.0590   24.9720 H   0  0  0  0  0  0  0  0  0  0  0  0
  -24.1830  -36.7590   23.0960 C   0  0  0  0  0  1  0  0  0  0  0  0
  -25.4410  -36.3550   23.8830 C   0  0  0  0  0  3  0  0  0  0  0  0
  -27.5870  -37.2410   24.6790 C   0  0  0  0  0  1  0  0  0  0  0  0
  -26.4680  -37.4120   23.7560 N   0  0  0  0  0  0  0  0  0  0  0  0
  -26.0620  -38.3290   23.9190 H   0  0  0  0  0  0  0  0  0  0  0  0
  -26.4400  -31.7390   25.0930 C   0  0  1  0  0  0  0  0  0  0  0  0
  -25.3590  -31.4980   26.1730 C   0  0  0  0  0  1  0  0  0  0  0  0
  -27.0180  -30.3620   24.6910 C   0  0  0  0  0  1  0  0  0  0  0  0
  -27.5990  -32.5310   25.7440 C   0  0  0  0  0  1  0  0  0  0  0  0
  -28.4780  -21.2140   20.0700 C   0  0  0  0  0  3  0  0  0  0  0  0
  -29.5740  -20.0250   20.2070 C   0  0  0  0  0  3  0  0  0  0  0  0
  -29.1170  -18.4700   20.2460 C   0  0  0  0  0  3  0  0  0  0  0  0
  -30.2110  -17.3090   20.5110 C   0  0  0  0  0  3  0  0  0  0  0  0
  -30.5750  -14.7200   20.3650 C   0  0  0  0  0  0  0  0  0  0  0  0
  -30.3780  -12.4520   19.3590 C   0  0  0  0  0  2  0  0  0  0  0  0
  -29.4390  -12.5510   18.1370 C   0  0  0  0  0  2  0  0  0  0  0  0
  -27.9670  -12.3910   18.5690 C   0  0  0  0  0  2  0  0  0  0  0  0
  -27.5990  -13.2680   19.7970 C   0  0  0  0  0  3  0  0  0  0  0  0
  -28.6610  -13.1440   20.9130 C   0  0  0  0  0  2  0  0  0  0  0  0
  -29.9560  -13.4940   20.3160 N   0  0  0  0  0  0  0  0  0  0  0  0
  -31.7590  -14.8370   20.0360 O   0  0  0  0  0  0  0  0  0  0  0  0
  -29.7910  -15.8410   20.5670 N   0  0  0  0  0  0  0  0  0  0  0  0
  -28.8240  -15.6520   20.7820 H   0  0  0  0  0  0  0  0  0  0  0  0
  -25.2070  -13.8480   20.5230 C   0  0  0  0  0  0  0  0  0  0  0  0
  -24.1470  -13.0680   20.8960 C   0  0  0  0  0  0  0  0  0  0  0  0
  -24.6170  -11.7200   20.8660 C   0  0  0  0  0  0  0  0  0  0  0  0
  -26.2570  -12.9740   20.2890 N   0  0  0  0  0  0  0  0  0  0  0  0
  -25.9080  -11.6900   20.5570 N   0  0  0  0  0  0  0  0  0  0  0  0
  -23.8980  -10.4550   21.0580 C   0  0  0  0  0  0  0  0  0  0  0  0
  -24.3420   -9.4830   21.9810 C   0  0  0  0  0  3  0  0  0  0  0  0
  -23.6210   -8.2830   22.1600 C   0  0  0  0  0  3  0  0  0  0  0  0
  -22.4400   -8.0470   21.4150 C   0  0  0  0  0  0  0  0  0  0  0  0
  -22.0150   -9.0080   20.4810 C   0  0  0  0  0  3  0  0  0  0  0  0
  -22.7370  -10.1990   20.3000 C   0  0  0  0  0  3  0  0  0  0  0  0
  -21.6860   -6.9020   21.5090 O   0  0  0  0  0  0  0  0  0  0  0  0
  -21.6610   -6.1480   22.6550 C   0  0  0  0  0  0  0  0  0  0  0  0
  -21.2600   -6.6900   23.8960 C   0  0  0  0  0  3  0  0  0  0  0  0
  -21.1810   -5.8610   25.0320 C   0  0  0  0  0  3  0  0  0  0  0  0
  -21.4930   -4.4920   24.9320 C   0  0  0  0  0  0  0  0  0  0  0  0
  -21.8850   -3.9500   23.6950 C   0  0  0  0  0  3  0  0  0  0  0  0
  -21.9660   -4.7750   22.5600 C   0  0  0  0  0  0  0  0  0  0  0  0
  -22.3260   -4.2440   21.3660 F   0  0  0  0  0  0  0  0  0  0  0  0
  -21.4100   -3.6930   26.0210 F   0  0  0  0  0  0  0  0  0  0  0  0
  -22.7470  -13.5390   21.1660 C   0  0  0  0  0  0  0  0  0  0  0  0
  -22.0260  -12.8390   22.0350 N   0  0  0  0  0  0  0  0  0  0  0  0
  -22.3020  -14.5620   20.6460 O   0  0  0  0  0  0  0  0  0  0  0  0
  -22.4030  -12.0150   22.4810 H   0  0  0  0  0  0  0  0  0  0  0  0
  -21.0860  -13.1300   22.2590 H   0  0  0  0  0  0  0  0  0  0  0  0
  -25.3580  -15.2190   20.3410 N   0  0  0  0  0  0  0  0  0  0  0  0
  -24.5770  -15.8580   20.4360 H   0  0  0  0  0  0  0  0  0  0  0  0
  -26.1910  -15.6590   19.9720 H   0  0  0  0  0  0  0  0  0  0  0  0
  1  3  1  0
  3 52  1  0
  3  2  2  0
  4  1  2  0
  4  6  1  0
  5  2  1  0
  5 11  1  0
  6  5  2  0
  8  7  1  0
  8  4  1  0
  9  6  1  0
 10  9  1  0
 12 23  2  0
 13 11  1  0
 13 18  1  0
 14 22  1  0
 14 24  1  0
 15 21  1  0
 15 17  1  0
 16 22  1  0
 17 16  1  0
 18 17  2  0
 19 20  1  0
 19 13  2  0
 20 15  2  0
 21 14  1  0
 22 12  1  0
 24 26  2  0
 25 24  1  0
 27 25  1  0
 28 37  2  0
 28 33  1  0
 29 25  1  0
 29 33  1  0
 30 29  1  0
 31 32  1  0
 31 30  1  0
 32 28  1  0
 33 34  2  0
 34 35  1  0
 36 35  2  0
 37 36  1  0
 38 12  1  0
 38 39  1  0
 38 48  1  0
 39 42  1  0
 40 44  1  0
 40 39  1  0
 41 40  2  0
 44 43  1  0
 46 44  1  0
 46 47  1  0
 46 45  1  0
 48 51  1  1
 48 49  1  0
 50 48  1  0
 52 53  2  0
 53 54  1  0
 54 55  2  0
 55 64  1  0
 56 64  1  0
 57 62  1  0
 58 59  1  0
 58 57  1  0
 60 59  1  0
 60 69  1  0
 60 61  1  0
 62 56  1  0
 62 61  1  0
 63 56  2  0
 64 65  1  0
 66 67  2  0
 67 86  1  0
 68 67  1  0
 68 71  1  0
 69 66  1  0
 69 70  1  0
 70 68  2  0
 71 72  1  0
 72 73  2  0
 74 77  1  0
 74 73  1  0
 75 74  2  0
 76 75  1  0
 76 71  2  0
 77 78  1  0
 78 79  1  0
 79 80  2  0
 81 80  1  0
 81 85  1  0
 82 81  2  0
 83 78  2  0
 83 82  1  0
 84 83  1  0
 86 87  1  0
 87 90  1  0
 87 89  1  0
 88 86  2  0
 91 92  1  0
 91 66  1  0
 93 91  1  0
M  ISO  4   5 101  11 101  56 100  64 100
M  END
>  <TORSDO>  (37) 
F 22

>  <SCORE>  (37) 
-13.186

>  <name>  (37) 
36

>  <ligand_id>  (37) 
36

>  <original_smiles>  (37) 
[H]Oc1c(Oc2c([H])c([H])c3c(c2[H])C([H])([H])N(C(=O)C([H])(N([H])C(=O)C([H])(N([H])C([H])([H])[H])C([H])([H])[H])C(C([H])([H])[H])(C([H])([H])[H])C([H])([H])[H])C([H])(C(=O)N([H])C2([H])c4c([H])c([H])c([H])c([H])c4C([H])([H])C([H])([H])C2([H])[H])C3([H])[H])c([H])c(C([H])([H])C([H])([H])C([H])([H])C([H])([H])N([H])C(=O)N2C([H])([H])C([H])([H])C([H])([H])C([H])(n3nc(-c4c([H])c([H])c(Oc5c([H])c([H])c(F)c([H])c5F)c([H])c4[H])c(C(=O)N([H])[H])c3N([H])[H])C2([H])[H])c([H])c1C([H])([H])C([H])([H])[H]

>  <smiles>  (37) 
[H]Oc1c(Oc2c([H])c([H])c3c(c2[H])C([H])([H])N(C(=O)C([H])(N([H])C(=O)C([H])(N([H])C([H])([H])[H])C([H])([H])[H])C(C([H])([H])[H])(C([H])([H])[H])C([H])([H])[H])C([H])(C(=O)N([H])C2([H])c4c([H])c([H])c([H])c([H])c4C([H])([H])C([H])([H])C2([H])[H])C3([H])[H])c([H])c(C([H])([H])C([H])([H])C([H])([H])C([H])([H])N([H])C(=O)N2C([H])([H])C([H])([H])C([H])([H])C([H])(n3nc(-c4c([H])c([H])c(Oc5c([H])c([H])c(F)c([H])c5F)c([H])c4[H])c(C(=O)N([H])[H])c3N([H])[H])C2([H])[H])c([H])c1C([H])([H])C([H])([H])[H]

$$$$
37:0:0
     RDKit          3D

 97105  0  0  1  0  0  0  0  0999 V2000
  -29.2580  -24.5860   22.2160 C   0  0  0  0  0  3  0  0  0  0  0  0
  -27.2150  -23.2360   20.8470 C   0  0  0  0  0  3  0  0  0  0  0  0
  -28.2530  -25.3300   21.5610 C   0  0  0  0  0  0  0  0  0  0  0  0
  -29.2310  -23.1790   22.2200 C   0  0  0  0  0  0  0  0  0  0  0  0
  -27.2420  -24.6470   20.8380 C   0  0  0  0  0  0  0  0  0  0  0  0
  -28.2090  -22.4990   21.5200 C   0  0  0  0  0  0  0  0  0  0  0  0
  -30.3000  -22.4280   22.9890 C   0  0  0  0  0  1  0  0  0  0  0  0
  -28.3140  -26.8130   21.6480 C   0  0  0  0  0  0  0  0  0  0  0  0
  -29.3460  -27.4670   21.4580 O   0  0  0  0  0  0  0  0  0  0  0  0
  -27.0240  -27.5000   22.1030 C   0  0  0  0  0  2  0  0  0  0  0  0
  -27.1930  -28.9430   22.6090 C   0  0  0  0  0  2  0  0  0  0  0  0
  -26.8580  -30.0130   21.5500 C   0  0  0  0  0  2  0  0  0  0  0  0
  -25.3430  -30.1380   21.3200 C   0  0  0  0  0  2  0  0  0  0  0  0
  -24.9050  -29.4210   20.0290 C   0  0  0  0  0  2  0  0  0  0  0  0
  -23.3830  -29.2830   19.8730 C   0  0  0  0  0  2  0  0  0  0  0  0
  -23.0060  -28.2220   18.8240 C   0  0  0  0  0  2  0  0  0  0  0  0
  -24.0630  -27.2020   16.8110 C   0  0  0  0  0  0  0  0  0  0  0  0
  -24.7690  -27.2510   14.4570 C   0  0  0  0  0  2  0  0  0  0  0  0
  -25.6900  -26.1050   14.0160 C   0  0  0  0  0  2  0  0  0  0  0  0
  -27.1590  -26.4490   14.3100 C   0  0  0  0  0  2  0  0  0  0  0  0
  -27.3700  -26.9020   15.7770 C   0  0  0  0  0  3  0  0  0  0  0  0
  -26.3570  -27.9980   16.1700 C   0  0  0  0  0  2  0  0  0  0  0  0
  -24.9890  -27.5230   15.8810 N   0  0  0  0  0  0  0  0  0  0  0  0
  -23.1320  -26.4110   16.6210 O   0  0  0  0  0  0  0  0  0  0  0  0
  -24.0800  -28.0370   17.8560 N   0  0  0  0  0  0  0  0  0  0  0  0
  -24.8370  -28.7040   17.8710 H   0  0  0  0  0  0  0  0  0  0  0  0
  -29.8520  -26.6000   16.4030 C   0  0  0  0  0  0  0  0  0  0  0  0
  -30.9100  -27.4710   16.3850 C   0  0  0  0  0  0  0  0  0  0  0  0
  -30.3830  -28.7270   15.9590 C   0  0  0  0  0  0  0  0  0  0  0  0
  -28.7480  -27.3370   16.0040 N   0  0  0  0  0  0  0  0  0  0  0  0
  -29.0710  -28.6390   15.7850 N   0  0  0  0  0  0  0  0  0  0  0  0
  -31.0590  -29.9930   15.6520 C   0  0  0  0  0  0  0  0  0  0  0  0
  -31.0510  -31.0750   16.5580 C   0  0  0  0  0  3  0  0  0  0  0  0
  -31.7230  -32.2780   16.2440 C   0  0  0  0  0  3  0  0  0  0  0  0
  -32.4140  -32.4030   15.0150 C   0  0  0  0  0  0  0  0  0  0  0  0
  -32.4040  -31.3270   14.1090 C   0  0  0  0  0  3  0  0  0  0  0  0
  -31.7320  -30.1350   14.4210 C   0  0  0  0  0  3  0  0  0  0  0  0
  -33.0730  -33.5400   14.6140 O   0  0  0  0  0  0  0  0  0  0  0  0
  -33.8240  -34.2830   15.4870 C   0  0  0  0  0  0  0  0  0  0  0  0
  -35.0930  -33.8490   15.9330 C   0  0  0  0  0  3  0  0  0  0  0  0
  -35.8610  -34.6750   16.7760 C   0  0  0  0  0  3  0  0  0  0  0  0
  -35.3720  -35.9360   17.1660 C   0  0  0  0  0  0  0  0  0  0  0  0
  -34.1140  -36.3720   16.7170 C   0  0  0  0  0  3  0  0  0  0  0  0
  -33.3430  -35.5500   15.8770 C   0  0  0  0  0  0  0  0  0  0  0  0
  -32.1400  -35.9830   15.4310 F   0  0  0  0  0  0  0  0  0  0  0  0
  -36.1130  -36.7350   17.9680 F   0  0  0  0  0  0  0  0  0  0  0  0
  -32.3490  -27.1350   16.6570 C   0  0  0  0  0  0  0  0  0  0  0  0
  -33.0010  -27.8930   17.5340 N   0  0  0  0  0  0  0  0  0  0  0  0
  -32.8910  -26.1650   16.1280 O   0  0  0  0  0  0  0  0  0  0  0  0
  -32.5500  -28.6780   17.9790 H   0  0  0  0  0  0  0  0  0  0  0  0
  -33.9630  -27.6840   17.7600 H   0  0  0  0  0  0  0  0  0  0  0  0
  -29.7440  -25.2470   16.7080 N   0  0  0  0  0  0  0  0  0  0  0  0
  -30.5500  -24.6850   16.9590 H   0  0  0  0  0  0  0  0  0  0  0  0
  -28.8840  -24.7130   16.6730 H   0  0  0  0  0  0  0  0  0  0  0  0
  -26.0470  -24.8690   18.8220 C   0  0  0  0  0  1  0  0  0  0  0  0
  -26.2810  -25.3410   20.1440 O   0  0  0  0  0  0  0  0  0  0  0  0
  -28.1830  -21.1300   21.4540 O   0  0  0  0  0  0  0  0  0  0  0  0
  -33.8360  -19.0850   17.6860 C   0  0  0  0  0  0  0  0  0  0  0  0
  -28.6460  -20.5950   20.2800 C   0  0  0  0  0  0  0  0  0  0  0  0
  -31.7030  -19.2300   16.4390 C   0  0  0  0  0  3  0  0  0  0  0  0
  -29.6080  -19.5250   17.8590 C   0  0  0  0  0  0  0  0  0  0  0  0
  -31.7190  -18.7300   18.9440 C   0  0  0  0  0  2  0  0  0  0  0  0
  -30.3760  -19.4190   19.0260 C   0  0  0  0  0  0  0  0  0  0  0  0
  -29.8970  -19.9460   20.2410 C   0  0  0  0  0  3  0  0  0  0  0  0
  -27.8790  -20.6980   19.1010 C   0  0  0  0  0  3  0  0  0  0  0  0
  -28.3580  -20.1660   17.8890 C   0  0  0  0  0  3  0  0  0  0  0  0
  -30.1920  -18.9190   16.6040 C   0  0  0  0  0  2  0  0  0  0  0  0
  -32.4750  -19.0380   17.7100 N   0  0  0  0  0  0  0  0  0  0  0  0
  -34.4530  -19.2380   16.6230 O   0  0  0  0  0  0  0  0  0  0  0  0
  -31.8510  -20.6460   15.8420 C   0  0  0  0  0  0  0  0  0  0  0  0
  -31.7400  -20.7430   14.5070 N   0  0  0  0  0  0  0  0  0  0  0  0
  -32.0310  -21.6260   16.5700 O   0  0  0  0  0  0  0  0  0  0  0  0
  -31.6000  -19.8940   13.9780 H   0  0  0  0  0  0  0  0  0  0  0  0
  -32.0880  -22.0510   11.1580 C   0  0  0  0  0  0  0  0  0  0  0  0
  -31.8060  -21.9780   13.7270 C   0  0  0  0  0  3  0  0  0  0  0  0
  -30.3940  -22.5610   13.4850 C   0  0  0  0  0  2  0  0  0  0  0  0
  -29.7670  -22.1000   12.1650 C   0  0  0  0  0  2  0  0  0  0  0  0
  -30.6490  -22.5060   10.9820 C   0  0  0  0  0  2  0  0  0  0  0  0
  -32.6270  -21.7880   12.4460 C   0  0  0  0  0  0  0  0  0  0  0  0
  -33.9590  -21.3330   12.5500 C   0  0  0  0  0  3  0  0  0  0  0  0
  -34.7480  -21.1440   11.4000 C   0  0  0  0  0  3  0  0  0  0  0  0
  -34.2140  -21.4210   10.1290 C   0  0  0  0  0  3  0  0  0  0  0  0
  -32.8890  -21.8770   10.0110 C   0  0  0  0  0  3  0  0  0  0  0  0
  -34.6850  -18.9240   18.9870 C   0  0  0  0  0  3  0  0  0  0  0  0
  -35.2550  -20.2920   19.5310 C   0  0  1  0  0  0  0  0  0  0  0  0
  -36.5080  -20.7890   18.7720 C   0  0  0  0  0  1  0  0  0  0  0  0
  -34.1800  -21.4000   19.4460 C   0  0  0  0  0  1  0  0  0  0  0  0
  -35.6300  -20.1500   21.0250 C   0  0  0  0  0  1  0  0  0  0  0  0
  -35.7740  -17.9850   18.6890 N   0  0  0  0  0  0  0  0  0  0  0  0
  -35.6820  -16.6540   18.8040 C   0  0  0  0  0  0  0  0  0  0  0  0
  -34.6800  -16.0870   19.2490 O   0  0  0  0  0  0  0  0  0  0  0  0
  -36.6050  -18.3760   18.2670 H   0  0  0  0  0  0  0  0  0  0  0  0
  -36.5640  -15.0960   17.0400 C   0  0  0  0  0  1  0  0  0  0  0  0
  -36.8950  -15.8170   18.3560 C   0  0  0  0  0  3  0  0  0  0  0  0
  -38.0360  -15.4400   20.4980 C   0  0  0  0  0  1  0  0  0  0  0  0
  -37.3350  -14.8330   19.3680 N   0  0  0  0  0  0  0  0  0  0  0  0
  -37.9490  -14.1370   18.9520 H   0  0  0  0  0  0  0  0  0  0  0  0
  1  4  1  0
  2  6  1  0
  3  8  1  0
  3  1  2  0
  4  7  1  0
  5  2  2  0
  5  3  1  0
  6  4  2  0
  8 10  1  0
  9  8  2  0
 10 11  1  0
 12 11  1  0
 13 12  1  0
 14 13  1  0
 15 14  1  0
 16 15  1  0
 17 25  1  0
 18 23  1  0
 19 20  1  0
 19 18  1  0
 21 20  1  0
 21 30  1  0
 21 22  1  0
 23 22  1  0
 23 17  1  0
 24 17  2  0
 25 26  1  0
 25 16  1  0
 27 52  1  0
 28 27  2  0
 28 47  1  0
 29 28  1  0
 30 27  1  0
 31 29  2  0
 31 30  1  0
 32 29  1  0
 32 33  1  0
 34 33  2  0
 35 34  1  0
 36 37  1  0
 36 35  2  0
 37 32  2  0
 38 35  1  0
 38 39  1  0
 39 44  2  0
 39 40  1  0
 40 41  2  0
 41 42  1  0
 42 46  1  0
 43 42  2  0
 44 43  1  0
 45 44  1  0
 47 48  1  0
 48 51  1  0
 48 50  1  0
 49 47  2  0
 52 53  1  0
 54 52  1  0
 55 56  1  0
 56  5  1  0
 57  6  1  0
 58 68  1  0
 59 57  1  0
 60 70  1  0
 60 67  1  0
 60 68  1  0
 61 66  2  0
 61 63  1  0
 62 63  1  0
 63 64  2  0
 64 59  1  0
 65 59  2  0
 66 65  1  0
 67 61  1  0
 68 62  1  0
 69 58  2  0
 70 72  2  0
 71 70  1  0
 73 71  1  0
 74 79  1  0
 75 71  1  0
 76 75  1  0
 77 76  1  0
 78 74  1  0
 78 77  1  0
 79 80  2  0
 79 75  1  0
 81 80  1  0
 82 81  2  0
 83 82  1  0
 83 74  2  0
 84 58  1  0
 84 85  1  0
 85 88  1  1
 86 85  1  0
 87 85  1  0
 89 90  1  0
 89 84  1  0
 90 91  2  0
 92 89  1  0
 94 93  1  0
 94 90  1  0
 94 96  1  0
 96 95  1  0
 97 96  1  0
M  ISO  4   6 101  17 100  25 100  57 101
M  END
>  <TORSDO>  (38) 
F 25

>  <SCORE>  (38) 
-5.084

>  <name>  (38) 
37

>  <ligand_id>  (38) 
37

>  <original_smiles>  (38) 
[H]c1c([H])c([H])c2c(c1[H])C([H])([H])C([H])([H])C([H])([H])C2([H])N([H])C(=O)C1([H])N(C(=O)C([H])(N([H])C(=O)C([H])(N([H])C([H])([H])[H])C([H])([H])[H])C(C([H])([H])[H])(C([H])([H])[H])C([H])([H])[H])C([H])([H])c2c([H])c(Oc3c([H])c(OC([H])([H])[H])c(C(=O)C([H])([H])C([H])([H])C([H])([H])C([H])([H])C([H])([H])C([H])([H])C([H])([H])N([H])C(=O)N4C([H])([H])C([H])([H])C([H])([H])C([H])(n5nc(-c6c([H])c([H])c(Oc7c([H])c([H])c(F)c([H])c7F)c([H])c6[H])c(C(=O)N([H])[H])c5N([H])[H])C4([H])[H])c([H])c3C([H])([H])[H])c([H])c([H])c2C1([H])[H]

>  <smiles>  (38) 
[H]c1c([H])c([H])c2c(c1[H])C([H])([H])C([H])([H])C([H])([H])C2([H])N([H])C(=O)C1([H])N(C(=O)C([H])(N([H])C(=O)C([H])(N([H])C([H])([H])[H])C([H])([H])[H])C(C([H])([H])[H])(C([H])([H])[H])C([H])([H])[H])C([H])([H])c2c([H])c(Oc3c([H])c(OC([H])([H])[H])c(C(=O)C([H])([H])C([H])([H])C([H])([H])C([H])([H])C([H])([H])C([H])([H])C([H])([H])N([H])C(=O)N4C([H])([H])C([H])([H])C([H])([H])C([H])(n5nc(-c6c([H])c([H])c(Oc7c([H])c([H])c(F)c([H])c7F)c([H])c6[H])c(C(=O)N([H])[H])c5N([H])[H])C4([H])[H])c([H])c3C([H])([H])[H])c([H])c([H])c2C1([H])[H]

$$$$
38:0:0
     RDKit          3D

 88 96  0  0  1  0  0  0  0  0999 V2000
  -28.7420  -22.7280   21.3840 C   0  0  0  0  0  3  0  0  0  0  0  0
  -28.9770  -22.7790   19.0330 C   0  0  0  0  0  3  0  0  0  0  0  0
  -28.4080  -24.1420   21.3770 C   0  0  0  0  0  3  0  0  0  0  0  0
  -28.6460  -24.1910   19.0280 C   0  0  0  0  0  3  0  0  0  0  0  0
  -29.0730  -21.9670   20.2140 C   0  0  0  0  0  0  0  0  0  0  0  0
  -28.3680  -24.9620   20.2020 C   0  0  0  0  0  0  0  0  0  0  0  0
  -28.3280  -26.4140   20.2150 O   0  0  0  0  0  0  0  0  0  0  0  0
  -24.6230  -31.9550   23.2640 C   0  0  0  0  0  0  0  0  0  0  0  0
  -27.1950  -27.2790   20.2310 C   0  0  0  0  0  0  0  0  0  0  0  0
  -23.4090  -30.5570   21.6330 C   0  0  0  0  0  3  0  0  0  0  0  0
  -24.8490  -28.9670   20.2160 C   0  0  0  0  0  0  0  0  0  0  0  0
  -25.9540  -30.8330   21.4480 C   0  0  0  0  0  2  0  0  0  0  0  0
  -26.0240  -29.4370   20.8150 C   0  0  0  0  0  0  0  0  0  0  0  0
  -27.1960  -28.6040   20.8090 C   0  0  0  0  0  3  0  0  0  0  0  0
  -25.9930  -26.8810   19.6110 C   0  0  0  0  0  3  0  0  0  0  0  0
  -24.8400  -27.7010   19.6050 C   0  0  0  0  0  3  0  0  0  0  0  0
  -23.6210  -29.8640   20.2590 C   0  0  0  0  0  2  0  0  0  0  0  0
  -24.6820  -31.1360   22.1720 N   0  0  0  0  0  0  0  0  0  0  0  0
  -23.5400  -32.2460   23.7940 O   0  0  0  0  0  0  0  0  0  0  0  0
  -22.7300  -29.5570   22.6010 C   0  0  0  0  0  0  0  0  0  0  0  0
  -21.4030  -29.3860   22.4680 N   0  0  0  0  0  0  0  0  0  0  0  0
  -23.4000  -28.9370   23.4320 O   0  0  0  0  0  0  0  0  0  0  0  0
  -20.9270  -29.9350   21.7660 H   0  0  0  0  0  0  0  0  0  0  0  0
  -18.0160  -28.2060   22.9680 C   0  0  0  0  0  0  0  0  0  0  0  0
  -20.5750  -28.4570   23.2400 C   0  0  0  0  0  3  0  0  0  0  0  0
  -20.6720  -27.0240   22.6670 C   0  0  0  0  0  2  0  0  0  0  0  0
  -19.5700  -26.7030   21.6510 C   0  0  0  0  0  2  0  0  0  0  0  0
  -18.1880  -26.8540   22.2930 C   0  0  0  0  0  2  0  0  0  0  0  0
  -19.1380  -28.9640   23.3980 C   0  0  0  0  0  0  0  0  0  0  0  0
  -18.9240  -30.2290   23.9880 C   0  0  0  0  0  3  0  0  0  0  0  0
  -17.6220  -30.7360   24.1510 C   0  0  0  0  0  3  0  0  0  0  0  0
  -16.5140  -29.9770   23.7360 C   0  0  0  0  0  3  0  0  0  0  0  0
  -16.7130  -28.7120   23.1520 C   0  0  0  0  0  3  0  0  0  0  0  0
  -25.9070  -32.5820   23.8900 C   0  0  0  0  0  3  0  0  0  0  0  0
  -26.4170  -31.8040   25.1660 C   0  0  1  0  0  0  0  0  0  0  0  0
  -25.3200  -31.5690   26.2300 C   0  0  0  0  0  1  0  0  0  0  0  0
  -26.9910  -30.4250   24.7710 C   0  0  0  0  0  1  0  0  0  0  0  0
  -27.5740  -32.5850   25.8320 C   0  0  0  0  0  1  0  0  0  0  0  0
  -25.6030  -33.9810   24.2290 N   0  0  0  0  0  0  0  0  0  0  0  0
  -25.9090  -35.0350   23.4590 C   0  0  0  0  0  0  0  0  0  0  0  0
  -26.5500  -34.9320   22.4100 O   0  0  0  0  0  0  0  0  0  0  0  0
  -25.0320  -34.1340   25.0470 H   0  0  0  0  0  0  0  0  0  0  0  0
  -24.1600  -36.8200   23.1670 C   0  0  0  0  0  1  0  0  0  0  0  0
  -25.4350  -36.4260   23.9300 C   0  0  0  0  0  3  0  0  0  0  0  0
  -27.5950  -37.3230   24.6750 C   0  0  0  0  0  1  0  0  0  0  0  0
  -26.4590  -37.4810   23.7720 N   0  0  0  0  0  0  0  0  0  0  0  0
  -26.0570  -38.4010   23.9300 H   0  0  0  0  0  0  0  0  0  0  0  0
  -29.8110  -20.5030   20.2370 C   0  0  0  0  0  2  0  0  0  0  0  0
  -29.1890  -18.9630   20.3280 C   0  0  0  0  0  3  0  0  0  0  0  0
  -30.2090  -17.6380   20.3880 C   0  0  0  0  0  3  0  0  0  0  0  0
  -30.5280  -14.9550   20.3160 C   0  0  0  0  0  0  0  0  0  0  0  0
  -30.3670  -12.6280   19.3630 C   0  0  0  0  0  2  0  0  0  0  0  0
  -29.4270  -12.6260   18.1370 C   0  0  0  0  0  2  0  0  0  0  0  0
  -27.9660  -12.4220   18.5790 C   0  0  0  0  0  2  0  0  0  0  0  0
  -27.5740  -13.3310   19.7760 C   0  0  0  0  0  3  0  0  0  0  0  0
  -28.6400  -13.3200   20.8910 C   0  0  0  0  0  2  0  0  0  0  0  0
  -29.9120  -13.7120   20.2730 N   0  0  0  0  0  0  0  0  0  0  0  0
  -31.7220  -15.0240   20.0040 O   0  0  0  0  0  0  0  0  0  0  0  0
  -29.7760  -16.1360   20.4970 N   0  0  0  0  0  0  0  0  0  0  0  0
  -28.8070  -15.9810   20.7320 H   0  0  0  0  0  0  0  0  0  0  0  0
  -25.1990  -13.9000   20.5510 C   0  0  0  0  0  0  0  0  0  0  0  0
  -24.1400  -13.1170   20.9220 C   0  0  0  0  0  0  0  0  0  0  0  0
  -24.6050  -11.7670   20.8670 C   0  0  0  0  0  0  0  0  0  0  0  0
  -26.2400  -13.0260   20.2840 N   0  0  0  0  0  0  0  0  0  0  0  0
  -25.8920  -11.7370   20.5390 N   0  0  0  0  0  0  0  0  0  0  0  0
  -23.8810  -10.5020   21.0460 C   0  0  0  0  0  0  0  0  0  0  0  0
  -24.3040   -9.5360   21.9850 C   0  0  0  0  0  3  0  0  0  0  0  0
  -23.5790   -8.3360   22.1540 C   0  0  0  0  0  3  0  0  0  0  0  0
  -22.4160   -8.0960   21.3850 C   0  0  0  0  0  0  0  0  0  0  0  0
  -22.0110   -9.0510   20.4370 C   0  0  0  0  0  3  0  0  0  0  0  0
  -22.7370  -10.2410   20.2660 C   0  0  0  0  0  3  0  0  0  0  0  0
  -21.6650   -6.9470   21.4620 O   0  0  0  0  0  0  0  0  0  0  0  0
  -21.5800   -6.2210   22.6220 C   0  0  0  0  0  0  0  0  0  0  0  0
  -21.0760   -6.7800   23.8180 C   0  0  0  0  0  3  0  0  0  0  0  0
  -20.9400   -5.9770   24.9680 C   0  0  0  0  0  3  0  0  0  0  0  0
  -21.2960   -4.6160   24.9240 C   0  0  0  0  0  0  0  0  0  0  0  0
  -21.7930   -4.0550   23.7340 C   0  0  0  0  0  3  0  0  0  0  0  0
  -21.9300   -4.8550   22.5850 C   0  0  0  0  0  0  0  0  0  0  0  0
  -22.3890   -4.3050   21.4360 F   0  0  0  0  0  0  0  0  0  0  0  0
  -21.1590   -3.8430   26.0260 F   0  0  0  0  0  0  0  0  0  0  0  0
  -22.7450  -13.5910   21.2120 C   0  0  0  0  0  0  0  0  0  0  0  0
  -22.0250  -12.8850   22.0760 N   0  0  0  0  0  0  0  0  0  0  0  0
  -22.3040  -14.6220   20.7100 O   0  0  0  0  0  0  0  0  0  0  0  0
  -22.3970  -12.0500   22.5060 H   0  0  0  0  0  0  0  0  0  0  0  0
  -21.0900  -13.1840   22.3090 H   0  0  0  0  0  0  0  0  0  0  0  0
  -25.3560  -15.2730   20.3940 N   0  0  0  0  0  0  0  0  0  0  0  0
  -24.5780  -15.9120   20.5190 H   0  0  0  0  0  0  0  0  0  0  0  0
  -26.1850  -15.7270   20.0300 H   0  0  0  0  0  0  0  0  0  0  0  0
  2  5  1  0
  3  1  1  0
  4  2  2  0
  4  6  1  0
  5 48  1  0
  5  1  2  0
  6  7  1  0
  6  3  2  0
  7  9  1  0
  8 19  2  0
  9 14  1  0
 10 18  1  0
 10 20  1  0
 11 17  1  0
 11 13  1  0
 12 18  1  0
 13 12  1  0
 14 13  2  0
 15  9  2  0
 16 15  1  0
 16 11  2  0
 17 10  1  0
 18  8  1  0
 20 22  2  0
 21 20  1  0
 23 21  1  0
 24 33  2  0
 24 29  1  0
 25 21  1  0
 25 29  1  0
 26 25  1  0
 27 28  1  0
 27 26  1  0
 28 24  1  0
 29 30  2  0
 30 31  1  0
 32 31  2  0
 33 32  1  0
 34  8  1  0
 34 39  1  0
 34 35  1  0
 35 38  1  1
 35 36  1  0
 37 35  1  0
 39 42  1  0
 40 44  1  0
 40 39  1  0
 41 40  2  0
 44 43  1  0
 46 47  1  0
 46 44  1  0
 46 45  1  0
 48 49  1  0
 49 50  2  0
 50 59  1  0
 51 59  1  0
 52 57  1  0
 53 54  1  0
 53 52  1  0
 55 54  1  0
 55 64  1  0
 55 56  1  0
 57 51  1  0
 57 56  1  0
 58 51  2  0
 59 60  1  0
 61 62  2  0
 62 81  1  0
 63 62  1  0
 63 66  1  0
 64 65  1  0
 64 61  1  0
 65 63  2  0
 66 67  1  0
 67 68  2  0
 69 72  1  0
 69 68  1  0
 70 69  2  0
 71 70  1  0
 71 66  2  0
 72 73  1  0
 73 74  1  0
 74 75  2  0
 76 75  1  0
 76 80  1  0
 77 76  2  0
 78 73  2  0
 78 77  1  0
 79 78  1  0
 81 82  1  0
 82 85  1  0
 82 84  1  0
 83 81  2  0
 86 87  1  0
 86 61  1  0
 88 86  1  0
M  ISO  4   6 101   7 101  51 100  59 100
M  END
>  <TORSDO>  (39) 
F 19

>  <SCORE>  (39) 
-14.059

>  <name>  (39) 
38

>  <ligand_id>  (39) 
38

>  <original_smiles>  (39) 
[H]c1c([H])c([H])c2c(c1[H])C([H])([H])C([H])([H])C([H])([H])C2([H])N([H])C(=O)C1([H])N(C(=O)C([H])(N([H])C(=O)C([H])(N([H])C([H])([H])[H])C([H])([H])[H])C(C([H])([H])[H])(C([H])([H])[H])C([H])([H])[H])C([H])([H])c2c([H])c(Oc3c([H])c([H])c(C([H])([H])C([H])([H])C([H])([H])N([H])C(=O)N4C([H])([H])C([H])([H])C([H])([H])C([H])(n5nc(-c6c([H])c([H])c(Oc7c([H])c([H])c(F)c([H])c7F)c([H])c6[H])c(C(=O)N([H])[H])c5N([H])[H])C4([H])[H])c([H])c3[H])c([H])c([H])c2C1([H])[H]

>  <smiles>  (39) 
[H]c1c([H])c([H])c2c(c1[H])C([H])([H])C([H])([H])C([H])([H])C2([H])N([H])C(=O)C1([H])N(C(=O)C([H])(N([H])C(=O)C([H])(N([H])C([H])([H])[H])C([H])([H])[H])C(C([H])([H])[H])(C([H])([H])[H])C([H])([H])[H])C([H])([H])c2c([H])c(Oc3c([H])c([H])c(C([H])([H])C([H])([H])C([H])([H])N([H])C(=O)N4C([H])([H])C([H])([H])C([H])([H])C([H])(n5nc(-c6c([H])c([H])c(Oc7c([H])c([H])c(F)c([H])c7F)c([H])c6[H])c(C(=O)N([H])[H])c5N([H])[H])C4([H])[H])c([H])c3[H])c([H])c([H])c2C1([H])[H]

$$$$
39:0:0
     RDKit          3D

 94102  0  0  1  0  0  0  0  0999 V2000
  -29.5610  -18.1920   20.5170 C   0  0  0  0  0  3  0  0  0  0  0  0
  -30.7250  -17.3860   20.1000 C   0  0  0  0  0  0  0  0  0  0  0  0
  -31.1900  -19.9300   19.1700 C   0  0  0  0  0  0  0  0  0  0  0  0
  -29.2430  -19.6660   20.3200 C   0  0  0  0  0  0  0  0  0  0  0  0
  -31.5080  -18.4400   19.3810 C   0  0  0  0  0  0  0  0  0  0  0  0
  -30.0310  -20.7290   19.6320 C   0  0  0  0  0  0  0  0  0  0  0  0
  -31.2290  -15.7500   20.5020 C   0  0  0  0  0  0  0  0  0  0  0  0
  -31.2210  -13.1290   20.2130 C   0  0  0  0  0  2  0  0  0  0  0  0
  -30.4930  -12.5930   18.9520 C   0  0  0  0  0  2  0  0  0  0  0  0
  -28.9980  -12.3900   19.2380 C   0  0  0  0  0  2  0  0  0  0  0  0
  -28.4080  -13.5820   20.0260 C   0  0  0  0  0  3  0  0  0  0  0  0
  -29.2850  -14.0580   21.2040 C   0  0  0  0  0  2  0  0  0  0  0  0
  -30.5950  -14.4540   20.6520 N   0  0  0  0  0  0  0  0  0  0  0  0
  -32.4580  -15.5580   20.5480 O   0  0  0  0  0  0  0  0  0  0  0  0
  -26.0460  -14.3370   20.5790 C   0  0  0  0  0  0  0  0  0  0  0  0
  -24.8860  -13.6590   20.8250 C   0  0  0  0  0  0  0  0  0  0  0  0
  -25.2260  -12.2700   20.8110 C   0  0  0  0  0  0  0  0  0  0  0  0
  -27.0200  -13.3710   20.4120 N   0  0  0  0  0  0  0  0  0  0  0  0
  -26.5350  -12.1180   20.6250 N   0  0  0  0  0  0  0  0  0  0  0  0
  -24.3660  -11.0820   20.9040 C   0  0  0  0  0  0  0  0  0  0  0  0
  -24.6440  -10.0330   21.8080 C   0  0  0  0  0  3  0  0  0  0  0  0
  -23.7890   -8.9140   21.8940 C   0  0  0  0  0  3  0  0  0  0  0  0
  -22.6380   -8.8350   21.0730 C   0  0  0  0  0  0  0  0  0  0  0  0
  -22.3770   -9.8700   20.1590 C   0  0  0  0  0  3  0  0  0  0  0  0
  -23.2330  -10.9810   20.0720 C   0  0  0  0  0  3  0  0  0  0  0  0
  -21.7650   -7.7740   21.0700 O   0  0  0  0  0  0  0  0  0  0  0  0
  -21.6100   -6.9650   22.1650 C   0  0  0  0  0  0  0  0  0  0  0  0
  -21.2070   -7.4750   23.4190 C   0  0  0  0  0  3  0  0  0  0  0  0
  -20.9930   -6.5980   24.5010 C   0  0  0  0  0  3  0  0  0  0  0  0
  -21.1730   -5.2120   24.3310 C   0  0  0  0  0  0  0  0  0  0  0  0
  -21.5690   -4.7020   23.0830 C   0  0  0  0  0  3  0  0  0  0  0  0
  -21.7840   -5.5760   22.0030 C   0  0  0  0  0  0  0  0  0  0  0  0
  -22.1450   -5.0750   20.7960 F   0  0  0  0  0  0  0  0  0  0  0  0
  -20.9610   -4.3680   25.3680 F   0  0  0  0  0  0  0  0  0  0  0  0
  -23.5220  -14.2660   20.9610 C   0  0  0  0  0  0  0  0  0  0  0  0
  -22.6510  -13.6470   21.7500 N   0  0  0  0  0  0  0  0  0  0  0  0
  -23.2380  -15.3260   20.4030 O   0  0  0  0  0  0  0  0  0  0  0  0
  -22.8950  -12.7890   22.2230 H   0  0  0  0  0  0  0  0  0  0  0  0
  -21.7290  -14.0360   21.8850 H   0  0  0  0  0  0  0  0  0  0  0  0
  -26.3540  -15.6880   20.4520 N   0  0  0  0  0  0  0  0  0  0  0  0
  -25.6470  -16.4120   20.5130 H   0  0  0  0  0  0  0  0  0  0  0  0
  -27.2720  -16.0510   20.2250 H   0  0  0  0  0  0  0  0  0  0  0  0
  -32.1800  -20.7740   18.4180 C   0  0  0  0  0  0  0  0  0  0  0  0
  -33.1780  -21.2570   19.1460 N   0  0  0  0  0  0  0  0  0  0  0  0
  -32.0490  -21.0190   17.2210 O   0  0  0  0  0  0  0  0  0  0  0  0
  -33.2250  -21.0340   20.1310 H   0  0  0  0  0  0  0  0  0  0  0  0
  -33.8850  -21.8420   18.7290 H   0  0  0  0  0  0  0  0  0  0  0  0
  -26.7340  -19.8640   20.0300 C   0  0  0  0  0  1  0  0  0  0  0  0
  -27.9340  -20.1030   20.9570 C   0  0  0  0  0  2  0  0  0  0  0  0
  -32.5380  -17.3560   17.3230 C   0  0  0  0  0  1  0  0  0  0  0  0
  -32.7950  -17.9010   18.7330 C   0  0  0  0  0  2  0  0  0  0  0  0
  -29.8630  -22.5650   19.6720 C   0  0  0  0  0  3  0  0  0  0  0  0
  -28.9030  -24.0500   19.0080 C   0  0  0  0  0  3  0  0  0  0  0  0
  -28.8750  -25.7600   19.2300 O   0  0  0  0  0  0  0  0  0  0  0  0
  -24.6510  -31.1530   22.7000 C   0  0  0  0  0  0  0  0  0  0  0  0
  -27.7530  -26.7990   19.2570 C   0  0  0  0  0  0  0  0  0  0  0  0
  -23.6250  -29.7710   20.9410 C   0  0  0  0  0  3  0  0  0  0  0  0
  -25.2470  -28.4720   19.3780 C   0  0  0  0  0  0  0  0  0  0  0  0
  -26.1560  -30.2730   20.8250 C   0  0  0  0  0  2  0  0  0  0  0  0
  -26.3900  -28.9350   20.0400 C   0  0  0  0  0  0  0  0  0  0  0  0
  -27.6280  -28.1240   19.9530 C   0  0  0  0  0  3  0  0  0  0  0  0
  -26.5560  -26.5240   18.5540 C   0  0  0  0  0  3  0  0  0  0  0  0
  -25.3600  -27.2980   18.6120 C   0  0  0  0  0  3  0  0  0  0  0  0
  -23.9290  -29.2430   19.5100 C   0  0  0  0  0  2  0  0  0  0  0  0
  -24.8300  -30.4290   21.5440 N   0  0  0  0  0  0  0  0  0  0  0  0
  -23.5370  -31.2610   23.2410 O   0  0  0  0  0  0  0  0  0  0  0  0
  -23.0580  -28.6210   21.8170 C   0  0  0  0  0  0  0  0  0  0  0  0
  -21.7500  -28.3240   21.6960 N   0  0  0  0  0  0  0  0  0  0  0  0
  -23.8040  -27.9990   22.5750 O   0  0  0  0  0  0  0  0  0  0  0  0
  -21.1920  -28.8830   21.0670 H   0  0  0  0  0  0  0  0  0  0  0  0
  -18.5290  -26.7130   22.1610 C   0  0  0  0  0  0  0  0  0  0  0  0
  -21.0550  -27.2280   22.3820 C   0  0  0  0  0  3  0  0  0  0  0  0
  -21.2830  -25.8820   21.6520 C   0  0  0  0  0  2  0  0  0  0  0  0
  -20.1830  -25.5540   20.6380 C   0  0  0  0  0  2  0  0  0  0  0  0
  -18.8190  -25.4740   21.3310 C   0  0  0  0  0  2  0  0  0  0  0  0
  -19.5750  -27.5450   22.6410 C   0  0  0  0  0  0  0  0  0  0  0  0
  -19.2440  -28.7000   23.3830 C   0  0  0  0  0  3  0  0  0  0  0  0
  -17.9000  -29.0280   23.6450 C   0  0  0  0  0  3  0  0  0  0  0  0
  -16.8690  -28.1940   23.1780 C   0  0  0  0  0  3  0  0  0  0  0  0
  -17.1850  -27.0380   22.4420 C   0  0  0  0  0  3  0  0  0  0  0  0
  -25.8350  -31.8920   23.3940 C   0  0  0  0  0  3  0  0  0  0  0  0
  -25.3380  -33.1910   23.8860 N   0  0  0  0  0  0  0  0  0  0  0  0
  -25.5470  -34.3720   23.2890 C   0  0  0  0  0  0  0  0  0  0  0  0
  -26.2350  -34.4890   22.2720 O   0  0  0  0  0  0  0  0  0  0  0  0
  -24.7190  -33.1630   24.6830 H   0  0  0  0  0  0  0  0  0  0  0  0
  -23.6090  -35.9760   23.1420 C   0  0  0  0  0  1  0  0  0  0  0  0
  -24.8900  -35.6210   23.9140 C   0  0  0  0  0  3  0  0  0  0  0  0
  -26.8910  -36.6540   24.8970 C   0  0  0  0  0  1  0  0  0  0  0  0
  -25.7840  -36.8000   23.9560 N   0  0  0  0  0  0  0  0  0  0  0  0
  -25.2650  -37.6380   24.2060 H   0  0  0  0  0  0  0  0  0  0  0  0
  -26.4630  -31.0710   24.5880 C   0  0  1  0  0  0  0  0  0  0  0  0
  -25.4230  -30.5900   25.6290 C   0  0  0  0  0  1  0  0  0  0  0  0
  -27.2120  -29.8240   24.0690 C   0  0  0  0  0  1  0  0  0  0  0  0
  -27.5130  -31.9360   25.3220 C   0  0  0  0  0  1  0  0  0  0  0  0
  2  7  1  0
  2  1  2  0
  3  5  2  0
  3  6  1  0
  4  1  1  0
  4 49  1  0
  5  2  1  0
  6 52  1  0
  6  4  2  0
  7 14  2  0
  7 13  1  0
  8 13  1  0
  9 10  1  0
  9  8  1  0
 11 10  1  0
 11 18  1  0
 11 12  1  0
 13 12  1  0
 15 16  2  0
 16 35  1  0
 17 16  1  0
 17 20  1  0
 18 15  1  0
 18 19  1  0
 19 17  2  0
 20 21  1  0
 21 22  2  0
 23 22  1  0
 24 23  2  0
 25 24  1  0
 25 20  2  0
 26 23  1  0
 26 27  1  0
 27 28  1  0
 28 29  2  0
 30 29  1  0
 30 34  1  0
 31 30  2  0
 32 27  2  0
 32 31  1  0
 33 32  1  0
 35 36  1  0
 36 39  1  0
 36 38  1  0
 37 35  2  0
 40 41  1  0
 40 15  1  0
 42 40  1  0
 43 44  1  0
 43  3  1  0
 44 46  1  0
 45 43  2  0
 47 44  1  0
 48 49  1  0
 50 51  1  0
 51  5  1  0
 53 54  1  0
 53 52  2  0
 54 56  1  0
 55 66  2  0
 56 61  1  0
 57 65  1  0
 57 67  1  0
 58 64  1  0
 58 60  1  0
 59 65  1  0
 60 59  1  0
 61 60  2  0
 62 63  1  0
 62 56  2  0
 63 58  2  0
 64 57  1  0
 65 55  1  0
 67 69  2  0
 68 67  1  0
 70 68  1  0
 71 80  2  0
 71 76  1  0
 72 68  1  0
 72 76  1  0
 73 72  1  0
 74 75  1  0
 74 73  1  0
 75 71  1  0
 76 77  2  0
 77 78  1  0
 79 78  2  0
 80 79  1  0
 81 55  1  0
 81 82  1  0
 81 91  1  0
 82 85  1  0
 83 82  1  0
 83 87  1  0
 84 83  2  0
 87 86  1  0
 87 89  1  0
 89 90  1  0
 89 88  1  0
 91 94  1  1
 91 92  1  0
 93 91  1  0
M  ISO  4   2 100   7 100  53 101  54 101
M  END
>  <TORSDO>  (40) 
F 21

>  <SCORE>  (40) 
-10.199

>  <name>  (40) 
39

>  <ligand_id>  (40) 
39

>  <original_smiles>  (40) 
[H]c1c([H])c([H])c2c(c1[H])C([H])([H])C([H])([H])C([H])([H])C2([H])N([H])C(=O)C1([H])N(C(=O)C([H])(N([H])C(=O)C([H])(N([H])C([H])([H])[H])C([H])([H])[H])C(C([H])([H])[H])(C([H])([H])[H])C([H])([H])[H])C([H])([H])c2c([H])c(OC([H])([H])C([H])([H])c3c(C(=O)N([H])[H])c(C([H])([H])C([H])([H])[H])c(C(=O)N4C([H])([H])C([H])([H])C([H])([H])C([H])(n5nc(-c6c([H])c([H])c(Oc7c([H])c([H])c(F)c([H])c7F)c([H])c6[H])c(C(=O)N([H])[H])c5N([H])[H])C4([H])[H])c([H])c3C([H])([H])C([H])([H])[H])c([H])c([H])c2C1([H])[H]

>  <smiles>  (40) 
[H]c1c([H])c([H])c2c(c1[H])C([H])([H])C([H])([H])C([H])([H])C2([H])N([H])C(=O)C1([H])N(C(=O)C([H])(N([H])C(=O)C([H])(N([H])C([H])([H])[H])C([H])([H])[H])C(C([H])([H])[H])(C([H])([H])[H])C([H])([H])[H])C([H])([H])c2c([H])c(OC([H])([H])C([H])([H])c3c(C(=O)N([H])[H])c(C([H])([H])C([H])([H])[H])c(C(=O)N4C([H])([H])C([H])([H])C([H])([H])C([H])(n5nc(-c6c([H])c([H])c(Oc7c([H])c([H])c(F)c([H])c7F)c([H])c6[H])c(C(=O)N([H])[H])c5N([H])[H])C4([H])[H])c([H])c3C([H])([H])C([H])([H])[H])c([H])c([H])c2C1([H])[H]

$$$$
40:0:0
     RDKit          3D

 91 99  0  0  1  0  0  0  0  0999 V2000
  -28.3380  -23.9150   23.5010 C   0  0  0  0  0  3  0  0  0  0  0  0
  -27.9860  -25.8790   22.1870 C   0  0  0  0  0  3  0  0  0  0  0  0
  -27.9320  -25.2360   23.4200 C   0  0  0  0  0  0  0  0  0  0  0  0
  -28.7990  -23.2300   22.3670 C   0  0  0  0  0  0  0  0  0  0  0  0
  -28.8290  -23.7980   21.0420 C   0  0  0  0  0  0  0  0  0  0  0  0
  -28.3930  -25.2840   20.9580 C   0  0  0  0  0  0  0  0  0  0  0  0
  -27.4720  -25.9920   24.6540 C   0  0  0  0  0  1  0  0  0  0  0  0
  -29.3160  -21.8380   22.6920 C   0  0  0  0  0  1  0  0  0  0  0  0
  -28.3500  -26.3630   19.9530 O   0  0  0  0  0  0  0  0  0  0  0  0
  -24.6810  -31.9220   23.2020 C   0  0  0  0  0  0  0  0  0  0  0  0
  -27.3230  -27.3970   19.9380 C   0  0  0  0  0  0  0  0  0  0  0  0
  -23.4910  -30.5740   21.5170 C   0  0  0  0  0  3  0  0  0  0  0  0
  -24.9570  -29.0950   20.0030 C   0  0  0  0  0  0  0  0  0  0  0  0
  -26.0370  -30.9060   21.3290 C   0  0  0  0  0  2  0  0  0  0  0  0
  -26.1360  -29.5450   20.6130 C   0  0  0  0  0  0  0  0  0  0  0  0
  -27.3220  -28.7160   20.5620 C   0  0  0  0  0  3  0  0  0  0  0  0
  -26.1210  -27.0590   19.2860 C   0  0  0  0  0  3  0  0  0  0  0  0
  -24.9620  -27.8670   19.3220 C   0  0  0  0  0  3  0  0  0  0  0  0
  -23.7080  -29.9600   20.1080 C   0  0  0  0  0  2  0  0  0  0  0  0
  -24.7570  -31.1530   22.0710 N   0  0  0  0  0  0  0  0  0  0  0  0
  -23.5970  -32.1580   23.7560 O   0  0  0  0  0  0  0  0  0  0  0  0
  -22.8460  -29.5140   22.4450 C   0  0  0  0  0  0  0  0  0  0  0  0
  -21.5190  -29.3210   22.3310 N   0  0  0  0  0  0  0  0  0  0  0  0
  -23.5430  -28.8670   23.2300 O   0  0  0  0  0  0  0  0  0  0  0  0
  -21.0120  -29.8960   21.6730 H   0  0  0  0  0  0  0  0  0  0  0  0
  -18.1720  -28.0250   22.8270 C   0  0  0  0  0  0  0  0  0  0  0  0
  -20.7290  -28.3330   23.0700 C   0  0  0  0  0  3  0  0  0  0  0  0
  -20.8530  -26.9290   22.4330 C   0  0  0  0  0  2  0  0  0  0  0  0
  -19.7430  -26.6270   21.4200 C   0  0  0  0  0  2  0  0  0  0  0  0
  -18.3680  -26.7110   22.0890 C   0  0  0  0  0  2  0  0  0  0  0  0
  -19.2800  -28.7930   23.2750 C   0  0  0  0  0  0  0  0  0  0  0  0
  -19.0400  -30.0210   23.9280 C   0  0  0  0  0  3  0  0  0  0  0  0
  -17.7260  -30.4830   24.1380 C   0  0  0  0  0  3  0  0  0  0  0  0
  -16.6340  -29.7100   23.7060 C   0  0  0  0  0  3  0  0  0  0  0  0
  -16.8580  -28.4840   23.0570 C   0  0  0  0  0  3  0  0  0  0  0  0
  -25.9530  -32.5600   23.8400 C   0  0  0  0  0  3  0  0  0  0  0  0
  -26.4980  -31.7450   25.0780 C   0  0  1  0  0  0  0  0  0  0  0  0
  -25.4190  -31.4280   26.1400 C   0  0  0  0  0  1  0  0  0  0  0  0
  -27.1170  -30.4040   24.6240 C   0  0  0  0  0  1  0  0  0  0  0  0
  -27.6330  -32.5390   25.7680 C   0  0  0  0  0  1  0  0  0  0  0  0
  -25.6150  -33.9350   24.2420 N   0  0  0  0  0  0  0  0  0  0  0  0
  -25.9290  -35.0360   23.5470 C   0  0  0  0  0  0  0  0  0  0  0  0
  -26.5990  -34.9990   22.5110 O   0  0  0  0  0  0  0  0  0  0  0  0
  -25.0130  -34.0330   25.0480 H   0  0  0  0  0  0  0  0  0  0  0  0
  -24.1720  -36.8210   23.2930 C   0  0  0  0  0  1  0  0  0  0  0  0
  -25.4220  -36.3910   24.0800 C   0  0  0  0  0  3  0  0  0  0  0  0
  -27.5430  -37.2660   24.9550 C   0  0  0  0  0  1  0  0  0  0  0  0
  -26.4370  -37.4650   24.0220 N   0  0  0  0  0  0  0  0  0  0  0  0
  -26.0180  -38.3700   24.2170 H   0  0  0  0  0  0  0  0  0  0  0  0
  -29.4670  -22.7080   19.9630 C   0  0  0  0  0  2  0  0  0  0  0  0
  -29.2240  -20.9960   19.7720 C   0  0  0  0  0  2  0  0  0  0  0  0
  -29.9100  -19.5600   20.4370 C   0  0  0  0  0  2  0  0  0  0  0  0
  -30.1970  -18.0600   19.6590 C   0  0  0  0  0  2  0  0  0  0  0  0
  -30.8400  -15.3590   20.0420 C   0  0  0  0  0  0  0  0  0  0  0  0
  -30.7260  -12.9650   19.1830 C   0  0  0  0  0  2  0  0  0  0  0  0
  -29.8020  -12.8730   17.9450 C   0  0  0  0  0  2  0  0  0  0  0  0
  -28.3330  -12.6850   18.3670 C   0  0  0  0  0  2  0  0  0  0  0  0
  -27.9250  -13.6290   19.5280 C   0  0  0  0  0  3  0  0  0  0  0  0
  -28.9770  -13.6800   20.6580 C   0  0  0  0  0  2  0  0  0  0  0  0
  -30.2480  -14.0890   20.0470 N   0  0  0  0  0  0  0  0  0  0  0  0
  -32.0240  -15.4080   19.6880 O   0  0  0  0  0  0  0  0  0  0  0  0
  -30.0790  -16.5630   20.2240 N   0  0  0  0  0  0  0  0  0  0  0  0
  -29.1530  -16.3610   20.5740 H   0  0  0  0  0  0  0  0  0  0  0  0
  -25.5480  -14.2140   20.2650 C   0  0  0  0  0  0  0  0  0  0  0  0
  -24.4850  -13.4460   20.6490 C   0  0  0  0  0  0  0  0  0  0  0  0
  -24.9480  -12.0930   20.6360 C   0  0  0  0  0  0  0  0  0  0  0  0
  -26.5880  -13.3320   20.0320 N   0  0  0  0  0  0  0  0  0  0  0  0
  -26.2390  -12.0520   20.3230 N   0  0  0  0  0  0  0  0  0  0  0  0
  -24.2190  -10.8350   20.8470 C   0  0  0  0  0  0  0  0  0  0  0  0
  -24.6020   -9.9180   21.8500 C   0  0  0  0  0  3  0  0  0  0  0  0
  -23.8720   -8.7270   22.0450 C   0  0  0  0  0  3  0  0  0  0  0  0
  -22.7450   -8.4420   21.2380 C   0  0  0  0  0  0  0  0  0  0  0  0
  -22.3830   -9.3480   20.2270 C   0  0  0  0  0  3  0  0  0  0  0  0
  -23.1130  -10.5320   20.0290 C   0  0  0  0  0  3  0  0  0  0  0  0
  -21.9920   -7.2970   21.3390 O   0  0  0  0  0  0  0  0  0  0  0  0
  -21.8210   -6.6490   22.5360 C   0  0  0  0  0  0  0  0  0  0  0  0
  -21.2480   -7.2920   23.6540 C   0  0  0  0  0  3  0  0  0  0  0  0
  -21.0260   -6.5700   24.8440 C   0  0  0  0  0  3  0  0  0  0  0  0
  -21.3670   -5.2050   24.9150 C   0  0  0  0  0  0  0  0  0  0  0  0
  -21.9330   -4.5620   23.8000 C   0  0  0  0  0  3  0  0  0  0  0  0
  -22.1570   -5.2830   22.6130 C   0  0  0  0  0  0  0  0  0  0  0  0
  -22.6810   -4.6520   21.5350 F   0  0  0  0  0  0  0  0  0  0  0  0
  -21.1480   -4.5090   26.0550 F   0  0  0  0  0  0  0  0  0  0  0  0
  -23.0900  -13.9270   20.9100 C   0  0  0  0  0  0  0  0  0  0  0  0
  -22.3630  -13.2590   21.7990 N   0  0  0  0  0  0  0  0  0  0  0  0
  -22.6510  -14.9370   20.3600 O   0  0  0  0  0  0  0  0  0  0  0  0
  -22.7320  -12.4450   22.2660 H   0  0  0  0  0  0  0  0  0  0  0  0
  -21.4230  -13.5650   22.0120 H   0  0  0  0  0  0  0  0  0  0  0  0
  -25.7110  -15.5820   20.0660 N   0  0  0  0  0  0  0  0  0  0  0  0
  -24.9420  -16.2360   20.1740 H   0  0  0  0  0  0  0  0  0  0  0  0
  -26.5440  -16.0130   19.6840 H   0  0  0  0  0  0  0  0  0  0  0  0
  2  3  2  0
  3  1  1  0
  3  7  1  0
  4  8  1  0
  4  1  2  0
  5  4  1  0
  6  5  2  0
  6  2  1  0
  9  6  1  0
 10 21  2  0
 11  9  1  0
 11 16  1  0
 12 20  1  0
 12 22  1  0
 13 19  1  0
 13 15  1  0
 14 20  1  0
 15 14  1  0
 16 15  2  0
 17 18  1  0
 17 11  2  0
 18 13  2  0
 19 12  1  0
 20 10  1  0
 22 24  2  0
 23 22  1  0
 25 23  1  0
 26 35  2  0
 26 31  1  0
 27 23  1  0
 27 31  1  0
 28 27  1  0
 29 30  1  0
 29 28  1  0
 30 26  1  0
 31 32  2  0
 32 33  1  0
 34 33  2  0
 35 34  1  0
 36 10  1  0
 36 41  1  0
 36 37  1  0
 37 40  1  1
 37 38  1  0
 39 37  1  0
 41 44  1  0
 42 46  1  0
 42 41  1  0
 43 42  2  0
 46 45  1  0
 48 46  1  0
 48 49  1  0
 48 47  1  0
 50  5  1  0
 51 50  1  0
 51 52  1  0
 53 62  1  0
 53 52  1  0
 54 60  1  0
 54 62  1  0
 55 60  1  0
 56 57  1  0
 56 55  1  0
 58 57  1  0
 58 67  1  0
 58 59  1  0
 60 59  1  0
 61 54  2  0
 62 63  1  0
 64 65  2  0
 65 84  1  0
 66 65  1  0
 66 69  1  0
 67 64  1  0
 67 68  1  0
 68 66  2  0
 69 70  1  0
 70 71  2  0
 72 75  1  0
 72 71  1  0
 73 72  2  0
 74 73  1  0
 74 69  2  0
 75 76  1  0
 76 81  2  0
 76 77  1  0
 77 78  2  0
 78 79  1  0
 79 83  1  0
 80 79  2  0
 81 80  1  0
 82 81  1  0
 84 85  1  0
 85 88  1  0
 85 87  1  0
 86 84  2  0
 89 90  1  0
 89 64  1  0
 91 89  1  0
M  ISO  4   6 101   9 101  54 100  62 100
M  END
>  <TORSDO>  (41) 
F 20

>  <SCORE>  (41) 
-13.240

>  <name>  (41) 
40

>  <ligand_id>  (41) 
40

>  <original_smiles>  (41) 
[H]c1c([H])c([H])c2c(c1[H])C([H])([H])C([H])([H])C([H])([H])C2([H])N([H])C(=O)C1([H])N(C(=O)C([H])(N([H])C(=O)C([H])(N([H])C([H])([H])[H])C([H])([H])[H])C(C([H])([H])[H])(C([H])([H])[H])C([H])([H])[H])C([H])([H])c2c([H])c(Oc3c([H])c(C([H])([H])[H])c([H])c(C([H])([H])[H])c3C([H])([H])C([H])([H])C([H])([H])C([H])([H])N([H])C(=O)N3C([H])([H])C([H])([H])C([H])([H])C([H])(n4nc(-c5c([H])c([H])c(Oc6c([H])c([H])c(F)c([H])c6F)c([H])c5[H])c(C(=O)N([H])[H])c4N([H])[H])C3([H])[H])c([H])c([H])c2C1([H])[H]

>  <smiles>  (41) 
[H]c1c([H])c([H])c2c(c1[H])C([H])([H])C([H])([H])C([H])([H])C2([H])N([H])C(=O)C1([H])N(C(=O)C([H])(N([H])C(=O)C([H])(N([H])C([H])([H])[H])C([H])([H])[H])C(C([H])([H])[H])(C([H])([H])[H])C([H])([H])[H])C([H])([H])c2c([H])c(Oc3c([H])c(C([H])([H])[H])c([H])c(C([H])([H])[H])c3C([H])([H])C([H])([H])C([H])([H])C([H])([H])N([H])C(=O)N3C([H])([H])C([H])([H])C([H])([H])C([H])(n4nc(-c5c([H])c([H])c(Oc6c([H])c([H])c(F)c([H])c6F)c([H])c5[H])c(C(=O)N([H])[H])c4N([H])[H])C3([H])[H])c([H])c([H])c2C1([H])[H]

$$$$
41:0:0
     RDKit          3D

 93101  0  0  1  0  0  0  0  0999 V2000
  -28.0400  -22.3760   20.6770 C   0  0  0  0  0  3  0  0  0  0  0  0
  -29.2360  -22.3550   18.5610 C   0  0  0  0  0  3  0  0  0  0  0  0
  -28.5560  -21.6580   19.5790 C   0  0  0  0  0  0  0  0  0  0  0  0
  -28.8760  -24.4800   19.7390 C   0  0  0  0  0  0  0  0  0  0  0  0
  -28.2040  -23.7830   20.7800 C   0  0  0  0  0  0  0  0  0  0  0  0
  -29.3990  -23.7520   18.6420 C   0  0  0  0  0  0  0  0  0  0  0  0
  -30.0930  -24.3840   17.6640 F   0  0  0  0  0  0  0  0  0  0  0  0
  -27.0990  -23.8110   22.9230 C   0  0  0  0  0  1  0  0  0  0  0  0
  -27.7450  -24.5080   21.8620 O   0  0  0  0  0  0  0  0  0  0  0  0
  -28.3750  -20.1460   19.5110 C   0  0  0  0  0  2  0  0  0  0  0  0
  -29.4640  -19.3680   20.2810 C   0  0  0  0  0  2  0  0  0  0  0  0
  -29.1770  -17.8560   20.3970 C   0  0  0  0  0  2  0  0  0  0  0  0
  -30.2770  -17.0760   21.1520 C   0  0  0  0  0  2  0  0  0  0  0  0
  -30.6700  -14.6440   20.5850 C   0  0  0  0  0  0  0  0  0  0  0  0
  -30.3750  -12.4660   19.4580 C   0  0  0  0  0  2  0  0  0  0  0  0
  -29.4750  -12.6060   18.2060 C   0  0  0  0  0  2  0  0  0  0  0  0
  -27.9940  -12.9370   18.5280 C   0  0  0  0  0  2  0  0  0  0  0  0
  -27.6740  -12.7840   20.0120 C   0  0  0  0  0  3  0  0  0  0  0  0
  -28.6750  -13.2180   21.0800 C   0  0  0  0  0  2  0  0  0  0  0  0
  -29.9860  -13.4810   20.4580 N   0  0  0  0  0  0  0  0  0  0  0  0
  -31.7780  -14.8400   20.0810 O   0  0  0  0  0  0  0  0  0  0  0  0
  -29.9830  -15.6400   21.1690 N   0  0  0  0  0  0  0  0  0  0  0  0
  -29.0980  -15.3680   21.5710 H   0  0  0  0  0  0  0  0  0  0  0  0
  -25.2590  -13.7370   20.6060 C   0  0  0  0  0  0  0  0  0  0  0  0
  -24.1580  -12.9970   20.9770 C   0  0  0  0  0  0  0  0  0  0  0  0
  -24.5780  -11.6370   20.9540 C   0  0  0  0  0  0  0  0  0  0  0  0
  -26.2720  -12.7900   20.4040 N   0  0  0  0  0  0  0  0  0  0  0  0
  -25.8390  -11.5480   20.6520 N   0  0  0  0  0  0  0  0  0  0  0  0
  -23.8820  -10.3720   21.1370 C   0  0  0  0  0  0  0  0  0  0  0  0
  -24.3270   -9.4330   22.0920 C   0  0  0  0  0  3  0  0  0  0  0  0
  -23.6520   -8.2060   22.2440 C   0  0  0  0  0  3  0  0  0  0  0  0
  -22.5250   -7.9200   21.4380 C   0  0  0  0  0  0  0  0  0  0  0  0
  -22.1110   -8.8490   20.4690 C   0  0  0  0  0  3  0  0  0  0  0  0
  -22.7870  -10.0670   20.3120 C   0  0  0  0  0  3  0  0  0  0  0  0
  -21.8140   -6.7500   21.5050 O   0  0  0  0  0  0  0  0  0  0  0  0
  -21.7010   -6.0490   22.6770 C   0  0  0  0  0  0  0  0  0  0  0  0
  -21.1030   -6.6080   23.8280 C   0  0  0  0  0  3  0  0  0  0  0  0
  -20.9480   -5.8260   24.9890 C   0  0  0  0  0  3  0  0  0  0  0  0
  -21.3800   -4.4850   24.9970 C   0  0  0  0  0  0  0  0  0  0  0  0
  -21.9720   -3.9290   23.8500 C   0  0  0  0  0  3  0  0  0  0  0  0
  -22.1310   -4.7080   22.6920 C   0  0  0  0  0  0  0  0  0  0  0  0
  -22.6830   -4.1640   21.5820 F   0  0  0  0  0  0  0  0  0  0  0  0
  -21.2210   -3.7290   26.1070 F   0  0  0  0  0  0  0  0  0  0  0  0
  -22.7630  -13.4780   21.2570 C   0  0  0  0  0  0  0  0  0  0  0  0
  -22.0280  -12.7580   22.1010 N   0  0  0  0  0  0  0  0  0  0  0  0
  -22.3220  -14.5100   20.7560 O   0  0  0  0  0  0  0  0  0  0  0  0
  -22.3950  -11.9180   22.5240 H   0  0  0  0  0  0  0  0  0  0  0  0
  -21.0890  -13.0530   22.3250 H   0  0  0  0  0  0  0  0  0  0  0  0
  -25.4690  -15.1010   20.4230 N   0  0  0  0  0  0  0  0  0  0  0  0
  -24.7440  -15.8000   20.5340 H   0  0  0  0  0  0  0  0  0  0  0  0
  -26.3340  -15.4790   20.0550 H   0  0  0  0  0  0  0  0  0  0  0  0
  -29.1270  -25.9870   19.8490 C   0  0  0  0  0  2  0  0  0  0  0  0
  -28.6260  -26.7550   18.7530 O   0  0  0  0  0  0  0  0  0  0  0  0
  -24.7900  -31.1590   22.8360 C   0  0  0  0  0  0  0  0  0  0  0  0
  -27.4290  -27.3870   18.9780 C   0  0  0  0  0  0  0  0  0  0  0  0
  -23.5470  -29.9760   21.0510 C   0  0  0  0  0  3  0  0  0  0  0  0
  -24.9800  -28.7350   19.3420 C   0  0  0  0  0  0  0  0  0  0  0  0
  -26.0410  -30.4760   20.7930 C   0  0  0  0  0  2  0  0  0  0  0  0
  -26.1440  -29.2240   19.9500 C   0  0  0  0  0  0  0  0  0  0  0  0
  -27.3730  -28.5560   19.7670 C   0  0  0  0  0  3  0  0  0  0  0  0
  -26.2540  -26.8970   18.3770 C   0  0  0  0  0  3  0  0  0  0  0  0
  -25.0270  -27.5650   18.5600 C   0  0  0  0  0  3  0  0  0  0  0  0
  -23.7090  -29.5200   19.5750 C   0  0  0  0  0  2  0  0  0  0  0  0
  -24.8130  -30.5440   21.6190 N   0  0  0  0  0  0  0  0  0  0  0  0
  -23.7320  -31.2950   23.4650 O   0  0  0  0  0  0  0  0  0  0  0  0
  -22.9880  -28.7910   21.8700 C   0  0  0  0  0  0  0  0  0  0  0  0
  -21.6730  -28.5470   21.7460 N   0  0  0  0  0  0  0  0  0  0  0  0
  -23.7310  -28.1000   22.5710 O   0  0  0  0  0  0  0  0  0  0  0  0
  -21.1300  -29.1650   21.1590 H   0  0  0  0  0  0  0  0  0  0  0  0
  -18.3890  -27.0930   22.1380 C   0  0  0  0  0  0  0  0  0  0  0  0
  -20.9350  -27.4610   22.3890 C   0  0  0  0  0  3  0  0  0  0  0  0
  -21.0990  -26.1350   21.6090 C   0  0  0  0  0  2  0  0  0  0  0  0
  -19.9870  -25.8980   20.5820 C   0  0  0  0  0  2  0  0  0  0  0  0
  -18.6200  -25.8680   21.2700 C   0  0  0  0  0  2  0  0  0  0  0  0
  -19.4760  -27.8500   22.6500 C   0  0  0  0  0  0  0  0  0  0  0  0
  -19.2050  -29.0040   23.4180 C   0  0  0  0  0  3  0  0  0  0  0  0
  -17.8790  -29.3980   23.6820 C   0  0  0  0  0  3  0  0  0  0  0  0
  -16.8080  -28.6350   23.1870 C   0  0  0  0  0  3  0  0  0  0  0  0
  -17.0630  -27.4850   22.4190 C   0  0  0  0  0  3  0  0  0  0  0  0
  -26.0860  -31.7400   23.4860 C   0  0  0  0  0  3  0  0  0  0  0  0
  -25.7470  -33.0500   24.0570 N   0  0  0  0  0  0  0  0  0  0  0  0
  -26.0500  -34.2270   23.4920 C   0  0  0  0  0  0  0  0  0  0  0  0
  -26.7200  -34.3240   22.4600 O   0  0  0  0  0  0  0  0  0  0  0  0
  -25.1580  -33.0470   24.8780 H   0  0  0  0  0  0  0  0  0  0  0  0
  -24.3010  -36.0310   23.4230 C   0  0  0  0  0  1  0  0  0  0  0  0
  -25.5280  -35.5010   24.1830 C   0  0  0  0  0  3  0  0  0  0  0  0
  -27.6170  -36.2460   25.2350 C   0  0  0  0  0  1  0  0  0  0  0  0
  -26.5460  -36.5690   24.2970 N   0  0  0  0  0  0  0  0  0  0  0  0
  -26.1190  -37.4420   24.5930 H   0  0  0  0  0  0  0  0  0  0  0  0
  -26.7070  -30.7960   24.5870 C   0  0  1  0  0  0  0  0  0  0  0  0
  -25.6920  -30.3380   25.6580 C   0  0  0  0  0  1  0  0  0  0  0  0
  -27.3130  -29.5290   23.9380 C   0  0  0  0  0  1  0  0  0  0  0  0
  -27.8680  -31.5210   25.3070 C   0  0  0  0  0  1  0  0  0  0  0  0
  1  5  1  0
  2  6  2  0
  2  3  1  0
  3  1  2  0
  4 52  1  0
  4  5  2  0
  5  9  1  0
  6  4  1  0
  7  6  1  0
  9  8  1  0
 10  3  1  0
 10 11  1  0
 11 12  1  0
 12 13  1  0
 13 22  1  0
 14 22  1  0
 15 20  1  0
 16 17  1  0
 16 15  1  0
 18 17  1  0
 18 27  1  0
 18 19  1  0
 20 14  1  0
 20 19  1  0
 21 14  2  0
 22 23  1  0
 24 25  2  0
 25 44  1  0
 26 25  1  0
 26 29  1  0
 27 24  1  0
 27 28  1  0
 28 26  2  0
 29 30  1  0
 30 31  2  0
 32 35  1  0
 32 31  1  0
 33 32  2  0
 34 33  1  0
 34 29  2  0
 35 36  1  0
 36 41  2  0
 36 37  1  0
 37 38  2  0
 38 39  1  0
 39 43  1  0
 40 39  2  0
 41 40  1  0
 42 41  1  0
 44 45  1  0
 45 48  1  0
 45 47  1  0
 46 44  2  0
 49 50  1  0
 49 24  1  0
 51 49  1  0
 53 55  1  0
 53 52  1  0
 54 65  2  0
 55 60  1  0
 56 64  1  0
 56 66  1  0
 57 63  1  0
 57 59  1  0
 58 64  1  0
 59 58  1  0
 60 59  2  0
 61 62  1  0
 61 55  2  0
 62 57  2  0
 63 56  1  0
 64 54  1  0
 66 68  2  0
 67 66  1  0
 69 67  1  0
 70 79  2  0
 70 75  1  0
 71 67  1  0
 71 75  1  0
 72 71  1  0
 73 74  1  0
 73 72  1  0
 74 70  1  0
 75 76  2  0
 76 77  1  0
 78 77  2  0
 79 78  1  0
 80 54  1  0
 80 81  1  0
 80 90  1  0
 81 84  1  0
 82 81  1  0
 82 86  1  0
 83 82  2  0
 86 85  1  0
 86 88  1  0
 88 89  1  0
 88 87  1  0
 90 93  1  1
 90 91  1  0
 92 90  1  0
M  ISO  4  14 100  22 100  52 101  53 101
M  END
>  <TORSDO>  (42) 
F 22

>  <SCORE>  (42) 
-10.169

>  <name>  (42) 
41

>  <ligand_id>  (42) 
41

>  <original_smiles>  (42) 
[H]c1c([H])c([H])c2c(c1[H])C([H])([H])C([H])([H])C([H])([H])C2([H])N([H])C(=O)C1([H])N(C(=O)C([H])(N([H])C(=O)C([H])(N([H])C([H])([H])[H])C([H])([H])[H])C(C([H])([H])[H])(C([H])([H])[H])C([H])([H])[H])C([H])([H])c2c([H])c(OC([H])([H])c3c(F)c([H])c(C([H])([H])C([H])([H])C([H])([H])C([H])([H])N([H])C(=O)N4C([H])([H])C([H])([H])C([H])([H])C([H])(n5nc(-c6c([H])c([H])c(Oc7c([H])c([H])c(F)c([H])c7F)c([H])c6[H])c(C(=O)N([H])[H])c5N([H])[H])C4([H])[H])c([H])c3OC([H])([H])[H])c([H])c([H])c2C1([H])[H]

>  <smiles>  (42) 
[H]c1c([H])c([H])c2c(c1[H])C([H])([H])C([H])([H])C([H])([H])C2([H])N([H])C(=O)C1([H])N(C(=O)C([H])(N([H])C(=O)C([H])(N([H])C([H])([H])[H])C([H])([H])[H])C(C([H])([H])[H])(C([H])([H])[H])C([H])([H])[H])C([H])([H])c2c([H])c(OC([H])([H])c3c(F)c([H])c(C([H])([H])C([H])([H])C([H])([H])C([H])([H])N([H])C(=O)N4C([H])([H])C([H])([H])C([H])([H])C([H])(n5nc(-c6c([H])c([H])c(Oc7c([H])c([H])c(F)c([H])c7F)c([H])c6[H])c(C(=O)N([H])[H])c5N([H])[H])C4([H])[H])c([H])c3OC([H])([H])[H])c([H])c([H])c2C1([H])[H]

$$$$
42:0:0
     RDKit          3D

 92100  0  0  1  0  0  0  0  0999 V2000
  -29.2570  -22.8100   22.0290 C   0  0  0  0  0  3  0  0  0  0  0  0
  -28.8970  -25.2390   22.0320 C   0  0  0  0  0  3  0  0  0  0  0  0
  -28.8330  -22.6870   20.6850 C   0  0  0  0  0  0  0  0  0  0  0  0
  -29.2910  -24.0550   22.6910 C   0  0  0  0  0  0  0  0  0  0  0  0
  -28.4640  -23.9390   20.0160 C   0  0  0  0  0  0  0  0  0  0  0  0
  -28.4920  -25.2320   20.6850 C   0  0  0  0  0  0  0  0  0  0  0  0
  -29.7860  -24.1230   24.1240 C   0  0  0  0  0  1  0  0  0  0  0  0
  -28.0820  -23.9210   18.5460 C   0  0  0  0  0  1  0  0  0  0  0  0
  -28.7310  -21.2380   20.0950 C   0  0  0  0  0  0  0  0  0  0  0  0
  -27.9390  -20.9820   19.1840 O   0  0  0  0  0  0  0  0  0  0  0  0
  -29.6260  -20.0220   20.6180 C   0  0  0  0  0  2  0  0  0  0  0  0
  -29.2210  -18.4880   20.3010 C   0  0  0  0  0  3  0  0  0  0  0  0
  -30.2580  -17.3060   20.6570 C   0  0  0  0  0  3  0  0  0  0  0  0
  -30.5990  -14.7310   20.3470 C   0  0  0  0  0  0  0  0  0  0  0  0
  -30.3890  -12.4630   19.3320 C   0  0  0  0  0  2  0  0  0  0  0  0
  -29.4520  -12.5480   18.1070 C   0  0  0  0  0  2  0  0  0  0  0  0
  -27.9800  -12.3950   18.5380 C   0  0  0  0  0  2  0  0  0  0  0  0
  -27.6130  -13.2860   19.7540 C   0  0  0  0  0  3  0  0  0  0  0  0
  -28.6710  -13.1760   20.8730 C   0  0  0  0  0  2  0  0  0  0  0  0
  -29.9680  -13.5150   20.2810 N   0  0  0  0  0  0  0  0  0  0  0  0
  -31.7850  -14.8420   20.0230 O   0  0  0  0  0  0  0  0  0  0  0  0
  -29.8260  -15.8490   20.5840 N   0  0  0  0  0  0  0  0  0  0  0  0
  -28.8550  -15.6590   20.7840 H   0  0  0  0  0  0  0  0  0  0  0  0
  -25.2260  -13.8950   20.4740 C   0  0  0  0  0  0  0  0  0  0  0  0
  -24.1580  -13.1270   20.8480 C   0  0  0  0  0  0  0  0  0  0  0  0
  -24.6160  -11.7730   20.8270 C   0  0  0  0  0  0  0  0  0  0  0  0
  -26.2670  -13.0090   20.2430 N   0  0  0  0  0  0  0  0  0  0  0  0
  -25.9060  -11.7280   20.5180 N   0  0  0  0  0  0  0  0  0  0  0  0
  -23.8840  -10.5150   21.0210 C   0  0  0  0  0  0  0  0  0  0  0  0
  -24.3150   -9.5450   21.9540 C   0  0  0  0  0  3  0  0  0  0  0  0
  -23.5840   -8.3520   22.1370 C   0  0  0  0  0  3  0  0  0  0  0  0
  -22.4060   -8.1210   21.3880 C   0  0  0  0  0  0  0  0  0  0  0  0
  -21.9940   -9.0770   20.4430 C   0  0  0  0  0  3  0  0  0  0  0  0
  -22.7260  -10.2620   20.2570 C   0  0  0  0  0  3  0  0  0  0  0  0
  -21.6460   -6.9800   21.4810 O   0  0  0  0  0  0  0  0  0  0  0  0
  -21.6020   -6.2360   22.6340 C   0  0  0  0  0  0  0  0  0  0  0  0
  -21.1930   -6.7910   23.8650 C   0  0  0  0  0  3  0  0  0  0  0  0
  -21.0970   -5.9740   25.0100 C   0  0  0  0  0  3  0  0  0  0  0  0
  -21.4010   -4.6020   24.9220 C   0  0  0  0  0  0  0  0  0  0  0  0
  -21.8020   -4.0470   23.6950 C   0  0  0  0  0  3  0  0  0  0  0  0
  -21.9020   -4.8610   22.5540 C   0  0  0  0  0  0  0  0  0  0  0  0
  -22.2690   -4.3150   21.3700 F   0  0  0  0  0  0  0  0  0  0  0  0
  -21.3020   -3.8150   26.0190 F   0  0  0  0  0  0  0  0  0  0  0  0
  -22.7600  -13.6100   21.1130 C   0  0  0  0  0  0  0  0  0  0  0  0
  -22.0260  -12.9230   21.9800 N   0  0  0  0  0  0  0  0  0  0  0  0
  -22.3280  -14.6340   20.5860 O   0  0  0  0  0  0  0  0  0  0  0  0
  -22.3870  -12.0940   22.4290 H   0  0  0  0  0  0  0  0  0  0  0  0
  -21.0880  -13.2290   22.1980 H   0  0  0  0  0  0  0  0  0  0  0  0
  -25.3940  -15.2640   20.2860 N   0  0  0  0  0  0  0  0  0  0  0  0
  -24.6230  -15.9150   20.3860 H   0  0  0  0  0  0  0  0  0  0  0  0
  -26.2290  -15.6940   19.9090 H   0  0  0  0  0  0  0  0  0  0  0  0
  -28.3440  -26.5080   20.0730 O   0  0  0  0  0  0  0  0  0  0  0  0
  -24.6060  -31.9080   23.2180 C   0  0  0  0  0  0  0  0  0  0  0  0
  -27.2070  -27.3260   20.1780 C   0  0  0  0  0  0  0  0  0  0  0  0
  -23.3980  -30.5130   21.5770 C   0  0  0  0  0  3  0  0  0  0  0  0
  -24.8450  -28.9490   20.1600 C   0  0  0  0  0  0  0  0  0  0  0  0
  -25.9390  -30.8210   21.3920 C   0  0  0  0  0  2  0  0  0  0  0  0
  -26.0150  -29.4360   20.7580 C   0  0  0  0  0  0  0  0  0  0  0  0
  -27.2000  -28.6370   20.7540 C   0  0  0  0  0  3  0  0  0  0  0  0
  -26.0140  -26.8870   19.5700 C   0  0  0  0  0  3  0  0  0  0  0  0
  -24.8470  -27.6790   19.5590 C   0  0  0  0  0  3  0  0  0  0  0  0
  -23.6130  -29.8310   20.2010 C   0  0  0  0  0  2  0  0  0  0  0  0
  -24.6680  -31.1000   22.1180 N   0  0  0  0  0  0  0  0  0  0  0  0
  -23.5230  -32.1840   23.7560 O   0  0  0  0  0  0  0  0  0  0  0  0
  -22.7350  -29.4980   22.5390 C   0  0  0  0  0  0  0  0  0  0  0  0
  -21.4080  -29.3290   22.4190 N   0  0  0  0  0  0  0  0  0  0  0  0
  -23.4150  -28.8620   23.3480 O   0  0  0  0  0  0  0  0  0  0  0  0
  -20.9210  -29.8890   21.7330 H   0  0  0  0  0  0  0  0  0  0  0  0
  -18.0230  -28.1570   22.9410 C   0  0  0  0  0  0  0  0  0  0  0  0
  -20.5860  -28.3940   23.1920 C   0  0  0  0  0  3  0  0  0  0  0  0
  -20.6710  -26.9650   22.6060 C   0  0  0  0  0  2  0  0  0  0  0  0
  -19.5580  -26.6580   21.6010 C   0  0  0  0  0  2  0  0  0  0  0  0
  -18.1810  -26.8110   22.2560 C   0  0  0  0  0  2  0  0  0  0  0  0
  -19.1520  -28.9070   23.3660 C   0  0  0  0  0  0  0  0  0  0  0  0
  -18.9480  -30.1680   23.9670 C   0  0  0  0  0  3  0  0  0  0  0  0
  -17.6490  -30.6790   24.1480 C   0  0  0  0  0  3  0  0  0  0  0  0
  -16.5350  -29.9260   23.7380 C   0  0  0  0  0  3  0  0  0  0  0  0
  -16.7220  -28.6670   23.1410 C   0  0  0  0  0  3  0  0  0  0  0  0
  -25.8900  -32.5380   23.8410 C   0  0  0  0  0  3  0  0  0  0  0  0
  -26.4070  -31.7630   25.1150 C   0  0  1  0  0  0  0  0  0  0  0  0
  -25.3150  -31.5240   26.1840 C   0  0  0  0  0  1  0  0  0  0  0  0
  -26.9880  -30.3860   24.7190 C   0  0  0  0  0  1  0  0  0  0  0  0
  -27.5600  -32.5530   25.7740 C   0  0  0  0  0  1  0  0  0  0  0  0
  -25.5800  -33.9350   24.1790 N   0  0  0  0  0  0  0  0  0  0  0  0
  -25.9100  -34.9930   23.4230 C   0  0  0  0  0  0  0  0  0  0  0  0
  -26.5760  -34.8920   22.3880 O   0  0  0  0  0  0  0  0  0  0  0  0
  -24.9920  -34.0860   24.9840 H   0  0  0  0  0  0  0  0  0  0  0  0
  -24.1820  -36.7860   23.0820 C   0  0  0  0  0  1  0  0  0  0  0  0
  -25.4260  -36.3800   23.8880 C   0  0  0  0  0  3  0  0  0  0  0  0
  -27.5670  -37.2580   24.7080 C   0  0  0  0  0  1  0  0  0  0  0  0
  -26.4600  -37.4320   23.7710 N   0  0  0  0  0  0  0  0  0  0  0  0
  -26.0570  -38.3540   23.9240 H   0  0  0  0  0  0  0  0  0  0  0  0
  1  4  1  0
  2  4  2  0
  3  1  2  0
  4  7  1  0
  5  6  2  0
  5  3  1  0
  6  2  1  0
  8  5  1  0
  9 11  1  0
  9  3  1  0
 10  9  2  0
 12 11  1  0
 12 13  2  0
 14 22  1  0
 15 20  1  0
 16 17  1  0
 16 15  1  0
 18 17  1  0
 18 27  1  0
 18 19  1  0
 20 14  1  0
 20 19  1  0
 21 14  2  0
 22 13  1  0
 22 23  1  0
 24 25  2  0
 25 44  1  0
 26 25  1  0
 26 29  1  0
 27 24  1  0
 27 28  1  0
 28 26  2  0
 29 30  1  0
 30 31  2  0
 32 35  1  0
 32 31  1  0
 33 32  2  0
 34 33  1  0
 34 29  2  0
 35 36  1  0
 36 37  1  0
 37 38  2  0
 39 38  1  0
 39 43  1  0
 40 39  2  0
 41 36  2  0
 41 40  1  0
 42 41  1  0
 44 45  1  0
 45 48  1  0
 45 47  1  0
 46 44  2  0
 49 50  1  0
 49 24  1  0
 51 49  1  0
 52 54  1  0
 52  6  1  0
 53 64  2  0
 54 59  1  0
 55 63  1  0
 55 65  1  0
 56 62  1  0
 56 58  1  0
 57 63  1  0
 58 57  1  0
 59 58  2  0
 60 54  2  0
 61 60  1  0
 61 56  2  0
 62 55  1  0
 63 53  1  0
 65 67  2  0
 66 65  1  0
 68 66  1  0
 69 78  2  0
 69 74  1  0
 70 66  1  0
 70 74  1  0
 71 70  1  0
 72 73  1  0
 72 71  1  0
 73 69  1  0
 74 75  2  0
 75 76  1  0
 77 76  2  0
 78 77  1  0
 79 53  1  0
 79 84  1  0
 79 80  1  0
 80 83  1  1
 80 81  1  0
 82 80  1  0
 84 87  1  0
 85 89  1  0
 85 84  1  0
 86 85  2  0
 89 88  1  0
 91 89  1  0
 91 92  1  0
 91 90  1  0
M  ISO  4   6 101  14 100  22 100  52 101
M  END
>  <TORSDO>  (43) 
F 20

>  <SCORE>  (43) 
-13.453

>  <name>  (43) 
42

>  <ligand_id>  (43) 
42

>  <original_smiles>  (43) 
[H]c1c([H])c([H])c2c(c1[H])C([H])([H])C([H])([H])C([H])([H])C2([H])N([H])C(=O)C1([H])N(C(=O)C([H])(N([H])C(=O)C([H])(N([H])C([H])([H])[H])C([H])([H])[H])C(C([H])([H])[H])(C([H])([H])[H])C([H])([H])[H])C([H])([H])c2c([H])c(Oc3c([H])c(C([H])([H])[H])c([H])c(C(=O)C([H])([H])C([H])([H])C([H])([H])N([H])C(=O)N4C([H])([H])C([H])([H])C([H])([H])C([H])(n5nc(-c6c([H])c([H])c(Oc7c([H])c([H])c(F)c([H])c7F)c([H])c6[H])c(C(=O)N([H])[H])c5N([H])[H])C4([H])[H])c3C([H])([H])[H])c([H])c([H])c2C1([H])[H]

>  <smiles>  (43) 
[H]c1c([H])c([H])c2c(c1[H])C([H])([H])C([H])([H])C([H])([H])C2([H])N([H])C(=O)C1([H])N(C(=O)C([H])(N([H])C(=O)C([H])(N([H])C([H])([H])[H])C([H])([H])[H])C(C([H])([H])[H])(C([H])([H])[H])C([H])([H])[H])C([H])([H])c2c([H])c(Oc3c([H])c(C([H])([H])[H])c([H])c(C(=O)C([H])([H])C([H])([H])C([H])([H])N([H])C(=O)N4C([H])([H])C([H])([H])C([H])([H])C([H])(n5nc(-c6c([H])c([H])c(Oc7c([H])c([H])c(F)c([H])c7F)c([H])c6[H])c(C(=O)N([H])[H])c5N([H])[H])C4([H])[H])c3C([H])([H])[H])c([H])c([H])c2C1([H])[H]

$$$$
43:0:0
     RDKit          3D

 89 97  0  0  1  0  0  0  0  0999 V2000
  -28.7210  -21.7900   21.7550 C   0  0  0  0  0  3  0  0  0  0  0  0
  -28.4400  -23.0030   22.4370 C   0  0  0  0  0  3  0  0  0  0  0  0
  -28.8460  -21.6940   20.3570 C   0  0  0  0  0  0  0  0  0  0  0  0
  -28.2480  -24.2770   21.8280 C   0  0  0  0  0  0  0  0  0  0  0  0
  -28.6400  -23.1170   19.7350 C   0  0  0  0  0  0  0  0  0  0  0  0
  -28.3220  -24.4870   20.4250 C   0  0  0  0  0  0  0  0  0  0  0  0
  -28.0020  -25.4580   22.7510 C   0  0  0  0  0  1  0  0  0  0  0  0
  -28.7670  -23.1680   18.2290 C   0  0  0  0  0  1  0  0  0  0  0  0
  -28.2580  -25.9740   19.9640 O   0  0  0  0  0  0  0  0  0  0  0  0
  -24.6210  -31.9210   23.1090 C   0  0  0  0  0  0  0  0  0  0  0  0
  -27.2140  -27.0580   20.0470 C   0  0  0  0  0  0  0  0  0  0  0  0
  -23.4330  -30.5200   21.4740 C   0  0  0  0  0  3  0  0  0  0  0  0
  -24.8890  -28.9350   20.0340 C   0  0  0  0  0  0  0  0  0  0  0  0
  -25.9970  -30.7550   21.3080 C   0  0  0  0  0  2  0  0  0  0  0  0
  -26.0810  -29.3450   20.6470 C   0  0  0  0  0  0  0  0  0  0  0  0
  -27.2370  -28.4310   20.6240 C   0  0  0  0  0  3  0  0  0  0  0  0
  -25.9860  -26.8120   19.3940 C   0  0  0  0  0  3  0  0  0  0  0  0
  -24.8670  -27.6890   19.3870 C   0  0  0  0  0  3  0  0  0  0  0  0
  -23.6630  -29.8460   20.0930 C   0  0  0  0  0  2  0  0  0  0  0  0
  -24.7060  -31.0940   22.0170 N   0  0  0  0  0  0  0  0  0  0  0  0
  -23.5310  -32.1930   23.6400 O   0  0  0  0  0  0  0  0  0  0  0  0
  -22.7580  -29.5090   22.4380 C   0  0  0  0  0  0  0  0  0  0  0  0
  -21.4280  -29.3350   22.3280 N   0  0  0  0  0  0  0  0  0  0  0  0
  -23.4370  -28.8850   23.2580 O   0  0  0  0  0  0  0  0  0  0  0  0
  -20.9320  -29.8910   21.6460 H   0  0  0  0  0  0  0  0  0  0  0  0
  -18.0550  -28.1050   22.8820 C   0  0  0  0  0  0  0  0  0  0  0  0
  -20.6200  -28.3800   23.0960 C   0  0  0  0  0  3  0  0  0  0  0  0
  -20.7160  -26.9600   22.4920 C   0  0  0  0  0  2  0  0  0  0  0  0
  -19.5920  -26.6510   21.4960 C   0  0  0  0  0  2  0  0  0  0  0  0
  -18.2250  -26.7730   22.1720 C   0  0  0  0  0  2  0  0  0  0  0  0
  -19.1810  -28.8680   23.3010 C   0  0  0  0  0  0  0  0  0  0  0  0
  -18.9630  -30.1130   23.9300 C   0  0  0  0  0  3  0  0  0  0  0  0
  -17.6580  -30.5980   24.1390 C   0  0  0  0  0  3  0  0  0  0  0  0
  -16.5500  -29.8330   23.7340 C   0  0  0  0  0  3  0  0  0  0  0  0
  -16.7510  -28.5880   23.1130 C   0  0  0  0  0  3  0  0  0  0  0  0
  -25.8870  -32.5740   23.7420 C   0  0  0  0  0  3  0  0  0  0  0  0
  -25.5550  -33.9670   24.0880 N   0  0  0  0  0  0  0  0  0  0  0  0
  -25.8850  -35.0410   23.3570 C   0  0  0  0  0  0  0  0  0  0  0  0
  -26.5620  -34.9620   22.3280 O   0  0  0  0  0  0  0  0  0  0  0  0
  -24.9550  -34.1020   24.8890 H   0  0  0  0  0  0  0  0  0  0  0  0
  -24.1640  -36.8480   23.0150 C   0  0  0  0  0  1  0  0  0  0  0  0
  -25.3880  -36.4190   23.8410 C   0  0  0  0  0  3  0  0  0  0  0  0
  -27.4970  -37.2920   24.7470 C   0  0  0  0  0  1  0  0  0  0  0  0
  -26.4230  -37.4750   23.7760 N   0  0  0  0  0  0  0  0  0  0  0  0
  -26.0130  -38.3930   23.9250 H   0  0  0  0  0  0  0  0  0  0  0  0
  -26.4060  -31.8080   25.0210 C   0  0  1  0  0  0  0  0  0  0  0  0
  -25.3120  -31.5590   26.0860 C   0  0  0  0  0  1  0  0  0  0  0  0
  -27.0070  -30.4370   24.6400 C   0  0  0  0  0  1  0  0  0  0  0  0
  -27.5470  -32.6150   25.6860 C   0  0  0  0  0  1  0  0  0  0  0  0
  -29.0440  -20.0390   19.7330 C   0  0  0  0  0  2  0  0  0  0  0  0
  -29.8140  -18.4820   20.3370 C   0  0  0  0  0  2  0  0  0  0  0  0
  -30.3990  -15.5410   19.8960 C   0  0  0  0  0  0  0  0  0  0  0  0
  -30.3610  -13.0850   18.9900 C   0  0  0  0  0  2  0  0  0  0  0  0
  -29.3740  -12.8360   17.8220 C   0  0  0  0  0  2  0  0  0  0  0  0
  -27.9610  -12.5310   18.3530 C   0  0  0  0  0  2  0  0  0  0  0  0
  -27.5590  -13.4900   19.4990 C   0  0  0  0  0  3  0  0  0  0  0  0
  -28.6720  -13.6800   20.5530 C   0  0  0  0  0  2  0  0  0  0  0  0
  -29.8390  -14.2250   19.8360 N   0  0  0  0  0  0  0  0  0  0  0  0
  -31.6160  -15.5340   19.6610 O   0  0  0  0  0  0  0  0  0  0  0  0
  -29.6250  -16.8220   20.0210 N   0  0  0  0  0  0  0  0  0  0  0  0
  -28.6430  -16.5870   20.0440 H   0  0  0  0  0  0  0  0  0  0  0  0
  -25.2480  -14.0150   20.4280 C   0  0  0  0  0  0  0  0  0  0  0  0
  -24.2160  -13.2270   20.8490 C   0  0  0  0  0  0  0  0  0  0  0  0
  -24.6850  -11.8790   20.7600 C   0  0  0  0  0  0  0  0  0  0  0  0
  -26.2730  -13.1490   20.0930 N   0  0  0  0  0  0  0  0  0  0  0  0
  -25.9540  -11.8570   20.3630 N   0  0  0  0  0  0  0  0  0  0  0  0
  -23.9740  -10.6120   20.9690 C   0  0  0  0  0  0  0  0  0  0  0  0
  -24.4400   -9.6420   21.8850 C   0  0  0  0  0  3  0  0  0  0  0  0
  -23.7240   -8.4420   22.0850 C   0  0  0  0  0  3  0  0  0  0  0  0
  -22.5280   -8.2010   21.3690 C   0  0  0  0  0  0  0  0  0  0  0  0
  -22.0810   -9.1570   20.4400 C   0  0  0  0  0  3  0  0  0  0  0  0
  -22.7970  -10.3500   20.2390 C   0  0  0  0  0  3  0  0  0  0  0  0
  -21.7790   -7.0540   21.4780 O   0  0  0  0  0  0  0  0  0  0  0  0
  -21.7500   -6.3230   22.6390 C   0  0  0  0  0  0  0  0  0  0  0  0
  -21.2830   -6.8720   23.8540 C   0  0  0  0  0  3  0  0  0  0  0  0
  -21.2040   -6.0640   25.0060 C   0  0  0  0  0  3  0  0  0  0  0  0
  -21.5800   -4.7090   24.9440 C   0  0  0  0  0  0  0  0  0  0  0  0
  -22.0400   -4.1610   23.7340 C   0  0  0  0  0  3  0  0  0  0  0  0
  -22.1210   -4.9650   22.5840 C   0  0  0  0  0  0  0  0  0  0  0  0
  -22.5440   -4.4260   21.4150 F   0  0  0  0  0  0  0  0  0  0  0  0
  -21.4980   -3.9300   26.0480 F   0  0  0  0  0  0  0  0  0  0  0  0
  -22.8380  -13.6930   21.2150 C   0  0  0  0  0  0  0  0  0  0  0  0
  -22.1630  -12.9770   22.1060 N   0  0  0  0  0  0  0  0  0  0  0  0
  -22.3720  -14.7290   20.7440 O   0  0  0  0  0  0  0  0  0  0  0  0
  -22.5530  -12.1360   22.5040 H   0  0  0  0  0  0  0  0  0  0  0  0
  -21.2410  -13.2740   22.3940 H   0  0  0  0  0  0  0  0  0  0  0  0
  -25.3930  -15.3910   20.2680 N   0  0  0  0  0  0  0  0  0  0  0  0
  -24.6280  -16.0360   20.4340 H   0  0  0  0  0  0  0  0  0  0  0  0
  -26.1990  -15.8340   19.8530 H   0  0  0  0  0  0  0  0  0  0  0  0
  1  2  1  0
  3  1  2  0
  4  2  2  0
  4  7  1  0
  5  3  1  0
  5  6  2  0
  6  4  1  0
  8  5  1  0
  9 11  1  0
  9  6  1  0
 10 21  2  0
 11 16  1  0
 12 20  1  0
 12 22  1  0
 13 19  1  0
 13 15  1  0
 14 20  1  0
 15 14  1  0
 16 15  2  0
 17 11  2  0
 18 17  1  0
 18 13  2  0
 19 12  1  0
 20 10  1  0
 22 24  2  0
 23 22  1  0
 25 23  1  0
 26 35  2  0
 26 31  1  0
 27 23  1  0
 27 31  1  0
 28 27  1  0
 29 30  1  0
 29 28  1  0
 30 26  1  0
 31 32  2  0
 32 33  1  0
 34 33  2  0
 35 34  1  0
 36 10  1  0
 36 37  1  0
 36 46  1  0
 37 40  1  0
 38 42  1  0
 38 37  1  0
 39 38  2  0
 42 41  1  0
 44 42  1  0
 44 45  1  0
 44 43  1  0
 46 49  1  1
 46 47  1  0
 48 46  1  0
 50 51  1  0
 50  3  1  0
 52 60  1  0
 53 58  1  0
 54 55  1  0
 54 53  1  0
 56 55  1  0
 56 65  1  0
 56 57  1  0
 58 52  1  0
 58 57  1  0
 59 52  2  0
 60 61  1  0
 60 51  1  0
 62 63  2  0
 63 82  1  0
 64 63  1  0
 64 67  1  0
 65 66  1  0
 65 62  1  0
 66 64  2  0
 67 68  1  0
 68 69  2  0
 70 73  1  0
 70 69  1  0
 71 70  2  0
 72 71  1  0
 72 67  2  0
 73 74  1  0
 74 75  1  0
 75 76  2  0
 77 76  1  0
 77 81  1  0
 78 77  2  0
 79 74  2  0
 79 78  1  0
 80 79  1  0
 82 83  1  0
 83 86  1  0
 83 85  1  0
 84 82  2  0
 87 62  1  0
 87 88  1  0
 89 87  1  0
M  ISO  4   6 101   9 101  52 100  60 100
M  END
>  <TORSDO>  (44) 
F 18

>  <SCORE>  (44) 
-15.611

>  <name>  (44) 
43

>  <ligand_id>  (44) 
43

>  <original_smiles>  (44) 
[H]c1c([H])c([H])c2c(c1[H])C([H])([H])C([H])([H])C([H])([H])C2([H])N([H])C(=O)C1([H])N(C(=O)C([H])(N([H])C(=O)C([H])(N([H])C([H])([H])[H])C([H])([H])[H])C(C([H])([H])[H])(C([H])([H])[H])C([H])([H])[H])C([H])([H])c2c([H])c(Oc3c(C([H])([H])[H])c([H])c([H])c(C([H])([H])C([H])([H])N([H])C(=O)N4C([H])([H])C([H])([H])C([H])([H])C([H])(n5nc(-c6c([H])c([H])c(Oc7c([H])c([H])c(F)c([H])c7F)c([H])c6[H])c(C(=O)N([H])[H])c5N([H])[H])C4([H])[H])c3C([H])([H])[H])c([H])c([H])c2C1([H])[H]

>  <smiles>  (44) 
[H]c1c([H])c([H])c2c(c1[H])C([H])([H])C([H])([H])C([H])([H])C2([H])N([H])C(=O)C1([H])N(C(=O)C([H])(N([H])C(=O)C([H])(N([H])C([H])([H])[H])C([H])([H])[H])C(C([H])([H])[H])(C([H])([H])[H])C([H])([H])[H])C([H])([H])c2c([H])c(Oc3c(C([H])([H])[H])c([H])c([H])c(C([H])([H])C([H])([H])N([H])C(=O)N4C([H])([H])C([H])([H])C([H])([H])C([H])(n5nc(-c6c([H])c([H])c(Oc7c([H])c([H])c(F)c([H])c7F)c([H])c6[H])c(C(=O)N([H])[H])c5N([H])[H])C4([H])[H])c3C([H])([H])[H])c([H])c([H])c2C1([H])[H]

$$$$
44:0:0
     RDKit          3D

 88 96  0  0  1  0  0  0  0  0999 V2000
  -29.6560  -21.8300   21.0940 C   0  0  0  0  0  3  0  0  0  0  0  0
  -29.3270  -23.3070   21.0960 C   0  0  0  0  0  3  0  0  0  0  0  0
  -27.6860  -22.9410   19.6360 C   0  0  0  0  0  3  0  0  0  0  0  0
  -29.0580  -20.6760   20.3850 C   0  0  0  0  0  0  0  0  0  0  0  0
  -28.2990  -24.0850   20.3770 C   0  0  0  0  0  0  0  0  0  0  0  0
  -28.0090  -21.4240   19.6250 C   0  0  0  0  0  0  0  0  0  0  0  0
  -29.7630  -18.9950   20.3960 C   0  0  0  0  0  0  0  0  0  0  0  0
  -30.9870  -19.0690   20.5460 O   0  0  0  0  0  0  0  0  0  0  0  0
  -29.3230  -17.2180   20.3360 C   0  0  0  0  0  2  0  0  0  0  0  0
  -30.2140  -15.6000   20.2180 C   0  0  0  0  0  0  0  0  0  0  0  0
  -30.3250  -13.0790   19.3760 C   0  0  0  0  0  2  0  0  0  0  0  0
  -29.4110  -12.7640   18.1580 C   0  0  0  0  0  2  0  0  0  0  0  0
  -27.9830  -12.4180   18.6110 C   0  0  0  0  0  2  0  0  0  0  0  0
  -27.4960  -13.3860   19.7130 C   0  0  0  0  0  3  0  0  0  0  0  0
  -28.5390  -13.6310   20.8240 C   0  0  0  0  0  2  0  0  0  0  0  0
  -29.7340  -14.2270   20.1910 N   0  0  0  0  0  0  0  0  0  0  0  0
  -31.4390  -15.5710   19.9910 O   0  0  0  0  0  0  0  0  0  0  0  0
  -25.1350  -13.8980   20.5070 C   0  0  0  0  0  0  0  0  0  0  0  0
  -24.0860  -13.1070   20.8810 C   0  0  0  0  0  0  0  0  0  0  0  0
  -24.5690  -11.7620   20.8360 C   0  0  0  0  0  0  0  0  0  0  0  0
  -26.1840  -13.0370   20.2410 N   0  0  0  0  0  0  0  0  0  0  0  0
  -25.8590  -11.7450   20.5100 N   0  0  0  0  0  0  0  0  0  0  0  0
  -23.8560  -10.4910   21.0270 C   0  0  0  0  0  0  0  0  0  0  0  0
  -24.2960   -9.5270   21.9620 C   0  0  0  0  0  3  0  0  0  0  0  0
  -23.5780   -8.3250   22.1430 C   0  0  0  0  0  3  0  0  0  0  0  0
  -22.4070   -8.0770   21.3880 C   0  0  0  0  0  0  0  0  0  0  0  0
  -21.9850   -9.0290   20.4440 C   0  0  0  0  0  3  0  0  0  0  0  0
  -22.7040  -10.2230   20.2610 C   0  0  0  0  0  3  0  0  0  0  0  0
  -21.6620   -6.9260   21.4770 O   0  0  0  0  0  0  0  0  0  0  0  0
  -21.6090   -6.1870   22.6330 C   0  0  0  0  0  0  0  0  0  0  0  0
  -21.1470   -6.7390   23.8480 C   0  0  0  0  0  3  0  0  0  0  0  0
  -21.0430   -5.9280   24.9950 C   0  0  0  0  0  3  0  0  0  0  0  0
  -21.3930   -4.5650   24.9290 C   0  0  0  0  0  0  0  0  0  0  0  0
  -21.8470   -4.0140   23.7180 C   0  0  0  0  0  3  0  0  0  0  0  0
  -21.9520   -4.8220   22.5730 C   0  0  0  0  0  0  0  0  0  0  0  0
  -22.3700   -4.2800   21.4040 F   0  0  0  0  0  0  0  0  0  0  0  0
  -21.2860   -3.7840   26.0280 F   0  0  0  0  0  0  0  0  0  0  0  0
  -22.6860  -13.5690   21.1620 C   0  0  0  0  0  0  0  0  0  0  0  0
  -21.9720  -12.8670   22.0340 N   0  0  0  0  0  0  0  0  0  0  0  0
  -22.2350  -14.5900   20.6420 O   0  0  0  0  0  0  0  0  0  0  0  0
  -22.3500  -12.0430   22.4780 H   0  0  0  0  0  0  0  0  0  0  0  0
  -21.0340  -13.1630   22.2640 H   0  0  0  0  0  0  0  0  0  0  0  0
  -25.2810  -15.2720   20.3400 N   0  0  0  0  0  0  0  0  0  0  0  0
  -24.5090  -15.9160   20.4730 H   0  0  0  0  0  0  0  0  0  0  0  0
  -26.1210  -15.7270   20.0070 H   0  0  0  0  0  0  0  0  0  0  0  0
  -26.3470  -21.1070   17.8940 C   0  0  0  0  0  1  0  0  0  0  0  0
  -27.3110  -20.5720   18.7920 O   0  0  0  0  0  0  0  0  0  0  0  0
  -28.1970  -25.6880   20.3310 O   0  0  0  0  0  0  0  0  0  0  0  0
  -24.6530  -31.9020   23.2470 C   0  0  0  0  0  0  0  0  0  0  0  0
  -27.1640  -26.8250   20.3120 C   0  0  0  0  0  0  0  0  0  0  0  0
  -23.4570  -30.4940   21.6220 C   0  0  0  0  0  3  0  0  0  0  0  0
  -24.8940  -28.8270   20.2300 C   0  0  0  0  0  0  0  0  0  0  0  0
  -26.0320  -30.6340   21.4980 C   0  0  0  0  0  2  0  0  0  0  0  0
  -26.0870  -29.1990   20.8620 C   0  0  0  0  0  0  0  0  0  0  0  0
  -27.2050  -28.2220   20.8730 C   0  0  0  0  0  3  0  0  0  0  0  0
  -25.9390  -26.6470   19.6210 C   0  0  0  0  0  3  0  0  0  0  0  0
  -24.8540  -27.5740   19.5900 C   0  0  0  0  0  3  0  0  0  0  0  0
  -23.6890  -29.7790   20.2610 C   0  0  0  0  0  2  0  0  0  0  0  0
  -24.7370  -31.0430   22.1740 N   0  0  0  0  0  0  0  0  0  0  0  0
  -23.5630  -32.2130   23.7560 O   0  0  0  0  0  0  0  0  0  0  0  0
  -22.7380  -29.5290   22.6030 C   0  0  0  0  0  0  0  0  0  0  0  0
  -21.4060  -29.3760   22.4710 N   0  0  0  0  0  0  0  0  0  0  0  0
  -23.3890  -28.9150   23.4510 O   0  0  0  0  0  0  0  0  0  0  0  0
  -20.9320  -29.9170   21.7620 H   0  0  0  0  0  0  0  0  0  0  0  0
  -18.0160  -28.1770   22.9740 C   0  0  0  0  0  0  0  0  0  0  0  0
  -20.5730  -28.4530   23.2520 C   0  0  0  0  0  3  0  0  0  0  0  0
  -20.6800  -27.0100   22.7030 C   0  0  0  0  0  2  0  0  0  0  0  0
  -19.5880  -26.6710   21.6840 C   0  0  0  0  0  2  0  0  0  0  0  0
  -18.2000  -26.8200   22.3150 C   0  0  0  0  0  2  0  0  0  0  0  0
  -19.1290  -28.9500   23.3990 C   0  0  0  0  0  0  0  0  0  0  0  0
  -18.9000  -30.2160   23.9800 C   0  0  0  0  0  3  0  0  0  0  0  0
  -17.5910  -30.7100   24.1380 C   0  0  0  0  0  3  0  0  0  0  0  0
  -16.4930  -29.9360   23.7260 C   0  0  0  0  0  3  0  0  0  0  0  0
  -16.7060  -28.6710   23.1520 C   0  0  0  0  0  3  0  0  0  0  0  0
  -25.9220  -32.5480   23.8810 C   0  0  0  0  0  3  0  0  0  0  0  0
  -26.4180  -31.7940   25.1780 C   0  0  1  0  0  0  0  0  0  0  0  0
  -25.3110  -31.5840   26.2380 C   0  0  0  0  0  1  0  0  0  0  0  0
  -26.9950  -30.4050   24.8280 C   0  0  0  0  0  1  0  0  0  0  0  0
  -27.5680  -32.5900   25.8400 C   0  0  0  0  0  1  0  0  0  0  0  0
  -25.6070  -33.9530   24.2090 N   0  0  0  0  0  0  0  0  0  0  0  0
  -25.9300  -35.0120   23.4530 C   0  0  0  0  0  0  0  0  0  0  0  0
  -26.5800  -34.9090   22.4100 O   0  0  0  0  0  0  0  0  0  0  0  0
  -25.0240  -34.1040   25.0180 H   0  0  0  0  0  0  0  0  0  0  0  0
  -24.1900  -36.8110   23.1550 C   0  0  0  0  0  1  0  0  0  0  0  0
  -25.4580  -36.4040   23.9240 C   0  0  0  0  0  3  0  0  0  0  0  0
  -27.6140  -37.3030   24.6860 C   0  0  0  0  0  1  0  0  0  0  0  0
  -26.4860  -37.4580   23.7710 N   0  0  0  0  0  0  0  0  0  0  0  0
  -26.0840  -38.3800   23.9190 H   0  0  0  0  0  0  0  0  0  0  0  0
  1  2  1  0
  3  5  1  0
  4  7  1  0
  4  1  2  0
  5  2  2  0
  6  3  2  0
  6  4  1  0
  7  8  2  0
  9  7  1  0
 10  9  1  0
 11 16  1  0
 12 13  1  0
 12 11  1  0
 14 13  1  0
 14 21  1  0
 14 15  1  0
 16 10  1  0
 16 15  1  0
 17 10  2  0
 18 19  2  0
 19 38  1  0
 20 19  1  0
 20 23  1  0
 21 18  1  0
 21 22  1  0
 22 20  2  0
 23 24  1  0
 24 25  2  0
 26 29  1  0
 26 25  1  0
 27 26  2  0
 28 27  1  0
 28 23  2  0
 29 30  1  0
 30 31  1  0
 31 32  2  0
 33 32  1  0
 33 37  1  0
 34 33  2  0
 35 30  2  0
 35 34  1  0
 36 35  1  0
 38 39  1  0
 39 42  1  0
 39 41  1  0
 40 38  2  0
 43 44  1  0
 43 18  1  0
 45 43  1  0
 46 47  1  0
 47  6  1  0
 48  5  1  0
 49 60  2  0
 50 48  1  0
 50 55  1  0
 51 59  1  0
 51 61  1  0
 52 58  1  0
 52 54  1  0
 53 59  1  0
 54 55  2  0
 54 53  1  0
 56 50  2  0
 57 56  1  0
 57 52  2  0
 58 51  1  0
 59 49  1  0
 61 63  2  0
 62 61  1  0
 64 62  1  0
 65 74  2  0
 65 70  1  0
 66 62  1  0
 66 70  1  0
 67 66  1  0
 68 69  1  0
 68 67  1  0
 69 65  1  0
 70 71  2  0
 71 72  1  0
 73 72  2  0
 74 73  1  0
 75 49  1  0
 75 80  1  0
 75 76  1  0
 76 79  1  1
 76 77  1  0
 78 76  1  0
 80 83  1  0
 81 85  1  0
 81 80  1  0
 82 81  2  0
 85 84  1  0
 87 88  1  0
 87 85  1  0
 87 86  1  0
M  ISO  4   5 101   9 100  10 100  48 101
M  END
>  <TORSDO>  (45) 
F 19

>  <SCORE>  (45) 
-15.558

>  <name>  (45) 
44

>  <ligand_id>  (45) 
44

>  <original_smiles>  (45) 
[H]c1c([H])c([H])c2c(c1[H])C([H])([H])C([H])([H])C([H])([H])C2([H])N([H])C(=O)C1([H])N(C(=O)C([H])(N([H])C(=O)C([H])(N([H])C([H])([H])[H])C([H])([H])[H])C(C([H])([H])[H])(C([H])([H])[H])C([H])([H])[H])C([H])([H])c2c([H])c(Oc3c([H])c([H])c(C(=O)C([H])([H])C(=O)N4C([H])([H])C([H])([H])C([H])([H])C([H])(n5nc(-c6c([H])c([H])c(Oc7c([H])c([H])c(F)c([H])c7F)c([H])c6[H])c(C(=O)N([H])[H])c5N([H])[H])C4([H])[H])c(OC([H])([H])[H])c3[H])c([H])c([H])c2C1([H])[H]

>  <smiles>  (45) 
[H]c1c([H])c([H])c2c(c1[H])C([H])([H])C([H])([H])C([H])([H])C2([H])N([H])C(=O)C1([H])N(C(=O)C([H])(N([H])C(=O)C([H])(N([H])C([H])([H])[H])C([H])([H])[H])C(C([H])([H])[H])(C([H])([H])[H])C([H])([H])[H])C([H])([H])c2c([H])c(Oc3c([H])c([H])c(C(=O)C([H])([H])C(=O)N4C([H])([H])C([H])([H])C([H])([H])C([H])(n5nc(-c6c([H])c([H])c(Oc7c([H])c([H])c(F)c([H])c7F)c([H])c6[H])c(C(=O)N([H])[H])c5N([H])[H])C4([H])[H])c(OC([H])([H])[H])c3[H])c([H])c([H])c2C1([H])[H]

$$$$
45:0:0
     RDKit          3D

 97106  0  0  1  0  0  0  0  0999 V2000
  -30.2750  -27.8190   20.3170 C   0  0  0  0  0  3  0  0  0  0  0  0
  -31.4500  -27.5930   21.0560 C   0  0  0  0  0  3  0  0  0  0  0  0
  -29.4220  -25.6500   20.9980 C   0  0  0  0  0  3  0  0  0  0  0  0
  -30.6000  -25.4110   21.7490 C   0  0  0  0  0  0  0  0  0  0  0  0
  -29.2520  -26.8540   20.2830 C   0  0  0  0  0  0  0  0  0  0  0  0
  -31.6290  -26.3870   21.7820 C   0  0  0  0  0  0  0  0  0  0  0  0
  -33.7380  -27.1310   22.6890 C   0  0  0  0  0  1  0  0  0  0  0  0
  -32.7630  -26.1080   22.5180 O   0  0  0  0  0  0  0  0  0  0  0  0
  -28.2060  -27.0060   19.4080 O   0  0  0  0  0  0  0  0  0  0  0  0
  -24.5620  -31.9230   23.1810 C   0  0  0  0  0  0  0  0  0  0  0  0
  -27.0550  -27.6950   19.7120 C   0  0  0  0  0  0  0  0  0  0  0  0
  -23.2830  -30.6710   21.4670 C   0  0  0  0  0  3  0  0  0  0  0  0
  -24.6750  -29.2070   19.9200 C   0  0  0  0  0  0  0  0  0  0  0  0
  -25.8040  -31.0030   21.2310 C   0  0  0  0  0  2  0  0  0  0  0  0
  -25.8550  -29.6680   20.5190 C   0  0  0  0  0  0  0  0  0  0  0  0
  -27.0480  -28.9160   20.4290 C   0  0  0  0  0  3  0  0  0  0  0  0
  -25.8580  -27.2420   19.1210 C   0  0  0  0  0  3  0  0  0  0  0  0
  -24.6660  -27.9840   19.2260 C   0  0  0  0  0  3  0  0  0  0  0  0
  -23.4490  -30.0810   20.0430 C   0  0  0  0  0  2  0  0  0  0  0  0
  -24.5690  -31.2070   22.0220 N   0  0  0  0  0  0  0  0  0  0  0  0
  -23.5010  -32.1790   23.7710 O   0  0  0  0  0  0  0  0  0  0  0  0
  -22.6240  -29.6050   22.3720 C   0  0  0  0  0  0  0  0  0  0  0  0
  -21.2900  -29.4810   22.2800 N   0  0  0  0  0  0  0  0  0  0  0  0
  -23.3120  -28.8910   23.1060 O   0  0  0  0  0  0  0  0  0  0  0  0
  -20.7960  -30.1130   21.6670 H   0  0  0  0  0  0  0  0  0  0  0  0
  -17.8980  -28.3600   22.8000 C   0  0  0  0  0  0  0  0  0  0  0  0
  -20.4700  -28.5120   23.0050 C   0  0  0  0  0  3  0  0  0  0  0  0
  -20.5020  -27.1300   22.3140 C   0  0  0  0  0  2  0  0  0  0  0  0
  -19.3620  -26.9270   21.3130 C   0  0  0  0  0  2  0  0  0  0  0  0
  -18.0080  -27.0640   22.0140 C   0  0  0  0  0  2  0  0  0  0  0  0
  -19.0550  -29.0500   23.2500 C   0  0  0  0  0  0  0  0  0  0  0  0
  -18.9000  -30.2710   23.9420 C   0  0  0  0  0  3  0  0  0  0  0  0
  -17.6200  -30.7990   24.1910 C   0  0  0  0  0  3  0  0  0  0  0  0
  -16.4780  -30.1040   23.7570 C   0  0  0  0  0  3  0  0  0  0  0  0
  -16.6170  -28.8870   23.0670 C   0  0  0  0  0  3  0  0  0  0  0  0
  -25.8820  -32.4730   23.8100 C   0  0  0  0  0  3  0  0  0  0  0  0
  -25.5980  -33.8150   24.3310 N   0  0  0  0  0  0  0  0  0  0  0  0
  -26.0030  -34.9550   23.7540 C   0  0  0  0  0  0  0  0  0  0  0  0
  -26.7250  -34.9800   22.7550 O   0  0  0  0  0  0  0  0  0  0  0  0
  -24.9510  -33.8760   25.1020 H   0  0  0  0  0  0  0  0  0  0  0  0
  -24.3590  -36.8550   23.5880 C   0  0  0  0  0  1  0  0  0  0  0  0
  -25.5320  -36.2740   24.3930 C   0  0  0  0  0  3  0  0  0  0  0  0
  -27.6430  -36.9330   25.4650 C   0  0  0  0  0  1  0  0  0  0  0  0
  -26.5990  -37.2900   24.5070 N   0  0  0  0  0  0  0  0  0  0  0  0
  -26.2100  -38.1860   24.7870 H   0  0  0  0  0  0  0  0  0  0  0  0
  -26.4630  -31.5400   24.9440 C   0  0  1  0  0  0  0  0  0  0  0  0
  -25.4340  -31.1810   26.0390 C   0  0  0  0  0  1  0  0  0  0  0  0
  -27.0010  -30.2200   24.3400 C   0  0  0  0  0  1  0  0  0  0  0  0
  -27.6550  -32.2400   25.6400 C   0  0  0  0  0  1  0  0  0  0  0  0
  -30.7250  -24.1290   22.5670 C   0  0  0  0  0  2  0  0  0  0  0  0
  -31.1500  -22.8630   21.7850 C   0  0  0  0  0  2  0  0  0  0  0  0
  -29.9500  -20.5720   22.1760 C   0  0  0  0  0  2  0  0  0  0  0  0
  -32.3470  -20.9060   23.0270 C   0  0  0  0  0  2  0  0  0  0  0  0
  -30.4830  -19.5340   21.1740 C   0  0  0  0  0  2  0  0  0  0  0  0
  -32.8340  -19.8760   21.9830 C   0  0  0  0  0  2  0  0  0  0  0  0
  -31.0040  -21.5900   22.6680 C   0  0  0  0  0  3  0  0  0  0  0  0
  -31.7440  -18.8200   21.7090 C   0  0  0  0  0  3  0  0  0  0  0  0
  -32.1980  -17.7420   20.7950 N   0  0  0  0  0  4  0  0  0  0  0  0
  -33.1970  -17.6270   20.8530 H   0  0  0  0  0  0  0  0  0  0  0  0
  -31.9980  -17.9880   19.8380 H   0  0  0  0  0  0  0  0  0  0  0  0
  -31.5940  -16.4160   21.0820 C   0  0  0  0  0  2  0  0  0  0  0  0
  -32.1490  -15.3090   20.1740 C   0  0  0  0  0  0  0  0  0  0  0  0
  -31.7800  -13.1750   18.9790 C   0  0  0  0  0  2  0  0  0  0  0  0
  -30.8400  -13.3850   17.7750 C   0  0  0  0  0  2  0  0  0  0  0  0
  -29.3610  -13.2990   18.2040 C   0  0  0  0  0  2  0  0  0  0  0  0
  -29.0500  -14.1670   19.4530 C   0  0  0  0  0  3  0  0  0  0  0  0
  -30.0930  -13.9110   20.5650 C   0  0  0  0  0  2  0  0  0  0  0  0
  -31.4300  -14.1690   20.0010 N   0  0  0  0  0  0  0  0  0  0  0  0
  -33.2180  -15.5160   19.5910 O   0  0  0  0  0  0  0  0  0  0  0  0
  -26.6690  -14.8670   20.1390 C   0  0  0  0  0  0  0  0  0  0  0  0
  -25.5730  -14.1370   20.5150 C   0  0  0  0  0  0  0  0  0  0  0  0
  -25.9880  -12.7710   20.5050 C   0  0  0  0  0  0  0  0  0  0  0  0
  -27.6850  -13.9490   19.9300 N   0  0  0  0  0  0  0  0  0  0  0  0
  -27.2770  -12.6830   20.2010 N   0  0  0  0  0  0  0  0  0  0  0  0
  -25.2210  -11.5360   20.7100 C   0  0  0  0  0  0  0  0  0  0  0  0
  -25.5280  -10.6440   21.7610 C   0  0  0  0  0  3  0  0  0  0  0  0
  -24.7660   -9.4710   21.9470 C   0  0  0  0  0  3  0  0  0  0  0  0
  -23.6850   -9.1800   21.0810 C   0  0  0  0  0  0  0  0  0  0  0  0
  -23.3990  -10.0610   20.0220 C   0  0  0  0  0  3  0  0  0  0  0  0
  -24.1620  -11.2260   19.8350 C   0  0  0  0  0  3  0  0  0  0  0  0
  -22.9050   -8.0530   21.1720 O   0  0  0  0  0  0  0  0  0  0  0  0
  -22.5600   -7.5120   22.3850 C   0  0  0  0  0  0  0  0  0  0  0  0
  -21.8730   -8.2620   23.3670 C   0  0  0  0  0  3  0  0  0  0  0  0
  -21.4760   -7.6460   24.5700 C   0  0  0  0  0  3  0  0  0  0  0  0
  -21.7530   -6.2840   24.7920 C   0  0  0  0  0  0  0  0  0  0  0  0
  -22.4320   -5.5350   23.8130 C   0  0  0  0  0  3  0  0  0  0  0  0
  -22.8300   -6.1480   22.6120 C   0  0  0  0  0  0  0  0  0  0  0  0
  -23.4650   -5.4180   21.6640 F   0  0  0  0  0  0  0  0  0  0  0  0
  -21.3640   -5.6900   25.9440 F   0  0  0  0  0  0  0  0  0  0  0  0
  -24.1920  -14.6640   20.7780 C   0  0  0  0  0  0  0  0  0  0  0  0
  -23.4540  -14.0310   21.6840 N   0  0  0  0  0  0  0  0  0  0  0  0
  -23.7720  -15.6710   20.2090 O   0  0  0  0  0  0  0  0  0  0  0  0
  -23.8050  -13.2190   22.1680 H   0  0  0  0  0  0  0  0  0  0  0  0
  -22.5240  -14.3660   21.8960 H   0  0  0  0  0  0  0  0  0  0  0  0
  -26.8820  -16.2280   19.9430 N   0  0  0  0  0  0  0  0  0  0  0  0
  -26.1360  -16.9120   20.0250 H   0  0  0  0  0  0  0  0  0  0  0  0
  -27.7460  -16.6270   19.6000 H   0  0  0  0  0  0  0  0  0  0  0  0
  1  2  1  0
  2  6  2  0
  3  4  2  0
  4  6  1  0
  4 50  1  0
  5  1  2  0
  5  3  1  0
  6  8  1  0
  8  7  1  0
  9 11  1  0
  9  5  1  0
 10 21  2  0
 11 16  1  0
 12 20  1  0
 12 22  1  0
 13 19  1  0
 13 15  1  0
 14 20  1  0
 15 14  1  0
 16 15  2  0
 17 18  1  0
 17 11  2  0
 18 13  2  0
 19 12  1  0
 20 10  1  0
 22 24  2  0
 23 22  1  0
 25 23  1  0
 26 35  2  0
 26 31  1  0
 27 23  1  0
 27 31  1  0
 28 27  1  0
 29 30  1  0
 29 28  1  0
 30 26  1  0
 31 32  2  0
 32 33  1  0
 34 33  2  0
 35 34  1  0
 36 10  1  0
 36 37  1  0
 36 46  1  0
 37 40  1  0
 38 37  1  0
 38 42  1  0
 39 38  2  0
 42 41  1  0
 42 44  1  0
 44 45  1  0
 44 43  1  0
 46 49  1  1
 46 47  1  0
 48 46  1  0
 51 50  1  0
 52 56  1  0
 54 57  1  0
 54 52  1  0
 55 53  1  0
 56 51  1  0
 56 53  1  0
 57 58  1  0
 57 55  1  0
 58 59  1  0
 58 61  1  0
 60 58  1  0
 62 61  1  0
 63 68  1  0
 64 65  1  0
 64 63  1  0
 66 65  1  0
 66 73  1  0
 66 67  1  0
 68 62  1  0
 68 67  1  0
 69 62  2  0
 70 71  2  0
 71 90  1  0
 72 71  1  0
 72 75  1  0
 73 70  1  0
 73 74  1  0
 74 72  2  0
 75 76  1  0
 76 77  2  0
 78 81  1  0
 78 77  1  0
 79 78  2  0
 80 79  1  0
 80 75  2  0
 81 82  1  0
 82 87  2  0
 82 83  1  0
 83 84  2  0
 84 85  1  0
 85 89  1  0
 86 85  2  0
 87 86  1  0
 88 87  1  0
 90 91  1  0
 91 94  1  0
 91 93  1  0
 92 90  2  0
 95 96  1  0
 95 70  1  0
 97 95  1  0
M  ISO  4   5 101   9 101  61 100  62 100
M  END
>  <TORSDO>  (46) 
F 22

>  <SCORE>  (46) 
-7.525

>  <name>  (46) 
45

>  <ligand_id>  (46) 
45

>  <original_smiles>  (46) 
[H]c1c([H])c([H])c2c(c1[H])C([H])([H])C([H])([H])C([H])([H])C2([H])N([H])C(=O)C1([H])N(C(=O)C([H])(N([H])C(=O)C([H])(N([H])C([H])([H])[H])C([H])([H])[H])C(C([H])([H])[H])(C([H])([H])[H])C([H])([H])[H])C([H])([H])c2c([H])c(Oc3c([H])c([H])c(OC([H])([H])[H])c(C([H])([H])C([H])([H])C4([H])C([H])([H])C([H])([H])C([H])([N+]([H])([H])C([H])([H])C(=O)N5C([H])([H])C([H])([H])C([H])([H])C([H])(n6nc(-c7c([H])c([H])c(Oc8c([H])c([H])c(F)c([H])c8F)c([H])c7[H])c(C(=O)N([H])[H])c6N([H])[H])C5([H])[H])C([H])([H])C4([H])[H])c3[H])c([H])c([H])c2C1([H])[H]

>  <smiles>  (46) 
[H]c1c([H])c([H])c2c(c1[H])C([H])([H])C([H])([H])C([H])([H])C2([H])N([H])C(=O)C1([H])N(C(=O)C([H])(N([H])C(=O)C([H])(N([H])C([H])([H])[H])C([H])([H])[H])C(C([H])([H])[H])(C([H])([H])[H])C([H])([H])[H])C([H])([H])c2c([H])c(Oc3c([H])c([H])c(OC([H])([H])[H])c(C([H])([H])C([H])([H])C4([H])C([H])([H])C([H])([H])C([H])([N+]([H])([H])C([H])([H])C(=O)N5C([H])([H])C([H])([H])C([H])([H])C([H])(n6nc(-c7c([H])c([H])c(Oc8c([H])c([H])c(F)c([H])c8F)c([H])c7[H])c(C(=O)N([H])[H])c6N([H])[H])C5([H])[H])C([H])([H])C4([H])[H])c3[H])c([H])c([H])c2C1([H])[H]

$$$$
46:0:0
     RDKit          3D

 90 98  0  0  1  0  0  0  0  0999 V2000
  -27.7340  -21.2540   19.8210 C   0  0  0  0  0  3  0  0  0  0  0  0
  -27.1110  -23.7420   19.8560 C   0  0  0  0  0  3  0  0  0  0  0  0
  -29.1400  -21.3820   19.9400 C   0  0  0  0  0  0  0  0  0  0  0  0
  -26.7970  -22.3420   19.7800 C   0  0  0  0  0  0  0  0  0  0  0  0
  -29.3860  -22.9880   20.0220 C   0  0  0  0  0  0  0  0  0  0  0  0
  -28.4110  -24.2870   19.9800 C   0  0  0  0  0  0  0  0  0  0  0  0
  -25.3320  -21.9690   19.6410 C   0  0  0  0  0  1  0  0  0  0  0  0
  -30.8460  -23.3480   20.1920 C   0  0  0  0  0  1  0  0  0  0  0  0
  -30.0990  -19.7790   19.9530 C   0  0  0  0  0  0  0  0  0  0  0  0
  -31.3130  -19.9900   20.0020 O   0  0  0  0  0  0  0  0  0  0  0  0
  -28.8420  -17.7990   18.7060 C   0  0  0  0  0  1  0  0  0  0  0  0
  -28.9550  -17.7210   21.2120 C   0  0  0  0  0  1  0  0  0  0  0  0
  -29.7830  -17.9080   19.9220 C   0  0  2  0  0  0  0  0  0  0  0  0
  -30.7520  -16.2570   19.8260 C   0  0  0  0  0  0  0  0  0  0  0  0
  -31.0040  -13.6540   19.1420 C   0  0  0  0  0  2  0  0  0  0  0  0
  -30.0940  -13.1450   17.9820 C   0  0  0  0  0  2  0  0  0  0  0  0
  -28.7040  -12.7300   18.4960 C   0  0  0  0  0  2  0  0  0  0  0  0
  -28.1770  -13.7520   19.5240 C   0  0  0  0  0  3  0  0  0  0  0  0
  -29.2280  -14.1620   20.5830 C   0  0  0  0  0  2  0  0  0  0  0  0
  -30.3510  -14.8350   19.8790 N   0  0  0  0  0  0  0  0  0  0  0  0
  -31.9750  -16.2370   19.5740 O   0  0  0  0  0  0  0  0  0  0  0  0
  -25.8790  -14.2390   20.4940 C   0  0  0  0  0  0  0  0  0  0  0  0
  -24.8350  -13.4430   20.8630 C   0  0  0  0  0  0  0  0  0  0  0  0
  -25.2870  -12.0980   20.6990 C   0  0  0  0  0  0  0  0  0  0  0  0
  -26.8940  -13.3840   20.1080 N   0  0  0  0  0  0  0  0  0  0  0  0
  -26.5570  -12.0810   20.2980 N   0  0  0  0  0  0  0  0  0  0  0  0
  -24.5610  -10.8300   20.8470 C   0  0  0  0  0  0  0  0  0  0  0  0
  -24.9350   -9.8700   21.8120 C   0  0  0  0  0  3  0  0  0  0  0  0
  -24.2020   -8.6720   21.9480 C   0  0  0  0  0  3  0  0  0  0  0  0
  -23.0840   -8.4230   21.1170 C   0  0  0  0  0  0  0  0  0  0  0  0
  -22.7290   -9.3740   20.1430 C   0  0  0  0  0  3  0  0  0  0  0  0
  -23.4610  -10.5640   20.0070 C   0  0  0  0  0  3  0  0  0  0  0  0
  -22.3320   -7.2750   21.1600 O   0  0  0  0  0  0  0  0  0  0  0  0
  -22.0260   -6.6560   22.3440 C   0  0  0  0  0  0  0  0  0  0  0  0
  -21.3050   -7.3150   23.3630 C   0  0  0  0  0  3  0  0  0  0  0  0
  -20.9520   -6.6220   24.5370 C   0  0  0  0  0  3  0  0  0  0  0  0
  -21.3100   -5.2690   24.6910 C   0  0  0  0  0  0  0  0  0  0  0  0
  -22.0230   -4.6090   23.6750 C   0  0  0  0  0  3  0  0  0  0  0  0
  -22.3780   -5.3010   22.5040 C   0  0  0  0  0  0  0  0  0  0  0  0
  -23.0480   -4.6550   21.5190 F   0  0  0  0  0  0  0  0  0  0  0  0
  -20.9630   -4.6000   25.8160 F   0  0  0  0  0  0  0  0  0  0  0  0
  -23.4640  -13.9100   21.2520 C   0  0  0  0  0  0  0  0  0  0  0  0
  -22.7920  -13.1760   22.1290 N   0  0  0  0  0  0  0  0  0  0  0  0
  -23.0020  -14.9650   20.8160 O   0  0  0  0  0  0  0  0  0  0  0  0
  -23.1800  -12.3230   22.5020 H   0  0  0  0  0  0  0  0  0  0  0  0
  -21.8770  -13.4770   22.4350 H   0  0  0  0  0  0  0  0  0  0  0  0
  -26.0430  -15.6200   20.4300 N   0  0  0  0  0  0  0  0  0  0  0  0
  -25.3100  -16.2650   20.7040 H   0  0  0  0  0  0  0  0  0  0  0  0
  -26.9000  -16.0830   20.1650 H   0  0  0  0  0  0  0  0  0  0  0  0
  -28.5070  -25.9180   20.0700 O   0  0  0  0  0  0  0  0  0  0  0  0
  -24.8090  -31.9770   23.3790 C   0  0  0  0  0  0  0  0  0  0  0  0
  -27.5080  -27.1270   20.1160 C   0  0  0  0  0  0  0  0  0  0  0  0
  -23.6920  -30.6750   21.6190 C   0  0  0  0  0  3  0  0  0  0  0  0
  -25.2070  -29.1470   20.1370 C   0  0  0  0  0  0  0  0  0  0  0  0
  -26.2710  -30.8550   21.5820 C   0  0  0  0  0  2  0  0  0  0  0  0
  -26.3770  -29.4660   20.8370 C   0  0  0  0  0  0  0  0  0  0  0  0
  -27.5080  -28.4870   20.7990 C   0  0  0  0  0  3  0  0  0  0  0  0
  -26.3090  -27.0460   19.3580 C   0  0  0  0  0  3  0  0  0  0  0  0
  -25.2140  -27.9660   19.3770 C   0  0  0  0  0  3  0  0  0  0  0  0
  -23.9820  -30.0770   20.2120 C   0  0  0  0  0  2  0  0  0  0  0  0
  -24.9470  -31.2010   22.2470 N   0  0  0  0  0  0  0  0  0  0  0  0
  -23.6970  -32.2240   23.8760 O   0  0  0  0  0  0  0  0  0  0  0  0
  -22.9640  -29.6250   22.5010 C   0  0  0  0  0  0  0  0  0  0  0  0
  -21.6480  -29.4230   22.2960 N   0  0  0  0  0  0  0  0  0  0  0  0
  -23.5990  -28.9890   23.3450 O   0  0  0  0  0  0  0  0  0  0  0  0
  -21.1840  -29.9910   21.6000 H   0  0  0  0  0  0  0  0  0  0  0  0
  -18.2810  -28.0880   22.6130 C   0  0  0  0  0  0  0  0  0  0  0  0
  -20.8220  -28.4150   22.9760 C   0  0  0  0  0  3  0  0  0  0  0  0
  -20.9860  -27.0260   22.3160 C   0  0  0  0  0  2  0  0  0  0  0  0
  -19.9290  -26.7390   21.2440 C   0  0  0  0  0  2  0  0  0  0  0  0
  -18.5220  -26.7970   21.8480 C   0  0  0  0  0  2  0  0  0  0  0  0
  -19.3600  -28.8560   23.1270 C   0  0  0  0  0  0  0  0  0  0  0  0
  -19.0780  -30.0620   23.8060 C   0  0  0  0  0  3  0  0  0  0  0  0
  -17.7520  -30.5040   23.9680 C   0  0  0  0  0  3  0  0  0  0  0  0
  -16.6870  -29.7340   23.4660 C   0  0  0  0  0  3  0  0  0  0  0  0
  -16.9530  -28.5270   22.7970 C   0  0  0  0  0  3  0  0  0  0  0  0
  -26.0410  -32.6050   24.0980 C   0  0  0  0  0  3  0  0  0  0  0  0
  -25.7120  -34.0030   24.4470 N   0  0  0  0  0  0  0  0  0  0  0  0
  -26.0270  -35.0770   23.7110 C   0  0  0  0  0  0  0  0  0  0  0  0
  -26.6820  -34.9990   22.6690 O   0  0  0  0  0  0  0  0  0  0  0  0
  -25.1280  -34.1360   25.2590 H   0  0  0  0  0  0  0  0  0  0  0  0
  -24.2530  -36.8530   23.4690 C   0  0  0  0  0  1  0  0  0  0  0  0
  -25.5430  -36.4580   24.2070 C   0  0  0  0  0  3  0  0  0  0  0  0
  -27.6930  -37.3950   24.9440 C   0  0  0  0  0  1  0  0  0  0  0  0
  -26.5510  -37.5310   24.0440 N   0  0  0  0  0  0  0  0  0  0  0  0
  -26.1330  -38.4450   24.1970 H   0  0  0  0  0  0  0  0  0  0  0  0
  -26.4610  -31.8180   25.4010 C   0  0  1  0  0  0  0  0  0  0  0  0
  -25.2910  -31.5620   26.3810 C   0  0  0  0  0  1  0  0  0  0  0  0
  -27.0770  -30.4450   25.0490 C   0  0  0  0  0  1  0  0  0  0  0  0
  -27.5590  -32.6050   26.1570 C   0  0  0  0  0  1  0  0  0  0  0  0
  1  3  1  0
  2  6  2  0
  3  9  1  0
  3  5  2  0
  4  1  2  0
  4  2  1  0
  5  8  1  0
  6  5  1  0
  6 50  1  0
  7  4  1  0
  9 10  2  0
 13 11  1  6
 13  9  1  0
 13 12  1  0
 14 20  1  0
 14 13  1  0
 15 20  1  0
 16 17  1  0
 16 15  1  0
 18 17  1  0
 18 25  1  0
 18 19  1  0
 20 19  1  0
 21 14  2  0
 22 23  2  0
 23 42  1  0
 24 27  1  0
 24 23  1  0
 25 26  1  0
 25 22  1  0
 26 24  2  0
 27 28  1  0
 28 29  2  0
 30 33  1  0
 30 29  1  0
 31 30  2  0
 32 31  1  0
 32 27  2  0
 33 34  1  0
 34 39  2  0
 34 35  1  0
 35 36  2  0
 36 37  1  0
 37 41  1  0
 38 37  2  0
 39 38  1  0
 40 39  1  0
 42 43  1  0
 43 46  1  0
 43 45  1  0
 44 42  2  0
 47 22  1  0
 47 48  1  0
 49 47  1  0
 50 52  1  0
 51 62  2  0
 52 57  1  0
 53 61  1  0
 53 63  1  0
 54 60  1  0
 54 56  1  0
 55 61  1  0
 56 55  1  0
 57 56  2  0
 58 59  1  0
 58 52  2  0
 59 54  2  0
 60 53  1  0
 61 51  1  0
 63 65  2  0
 64 63  1  0
 66 64  1  0
 67 76  2  0
 67 72  1  0
 68 64  1  0
 68 72  1  0
 69 68  1  0
 70 71  1  0
 70 69  1  0
 71 67  1  0
 72 73  2  0
 73 74  1  0
 75 74  2  0
 76 75  1  0
 77 51  1  0
 77 78  1  0
 77 87  1  0
 78 81  1  0
 79 83  1  0
 79 78  1  0
 80 79  2  0
 83 82  1  0
 85 86  1  0
 85 83  1  0
 85 84  1  0
 87 90  1  1
 87 88  1  0
 89 87  1  0
M  ISO  4   6 101  13 100  14 100  50 101
M  END
>  <TORSDO>  (47) 
F 18

>  <SCORE>  (47) 
-13.615

>  <name>  (47) 
46

>  <ligand_id>  (47) 
46

>  <original_smiles>  (47) 
[H]c1c([H])c([H])c2c(c1[H])C([H])([H])C([H])([H])C([H])([H])C2([H])N([H])C(=O)C1([H])N(C(=O)C([H])(N([H])C(=O)C([H])(N([H])C([H])([H])[H])C([H])([H])[H])C(C([H])([H])[H])(C([H])([H])[H])C([H])([H])[H])C([H])([H])c2c([H])c(Oc3c([H])c(C([H])([H])[H])c([H])c(C(=O)C(C(=O)N4C([H])([H])C([H])([H])C([H])([H])C([H])(n5nc(-c6c([H])c([H])c(Oc7c([H])c([H])c(F)c([H])c7F)c([H])c6[H])c(C(=O)N([H])[H])c5N([H])[H])C4([H])[H])(C([H])([H])[H])C([H])([H])[H])c3C([H])([H])[H])c([H])c([H])c2C1([H])[H]

>  <smiles>  (47) 
[H]c1c([H])c([H])c2c(c1[H])C([H])([H])C([H])([H])C([H])([H])C2([H])N([H])C(=O)C1([H])N(C(=O)C([H])(N([H])C(=O)C([H])(N([H])C([H])([H])[H])C([H])([H])[H])C(C([H])([H])[H])(C([H])([H])[H])C([H])([H])[H])C([H])([H])c2c([H])c(Oc3c([H])c(C([H])([H])[H])c([H])c(C(=O)C(C(=O)N4C([H])([H])C([H])([H])C([H])([H])C([H])(n5nc(-c6c([H])c([H])c(Oc7c([H])c([H])c(F)c([H])c7F)c([H])c6[H])c(C(=O)N([H])[H])c5N([H])[H])C4([H])[H])(C([H])([H])[H])C([H])([H])[H])c3C([H])([H])[H])c([H])c([H])c2C1([H])[H]

$$$$
47:0:0
     RDKit          3D

 92100  0  0  1  0  0  0  0  0999 V2000
  -26.6030  -23.1920   21.5950 C   0  0  0  0  0  3  0  0  0  0  0  0
  -26.1080  -25.8970   21.6030 C   0  0  0  0  0  3  0  0  0  0  0  0
  -25.5740  -23.6750   22.4310 C   0  0  0  0  0  0  0  0  0  0  0  0
  -27.4040  -23.9860   20.7090 C   0  0  0  0  0  0  0  0  0  0  0  0
  -25.3360  -25.0580   22.4290 C   0  0  0  0  0  0  0  0  0  0  0  0
  -27.0840  -25.4900   20.6370 C   0  0  0  0  0  0  0  0  0  0  0  0
  -24.2380  -25.6980   23.2770 C   0  0  0  0  0  1  0  0  0  0  0  0
  -25.4680  -21.5870   24.0310 C   0  0  0  0  0  1  0  0  0  0  0  0
  -24.7200  -22.7200   23.2950 C   0  0  0  0  0  2  0  0  0  0  0  0
  -27.4940  -26.6770   19.8310 O   0  0  0  0  0  0  0  0  0  0  0  0
  -24.7100  -32.3800   23.5690 C   0  0  0  0  0  0  0  0  0  0  0  0
  -26.6730  -27.8790   19.8480 C   0  0  0  0  0  0  0  0  0  0  0  0
  -23.2900  -31.2710   21.8850 C   0  0  0  0  0  3  0  0  0  0  0  0
  -24.5160  -29.7960   20.1700 C   0  0  0  0  0  0  0  0  0  0  0  0
  -25.8420  -31.3780   21.5580 C   0  0  0  0  0  2  0  0  0  0  0  0
  -25.7660  -30.0700   20.7480 C   0  0  0  0  0  0  0  0  0  0  0  0
  -26.8480  -29.1240   20.5880 C   0  0  0  0  0  3  0  0  0  0  0  0
  -25.4280  -27.7420   19.2040 C   0  0  0  0  0  3  0  0  0  0  0  0
  -24.3600  -28.6450   19.3820 C   0  0  0  0  0  3  0  0  0  0  0  0
  -23.3690  -30.7630   20.4200 C   0  0  0  0  0  2  0  0  0  0  0  0
  -24.6400  -31.7010   22.3900 N   0  0  0  0  0  0  0  0  0  0  0  0
  -23.6890  -32.6680   24.2180 O   0  0  0  0  0  0  0  0  0  0  0  0
  -22.6230  -30.1940   22.7790 C   0  0  0  0  0  0  0  0  0  0  0  0
  -21.2990  -30.0070   22.6260 N   0  0  0  0  0  0  0  0  0  0  0  0
  -23.2990  -29.5410   23.5780 O   0  0  0  0  0  0  0  0  0  0  0  0
  -20.8150  -30.5910   21.9560 H   0  0  0  0  0  0  0  0  0  0  0  0
  -17.9380  -28.7210   23.0100 C   0  0  0  0  0  0  0  0  0  0  0  0
  -20.4850  -29.0170   23.3360 C   0  0  0  0  0  3  0  0  0  0  0  0
  -20.6280  -27.6220   22.6860 C   0  0  0  0  0  2  0  0  0  0  0  0
  -19.5470  -27.3370   21.6380 C   0  0  0  0  0  2  0  0  0  0  0  0
  -18.1530  -27.4180   22.2630 C   0  0  0  0  0  2  0  0  0  0  0  0
  -19.0330  -29.4810   23.4990 C   0  0  0  0  0  0  0  0  0  0  0  0
  -18.7770  -30.7060   24.1560 C   0  0  0  0  0  3  0  0  0  0  0  0
  -17.4590  -31.1690   24.3320 C   0  0  0  0  0  3  0  0  0  0  0  0
  -16.3770  -30.4080   23.8570 C   0  0  0  0  0  3  0  0  0  0  0  0
  -16.6190  -29.1840   23.2040 C   0  0  0  0  0  3  0  0  0  0  0  0
  -26.0740  -32.8610   24.1540 C   0  0  0  0  0  3  0  0  0  0  0  0
  -25.8950  -34.2330   24.6580 N   0  0  0  0  0  0  0  0  0  0  0  0
  -26.2390  -35.3430   23.9890 C   0  0  0  0  0  0  0  0  0  0  0  0
  -26.8170  -35.3070   22.8990 O   0  0  0  0  0  0  0  0  0  0  0  0
  -25.4050  -34.3280   25.5330 H   0  0  0  0  0  0  0  0  0  0  0  0
  -24.6260  -37.2720   23.9650 C   0  0  0  0  0  1  0  0  0  0  0  0
  -25.8900  -36.7020   24.6290 C   0  0  0  0  0  3  0  0  0  0  0  0
  -28.1360  -37.3500   25.3760 C   0  0  0  0  0  1  0  0  0  0  0  0
  -26.9840  -37.6970   24.5480 N   0  0  0  0  0  0  0  0  0  0  0  0
  -26.6570  -38.6180   24.8280 H   0  0  0  0  0  0  0  0  0  0  0  0
  -26.6120  -31.9290   25.3080 C   0  0  1  0  0  0  0  0  0  0  0  0
  -25.5770  -31.6640   26.4250 C   0  0  0  0  0  1  0  0  0  0  0  0
  -27.0590  -30.5600   24.7470 C   0  0  0  0  0  1  0  0  0  0  0  0
  -27.8600  -32.5690   25.9580 C   0  0  0  0  0  1  0  0  0  0  0  0
  -28.4050  -22.9310   19.9410 C   0  0  0  0  0  2  0  0  0  0  0  0
  -29.0170  -21.4710   20.6010 C   0  0  0  0  0  2  0  0  0  0  0  0
  -28.8160  -19.8320   20.1670 C   0  0  0  0  0  3  0  0  0  0  0  0
  -29.8000  -18.5460   20.6990 C   0  0  0  0  0  3  0  0  0  0  0  0
  -30.4290  -15.8530   20.3150 C   0  0  0  0  0  0  0  0  0  0  0  0
  -30.4670  -13.4990   19.3530 C   0  0  0  0  0  2  0  0  0  0  0  0
  -29.5330  -13.3600   18.1270 C   0  0  0  0  0  2  0  0  0  0  0  0
  -28.0970  -13.0440   18.5860 C   0  0  0  0  0  2  0  0  0  0  0  0
  -27.6310  -13.9700   19.7390 C   0  0  0  0  0  3  0  0  0  0  0  0
  -28.6810  -14.0570   20.8640 C   0  0  0  0  0  2  0  0  0  0  0  0
  -29.9110  -14.5600   20.2390 N   0  0  0  0  0  0  0  0  0  0  0  0
  -31.6330  -15.9870   20.0580 O   0  0  0  0  0  0  0  0  0  0  0  0
  -29.5680  -16.9840   20.4770 N   0  0  0  0  0  0  0  0  0  0  0  0
  -28.6030  -16.7150   20.5940 H   0  0  0  0  0  0  0  0  0  0  0  0
  -25.2570  -14.4280   20.5750 C   0  0  0  0  0  0  0  0  0  0  0  0
  -24.2260  -13.5990   20.9220 C   0  0  0  0  0  0  0  0  0  0  0  0
  -24.7300  -12.2670   20.7930 C   0  0  0  0  0  0  0  0  0  0  0  0
  -26.3170  -13.5990   20.2500 N   0  0  0  0  0  0  0  0  0  0  0  0
  -26.0130  -12.2920   20.4480 N   0  0  0  0  0  0  0  0  0  0  0  0
  -24.0480  -10.9720   20.9160 C   0  0  0  0  0  0  0  0  0  0  0  0
  -24.5180   -9.9680   21.7910 C   0  0  0  0  0  3  0  0  0  0  0  0
  -23.8360   -8.7390   21.9030 C   0  0  0  0  0  3  0  0  0  0  0  0
  -22.6670   -8.5040   21.1420 C   0  0  0  0  0  0  0  0  0  0  0  0
  -22.2140   -9.4960   20.2530 C   0  0  0  0  0  3  0  0  0  0  0  0
  -22.9000  -10.7170   20.1370 C   0  0  0  0  0  3  0  0  0  0  0  0
  -21.9510   -7.3320   21.1680 O   0  0  0  0  0  0  0  0  0  0  0  0
  -21.9000   -6.5460   22.2920 C   0  0  0  0  0  0  0  0  0  0  0  0
  -21.4080   -7.0320   23.5240 C   0  0  0  0  0  3  0  0  0  0  0  0
  -21.3090   -6.1690   24.6340 C   0  0  0  0  0  3  0  0  0  0  0  0
  -21.6980   -4.8210   24.5140 C   0  0  0  0  0  0  0  0  0  0  0  0
  -22.1830   -4.3340   23.2870 C   0  0  0  0  0  3  0  0  0  0  0  0
  -22.2820   -5.1950   22.1820 C   0  0  0  0  0  0  0  0  0  0  0  0
  -22.7320   -4.7140   20.9970 F   0  0  0  0  0  0  0  0  0  0  0  0
  -21.5950   -3.9900   25.5770 F   0  0  0  0  0  0  0  0  0  0  0  0
  -22.8220  -14.0110   21.2550 C   0  0  0  0  0  0  0  0  0  0  0  0
  -22.1360  -13.2370   22.0920 N   0  0  0  0  0  0  0  0  0  0  0  0
  -22.3380  -15.0510   20.8080 O   0  0  0  0  0  0  0  0  0  0  0  0
  -22.5410  -12.3950   22.4750 H   0  0  0  0  0  0  0  0  0  0  0  0
  -21.1940  -13.4880   22.3580 H   0  0  0  0  0  0  0  0  0  0  0  0
  -25.3730  -15.8130   20.4770 N   0  0  0  0  0  0  0  0  0  0  0  0
  -24.5780  -16.4260   20.6210 H   0  0  0  0  0  0  0  0  0  0  0  0
  -26.1910  -16.2890   20.1220 H   0  0  0  0  0  0  0  0  0  0  0  0
  1  3  1  0
  2  5  1  0
  3  9  1  0
  4  1  2  0
  5  3  2  0
  5  7  1  0
  6  4  1  0
  6  2  2  0
  9  8  1  0
 10 12  1  0
 10  6  1  0
 11 22  2  0
 12 17  1  0
 13 21  1  0
 13 23  1  0
 14 20  1  0
 14 16  1  0
 15 21  1  0
 16 15  1  0
 17 16  2  0
 18 19  1  0
 18 12  2  0
 19 14  2  0
 20 13  1  0
 21 11  1  0
 23 25  2  0
 24 23  1  0
 26 24  1  0
 27 36  2  0
 27 32  1  0
 28 24  1  0
 28 32  1  0
 29 28  1  0
 30 31  1  0
 30 29  1  0
 31 27  1  0
 32 33  2  0
 33 34  1  0
 35 34  2  0
 36 35  1  0
 37 11  1  0
 37 38  1  0
 37 47  1  0
 38 41  1  0
 39 43  1  0
 39 38  1  0
 40 39  2  0
 43 42  1  0
 45 43  1  0
 45 46  1  0
 45 44  1  0
 47 50  1  1
 47 48  1  0
 49 47  1  0
 51 52  1  0
 51  4  1  0
 53 52  1  0
 53 54  2  0
 55 63  1  0
 56 61  1  0
 57 58  1  0
 57 56  1  0
 59 58  1  0
 59 68  1  0
 59 60  1  0
 61 55  1  0
 61 60  1  0
 62 55  2  0
 63 64  1  0
 63 54  1  0
 65 66  2  0
 66 85  1  0
 67 70  1  0
 67 66  1  0
 68 69  1  0
 68 65  1  0
 69 67  2  0
 70 71  1  0
 71 72  2  0
 73 76  1  0
 73 72  1  0
 74 73  2  0
 75 74  1  0
 75 70  2  0
 76 77  1  0
 77 78  1  0
 78 79  2  0
 80 79  1  0
 80 84  1  0
 81 80  2  0
 82 77  2  0
 82 81  1  0
 83 82  1  0
 85 86  1  0
 86 89  1  0
 86 88  1  0
 87 85  2  0
 90 65  1  0
 90 91  1  0
 92 90  1  0
M  ISO  4   6 101  10 101  55 100  63 100
M  END
>  <TORSDO>  (48) 
F 21

>  <SCORE>  (48) 
-0.684

>  <name>  (48) 
47

>  <ligand_id>  (48) 
47

>  <original_smiles>  (48) 
[H]c1c([H])c([H])c2c(c1[H])C([H])([H])C([H])([H])C([H])([H])C2([H])N([H])C(=O)C1([H])N(C(=O)C([H])(N([H])C(=O)C([H])(N([H])C([H])([H])[H])C([H])([H])[H])C(C([H])([H])[H])(C([H])([H])[H])C([H])([H])[H])C([H])([H])c2c([H])c(Oc3c([H])c(C([H])([H])[H])c(C([H])([H])C([H])([H])[H])c([H])c3C([H])([H])C([H])([H])C([H])([H])C([H])([H])N([H])C(=O)N3C([H])([H])C([H])([H])C([H])([H])C([H])(n4nc(-c5c([H])c([H])c(Oc6c([H])c([H])c(F)c([H])c6F)c([H])c5[H])c(C(=O)N([H])[H])c4N([H])[H])C3([H])[H])c([H])c([H])c2C1([H])[H]

>  <smiles>  (48) 
[H]c1c([H])c([H])c2c(c1[H])C([H])([H])C([H])([H])C([H])([H])C2([H])N([H])C(=O)C1([H])N(C(=O)C([H])(N([H])C(=O)C([H])(N([H])C([H])([H])[H])C([H])([H])[H])C(C([H])([H])[H])(C([H])([H])[H])C([H])([H])[H])C([H])([H])c2c([H])c(Oc3c([H])c(C([H])([H])[H])c(C([H])([H])C([H])([H])[H])c([H])c3C([H])([H])C([H])([H])C([H])([H])C([H])([H])N([H])C(=O)N3C([H])([H])C([H])([H])C([H])([H])C([H])(n4nc(-c5c([H])c([H])c(Oc6c([H])c([H])c(F)c([H])c6F)c([H])c5[H])c(C(=O)N([H])[H])c4N([H])[H])C3([H])[H])c([H])c([H])c2C1([H])[H]

$$$$
48:0:0
     RDKit          3D

 97105  0  0  1  0  0  0  0  0999 V2000
  -29.5070  -19.1530   20.6110 C   0  0  0  0  0  3  0  0  0  0  0  0
  -30.6290  -18.0430   18.7810 C   0  0  0  0  0  3  0  0  0  0  0  0
  -30.0210  -17.8800   20.0450 C   0  0  0  0  0  0  0  0  0  0  0  0
  -29.5410  -20.4920   19.9840 C   0  0  0  0  0  0  0  0  0  0  0  0
  -30.7120  -19.3060   18.1360 C   0  0  0  0  0  0  0  0  0  0  0  0
  -30.1510  -20.4940   18.7040 C   0  0  0  0  0  0  0  0  0  0  0  0
  -28.5890  -16.2540   21.3870 C   0  0  0  0  0  1  0  0  0  0  0  0
  -30.9380  -16.5730   21.9940 C   0  0  0  0  0  1  0  0  0  0  0  0
  -29.9970  -16.3990   20.7820 C   0  0  2  0  0  0  0  0  0  0  0  0
  -30.5380  -14.9620   20.0660 C   0  0  0  0  0  0  0  0  0  0  0  0
  -30.3300  -12.6730   18.9610 C   0  0  0  0  0  2  0  0  0  0  0  0
  -29.3090  -12.7020   17.7970 C   0  0  0  0  0  2  0  0  0  0  0  0
  -27.8730  -12.4710   18.3040 C   0  0  0  0  0  2  0  0  0  0  0  0
  -27.5630  -13.3130   19.5670 C   0  0  0  0  0  3  0  0  0  0  0  0
  -28.6970  -13.1800   20.6050 C   0  0  0  0  0  2  0  0  0  0  0  0
  -29.9270  -13.6980   19.9760 N   0  0  0  0  0  0  0  0  0  0  0  0
  -31.6570  -15.0190   19.5390 O   0  0  0  0  0  0  0  0  0  0  0  0
  -25.2210  -13.8680   20.4560 C   0  0  0  0  0  0  0  0  0  0  0  0
  -24.1880  -13.0810   20.8780 C   0  0  0  0  0  0  0  0  0  0  0  0
  -24.6530  -11.7340   20.7850 C   0  0  0  0  0  0  0  0  0  0  0  0
  -26.2540  -13.0020   20.1350 N   0  0  0  0  0  0  0  0  0  0  0  0
  -25.9220  -11.7100   20.3920 N   0  0  0  0  0  0  0  0  0  0  0  0
  -23.9420  -10.4670   20.9870 C   0  0  0  0  0  0  0  0  0  0  0  0
  -24.4110   -9.4930   21.8950 C   0  0  0  0  0  3  0  0  0  0  0  0
  -23.6960   -8.2910   22.0880 C   0  0  0  0  0  3  0  0  0  0  0  0
  -22.5000   -8.0530   21.3670 C   0  0  0  0  0  0  0  0  0  0  0  0
  -22.0530   -9.0160   20.4460 C   0  0  0  0  0  3  0  0  0  0  0  0
  -22.7660  -10.2090   20.2550 C   0  0  0  0  0  3  0  0  0  0  0  0
  -21.7550   -6.9030   21.4680 O   0  0  0  0  0  0  0  0  0  0  0  0
  -21.7160   -6.1690   22.6250 C   0  0  0  0  0  0  0  0  0  0  0  0
  -21.2740   -6.7250   23.8450 C   0  0  0  0  0  3  0  0  0  0  0  0
  -21.1860   -5.9170   24.9950 C   0  0  0  0  0  3  0  0  0  0  0  0
  -21.5310   -4.5540   24.9280 C   0  0  0  0  0  0  0  0  0  0  0  0
  -21.9660   -3.9970   23.7110 C   0  0  0  0  0  3  0  0  0  0  0  0
  -22.0570   -4.8040   22.5630 C   0  0  0  0  0  0  0  0  0  0  0  0
  -22.4560   -4.2580   21.3890 F   0  0  0  0  0  0  0  0  0  0  0  0
  -21.4400   -3.7750   26.0300 F   0  0  0  0  0  0  0  0  0  0  0  0
  -22.8100  -13.5460   21.2520 C   0  0  0  0  0  0  0  0  0  0  0  0
  -22.1420  -12.8230   22.1420 N   0  0  0  0  0  0  0  0  0  0  0  0
  -22.3390  -14.5850   20.7910 O   0  0  0  0  0  0  0  0  0  0  0  0
  -22.5390  -11.9830   22.5360 H   0  0  0  0  0  0  0  0  0  0  0  0
  -21.2200  -13.1150   22.4370 H   0  0  0  0  0  0  0  0  0  0  0  0
  -25.3550  -15.2420   20.2940 N   0  0  0  0  0  0  0  0  0  0  0  0
  -24.5900  -15.8820   20.4800 H   0  0  0  0  0  0  0  0  0  0  0  0
  -26.1630  -15.7010   19.8960 H   0  0  0  0  0  0  0  0  0  0  0  0
  -29.1890  -21.7760   17.0000 C   0  0  0  0  0  1  0  0  0  0  0  0
  -30.1990  -21.6670   17.9970 O   0  0  0  0  0  0  0  0  0  0  0  0
  -31.3990  -19.3690   16.9140 N   0  0  0  0  0  0  0  0  0  0  0  0
  -31.2320  -18.5440   16.3450 H   0  0  0  0  0  0  0  0  0  0  0  0
  -32.8350  -19.5740   17.0970 C   0  0  0  0  0  2  0  0  0  0  0  0
  -33.4390  -20.5600   16.0830 C   0  0  0  0  0  2  0  0  0  0  0  0
  -33.8480  -23.0340   15.5430 C   0  0  0  0  0  1  0  0  0  0  0  0
  -33.0260  -22.0190   16.3450 C   0  0  0  0  0  2  0  0  0  0  0  0
  -28.8910  -21.8670   20.6210 C   0  0  0  0  0  2  0  0  0  0  0  0
  -29.1220  -23.4660   20.1440 C   0  0  0  0  0  3  0  0  0  0  0  0
  -28.2390  -24.7690   20.7180 C   0  0  0  0  0  3  0  0  0  0  0  0
  -28.4600  -26.2760   20.4300 O   0  0  0  0  0  0  0  0  0  0  0  0
  -24.6650  -31.9130   23.2770 C   0  0  0  0  0  0  0  0  0  0  0  0
  -27.3690  -27.2090   20.3800 C   0  0  0  0  0  0  0  0  0  0  0  0
  -23.5130  -30.4700   21.6430 C   0  0  0  0  0  3  0  0  0  0  0  0
  -25.0100  -28.8930   20.2750 C   0  0  0  0  0  0  0  0  0  0  0  0
  -26.0630  -30.7770   21.5160 C   0  0  0  0  0  2  0  0  0  0  0  0
  -26.1710  -29.3770   20.8930 C   0  0  0  0  0  0  0  0  0  0  0  0
  -27.3550  -28.5510   20.9250 C   0  0  0  0  0  3  0  0  0  0  0  0
  -26.1860  -26.8160   19.7210 C   0  0  0  0  0  3  0  0  0  0  0  0
  -25.0290  -27.6250   19.6730 C   0  0  0  0  0  3  0  0  0  0  0  0
  -23.7680  -29.7670   20.2830 C   0  0  0  0  0  2  0  0  0  0  0  0
  -24.7660  -31.0760   22.2010 N   0  0  0  0  0  0  0  0  0  0  0  0
  -23.5650  -32.1930   23.7800 O   0  0  0  0  0  0  0  0  0  0  0  0
  -22.8320  -29.4720   22.6110 C   0  0  0  0  0  0  0  0  0  0  0  0
  -21.5100  -29.2800   22.4630 N   0  0  0  0  0  0  0  0  0  0  0  0
  -23.4960  -28.8690   23.4590 O   0  0  0  0  0  0  0  0  0  0  0  0
  -21.0300  -29.8190   21.7550 H   0  0  0  0  0  0  0  0  0  0  0  0
  -18.1320  -28.0570   22.9330 C   0  0  0  0  0  0  0  0  0  0  0  0
  -20.6850  -28.3480   23.2350 C   0  0  0  0  0  3  0  0  0  0  0  0
  -20.8080  -26.9080   22.6850 C   0  0  0  0  0  2  0  0  0  0  0  0
  -19.7260  -26.5590   21.6580 C   0  0  0  0  0  2  0  0  0  0  0  0
  -18.3330  -26.6990   22.2780 C   0  0  0  0  0  2  0  0  0  0  0  0
  -19.2360  -28.8370   23.3660 C   0  0  0  0  0  0  0  0  0  0  0  0
  -18.9950  -30.1050   23.9380 C   0  0  0  0  0  3  0  0  0  0  0  0
  -17.6830  -30.5960   24.0760 C   0  0  0  0  0  3  0  0  0  0  0  0
  -16.5930  -29.8120   23.6590 C   0  0  0  0  0  3  0  0  0  0  0  0
  -16.8180  -28.5450   23.0930 C   0  0  0  0  0  3  0  0  0  0  0  0
  -25.9220  -32.5760   23.9170 C   0  0  0  0  0  3  0  0  0  0  0  0
  -26.4190  -31.8380   25.2220 C   0  0  1  0  0  0  0  0  0  0  0  0
  -25.3040  -31.5970   26.2670 C   0  0  0  0  0  1  0  0  0  0  0  0
  -27.0330  -30.4630   24.8740 C   0  0  0  0  0  1  0  0  0  0  0  0
  -27.5420  -32.6610   25.8940 C   0  0  0  0  0  1  0  0  0  0  0  0
  -25.5860  -33.9770   24.2160 N   0  0  0  0  0  0  0  0  0  0  0  0
  -25.9230  -35.0240   23.4500 C   0  0  0  0  0  0  0  0  0  0  0  0
  -26.6140  -34.9120   22.4330 O   0  0  0  0  0  0  0  0  0  0  0  0
  -24.9700  -34.1350   25.0000 H   0  0  0  0  0  0  0  0  0  0  0  0
  -24.1850  -36.7960   23.0360 C   0  0  0  0  0  1  0  0  0  0  0  0
  -25.4150  -36.4150   23.8760 C   0  0  0  0  0  3  0  0  0  0  0  0
  -27.5230  -37.3360   24.7350 C   0  0  0  0  0  1  0  0  0  0  0  0
  -26.4390  -37.4770   23.7660 N   0  0  0  0  0  0  0  0  0  0  0  0
  -26.0220  -38.3960   23.8880 H   0  0  0  0  0  0  0  0  0  0  0  0
  2  3  2  0
  3  1  1  0
  3  9  1  0
  4  1  2  0
  4 54  1  0
  5  6  2  0
  5  2  1  0
  6  4  1  0
  9  7  1  1
  9  8  1  0
 10  9  1  0
 11 16  1  0
 12 13  1  0
 12 11  1  0
 14 13  1  0
 14 21  1  0
 14 15  1  0
 16 10  1  0
 16 15  1  0
 17 10  2  0
 18 19  2  0
 19 38  1  0
 20 19  1  0
 20 23  1  0
 21 22  1  0
 21 18  1  0
 22 20  2  0
 23 24  1  0
 24 25  2  0
 26 29  1  0
 26 25  1  0
 27 26  2  0
 28 27  1  0
 28 23  2  0
 29 30  1  0
 30 31  1  0
 31 32  2  0
 33 32  1  0
 33 37  1  0
 34 33  2  0
 35 30  2  0
 35 34  1  0
 36 35  1  0
 38 39  1  0
 39 42  1  0
 39 41  1  0
 40 38  2  0
 43 18  1  0
 43 44  1  0
 45 43  1  0
 46 47  1  0
 47  6  1  0
 48 50  1  0
 48  5  1  0
 49 48  1  0
 51 53  1  0
 51 50  1  0
 52 53  1  0
 55 54  1  0
 55 56  2  0
 57 56  1  0
 58 69  2  0
 59 57  1  0
 59 64  1  0
 60 68  1  0
 60 70  1  0
 61 67  1  0
 61 63  1  0
 62 68  1  0
 63 64  2  0
 63 62  1  0
 65 59  2  0
 66 65  1  0
 66 61  2  0
 67 60  1  0
 68 58  1  0
 70 72  2  0
 71 70  1  0
 73 71  1  0
 74 83  2  0
 74 79  1  0
 75 71  1  0
 75 79  1  0
 76 75  1  0
 77 78  1  0
 77 76  1  0
 78 74  1  0
 79 80  2  0
 80 81  1  0
 82 81  2  0
 83 82  1  0
 84 58  1  0
 84 89  1  0
 84 85  1  0
 85 88  1  1
 85 86  1  0
 87 85  1  0
 89 92  1  0
 90 94  1  0
 90 89  1  0
 91 90  2  0
 94 93  1  0
 96 94  1  0
 96 97  1  0
 96 95  1  0
M  ISO  4   9 100  10 100  56 101  57 101
M  END
>  <TORSDO>  (49) 
F 25

>  <SCORE>  (49) 
-12.142

>  <name>  (49) 
48

>  <ligand_id>  (49) 
48

>  <original_smiles>  (49) 
[H]c1c([H])c([H])c2c(c1[H])C([H])([H])C([H])([H])C([H])([H])C2([H])N([H])C(=O)C1([H])N(C(=O)C([H])(N([H])C(=O)C([H])(N([H])C([H])([H])[H])C([H])([H])[H])C(C([H])([H])[H])(C([H])([H])[H])C([H])([H])[H])C([H])([H])c2c([H])c(OC([H])([H])C([H])([H])C([H])([H])c3c([H])c(C(C(=O)N4C([H])([H])C([H])([H])C([H])([H])C([H])(n5nc(-c6c([H])c([H])c(Oc7c([H])c([H])c(F)c([H])c7F)c([H])c6[H])c(C(=O)N([H])[H])c5N([H])[H])C4([H])[H])(C([H])([H])[H])C([H])([H])[H])c([H])c(N([H])C([H])([H])C([H])([H])C([H])([H])C([H])([H])[H])c3OC([H])([H])[H])c([H])c([H])c2C1([H])[H]

>  <smiles>  (49) 
[H]c1c([H])c([H])c2c(c1[H])C([H])([H])C([H])([H])C([H])([H])C2([H])N([H])C(=O)C1([H])N(C(=O)C([H])(N([H])C(=O)C([H])(N([H])C([H])([H])[H])C([H])([H])[H])C(C([H])([H])[H])(C([H])([H])[H])C([H])([H])[H])C([H])([H])c2c([H])c(OC([H])([H])C([H])([H])C([H])([H])c3c([H])c(C(C(=O)N4C([H])([H])C([H])([H])C([H])([H])C([H])(n5nc(-c6c([H])c([H])c(Oc7c([H])c([H])c(F)c([H])c7F)c([H])c6[H])c(C(=O)N([H])[H])c5N([H])[H])C4([H])[H])(C([H])([H])[H])C([H])([H])[H])c([H])c(N([H])C([H])([H])C([H])([H])C([H])([H])C([H])([H])[H])c3OC([H])([H])[H])c([H])c([H])c2C1([H])[H]

$$$$
49:0:0
     RDKit          3D

 93101  0  0  1  0  0  0  0  0999 V2000
  -27.2690  -23.6030   21.8640 C   0  0  0  0  0  3  0  0  0  0  0  0
  -28.0410  -22.5760   21.3080 C   0  0  0  0  0  0  0  0  0  0  0  0
  -29.0290  -22.8670   20.3340 C   0  0  0  0  0  0  0  0  0  0  0  0
  -29.2100  -24.2870   20.0120 C   0  0  0  0  0  0  0  0  0  0  0  0
  -27.3750  -24.9530   21.4770 C   0  0  0  0  0  0  0  0  0  0  0  0
  -28.3690  -25.3570   20.5390 C   0  0  0  0  0  0  0  0  0  0  0  0
  -27.7040  -21.1590   21.7390 C   0  0  0  0  0  1  0  0  0  0  0  0
  -30.3080  -24.6940   19.0500 C   0  0  0  0  0  1  0  0  0  0  0  0
  -25.1360  -25.4090   22.1120 C   0  0  0  0  0  1  0  0  0  0  0  0
  -26.4910  -25.8550   22.0240 O   0  0  0  0  0  0  0  0  0  0  0  0
  -28.5020  -26.7370   20.1610 O   0  0  0  0  0  0  0  0  0  0  0  0
  -24.6130  -31.9880   23.2520 C   0  0  0  0  0  0  0  0  0  0  0  0
  -27.3990  -27.6120   20.0830 C   0  0  0  0  0  0  0  0  0  0  0  0
  -23.4600  -30.6030   21.5510 C   0  0  0  0  0  3  0  0  0  0  0  0
  -24.9750  -29.1450   20.0760 C   0  0  0  0  0  0  0  0  0  0  0  0
  -25.9860  -30.9980   21.4060 C   0  0  0  0  0  2  0  0  0  0  0  0
  -26.1150  -29.6410   20.7250 C   0  0  0  0  0  0  0  0  0  0  0  0
  -27.3260  -28.8870   20.7300 C   0  0  0  0  0  3  0  0  0  0  0  0
  -26.2610  -27.1900   19.3680 C   0  0  0  0  0  3  0  0  0  0  0  0
  -25.0600  -27.9300   19.3710 C   0  0  0  0  0  3  0  0  0  0  0  0
  -23.7060  -29.9740   20.1490 C   0  0  0  0  0  2  0  0  0  0  0  0
  -24.7020  -31.2100   22.1290 N   0  0  0  0  0  0  0  0  0  0  0  0
  -23.5160  -32.2230   23.7800 O   0  0  0  0  0  0  0  0  0  0  0  0
  -22.8160  -29.5450   22.4810 C   0  0  0  0  0  0  0  0  0  0  0  0
  -21.4930  -29.3520   22.3560 N   0  0  0  0  0  0  0  0  0  0  0  0
  -23.5120  -28.8990   23.2700 O   0  0  0  0  0  0  0  0  0  0  0  0
  -20.9810  -29.9560   21.7250 H   0  0  0  0  0  0  0  0  0  0  0  0
  -18.1520  -28.0460   22.7840 C   0  0  0  0  0  0  0  0  0  0  0  0
  -20.6970  -28.3630   23.0840 C   0  0  0  0  0  3  0  0  0  0  0  0
  -20.8380  -26.9590   22.4480 C   0  0  0  0  0  2  0  0  0  0  0  0
  -19.7460  -26.6580   21.4150 C   0  0  0  0  0  2  0  0  0  0  0  0
  -18.3720  -26.7200   22.0800 C   0  0  0  0  0  2  0  0  0  0  0  0
  -19.2470  -28.8270   23.2480 C   0  0  0  0  0  0  0  0  0  0  0  0
  -18.9860  -30.0630   23.8800 C   0  0  0  0  0  3  0  0  0  0  0  0
  -17.6660  -30.5220   24.0540 C   0  0  0  0  0  3  0  0  0  0  0  0
  -16.5900  -29.7470   23.5910 C   0  0  0  0  0  3  0  0  0  0  0  0
  -16.8310  -28.5070   22.9690 C   0  0  0  0  0  3  0  0  0  0  0  0
  -25.8720  -32.6360   23.9070 C   0  0  0  0  0  3  0  0  0  0  0  0
  -25.5430  -34.0370   24.2040 N   0  0  0  0  0  0  0  0  0  0  0  0
  -25.9030  -35.0830   23.4450 C   0  0  0  0  0  0  0  0  0  0  0  0
  -26.6120  -34.9710   22.4440 O   0  0  0  0  0  0  0  0  0  0  0  0
  -24.9110  -34.1910   24.9760 H   0  0  0  0  0  0  0  0  0  0  0  0
  -24.1780  -36.8640   23.0110 C   0  0  0  0  0  1  0  0  0  0  0  0
  -25.3930  -36.4750   23.8690 C   0  0  0  0  0  3  0  0  0  0  0  0
  -27.4960  -37.3800   24.7590 C   0  0  0  0  0  1  0  0  0  0  0  0
  -26.4280  -37.5300   23.7750 N   0  0  0  0  0  0  0  0  0  0  0  0
  -26.0160  -38.4540   23.8910 H   0  0  0  0  0  0  0  0  0  0  0  0
  -26.3420  -31.8860   25.2140 C   0  0  1  0  0  0  0  0  0  0  0  0
  -25.2060  -31.6480   26.2370 C   0  0  0  0  0  1  0  0  0  0  0  0
  -26.9580  -30.5120   24.8610 C   0  0  0  0  0  1  0  0  0  0  0  0
  -27.4540  -32.7050   25.9090 C   0  0  0  0  0  1  0  0  0  0  0  0
  -29.7060  -21.6600   19.5270 C   0  0  0  0  0  2  0  0  0  0  0  0
  -30.4030  -20.3350   20.1540 C   0  0  0  0  0  2  0  0  0  0  0  0
  -29.7850  -18.8600   19.9200 C   0  0  0  0  0  3  0  0  0  0  0  0
  -30.7590  -17.5880   20.0850 C   0  0  0  0  0  3  0  0  0  0  0  0
  -30.9630  -15.0290   19.9370 C   0  0  0  0  0  0  0  0  0  0  0  0
  -30.7100  -12.7420   19.0020 C   0  0  0  0  0  2  0  0  0  0  0  0
  -29.7440  -12.7880   17.7980 C   0  0  0  0  0  2  0  0  0  0  0  0
  -28.2850  -12.6430   18.2740 C   0  0  0  0  0  2  0  0  0  0  0  0
  -27.9420  -13.5830   19.4650 C   0  0  0  0  0  3  0  0  0  0  0  0
  -29.0260  -13.5130   20.5630 C   0  0  0  0  0  2  0  0  0  0  0  0
  -30.3130  -13.8220   19.9300 N   0  0  0  0  0  0  0  0  0  0  0  0
  -32.1430  -15.1090   19.5810 O   0  0  0  0  0  0  0  0  0  0  0  0
  -30.2220  -16.1710   20.1330 N   0  0  0  0  0  0  0  0  0  0  0  0
  -29.2390  -16.0340   20.3240 H   0  0  0  0  0  0  0  0  0  0  0  0
  -25.5800  -14.2290   20.2540 C   0  0  0  0  0  0  0  0  0  0  0  0
  -24.5090  -13.4750   20.6520 C   0  0  0  0  0  0  0  0  0  0  0  0
  -24.9500  -12.1180   20.6260 C   0  0  0  0  0  0  0  0  0  0  0  0
  -26.6020  -13.3270   19.9960 N   0  0  0  0  0  0  0  0  0  0  0  0
  -26.2300  -12.0530   20.2810 N   0  0  0  0  0  0  0  0  0  0  0  0
  -24.2070  -10.8700   20.8480 C   0  0  0  0  0  0  0  0  0  0  0  0
  -24.6150   -9.9360   21.8260 C   0  0  0  0  0  3  0  0  0  0  0  0
  -23.8730   -8.7520   22.0370 C   0  0  0  0  0  3  0  0  0  0  0  0
  -22.7120   -8.4990   21.2670 C   0  0  0  0  0  0  0  0  0  0  0  0
  -22.3260   -9.4220   20.2800 C   0  0  0  0  0  3  0  0  0  0  0  0
  -23.0650  -10.5990   20.0690 C   0  0  0  0  0  3  0  0  0  0  0  0
  -21.9510   -7.3600   21.3740 O   0  0  0  0  0  0  0  0  0  0  0  0
  -21.8250   -6.6900   22.5620 C   0  0  0  0  0  0  0  0  0  0  0  0
  -21.3080   -7.3150   23.7180 C   0  0  0  0  0  3  0  0  0  0  0  0
  -21.1310   -6.5700   24.9000 C   0  0  0  0  0  3  0  0  0  0  0  0
  -21.4610   -5.2040   24.9280 C   0  0  0  0  0  0  0  0  0  0  0  0
  -21.9710   -4.5780   23.7760 C   0  0  0  0  0  3  0  0  0  0  0  0
  -22.1500   -5.3190   22.5950 C   0  0  0  0  0  0  0  0  0  0  0  0
  -22.6210   -4.7070   21.4820 F   0  0  0  0  0  0  0  0  0  0  0  0
  -21.2830   -4.4840   26.0620 F   0  0  0  0  0  0  0  0  0  0  0  0
  -23.1280  -13.9850   20.9490 C   0  0  0  0  0  0  0  0  0  0  0  0
  -22.4100  -13.3240   21.8530 N   0  0  0  0  0  0  0  0  0  0  0  0
  -22.6890  -15.0010   20.4180 O   0  0  0  0  0  0  0  0  0  0  0  0
  -22.7730  -12.5000   22.3080 H   0  0  0  0  0  0  0  0  0  0  0  0
  -21.4890  -13.6630   22.0920 H   0  0  0  0  0  0  0  0  0  0  0  0
  -25.7460  -15.5930   20.0660 N   0  0  0  0  0  0  0  0  0  0  0  0
  -24.9780  -16.2370   20.2220 H   0  0  0  0  0  0  0  0  0  0  0  0
  -26.5570  -16.0440   19.6640 H   0  0  0  0  0  0  0  0  0  0  0  0
  2  7  1  0
  2  1  2  0
  3  2  1  0
  4  3  2  0
  4  6  1  0
  5  1  1  0
  5 10  1  0
  6  5  2  0
  8  4  1  0
 10  9  1  0
 11  6  1  0
 12 23  2  0
 13 11  1  0
 13 18  1  0
 14 22  1  0
 14 24  1  0
 15 21  1  0
 15 17  1  0
 16 22  1  0
 17 18  2  0
 17 16  1  0
 19 20  1  0
 19 13  2  0
 20 15  2  0
 21 14  1  0
 22 12  1  0
 24 26  2  0
 25 24  1  0
 27 25  1  0
 28 37  2  0
 28 33  1  0
 29 25  1  0
 29 33  1  0
 30 29  1  0
 31 32  1  0
 31 30  1  0
 32 28  1  0
 33 34  2  0
 34 35  1  0
 36 35  2  0
 37 36  1  0
 38 12  1  0
 38 39  1  0
 38 48  1  0
 39 42  1  0
 40 44  1  0
 40 39  1  0
 41 40  2  0
 44 43  1  0
 46 44  1  0
 46 47  1  0
 46 45  1  0
 48 51  1  1
 48 49  1  0
 50 48  1  0
 52 53  1  0
 52  3  1  0
 54 55  2  0
 54 53  1  0
 55 64  1  0
 56 64  1  0
 57 62  1  0
 58 59  1  0
 58 57  1  0
 60 59  1  0
 60 69  1  0
 60 61  1  0
 62 56  1  0
 62 61  1  0
 63 56  2  0
 64 65  1  0
 66 67  2  0
 67 86  1  0
 68 67  1  0
 68 71  1  0
 69 66  1  0
 69 70  1  0
 70 68  2  0
 71 72  1  0
 72 73  2  0
 74 77  1  0
 74 73  1  0
 75 74  2  0
 76 75  1  0
 76 71  2  0
 77 78  1  0
 78 83  2  0
 78 79  1  0
 79 80  2  0
 80 81  1  0
 81 85  1  0
 82 81  2  0
 83 82  1  0
 84 83  1  0
 86 87  1  0
 87 90  1  0
 87 89  1  0
 88 86  2  0
 91 92  1  0
 91 66  1  0
 93 91  1  0
M  ISO  4   6 101  11 101  56 100  64 100
M  END
>  <TORSDO>  (50) 
F 21

>  <SCORE>  (50) 
-12.134

>  <name>  (50) 
49

>  <ligand_id>  (50) 
49

>  <original_smiles>  (50) 
[H]c1c([H])c([H])c2c(c1[H])C([H])([H])C([H])([H])C([H])([H])C2([H])N([H])C(=O)C1([H])N(C(=O)C([H])(N([H])C(=O)C([H])(N([H])C([H])([H])[H])C([H])([H])[H])C(C([H])([H])[H])(C([H])([H])[H])C([H])([H])[H])C([H])([H])c2c([H])c(Oc3c(OC([H])([H])[H])c([H])c(C([H])([H])[H])c(C([H])([H])C([H])([H])C([H])([H])C([H])([H])N([H])C(=O)N4C([H])([H])C([H])([H])C([H])([H])C([H])(n5nc(-c6c([H])c([H])c(Oc7c([H])c([H])c(F)c([H])c7F)c([H])c6[H])c(C(=O)N([H])[H])c5N([H])[H])C4([H])[H])c3C([H])([H])[H])c([H])c([H])c2C1([H])[H]

>  <smiles>  (50) 
[H]c1c([H])c([H])c2c(c1[H])C([H])([H])C([H])([H])C([H])([H])C2([H])N([H])C(=O)C1([H])N(C(=O)C([H])(N([H])C(=O)C([H])(N([H])C([H])([H])[H])C([H])([H])[H])C(C([H])([H])[H])(C([H])([H])[H])C([H])([H])[H])C([H])([H])c2c([H])c(Oc3c(OC([H])([H])[H])c([H])c(C([H])([H])[H])c(C([H])([H])C([H])([H])C([H])([H])C([H])([H])N([H])C(=O)N4C([H])([H])C([H])([H])C([H])([H])C([H])(n5nc(-c6c([H])c([H])c(Oc7c([H])c([H])c(F)c([H])c7F)c([H])c6[H])c(C(=O)N([H])[H])c5N([H])[H])C4([H])[H])c3C([H])([H])[H])c([H])c([H])c2C1([H])[H]

$$$$
50:0:0
     RDKit          3D

 92100  0  0  1  0  0  0  0  0999 V2000
  -28.4240  -21.6290   19.1820 C   0  0  0  0  0  3  0  0  0  0  0  0
  -29.0910  -21.7090   20.4120 C   0  0  0  0  0  0  0  0  0  0  0  0
  -27.8300  -22.7390   18.5180 C   0  0  0  0  0  0  0  0  0  0  0  0
  -29.0220  -23.1840   20.9260 C   0  0  0  0  0  0  0  0  0  0  0  0
  -27.8430  -24.0870   19.0070 C   0  0  0  0  0  0  0  0  0  0  0  0
  -28.3730  -24.4500   20.2790 C   0  0  0  0  0  0  0  0  0  0  0  0
  -29.6950  -23.4310   22.2560 C   0  0  0  0  0  1  0  0  0  0  0  0
  -25.7420  -21.8300   17.4080 C   0  0  0  0  0  1  0  0  0  0  0  0
  -27.1480  -22.4100   17.1970 C   0  0  0  0  0  2  0  0  0  0  0  0
  -28.2900  -25.8090   17.4610 C   0  0  0  0  0  1  0  0  0  0  0  0
  -27.3200  -25.0630   18.1940 O   0  0  0  0  0  0  0  0  0  0  0  0
  -28.3500  -25.9690   20.6250 O   0  0  0  0  0  0  0  0  0  0  0  0
  -24.7830  -32.0450   23.4290 C   0  0  0  0  0  0  0  0  0  0  0  0
  -27.3360  -27.0790   20.4940 C   0  0  0  0  0  0  0  0  0  0  0  0
  -23.5890  -30.6170   21.8180 C   0  0  0  0  0  3  0  0  0  0  0  0
  -25.0380  -28.9880   20.4140 C   0  0  0  0  0  0  0  0  0  0  0  0
  -26.1570  -30.8220   21.6640 C   0  0  0  0  0  2  0  0  0  0  0  0
  -26.2270  -29.3950   21.0320 C   0  0  0  0  0  0  0  0  0  0  0  0
  -27.3620  -28.4610   21.0470 C   0  0  0  0  0  3  0  0  0  0  0  0
  -26.1110  -26.8320   19.8320 C   0  0  0  0  0  3  0  0  0  0  0  0
  -25.0100  -27.7290   19.7940 C   0  0  0  0  0  3  0  0  0  0  0  0
  -23.8170  -29.9080   20.4530 C   0  0  0  0  0  2  0  0  0  0  0  0
  -24.8660  -31.1910   22.3570 N   0  0  0  0  0  0  0  0  0  0  0  0
  -23.6910  -32.3450   23.9410 O   0  0  0  0  0  0  0  0  0  0  0  0
  -22.8980  -29.6400   22.8060 C   0  0  0  0  0  0  0  0  0  0  0  0
  -21.5880  -29.3900   22.6220 N   0  0  0  0  0  0  0  0  0  0  0  0
  -23.5510  -29.1070   23.7070 O   0  0  0  0  0  0  0  0  0  0  0  0
  -21.1140  -29.8700   21.8680 H   0  0  0  0  0  0  0  0  0  0  0  0
  -18.2900  -27.9080   22.9520 C   0  0  0  0  0  0  0  0  0  0  0  0
  -20.7790  -28.4470   23.4040 C   0  0  0  0  0  3  0  0  0  0  0  0
  -21.0640  -26.9880   22.9770 C   0  0  0  0  0  2  0  0  0  0  0  0
  -20.0960  -26.4730   21.9070 C   0  0  0  0  0  2  0  0  0  0  0  0
  -18.6510  -26.5320   22.4160 C   0  0  0  0  0  2  0  0  0  0  0  0
  -19.2900  -28.8120   23.4010 C   0  0  0  0  0  0  0  0  0  0  0  0
  -18.8990  -30.0870   23.8640 C   0  0  0  0  0  3  0  0  0  0  0  0
  -17.5440  -30.4630   23.8790 C   0  0  0  0  0  3  0  0  0  0  0  0
  -16.5580  -29.5610   23.4420 C   0  0  0  0  0  3  0  0  0  0  0  0
  -16.9320  -28.2840   22.9870 C   0  0  0  0  0  3  0  0  0  0  0  0
  -26.0510  -32.7040   24.0520 C   0  0  0  0  0  3  0  0  0  0  0  0
  -26.5480  -31.9750   25.3620 C   0  0  1  0  0  0  0  0  0  0  0  0
  -25.4300  -31.7530   26.4060 C   0  0  0  0  0  1  0  0  0  0  0  0
  -27.1660  -30.5980   25.0310 C   0  0  0  0  0  1  0  0  0  0  0  0
  -27.6670  -32.8070   26.0350 C   0  0  0  0  0  1  0  0  0  0  0  0
  -25.7370  -34.1150   24.3480 N   0  0  0  0  0  0  0  0  0  0  0  0
  -26.0190  -35.1510   23.5450 C   0  0  0  0  0  0  0  0  0  0  0  0
  -26.6340  -35.0200   22.4850 O   0  0  0  0  0  0  0  0  0  0  0  0
  -25.1830  -34.2900   25.1740 H   0  0  0  0  0  0  0  0  0  0  0  0
  -24.2310  -36.9050   23.2630 C   0  0  0  0  0  1  0  0  0  0  0  0
  -25.5440  -36.5540   23.9840 C   0  0  0  0  0  3  0  0  0  0  0  0
  -27.7110  -37.5220   24.6170 C   0  0  0  0  0  1  0  0  0  0  0  0
  -26.5440  -37.6150   23.7410 N   0  0  0  0  0  0  0  0  0  0  0  0
  -26.1330  -38.5350   23.8630 H   0  0  0  0  0  0  0  0  0  0  0  0
  -29.6370  -20.1400   21.0440 C   0  0  0  0  0  2  0  0  0  0  0  0
  -30.3200  -18.5970   20.3210 C   0  0  0  0  0  2  0  0  0  0  0  0
  -30.8610  -15.6340   20.4050 C   0  0  0  0  0  0  0  0  0  0  0  0
  -30.8100  -13.2070   19.4390 C   0  0  0  0  0  2  0  0  0  0  0  0
  -29.8970  -13.0450   18.1930 C   0  0  0  0  0  2  0  0  0  0  0  0
  -28.4440  -12.7720   18.6150 C   0  0  0  0  0  2  0  0  0  0  0  0
  -27.9970  -13.7040   19.7670 C   0  0  0  0  0  3  0  0  0  0  0  0
  -29.0360  -13.8050   20.9060 C   0  0  0  0  0  2  0  0  0  0  0  0
  -30.2770  -14.3290   20.3090 N   0  0  0  0  0  0  0  0  0  0  0  0
  -32.0690  -15.6130   20.1340 O   0  0  0  0  0  0  0  0  0  0  0  0
  -30.1320  -16.9310   20.6110 N   0  0  0  0  0  0  0  0  0  0  0  0
  -29.1800  -16.7310   20.8810 H   0  0  0  0  0  0  0  0  0  0  0  0
  -25.6190  -14.2700   20.4880 C   0  0  0  0  0  0  0  0  0  0  0  0
  -24.5460  -13.4980   20.8320 C   0  0  0  0  0  0  0  0  0  0  0  0
  -25.0050  -12.1450   20.7970 C   0  0  0  0  0  0  0  0  0  0  0  0
  -26.6600  -13.3900   20.2520 N   0  0  0  0  0  0  0  0  0  0  0  0
  -26.3020  -12.1040   20.5090 N   0  0  0  0  0  0  0  0  0  0  0  0
  -24.2660  -10.8860   20.9620 C   0  0  0  0  0  0  0  0  0  0  0  0
  -24.6390   -9.9270   21.9290 C   0  0  0  0  0  3  0  0  0  0  0  0
  -23.8960   -8.7360   22.0820 C   0  0  0  0  0  3  0  0  0  0  0  0
  -22.7640   -8.4950   21.2690 C   0  0  0  0  0  0  0  0  0  0  0  0
  -22.4100   -9.4420   20.2900 C   0  0  0  0  0  3  0  0  0  0  0  0
  -23.1550  -10.6220   20.1350 C   0  0  0  0  0  3  0  0  0  0  0  0
  -21.9990   -7.3560   21.3310 O   0  0  0  0  0  0  0  0  0  0  0  0
  -21.8410   -6.6550   22.5000 C   0  0  0  0  0  0  0  0  0  0  0  0
  -21.2380   -7.2330   23.6400 C   0  0  0  0  0  3  0  0  0  0  0  0
  -21.0340   -6.4560   24.7970 C   0  0  0  0  0  3  0  0  0  0  0  0
  -21.4240   -5.1040   24.8180 C   0  0  0  0  0  0  0  0  0  0  0  0
  -22.0190   -4.5250   23.6830 C   0  0  0  0  0  3  0  0  0  0  0  0
  -22.2240   -5.3000   22.5260 C   0  0  0  0  0  0  0  0  0  0  0  0
  -22.7800   -4.7310   21.4290 F   0  0  0  0  0  0  0  0  0  0  0  0
  -21.2200   -4.3550   25.9260 F   0  0  0  0  0  0  0  0  0  0  0  0
  -23.1480  -13.9820   21.0760 C   0  0  0  0  0  0  0  0  0  0  0  0
  -22.4060  -13.3000   21.9420 N   0  0  0  0  0  0  0  0  0  0  0  0
  -22.7210  -15.0010   20.5340 O   0  0  0  0  0  0  0  0  0  0  0  0
  -22.7630  -12.4770   22.4050 H   0  0  0  0  0  0  0  0  0  0  0  0
  -21.4650  -13.6040   22.1460 H   0  0  0  0  0  0  0  0  0  0  0  0
  -25.7940  -15.6420   20.3220 N   0  0  0  0  0  0  0  0  0  0  0  0
  -25.0300  -16.3000   20.4340 H   0  0  0  0  0  0  0  0  0  0  0  0
  -26.6400  -16.0740   19.9760 H   0  0  0  0  0  0  0  0  0  0  0  0
  1  2  1  0
  2  4  2  0
  2 53  1  0
  3  5  1  0
  3  1  2  0
  4  7  1  0
  5  6  2  0
  6 12  1  0
  6  4  1  0
  9  8  1  0
  9  3  1  0
 10 11  1  0
 11  5  1  0
 13 24  2  0
 14 12  1  0
 14 19  1  0
 15 23  1  0
 15 25  1  0
 16 22  1  0
 16 18  1  0
 17 23  1  0
 18 19  2  0
 18 17  1  0
 20 14  2  0
 21 20  1  0
 21 16  2  0
 22 15  1  0
 23 13  1  0
 25 27  2  0
 26 25  1  0
 28 26  1  0
 29 38  2  0
 29 34  1  0
 30 26  1  0
 31 30  1  0
 32 33  1  0
 32 31  1  0
 33 29  1  0
 34 30  1  0
 34 35  2  0
 35 36  1  0
 37 36  2  0
 38 37  1  0
 39 13  1  0
 39 44  1  0
 39 40  1  0
 40 43  1  1
 40 41  1  0
 42 40  1  0
 44 47  1  0
 45 49  1  0
 45 44  1  0
 46 45  2  0
 49 48  1  0
 51 52  1  0
 51 49  1  0
 51 50  1  0
 54 63  1  0
 54 53  1  0
 55 63  1  0
 56 61  1  0
 57 58  1  0
 57 56  1  0
 59 58  1  0
 59 68  1  0
 59 60  1  0
 61 55  1  0
 61 60  1  0
 62 55  2  0
 63 64  1  0
 65 66  2  0
 66 85  1  0
 67 66  1  0
 67 70  1  0
 68 65  1  0
 68 69  1  0
 69 67  2  0
 70 71  1  0
 71 72  2  0
 73 76  1  0
 73 72  1  0
 74 73  2  0
 75 74  1  0
 75 70  2  0
 76 77  1  0
 77 82  2  0
 77 78  1  0
 78 79  2  0
 79 80  1  0
 80 84  1  0
 81 80  2  0
 82 81  1  0
 83 82  1  0
 85 86  1  0
 86 89  1  0
 86 88  1  0
 87 85  2  0
 90 91  1  0
 90 65  1  0
 92 90  1  0
M  ISO  4   6 101  12 101  55 100  63 100
M  END
>  <TORSDO>  (51) 
F 20

>  <SCORE>  (51) 
-13.720

>  <name>  (51) 
50

>  <ligand_id>  (51) 
50

>  <original_smiles>  (51) 
[H]c1c([H])c([H])c2c(c1[H])C([H])([H])C([H])([H])C([H])([H])C2([H])N([H])C(=O)C1([H])N(C(=O)C([H])(N([H])C(=O)C([H])(N([H])C([H])([H])[H])C([H])([H])[H])C(C([H])([H])[H])(C([H])([H])[H])C([H])([H])[H])C([H])([H])c2c([H])c(Oc3c(OC([H])([H])[H])c(C([H])([H])C([H])([H])[H])c([H])c(C([H])([H])C([H])([H])N([H])C(=O)N4C([H])([H])C([H])([H])C([H])([H])C([H])(n5nc(-c6c([H])c([H])c(Oc7c([H])c([H])c(F)c([H])c7F)c([H])c6[H])c(C(=O)N([H])[H])c5N([H])[H])C4([H])[H])c3C([H])([H])[H])c([H])c([H])c2C1([H])[H]

>  <smiles>  (51) 
[H]c1c([H])c([H])c2c(c1[H])C([H])([H])C([H])([H])C([H])([H])C2([H])N([H])C(=O)C1([H])N(C(=O)C([H])(N([H])C(=O)C([H])(N([H])C([H])([H])[H])C([H])([H])[H])C(C([H])([H])[H])(C([H])([H])[H])C([H])([H])[H])C([H])([H])c2c([H])c(Oc3c(OC([H])([H])[H])c(C([H])([H])C([H])([H])[H])c([H])c(C([H])([H])C([H])([H])N([H])C(=O)N4C([H])([H])C([H])([H])C([H])([H])C([H])(n5nc(-c6c([H])c([H])c(Oc7c([H])c([H])c(F)c([H])c7F)c([H])c6[H])c(C(=O)N([H])[H])c5N([H])[H])C4([H])[H])c3C([H])([H])[H])c([H])c([H])c2C1([H])[H]

$$$$
51:0:0
     RDKit          3D

 91 99  0  0  1  0  0  0  0  0999 V2000
  -28.3510  -21.5770   19.2980 C   0  0  0  0  0  3  0  0  0  0  0  0
  -29.0700  -20.7320   20.2800 C   0  0  0  0  0  0  0  0  0  0  0  0
  -28.0190  -23.0630   19.2890 C   0  0  0  0  0  0  0  0  0  0  0  0
  -29.3650  -21.7760   21.2920 C   0  0  0  0  0  0  0  0  0  0  0  0
  -28.3050  -24.1100   20.3030 C   0  0  0  0  0  0  0  0  0  0  0  0
  -29.0210  -23.2700   21.3150 C   0  0  0  0  0  0  0  0  0  0  0  0
  -27.3360  -23.5570   18.0280 C   0  0  0  0  0  1  0  0  0  0  0  0
  -28.9310  -25.0880   22.9190 C   0  0  0  0  0  1  0  0  0  0  0  0
  -29.5320  -23.8920   22.4390 O   0  0  0  0  0  0  0  0  0  0  0  0
  -28.2160  -25.7070   20.2290 O   0  0  0  0  0  0  0  0  0  0  0  0
  -24.6280  -31.8630   23.1740 C   0  0  0  0  0  0  0  0  0  0  0  0
  -27.1760  -26.8320   20.2200 C   0  0  0  0  0  0  0  0  0  0  0  0
  -23.4410  -30.4550   21.5440 C   0  0  0  0  0  3  0  0  0  0  0  0
  -24.8910  -28.8090   20.1460 C   0  0  0  0  0  0  0  0  0  0  0  0
  -26.0160  -30.6180   21.4210 C   0  0  0  0  0  2  0  0  0  0  0  0
  -26.0810  -29.1880   20.7770 C   0  0  0  0  0  0  0  0  0  0  0  0
  -27.2070  -28.2240   20.7850 C   0  0  0  0  0  3  0  0  0  0  0  0
  -25.9530  -26.6420   19.5320 C   0  0  0  0  0  3  0  0  0  0  0  0
  -24.8600  -27.5590   19.5010 C   0  0  0  0  0  3  0  0  0  0  0  0
  -23.6820  -29.7530   20.1780 C   0  0  0  0  0  2  0  0  0  0  0  0
  -24.7180  -31.0100   22.0990 N   0  0  0  0  0  0  0  0  0  0  0  0
  -23.5360  -32.1640   23.6850 O   0  0  0  0  0  0  0  0  0  0  0  0
  -22.7320  -29.4770   22.5190 C   0  0  0  0  0  0  0  0  0  0  0  0
  -21.4000  -29.3250   22.4030 N   0  0  0  0  0  0  0  0  0  0  0  0
  -23.3930  -28.8520   23.3530 O   0  0  0  0  0  0  0  0  0  0  0  0
  -20.9170  -29.8790   21.7090 H   0  0  0  0  0  0  0  0  0  0  0  0
  -18.0090  -28.1420   22.9450 C   0  0  0  0  0  0  0  0  0  0  0  0
  -20.5740  -28.3950   23.1850 C   0  0  0  0  0  3  0  0  0  0  0  0
  -20.6600  -26.9610   22.6140 C   0  0  0  0  0  2  0  0  0  0  0  0
  -19.5480  -26.6430   21.6090 C   0  0  0  0  0  2  0  0  0  0  0  0
  -18.1730  -26.7930   22.2650 C   0  0  0  0  0  2  0  0  0  0  0  0
  -19.1360  -28.9020   23.3620 C   0  0  0  0  0  0  0  0  0  0  0  0
  -18.9250  -30.1610   23.9630 C   0  0  0  0  0  3  0  0  0  0  0  0
  -17.6230  -30.6610   24.1510 C   0  0  0  0  0  3  0  0  0  0  0  0
  -16.5120  -29.9000   23.7480 C   0  0  0  0  0  3  0  0  0  0  0  0
  -16.7060  -28.6430   23.1490 C   0  0  0  0  0  3  0  0  0  0  0  0
  -25.8930  -32.5170   23.8070 C   0  0  0  0  0  3  0  0  0  0  0  0
  -25.5650  -33.9150   24.1450 N   0  0  0  0  0  0  0  0  0  0  0  0
  -25.8790  -34.9850   23.4020 C   0  0  0  0  0  0  0  0  0  0  0  0
  -26.5360  -34.9000   22.3630 O   0  0  0  0  0  0  0  0  0  0  0  0
  -24.9790  -34.0550   24.9560 H   0  0  0  0  0  0  0  0  0  0  0  0
  -24.1310  -36.7770   23.1080 C   0  0  0  0  0  1  0  0  0  0  0  0
  -25.3910  -36.3680   23.8880 C   0  0  0  0  0  3  0  0  0  0  0  0
  -27.5310  -37.2670   24.6910 C   0  0  0  0  0  1  0  0  0  0  0  0
  -26.4120  -37.4310   23.7670 N   0  0  0  0  0  0  0  0  0  0  0  0
  -25.9990  -38.3460   23.9290 H   0  0  0  0  0  0  0  0  0  0  0  0
  -26.4030  -31.7600   25.0960 C   0  0  1  0  0  0  0  0  0  0  0  0
  -25.3040  -31.5280   26.1580 C   0  0  0  0  0  1  0  0  0  0  0  0
  -26.9970  -30.3800   24.7320 C   0  0  0  0  0  1  0  0  0  0  0  0
  -27.5440  -32.5670   25.7590 C   0  0  0  0  0  1  0  0  0  0  0  0
  -29.7640  -19.0320   20.1010 C   0  0  0  0  0  3  0  0  0  0  0  0
  -29.4550  -17.1990   20.4480 C   0  0  0  0  0  3  0  0  0  0  0  0
  -30.2900  -15.5790   20.1820 C   0  0  0  0  0  0  0  0  0  0  0  0
  -30.3580  -13.0710   19.3170 C   0  0  0  0  0  2  0  0  0  0  0  0
  -29.4190  -12.7720   18.1130 C   0  0  0  0  0  2  0  0  0  0  0  0
  -27.9970  -12.4370   18.5910 C   0  0  0  0  0  2  0  0  0  0  0  0
  -27.5350  -13.4110   19.6990 C   0  0  0  0  0  3  0  0  0  0  0  0
  -28.5980  -13.6350   20.7970 C   0  0  0  0  0  2  0  0  0  0  0  0
  -29.7930  -14.2150   20.1510 N   0  0  0  0  0  0  0  0  0  0  0  0
  -31.5010  -15.5540   19.9000 O   0  0  0  0  0  0  0  0  0  0  0  0
  -25.1930  -13.9390   20.5340 C   0  0  0  0  0  0  0  0  0  0  0  0
  -24.1420  -13.1540   20.9180 C   0  0  0  0  0  0  0  0  0  0  0  0
  -24.6110  -11.8050   20.8550 C   0  0  0  0  0  0  0  0  0  0  0  0
  -26.2280  -13.0710   20.2450 N   0  0  0  0  0  0  0  0  0  0  0  0
  -25.8960  -11.7800   20.5070 N   0  0  0  0  0  0  0  0  0  0  0  0
  -23.8900  -10.5380   21.0440 C   0  0  0  0  0  0  0  0  0  0  0  0
  -24.3410   -9.5580   21.9550 C   0  0  0  0  0  3  0  0  0  0  0  0
  -23.6160   -8.3600   22.1370 C   0  0  0  0  0  3  0  0  0  0  0  0
  -22.4260   -8.1330   21.4060 C   0  0  0  0  0  0  0  0  0  0  0  0
  -21.9910   -9.1030   20.4840 C   0  0  0  0  0  3  0  0  0  0  0  0
  -22.7170  -10.2920   20.3020 C   0  0  0  0  0  3  0  0  0  0  0  0
  -21.6710   -6.9890   21.4970 O   0  0  0  0  0  0  0  0  0  0  0  0
  -21.6440   -6.2320   22.6420 C   0  0  0  0  0  0  0  0  0  0  0  0
  -21.2300   -6.7690   23.8800 C   0  0  0  0  0  3  0  0  0  0  0  0
  -21.1520   -5.9390   25.0160 C   0  0  0  0  0  3  0  0  0  0  0  0
  -21.4790   -4.5730   24.9150 C   0  0  0  0  0  0  0  0  0  0  0  0
  -21.8850   -4.0360   23.6820 C   0  0  0  0  0  3  0  0  0  0  0  0
  -21.9650   -4.8630   22.5470 C   0  0  0  0  0  0  0  0  0  0  0  0
  -22.3370   -4.3350   21.3560 F   0  0  0  0  0  0  0  0  0  0  0  0
  -21.3960   -3.7740   26.0050 F   0  0  0  0  0  0  0  0  0  0  0  0
  -22.7520  -13.6250   21.2260 C   0  0  0  0  0  0  0  0  0  0  0  0
  -22.0440  -12.9180   22.1000 N   0  0  0  0  0  0  0  0  0  0  0  0
  -22.3030  -14.6560   20.7270 O   0  0  0  0  0  0  0  0  0  0  0  0
  -22.4200  -12.0850   22.5260 H   0  0  0  0  0  0  0  0  0  0  0  0
  -21.1120  -13.2170   22.3490 H   0  0  0  0  0  0  0  0  0  0  0  0
  -25.3490  -15.3130   20.3760 N   0  0  0  0  0  0  0  0  0  0  0  0
  -24.5890  -15.9660   20.5240 H   0  0  0  0  0  0  0  0  0  0  0  0
  -26.1940  -15.7590   20.0420 H   0  0  0  0  0  0  0  0  0  0  0  0
  -30.2020  -21.2580   22.4580 C   0  0  0  0  0  2  0  0  0  0  0  0
  -32.5630  -20.7280   23.2770 C   0  0  0  0  0  1  0  0  0  0  0  0
  -31.7110  -21.4330   22.2150 C   0  0  0  0  0  2  0  0  0  0  0  0
  1  2  1  0
  2  4  2  0
  3  1  2  0
  3  5  1  0
  4  6  1  0
  4 89  1  0
  5  6  2  0
  6  9  1  0
  7  3  1  0
  9  8  1  0
 10  5  1  0
 11 22  2  0
 12 10  1  0
 12 17  1  0
 13 21  1  0
 13 23  1  0
 14 20  1  0
 14 16  1  0
 15 21  1  0
 16 17  2  0
 16 15  1  0
 18 12  2  0
 19 18  1  0
 19 14  2  0
 20 13  1  0
 21 11  1  0
 23 25  2  0
 24 23  1  0
 26 24  1  0
 27 36  2  0
 27 32  1  0
 28 24  1  0
 28 32  1  0
 29 28  1  0
 30 31  1  0
 30 29  1  0
 31 27  1  0
 32 33  2  0
 33 34  1  0
 35 34  2  0
 36 35  1  0
 37 11  1  0
 37 38  1  0
 37 47  1  0
 38 41  1  0
 39 43  1  0
 39 38  1  0
 40 39  2  0
 43 42  1  0
 45 43  1  0
 45 46  1  0
 45 44  1  0
 47 50  1  1
 47 48  1  0
 49 47  1  0
 51  2  1  0
 51 52  2  0
 53 52  1  0
 54 59  1  0
 55 56  1  0
 55 54  1  0
 57 56  1  0
 57 64  1  0
 57 58  1  0
 59 53  1  0
 59 58  1  0
 60 53  2  0
 61 62  2  0
 62 81  1  0
 63 62  1  0
 63 66  1  0
 64 65  1  0
 64 61  1  0
 65 63  2  0
 66 67  1  0
 67 68  2  0
 69 72  1  0
 69 68  1  0
 70 69  2  0
 71 70  1  0
 71 66  2  0
 72 73  1  0
 73 74  1  0
 74 75  2  0
 76 75  1  0
 76 80  1  0
 77 76  2  0
 78 73  2  0
 78 77  1  0
 79 78  1  0
 81 82  1  0
 82 85  1  0
 82 84  1  0
 83 81  2  0
 86 87  1  0
 86 61  1  0
 88 86  1  0
 91 89  1  0
 91 90  1  0
M  ISO  4   5 101  10 101  52 100  53 100
M  END
>  <TORSDO>  (52) 
F 21

>  <SCORE>  (52) 
-15.081

>  <name>  (52) 
51

>  <ligand_id>  (52) 
51

>  <original_smiles>  (52) 
[H]c1c([H])c([H])c2c(c1[H])C([H])([H])C([H])([H])C([H])([H])C2([H])N([H])C(=O)C1([H])N(C(=O)C([H])(N([H])C(=O)C([H])(N([H])C([H])([H])[H])C([H])([H])[H])C(C([H])([H])[H])(C([H])([H])[H])C([H])([H])[H])C([H])([H])c2c([H])c(Oc3c(OC([H])([H])[H])c(C([H])([H])C([H])([H])C([H])([H])[H])c(C([H])([H])C([H])([H])C(=O)N4C([H])([H])C([H])([H])C([H])([H])C([H])(n5nc(-c6c([H])c([H])c(Oc7c([H])c([H])c(F)c([H])c7F)c([H])c6[H])c(C(=O)N([H])[H])c5N([H])[H])C4([H])[H])c([H])c3C([H])([H])[H])c([H])c([H])c2C1([H])[H]

>  <smiles>  (52) 
[H]c1c([H])c([H])c2c(c1[H])C([H])([H])C([H])([H])C([H])([H])C2([H])N([H])C(=O)C1([H])N(C(=O)C([H])(N([H])C(=O)C([H])(N([H])C([H])([H])[H])C([H])([H])[H])C(C([H])([H])[H])(C([H])([H])[H])C([H])([H])[H])C([H])([H])c2c([H])c(Oc3c(OC([H])([H])[H])c(C([H])([H])C([H])([H])C([H])([H])[H])c(C([H])([H])C([H])([H])C(=O)N4C([H])([H])C([H])([H])C([H])([H])C([H])(n5nc(-c6c([H])c([H])c(Oc7c([H])c([H])c(F)c([H])c7F)c([H])c6[H])c(C(=O)N([H])[H])c5N([H])[H])C4([H])[H])c([H])c3C([H])([H])[H])c([H])c([H])c2C1([H])[H]

$$$$
52:0:0
     RDKit          3D

 92100  0  0  1  0  0  0  0  0999 V2000
  -29.2630  -20.6290   19.9890 C   0  0  0  0  0  3  0  0  0  0  0  0
  -30.5700  -19.4940   21.6720 C   0  0  0  0  0  3  0  0  0  0  0  0
  -29.4070  -21.9790   20.6150 C   0  0  0  0  0  0  0  0  0  0  0  0
  -29.8110  -19.3420   20.5050 C   0  0  0  0  0  0  0  0  0  0  0  0
  -30.8180  -20.7550   22.2610 C   0  0  0  0  0  0  0  0  0  0  0  0
  -30.2120  -21.9590   21.7940 C   0  0  0  0  0  0  0  0  0  0  0  0
  -28.8850  -23.4070   20.0150 C   0  0  0  0  0  0  0  0  0  0  0  0
  -28.6940  -23.4770   18.7960 O   0  0  0  0  0  0  0  0  0  0  0  0
  -28.4850  -24.7810   20.8610 C   0  0  0  0  0  2  0  0  0  0  0  0
  -28.5930  -26.2280   20.3010 O   0  0  0  0  0  0  0  0  0  0  0  0
  -24.6750  -31.7950   23.1970 C   0  0  0  0  0  0  0  0  0  0  0  0
  -27.4870  -27.1430   20.3000 C   0  0  0  0  0  0  0  0  0  0  0  0
  -23.5720  -30.3680   21.5120 C   0  0  0  0  0  3  0  0  0  0  0  0
  -25.1110  -28.8090   20.1680 C   0  0  0  0  0  0  0  0  0  0  0  0
  -26.1200  -30.6940   21.4480 C   0  0  0  0  0  2  0  0  0  0  0  0
  -26.2530  -29.2980   20.8150 C   0  0  0  0  0  0  0  0  0  0  0  0
  -27.4450  -28.4820   20.8590 C   0  0  0  0  0  3  0  0  0  0  0  0
  -26.3130  -26.7410   19.6310 C   0  0  0  0  0  3  0  0  0  0  0  0
  -25.1520  -27.5410   19.5660 C   0  0  0  0  0  3  0  0  0  0  0  0
  -23.8650  -29.6810   20.1510 C   0  0  0  0  0  2  0  0  0  0  0  0
  -24.8060  -30.9760   22.1080 N   0  0  0  0  0  0  0  0  0  0  0  0
  -23.5640  -32.0600   23.6800 O   0  0  0  0  0  0  0  0  0  0  0  0
  -22.8720  -29.3550   22.4510 C   0  0  0  0  0  0  0  0  0  0  0  0
  -21.5480  -29.1840   22.2920 N   0  0  0  0  0  0  0  0  0  0  0  0
  -23.5240  -28.7250   23.2870 O   0  0  0  0  0  0  0  0  0  0  0  0
  -21.0760  -29.7470   21.5990 H   0  0  0  0  0  0  0  0  0  0  0  0
  -18.1540  -27.9910   22.7180 C   0  0  0  0  0  0  0  0  0  0  0  0
  -20.7100  -28.2360   23.0310 C   0  0  0  0  0  3  0  0  0  0  0  0
  -20.8130  -26.8130   22.4350 C   0  0  0  0  0  2  0  0  0  0  0  0
  -19.7270  -26.5130   21.3970 C   0  0  0  0  0  2  0  0  0  0  0  0
  -18.3360  -26.6530   22.0220 C   0  0  0  0  0  2  0  0  0  0  0  0
  -19.2690  -28.7420   23.1780 C   0  0  0  0  0  0  0  0  0  0  0  0
  -19.0450  -29.9950   23.7890 C   0  0  0  0  0  3  0  0  0  0  0  0
  -17.7410  -30.4970   23.9460 C   0  0  0  0  0  3  0  0  0  0  0  0
  -16.6400  -29.7440   23.5020 C   0  0  0  0  0  3  0  0  0  0  0  0
  -16.8480  -28.4930   22.8960 C   0  0  0  0  0  3  0  0  0  0  0  0
  -25.9150  -32.4560   23.8760 C   0  0  0  0  0  3  0  0  0  0  0  0
  -25.5660  -33.8500   24.1890 N   0  0  0  0  0  0  0  0  0  0  0  0
  -25.9010  -34.9080   23.4370 C   0  0  0  0  0  0  0  0  0  0  0  0
  -26.6000  -34.8140   22.4240 O   0  0  0  0  0  0  0  0  0  0  0  0
  -24.9520  -33.9990   24.9770 H   0  0  0  0  0  0  0  0  0  0  0  0
  -24.1430  -36.6650   23.0410 C   0  0  0  0  0  1  0  0  0  0  0  0
  -25.3780  -36.2900   23.8760 C   0  0  0  0  0  3  0  0  0  0  0  0
  -27.4760  -37.2320   24.7390 C   0  0  0  0  0  1  0  0  0  0  0  0
  -26.3900  -37.3650   23.7720 N   0  0  0  0  0  0  0  0  0  0  0  0
  -25.9610  -38.2780   23.9020 H   0  0  0  0  0  0  0  0  0  0  0  0
  -26.3850  -31.6980   25.1790 C   0  0  1  0  0  0  0  0  0  0  0  0
  -25.2490  -31.4470   26.1990 C   0  0  0  0  0  1  0  0  0  0  0  0
  -27.0090  -30.3290   24.8250 C   0  0  0  0  0  1  0  0  0  0  0  0
  -27.4910  -32.5160   25.8900 C   0  0  0  0  0  1  0  0  0  0  0  0
  -33.2900  -20.9490   22.6400 C   0  0  0  0  0  1  0  0  0  0  0  0
  -31.9200  -20.7880   23.3120 C   0  0  0  0  0  2  0  0  0  0  0  0
  -29.8400  -23.3720   23.6460 C   0  0  0  0  0  1  0  0  0  0  0  0
  -30.5420  -23.1320   22.4270 O   0  0  0  0  0  0  0  0  0  0  0  0
  -29.8580  -17.8400   19.8170 C   0  0  0  0  0  2  0  0  0  0  0  0
  -29.7860  -16.3470   20.6180 C   0  0  0  0  0  2  0  0  0  0  0  0
  -30.5010  -14.9190   20.1490 C   0  0  0  0  0  0  0  0  0  0  0  0
  -30.3300  -12.5770   19.1950 C   0  0  0  0  0  2  0  0  0  0  0  0
  -29.3740  -12.6110   17.9850 C   0  0  0  0  0  2  0  0  0  0  0  0
  -27.9160  -12.4120   18.4450 C   0  0  0  0  0  2  0  0  0  0  0  0
  -27.5590  -13.2880   19.6760 C   0  0  0  0  0  3  0  0  0  0  0  0
  -28.6470  -13.2570   20.7690 C   0  0  0  0  0  2  0  0  0  0  0  0
  -29.9130  -13.6540   20.1390 N   0  0  0  0  0  0  0  0  0  0  0  0
  -31.6590  -14.9770   19.7210 O   0  0  0  0  0  0  0  0  0  0  0  0
  -25.1980  -13.8590   20.4800 C   0  0  0  0  0  0  0  0  0  0  0  0
  -24.1450  -13.0820   20.8740 C   0  0  0  0  0  0  0  0  0  0  0  0
  -24.6050  -11.7310   20.8160 C   0  0  0  0  0  0  0  0  0  0  0  0
  -26.2340  -12.9820   20.2050 N   0  0  0  0  0  0  0  0  0  0  0  0
  -25.8860  -11.6950   20.4640 N   0  0  0  0  0  0  0  0  0  0  0  0
  -23.8790  -10.4700   21.0170 C   0  0  0  0  0  0  0  0  0  0  0  0
  -24.3210   -9.4950   21.9380 C   0  0  0  0  0  3  0  0  0  0  0  0
  -23.5890   -8.3020   22.1260 C   0  0  0  0  0  3  0  0  0  0  0  0
  -22.4030   -8.0720   21.3890 C   0  0  0  0  0  0  0  0  0  0  0  0
  -21.9800   -9.0350   20.4560 C   0  0  0  0  0  3  0  0  0  0  0  0
  -22.7120  -10.2190   20.2680 C   0  0  0  0  0  3  0  0  0  0  0  0
  -21.6440   -6.9310   21.4860 O   0  0  0  0  0  0  0  0  0  0  0  0
  -21.6050   -6.1840   22.6370 C   0  0  0  0  0  0  0  0  0  0  0  0
  -21.1920   -6.7360   23.8680 C   0  0  0  0  0  3  0  0  0  0  0  0
  -21.1030   -5.9180   25.0110 C   0  0  0  0  0  3  0  0  0  0  0  0
  -21.4180   -4.5490   24.9250 C   0  0  0  0  0  0  0  0  0  0  0  0
  -21.8250   -3.9960   23.6980 C   0  0  0  0  0  3  0  0  0  0  0  0
  -21.9140   -4.8110   22.5560 C   0  0  0  0  0  0  0  0  0  0  0  0
  -22.2860   -4.2680   21.3710 F   0  0  0  0  0  0  0  0  0  0  0  0
  -21.3250   -3.7620   26.0220 F   0  0  0  0  0  0  0  0  0  0  0  0
  -22.7570  -13.5590   21.1920 C   0  0  0  0  0  0  0  0  0  0  0  0
  -22.0520  -12.8500   22.0650 N   0  0  0  0  0  0  0  0  0  0  0  0
  -22.3070  -14.5940   20.7030 O   0  0  0  0  0  0  0  0  0  0  0  0
  -22.4260  -12.0120   22.4850 H   0  0  0  0  0  0  0  0  0  0  0  0
  -21.1200  -13.1480   22.3180 H   0  0  0  0  0  0  0  0  0  0  0  0
  -25.3590  -15.2320   20.3090 N   0  0  0  0  0  0  0  0  0  0  0  0
  -24.6080  -15.8970   20.4640 H   0  0  0  0  0  0  0  0  0  0  0  0
  -26.2070  -15.6700   19.9690 H   0  0  0  0  0  0  0  0  0  0  0  0
  1  4  2  0
  1  3  1  0
  2  5  2  0
  3  6  2  0
  4  2  1  0
  5 52  1  0
  6  5  1  0
  6 54  1  0
  7  3  1  0
  7  9  1  0
  8  7  2  0
 10  9  1  0
 11 22  2  0
 12 10  1  0
 12 17  1  0
 13 21  1  0
 13 23  1  0
 14 16  1  0
 15 21  1  0
 16 17  2  0
 16 15  1  0
 18 12  2  0
 19 18  1  0
 19 14  2  0
 20 14  1  0
 20 13  1  0
 21 11  1  0
 23 25  2  0
 24 23  1  0
 26 24  1  0
 27 36  2  0
 27 32  1  0
 28 24  1  0
 28 32  1  0
 29 28  1  0
 30 31  1  0
 30 29  1  0
 31 27  1  0
 32 33  2  0
 33 34  1  0
 35 34  2  0
 36 35  1  0
 37 11  1  0
 37 38  1  0
 37 47  1  0
 38 41  1  0
 39 43  1  0
 39 38  1  0
 40 39  2  0
 43 42  1  0
 45 43  1  0
 45 46  1  0
 45 44  1  0
 47 50  1  1
 47 48  1  0
 49 47  1  0
 51 52  1  0
 54 53  1  0
 55  4  1  0
 55 56  1  0
 57 56  1  0
 58 63  1  0
 59 60  1  0
 59 58  1  0
 61 60  1  0
 61 68  1  0
 61 62  1  0
 63 57  1  0
 63 62  1  0
 64 57  2  0
 65 66  2  0
 66 85  1  0
 67 66  1  0
 67 70  1  0
 68 69  1  0
 68 65  1  0
 69 67  2  0
 70 71  1  0
 71 72  2  0
 73 76  1  0
 73 72  1  0
 74 73  2  0
 75 74  1  0
 75 70  2  0
 76 77  1  0
 77 78  1  0
 78 79  2  0
 80 79  1  0
 80 84  1  0
 81 80  2  0
 82 77  2  0
 82 81  1  0
 83 82  1  0
 85 86  1  0
 86 89  1  0
 86 88  1  0
 87 85  2  0
 90 91  1  0
 90 65  1  0
 92 90  1  0
M  ISO  4   9 101  10 101  56 100  57 100
M  END
>  <TORSDO>  (53) 
F 22

>  <SCORE>  (53) 
-14.056

>  <name>  (53) 
52

>  <ligand_id>  (53) 
52

>  <original_smiles>  (53) 
[H]c1c([H])c([H])c2c(c1[H])C([H])([H])C([H])([H])C([H])([H])C2([H])N([H])C(=O)C1([H])N(C(=O)C([H])(N([H])C(=O)C([H])(N([H])C([H])([H])[H])C([H])([H])[H])C(C([H])([H])[H])(C([H])([H])[H])C([H])([H])[H])C([H])([H])c2c([H])c(OC([H])([H])C(=O)c3c([H])c(C([H])([H])C([H])([H])C(=O)N4C([H])([H])C([H])([H])C([H])([H])C([H])(n5nc(-c6c([H])c([H])c(Oc7c([H])c([H])c(F)c([H])c7F)c([H])c6[H])c(C(=O)N([H])[H])c5N([H])[H])C4([H])[H])c([H])c(C([H])([H])C([H])([H])[H])c3OC([H])([H])[H])c([H])c([H])c2C1([H])[H]

>  <smiles>  (53) 
[H]c1c([H])c([H])c2c(c1[H])C([H])([H])C([H])([H])C([H])([H])C2([H])N([H])C(=O)C1([H])N(C(=O)C([H])(N([H])C(=O)C([H])(N([H])C([H])([H])[H])C([H])([H])[H])C(C([H])([H])[H])(C([H])([H])[H])C([H])([H])[H])C([H])([H])c2c([H])c(OC([H])([H])C(=O)c3c([H])c(C([H])([H])C([H])([H])C(=O)N4C([H])([H])C([H])([H])C([H])([H])C([H])(n5nc(-c6c([H])c([H])c(Oc7c([H])c([H])c(F)c([H])c7F)c([H])c6[H])c(C(=O)N([H])[H])c5N([H])[H])C4([H])[H])c([H])c(C([H])([H])C([H])([H])[H])c3OC([H])([H])[H])c([H])c([H])c2C1([H])[H]

$$$$
53:0:0
     RDKit          3D

 97106  0  0  1  0  0  0  0  0999 V2000
  -29.2550  -23.9510   20.3040 C   0  0  0  0  0  3  0  0  0  0  0  0
  -26.6080  -23.6410   19.4740 C   0  0  0  0  0  3  0  0  0  0  0  0
  -28.4040  -25.0770   20.2820 C   0  0  0  0  0  0  0  0  0  0  0  0
  -28.8030  -22.6580   19.9380 C   0  0  0  0  0  0  0  0  0  0  0  0
  -27.0590  -24.9170   19.8650 C   0  0  0  0  0  0  0  0  0  0  0  0
  -27.4500  -22.5070   19.5160 C   0  0  0  0  0  0  0  0  0  0  0  0
  -26.0780  -26.0810   19.8250 C   0  0  0  0  0  1  0  0  0  0  0  0
  -28.9160  -26.3730   20.8060 C   0  0  0  0  0  0  0  0  0  0  0  0
  -28.6830  -26.7640   21.9550 O   0  0  0  0  0  0  0  0  0  0  0  0
  -29.7550  -27.2340   19.8430 C   0  0  0  0  0  2  0  0  0  0  0  0
  -29.4580  -28.6320   20.0060 O   0  0  0  0  0  0  0  0  0  0  0  0
  -24.4440  -31.8340   23.8760 C   0  0  0  0  0  0  0  0  0  0  0  0
  -28.1270  -28.9700   20.0920 C   0  0  0  0  0  0  0  0  0  0  0  0
  -23.6290  -30.4600   21.9870 C   0  0  0  0  0  3  0  0  0  0  0  0
  -25.4060  -29.6840   20.3330 C   0  0  0  0  0  0  0  0  0  0  0  0
  -25.9350  -31.5610   21.9000 C   0  0  0  0  0  2  0  0  0  0  0  0
  -26.3830  -30.4100   21.0240 C   0  0  0  0  0  0  0  0  0  0  0  0
  -27.7460  -30.0630   20.8990 C   0  0  0  0  0  3  0  0  0  0  0  0
  -27.1310  -28.2530   19.3920 C   0  0  0  0  0  3  0  0  0  0  0  0
  -25.7730  -28.6030   19.5140 C   0  0  0  0  0  3  0  0  0  0  0  0
  -23.9720  -30.1260   20.5110 C   0  0  0  0  0  2  0  0  0  0  0  0
  -24.6850  -31.2930   22.6480 N   0  0  0  0  0  0  0  0  0  0  0  0
  -23.3500  -31.6860   24.4370 O   0  0  0  0  0  0  0  0  0  0  0  0
  -23.3320  -29.1410   22.7350 C   0  0  0  0  0  0  0  0  0  0  0  0
  -22.1830  -28.5210   22.4170 N   0  0  0  0  0  0  0  0  0  0  0  0
  -24.1320  -28.6860   23.5550 O   0  0  0  0  0  0  0  0  0  0  0  0
  -21.5780  -28.9640   21.7400 H   0  0  0  0  0  0  0  0  0  0  0  0
  -19.5290  -26.0780   22.2300 C   0  0  0  0  0  0  0  0  0  0  0  0
  -21.7140  -27.2490   22.9650 C   0  0  0  0  0  3  0  0  0  0  0  0
  -22.4520  -26.0560   22.3150 C   0  0  0  0  0  2  0  0  0  0  0  0
  -21.7150  -25.4780   21.1030 C   0  0  0  0  0  2  0  0  0  0  0  0
  -20.3160  -25.0000   21.5030 C   0  0  0  0  0  2  0  0  0  0  0  0
  -20.1850  -27.1430   22.9030 C   0  0  0  0  0  0  0  0  0  0  0  0
  -19.4070  -28.1380   23.5320 C   0  0  0  0  0  3  0  0  0  0  0  0
  -18.0000  -28.0800   23.4990 C   0  0  0  0  0  3  0  0  0  0  0  0
  -17.3570  -27.0150   22.8470 C   0  0  0  0  0  3  0  0  0  0  0  0
  -18.1200  -26.0150   22.2180 C   0  0  0  0  0  3  0  0  0  0  0  0
  -25.5190  -32.6850   24.6200 C   0  0  0  0  0  3  0  0  0  0  0  0
  -25.0370  -34.0720   24.6580 N   0  0  0  0  0  0  0  0  0  0  0  0
  -25.4510  -35.0420   23.8320 C   0  0  0  0  0  0  0  0  0  0  0  0
  -26.3440  -34.8760   22.9980 O   0  0  0  0  0  0  0  0  0  0  0  0
  -24.2670  -34.2660   25.2800 H   0  0  0  0  0  0  0  0  0  0  0  0
  -23.7030  -36.5620   22.8530 C   0  0  0  0  0  1  0  0  0  0  0  0
  -24.7660  -36.4170   23.9540 C   0  0  0  0  0  3  0  0  0  0  0  0
  -26.6160  -37.6200   25.0300 C   0  0  0  0  0  1  0  0  0  0  0  0
  -25.7110  -37.5530   23.8860 N   0  0  0  0  0  0  0  0  0  0  0  0
  -25.2090  -38.4350   23.8270 H   0  0  0  0  0  0  0  0  0  0  0  0
  -25.8280  -32.1600   26.0770 C   0  0  1  0  0  0  0  0  0  0  0  0
  -24.5610  -31.8850   26.9190 C   0  0  0  0  0  1  0  0  0  0  0  0
  -26.6530  -30.8540   26.0210 C   0  0  0  0  0  1  0  0  0  0  0  0
  -26.6900  -33.1960   26.8360 C   0  0  0  0  0  1  0  0  0  0  0  0
  -26.0460  -20.5160   20.2750 C   0  0  0  0  0  1  0  0  0  0  0  0
  -26.8190  -21.1760   19.1240 C   0  0  0  0  0  2  0  0  0  0  0  0
  -29.8050  -21.5100   20.1400 C   0  0  0  0  0  2  0  0  0  0  0  0
  -29.9240  -20.4060   19.0630 C   0  0  0  0  0  2  0  0  0  0  0  0
  -33.2230  -15.7310   19.5620 C   0  0  0  0  0  0  0  0  0  0  0  0
  -33.0540  -13.2720   19.5090 C   0  0  0  0  0  2  0  0  0  0  0  0
  -32.2110  -12.8280   18.2980 C   0  0  0  0  0  2  0  0  0  0  0  0
  -30.7130  -12.8020   18.6600 C   0  0  0  0  0  2  0  0  0  0  0  0
  -30.2450  -14.1070   19.3550 C   0  0  0  0  0  3  0  0  0  0  0  0
  -31.2080  -14.5010   20.4910 C   0  0  0  0  0  2  0  0  0  0  0  0
  -32.5680  -14.5960   19.9330 N   0  0  0  0  0  0  0  0  0  0  0  0
  -34.3520  -15.7040   19.0580 O   0  0  0  0  0  0  0  0  0  0  0  0
  -31.4690  -18.6360   18.0600 C   0  0  0  0  0  2  0  0  0  0  0  0
  -30.9600  -18.5270   20.5140 C   0  0  0  0  0  2  0  0  0  0  0  0
  -32.6850  -17.7310   18.3130 C   0  0  0  0  0  2  0  0  0  0  0  0
  -32.2240  -17.6600   20.7010 C   0  0  0  0  0  2  0  0  0  0  0  0
  -31.1310  -19.4710   19.3070 C   0  0  0  0  0  3  0  0  0  0  0  0
  -32.4840  -16.8640   19.4890 N   0  0  0  0  0  0  0  0  0  0  0  0
  -27.9490  -14.9960   20.1070 C   0  0  0  0  0  0  0  0  0  0  0  0
  -26.7910  -14.3560   20.4610 C   0  0  0  0  0  0  0  0  0  0  0  0
  -27.0750  -12.9570   20.3840 C   0  0  0  0  0  0  0  0  0  0  0  0
  -28.8700  -13.9950   19.8360 N   0  0  0  0  0  0  0  0  0  0  0  0
  -28.3470  -12.7620   20.0600 N   0  0  0  0  0  0  0  0  0  0  0  0
  -26.1940  -11.7930   20.5420 C   0  0  0  0  0  0  0  0  0  0  0  0
  -26.3990  -10.8460   21.5700 C   0  0  0  0  0  3  0  0  0  0  0  0
  -25.5280   -9.7440   21.7120 C   0  0  0  0  0  3  0  0  0  0  0  0
  -24.4370   -9.5830   20.8240 C   0  0  0  0  0  0  0  0  0  0  0  0
  -24.2510  -10.5160   19.7900 C   0  0  0  0  0  3  0  0  0  0  0  0
  -25.1230  -11.6090   19.6460 C   0  0  0  0  0  3  0  0  0  0  0  0
  -23.5550   -8.5310   20.8700 O   0  0  0  0  0  0  0  0  0  0  0  0
  -23.0830   -8.0380   22.0600 C   0  0  0  0  0  0  0  0  0  0  0  0
  -22.3950   -8.8540   22.9840 C   0  0  0  0  0  3  0  0  0  0  0  0
  -21.8660   -8.2910   24.1640 C   0  0  0  0  0  3  0  0  0  0  0  0
  -22.0160   -6.9150   24.4160 C   0  0  0  0  0  0  0  0  0  0  0  0
  -22.6970   -6.0990   23.4950 C   0  0  0  0  0  3  0  0  0  0  0  0
  -23.2260   -6.6590   22.3180 C   0  0  0  0  0  0  0  0  0  0  0  0
  -23.8620   -5.8660   21.4240 F   0  0  0  0  0  0  0  0  0  0  0  0
  -21.5020   -6.3720   25.5450 F   0  0  0  0  0  0  0  0  0  0  0  0
  -25.4690  -14.9990   20.7630 C   0  0  0  0  0  0  0  0  0  0  0  0
  -24.6840  -14.4000   21.6510 N   0  0  0  0  0  0  0  0  0  0  0  0
  -25.1430  -16.0660   20.2430 O   0  0  0  0  0  0  0  0  0  0  0  0
  -24.9590  -13.5350   22.0930 H   0  0  0  0  0  0  0  0  0  0  0  0
  -23.7950  -14.8130   21.8950 H   0  0  0  0  0  0  0  0  0  0  0  0
  -28.2900  -16.3380   19.9730 N   0  0  0  0  0  0  0  0  0  0  0  0
  -27.6230  -17.0870   20.1240 H   0  0  0  0  0  0  0  0  0  0  0  0
  -29.2020  -16.6700   19.6850 H   0  0  0  0  0  0  0  0  0  0  0  0
  2  6  2  0
  2  5  1  0
  3  1  1  0
  3  8  1  0
  4 54  1  0
  4  1  2  0
  5  3  2  0
  6  4  1  0
  7  5  1  0
  8  9  2  0
 10 11  1  0
 10  8  1  0
 11 13  1  0
 12 23  2  0
 13 18  1  0
 14 22  1  0
 14 24  1  0
 15 21  1  0
 15 17  1  0
 16 22  1  0
 17 16  1  0
 18 17  2  0
 19 20  1  0
 19 13  2  0
 20 15  2  0
 21 14  1  0
 22 12  1  0
 24 26  2  0
 25 24  1  0
 27 25  1  0
 28 33  1  0
 29 25  1  0
 30 29  1  0
 31 32  1  0
 31 30  1  0
 32 28  1  0
 33 29  1  0
 33 34  2  0
 35 34  1  0
 36 35  2  0
 37 28  2  0
 37 36  1  0
 38 12  1  0
 38 39  1  0
 38 48  1  0
 39 42  1  0
 40 44  1  0
 40 39  1  0
 41 40  2  0
 44 43  1  0
 46 44  1  0
 46 45  1  0
 47 46  1  0
 48 51  1  1
 48 49  1  0
 50 48  1  0
 53  6  1  0
 53 52  1  0
 55 54  1  0
 56 62  1  0
 57 62  1  0
 58 59  1  0
 58 57  1  0
 60 59  1  0
 60 73  1  0
 60 61  1  0
 62 61  1  0
 63 56  2  0
 64 66  1  0
 64 68  1  0
 65 67  1  0
 66 69  1  0
 68 55  1  0
 68 65  1  0
 69 56  1  0
 69 67  1  0
 70 71  2  0
 71 90  1  0
 72 71  1  0
 72 75  1  0
 73 74  1  0
 73 70  1  0
 74 72  2  0
 75 76  1  0
 76 77  2  0
 78 81  1  0
 78 77  1  0
 79 78  2  0
 80 79  1  0
 80 75  2  0
 81 82  1  0
 82 87  2  0
 82 83  1  0
 83 84  2  0
 84 85  1  0
 85 89  1  0
 86 85  2  0
 87 86  1  0
 88 87  1  0
 90 91  1  0
 91 94  1  0
 91 93  1  0
 92 90  2  0
 95 70  1  0
 95 96  1  0
 97 95  1  0
M  ISO  4  10 101  11 101  56 100  69 100
M  END
>  <TORSDO>  (54) 
F 21

>  <SCORE>  (54) 
-1.215

>  <name>  (54) 
53

>  <ligand_id>  (54) 
53

>  <original_smiles>  (54) 
[H]c1c([H])c([H])c2c(c1[H])C([H])([H])C([H])([H])C([H])([H])C2([H])N([H])C(=O)C1([H])N(C(=O)C([H])(N([H])C(=O)C([H])(N([H])C([H])([H])[H])C([H])([H])[H])C(C([H])([H])[H])(C([H])([H])[H])C([H])([H])[H])C([H])([H])c2c([H])c(OC([H])([H])C(=O)c3c([H])c(C([H])([H])C([H])([H])C4([H])C([H])([H])C([H])([H])N(C(=O)N5C([H])([H])C([H])([H])C([H])([H])C([H])(n6nc(-c7c([H])c([H])c(Oc8c([H])c([H])c(F)c([H])c8F)c([H])c7[H])c(C(=O)N([H])[H])c6N([H])[H])C5([H])[H])C([H])([H])C4([H])[H])c(C([H])([H])C([H])([H])[H])c([H])c3C([H])([H])[H])c([H])c([H])c2C1([H])[H]

>  <smiles>  (54) 
[H]c1c([H])c([H])c2c(c1[H])C([H])([H])C([H])([H])C([H])([H])C2([H])N([H])C(=O)C1([H])N(C(=O)C([H])(N([H])C(=O)C([H])(N([H])C([H])([H])[H])C([H])([H])[H])C(C([H])([H])[H])(C([H])([H])[H])C([H])([H])[H])C([H])([H])c2c([H])c(OC([H])([H])C(=O)c3c([H])c(C([H])([H])C([H])([H])C4([H])C([H])([H])C([H])([H])N(C(=O)N5C([H])([H])C([H])([H])C([H])([H])C([H])(n6nc(-c7c([H])c([H])c(Oc8c([H])c([H])c(F)c([H])c8F)c([H])c7[H])c(C(=O)N([H])[H])c6N([H])[H])C5([H])[H])C([H])([H])C4([H])[H])c(C([H])([H])C([H])([H])[H])c([H])c3C([H])([H])[H])c([H])c([H])c2C1([H])[H]

$$$$
54:0:0
     RDKit          3D

 94102  0  0  1  0  0  0  0  0999 V2000
  -29.8910  -23.9170   18.8990 C   0  0  0  0  0  3  0  0  0  0  0  0
  -29.2490  -21.8200   19.9630 C   0  0  0  0  0  3  0  0  0  0  0  0
  -29.0850  -23.2340   19.8200 C   0  0  0  0  0  0  0  0  0  0  0  0
  -30.8430  -23.2500   18.1050 C   0  0  0  0  0  0  0  0  0  0  0  0
  -30.2080  -21.1040   19.1860 C   0  0  0  0  0  0  0  0  0  0  0  0
  -31.0040  -21.8390   18.2440 C   0  0  0  0  0  0  0  0  0  0  0  0
  -33.4710  -21.2410   17.9590 C   0  0  0  0  0  1  0  0  0  0  0  0
  -32.0540  -21.1150   17.3830 C   0  0  0  0  0  2  0  0  0  0  0  0
  -28.0290  -24.0430   20.6030 C   0  0  0  0  0  2  0  0  0  0  0  0
  -28.3970  -25.4970   21.0830 C   0  0  0  0  0  2  0  0  0  0  0  0
  -28.3800  -26.6050   20.1420 O   0  0  0  0  0  0  0  0  0  0  0  0
  -24.6220  -31.8720   23.2310 C   0  0  0  0  0  0  0  0  0  0  0  0
  -27.2410  -27.3900   20.1560 C   0  0  0  0  0  0  0  0  0  0  0  0
  -23.4100  -30.4710   21.5930 C   0  0  0  0  0  3  0  0  0  0  0  0
  -24.8580  -28.9260   20.1640 C   0  0  0  0  0  0  0  0  0  0  0  0
  -25.9390  -30.8180   21.3900 C   0  0  0  0  0  2  0  0  0  0  0  0
  -26.0210  -29.4440   20.7500 C   0  0  0  0  0  0  0  0  0  0  0  0
  -27.2200  -28.6840   20.7380 C   0  0  0  0  0  3  0  0  0  0  0  0
  -26.0630  -26.8980   19.5610 C   0  0  0  0  0  3  0  0  0  0  0  0
  -24.8760  -27.6540   19.5650 C   0  0  0  0  0  3  0  0  0  0  0  0
  -23.6150  -29.7900   20.2130 C   0  0  0  0  0  2  0  0  0  0  0  0
  -24.6760  -31.0700   22.1290 N   0  0  0  0  0  0  0  0  0  0  0  0
  -23.5430  -32.1440   23.7750 O   0  0  0  0  0  0  0  0  0  0  0  0
  -22.7590  -29.4510   22.5570 C   0  0  0  0  0  0  0  0  0  0  0  0
  -21.4330  -29.2710   22.4360 N   0  0  0  0  0  0  0  0  0  0  0  0
  -23.4440  -28.8250   23.3700 O   0  0  0  0  0  0  0  0  0  0  0  0
  -20.9410  -29.8280   21.7520 H   0  0  0  0  0  0  0  0  0  0  0  0
  -18.0610  -28.0750   22.9410 C   0  0  0  0  0  0  0  0  0  0  0  0
  -20.6190  -28.3340   23.2090 C   0  0  0  0  0  3  0  0  0  0  0  0
  -20.7200  -26.9020   22.6340 C   0  0  0  0  0  2  0  0  0  0  0  0
  -19.6170  -26.5780   21.6210 C   0  0  0  0  0  2  0  0  0  0  0  0
  -18.2360  -26.7240   22.2670 C   0  0  0  0  0  2  0  0  0  0  0  0
  -19.1800  -28.8370   23.3690 C   0  0  0  0  0  0  0  0  0  0  0  0
  -18.9610  -30.1020   23.9590 C   0  0  0  0  0  3  0  0  0  0  0  0
  -17.6560  -30.6030   24.1250 C   0  0  0  0  0  3  0  0  0  0  0  0
  -16.5530  -29.8370   23.7140 C   0  0  0  0  0  3  0  0  0  0  0  0
  -16.7540  -28.5750   23.1280 C   0  0  0  0  0  3  0  0  0  0  0  0
  -25.9100  -32.5020   23.8460 C   0  0  0  0  0  3  0  0  0  0  0  0
  -26.4350  -31.7270   25.1170 C   0  0  1  0  0  0  0  0  0  0  0  0
  -25.3510  -31.4870   26.1920 C   0  0  0  0  0  1  0  0  0  0  0  0
  -27.0150  -30.3500   24.7160 C   0  0  0  0  0  1  0  0  0  0  0  0
  -27.5910  -32.5190   25.7730 C   0  0  0  0  0  1  0  0  0  0  0  0
  -25.6020  -33.8990   24.1830 N   0  0  0  0  0  0  0  0  0  0  0  0
  -25.9320  -34.9530   23.4240 C   0  0  0  0  0  0  0  0  0  0  0  0
  -26.5990  -34.8520   22.3900 O   0  0  0  0  0  0  0  0  0  0  0  0
  -25.0110  -34.0510   24.9860 H   0  0  0  0  0  0  0  0  0  0  0  0
  -24.2030  -36.7470   23.0800 C   0  0  0  0  0  1  0  0  0  0  0  0
  -25.4460  -36.3400   23.8870 C   0  0  0  0  0  3  0  0  0  0  0  0
  -27.5840  -37.2210   24.7110 C   0  0  0  0  0  1  0  0  0  0  0  0
  -26.4790  -37.3930   23.7740 N   0  0  0  0  0  0  0  0  0  0  0  0
  -26.0730  -38.3120   23.9260 H   0  0  0  0  0  0  0  0  0  0  0  0
  -31.7000  -24.0910   17.1440 C   0  0  0  0  0  2  0  0  0  0  0  0
  -31.8310  -25.9960   15.4390 C   0  0  0  0  0  1  0  0  0  0  0  0
  -31.0190  -25.3500   16.5680 C   0  0  0  0  0  2  0  0  0  0  0  0
  -30.4320  -19.5610   19.2680 C   0  0  0  0  0  2  0  0  0  0  0  0
  -29.8150  -18.5850   20.3230 C   0  0  0  0  0  2  0  0  0  0  0  0
  -30.4270  -17.1460   20.0910 C   0  0  0  0  0  2  0  0  0  0  0  0
  -29.9430  -15.8830   20.8980 C   0  0  0  0  0  2  0  0  0  0  0  0
  -30.6590  -14.5590   20.4500 C   0  0  0  0  0  0  0  0  0  0  0  0
  -30.3760  -12.3590   19.3530 C   0  0  0  0  0  2  0  0  0  0  0  0
  -29.4480  -12.5450   18.1350 C   0  0  0  0  0  2  0  0  0  0  0  0
  -27.9700  -12.4080   18.5520 C   0  0  0  0  0  2  0  0  0  0  0  0
  -27.6210  -13.2610   19.8010 C   0  0  0  0  0  3  0  0  0  0  0  0
  -28.6710  -13.0820   20.9210 C   0  0  0  0  0  2  0  0  0  0  0  0
  -29.9940  -13.3700   20.3570 N   0  0  0  0  0  0  0  0  0  0  0  0
  -31.8170  -14.6620   20.0390 O   0  0  0  0  0  0  0  0  0  0  0  0
  -25.2240  -13.8750   20.4990 C   0  0  0  0  0  0  0  0  0  0  0  0
  -24.1520  -13.1070   20.8670 C   0  0  0  0  0  0  0  0  0  0  0  0
  -24.6100  -11.7540   20.8510 C   0  0  0  0  0  0  0  0  0  0  0  0
  -26.2680  -12.9890   20.2800 N   0  0  0  0  0  0  0  0  0  0  0  0
  -25.9030  -11.7090   20.5510 N   0  0  0  0  0  0  0  0  0  0  0  0
  -23.8800  -10.4950   21.0470 C   0  0  0  0  0  0  0  0  0  0  0  0
  -24.3130   -9.5260   21.9790 C   0  0  0  0  0  3  0  0  0  0  0  0
  -23.5840   -8.3320   22.1620 C   0  0  0  0  0  3  0  0  0  0  0  0
  -22.4050   -8.0980   21.4120 C   0  0  0  0  0  0  0  0  0  0  0  0
  -21.9920   -9.0550   20.4690 C   0  0  0  0  0  3  0  0  0  0  0  0
  -22.7220  -10.2400   20.2840 C   0  0  0  0  0  3  0  0  0  0  0  0
  -21.6470   -6.9570   21.5050 O   0  0  0  0  0  0  0  0  0  0  0  0
  -21.6130   -6.2060   22.6530 C   0  0  0  0  0  0  0  0  0  0  0  0
  -21.2200   -6.7580   23.8920 C   0  0  0  0  0  3  0  0  0  0  0  0
  -21.1310   -5.9340   25.0320 C   0  0  0  0  0  3  0  0  0  0  0  0
  -21.4250   -4.5620   24.9340 C   0  0  0  0  0  0  0  0  0  0  0  0
  -21.8110   -4.0090   23.7000 C   0  0  0  0  0  3  0  0  0  0  0  0
  -21.9010   -4.8290   22.5620 C   0  0  0  0  0  0  0  0  0  0  0  0
  -22.2530   -4.2890   21.3710 F   0  0  0  0  0  0  0  0  0  0  0  0
  -21.3320   -3.7680   26.0270 F   0  0  0  0  0  0  0  0  0  0  0  0
  -22.7540  -13.5890   21.1260 C   0  0  0  0  0  0  0  0  0  0  0  0
  -22.0190  -12.9020   21.9920 N   0  0  0  0  0  0  0  0  0  0  0  0
  -22.3210  -14.6100   20.5930 O   0  0  0  0  0  0  0  0  0  0  0  0
  -22.3820  -12.0750   22.4450 H   0  0  0  0  0  0  0  0  0  0  0  0
  -21.0790  -13.2060   22.2080 H   0  0  0  0  0  0  0  0  0  0  0  0
  -25.3930  -15.2430   20.3130 N   0  0  0  0  0  0  0  0  0  0  0  0
  -24.6280  -15.9020   20.4150 H   0  0  0  0  0  0  0  0  0  0  0  0
  -26.2520  -15.6790   20.0000 H   0  0  0  0  0  0  0  0  0  0  0  0
  1  3  1  0
  3  2  2  0
  3  9  1  0
  4  6  1  0
  4  1  2  0
  5 55  1  0
  5  2  1  0
  6  5  2  0
  8  7  1  0
  8  6  1  0
  9 10  1  0
 11 13  1  0
 11 10  1  0
 12 23  2  0
 13 18  1  0
 14 22  1  0
 14 24  1  0
 15 21  1  0
 15 17  1  0
 16 22  1  0
 17 16  1  0
 18 17  2  0
 19 20  1  0
 19 13  2  0
 20 15  2  0
 21 14  1  0
 22 12  1  0
 24 26  2  0
 25 24  1  0
 27 25  1  0
 28 37  2  0
 28 33  1  0
 29 25  1  0
 29 33  1  0
 30 29  1  0
 31 32  1  0
 31 30  1  0
 32 28  1  0
 33 34  2  0
 34 35  1  0
 36 35  2  0
 37 36  1  0
 38 12  1  0
 38 43  1  0
 38 39  1  0
 39 42  1  1
 39 40  1  0
 41 39  1  0
 43 46  1  0
 44 48  1  0
 44 43  1  0
 45 44  2  0
 48 47  1  0
 50 48  1  0
 50 51  1  0
 50 49  1  0
 52  4  1  0
 53 54  1  0
 54 52  1  0
 55 56  1  0
 57 56  1  0
 57 58  1  0
 59 58  1  0
 60 65  1  0
 61 62  1  0
 61 60  1  0
 63 62  1  0
 63 70  1  0
 63 64  1  0
 65 59  1  0
 65 64  1  0
 66 59  2  0
 67 68  2  0
 68 87  1  0
 69 68  1  0
 69 72  1  0
 70 67  1  0
 70 71  1  0
 71 69  2  0
 72 73  1  0
 73 74  2  0
 75 78  1  0
 75 74  1  0
 76 75  2  0
 77 76  1  0
 77 72  2  0
 78 79  1  0
 79 80  1  0
 80 81  2  0
 82 81  1  0
 82 86  1  0
 83 82  2  0
 84 79  2  0
 84 83  1  0
 85 84  1  0
 87 88  1  0
 88 91  1  0
 88 90  1  0
 89 87  2  0
 92 93  1  0
 92 67  1  0
 94 92  1  0
M  ISO  4  10 101  11 101  58 100  59 100
M  END
>  <TORSDO>  (55) 
F 25

>  <SCORE>  (55) 
-12.104

>  <name>  (55) 
54

>  <ligand_id>  (55) 
54

>  <original_smiles>  (55) 
[H]c1c([H])c([H])c2c(c1[H])C([H])([H])C([H])([H])C([H])([H])C2([H])N([H])C(=O)C1([H])N(C(=O)C([H])(N([H])C(=O)C([H])(N([H])C([H])([H])[H])C([H])([H])[H])C(C([H])([H])[H])(C([H])([H])[H])C([H])([H])[H])C([H])([H])c2c([H])c(OC([H])([H])C([H])([H])c3c([H])c(C([H])([H])C([H])([H])C([H])([H])[H])c(C([H])([H])C([H])([H])[H])c(C([H])([H])C([H])([H])C([H])([H])C([H])([H])C(=O)N4C([H])([H])C([H])([H])C([H])([H])C([H])(n5nc(-c6c([H])c([H])c(Oc7c([H])c([H])c(F)c([H])c7F)c([H])c6[H])c(C(=O)N([H])[H])c5N([H])[H])C4([H])[H])c3[H])c([H])c([H])c2C1([H])[H]

>  <smiles>  (55) 
[H]c1c([H])c([H])c2c(c1[H])C([H])([H])C([H])([H])C([H])([H])C2([H])N([H])C(=O)C1([H])N(C(=O)C([H])(N([H])C(=O)C([H])(N([H])C([H])([H])[H])C([H])([H])[H])C(C([H])([H])[H])(C([H])([H])[H])C([H])([H])[H])C([H])([H])c2c([H])c(OC([H])([H])C([H])([H])c3c([H])c(C([H])([H])C([H])([H])C([H])([H])[H])c(C([H])([H])C([H])([H])[H])c(C([H])([H])C([H])([H])C([H])([H])C([H])([H])C(=O)N4C([H])([H])C([H])([H])C([H])([H])C([H])(n5nc(-c6c([H])c([H])c(Oc7c([H])c([H])c(F)c([H])c7F)c([H])c6[H])c(C(=O)N([H])[H])c5N([H])[H])C4([H])[H])c3[H])c([H])c([H])c2C1([H])[H]

$$$$
55:0:0
     RDKit          3D

 91 99  0  0  1  0  0  0  0  0999 V2000
  -28.5390  -24.1790   21.3430 C   0  0  0  0  0  3  0  0  0  0  0  0
  -28.8780  -22.7710   21.3920 C   0  0  0  0  0  0  0  0  0  0  0  0
  -28.7720  -22.6740   19.0160 C   0  0  0  0  0  0  0  0  0  0  0  0
  -29.0470  -21.9460   20.2280 C   0  0  0  0  0  0  0  0  0  0  0  0
  -28.4820  -24.1130   18.9740 C   0  0  0  0  0  0  0  0  0  0  0  0
  -28.3520  -24.9370   20.1470 C   0  0  0  0  0  0  0  0  0  0  0  0
  -29.1380  -22.1630   22.7560 C   0  0  0  0  0  1  0  0  0  0  0  0
  -28.8530  -21.8700   17.7260 C   0  0  0  0  0  1  0  0  0  0  0  0
  -28.4050  -24.8200   17.6220 C   0  0  0  0  0  1  0  0  0  0  0  0
  -28.3110  -26.3930   20.1390 O   0  0  0  0  0  0  0  0  0  0  0  0
  -24.6180  -31.9290   23.2340 C   0  0  0  0  0  0  0  0  0  0  0  0
  -27.1780  -27.2610   20.1660 C   0  0  0  0  0  0  0  0  0  0  0  0
  -23.3990  -30.5390   21.6010 C   0  0  0  0  0  3  0  0  0  0  0  0
  -24.8280  -28.9530   20.1720 C   0  0  0  0  0  0  0  0  0  0  0  0
  -25.9440  -30.8100   21.4080 C   0  0  0  0  0  2  0  0  0  0  0  0
  -26.0080  -29.4180   20.7660 C   0  0  0  0  0  0  0  0  0  0  0  0
  -27.1790  -28.5830   20.7530 C   0  0  0  0  0  3  0  0  0  0  0  0
  -25.9730  -26.8740   19.5430 C   0  0  0  0  0  3  0  0  0  0  0  0
  -24.8180  -27.6890   19.5550 C   0  0  0  0  0  3  0  0  0  0  0  0
  -23.6070  -29.8560   20.2220 C   0  0  0  0  0  2  0  0  0  0  0  0
  -24.6740  -31.1140   22.1370 N   0  0  0  0  0  0  0  0  0  0  0  0
  -23.5390  -32.2140   23.7770 O   0  0  0  0  0  0  0  0  0  0  0  0
  -22.7300  -29.5320   22.5670 C   0  0  0  0  0  0  0  0  0  0  0  0
  -21.4030  -29.3550   22.4440 N   0  0  0  0  0  0  0  0  0  0  0  0
  -23.4080  -28.9110   23.3920 O   0  0  0  0  0  0  0  0  0  0  0  0
  -20.9120  -29.9040   21.7520 H   0  0  0  0  0  0  0  0  0  0  0  0
  -18.0300  -28.1510   22.9500 C   0  0  0  0  0  0  0  0  0  0  0  0
  -20.5880  -28.4200   23.2220 C   0  0  0  0  0  3  0  0  0  0  0  0
  -20.6940  -26.9860   22.6540 C   0  0  0  0  0  2  0  0  0  0  0  0
  -19.5950  -26.6540   21.6410 C   0  0  0  0  0  2  0  0  0  0  0  0
  -18.2110  -26.8000   22.2790 C   0  0  0  0  0  2  0  0  0  0  0  0
  -19.1460  -28.9180   23.3780 C   0  0  0  0  0  0  0  0  0  0  0  0
  -18.9180  -30.1830   23.9620 C   0  0  0  0  0  3  0  0  0  0  0  0
  -17.6110  -30.6820   24.1210 C   0  0  0  0  0  3  0  0  0  0  0  0
  -16.5110  -29.9100   23.7100 C   0  0  0  0  0  3  0  0  0  0  0  0
  -16.7220  -28.6470   23.1300 C   0  0  0  0  0  3  0  0  0  0  0  0
  -25.9060  -32.5590   23.8500 C   0  0  0  0  0  3  0  0  0  0  0  0
  -26.4280  -31.7840   25.1220 C   0  0  1  0  0  0  0  0  0  0  0  0
  -25.3450  -31.5450   26.1980 C   0  0  0  0  0  1  0  0  0  0  0  0
  -26.9980  -30.4050   24.7200 C   0  0  0  0  0  1  0  0  0  0  0  0
  -27.5860  -32.5730   25.7780 C   0  0  0  0  0  1  0  0  0  0  0  0
  -25.6080  -33.9580   24.1930 N   0  0  0  0  0  0  0  0  0  0  0  0
  -25.9090  -35.0110   23.4220 C   0  0  0  0  0  0  0  0  0  0  0  0
  -26.5360  -34.9100   22.3650 O   0  0  0  0  0  0  0  0  0  0  0  0
  -25.0680  -34.1150   25.0310 H   0  0  0  0  0  0  0  0  0  0  0  0
  -24.1550  -36.7880   23.1430 C   0  0  0  0  0  1  0  0  0  0  0  0
  -25.4360  -36.3970   23.9000 C   0  0  0  0  0  3  0  0  0  0  0  0
  -27.6000  -37.2990   24.6300 C   0  0  0  0  0  1  0  0  0  0  0  0
  -26.4540  -37.4580   23.7380 N   0  0  0  0  0  0  0  0  0  0  0  0
  -26.0490  -38.3740   23.9030 H   0  0  0  0  0  0  0  0  0  0  0  0
  -29.7920  -20.4740   20.2680 C   0  0  0  0  0  2  0  0  0  0  0  0
  -29.1750  -18.9320   20.2730 C   0  0  0  0  0  3  0  0  0  0  0  0
  -30.2030  -17.6120   20.3470 C   0  0  0  0  0  3  0  0  0  0  0  0
  -30.5410  -14.9360   20.3150 C   0  0  0  0  0  0  0  0  0  0  0  0
  -30.4000  -12.6100   19.3610 C   0  0  0  0  0  2  0  0  0  0  0  0
  -29.4580  -12.5720   18.1370 C   0  0  0  0  0  2  0  0  0  0  0  0
  -27.9970  -12.3700   18.5790 C   0  0  0  0  0  2  0  0  0  0  0  0
  -27.5960  -13.2990   19.7550 C   0  0  0  0  0  3  0  0  0  0  0  0
  -28.6540  -13.3080   20.8780 C   0  0  0  0  0  2  0  0  0  0  0  0
  -29.9290  -13.6950   20.2600 N   0  0  0  0  0  0  0  0  0  0  0  0
  -31.7490  -15.0020   20.0660 O   0  0  0  0  0  0  0  0  0  0  0  0
  -29.7710  -16.1130   20.4240 N   0  0  0  0  0  0  0  0  0  0  0  0
  -28.7810  -15.9530   20.5370 H   0  0  0  0  0  0  0  0  0  0  0  0
  -25.2130  -13.8770   20.4960 C   0  0  0  0  0  0  0  0  0  0  0  0
  -24.1510  -13.0990   20.8640 C   0  0  0  0  0  0  0  0  0  0  0  0
  -24.6190  -11.7510   20.8360 C   0  0  0  0  0  0  0  0  0  0  0  0
  -26.2590  -13.0020   20.2560 N   0  0  0  0  0  0  0  0  0  0  0  0
  -25.9110  -11.7170   20.5280 N   0  0  0  0  0  0  0  0  0  0  0  0
  -23.8970  -10.4860   21.0240 C   0  0  0  0  0  0  0  0  0  0  0  0
  -24.3290   -9.5250   21.9650 C   0  0  0  0  0  3  0  0  0  0  0  0
  -23.6080   -8.3240   22.1430 C   0  0  0  0  0  3  0  0  0  0  0  0
  -22.4400   -8.0780   21.3800 C   0  0  0  0  0  0  0  0  0  0  0  0
  -22.0290   -9.0280   20.4280 C   0  0  0  0  0  3  0  0  0  0  0  0
  -22.7510  -10.2190   20.2500 C   0  0  0  0  0  3  0  0  0  0  0  0
  -21.6910   -6.9300   21.4680 O   0  0  0  0  0  0  0  0  0  0  0  0
  -21.6280   -6.1950   22.6250 C   0  0  0  0  0  0  0  0  0  0  0  0
  -21.1670   -6.7550   23.8370 C   0  0  0  0  0  3  0  0  0  0  0  0
  -21.0550   -5.9450   24.9860 C   0  0  0  0  0  3  0  0  0  0  0  0
  -21.3930   -4.5810   24.9230 C   0  0  0  0  0  0  0  0  0  0  0  0
  -21.8460   -4.0210   23.7150 C   0  0  0  0  0  3  0  0  0  0  0  0
  -21.9610   -4.8280   22.5690 C   0  0  0  0  0  0  0  0  0  0  0  0
  -22.3780   -4.2800   21.4020 F   0  0  0  0  0  0  0  0  0  0  0  0
  -21.2770   -3.8010   26.0240 F   0  0  0  0  0  0  0  0  0  0  0  0
  -22.7520  -13.5720   21.1320 C   0  0  0  0  0  0  0  0  0  0  0  0
  -22.0280  -12.8760   22.0000 N   0  0  0  0  0  0  0  0  0  0  0  0
  -22.3110  -14.5930   20.6070 O   0  0  0  0  0  0  0  0  0  0  0  0
  -22.4010  -12.0510   22.4470 H   0  0  0  0  0  0  0  0  0  0  0  0
  -21.0860  -13.1690   22.2200 H   0  0  0  0  0  0  0  0  0  0  0  0
  -25.3680  -15.2480   20.3150 N   0  0  0  0  0  0  0  0  0  0  0  0
  -24.5900  -15.8890   20.4200 H   0  0  0  0  0  0  0  0  0  0  0  0
  -26.1970  -15.6940   19.9480 H   0  0  0  0  0  0  0  0  0  0  0  0
  1  2  1  0
  2  7  1  0
  3  4  1  0
  4 51  1  0
  4  2  2  0
  5  3  2  0
  5  6  1  0
  6  1  2  0
  8  3  1  0
  9  5  1  0
 10  6  1  0
 10 12  1  0
 11 22  2  0
 12 17  1  0
 13 21  1  0
 13 23  1  0
 14 20  1  0
 14 16  1  0
 15 21  1  0
 16 15  1  0
 17 16  2  0
 18 19  1  0
 18 12  2  0
 19 14  2  0
 20 13  1  0
 21 11  1  0
 23 25  2  0
 24 23  1  0
 26 24  1  0
 27 36  2  0
 27 32  1  0
 28 24  1  0
 28 32  1  0
 29 28  1  0
 30 31  1  0
 30 29  1  0
 31 27  1  0
 32 33  2  0
 33 34  1  0
 35 34  2  0
 36 35  1  0
 37 11  1  0
 37 42  1  0
 37 38  1  0
 38 41  1  1
 38 39  1  0
 40 38  1  0
 42 45  1  0
 43 47  1  0
 43 42  1  0
 44 43  2  0
 47 46  1  0
 49 47  1  0
 49 50  1  0
 49 48  1  0
 51 52  1  0
 52 53  2  0
 53 62  1  0
 54 62  1  0
 55 60  1  0
 56 57  1  0
 56 55  1  0
 58 57  1  0
 58 67  1  0
 58 59  1  0
 60 54  1  0
 60 59  1  0
 61 54  2  0
 62 63  1  0
 64 65  2  0
 65 84  1  0
 66 65  1  0
 66 69  1  0
 67 64  1  0
 67 68  1  0
 68 66  2  0
 69 70  1  0
 70 71  2  0
 72 75  1  0
 72 71  1  0
 73 72  2  0
 74 73  1  0
 74 69  2  0
 75 76  1  0
 76 77  1  0
 77 78  2  0
 79 78  1  0
 79 83  1  0
 80 79  2  0
 81 76  2  0
 81 80  1  0
 82 81  1  0
 84 85  1  0
 85 88  1  0
 85 87  1  0
 86 84  2  0
 89 90  1  0
 89 64  1  0
 91 89  1  0
M  ISO  4   6 101  10 101  54 100  62 100
M  END
>  <TORSDO>  (56) 
F 19

>  <SCORE>  (56) 
-14.235

>  <name>  (56) 
55

>  <ligand_id>  (56) 
55

>  <original_smiles>  (56) 
[H]c1c([H])c([H])c2c(c1[H])C([H])([H])C([H])([H])C([H])([H])C2([H])N([H])C(=O)C1([H])N(C(=O)C([H])(N([H])C(=O)C([H])(N([H])C([H])([H])[H])C([H])([H])[H])C(C([H])([H])[H])(C([H])([H])[H])C([H])([H])[H])C([H])([H])c2c([H])c(Oc3c([H])c(C([H])([H])[H])c(C([H])([H])C([H])([H])C([H])([H])N([H])C(=O)N4C([H])([H])C([H])([H])C([H])([H])C([H])(n5nc(-c6c([H])c([H])c(Oc7c([H])c([H])c(F)c([H])c7F)c([H])c6[H])c(C(=O)N([H])[H])c5N([H])[H])C4([H])[H])c(C([H])([H])[H])c3C([H])([H])[H])c([H])c([H])c2C1([H])[H]

>  <smiles>  (56) 
[H]c1c([H])c([H])c2c(c1[H])C([H])([H])C([H])([H])C([H])([H])C2([H])N([H])C(=O)C1([H])N(C(=O)C([H])(N([H])C(=O)C([H])(N([H])C([H])([H])[H])C([H])([H])[H])C(C([H])([H])[H])(C([H])([H])[H])C([H])([H])[H])C([H])([H])c2c([H])c(Oc3c([H])c(C([H])([H])[H])c(C([H])([H])C([H])([H])C([H])([H])N([H])C(=O)N4C([H])([H])C([H])([H])C([H])([H])C([H])(n5nc(-c6c([H])c([H])c(Oc7c([H])c([H])c(F)c([H])c7F)c([H])c6[H])c(C(=O)N([H])[H])c5N([H])[H])C4([H])[H])c(C([H])([H])[H])c3C([H])([H])[H])c([H])c([H])c2C1([H])[H]

$$$$
56:0:0
     RDKit          3D

 92100  0  0  1  0  0  0  0  0999 V2000
  -28.0610  -21.6860   21.4460 C   0  0  0  0  0  3  0  0  0  0  0  0
  -27.4370  -22.8370   21.9990 C   0  0  0  0  0  3  0  0  0  0  0  0
  -28.8030  -21.6970   20.2500 C   0  0  0  0  0  0  0  0  0  0  0  0
  -28.8410  -23.1620   19.6990 C   0  0  0  0  0  0  0  0  0  0  0  0
  -27.4670  -24.1540   21.4480 C   0  0  0  0  0  0  0  0  0  0  0  0
  -28.1760  -24.4640   20.2610 C   0  0  0  0  0  0  0  0  0  0  0  0
  -25.5530  -24.9610   22.6300 C   0  0  0  0  0  1  0  0  0  0  0  0
  -26.8470  -25.2020   22.0920 O   0  0  0  0  0  0  0  0  0  0  0  0
  -28.2170  -25.9750   19.8900 O   0  0  0  0  0  0  0  0  0  0  0  0
  -24.6020  -31.9080   23.0770 C   0  0  0  0  0  0  0  0  0  0  0  0
  -27.1820  -27.0700   19.9640 C   0  0  0  0  0  0  0  0  0  0  0  0
  -23.4060  -30.5220   21.4320 C   0  0  0  0  0  3  0  0  0  0  0  0
  -24.8580  -28.9440   19.9790 C   0  0  0  0  0  0  0  0  0  0  0  0
  -25.9700  -30.7530   21.2640 C   0  0  0  0  0  2  0  0  0  0  0  0
  -26.0490  -29.3460   20.5930 C   0  0  0  0  0  0  0  0  0  0  0  0
  -27.2030  -28.4310   20.5630 C   0  0  0  0  0  3  0  0  0  0  0  0
  -25.9550  -26.8300   19.3060 C   0  0  0  0  0  3  0  0  0  0  0  0
  -24.8340  -27.7050   19.3180 C   0  0  0  0  0  3  0  0  0  0  0  0
  -23.6310  -29.8570   20.0460 C   0  0  0  0  0  2  0  0  0  0  0  0
  -24.6820  -31.0890   21.9770 N   0  0  0  0  0  0  0  0  0  0  0  0
  -23.5160  -32.1770   23.6160 O   0  0  0  0  0  0  0  0  0  0  0  0
  -22.7320  -29.5080   22.3920 C   0  0  0  0  0  0  0  0  0  0  0  0
  -21.4030  -29.3280   22.2790 N   0  0  0  0  0  0  0  0  0  0  0  0
  -23.4140  -28.8820   23.2080 O   0  0  0  0  0  0  0  0  0  0  0  0
  -20.9040  -29.8820   21.5960 H   0  0  0  0  0  0  0  0  0  0  0  0
  -18.0350  -28.1080   22.8540 C   0  0  0  0  0  0  0  0  0  0  0  0
  -20.6010  -28.3710   23.0480 C   0  0  0  0  0  3  0  0  0  0  0  0
  -20.6850  -26.9560   22.4310 C   0  0  0  0  0  2  0  0  0  0  0  0
  -19.5550  -26.6620   21.4400 C   0  0  0  0  0  2  0  0  0  0  0  0
  -18.1930  -26.7830   22.1270 C   0  0  0  0  0  2  0  0  0  0  0  0
  -19.1640  -28.8620   23.2700 C   0  0  0  0  0  0  0  0  0  0  0  0
  -18.9570  -30.1020   23.9130 C   0  0  0  0  0  3  0  0  0  0  0  0
  -17.6570  -30.5890   24.1390 C   0  0  0  0  0  3  0  0  0  0  0  0
  -16.5430  -29.8340   23.7350 C   0  0  0  0  0  3  0  0  0  0  0  0
  -16.7330  -28.5940   23.0970 C   0  0  0  0  0  3  0  0  0  0  0  0
  -25.8730  -32.5580   23.7050 C   0  0  0  0  0  3  0  0  0  0  0  0
  -25.5470  -33.9530   24.0490 N   0  0  0  0  0  0  0  0  0  0  0  0
  -25.8930  -35.0260   23.3230 C   0  0  0  0  0  0  0  0  0  0  0  0
  -26.5810  -34.9450   22.3030 O   0  0  0  0  0  0  0  0  0  0  0  0
  -24.9400  -34.0890   24.8430 H   0  0  0  0  0  0  0  0  0  0  0  0
  -24.1880  -36.8430   22.9640 C   0  0  0  0  0  1  0  0  0  0  0  0
  -25.3990  -36.4070   23.8030 C   0  0  0  0  0  3  0  0  0  0  0  0
  -27.5050  -37.2640   24.7350 C   0  0  0  0  0  1  0  0  0  0  0  0
  -26.4400  -37.4580   23.7530 N   0  0  0  0  0  0  0  0  0  0  0  0
  -26.0320  -38.3760   23.9070 H   0  0  0  0  0  0  0  0  0  0  0  0
  -26.3890  -31.7940   24.9860 C   0  0  1  0  0  0  0  0  0  0  0  0
  -25.2950  -31.5540   26.0530 C   0  0  0  0  0  1  0  0  0  0  0  0
  -26.9830  -30.4180   24.6090 C   0  0  0  0  0  1  0  0  0  0  0  0
  -27.5320  -32.5960   25.6510 C   0  0  0  0  0  1  0  0  0  0  0  0
  -29.2870  -20.0870   19.6680 C   0  0  0  0  0  2  0  0  0  0  0  0
  -29.9080  -18.5330   20.4210 C   0  0  0  0  0  2  0  0  0  0  0  0
  -30.5600  -15.5870   20.0670 C   0  0  0  0  0  0  0  0  0  0  0  0
  -30.5830  -13.1160   19.2140 C   0  0  0  0  0  2  0  0  0  0  0  0
  -29.6440  -12.8140   18.0170 C   0  0  0  0  0  2  0  0  0  0  0  0
  -28.2130  -12.5180   18.4950 C   0  0  0  0  0  2  0  0  0  0  0  0
  -27.7550  -13.5050   19.5980 C   0  0  0  0  0  3  0  0  0  0  0  0
  -28.8200  -13.7280   20.6910 C   0  0  0  0  0  2  0  0  0  0  0  0
  -30.0100  -14.2690   20.0070 N   0  0  0  0  0  0  0  0  0  0  0  0
  -31.7920  -15.5800   19.9150 O   0  0  0  0  0  0  0  0  0  0  0  0
  -29.7760  -16.8660   20.0980 N   0  0  0  0  0  0  0  0  0  0  0  0
  -28.7980  -16.6200   20.0420 H   0  0  0  0  0  0  0  0  0  0  0  0
  -25.4010  -14.0470   20.4090 C   0  0  0  0  0  0  0  0  0  0  0  0
  -24.3500  -13.2630   20.7950 C   0  0  0  0  0  0  0  0  0  0  0  0
  -24.8250  -11.9160   20.7510 C   0  0  0  0  0  0  0  0  0  0  0  0
  -26.4430  -13.1790   20.1400 N   0  0  0  0  0  0  0  0  0  0  0  0
  -26.1110  -11.8910   20.4140 N   0  0  0  0  0  0  0  0  0  0  0  0
  -24.1080  -10.6490   20.9490 C   0  0  0  0  0  0  0  0  0  0  0  0
  -24.5410   -9.6920   21.8930 C   0  0  0  0  0  3  0  0  0  0  0  0
  -23.8210   -8.4930   22.0790 C   0  0  0  0  0  3  0  0  0  0  0  0
  -22.6530   -8.2410   21.3200 C   0  0  0  0  0  0  0  0  0  0  0  0
  -22.2390   -9.1860   20.3650 C   0  0  0  0  0  3  0  0  0  0  0  0
  -22.9600  -10.3770   20.1770 C   0  0  0  0  0  3  0  0  0  0  0  0
  -21.9040   -7.0920   21.4160 O   0  0  0  0  0  0  0  0  0  0  0  0
  -21.8300   -6.3770   22.5830 C   0  0  0  0  0  0  0  0  0  0  0  0
  -21.3270   -6.9450   23.7750 C   0  0  0  0  0  3  0  0  0  0  0  0
  -21.2010   -6.1530   24.9340 C   0  0  0  0  0  3  0  0  0  0  0  0
  -21.5700   -4.7950   24.9040 C   0  0  0  0  0  0  0  0  0  0  0  0
  -22.0660   -4.2270   23.7170 C   0  0  0  0  0  3  0  0  0  0  0  0
  -22.1930   -5.0160   22.5600 C   0  0  0  0  0  0  0  0  0  0  0  0
  -22.6500   -4.4570   21.4140 F   0  0  0  0  0  0  0  0  0  0  0  0
  -21.4440   -4.0320   26.0150 F   0  0  0  0  0  0  0  0  0  0  0  0
  -22.9570  -13.7330   21.0890 C   0  0  0  0  0  0  0  0  0  0  0  0
  -22.2490  -13.0360   21.9720 N   0  0  0  0  0  0  0  0  0  0  0  0
  -22.5050  -14.7540   20.5720 O   0  0  0  0  0  0  0  0  0  0  0  0
  -22.6290  -12.2110   22.4110 H   0  0  0  0  0  0  0  0  0  0  0  0
  -21.3130  -13.3330   22.2130 H   0  0  0  0  0  0  0  0  0  0  0  0
  -25.5500  -15.4210   20.2330 N   0  0  0  0  0  0  0  0  0  0  0  0
  -24.7780  -16.0650   20.3540 H   0  0  0  0  0  0  0  0  0  0  0  0
  -26.3840  -15.8660   19.8740 H   0  0  0  0  0  0  0  0  0  0  0  0
  -29.6420  -23.3530   18.4240 C   0  0  0  0  0  2  0  0  0  0  0  0
  -31.9690  -23.4560   17.3700 C   0  0  0  0  0  1  0  0  0  0  0  0
  -31.1580  -23.2250   18.6520 C   0  0  0  0  0  2  0  0  0  0  0  0
  1  2  1  0
  3  1  2  0
  4  3  1  0
  4  6  2  0
  5  2  2  0
  5  8  1  0
  6  5  1  0
  8  7  1  0
  9 11  1  0
  9  6  1  0
 10 21  2  0
 11 16  1  0
 12 20  1  0
 12 22  1  0
 13 19  1  0
 13 15  1  0
 14 20  1  0
 15 14  1  0
 16 15  2  0
 17 18  1  0
 17 11  2  0
 18 13  2  0
 19 12  1  0
 20 10  1  0
 22 24  2  0
 23 22  1  0
 25 23  1  0
 26 35  2  0
 26 31  1  0
 27 23  1  0
 27 31  1  0
 28 27  1  0
 29 30  1  0
 29 28  1  0
 30 26  1  0
 31 32  2  0
 32 33  1  0
 34 33  2  0
 35 34  1  0
 36 10  1  0
 36 37  1  0
 36 46  1  0
 37 40  1  0
 38 42  1  0
 38 37  1  0
 39 38  2  0
 42 41  1  0
 44 42  1  0
 44 45  1  0
 44 43  1  0
 46 49  1  1
 46 47  1  0
 48 46  1  0
 50  3  1  0
 50 51  1  0
 52 60  1  0
 53 58  1  0
 54 55  1  0
 54 53  1  0
 56 55  1  0
 56 65  1  0
 56 57  1  0
 58 52  1  0
 58 57  1  0
 59 52  2  0
 60 51  1  0
 61 60  1  0
 62 63  2  0
 63 82  1  0
 64 63  1  0
 64 67  1  0
 65 62  1  0
 65 66  1  0
 66 64  2  0
 67 68  1  0
 68 69  2  0
 70 73  1  0
 70 69  1  0
 71 70  2  0
 72 71  1  0
 72 67  2  0
 73 74  1  0
 74 75  1  0
 75 76  2  0
 77 76  1  0
 77 81  1  0
 78 77  2  0
 79 74  2  0
 79 78  1  0
 80 79  1  0
 82 83  1  0
 83 86  1  0
 83 85  1  0
 84 82  2  0
 87 88  1  0
 87 62  1  0
 89 87  1  0
 90 92  1  0
 90  4  1  0
 91 92  1  0
M  ISO  4   6 101   9 101  52 100  60 100
M  END
>  <TORSDO>  (57) 
F 21

>  <SCORE>  (57) 
-14.296

>  <name>  (57) 
56

>  <ligand_id>  (57) 
56

>  <original_smiles>  (57) 
[H]c1c([H])c([H])c2c(c1[H])C([H])([H])C([H])([H])C([H])([H])C2([H])N([H])C(=O)C1([H])N(C(=O)C([H])(N([H])C(=O)C([H])(N([H])C([H])([H])[H])C([H])([H])[H])C(C([H])([H])[H])(C([H])([H])[H])C([H])([H])[H])C([H])([H])c2c([H])c(Oc3c(OC([H])([H])[H])c([H])c([H])c(C([H])([H])C([H])([H])N([H])C(=O)N4C([H])([H])C([H])([H])C([H])([H])C([H])(n5nc(-c6c([H])c([H])c(Oc7c([H])c([H])c(F)c([H])c7F)c([H])c6[H])c(C(=O)N([H])[H])c5N([H])[H])C4([H])[H])c3C([H])([H])C([H])([H])C([H])([H])[H])c([H])c([H])c2C1([H])[H]

>  <smiles>  (57) 
[H]c1c([H])c([H])c2c(c1[H])C([H])([H])C([H])([H])C([H])([H])C2([H])N([H])C(=O)C1([H])N(C(=O)C([H])(N([H])C(=O)C([H])(N([H])C([H])([H])[H])C([H])([H])[H])C(C([H])([H])[H])(C([H])([H])[H])C([H])([H])[H])C([H])([H])c2c([H])c(Oc3c(OC([H])([H])[H])c([H])c([H])c(C([H])([H])C([H])([H])N([H])C(=O)N4C([H])([H])C([H])([H])C([H])([H])C([H])(n5nc(-c6c([H])c([H])c(Oc7c([H])c([H])c(F)c([H])c7F)c([H])c6[H])c(C(=O)N([H])[H])c5N([H])[H])C4([H])[H])c3C([H])([H])C([H])([H])C([H])([H])[H])c([H])c([H])c2C1([H])[H]

$$$$
57:0:0
     RDKit          3D

 88 96  0  0  1  0  0  0  0  0999 V2000
  -30.0690  -22.3490   19.9090 C   0  0  0  0  0  3  0  0  0  0  0  0
  -28.0050  -22.1700   18.9350 C   0  0  0  0  0  3  0  0  0  0  0  0
  -29.8880  -23.8270   19.9470 C   0  0  0  0  0  3  0  0  0  0  0  0
  -27.8150  -23.6440   18.9890 C   0  0  0  0  0  3  0  0  0  0  0  0
  -29.1340  -21.3540   19.4080 C   0  0  0  0  0  0  0  0  0  0  0  0
  -28.7420  -24.6310   19.5190 C   0  0  0  0  0  0  0  0  0  0  0  0
  -28.6650  -26.1530   19.6730 O   0  0  0  0  0  0  0  0  0  0  0  0
  -24.9780  -31.7130   23.1510 C   0  0  0  0  0  0  0  0  0  0  0  0
  -27.5820  -27.1630   19.7440 C   0  0  0  0  0  0  0  0  0  0  0  0
  -23.7990  -30.4660   21.3850 C   0  0  0  0  0  3  0  0  0  0  0  0
  -25.2640  -28.9970   19.8410 C   0  0  0  0  0  0  0  0  0  0  0  0
  -26.3580  -30.7120   21.2690 C   0  0  0  0  0  2  0  0  0  0  0  0
  -26.4400  -29.3620   20.5080 C   0  0  0  0  0  0  0  0  0  0  0  0
  -27.5910  -28.4630   20.4400 C   0  0  0  0  0  3  0  0  0  0  0  0
  -26.3810  -26.9410   19.0360 C   0  0  0  0  0  3  0  0  0  0  0  0
  -25.2560  -27.8070   19.0890 C   0  0  0  0  0  3  0  0  0  0  0  0
  -24.0430  -29.9060   19.9540 C   0  0  0  0  0  2  0  0  0  0  0  0
  -25.0670  -30.9840   21.9930 N   0  0  0  0  0  0  0  0  0  0  0  0
  -23.8840  -31.9500   23.6910 O   0  0  0  0  0  0  0  0  0  0  0  0
  -23.1060  -29.3830   22.2500 C   0  0  0  0  0  0  0  0  0  0  0  0
  -21.7810  -29.2130   22.0880 N   0  0  0  0  0  0  0  0  0  0  0  0
  -23.7660  -28.7000   23.0360 O   0  0  0  0  0  0  0  0  0  0  0  0
  -21.2990  -29.8210   21.4380 H   0  0  0  0  0  0  0  0  0  0  0  0
  -18.3950  -27.9820   22.4950 C   0  0  0  0  0  0  0  0  0  0  0  0
  -20.9580  -28.2060   22.7640 C   0  0  0  0  0  3  0  0  0  0  0  0
  -21.0460  -26.8390   22.0450 C   0  0  0  0  0  2  0  0  0  0  0  0
  -19.9340  -26.6290   21.0110 C   0  0  0  0  0  2  0  0  0  0  0  0
  -18.5580  -26.7120   21.6780 C   0  0  0  0  0  2  0  0  0  0  0  0
  -19.5200  -28.6910   22.9910 C   0  0  0  0  0  0  0  0  0  0  0  0
  -19.3100  -29.8830   23.7190 C   0  0  0  0  0  3  0  0  0  0  0  0
  -18.0060  -30.3640   23.9510 C   0  0  0  0  0  3  0  0  0  0  0  0
  -16.8960  -29.6510   23.4670 C   0  0  0  0  0  3  0  0  0  0  0  0
  -17.0910  -28.4620   22.7430 C   0  0  0  0  0  3  0  0  0  0  0  0
  -26.2420  -32.3020   23.8470 C   0  0  0  0  0  3  0  0  0  0  0  0
  -26.7170  -31.4580   25.0920 C   0  0  1  0  0  0  0  0  0  0  0  0
  -25.5960  -31.1730   26.1180 C   0  0  0  0  0  1  0  0  0  0  0  0
  -27.3080  -30.1020   24.6420 C   0  0  0  0  0  1  0  0  0  0  0  0
  -27.8520  -32.2110   25.8300 C   0  0  0  0  0  1  0  0  0  0  0  0
  -25.9310  -33.6820   24.2620 N   0  0  0  0  0  0  0  0  0  0  0  0
  -26.2530  -34.7840   23.5690 C   0  0  0  0  0  0  0  0  0  0  0  0
  -26.9090  -34.7440   22.5250 O   0  0  0  0  0  0  0  0  0  0  0  0
  -25.3600  -33.7860   25.0860 H   0  0  0  0  0  0  0  0  0  0  0  0
  -24.5130  -36.5950   23.3730 C   0  0  0  0  0  1  0  0  0  0  0  0
  -25.7750  -36.1410   24.1220 C   0  0  0  0  0  3  0  0  0  0  0  0
  -27.9250  -36.9910   24.9540 C   0  0  0  0  0  1  0  0  0  0  0  0
  -26.8020  -37.2060   24.0450 N   0  0  0  0  0  0  0  0  0  0  0  0
  -26.3970  -38.1120   24.2560 H   0  0  0  0  0  0  0  0  0  0  0  0
  -29.1190  -19.6110   19.6070 C   0  0  0  0  0  3  0  0  0  0  0  0
  -29.9820  -16.7770   19.5100 C   0  0  0  0  0  3  0  0  0  0  0  0
  -30.0940  -18.2210   19.2340 C   0  0  0  0  0  3  0  0  0  0  0  0
  -30.9040  -15.4640   19.3220 C   0  0  0  0  0  0  0  0  0  0  0  0
  -31.0700  -12.9190   18.8720 C   0  0  0  0  0  2  0  0  0  0  0  0
  -30.1110  -12.4850   17.7340 C   0  0  0  0  0  2  0  0  0  0  0  0
  -28.7150  -12.1620   18.2950 C   0  0  0  0  0  2  0  0  0  0  0  0
  -28.2380  -13.2360   19.3070 C   0  0  0  0  0  3  0  0  0  0  0  0
  -29.3220  -13.6410   20.3270 C   0  0  0  0  0  2  0  0  0  0  0  0
  -30.4870  -14.1260   19.5680 N   0  0  0  0  0  0  0  0  0  0  0  0
  -32.0660  -15.5190   18.8940 O   0  0  0  0  0  0  0  0  0  0  0  0
  -25.9990  -13.7330   20.4200 C   0  0  0  0  0  0  0  0  0  0  0  0
  -24.9830  -12.9310   20.8600 C   0  0  0  0  0  0  0  0  0  0  0  0
  -25.4180  -11.5870   20.6460 C   0  0  0  0  0  0  0  0  0  0  0  0
  -26.9820  -12.8800   19.9550 N   0  0  0  0  0  0  0  0  0  0  0  0
  -26.6550  -11.5760   20.1560 N   0  0  0  0  0  0  0  0  0  0  0  0
  -24.6990  -10.3170   20.8190 C   0  0  0  0  0  0  0  0  0  0  0  0
  -25.0990   -9.3680   21.7850 C   0  0  0  0  0  3  0  0  0  0  0  0
  -24.3810   -8.1630   21.9470 C   0  0  0  0  0  3  0  0  0  0  0  0
  -23.2470   -7.8990   21.1430 C   0  0  0  0  0  0  0  0  0  0  0  0
  -22.8660   -8.8370   20.1670 C   0  0  0  0  0  3  0  0  0  0  0  0
  -23.5850  -10.0330   20.0040 C   0  0  0  0  0  3  0  0  0  0  0  0
  -22.5040   -6.7440   21.2090 O   0  0  0  0  0  0  0  0  0  0  0  0
  -22.1930   -6.1580   22.4080 C   0  0  0  0  0  0  0  0  0  0  0  0
  -21.4760   -6.8460   23.4120 C   0  0  0  0  0  3  0  0  0  0  0  0
  -21.1160   -6.1810   24.6010 C   0  0  0  0  0  3  0  0  0  0  0  0
  -21.4650   -4.8290   24.7870 C   0  0  0  0  0  0  0  0  0  0  0  0
  -22.1740   -4.1410   23.7870 C   0  0  0  0  0  3  0  0  0  0  0  0
  -22.5350   -4.8030   22.6000 C   0  0  0  0  0  0  0  0  0  0  0  0
  -23.2010   -4.1300   21.6310 F   0  0  0  0  0  0  0  0  0  0  0  0
  -21.1140   -4.1900   25.9270 F   0  0  0  0  0  0  0  0  0  0  0  0
  -23.6450  -13.3910   21.3600 C   0  0  0  0  0  0  0  0  0  0  0  0
  -23.0280  -12.6380   22.2650 N   0  0  0  0  0  0  0  0  0  0  0  0
  -23.1570  -14.4560   20.9830 O   0  0  0  0  0  0  0  0  0  0  0  0
  -23.4330  -11.7730   22.5910 H   0  0  0  0  0  0  0  0  0  0  0  0
  -22.1370  -12.9370   22.6380 H   0  0  0  0  0  0  0  0  0  0  0  0
  -26.1650  -15.1120   20.3490 N   0  0  0  0  0  0  0  0  0  0  0  0
  -25.4320  -15.7600   20.6180 H   0  0  0  0  0  0  0  0  0  0  0  0
  -26.9730  -15.5710   19.9480 H   0  0  0  0  0  0  0  0  0  0  0  0
  -26.7750  -19.8450   20.6950 C   0  0  0  0  0  1  0  0  0  0  0  0
  -27.6370  -19.1550   19.6210 C   0  0  0  0  0  2  0  0  0  0  0  0
  1  3  1  0
  2  4  2  0
  2  5  1  0
  4  6  1  0
  5 48  1  0
  5  1  2  0
  6  7  1  0
  6  3  2  0
  7  9  1  0
  8 19  2  0
  9 14  1  0
 10 18  1  0
 10 20  1  0
 11 17  1  0
 11 13  1  0
 12 18  1  0
 13 12  1  0
 14 13  2  0
 15 16  1  0
 15  9  2  0
 16 11  2  0
 17 10  1  0
 18  8  1  0
 20 22  2  0
 21 20  1  0
 23 21  1  0
 24 33  2  0
 24 29  1  0
 25 21  1  0
 25 29  1  0
 26 25  1  0
 27 28  1  0
 27 26  1  0
 28 24  1  0
 29 30  2  0
 30 31  1  0
 32 31  2  0
 33 32  1  0
 34  8  1  0
 34 39  1  0
 34 35  1  0
 35 38  1  1
 35 36  1  0
 37 35  1  0
 39 42  1  0
 40 44  1  0
 40 39  1  0
 41 40  2  0
 44 43  1  0
 46 44  1  0
 46 47  1  0
 46 45  1  0
 48 50  1  0
 48 88  1  0
 50 49  2  0
 51 49  1  0
 51 57  1  0
 52 57  1  0
 53 54  1  0
 53 52  1  0
 55 54  1  0
 55 62  1  0
 55 56  1  0
 57 56  1  0
 58 51  2  0
 59 60  2  0
 60 79  1  0
 61 64  1  0
 61 60  1  0
 62 63  1  0
 62 59  1  0
 63 61  2  0
 64 65  1  0
 65 66  2  0
 67 70  1  0
 67 66  1  0
 68 67  2  0
 69 68  1  0
 69 64  2  0
 70 71  1  0
 71 76  2  0
 71 72  1  0
 72 73  2  0
 73 74  1  0
 74 78  1  0
 75 74  2  0
 76 75  1  0
 77 76  1  0
 79 80  1  0
 80 82  1  0
 80 83  1  0
 81 79  2  0
 84 59  1  0
 84 85  1  0
 86 84  1  0
 88 87  1  0
M  ISO  4   6 101   7 101  49 100  51 100
M  END
>  <TORSDO>  (58) 
F 19

>  <SCORE>  (58) 
-10.696

>  <name>  (58) 
57

>  <ligand_id>  (58) 
57

>  <original_smiles>  (58) 
[H]C(C(=O)N1C([H])([H])C([H])([H])C([H])([H])C([H])(n2nc(-c3c([H])c([H])c(Oc4c([H])c([H])c(F)c([H])c4F)c([H])c3[H])c(C(=O)N([H])[H])c2N([H])[H])C1([H])[H])=C([H])C([H])(c1c([H])c([H])c(Oc2c([H])c([H])c3c(c2[H])C([H])([H])N(C(=O)C([H])(N([H])C(=O)C([H])(N([H])C([H])([H])[H])C([H])([H])[H])C(C([H])([H])[H])(C([H])([H])[H])C([H])([H])[H])C([H])(C(=O)N([H])C2([H])c4c([H])c([H])c([H])c([H])c4C([H])([H])C([H])([H])C2([H])[H])C3([H])[H])c([H])c1[H])C([H])([H])C([H])([H])[H]

>  <smiles>  (58) 
[H]C(C(=O)N1C([H])([H])C([H])([H])C([H])([H])C([H])(n2nc(-c3c([H])c([H])c(Oc4c([H])c([H])c(F)c([H])c4F)c([H])c3[H])c(C(=O)N([H])[H])c2N([H])[H])C1([H])[H])=C([H])C([H])(c1c([H])c([H])c(Oc2c([H])c([H])c3c(c2[H])C([H])([H])N(C(=O)C([H])(N([H])C(=O)C([H])(N([H])C([H])([H])[H])C([H])([H])[H])C(C([H])([H])[H])(C([H])([H])[H])C([H])([H])[H])C([H])(C(=O)N([H])C2([H])c4c([H])c([H])c([H])c([H])c4C([H])([H])C([H])([H])C2([H])[H])C3([H])[H])c([H])c1[H])C([H])([H])C([H])([H])[H]

$$$$
58:0:0
     RDKit          3D

 91 99  0  0  1  0  0  0  0  0999 V2000
  -29.0300  -23.4860   18.6300 C   0  0  0  0  0  3  0  0  0  0  0  0
  -28.6050  -24.8260   18.7280 C   0  0  0  0  0  3  0  0  0  0  0  0
  -28.9740  -24.7650   21.1340 C   0  0  0  0  0  3  0  0  0  0  0  0
  -29.4920  -22.7980   19.7740 C   0  0  0  0  0  0  0  0  0  0  0  0
  -28.6080  -25.4790   19.9770 C   0  0  0  0  0  0  0  0  0  0  0  0
  -29.4290  -23.4340   21.0370 C   0  0  0  0  0  0  0  0  0  0  0  0
  -29.8770  -22.7970   22.1600 O   0  0  0  0  0  0  0  0  0  0  0  0
  -29.8240  -23.3310   22.9450 H   0  0  0  0  0  0  0  0  0  0  0  0
  -28.4590  -26.8400   20.0510 O   0  0  0  0  0  0  0  0  0  0  0  0
  -24.6100  -31.8800   23.2290 C   0  0  0  0  0  0  0  0  0  0  0  0
  -27.2360  -27.4570   20.1280 C   0  0  0  0  0  0  0  0  0  0  0  0
  -23.3860  -30.4700   21.6030 C   0  0  0  0  0  3  0  0  0  0  0  0
  -24.8260  -28.9240   20.1740 C   0  0  0  0  0  0  0  0  0  0  0  0
  -25.9040  -30.8400   21.3730 C   0  0  0  0  0  2  0  0  0  0  0  0
  -25.9830  -29.4640   20.7460 C   0  0  0  0  0  0  0  0  0  0  0  0
  -27.1860  -28.7330   20.7270 C   0  0  0  0  0  3  0  0  0  0  0  0
  -26.0610  -26.9150   19.5610 C   0  0  0  0  0  3  0  0  0  0  0  0
  -24.8560  -27.6450   19.5860 C   0  0  0  0  0  3  0  0  0  0  0  0
  -23.5800  -29.7800   20.2240 C   0  0  0  0  0  2  0  0  0  0  0  0
  -24.6520  -31.0790   22.1270 N   0  0  0  0  0  0  0  0  0  0  0  0
  -23.5350  -32.1530   23.7810 O   0  0  0  0  0  0  0  0  0  0  0  0
  -22.7490  -29.4530   22.5740 C   0  0  0  0  0  0  0  0  0  0  0  0
  -21.4240  -29.2680   22.4560 N   0  0  0  0  0  0  0  0  0  0  0  0
  -23.4410  -28.8310   23.3840 O   0  0  0  0  0  0  0  0  0  0  0  0
  -20.9280  -29.8190   21.7690 H   0  0  0  0  0  0  0  0  0  0  0  0
  -18.0580  -28.0640   22.9660 C   0  0  0  0  0  0  0  0  0  0  0  0
  -20.6140  -28.3320   23.2330 C   0  0  0  0  0  3  0  0  0  0  0  0
  -20.7230  -26.8980   22.6650 C   0  0  0  0  0  2  0  0  0  0  0  0
  -19.6200  -26.5650   21.6550 C   0  0  0  0  0  2  0  0  0  0  0  0
  -18.2380  -26.7090   22.3000 C   0  0  0  0  0  2  0  0  0  0  0  0
  -19.1750  -28.8310   23.3900 C   0  0  0  0  0  0  0  0  0  0  0  0
  -18.9530  -30.0990   23.9710 C   0  0  0  0  0  3  0  0  0  0  0  0
  -17.6470  -30.5980   24.1350 C   0  0  0  0  0  3  0  0  0  0  0  0
  -16.5440  -29.8270   23.7290 C   0  0  0  0  0  3  0  0  0  0  0  0
  -16.7500  -28.5610   23.1500 C   0  0  0  0  0  3  0  0  0  0  0  0
  -25.9040  -32.5100   23.8350 C   0  0  0  0  0  3  0  0  0  0  0  0
  -25.5990  -33.9050   24.1750 N   0  0  0  0  0  0  0  0  0  0  0  0
  -25.9240  -34.9610   23.4150 C   0  0  0  0  0  0  0  0  0  0  0  0
  -26.5840  -34.8620   22.3770 O   0  0  0  0  0  0  0  0  0  0  0  0
  -25.0130  -34.0570   24.9820 H   0  0  0  0  0  0  0  0  0  0  0  0
  -24.1890  -36.7500   23.0820 C   0  0  0  0  0  1  0  0  0  0  0  0
  -25.4380  -36.3460   23.8810 C   0  0  0  0  0  3  0  0  0  0  0  0
  -27.5790  -37.2300   24.6940 C   0  0  0  0  0  1  0  0  0  0  0  0
  -26.4680  -37.4020   23.7630 N   0  0  0  0  0  0  0  0  0  0  0  0
  -26.0600  -38.3200   23.9200 H   0  0  0  0  0  0  0  0  0  0  0  0
  -26.4450  -31.7320   25.0960 C   0  0  1  0  0  0  0  0  0  0  0  0
  -25.3700  -31.4840   26.1790 C   0  0  0  0  0  1  0  0  0  0  0  0
  -27.0230  -30.3580   24.6820 C   0  0  0  0  0  1  0  0  0  0  0  0
  -27.6040  -32.5240   25.7460 C   0  0  0  0  0  1  0  0  0  0  0  0
  -30.1960  -21.4560   19.6060 C   0  0  0  0  0  2  0  0  0  0  0  0
  -29.4480  -20.2180   20.1300 C   0  0  0  0  0  2  0  0  0  0  0  0
  -30.4450  -19.0690   20.3730 C   0  0  0  0  0  2  0  0  0  0  0  0
  -29.8080  -17.6990   20.6480 C   0  0  0  0  0  2  0  0  0  0  0  0
  -30.7780  -16.7660   21.3980 C   0  0  0  0  0  2  0  0  0  0  0  0
  -30.2720  -15.3120   21.5220 C   0  0  0  0  0  2  0  0  0  0  0  0
  -30.7160  -14.3530   20.3970 C   0  0  0  0  0  0  0  0  0  0  0  0
  -30.3140  -12.3150   19.0510 C   0  0  0  0  0  2  0  0  0  0  0  0
  -29.3280  -12.6060   17.9040 C   0  0  0  0  0  2  0  0  0  0  0  0
  -27.8690  -12.4770   18.3860 C   0  0  0  0  0  2  0  0  0  0  0  0
  -27.6040  -13.2480   19.7070 C   0  0  0  0  0  3  0  0  0  0  0  0
  -28.6890  -12.9040   20.7520 C   0  0  0  0  0  2  0  0  0  0  0  0
  -29.9980  -13.2240   20.1610 N   0  0  0  0  0  0  0  0  0  0  0  0
  -31.7320  -14.6260   19.7470 O   0  0  0  0  0  0  0  0  0  0  0  0
  -25.2250  -13.8770   20.4690 C   0  0  0  0  0  0  0  0  0  0  0  0
  -24.1590  -13.1120   20.8590 C   0  0  0  0  0  0  0  0  0  0  0  0
  -24.6070  -11.7560   20.8070 C   0  0  0  0  0  0  0  0  0  0  0  0
  -26.2580  -12.9880   20.2130 N   0  0  0  0  0  0  0  0  0  0  0  0
  -25.8880  -11.7060   20.4660 N   0  0  0  0  0  0  0  0  0  0  0  0
  -23.8750  -10.4990   21.0080 C   0  0  0  0  0  0  0  0  0  0  0  0
  -24.3360   -9.5110   21.9060 C   0  0  0  0  0  3  0  0  0  0  0  0
  -23.6040   -8.3180   22.0950 C   0  0  0  0  0  3  0  0  0  0  0  0
  -22.3990   -8.1050   21.3860 C   0  0  0  0  0  0  0  0  0  0  0  0
  -21.9570   -9.0820   20.4760 C   0  0  0  0  0  3  0  0  0  0  0  0
  -22.6880  -10.2660   20.2850 C   0  0  0  0  0  3  0  0  0  0  0  0
  -21.6360   -6.9670   21.4860 O   0  0  0  0  0  0  0  0  0  0  0  0
  -21.6420   -6.1950   22.6200 C   0  0  0  0  0  0  0  0  0  0  0  0
  -21.3070   -6.7270   23.8850 C   0  0  0  0  0  3  0  0  0  0  0  0
  -21.2580   -5.8840   25.0130 C   0  0  0  0  0  3  0  0  0  0  0  0
  -21.5330   -4.5090   24.8770 C   0  0  0  0  0  0  0  0  0  0  0  0
  -21.8620   -3.9770   23.6180 C   0  0  0  0  0  3  0  0  0  0  0  0
  -21.9140   -4.8180   22.4920 C   0  0  0  0  0  0  0  0  0  0  0  0
  -22.2100   -4.2960   21.2780 F   0  0  0  0  0  0  0  0  0  0  0  0
  -21.4790   -3.6970   25.9590 F   0  0  0  0  0  0  0  0  0  0  0  0
  -22.7740  -13.5990   21.1720 C   0  0  0  0  0  0  0  0  0  0  0  0
  -22.0650  -12.9020   22.0540 N   0  0  0  0  0  0  0  0  0  0  0  0
  -22.3300  -14.6310   20.6710 O   0  0  0  0  0  0  0  0  0  0  0  0
  -22.4390  -12.0670   22.4790 H   0  0  0  0  0  0  0  0  0  0  0  0
  -21.1360  -13.2090   22.3090 H   0  0  0  0  0  0  0  0  0  0  0  0
  -25.3980  -15.2470   20.2970 N   0  0  0  0  0  0  0  0  0  0  0  0
  -24.6410  -15.9090   20.4310 H   0  0  0  0  0  0  0  0  0  0  0  0
  -26.2520  -15.6820   19.9690 H   0  0  0  0  0  0  0  0  0  0  0  0
  1  2  2  0
  1  4  1  0
  2  5  1  0
  4  6  2  0
  5  9  1  0
  5  3  2  0
  6  3  1  0
  6  7  1  0
  7  8  1  0
  9 11  1  0
 10 21  2  0
 11 16  1  0
 12 20  1  0
 12 22  1  0
 13 19  1  0
 13 15  1  0
 14 20  1  0
 15 14  1  0
 16 15  2  0
 17 18  1  0
 17 11  2  0
 18 13  2  0
 19 12  1  0
 20 10  1  0
 22 24  2  0
 23 22  1  0
 25 23  1  0
 26 35  2  0
 26 31  1  0
 27 23  1  0
 27 31  1  0
 28 27  1  0
 29 30  1  0
 29 28  1  0
 30 26  1  0
 31 32  2  0
 32 33  1  0
 34 33  2  0
 35 34  1  0
 36 10  1  0
 36 37  1  0
 36 46  1  0
 37 40  1  0
 38 42  1  0
 38 37  1  0
 39 38  2  0
 42 41  1  0
 44 42  1  0
 44 45  1  0
 44 43  1  0
 46 49  1  1
 46 47  1  0
 48 46  1  0
 50  4  1  0
 50 51  1  0
 51 52  1  0
 52 53  1  0
 53 54  1  0
 54 55  1  0
 56 55  1  0
 57 62  1  0
 58 59  1  0
 58 57  1  0
 60 59  1  0
 60 67  1  0
 60 61  1  0
 62 56  1  0
 62 61  1  0
 63 56  2  0
 64 65  2  0
 65 84  1  0
 66 65  1  0
 66 69  1  0
 67 68  1  0
 67 64  1  0
 68 66  2  0
 69 70  1  0
 70 71  2  0
 72 75  1  0
 72 71  1  0
 73 72  2  0
 74 73  1  0
 74 69  2  0
 75 76  1  0
 76 77  1  0
 77 78  2  0
 79 78  1  0
 79 83  1  0
 80 79  2  0
 81 76  2  0
 81 80  1  0
 82 81  1  0
 84 85  1  0
 85 88  1  0
 85 87  1  0
 86 84  2  0
 89 90  1  0
 89 64  1  0
 91 89  1  0
M  ISO  4   5 101   9 101  55 100  56 100
M  END
>  <TORSDO>  (59) 
F 23

>  <SCORE>  (59) 
-12.919

>  <name>  (59) 
58

>  <ligand_id>  (59) 
58

>  <original_smiles>  (59) 
[H]Oc1c([H])c(Oc2c([H])c([H])c3c(c2[H])C([H])([H])N(C(=O)C([H])(N([H])C(=O)C([H])(N([H])C([H])([H])[H])C([H])([H])[H])C(C([H])([H])[H])(C([H])([H])[H])C([H])([H])[H])C([H])(C(=O)N([H])C2([H])c4c([H])c([H])c([H])c([H])c4C([H])([H])C([H])([H])C2([H])[H])C3([H])[H])c([H])c([H])c1C([H])([H])C([H])([H])C([H])([H])C([H])([H])C([H])([H])C([H])([H])C(=O)N1C([H])([H])C([H])([H])C([H])([H])C([H])(n2nc(-c3c([H])c([H])c(Oc4c([H])c([H])c(F)c([H])c4F)c([H])c3[H])c(C(=O)N([H])[H])c2N([H])[H])C1([H])[H]

>  <smiles>  (59) 
[H]Oc1c([H])c(Oc2c([H])c([H])c3c(c2[H])C([H])([H])N(C(=O)C([H])(N([H])C(=O)C([H])(N([H])C([H])([H])[H])C([H])([H])[H])C(C([H])([H])[H])(C([H])([H])[H])C([H])([H])[H])C([H])(C(=O)N([H])C2([H])c4c([H])c([H])c([H])c([H])c4C([H])([H])C([H])([H])C2([H])[H])C3([H])[H])c([H])c([H])c1C([H])([H])C([H])([H])C([H])([H])C([H])([H])C([H])([H])C([H])([H])C(=O)N1C([H])([H])C([H])([H])C([H])([H])C([H])(n2nc(-c3c([H])c([H])c(Oc4c([H])c([H])c(F)c([H])c4F)c([H])c3[H])c(C(=O)N([H])[H])c2N([H])[H])C1([H])[H]

$$$$
59:0:0
     RDKit          3D

 90 98  0  0  1  0  0  0  0  0999 V2000
  -29.8730  -19.6020   21.8330 C   0  0  0  0  0  3  0  0  0  0  0  0
  -30.0250  -16.8760   20.5640 C   0  0  0  0  0  0  0  0  0  0  0  0
  -30.4630  -18.4740   22.4590 C   0  0  0  0  0  0  0  0  0  0  0  0
  -29.2770  -19.5660   20.5610 C   0  0  0  0  0  0  0  0  0  0  0  0
  -30.4920  -17.1560   21.8890 C   0  0  0  0  0  0  0  0  0  0  0  0
  -29.4050  -18.1520   19.9490 C   0  0  0  0  0  0  0  0  0  0  0  0
  -31.1270  -18.7260   23.8110 C   0  0  0  0  0  1  0  0  0  0  0  0
  -31.1130  -16.0440   22.7410 C   0  0  0  0  0  1  0  0  0  0  0  0
  -30.4980  -15.3930   19.9040 C   0  0  0  0  0  0  0  0  0  0  0  0
  -30.3470  -12.9790   18.9570 C   0  0  0  0  0  2  0  0  0  0  0  0
  -29.3530  -12.8470   17.7720 C   0  0  0  0  0  2  0  0  0  0  0  0
  -27.9450  -12.5540   18.3020 C   0  0  0  0  0  2  0  0  0  0  0  0
  -27.5730  -13.4930   19.4750 C   0  0  0  0  0  3  0  0  0  0  0  0
  -28.6850  -13.6060   20.5430 C   0  0  0  0  0  2  0  0  0  0  0  0
  -29.8990  -14.0980   19.8760 N   0  0  0  0  0  0  0  0  0  0  0  0
  -31.6310  -15.3700   19.4020 O   0  0  0  0  0  0  0  0  0  0  0  0
  -25.2590  -14.0290   20.3970 C   0  0  0  0  0  0  0  0  0  0  0  0
  -24.2220  -13.2410   20.8100 C   0  0  0  0  0  0  0  0  0  0  0  0
  -24.6830  -11.8920   20.7120 C   0  0  0  0  0  0  0  0  0  0  0  0
  -26.2820  -13.1620   20.0580 N   0  0  0  0  0  0  0  0  0  0  0  0
  -25.9530  -11.8680   20.3170 N   0  0  0  0  0  0  0  0  0  0  0  0
  -23.9670  -10.6250   20.9130 C   0  0  0  0  0  0  0  0  0  0  0  0
  -24.4140   -9.6620   21.8440 C   0  0  0  0  0  3  0  0  0  0  0  0
  -23.6950   -8.4620   22.0320 C   0  0  0  0  0  3  0  0  0  0  0  0
  -22.5150   -8.2170   21.2920 C   0  0  0  0  0  0  0  0  0  0  0  0
  -22.0870   -9.1680   20.3500 C   0  0  0  0  0  3  0  0  0  0  0  0
  -22.8060  -10.3600   20.1590 C   0  0  0  0  0  3  0  0  0  0  0  0
  -21.7680   -7.0670   21.3890 O   0  0  0  0  0  0  0  0  0  0  0  0
  -21.6700   -6.3720   22.5670 C   0  0  0  0  0  0  0  0  0  0  0  0
  -21.1890   -6.9730   23.7510 C   0  0  0  0  0  3  0  0  0  0  0  0
  -21.0410   -6.2050   24.9210 C   0  0  0  0  0  3  0  0  0  0  0  0
  -21.3620   -4.8320   24.9110 C   0  0  0  0  0  0  0  0  0  0  0  0
  -21.8360   -4.2310   23.7320 C   0  0  0  0  0  3  0  0  0  0  0  0
  -21.9880   -4.9970   22.5640 C   0  0  0  0  0  0  0  0  0  0  0  0
  -22.4260   -4.4080   21.4250 F   0  0  0  0  0  0  0  0  0  0  0  0
  -21.2150   -4.0910   26.0340 F   0  0  0  0  0  0  0  0  0  0  0  0
  -22.8460  -13.7100   21.1820 C   0  0  0  0  0  0  0  0  0  0  0  0
  -22.1820  -12.9990   22.0860 N   0  0  0  0  0  0  0  0  0  0  0  0
  -22.3740  -14.7450   20.7120 O   0  0  0  0  0  0  0  0  0  0  0  0
  -22.5770  -12.1580   22.4780 H   0  0  0  0  0  0  0  0  0  0  0  0
  -21.2660  -13.2980   22.3890 H   0  0  0  0  0  0  0  0  0  0  0  0
  -25.4140  -15.4050   20.2500 N   0  0  0  0  0  0  0  0  0  0  0  0
  -24.6620  -16.0560   20.4400 H   0  0  0  0  0  0  0  0  0  0  0  0
  -26.2590  -15.8590   19.9270 H   0  0  0  0  0  0  0  0  0  0  0  0
  -29.9350  -18.2230   17.4940 C   0  0  0  0  0  1  0  0  0  0  0  0
  -28.8480  -18.0050   18.5490 C   0  0  0  0  0  2  0  0  0  0  0  0
  -28.5020  -21.0470   20.0550 C   0  0  0  0  0  2  0  0  0  0  0  0
  -28.6880  -22.7820   20.4980 C   0  0  0  0  0  3  0  0  0  0  0  0
  -27.7840  -24.2900   20.0780 C   0  0  0  0  0  3  0  0  0  0  0  0
  -27.9980  -25.9090   20.3140 O   0  0  0  0  0  0  0  0  0  0  0  0
  -24.5120  -31.9220   23.2090 C   0  0  0  0  0  0  0  0  0  0  0  0
  -26.9960  -27.0090   20.2160 C   0  0  0  0  0  0  0  0  0  0  0  0
  -23.2860  -30.5130   21.6000 C   0  0  0  0  0  3  0  0  0  0  0  0
  -24.7100  -28.8950   20.1690 C   0  0  0  0  0  0  0  0  0  0  0  0
  -25.8470  -30.7170   21.4140 C   0  0  0  0  0  2  0  0  0  0  0  0
  -25.9020  -29.3010   20.7750 C   0  0  0  0  0  0  0  0  0  0  0  0
  -27.0430  -28.3790   20.7740 C   0  0  0  0  0  3  0  0  0  0  0  0
  -25.7790  -26.7550   19.5470 C   0  0  0  0  0  3  0  0  0  0  0  0
  -24.6730  -27.6450   19.5270 C   0  0  0  0  0  3  0  0  0  0  0  0
  -23.4940  -29.8160   20.2260 C   0  0  0  0  0  2  0  0  0  0  0  0
  -24.5690  -31.0780   22.1280 N   0  0  0  0  0  0  0  0  0  0  0  0
  -23.4330  -32.2200   23.7460 O   0  0  0  0  0  0  0  0  0  0  0  0
  -22.6050  -29.5290   22.5880 C   0  0  0  0  0  0  0  0  0  0  0  0
  -21.2820  -29.3290   22.4570 N   0  0  0  0  0  0  0  0  0  0  0  0
  -23.2740  -28.9450   23.4450 O   0  0  0  0  0  0  0  0  0  0  0  0
  -20.7890  -29.8550   21.7470 H   0  0  0  0  0  0  0  0  0  0  0  0
  -17.9380  -27.9990   22.9190 C   0  0  0  0  0  0  0  0  0  0  0  0
  -20.4730  -28.3930   23.2470 C   0  0  0  0  0  3  0  0  0  0  0  0
  -20.6550  -26.9400   22.7480 C   0  0  0  0  0  2  0  0  0  0  0  0
  -19.6030  -26.5180   21.7170 C   0  0  0  0  0  2  0  0  0  0  0  0
  -18.1960  -26.6300   22.3110 C   0  0  0  0  0  2  0  0  0  0  0  0
  -19.0070  -28.8320   23.3440 C   0  0  0  0  0  0  0  0  0  0  0  0
  -18.7110  -30.1040   23.8790 C   0  0  0  0  0  3  0  0  0  0  0  0
  -17.3800  -30.5520   23.9820 C   0  0  0  0  0  3  0  0  0  0  0  0
  -16.3260  -29.7180   23.5680 C   0  0  0  0  0  3  0  0  0  0  0  0
  -16.6040  -28.4420   23.0480 C   0  0  0  0  0  3  0  0  0  0  0  0
  -25.7970  -32.5660   23.8130 C   0  0  0  0  0  3  0  0  0  0  0  0
  -26.3190  -31.8140   25.1000 C   0  0  1  0  0  0  0  0  0  0  0  0
  -25.2280  -31.5950   26.1770 C   0  0  0  0  0  1  0  0  0  0  0  0
  -26.8970  -30.4290   24.7280 C   0  0  0  0  0  1  0  0  0  0  0  0
  -27.4740  -32.6110   25.7490 C   0  0  0  0  0  1  0  0  0  0  0  0
  -25.4930  -33.9710   24.1400 N   0  0  0  0  0  0  0  0  0  0  0  0
  -25.8060  -35.0220   23.3700 C   0  0  0  0  0  0  0  0  0  0  0  0
  -26.4450  -34.9120   22.3210 O   0  0  0  0  0  0  0  0  0  0  0  0
  -24.9220  -34.1290   24.9570 H   0  0  0  0  0  0  0  0  0  0  0  0
  -24.0620  -36.8160   23.0760 C   0  0  0  0  0  1  0  0  0  0  0  0
  -25.3370  -36.4150   23.8360 C   0  0  0  0  0  3  0  0  0  0  0  0
  -27.5030  -37.3150   24.5690 C   0  0  0  0  0  1  0  0  0  0  0  0
  -26.3630  -37.4680   23.6690 N   0  0  0  0  0  0  0  0  0  0  0  0
  -25.9610  -38.3890   23.8220 H   0  0  0  0  0  0  0  0  0  0  0  0
  1  3  1  0
  2  5  1  0
  3  7  1  0
  4  1  2  0
  5  3  2  0
  5  8  1  0
  6  4  1  0
  6  2  2  0
  9  2  1  0
 10 15  1  0
 11 12  1  0
 11 10  1  0
 13 12  1  0
 13 20  1  0
 13 14  1  0
 15  9  1  0
 15 14  1  0
 16  9  2  0
 17 18  2  0
 18 37  1  0
 19 18  1  0
 19 22  1  0
 20 21  1  0
 20 17  1  0
 21 19  2  0
 22 23  1  0
 23 24  2  0
 25 28  1  0
 25 24  1  0
 26 25  2  0
 27 26  1  0
 27 22  2  0
 28 29  1  0
 29 30  1  0
 30 31  2  0
 32 31  1  0
 32 36  1  0
 33 32  2  0
 34 29  2  0
 34 33  1  0
 35 34  1  0
 37 38  1  0
 38 41  1  0
 38 40  1  0
 39 37  2  0
 42 17  1  0
 42 43  1  0
 44 42  1  0
 45 46  1  0
 46  6  1  0
 47 48  1  0
 47  4  1  0
 49 50  1  0
 49 48  2  0
 51 62  2  0
 52 50  1  0
 52 57  1  0
 53 61  1  0
 53 63  1  0
 54 60  1  0
 54 56  1  0
 55 61  1  0
 56 55  1  0
 57 56  2  0
 58 52  2  0
 59 58  1  0
 59 54  2  0
 60 53  1  0
 61 51  1  0
 63 65  2  0
 64 63  1  0
 66 64  1  0
 67 76  2  0
 67 72  1  0
 68 64  1  0
 68 72  1  0
 69 68  1  0
 70 71  1  0
 70 69  1  0
 71 67  1  0
 72 73  2  0
 73 74  1  0
 75 74  2  0
 76 75  1  0
 77 51  1  0
 77 82  1  0
 77 78  1  0
 78 81  1  1
 78 79  1  0
 80 78  1  0
 82 85  1  0
 83 87  1  0
 83 82  1  0
 84 83  2  0
 87 86  1  0
 89 90  1  0
 89 87  1  0
 89 88  1  0
M  ISO  4   2 100   9 100  49 101  50 101
M  END
>  <TORSDO>  (60) 
F 20

>  <SCORE>  (60) 
-13.282

>  <name>  (60) 
59

>  <ligand_id>  (60) 
59

>  <original_smiles>  (60) 
[H]c1c([H])c([H])c2c(c1[H])C([H])([H])C([H])([H])C([H])([H])C2([H])N([H])C(=O)C1([H])N(C(=O)C([H])(N([H])C(=O)C([H])(N([H])C([H])([H])[H])C([H])([H])[H])C(C([H])([H])[H])(C([H])([H])[H])C([H])([H])[H])C([H])([H])c2c([H])c(OC([H])([H])C([H])([H])C([H])([H])c3c([H])c(C([H])([H])[H])c(C([H])([H])[H])c(C(=O)N4C([H])([H])C([H])([H])C([H])([H])C([H])(n5nc(-c6c([H])c([H])c(Oc7c([H])c([H])c(F)c([H])c7F)c([H])c6[H])c(C(=O)N([H])[H])c5N([H])[H])C4([H])[H])c3C([H])([H])C([H])([H])[H])c([H])c([H])c2C1([H])[H]

>  <smiles>  (60) 
[H]c1c([H])c([H])c2c(c1[H])C([H])([H])C([H])([H])C([H])([H])C2([H])N([H])C(=O)C1([H])N(C(=O)C([H])(N([H])C(=O)C([H])(N([H])C([H])([H])[H])C([H])([H])[H])C(C([H])([H])[H])(C([H])([H])[H])C([H])([H])[H])C([H])([H])c2c([H])c(OC([H])([H])C([H])([H])C([H])([H])c3c([H])c(C([H])([H])[H])c(C([H])([H])[H])c(C(=O)N4C([H])([H])C([H])([H])C([H])([H])C([H])(n5nc(-c6c([H])c([H])c(Oc7c([H])c([H])c(F)c([H])c7F)c([H])c6[H])c(C(=O)N([H])[H])c5N([H])[H])C4([H])[H])c3C([H])([H])C([H])([H])[H])c([H])c([H])c2C1([H])[H]

$$$$
60:0:0
     RDKit          3D

 91 99  0  0  1  0  0  0  0  0999 V2000
  -31.8840  -19.9990   19.7020 C   0  0  0  0  0  3  0  0  0  0  0  0
  -29.5180  -19.3260   20.8910 C   0  0  0  0  0  3  0  0  0  0  0  0
  -30.9240  -21.0180   19.8730 C   0  0  0  0  0  0  0  0  0  0  0  0
  -30.4770  -18.2000   20.6600 C   0  0  0  0  0  0  0  0  0  0  0  0
  -31.7410  -18.6730   20.1850 C   0  0  0  0  0  0  0  0  0  0  0  0
  -29.7270  -20.7740   20.5770 C   0  0  0  0  0  0  0  0  0  0  0  0
  -31.2760  -22.4100   19.3810 C   0  0  0  0  0  1  0  0  0  0  0  0
  -30.2100  -16.5920   21.0570 C   0  0  0  0  0  2  0  0  0  0  0  0
  -30.9610  -15.1820   20.5350 C   0  0  0  0  0  0  0  0  0  0  0  0
  -30.8120  -12.8980   19.4300 C   0  0  0  0  0  2  0  0  0  0  0  0
  -29.9020  -12.9840   18.1830 C   0  0  0  0  0  2  0  0  0  0  0  0
  -28.4290  -12.7540   18.5770 C   0  0  0  0  0  2  0  0  0  0  0  0
  -28.0210  -13.5890   19.8220 C   0  0  0  0  0  3  0  0  0  0  0  0
  -29.0610  -13.5040   20.9590 C   0  0  0  0  0  2  0  0  0  0  0  0
  -30.3550  -13.9270   20.4120 N   0  0  0  0  0  0  0  0  0  0  0  0
  -32.1250  -15.2160   20.1330 O   0  0  0  0  0  0  0  0  0  0  0  0
  -25.6160  -14.1240   20.5200 C   0  0  0  0  0  0  0  0  0  0  0  0
  -24.5540  -13.3310   20.8610 C   0  0  0  0  0  0  0  0  0  0  0  0
  -25.0370  -11.9860   20.8210 C   0  0  0  0  0  0  0  0  0  0  0  0
  -26.6750  -13.2630   20.2860 N   0  0  0  0  0  0  0  0  0  0  0  0
  -26.3350  -11.9700   20.5330 N   0  0  0  0  0  0  0  0  0  0  0  0
  -24.3200  -10.7140   20.9800 C   0  0  0  0  0  0  0  0  0  0  0  0
  -24.7070   -9.7650   21.9530 C   0  0  0  0  0  3  0  0  0  0  0  0
  -23.9910   -8.5580   22.0990 C   0  0  0  0  0  3  0  0  0  0  0  0
  -22.8730   -8.2900   21.2730 C   0  0  0  0  0  0  0  0  0  0  0  0
  -22.5090   -9.2270   20.2900 C   0  0  0  0  0  3  0  0  0  0  0  0
  -23.2260  -10.4250   20.1410 C   0  0  0  0  0  3  0  0  0  0  0  0
  -22.1350   -7.1330   21.3270 O   0  0  0  0  0  0  0  0  0  0  0  0
  -21.9580   -6.4450   22.5000 C   0  0  0  0  0  0  0  0  0  0  0  0
  -21.3780   -7.0470   23.6380 C   0  0  0  0  0  3  0  0  0  0  0  0
  -21.1470   -6.2830   24.7990 C   0  0  0  0  0  3  0  0  0  0  0  0
  -21.4900   -4.9180   24.8230 C   0  0  0  0  0  0  0  0  0  0  0  0
  -22.0660   -4.3160   23.6910 C   0  0  0  0  0  3  0  0  0  0  0  0
  -22.2950   -5.0770   22.5310 C   0  0  0  0  0  0  0  0  0  0  0  0
  -22.8270   -4.4850   21.4350 F   0  0  0  0  0  0  0  0  0  0  0  0
  -21.2640   -4.1820   25.9370 F   0  0  0  0  0  0  0  0  0  0  0  0
  -23.1450  -13.7880   21.1080 C   0  0  0  0  0  0  0  0  0  0  0  0
  -22.4090  -13.0810   21.9610 N   0  0  0  0  0  0  0  0  0  0  0  0
  -22.7030  -14.8050   20.5750 O   0  0  0  0  0  0  0  0  0  0  0  0
  -22.7780  -12.2630   22.4190 H   0  0  0  0  0  0  0  0  0  0  0  0
  -21.4600  -13.3680   22.1550 H   0  0  0  0  0  0  0  0  0  0  0  0
  -25.7650  -15.5000   20.3680 N   0  0  0  0  0  0  0  0  0  0  0  0
  -24.9860  -16.1400   20.4770 H   0  0  0  0  0  0  0  0  0  0  0  0
  -26.6140  -15.9570   20.0610 H   0  0  0  0  0  0  0  0  0  0  0  0
  -33.0190  -17.8370   20.2520 C   0  0  0  0  0  2  0  0  0  0  0  0
  -35.5710  -17.6950   20.0320 C   0  0  0  0  0  1  0  0  0  0  0  0
  -34.3430  -18.6110   20.0650 C   0  0  0  0  0  2  0  0  0  0  0  0
  -28.9330  -22.1070   21.1600 C   0  0  0  0  0  2  0  0  0  0  0  0
  -28.1070  -23.3560   20.3830 C   0  0  0  0  0  2  0  0  0  0  0  0
  -28.4540  -24.9760   20.0330 C   0  0  0  0  0  2  0  0  0  0  0  0
  -28.1950  -26.3700   20.6630 O   0  0  0  0  0  0  0  0  0  0  0  0
  -24.5550  -32.0780   23.4250 C   0  0  0  0  0  0  0  0  0  0  0  0
  -27.1220  -27.3120   20.4760 C   0  0  0  0  0  0  0  0  0  0  0  0
  -23.3480  -30.6640   21.8010 C   0  0  0  0  0  3  0  0  0  0  0  0
  -24.7910  -29.0480   20.4020 C   0  0  0  0  0  0  0  0  0  0  0  0
  -25.8980  -30.9120   21.6370 C   0  0  0  0  0  2  0  0  0  0  0  0
  -25.9630  -29.5090   21.0100 C   0  0  0  0  0  0  0  0  0  0  0  0
  -27.1220  -28.6510   21.0380 C   0  0  0  0  0  3  0  0  0  0  0  0
  -25.9310  -26.9430   19.8180 C   0  0  0  0  0  3  0  0  0  0  0  0
  -24.7860  -27.7790   19.7900 C   0  0  0  0  0  3  0  0  0  0  0  0
  -23.5630  -29.9490   20.4350 C   0  0  0  0  0  2  0  0  0  0  0  0
  -24.6200  -31.2420   22.3430 N   0  0  0  0  0  0  0  0  0  0  0  0
  -23.4710  -32.3790   23.9480 O   0  0  0  0  0  0  0  0  0  0  0  0
  -22.6570  -29.6840   22.7830 C   0  0  0  0  0  0  0  0  0  0  0  0
  -21.3380  -29.4750   22.6150 N   0  0  0  0  0  0  0  0  0  0  0  0
  -23.3120  -29.1110   23.6560 O   0  0  0  0  0  0  0  0  0  0  0  0
  -20.8650  -29.9920   21.8870 H   0  0  0  0  0  0  0  0  0  0  0  0
  -17.9880  -28.1560   22.9960 C   0  0  0  0  0  0  0  0  0  0  0  0
  -20.5120  -28.5490   23.3940 C   0  0  0  0  0  3  0  0  0  0  0  0
  -20.7070  -27.0910   22.9170 C   0  0  0  0  0  2  0  0  0  0  0  0
  -19.6850  -26.6590   21.8610 C   0  0  0  0  0  2  0  0  0  0  0  0
  -18.2620  -26.7790   22.4130 C   0  0  0  0  0  2  0  0  0  0  0  0
  -19.0450  -28.9940   23.4420 C   0  0  0  0  0  0  0  0  0  0  0  0
  -18.7360  -30.2760   23.9450 C   0  0  0  0  0  3  0  0  0  0  0  0
  -17.4040  -30.7240   24.0060 C   0  0  0  0  0  3  0  0  0  0  0  0
  -16.3600  -29.8860   23.5760 C   0  0  0  0  0  3  0  0  0  0  0  0
  -16.6530  -28.6030   23.0780 C   0  0  0  0  0  3  0  0  0  0  0  0
  -25.8380  -32.7140   24.0450 C   0  0  0  0  0  3  0  0  0  0  0  0
  -25.5490  -34.1310   24.3200 N   0  0  0  0  0  0  0  0  0  0  0  0
  -25.9190  -35.1530   23.5360 C   0  0  0  0  0  0  0  0  0  0  0  0
  -26.6030  -35.0010   22.5200 O   0  0  0  0  0  0  0  0  0  0  0  0
  -24.9450  -34.3230   25.1060 H   0  0  0  0  0  0  0  0  0  0  0  0
  -24.2330  -36.9740   23.1070 C   0  0  0  0  0  1  0  0  0  0  0  0
  -25.4590  -36.5680   23.9420 C   0  0  0  0  0  3  0  0  0  0  0  0
  -27.6040  -37.4400   24.7620 C   0  0  0  0  0  1  0  0  0  0  0  0
  -26.5150  -37.5940   23.8010 N   0  0  0  0  0  0  0  0  0  0  0  0
  -26.1260  -38.5280   23.9100 H   0  0  0  0  0  0  0  0  0  0  0  0
  -26.3170  -31.9870   25.3630 C   0  0  1  0  0  0  0  0  0  0  0  0
  -25.1990  -31.8020   26.4170 C   0  0  0  0  0  1  0  0  0  0  0  0
  -26.8890  -30.5880   25.0410 C   0  0  0  0  0  1  0  0  0  0  0  0
  -27.4620  -32.7930   26.0210 C   0  0  0  0  0  1  0  0  0  0  0  0
  1  3  2  0
  1  5  1  0
  3  6  1  0
  4  2  1  0
  4  8  1  0
  5 45  1  0
  5  4  2  0
  6  2  2  0
  6 48  1  0
  7  3  1  0
  9  8  1  0
 10 15  1  0
 11 12  1  0
 11 10  1  0
 13 12  1  0
 13 20  1  0
 13 14  1  0
 15  9  1  0
 15 14  1  0
 16  9  2  0
 17 18  2  0
 18 37  1  0
 19 18  1  0
 19 22  1  0
 20 17  1  0
 20 21  1  0
 21 19  2  0
 22 23  1  0
 23 24  2  0
 25 28  1  0
 25 24  1  0
 26 25  2  0
 27 26  1  0
 27 22  2  0
 28 29  1  0
 29 34  2  0
 29 30  1  0
 30 31  2  0
 31 32  1  0
 32 36  1  0
 33 32  2  0
 34 33  1  0
 35 34  1  0
 37 38  1  0
 38 41  1  0
 38 40  1  0
 39 37  2  0
 42 43  1  0
 42 17  1  0
 44 42  1  0
 46 47  1  0
 47 45  1  0
 49 48  1  0
 50 49  1  0
 50 51  1  0
 52 63  2  0
 53 51  1  0
 53 58  1  0
 54 62  1  0
 54 64  1  0
 55 61  1  0
 55 57  1  0
 56 62  1  0
 57 58  2  0
 57 56  1  0
 59 53  2  0
 60 59  1  0
 60 55  2  0
 61 54  1  0
 62 52  1  0
 64 66  2  0
 65 64  1  0
 67 65  1  0
 68 77  2  0
 68 73  1  0
 69 65  1  0
 69 73  1  0
 70 69  1  0
 71 72  1  0
 71 70  1  0
 72 68  1  0
 73 74  2  0
 74 75  1  0
 76 75  2  0
 77 76  1  0
 78 52  1  0
 78 79  1  0
 78 88  1  0
 79 82  1  0
 80 84  1  0
 80 79  1  0
 81 80  2  0
 84 83  1  0
 86 87  1  0
 86 84  1  0
 86 85  1  0
 88 91  1  1
 88 89  1  0
 90 88  1  0
M  ISO  4   8 100   9 100  50 101  51 101
M  END
>  <TORSDO>  (61) 
F 22

>  <SCORE>  (61) 
-12.231

>  <name>  (61) 
60

>  <ligand_id>  (61) 
60

>  <original_smiles>  (61) 
[H]c1c([H])c([H])c2c(c1[H])C([H])([H])C([H])([H])C([H])([H])C2([H])N([H])C(=O)C1([H])N(C(=O)C([H])(N([H])C(=O)C([H])(N([H])C([H])([H])[H])C([H])([H])[H])C(C([H])([H])[H])(C([H])([H])[H])C([H])([H])[H])C([H])([H])c2c([H])c(OC([H])([H])C([H])([H])C([H])([H])c3c([H])c(C([H])([H])C(=O)N4C([H])([H])C([H])([H])C([H])([H])C([H])(n5nc(-c6c([H])c([H])c(Oc7c([H])c([H])c(F)c([H])c7F)c([H])c6[H])c(C(=O)N([H])[H])c5N([H])[H])C4([H])[H])c(C([H])([H])C([H])([H])C([H])([H])[H])c([H])c3C([H])([H])[H])c([H])c([H])c2C1([H])[H]

>  <smiles>  (61) 
[H]c1c([H])c([H])c2c(c1[H])C([H])([H])C([H])([H])C([H])([H])C2([H])N([H])C(=O)C1([H])N(C(=O)C([H])(N([H])C(=O)C([H])(N([H])C([H])([H])[H])C([H])([H])[H])C(C([H])([H])[H])(C([H])([H])[H])C([H])([H])[H])C([H])([H])c2c([H])c(OC([H])([H])C([H])([H])C([H])([H])c3c([H])c(C([H])([H])C(=O)N4C([H])([H])C([H])([H])C([H])([H])C([H])(n5nc(-c6c([H])c([H])c(Oc7c([H])c([H])c(F)c([H])c7F)c([H])c6[H])c(C(=O)N([H])[H])c5N([H])[H])C4([H])[H])c(C([H])([H])C([H])([H])C([H])([H])[H])c([H])c3C([H])([H])[H])c([H])c([H])c2C1([H])[H]

$$$$
61:0:0
     RDKit          3D

 91 99  0  0  1  0  0  0  0  0999 V2000
  -28.4380  -22.6170   22.0390 C   0  0  0  0  0  3  0  0  0  0  0  0
  -27.9640  -23.7560   22.7090 C   0  0  0  0  0  3  0  0  0  0  0  0
  -28.8870  -22.6790   20.7090 C   0  0  0  0  0  0  0  0  0  0  0  0
  -27.9190  -25.0240   22.0900 C   0  0  0  0  0  0  0  0  0  0  0  0
  -28.8040  -23.9870   20.0580 C   0  0  0  0  0  0  0  0  0  0  0  0
  -28.3150  -25.1880   20.7310 C   0  0  0  0  0  0  0  0  0  0  0  0
  -27.4890  -26.1980   22.9550 C   0  0  0  0  0  1  0  0  0  0  0  0
  -29.2890  -24.1240   18.6270 C   0  0  0  0  0  1  0  0  0  0  0  0
  -28.3390  -26.4950   20.1490 O   0  0  0  0  0  0  0  0  0  0  0  0
  -24.5570  -31.8820   23.1610 C   0  0  0  0  0  0  0  0  0  0  0  0
  -27.2190  -27.3470   20.1180 C   0  0  0  0  0  0  0  0  0  0  0  0
  -23.3670  -30.4760   21.5130 C   0  0  0  0  0  3  0  0  0  0  0  0
  -24.8380  -28.9370   20.0850 C   0  0  0  0  0  0  0  0  0  0  0  0
  -25.9020  -30.8240   21.3290 C   0  0  0  0  0  2  0  0  0  0  0  0
  -26.0000  -29.4450   20.6820 C   0  0  0  0  0  0  0  0  0  0  0  0
  -27.1960  -28.6650   20.6800 C   0  0  0  0  0  3  0  0  0  0  0  0
  -26.0400  -26.8940   19.4930 C   0  0  0  0  0  3  0  0  0  0  0  0
  -24.8620  -27.6700   19.4750 C   0  0  0  0  0  3  0  0  0  0  0  0
  -23.5900  -29.8020   20.1330 C   0  0  0  0  0  2  0  0  0  0  0  0
  -24.6270  -31.0770   22.0590 N   0  0  0  0  0  0  0  0  0  0  0  0
  -23.4700  -32.1470   23.6980 O   0  0  0  0  0  0  0  0  0  0  0  0
  -22.7130  -29.4530   22.4730 C   0  0  0  0  0  0  0  0  0  0  0  0
  -21.3930  -29.2470   22.3290 N   0  0  0  0  0  0  0  0  0  0  0  0
  -23.3930  -28.8500   23.3090 O   0  0  0  0  0  0  0  0  0  0  0  0
  -20.9030  -29.7870   21.6280 H   0  0  0  0  0  0  0  0  0  0  0  0
  -18.0450  -27.9490   22.7640 C   0  0  0  0  0  0  0  0  0  0  0  0
  -20.5850  -28.2970   23.0930 C   0  0  0  0  0  3  0  0  0  0  0  0
  -20.7510  -26.8600   22.5460 C   0  0  0  0  0  2  0  0  0  0  0  0
  -19.6850  -26.4820   21.5120 C   0  0  0  0  0  2  0  0  0  0  0  0
  -18.2830  -26.5920   22.1210 C   0  0  0  0  0  2  0  0  0  0  0  0
  -19.1260  -28.7540   23.2090 C   0  0  0  0  0  0  0  0  0  0  0  0
  -18.8520  -30.0170   23.7740 C   0  0  0  0  0  3  0  0  0  0  0  0
  -17.5290  -30.4780   23.9010 C   0  0  0  0  0  3  0  0  0  0  0  0
  -16.4610  -29.6720   23.4710 C   0  0  0  0  0  3  0  0  0  0  0  0
  -16.7190  -28.4100   22.9080 C   0  0  0  0  0  3  0  0  0  0  0  0
  -25.8320  -32.5240   23.7870 C   0  0  0  0  0  3  0  0  0  0  0  0
  -26.3600  -31.7490   25.0570 C   0  0  1  0  0  0  0  0  0  0  0  0
  -25.2710  -31.4840   26.1230 C   0  0  0  0  0  1  0  0  0  0  0  0
  -26.9640  -30.3840   24.6530 C   0  0  0  0  0  1  0  0  0  0  0  0
  -27.4960  -32.5550   25.7280 C   0  0  0  0  0  1  0  0  0  0  0  0
  -25.5060  -33.9170   24.1300 N   0  0  0  0  0  0  0  0  0  0  0  0
  -25.8190  -34.9810   23.3790 C   0  0  0  0  0  0  0  0  0  0  0  0
  -26.4840  -34.8950   22.3430 O   0  0  0  0  0  0  0  0  0  0  0  0
  -24.9080  -34.0560   24.9310 H   0  0  0  0  0  0  0  0  0  0  0  0
  -24.0660  -36.7600   23.0520 C   0  0  0  0  0  1  0  0  0  0  0  0
  -25.3180  -36.3600   23.8520 C   0  0  0  0  0  3  0  0  0  0  0  0
  -27.4440  -37.2650   24.6780 C   0  0  0  0  0  1  0  0  0  0  0  0
  -26.3350  -37.4280   23.7420 N   0  0  0  0  0  0  0  0  0  0  0  0
  -25.9190  -38.3420   23.8980 H   0  0  0  0  0  0  0  0  0  0  0  0
  -29.5680  -21.3510   20.1430 C   0  0  0  0  0  2  0  0  0  0  0  0
  -28.8620  -19.9060   20.3040 C   0  0  0  0  0  2  0  0  0  0  0  0
  -29.6220  -18.5700   20.8320 C   0  0  0  0  0  2  0  0  0  0  0  0
  -29.9670  -17.3200   19.8750 C   0  0  0  0  0  2  0  0  0  0  0  0
  -30.5760  -14.7710   20.0650 C   0  0  0  0  0  0  0  0  0  0  0  0
  -30.3140  -12.5190   19.0280 C   0  0  0  0  0  2  0  0  0  0  0  0
  -29.3260  -12.6430   17.8440 C   0  0  0  0  0  2  0  0  0  0  0  0
  -27.8740  -12.4780   18.3330 C   0  0  0  0  0  2  0  0  0  0  0  0
  -27.5640  -13.3390   19.5870 C   0  0  0  0  0  3  0  0  0  0  0  0
  -28.6670  -13.2060   20.6620 C   0  0  0  0  0  2  0  0  0  0  0  0
  -29.9470  -13.5490   20.0280 N   0  0  0  0  0  0  0  0  0  0  0  0
  -31.7220  -14.8950   19.6200 O   0  0  0  0  0  0  0  0  0  0  0  0
  -29.8210  -15.8840   20.3810 N   0  0  0  0  0  0  0  0  0  0  0  0
  -28.9190  -15.6630   20.7750 H   0  0  0  0  0  0  0  0  0  0  0  0
  -25.2020  -13.9290   20.4020 C   0  0  0  0  0  0  0  0  0  0  0  0
  -24.1500  -13.1550   20.8100 C   0  0  0  0  0  0  0  0  0  0  0  0
  -24.6110  -11.8040   20.7590 C   0  0  0  0  0  0  0  0  0  0  0  0
  -26.2370  -13.0500   20.1250 N   0  0  0  0  0  0  0  0  0  0  0  0
  -25.8900  -11.7660   20.4020 N   0  0  0  0  0  0  0  0  0  0  0  0
  -23.8920  -10.5410   20.9760 C   0  0  0  0  0  0  0  0  0  0  0  0
  -24.3560   -9.5740   21.8940 C   0  0  0  0  0  3  0  0  0  0  0  0
  -23.6350   -8.3780   22.0990 C   0  0  0  0  0  3  0  0  0  0  0  0
  -22.4370   -8.1400   21.3850 C   0  0  0  0  0  0  0  0  0  0  0  0
  -21.9910   -9.0970   20.4550 C   0  0  0  0  0  3  0  0  0  0  0  0
  -22.7120  -10.2840   20.2490 C   0  0  0  0  0  3  0  0  0  0  0  0
  -21.6850   -6.9950   21.4990 O   0  0  0  0  0  0  0  0  0  0  0  0
  -21.6770   -6.2520   22.6500 C   0  0  0  0  0  0  0  0  0  0  0  0
  -21.2930   -6.8040   23.8920 C   0  0  0  0  0  3  0  0  0  0  0  0
  -21.2330   -5.9860   25.0380 C   0  0  0  0  0  3  0  0  0  0  0  0
  -21.5460   -4.6180   24.9450 C   0  0  0  0  0  0  0  0  0  0  0  0
  -21.9210   -4.0640   23.7080 C   0  0  0  0  0  3  0  0  0  0  0  0
  -21.9840   -4.8780   22.5640 C   0  0  0  0  0  0  0  0  0  0  0  0
  -22.3260   -4.3360   21.3710 F   0  0  0  0  0  0  0  0  0  0  0  0
  -21.4800   -3.8300   26.0440 F   0  0  0  0  0  0  0  0  0  0  0  0
  -22.7650  -13.6330   21.1370 C   0  0  0  0  0  0  0  0  0  0  0  0
  -22.0720  -12.9350   22.0300 N   0  0  0  0  0  0  0  0  0  0  0  0
  -22.3080  -14.6600   20.6360 O   0  0  0  0  0  0  0  0  0  0  0  0
  -22.4580  -12.1040   22.4540 H   0  0  0  0  0  0  0  0  0  0  0  0
  -21.1430  -13.2340   22.2930 H   0  0  0  0  0  0  0  0  0  0  0  0
  -25.3560  -15.3000   20.2190 N   0  0  0  0  0  0  0  0  0  0  0  0
  -24.5860  -15.9460   20.3550 H   0  0  0  0  0  0  0  0  0  0  0  0
  -26.1820  -15.7460   19.8410 H   0  0  0  0  0  0  0  0  0  0  0  0
  1  2  1  0
  3  1  2  0
  4  2  2  0
  4  7  1  0
  5  3  1  0
  5  6  2  0
  6  4  1  0
  8  5  1  0
  9  6  1  0
 10 21  2  0
 11  9  1  0
 11 16  1  0
 12 20  1  0
 12 22  1  0
 13 19  1  0
 13 15  1  0
 14 20  1  0
 15 14  1  0
 16 15  2  0
 17 11  2  0
 18 17  1  0
 18 13  2  0
 19 12  1  0
 20 10  1  0
 22 24  2  0
 23 22  1  0
 25 23  1  0
 26 35  2  0
 26 31  1  0
 27 23  1  0
 27 31  1  0
 28 27  1  0
 29 30  1  0
 29 28  1  0
 30 26  1  0
 31 32  2  0
 32 33  1  0
 34 33  2  0
 35 34  1  0
 36 10  1  0
 36 41  1  0
 36 37  1  0
 37 40  1  1
 37 38  1  0
 39 37  1  0
 41 44  1  0
 42 46  1  0
 42 41  1  0
 43 42  2  0
 46 45  1  0
 48 46  1  0
 48 49  1  0
 48 47  1  0
 50 51  1  0
 50  3  1  0
 51 52  1  0
 53 62  1  0
 53 52  1  0
 54 62  1  0
 55 60  1  0
 56 57  1  0
 56 55  1  0
 58 57  1  0
 58 67  1  0
 58 59  1  0
 60 54  1  0
 60 59  1  0
 61 54  2  0
 62 63  1  0
 64 65  2  0
 65 84  1  0
 66 65  1  0
 66 69  1  0
 67 64  1  0
 67 68  1  0
 68 66  2  0
 69 70  1  0
 70 71  2  0
 72 75  1  0
 72 71  1  0
 73 72  2  0
 74 73  1  0
 74 69  2  0
 75 76  1  0
 76 77  1  0
 77 78  2  0
 79 78  1  0
 79 83  1  0
 80 79  2  0
 81 76  2  0
 81 80  1  0
 82 81  1  0
 84 85  1  0
 85 88  1  0
 85 87  1  0
 86 84  2  0
 89 90  1  0
 89 64  1  0
 91 89  1  0
M  ISO  4   6 101   9 101  54 100  62 100
M  END
>  <TORSDO>  (62) 
F 20

>  <SCORE>  (62) 
-13.209

>  <name>  (62) 
61

>  <ligand_id>  (62) 
61

>  <original_smiles>  (62) 
[H]c1c([H])c([H])c2c(c1[H])C([H])([H])C([H])([H])C([H])([H])C2([H])N([H])C(=O)C1([H])N(C(=O)C([H])(N([H])C(=O)C([H])(N([H])C([H])([H])[H])C([H])([H])[H])C(C([H])([H])[H])(C([H])([H])[H])C([H])([H])[H])C([H])([H])c2c([H])c(Oc3c(C([H])([H])[H])c([H])c([H])c(C([H])([H])C([H])([H])C([H])([H])C([H])([H])N([H])C(=O)N4C([H])([H])C([H])([H])C([H])([H])C([H])(n5nc(-c6c([H])c([H])c(Oc7c([H])c([H])c(F)c([H])c7F)c([H])c6[H])c(C(=O)N([H])[H])c5N([H])[H])C4([H])[H])c3C([H])([H])[H])c([H])c([H])c2C1([H])[H]

>  <smiles>  (62) 
[H]c1c([H])c([H])c2c(c1[H])C([H])([H])C([H])([H])C([H])([H])C2([H])N([H])C(=O)C1([H])N(C(=O)C([H])(N([H])C(=O)C([H])(N([H])C([H])([H])[H])C([H])([H])[H])C(C([H])([H])[H])(C([H])([H])[H])C([H])([H])[H])C([H])([H])c2c([H])c(Oc3c(C([H])([H])[H])c([H])c([H])c(C([H])([H])C([H])([H])C([H])([H])C([H])([H])N([H])C(=O)N4C([H])([H])C([H])([H])C([H])([H])C([H])(n5nc(-c6c([H])c([H])c(Oc7c([H])c([H])c(F)c([H])c7F)c([H])c6[H])c(C(=O)N([H])[H])c5N([H])[H])C4([H])[H])c3C([H])([H])[H])c([H])c([H])c2C1([H])[H]

$$$$
62:0:0
     RDKit          3D

 93101  0  0  1  0  0  0  0  0999 V2000
  -27.9170  -24.0680   19.9270 C   0  0  0  0  0  3  0  0  0  0  0  0
  -29.0630  -25.6360   21.3710 C   0  0  0  0  0  3  0  0  0  0  0  0
  -28.6170  -22.9260   20.5090 C   0  0  0  0  0  0  0  0  0  0  0  0
  -29.7570  -24.5640   21.9760 C   0  0  0  0  0  0  0  0  0  0  0  0
  -28.1020  -25.4440   20.3550 C   0  0  0  0  0  0  0  0  0  0  0  0
  -29.4890  -23.2190   21.6010 C   0  0  0  0  0  0  0  0  0  0  0  0
  -30.8720  -24.8880   22.9730 C   0  0  0  0  0  1  0  0  0  0  0  0
  -28.4380  -21.4620   19.9610 C   0  0  0  0  0  0  0  0  0  0  0  0
  -27.5790  -21.2320   19.1050 O   0  0  0  0  0  0  0  0  0  0  0  0
  -29.3290  -20.2070   20.4160 C   0  0  0  0  0  3  0  0  0  0  0  0
  -29.0490  -18.7020   19.8680 C   0  0  0  0  0  3  0  0  0  0  0  0
  -30.0900  -17.5180   20.2550 C   0  0  0  0  0  2  0  0  0  0  0  0
  -30.4630  -14.9290   19.9070 C   0  0  0  0  0  0  0  0  0  0  0  0
  -30.2740  -12.6270   18.9640 C   0  0  0  0  0  2  0  0  0  0  0  0
  -29.2510  -12.6080   17.8090 C   0  0  0  0  0  2  0  0  0  0  0  0
  -27.8310  -12.3720   18.3570 C   0  0  0  0  0  2  0  0  0  0  0  0
  -27.5000  -13.3010   19.5550 C   0  0  0  0  0  3  0  0  0  0  0  0
  -28.6330  -13.3140   20.6030 C   0  0  0  0  0  2  0  0  0  0  0  0
  -29.8660  -13.6930   19.9050 N   0  0  0  0  0  0  0  0  0  0  0  0
  -31.6190  -15.0590   19.4940 O   0  0  0  0  0  0  0  0  0  0  0  0
  -29.6880  -16.0450   20.1830 N   0  0  0  0  0  0  0  0  0  0  0  0
  -28.7300  -15.8450   20.4310 H   0  0  0  0  0  0  0  0  0  0  0  0
  -25.1830  -13.8340   20.5140 C   0  0  0  0  0  0  0  0  0  0  0  0
  -24.1580  -13.0300   20.9430 C   0  0  0  0  0  0  0  0  0  0  0  0
  -24.6280  -11.6890   20.8120 C   0  0  0  0  0  0  0  0  0  0  0  0
  -26.2080  -12.9770   20.1510 N   0  0  0  0  0  0  0  0  0  0  0  0
  -25.8900  -11.6810   20.3950 N   0  0  0  0  0  0  0  0  0  0  0  0
  -23.9320  -10.4090   21.0080 C   0  0  0  0  0  0  0  0  0  0  0  0
  -24.3980   -9.4470   21.9320 C   0  0  0  0  0  3  0  0  0  0  0  0
  -23.6970   -8.2350   22.1130 C   0  0  0  0  0  3  0  0  0  0  0  0
  -22.5190   -7.9750   21.3740 C   0  0  0  0  0  0  0  0  0  0  0  0
  -22.0700   -8.9290   20.4420 C   0  0  0  0  0  3  0  0  0  0  0  0
  -22.7730  -10.1310   20.2570 C   0  0  0  0  0  3  0  0  0  0  0  0
  -21.7910   -6.8110   21.4670 O   0  0  0  0  0  0  0  0  0  0  0  0
  -21.7100   -6.1080   22.6420 C   0  0  0  0  0  0  0  0  0  0  0  0
  -21.1350   -6.6610   23.8070 C   0  0  0  0  0  3  0  0  0  0  0  0
  -21.0050   -5.8750   24.9700 C   0  0  0  0  0  3  0  0  0  0  0  0
  -21.4500   -4.5380   24.9710 C   0  0  0  0  0  0  0  0  0  0  0  0
  -22.0270   -3.9880   23.8140 C   0  0  0  0  0  3  0  0  0  0  0  0
  -22.1520   -4.7690   22.6510 C   0  0  0  0  0  0  0  0  0  0  0  0
  -22.6820   -4.2270   21.5290 F   0  0  0  0  0  0  0  0  0  0  0  0
  -21.3230   -3.7810   26.0860 F   0  0  0  0  0  0  0  0  0  0  0  0
  -22.7880  -13.4800   21.3560 C   0  0  0  0  0  0  0  0  0  0  0  0
  -22.1500  -12.7400   22.2580 N   0  0  0  0  0  0  0  0  0  0  0  0
  -22.2950  -14.5140   20.9120 O   0  0  0  0  0  0  0  0  0  0  0  0
  -22.5660  -11.9020   22.6330 H   0  0  0  0  0  0  0  0  0  0  0  0
  -21.2350  -13.0150   22.5790 H   0  0  0  0  0  0  0  0  0  0  0  0
  -25.3240  -15.2110   20.3770 N   0  0  0  0  0  0  0  0  0  0  0  0
  -24.5780  -15.8650   20.5870 H   0  0  0  0  0  0  0  0  0  0  0  0
  -26.1470  -15.6570   19.9890 H   0  0  0  0  0  0  0  0  0  0  0  0
  -29.6080  -21.9630   23.6000 C   0  0  0  0  0  1  0  0  0  0  0  0
  -30.1170  -22.2050   22.2850 O   0  0  0  0  0  0  0  0  0  0  0  0
  -27.6700  -26.6180   19.6800 O   0  0  0  0  0  0  0  0  0  0  0  0
  -24.2600  -32.0230   23.1670 C   0  0  0  0  0  0  0  0  0  0  0  0
  -26.5390  -27.4210   19.9230 C   0  0  0  0  0  0  0  0  0  0  0  0
  -22.9110  -30.7100   21.5630 C   0  0  0  0  0  3  0  0  0  0  0  0
  -24.2260  -29.1180   20.0510 C   0  0  0  0  0  0  0  0  0  0  0  0
  -25.4470  -30.9350   21.2490 C   0  0  0  0  0  2  0  0  0  0  0  0
  -25.4420  -29.5560   20.5950 C   0  0  0  0  0  0  0  0  0  0  0  0
  -26.6010  -28.7220   20.5130 C   0  0  0  0  0  3  0  0  0  0  0  0
  -25.3020  -27.0290   19.3730 C   0  0  0  0  0  3  0  0  0  0  0  0
  -24.1590  -27.8580   19.4320 C   0  0  0  0  0  3  0  0  0  0  0  0
  -23.0260  -30.0400   20.1660 C   0  0  0  0  0  2  0  0  0  0  0  0
  -24.2280  -31.2380   22.0500 N   0  0  0  0  0  0  0  0  0  0  0  0
  -23.2230  -32.3300   23.7710 O   0  0  0  0  0  0  0  0  0  0  0  0
  -22.2570  -29.7050   22.5420 C   0  0  0  0  0  0  0  0  0  0  0  0
  -20.9280  -29.5360   22.4410 N   0  0  0  0  0  0  0  0  0  0  0  0
  -22.9460  -29.0790   23.3540 O   0  0  0  0  0  0  0  0  0  0  0  0
  -20.4330  -30.0900   21.7570 H   0  0  0  0  0  0  0  0  0  0  0  0
  -17.5570  -28.3150   22.9480 C   0  0  0  0  0  0  0  0  0  0  0  0
  -20.1130  -28.6050   23.2270 C   0  0  0  0  0  3  0  0  0  0  0  0
  -20.2330  -27.1610   22.6850 C   0  0  0  0  0  2  0  0  0  0  0  0
  -19.1390  -26.8060   21.6730 C   0  0  0  0  0  2  0  0  0  0  0  0
  -17.7520  -26.9520   22.3060 C   0  0  0  0  0  2  0  0  0  0  0  0
  -18.6680  -29.0980   23.3660 C   0  0  0  0  0  0  0  0  0  0  0  0
  -18.4340  -30.3710   23.9280 C   0  0  0  0  0  3  0  0  0  0  0  0
  -17.1230  -30.8620   24.0820 C   0  0  0  0  0  3  0  0  0  0  0  0
  -16.0270  -30.0770   23.6780 C   0  0  0  0  0  3  0  0  0  0  0  0
  -16.2470  -28.8060   23.1160 C   0  0  0  0  0  3  0  0  0  0  0  0
  -25.6040  -32.5850   23.7280 C   0  0  0  0  0  3  0  0  0  0  0  0
  -25.3830  -33.9950   24.0760 N   0  0  0  0  0  0  0  0  0  0  0  0
  -25.7670  -35.0350   23.3220 C   0  0  0  0  0  0  0  0  0  0  0  0
  -26.4100  -34.9030   22.2770 O   0  0  0  0  0  0  0  0  0  0  0  0
  -24.8060  -34.1780   24.8840 H   0  0  0  0  0  0  0  0  0  0  0  0
  -24.1580  -36.9440   23.0010 C   0  0  0  0  0  1  0  0  0  0  0  0
  -25.3710  -36.4470   23.8020 C   0  0  0  0  0  3  0  0  0  0  0  0
  -27.5550  -37.1810   24.6440 C   0  0  0  0  0  1  0  0  0  0  0  0
  -26.4640  -37.4380   23.7080 N   0  0  0  0  0  0  0  0  0  0  0  0
  -26.1130  -38.3750   23.8890 H   0  0  0  0  0  0  0  0  0  0  0  0
  -26.1380  -31.7810   24.9760 C   0  0  1  0  0  0  0  0  0  0  0  0
  -25.0830  -31.5810   26.0890 C   0  0  0  0  0  1  0  0  0  0  0  0
  -26.6410  -30.3820   24.5570 C   0  0  0  0  0  1  0  0  0  0  0  0
  -27.3520  -32.5160   25.5890 C   0  0  0  0  0  1  0  0  0  0  0  0
  1  5  2  0
  1  3  1  0
  2  4  2  0
  3  6  2  0
  4  7  1  0
  5  2  1  0
  6  4  1  0
  6 52  1  0
  8 10  1  0
  8  3  1  0
  9  8  2  0
 11 12  1  0
 11 10  2  0
 13 21  1  0
 14 19  1  0
 15 16  1  0
 15 14  1  0
 17 16  1  0
 17 26  1  0
 17 18  1  0
 19 13  1  0
 19 18  1  0
 20 13  2  0
 21 12  1  0
 21 22  1  0
 23 24  2  0
 24 43  1  0
 25 24  1  0
 25 28  1  0
 26 27  1  0
 26 23  1  0
 27 25  2  0
 28 29  1  0
 29 30  2  0
 31 34  1  0
 31 30  1  0
 32 31  2  0
 33 32  1  0
 33 28  2  0
 34 35  1  0
 35 40  2  0
 35 36  1  0
 36 37  2  0
 37 38  1  0
 38 42  1  0
 39 38  2  0
 40 39  1  0
 41 40  1  0
 43 44  1  0
 44 47  1  0
 44 46  1  0
 45 43  2  0
 48 23  1  0
 48 49  1  0
 50 48  1  0
 52 51  1  0
 53 55  1  0
 53  5  1  0
 54 65  2  0
 55 60  1  0
 56 64  1  0
 56 66  1  0
 57 63  1  0
 57 59  1  0
 58 64  1  0
 59 58  1  0
 60 59  2  0
 61 62  1  0
 61 55  2  0
 62 57  2  0
 63 56  1  0
 64 54  1  0
 66 68  2  0
 67 66  1  0
 69 67  1  0
 70 79  2  0
 70 75  1  0
 71 67  1  0
 71 75  1  0
 72 71  1  0
 73 74  1  0
 73 72  1  0
 74 70  1  0
 75 76  2  0
 76 77  1  0
 78 77  2  0
 79 78  1  0
 80 54  1  0
 80 81  1  0
 80 90  1  0
 81 84  1  0
 82 86  1  0
 82 81  1  0
 83 82  2  0
 86 85  1  0
 88 86  1  0
 88 89  1  0
 88 87  1  0
 90 93  1  1
 90 91  1  0
 92 90  1  0
M  ISO  4   5 101  13 100  21 100  53 101
M  END
>  <TORSDO>  (63) 
F 21

>  <SCORE>  (63) 
-11.352

>  <name>  (63) 
62

>  <ligand_id>  (63) 
62

>  <original_smiles>  (63) 
[H]c1c([H])c([H])c2c(c1[H])C([H])([H])C([H])([H])C([H])([H])C2([H])N([H])C(=O)C1([H])N(C(=O)C([H])(N([H])C(=O)C([H])(N([H])C([H])([H])[H])C([H])([H])[H])C(C([H])([H])[H])(C([H])([H])[H])C([H])([H])[H])C([H])([H])c2c([H])c(Oc3c([H])c(C(=O)C([H])([H])C([H])([H])C([H])([H])N([H])C(=O)N4C([H])([H])C([H])([H])C([H])([H])C([H])(n5nc(-c6c([H])c([H])c(Oc7c([H])c([H])c(F)c([H])c7F)c([H])c6[H])c(C(=O)N([H])[H])c5N([H])[H])C4([H])[H])c(OC([H])([H])[H])c(C([H])([H])[H])c3[H])c([H])c([H])c2C1([H])[H]

>  <smiles>  (63) 
[H]c1c([H])c([H])c2c(c1[H])C([H])([H])C([H])([H])C([H])([H])C2([H])N([H])C(=O)C1([H])N(C(=O)C([H])(N([H])C(=O)C([H])(N([H])C([H])([H])[H])C([H])([H])[H])C(C([H])([H])[H])(C([H])([H])[H])C([H])([H])[H])C([H])([H])c2c([H])c(Oc3c([H])c(C(=O)C([H])([H])C([H])([H])C([H])([H])N([H])C(=O)N4C([H])([H])C([H])([H])C([H])([H])C([H])(n5nc(-c6c([H])c([H])c(Oc7c([H])c([H])c(F)c([H])c7F)c([H])c6[H])c(C(=O)N([H])[H])c5N([H])[H])C4([H])[H])c(OC([H])([H])[H])c(C([H])([H])[H])c3[H])c([H])c([H])c2C1([H])[H]

$$$$
63:0:0
     RDKit          3D

 95103  0  0  1  0  0  0  0  0999 V2000
  -28.0490  -23.2370   21.3590 C   0  0  0  0  0  3  0  0  0  0  0  0
  -27.3480  -25.5720   21.2450 C   0  0  0  0  0  3  0  0  0  0  0  0
  -28.7980  -23.3840   20.1730 C   0  0  0  0  0  0  0  0  0  0  0  0
  -27.2980  -24.3140   21.8780 C   0  0  0  0  0  0  0  0  0  0  0  0
  -28.0740  -25.7580   20.0470 C   0  0  0  0  0  0  0  0  0  0  0  0
  -28.7850  -24.6460   19.5050 C   0  0  0  0  0  0  0  0  0  0  0  0
  -29.4610  -24.8060   18.3400 F   0  0  0  0  0  0  0  0  0  0  0  0
  -25.1460  -23.6070   22.6500 C   0  0  0  0  0  1  0  0  0  0  0  0
  -26.4670  -24.1290   22.9880 N   0  0  0  0  0  0  0  0  0  0  0  0
  -26.4350  -24.9170   23.6340 H   0  0  0  0  0  0  0  0  0  0  0  0
  -29.4860  -22.1690   19.6210 C   0  0  0  0  0  0  0  0  0  0  0  0
  -29.2630  -21.7260   18.4920 O   0  0  0  0  0  0  0  0  0  0  0  0
  -30.5640  -21.4800   20.4930 C   0  0  0  0  0  2  0  0  0  0  0  0
  -30.2000  -20.1720   21.2750 C   0  0  0  0  0  2  0  0  0  0  0  0
  -30.2370  -18.7930   20.5300 C   0  0  0  0  0  2  0  0  0  0  0  0
  -30.9700  -17.6610   21.3280 C   0  0  0  0  0  2  0  0  0  0  0  0
  -31.2680  -15.2550   20.5290 C   0  0  0  0  0  0  0  0  0  0  0  0
  -31.0220  -13.0640   19.4010 C   0  0  0  0  0  2  0  0  0  0  0  0
  -30.1150  -13.2270   18.1630 C   0  0  0  0  0  2  0  0  0  0  0  0
  -28.6310  -13.0840   18.5560 C   0  0  0  0  0  2  0  0  0  0  0  0
  -28.2510  -13.9550   19.7850 C   0  0  0  0  0  3  0  0  0  0  0  0
  -29.2720  -13.7680   20.9290 C   0  0  0  0  0  2  0  0  0  0  0  0
  -30.6080  -14.0720   20.3920 N   0  0  0  0  0  0  0  0  0  0  0  0
  -32.4210  -15.4240   20.1160 O   0  0  0  0  0  0  0  0  0  0  0  0
  -30.5360  -16.2810   21.0210 N   0  0  0  0  0  0  0  0  0  0  0  0
  -29.5890  -16.0460   21.2850 H   0  0  0  0  0  0  0  0  0  0  0  0
  -25.8610  -14.5910   20.4890 C   0  0  0  0  0  0  0  0  0  0  0  0
  -24.7660  -13.8320   20.8010 C   0  0  0  0  0  0  0  0  0  0  0  0
  -25.1910  -12.4710   20.7160 C   0  0  0  0  0  0  0  0  0  0  0  0
  -26.8840  -13.6930   20.2320 N   0  0  0  0  0  0  0  0  0  0  0  0
  -26.4850  -12.4100   20.4270 N   0  0  0  0  0  0  0  0  0  0  0  0
  -24.4310  -11.2210   20.8360 C   0  0  0  0  0  0  0  0  0  0  0  0
  -24.7980  -10.2180   21.7600 C   0  0  0  0  0  3  0  0  0  0  0  0
  -24.0410   -9.0320   21.8660 C   0  0  0  0  0  3  0  0  0  0  0  0
  -22.9040   -8.8410   21.0470 C   0  0  0  0  0  0  0  0  0  0  0  0
  -22.5560   -9.8320   20.1140 C   0  0  0  0  0  3  0  0  0  0  0  0
  -23.3140  -11.0110   20.0050 C   0  0  0  0  0  3  0  0  0  0  0  0
  -22.1240   -7.7090   21.0630 O   0  0  0  0  0  0  0  0  0  0  0  0
  -21.9410   -6.9770   22.2080 C   0  0  0  0  0  0  0  0  0  0  0  0
  -21.3730   -7.5420   23.3710 C   0  0  0  0  0  3  0  0  0  0  0  0
  -21.1380   -6.7350   24.5030 C   0  0  0  0  0  3  0  0  0  0  0  0
  -21.4640   -5.3650   24.4720 C   0  0  0  0  0  0  0  0  0  0  0  0
  -22.0230   -4.8000   23.3110 C   0  0  0  0  0  3  0  0  0  0  0  0
  -22.2580   -5.6040   22.1820 C   0  0  0  0  0  0  0  0  0  0  0  0
  -22.7790   -5.0510   21.0610 F   0  0  0  0  0  0  0  0  0  0  0  0
  -21.2330   -4.5880   25.5540 F   0  0  0  0  0  0  0  0  0  0  0  0
  -23.3760  -14.3350   21.0700 C   0  0  0  0  0  0  0  0  0  0  0  0
  -22.6140  -13.6280   21.8960 N   0  0  0  0  0  0  0  0  0  0  0  0
  -22.9750  -15.3910   20.5830 O   0  0  0  0  0  0  0  0  0  0  0  0
  -22.9460  -12.7720   22.3160 H   0  0  0  0  0  0  0  0  0  0  0  0
  -21.6820  -13.9500   22.1150 H   0  0  0  0  0  0  0  0  0  0  0  0
  -26.0690  -15.9620   20.3810 N   0  0  0  0  0  0  0  0  0  0  0  0
  -25.3250  -16.6360   20.5220 H   0  0  0  0  0  0  0  0  0  0  0  0
  -26.9390  -16.3900   20.0880 H   0  0  0  0  0  0  0  0  0  0  0  0
  -28.0820  -27.0070   19.4310 O   0  0  0  0  0  0  0  0  0  0  0  0
  -24.5610  -31.9610   23.2200 C   0  0  0  0  0  0  0  0  0  0  0  0
  -26.9610  -27.8060   19.5670 C   0  0  0  0  0  0  0  0  0  0  0  0
  -23.2540  -30.7640   21.4960 C   0  0  0  0  0  3  0  0  0  0  0  0
  -24.6120  -29.3630   19.8470 C   0  0  0  0  0  0  0  0  0  0  0  0
  -25.7790  -31.0890   21.2240 C   0  0  0  0  0  2  0  0  0  0  0  0
  -25.8070  -29.7950   20.4350 C   0  0  0  0  0  0  0  0  0  0  0  0
  -26.9890  -29.0240   20.2920 C   0  0  0  0  0  3  0  0  0  0  0  0
  -25.7500  -27.3990   18.9710 C   0  0  0  0  0  3  0  0  0  0  0  0
  -24.5790  -28.1690   19.1110 C   0  0  0  0  0  3  0  0  0  0  0  0
  -23.3880  -30.2340   20.0460 C   0  0  0  0  0  2  0  0  0  0  0  0
  -24.5520  -31.2810   22.0380 N   0  0  0  0  0  0  0  0  0  0  0  0
  -23.5090  -32.1920   23.8350 O   0  0  0  0  0  0  0  0  0  0  0  0
  -22.6240  -29.6580   22.3750 C   0  0  0  0  0  0  0  0  0  0  0  0
  -21.2890  -29.5230   22.3010 N   0  0  0  0  0  0  0  0  0  0  0  0
  -23.3330  -28.9350   23.0790 O   0  0  0  0  0  0  0  0  0  0  0  0
  -20.7780  -30.1580   21.7040 H   0  0  0  0  0  0  0  0  0  0  0  0
  -17.9070  -28.4310   22.9480 C   0  0  0  0  0  0  0  0  0  0  0  0
  -20.4900  -28.5190   23.0030 C   0  0  0  0  0  3  0  0  0  0  0  0
  -20.4490  -27.1880   22.2180 C   0  0  0  0  0  2  0  0  0  0  0  0
  -19.2440  -27.0770   21.2810 C   0  0  0  0  0  2  0  0  0  0  0  0
  -17.9400  -27.1880   22.0770 C   0  0  0  0  0  2  0  0  0  0  0  0
  -19.1060  -29.0640   23.3700 C   0  0  0  0  0  0  0  0  0  0  0  0
  -19.0200  -30.2340   24.1540 C   0  0  0  0  0  3  0  0  0  0  0  0
  -17.7690  -30.7690   24.5180 C   0  0  0  0  0  3  0  0  0  0  0  0
  -16.5870  -30.1260   24.1140 C   0  0  0  0  0  3  0  0  0  0  0  0
  -16.6580  -28.9590   23.3350 C   0  0  0  0  0  3  0  0  0  0  0  0
  -25.8880  -32.4990   23.8420 C   0  0  0  0  0  3  0  0  0  0  0  0
  -25.6440  -33.8850   24.2630 N   0  0  0  0  0  0  0  0  0  0  0  0
  -25.9980  -34.9690   23.5590 C   0  0  0  0  0  0  0  0  0  0  0  0
  -26.6350  -34.9020   22.5060 O   0  0  0  0  0  0  0  0  0  0  0  0
  -25.0760  -34.0130   25.0880 H   0  0  0  0  0  0  0  0  0  0  0  0
  -24.3310  -36.8430   23.3730 C   0  0  0  0  0  1  0  0  0  0  0  0
  -25.5800  -36.3440   24.1160 C   0  0  0  0  0  3  0  0  0  0  0  0
  -27.7630  -37.1050   24.9360 C   0  0  0  0  0  1  0  0  0  0  0  0
  -26.6460  -37.3640   24.0320 N   0  0  0  0  0  0  0  0  0  0  0  0
  -26.2770  -38.2890   24.2370 H   0  0  0  0  0  0  0  0  0  0  0  0
  -26.4070  -31.6320   25.0530 C   0  0  1  0  0  0  0  0  0  0  0  0
  -25.3320  -31.3810   26.1360 C   0  0  0  0  0  1  0  0  0  0  0  0
  -26.9230  -30.2590   24.5650 C   0  0  0  0  0  1  0  0  0  0  0  0
  -27.6050  -32.3400   25.7290 C   0  0  0  0  0  1  0  0  0  0  0  0
  1  4  1  0
  2  4  2  0
  3  1  2  0
  4  9  1  0
  5  2  1  0
  6  5  2  0
  6  3  1  0
  7  6  1  0
  8  9  1  0
  9 10  1  0
 11  3  1  0
 11 13  1  0
 12 11  2  0
 13 14  1  0
 15 14  1  0
 15 16  1  0
 17 25  1  0
 18 23  1  0
 19 20  1  0
 19 18  1  0
 21 20  1  0
 21 30  1  0
 21 22  1  0
 23 17  1  0
 23 22  1  0
 24 17  2  0
 25 26  1  0
 25 16  1  0
 27 28  2  0
 28 47  1  0
 29 28  1  0
 29 32  1  0
 30 31  1  0
 30 27  1  0
 31 29  2  0
 32 33  1  0
 33 34  2  0
 35 38  1  0
 35 34  1  0
 36 35  2  0
 37 36  1  0
 37 32  2  0
 38 39  1  0
 39 40  1  0
 40 41  2  0
 42 41  1  0
 42 46  1  0
 43 42  2  0
 44 39  2  0
 44 43  1  0
 45 44  1  0
 47 48  1  0
 48 51  1  0
 48 50  1  0
 49 47  2  0
 52 27  1  0
 52 53  1  0
 54 52  1  0
 55 57  1  0
 55  5  1  0
 56 67  2  0
 57 62  1  0
 58 66  1  0
 58 68  1  0
 59 65  1  0
 59 61  1  0
 60 66  1  0
 61 60  1  0
 62 61  2  0
 63 64  1  0
 63 57  2  0
 64 59  2  0
 65 58  1  0
 66 56  1  0
 68 70  2  0
 69 68  1  0
 71 69  1  0
 72 81  2  0
 72 77  1  0
 73 69  1  0
 73 77  1  0
 74 73  1  0
 75 76  1  0
 75 74  1  0
 76 72  1  0
 77 78  2  0
 78 79  1  0
 80 79  2  0
 81 80  1  0
 82 56  1  0
 82 83  1  0
 82 92  1  0
 83 86  1  0
 84 88  1  0
 84 83  1  0
 85 84  2  0
 88 87  1  0
 90 88  1  0
 90 91  1  0
 90 89  1  0
 92 95  1  1
 92 93  1  0
 94 92  1  0
M  ISO  4   5 101  17 100  25 100  55 101
M  END
>  <TORSDO>  (64) 
F 22

>  <SCORE>  (64) 
-10.726

>  <name>  (64) 
63

>  <ligand_id>  (64) 
63

>  <original_smiles>  (64) 
[H]c1c([H])c([H])c2c(c1[H])C([H])([H])C([H])([H])C([H])([H])C2([H])N([H])C(=O)C1([H])N(C(=O)C([H])(N([H])C(=O)C([H])(N([H])C([H])([H])[H])C([H])([H])[H])C(C([H])([H])[H])(C([H])([H])[H])C([H])([H])[H])C([H])([H])c2c([H])c(Oc3c([H])c(N([H])C([H])([H])[H])c([H])c(C(=O)C([H])([H])C([H])([H])C([H])([H])C([H])([H])N([H])C(=O)N4C([H])([H])C([H])([H])C([H])([H])C([H])(n5nc(-c6c([H])c([H])c(Oc7c([H])c([H])c(F)c([H])c7F)c([H])c6[H])c(C(=O)N([H])[H])c5N([H])[H])C4([H])[H])c3F)c([H])c([H])c2C1([H])[H]

>  <smiles>  (64) 
[H]c1c([H])c([H])c2c(c1[H])C([H])([H])C([H])([H])C([H])([H])C2([H])N([H])C(=O)C1([H])N(C(=O)C([H])(N([H])C(=O)C([H])(N([H])C([H])([H])[H])C([H])([H])[H])C(C([H])([H])[H])(C([H])([H])[H])C([H])([H])[H])C([H])([H])c2c([H])c(Oc3c([H])c(N([H])C([H])([H])[H])c([H])c(C(=O)C([H])([H])C([H])([H])C([H])([H])C([H])([H])N([H])C(=O)N4C([H])([H])C([H])([H])C([H])([H])C([H])(n5nc(-c6c([H])c([H])c(Oc7c([H])c([H])c(F)c([H])c7F)c([H])c6[H])c(C(=O)N([H])[H])c5N([H])[H])C4([H])[H])c3F)c([H])c([H])c2C1([H])[H]

$$$$
64:0:0
     RDKit          3D

 92 92  0  0  1  0  0  0  0  0999 V2000
  -26.9520  -26.7740   18.8540 C   0  0  0  0  0  3  0  0  0  0  0  0
  -27.6190  -23.0010   19.9830 C   0  0  0  0  0  1  0  0  0  0  0  0
  -26.2630  -27.4400   17.7840 C   0  0  0  0  0  1  0  0  0  0  0  0
  -26.9730  -26.3550   18.1090 C   0  0  0  0  0  3  0  0  0  0  0  0
  -26.8110  -25.1710   19.9360 C   0  0  0  0  0  2  0  0  0  0  0  0
  -26.6070  -24.6220   20.0010 C   0  0  0  0  0  3  0  0  0  0  0  0
  -26.6710  -28.7540   17.0470 C   0  0  0  0  0  1  0  0  0  0  0  0
  -27.4160  -28.5610   15.7370 C   0  0  0  0  0  2  0  0  0  0  0  0
  -27.4460  -27.0820   15.4190 C   0  0  0  0  0  2  0  0  0  0  0  0
  -27.9550  -26.2640   16.6400 C   0  0  0  0  0  3  0  0  0  0  0  0
  -28.4070  -27.5270   19.3520 C   0  0  0  0  0  1  0  0  0  0  0  0
  -25.1430  -24.0060   20.8580 C   0  0  0  0  0  1  0  0  0  0  0  0
  -28.4890  -20.0140   20.1380 C   0  0  0  0  0  1  0  0  0  0  0  0
  -29.7270  -16.4260   19.6160 C   0  0  0  0  0  2  0  0  0  0  0  0
  -29.6370  -14.8730   18.7660 C   0  0  0  0  0  2  0  0  0  0  0  0
  -28.7280  -13.7380   19.2700 C   0  0  0  0  0  2  0  0  0  0  0  0
  -27.6780  -14.6200   19.9300 C   0  0  0  0  0  3  0  0  0  0  0  0
  -28.0920  -16.2130   20.7040 C   0  0  0  0  0  2  0  0  0  0  0  0
  -28.5930  -17.8750   20.0690 N   0  0  0  0  0  2  0  0  0  0  0  0
  -29.7570  -19.4340   20.1790 O   0  0  0  0  0  1  0  0  0  0  0  0
  -25.2840  -14.3580   20.5190 C   0  0  0  0  0  0  0  0  0  0  0  0
  -24.3420  -13.4290   20.8110 C   0  0  0  0  0  0  0  0  0  0  0  0
  -24.9720  -12.1460   20.7650 C   0  0  0  0  0  0  0  0  0  0  0  0
  -26.4940  -13.7560   20.3920 N   0  0  0  0  0  0  0  0  0  0  0  0
  -26.3080  -12.3560   20.5160 N   0  0  0  0  0  0  0  0  0  0  0  0
  -24.2780  -10.8090   20.9050 C   0  0  0  0  0  0  0  0  0  0  0  0
  -24.6400   -9.8340   21.8680 C   0  0  0  0  0  3  0  0  0  0  0  0
  -23.8940   -8.6350   22.0320 C   0  0  0  0  0  3  0  0  0  0  0  0
  -22.7500   -8.3780   21.2390 C   0  0  0  0  0  0  0  0  0  0  0  0
  -22.3860   -9.3370   20.2750 C   0  0  0  0  0  3  0  0  0  0  0  0
  -23.1360  -10.5230   20.1110 C   0  0  0  0  0  3  0  0  0  0  0  0
  -21.9910   -7.2250   21.2990 O   0  0  0  0  0  0  0  0  0  0  0  0
  -21.8070   -6.5240   22.4690 C   0  0  0  0  0  0  0  0  0  0  0  0
  -21.0170   -7.0330   23.5230 C   0  0  0  0  0  3  0  0  0  0  0  0
  -20.7970   -6.2580   24.6800 C   0  0  0  0  0  3  0  0  0  0  0  0
  -21.3560   -4.9710   24.7860 C   0  0  0  0  0  0  0  0  0  0  0  0
  -22.1310   -4.4540   23.7330 C   0  0  0  0  0  3  0  0  0  0  0  0
  -22.3520   -5.2250   22.5770 C   0  0  0  0  0  0  0  0  0  0  0  0
  -23.0820   -4.7070   21.5600 F   0  0  0  0  0  0  0  0  0  0  0  0
  -21.1440   -4.2260   25.8970 F   0  0  0  0  0  0  0  0  0  0  0  0
  -22.9010  -13.7780   21.0070 C   0  0  0  0  0  0  0  0  0  0  0  0
  -22.2070  -13.0780   21.8940 N   0  0  0  0  0  0  0  0  0  0  0  0
  -22.4070  -14.7470   20.4280 O   0  0  0  0  0  0  0  0  0  0  0  0
  -22.6270  -12.3070   22.3910 H   0  0  0  0  0  0  0  0  0  0  0  0
  -21.2420  -13.3130   22.0780 H   0  0  0  0  0  0  0  0  0  0  0  0
  -25.1920  -15.7200   20.3000 N   0  0  0  0  0  0  0  0  0  0  0  0
  -24.2930  -16.1910   20.2950 H   0  0  0  0  0  0  0  0  0  0  0  0
  -25.9570  -16.3100   20.0010 H   0  0  0  0  0  0  0  0  0  0  0  0
  -29.5200  -26.2690   16.6650 C   0  0  0  0  0  0  0  0  0  0  0  0
  -30.1880  -27.0640   15.9930 O   0  0  0  0  0  0  0  0  0  0  0  0
  -30.2380  -25.2460   17.5370 C   0  0  0  0  0  2  0  0  0  0  0  0
  -30.0610  -25.6240   18.8810 O   0  0  0  0  0  0  0  0  0  0  0  0
  -24.6640  -31.1680   22.9400 C   0  0  0  0  0  0  0  0  0  0  0  0
  -28.9330  -25.1370   19.3480 C   0  0  0  0  0  1  0  0  0  0  0  0
  -23.7050  -29.3860   21.3350 C   0  0  0  0  0  3  0  0  0  0  0  0
  -24.9800  -26.5700   20.3340 C   0  0  0  0  0  2  0  0  0  0  0  0
  -26.1800  -28.9890   21.7280 C   0  0  0  0  0  2  0  0  0  0  0  0
  -26.4030  -27.1310   21.4290 C   0  0  0  0  0  2  0  0  0  0  0  0
  -28.2200  -26.2400   21.4160 C   0  0  0  0  0 15  0  0  0  0  0  0
  -27.0910  -24.1840   18.0250 C   0  0  0  0  0 15  0  0  0  0  0  0
  -25.0790  -25.1290   18.8190 C   0  0  0  0  0 15  0  0  0  0  0  0
  -23.9900  -28.0650   20.2660 C   0  0  0  0  0  2  0  0  0  0  0  0
  -24.9040  -29.9850   22.0630 N   0  0  0  0  0  0  0  0  0  0  0  0
  -23.5100  -31.5750   23.2310 O   0  0  0  0  0  0  0  0  0  0  0  0
  -22.7080  -28.9350   22.4040 C   0  0  0  0  0  0  0  0  0  0  0  0
  -21.3880  -29.1720   22.2980 N   0  0  0  0  0  0  0  0  0  0  0  0
  -23.1750  -28.2530   23.3110 O   0  0  0  0  0  0  0  0  0  0  0  0
  -21.0450  -29.7630   21.5540 H   0  0  0  0  0  0  0  0  0  0  0  0
  -17.8740  -28.2420   22.6390 C   0  0  0  0  0  0  0  0  0  0  0  0
  -20.4290  -28.2860   22.9700 C   0  0  0  0  0  3  0  0  0  0  0  0
  -20.4280  -26.9090   22.2640 C   0  0  0  0  0  2  0  0  0  0  0  0
  -19.3600  -26.8050   21.1760 C   0  0  0  0  0  2  0  0  0  0  0  0
  -17.9730  -26.9820   21.7940 C   0  0  0  0  0  2  0  0  0  0  0  0
  -19.0320  -28.8770   23.1630 C   0  0  0  0  0  0  0  0  0  0  0  0
  -18.8830  -30.0580   23.9200 C   0  0  0  0  0  3  0  0  0  0  0  0
  -17.6080  -30.6060   24.1530 C   0  0  0  0  0  3  0  0  0  0  0  0
  -16.4650  -29.9690   23.6400 C   0  0  0  0  0  3  0  0  0  0  0  0
  -16.5980  -28.7870   22.8890 C   0  0  0  0  0  3  0  0  0  0  0  0
  -25.7210  -32.1140   23.7170 C   0  0  0  0  0  3  0  0  0  0  0  0
  -25.2670  -33.5530   23.9500 N   0  0  0  0  0  0  0  0  0  0  0  0
  -25.7080  -34.6950   23.3660 C   0  0  0  0  0  0  0  0  0  0  0  0
  -26.5140  -34.6680   22.4360 O   0  0  0  0  0  0  0  0  0  0  0  0
  -24.5440  -33.6580   24.6460 H   0  0  0  0  0  0  0  0  0  0  0  0
  -23.9820  -36.5330   23.0020 C   0  0  0  0  0  1  0  0  0  0  0  0
  -25.1880  -36.0900   23.8500 C   0  0  0  0  0  3  0  0  0  0  0  0
  -27.2190  -37.0890   24.8470 C   0  0  0  0  0  1  0  0  0  0  0  0
  -26.2010  -37.1800   23.8050 N   0  0  0  0  0  0  0  0  0  0  0  0
  -25.7560  -38.0910   23.8760 H   0  0  0  0  0  0  0  0  0  0  0  0
  -26.0980  -31.5530   25.1480 C   0  0  1  0  0  0  0  0  0  0  0  0
  -24.8710  -31.2690   26.0490 C   0  0  0  0  0  1  0  0  0  0  0  0
  -26.8750  -30.2430   25.0040 C   0  0  0  0  0  1  0  0  0  0  0  0
  -27.0350  -32.5190   25.9180 C   0  0  0  0  0  1  0  0  0  0  0  0
  1 11  1  0
  1  5  1  0
  2  6  1  0
  4  3  1  0
  4  1  1  0
  5  6  1  0
  6 12  1  0
  8  7  1  0
  9  8  1  0
 10  9  1  0
 10 49  1  0
 10  4  1  0
 13 20  1  0
 14 19  1  0
 15 16  1  0
 15 14  1  0
 17 16  1  0
 17 24  1  0
 17 18  1  0
 19 18  1  0
 21 22  2  0
 22 41  1  0
 23 22  1  0
 23 26  1  0
 24 25  1  0
 24 21  1  0
 25 23  2  0
 26 27  1  0
 27 28  2  0
 29 32  1  0
 29 28  1  0
 30 29  2  0
 31 30  1  0
 31 26  2  0
 32 33  1  0
 33 38  2  0
 33 34  1  0
 34 35  2  0
 35 36  1  0
 36 40  1  0
 37 36  2  0
 38 37  1  0
 39 38  1  0
 41 42  1  0
 42 45  1  0
 42 44  1  0
 43 41  2  0
 46 21  1  0
 47 46  1  0
 48 46  1  0
 49 51  1  0
 50 49  2  0
 51 52  1  0
 52 54  1  0
 53 64  2  0
 55 63  1  0
 55 65  1  0
 56 58  1  0
 57 63  1  0
 58 57  1  0
 62 56  1  0
 62 55  1  0
 63 53  1  0
 65 67  2  0
 66 65  1  0
 68 66  1  0
 69 78  2  0
 69 74  1  0
 70 66  1  0
 70 74  1  0
 71 70  1  0
 72 73  1  0
 72 71  1  0
 73 69  1  0
 74 75  2  0
 75 76  1  0
 77 76  2  0
 78 77  1  0
 79 53  1  0
 79 80  1  0
 79 89  1  0
 80 83  1  0
 81 85  1  0
 81 80  1  0
 82 81  2  0
 85 84  1  0
 87 85  1  0
 87 88  1  0
 87 86  1  0
 89 92  1  1
 89 90  1  0
 91 89  1  0
M  ISO  4   2 100  13 100  51 101  52 101
M  END
>  <TORSDO>  (65) 
F 18

>  <SCORE>  (65) 
-13.673

>  <name>  (65) 
64

>  <ligand_id>  (65) 
64

>  <original_smiles>  (65) 
[H]c1c([H])c([H])c2c(c1[H])C([H])([H])C([H])([H])C([H])([H])C2([H])N([H])C(=O)C1([H])N(C(=O)C([H])(N([H])C(=O)C([H])(N([H])C([H])([H])[H])C([H])([H])[H])C(C([H])([H])[H])(C([H])([H])[H])C([H])([H])[H])C([H])([H])c2c([H])c(OC([H])([H])C(=O)C3([H])c4c(C([H])([H])[H])c(C(=O)N5C([H])([H])C([H])([H])C([H])([H])C([H])(n6nc(-c7c([H])c([H])c(Oc8c([H])c([H])c(F)c([H])c8F)c([H])c7[H])c(C(=O)N([H])[H])c6N([H])[H])C5([H])[H])c(C([H])([H])[H])c([H])c4C([H])([H])C([H])([H])C3([H])[H])c([H])c([H])c2C1([H])[H]

>  <smiles>  (65) 
[H]c1c([H])c([H])c2c(c1[H])C([H])([H])C([H])([H])C([H])([H])C2([H])N([H])C(=O)C1([H])N(C(=O)C([H])(N([H])C(=O)C([H])(N([H])C([H])([H])[H])C([H])([H])[H])C(C([H])([H])[H])(C([H])([H])[H])C([H])([H])[H])C([H])([H])c2c([H])c(OC([H])([H])C(=O)C3([H])c4c(C([H])([H])[H])c(C(=O)N5C([H])([H])C([H])([H])C([H])([H])C([H])(n6nc(-c7c([H])c([H])c(Oc8c([H])c([H])c(F)c([H])c8F)c([H])c7[H])c(C(=O)N([H])[H])c6N([H])[H])C5([H])[H])c(C([H])([H])[H])c([H])c4C([H])([H])C([H])([H])C3([H])[H])c([H])c([H])c2C1([H])[H]

$$$$
65:0:0
     RDKit          3D

 88 96  0  0  1  0  0  0  0  0999 V2000
  -29.8550  -19.7780   21.2080 C   0  0  0  0  0  3  0  0  0  0  0  0
  -28.5560  -19.5370   19.4020 C   0  0  0  0  0  3  0  0  0  0  0  0
  -29.6990  -17.2210   20.2970 C   0  0  0  0  0  0  0  0  0  0  0  0
  -29.0270  -20.6130   20.3120 C   0  0  0  0  0  0  0  0  0  0  0  0
  -30.1700  -18.2930   21.2120 C   0  0  0  0  0  0  0  0  0  0  0  0
  -28.8480  -18.0360   19.3860 C   0  0  0  0  0  0  0  0  0  0  0  0
  -31.1400  -17.8780   22.3100 C   0  0  0  0  0  1  0  0  0  0  0  0
  -30.3040  -15.5760   20.1620 C   0  0  0  0  0  0  0  0  0  0  0  0
  -30.3030  -13.0690   19.3180 C   0  0  0  0  0  2  0  0  0  0  0  0
  -29.3800  -12.7460   18.1130 C   0  0  0  0  0  2  0  0  0  0  0  0
  -27.9570  -12.4190   18.5910 C   0  0  0  0  0  2  0  0  0  0  0  0
  -27.4900  -13.4000   19.6910 C   0  0  0  0  0  3  0  0  0  0  0  0
  -28.5490  -13.6680   20.7830 C   0  0  0  0  0  2  0  0  0  0  0  0
  -29.7320  -14.2430   20.1110 N   0  0  0  0  0  0  0  0  0  0  0  0
  -31.5270  -15.4630   19.9590 O   0  0  0  0  0  0  0  0  0  0  0  0
  -25.1530  -13.9120   20.5460 C   0  0  0  0  0  0  0  0  0  0  0  0
  -24.1060  -13.1200   20.9280 C   0  0  0  0  0  0  0  0  0  0  0  0
  -24.5770  -11.7730   20.8510 C   0  0  0  0  0  0  0  0  0  0  0  0
  -26.1890  -13.0490   20.2450 N   0  0  0  0  0  0  0  0  0  0  0  0
  -25.8600  -11.7540   20.4970 N   0  0  0  0  0  0  0  0  0  0  0  0
  -23.8580  -10.5040   21.0310 C   0  0  0  0  0  0  0  0  0  0  0  0
  -24.2950   -9.5310   21.9570 C   0  0  0  0  0  3  0  0  0  0  0  0
  -23.5720   -8.3300   22.1290 C   0  0  0  0  0  3  0  0  0  0  0  0
  -22.3980   -8.0940   21.3740 C   0  0  0  0  0  0  0  0  0  0  0  0
  -21.9800   -9.0560   20.4380 C   0  0  0  0  0  3  0  0  0  0  0  0
  -22.7030  -10.2480   20.2640 C   0  0  0  0  0  3  0  0  0  0  0  0
  -21.6470   -6.9470   21.4550 O   0  0  0  0  0  0  0  0  0  0  0  0
  -21.5700   -6.2150   22.6140 C   0  0  0  0  0  0  0  0  0  0  0  0
  -21.0900   -6.7750   23.8170 C   0  0  0  0  0  3  0  0  0  0  0  0
  -20.9630   -5.9690   24.9670 C   0  0  0  0  0  3  0  0  0  0  0  0
  -21.3060   -4.6050   24.9120 C   0  0  0  0  0  0  0  0  0  0  0  0
  -21.7800   -4.0450   23.7130 C   0  0  0  0  0  3  0  0  0  0  0  0
  -21.9080   -4.8480   22.5670 C   0  0  0  0  0  0  0  0  0  0  0  0
  -22.3450   -4.2970   21.4080 F   0  0  0  0  0  0  0  0  0  0  0  0
  -21.1760   -3.8290   26.0150 F   0  0  0  0  0  0  0  0  0  0  0  0
  -22.7150  -13.5870   21.2440 C   0  0  0  0  0  0  0  0  0  0  0  0
  -22.0120  -12.8720   22.1130 N   0  0  0  0  0  0  0  0  0  0  0  0
  -22.2640  -14.6220   20.7550 O   0  0  0  0  0  0  0  0  0  0  0  0
  -22.3910  -12.0340   22.5300 H   0  0  0  0  0  0  0  0  0  0  0  0
  -21.0800  -13.1680   22.3670 H   0  0  0  0  0  0  0  0  0  0  0  0
  -25.3050  -15.2860   20.4000 N   0  0  0  0  0  0  0  0  0  0  0  0
  -24.5490  -15.9380   20.5750 H   0  0  0  0  0  0  0  0  0  0  0  0
  -26.1360  -15.7340   20.0280 H   0  0  0  0  0  0  0  0  0  0  0  0
  -28.2860  -17.3560   18.3440 O   0  0  0  0  0  0  0  0  0  0  0  0
  -27.8640  -17.9250   17.7090 H   0  0  0  0  0  0  0  0  0  0  0  0
  -28.9980  -22.4490   20.2480 C   0  0  0  0  0  3  0  0  0  0  0  0
  -27.9080  -23.9920   20.2380 C   0  0  0  0  0  3  0  0  0  0  0  0
  -28.1120  -25.7020   20.3030 O   0  0  0  0  0  0  0  0  0  0  0  0
  -24.6360  -31.9030   23.2410 C   0  0  0  0  0  0  0  0  0  0  0  0
  -27.1250  -26.8700   20.2570 C   0  0  0  0  0  0  0  0  0  0  0  0
  -23.4310  -30.5070   21.6150 C   0  0  0  0  0  3  0  0  0  0  0  0
  -24.8610  -28.8610   20.1990 C   0  0  0  0  0  0  0  0  0  0  0  0
  -26.0050  -30.6590   21.4710 C   0  0  0  0  0  2  0  0  0  0  0  0
  -26.0590  -29.2310   20.8210 C   0  0  0  0  0  0  0  0  0  0  0  0
  -27.1810  -28.2620   20.8170 C   0  0  0  0  0  3  0  0  0  0  0  0
  -25.8910  -26.6830   19.5880 C   0  0  0  0  0  3  0  0  0  0  0  0
  -24.8080  -27.6120   19.5600 C   0  0  0  0  0  3  0  0  0  0  0  0
  -23.6570  -29.8110   20.2430 C   0  0  0  0  0  2  0  0  0  0  0  0
  -24.7140  -31.0540   22.1610 N   0  0  0  0  0  0  0  0  0  0  0  0
  -23.5470  -32.2080   23.7560 O   0  0  0  0  0  0  0  0  0  0  0  0
  -22.7210  -29.5300   22.5890 C   0  0  0  0  0  0  0  0  0  0  0  0
  -21.3900  -29.3680   22.4610 N   0  0  0  0  0  0  0  0  0  0  0  0
  -23.3780  -28.9140   23.4330 O   0  0  0  0  0  0  0  0  0  0  0  0
  -20.9120  -29.9140   21.7570 H   0  0  0  0  0  0  0  0  0  0  0  0
  -18.0030  -28.1600   22.9710 C   0  0  0  0  0  0  0  0  0  0  0  0
  -20.5620  -28.4420   23.2400 C   0  0  0  0  0  3  0  0  0  0  0  0
  -20.6700  -27.0010   22.6860 C   0  0  0  0  0  2  0  0  0  0  0  0
  -19.5750  -26.6620   21.6690 C   0  0  0  0  0  2  0  0  0  0  0  0
  -18.1910  -26.8070   22.3050 C   0  0  0  0  0  2  0  0  0  0  0  0
  -19.1170  -28.9350   23.3940 C   0  0  0  0  0  0  0  0  0  0  0  0
  -18.8860  -30.1980   23.9800 C   0  0  0  0  0  3  0  0  0  0  0  0
  -17.5780  -30.6890   24.1450 C   0  0  0  0  0  3  0  0  0  0  0  0
  -16.4790  -29.9150   23.7320 C   0  0  0  0  0  3  0  0  0  0  0  0
  -16.6930  -28.6520   23.1520 C   0  0  0  0  0  3  0  0  0  0  0  0
  -25.9080  -32.5470   23.8710 C   0  0  0  0  0  3  0  0  0  0  0  0
  -26.4100  -31.7870   25.1620 C   0  0  1  0  0  0  0  0  0  0  0  0
  -25.3060  -31.5670   26.2250 C   0  0  0  0  0  1  0  0  0  0  0  0
  -26.9890  -30.4020   24.7970 C   0  0  0  0  0  1  0  0  0  0  0  0
  -27.5570  -32.5840   25.8260 C   0  0  0  0  0  1  0  0  0  0  0  0
  -25.5930  -33.9480   24.2090 N   0  0  0  0  0  0  0  0  0  0  0  0
  -25.8970  -35.0110   23.4510 C   0  0  0  0  0  0  0  0  0  0  0  0
  -26.5320  -34.9160   22.3990 O   0  0  0  0  0  0  0  0  0  0  0  0
  -25.0280  -34.0940   25.0340 H   0  0  0  0  0  0  0  0  0  0  0  0
  -24.1410  -36.8010   23.1930 C   0  0  0  0  0  1  0  0  0  0  0  0
  -25.4260  -36.3990   23.9380 C   0  0  0  0  0  3  0  0  0  0  0  0
  -27.5900  -37.3080   24.6620 C   0  0  0  0  0  1  0  0  0  0  0  0
  -26.4450  -37.4610   23.7700 N   0  0  0  0  0  0  0  0  0  0  0  0
  -26.0370  -38.3790   23.9310 H   0  0  0  0  0  0  0  0  0  0  0  0
  1  5  1  0
  2  4  1  0
  3  5  2  0
  4  1  2  0
  5  7  1  0
  6  2  2  0
  6  3  1  0
  8  3  1  0
  9 14  1  0
 10 11  1  0
 10  9  1  0
 12 11  1  0
 12 19  1  0
 12 13  1  0
 14  8  1  0
 14 13  1  0
 15  8  2  0
 16 17  2  0
 17 36  1  0
 18 17  1  0
 18 21  1  0
 19 20  1  0
 19 16  1  0
 20 18  2  0
 21 22  1  0
 22 23  2  0
 24 27  1  0
 24 23  1  0
 25 24  2  0
 26 25  1  0
 26 21  2  0
 27 28  1  0
 28 29  1  0
 29 30  2  0
 31 30  1  0
 31 35  1  0
 32 31  2  0
 33 28  2  0
 33 32  1  0
 34 33  1  0
 36 37  1  0
 37 40  1  0
 37 39  1  0
 38 36  2  0
 41 16  1  0
 41 42  1  0
 43 41  1  0
 44  6  1  0
 45 44  1  0
 46  4  1  0
 47 46  2  0
 47 48  1  0
 49 60  2  0
 50 48  1  0
 50 55  1  0
 51 59  1  0
 51 61  1  0
 52 58  1  0
 52 54  1  0
 53 59  1  0
 54 53  1  0
 55 54  2  0
 56 50  2  0
 57 56  1  0
 57 52  2  0
 58 51  1  0
 59 49  1  0
 61 63  2  0
 62 61  1  0
 64 62  1  0
 65 74  2  0
 65 70  1  0
 66 62  1  0
 66 70  1  0
 67 66  1  0
 68 69  1  0
 68 67  1  0
 69 65  1  0
 70 71  2  0
 71 72  1  0
 73 72  2  0
 74 73  1  0
 75 49  1  0
 75 80  1  0
 75 76  1  0
 76 79  1  1
 76 77  1  0
 78 76  1  0
 80 83  1  0
 81 85  1  0
 81 80  1  0
 82 81  2  0
 85 84  1  0
 87 88  1  0
 87 85  1  0
 87 86  1  0
M  ISO  4   3 100   8 100  47 101  48 101
M  END
>  <TORSDO>  (66) 
F 19

>  <SCORE>  (66) 
-16.426

>  <name>  (66) 
65

>  <ligand_id>  (66) 
65

>  <original_smiles>  (66) 
[H]Oc1c([H])c(C([H])([H])C([H])([H])Oc2c([H])c([H])c3c(c2[H])C([H])([H])N(C(=O)C([H])(N([H])C(=O)C([H])(N([H])C([H])([H])[H])C([H])([H])[H])C(C([H])([H])[H])(C([H])([H])[H])C([H])([H])[H])C([H])(C(=O)N([H])C2([H])c4c([H])c([H])c([H])c([H])c4C([H])([H])C([H])([H])C2([H])[H])C3([H])[H])c([H])c(C([H])([H])[H])c1C(=O)N1C([H])([H])C([H])([H])C([H])([H])C([H])(n2nc(-c3c([H])c([H])c(Oc4c([H])c([H])c(F)c([H])c4F)c([H])c3[H])c(C(=O)N([H])[H])c2N([H])[H])C1([H])[H]

>  <smiles>  (66) 
[H]Oc1c([H])c(C([H])([H])C([H])([H])Oc2c([H])c([H])c3c(c2[H])C([H])([H])N(C(=O)C([H])(N([H])C(=O)C([H])(N([H])C([H])([H])[H])C([H])([H])[H])C(C([H])([H])[H])(C([H])([H])[H])C([H])([H])[H])C([H])(C(=O)N([H])C2([H])c4c([H])c([H])c([H])c([H])c4C([H])([H])C([H])([H])C2([H])[H])C3([H])[H])c([H])c(C([H])([H])[H])c1C(=O)N1C([H])([H])C([H])([H])C([H])([H])C([H])(n2nc(-c3c([H])c([H])c(Oc4c([H])c([H])c(F)c([H])c4F)c([H])c3[H])c(C(=O)N([H])[H])c2N([H])[H])C1([H])[H]

$$$$
66:0:0
     RDKit          3D

 94102  0  0  1  0  0  0  0  0999 V2000
  -29.6640  -21.6820   19.9130 C   0  0  0  0  0  0  0  0  0  0  0  0
  -29.9360  -22.8300   20.5670 N   0  0  0  0  0  0  0  0  0  0  0  0
  -29.1200  -21.6810   18.8080 O   0  0  0  0  0  0  0  0  0  0  0  0
  -30.3700  -22.7330   21.4770 H   0  0  0  0  0  0  0  0  0  0  0  0
  -30.1170  -20.3510   20.5700 C   0  0  0  0  0  3  0  0  0  0  0  0
  -29.5530  -19.0410   19.9290 C   0  0  0  0  0  3  0  0  0  0  0  0
  -30.9380  -16.3890   22.3870 C   0  0  0  0  0  3  0  0  0  0  0  0
  -30.9830  -15.3620   20.1670 C   0  0  0  0  0  0  0  0  0  0  0  0
  -31.2880  -15.3120   21.5550 C   0  0  0  0  0  0  0  0  0  0  0  0
  -30.3500  -17.5600   21.8780 C   0  0  0  0  0  0  0  0  0  0  0  0
  -30.4150  -16.5760   19.6340 C   0  0  0  0  0  0  0  0  0  0  0  0
  -30.1290  -17.7020   20.4820 C   0  0  0  0  0  0  0  0  0  0  0  0
  -32.0100  -14.1340   22.2060 C   0  0  0  0  0  1  0  0  0  0  0  0
  -29.9790  -18.6370   22.8890 C   0  0  0  0  0  1  0  0  0  0  0  0
  -30.0830  -16.6940   18.1440 C   0  0  0  0  0  1  0  0  0  0  0  0
  -31.3570  -14.1880   19.2650 C   0  0  0  0  0  0  0  0  0  0  0  0
  -30.6550  -12.1520   18.0520 C   0  0  0  0  0  2  0  0  0  0  0  0
  -29.5480  -12.5090   17.0380 C   0  0  0  0  0  2  0  0  0  0  0  0
  -28.1610  -12.4410   17.7070 C   0  0  0  0  0  2  0  0  0  0  0  0
  -28.1110  -13.2180   19.0490 C   0  0  0  0  0  3  0  0  0  0  0  0
  -29.3140  -12.8640   19.9450 C   0  0  0  0  0  2  0  0  0  0  0  0
  -30.5510  -13.0910   19.1820 N   0  0  0  0  0  0  0  0  0  0  0  0
  -32.3630  -14.3150   18.5590 O   0  0  0  0  0  0  0  0  0  0  0  0
  -25.9530  -13.9460   20.2430 C   0  0  0  0  0  0  0  0  0  0  0  0
  -24.8950  -13.2320   20.7380 C   0  0  0  0  0  0  0  0  0  0  0  0
  -25.2080  -11.8550   20.5160 C   0  0  0  0  0  0  0  0  0  0  0  0
  -26.8460  -13.0080   19.7480 N   0  0  0  0  0  0  0  0  0  0  0  0
  -26.4120  -11.7400   19.9700 N   0  0  0  0  0  0  0  0  0  0  0  0
  -24.4050  -10.6460   20.7370 C   0  0  0  0  0  0  0  0  0  0  0  0
  -24.8180   -9.6400   21.6400 C   0  0  0  0  0  3  0  0  0  0  0  0
  -24.0200   -8.4930   21.8470 C   0  0  0  0  0  3  0  0  0  0  0  0
  -22.7950   -8.3460   21.1530 C   0  0  0  0  0  0  0  0  0  0  0  0
  -22.3990   -9.3400   20.2410 C   0  0  0  0  0  3  0  0  0  0  0  0
  -23.1970  -10.4780   20.0310 C   0  0  0  0  0  3  0  0  0  0  0  0
  -21.9680   -7.2560   21.2720 O   0  0  0  0  0  0  0  0  0  0  0  0
  -21.8040   -6.6030   22.4680 C   0  0  0  0  0  0  0  0  0  0  0  0
  -21.3400   -7.2680   23.6230 C   0  0  0  0  0  3  0  0  0  0  0  0
  -21.1190   -6.5450   24.8130 C   0  0  0  0  0  3  0  0  0  0  0  0
  -21.3520   -5.1580   24.8470 C   0  0  0  0  0  0  0  0  0  0  0  0
  -21.8100   -4.4920   23.6960 C   0  0  0  0  0  3  0  0  0  0  0  0
  -22.0310   -5.2120   22.5090 C   0  0  0  0  0  0  0  0  0  0  0  0
  -22.4510   -4.5620   21.3970 F   0  0  0  0  0  0  0  0  0  0  0  0
  -21.1340   -4.4600   25.9860 F   0  0  0  0  0  0  0  0  0  0  0  0
  -23.6230  -13.7960   21.3030 C   0  0  0  0  0  0  0  0  0  0  0  0
  -23.0670  -13.1540   22.3250 N   0  0  0  0  0  0  0  0  0  0  0  0
  -23.1390  -14.8400   20.8700 O   0  0  0  0  0  0  0  0  0  0  0  0
  -23.4730  -12.3090   22.6970 H   0  0  0  0  0  0  0  0  0  0  0  0
  -22.2210  -13.5160   22.7430 H   0  0  0  0  0  0  0  0  0  0  0  0
  -26.2200  -15.3080   20.1510 N   0  0  0  0  0  0  0  0  0  0  0  0
  -25.5670  -16.0130   20.4750 H   0  0  0  0  0  0  0  0  0  0  0  0
  -27.0730  -15.7010   19.7730 H   0  0  0  0  0  0  0  0  0  0  0  0
  -29.8630  -24.2150   20.0510 C   0  0  0  0  0  2  0  0  0  0  0  0
  -28.5250  -24.9530   20.3170 C   0  0  0  0  0  2  0  0  0  0  0  0
  -28.6430  -26.3930   20.1920 O   0  0  0  0  0  0  0  0  0  0  0  0
  -24.5860  -31.5590   23.0310 C   0  0  0  0  0  0  0  0  0  0  0  0
  -27.4650  -27.1230   20.1200 C   0  0  0  0  0  0  0  0  0  0  0  0
  -23.4960  -30.1290   21.3340 C   0  0  0  0  0  3  0  0  0  0  0  0
  -25.0510  -28.6140   19.9960 C   0  0  0  0  0  0  0  0  0  0  0  0
  -26.0270  -30.5260   21.2720 C   0  0  0  0  0  2  0  0  0  0  0  0
  -26.1710  -29.1520   20.6410 C   0  0  0  0  0  0  0  0  0  0  0  0
  -27.3820  -28.4170   20.6940 C   0  0  0  0  0  3  0  0  0  0  0  0
  -26.3210  -26.6100   19.4640 C   0  0  0  0  0  3  0  0  0  0  0  0
  -25.1240  -27.3440   19.4010 C   0  0  0  0  0  3  0  0  0  0  0  0
  -23.7930  -29.4520   19.9710 C   0  0  0  0  0  2  0  0  0  0  0  0
  -24.7190  -30.7540   21.9370 N   0  0  0  0  0  0  0  0  0  0  0  0
  -23.4730  -31.8130   23.5090 O   0  0  0  0  0  0  0  0  0  0  0  0
  -22.8130  -29.0990   22.2630 C   0  0  0  0  0  0  0  0  0  0  0  0
  -21.4820  -28.9640   22.1330 N   0  0  0  0  0  0  0  0  0  0  0  0
  -23.4760  -28.4270   23.0560 O   0  0  0  0  0  0  0  0  0  0  0  0
  -21.0100  -29.5580   21.4650 H   0  0  0  0  0  0  0  0  0  0  0  0
  -18.0610  -27.9300   22.6700 C   0  0  0  0  0  0  0  0  0  0  0  0
  -20.6370  -28.0290   22.8740 C   0  0  0  0  0  3  0  0  0  0  0  0
  -20.6400  -26.6320   22.2130 C   0  0  0  0  0  2  0  0  0  0  0  0
  -19.4930  -26.4310   21.2180 C   0  0  0  0  0  2  0  0  0  0  0  0
  -18.1410  -26.6140   21.9140 C   0  0  0  0  0  2  0  0  0  0  0  0
  -19.2330  -28.6010   23.1070 C   0  0  0  0  0  0  0  0  0  0  0  0
  -19.1040  -29.8390   23.7750 C   0  0  0  0  0  3  0  0  0  0  0  0
  -17.8360  -30.4020   24.0100 C   0  0  0  0  0  3  0  0  0  0  0  0
  -16.6790  -29.7240   23.5890 C   0  0  0  0  0  3  0  0  0  0  0  0
  -16.7920  -28.4900   22.9250 C   0  0  0  0  0  3  0  0  0  0  0  0
  -25.8250  -32.2160   23.7150 C   0  0  0  0  0  3  0  0  0  0  0  0
  -25.4550  -33.5930   24.0710 N   0  0  0  0  0  0  0  0  0  0  0  0
  -25.8040  -34.6800   23.3710 C   0  0  0  0  0  0  0  0  0  0  0  0
  -26.5420  -34.6310   22.3820 O   0  0  0  0  0  0  0  0  0  0  0  0
  -24.8040  -33.7030   24.8360 H   0  0  0  0  0  0  0  0  0  0  0  0
  -24.0490  -36.4340   22.9650 C   0  0  0  0  0  1  0  0  0  0  0  0
  -25.2470  -36.0370   23.8420 C   0  0  0  0  0  3  0  0  0  0  0  0
  -27.2900  -36.9570   24.8450 C   0  0  0  0  0  1  0  0  0  0  0  0
  -26.2520  -37.1220   23.8310 N   0  0  0  0  0  0  0  0  0  0  0  0
  -25.8090  -38.0250   23.9740 H   0  0  0  0  0  0  0  0  0  0  0  0
  -26.3250  -31.4270   24.9870 C   0  0  1  0  0  0  0  0  0  0  0  0
  -25.2060  -31.1250   26.0110 C   0  0  0  0  0  1  0  0  0  0  0  0
  -26.9650  -30.0800   24.5750 C   0  0  0  0  0  1  0  0  0  0  0  0
  -27.4270  -32.2380   25.7070 C   0  0  0  0  0  1  0  0  0  0  0  0
  1  2  1  0
  1  5  1  0
  2  4  1  0
  3  1  2  0
  6 12  1  0
  6  5  2  0
  8  9  1  0
  9 13  1  0
  9  7  2  0
 10  7  1  0
 10 14  1  0
 11  8  2  0
 11 12  1  0
 12 10  2  0
 15 11  1  0
 16  8  1  0
 17 22  1  0
 18 19  1  0
 18 17  1  0
 20 19  1  0
 20 27  1  0
 20 21  1  0
 22 16  1  0
 22 21  1  0
 23 16  2  0
 24 25  2  0
 25 44  1  0
 26 29  1  0
 26 25  1  0
 27 28  1  0
 27 24  1  0
 28 26  2  0
 29 30  1  0
 30 31  2  0
 32 35  1  0
 32 31  1  0
 33 32  2  0
 34 33  1  0
 34 29  2  0
 35 36  1  0
 36 41  2  0
 36 37  1  0
 37 38  2  0
 38 39  1  0
 39 43  1  0
 40 39  2  0
 41 40  1  0
 42 41  1  0
 44 45  1  0
 45 47  1  0
 45 48  1  0
 46 44  2  0
 49 24  1  0
 49 50  1  0
 51 49  1  0
 52 53  1  0
 52  2  1  0
 54 53  1  0
 55 66  2  0
 56 54  1  0
 56 61  1  0
 57 65  1  0
 57 67  1  0
 58 60  1  0
 59 65  1  0
 60 61  2  0
 60 59  1  0
 62 56  2  0
 63 62  1  0
 63 58  2  0
 64 58  1  0
 64 57  1  0
 65 55  1  0
 67 69  2  0
 68 67  1  0
 70 68  1  0
 71 80  2  0
 71 76  1  0
 72 68  1  0
 72 76  1  0
 73 72  1  0
 74 75  1  0
 74 73  1  0
 75 71  1  0
 76 77  2  0
 77 78  1  0
 79 78  2  0
 80 79  1  0
 81 55  1  0
 81 82  1  0
 81 91  1  0
 82 85  1  0
 83 87  1  0
 83 82  1  0
 84 83  2  0
 87 86  1  0
 89 87  1  0
 89 90  1  0
 89 88  1  0
 91 94  1  1
 91 92  1  0
 93 91  1  0
M  ISO  4   8 100  16 100  53 101  54 101
M  END
>  <TORSDO>  (67) 
F 21

>  <SCORE>  (67) 
-8.938

>  <name>  (67) 
66

>  <ligand_id>  (67) 
66

>  <original_smiles>  (67) 
[H]c1c([H])c([H])c2c(c1[H])C([H])([H])C([H])([H])C([H])([H])C2([H])N([H])C(=O)C1([H])N(C(=O)C([H])(N([H])C(=O)C([H])(N([H])C([H])([H])[H])C([H])([H])[H])C(C([H])([H])[H])(C([H])([H])[H])C([H])([H])[H])C([H])([H])c2c([H])c(OC([H])([H])C([H])([H])N([H])C(=O)C([H])([H])C([H])([H])c3c(C([H])([H])[H])c([H])c(C([H])([H])[H])c(C(=O)N4C([H])([H])C([H])([H])C([H])([H])C([H])(n5nc(-c6c([H])c([H])c(Oc7c([H])c([H])c(F)c([H])c7F)c([H])c6[H])c(C(=O)N([H])[H])c5N([H])[H])C4([H])[H])c3C([H])([H])[H])c([H])c([H])c2C1([H])[H]

>  <smiles>  (67) 
[H]c1c([H])c([H])c2c(c1[H])C([H])([H])C([H])([H])C([H])([H])C2([H])N([H])C(=O)C1([H])N(C(=O)C([H])(N([H])C(=O)C([H])(N([H])C([H])([H])[H])C([H])([H])[H])C(C([H])([H])[H])(C([H])([H])[H])C([H])([H])[H])C([H])([H])c2c([H])c(OC([H])([H])C([H])([H])N([H])C(=O)C([H])([H])C([H])([H])c3c(C([H])([H])[H])c([H])c(C([H])([H])[H])c(C(=O)N4C([H])([H])C([H])([H])C([H])([H])C([H])(n5nc(-c6c([H])c([H])c(Oc7c([H])c([H])c(F)c([H])c7F)c([H])c6[H])c(C(=O)N([H])[H])c5N([H])[H])C4([H])[H])c3C([H])([H])[H])c([H])c([H])c2C1([H])[H]

$$$$
67:0:0
     RDKit          3D

 94101  0  0  1  0  0  0  0  0999 V2000
  -26.0950  -22.8350   20.5160 C   0  0  0  0  0  2  0  0  0  0  0  0
  -26.1410  -21.4190   19.8950 C   0  0  0  0  0  2  0  0  0  0  0  0
  -27.4500  -20.9820   19.1870 C   0  0  0  0  0  2  0  0  0  0  0  0
  -28.7160  -20.9880   20.0590 C   0  0  0  0  0  0  0  0  0  0  0  0
  -29.6740  -20.0980   19.7670 N   0  0  0  0  0  0  0  0  0  0  0  0
  -28.8450  -21.8010   20.9760 O   0  0  0  0  0  0  0  0  0  0  0  0
  -29.4940  -19.4310   19.0270 H   0  0  0  0  0  0  0  0  0  0  0  0
  -30.9680  -20.0120   20.4500 C   0  0  0  0  0  2  0  0  0  0  0  0
  -32.0560  -20.8220   19.7170 C   0  0  0  0  0  2  0  0  0  0  0  0
  -32.8860  -20.0150   18.6970 C   0  0  0  0  0  2  0  0  0  0  0  0
  -34.1560  -19.3820   19.3090 C   0  0  0  0  0  2  0  0  0  0  0  0
  -35.0040  -18.6530   18.2520 C   0  0  0  0  0  0  0  0  0  0  0  0
  -35.8250  -16.5980   17.1500 C   0  0  0  0  0  2  0  0  0  0  0  0
  -34.8040  -16.0510   16.1370 C   0  0  0  0  0  2  0  0  0  0  0  0
  -33.7720  -15.1380   16.8300 C   0  0  0  0  0  2  0  0  0  0  0  0
  -33.1730  -15.7860   18.1050 C   0  0  0  0  0  3  0  0  0  0  0  0
  -34.2900  -16.3510   19.0100 C   0  0  0  0  0  2  0  0  0  0  0  0
  -35.0940  -17.2960   18.2200 N   0  0  0  0  0  0  0  0  0  0  0  0
  -35.5920  -19.3660   17.4310 O   0  0  0  0  0  0  0  0  0  0  0  0
  -31.0100  -14.9930   19.2520 C   0  0  0  0  0  0  0  0  0  0  0  0
  -30.6580  -13.7960   19.8140 C   0  0  0  0  0  0  0  0  0  0  0  0
  -31.8060  -12.9510   19.6920 C   0  0  0  0  0  0  0  0  0  0  0  0
  -32.3210  -14.8440   18.8270 N   0  0  0  0  0  0  0  0  0  0  0  0
  -32.8130  -13.6200   19.1440 N   0  0  0  0  0  0  0  0  0  0  0  0
  -31.9870  -11.5310   20.0130 C   0  0  0  0  0  0  0  0  0  0  0  0
  -33.1750  -11.0550   20.6120 C   0  0  0  0  0  3  0  0  0  0  0  0
  -33.3180   -9.6870   20.9300 C   0  0  0  0  0  3  0  0  0  0  0  0
  -32.2680   -8.7800   20.6490 C   0  0  0  0  0  0  0  0  0  0  0  0
  -31.0970   -9.2550   20.0320 C   0  0  0  0  0  3  0  0  0  0  0  0
  -30.9580  -10.6160   19.7120 C   0  0  0  0  0  3  0  0  0  0  0  0
  -32.3270   -7.4300   20.8970 O   0  0  0  0  0  0  0  0  0  0  0  0
  -33.2390   -6.8970   21.7710 C   0  0  0  0  0  0  0  0  0  0  0  0
  -33.3450   -7.3520   23.1040 C   0  0  0  0  0  3  0  0  0  0  0  0
  -34.2460   -6.7290   23.9890 C   0  0  0  0  0  3  0  0  0  0  0  0
  -35.0360   -5.6510   23.5490 C   0  0  0  0  0  0  0  0  0  0  0  0
  -34.9300   -5.1950   22.2230 C   0  0  0  0  0  3  0  0  0  0  0  0
  -34.0310   -5.8160   21.3390 C   0  0  0  0  0  0  0  0  0  0  0  0
  -33.9150   -5.3570   20.0680 F   0  0  0  0  0  0  0  0  0  0  0  0
  -35.8970   -5.0480   24.4010 F   0  0  0  0  0  0  0  0  0  0  0  0
  -29.3070  -13.4170   20.3470 C   0  0  0  0  0  0  0  0  0  0  0  0
  -29.2620  -12.5200   21.3250 N   0  0  0  0  0  0  0  0  0  0  0  0
  -28.2830  -13.9550   19.9270 O   0  0  0  0  0  0  0  0  0  0  0  0
  -30.1040  -12.0930   21.6820 H   0  0  0  0  0  0  0  0  0  0  0  0
  -28.3730  -12.2570   21.7240 H   0  0  0  0  0  0  0  0  0  0  0  0
  -30.3210  -16.1870   19.0480 N   0  0  0  0  0  0  0  0  0  0  0  0
  -29.3350  -16.2780   19.2660 H   0  0  0  0  0  0  0  0  0  0  0  0
  -30.6870  -16.9510   18.4990 H   0  0  0  0  0  0  0  0  0  0  0  0
  -26.5320  -23.9710   19.5660 C   0  0  0  0  0  2  0  0  0  0  0  0
  -28.0440  -24.0060   19.2220 C   0  0  0  0  0  2  0  0  0  0  0  0
  -28.4670  -25.5030   21.1890 C   0  0  0  0  0  1  0  0  0  0  0  0
  -28.8110  -25.1500   19.7890 N   0  0  2  0  0  4  0  0  0  0  0  0
  -29.7400  -24.7640   19.8860 H   0  0  0  0  0  0  0  0  0  0  0  0
  -28.9760  -26.3880   18.7660 C   0  0  0  0  0  2  0  0  0  0  0  0
  -28.7890  -27.5920   19.4640 O   0  0  0  0  0  0  0  0  0  0  0  0
  -24.7230  -31.7040   23.5830 C   0  0  0  0  0  0  0  0  0  0  0  0
  -27.5140  -28.0890   19.6640 C   0  0  0  0  0  0  0  0  0  0  0  0
  -23.5100  -30.3630   21.8950 C   0  0  0  0  0  3  0  0  0  0  0  0
  -24.9640  -29.2210   20.1450 C   0  0  0  0  0  0  0  0  0  0  0  0
  -25.9350  -31.0840   21.4980 C   0  0  0  0  0  2  0  0  0  0  0  0
  -26.1090  -29.8240   20.6780 C   0  0  0  0  0  0  0  0  0  0  0  0
  -27.3820  -29.2560   20.4490 C   0  0  0  0  0  3  0  0  0  0  0  0
  -26.3430  -27.5030   19.1290 C   0  0  0  0  0  3  0  0  0  0  0  0
  -25.0740  -28.0530   19.3760 C   0  0  0  0  0  3  0  0  0  0  0  0
  -23.6380  -29.8910   20.4230 C   0  0  0  0  0  2  0  0  0  0  0  0
  -24.7460  -31.0600   22.3830 N   0  0  0  0  0  0  0  0  0  0  0  0
  -23.6860  -31.7610   24.2580 O   0  0  0  0  0  0  0  0  0  0  0  0
  -23.1040  -29.1520   22.7660 C   0  0  0  0  0  0  0  0  0  0  0  0
  -21.9350  -28.5630   22.4650 N   0  0  0  0  0  0  0  0  0  0  0  0
  -23.8430  -28.7470   23.6670 O   0  0  0  0  0  0  0  0  0  0  0  0
  -21.3790  -28.9640   21.7220 H   0  0  0  0  0  0  0  0  0  0  0  0
  -19.3300  -26.0730   22.2370 C   0  0  0  0  0  0  0  0  0  0  0  0
  -21.3730  -27.3870   23.1260 C   0  0  0  0  0  3  0  0  0  0  0  0
  -22.2010  -26.1180   22.8090 C   0  0  0  0  0  2  0  0  0  0  0  0
  -21.6680  -25.3390   21.6040 C   0  0  0  0  0  2  0  0  0  0  0  0
  -20.2200  -24.9050   21.8460 C   0  0  0  0  0  2  0  0  0  0  0  0
  -19.8750  -27.2430   22.8290 C   0  0  0  0  0  0  0  0  0  0  0  0
  -19.0120  -28.3130   23.1540 C   0  0  0  0  0  3  0  0  0  0  0  0
  -17.6320  -28.2270   22.8960 C   0  0  0  0  0  3  0  0  0  0  0  0
  -17.0970  -27.0640   22.3160 C   0  0  0  0  0  3  0  0  0  0  0  0
  -17.9430  -25.9880   21.9920 C   0  0  0  0  0  3  0  0  0  0  0  0
  -25.9880  -32.4230   24.1520 C   0  0  0  0  0  3  0  0  0  0  0  0
  -25.6170  -33.8190   24.4270 N   0  0  0  0  0  0  0  0  0  0  0  0
  -25.8870  -34.8510   23.6160 C   0  0  0  0  0  0  0  0  0  0  0  0
  -26.5460  -34.7320   22.5790 O   0  0  0  0  0  0  0  0  0  0  0  0
  -25.0370  -33.9820   25.2370 H   0  0  0  0  0  0  0  0  0  0  0  0
  -24.0740  -36.5420   23.1980 C   0  0  0  0  0  1  0  0  0  0  0  0
  -25.3370  -36.2330   24.0180 C   0  0  0  0  0  3  0  0  0  0  0  0
  -27.4330  -37.2510   24.7910 C   0  0  0  0  0  1  0  0  0  0  0  0
  -26.3190  -37.3260   23.8500 N   0  0  0  0  0  0  0  0  0  0  0  0
  -25.8720  -38.2320   23.9590 H   0  0  0  0  0  0  0  0  0  0  0  0
  -26.5670  -31.7330   25.4460 C   0  0  1  0  0  0  0  0  0  0  0  0
  -25.5060  -31.4480   26.5330 C   0  0  0  0  0  1  0  0  0  0  0  0
  -27.2460  -30.3900   25.0880 C   0  0  0  0  0  1  0  0  0  0  0  0
  -27.6590  -32.6290   26.0740 C   0  0  0  0  0  1  0  0  0  0  0  0
  2  1  1  0
  3  2  1  0
  3  4  1  0
  4  6  2  0
  5  4  1  0
  5  8  1  0
  7  5  1  0
  9  8  1  0
 10 11  1  0
 10  9  1  0
 12 11  1  0
 13 18  1  0
 14 15  1  0
 14 13  1  0
 16 15  1  0
 16 23  1  0
 16 17  1  0
 18 12  1  0
 18 17  1  0
 19 12  2  0
 20 21  2  0
 21 40  1  0
 22 21  1  0
 22 25  1  0
 23 24  1  0
 23 20  1  0
 24 22  2  0
 25 26  1  0
 26 27  2  0
 28 31  1  0
 28 27  1  0
 29 28  2  0
 30 25  2  0
 30 29  1  0
 31 32  1  0
 32 33  1  0
 33 34  2  0
 35 34  1  0
 35 39  1  0
 36 35  2  0
 37 32  2  0
 37 36  1  0
 38 37  1  0
 40 41  1  0
 41 43  1  0
 41 44  1  0
 42 40  2  0
 45 20  1  0
 45 46  1  0
 47 45  1  0
 48  1  1  0
 49 48  1  0
 49 51  1  0
 51 52  1  1
 51 50  1  0
 53 54  1  0
 53 51  1  0
 54 56  1  0
 55 66  2  0
 56 61  1  0
 57 65  1  0
 57 67  1  0
 58 64  1  0
 58 60  1  0
 59 65  1  0
 60 59  1  0
 61 60  2  0
 62 63  1  0
 62 56  2  0
 63 58  2  0
 64 57  1  0
 65 55  1  0
 67 69  2  0
 68 67  1  0
 70 68  1  0
 71 76  1  0
 72 68  1  0
 73 72  1  0
 74 75  1  0
 74 73  1  0
 75 71  1  0
 76 72  1  0
 76 77  2  0
 78 77  1  0
 79 78  2  0
 80 71  2  0
 80 79  1  0
 81 55  1  0
 81 82  1  0
 81 91  1  0
 82 85  1  0
 83 87  1  0
 83 82  1  0
 84 83  2  0
 87 86  1  0
 89 90  1  0
 89 87  1  0
 89 88  1  0
 91 94  1  1
 91 92  1  0
 93 91  1  0
M  ISO  4  11 100  12 100  53 101  54 101
M  END
>  <TORSDO>  (68) 
F 27

>  <SCORE>  (68) 
-5.876

>  <name>  (68) 
67

>  <ligand_id>  (68) 
67

>  <original_smiles>  (68) 
[H]c1c([H])c([H])c2c(c1[H])C([H])([H])C([H])([H])C([H])([H])C2([H])N([H])C(=O)C1([H])N(C(=O)C([H])(N([H])C(=O)C([H])(N([H])C([H])([H])[H])C([H])([H])[H])C(C([H])([H])[H])(C([H])([H])[H])C([H])([H])[H])C([H])([H])c2c([H])c(OC([H])([H])[N+]([H])(C([H])([H])[H])C([H])([H])C([H])([H])C([H])([H])C([H])([H])C([H])([H])C(=O)N([H])C([H])([H])C([H])([H])C([H])([H])C([H])([H])C(=O)N3C([H])([H])C([H])([H])C([H])([H])C([H])(n4nc(-c5c([H])c([H])c(Oc6c([H])c([H])c(F)c([H])c6F)c([H])c5[H])c(C(=O)N([H])[H])c4N([H])[H])C3([H])[H])c([H])c([H])c2C1([H])[H]

>  <smiles>  (68) 
[H]c1c([H])c([H])c2c(c1[H])C([H])([H])C([H])([H])C([H])([H])C2([H])N([H])C(=O)C1([H])N(C(=O)C([H])(N([H])C(=O)C([H])(N([H])C([H])([H])[H])C([H])([H])[H])C(C([H])([H])[H])(C([H])([H])[H])C([H])([H])[H])C([H])([H])c2c([H])c(OC([H])([H])[N+]([H])(C([H])([H])[H])C([H])([H])C([H])([H])C([H])([H])C([H])([H])C([H])([H])C(=O)N([H])C([H])([H])C([H])([H])C([H])([H])C([H])([H])C(=O)N3C([H])([H])C([H])([H])C([H])([H])C([H])(n4nc(-c5c([H])c([H])c(Oc6c([H])c([H])c(F)c([H])c6F)c([H])c5[H])c(C(=O)N([H])[H])c4N([H])[H])C3([H])[H])c([H])c([H])c2C1([H])[H]

$$$$
68:0:0
     RDKit          3D

 95103  0  0  1  0  0  0  0  0999 V2000
  -29.4840  -21.0010   20.2940 C   0  0  0  0  0  2  0  0  0  0  0  0
  -28.1130  -21.6540   20.5900 C   0  0  0  0  0  0  0  0  0  0  0  0
  -27.8530  -22.9640   20.3850 N   0  0  0  0  0  0  0  0  0  0  0  0
  -27.2080  -20.9440   21.0240 O   0  0  0  0  0  0  0  0  0  0  0  0
  -26.8900  -23.2020   20.5770 H   0  0  0  0  0  0  0  0  0  0  0  0
  -28.6710  -24.1250   19.9820 C   0  0  0  0  0  2  0  0  0  0  0  0
  -28.2460  -25.3930   20.7890 C   0  0  0  0  0  2  0  0  0  0  0  0
  -28.4150  -26.6810   20.1450 O   0  0  0  0  0  0  0  0  0  0  0  0
  -24.5840  -31.8850   23.2040 C   0  0  0  0  0  0  0  0  0  0  0  0
  -27.2730  -27.4630   20.1190 C   0  0  0  0  0  0  0  0  0  0  0  0
  -23.4000  -30.4860   21.5430 C   0  0  0  0  0  3  0  0  0  0  0  0
  -24.8770  -28.9730   20.1110 C   0  0  0  0  0  0  0  0  0  0  0  0
  -25.9280  -30.8610   21.3650 C   0  0  0  0  0  2  0  0  0  0  0  0
  -26.0300  -29.4950   20.7140 C   0  0  0  0  0  0  0  0  0  0  0  0
  -27.2360  -28.7510   20.7110 C   0  0  0  0  0  3  0  0  0  0  0  0
  -26.1070  -26.9640   19.5050 C   0  0  0  0  0  3  0  0  0  0  0  0
  -24.9110  -27.7080   19.5000 C   0  0  0  0  0  3  0  0  0  0  0  0
  -23.6250  -29.8230   20.1590 C   0  0  0  0  0  2  0  0  0  0  0  0
  -24.6550  -31.0910   22.0960 N   0  0  0  0  0  0  0  0  0  0  0  0
  -23.4980  -32.1450   23.7390 O   0  0  0  0  0  0  0  0  0  0  0  0
  -22.7520  -29.4510   22.4900 C   0  0  0  0  0  0  0  0  0  0  0  0
  -21.4290  -29.2610   22.3550 N   0  0  0  0  0  0  0  0  0  0  0  0
  -23.4380  -28.8200   23.2980 O   0  0  0  0  0  0  0  0  0  0  0  0
  -20.9370  -29.8180   21.6730 H   0  0  0  0  0  0  0  0  0  0  0  0
  -18.0600  -28.0500   22.8360 C   0  0  0  0  0  0  0  0  0  0  0  0
  -20.6180  -28.3080   23.1130 C   0  0  0  0  0  3  0  0  0  0  0  0
  -20.7280  -26.8870   22.5140 C   0  0  0  0  0  2  0  0  0  0  0  0
  -19.6240  -26.5630   21.5040 C   0  0  0  0  0  2  0  0  0  0  0  0
  -18.2410  -26.7080   22.1460 C   0  0  0  0  0  2  0  0  0  0  0  0
  -19.1770  -28.8070   23.2790 C   0  0  0  0  0  0  0  0  0  0  0  0
  -18.9560  -30.0610   23.8880 C   0  0  0  0  0  3  0  0  0  0  0  0
  -17.6510  -30.5580   24.0560 C   0  0  0  0  0  3  0  0  0  0  0  0
  -16.5490  -29.7980   23.6310 C   0  0  0  0  0  3  0  0  0  0  0  0
  -16.7530  -28.5450   23.0240 C   0  0  0  0  0  3  0  0  0  0  0  0
  -25.8600  -32.5220   23.8360 C   0  0  0  0  0  3  0  0  0  0  0  0
  -25.5400  -33.9180   24.1690 N   0  0  0  0  0  0  0  0  0  0  0  0
  -25.8790  -34.9750   23.4190 C   0  0  0  0  0  0  0  0  0  0  0  0
  -26.5650  -34.8810   22.3980 O   0  0  0  0  0  0  0  0  0  0  0  0
  -24.9370  -34.0690   24.9650 H   0  0  0  0  0  0  0  0  0  0  0  0
  -24.1550  -36.7640   23.0370 C   0  0  0  0  0  1  0  0  0  0  0  0
  -25.3800  -36.3590   23.8730 C   0  0  0  0  0  3  0  0  0  0  0  0
  -27.4950  -37.2440   24.7540 C   0  0  0  0  0  1  0  0  0  0  0  0
  -26.4130  -37.4160   23.7880 N   0  0  0  0  0  0  0  0  0  0  0  0
  -26.0020  -38.3340   23.9320 H   0  0  0  0  0  0  0  0  0  0  0  0
  -26.3750  -31.7470   25.1100 C   0  0  1  0  0  0  0  0  0  0  0  0
  -25.2770  -31.4940   26.1690 C   0  0  0  0  0  1  0  0  0  0  0  0
  -26.9730  -30.3780   24.7120 C   0  0  0  0  0  1  0  0  0  0  0  0
  -27.5170  -32.5450   25.7840 C   0  0  0  0  0  1  0  0  0  0  0  0
  -29.3990  -19.5680   19.6480 C   0  0  0  0  0  2  0  0  0  0  0  0
  -30.0320  -18.4090   21.8380 C   0  0  0  0  0  3  0  0  0  0  0  0
  -30.6700  -15.9410   20.5650 C   0  0  0  0  0  0  0  0  0  0  0  0
  -30.5520  -17.3410   22.5900 C   0  0  0  0  0  0  0  0  0  0  0  0
  -29.8410  -18.3060   20.4490 C   0  0  0  0  0  0  0  0  0  0  0  0
  -30.9310  -16.1290   21.9560 C   0  0  0  0  0  0  0  0  0  0  0  0
  -30.0830  -17.0350   19.8200 C   0  0  0  0  0  0  0  0  0  0  0  0
  -30.7470  -17.5480   24.0860 C   0  0  0  0  0  1  0  0  0  0  0  0
  -31.7020  -15.0960   22.7860 C   0  0  0  0  0  1  0  0  0  0  0  0
  -31.1930  -14.6910   19.8510 C   0  0  0  0  0  0  0  0  0  0  0  0
  -30.6800  -12.6020   18.6420 C   0  0  0  0  0  2  0  0  0  0  0  0
  -29.6550  -12.9150   17.5300 C   0  0  0  0  0  2  0  0  0  0  0  0
  -28.2240  -12.7970   18.0870 C   0  0  0  0  0  2  0  0  0  0  0  0
  -28.0320  -13.5740   19.4200 C   0  0  0  0  0  3  0  0  0  0  0  0
  -29.1710  -13.2830   20.4170 C   0  0  0  0  0  2  0  0  0  0  0  0
  -30.4470  -13.5540   19.7430 N   0  0  0  0  0  0  0  0  0  0  0  0
  -32.2850  -14.7990   19.2840 O   0  0  0  0  0  0  0  0  0  0  0  0
  -25.7460  -14.2330   20.3830 C   0  0  0  0  0  0  0  0  0  0  0  0
  -24.6770  -13.4830   20.7990 C   0  0  0  0  0  0  0  0  0  0  0  0
  -25.0700  -12.1180   20.6480 C   0  0  0  0  0  0  0  0  0  0  0  0
  -26.7190  -13.3220   20.0060 N   0  0  0  0  0  0  0  0  0  0  0  0
  -26.3240  -12.0430   20.2210 N   0  0  0  0  0  0  0  0  0  0  0  0
  -24.3080  -10.8760   20.8290 C   0  0  0  0  0  0  0  0  0  0  0  0
  -24.7300   -9.8740   21.7290 C   0  0  0  0  0  3  0  0  0  0  0  0
  -23.9660   -8.6970   21.8990 C   0  0  0  0  0  3  0  0  0  0  0  0
  -22.7670   -8.5180   21.1690 C   0  0  0  0  0  0  0  0  0  0  0  0
  -22.3640   -9.5120   20.2580 C   0  0  0  0  0  3  0  0  0  0  0  0
  -23.1290  -10.6770   20.0860 C   0  0  0  0  0  3  0  0  0  0  0  0
  -21.9750   -7.3990   21.2490 O   0  0  0  0  0  0  0  0  0  0  0  0
  -21.8550   -6.6850   22.4140 C   0  0  0  0  0  0  0  0  0  0  0  0
  -21.4230   -7.2870   23.6160 C   0  0  0  0  0  3  0  0  0  0  0  0
  -21.2470   -6.5030   24.7730 C   0  0  0  0  0  3  0  0  0  0  0  0
  -21.4920   -5.1180   24.7270 C   0  0  0  0  0  0  0  0  0  0  0  0
  -21.9150   -4.5150   23.5300 C   0  0  0  0  0  3  0  0  0  0  0  0
  -22.0930   -5.2950   22.3750 C   0  0  0  0  0  0  0  0  0  0  0  0
  -22.4810   -4.7070   21.2190 F   0  0  0  0  0  0  0  0  0  0  0  0
  -21.3150   -4.3620   25.8360 F   0  0  0  0  0  0  0  0  0  0  0  0
  -23.3350  -14.0010   21.2270 C   0  0  0  0  0  0  0  0  0  0  0  0
  -22.6760  -13.3020   22.1430 N   0  0  0  0  0  0  0  0  0  0  0  0
  -22.8840  -15.0570   20.7850 O   0  0  0  0  0  0  0  0  0  0  0  0
  -23.0570  -12.4420   22.5090 H   0  0  0  0  0  0  0  0  0  0  0  0
  -21.7790  -13.6280   22.4760 H   0  0  0  0  0  0  0  0  0  0  0  0
  -25.9670  -15.6020   20.2780 N   0  0  0  0  0  0  0  0  0  0  0  0
  -25.2690  -16.2940   20.5280 H   0  0  0  0  0  0  0  0  0  0  0  0
  -26.8480  -16.0200   20.0070 H   0  0  0  0  0  0  0  0  0  0  0  0
  -28.2500  -16.9670   17.9890 C   0  0  0  0  0  1  0  0  0  0  0  0
  -29.7490  -16.8770   18.3240 C   0  0  0  0  0  2  0  0  0  0  0  0
  1  2  1  0
  2  4  2  0
  3  5  1  0
  3  2  1  0
  6  3  1  0
  6  7  1  0
  8  7  1  0
  9 20  2  0
 10  8  1  0
 10 15  1  0
 11 19  1  0
 11 21  1  0
 12 18  1  0
 12 14  1  0
 13 19  1  0
 14 13  1  0
 15 14  2  0
 16 10  2  0
 17 16  1  0
 17 12  2  0
 18 11  1  0
 19  9  1  0
 21 23  2  0
 22 21  1  0
 24 22  1  0
 25 34  2  0
 25 30  1  0
 26 22  1  0
 26 30  1  0
 27 26  1  0
 28 29  1  0
 28 27  1  0
 29 25  1  0
 30 31  2  0
 31 32  1  0
 33 32  2  0
 34 33  1  0
 35  9  1  0
 35 36  1  0
 35 45  1  0
 36 39  1  0
 37 41  1  0
 37 36  1  0
 38 37  2  0
 41 40  1  0
 43 41  1  0
 43 44  1  0
 43 42  1  0
 45 48  1  1
 45 46  1  0
 47 45  1  0
 49  1  1  0
 49 53  1  0
 50 52  1  0
 51 54  1  0
 52 56  1  0
 53 50  2  0
 54 52  2  0
 54 57  1  0
 55 53  1  0
 55 51  2  0
 58 51  1  0
 59 64  1  0
 60 61  1  0
 60 59  1  0
 62 61  1  0
 62 69  1  0
 62 63  1  0
 64 58  1  0
 64 63  1  0
 65 58  2  0
 66 67  2  0
 67 86  1  0
 68 67  1  0
 68 71  1  0
 69 70  1  0
 69 66  1  0
 70 68  2  0
 71 72  1  0
 72 73  2  0
 74 77  1  0
 74 73  1  0
 75 74  2  0
 76 75  1  0
 76 71  2  0
 77 78  1  0
 78 79  1  0
 79 80  2  0
 81 80  1  0
 81 85  1  0
 82 81  2  0
 83 78  2  0
 83 82  1  0
 84 83  1  0
 86 87  1  0
 87 90  1  0
 87 89  1  0
 88 86  2  0
 91 66  1  0
 91 92  1  0
 93 91  1  0
 94 95  1  0
 95 55  1  0
M  ISO  4   7 101   8 101  51 100  58 100
M  END
>  <TORSDO>  (69) 
F 22

>  <SCORE>  (69) 
-8.167

>  <name>  (69) 
68

>  <ligand_id>  (69) 
68

>  <original_smiles>  (69) 
[H]c1c([H])c([H])c2c(c1[H])C([H])([H])C([H])([H])C([H])([H])C2([H])N([H])C(=O)C1([H])N(C(=O)C([H])(N([H])C(=O)C([H])(N([H])C([H])([H])[H])C([H])([H])[H])C(C([H])([H])[H])(C([H])([H])[H])C([H])([H])[H])C([H])([H])c2c([H])c(OC([H])([H])C([H])([H])N([H])C(=O)C([H])([H])C([H])([H])c3c([H])c(C([H])([H])[H])c(C([H])([H])[H])c(C(=O)N4C([H])([H])C([H])([H])C([H])([H])C([H])(n5nc(-c6c([H])c([H])c(Oc7c([H])c([H])c(F)c([H])c7F)c([H])c6[H])c(C(=O)N([H])[H])c5N([H])[H])C4([H])[H])c3C([H])([H])C([H])([H])[H])c([H])c([H])c2C1([H])[H]

>  <smiles>  (69) 
[H]c1c([H])c([H])c2c(c1[H])C([H])([H])C([H])([H])C([H])([H])C2([H])N([H])C(=O)C1([H])N(C(=O)C([H])(N([H])C(=O)C([H])(N([H])C([H])([H])[H])C([H])([H])[H])C(C([H])([H])[H])(C([H])([H])[H])C([H])([H])[H])C([H])([H])c2c([H])c(OC([H])([H])C([H])([H])N([H])C(=O)C([H])([H])C([H])([H])c3c([H])c(C([H])([H])[H])c(C([H])([H])[H])c(C(=O)N4C([H])([H])C([H])([H])C([H])([H])C([H])(n5nc(-c6c([H])c([H])c(Oc7c([H])c([H])c(F)c([H])c7F)c([H])c6[H])c(C(=O)N([H])[H])c5N([H])[H])C4([H])[H])c3C([H])([H])C([H])([H])[H])c([H])c([H])c2C1([H])[H]

$$$$
69:0:0
     RDKit          3D

 94103  0  0  1  0  0  0  0  0999 V2000
  -30.4240  -23.0230   22.1180 C   0  0  0  0  0  3  0  0  0  0  0  0
  -30.1620  -24.3970   22.0240 C   0  0  0  0  0  3  0  0  0  0  0  0
  -28.1740  -22.5500   21.3010 C   0  0  0  0  0  3  0  0  0  0  0  0
  -29.4330  -22.0960   21.7500 C   0  0  0  0  0  0  0  0  0  0  0  0
  -28.9120  -24.8570   21.5630 C   0  0  0  0  0  0  0  0  0  0  0  0
  -27.8950  -23.9350   21.2020 C   0  0  0  0  0  0  0  0  0  0  0  0
  -25.6840  -23.5250   20.3020 C   0  0  0  0  0  1  0  0  0  0  0  0
  -26.6770  -24.4290   20.7810 O   0  0  0  0  0  0  0  0  0  0  0  0
  -29.7450  -20.6150   21.8350 C   0  0  0  0  0  2  0  0  0  0  0  0
  -29.1500  -19.8080   20.6680 C   0  0  0  0  0  2  0  0  0  0  0  0
  -30.9740  -14.4530   20.0180 C   0  0  0  0  0  0  0  0  0  0  0  0
  -30.5860  -12.2790   18.9590 C   0  0  0  0  0  2  0  0  0  0  0  0
  -29.6080  -12.4870   17.7880 C   0  0  0  0  0  2  0  0  0  0  0  0
  -28.1520  -12.3860   18.2830 C   0  0  0  0  0  2  0  0  0  0  0  0
  -27.8710  -13.2600   19.5360 C   0  0  0  0  0  3  0  0  0  0  0  0
  -28.9660  -13.0590   20.6080 C   0  0  0  0  0  2  0  0  0  0  0  0
  -30.2710  -13.2940   19.9700 N   0  0  0  0  0  0  0  0  0  0  0  0
  -32.1220  -14.5710   19.5760 O   0  0  0  0  0  0  0  0  0  0  0  0
  -29.2000  -17.6650   19.3260 C   0  0  0  0  0  2  0  0  0  0  0  0
  -29.7410  -17.5480   21.7340 C   0  0  0  0  0  2  0  0  0  0  0  0
  -29.9990  -16.3840   19.0670 C   0  0  0  0  0  2  0  0  0  0  0  0
  -30.5610  -16.2660   21.5160 C   0  0  0  0  0  2  0  0  0  0  0  0
  -29.8140  -18.4400   20.4890 C   0  0  0  0  0  3  0  0  0  0  0  0
  -30.2370  -15.5530   20.2680 N   0  0  0  0  0  0  0  0  0  0  0  0
  -25.5180  -13.9160   20.3450 C   0  0  0  0  0  0  0  0  0  0  0  0
  -24.4490  -13.1630   20.7500 C   0  0  0  0  0  0  0  0  0  0  0  0
  -24.8810  -11.8020   20.6900 C   0  0  0  0  0  0  0  0  0  0  0  0
  -26.5330  -13.0140   20.0700 N   0  0  0  0  0  0  0  0  0  0  0  0
  -26.1550  -11.7370   20.3330 N   0  0  0  0  0  0  0  0  0  0  0  0
  -24.1370  -10.5530   20.9010 C   0  0  0  0  0  0  0  0  0  0  0  0
  -24.5660   -9.5860   21.8370 C   0  0  0  0  0  3  0  0  0  0  0  0
  -23.8250   -8.4030   22.0350 C   0  0  0  0  0  3  0  0  0  0  0  0
  -22.6410   -8.1740   21.2940 C   0  0  0  0  0  0  0  0  0  0  0  0
  -22.2290   -9.1290   20.3480 C   0  0  0  0  0  3  0  0  0  0  0  0
  -22.9720  -10.3060   20.1480 C   0  0  0  0  0  3  0  0  0  0  0  0
  -21.8710   -7.0410   21.4010 O   0  0  0  0  0  0  0  0  0  0  0  0
  -21.7870   -6.3340   22.5740 C   0  0  0  0  0  0  0  0  0  0  0  0
  -21.3540   -6.9340   23.7760 C   0  0  0  0  0  3  0  0  0  0  0  0
  -21.2180   -6.1560   24.9430 C   0  0  0  0  0  3  0  0  0  0  0  0
  -21.5050   -4.7780   24.9080 C   0  0  0  0  0  0  0  0  0  0  0  0
  -21.9310   -4.1770   23.7100 C   0  0  0  0  0  3  0  0  0  0  0  0
  -22.0700   -4.9530   22.5460 C   0  0  0  0  0  0  0  0  0  0  0  0
  -22.4610   -4.3650   21.3880 F   0  0  0  0  0  0  0  0  0  0  0  0
  -21.3670   -4.0280   26.0250 F   0  0  0  0  0  0  0  0  0  0  0  0
  -23.0750  -13.6650   21.0840 C   0  0  0  0  0  0  0  0  0  0  0  0
  -22.3730  -12.9780   21.9810 N   0  0  0  0  0  0  0  0  0  0  0  0
  -22.6330  -14.7000   20.5880 O   0  0  0  0  0  0  0  0  0  0  0  0
  -22.7430  -12.1380   22.4000 H   0  0  0  0  0  0  0  0  0  0  0  0
  -21.4540  -13.3000   22.2530 H   0  0  0  0  0  0  0  0  0  0  0  0
  -25.7060  -15.2850   20.1730 N   0  0  0  0  0  0  0  0  0  0  0  0
  -24.9670  -15.9610   20.3270 H   0  0  0  0  0  0  0  0  0  0  0  0
  -26.5720  -15.7050   19.8610 H   0  0  0  0  0  0  0  0  0  0  0  0
  -28.6740  -26.3560   21.5140 C   0  0  0  0  0  2  0  0  0  0  0  0
  -28.4080  -26.8290   20.1940 O   0  0  0  0  0  0  0  0  0  0  0  0
  -24.5870  -31.9340   23.2940 C   0  0  0  0  0  0  0  0  0  0  0  0
  -27.2770  -27.5950   20.1490 C   0  0  0  0  0  0  0  0  0  0  0  0
  -23.3970  -30.5360   21.6330 C   0  0  0  0  0  3  0  0  0  0  0  0
  -24.8700  -29.0440   20.1800 C   0  0  0  0  0  0  0  0  0  0  0  0
  -25.9110  -30.9390   21.4410 C   0  0  0  0  0  2  0  0  0  0  0  0
  -26.0140  -29.5800   20.7820 C   0  0  0  0  0  0  0  0  0  0  0  0
  -27.2240  -28.8580   20.7740 C   0  0  0  0  0  3  0  0  0  0  0  0
  -26.1290  -27.0740   19.5240 C   0  0  0  0  0  3  0  0  0  0  0  0
  -24.9170  -27.7870   19.5500 C   0  0  0  0  0  3  0  0  0  0  0  0
  -23.6120  -29.8760   20.2450 C   0  0  0  0  0  2  0  0  0  0  0  0
  -24.6500  -31.1480   22.1820 N   0  0  0  0  0  0  0  0  0  0  0  0
  -23.5030  -32.1880   23.8360 O   0  0  0  0  0  0  0  0  0  0  0  0
  -22.7590  -29.4950   22.5810 C   0  0  0  0  0  0  0  0  0  0  0  0
  -21.4370  -29.3030   22.4510 N   0  0  0  0  0  0  0  0  0  0  0  0
  -23.4500  -28.8660   23.3880 O   0  0  0  0  0  0  0  0  0  0  0  0
  -20.9440  -29.8610   21.7670 H   0  0  0  0  0  0  0  0  0  0  0  0
  -18.0680  -28.0890   22.9300 C   0  0  0  0  0  0  0  0  0  0  0  0
  -20.6260  -28.3510   23.2060 C   0  0  0  0  0  3  0  0  0  0  0  0
  -20.7360  -26.9310   22.6060 C   0  0  0  0  0  2  0  0  0  0  0  0
  -19.6340  -26.6200   21.5870 C   0  0  0  0  0  2  0  0  0  0  0  0
  -18.2510  -26.7510   22.2340 C   0  0  0  0  0  2  0  0  0  0  0  0
  -19.1850  -28.8480   23.3720 C   0  0  0  0  0  0  0  0  0  0  0  0
  -18.9650  -30.1010   23.9840 C   0  0  0  0  0  3  0  0  0  0  0  0
  -17.6610  -30.5990   24.1550 C   0  0  0  0  0  3  0  0  0  0  0  0
  -16.5570  -29.8360   23.7340 C   0  0  0  0  0  3  0  0  0  0  0  0
  -16.7620  -28.5830   23.1270 C   0  0  0  0  0  3  0  0  0  0  0  0
  -25.8700  -32.5700   23.9210 C   0  0  0  0  0  3  0  0  0  0  0  0
  -26.3670  -31.8150   25.2150 C   0  0  1  0  0  0  0  0  0  0  0  0
  -25.2560  -31.5960   26.2690 C   0  0  0  0  0  1  0  0  0  0  0  0
  -26.9520  -30.4300   24.8510 C   0  0  0  0  0  1  0  0  0  0  0  0
  -27.5130  -32.6140   25.8810 C   0  0  0  0  0  1  0  0  0  0  0  0
  -25.5650  -33.9730   24.2200 N   0  0  0  0  0  0  0  0  0  0  0  0
  -25.9120  -35.0070   23.4430 C   0  0  0  0  0  0  0  0  0  0  0  0
  -26.5950  -34.8790   22.4210 O   0  0  0  0  0  0  0  0  0  0  0  0
  -24.9580  -34.1470   25.0080 H   0  0  0  0  0  0  0  0  0  0  0  0
  -24.1950  -36.7960   23.0300 C   0  0  0  0  0  1  0  0  0  0  0  0
  -25.4260  -36.4080   23.8620 C   0  0  0  0  0  3  0  0  0  0  0  0
  -27.5570  -37.2990   24.6930 C   0  0  0  0  0  1  0  0  0  0  0  0
  -26.4640  -37.4540   23.7360 N   0  0  0  0  0  0  0  0  0  0  0  0
  -26.0630  -38.3790   23.8610 H   0  0  0  0  0  0  0  0  0  0  0  0
  2  1  1  0
  3  4  1  0
  4  9  1  0
  4  1  2  0
  5  2  2  0
  6  3  2  0
  6  5  1  0
  7  8  1  0
  8  6  1  0
 10  9  1  0
 11 24  1  0
 12 17  1  0
 13 14  1  0
 13 12  1  0
 15 14  1  0
 15 28  1  0
 15 16  1  0
 17 11  1  0
 17 16  1  0
 18 11  2  0
 19 23  1  0
 21 19  1  0
 21 24  1  0
 22 20  1  0
 23 10  1  0
 23 20  1  0
 24 22  1  0
 25 26  2  0
 26 45  1  0
 27 26  1  0
 27 30  1  0
 28 29  1  0
 28 25  1  0
 29 27  2  0
 30 31  1  0
 31 32  2  0
 33 36  1  0
 33 32  1  0
 34 33  2  0
 35 34  1  0
 35 30  2  0
 36 37  1  0
 37 38  1  0
 38 39  2  0
 40 39  1  0
 40 44  1  0
 41 40  2  0
 42 37  2  0
 42 41  1  0
 43 42  1  0
 45 46  1  0
 46 49  1  0
 46 48  1  0
 47 45  2  0
 50 51  1  0
 50 25  1  0
 52 50  1  0
 53  5  1  0
 54 53  1  0
 55 66  2  0
 56 54  1  0
 56 61  1  0
 57 65  1  0
 57 67  1  0
 58 64  1  0
 58 60  1  0
 59 65  1  0
 60 59  1  0
 61 60  2  0
 62 63  1  0
 62 56  2  0
 63 58  2  0
 64 57  1  0
 65 55  1  0
 67 69  2  0
 68 67  1  0
 70 68  1  0
 71 80  2  0
 71 76  1  0
 72 68  1  0
 72 76  1  0
 73 72  1  0
 74 75  1  0
 74 73  1  0
 75 71  1  0
 76 77  2  0
 77 78  1  0
 79 78  2  0
 80 79  1  0
 81 55  1  0
 81 86  1  0
 81 82  1  0
 82 85  1  1
 82 83  1  0
 84 82  1  0
 86 89  1  0
 87 91  1  0
 87 86  1  0
 88 87  2  0
 91 90  1  0
 93 94  1  0
 93 91  1  0
 93 92  1  0
M  ISO  4  11 100  24 100  53 101  54 101
M  END
>  <TORSDO>  (70) 
F 20

>  <SCORE>  (70) 
-13.942

>  <name>  (70) 
69

>  <ligand_id>  (70) 
69

>  <original_smiles>  (70) 
[H]c1c([H])c([H])c2c(c1[H])C([H])([H])C([H])([H])C([H])([H])C2([H])N([H])C(=O)C1([H])N(C(=O)C([H])(N([H])C(=O)C([H])(N([H])C([H])([H])[H])C([H])([H])[H])C(C([H])([H])[H])(C([H])([H])[H])C([H])([H])[H])C([H])([H])c2c([H])c(OC([H])([H])c3c([H])c([H])c(C([H])([H])C([H])([H])C4([H])C([H])([H])C([H])([H])N(C(=O)N5C([H])([H])C([H])([H])C([H])([H])C([H])(n6nc(-c7c([H])c([H])c(Oc8c([H])c([H])c(F)c([H])c8F)c([H])c7[H])c(C(=O)N([H])[H])c6N([H])[H])C5([H])[H])C([H])([H])C4([H])[H])c([H])c3OC([H])([H])[H])c([H])c([H])c2C1([H])[H]

>  <smiles>  (70) 
[H]c1c([H])c([H])c2c(c1[H])C([H])([H])C([H])([H])C([H])([H])C2([H])N([H])C(=O)C1([H])N(C(=O)C([H])(N([H])C(=O)C([H])(N([H])C([H])([H])[H])C([H])([H])[H])C(C([H])([H])[H])(C([H])([H])[H])C([H])([H])[H])C([H])([H])c2c([H])c(OC([H])([H])c3c([H])c([H])c(C([H])([H])C([H])([H])C4([H])C([H])([H])C([H])([H])N(C(=O)N5C([H])([H])C([H])([H])C([H])([H])C([H])(n6nc(-c7c([H])c([H])c(Oc8c([H])c([H])c(F)c([H])c8F)c([H])c7[H])c(C(=O)N([H])[H])c6N([H])[H])C5([H])[H])C([H])([H])C4([H])[H])c([H])c3OC([H])([H])[H])c([H])c([H])c2C1([H])[H]

$$$$
70:0:0
     RDKit          3D

 92100  0  0  1  0  0  0  0  0999 V2000
  -29.9850  -18.0310   20.1920 C   0  0  0  0  0  2  0  0  0  0  0  0
  -29.7980  -16.0450   24.1200 C   0  0  0  0  0  3  0  0  0  0  0  0
  -29.4940  -17.9030   22.6160 C   0  0  0  0  0  3  0  0  0  0  0  0
  -30.2090  -15.7050   21.6900 C   0  0  0  0  0  0  0  0  0  0  0  0
  -30.2200  -15.2340   23.0500 C   0  0  0  0  0  0  0  0  0  0  0  0
  -29.8890  -17.1410   21.4900 C   0  0  0  0  0  0  0  0  0  0  0  0
  -29.4250  -17.3720   23.9060 C   0  0  0  0  0  0  0  0  0  0  0  0
  -30.7400  -13.8540   23.4620 C   0  0  0  0  0  1  0  0  0  0  0  0
  -30.6650  -14.6710   20.6190 C   0  0  0  0  0  0  0  0  0  0  0  0
  -30.4360  -12.4480   19.4600 C   0  0  0  0  0  2  0  0  0  0  0  0
  -29.5080  -12.5350   18.2300 C   0  0  0  0  0  2  0  0  0  0  0  0
  -28.0370  -12.3450   18.6420 C   0  0  0  0  0  2  0  0  0  0  0  0
  -27.6500  -13.2260   19.8570 C   0  0  0  0  0  3  0  0  0  0  0  0
  -28.6870  -13.1130   20.9920 C   0  0  0  0  0  2  0  0  0  0  0  0
  -30.0090  -13.4680   20.4480 N   0  0  0  0  0  0  0  0  0  0  0  0
  -31.7130  -14.8940   20.0060 O   0  0  0  0  0  0  0  0  0  0  0  0
  -25.2550  -13.8190   20.5680 C   0  0  0  0  0  0  0  0  0  0  0  0
  -24.1820  -13.0440   20.9170 C   0  0  0  0  0  0  0  0  0  0  0  0
  -24.6400  -11.6910   20.8720 C   0  0  0  0  0  0  0  0  0  0  0  0
  -26.2980  -12.9390   20.3280 N   0  0  0  0  0  0  0  0  0  0  0  0
  -25.9330  -11.6530   20.5720 N   0  0  0  0  0  0  0  0  0  0  0  0
  -23.9080  -10.4290   21.0390 C   0  0  0  0  0  0  0  0  0  0  0  0
  -24.3620   -9.4210   21.9180 C   0  0  0  0  0  3  0  0  0  0  0  0
  -23.6290   -8.2250   22.0760 C   0  0  0  0  0  3  0  0  0  0  0  0
  -22.4270   -8.0280   21.3550 C   0  0  0  0  0  0  0  0  0  0  0  0
  -21.9910   -9.0250   20.4650 C   0  0  0  0  0  3  0  0  0  0  0  0
  -22.7240  -10.2130   20.3050 C   0  0  0  0  0  3  0  0  0  0  0  0
  -21.6640   -6.8880   21.4240 O   0  0  0  0  0  0  0  0  0  0  0  0
  -21.6860   -6.0730   22.5280 C   0  0  0  0  0  0  0  0  0  0  0  0
  -21.4020   -6.5640   23.8220 C   0  0  0  0  0  3  0  0  0  0  0  0
  -21.3660   -5.6790   24.9180 C   0  0  0  0  0  3  0  0  0  0  0  0
  -21.6040   -4.3050   24.7230 C   0  0  0  0  0  0  0  0  0  0  0  0
  -21.8820   -3.8140   23.4350 C   0  0  0  0  0  3  0  0  0  0  0  0
  -21.9190   -4.6960   22.3410 C   0  0  0  0  0  0  0  0  0  0  0  0
  -22.1660   -4.2150   21.0990 F   0  0  0  0  0  0  0  0  0  0  0  0
  -21.5630   -3.4540   25.7740 F   0  0  0  0  0  0  0  0  0  0  0  0
  -22.7840  -13.5220   21.1840 C   0  0  0  0  0  0  0  0  0  0  0  0
  -22.0490  -12.8220   22.0400 N   0  0  0  0  0  0  0  0  0  0  0  0
  -22.3520  -14.5520   20.6690 O   0  0  0  0  0  0  0  0  0  0  0  0
  -22.4120  -11.9890   22.4790 H   0  0  0  0  0  0  0  0  0  0  0  0
  -21.1110  -13.1260   22.2600 H   0  0  0  0  0  0  0  0  0  0  0  0
  -25.4240  -15.1910   20.4140 N   0  0  0  0  0  0  0  0  0  0  0  0
  -24.6620  -15.8480   20.5470 H   0  0  0  0  0  0  0  0  0  0  0  0
  -26.2870  -15.6380   20.1300 H   0  0  0  0  0  0  0  0  0  0  0  0
  -29.0380  -18.1630   24.9480 O   0  0  0  0  0  0  0  0  0  0  0  0
  -29.0520  -17.7120   25.7870 H   0  0  0  0  0  0  0  0  0  0  0  0
  -29.0920  -19.3930   20.0370 C   0  0  0  0  0  3  0  0  0  0  0  0
  -29.5990  -20.8970   20.3750 C   0  0  0  0  0  3  0  0  0  0  0  0
  -28.6800  -22.1640   19.9450 C   0  0  0  0  0  2  0  0  0  0  0  0
  -29.0730  -23.7000   20.3040 C   0  0  0  0  0  3  0  0  0  0  0  0
  -28.0640  -24.8940   19.8840 C   0  0  0  0  0  3  0  0  0  0  0  0
  -28.3100  -26.3550   20.1640 O   0  0  0  0  0  0  0  0  0  0  0  0
  -24.6310  -31.8550   23.2000 C   0  0  0  0  0  0  0  0  0  0  0  0
  -27.2190  -27.2600   20.1100 C   0  0  0  0  0  0  0  0  0  0  0  0
  -23.4290  -30.4780   21.5450 C   0  0  0  0  0  3  0  0  0  0  0  0
  -24.8740  -28.9300   20.1090 C   0  0  0  0  0  0  0  0  0  0  0  0
  -25.9770  -30.7620   21.3860 C   0  0  0  0  0  2  0  0  0  0  0  0
  -26.0480  -29.3880   20.7220 C   0  0  0  0  0  0  0  0  0  0  0  0
  -27.2220  -28.5640   20.7140 C   0  0  0  0  0  3  0  0  0  0  0  0
  -26.0200  -26.8790   19.4610 C   0  0  0  0  0  3  0  0  0  0  0  0
  -24.8670  -27.6830   19.4700 C   0  0  0  0  0  3  0  0  0  0  0  0
  -23.6450  -29.8160   20.1610 C   0  0  0  0  0  2  0  0  0  0  0  0
  -24.6980  -31.0500   22.1000 N   0  0  0  0  0  0  0  0  0  0  0  0
  -23.5460  -32.1390   23.7280 O   0  0  0  0  0  0  0  0  0  0  0  0
  -22.7510  -29.4590   22.4930 C   0  0  0  0  0  0  0  0  0  0  0  0
  -21.4220  -29.3020   22.3650 N   0  0  0  0  0  0  0  0  0  0  0  0
  -23.4200  -28.8130   23.3030 O   0  0  0  0  0  0  0  0  0  0  0  0
  -20.9400  -29.8760   21.6870 H   0  0  0  0  0  0  0  0  0  0  0  0
  -18.0290  -28.1370   22.8470 C   0  0  0  0  0  0  0  0  0  0  0  0
  -20.5900  -28.3680   23.1260 C   0  0  0  0  0  3  0  0  0  0  0  0
  -20.6780  -26.9400   22.5400 C   0  0  0  0  0  2  0  0  0  0  0  0
  -19.5760  -26.6370   21.5200 C   0  0  0  0  0  2  0  0  0  0  0  0
  -18.1940  -26.7910   22.1610 C   0  0  0  0  0  2  0  0  0  0  0  0
  -19.1550  -28.8840   23.2860 C   0  0  0  0  0  0  0  0  0  0  0  0
  -18.9470  -30.1440   23.8870 C   0  0  0  0  0  3  0  0  0  0  0  0
  -17.6470  -30.6570   24.0550 C   0  0  0  0  0  3  0  0  0  0  0  0
  -16.5350  -29.9060   23.6330 C   0  0  0  0  0  3  0  0  0  0  0  0
  -16.7280  -28.6490   23.0350 C   0  0  0  0  0  3  0  0  0  0  0  0
  -25.9140  -32.4750   23.8340 C   0  0  0  0  0  3  0  0  0  0  0  0
  -25.5940  -33.8560   24.2260 N   0  0  0  0  0  0  0  0  0  0  0  0
  -25.9060  -34.9440   23.5090 C   0  0  0  0  0  0  0  0  0  0  0  0
  -26.5640  -34.8910   22.4670 O   0  0  0  0  0  0  0  0  0  0  0  0
  -25.0050  -33.9690   25.0380 H   0  0  0  0  0  0  0  0  0  0  0  0
  -24.1490  -36.7280   23.2640 C   0  0  0  0  0  1  0  0  0  0  0  0
  -25.4120  -36.3070   24.0320 C   0  0  0  0  0  3  0  0  0  0  0  0
  -27.5590  -37.1790   24.8460 C   0  0  0  0  0  1  0  0  0  0  0  0
  -26.4300  -37.3770   23.9400 N   0  0  0  0  0  0  0  0  0  0  0  0
  -26.0190  -38.2850   24.1400 H   0  0  0  0  0  0  0  0  0  0  0  0
  -26.4500  -31.6590   25.0740 C   0  0  1  0  0  0  0  0  0  0  0  0
  -25.3700  -31.3730   26.1440 C   0  0  0  0  0  1  0  0  0  0  0  0
  -27.0370  -30.3000   24.6260 C   0  0  0  0  0  1  0  0  0  0  0  0
  -27.6050  -32.4340   25.7500 C   0  0  0  0  0  1  0  0  0  0  0  0
  1  6  1  0
  3  7  2  0
  4  5  1  0
  5  8  1  0
  5  2  2  0
  6  4  2  0
  6  3  1  0
  7  2  1  0
  7 45  1  0
  9  4  1  0
 10 15  1  0
 11 12  1  0
 11 10  1  0
 13 12  1  0
 13 20  1  0
 13 14  1  0
 15  9  1  0
 15 14  1  0
 16  9  2  0
 17 18  2  0
 18 37  1  0
 19 18  1  0
 19 22  1  0
 20 17  1  0
 20 21  1  0
 21 19  2  0
 22 23  1  0
 23 24  2  0
 25 28  1  0
 25 24  1  0
 26 25  2  0
 27 26  1  0
 27 22  2  0
 28 29  1  0
 29 30  1  0
 30 31  2  0
 32 31  1  0
 32 36  1  0
 33 32  2  0
 34 29  2  0
 34 33  1  0
 35 34  1  0
 37 38  1  0
 38 41  1  0
 38 40  1  0
 39 37  2  0
 42 43  1  0
 42 17  1  0
 44 42  1  0
 45 46  1  0
 47  1  1  0
 47 48  2  0
 49 50  1  0
 49 48  1  0
 51 52  1  0
 51 50  2  0
 53 64  2  0
 54 52  1  0
 54 59  1  0
 55 63  1  0
 55 65  1  0
 56 62  1  0
 56 58  1  0
 57 63  1  0
 58 57  1  0
 59 58  2  0
 60 61  1  0
 60 54  2  0
 61 56  2  0
 62 55  1  0
 63 53  1  0
 65 67  2  0
 66 65  1  0
 68 66  1  0
 69 78  2  0
 69 74  1  0
 70 66  1  0
 70 74  1  0
 71 70  1  0
 72 73  1  0
 72 71  1  0
 73 69  1  0
 74 75  2  0
 75 76  1  0
 77 76  2  0
 78 77  1  0
 79 53  1  0
 79 80  1  0
 79 89  1  0
 80 83  1  0
 81 85  1  0
 81 80  1  0
 82 81  2  0
 85 84  1  0
 87 85  1  0
 87 88  1  0
 87 86  1  0
 89 92  1  1
 89 90  1  0
 91 89  1  0
M  ISO  4   4 100   9 100  51 101  52 101
M  END
>  <TORSDO>  (71) 
F 23

>  <SCORE>  (71) 
6.251

>  <name>  (71) 
70

>  <ligand_id>  (71) 
70

>  <original_smiles>  (71) 
[H]Oc1c([H])c(C([H])([H])[H])c(C(=O)N2C([H])([H])C([H])([H])C([H])([H])C([H])(n3nc(-c4c([H])c([H])c(Oc5c([H])c([H])c(F)c([H])c5F)c([H])c4[H])c(C(=O)N([H])[H])c3N([H])[H])C2([H])[H])c(C([H])([H])C([H])([H])C([H])([H])C([H])([H])C([H])([H])C([H])([H])Oc2c([H])c([H])c3c(c2[H])C([H])([H])N(C(=O)C([H])(N([H])C(=O)C([H])(N([H])C([H])([H])[H])C([H])([H])[H])C(C([H])([H])[H])(C([H])([H])[H])C([H])([H])[H])C([H])(C(=O)N([H])C2([H])c4c([H])c([H])c([H])c([H])c4C([H])([H])C([H])([H])C2([H])[H])C3([H])[H])c1[H]

>  <smiles>  (71) 
[H]Oc1c([H])c(C([H])([H])[H])c(C(=O)N2C([H])([H])C([H])([H])C([H])([H])C([H])(n3nc(-c4c([H])c([H])c(Oc5c([H])c([H])c(F)c([H])c5F)c([H])c4[H])c(C(=O)N([H])[H])c3N([H])[H])C2([H])[H])c(C([H])([H])C([H])([H])C([H])([H])C([H])([H])C([H])([H])C([H])([H])Oc2c([H])c([H])c3c(c2[H])C([H])([H])N(C(=O)C([H])(N([H])C(=O)C([H])(N([H])C([H])([H])[H])C([H])([H])[H])C(C([H])([H])[H])(C([H])([H])[H])C([H])([H])[H])C([H])(C(=O)N([H])C2([H])c4c([H])c([H])c([H])c([H])c4C([H])([H])C([H])([H])C2([H])[H])C3([H])[H])c1[H]

$$$$
71:0:0
     RDKit          3D

 93102  0  0  1  0  0  0  0  0999 V2000
  -29.1580  -22.7570   20.4940 C   0  0  0  0  0  3  0  0  0  0  0  0
  -29.4000  -21.3050   18.5810 C   0  0  0  0  0  3  0  0  0  0  0  0
  -28.4810  -23.5940   18.3290 C   0  0  0  0  0  3  0  0  0  0  0  0
  -29.5490  -21.4960   19.9690 C   0  0  0  0  0  0  0  0  0  0  0  0
  -28.6020  -23.8230   19.7360 C   0  0  0  0  0  0  0  0  0  0  0  0
  -28.9050  -22.3450   17.7690 C   0  0  0  0  0  0  0  0  0  0  0  0
  -28.8370  -22.0990   16.4290 O   0  0  0  0  0  0  0  0  0  0  0  0
  -28.8590  -21.1640   16.2220 H   0  0  0  0  0  0  0  0  0  0  0  0
  -30.1810  -20.4870   20.9690 C   0  0  0  0  0  2  0  0  0  0  0  0
  -31.0050  -14.5990   20.0400 C   0  0  0  0  0  0  0  0  0  0  0  0
  -30.4290  -12.4610   18.9300 C   0  0  0  0  0  2  0  0  0  0  0  0
  -29.4390  -12.6730   17.7760 C   0  0  0  0  0  2  0  0  0  0  0  0
  -28.0010  -12.5200   18.3050 C   0  0  0  0  0  2  0  0  0  0  0  0
  -27.7420  -13.3530   19.5950 C   0  0  0  0  0  3  0  0  0  0  0  0
  -28.8920  -13.2180   20.6240 C   0  0  0  0  0  2  0  0  0  0  0  0
  -30.1500  -13.5240   19.9260 N   0  0  0  0  0  0  0  0  0  0  0  0
  -32.1730  -14.4510   19.6620 O   0  0  0  0  0  0  0  0  0  0  0  0
  -31.0170  -18.3790   19.4910 C   0  0  0  0  0  2  0  0  0  0  0  0
  -29.3370  -17.9640   21.2780 C   0  0  0  0  0  2  0  0  0  0  0  0
  -31.5620  -16.9530   19.7030 C   0  0  0  0  0  2  0  0  0  0  0  0
  -29.5750  -16.4060   21.1230 C   0  0  0  0  0  2  0  0  0  0  0  0
  -30.4440  -18.9280   20.7960 C   0  0  0  0  0  3  0  0  0  0  0  0
  -30.5790  -15.9100   20.1490 N   0  0  0  0  0  0  0  0  0  0  0  0
  -25.3910  -13.9220   20.4700 C   0  0  0  0  0  0  0  0  0  0  0  0
  -24.3480  -13.1380   20.8720 C   0  0  0  0  0  0  0  0  0  0  0  0
  -24.8040  -11.7890   20.7740 C   0  0  0  0  0  0  0  0  0  0  0  0
  -26.4260  -13.0510   20.1610 N   0  0  0  0  0  0  0  0  0  0  0  0
  -26.0800  -11.7600   20.3980 N   0  0  0  0  0  0  0  0  0  0  0  0
  -24.0760  -10.5230   20.9610 C   0  0  0  0  0  0  0  0  0  0  0  0
  -24.5210   -9.5490   21.8810 C   0  0  0  0  0  3  0  0  0  0  0  0
  -23.7950   -8.3520   22.0650 C   0  0  0  0  0  3  0  0  0  0  0  0
  -22.6080   -8.1210   21.3270 C   0  0  0  0  0  0  0  0  0  0  0  0
  -22.1810   -9.0880   20.3990 C   0  0  0  0  0  3  0  0  0  0  0  0
  -22.9080  -10.2730   20.2130 C   0  0  0  0  0  3  0  0  0  0  0  0
  -21.8630   -6.9750   21.4110 O   0  0  0  0  0  0  0  0  0  0  0  0
  -21.7880   -6.2380   22.5700 C   0  0  0  0  0  0  0  0  0  0  0  0
  -21.3050   -6.8000   23.7710 C   0  0  0  0  0  3  0  0  0  0  0  0
  -21.1740   -5.9960   24.9240 C   0  0  0  0  0  3  0  0  0  0  0  0
  -21.5260   -4.6340   24.8710 C   0  0  0  0  0  0  0  0  0  0  0  0
  -22.0100   -4.0730   23.6780 C   0  0  0  0  0  3  0  0  0  0  0  0
  -22.1320   -4.8730   22.5260 C   0  0  0  0  0  0  0  0  0  0  0  0
  -22.5700   -4.3220   21.3680 F   0  0  0  0  0  0  0  0  0  0  0  0
  -21.4030   -3.8600   25.9750 F   0  0  0  0  0  0  0  0  0  0  0  0
  -22.9690  -13.6160   21.2360 C   0  0  0  0  0  0  0  0  0  0  0  0
  -22.2930  -12.8920   22.1190 N   0  0  0  0  0  0  0  0  0  0  0  0
  -22.5050  -14.6530   20.7680 O   0  0  0  0  0  0  0  0  0  0  0  0
  -22.6930  -12.0530   22.5110 H   0  0  0  0  0  0  0  0  0  0  0  0
  -21.3720  -13.1840   22.4130 H   0  0  0  0  0  0  0  0  0  0  0  0
  -25.5340  -15.2930   20.3080 N   0  0  0  0  0  0  0  0  0  0  0  0
  -24.6850  -15.8450   20.2840 H   0  0  0  0  0  0  0  0  0  0  0  0
  -26.2590  -15.6570   19.7030 H   0  0  0  0  0  0  0  0  0  0  0  0
  -28.0500  -25.0580   20.5470 C   0  0  0  0  0  2  0  0  0  0  0  0
  -28.3570  -26.4520   20.1810 O   0  0  0  0  0  0  0  0  0  0  0  0
  -24.6670  -31.9080   23.2530 C   0  0  0  0  0  0  0  0  0  0  0  0
  -27.2580  -27.3180   20.1820 C   0  0  0  0  0  0  0  0  0  0  0  0
  -23.4700  -30.4960   21.6280 C   0  0  0  0  0  3  0  0  0  0  0  0
  -24.9170  -28.9450   20.1760 C   0  0  0  0  0  0  0  0  0  0  0  0
  -26.0100  -30.7870   21.4560 C   0  0  0  0  0  2  0  0  0  0  0  0
  -26.0810  -29.4130   20.8020 C   0  0  0  0  0  0  0  0  0  0  0  0
  -27.2560  -28.5980   20.8060 C   0  0  0  0  0  3  0  0  0  0  0  0
  -26.0820  -26.9130   19.5120 C   0  0  0  0  0  3  0  0  0  0  0  0
  -24.9270  -27.7120   19.5100 C   0  0  0  0  0  3  0  0  0  0  0  0
  -23.6780  -29.8270   20.2390 C   0  0  0  0  0  2  0  0  0  0  0  0
  -24.7370  -31.0810   22.1730 N   0  0  0  0  0  0  0  0  0  0  0  0
  -23.5780  -32.1870   23.7840 O   0  0  0  0  0  0  0  0  0  0  0  0
  -22.8140  -29.4730   22.5870 C   0  0  0  0  0  0  0  0  0  0  0  0
  -21.4830  -29.3140   22.4690 N   0  0  0  0  0  0  0  0  0  0  0  0
  -23.4900  -28.8380   23.3970 O   0  0  0  0  0  0  0  0  0  0  0  0
  -20.9970  -29.8800   21.7850 H   0  0  0  0  0  0  0  0  0  0  0  0
  -18.1100  -28.1110   22.9580 C   0  0  0  0  0  0  0  0  0  0  0  0
  -20.6670  -28.3720   23.2350 C   0  0  0  0  0  3  0  0  0  0  0  0
  -20.7760  -26.9470   22.6550 C   0  0  0  0  0  2  0  0  0  0  0  0
  -19.6810  -26.6330   21.6290 C   0  0  0  0  0  2  0  0  0  0  0  0
  -18.2950  -26.7650   22.2700 C   0  0  0  0  0  2  0  0  0  0  0  0
  -19.2250  -28.8740   23.3940 C   0  0  0  0  0  0  0  0  0  0  0  0
  -19.0050  -30.1360   23.9880 C   0  0  0  0  0  3  0  0  0  0  0  0
  -17.7020  -30.6400   24.1460 C   0  0  0  0  0  3  0  0  0  0  0  0
  -16.6010  -29.8780   23.7300 C   0  0  0  0  0  3  0  0  0  0  0  0
  -16.8030  -28.6150   23.1420 C   0  0  0  0  0  3  0  0  0  0  0  0
  -25.9410  -32.5580   23.8730 C   0  0  0  0  0  3  0  0  0  0  0  0
  -26.4540  -31.8040   25.1610 C   0  0  1  0  0  0  0  0  0  0  0  0
  -25.3580  -31.5550   26.2220 C   0  0  0  0  0  1  0  0  0  0  0  0
  -27.0600  -30.4320   24.7890 C   0  0  0  0  0  1  0  0  0  0  0  0
  -27.5890  -32.6140   25.8360 C   0  0  0  0  0  1  0  0  0  0  0  0
  -25.6190  -33.9610   24.1930 N   0  0  0  0  0  0  0  0  0  0  0  0
  -25.9380  -35.0130   23.4290 C   0  0  0  0  0  0  0  0  0  0  0  0
  -26.6070  -34.9090   22.3960 O   0  0  0  0  0  0  0  0  0  0  0  0
  -25.0390  -34.1150   25.0060 H   0  0  0  0  0  0  0  0  0  0  0  0
  -24.2030  -36.8020   23.0560 C   0  0  0  0  0  1  0  0  0  0  0  0
  -25.4370  -36.4030   23.8790 C   0  0  0  0  0  3  0  0  0  0  0  0
  -27.5480  -37.3160   24.7350 C   0  0  0  0  0  1  0  0  0  0  0  0
  -26.4620  -37.4590   23.7720 N   0  0  0  0  0  0  0  0  0  0  0  0
  -26.0490  -38.3800   23.8920 H   0  0  0  0  0  0  0  0  0  0  0  0
  2  4  2  0
  3  5  1  0
  4  1  1  0
  4  9  1  0
  5  1  2  0
  5 52  1  0
  6  3  2  0
  6  2  1  0
  7  6  1  0
  8  7  1  0
 10 23  1  0
 11 16  1  0
 12 13  1  0
 12 11  1  0
 14 13  1  0
 14 27  1  0
 14 15  1  0
 16 10  1  0
 16 15  1  0
 17 10  2  0
 18 20  1  0
 18 22  1  0
 20 23  1  0
 21 19  1  0
 22  9  1  0
 22 19  1  0
 23 21  1  0
 24 25  2  0
 25 44  1  0
 26 25  1  0
 26 29  1  0
 27 28  1  0
 27 24  1  0
 28 26  2  0
 29 30  1  0
 30 31  2  0
 32 35  1  0
 32 31  1  0
 33 32  2  0
 34 33  1  0
 34 29  2  0
 35 36  1  0
 36 37  1  0
 37 38  2  0
 39 38  1  0
 39 43  1  0
 40 39  2  0
 41 36  2  0
 41 40  1  0
 42 41  1  0
 44 45  1  0
 45 48  1  0
 45 47  1  0
 46 44  2  0
 49 24  1  0
 50 49  1  0
 51 49  1  0
 53 55  1  0
 53 52  1  0
 54 65  2  0
 55 60  1  0
 56 64  1  0
 56 66  1  0
 57 63  1  0
 57 59  1  0
 58 64  1  0
 59 60  2  0
 59 58  1  0
 61 55  2  0
 62 61  1  0
 62 57  2  0
 63 56  1  0
 64 54  1  0
 66 68  2  0
 67 66  1  0
 69 67  1  0
 70 79  2  0
 70 75  1  0
 71 67  1  0
 71 75  1  0
 72 71  1  0
 73 74  1  0
 73 72  1  0
 74 70  1  0
 75 76  2  0
 76 77  1  0
 78 77  2  0
 79 78  1  0
 80 54  1  0
 80 85  1  0
 80 81  1  0
 81 84  1  1
 81 82  1  0
 83 81  1  0
 85 88  1  0
 86 90  1  0
 86 85  1  0
 87 86  2  0
 90 89  1  0
 92 90  1  0
 92 93  1  0
 92 91  1  0
M  ISO  4  10 100  23 100  52 101  53 101
M  END
>  <TORSDO>  (72) 
F 19

>  <SCORE>  (72) 
-14.292

>  <name>  (72) 
71

>  <ligand_id>  (72) 
71

>  <original_smiles>  (72) 
[H]Oc1c([H])c(C([H])([H])Oc2c([H])c([H])c3c(c2[H])C([H])([H])N(C(=O)C([H])(N([H])C(=O)C([H])(N([H])C([H])([H])[H])C([H])([H])[H])C(C([H])([H])[H])(C([H])([H])[H])C([H])([H])[H])C([H])(C(=O)N([H])C2([H])c4c([H])c([H])c([H])c([H])c4C([H])([H])C([H])([H])C2([H])[H])C3([H])[H])c([H])c(C([H])([H])C2([H])C([H])([H])C([H])([H])N(C(=O)N3C([H])([H])C([H])([H])C([H])([H])C([H])(n4nc(-c5c([H])c([H])c(Oc6c([H])c([H])c(F)c([H])c6F)c([H])c5[H])c(C(=O)N([H])[H])c4N([H])[H])C3([H])[H])C([H])([H])C2([H])[H])c1[H]

>  <smiles>  (72) 
[H]Oc1c([H])c(C([H])([H])Oc2c([H])c([H])c3c(c2[H])C([H])([H])N(C(=O)C([H])(N([H])C(=O)C([H])(N([H])C([H])([H])[H])C([H])([H])[H])C(C([H])([H])[H])(C([H])([H])[H])C([H])([H])[H])C([H])(C(=O)N([H])C2([H])c4c([H])c([H])c([H])c([H])c4C([H])([H])C([H])([H])C2([H])[H])C3([H])[H])c([H])c(C([H])([H])C2([H])C([H])([H])C([H])([H])N(C(=O)N3C([H])([H])C([H])([H])C([H])([H])C([H])(n4nc(-c5c([H])c([H])c(Oc6c([H])c([H])c(F)c([H])c6F)c([H])c5[H])c(C(=O)N([H])[H])c4N([H])[H])C3([H])[H])C([H])([H])C2([H])[H])c1[H]

$$$$
72:0:0
     RDKit          3D

 92101  0  0  1  0  0  0  0  0999 V2000
  -27.6830  -18.4850   18.7700 C   0  0  0  0  0  3  0  0  0  0  0  0
  -28.3320  -17.3100   19.2660 C   0  0  0  0  0  3  0  0  0  0  0  0
  -28.0320  -19.8270   19.1050 C   0  0  0  0  0  0  0  0  0  0  0  0
  -29.4590  -17.2910   20.1300 C   0  0  0  0  0  0  0  0  0  0  0  0
  -28.9420  -20.2140   20.0940 C   0  0  0  0  0  0  0  0  0  0  0  0
  -29.7130  -18.8480   20.5170 C   0  0  0  0  0  0  0  0  0  0  0  0
  -27.6940  -21.0030   18.2840 C   0  0  0  0  0  0  0  0  0  0  0  0
  -28.7940  -22.0670   18.4780 C   0  0  0  0  0  3  0  0  0  0  0  0
  -29.0420  -22.0970   20.0160 C   0  0  2  0  0  0  0  0  0  0  0  0
  -28.5540  -23.3850   17.7060 C   0  0  0  0  0  1  0  0  0  0  0  0
  -30.4950  -22.4600   20.3490 C   0  0  0  0  0  1  0  0  0  0  0  0
  -26.7620  -21.1090   17.4820 O   0  0  0  0  0  0  0  0  0  0  0  0
  -30.2520  -15.6910   20.2720 C   0  0  0  0  0  0  0  0  0  0  0  0
  -30.3760  -13.1270   19.5010 C   0  0  0  0  0  2  0  0  0  0  0  0
  -29.5000  -12.7100   18.2820 C   0  0  0  0  0  2  0  0  0  0  0  0
  -28.0700  -12.3530   18.7210 C   0  0  0  0  0  2  0  0  0  0  0  0
  -27.5430  -13.3570   19.7690 C   0  0  0  0  0  3  0  0  0  0  0  0
  -28.5590  -13.6990   20.8820 C   0  0  0  0  0  2  0  0  0  0  0  0
  -29.7440  -14.3140   20.2390 N   0  0  0  0  0  0  0  0  0  0  0  0
  -31.4930  -15.6090   20.1890 O   0  0  0  0  0  0  0  0  0  0  0  0
  -25.1800  -13.8800   20.5350 C   0  0  0  0  0  0  0  0  0  0  0  0
  -24.1230  -13.0960   20.8930 C   0  0  0  0  0  0  0  0  0  0  0  0
  -24.5980  -11.7480   20.8620 C   0  0  0  0  0  0  0  0  0  0  0  0
  -26.2280  -13.0130   20.2900 N   0  0  0  0  0  0  0  0  0  0  0  0
  -25.8930  -11.7230   20.5570 N   0  0  0  0  0  0  0  0  0  0  0  0
  -23.8740  -10.4830   21.0460 C   0  0  0  0  0  0  0  0  0  0  0  0
  -24.2960   -9.5180   21.9880 C   0  0  0  0  0  3  0  0  0  0  0  0
  -23.5680   -8.3210   22.1620 C   0  0  0  0  0  3  0  0  0  0  0  0
  -22.4030   -8.0790   21.3950 C   0  0  0  0  0  0  0  0  0  0  0  0
  -22.0010   -9.0320   20.4430 C   0  0  0  0  0  3  0  0  0  0  0  0
  -22.7290  -10.2210   20.2670 C   0  0  0  0  0  3  0  0  0  0  0  0
  -21.6490   -6.9340   21.4770 O   0  0  0  0  0  0  0  0  0  0  0  0
  -21.5780   -6.2000   22.6340 C   0  0  0  0  0  0  0  0  0  0  0  0
  -21.1120   -6.7580   23.8430 C   0  0  0  0  0  3  0  0  0  0  0  0
  -20.9890   -5.9500   24.9910 C   0  0  0  0  0  3  0  0  0  0  0  0
  -21.3240   -4.5840   24.9300 C   0  0  0  0  0  0  0  0  0  0  0  0
  -21.7820   -4.0250   23.7240 C   0  0  0  0  0  3  0  0  0  0  0  0
  -21.9060   -4.8300   22.5790 C   0  0  0  0  0  0  0  0  0  0  0  0
  -22.3290   -4.2810   21.4150 F   0  0  0  0  0  0  0  0  0  0  0  0
  -21.1990   -3.8050   26.0290 F   0  0  0  0  0  0  0  0  0  0  0  0
  -22.7210  -13.5660   21.1480 C   0  0  0  0  0  0  0  0  0  0  0  0
  -21.9900  -12.8710   22.0110 N   0  0  0  0  0  0  0  0  0  0  0  0
  -22.2850  -14.5870   20.6180 O   0  0  0  0  0  0  0  0  0  0  0  0
  -22.3580  -12.0470   22.4620 H   0  0  0  0  0  0  0  0  0  0  0  0
  -21.0480  -13.1680   22.2240 H   0  0  0  0  0  0  0  0  0  0  0  0
  -25.3360  -15.2530   20.3650 N   0  0  0  0  0  0  0  0  0  0  0  0
  -24.5690  -15.9030   20.4930 H   0  0  0  0  0  0  0  0  0  0  0  0
  -26.1980  -15.7090   20.0950 H   0  0  0  0  0  0  0  0  0  0  0  0
  -32.2380  -19.0780   20.5900 C   0  0  0  0  0  1  0  0  0  0  0  0
  -30.9320  -19.0660   21.3940 C   0  0  0  0  0  2  0  0  0  0  0  0
  -28.0710  -23.7390   20.4670 C   0  0  0  0  0  2  0  0  0  0  0  0
  -28.1920  -25.5060   20.3000 O   0  0  0  0  0  0  0  0  0  0  0  0
  -24.6570  -31.8410   23.1850 C   0  0  0  0  0  0  0  0  0  0  0  0
  -27.1990  -26.7100   20.2800 C   0  0  0  0  0  0  0  0  0  0  0  0
  -23.4740  -30.4180   21.5670 C   0  0  0  0  0  3  0  0  0  0  0  0
  -24.9250  -28.7470   20.1860 C   0  0  0  0  0  0  0  0  0  0  0  0
  -26.0540  -30.5590   21.4480 C   0  0  0  0  0  2  0  0  0  0  0  0
  -26.1220  -29.1150   20.8160 C   0  0  0  0  0  0  0  0  0  0  0  0
  -27.2430  -28.1260   20.8220 C   0  0  0  0  0  3  0  0  0  0  0  0
  -25.9640  -26.5540   19.5970 C   0  0  0  0  0  3  0  0  0  0  0  0
  -24.8870  -27.4930   19.5520 C   0  0  0  0  0  3  0  0  0  0  0  0
  -23.7180  -29.6990   20.2090 C   0  0  0  0  0  2  0  0  0  0  0  0
  -24.7530  -30.9750   22.1180 N   0  0  0  0  0  0  0  0  0  0  0  0
  -23.5620  -32.1460   23.6900 O   0  0  0  0  0  0  0  0  0  0  0  0
  -22.7570  -29.4550   22.5520 C   0  0  0  0  0  0  0  0  0  0  0  0
  -21.4230  -29.3010   22.4290 N   0  0  0  0  0  0  0  0  0  0  0  0
  -23.4110  -28.8440   23.3980 O   0  0  0  0  0  0  0  0  0  0  0  0
  -20.9450  -29.8470   21.7250 H   0  0  0  0  0  0  0  0  0  0  0  0
  -18.0340  -28.1020   22.9610 C   0  0  0  0  0  0  0  0  0  0  0  0
  -20.5960  -28.3760   23.2140 C   0  0  0  0  0  3  0  0  0  0  0  0
  -20.6940  -26.9360   22.6580 C   0  0  0  0  0  2  0  0  0  0  0  0
  -19.5910  -26.6010   21.6490 C   0  0  0  0  0  2  0  0  0  0  0  0
  -18.2110  -26.7490   22.2950 C   0  0  0  0  0  2  0  0  0  0  0  0
  -19.1530  -28.8740   23.3780 C   0  0  0  0  0  0  0  0  0  0  0  0
  -18.9290  -30.1370   23.9670 C   0  0  0  0  0  3  0  0  0  0  0  0
  -17.6220  -30.6300   24.1410 C   0  0  0  0  0  3  0  0  0  0  0  0
  -16.5190  -29.8580   23.7360 C   0  0  0  0  0  3  0  0  0  0  0  0
  -16.7260  -28.5960   23.1540 C   0  0  0  0  0  3  0  0  0  0  0  0
  -25.9180  -32.5030   23.8210 C   0  0  0  0  0  3  0  0  0  0  0  0
  -25.5870  -33.9050   24.1480 N   0  0  0  0  0  0  0  0  0  0  0  0
  -25.9210  -34.9710   23.4080 C   0  0  0  0  0  0  0  0  0  0  0  0
  -26.5970  -34.8780   22.3810 O   0  0  0  0  0  0  0  0  0  0  0  0
  -24.9840  -34.0480   24.9450 H   0  0  0  0  0  0  0  0  0  0  0  0
  -24.1960  -36.7770   23.0690 C   0  0  0  0  0  1  0  0  0  0  0  0
  -25.4330  -36.3580   23.8800 C   0  0  0  0  0  3  0  0  0  0  0  0
  -27.5620  -37.2430   24.7300 C   0  0  0  0  0  1  0  0  0  0  0  0
  -26.4660  -37.4140   23.7800 N   0  0  0  0  0  0  0  0  0  0  0  0
  -26.0580  -38.3320   23.9290 H   0  0  0  0  0  0  0  0  0  0  0  0
  -26.4180  -31.7560   25.1200 C   0  0  1  0  0  0  0  0  0  0  0  0
  -25.3150  -31.5430   26.1840 C   0  0  0  0  0  1  0  0  0  0  0  0
  -27.0010  -30.3690   24.7740 C   0  0  0  0  0  1  0  0  0  0  0  0
  -27.5650  -32.5610   25.7770 C   0  0  0  0  0  1  0  0  0  0  0  0
  1  3  2  0
  1  2  1  0
  2  4  2  0
  3  5  1  0
  4 13  1  0
  4  6  1  0
  5  6  2  0
  6 50  1  0
  7  8  1  0
  7  3  1  0
  8 10  1  0
  8  9  1  0
  9  5  1  0
  9 11  1  6
  9 51  1  0
 12  7  2  0
 14 19  1  0
 15 16  1  0
 15 14  1  0
 17 16  1  0
 17 24  1  0
 17 18  1  0
 19 13  1  0
 19 18  1  0
 20 13  2  0
 21 22  2  0
 22 41  1  0
 23 22  1  0
 23 26  1  0
 24 21  1  0
 24 25  1  0
 25 23  2  0
 26 27  1  0
 27 28  2  0
 29 32  1  0
 29 28  1  0
 30 29  2  0
 31 30  1  0
 31 26  2  0
 32 33  1  0
 33 34  1  0
 34 35  2  0
 36 35  1  0
 36 40  1  0
 37 36  2  0
 38 33  2  0
 38 37  1  0
 39 38  1  0
 41 42  1  0
 42 45  1  0
 42 44  1  0
 43 41  2  0
 46 47  1  0
 46 21  1  0
 48 46  1  0
 49 50  1  0
 52 51  1  0
 53 64  2  0
 54 52  1  0
 54 59  1  0
 55 63  1  0
 55 65  1  0
 56 62  1  0
 56 58  1  0
 57 63  1  0
 58 59  2  0
 58 57  1  0
 60 54  2  0
 61 60  1  0
 61 56  2  0
 62 55  1  0
 63 53  1  0
 65 67  2  0
 66 65  1  0
 68 66  1  0
 69 78  2  0
 69 74  1  0
 70 66  1  0
 70 74  1  0
 71 70  1  0
 72 73  1  0
 72 71  1  0
 73 69  1  0
 74 75  2  0
 75 76  1  0
 77 76  2  0
 78 77  1  0
 79 53  1  0
 79 80  1  0
 79 89  1  0
 80 83  1  0
 81 85  1  0
 81 80  1  0
 82 81  2  0
 85 84  1  0
 87 85  1  0
 87 88  1  0
 87 86  1  0
 89 92  1  1
 89 90  1  0
 91 89  1  0
M  ISO  4   4 100  13 100  51 101  52 101
M  END
>  <TORSDO>  (73) 
F 18

>  <SCORE>  (73) 
-16.907

>  <name>  (73) 
72

>  <ligand_id>  (73) 
72

>  <original_smiles>  (73) 
[H]c1c([H])c([H])c2c(c1[H])C([H])([H])C([H])([H])C([H])([H])C2([H])N([H])C(=O)C1([H])N(C(=O)C([H])(N([H])C(=O)C([H])(N([H])C([H])([H])[H])C([H])([H])[H])C(C([H])([H])[H])(C([H])([H])[H])C([H])([H])[H])C([H])([H])c2c([H])c(OC([H])([H])C3(C([H])([H])[H])c4c(c([H])c([H])c(C(=O)N5C([H])([H])C([H])([H])C([H])([H])C([H])(n6nc(-c7c([H])c([H])c(Oc8c([H])c([H])c(F)c([H])c8F)c([H])c7[H])c(C(=O)N([H])[H])c6N([H])[H])C5([H])[H])c4C([H])([H])C([H])([H])[H])C(=O)C3([H])C([H])([H])[H])c([H])c([H])c2C1([H])[H]

>  <smiles>  (73) 
[H]c1c([H])c([H])c2c(c1[H])C([H])([H])C([H])([H])C([H])([H])C2([H])N([H])C(=O)C1([H])N(C(=O)C([H])(N([H])C(=O)C([H])(N([H])C([H])([H])[H])C([H])([H])[H])C(C([H])([H])[H])(C([H])([H])[H])C([H])([H])[H])C([H])([H])c2c([H])c(OC([H])([H])C3(C([H])([H])[H])c4c(c([H])c([H])c(C(=O)N5C([H])([H])C([H])([H])C([H])([H])C([H])(n6nc(-c7c([H])c([H])c(Oc8c([H])c([H])c(F)c([H])c8F)c([H])c7[H])c(C(=O)N([H])[H])c6N([H])[H])C5([H])[H])c4C([H])([H])C([H])([H])[H])C(=O)C3([H])C([H])([H])[H])c([H])c([H])c2C1([H])[H]

$$$$
73:0:0
     RDKit          3D

 91 99  0  0  1  0  0  0  0  0999 V2000
  -28.3450  -23.4640   17.7050 C   0  0  0  0  0  3  0  0  0  0  0  0
  -28.6930  -22.2960   18.4210 C   0  0  0  0  0  0  0  0  0  0  0  0
  -28.8920  -22.3190   19.8290 C   0  0  0  0  0  0  0  0  0  0  0  0
  -28.7000  -23.6740   20.4340 C   0  0  0  0  0  0  0  0  0  0  0  0
  -28.2100  -24.7340   18.3000 C   0  0  0  0  0  0  0  0  0  0  0  0
  -28.3360  -24.9220   19.6970 C   0  0  0  0  0  0  0  0  0  0  0  0
  -28.9230  -21.0440   17.5900 C   0  0  0  0  0  1  0  0  0  0  0  0
  -28.9520  -23.8100   21.9220 C   0  0  0  0  0  1  0  0  0  0  0  0
  -28.0110  -25.8010   17.4690 O   0  0  0  0  0  0  0  0  0  0  0  0
  -27.9680  -25.5590   16.5510 H   0  0  0  0  0  0  0  0  0  0  0  0
  -28.2850  -26.3050   20.1940 O   0  0  0  0  0  0  0  0  0  0  0  0
  -24.5910  -31.9060   23.2170 C   0  0  0  0  0  0  0  0  0  0  0  0
  -27.1850  -27.2370   20.1390 C   0  0  0  0  0  0  0  0  0  0  0  0
  -23.3810  -30.4960   21.5970 C   0  0  0  0  0  3  0  0  0  0  0  0
  -24.8240  -28.9360   20.1540 C   0  0  0  0  0  0  0  0  0  0  0  0
  -25.9280  -30.7950   21.3910 C   0  0  0  0  0  2  0  0  0  0  0  0
  -26.0070  -29.4050   20.7380 C   0  0  0  0  0  0  0  0  0  0  0  0
  -27.1850  -28.5700   20.7150 C   0  0  0  0  0  3  0  0  0  0  0  0
  -25.9600  -26.8520   19.5500 C   0  0  0  0  0  3  0  0  0  0  0  0
  -24.8100  -27.6710   19.5470 C   0  0  0  0  0  3  0  0  0  0  0  0
  -23.5880  -29.8190   20.2160 C   0  0  0  0  0  2  0  0  0  0  0  0
  -24.6540  -31.0880   22.1220 N   0  0  0  0  0  0  0  0  0  0  0  0
  -23.5100  -32.1800   23.7600 O   0  0  0  0  0  0  0  0  0  0  0  0
  -22.7290  -29.4830   22.5690 C   0  0  0  0  0  0  0  0  0  0  0  0
  -21.4040  -29.2820   22.4460 N   0  0  0  0  0  0  0  0  0  0  0  0
  -23.4150  -28.8780   23.3970 O   0  0  0  0  0  0  0  0  0  0  0  0
  -20.9060  -29.8230   21.7530 H   0  0  0  0  0  0  0  0  0  0  0  0
  -18.0560  -27.9910   22.9400 C   0  0  0  0  0  0  0  0  0  0  0  0
  -20.6030  -28.3350   23.2260 C   0  0  0  0  0  3  0  0  0  0  0  0
  -20.7540  -26.8960   22.6800 C   0  0  0  0  0  2  0  0  0  0  0  0
  -19.6720  -26.5220   21.6620 C   0  0  0  0  0  2  0  0  0  0  0  0
  -18.2800  -26.6360   22.2900 C   0  0  0  0  0  2  0  0  0  0  0  0
  -19.1470  -28.7960   23.3650 C   0  0  0  0  0  0  0  0  0  0  0  0
  -18.8830  -30.0610   23.9330 C   0  0  0  0  0  3  0  0  0  0  0  0
  -17.5610  -30.5240   24.0800 C   0  0  0  0  0  3  0  0  0  0  0  0
  -16.4850  -29.7170   23.6710 C   0  0  0  0  0  3  0  0  0  0  0  0
  -16.7340  -28.4530   23.1060 C   0  0  0  0  0  3  0  0  0  0  0  0
  -25.8710  -32.5550   23.8260 C   0  0  0  0  0  3  0  0  0  0  0  0
  -25.5480  -33.9500   24.1640 N   0  0  0  0  0  0  0  0  0  0  0  0
  -25.8690  -35.0120   23.4120 C   0  0  0  0  0  0  0  0  0  0  0  0
  -26.5330  -34.9210   22.3760 O   0  0  0  0  0  0  0  0  0  0  0  0
  -24.9570  -34.0940   24.9680 H   0  0  0  0  0  0  0  0  0  0  0  0
  -24.1390  -36.8080   23.0670 C   0  0  0  0  0  1  0  0  0  0  0  0
  -25.3750  -36.3950   23.8830 C   0  0  0  0  0  3  0  0  0  0  0  0
  -27.4980  -37.2790   24.7440 C   0  0  0  0  0  1  0  0  0  0  0  0
  -26.4050  -37.4530   23.7910 N   0  0  0  0  0  0  0  0  0  0  0  0
  -25.9950  -38.3700   23.9440 H   0  0  0  0  0  0  0  0  0  0  0  0
  -26.4070  -31.7910   25.0990 C   0  0  1  0  0  0  0  0  0  0  0  0
  -25.3270  -31.5450   26.1780 C   0  0  0  0  0  1  0  0  0  0  0  0
  -26.9990  -30.4180   24.7070 C   0  0  0  0  0  1  0  0  0  0  0  0
  -27.5560  -32.5970   25.7490 C   0  0  0  0  0  1  0  0  0  0  0  0
  -29.5090  -20.9600   20.5560 C   0  0  0  0  0  2  0  0  0  0  0  0
  -29.0510  -19.3410   20.3920 C   0  0  0  0  0  2  0  0  0  0  0  0
  -30.0690  -18.0040   20.5330 C   0  0  0  0  0  3  0  0  0  0  0  0
  -29.5740  -16.3980   20.6150 C   0  0  0  0  0  3  0  0  0  0  0  0
  -30.4790  -15.0290   20.3660 C   0  0  0  0  0  0  0  0  0  0  0  0
  -30.3930  -12.7100   19.3470 C   0  0  0  0  0  2  0  0  0  0  0  0
  -29.4390  -12.7400   18.1280 C   0  0  0  0  0  2  0  0  0  0  0  0
  -27.9790  -12.5110   18.5650 C   0  0  0  0  0  2  0  0  0  0  0  0
  -27.5890  -13.3780   19.7900 C   0  0  0  0  0  3  0  0  0  0  0  0
  -28.6600  -13.3240   20.9000 C   0  0  0  0  0  2  0  0  0  0  0  0
  -29.9350  -13.7490   20.3090 N   0  0  0  0  0  0  0  0  0  0  0  0
  -31.6690  -15.1430   20.0540 O   0  0  0  0  0  0  0  0  0  0  0  0
  -25.2030  -13.9180   20.5460 C   0  0  0  0  0  0  0  0  0  0  0  0
  -24.1530  -13.1250   20.9190 C   0  0  0  0  0  0  0  0  0  0  0  0
  -24.6390  -11.7820   20.8790 C   0  0  0  0  0  0  0  0  0  0  0  0
  -26.2580  -13.0580   20.2940 N   0  0  0  0  0  0  0  0  0  0  0  0
  -25.9290  -11.7680   20.5620 N   0  0  0  0  0  0  0  0  0  0  0  0
  -23.9340  -10.5070   21.0700 C   0  0  0  0  0  0  0  0  0  0  0  0
  -24.3760   -9.5500   22.0100 C   0  0  0  0  0  3  0  0  0  0  0  0
  -23.6700   -8.3410   22.1880 C   0  0  0  0  0  3  0  0  0  0  0  0
  -22.5070   -8.0800   21.4240 C   0  0  0  0  0  0  0  0  0  0  0  0
  -22.0840   -9.0260   20.4730 C   0  0  0  0  0  3  0  0  0  0  0  0
  -22.7920  -10.2260   20.2940 C   0  0  0  0  0  3  0  0  0  0  0  0
  -21.7720   -6.9230   21.5110 O   0  0  0  0  0  0  0  0  0  0  0  0
  -21.7120   -6.1930   22.6710 C   0  0  0  0  0  0  0  0  0  0  0  0
  -21.2260   -6.7480   23.8750 C   0  0  0  0  0  3  0  0  0  0  0  0
  -21.1170   -5.9430   25.0270 C   0  0  0  0  0  3  0  0  0  0  0  0
  -21.4820   -4.5850   24.9750 C   0  0  0  0  0  0  0  0  0  0  0  0
  -21.9590   -4.0280   23.7750 C   0  0  0  0  0  3  0  0  0  0  0  0
  -22.0710   -4.8310   22.6250 C   0  0  0  0  0  0  0  0  0  0  0  0
  -22.5120   -4.2850   21.4660 F   0  0  0  0  0  0  0  0  0  0  0  0
  -21.3680   -3.8090   26.0780 F   0  0  0  0  0  0  0  0  0  0  0  0
  -22.7490  -13.5780   21.1990 C   0  0  0  0  0  0  0  0  0  0  0  0
  -22.0340  -12.8600   22.0570 N   0  0  0  0  0  0  0  0  0  0  0  0
  -22.2960  -14.6040   20.6920 O   0  0  0  0  0  0  0  0  0  0  0  0
  -22.4150  -12.0310   22.4890 H   0  0  0  0  0  0  0  0  0  0  0  0
  -21.0920  -13.1440   22.2880 H   0  0  0  0  0  0  0  0  0  0  0  0
  -25.3440  -15.2920   20.3770 N   0  0  0  0  0  0  0  0  0  0  0  0
  -24.5710  -15.9370   20.5040 H   0  0  0  0  0  0  0  0  0  0  0  0
  -26.1900  -15.7490   20.0580 H   0  0  0  0  0  0  0  0  0  0  0  0
  1  5  2  0
  1  2  1  0
  2  3  2  0
  3  4  1  0
  3 52  1  0
  4  8  1  0
  5  6  1  0
  6 11  1  0
  6  4  2  0
  7  2  1  0
  9  5  1  0
 10  9  1  0
 12 23  2  0
 13 11  1  0
 13 18  1  0
 14 22  1  0
 14 24  1  0
 15 21  1  0
 15 17  1  0
 16 22  1  0
 17 16  1  0
 18 17  2  0
 19 13  2  0
 20 19  1  0
 20 15  2  0
 21 14  1  0
 22 12  1  0
 24 26  2  0
 25 24  1  0
 27 25  1  0
 28 37  2  0
 28 33  1  0
 29 25  1  0
 29 33  1  0
 30 29  1  0
 31 32  1  0
 31 30  1  0
 32 28  1  0
 33 34  2  0
 34 35  1  0
 36 35  2  0
 37 36  1  0
 38 12  1  0
 38 39  1  0
 38 48  1  0
 39 42  1  0
 40 44  1  0
 40 39  1  0
 41 40  2  0
 44 43  1  0
 46 44  1  0
 46 47  1  0
 46 45  1  0
 48 51  1  1
 48 49  1  0
 50 48  1  0
 53 54  1  0
 53 52  1  0
 54 55  2  0
 56 55  1  0
 57 62  1  0
 58 59  1  0
 58 57  1  0
 60 59  1  0
 60 67  1  0
 60 61  1  0
 62 56  1  0
 62 61  1  0
 63 56  2  0
 64 65  2  0
 65 84  1  0
 66 65  1  0
 66 69  1  0
 67 64  1  0
 67 68  1  0
 68 66  2  0
 69 70  1  0
 70 71  2  0
 72 75  1  0
 72 71  1  0
 73 72  2  0
 74 73  1  0
 74 69  2  0
 75 76  1  0
 76 77  1  0
 77 78  2  0
 79 78  1  0
 79 83  1  0
 80 79  2  0
 81 76  2  0
 81 80  1  0
 82 81  1  0
 84 85  1  0
 85 88  1  0
 85 87  1  0
 86 84  2  0
 89 90  1  0
 89 64  1  0
 91 89  1  0
M  ISO  4   6 101  11 101  55 100  56 100
M  END
>  <TORSDO>  (74) 
F 21

>  <SCORE>  (74) 
-13.702

>  <name>  (74) 
73

>  <ligand_id>  (74) 
73

>  <original_smiles>  (74) 
[H]Oc1c([H])c(C([H])([H])[H])c(C([H])([H])C([H])([H])C([H])([H])C([H])([H])C(=O)N2C([H])([H])C([H])([H])C([H])([H])C([H])(n3nc(-c4c([H])c([H])c(Oc5c([H])c([H])c(F)c([H])c5F)c([H])c4[H])c(C(=O)N([H])[H])c3N([H])[H])C2([H])[H])c(C([H])([H])[H])c1Oc1c([H])c([H])c2c(c1[H])C([H])([H])N(C(=O)C([H])(N([H])C(=O)C([H])(N([H])C([H])([H])[H])C([H])([H])[H])C(C([H])([H])[H])(C([H])([H])[H])C([H])([H])[H])C([H])(C(=O)N([H])C1([H])c3c([H])c([H])c([H])c([H])c3C([H])([H])C([H])([H])C1([H])[H])C2([H])[H]

>  <smiles>  (74) 
[H]Oc1c([H])c(C([H])([H])[H])c(C([H])([H])C([H])([H])C([H])([H])C([H])([H])C(=O)N2C([H])([H])C([H])([H])C([H])([H])C([H])(n3nc(-c4c([H])c([H])c(Oc5c([H])c([H])c(F)c([H])c5F)c([H])c4[H])c(C(=O)N([H])[H])c3N([H])[H])C2([H])[H])c(C([H])([H])[H])c1Oc1c([H])c([H])c2c(c1[H])C([H])([H])N(C(=O)C([H])(N([H])C(=O)C([H])(N([H])C([H])([H])[H])C([H])([H])[H])C(C([H])([H])[H])(C([H])([H])[H])C([H])([H])[H])C([H])(C(=O)N([H])C1([H])c3c([H])c([H])c([H])c([H])c3C([H])([H])C([H])([H])C1([H])[H])C2([H])[H]

$$$$
74:0:0
     RDKit          3D

 90 98  0  0  1  0  0  0  0  0999 V2000
  -27.4480  -21.3530   19.7910 C   0  0  0  0  0  3  0  0  0  0  0  0
  -26.7950  -23.7710   19.9010 C   0  0  0  0  0  3  0  0  0  0  0  0
  -28.8090  -21.5650   20.0650 C   0  0  0  0  0  0  0  0  0  0  0  0
  -26.4830  -22.3870   19.7060 C   0  0  0  0  0  0  0  0  0  0  0  0
  -28.1000  -24.3090   20.0640 C   0  0  0  0  0  0  0  0  0  0  0  0
  -29.0870  -23.0990   20.1690 C   0  0  0  0  0  0  0  0  0  0  0  0
  -30.3780  -23.4310   20.4140 F   0  0  0  0  0  0  0  0  0  0  0  0
  -24.1950  -22.8620   19.0730 C   0  0  0  0  0  1  0  0  0  0  0  0
  -25.2060  -21.9310   19.4490 O   0  0  0  0  0  0  0  0  0  0  0  0
  -28.2550  -25.8670   20.1200 O   0  0  0  0  0  0  0  0  0  0  0  0
  -24.6490  -31.8720   23.1290 C   0  0  0  0  0  0  0  0  0  0  0  0
  -27.2520  -27.0020   20.0660 C   0  0  0  0  0  0  0  0  0  0  0  0
  -23.4740  -30.4800   21.4740 C   0  0  0  0  0  3  0  0  0  0  0  0
  -24.9450  -28.9080   20.0330 C   0  0  0  0  0  0  0  0  0  0  0  0
  -26.0420  -30.6960   21.3540 C   0  0  0  0  0  2  0  0  0  0  0  0
  -26.1210  -29.2890   20.6890 C   0  0  0  0  0  0  0  0  0  0  0  0
  -27.2590  -28.3510   20.6990 C   0  0  0  0  0  3  0  0  0  0  0  0
  -26.0790  -26.8460   19.2860 C   0  0  0  0  0  3  0  0  0  0  0  0
  -24.9510  -27.7080   19.3090 C   0  0  0  0  0  3  0  0  0  0  0  0
  -23.7160  -29.8160   20.0910 C   0  0  0  0  0  2  0  0  0  0  0  0
  -24.7420  -31.0470   22.0370 N   0  0  0  0  0  0  0  0  0  0  0  0
  -23.5560  -32.1430   23.6510 O   0  0  0  0  0  0  0  0  0  0  0  0
  -22.7900  -29.4660   22.4310 C   0  0  0  0  0  0  0  0  0  0  0  0
  -21.4620  -29.2870   22.3060 N   0  0  0  0  0  0  0  0  0  0  0  0
  -23.4630  -28.8440   23.2560 O   0  0  0  0  0  0  0  0  0  0  0  0
  -20.9710  -29.8390   21.6170 H   0  0  0  0  0  0  0  0  0  0  0  0
  -18.0920  -28.0390   22.8200 C   0  0  0  0  0  0  0  0  0  0  0  0
  -20.6520  -28.3310   23.0690 C   0  0  0  0  0  3  0  0  0  0  0  0
  -20.7650  -26.9080   22.4730 C   0  0  0  0  0  2  0  0  0  0  0  0
  -19.6590  -26.5870   21.4630 C   0  0  0  0  0  2  0  0  0  0  0  0
  -18.2790  -26.7040   22.1190 C   0  0  0  0  0  2  0  0  0  0  0  0
  -19.2050  -28.8100   23.2520 C   0  0  0  0  0  0  0  0  0  0  0  0
  -18.9740  -30.0570   23.8730 C   0  0  0  0  0  3  0  0  0  0  0  0
  -17.6640  -30.5350   24.0630 C   0  0  0  0  0  3  0  0  0  0  0  0
  -16.5660  -29.7630   23.6450 C   0  0  0  0  0  3  0  0  0  0  0  0
  -16.7810  -28.5170   23.0290 C   0  0  0  0  0  3  0  0  0  0  0  0
  -25.9110  -32.5270   23.7670 C   0  0  0  0  0  3  0  0  0  0  0  0
  -26.4140  -31.7690   25.0580 C   0  0  1  0  0  0  0  0  0  0  0  0
  -25.3070  -31.5260   26.1100 C   0  0  0  0  0  1  0  0  0  0  0  0
  -27.0200  -30.3930   24.6950 C   0  0  0  0  0  1  0  0  0  0  0  0
  -27.5460  -32.5790   25.7320 C   0  0  0  0  0  1  0  0  0  0  0  0
  -25.5770  -33.9230   24.1020 N   0  0  0  0  0  0  0  0  0  0  0  0
  -25.9030  -34.9920   23.3620 C   0  0  0  0  0  0  0  0  0  0  0  0
  -26.5800  -34.9070   22.3340 O   0  0  0  0  0  0  0  0  0  0  0  0
  -24.9760  -34.0620   24.8990 H   0  0  0  0  0  0  0  0  0  0  0  0
  -24.1700  -36.7890   23.0230 C   0  0  0  0  0  1  0  0  0  0  0  0
  -25.4060  -36.3740   23.8370 C   0  0  0  0  0  3  0  0  0  0  0  0
  -27.5230  -37.2700   24.7060 C   0  0  0  0  0  1  0  0  0  0  0  0
  -26.4330  -37.4360   23.7480 N   0  0  0  0  0  0  0  0  0  0  0  0
  -26.0180  -38.3530   23.8940 H   0  0  0  0  0  0  0  0  0  0  0  0
  -29.7100  -20.0720   20.3840 C   0  0  0  0  0  2  0  0  0  0  0  0
  -29.7830  -18.3900   19.6550 C   0  0  0  0  0  2  0  0  0  0  0  0
  -30.7050  -15.5210   19.8680 C   0  0  0  0  0  0  0  0  0  0  0  0
  -30.6340  -13.0700   18.9540 C   0  0  0  0  0  2  0  0  0  0  0  0
  -29.6410  -12.8590   17.7810 C   0  0  0  0  0  2  0  0  0  0  0  0
  -28.2280  -12.5610   18.3080 C   0  0  0  0  0  2  0  0  0  0  0  0
  -27.8450  -13.4940   19.4830 C   0  0  0  0  0  3  0  0  0  0  0  0
  -28.9650  -13.6310   20.5360 C   0  0  0  0  0  2  0  0  0  0  0  0
  -30.1450  -14.1950   19.8480 N   0  0  0  0  0  0  0  0  0  0  0  0
  -31.8470  -15.5270   19.3820 O   0  0  0  0  0  0  0  0  0  0  0  0
  -29.5160  -16.8260   21.6160 C   0  0  0  0  0  1  0  0  0  0  0  0
  -30.0150  -16.8110   20.2420 N   0  0  0  0  0  0  0  0  0  0  0  0
  -25.5380  -14.0130   20.4400 C   0  0  0  0  0  0  0  0  0  0  0  0
  -24.5030  -13.2210   20.8510 C   0  0  0  0  0  0  0  0  0  0  0  0
  -24.9610  -11.8720   20.7230 C   0  0  0  0  0  0  0  0  0  0  0  0
  -26.5560  -13.1500   20.0750 N   0  0  0  0  0  0  0  0  0  0  0  0
  -26.2260  -11.8520   20.3100 N   0  0  0  0  0  0  0  0  0  0  0  0
  -24.2430  -10.6040   20.9130 C   0  0  0  0  0  0  0  0  0  0  0  0
  -24.6600   -9.6540   21.8710 C   0  0  0  0  0  3  0  0  0  0  0  0
  -23.9420   -8.4510   22.0490 C   0  0  0  0  0  3  0  0  0  0  0  0
  -22.7900   -8.1900   21.2680 C   0  0  0  0  0  0  0  0  0  0  0  0
  -22.3900   -9.1290   20.3020 C   0  0  0  0  0  3  0  0  0  0  0  0
  -23.1100  -10.3230   20.1230 C   0  0  0  0  0  3  0  0  0  0  0  0
  -22.0430   -7.0390   21.3550 O   0  0  0  0  0  0  0  0  0  0  0  0
  -21.8650   -6.3840   22.5480 C   0  0  0  0  0  0  0  0  0  0  0  0
  -21.2630   -7.0120   23.6590 C   0  0  0  0  0  3  0  0  0  0  0  0
  -21.0370   -6.2810   24.8430 C   0  0  0  0  0  3  0  0  0  0  0  0
  -21.4020   -4.9230   24.9130 C   0  0  0  0  0  0  0  0  0  0  0  0
  -21.9980   -4.2950   23.8050 C   0  0  0  0  0  3  0  0  0  0  0  0
  -22.2250   -5.0240   22.6240 C   0  0  0  0  0  0  0  0  0  0  0  0
  -22.7800   -4.4080   21.5520 F   0  0  0  0  0  0  0  0  0  0  0  0
  -21.1770   -4.2180   26.0470 F   0  0  0  0  0  0  0  0  0  0  0  0
  -23.1320  -13.6860   21.2440 C   0  0  0  0  0  0  0  0  0  0  0  0
  -22.4720  -12.9660   22.1430 N   0  0  0  0  0  0  0  0  0  0  0  0
  -22.6590  -14.7290   20.7920 O   0  0  0  0  0  0  0  0  0  0  0  0
  -22.8700  -12.1270   22.5390 H   0  0  0  0  0  0  0  0  0  0  0  0
  -21.5550  -13.2630   22.4430 H   0  0  0  0  0  0  0  0  0  0  0  0
  -25.6920  -15.3910   20.3160 N   0  0  0  0  0  0  0  0  0  0  0  0
  -24.9380  -16.0360   20.5290 H   0  0  0  0  0  0  0  0  0  0  0  0
  -26.5170  -15.8500   19.9530 H   0  0  0  0  0  0  0  0  0  0  0  0
  1  3  1  0
  2  5  2  0
  3  6  2  0
  3 51  1  0
  4  1  2  0
  4  2  1  0
  5 10  1  0
  5  6  1  0
  6  7  1  0
  8  9  1  0
  9  4  1  0
 11 22  2  0
 12 10  1  0
 12 17  1  0
 13 21  1  0
 13 23  1  0
 14 20  1  0
 14 16  1  0
 15 21  1  0
 16 17  2  0
 16 15  1  0
 18 19  1  0
 18 12  2  0
 19 14  2  0
 20 13  1  0
 21 11  1  0
 23 25  2  0
 24 23  1  0
 26 24  1  0
 27 36  2  0
 27 32  1  0
 28 24  1  0
 28 32  1  0
 29 28  1  0
 30 31  1  0
 30 29  1  0
 31 27  1  0
 32 33  2  0
 33 34  1  0
 35 34  2  0
 36 35  1  0
 37 11  1  0
 37 42  1  0
 37 38  1  0
 38 41  1  1
 38 39  1  0
 40 38  1  0
 42 45  1  0
 43 47  1  0
 43 42  1  0
 44 43  2  0
 47 46  1  0
 49 47  1  0
 49 50  1  0
 49 48  1  0
 52 62  1  0
 52 51  1  0
 53 62  1  0
 54 59  1  0
 55 56  1  0
 55 54  1  0
 57 56  1  0
 57 66  1  0
 57 58  1  0
 59 53  1  0
 59 58  1  0
 60 53  2  0
 62 61  1  0
 63 64  2  0
 64 83  1  0
 65 64  1  0
 65 68  1  0
 66 67  1  0
 66 63  1  0
 67 65  2  0
 68 69  1  0
 69 70  2  0
 71 74  1  0
 71 70  1  0
 72 71  2  0
 73 72  1  0
 73 68  2  0
 74 75  1  0
 75 80  2  0
 75 76  1  0
 76 77  2  0
 77 78  1  0
 78 82  1  0
 79 78  2  0
 80 79  1  0
 81 80  1  0
 83 84  1  0
 84 87  1  0
 84 86  1  0
 85 83  2  0
 88 63  1  0
 88 89  1  0
 90 88  1  0
M  ISO  4   5 101  10 101  53 100  62 100
M  END
>  <TORSDO>  (75) 
F 19

>  <SCORE>  (75) 
-14.545

>  <name>  (75) 
74

>  <ligand_id>  (75) 
74

>  <original_smiles>  (75) 
[H]c1c([H])c([H])c2c(c1[H])C([H])([H])C([H])([H])C([H])([H])C2([H])N([H])C(=O)C1([H])N(C(=O)C([H])(N([H])C(=O)C([H])(N([H])C([H])([H])[H])C([H])([H])[H])C(C([H])([H])[H])(C([H])([H])[H])C([H])([H])[H])C([H])([H])c2c([H])c(Oc3c([H])c(OC([H])([H])[H])c([H])c(C([H])([H])C([H])([H])N(C(=O)N4C([H])([H])C([H])([H])C([H])([H])C([H])(n5nc(-c6c([H])c([H])c(Oc7c([H])c([H])c(F)c([H])c7F)c([H])c6[H])c(C(=O)N([H])[H])c5N([H])[H])C4([H])[H])C([H])([H])[H])c3F)c([H])c([H])c2C1([H])[H]

>  <smiles>  (75) 
[H]c1c([H])c([H])c2c(c1[H])C([H])([H])C([H])([H])C([H])([H])C2([H])N([H])C(=O)C1([H])N(C(=O)C([H])(N([H])C(=O)C([H])(N([H])C([H])([H])[H])C([H])([H])[H])C(C([H])([H])[H])(C([H])([H])[H])C([H])([H])[H])C([H])([H])c2c([H])c(Oc3c([H])c(OC([H])([H])[H])c([H])c(C([H])([H])C([H])([H])N(C(=O)N4C([H])([H])C([H])([H])C([H])([H])C([H])(n5nc(-c6c([H])c([H])c(Oc7c([H])c([H])c(F)c([H])c7F)c([H])c6[H])c(C(=O)N([H])[H])c5N([H])[H])C4([H])[H])C([H])([H])[H])c3F)c([H])c([H])c2C1([H])[H]

$$$$
75:0:0
     RDKit          3D

 90 98  0  0  1  0  0  0  0  0999 V2000
  -31.6060  -20.6620   20.0140 C   0  0  0  0  0  3  0  0  0  0  0  0
  -29.0660  -20.0100   20.6420 C   0  0  0  0  0  3  0  0  0  0  0  0
  -30.6780  -21.7290   20.1040 C   0  0  0  0  0  0  0  0  0  0  0  0
  -30.0240  -18.7990   20.5180 C   0  0  0  0  0  0  0  0  0  0  0  0
  -31.3450  -19.2870   20.2840 C   0  0  0  0  0  0  0  0  0  0  0  0
  -29.3270  -21.5250   20.4750 C   0  0  0  0  0  0  0  0  0  0  0  0
  -31.2180  -23.1320   19.8690 C   0  0  0  0  0  1  0  0  0  0  0  0
  -29.7500  -17.0740   20.7440 C   0  0  0  0  0  2  0  0  0  0  0  0
  -30.6200  -15.5660   20.4330 C   0  0  0  0  0  0  0  0  0  0  0  0
  -30.6530  -13.1450   19.4820 C   0  0  0  0  0  2  0  0  0  0  0  0
  -29.7470  -13.0090   18.2310 C   0  0  0  0  0  2  0  0  0  0  0  0
  -28.2930  -12.7120   18.6370 C   0  0  0  0  0  2  0  0  0  0  0  0
  -27.8260  -13.6140   19.8070 C   0  0  0  0  0  3  0  0  0  0  0  0
  -28.8610  -13.7080   20.9470 C   0  0  0  0  0  2  0  0  0  0  0  0
  -30.1070  -14.2380   20.3690 N   0  0  0  0  0  0  0  0  0  0  0  0
  -31.8200  -15.5860   20.1190 O   0  0  0  0  0  0  0  0  0  0  0  0
  -25.4310  -14.1050   20.5330 C   0  0  0  0  0  0  0  0  0  0  0  0
  -24.3840  -13.2980   20.8830 C   0  0  0  0  0  0  0  0  0  0  0  0
  -24.8860  -11.9610   20.8460 C   0  0  0  0  0  0  0  0  0  0  0  0
  -26.4970  -13.2590   20.2920 N   0  0  0  0  0  0  0  0  0  0  0  0
  -26.1820  -11.9620   20.5490 N   0  0  0  0  0  0  0  0  0  0  0  0
  -24.1880  -10.6790   21.0170 C   0  0  0  0  0  0  0  0  0  0  0  0
  -24.5990   -9.7360   21.9850 C   0  0  0  0  0  3  0  0  0  0  0  0
  -23.8980   -8.5210   22.1440 C   0  0  0  0  0  3  0  0  0  0  0  0
  -22.7710   -8.2400   21.3340 C   0  0  0  0  0  0  0  0  0  0  0  0
  -22.3800   -9.1720   20.3580 C   0  0  0  0  0  3  0  0  0  0  0  0
  -23.0810  -10.3790   20.1970 C   0  0  0  0  0  3  0  0  0  0  0  0
  -22.0450   -7.0740   21.4000 O   0  0  0  0  0  0  0  0  0  0  0  0
  -21.9070   -6.3770   22.5740 C   0  0  0  0  0  0  0  0  0  0  0  0
  -21.3400   -6.9610   23.7260 C   0  0  0  0  0  3  0  0  0  0  0  0
  -21.1530   -6.1870   24.8890 C   0  0  0  0  0  3  0  0  0  0  0  0
  -21.5250   -4.8290   24.9000 C   0  0  0  0  0  0  0  0  0  0  0  0
  -22.0850   -4.2440   23.7510 C   0  0  0  0  0  3  0  0  0  0  0  0
  -22.2730   -5.0150   22.5910 C   0  0  0  0  0  0  0  0  0  0  0  0
  -22.7940   -4.4390   21.4790 F   0  0  0  0  0  0  0  0  0  0  0  0
  -21.3400   -4.0840   26.0140 F   0  0  0  0  0  0  0  0  0  0  0  0
  -22.9720  -13.7380   21.1360 C   0  0  0  0  0  0  0  0  0  0  0  0
  -22.2540  -13.0290   22.0000 N   0  0  0  0  0  0  0  0  0  0  0  0
  -22.5120  -14.7470   20.6030 O   0  0  0  0  0  0  0  0  0  0  0  0
  -22.6380  -12.2150   22.4560 H   0  0  0  0  0  0  0  0  0  0  0  0
  -21.3050  -13.3040   22.2090 H   0  0  0  0  0  0  0  0  0  0  0  0
  -25.5610  -15.4810   20.3710 N   0  0  0  0  0  0  0  0  0  0  0  0
  -24.7770  -16.1150   20.4850 H   0  0  0  0  0  0  0  0  0  0  0  0
  -26.4020  -15.9460   20.0540 H   0  0  0  0  0  0  0  0  0  0  0  0
  -32.5540  -18.3590   20.3890 C   0  0  0  0  0  2  0  0  0  0  0  0
  -35.0900  -18.0230   20.3570 C   0  0  0  0  0  1  0  0  0  0  0  0
  -33.9410  -19.0380   20.3450 C   0  0  0  0  0  2  0  0  0  0  0  0
  -28.4140  -22.9650   20.8560 C   0  0  0  0  0  2  0  0  0  0  0  0
  -28.1520  -24.5710   20.0930 C   0  0  0  0  0  2  0  0  0  0  0  0
  -28.1120  -26.1470   20.5600 O   0  0  0  0  0  0  0  0  0  0  0  0
  -24.6440  -32.1550   23.4090 C   0  0  0  0  0  0  0  0  0  0  0  0
  -27.1020  -27.2270   20.4210 C   0  0  0  0  0  0  0  0  0  0  0  0
  -23.4140  -30.7630   21.7910 C   0  0  0  0  0  3  0  0  0  0  0  0
  -24.8270  -29.1250   20.3670 C   0  0  0  0  0  0  0  0  0  0  0  0
  -25.9800  -30.9370   21.6230 C   0  0  0  0  0  2  0  0  0  0  0  0
  -26.0210  -29.5220   20.9800 C   0  0  0  0  0  0  0  0  0  0  0  0
  -27.1480  -28.5910   20.9880 C   0  0  0  0  0  3  0  0  0  0  0  0
  -25.8870  -26.9760   19.7470 C   0  0  0  0  0  3  0  0  0  0  0  0
  -24.7840  -27.8720   19.7290 C   0  0  0  0  0  3  0  0  0  0  0  0
  -23.6210  -30.0610   20.4180 C   0  0  0  0  0  2  0  0  0  0  0  0
  -24.7020  -31.3120   22.3270 N   0  0  0  0  0  0  0  0  0  0  0  0
  -23.5650  -32.4670   23.9360 O   0  0  0  0  0  0  0  0  0  0  0  0
  -22.7130  -29.7880   22.7720 C   0  0  0  0  0  0  0  0  0  0  0  0
  -21.3920  -29.5880   22.6100 N   0  0  0  0  0  0  0  0  0  0  0  0
  -23.3630  -29.2120   23.6460 O   0  0  0  0  0  0  0  0  0  0  0  0
  -20.9190  -30.1030   21.8810 H   0  0  0  0  0  0  0  0  0  0  0  0
  -18.0400  -28.2580   22.9960 C   0  0  0  0  0  0  0  0  0  0  0  0
  -20.5650  -28.6610   23.3890 C   0  0  0  0  0  3  0  0  0  0  0  0
  -20.7630  -27.2040   22.9120 C   0  0  0  0  0  2  0  0  0  0  0  0
  -19.7400  -26.7680   21.8590 C   0  0  0  0  0  2  0  0  0  0  0  0
  -18.3170  -26.8830   22.4120 C   0  0  0  0  0  2  0  0  0  0  0  0
  -19.0950  -29.0980   23.4400 C   0  0  0  0  0  0  0  0  0  0  0  0
  -18.7810  -30.3790   23.9470 C   0  0  0  0  0  3  0  0  0  0  0  0
  -17.4470  -30.8210   24.0130 C   0  0  0  0  0  3  0  0  0  0  0  0
  -16.4050  -29.9790   23.5840 C   0  0  0  0  0  3  0  0  0  0  0  0
  -16.7020  -28.7000   23.0810 C   0  0  0  0  0  3  0  0  0  0  0  0
  -25.9330  -32.7810   24.0270 C   0  0  0  0  0  3  0  0  0  0  0  0
  -25.6600  -34.2030   24.2990 N   0  0  0  0  0  0  0  0  0  0  0  0
  -26.0380  -35.2220   23.5140 C   0  0  0  0  0  0  0  0  0  0  0  0
  -26.7160  -35.0600   22.4960 O   0  0  0  0  0  0  0  0  0  0  0  0
  -25.0590  -34.4030   25.0840 H   0  0  0  0  0  0  0  0  0  0  0  0
  -24.3720  -37.0630   23.0930 C   0  0  0  0  0  1  0  0  0  0  0  0
  -25.5970  -36.6430   23.9200 C   0  0  0  0  0  3  0  0  0  0  0  0
  -27.7590  -37.4910   24.7260 C   0  0  0  0  0  1  0  0  0  0  0  0
  -26.6650  -37.6570   23.7720 N   0  0  0  0  0  0  0  0  0  0  0  0
  -26.2900  -38.5950   23.8810 H   0  0  0  0  0  0  0  0  0  0  0  0
  -26.4000  -32.0550   25.3500 C   0  0  1  0  0  0  0  0  0  0  0  0
  -25.2760  -31.8870   26.3990 C   0  0  0  0  0  1  0  0  0  0  0  0
  -26.9640  -30.6510   25.0390 C   0  0  0  0  0  1  0  0  0  0  0  0
  -27.5530  -32.8530   26.0040 C   0  0  0  0  0  1  0  0  0  0  0  0
  1  3  2  0
  1  5  1  0
  3  6  1  0
  4  2  1  0
  4  8  1  0
  5 45  1  0
  5  4  2  0
  6  2  2  0
  6 48  1  0
  7  3  1  0
  9  8  1  0
 10 15  1  0
 11 12  1  0
 11 10  1  0
 13 12  1  0
 13 20  1  0
 13 14  1  0
 15  9  1  0
 15 14  1  0
 16  9  2  0
 17 18  2  0
 18 37  1  0
 19 18  1  0
 19 22  1  0
 20 17  1  0
 20 21  1  0
 21 19  2  0
 22 23  1  0
 23 24  2  0
 25 28  1  0
 25 24  1  0
 26 25  2  0
 27 26  1  0
 27 22  2  0
 28 29  1  0
 29 34  2  0
 29 30  1  0
 30 31  2  0
 31 32  1  0
 32 36  1  0
 33 32  2  0
 34 33  1  0
 35 34  1  0
 37 38  1  0
 38 41  1  0
 38 40  1  0
 39 37  2  0
 42 43  1  0
 42 17  1  0
 44 42  1  0
 47 46  1  0
 47 45  1  0
 49 50  1  0
 49 48  1  0
 51 62  2  0
 52 50  1  0
 52 57  1  0
 53 61  1  0
 53 63  1  0
 54 60  1  0
 54 56  1  0
 55 61  1  0
 56 57  2  0
 56 55  1  0
 58 52  2  0
 59 58  1  0
 59 54  2  0
 60 53  1  0
 61 51  1  0
 63 65  2  0
 64 63  1  0
 66 64  1  0
 67 76  2  0
 67 72  1  0
 68 64  1  0
 68 72  1  0
 69 68  1  0
 70 71  1  0
 70 69  1  0
 71 67  1  0
 72 73  2  0
 73 74  1  0
 75 74  2  0
 76 75  1  0
 77 51  1  0
 77 78  1  0
 77 87  1  0
 78 81  1  0
 79 83  1  0
 79 78  1  0
 80 79  2  0
 83 82  1  0
 85 86  1  0
 85 83  1  0
 85 84  1  0
 87 90  1  1
 87 88  1  0
 89 87  1  0
M  ISO  4   8 100   9 100  49 101  50 101
M  END
>  <TORSDO>  (76) 
F 21

>  <SCORE>  (76) 
-14.490

>  <name>  (76) 
75

>  <ligand_id>  (76) 
75

>  <original_smiles>  (76) 
[H]c1c([H])c([H])c2c(c1[H])C([H])([H])C([H])([H])C([H])([H])C2([H])N([H])C(=O)C1([H])N(C(=O)C([H])(N([H])C(=O)C([H])(N([H])C([H])([H])[H])C([H])([H])[H])C(C([H])([H])[H])(C([H])([H])[H])C([H])([H])[H])C([H])([H])c2c([H])c(OC([H])([H])C([H])([H])c3c([H])c(C([H])([H])C(=O)N4C([H])([H])C([H])([H])C([H])([H])C([H])(n5nc(-c6c([H])c([H])c(Oc7c([H])c([H])c(F)c([H])c7F)c([H])c6[H])c(C(=O)N([H])[H])c5N([H])[H])C4([H])[H])c(C([H])([H])C([H])([H])C([H])([H])[H])c([H])c3C([H])([H])[H])c([H])c([H])c2C1([H])[H]

>  <smiles>  (76) 
[H]c1c([H])c([H])c2c(c1[H])C([H])([H])C([H])([H])C([H])([H])C2([H])N([H])C(=O)C1([H])N(C(=O)C([H])(N([H])C(=O)C([H])(N([H])C([H])([H])[H])C([H])([H])[H])C(C([H])([H])[H])(C([H])([H])[H])C([H])([H])[H])C([H])([H])c2c([H])c(OC([H])([H])C([H])([H])c3c([H])c(C([H])([H])C(=O)N4C([H])([H])C([H])([H])C([H])([H])C([H])(n5nc(-c6c([H])c([H])c(Oc7c([H])c([H])c(F)c([H])c7F)c([H])c6[H])c(C(=O)N([H])[H])c5N([H])[H])C4([H])[H])c(C([H])([H])C([H])([H])C([H])([H])[H])c([H])c3C([H])([H])[H])c([H])c([H])c2C1([H])[H]

$$$$
76:0:0
     RDKit          3D

 93101  0  0  1  0  0  0  0  0999 V2000
  -31.3750  -18.0370   17.6650 C   0  0  0  0  0  3  0  0  0  0  0  0
  -30.5080  -16.3460   19.2680 C   0  0  0  0  0  0  0  0  0  0  0  0
  -31.2310  -16.7040   18.0870 C   0  0  0  0  0  0  0  0  0  0  0  0
  -30.8450  -19.1400   18.3500 C   0  0  0  0  0  0  0  0  0  0  0  0
  -29.8330  -17.5330   19.9010 C   0  0  0  0  0  0  0  0  0  0  0  0
  -29.9940  -18.9670   19.4690 C   0  0  0  0  0  0  0  0  0  0  0  0
  -32.0170  -15.7070   17.2430 C   0  0  0  0  0  1  0  0  0  0  0  0
  -31.2900  -20.5020   17.8410 C   0  0  0  0  0  1  0  0  0  0  0  0
  -30.8370  -14.8620   19.8400 C   0  0  0  0  0  0  0  0  0  0  0  0
  -30.4350  -12.5420   18.9260 C   0  0  0  0  0  2  0  0  0  0  0  0
  -29.3930  -12.4570   17.7830 C   0  0  0  0  0  2  0  0  0  0  0  0
  -27.9830  -12.2820   18.3560 C   0  0  0  0  0  2  0  0  0  0  0  0
  -27.6890  -13.2700   19.5140 C   0  0  0  0  0  3  0  0  0  0  0  0
  -28.8450  -13.3560   20.5330 C   0  0  0  0  0  2  0  0  0  0  0  0
  -30.0560  -13.7050   19.7750 N   0  0  0  0  0  0  0  0  0  0  0  0
  -32.0520  -14.6580   19.8570 O   0  0  0  0  0  0  0  0  0  0  0  0
  -25.3990  -13.8870   20.4690 C   0  0  0  0  0  0  0  0  0  0  0  0
  -24.3370  -13.1370   20.8810 C   0  0  0  0  0  0  0  0  0  0  0  0
  -24.7570  -11.7740   20.7820 C   0  0  0  0  0  0  0  0  0  0  0  0
  -26.3960  -12.9930   20.1310 N   0  0  0  0  0  0  0  0  0  0  0  0
  -26.0250  -11.7120   20.3930 N   0  0  0  0  0  0  0  0  0  0  0  0
  -24.0010  -10.5340   20.9840 C   0  0  0  0  0  0  0  0  0  0  0  0
  -24.4430   -9.5440   21.8890 C   0  0  0  0  0  3  0  0  0  0  0  0
  -23.6840   -8.3710   22.0910 C   0  0  0  0  0  3  0  0  0  0  0  0
  -22.4720   -8.1820   21.3840 C   0  0  0  0  0  0  0  0  0  0  0  0
  -22.0470   -9.1610   20.4700 C   0  0  0  0  0  3  0  0  0  0  0  0
  -22.8050  -10.3250   20.2680 C   0  0  0  0  0  3  0  0  0  0  0  0
  -21.6860   -7.0600   21.4890 O   0  0  0  0  0  0  0  0  0  0  0  0
  -21.6580   -6.3090   22.6360 C   0  0  0  0  0  0  0  0  0  0  0  0
  -21.2630   -6.8570   23.8760 C   0  0  0  0  0  3  0  0  0  0  0  0
  -21.1800   -6.0320   25.0150 C   0  0  0  0  0  3  0  0  0  0  0  0
  -21.4820   -4.6610   24.9160 C   0  0  0  0  0  0  0  0  0  0  0  0
  -21.8710   -4.1120   23.6810 C   0  0  0  0  0  3  0  0  0  0  0  0
  -21.9540   -4.9340   22.5450 C   0  0  0  0  0  0  0  0  0  0  0  0
  -22.3060   -4.3940   21.3530 F   0  0  0  0  0  0  0  0  0  0  0  0
  -21.4010   -3.8690   26.0110 F   0  0  0  0  0  0  0  0  0  0  0  0
  -22.9750  -13.6500   21.2500 C   0  0  0  0  0  0  0  0  0  0  0  0
  -22.2840  -12.9590   22.1460 N   0  0  0  0  0  0  0  0  0  0  0  0
  -22.5410  -14.7020   20.7800 O   0  0  0  0  0  0  0  0  0  0  0  0
  -22.6560  -12.1060   22.5420 H   0  0  0  0  0  0  0  0  0  0  0  0
  -21.3720  -13.2800   22.4410 H   0  0  0  0  0  0  0  0  0  0  0  0
  -25.5900  -15.2550   20.3310 N   0  0  0  0  0  0  0  0  0  0  0  0
  -24.8760  -15.9240   20.5890 H   0  0  0  0  0  0  0  0  0  0  0  0
  -26.4560  -15.6970   20.0520 H   0  0  0  0  0  0  0  0  0  0  0  0
  -28.8290  -17.2700   21.0100 C   0  0  0  0  0  2  0  0  0  0  0  0
  -27.1220  -17.4980   19.0480 C   0  0  0  0  0  1  0  0  0  0  0  0
  -27.3650  -17.5420   20.5710 C   0  0  0  0  0  2  0  0  0  0  0  0
  -29.4550  -20.3530   20.2080 C   0  0  0  0  0  2  0  0  0  0  0  0
  -28.7900  -21.7300   19.4970 C   0  0  0  0  0  2  0  0  0  0  0  0
  -28.7790  -23.2410   20.1700 C   0  0  0  0  0  0  0  0  0  0  0  0
  -29.4060  -23.3970   21.2230 O   0  0  0  0  0  0  0  0  0  0  0  0
  -27.9640  -24.5380   19.5550 C   0  0  0  0  0  2  0  0  0  0  0  0
  -28.1790  -26.0000   20.0440 O   0  0  0  0  0  0  0  0  0  0  0  0
  -24.5590  -31.6490   23.1080 C   0  0  0  0  0  0  0  0  0  0  0  0
  -27.1280  -26.9850   19.9840 C   0  0  0  0  0  0  0  0  0  0  0  0
  -23.3630  -30.2960   21.4360 C   0  0  0  0  0  3  0  0  0  0  0  0
  -24.8070  -28.7440   19.9910 C   0  0  0  0  0  0  0  0  0  0  0  0
  -25.9210  -30.5400   21.3020 C   0  0  0  0  0  2  0  0  0  0  0  0
  -25.9890  -29.1660   20.6120 C   0  0  0  0  0  0  0  0  0  0  0  0
  -27.1470  -28.3030   20.5960 C   0  0  0  0  0  3  0  0  0  0  0  0
  -25.9190  -26.6640   19.3250 C   0  0  0  0  0  3  0  0  0  0  0  0
  -24.7850  -27.5050   19.3360 C   0  0  0  0  0  3  0  0  0  0  0  0
  -23.5870  -29.6480   20.0460 C   0  0  0  0  0  2  0  0  0  0  0  0
  -24.6340  -30.8490   22.0030 N   0  0  0  0  0  0  0  0  0  0  0  0
  -23.4690  -31.9320   23.6310 O   0  0  0  0  0  0  0  0  0  0  0  0
  -22.6710  -29.2730   22.3720 C   0  0  0  0  0  0  0  0  0  0  0  0
  -21.3370  -29.1450   22.2570 N   0  0  0  0  0  0  0  0  0  0  0  0
  -23.3350  -28.5960   23.1610 O   0  0  0  0  0  0  0  0  0  0  0  0
  -20.8560  -29.7370   21.5950 H   0  0  0  0  0  0  0  0  0  0  0  0
  -17.9290  -28.0620   22.7930 C   0  0  0  0  0  0  0  0  0  0  0  0
  -20.5010  -28.2010   23.0050 C   0  0  0  0  0  3  0  0  0  0  0  0
  -20.5240  -26.7970   22.3550 C   0  0  0  0  0  2  0  0  0  0  0  0
  -19.3830  -26.5660   21.3600 C   0  0  0  0  0  2  0  0  0  0  0  0
  -18.0290  -26.7400   22.0540 C   0  0  0  0  0  2  0  0  0  0  0  0
  -19.0890  -28.7530   23.2330 C   0  0  0  0  0  0  0  0  0  0  0  0
  -18.9420  -29.9870   23.8980 C   0  0  0  0  0  3  0  0  0  0  0  0
  -17.6640  -30.5330   24.1250 C   0  0  0  0  0  3  0  0  0  0  0  0
  -16.5170  -29.8420   23.6960 C   0  0  0  0  0  3  0  0  0  0  0  0
  -16.6500  -28.6060   23.0360 C   0  0  0  0  0  3  0  0  0  0  0  0
  -25.8360  -32.2610   23.7560 C   0  0  0  0  0  3  0  0  0  0  0  0
  -25.5290  -33.6580   24.1040 N   0  0  0  0  0  0  0  0  0  0  0  0
  -25.8840  -34.7230   23.3730 C   0  0  0  0  0  0  0  0  0  0  0  0
  -26.5670  -34.6330   22.3500 O   0  0  0  0  0  0  0  0  0  0  0  0
  -24.9200  -33.8010   24.8950 H   0  0  0  0  0  0  0  0  0  0  0  0
  -24.1800  -36.5430   23.0300 C   0  0  0  0  0  1  0  0  0  0  0  0
  -25.4050  -36.1090   23.8500 C   0  0  0  0  0  3  0  0  0  0  0  0
  -27.5320  -36.9640   24.7350 C   0  0  0  0  0  1  0  0  0  0  0  0
  -26.4510  -37.1530   23.7690 N   0  0  0  0  0  0  0  0  0  0  0  0
  -26.0530  -38.0780   23.9170 H   0  0  0  0  0  0  0  0  0  0  0  0
  -26.3230  -31.4710   25.0330 C   0  0  1  0  0  0  0  0  0  0  0  0
  -25.2090  -31.2360   26.0800 C   0  0  0  0  0  1  0  0  0  0  0  0
  -26.8980  -30.0890   24.6440 C   0  0  0  0  0  1  0  0  0  0  0  0
  -27.4750  -32.2450   25.7170 C   0  0  0  0  0  1  0  0  0  0  0  0
  1  3  2  0
  1  4  1  0
  2  9  1  0
  2  5  2  0
  3  2  1  0
  4  6  2  0
  5 45  1  0
  6  5  1  0
  6 48  1  0
  7  3  1  0
  8  4  1  0
  9 16  2  0
 10 15  1  0
 11 12  1  0
 11 10  1  0
 13 12  1  0
 13 20  1  0
 13 14  1  0
 15  9  1  0
 15 14  1  0
 17 18  2  0
 18 37  1  0
 19 18  1  0
 19 22  1  0
 20 21  1  0
 20 17  1  0
 21 19  2  0
 22 23  1  0
 23 24  2  0
 25 28  1  0
 25 24  1  0
 26 25  2  0
 27 26  1  0
 27 22  2  0
 28 29  1  0
 29 30  1  0
 30 31  2  0
 32 31  1  0
 32 36  1  0
 33 32  2  0
 34 29  2  0
 34 33  1  0
 35 34  1  0
 37 38  1  0
 38 41  1  0
 38 40  1  0
 39 37  2  0
 42 17  1  0
 42 43  1  0
 44 42  1  0
 46 47  1  0
 47 45  1  0
 49 50  1  0
 49 48  1  0
 50 51  2  0
 52 53  1  0
 52 50  1  0
 54 65  2  0
 55 53  1  0
 55 60  1  0
 56 64  1  0
 56 66  1  0
 57 63  1  0
 57 59  1  0
 58 64  1  0
 59 58  1  0
 60 59  2  0
 61 62  1  0
 61 55  2  0
 62 57  2  0
 63 56  1  0
 64 54  1  0
 66 68  2  0
 67 66  1  0
 69 67  1  0
 70 79  2  0
 70 75  1  0
 71 67  1  0
 71 75  1  0
 72 71  1  0
 73 74  1  0
 73 72  1  0
 74 70  1  0
 75 76  2  0
 76 77  1  0
 78 77  2  0
 79 78  1  0
 80 54  1  0
 80 81  1  0
 80 90  1  0
 81 84  1  0
 82 86  1  0
 82 81  1  0
 83 82  2  0
 86 85  1  0
 88 86  1  0
 88 89  1  0
 88 87  1  0
 90 93  1  1
 90 91  1  0
 92 90  1  0
M  ISO  4   2 100   9 100  52 101  53 101
M  END
>  <TORSDO>  (77) 
F 22

>  <SCORE>  (77) 
-12.516

>  <name>  (77) 
76

>  <ligand_id>  (77) 
76

>  <original_smiles>  (77) 
[H]c1c([H])c([H])c2c(c1[H])C([H])([H])C([H])([H])C([H])([H])C2([H])N([H])C(=O)C1([H])N(C(=O)C([H])(N([H])C(=O)C([H])(N([H])C([H])([H])[H])C([H])([H])[H])C(C([H])([H])[H])(C([H])([H])[H])C([H])([H])[H])C([H])([H])c2c([H])c(OC([H])([H])C(=O)C([H])([H])C([H])([H])c3c(C([H])([H])[H])c([H])c(C([H])([H])[H])c(C(=O)N4C([H])([H])C([H])([H])C([H])([H])C([H])(n5nc(-c6c([H])c([H])c(Oc7c([H])c([H])c(F)c([H])c7F)c([H])c6[H])c(C(=O)N([H])[H])c5N([H])[H])C4([H])[H])c3C([H])([H])C([H])([H])C([H])([H])[H])c([H])c([H])c2C1([H])[H]

>  <smiles>  (77) 
[H]c1c([H])c([H])c2c(c1[H])C([H])([H])C([H])([H])C([H])([H])C2([H])N([H])C(=O)C1([H])N(C(=O)C([H])(N([H])C(=O)C([H])(N([H])C([H])([H])[H])C([H])([H])[H])C(C([H])([H])[H])(C([H])([H])[H])C([H])([H])[H])C([H])([H])c2c([H])c(OC([H])([H])C(=O)C([H])([H])C([H])([H])c3c(C([H])([H])[H])c([H])c(C([H])([H])[H])c(C(=O)N4C([H])([H])C([H])([H])C([H])([H])C([H])(n5nc(-c6c([H])c([H])c(Oc7c([H])c([H])c(F)c([H])c7F)c([H])c6[H])c(C(=O)N([H])[H])c5N([H])[H])C4([H])[H])c3C([H])([H])C([H])([H])C([H])([H])[H])c([H])c([H])c2C1([H])[H]

$$$$
77:0:0
     RDKit          3D

 90 98  0  0  1  0  0  0  0  0999 V2000
  -28.1420  -20.9960   19.2410 C   0  0  0  0  0  3  0  0  0  0  0  0
  -29.0510  -21.0750   20.3130 C   0  0  0  0  0  0  0  0  0  0  0  0
  -27.4720  -22.1070   18.6370 C   0  0  0  0  0  0  0  0  0  0  0  0
  -29.0750  -22.6430   20.7260 C   0  0  0  0  0  0  0  0  0  0  0  0
  -27.5480  -23.4830   19.0630 C   0  0  0  0  0  0  0  0  0  0  0  0
  -28.2980  -23.9600   20.1800 C   0  0  0  0  0  0  0  0  0  0  0  0
  -30.0570  -22.9600   21.8330 C   0  0  0  0  0  1  0  0  0  0  0  0
  -25.3340  -21.0610   17.7270 C   0  0  0  0  0  1  0  0  0  0  0  0
  -26.6610  -21.7490   17.3900 C   0  0  0  0  0  2  0  0  0  0  0  0
  -26.9070  -24.4130   18.2990 O   0  0  0  0  0  0  0  0  0  0  0  0
  -26.4050  -24.0220   17.5950 H   0  0  0  0  0  0  0  0  0  0  0  0
  -28.3170  -25.5810   20.3960 O   0  0  0  0  0  0  0  0  0  0  0  0
  -24.8120  -31.9250   23.2990 C   0  0  0  0  0  0  0  0  0  0  0  0
  -27.3440  -26.8120   20.3080 C   0  0  0  0  0  0  0  0  0  0  0  0
  -23.6300  -30.5320   21.6570 C   0  0  0  0  0  3  0  0  0  0  0  0
  -25.0790  -28.8800   20.2500 C   0  0  0  0  0  0  0  0  0  0  0  0
  -26.2120  -30.6560   21.5530 C   0  0  0  0  0  2  0  0  0  0  0  0
  -26.2750  -29.2220   20.8910 C   0  0  0  0  0  0  0  0  0  0  0  0
  -27.3870  -28.2180   20.8880 C   0  0  0  0  0  3  0  0  0  0  0  0
  -26.0970  -26.6860   19.6350 C   0  0  0  0  0  3  0  0  0  0  0  0
  -25.0300  -27.6360   19.6040 C   0  0  0  0  0  3  0  0  0  0  0  0
  -23.8760  -29.8370   20.2870 C   0  0  0  0  0  2  0  0  0  0  0  0
  -24.9090  -31.0710   22.2220 N   0  0  0  0  0  0  0  0  0  0  0  0
  -23.7150  -32.2320   23.7980 O   0  0  0  0  0  0  0  0  0  0  0  0
  -22.9020  -29.5570   22.6220 C   0  0  0  0  0  0  0  0  0  0  0  0
  -21.5830  -29.3530   22.4420 N   0  0  0  0  0  0  0  0  0  0  0  0
  -23.5390  -28.9850   23.5110 O   0  0  0  0  0  0  0  0  0  0  0  0
  -21.1160  -29.8690   21.7080 H   0  0  0  0  0  0  0  0  0  0  0  0
  -18.2330  -27.9850   22.7920 C   0  0  0  0  0  0  0  0  0  0  0  0
  -20.7530  -28.4090   23.2030 C   0  0  0  0  0  3  0  0  0  0  0  0
  -20.9670  -26.9580   22.7100 C   0  0  0  0  0  2  0  0  0  0  0  0
  -19.9550  -26.5290   21.6430 C   0  0  0  0  0  2  0  0  0  0  0  0
  -18.5270  -26.6230   22.1890 C   0  0  0  0  0  2  0  0  0  0  0  0
  -19.2780  -28.8310   23.2530 C   0  0  0  0  0  0  0  0  0  0  0  0
  -18.9460  -30.0990   23.7770 C   0  0  0  0  0  3  0  0  0  0  0  0
  -17.6050  -30.5230   23.8460 C   0  0  0  0  0  3  0  0  0  0  0  0
  -16.5760  -29.6770   23.3980 C   0  0  0  0  0  3  0  0  0  0  0  0
  -16.8890  -28.4100   22.8770 C   0  0  0  0  0  3  0  0  0  0  0  0
  -26.0720  -32.5710   23.9510 C   0  0  0  0  0  3  0  0  0  0  0  0
  -26.5400  -31.8230   25.2630 C   0  0  1  0  0  0  0  0  0  0  0  0
  -25.4110  -31.6180   26.2990 C   0  0  0  0  0  1  0  0  0  0  0  0
  -27.1270  -30.4320   24.9330 C   0  0  0  0  0  1  0  0  0  0  0  0
  -27.6730  -32.6260   25.9450 C   0  0  0  0  0  1  0  0  0  0  0  0
  -25.7600  -33.9810   24.2660 N   0  0  0  0  0  0  0  0  0  0  0  0
  -26.0840  -35.0330   23.5020 C   0  0  0  0  0  0  0  0  0  0  0  0
  -26.7360  -34.9210   22.4620 O   0  0  0  0  0  0  0  0  0  0  0  0
  -25.1780  -34.1420   25.0740 H   0  0  0  0  0  0  0  0  0  0  0  0
  -24.3510  -36.8370   23.1910 C   0  0  0  0  0  1  0  0  0  0  0  0
  -25.6170  -36.4310   23.9620 C   0  0  0  0  0  3  0  0  0  0  0  0
  -27.7680  -37.3400   24.7320 C   0  0  0  0  0  1  0  0  0  0  0  0
  -26.6480  -37.4820   23.8040 N   0  0  0  0  0  0  0  0  0  0  0  0
  -26.2460  -38.4070   23.9340 H   0  0  0  0  0  0  0  0  0  0  0  0
  -29.9420  -19.4620   20.6970 C   0  0  0  0  0  3  0  0  0  0  0  0
  -29.7180  -17.5180   20.6140 C   0  0  0  0  0  3  0  0  0  0  0  0
  -30.6170  -15.8580   20.7770 C   0  0  0  0  0  0  0  0  0  0  0  0
  -30.8690  -13.2730   20.0850 C   0  0  0  0  0  2  0  0  0  0  0  0
  -30.0780  -12.8390   18.8150 C   0  0  0  0  0  2  0  0  0  0  0  0
  -28.6280  -12.4590   19.1610 C   0  0  0  0  0  2  0  0  0  0  0  0
  -28.0190  -13.4630   20.1650 C   0  0  0  0  0  3  0  0  0  0  0  0
  -28.9580  -13.8250   21.3370 C   0  0  0  0  0  2  0  0  0  0  0  0
  -30.1720  -14.4570   20.7690 N   0  0  0  0  0  0  0  0  0  0  0  0
  -31.8610  -15.8250   20.7030 O   0  0  0  0  0  0  0  0  0  0  0  0
  -25.6140  -13.9560   20.8120 C   0  0  0  0  0  0  0  0  0  0  0  0
  -24.5450  -13.1580   21.1070 C   0  0  0  0  0  0  0  0  0  0  0  0
  -25.0320  -11.8150   21.0780 C   0  0  0  0  0  0  0  0  0  0  0  0
  -26.6800  -13.1010   20.6050 N   0  0  0  0  0  0  0  0  0  0  0  0
  -26.3410  -11.8030   20.8360 N   0  0  0  0  0  0  0  0  0  0  0  0
  -24.3080  -10.5410   21.2100 C   0  0  0  0  0  0  0  0  0  0  0  0
  -24.6600   -9.5860   22.1890 C   0  0  0  0  0  3  0  0  0  0  0  0
  -23.9330   -8.3820   22.3080 C   0  0  0  0  0  3  0  0  0  0  0  0
  -22.8390   -8.1220   21.4480 C   0  0  0  0  0  0  0  0  0  0  0  0
  -22.5060   -9.0670   20.4610 C   0  0  0  0  0  3  0  0  0  0  0  0
  -23.2330  -10.2630   20.3400 C   0  0  0  0  0  3  0  0  0  0  0  0
  -22.0930   -6.9690   21.4740 O   0  0  0  0  0  0  0  0  0  0  0  0
  -21.8800   -6.2730   22.6370 C   0  0  0  0  0  0  0  0  0  0  0  0
  -21.1920   -6.8440   23.7320 C   0  0  0  0  0  3  0  0  0  0  0  0
  -20.9370   -6.0720   24.8820 C   0  0  0  0  0  3  0  0  0  0  0  0
  -21.3560   -4.7280   24.9370 C   0  0  0  0  0  0  0  0  0  0  0  0
  -22.0350   -4.1580   23.8460 C   0  0  0  0  0  3  0  0  0  0  0  0
  -22.2940   -4.9270   22.6990 C   0  0  0  0  0  0  0  0  0  0  0  0
  -22.9300   -4.3660   21.6410 F   0  0  0  0  0  0  0  0  0  0  0  0
  -21.1040   -3.9830   26.0380 F   0  0  0  0  0  0  0  0  0  0  0  0
  -23.1290  -13.6140   21.3010 C   0  0  0  0  0  0  0  0  0  0  0  0
  -22.3640  -12.9110   22.1280 N   0  0  0  0  0  0  0  0  0  0  0  0
  -22.7090  -14.6340   20.7560 O   0  0  0  0  0  0  0  0  0  0  0  0
  -22.7150  -12.0860   22.5950 H   0  0  0  0  0  0  0  0  0  0  0  0
  -21.4100  -13.1980   22.2950 H   0  0  0  0  0  0  0  0  0  0  0  0
  -25.7690  -15.3310   20.6650 N   0  0  0  0  0  0  0  0  0  0  0  0
  -24.9910  -15.9760   20.7470 H   0  0  0  0  0  0  0  0  0  0  0  0
  -26.6310  -15.7820   20.3900 H   0  0  0  0  0  0  0  0  0  0  0  0
  1  2  1  0
  2 53  1  0
  2  4  2  0
  3  5  1  0
  3  1  2  0
  4  7  1  0
  5  6  2  0
  6 12  1  0
  6  4  1  0
  9  8  1  0
  9  3  1  0
 10  5  1  0
 11 10  1  0
 13 24  2  0
 14 12  1  0
 14 19  1  0
 15 23  1  0
 15 25  1  0
 16 22  1  0
 16 18  1  0
 17 23  1  0
 18 17  1  0
 19 18  2  0
 20 14  2  0
 21 20  1  0
 21 16  2  0
 22 15  1  0
 23 13  1  0
 25 27  2  0
 26 25  1  0
 28 26  1  0
 29 38  2  0
 29 34  1  0
 30 26  1  0
 30 34  1  0
 31 30  1  0
 32 33  1  0
 32 31  1  0
 33 29  1  0
 34 35  2  0
 35 36  1  0
 37 36  2  0
 38 37  1  0
 39 13  1  0
 39 44  1  0
 39 40  1  0
 40 43  1  1
 40 41  1  0
 42 40  1  0
 44 47  1  0
 45 49  1  0
 45 44  1  0
 46 45  2  0
 49 48  1  0
 51 52  1  0
 51 49  1  0
 51 50  1  0
 54 53  2  0
 54 55  1  0
 56 61  1  0
 57 58  1  0
 57 56  1  0
 59 58  1  0
 59 66  1  0
 59 60  1  0
 61 55  1  0
 61 60  1  0
 62 55  2  0
 63 64  2  0
 64 83  1  0
 65 64  1  0
 65 68  1  0
 66 63  1  0
 66 67  1  0
 67 65  2  0
 68 69  1  0
 69 70  2  0
 71 74  1  0
 71 70  1  0
 72 71  2  0
 73 72  1  0
 73 68  2  0
 74 75  1  0
 75 80  2  0
 75 76  1  0
 76 77  2  0
 77 78  1  0
 78 82  1  0
 79 78  2  0
 80 79  1  0
 81 80  1  0
 83 84  1  0
 84 87  1  0
 84 86  1  0
 85 83  2  0
 88 89  1  0
 88 63  1  0
 90 88  1  0
M  ISO  4   6 101  12 101  54 100  55 100
M  END
>  <TORSDO>  (78) 
F 20

>  <SCORE>  (78) 
-14.345

>  <name>  (78) 
77

>  <ligand_id>  (78) 
77

>  <original_smiles>  (78) 
[H]Oc1c(Oc2c([H])c([H])c3c(c2[H])C([H])([H])N(C(=O)C([H])(N([H])C(=O)C([H])(N([H])C([H])([H])[H])C([H])([H])[H])C(C([H])([H])[H])(C([H])([H])[H])C([H])([H])[H])C([H])(C(=O)N([H])C2([H])c4c([H])c([H])c([H])c([H])c4C([H])([H])C([H])([H])C2([H])[H])C3([H])[H])c(C([H])([H])[H])c(C([H])([H])C([H])([H])C(=O)N2C([H])([H])C([H])([H])C([H])([H])C([H])(n3nc(-c4c([H])c([H])c(Oc5c([H])c([H])c(F)c([H])c5F)c([H])c4[H])c(C(=O)N([H])[H])c3N([H])[H])C2([H])[H])c([H])c1C([H])([H])C([H])([H])[H]

>  <smiles>  (78) 
[H]Oc1c(Oc2c([H])c([H])c3c(c2[H])C([H])([H])N(C(=O)C([H])(N([H])C(=O)C([H])(N([H])C([H])([H])[H])C([H])([H])[H])C(C([H])([H])[H])(C([H])([H])[H])C([H])([H])[H])C([H])(C(=O)N([H])C2([H])c4c([H])c([H])c([H])c([H])c4C([H])([H])C([H])([H])C2([H])[H])C3([H])[H])c(C([H])([H])[H])c(C([H])([H])C([H])([H])C(=O)N2C([H])([H])C([H])([H])C([H])([H])C([H])(n3nc(-c4c([H])c([H])c(Oc5c([H])c([H])c(F)c([H])c5F)c([H])c4[H])c(C(=O)N([H])[H])c3N([H])[H])C2([H])[H])c([H])c1C([H])([H])C([H])([H])[H]

$$$$
78:0:0
     RDKit          3D

 93101  0  0  1  0  0  0  0  0999 V2000
  -30.0570  -17.9250   22.0760 C   0  0  0  0  0  3  0  0  0  0  0  0
  -30.2760  -16.5060   20.0570 C   0  0  0  0  0  0  0  0  0  0  0  0
  -30.3440  -16.6810   21.4710 C   0  0  0  0  0  0  0  0  0  0  0  0
  -29.8750  -17.7520   19.3250 C   0  0  0  0  0  0  0  0  0  0  0  0
  -29.5820  -19.0840   19.9540 C   0  0  0  0  0  0  0  0  0  0  0  0
  -29.6980  -19.0830   21.3600 C   0  0  0  0  0  0  0  0  0  0  0  0
  -30.8220  -15.1200   19.4370 C   0  0  0  0  0  0  0  0  0  0  0  0
  -30.5350  -12.7770   18.5130 C   0  0  0  0  0  2  0  0  0  0  0  0
  -29.4860  -12.7710   17.3760 C   0  0  0  0  0  2  0  0  0  0  0  0
  -28.0740  -12.5790   17.9540 C   0  0  0  0  0  2  0  0  0  0  0  0
  -27.8080  -13.5100   19.1630 C   0  0  0  0  0  3  0  0  0  0  0  0
  -28.9640  -13.5040   20.1780 C   0  0  0  0  0  2  0  0  0  0  0  0
  -30.1920  -13.8760   19.4650 N   0  0  0  0  0  0  0  0  0  0  0  0
  -31.9210  -15.1610   18.8700 O   0  0  0  0  0  0  0  0  0  0  0  0
  -25.5590  -14.1260   20.2110 C   0  0  0  0  0  0  0  0  0  0  0  0
  -24.5210  -13.3670   20.6760 C   0  0  0  0  0  0  0  0  0  0  0  0
  -24.9340  -12.0050   20.5380 C   0  0  0  0  0  0  0  0  0  0  0  0
  -26.5320  -13.2290   19.8060 N   0  0  0  0  0  0  0  0  0  0  0  0
  -26.1750  -11.9450   20.0710 N   0  0  0  0  0  0  0  0  0  0  0  0
  -24.1940  -10.7570   20.7650 C   0  0  0  0  0  0  0  0  0  0  0  0
  -24.6380   -9.7920   21.6960 C   0  0  0  0  0  3  0  0  0  0  0  0
  -23.8970   -8.6090   21.9090 C   0  0  0  0  0  3  0  0  0  0  0  0
  -22.6980   -8.3840   21.1930 C   0  0  0  0  0  0  0  0  0  0  0  0
  -22.2710   -9.3380   20.2530 C   0  0  0  0  0  3  0  0  0  0  0  0
  -23.0120  -10.5110   20.0380 C   0  0  0  0  0  3  0  0  0  0  0  0
  -21.9250   -7.2540   21.3170 O   0  0  0  0  0  0  0  0  0  0  0  0
  -21.8090   -6.5890   22.5110 C   0  0  0  0  0  0  0  0  0  0  0  0
  -21.3210   -7.2250   23.6740 C   0  0  0  0  0  3  0  0  0  0  0  0
  -21.1530   -6.4860   24.8620 C   0  0  0  0  0  3  0  0  0  0  0  0
  -21.4610   -5.1130   24.8870 C   0  0  0  0  0  0  0  0  0  0  0  0
  -21.9430   -4.4770   23.7300 C   0  0  0  0  0  3  0  0  0  0  0  0
  -22.1140   -5.2130   22.5440 C   0  0  0  0  0  0  0  0  0  0  0  0
  -22.5570   -4.5910   21.4250 F   0  0  0  0  0  0  0  0  0  0  0  0
  -21.2920   -4.4000   26.0250 F   0  0  0  0  0  0  0  0  0  0  0  0
  -23.1840  -13.8730   21.1310 C   0  0  0  0  0  0  0  0  0  0  0  0
  -22.5460  -13.1670   22.0580 N   0  0  0  0  0  0  0  0  0  0  0  0
  -22.7180  -14.9250   20.6970 O   0  0  0  0  0  0  0  0  0  0  0  0
  -22.9390  -12.3120   22.4230 H   0  0  0  0  0  0  0  0  0  0  0  0
  -21.6540  -13.4860   22.4090 H   0  0  0  0  0  0  0  0  0  0  0  0
  -25.7520  -15.4970   20.0720 N   0  0  0  0  0  0  0  0  0  0  0  0
  -25.0380  -16.1740   20.3180 H   0  0  0  0  0  0  0  0  0  0  0  0
  -26.5900  -15.9240   19.6980 H   0  0  0  0  0  0  0  0  0  0  0  0
  -29.4340  -20.2170   22.0720 O   0  0  0  0  0  0  0  0  0  0  0  0
  -29.5710  -20.1070   23.0060 H   0  0  0  0  0  0  0  0  0  0  0  0
  -30.9780  -18.1980   17.0950 C   0  0  0  0  0  1  0  0  0  0  0  0
  -29.7420  -17.6540   17.8130 C   0  0  0  0  0  2  0  0  0  0  0  0
  -32.3430  -15.6430   22.6100 C   0  0  0  0  0  1  0  0  0  0  0  0
  -30.8250  -15.5910   22.4260 C   0  0  0  0  0  2  0  0  0  0  0  0
  -28.9690  -20.4750   19.2870 C   0  0  0  0  0  2  0  0  0  0  0  0
  -29.4530  -22.0760   19.5200 C   0  0  0  0  0  2  0  0  0  0  0  0
  -28.4910  -23.4400   19.8210 C   0  0  0  0  0  2  0  0  0  0  0  0
  -28.6320  -24.9700   19.1200 C   0  0  0  0  0  2  0  0  0  0  0  0
  -28.4760  -26.4030   19.7030 O   0  0  0  0  0  0  0  0  0  0  0  0
  -24.6040  -31.6400   23.0580 C   0  0  0  0  0  0  0  0  0  0  0  0
  -27.3440  -27.2890   19.6630 C   0  0  0  0  0  0  0  0  0  0  0  0
  -23.4340  -30.2930   21.3540 C   0  0  0  0  0  3  0  0  0  0  0  0
  -24.9240  -28.8920   19.7910 C   0  0  0  0  0  0  0  0  0  0  0  0
  -25.9630  -30.7070   21.1480 C   0  0  0  0  0  2  0  0  0  0  0  0
  -26.0880  -29.3670   20.4040 C   0  0  0  0  0  0  0  0  0  0  0  0
  -27.2930  -28.5780   20.3280 C   0  0  0  0  0  3  0  0  0  0  0  0
  -26.1510  -26.9080   19.0160 C   0  0  0  0  0  3  0  0  0  0  0  0
  -24.9660  -27.6770   19.0810 C   0  0  0  0  0  3  0  0  0  0  0  0
  -23.6520  -29.7150   19.9280 C   0  0  0  0  0  2  0  0  0  0  0  0
  -24.6870  -30.9010   21.9090 N   0  0  0  0  0  0  0  0  0  0  0  0
  -23.5200  -31.8310   23.6300 O   0  0  0  0  0  0  0  0  0  0  0  0
  -22.8370  -29.1910   22.2630 C   0  0  0  0  0  0  0  0  0  0  0  0
  -21.5270  -28.9230   22.1190 N   0  0  0  0  0  0  0  0  0  0  0  0
  -23.5540  -28.5830   23.0630 O   0  0  0  0  0  0  0  0  0  0  0  0
  -21.0010  -29.4700   21.4510 H   0  0  0  0  0  0  0  0  0  0  0  0
  -18.2600  -27.4040   22.4970 C   0  0  0  0  0  0  0  0  0  0  0  0
  -20.7790  -27.8890   22.8390 C   0  0  0  0  0  3  0  0  0  0  0  0
  -21.0250  -26.4940   22.2200 C   0  0  0  0  0  2  0  0  0  0  0  0
  -19.9800  -26.1070   21.1690 C   0  0  0  0  0  2  0  0  0  0  0  0
  -18.5770  -26.1020   21.7820 C   0  0  0  0  0  2  0  0  0  0  0  0
  -19.2950  -28.2500   22.9800 C   0  0  0  0  0  0  0  0  0  0  0  0
  -18.9470  -29.4630   23.6110 C   0  0  0  0  0  3  0  0  0  0  0  0
  -17.5980  -29.8360   23.7620 C   0  0  0  0  0  3  0  0  0  0  0  0
  -16.5790  -28.9900   23.2960 C   0  0  0  0  0  3  0  0  0  0  0  0
  -16.9100  -27.7750   22.6680 C   0  0  0  0  0  3  0  0  0  0  0  0
  -25.8650  -32.2980   23.6970 C   0  0  0  0  0  3  0  0  0  0  0  0
  -25.5110  -33.6770   24.0690 N   0  0  0  0  0  0  0  0  0  0  0  0
  -25.8090  -34.7660   23.3460 C   0  0  0  0  0  0  0  0  0  0  0  0
  -26.4760  -34.7150   22.3100 O   0  0  0  0  0  0  0  0  0  0  0  0
  -24.9160  -33.7890   24.8760 H   0  0  0  0  0  0  0  0  0  0  0  0
  -24.0190  -36.5140   23.0660 C   0  0  0  0  0  1  0  0  0  0  0  0
  -25.2830  -36.1250   23.8510 C   0  0  0  0  0  3  0  0  0  0  0  0
  -27.3960  -37.0590   24.6820 C   0  0  0  0  0  1  0  0  0  0  0  0
  -26.2790  -37.2150   23.7560 N   0  0  0  0  0  0  0  0  0  0  0  0
  -25.8440  -38.1160   23.9320 H   0  0  0  0  0  0  0  0  0  0  0  0
  -26.4060  -31.5110   24.9550 C   0  0  1  0  0  0  0  0  0  0  0  0
  -25.3190  -31.2030   26.0100 C   0  0  0  0  0  1  0  0  0  0  0  0
  -27.0440  -30.1680   24.5310 C   0  0  0  0  0  1  0  0  0  0  0  0
  -27.5250  -32.3300   25.6430 C   0  0  0  0  0  1  0  0  0  0  0  0
  2  3  2  0
  3  1  1  0
  3 48  1  0
  4  5  2  0
  4  2  1  0
  5  6  1  0
  6 43  1  0
  6  1  2  0
  7 13  1  0
  7  2  1  0
  8 13  1  0
  9 10  1  0
  9  8  1  0
 11 10  1  0
 11 18  1  0
 11 12  1  0
 13 12  1  0
 14  7  2  0
 15 16  2  0
 16 35  1  0
 17 16  1  0
 17 20  1  0
 18 19  1  0
 18 15  1  0
 19 17  2  0
 20 21  1  0
 21 22  2  0
 23 26  1  0
 23 22  1  0
 24 23  2  0
 25 24  1  0
 25 20  2  0
 26 27  1  0
 27 32  2  0
 27 28  1  0
 28 29  2  0
 29 30  1  0
 30 34  1  0
 31 30  2  0
 32 31  1  0
 33 32  1  0
 35 36  1  0
 36 39  1  0
 36 38  1  0
 37 35  2  0
 40 15  1  0
 40 41  1  0
 42 40  1  0
 43 44  1  0
 45 46  1  0
 46  4  1  0
 48 47  1  0
 49 50  1  0
 49  5  1  0
 50 51  1  0
 52 53  1  0
 52 51  1  0
 54 65  2  0
 55 53  1  0
 55 60  1  0
 56 64  1  0
 56 66  1  0
 57 63  1  0
 57 59  1  0
 58 64  1  0
 59 58  1  0
 60 59  2  0
 61 62  1  0
 61 55  2  0
 62 57  2  0
 63 56  1  0
 64 54  1  0
 66 68  2  0
 67 66  1  0
 69 67  1  0
 70 79  2  0
 70 75  1  0
 71 67  1  0
 71 75  1  0
 72 71  1  0
 73 74  1  0
 73 72  1  0
 74 70  1  0
 75 76  2  0
 76 77  1  0
 78 77  2  0
 79 78  1  0
 80 54  1  0
 80 81  1  0
 80 90  1  0
 81 84  1  0
 82 86  1  0
 82 81  1  0
 83 82  2  0
 86 85  1  0
 88 86  1  0
 88 89  1  0
 88 87  1  0
 90 93  1  1
 90 91  1  0
 92 90  1  0
M  ISO  4   2 100   7 100  52 101  53 101
M  END
>  <TORSDO>  (79) 
F 23

>  <SCORE>  (79) 
-7.960

>  <name>  (79) 
78

>  <ligand_id>  (79) 
78

>  <original_smiles>  (79) 
[H]Oc1c([H])c(C([H])([H])C([H])([H])[H])c(C(=O)N2C([H])([H])C([H])([H])C([H])([H])C([H])(n3nc(-c4c([H])c([H])c(Oc5c([H])c([H])c(F)c([H])c5F)c([H])c4[H])c(C(=O)N([H])[H])c3N([H])[H])C2([H])[H])c(C([H])([H])C([H])([H])[H])c1C([H])([H])C([H])([H])C([H])([H])C([H])([H])Oc1c([H])c([H])c2c(c1[H])C([H])([H])N(C(=O)C([H])(N([H])C(=O)C([H])(N([H])C([H])([H])[H])C([H])([H])[H])C(C([H])([H])[H])(C([H])([H])[H])C([H])([H])[H])C([H])(C(=O)N([H])C1([H])c3c([H])c([H])c([H])c([H])c3C([H])([H])C([H])([H])C1([H])[H])C2([H])[H]

>  <smiles>  (79) 
[H]Oc1c([H])c(C([H])([H])C([H])([H])[H])c(C(=O)N2C([H])([H])C([H])([H])C([H])([H])C([H])(n3nc(-c4c([H])c([H])c(Oc5c([H])c([H])c(F)c([H])c5F)c([H])c4[H])c(C(=O)N([H])[H])c3N([H])[H])C2([H])[H])c(C([H])([H])C([H])([H])[H])c1C([H])([H])C([H])([H])C([H])([H])C([H])([H])Oc1c([H])c([H])c2c(c1[H])C([H])([H])N(C(=O)C([H])(N([H])C(=O)C([H])(N([H])C([H])([H])[H])C([H])([H])[H])C(C([H])([H])[H])(C([H])([H])[H])C([H])([H])[H])C([H])(C(=O)N([H])C1([H])c3c([H])c([H])c([H])c([H])c3C([H])([H])C([H])([H])C1([H])[H])C2([H])[H]

$$$$
79:0:0
     RDKit          3D

 91 99  0  0  1  0  0  0  0  0999 V2000
  -29.4230  -22.8900   19.3890 C   0  0  0  0  0  3  0  0  0  0  0  0
  -29.6970  -24.2570   19.3310 C   0  0  0  0  0  0  0  0  0  0  0  0
  -30.6230  -24.7650   20.4360 C   0  0  0  0  0  1  0  0  0  0  0  0
  -28.7530  -21.7440   18.5320 C   0  0  0  0  0  2  0  0  0  0  0  0
  -30.5550  -21.9850   16.4940 C   0  0  0  0  0  3  0  0  0  0  0  0
  -29.6450  -19.6560   15.3090 C   0  0  0  0  0  3  0  0  0  0  0  0
  -31.2310  -21.5340   15.2780 C   0  0  0  0  0  0  0  0  0  0  0  0
  -29.4330  -21.3040   17.1350 C   0  0  0  0  0  0  0  0  0  0  0  0
  -30.7570  -20.3050   14.7380 C   0  0  0  0  0  0  0  0  0  0  0  0
  -29.0020  -20.1150   16.4790 C   0  0  0  0  0  0  0  0  0  0  0  0
  -31.4870  -19.5740   13.6170 C   0  0  0  0  0  1  0  0  0  0  0  0
  -27.8860  -19.2380   17.0260 C   0  0  0  0  0  1  0  0  0  0  0  0
  -32.5420  -22.1790   14.7300 C   0  0  0  0  0  0  0  0  0  0  0  0
  -33.8340  -23.9160   13.4680 C   0  0  0  0  0  2  0  0  0  0  0  0
  -33.7170  -25.2730   14.1980 C   0  0  0  0  0  2  0  0  0  0  0  0
  -32.4780  -26.0420   13.7010 C   0  0  0  0  0  2  0  0  0  0  0  0
  -31.2050  -25.1550   13.6990 C   0  0  0  0  0  3  0  0  0  0  0  0
  -31.4600  -23.7750   13.0530 C   0  0  0  0  0  2  0  0  0  0  0  0
  -32.5940  -23.1430   13.7380 N   0  0  0  0  0  0  0  0  0  0  0  0
  -33.5960  -21.7880   15.2420 O   0  0  0  0  0  0  0  0  0  0  0  0
  -28.8070  -26.0730   13.6180 C   0  0  0  0  0  0  0  0  0  0  0  0
  -28.1380  -26.8160   12.6830 C   0  0  0  0  0  0  0  0  0  0  0  0
  -29.0510  -27.0070   11.6000 C   0  0  0  0  0  0  0  0  0  0  0  0
  -30.0670  -25.8400   13.0890 N   0  0  0  0  0  0  0  0  0  0  0  0
  -30.1870  -26.3620   11.8390 N   0  0  0  0  0  0  0  0  0  0  0  0
  -28.9280  -27.8160   10.3770 C   0  0  0  0  0  0  0  0  0  0  0  0
  -28.5090  -27.2450    9.1530 C   0  0  0  0  0  3  0  0  0  0  0  0
  -28.3780  -28.0450    7.9970 C   0  0  0  0  0  3  0  0  0  0  0  0
  -28.6630  -29.4300    8.0590 C   0  0  0  0  0  0  0  0  0  0  0  0
  -29.1000  -29.9890    9.2740 C   0  0  0  0  0  3  0  0  0  0  0  0
  -29.2350  -29.1890   10.4200 C   0  0  0  0  0  3  0  0  0  0  0  0
  -28.5880  -30.2810    6.9820 O   0  0  0  0  0  0  0  0  0  0  0  0
  -27.6090  -30.1550    6.0320 C   0  0  0  0  0  0  0  0  0  0  0  0
  -26.2900  -30.6080    6.2570 C   0  0  0  0  0  3  0  0  0  0  0  0
  -25.3310  -30.5240    5.2280 C   0  0  0  0  0  3  0  0  0  0  0  0
  -25.6890  -29.9940    3.9740 C   0  0  0  0  0  0  0  0  0  0  0  0
  -27.0020  -29.5460    3.7450 C   0  0  0  0  0  3  0  0  0  0  0  0
  -27.9610  -29.6290    4.7720 C   0  0  0  0  0  0  0  0  0  0  0  0
  -29.2300  -29.2150    4.5400 F   0  0  0  0  0  0  0  0  0  0  0  0
  -24.7700  -29.9200    2.9830 F   0  0  0  0  0  0  0  0  0  0  0  0
  -26.7620  -27.4010   12.8270 C   0  0  0  0  0  0  0  0  0  0  0  0
  -25.8910  -27.1730   11.8490 N   0  0  0  0  0  0  0  0  0  0  0  0
  -26.4350  -28.0290   13.8330 O   0  0  0  0  0  0  0  0  0  0  0  0
  -26.1550  -26.6420   11.0330 H   0  0  0  0  0  0  0  0  0  0  0  0
  -24.9510  -27.5360   11.9230 H   0  0  0  0  0  0  0  0  0  0  0  0
  -28.4610  -25.5940   14.8780 N   0  0  0  0  0  0  0  0  0  0  0  0
  -27.5630  -25.7830   15.3090 H   0  0  0  0  0  0  0  0  0  0  0  0
  -29.0680  -25.0270   15.4590 H   0  0  0  0  0  0  0  0  0  0  0  0
  -29.3270  -25.4420   18.3330 C   0  0  0  0  0  2  0  0  0  0  0  0
  -30.2080  -26.8130   18.3900 C   0  0  0  0  0  2  0  0  0  0  0  0
  -30.6930  -27.6150   17.2100 O   0  0  0  0  0  0  0  0  0  0  0  0
  -36.6670  -29.0270   13.3410 C   0  0  0  0  0  0  0  0  0  0  0  0
  -32.0640  -27.9840   17.1980 C   0  0  0  0  0  0  0  0  0  0  0  0
  -36.9890  -28.3420   15.6880 C   0  0  0  0  0  3  0  0  0  0  0  0
  -34.9070  -28.4180   17.1720 C   0  0  0  0  0  0  0  0  0  0  0  0
  -34.8690  -29.6120   14.9900 C   0  0  0  0  0  2  0  0  0  0  0  0
  -34.1210  -28.9060   16.1190 C   0  0  0  0  0  0  0  0  0  0  0  0
  -32.7040  -28.7040   16.1310 C   0  0  0  0  0  3  0  0  0  0  0  0
  -32.9000  -27.5800   18.2660 C   0  0  0  0  0  3  0  0  0  0  0  0
  -34.2940  -27.7640   18.2510 C   0  0  0  0  0  3  0  0  0  0  0  0
  -36.4070  -28.6160   17.0990 C   0  0  0  0  0  2  0  0  0  0  0  0
  -36.1690  -28.9870   14.6110 N   0  0  0  0  0  0  0  0  0  0  0  0
  -37.7860  -28.5670   13.0700 O   0  0  0  0  0  0  0  0  0  0  0  0
  -37.1640  -26.8160   15.4980 C   0  0  0  0  0  0  0  0  0  0  0  0
  -38.2990  -26.4050   14.9070 N   0  0  0  0  0  0  0  0  0  0  0  0
  -36.3030  -26.0280   15.8950 O   0  0  0  0  0  0  0  0  0  0  0  0
  -38.9560  -27.1060   14.5960 H   0  0  0  0  0  0  0  0  0  0  0  0
  -39.6930  -24.1540   12.4420 C   0  0  0  0  0  0  0  0  0  0  0  0
  -38.6840  -25.0140   14.6620 C   0  0  0  0  0  3  0  0  0  0  0  0
  -40.0620  -24.7000   15.2890 C   0  0  0  0  0  2  0  0  0  0  0  0
  -41.2270  -24.8900   14.3120 C   0  0  0  0  0  2  0  0  0  0  0  0
  -41.0560  -23.9860   13.0900 C   0  0  0  0  0  2  0  0  0  0  0  0
  -38.5820  -24.6500   13.1740 C   0  0  0  0  0  0  0  0  0  0  0  0
  -37.3460  -24.8180   12.5110 C   0  0  0  0  0  3  0  0  0  0  0  0
  -37.2100  -24.4930   11.1480 C   0  0  0  0  0  3  0  0  0  0  0  0
  -38.3100  -23.9880   10.4330 C   0  0  0  0  0  3  0  0  0  0  0  0
  -39.5460  -23.8190   11.0790 C   0  0  0  0  0  3  0  0  0  0  0  0
  -35.8620  -29.6700   12.1710 C   0  0  0  0  0  3  0  0  0  0  0  0
  -35.4900  -28.6390   11.0350 C   0  0  1  0  0  0  0  0  0  0  0  0
  -36.6890  -28.2380   10.1450 C   0  0  0  0  0  1  0  0  0  0  0  0
  -34.8960  -27.3460   11.6400 C   0  0  0  0  0  1  0  0  0  0  0  0
  -34.3960  -29.2400   10.1230 C   0  0  0  0  0  1  0  0  0  0  0  0
  -36.6690  -30.7700   11.6270 N   0  0  0  0  0  0  0  0  0  0  0  0
  -36.4260  -32.0690   11.8400 C   0  0  0  0  0  0  0  0  0  0  0  0
  -35.4450  -32.4720   12.4700 O   0  0  0  0  0  0  0  0  0  0  0  0
  -37.5200  -30.5120   11.1490 H   0  0  0  0  0  0  0  0  0  0  0  0
  -38.2110  -33.7490   12.4070 C   0  0  0  0  0  1  0  0  0  0  0  0
  -37.4320  -33.0840   11.2610 C   0  0  0  0  0  3  0  0  0  0  0  0
  -36.9340  -33.8670    8.9880 C   0  0  0  0  0  1  0  0  0  0  0  0
  -36.8020  -34.1240   10.4200 N   0  0  0  0  0  0  0  0  0  0  0  0
  -37.2010  -35.0380   10.6160 H   0  0  0  0  0  0  0  0  0  0  0  0
  2  1  2  0
  2  3  1  0
  4  1  1  0
  5  8  1  0
  6 10  1  0
  7  5  2  0
  8  4  1  0
  9  7  1  0
  9  6  2  0
 10 12  1  0
 10  8  2  0
 11  9  1  0
 13 20  2  0
 13  7  1  0
 14 19  1  0
 14 15  1  0
 16 15  1  0
 17 18  1  0
 17 16  1  0
 18 19  1  0
 19 13  1  0
 21 46  1  0
 22 41  1  0
 22 21  2  0
 23 25  2  0
 23 22  1  0
 24 21  1  0
 24 17  1  0
 25 24  1  0
 26 31  1  0
 26 23  1  0
 27 26  2  0
 28 29  2  0
 28 27  1  0
 29 30  1  0
 30 31  2  0
 32 29  1  0
 33 34  1  0
 33 32  1  0
 35 34  2  0
 36 35  1  0
 37 36  2  0
 37 38  1  0
 38 33  2  0
 39 38  1  0
 40 36  1  0
 41 43  2  0
 42 45  1  0
 42 41  1  0
 44 42  1  0
 46 47  1  0
 46 48  1  0
 49 50  1  0
 49  2  1  0
 51 50  1  0
 52 62  1  0
 53 51  1  0
 53 59  1  0
 54 64  1  0
 54 61  1  0
 55 60  1  0
 56 57  1  0
 57 58  1  0
 57 55  2  0
 58 53  2  0
 60 59  2  0
 61 55  1  0
 62 56  1  0
 62 54  1  0
 63 52  2  0
 64 66  2  0
 65 64  1  0
 67 65  1  0
 68 72  1  0
 68 73  1  0
 69 65  1  0
 69 70  1  0
 71 70  1  0
 72 71  1  0
 73 69  1  0
 74 73  2  0
 75 74  1  0
 76 77  1  0
 76 75  2  0
 77 68  2  0
 78 52  1  0
 79 81  1  1
 79 78  1  0
 80 79  1  0
 82 79  1  0
 83 84  1  0
 83 78  1  0
 84 85  2  0
 86 83  1  0
 88 84  1  0
 88 87  1  0
 89 90  1  0
 90 91  1  0
 90 88  1  0
M  ISO  4   7 100  13 100  50 101  51 101
M  END
>  <TORSDO>  (80) 
F 20

>  <SCORE>  (80) 
-3.142

>  <name>  (80) 
79

>  <ligand_id>  (80) 
79

>  <original_smiles>  (80) 
[H]C(=C(C([H])([H])[H])C([H])([H])C([H])([H])Oc1c([H])c([H])c2c(c1[H])C([H])([H])N(C(=O)C([H])(N([H])C(=O)C([H])(N([H])C([H])([H])[H])C([H])([H])[H])C(C([H])([H])[H])(C([H])([H])[H])C([H])([H])[H])C([H])(C(=O)N([H])C1([H])c3c([H])c([H])c([H])c([H])c3C([H])([H])C([H])([H])C1([H])[H])C2([H])[H])C([H])([H])c1c([H])c(C(=O)N2C([H])([H])C([H])([H])C([H])([H])C([H])(n3nc(-c4c([H])c([H])c(Oc5c([H])c([H])c(F)c([H])c5F)c([H])c4[H])c(C(=O)N([H])[H])c3N([H])[H])C2([H])[H])c(C([H])([H])[H])c([H])c1C([H])([H])[H]

>  <smiles>  (80) 
[H]C(=C(C([H])([H])[H])C([H])([H])C([H])([H])Oc1c([H])c([H])c2c(c1[H])C([H])([H])N(C(=O)C([H])(N([H])C(=O)C([H])(N([H])C([H])([H])[H])C([H])([H])[H])C(C([H])([H])[H])(C([H])([H])[H])C([H])([H])[H])C([H])(C(=O)N([H])C1([H])c3c([H])c([H])c([H])c([H])c3C([H])([H])C([H])([H])C1([H])[H])C2([H])[H])C([H])([H])c1c([H])c(C(=O)N2C([H])([H])C([H])([H])C([H])([H])C([H])(n3nc(-c4c([H])c([H])c(Oc5c([H])c([H])c(F)c([H])c5F)c([H])c4[H])c(C(=O)N([H])[H])c3N([H])[H])C2([H])[H])c(C([H])([H])[H])c([H])c1C([H])([H])[H]

$$$$
80:0:0
     RDKit          3D

 93102  0  0  1  0  0  0  0  0999 V2000
  -27.7900  -20.2990   19.9990 C   0  0  0  0  0  2  0  0  0  0  0  0
  -29.0260  -19.9420   20.3750 C   0  0  0  0  0  3  0  0  0  0  0  0
  -27.4930  -21.7910   20.0580 C   0  0  0  0  0  2  0  0  0  0  0  0
  -29.7510  -21.2660   20.7340 C   0  0  0  0  0  2  0  0  0  0  0  0
  -28.6600  -22.4330   20.8450 C   0  0  2  0  0  0  0  0  0  0  0  0
  -28.2450  -22.5260   22.3310 C   0  0  0  0  0  1  0  0  0  0  0  0
  -29.8620  -17.3600   20.6900 C   0  0  0  0  0  3  0  0  0  0  0  0
  -29.9970  -18.6140   18.5970 C   0  0  0  0  0  3  0  0  0  0  0  0
  -29.6260  -18.5940   19.9510 C   0  0  0  0  0  0  0  0  0  0  0  0
  -30.5200  -16.2020   20.0880 C   0  0  0  0  0  0  0  0  0  0  0  0
  -31.0260  -16.4040   18.7580 C   0  0  0  0  0  0  0  0  0  0  0  0
  -30.7030  -17.5580   18.0190 C   0  0  0  0  0  0  0  0  0  0  0  0
  -32.0710  -15.5020   18.0960 C   0  0  0  0  0  1  0  0  0  0  0  0
  -31.1420  -17.6910   16.7450 F   0  0  0  0  0  0  0  0  0  0  0  0
  -30.9770  -14.9090   20.8300 C   0  0  0  0  0  0  0  0  0  0  0  0
  -30.7520  -12.5730   19.9850 C   0  0  0  0  0  2  0  0  0  0  0  0
  -29.9350  -12.5350   18.6730 C   0  0  0  0  0  2  0  0  0  0  0  0
  -28.4380  -12.3960   18.9900 C   0  0  0  0  0  2  0  0  0  0  0  0
  -27.9510  -13.3980   20.0700 C   0  0  0  0  0  3  0  0  0  0  0  0
  -28.9140  -13.4780   21.2740 C   0  0  0  0  0  2  0  0  0  0  0  0
  -30.2660  -13.7320   20.7650 N   0  0  0  0  0  0  0  0  0  0  0  0
  -32.1980  -14.8620   20.9680 O   0  0  0  0  0  0  0  0  0  0  0  0
  -25.5160  -14.0000   20.6090 C   0  0  0  0  0  0  0  0  0  0  0  0
  -24.4240  -13.2330   20.9050 C   0  0  0  0  0  0  0  0  0  0  0  0
  -24.8880  -11.8820   20.9560 C   0  0  0  0  0  0  0  0  0  0  0  0
  -26.5770  -13.1190   20.4810 N   0  0  0  0  0  0  0  0  0  0  0  0
  -26.2020  -11.8450   20.7630 N   0  0  0  0  0  0  0  0  0  0  0  0
  -24.1480  -10.6230   21.1170 C   0  0  0  0  0  0  0  0  0  0  0  0
  -24.5260   -9.6650   22.0840 C   0  0  0  0  0  3  0  0  0  0  0  0
  -23.7880   -8.4710   22.2350 C   0  0  0  0  0  3  0  0  0  0  0  0
  -22.6600   -8.2240   21.4190 C   0  0  0  0  0  0  0  0  0  0  0  0
  -22.3000   -9.1710   20.4440 C   0  0  0  0  0  3  0  0  0  0  0  0
  -23.0370  -10.3580   20.2900 C   0  0  0  0  0  3  0  0  0  0  0  0
  -21.8960   -7.0820   21.4790 O   0  0  0  0  0  0  0  0  0  0  0  0
  -21.8080   -6.3340   22.6260 C   0  0  0  0  0  0  0  0  0  0  0  0
  -21.3440   -6.8840   23.8400 C   0  0  0  0  0  3  0  0  0  0  0  0
  -21.2040   -6.0640   24.9770 C   0  0  0  0  0  3  0  0  0  0  0  0
  -21.5140   -4.6920   24.9010 C   0  0  0  0  0  0  0  0  0  0  0  0
  -21.9680   -4.1410   23.6890 C   0  0  0  0  0  3  0  0  0  0  0  0
  -22.1120   -4.9600   22.5550 C   0  0  0  0  0  0  0  0  0  0  0  0
  -22.5290   -4.4180   21.3860 F   0  0  0  0  0  0  0  0  0  0  0  0
  -21.3700   -3.9020   25.9900 F   0  0  0  0  0  0  0  0  0  0  0  0
  -23.0070  -13.7120   21.0360 C   0  0  0  0  0  0  0  0  0  0  0  0
  -22.2090  -13.0550   21.8700 N   0  0  0  0  0  0  0  0  0  0  0  0
  -22.6140  -14.7090   20.4300 O   0  0  0  0  0  0  0  0  0  0  0  0
  -22.5320  -12.2490   22.3850 H   0  0  0  0  0  0  0  0  0  0  0  0
  -21.2560  -13.3660   21.9950 H   0  0  0  0  0  0  0  0  0  0  0  0
  -25.6920  -15.3670   20.4080 N   0  0  0  0  0  0  0  0  0  0  0  0
  -24.9170  -16.0180   20.4400 H   0  0  0  0  0  0  0  0  0  0  0  0
  -26.5740  -15.8090   20.1840 H   0  0  0  0  0  0  0  0  0  0  0  0
  -29.0640  -23.9220   20.3500 C   0  0  0  0  0  3  0  0  0  0  0  0
  -27.9360  -25.0560   20.2140 C   0  0  0  0  0  3  0  0  0  0  0  0
  -28.2500  -26.5140   20.0640 O   0  0  0  0  0  0  0  0  0  0  0  0
  -24.6310  -31.9460   23.1970 C   0  0  0  0  0  0  0  0  0  0  0  0
  -27.1560  -27.4040   20.0350 C   0  0  0  0  0  0  0  0  0  0  0  0
  -23.3870  -30.5590   21.5800 C   0  0  0  0  0  3  0  0  0  0  0  0
  -24.8010  -29.0370   20.0920 C   0  0  0  0  0  0  0  0  0  0  0  0
  -25.9220  -30.8870   21.3270 C   0  0  0  0  0  2  0  0  0  0  0  0
  -25.9870  -29.5150   20.6650 C   0  0  0  0  0  0  0  0  0  0  0  0
  -27.1700  -28.7090   20.6230 C   0  0  0  0  0  3  0  0  0  0  0  0
  -25.9470  -27.0000   19.4220 C   0  0  0  0  0  3  0  0  0  0  0  0
  -24.7850  -27.7880   19.4590 C   0  0  0  0  0  3  0  0  0  0  0  0
  -23.5620  -29.9040   20.1870 C   0  0  0  0  0  2  0  0  0  0  0  0
  -24.6670  -31.1470   22.0910 N   0  0  0  0  0  0  0  0  0  0  0  0
  -23.5620  -32.2130   23.7660 O   0  0  0  0  0  0  0  0  0  0  0  0
  -22.7610  -29.5270   22.5500 C   0  0  0  0  0  0  0  0  0  0  0  0
  -21.4350  -29.3260   22.4470 N   0  0  0  0  0  0  0  0  0  0  0  0
  -23.4640  -28.9090   23.3530 O   0  0  0  0  0  0  0  0  0  0  0  0
  -20.9240  -29.8770   21.7710 H   0  0  0  0  0  0  0  0  0  0  0  0
  -18.0930  -28.0490   22.9790 C   0  0  0  0  0  0  0  0  0  0  0  0
  -20.6440  -28.3750   23.2310 C   0  0  0  0  0  3  0  0  0  0  0  0
  -20.7780  -26.9410   22.6670 C   0  0  0  0  0  2  0  0  0  0  0  0
  -19.6790  -26.5840   21.6620 C   0  0  0  0  0  2  0  0  0  0  0  0
  -18.2980  -26.7000   22.3110 C   0  0  0  0  0  2  0  0  0  0  0  0
  -19.1930  -28.8430   23.3950 C   0  0  0  0  0  0  0  0  0  0  0  0
  -18.9450  -30.1050   23.9780 C   0  0  0  0  0  3  0  0  0  0  0  0
  -17.6290  -30.5740   24.1480 C   0  0  0  0  0  3  0  0  0  0  0  0
  -16.5420  -29.7770   23.7480 C   0  0  0  0  0  3  0  0  0  0  0  0
  -16.7740  -28.5170   23.1690 C   0  0  0  0  0  3  0  0  0  0  0  0
  -25.9290  -32.5800   23.7870 C   0  0  0  0  0  3  0  0  0  0  0  0
  -26.4860  -31.7970   25.0390 C   0  0  1  0  0  0  0  0  0  0  0  0
  -25.4270  -31.5440   26.1350 C   0  0  0  0  0  1  0  0  0  0  0  0
  -27.0610  -30.4250   24.6140 C   0  0  0  0  0  1  0  0  0  0  0  0
  -27.6530  -32.5880   25.6760 C   0  0  0  0  0  1  0  0  0  0  0  0
  -25.6210  -33.9730   24.1450 N   0  0  0  0  0  0  0  0  0  0  0  0
  -25.9330  -35.0400   23.3970 C   0  0  0  0  0  0  0  0  0  0  0  0
  -26.5840  -34.9540   22.3510 O   0  0  0  0  0  0  0  0  0  0  0  0
  -25.0490  -34.1120   24.9650 H   0  0  0  0  0  0  0  0  0  0  0  0
  -24.2000  -36.8330   23.0940 C   0  0  0  0  0  1  0  0  0  0  0  0
  -25.4480  -36.4170   23.8850 C   0  0  0  0  0  3  0  0  0  0  0  0
  -27.5900  -37.2870   24.7130 C   0  0  0  0  0  1  0  0  0  0  0  0
  -26.4790  -37.4730   23.7840 N   0  0  0  0  0  0  0  0  0  0  0  0
  -26.0720  -38.3900   23.9560 H   0  0  0  0  0  0  0  0  0  0  0  0
  1  3  1  0
  1  2  1  0
  2  9  1  0
  2  4  1  0
  3  5  1  0
  4  5  1  0
  5  6  1  1
  8  9  1  0
  9  7  2  0
 10  7  1  0
 10 15  1  0
 11 10  2  0
 12  8  2  0
 12 11  1  0
 13 11  1  0
 14 12  1  0
 15 22  2  0
 16 21  1  0
 17 18  1  0
 17 16  1  0
 19 18  1  0
 19 26  1  0
 19 20  1  0
 21 15  1  0
 21 20  1  0
 23 24  2  0
 24 25  1  0
 24 43  1  0
 25 28  1  0
 26 23  1  0
 26 27  1  0
 27 25  2  0
 28 29  1  0
 29 30  2  0
 31 34  1  0
 31 30  1  0
 32 31  2  0
 33 32  1  0
 33 28  2  0
 34 35  1  0
 35 36  1  0
 36 37  2  0
 38 37  1  0
 38 42  1  0
 39 38  2  0
 40 35  2  0
 40 39  1  0
 41 40  1  0
 43 44  1  0
 44 47  1  0
 44 46  1  0
 45 43  2  0
 48 49  1  0
 48 23  1  0
 50 48  1  0
 51  5  1  0
 52 51  2  0
 53 52  1  0
 54 65  2  0
 55 53  1  0
 55 60  1  0
 56 64  1  0
 56 66  1  0
 57 63  1  0
 57 59  1  0
 58 64  1  0
 59 58  1  0
 60 59  2  0
 61 62  1  0
 61 55  2  0
 62 57  2  0
 63 56  1  0
 64 54  1  0
 66 68  2  0
 67 66  1  0
 69 67  1  0
 70 79  2  0
 70 75  1  0
 71 67  1  0
 71 75  1  0
 72 71  1  0
 73 74  1  0
 73 72  1  0
 74 70  1  0
 75 76  2  0
 76 77  1  0
 78 77  2  0
 79 78  1  0
 80 54  1  0
 80 85  1  0
 80 81  1  0
 81 84  1  1
 81 82  1  0
 83 81  1  0
 85 88  1  0
 86 90  1  0
 86 85  1  0
 87 86  2  0
 90 89  1  0
 92 90  1  0
 92 93  1  0
 92 91  1  0
M  ISO  4  10 100  15 100  52 101  53 101
M  END
>  <TORSDO>  (81) 
F 19

>  <SCORE>  (81) 
-13.819

>  <name>  (81) 
80

>  <ligand_id>  (81) 
80

>  <original_smiles>  (81) 
[H]C1=C(c2c([H])c(F)c(C([H])([H])[H])c(C(=O)N3C([H])([H])C([H])([H])C([H])([H])C([H])(n4nc(-c5c([H])c([H])c(Oc6c([H])c([H])c(F)c([H])c6F)c([H])c5[H])c(C(=O)N([H])[H])c4N([H])[H])C3([H])[H])c2[H])C([H])([H])C(C([H])([H])[H])(C([H])([H])C([H])([H])Oc2c([H])c([H])c3c(c2[H])C([H])([H])N(C(=O)C([H])(N([H])C(=O)C([H])(N([H])C([H])([H])[H])C([H])([H])[H])C(C([H])([H])[H])(C([H])([H])[H])C([H])([H])[H])C([H])(C(=O)N([H])C2([H])c4c([H])c([H])c([H])c([H])c4C([H])([H])C([H])([H])C2([H])[H])C3([H])[H])C1([H])[H]

>  <smiles>  (81) 
[H]C1=C(c2c([H])c(F)c(C([H])([H])[H])c(C(=O)N3C([H])([H])C([H])([H])C([H])([H])C([H])(n4nc(-c5c([H])c([H])c(Oc6c([H])c([H])c(F)c([H])c6F)c([H])c5[H])c(C(=O)N([H])[H])c4N([H])[H])C3([H])[H])c2[H])C([H])([H])C(C([H])([H])[H])(C([H])([H])C([H])([H])Oc2c([H])c([H])c3c(c2[H])C([H])([H])N(C(=O)C([H])(N([H])C(=O)C([H])(N([H])C([H])([H])[H])C([H])([H])[H])C(C([H])([H])[H])(C([H])([H])[H])C([H])([H])[H])C([H])(C(=O)N([H])C2([H])c4c([H])c([H])c([H])c([H])c4C([H])([H])C([H])([H])C2([H])[H])C3([H])[H])C1([H])[H]

$$$$
81:0:0
     RDKit          3D

 94102  0  0  1  0  0  0  0  0999 V2000
  -27.9520  -23.1370   17.9040 C   0  0  0  0  0  3  0  0  0  0  0  0
  -28.2730  -22.0230   18.7030 C   0  0  0  0  0  3  0  0  0  0  0  0
  -28.6080  -23.5860   20.5270 C   0  0  0  0  0  3  0  0  0  0  0  0
  -27.9670  -24.4840   18.3610 C   0  0  0  0  0  0  0  0  0  0  0  0
  -28.6700  -22.1630   20.0420 C   0  0  0  0  0  0  0  0  0  0  0  0
  -28.2190  -24.8070   19.7370 C   0  0  0  0  0  0  0  0  0  0  0  0
  -27.7960  -25.5400   17.3010 C   0  0  0  0  0  0  0  0  0  0  0  0
  -26.7280  -25.3990   16.5210 N   0  0  0  0  0  0  0  0  0  0  0  0
  -28.5820  -26.4770   17.1720 O   0  0  0  0  0  0  0  0  0  0  0  0
  -26.0990  -24.6230   16.6680 H   0  0  0  0  0  0  0  0  0  0  0  0
  -26.5330  -26.0670   15.7920 H   0  0  0  0  0  0  0  0  0  0  0  0
  -28.2400  -26.2330   20.1700 O   0  0  0  0  0  0  0  0  0  0  0  0
  -24.6370  -31.9610   23.2440 C   0  0  0  0  0  0  0  0  0  0  0  0
  -27.1620  -27.2160   20.1620 C   0  0  0  0  0  0  0  0  0  0  0  0
  -23.4110  -30.5590   21.6350 C   0  0  0  0  0  3  0  0  0  0  0  0
  -24.8300  -28.9800   20.1940 C   0  0  0  0  0  0  0  0  0  0  0  0
  -25.9640  -30.8230   21.4160 C   0  0  0  0  0  2  0  0  0  0  0  0
  -26.0300  -29.4280   20.7600 C   0  0  0  0  0  0  0  0  0  0  0  0
  -27.1970  -28.5680   20.7140 C   0  0  0  0  0  3  0  0  0  0  0  0
  -25.9070  -26.8580   19.6260 C   0  0  0  0  0  3  0  0  0  0  0  0
  -24.7810  -27.7060   19.6140 C   0  0  0  0  0  3  0  0  0  0  0  0
  -23.6070  -29.8800   20.2560 C   0  0  0  0  0  2  0  0  0  0  0  0
  -24.6930  -31.1370   22.1520 N   0  0  0  0  0  0  0  0  0  0  0  0
  -23.5590  -32.2420   23.7890 O   0  0  0  0  0  0  0  0  0  0  0  0
  -22.7520  -29.5520   22.6120 C   0  0  0  0  0  0  0  0  0  0  0  0
  -21.4310  -29.3370   22.4790 N   0  0  0  0  0  0  0  0  0  0  0  0
  -23.4340  -28.9640   23.4560 O   0  0  0  0  0  0  0  0  0  0  0  0
  -20.9350  -29.8620   21.7710 H   0  0  0  0  0  0  0  0  0  0  0  0
  -18.0900  -28.0150   22.9570 C   0  0  0  0  0  0  0  0  0  0  0  0
  -20.6310  -28.3930   23.2650 C   0  0  0  0  0  3  0  0  0  0  0  0
  -20.8030  -26.9480   22.7400 C   0  0  0  0  0  2  0  0  0  0  0  0
  -19.7360  -26.5470   21.7160 C   0  0  0  0  0  2  0  0  0  0  0  0
  -18.3360  -26.6540   22.3280 C   0  0  0  0  0  2  0  0  0  0  0  0
  -19.1680  -28.8370   23.3830 C   0  0  0  0  0  0  0  0  0  0  0  0
  -18.8840  -30.1050   23.9340 C   0  0  0  0  0  3  0  0  0  0  0  0
  -17.5560  -30.5550   24.0610 C   0  0  0  0  0  3  0  0  0  0  0  0
  -16.4930  -29.7320   23.6510 C   0  0  0  0  0  3  0  0  0  0  0  0
  -16.7600  -28.4640   23.1050 C   0  0  0  0  0  3  0  0  0  0  0  0
  -25.9210  -32.6050   23.8460 C   0  0  0  0  0  3  0  0  0  0  0  0
  -25.6120  -34.0080   24.1660 N   0  0  0  0  0  0  0  0  0  0  0  0
  -25.9510  -35.0590   23.4070 C   0  0  0  0  0  0  0  0  0  0  0  0
  -26.6230  -34.9500   22.3800 O   0  0  0  0  0  0  0  0  0  0  0  0
  -25.0130  -34.1660   24.9620 H   0  0  0  0  0  0  0  0  0  0  0  0
  -24.2550  -36.8800   23.0230 C   0  0  0  0  0  1  0  0  0  0  0  0
  -25.4700  -36.4530   23.8610 C   0  0  0  0  0  3  0  0  0  0  0  0
  -27.5910  -37.3120   24.7540 C   0  0  0  0  0  1  0  0  0  0  0  0
  -26.5190  -37.4940   23.7790 N   0  0  0  0  0  0  0  0  0  0  0  0
  -26.1190  -38.4190   23.9160 H   0  0  0  0  0  0  0  0  0  0  0  0
  -26.4470  -31.8530   25.1300 C   0  0  1  0  0  0  0  0  0  0  0  0
  -25.3610  -31.6300   26.2090 C   0  0  0  0  0  1  0  0  0  0  0  0
  -27.0310  -30.4710   24.7610 C   0  0  0  0  0  1  0  0  0  0  0  0
  -27.6000  -32.6600   25.7730 C   0  0  0  0  0  1  0  0  0  0  0  0
  -29.2390  -20.7820   20.7810 C   0  0  0  0  0  2  0  0  0  0  0  0
  -28.8680  -19.1580   20.3960 C   0  0  0  0  0  2  0  0  0  0  0  0
  -29.5480  -16.4090   20.5440 C   0  0  0  0  0  3  0  0  0  0  0  0
  -29.8440  -17.8090   20.4500 C   0  0  0  0  0  0  0  0  0  0  0  0
  -30.4430  -15.1260   20.4270 C   0  0  0  0  0  0  0  0  0  0  0  0
  -30.3760  -12.7700   19.4690 C   0  0  0  0  0  2  0  0  0  0  0  0
  -29.4540  -12.7390   18.2260 C   0  0  0  0  0  2  0  0  0  0  0  0
  -27.9890  -12.4950   18.6360 C   0  0  0  0  0  2  0  0  0  0  0  0
  -27.5590  -13.3840   19.8310 C   0  0  0  0  0  3  0  0  0  0  0  0
  -28.6070  -13.3960   20.9610 C   0  0  0  0  0  2  0  0  0  0  0  0
  -29.8790  -13.8450   20.3810 N   0  0  0  0  0  0  0  0  0  0  0  0
  -31.6550  -15.1720   20.1810 O   0  0  0  0  0  0  0  0  0  0  0  0
  -25.1710  -13.9020   20.5810 C   0  0  0  0  0  0  0  0  0  0  0  0
  -24.1200  -13.1000   20.9340 C   0  0  0  0  0  0  0  0  0  0  0  0
  -24.6110  -11.7600   20.8830 C   0  0  0  0  0  0  0  0  0  0  0  0
  -26.2290  -13.0460   20.3250 N   0  0  0  0  0  0  0  0  0  0  0  0
  -25.9020  -11.7520   20.5740 N   0  0  0  0  0  0  0  0  0  0  0  0
  -23.9050  -10.4810   21.0500 C   0  0  0  0  0  0  0  0  0  0  0  0
  -24.3400   -9.5140   21.9810 C   0  0  0  0  0  3  0  0  0  0  0  0
  -23.6350   -8.3000   22.1380 C   0  0  0  0  0  3  0  0  0  0  0  0
  -22.4810   -8.0470   21.3590 C   0  0  0  0  0  0  0  0  0  0  0  0
  -22.0650   -9.0020   20.4150 C   0  0  0  0  0  3  0  0  0  0  0  0
  -22.7720  -10.2060   20.2580 C   0  0  0  0  0  3  0  0  0  0  0  0
  -21.7470   -6.8860   21.4240 O   0  0  0  0  0  0  0  0  0  0  0  0
  -21.6690   -6.1470   22.5760 C   0  0  0  0  0  0  0  0  0  0  0  0
  -21.1450   -6.6820   23.7730 C   0  0  0  0  0  3  0  0  0  0  0  0
  -21.0220   -5.8650   24.9150 C   0  0  0  0  0  3  0  0  0  0  0  0
  -21.4120   -4.5130   24.8600 C   0  0  0  0  0  0  0  0  0  0  0  0
  -21.9280   -3.9760   23.6670 C   0  0  0  0  0  3  0  0  0  0  0  0
  -22.0550   -4.7920   22.5290 C   0  0  0  0  0  0  0  0  0  0  0  0
  -22.5330   -4.2640   21.3750 F   0  0  0  0  0  0  0  0  0  0  0  0
  -21.2850   -3.7250   25.9540 F   0  0  0  0  0  0  0  0  0  0  0  0
  -22.7140  -13.5470   21.2060 C   0  0  0  0  0  0  0  0  0  0  0  0
  -21.9880  -12.8160   22.0450 N   0  0  0  0  0  0  0  0  0  0  0  0
  -22.2650  -14.5800   20.7110 O   0  0  0  0  0  0  0  0  0  0  0  0
  -22.3630  -11.9820   22.4740 H   0  0  0  0  0  0  0  0  0  0  0  0
  -21.0430  -13.0980   22.2660 H   0  0  0  0  0  0  0  0  0  0  0  0
  -25.3070  -15.2780   20.4270 N   0  0  0  0  0  0  0  0  0  0  0  0
  -24.5240  -15.9110   20.5430 H   0  0  0  0  0  0  0  0  0  0  0  0
  -26.1430  -15.7390   20.0890 H   0  0  0  0  0  0  0  0  0  0  0  0
  -31.1100  -18.2270   20.3150 O   0  0  0  0  0  0  0  0  0  0  0  0
  -31.0900  -19.1650   20.1780 H   0  0  0  0  0  0  0  0  0  0  0  0
  1  4  2  0
  1  2  1  0
  2  5  2  0
  4  6  1  0
  5  3  1  0
  5 53  1  0
  6 12  1  0
  6  3  2  0
  7  4  1  0
  8 10  1  0
  8  7  1  0
  9  7  2  0
 11  8  1  0
 13 24  2  0
 14 12  1  0
 14 19  1  0
 15 23  1  0
 15 25  1  0
 16 22  1  0
 16 18  1  0
 17 23  1  0
 18 17  1  0
 19 18  2  0
 20 14  2  0
 21 20  1  0
 21 16  2  0
 22 15  1  0
 23 13  1  0
 25 27  2  0
 26 25  1  0
 28 26  1  0
 29 38  2  0
 29 34  1  0
 30 26  1  0
 30 34  1  0
 31 30  1  0
 32 33  1  0
 32 31  1  0
 33 29  1  0
 34 35  2  0
 35 36  1  0
 37 36  2  0
 38 37  1  0
 39 13  1  0
 39 40  1  0
 39 49  1  0
 40 43  1  0
 41 45  1  0
 41 40  1  0
 42 41  2  0
 45 44  1  0
 47 45  1  0
 47 48  1  0
 47 46  1  0
 49 52  1  1
 49 50  1  0
 51 49  1  0
 54 56  1  0
 54 53  1  0
 56 55  2  0
 57 55  1  0
 58 63  1  0
 59 60  1  0
 59 58  1  0
 61 60  1  0
 61 68  1  0
 61 62  1  0
 63 57  1  0
 63 62  1  0
 64 57  2  0
 65 66  2  0
 66 85  1  0
 67 66  1  0
 67 70  1  0
 68 69  1  0
 68 65  1  0
 69 67  2  0
 70 71  1  0
 71 72  2  0
 73 76  1  0
 73 72  1  0
 74 73  2  0
 75 74  1  0
 75 70  2  0
 76 77  1  0
 77 78  1  0
 78 79  2  0
 80 79  1  0
 80 84  1  0
 81 80  2  0
 82 77  2  0
 82 81  1  0
 83 82  1  0
 85 86  1  0
 86 89  1  0
 86 88  1  0
 87 85  2  0
 90 91  1  0
 90 65  1  0
 92 90  1  0
 93 56  1  0
 94 93  1  0
M  ISO  4   6 101  12 101  55 100  57 100
M  END
>  <TORSDO>  (82) 
F 21

>  <SCORE>  (82) 
-14.481

>  <name>  (82) 
81

>  <ligand_id>  (82) 
81

>  <original_smiles>  (82) 
[H]OC(=C([H])C(=O)N1C([H])([H])C([H])([H])C([H])([H])C([H])(n2nc(-c3c([H])c([H])c(Oc4c([H])c([H])c(F)c([H])c4F)c([H])c3[H])c(C(=O)N([H])[H])c2N([H])[H])C1([H])[H])C([H])([H])C([H])([H])c1c([H])c([H])c(C(=O)N([H])[H])c(Oc2c([H])c([H])c3c(c2[H])C([H])([H])N(C(=O)C([H])(N([H])C(=O)C([H])(N([H])C([H])([H])[H])C([H])([H])[H])C(C([H])([H])[H])(C([H])([H])[H])C([H])([H])[H])C([H])(C(=O)N([H])C2([H])c4c([H])c([H])c([H])c([H])c4C([H])([H])C([H])([H])C2([H])[H])C3([H])[H])c1[H]

>  <smiles>  (82) 
[H]OC(=C([H])C(=O)N1C([H])([H])C([H])([H])C([H])([H])C([H])(n2nc(-c3c([H])c([H])c(Oc4c([H])c([H])c(F)c([H])c4F)c([H])c3[H])c(C(=O)N([H])[H])c2N([H])[H])C1([H])[H])C([H])([H])C([H])([H])c1c([H])c([H])c(C(=O)N([H])[H])c(Oc2c([H])c([H])c3c(c2[H])C([H])([H])N(C(=O)C([H])(N([H])C(=O)C([H])(N([H])C([H])([H])[H])C([H])([H])[H])C(C([H])([H])[H])(C([H])([H])[H])C([H])([H])[H])C([H])(C(=O)N([H])C2([H])c4c([H])c([H])c([H])c([H])c4C([H])([H])C([H])([H])C2([H])[H])C3([H])[H])c1[H]

$$$$
82:0:0
     RDKit          3D

 90 98  0  0  1  0  0  0  0  0999 V2000
  -29.0450  -23.0000   17.7320 C   0  0  0  0  0  3  0  0  0  0  0  0
  -29.2850  -21.7600   18.3840 C   0  0  0  0  0  0  0  0  0  0  0  0
  -28.6170  -24.2130   18.3350 C   0  0  0  0  0  0  0  0  0  0  0  0
  -29.0320  -21.5630   19.7710 C   0  0  0  0  0  0  0  0  0  0  0  0
  -28.6370  -22.9440   20.4020 C   0  0  0  0  0  0  0  0  0  0  0  0
  -28.4080  -24.3440   19.7370 C   0  0  0  0  0  0  0  0  0  0  0  0
  -29.8580  -20.6640   17.4950 C   0  0  0  0  0  1  0  0  0  0  0  0
  -28.4820  -25.3950   17.3810 C   0  0  0  0  0  1  0  0  0  0  0  0
  -28.4980  -22.9330   21.9110 C   0  0  0  0  0  1  0  0  0  0  0  0
  -28.2420  -25.8010   20.2590 O   0  0  0  0  0  0  0  0  0  0  0  0
  -24.6390  -31.8210   23.1690 C   0  0  0  0  0  0  0  0  0  0  0  0
  -27.2150  -26.9030   20.1510 C   0  0  0  0  0  0  0  0  0  0  0  0
  -23.4470  -30.4160   21.5320 C   0  0  0  0  0  3  0  0  0  0  0  0
  -24.9030  -28.8000   20.1100 C   0  0  0  0  0  0  0  0  0  0  0  0
  -26.0180  -30.6160   21.3940 C   0  0  0  0  0  2  0  0  0  0  0  0
  -26.0880  -29.2010   20.7380 C   0  0  0  0  0  0  0  0  0  0  0  0
  -27.2300  -28.2700   20.7400 C   0  0  0  0  0  3  0  0  0  0  0  0
  -25.9910  -26.6640   19.4820 C   0  0  0  0  0  3  0  0  0  0  0  0
  -24.8810  -27.5530   19.4600 C   0  0  0  0  0  3  0  0  0  0  0  0
  -23.6780  -29.7210   20.1590 C   0  0  0  0  0  2  0  0  0  0  0  0
  -24.7240  -30.9800   22.0830 N   0  0  0  0  0  0  0  0  0  0  0  0
  -23.5490  -32.1150   23.6850 O   0  0  0  0  0  0  0  0  0  0  0  0
  -22.7510  -29.4270   22.5030 C   0  0  0  0  0  0  0  0  0  0  0  0
  -21.4170  -29.2800   22.3910 N   0  0  0  0  0  0  0  0  0  0  0  0
  -23.4160  -28.7960   23.3270 O   0  0  0  0  0  0  0  0  0  0  0  0
  -20.9330  -29.8450   21.7070 H   0  0  0  0  0  0  0  0  0  0  0  0
  -18.0280  -28.0950   22.9270 C   0  0  0  0  0  0  0  0  0  0  0  0
  -20.5930  -28.3450   23.1650 C   0  0  0  0  0  3  0  0  0  0  0  0
  -20.6770  -26.9140   22.5840 C   0  0  0  0  0  2  0  0  0  0  0  0
  -19.5630  -26.6050   21.5790 C   0  0  0  0  0  2  0  0  0  0  0  0
  -18.1890  -26.7500   22.2370 C   0  0  0  0  0  2  0  0  0  0  0  0
  -19.1570  -28.8510   23.3470 C   0  0  0  0  0  0  0  0  0  0  0  0
  -18.9460  -30.1070   23.9560 C   0  0  0  0  0  3  0  0  0  0  0  0
  -17.6450  -30.6080   24.1480 C   0  0  0  0  0  3  0  0  0  0  0  0
  -16.5340  -29.8520   23.7370 C   0  0  0  0  0  3  0  0  0  0  0  0
  -16.7250  -28.5960   23.1320 C   0  0  0  0  0  3  0  0  0  0  0  0
  -25.9070  -32.4660   23.8040 C   0  0  0  0  0  3  0  0  0  0  0  0
  -25.5820  -33.8640   24.1440 N   0  0  0  0  0  0  0  0  0  0  0  0
  -25.9170  -34.9320   23.4090 C   0  0  0  0  0  0  0  0  0  0  0  0
  -26.5930  -34.8430   22.3800 O   0  0  0  0  0  0  0  0  0  0  0  0
  -24.9750  -34.0070   24.9370 H   0  0  0  0  0  0  0  0  0  0  0  0
  -24.1880  -36.7390   23.0840 C   0  0  0  0  0  1  0  0  0  0  0  0
  -25.4290  -36.3170   23.8860 C   0  0  0  0  0  3  0  0  0  0  0  0
  -27.5580  -37.1970   24.7340 C   0  0  0  0  0  1  0  0  0  0  0  0
  -26.4590  -37.3750   23.7910 N   0  0  0  0  0  0  0  0  0  0  0  0
  -26.0490  -38.2910   23.9520 H   0  0  0  0  0  0  0  0  0  0  0  0
  -26.4110  -31.7020   25.0910 C   0  0  1  0  0  0  0  0  0  0  0  0
  -25.3090  -31.4720   26.1530 C   0  0  0  0  0  1  0  0  0  0  0  0
  -26.9910  -30.3180   24.7170 C   0  0  0  0  0  1  0  0  0  0  0  0
  -27.5580  -32.4980   25.7580 C   0  0  0  0  0  1  0  0  0  0  0  0
  -29.1420  -19.8970   20.4050 C   0  0  0  0  0  3  0  0  0  0  0  0
  -29.8980  -18.2980   19.8800 C   0  0  0  0  0  3  0  0  0  0  0  0
  -30.4070  -15.3480   20.1980 C   0  0  0  0  0  0  0  0  0  0  0  0
  -30.3570  -12.8690   19.3790 C   0  0  0  0  0  2  0  0  0  0  0  0
  -29.4490  -12.6650   18.1400 C   0  0  0  0  0  2  0  0  0  0  0  0
  -27.9950  -12.4100   18.5670 C   0  0  0  0  0  2  0  0  0  0  0  0
  -27.5440  -13.3590   19.7070 C   0  0  0  0  0  3  0  0  0  0  0  0
  -28.5980  -13.5300   20.8250 C   0  0  0  0  0  2  0  0  0  0  0  0
  -29.8250  -14.0390   20.1840 N   0  0  0  0  0  0  0  0  0  0  0  0
  -31.6220  -15.3080   19.9490 O   0  0  0  0  0  0  0  0  0  0  0  0
  -29.6810  -16.6600   20.2830 N   0  0  0  0  0  0  0  0  0  0  0  0
  -28.7180  -16.4880   20.5360 H   0  0  0  0  0  0  0  0  0  0  0  0
  -25.1710  -13.9020   20.4570 C   0  0  0  0  0  0  0  0  0  0  0  0
  -24.1120  -13.1230   20.8210 C   0  0  0  0  0  0  0  0  0  0  0  0
  -24.5810  -11.7720   20.7940 C   0  0  0  0  0  0  0  0  0  0  0  0
  -26.2170  -13.0310   20.2180 N   0  0  0  0  0  0  0  0  0  0  0  0
  -25.8770  -11.7430   20.4900 N   0  0  0  0  0  0  0  0  0  0  0  0
  -23.8530  -10.5110   20.9840 C   0  0  0  0  0  0  0  0  0  0  0  0
  -24.2790   -9.5480   21.9250 C   0  0  0  0  0  3  0  0  0  0  0  0
  -23.5470   -8.3560   22.1100 C   0  0  0  0  0  3  0  0  0  0  0  0
  -22.3780   -8.1160   21.3480 C   0  0  0  0  0  0  0  0  0  0  0  0
  -21.9710   -9.0670   20.3950 C   0  0  0  0  0  3  0  0  0  0  0  0
  -22.7020  -10.2530   20.2100 C   0  0  0  0  0  3  0  0  0  0  0  0
  -21.6200   -6.9760   21.4360 O   0  0  0  0  0  0  0  0  0  0  0  0
  -21.5580   -6.2390   22.5910 C   0  0  0  0  0  0  0  0  0  0  0  0
  -21.1240   -6.7990   23.8120 C   0  0  0  0  0  3  0  0  0  0  0  0
  -21.0150   -5.9900   24.9600 C   0  0  0  0  0  3  0  0  0  0  0  0
  -21.3290   -4.6200   24.8890 C   0  0  0  0  0  0  0  0  0  0  0  0
  -21.7510   -4.0560   23.6720 C   0  0  0  0  0  3  0  0  0  0  0  0
  -21.8630   -4.8650   22.5270 C   0  0  0  0  0  0  0  0  0  0  0  0
  -22.2550   -4.3130   21.3530 F   0  0  0  0  0  0  0  0  0  0  0  0
  -21.2140   -3.8390   25.9900 F   0  0  0  0  0  0  0  0  0  0  0  0
  -22.7140  -13.5960   21.0830 C   0  0  0  0  0  0  0  0  0  0  0  0
  -21.9860  -12.9020   21.9490 N   0  0  0  0  0  0  0  0  0  0  0  0
  -22.2800  -14.6200   20.5520 O   0  0  0  0  0  0  0  0  0  0  0  0
  -22.3560  -12.0760   22.3970 H   0  0  0  0  0  0  0  0  0  0  0  0
  -21.0470  -13.1980   22.1680 H   0  0  0  0  0  0  0  0  0  0  0  0
  -25.3270  -15.2750   20.2770 N   0  0  0  0  0  0  0  0  0  0  0  0
  -24.5520  -15.9190   20.3850 H   0  0  0  0  0  0  0  0  0  0  0  0
  -26.1610  -15.7140   19.9120 H   0  0  0  0  0  0  0  0  0  0  0  0
  1  3  2  0
  1  2  1  0
  2  4  2  0
  3  6  1  0
  4  5  1  0
  4 51  1  0
  5  9  1  0
  6 10  1  0
  6  5  2  0
  7  2  1  0
  8  3  1  0
 11 22  2  0
 12 10  1  0
 12 17  1  0
 13 21  1  0
 13 23  1  0
 14 20  1  0
 14 16  1  0
 15 21  1  0
 16 17  2  0
 16 15  1  0
 18 12  2  0
 19 18  1  0
 19 14  2  0
 20 13  1  0
 21 11  1  0
 23 25  2  0
 24 23  1  0
 26 24  1  0
 27 36  2  0
 27 32  1  0
 28 24  1  0
 28 32  1  0
 29 28  1  0
 30 31  1  0
 30 29  1  0
 31 27  1  0
 32 33  2  0
 33 34  1  0
 35 34  2  0
 36 35  1  0
 37 11  1  0
 37 38  1  0
 37 47  1  0
 38 41  1  0
 39 43  1  0
 39 38  1  0
 40 39  2  0
 43 42  1  0
 45 43  1  0
 45 46  1  0
 45 44  1  0
 47 50  1  1
 47 48  1  0
 49 47  1  0
 52 61  1  0
 52 51  2  0
 53 61  1  0
 54 59  1  0
 55 56  1  0
 55 54  1  0
 57 56  1  0
 57 66  1  0
 57 58  1  0
 59 53  1  0
 59 58  1  0
 60 53  2  0
 61 62  1  0
 63 64  2  0
 64 83  1  0
 65 64  1  0
 65 68  1  0
 66 63  1  0
 66 67  1  0
 67 65  2  0
 68 69  1  0
 69 70  2  0
 71 74  1  0
 71 70  1  0
 72 71  2  0
 73 72  1  0
 73 68  2  0
 74 75  1  0
 75 76  1  0
 76 77  2  0
 78 77  1  0
 78 82  1  0
 79 78  2  0
 80 75  2  0
 80 79  1  0
 81 80  1  0
 83 84  1  0
 84 87  1  0
 84 86  1  0
 85 83  2  0
 88 89  1  0
 88 63  1  0
 90 88  1  0
M  ISO  4   6 101  10 101  53 100  61 100
M  END
>  <TORSDO>  (83) 
F 18

>  <SCORE>  (83) 
-15.805

>  <name>  (83) 
82

>  <ligand_id>  (83) 
82

>  <original_smiles>  (83) 
[H]c1c([H])c([H])c2c(c1[H])C([H])([H])C([H])([H])C([H])([H])C2([H])N([H])C(=O)C1([H])N(C(=O)C([H])(N([H])C(=O)C([H])(N([H])C([H])([H])[H])C([H])([H])[H])C(C([H])([H])[H])(C([H])([H])[H])C([H])([H])[H])C([H])([H])c2c([H])c(Oc3c(C([H])([H])[H])c([H])c(C([H])([H])[H])c(C([H])([H])C([H])([H])N([H])C(=O)N4C([H])([H])C([H])([H])C([H])([H])C([H])(n5nc(-c6c([H])c([H])c(Oc7c([H])c([H])c(F)c([H])c7F)c([H])c6[H])c(C(=O)N([H])[H])c5N([H])[H])C4([H])[H])c3C([H])([H])[H])c([H])c([H])c2C1([H])[H]

>  <smiles>  (83) 
[H]c1c([H])c([H])c2c(c1[H])C([H])([H])C([H])([H])C([H])([H])C2([H])N([H])C(=O)C1([H])N(C(=O)C([H])(N([H])C(=O)C([H])(N([H])C([H])([H])[H])C([H])([H])[H])C(C([H])([H])[H])(C([H])([H])[H])C([H])([H])[H])C([H])([H])c2c([H])c(Oc3c(C([H])([H])[H])c([H])c(C([H])([H])[H])c(C([H])([H])C([H])([H])N([H])C(=O)N4C([H])([H])C([H])([H])C([H])([H])C([H])(n5nc(-c6c([H])c([H])c(Oc7c([H])c([H])c(F)c([H])c7F)c([H])c6[H])c(C(=O)N([H])[H])c5N([H])[H])C4([H])[H])c3C([H])([H])[H])c([H])c([H])c2C1([H])[H]

$$$$
83:0:0
     RDKit          3D

 92100  0  0  1  0  0  0  0  0999 V2000
  -30.2420  -22.5600   19.0350 C   0  0  0  0  0  3  0  0  0  0  0  0
  -29.1130  -22.3260   19.8460 C   0  0  0  0  0  0  0  0  0  0  0  0
  -30.6370  -23.8500   18.6070 C   0  0  0  0  0  0  0  0  0  0  0  0
  -28.3800  -23.5750   20.2380 C   0  0  0  0  0  0  0  0  0  0  0  0
  -29.8900  -25.0080   18.9640 C   0  0  0  0  0  0  0  0  0  0  0  0
  -28.7400  -24.9560   19.7990 C   0  0  0  0  0  0  0  0  0  0  0  0
  -27.1900  -23.4610   21.1690 C   0  0  0  0  0  1  0  0  0  0  0  0
  -31.9160  -23.2420   16.4500 C   0  0  0  0  0  1  0  0  0  0  0  0
  -31.9440  -23.9620   17.8090 C   0  0  0  0  0  2  0  0  0  0  0  0
  -30.3250  -26.2380   18.5540 O   0  0  0  0  0  0  0  0  0  0  0  0
  -31.1130  -26.1880   18.0250 H   0  0  0  0  0  0  0  0  0  0  0  0
  -28.3540  -26.2790   20.3130 O   0  0  0  0  0  0  0  0  0  0  0  0
  -24.6400  -31.8650   23.2090 C   0  0  0  0  0  0  0  0  0  0  0  0
  -27.2390  -27.1720   20.1520 C   0  0  0  0  0  0  0  0  0  0  0  0
  -23.4320  -30.4560   21.5800 C   0  0  0  0  0  3  0  0  0  0  0  0
  -24.8770  -28.8730   20.1450 C   0  0  0  0  0  0  0  0  0  0  0  0
  -25.9780  -30.7350   21.3930 C   0  0  0  0  0  2  0  0  0  0  0  0
  -26.0520  -29.3430   20.7400 C   0  0  0  0  0  0  0  0  0  0  0  0
  -27.2240  -28.5050   20.7290 C   0  0  0  0  0  3  0  0  0  0  0  0
  -26.0360  -26.7850   19.5250 C   0  0  0  0  0  3  0  0  0  0  0  0
  -24.8800  -27.6090   19.5210 C   0  0  0  0  0  3  0  0  0  0  0  0
  -23.6420  -29.7650   20.2040 C   0  0  0  0  0  2  0  0  0  0  0  0
  -24.7030  -31.0400   22.1170 N   0  0  0  0  0  0  0  0  0  0  0  0
  -23.5590  -32.1520   23.7440 O   0  0  0  0  0  0  0  0  0  0  0  0
  -22.7570  -29.4590   22.5560 C   0  0  0  0  0  0  0  0  0  0  0  0
  -21.4270  -29.2930   22.4380 N   0  0  0  0  0  0  0  0  0  0  0  0
  -23.4330  -28.8400   23.3800 O   0  0  0  0  0  0  0  0  0  0  0  0
  -20.9400  -29.8440   21.7440 H   0  0  0  0  0  0  0  0  0  0  0  0
  -18.0500  -28.0950   22.9560 C   0  0  0  0  0  0  0  0  0  0  0  0
  -20.6090  -28.3630   23.2170 C   0  0  0  0  0  3  0  0  0  0  0  0
  -20.7110  -26.9290   22.6520 C   0  0  0  0  0  2  0  0  0  0  0  0
  -19.6090  -26.5970   21.6400 C   0  0  0  0  0  2  0  0  0  0  0  0
  -18.2260  -26.7420   22.2860 C   0  0  0  0  0  2  0  0  0  0  0  0
  -19.1680  -28.8620   23.3780 C   0  0  0  0  0  0  0  0  0  0  0  0
  -18.9470  -30.1280   23.9650 C   0  0  0  0  0  3  0  0  0  0  0  0
  -17.6400  -30.6250   24.1330 C   0  0  0  0  0  3  0  0  0  0  0  0
  -16.5370  -29.8550   23.7300 C   0  0  0  0  0  3  0  0  0  0  0  0
  -16.7420  -28.5920   23.1470 C   0  0  0  0  0  3  0  0  0  0  0  0
  -25.9230  -32.5030   23.8280 C   0  0  0  0  0  3  0  0  0  0  0  0
  -25.6110  -33.9010   24.1690 N   0  0  0  0  0  0  0  0  0  0  0  0
  -25.9370  -34.9640   23.4170 C   0  0  0  0  0  0  0  0  0  0  0  0
  -26.5940  -34.8670   22.3780 O   0  0  0  0  0  0  0  0  0  0  0  0
  -25.0270  -34.0490   24.9780 H   0  0  0  0  0  0  0  0  0  0  0  0
  -24.1980  -36.7550   23.1020 C   0  0  0  0  0  1  0  0  0  0  0  0
  -25.4530  -36.3480   23.8920 C   0  0  0  0  0  3  0  0  0  0  0  0
  -27.6010  -37.2290   24.6920 C   0  0  0  0  0  1  0  0  0  0  0  0
  -26.4810  -37.4070   23.7710 N   0  0  0  0  0  0  0  0  0  0  0  0
  -26.0750  -38.3220   23.9440 H   0  0  0  0  0  0  0  0  0  0  0  0
  -26.4490  -31.7310   25.1020 C   0  0  1  0  0  0  0  0  0  0  0  0
  -25.3640  -31.4940   26.1800 C   0  0  0  0  0  1  0  0  0  0  0  0
  -27.0260  -30.3530   24.7090 C   0  0  0  0  0  1  0  0  0  0  0  0
  -27.6060  -32.5240   25.7550 C   0  0  0  0  0  1  0  0  0  0  0  0
  -28.7340  -20.7290   20.0970 C   0  0  0  0  0  2  0  0  0  0  0  0
  -29.7660  -19.4410   20.4770 C   0  0  0  0  0  2  0  0  0  0  0  0
  -29.6400  -17.8290   19.9560 C   0  0  0  0  0  2  0  0  0  0  0  0
  -29.8770  -16.3970   20.8310 C   0  0  0  0  0  2  0  0  0  0  0  0
  -30.5650  -14.9670   20.3240 C   0  0  0  0  0  0  0  0  0  0  0  0
  -30.4290  -12.6150   19.3700 C   0  0  0  0  0  2  0  0  0  0  0  0
  -29.4950  -12.6030   18.1370 C   0  0  0  0  0  2  0  0  0  0  0  0
  -28.0310  -12.4040   18.5650 C   0  0  0  0  0  2  0  0  0  0  0  0
  -27.6360  -13.3110   19.7580 C   0  0  0  0  0  3  0  0  0  0  0  0
  -28.6920  -13.2930   20.8840 C   0  0  0  0  0  2  0  0  0  0  0  0
  -29.9730  -13.6990   20.2910 N   0  0  0  0  0  0  0  0  0  0  0  0
  -31.7300  -15.0260   19.9190 O   0  0  0  0  0  0  0  0  0  0  0  0
  -25.2520  -13.8810   20.4930 C   0  0  0  0  0  0  0  0  0  0  0  0
  -24.1900  -13.1000   20.8590 C   0  0  0  0  0  0  0  0  0  0  0  0
  -24.6620  -11.7520   20.8350 C   0  0  0  0  0  0  0  0  0  0  0  0
  -26.2990  -13.0070   20.2560 N   0  0  0  0  0  0  0  0  0  0  0  0
  -25.9540  -11.7210   20.5270 N   0  0  0  0  0  0  0  0  0  0  0  0
  -23.9410  -10.4870   21.0310 C   0  0  0  0  0  0  0  0  0  0  0  0
  -24.3790   -9.5190   21.9640 C   0  0  0  0  0  3  0  0  0  0  0  0
  -23.6530   -8.3220   22.1470 C   0  0  0  0  0  3  0  0  0  0  0  0
  -22.4760   -8.0840   21.3970 C   0  0  0  0  0  0  0  0  0  0  0  0
  -22.0610   -9.0380   20.4510 C   0  0  0  0  0  3  0  0  0  0  0  0
  -22.7850  -10.2270   20.2660 C   0  0  0  0  0  3  0  0  0  0  0  0
  -21.7210   -6.9380   21.4890 O   0  0  0  0  0  0  0  0  0  0  0  0
  -21.6850   -6.1910   22.6390 C   0  0  0  0  0  0  0  0  0  0  0  0
  -21.2820   -6.7470   23.8720 C   0  0  0  0  0  3  0  0  0  0  0  0
  -21.1920   -5.9290   25.0170 C   0  0  0  0  0  3  0  0  0  0  0  0
  -21.4930   -4.5570   24.9260 C   0  0  0  0  0  0  0  0  0  0  0  0
  -21.8910   -4.0000   23.6950 C   0  0  0  0  0  3  0  0  0  0  0  0
  -21.9830   -4.8160   22.5540 C   0  0  0  0  0  0  0  0  0  0  0  0
  -22.3440   -4.2720   21.3690 F   0  0  0  0  0  0  0  0  0  0  0  0
  -21.3990   -3.7670   26.0200 F   0  0  0  0  0  0  0  0  0  0  0  0
  -22.7900  -13.5710   21.1220 C   0  0  0  0  0  0  0  0  0  0  0  0
  -22.0660  -12.8710   21.9860 N   0  0  0  0  0  0  0  0  0  0  0  0
  -22.3480  -14.5920   20.5960 O   0  0  0  0  0  0  0  0  0  0  0  0
  -22.4440  -12.0450   22.4260 H   0  0  0  0  0  0  0  0  0  0  0  0
  -21.1230  -13.1560   22.2060 H   0  0  0  0  0  0  0  0  0  0  0  0
  -25.4080  -15.2510   20.3150 N   0  0  0  0  0  0  0  0  0  0  0  0
  -24.6330  -15.8990   20.4170 H   0  0  0  0  0  0  0  0  0  0  0  0
  -26.2570  -15.6990   19.9940 H   0  0  0  0  0  0  0  0  0  0  0  0
  1  2  1  0
  2 53  1  0
  2  4  2  0
  3  5  1  0
  3  1  2  0
  4  7  1  0
  5  6  2  0
  6  4  1  0
  6 12  1  0
  8  9  1  0
  9  3  1  0
 10  5  1  0
 11 10  1  0
 13 24  2  0
 14 12  1  0
 14 19  1  0
 15 23  1  0
 15 25  1  0
 16 22  1  0
 16 18  1  0
 17 23  1  0
 18 17  1  0
 19 18  2  0
 20 14  2  0
 21 20  1  0
 21 16  2  0
 22 15  1  0
 23 13  1  0
 25 27  2  0
 26 25  1  0
 28 26  1  0
 29 38  2  0
 29 34  1  0
 30 26  1  0
 30 34  1  0
 31 30  1  0
 32 33  1  0
 32 31  1  0
 33 29  1  0
 34 35  2  0
 35 36  1  0
 37 36  2  0
 38 37  1  0
 39 13  1  0
 39 40  1  0
 39 49  1  0
 40 43  1  0
 41 45  1  0
 41 40  1  0
 42 41  2  0
 45 44  1  0
 47 45  1  0
 47 48  1  0
 47 46  1  0
 49 52  1  1
 49 50  1  0
 51 49  1  0
 53 54  1  0
 55 54  1  0
 55 56  1  0
 57 56  1  0
 58 63  1  0
 59 60  1  0
 59 58  1  0
 61 60  1  0
 61 68  1  0
 61 62  1  0
 63 57  1  0
 63 62  1  0
 64 57  2  0
 65 66  2  0
 66 85  1  0
 67 66  1  0
 67 70  1  0
 68 65  1  0
 68 69  1  0
 69 67  2  0
 70 71  1  0
 71 72  2  0
 73 76  1  0
 73 72  1  0
 74 73  2  0
 75 74  1  0
 75 70  2  0
 76 77  1  0
 77 78  1  0
 78 79  2  0
 80 79  1  0
 80 84  1  0
 81 80  2  0
 82 77  2  0
 82 81  1  0
 83 82  1  0
 85 86  1  0
 86 89  1  0
 86 88  1  0
 87 85  2  0
 90 91  1  0
 90 65  1  0
 92 90  1  0
M  ISO  4   6 101  12 101  56 100  57 100
M  END
>  <TORSDO>  (84) 
F 22

>  <SCORE>  (84) 
-14.356

>  <name>  (84) 
83

>  <ligand_id>  (84) 
83

>  <original_smiles>  (84) 
[H]Oc1c(Oc2c([H])c([H])c3c(c2[H])C([H])([H])N(C(=O)C([H])(N([H])C(=O)C([H])(N([H])C([H])([H])[H])C([H])([H])[H])C(C([H])([H])[H])(C([H])([H])[H])C([H])([H])[H])C([H])(C(=O)N([H])C2([H])c4c([H])c([H])c([H])c([H])c4C([H])([H])C([H])([H])C2([H])[H])C3([H])[H])c(C([H])([H])[H])c(C([H])([H])C([H])([H])C([H])([H])C([H])([H])C(=O)N2C([H])([H])C([H])([H])C([H])([H])C([H])(n3nc(-c4c([H])c([H])c(Oc5c([H])c([H])c(F)c([H])c5F)c([H])c4[H])c(C(=O)N([H])[H])c3N([H])[H])C2([H])[H])c([H])c1C([H])([H])C([H])([H])[H]

>  <smiles>  (84) 
[H]Oc1c(Oc2c([H])c([H])c3c(c2[H])C([H])([H])N(C(=O)C([H])(N([H])C(=O)C([H])(N([H])C([H])([H])[H])C([H])([H])[H])C(C([H])([H])[H])(C([H])([H])[H])C([H])([H])[H])C([H])(C(=O)N([H])C2([H])c4c([H])c([H])c([H])c([H])c4C([H])([H])C([H])([H])C2([H])[H])C3([H])[H])c(C([H])([H])[H])c(C([H])([H])C([H])([H])C([H])([H])C([H])([H])C(=O)N2C([H])([H])C([H])([H])C([H])([H])C([H])(n3nc(-c4c([H])c([H])c(Oc5c([H])c([H])c(F)c([H])c5F)c([H])c4[H])c(C(=O)N([H])[H])c3N([H])[H])C2([H])[H])c([H])c1C([H])([H])C([H])([H])[H]

$$$$
84:0:0
     RDKit          3D

 97106  0  0  1  0  0  0  0  0999 V2000
  -27.1820  -23.6930   21.9300 C   0  0  0  0  0  3  0  0  0  0  0  0
  -29.6810  -24.8980   22.0980 C   0  0  0  0  0  3  0  0  0  0  0  0
  -27.3330  -24.8410   22.7350 C   0  0  0  0  0  0  0  0  0  0  0  0
  -28.2450  -23.1300   21.1910 C   0  0  0  0  0  0  0  0  0  0  0  0
  -28.6110  -25.4920   22.8040 C   0  0  0  0  0  0  0  0  0  0  0  0
  -29.5310  -23.7090   21.3460 C   0  0  0  0  0  0  0  0  0  0  0  0
  -26.0670  -25.2880   23.4720 C   0  0  0  0  0  1  0  0  0  0  0  0
  -30.6580  -23.1300   20.8380 O   0  0  0  0  0  0  0  0  0  0  0  0
  -30.5320  -22.2120   20.6140 H   0  0  0  0  0  0  0  0  0  0  0  0
  -28.9200  -26.6480   23.5190 O   0  0  0  0  0  0  0  0  0  0  0  0
  -23.8610  -28.8140   27.9350 C   0  0  0  0  0  0  0  0  0  0  0  0
  -27.9350  -27.5780   23.7170 C   0  0  0  0  0  0  0  0  0  0  0  0
  -23.6060  -29.4990   25.5750 C   0  0  0  0  0  3  0  0  0  0  0  0
  -25.6710  -29.1950   24.1050 C   0  0  0  0  0  0  0  0  0  0  0  0
  -25.9320  -29.1500   26.5890 C   0  0  0  0  0  2  0  0  0  0  0  0
  -26.4120  -28.7570   25.2100 C   0  0  0  0  0  0  0  0  0  0  0  0
  -27.5610  -27.9620   25.0240 C   0  0  0  0  0  3  0  0  0  0  0  0
  -27.2230  -28.0750   22.6080 C   0  0  0  0  0  3  0  0  0  0  0  0
  -26.0740  -28.8610   22.8020 C   0  0  0  0  0  3  0  0  0  0  0  0
  -24.4430  -30.0330   24.3850 C   0  0  0  0  0  2  0  0  0  0  0  0
  -24.4580  -29.1170   26.7470 N   0  0  0  0  0  0  0  0  0  0  0  0
  -22.6320  -28.8930   28.0740 O   0  0  0  0  0  0  0  0  0  0  0  0
  -22.7090  -28.3480   25.0670 C   0  0  0  0  0  0  0  0  0  0  0  0
  -21.6540  -28.7020   24.3180 N   0  0  0  0  0  0  0  0  0  0  0  0
  -22.9840  -27.1760   25.3200 O   0  0  0  0  0  0  0  0  0  0  0  0
  -21.4550  -29.6950   24.2480 H   0  0  0  0  0  0  0  0  0  0  0  0
  -18.7990  -28.5860   22.1150 C   0  0  0  0  0  0  0  0  0  0  0  0
  -20.7070  -27.7860   23.6710 C   0  0  0  0  0  3  0  0  0  0  0  0
  -21.3210  -27.1100   22.4190 C   0  0  0  0  0  2  0  0  0  0  0  0
  -21.0260  -27.8510   21.1150 C   0  0  0  0  0  2  0  0  0  0  0  0
  -19.5180  -28.0580   20.8890 C   0  0  0  0  0  2  0  0  0  0  0  0
  -19.3630  -28.4760   23.4110 C   0  0  0  0  0  0  0  0  0  0  0  0
  -18.6770  -29.0430   24.5090 C   0  0  0  0  0  3  0  0  0  0  0  0
  -17.4370  -29.6920   24.3290 C   0  0  0  0  0  3  0  0  0  0  0  0
  -16.8760  -29.7740   23.0440 C   0  0  0  0  0  3  0  0  0  0  0  0
  -17.5530  -29.2240   21.9430 C   0  0  0  0  0  3  0  0  0  0  0  0
  -24.6880  -28.3860   29.1870 C   0  0  0  0  0  3  0  0  0  0  0  0
  -24.0450  -28.9750   30.3690 N   0  0  0  0  0  0  0  0  0  0  0  0
  -24.4800  -30.0700   31.0030 C   0  0  0  0  0  0  0  0  0  0  0  0
  -25.5200  -30.6550   30.6940 O   0  0  0  0  0  0  0  0  0  0  0  0
  -23.1580  -28.5810   30.6450 H   0  0  0  0  0  0  0  0  0  0  0  0
  -22.7870  -31.7940   31.7050 C   0  0  0  0  0  1  0  0  0  0  0  0
  -23.6280  -30.5950   32.1750 C   0  0  0  0  0  3  0  0  0  0  0  0
  -25.0570  -29.8540   34.0330 C   0  0  0  0  0  1  0  0  0  0  0  0
  -24.4250  -30.9860   33.3590 N   0  0  0  0  0  0  0  0  0  0  0  0
  -23.8490  -31.4830   34.0350 H   0  0  0  0  0  0  0  0  0  0  0  0
  -24.8160  -26.8210   29.3370 C   0  0  1  0  0  0  0  0  0  0  0  0
  -23.4670  -26.0710   29.2380 C   0  0  0  0  0  1  0  0  0  0  0  0
  -25.7600  -26.2430   28.2570 C   0  0  0  0  0  1  0  0  0  0  0  0
  -25.4460  -26.4740   30.7070 C   0  0  0  0  0  1  0  0  0  0  0  0
  -27.9010  -21.8670   20.3750 C   0  0  0  0  0  2  0  0  0  0  0  0
  -28.9620  -21.1240   19.5190 C   0  0  0  0  0  2  0  0  0  0  0  0
  -29.3910  -19.7810   20.1740 C   0  0  0  0  0  2  0  0  0  0  0  0
  -32.6320  -17.9710   19.8270 C   0  0  0  0  0  0  0  0  0  0  0  0
  -31.7430  -17.0170   20.1120 C   0  0  0  0  0  0  0  0  0  0  0  0
  -31.8980  -19.2810   19.5780 C   0  0  0  0  0  2  0  0  0  0  0  0
  -30.3100  -17.4530   20.0530 C   0  0  0  0  0  2  0  0  0  0  0  0
  -30.3940  -18.8720   19.4250 C   0  0  1  0  0  0  0  0  0  0  0  0
  -30.0040  -18.7560   17.9320 C   0  0  0  0  0  1  0  0  0  0  0  0
  -34.0870  -17.8370   19.9730 C   0  0  0  0  0  0  0  0  0  0  0  0
  -36.1980  -17.1150   18.8970 C   0  0  0  0  0  2  0  0  0  0  0  0
  -36.5580  -18.0810   17.7480 C   0  0  0  0  0  2  0  0  0  0  0  0
  -35.8710  -17.6480   16.4400 C   0  0  0  0  0  2  0  0  0  0  0  0
  -34.3550  -17.3770   16.6310 C   0  0  0  0  0  3  0  0  0  0  0  0
  -34.1080  -16.4630   17.8500 C   0  0  0  0  0  2  0  0  0  0  0  0
  -34.7310  -17.0910   19.0260 N   0  0  0  0  0  0  0  0  0  0  0  0
  -34.7100  -18.4080   20.8770 O   0  0  0  0  0  0  0  0  0  0  0  0
  -32.6360  -17.2580   14.7220 C   0  0  0  0  0  0  0  0  0  0  0  0
  -32.5390  -16.4390   13.6280 C   0  0  0  0  0  0  0  0  0  0  0  0
  -33.6420  -15.5390   13.7090 C   0  0  0  0  0  0  0  0  0  0  0  0
  -33.7550  -16.8260   15.4190 N   0  0  0  0  0  0  0  0  0  0  0  0
  -34.3300  -15.7500   14.8260 N   0  0  0  0  0  0  0  0  0  0  0  0
  -34.1180  -14.5220   12.7610 C   0  0  0  0  0  0  0  0  0  0  0  0
  -34.3700  -13.1930   13.1670 C   0  0  0  0  0  3  0  0  0  0  0  0
  -34.8110  -12.2320   12.2300 C   0  0  0  0  0  3  0  0  0  0  0  0
  -35.0000  -12.5960   10.8760 C   0  0  0  0  0  0  0  0  0  0  0  0
  -34.7680  -13.9250   10.4850 C   0  0  0  0  0  3  0  0  0  0  0  0
  -34.3350  -14.8810   11.4170 C   0  0  0  0  0  3  0  0  0  0  0  0
  -35.4460  -11.7360    9.9010 O   0  0  0  0  0  0  0  0  0  0  0  0
  -35.2830  -10.3780   10.0100 C   0  0  0  0  0  0  0  0  0  0  0  0
  -34.0180   -9.7940   10.2380 C   0  0  0  0  0  3  0  0  0  0  0  0
  -33.8850   -8.3910   10.2730 C   0  0  0  0  0  3  0  0  0  0  0  0
  -35.0120   -7.5720   10.0720 C   0  0  0  0  0  0  0  0  0  0  0  0
  -36.2740   -8.1500    9.8420 C   0  0  0  0  0  3  0  0  0  0  0  0
  -36.4080   -9.5500    9.8090 C   0  0  0  0  0  0  0  0  0  0  0  0
  -37.6200  -10.1020    9.5640 F   0  0  0  0  0  0  0  0  0  0  0  0
  -34.8860   -6.2250   10.1000 F   0  0  0  0  0  0  0  0  0  0  0  0
  -31.5350  -16.5530   12.5180 C   0  0  0  0  0  0  0  0  0  0  0  0
  -31.1900  -15.4310   11.8910 N   0  0  0  0  0  0  0  0  0  0  0  0
  -31.0120  -17.6280   12.2300 O   0  0  0  0  0  0  0  0  0  0  0  0
  -31.6050  -14.5470   12.1380 H   0  0  0  0  0  0  0  0  0  0  0  0
  -30.5050  -15.4580   11.1500 H   0  0  0  0  0  0  0  0  0  0  0  0
  -31.8830  -18.3360   15.1620 N   0  0  0  0  0  0  0  0  0  0  0  0
  -31.0720  -18.6720   14.6530 H   0  0  0  0  0  0  0  0  0  0  0  0
  -32.0710  -18.8710   16.0020 H   0  0  0  0  0  0  0  0  0  0  0  0
  -31.9300  -15.7570   20.5190 O   0  0  0  0  0  0  0  0  0  0  0  0
  -31.0760  -15.4140   20.7600 H   0  0  0  0  0  0  0  0  0  0  0  0
  1  3  1  0
  2  5  1  0
  3  5  2  0
  3  7  1  0
  4  6  1  0
  4  1  2  0
  5 10  1  0
  6  2  2  0
  8  6  1  0
  9  8  1  0
 10 12  1  0
 11 22  2  0
 12 17  1  0
 13 23  1  0
 13 21  1  0
 14 20  1  0
 14 16  1  0
 15 21  1  0
 16 15  1  0
 17 16  2  0
 18 19  1  0
 18 12  2  0
 19 14  2  0
 20 13  1  0
 21 11  1  0
 23 25  2  0
 24 23  1  0
 26 24  1  0
 27 32  1  0
 28 24  1  0
 29 28  1  0
 30 29  1  0
 31 30  1  0
 31 27  1  0
 32 28  1  0
 32 33  2  0
 34 33  1  0
 35 34  2  0
 36 27  2  0
 36 35  1  0
 37 11  1  0
 37 47  1  0
 37 38  1  0
 38 41  1  0
 38 39  1  0
 39 43  1  0
 40 39  2  0
 43 42  1  0
 43 45  1  0
 45 44  1  0
 45 46  1  0
 47 50  1  1
 48 47  1  0
 49 47  1  0
 51  4  1  0
 52 53  1  0
 52 51  1  0
 54 60  1  0
 54 55  2  0
 55 96  1  0
 56 54  1  0
 57 55  1  0
 58 59  1  6
 58 56  1  0
 58 57  1  0
 58 53  1  0
 60 67  2  0
 61 66  1  0
 62 61  1  0
 63 64  1  0
 63 62  1  0
 64 71  1  0
 64 65  1  0
 65 66  1  0
 66 60  1  0
 68 93  1  0
 68 71  1  0
 69 70  1  0
 69 68  2  0
 70 72  2  0
 72 71  1  0
 73 74  1  0
 73 70  1  0
 75 74  2  0
 76 75  1  0
 77 76  2  0
 77 78  1  0
 78 73  2  0
 79 80  1  0
 79 76  1  0
 80 81  1  0
 81 82  2  0
 83 87  1  0
 83 82  1  0
 84 83  2  0
 85 84  1  0
 85 80  2  0
 86 85  1  0
 88 69  1  0
 89 91  1  0
 89 88  1  0
 90 88  2  0
 92 89  1  0
 93 95  1  0
 94 93  1  0
 96 97  1  0
M  ISO  4   5 101  10 101  54 100  60 100
M  END
>  <TORSDO>  (85) 
F 22

>  <SCORE>  (85) 
1.575

>  <name>  (85) 
84

>  <ligand_id>  (85) 
84

>  <original_smiles>  (85) 
[H]OC1=C(C(=O)N2C([H])([H])C([H])([H])C([H])([H])C([H])(n3nc(-c4c([H])c([H])c(Oc5c([H])c([H])c(F)c([H])c5F)c([H])c4[H])c(C(=O)N([H])[H])c3N([H])[H])C2([H])[H])C([H])([H])C(C([H])([H])[H])(C([H])([H])C([H])([H])C([H])([H])c2c([H])c(C([H])([H])[H])c(Oc3c([H])c([H])c4c(c3[H])C([H])([H])N(C(=O)C([H])(N([H])C(=O)C([H])(N([H])C([H])([H])[H])C([H])([H])[H])C(C([H])([H])[H])(C([H])([H])[H])C([H])([H])[H])C([H])(C(=O)N([H])C3([H])c5c([H])c([H])c([H])c([H])c5C([H])([H])C([H])([H])C3([H])[H])C4([H])[H])c([H])c2O[H])C1([H])[H]

>  <smiles>  (85) 
[H]OC1=C(C(=O)N2C([H])([H])C([H])([H])C([H])([H])C([H])(n3nc(-c4c([H])c([H])c(Oc5c([H])c([H])c(F)c([H])c5F)c([H])c4[H])c(C(=O)N([H])[H])c3N([H])[H])C2([H])[H])C([H])([H])C(C([H])([H])[H])(C([H])([H])C([H])([H])C([H])([H])c2c([H])c(C([H])([H])[H])c(Oc3c([H])c([H])c4c(c3[H])C([H])([H])N(C(=O)C([H])(N([H])C(=O)C([H])(N([H])C([H])([H])[H])C([H])([H])[H])C(C([H])([H])[H])(C([H])([H])[H])C([H])([H])[H])C([H])(C(=O)N([H])C3([H])c5c([H])c([H])c([H])c([H])c5C([H])([H])C([H])([H])C3([H])[H])C4([H])[H])c([H])c2O[H])C1([H])[H]

$$$$
85:0:0
     RDKit          3D

 92100  0  0  1  0  0  0  0  0999 V2000
  -27.5610  -24.2150   17.2030 C   0  0  0  0  0  3  0  0  0  0  0  0
  -27.9100  -22.5680   18.9000 C   0  0  0  0  0  3  0  0  0  0  0  0
  -28.1080  -25.2060   18.0390 C   0  0  0  0  0  0  0  0  0  0  0  0
  -28.5160  -23.4920   19.7820 C   0  0  0  0  0  0  0  0  0  0  0  0
  -27.3640  -22.9140   17.6570 C   0  0  0  0  0  0  0  0  0  0  0  0
  -28.3770  -24.9870   19.4320 C   0  0  0  0  0  0  0  0  0  0  0  0
  -28.4000  -26.5420   17.3560 C   0  0  0  0  0  1  0  0  0  0  0  0
  -26.1810  -20.8510   17.4220 C   0  0  0  0  0  1  0  0  0  0  0  0
  -26.7280  -22.0220   16.8230 O   0  0  0  0  0  0  0  0  0  0  0  0
  -28.4720  -26.2860   20.1470 O   0  0  0  0  0  0  0  0  0  0  0  0
  -24.8190  -31.9600   23.3570 C   0  0  0  0  0  0  0  0  0  0  0  0
  -27.4130  -27.3010   20.1730 C   0  0  0  0  0  0  0  0  0  0  0  0
  -23.6170  -30.5930   21.7010 C   0  0  0  0  0  3  0  0  0  0  0  0
  -25.0660  -29.0580   20.2330 C   0  0  0  0  0  0  0  0  0  0  0  0
  -26.1740  -30.8710   21.5190 C   0  0  0  0  0  2  0  0  0  0  0  0
  -26.2580  -29.4910   20.8300 C   0  0  0  0  0  0  0  0  0  0  0  0
  -27.4320  -28.6320   20.7800 C   0  0  0  0  0  3  0  0  0  0  0  0
  -26.1650  -26.9650   19.6000 C   0  0  0  0  0  3  0  0  0  0  0  0
  -25.0330  -27.8070   19.6050 C   0  0  0  0  0  3  0  0  0  0  0  0
  -23.8330  -29.9450   20.3080 C   0  0  0  0  0  2  0  0  0  0  0  0
  -24.8920  -31.1600   22.2480 N   0  0  0  0  0  0  0  0  0  0  0  0
  -23.7320  -32.2240   23.8990 O   0  0  0  0  0  0  0  0  0  0  0  0
  -22.9500  -29.5620   22.6450 C   0  0  0  0  0  0  0  0  0  0  0  0
  -21.6270  -29.3610   22.5050 N   0  0  0  0  0  0  0  0  0  0  0  0
  -23.6270  -28.9390   23.4680 O   0  0  0  0  0  0  0  0  0  0  0  0
  -21.1360  -29.9080   21.8110 H   0  0  0  0  0  0  0  0  0  0  0  0
  -18.2750  -28.0530   22.9360 C   0  0  0  0  0  0  0  0  0  0  0  0
  -20.8190  -28.4000   23.2580 C   0  0  0  0  0  3  0  0  0  0  0  0
  -20.9790  -26.9720   22.6830 C   0  0  0  0  0  2  0  0  0  0  0  0
  -19.9100  -26.6160   21.6460 C   0  0  0  0  0  2  0  0  0  0  0  0
  -18.5110  -26.7120   22.2610 C   0  0  0  0  0  2  0  0  0  0  0  0
  -19.3590  -28.8520   23.3890 C   0  0  0  0  0  0  0  0  0  0  0  0
  -19.0840  -30.1050   23.9810 C   0  0  0  0  0  3  0  0  0  0  0  0
  -17.7590  -30.5580   24.1230 C   0  0  0  0  0  3  0  0  0  0  0  0
  -16.6910  -29.7580   23.6840 C   0  0  0  0  0  3  0  0  0  0  0  0
  -16.9490  -28.5060   23.0970 C   0  0  0  0  0  3  0  0  0  0  0  0
  -26.0940  -32.5920   23.9910 C   0  0  0  0  0  3  0  0  0  0  0  0
  -25.7580  -33.9650   24.3980 N   0  0  0  0  0  0  0  0  0  0  0  0
  -26.0770  -35.0660   23.7050 C   0  0  0  0  0  0  0  0  0  0  0  0
  -26.7500  -35.0320   22.6710 O   0  0  0  0  0  0  0  0  0  0  0  0
  -25.1580  -34.0640   25.2040 H   0  0  0  0  0  0  0  0  0  0  0  0
  -24.3330  -36.8610   23.4410 C   0  0  0  0  0  1  0  0  0  0  0  0
  -25.5710  -36.4210   24.2410 C   0  0  0  0  0  3  0  0  0  0  0  0
  -27.6890  -37.2700   25.1460 C   0  0  0  0  0  1  0  0  0  0  0  0
  -26.5940  -37.4900   24.2060 N   0  0  0  0  0  0  0  0  0  0  0  0
  -26.1760  -38.3940   24.4120 H   0  0  0  0  0  0  0  0  0  0  0  0
  -26.6410  -31.7730   25.2230 C   0  0  1  0  0  0  0  0  0  0  0  0
  -25.5690  -31.4740   26.2960 C   0  0  0  0  0  1  0  0  0  0  0  0
  -27.2380  -30.4220   24.7660 C   0  0  0  0  0  1  0  0  0  0  0  0
  -27.7890  -32.5540   25.9030 C   0  0  0  0  0  1  0  0  0  0  0  0
  -29.3530  -22.5750   20.8580 C   0  0  0  0  0  2  0  0  0  0  0  0
  -29.1860  -20.8830   21.1880 C   0  0  0  0  0  2  0  0  0  0  0  0
  -29.7280  -19.4150   20.4860 C   0  0  0  0  0  2  0  0  0  0  0  0
  -30.2130  -17.9870   21.3030 C   0  0  0  0  0  2  0  0  0  0  0  0
  -30.7800  -15.2580   20.8940 C   0  0  0  0  0  0  0  0  0  0  0  0
  -30.7740  -12.8780   19.9790 C   0  0  0  0  0  2  0  0  0  0  0  0
  -29.9420  -12.7670   18.6800 C   0  0  0  0  0  2  0  0  0  0  0  0
  -28.4550  -12.5320   19.0060 C   0  0  0  0  0  2  0  0  0  0  0  0
  -27.9380  -13.4940   20.1040 C   0  0  0  0  0  3  0  0  0  0  0  0
  -28.8950  -13.5600   21.3110 C   0  0  0  0  0  2  0  0  0  0  0  0
  -30.2000  -13.9910   20.7920 N   0  0  0  0  0  0  0  0  0  0  0  0
  -32.0110  -15.3170   20.7770 O   0  0  0  0  0  0  0  0  0  0  0  0
  -29.9820  -16.4470   20.9290 N   0  0  0  0  0  0  0  0  0  0  0  0
  -29.0010  -16.2130   20.8820 H   0  0  0  0  0  0  0  0  0  0  0  0
  -25.5030  -14.0720   20.6310 C   0  0  0  0  0  0  0  0  0  0  0  0
  -24.4160  -13.2970   20.9280 C   0  0  0  0  0  0  0  0  0  0  0  0
  -24.8900  -11.9500   20.9690 C   0  0  0  0  0  0  0  0  0  0  0  0
  -26.5670  -13.1970   20.4980 N   0  0  0  0  0  0  0  0  0  0  0  0
  -26.2030  -11.9170   20.7710 N   0  0  0  0  0  0  0  0  0  0  0  0
  -24.1580  -10.6860   21.1250 C   0  0  0  0  0  0  0  0  0  0  0  0
  -24.5260   -9.7370   22.1050 C   0  0  0  0  0  3  0  0  0  0  0  0
  -23.7940   -8.5380   22.2500 C   0  0  0  0  0  3  0  0  0  0  0  0
  -22.6820   -8.2800   21.4140 C   0  0  0  0  0  0  0  0  0  0  0  0
  -22.3350   -9.2170   20.4250 C   0  0  0  0  0  3  0  0  0  0  0  0
  -23.0680  -10.4080   20.2780 C   0  0  0  0  0  3  0  0  0  0  0  0
  -21.9290   -7.1320   21.4640 O   0  0  0  0  0  0  0  0  0  0  0  0
  -21.8010   -6.4060   22.6220 C   0  0  0  0  0  0  0  0  0  0  0  0
  -21.2910   -6.9790   23.8080 C   0  0  0  0  0  3  0  0  0  0  0  0
  -21.1110   -6.1800   24.9550 C   0  0  0  0  0  3  0  0  0  0  0  0
  -21.4290   -4.8090   24.9160 C   0  0  0  0  0  0  0  0  0  0  0  0
  -21.9330   -4.2370   23.7350 C   0  0  0  0  0  3  0  0  0  0  0  0
  -22.1150   -5.0330   22.5900 C   0  0  0  0  0  0  0  0  0  0  0  0
  -22.5800   -4.4720   21.4480 F   0  0  0  0  0  0  0  0  0  0  0  0
  -21.2490   -4.0410   26.0150 F   0  0  0  0  0  0  0  0  0  0  0  0
  -22.9980  -13.7680   21.0660 C   0  0  0  0  0  0  0  0  0  0  0  0
  -22.2050  -13.0910   21.8870 N   0  0  0  0  0  0  0  0  0  0  0  0
  -22.5990  -14.7740   20.4800 O   0  0  0  0  0  0  0  0  0  0  0  0
  -22.5410  -12.2790   22.3850 H   0  0  0  0  0  0  0  0  0  0  0  0
  -21.2490  -13.3870   22.0220 H   0  0  0  0  0  0  0  0  0  0  0  0
  -25.6710  -15.4400   20.4320 N   0  0  0  0  0  0  0  0  0  0  0  0
  -24.8900  -16.0850   20.4510 H   0  0  0  0  0  0  0  0  0  0  0  0
  -26.5350  -15.8740   20.1340 H   0  0  0  0  0  0  0  0  0  0  0  0
  1  5  2  0
  1  3  1  0
  2  4  2  0
  3  6  2  0
  4 51  1  0
  5  2  1  0
  6  4  1  0
  6 10  1  0
  7  3  1  0
  9  8  1  0
  9  5  1  0
 10 12  1  0
 11 22  2  0
 12 17  1  0
 13 21  1  0
 13 23  1  0
 14 20  1  0
 14 16  1  0
 15 21  1  0
 16 15  1  0
 17 16  2  0
 18 19  1  0
 18 12  2  0
 19 14  2  0
 20 13  1  0
 21 11  1  0
 23 25  2  0
 24 23  1  0
 26 24  1  0
 27 36  2  0
 27 32  1  0
 28 24  1  0
 28 32  1  0
 29 28  1  0
 30 31  1  0
 30 29  1  0
 31 27  1  0
 32 33  2  0
 33 34  1  0
 35 34  2  0
 36 35  1  0
 37 11  1  0
 37 38  1  0
 37 47  1  0
 38 41  1  0
 39 43  1  0
 39 38  1  0
 40 39  2  0
 43 42  1  0
 45 43  1  0
 45 46  1  0
 45 44  1  0
 47 50  1  1
 47 48  1  0
 49 47  1  0
 51 52  1  0
 53 52  1  0
 53 54  1  0
 55 63  1  0
 56 61  1  0
 57 58  1  0
 57 56  1  0
 59 58  1  0
 59 68  1  0
 59 60  1  0
 61 55  1  0
 61 60  1  0
 62 55  2  0
 63 54  1  0
 64 63  1  0
 65 66  2  0
 66 67  1  0
 66 85  1  0
 67 70  1  0
 68 65  1  0
 68 69  1  0
 69 67  2  0
 70 71  1  0
 71 72  2  0
 73 76  1  0
 73 72  1  0
 74 73  2  0
 75 74  1  0
 75 70  2  0
 76 77  1  0
 77 78  1  0
 78 79  2  0
 80 79  1  0
 80 84  1  0
 81 80  2  0
 82 77  2  0
 82 81  1  0
 83 82  1  0
 85 86  1  0
 86 89  1  0
 86 88  1  0
 87 85  2  0
 90 91  1  0
 90 65  1  0
 92 90  1  0
M  ISO  4   6 101  10 101  55 100  63 100
M  END
>  <TORSDO>  (86) 
F 21

>  <SCORE>  (86) 
-13.754

>  <name>  (86) 
85

>  <ligand_id>  (86) 
85

>  <original_smiles>  (86) 
[H]c1c([H])c([H])c2c(c1[H])C([H])([H])C([H])([H])C([H])([H])C2([H])N([H])C(=O)C1([H])N(C(=O)C([H])(N([H])C(=O)C([H])(N([H])C([H])([H])[H])C([H])([H])[H])C(C([H])([H])[H])(C([H])([H])[H])C([H])([H])[H])C([H])([H])c2c([H])c(Oc3c(C([H])([H])[H])c([H])c(OC([H])([H])[H])c([H])c3C([H])([H])C([H])([H])C([H])([H])C([H])([H])N([H])C(=O)N3C([H])([H])C([H])([H])C([H])([H])C([H])(n4nc(-c5c([H])c([H])c(Oc6c([H])c([H])c(F)c([H])c6F)c([H])c5[H])c(C(=O)N([H])[H])c4N([H])[H])C3([H])[H])c([H])c([H])c2C1([H])[H]

>  <smiles>  (86) 
[H]c1c([H])c([H])c2c(c1[H])C([H])([H])C([H])([H])C([H])([H])C2([H])N([H])C(=O)C1([H])N(C(=O)C([H])(N([H])C(=O)C([H])(N([H])C([H])([H])[H])C([H])([H])[H])C(C([H])([H])[H])(C([H])([H])[H])C([H])([H])[H])C([H])([H])c2c([H])c(Oc3c(C([H])([H])[H])c([H])c(OC([H])([H])[H])c([H])c3C([H])([H])C([H])([H])C([H])([H])C([H])([H])N([H])C(=O)N3C([H])([H])C([H])([H])C([H])([H])C([H])(n4nc(-c5c([H])c([H])c(Oc6c([H])c([H])c(F)c([H])c6F)c([H])c5[H])c(C(=O)N([H])[H])c4N([H])[H])C3([H])[H])c([H])c([H])c2C1([H])[H]

$$$$
86:0:0
     RDKit          3D

 91 99  0  0  1  0  0  0  0  0999 V2000
  -28.9200  -22.8010   21.3750 C   0  0  0  0  0  3  0  0  0  0  0  0
  -28.8410  -22.7790   19.0030 C   0  0  0  0  0  3  0  0  0  0  0  0
  -29.1010  -22.0230   20.1890 C   0  0  0  0  0  0  0  0  0  0  0  0
  -28.5810  -24.2120   21.3720 C   0  0  0  0  0  0  0  0  0  0  0  0
  -28.5160  -24.1850   18.9880 C   0  0  0  0  0  0  0  0  0  0  0  0
  -28.3890  -24.9770   20.1740 C   0  0  0  0  0  0  0  0  0  0  0  0
  -28.4990  -24.9420   22.6980 C   0  0  0  0  0  1  0  0  0  0  0  0
  -28.3950  -24.8240   17.7550 N   0  0  0  0  0  0  0  0  0  0  0  0
  -28.8460  -24.4010   16.9520 H   0  0  0  0  0  0  0  0  0  0  0  0
  -28.4700  -25.8370   17.7610 H   0  0  0  0  0  0  0  0  0  0  0  0
  -28.3490  -26.4240   20.1490 O   0  0  0  0  0  0  0  0  0  0  0  0
  -24.6290  -31.8920   23.2280 C   0  0  0  0  0  0  0  0  0  0  0  0
  -27.2100  -27.2690   20.1620 C   0  0  0  0  0  0  0  0  0  0  0  0
  -23.4150  -30.5000   21.5900 C   0  0  0  0  0  3  0  0  0  0  0  0
  -24.8540  -28.9300   20.1570 C   0  0  0  0  0  0  0  0  0  0  0  0
  -25.9580  -30.7930   21.4000 C   0  0  0  0  0  2  0  0  0  0  0  0
  -26.0280  -29.4060   20.7540 C   0  0  0  0  0  0  0  0  0  0  0  0
  -27.2050  -28.5880   20.7440 C   0  0  0  0  0  3  0  0  0  0  0  0
  -26.0120  -26.8590   19.5420 C   0  0  0  0  0  3  0  0  0  0  0  0
  -24.8520  -27.6660   19.5420 C   0  0  0  0  0  3  0  0  0  0  0  0
  -23.6230  -29.8190   20.2110 C   0  0  0  0  0  2  0  0  0  0  0  0
  -24.6870  -31.0820   22.1280 N   0  0  0  0  0  0  0  0  0  0  0  0
  -23.5480  -32.1730   23.7680 O   0  0  0  0  0  0  0  0  0  0  0  0
  -22.7490  -29.4890   22.5550 C   0  0  0  0  0  0  0  0  0  0  0  0
  -21.4230  -29.3140   22.4320 N   0  0  0  0  0  0  0  0  0  0  0  0
  -23.4270  -28.8640   23.3740 O   0  0  0  0  0  0  0  0  0  0  0  0
  -20.9340  -29.8700   21.7440 H   0  0  0  0  0  0  0  0  0  0  0  0
  -18.0460  -28.1130   22.9390 C   0  0  0  0  0  0  0  0  0  0  0  0
  -20.6050  -28.3760   23.2040 C   0  0  0  0  0  3  0  0  0  0  0  0
  -20.7080  -26.9450   22.6280 C   0  0  0  0  0  2  0  0  0  0  0  0
  -19.6050  -26.6210   21.6150 C   0  0  0  0  0  2  0  0  0  0  0  0
  -18.2230  -26.7640   22.2610 C   0  0  0  0  0  2  0  0  0  0  0  0
  -19.1640  -28.8760   23.3670 C   0  0  0  0  0  0  0  0  0  0  0  0
  -18.9440  -30.1380   23.9620 C   0  0  0  0  0  3  0  0  0  0  0  0
  -17.6380  -30.6350   24.1310 C   0  0  0  0  0  3  0  0  0  0  0  0
  -16.5350  -29.8690   23.7180 C   0  0  0  0  0  3  0  0  0  0  0  0
  -16.7400  -28.6090   23.1280 C   0  0  0  0  0  3  0  0  0  0  0  0
  -25.9150  -32.5220   23.8480 C   0  0  0  0  0  3  0  0  0  0  0  0
  -25.6070  -33.9190   24.1910 N   0  0  0  0  0  0  0  0  0  0  0  0
  -25.9230  -34.9780   23.4350 C   0  0  0  0  0  0  0  0  0  0  0  0
  -26.5740  -34.8820   22.3910 O   0  0  0  0  0  0  0  0  0  0  0  0
  -25.0260  -34.0660   25.0040 H   0  0  0  0  0  0  0  0  0  0  0  0
  -24.1810  -36.7690   23.1340 C   0  0  0  0  0  1  0  0  0  0  0  0
  -25.4440  -36.3630   23.9110 C   0  0  0  0  0  3  0  0  0  0  0  0
  -27.5960  -37.2540   24.6910 C   0  0  0  0  0  1  0  0  0  0  0  0
  -26.4700  -37.4210   23.7760 N   0  0  0  0  0  0  0  0  0  0  0  0
  -26.0650  -38.3390   23.9360 H   0  0  0  0  0  0  0  0  0  0  0  0
  -26.4380  -31.7430   25.1190 C   0  0  1  0  0  0  0  0  0  0  0  0
  -25.3500  -31.5030   26.1930 C   0  0  0  0  0  1  0  0  0  0  0  0
  -27.0150  -30.3660   24.7200 C   0  0  0  0  0  1  0  0  0  0  0  0
  -27.5930  -32.5330   25.7780 C   0  0  0  0  0  1  0  0  0  0  0  0
  -29.8310  -20.5720   20.1340 C   0  0  0  0  0  3  0  0  0  0  0  0
  -29.2480  -19.0940   20.5430 C   0  0  0  0  0  3  0  0  0  0  0  0
  -30.1710  -17.7400   20.3070 C   0  0  0  0  0  3  0  0  0  0  0  0
  -29.7290  -16.2190   20.7650 C   0  0  0  0  0  3  0  0  0  0  0  0
  -30.5720  -14.8720   20.3960 C   0  0  0  0  0  0  0  0  0  0  0  0
  -30.4470  -12.5700   19.3830 C   0  0  0  0  0  2  0  0  0  0  0  0
  -29.5170  -12.6240   18.1480 C   0  0  0  0  0  2  0  0  0  0  0  0
  -28.0450  -12.4280   18.5610 C   0  0  0  0  0  2  0  0  0  0  0  0
  -27.6490  -13.3140   19.7710 C   0  0  0  0  0  3  0  0  0  0  0  0
  -28.6960  -13.2420   20.9020 C   0  0  0  0  0  2  0  0  0  0  0  0
  -29.9960  -13.6160   20.3350 N   0  0  0  0  0  0  0  0  0  0  0  0
  -31.7510  -14.9890   20.0420 O   0  0  0  0  0  0  0  0  0  0  0  0
  -25.2540  -13.8970   20.4750 C   0  0  0  0  0  0  0  0  0  0  0  0
  -24.1880  -13.1210   20.8370 C   0  0  0  0  0  0  0  0  0  0  0  0
  -24.6580  -11.7720   20.8210 C   0  0  0  0  0  0  0  0  0  0  0  0
  -26.3030  -13.0220   20.2510 N   0  0  0  0  0  0  0  0  0  0  0  0
  -25.9520  -11.7380   20.5250 N   0  0  0  0  0  0  0  0  0  0  0  0
  -23.9360  -10.5070   21.0110 C   0  0  0  0  0  0  0  0  0  0  0  0
  -24.3570   -9.5520   21.9620 C   0  0  0  0  0  3  0  0  0  0  0  0
  -23.6350   -8.3520   22.1390 C   0  0  0  0  0  3  0  0  0  0  0  0
  -22.4770   -8.1000   21.3660 C   0  0  0  0  0  0  0  0  0  0  0  0
  -22.0750   -9.0440   20.4050 C   0  0  0  0  0  3  0  0  0  0  0  0
  -22.7980  -10.2350   20.2260 C   0  0  0  0  0  3  0  0  0  0  0  0
  -21.7270   -6.9520   21.4520 O   0  0  0  0  0  0  0  0  0  0  0  0
  -21.6530   -6.2250   22.6130 C   0  0  0  0  0  0  0  0  0  0  0  0
  -21.1860   -6.7920   23.8190 C   0  0  0  0  0  3  0  0  0  0  0  0
  -21.0610   -5.9910   24.9710 C   0  0  0  0  0  3  0  0  0  0  0  0
  -21.3940   -4.6240   24.9190 C   0  0  0  0  0  0  0  0  0  0  0  0
  -21.8540   -4.0560   23.7180 C   0  0  0  0  0  3  0  0  0  0  0  0
  -21.9800   -4.8550   22.5680 C   0  0  0  0  0  0  0  0  0  0  0  0
  -22.4050   -4.2980   21.4080 F   0  0  0  0  0  0  0  0  0  0  0  0
  -21.2660   -3.8530   26.0250 F   0  0  0  0  0  0  0  0  0  0  0  0
  -22.7860  -13.5930   21.0910 C   0  0  0  0  0  0  0  0  0  0  0  0
  -22.0520  -12.8980   21.9520 N   0  0  0  0  0  0  0  0  0  0  0  0
  -22.3490  -14.6120   20.5580 O   0  0  0  0  0  0  0  0  0  0  0  0
  -22.4190  -12.0730   22.4050 H   0  0  0  0  0  0  0  0  0  0  0  0
  -21.1110  -13.1950   22.1660 H   0  0  0  0  0  0  0  0  0  0  0  0
  -25.4150  -15.2680   20.2930 N   0  0  0  0  0  0  0  0  0  0  0  0
  -24.6470  -15.9220   20.3980 H   0  0  0  0  0  0  0  0  0  0  0  0
  -26.2700  -15.7100   19.9820 H   0  0  0  0  0  0  0  0  0  0  0  0
  2  3  1  0
  3  1  2  0
  4  1  1  0
  4  7  1  0
  5  2  2  0
  5  6  1  0
  6  4  2  0
  8 10  1  0
  8  5  1  0
  9  8  1  0
 11 13  1  0
 11  6  1  0
 12 23  2  0
 13 18  1  0
 14 22  1  0
 14 24  1  0
 15 21  1  0
 15 17  1  0
 16 22  1  0
 17 16  1  0
 18 17  2  0
 19 13  2  0
 20 19  1  0
 20 15  2  0
 21 14  1  0
 22 12  1  0
 24 26  2  0
 25 24  1  0
 27 25  1  0
 28 37  2  0
 28 33  1  0
 29 25  1  0
 29 33  1  0
 30 29  1  0
 31 32  1  0
 31 30  1  0
 32 28  1  0
 33 34  2  0
 34 35  1  0
 36 35  2  0
 37 36  1  0
 38 12  1  0
 38 39  1  0
 38 48  1  0
 39 42  1  0
 40 44  1  0
 40 39  1  0
 41 40  2  0
 44 43  1  0
 46 44  1  0
 46 47  1  0
 46 45  1  0
 48 51  1  1
 48 49  1  0
 50 48  1  0
 52  3  1  0
 52 53  2  0
 54 53  1  0
 54 55  2  0
 56 55  1  0
 57 62  1  0
 58 59  1  0
 58 57  1  0
 60 59  1  0
 60 67  1  0
 60 61  1  0
 62 56  1  0
 62 61  1  0
 63 56  2  0
 64 65  2  0
 65 84  1  0
 66 65  1  0
 66 69  1  0
 67 64  1  0
 67 68  1  0
 68 66  2  0
 69 70  1  0
 70 71  2  0
 72 75  1  0
 72 71  1  0
 73 72  2  0
 74 73  1  0
 74 69  2  0
 75 76  1  0
 76 77  1  0
 77 78  2  0
 79 78  1  0
 79 83  1  0
 80 79  2  0
 81 76  2  0
 81 80  1  0
 82 81  1  0
 84 85  1  0
 85 88  1  0
 85 87  1  0
 86 84  2  0
 89 90  1  0
 89 64  1  0
 91 89  1  0
M  ISO  4   6 101  11 101  55 100  56 100
M  END
>  <TORSDO>  (87) 
F 21

>  <SCORE>  (87) 
-13.544

>  <name>  (87) 
86

>  <ligand_id>  (87) 
86

>  <original_smiles>  (87) 
[H]c1c([H])c([H])c2c(c1[H])C([H])([H])C([H])([H])C([H])([H])C2([H])N([H])C(=O)C1([H])N(C(=O)C([H])(N([H])C(=O)C([H])(N([H])C([H])([H])[H])C([H])([H])[H])C(C([H])([H])[H])(C([H])([H])[H])C([H])([H])[H])C([H])([H])c2c([H])c(Oc3c(N([H])[H])c([H])c(C([H])([H])C([H])([H])C([H])([H])C([H])([H])C(=O)N4C([H])([H])C([H])([H])C([H])([H])C([H])(n5nc(-c6c([H])c([H])c(Oc7c([H])c([H])c(F)c([H])c7F)c([H])c6[H])c(C(=O)N([H])[H])c5N([H])[H])C4([H])[H])c([H])c3C([H])([H])[H])c([H])c([H])c2C1([H])[H]

>  <smiles>  (87) 
[H]c1c([H])c([H])c2c(c1[H])C([H])([H])C([H])([H])C([H])([H])C2([H])N([H])C(=O)C1([H])N(C(=O)C([H])(N([H])C(=O)C([H])(N([H])C([H])([H])[H])C([H])([H])[H])C(C([H])([H])[H])(C([H])([H])[H])C([H])([H])[H])C([H])([H])c2c([H])c(Oc3c(N([H])[H])c([H])c(C([H])([H])C([H])([H])C([H])([H])C([H])([H])C(=O)N4C([H])([H])C([H])([H])C([H])([H])C([H])(n5nc(-c6c([H])c([H])c(Oc7c([H])c([H])c(F)c([H])c7F)c([H])c6[H])c(C(=O)N([H])[H])c5N([H])[H])C4([H])[H])c([H])c3C([H])([H])[H])c([H])c([H])c2C1([H])[H]

$$$$
87:0:0
     RDKit          3D

 91 99  0  0  1  0  0  0  0  0999 V2000
  -25.5350  -23.5230   20.7840 C   0  0  0  0  0  3  0  0  0  0  0  0
  -26.5990  -24.3440   21.1890 C   0  0  0  0  0  3  0  0  0  0  0  0
  -25.7060  -22.6440   19.7040 C   0  0  0  0  0  3  0  0  0  0  0  0
  -28.1310  -22.9130   19.8790 C   0  0  0  0  0  0  0  0  0  0  0  0
  -27.8110  -24.3620   20.4650 C   0  0  0  0  0  0  0  0  0  0  0  0
  -27.0040  -22.3340   19.2390 C   0  0  0  0  0  0  0  0  0  0  0  0
  -26.1350  -20.7360   17.6330 C   0  0  0  0  0  1  0  0  0  0  0  0
  -27.2370  -21.3700   18.2780 O   0  0  0  0  0  0  0  0  0  0  0  0
  -28.1400  -25.8600   20.2080 O   0  0  0  0  0  0  0  0  0  0  0  0
  -24.6320  -31.9300   23.2210 C   0  0  0  0  0  0  0  0  0  0  0  0
  -27.1770  -27.0250   20.1850 C   0  0  0  0  0  0  0  0  0  0  0  0
  -23.4370  -30.5290   21.5920 C   0  0  0  0  0  3  0  0  0  0  0  0
  -24.8880  -28.9350   20.1500 C   0  0  0  0  0  0  0  0  0  0  0  0
  -26.0030  -30.7330   21.4390 C   0  0  0  0  0  2  0  0  0  0  0  0
  -26.0730  -29.3210   20.7860 C   0  0  0  0  0  0  0  0  0  0  0  0
  -27.2110  -28.3830   20.7910 C   0  0  0  0  0  3  0  0  0  0  0  0
  -25.9760  -26.8280   19.4610 C   0  0  0  0  0  3  0  0  0  0  0  0
  -24.8670  -27.7110   19.4670 C   0  0  0  0  0  3  0  0  0  0  0  0
  -23.6640  -29.8520   20.2120 C   0  0  0  0  0  2  0  0  0  0  0  0
  -24.7130  -31.0940   22.1350 N   0  0  0  0  0  0  0  0  0  0  0  0
  -23.5450  -32.2130   23.7490 O   0  0  0  0  0  0  0  0  0  0  0  0
  -22.7500  -29.5300   22.5610 C   0  0  0  0  0  0  0  0  0  0  0  0
  -21.4210  -29.3520   22.4390 N   0  0  0  0  0  0  0  0  0  0  0  0
  -23.4220  -28.9160   23.3940 O   0  0  0  0  0  0  0  0  0  0  0  0
  -20.9280  -29.8930   21.7410 H   0  0  0  0  0  0  0  0  0  0  0  0
  -18.0530  -28.1030   22.9530 C   0  0  0  0  0  0  0  0  0  0  0  0
  -20.6080  -28.4090   23.2180 C   0  0  0  0  0  3  0  0  0  0  0  0
  -20.7340  -26.9740   22.6560 C   0  0  0  0  0  2  0  0  0  0  0  0
  -19.6370  -26.6270   21.6440 C   0  0  0  0  0  2  0  0  0  0  0  0
  -18.2530  -26.7530   22.2860 C   0  0  0  0  0  2  0  0  0  0  0  0
  -19.1580  -28.8870   23.3780 C   0  0  0  0  0  0  0  0  0  0  0  0
  -18.9150  -30.1480   23.9660 C   0  0  0  0  0  3  0  0  0  0  0  0
  -17.6000  -30.6220   24.1360 C   0  0  0  0  0  3  0  0  0  0  0  0
  -16.5090  -29.8350   23.7260 C   0  0  0  0  0  3  0  0  0  0  0  0
  -16.7380  -28.5780   23.1380 C   0  0  0  0  0  3  0  0  0  0  0  0
  -25.9000  -32.5840   23.8420 C   0  0  0  0  0  3  0  0  0  0  0  0
  -26.4090  -31.8300   25.1320 C   0  0  1  0  0  0  0  0  0  0  0  0
  -25.3100  -31.6060   26.1990 C   0  0  0  0  0  1  0  0  0  0  0  0
  -26.9960  -30.4470   24.7740 C   0  0  0  0  0  1  0  0  0  0  0  0
  -27.5570  -32.6340   25.7880 C   0  0  0  0  0  1  0  0  0  0  0  0
  -25.5790  -33.9840   24.1690 N   0  0  0  0  0  0  0  0  0  0  0  0
  -25.9030  -35.0440   23.4170 C   0  0  0  0  0  0  0  0  0  0  0  0
  -26.5700  -34.9460   22.3830 O   0  0  0  0  0  0  0  0  0  0  0  0
  -24.9850  -34.1310   24.9730 H   0  0  0  0  0  0  0  0  0  0  0  0
  -24.1790  -36.8480   23.0740 C   0  0  0  0  0  1  0  0  0  0  0  0
  -25.4190  -36.4350   23.8830 C   0  0  0  0  0  3  0  0  0  0  0  0
  -27.5530  -37.3240   24.7160 C   0  0  0  0  0  1  0  0  0  0  0  0
  -26.4520  -37.4890   23.7720 N   0  0  0  0  0  0  0  0  0  0  0  0
  -26.0430  -38.4090   23.9170 H   0  0  0  0  0  0  0  0  0  0  0  0
  -29.1900  -21.5410   20.2370 C   0  0  0  0  0  3  0  0  0  0  0  0
  -28.9550  -19.7160   20.0690 C   0  0  0  0  0  3  0  0  0  0  0  0
  -30.4310  -15.5020   20.1960 C   0  0  0  0  0  0  0  0  0  0  0  0
  -30.4220  -13.0300   19.3580 C   0  0  0  0  0  2  0  0  0  0  0  0
  -29.5040  -12.7680   18.1390 C   0  0  0  0  0  2  0  0  0  0  0  0
  -28.0690  -12.4630   18.6050 C   0  0  0  0  0  2  0  0  0  0  0  0
  -27.6030  -13.4410   19.7080 C   0  0  0  0  0  3  0  0  0  0  0  0
  -28.6540  -13.6600   20.8160 C   0  0  0  0  0  2  0  0  0  0  0  0
  -29.8610  -14.1890   20.1520 N   0  0  0  0  0  0  0  0  0  0  0  0
  -31.6570  -15.4610   20.0110 O   0  0  0  0  0  0  0  0  0  0  0  0
  -29.9720  -18.2660   20.2210 C   0  0  0  0  0  0  0  0  0  0  0  0
  -29.6660  -16.8000   20.2320 N   0  0  0  0  0  0  0  0  0  0  0  0
  -31.1660  -18.5610   20.3130 O   0  0  0  0  0  0  0  0  0  0  0  0
  -28.6710  -16.6370   20.2430 H   0  0  0  0  0  0  0  0  0  0  0  0
  -25.2450  -13.9910   20.5030 C   0  0  0  0  0  0  0  0  0  0  0  0
  -24.1850  -13.2110   20.8720 C   0  0  0  0  0  0  0  0  0  0  0  0
  -24.6470  -11.8600   20.8170 C   0  0  0  0  0  0  0  0  0  0  0  0
  -26.2820  -13.1170   20.2330 N   0  0  0  0  0  0  0  0  0  0  0  0
  -25.9350  -11.8270   20.4870 N   0  0  0  0  0  0  0  0  0  0  0  0
  -23.9170  -10.5970   20.9970 C   0  0  0  0  0  0  0  0  0  0  0  0
  -24.3460   -9.6240   21.9270 C   0  0  0  0  0  3  0  0  0  0  0  0
  -23.6160   -8.4290   22.1040 C   0  0  0  0  0  3  0  0  0  0  0  0
  -22.4440   -8.1980   21.3470 C   0  0  0  0  0  0  0  0  0  0  0  0
  -22.0320   -9.1580   20.4060 C   0  0  0  0  0  3  0  0  0  0  0  0
  -22.7630  -10.3450   20.2280 C   0  0  0  0  0  3  0  0  0  0  0  0
  -21.6900   -7.0520   21.4260 O   0  0  0  0  0  0  0  0  0  0  0  0
  -21.6210   -6.3130   22.5810 C   0  0  0  0  0  0  0  0  0  0  0  0
  -21.1630   -6.8710   23.7940 C   0  0  0  0  0  3  0  0  0  0  0  0
  -21.0390   -6.0590   24.9390 C   0  0  0  0  0  3  0  0  0  0  0  0
  -21.3640   -4.6910   24.8730 C   0  0  0  0  0  0  0  0  0  0  0  0
  -21.8190   -4.1340   23.6650 C   0  0  0  0  0  3  0  0  0  0  0  0
  -21.9420   -4.9420   22.5210 C   0  0  0  0  0  0  0  0  0  0  0  0
  -22.3590   -4.3930   21.3530 F   0  0  0  0  0  0  0  0  0  0  0  0
  -21.2410   -3.9100   25.9730 F   0  0  0  0  0  0  0  0  0  0  0  0
  -22.7900  -13.6880   21.1560 C   0  0  0  0  0  0  0  0  0  0  0  0
  -22.0660  -12.9870   22.0200 N   0  0  0  0  0  0  0  0  0  0  0  0
  -22.3520  -14.7210   20.6500 O   0  0  0  0  0  0  0  0  0  0  0  0
  -22.4390  -12.1590   22.4600 H   0  0  0  0  0  0  0  0  0  0  0  0
  -21.1270  -13.2840   22.2460 H   0  0  0  0  0  0  0  0  0  0  0  0
  -25.4090  -15.3620   20.3330 N   0  0  0  0  0  0  0  0  0  0  0  0
  -24.6410  -16.0170   20.4290 H   0  0  0  0  0  0  0  0  0  0  0  0
  -26.2350  -15.7800   19.9270 H   0  0  0  0  0  0  0  0  0  0  0  0
  1  2  1  0
  3  1  2  0
  4 50  1  0
  4  5  1  0
  5  2  2  0
  6  3  1  0
  6  4  2  0
  7  8  1  0
  8  6  1  0
  9  5  1  0
 10 21  2  0
 11  9  1  0
 11 16  1  0
 12 20  1  0
 12 22  1  0
 13 19  1  0
 13 15  1  0
 14 20  1  0
 15 16  2  0
 15 14  1  0
 17 18  1  0
 17 11  2  0
 18 13  2  0
 19 12  1  0
 20 10  1  0
 22 24  2  0
 23 22  1  0
 25 23  1  0
 26 35  2  0
 26 31  1  0
 27 23  1  0
 27 31  1  0
 28 27  1  0
 29 30  1  0
 29 28  1  0
 30 26  1  0
 31 32  2  0
 32 33  1  0
 34 33  2  0
 35 34  1  0
 36 10  1  0
 36 41  1  0
 36 37  1  0
 37 40  1  1
 37 38  1  0
 39 37  1  0
 41 44  1  0
 42 46  1  0
 42 41  1  0
 43 42  2  0
 46 45  1  0
 48 46  1  0
 48 49  1  0
 48 47  1  0
 51 60  1  0
 51 50  2  0
 52 61  1  0
 53 58  1  0
 54 55  1  0
 54 53  1  0
 56 55  1  0
 56 67  1  0
 56 57  1  0
 58 52  1  0
 58 57  1  0
 59 52  2  0
 60 61  1  0
 60 62  2  0
 61 63  1  0
 64 65  2  0
 65 84  1  0
 66 65  1  0
 66 69  1  0
 67 68  1  0
 67 64  1  0
 68 66  2  0
 69 70  1  0
 70 71  2  0
 72 75  1  0
 72 71  1  0
 73 72  2  0
 74 73  1  0
 74 69  2  0
 75 76  1  0
 76 77  1  0
 77 78  2  0
 79 78  1  0
 79 83  1  0
 80 79  2  0
 81 76  2  0
 81 80  1  0
 82 81  1  0
 84 85  1  0
 85 88  1  0
 85 87  1  0
 86 84  2  0
 89 90  1  0
 89 64  1  0
 91 89  1  0
M  ISO  4   5 101   9 101  52 100  61 100
M  END
>  <TORSDO>  (88) 
F 19

>  <SCORE>  (88) 
-15.641

>  <name>  (88) 
87

>  <ligand_id>  (88) 
87

>  <original_smiles>  (88) 
[H]c1c([H])c(Oc2c([H])c([H])c3c(c2[H])C([H])([H])N(C(=O)C([H])(N([H])C(=O)C([H])(N([H])C([H])([H])[H])C([H])([H])[H])C(C([H])([H])[H])(C([H])([H])[H])C([H])([H])[H])C([H])(C(=O)N([H])C2([H])c4c([H])c([H])c([H])c([H])c4C([H])([H])C([H])([H])C2([H])[H])C3([H])[H])c(C([H])([H])C([H])([H])C(=O)N([H])C(=O)N2C([H])([H])C([H])([H])C([H])([H])C([H])(n3nc(-c4c([H])c([H])c(Oc5c([H])c([H])c(F)c([H])c5F)c([H])c4[H])c(C(=O)N([H])[H])c3N([H])[H])C2([H])[H])c(OC([H])([H])[H])c1[H]

>  <smiles>  (88) 
[H]c1c([H])c(Oc2c([H])c([H])c3c(c2[H])C([H])([H])N(C(=O)C([H])(N([H])C(=O)C([H])(N([H])C([H])([H])[H])C([H])([H])[H])C(C([H])([H])[H])(C([H])([H])[H])C([H])([H])[H])C([H])(C(=O)N([H])C2([H])c4c([H])c([H])c([H])c([H])c4C([H])([H])C([H])([H])C2([H])[H])C3([H])[H])c(C([H])([H])C([H])([H])C(=O)N([H])C(=O)N2C([H])([H])C([H])([H])C([H])([H])C([H])(n3nc(-c4c([H])c([H])c(Oc5c([H])c([H])c(F)c([H])c5F)c([H])c4[H])c(C(=O)N([H])[H])c3N([H])[H])C2([H])[H])c(OC([H])([H])[H])c1[H]

$$$$
88:0:0
     RDKit          3D

100108  0  0  1  0  0  0  0  0999 V2000
  -30.7800  -20.7430   23.7450 C   0  0  0  0  0  2  0  0  0  0  0  0
  -30.6900  -22.1600   23.1130 C   0  0  0  0  0  2  0  0  0  0  0  0
  -30.1930  -23.2300   24.1230 C   0  0  0  0  0  2  0  0  0  0  0  0
  -30.0150  -24.6520   23.5420 C   0  0  0  0  0  2  0  0  0  0  0  0
  -28.7480  -24.7760   22.7950 N   0  0  0  0  0  4  0  0  0  0  0  0
  -28.0330  -25.1350   23.4160 H   0  0  0  0  0  0  0  0  0  0  0  0
  -28.4600  -23.8510   22.5250 H   0  0  0  0  0  0  0  0  0  0  0  0
  -28.7930  -25.6040   21.5730 C   0  0  0  0  0  2  0  0  0  0  0  0
  -27.5150  -25.3910   20.7470 C   0  0  0  0  0  2  0  0  0  0  0  0
  -27.4660  -26.3270   19.6810 O   0  0  0  0  0  0  0  0  0  0  0  0
  -24.2470  -31.6120   23.1280 C   0  0  0  0  0  0  0  0  0  0  0  0
  -26.3630  -27.1300   19.7700 C   0  0  0  0  0  0  0  0  0  0  0  0
  -22.8380  -30.3590   21.5220 C   0  0  0  0  0  3  0  0  0  0  0  0
  -24.0860  -28.7500   19.9880 C   0  0  0  0  0  0  0  0  0  0  0  0
  -25.3650  -30.5380   21.1870 C   0  0  0  0  0  2  0  0  0  0  0  0
  -25.3080  -29.1870   20.5120 C   0  0  0  0  0  0  0  0  0  0  0  0
  -26.4560  -28.3780   20.4090 C   0  0  0  0  0  3  0  0  0  0  0  0
  -25.1330  -26.6800   19.2560 C   0  0  0  0  0  3  0  0  0  0  0  0
  -23.9850  -27.4960   19.3610 C   0  0  0  0  0  3  0  0  0  0  0  0
  -22.9170  -29.6980   20.1200 C   0  0  0  0  0  2  0  0  0  0  0  0
  -24.1700  -30.8450   22.0060 N   0  0  0  0  0  0  0  0  0  0  0  0
  -23.2270  -31.9510   23.7450 O   0  0  0  0  0  0  0  0  0  0  0  0
  -22.1660  -29.3620   22.4950 C   0  0  0  0  0  0  0  0  0  0  0  0
  -20.8370  -29.2120   22.3810 N   0  0  0  0  0  0  0  0  0  0  0  0
  -22.8420  -28.7270   23.3070 O   0  0  0  0  0  0  0  0  0  0  0  0
  -20.3530  -29.7790   21.6990 H   0  0  0  0  0  0  0  0  0  0  0  0
  -17.4560  -28.0400   22.8410 C   0  0  0  0  0  0  0  0  0  0  0  0
  -20.0060  -28.3040   23.1700 C   0  0  0  0  0  3  0  0  0  0  0  0
  -20.1230  -26.8520   22.6530 C   0  0  0  0  0  2  0  0  0  0  0  0
  -19.0480  -26.4890   21.6220 C   0  0  0  0  0  2  0  0  0  0  0  0
  -17.6480  -26.6660   22.2210 C   0  0  0  0  0  2  0  0  0  0  0  0
  -18.5640  -28.8140   23.2740 C   0  0  0  0  0  0  0  0  0  0  0  0
  -18.3340  -30.1020   23.8050 C   0  0  0  0  0  3  0  0  0  0  0  0
  -17.0270  -30.6110   23.9150 C   0  0  0  0  0  3  0  0  0  0  0  0
  -15.9320  -29.8350   23.5020 C   0  0  0  0  0  3  0  0  0  0  0  0
  -16.1460  -28.5530   22.9650 C   0  0  0  0  0  3  0  0  0  0  0  0
  -25.6140  -32.1200   23.6810 C   0  0  0  0  0  3  0  0  0  0  0  0
  -25.4370  -33.5230   24.0770 N   0  0  0  0  0  0  0  0  0  0  0  0
  -25.8270  -34.5700   23.3390 C   0  0  0  0  0  0  0  0  0  0  0  0
  -26.4410  -34.4530   22.2740 O   0  0  0  0  0  0  0  0  0  0  0  0
  -24.8950  -33.6930   24.9140 H   0  0  0  0  0  0  0  0  0  0  0  0
  -24.2340  -36.4970   23.1220 C   0  0  0  0  0  1  0  0  0  0  0  0
  -25.4760  -35.9730   23.8630 C   0  0  0  0  0  3  0  0  0  0  0  0
  -27.7180  -36.6520   24.6070 C   0  0  0  0  0  1  0  0  0  0  0  0
  -26.5830  -36.9470   23.7340 N   0  0  0  0  0  0  0  0  0  0  0  0
  -26.2590  -37.8880   23.9460 H   0  0  0  0  0  0  0  0  0  0  0  0
  -26.1570  -31.2650   24.8920 C   0  0  1  0  0  0  0  0  0  0  0  0
  -25.1170  -31.0780   26.0220 C   0  0  0  0  0  1  0  0  0  0  0  0
  -26.6120  -29.8660   24.4150 C   0  0  0  0  0  1  0  0  0  0  0  0
  -27.4110  -31.9430   25.4960 C   0  0  0  0  0  1  0  0  0  0  0  0
  -31.0520  -19.5640   22.7670 C   0  0  0  0  0  2  0  0  0  0  0  0
  -30.4960  -18.1930   23.2610 C   0  0  0  0  0  2  0  0  0  0  0  0
  -31.8080  -16.0840   23.3520 C   0  0  0  0  0  1  0  0  0  0  0  0
  -31.0060  -16.9990   22.5000 N   0  0  1  0  0  4  0  0  0  0  0  0
  -31.6510  -17.3650   21.8180 H   0  0  0  0  0  0  0  0  0  0  0  0
  -29.9850  -16.2290   21.7200 C   0  0  0  0  0  2  0  0  0  0  0  0
  -30.5630  -17.7220   17.6850 C   0  0  0  0  0  3  0  0  0  0  0  0
  -29.4840  -18.1750   18.4530 C   0  0  0  0  0  3  0  0  0  0  0  0
  -31.0230  -15.9620   19.3460 C   0  0  0  0  0  0  0  0  0  0  0  0
  -31.3040  -16.5990   18.0970 C   0  0  0  0  0  0  0  0  0  0  0  0
  -29.2050  -17.5960   19.6970 C   0  0  0  0  0  0  0  0  0  0  0  0
  -30.0580  -16.5780   20.2240 C   0  0  0  0  0  0  0  0  0  0  0  0
  -32.4030  -16.1510   17.1330 C   0  0  0  0  0  1  0  0  0  0  0  0
  -27.9430  -18.0970   20.3890 C   0  0  0  0  0  1  0  0  0  0  0  0
  -31.7750  -14.6790   19.6900 C   0  0  0  0  0  0  0  0  0  0  0  0
  -31.4300  -12.2670   19.3590 C   0  0  0  0  0  2  0  0  0  0  0  0
  -30.4840  -11.9310   18.1850 C   0  0  0  0  0  2  0  0  0  0  0  0
  -29.0070  -12.0520   18.5940 C   0  0  0  0  0  2  0  0  0  0  0  0
  -28.6760  -13.3380   19.3890 C   0  0  0  0  0  3  0  0  0  0  0  0
  -29.6950  -13.5430   20.5270 C   0  0  0  0  0  2  0  0  0  0  0  0
  -31.0440  -13.5610   19.9420 N   0  0  0  0  0  0  0  0  0  0  0  0
  -32.9750  -14.6430   19.4220 O   0  0  0  0  0  0  0  0  0  0  0  0
  -26.4380  -14.3780   20.1210 C   0  0  0  0  0  0  0  0  0  0  0  0
  -25.2390  -13.8160   20.4710 C   0  0  0  0  0  0  0  0  0  0  0  0
  -25.4340  -12.4020   20.4130 C   0  0  0  0  0  0  0  0  0  0  0  0
  -27.2940  -13.3200   19.8730 N   0  0  0  0  0  0  0  0  0  0  0  0
  -26.6920  -12.1240   20.1070 N   0  0  0  0  0  0  0  0  0  0  0  0
  -24.4810  -11.2910   20.5670 C   0  0  0  0  0  0  0  0  0  0  0  0
  -24.7940  -10.1450   21.3320 C   0  0  0  0  0  3  0  0  0  0  0  0
  -23.8570   -9.1010   21.4800 C   0  0  0  0  0  3  0  0  0  0  0  0
  -22.5860   -9.1960   20.8630 C   0  0  0  0  0  0  0  0  0  0  0  0
  -22.2860  -10.3280   20.0850 C   0  0  0  0  0  3  0  0  0  0  0  0
  -23.2240  -11.3650   19.9340 C   0  0  0  0  0  3  0  0  0  0  0  0
  -21.6200   -8.2230   20.9370 O   0  0  0  0  0  0  0  0  0  0  0  0
  -21.6180   -7.2900   21.9420 C   0  0  0  0  0  0  0  0  0  0  0  0
  -21.5980   -7.6610   23.3040 C   0  0  0  0  0  3  0  0  0  0  0  0
  -21.5230   -6.6680   24.3030 C   0  0  0  0  0  3  0  0  0  0  0  0
  -21.4650   -5.3070   23.9400 C   0  0  0  0  0  0  0  0  0  0  0  0
  -21.4790   -4.9390   22.5830 C   0  0  0  0  0  3  0  0  0  0  0  0
  -21.5540   -5.9280   21.5890 C   0  0  0  0  0  0  0  0  0  0  0  0
  -21.5450   -5.5660   20.2800 F   0  0  0  0  0  0  0  0  0  0  0  0
  -21.3840   -4.3570   24.9000 F   0  0  0  0  0  0  0  0  0  0  0  0
  -23.9550  -14.5420   20.7570 C   0  0  0  0  0  0  0  0  0  0  0  0
  -23.1170  -13.9850   21.6250 N   0  0  0  0  0  0  0  0  0  0  0  0
  -23.7120  -15.6350   20.2490 O   0  0  0  0  0  0  0  0  0  0  0  0
  -23.3310  -13.0990   22.0560 H   0  0  0  0  0  0  0  0  0  0  0  0
  -22.2540  -14.4490   21.8660 H   0  0  0  0  0  0  0  0  0  0  0  0
  -26.8680  -15.6950   19.9790 N   0  0  0  0  0  0  0  0  0  0  0  0
  -26.2540  -16.4870   20.1140 H   0  0  0  0  0  0  0  0  0  0  0  0
  -27.8130  -15.9610   19.7170 H   0  0  0  0  0  0  0  0  0  0  0  0
  2  1  1  0
  2  3  1  0
  4  3  1  0
  5  6  1  0
  5  4  1  0
  7  5  1  0
  8  5  1  0
  9  8  1  0
 10 12  1  0
 10  9  1  0
 11 22  2  0
 12 17  1  0
 13 21  1  0
 13 23  1  0
 14 20  1  0
 14 16  1  0
 15 21  1  0
 16 15  1  0
 17 16  2  0
 18 19  1  0
 18 12  2  0
 19 14  2  0
 20 13  1  0
 21 11  1  0
 23 25  2  0
 24 23  1  0
 26 24  1  0
 27 36  2  0
 27 32  1  0
 28 24  1  0
 28 32  1  0
 29 28  1  0
 30 31  1  0
 30 29  1  0
 31 27  1  0
 32 33  2  0
 33 34  1  0
 35 34  2  0
 36 35  1  0
 37 11  1  0
 37 38  1  0
 37 47  1  0
 38 41  1  0
 39 43  1  0
 39 38  1  0
 40 39  2  0
 43 42  1  0
 45 43  1  0
 45 46  1  0
 45 44  1  0
 47 50  1  1
 47 48  1  0
 49 47  1  0
 51 52  1  0
 51  1  1  0
 54 52  1  0
 54 53  1  0
 54 55  1  6
 56 54  1  0
 57 60  2  0
 57 58  1  0
 58 61  2  0
 59 65  1  0
 59 62  2  0
 60 59  1  0
 61 62  1  0
 61 64  1  0
 62 56  1  0
 63 60  1  0
 65 71  1  0
 66 71  1  0
 67 68  1  0
 67 66  1  0
 69 68  1  0
 69 76  1  0
 69 70  1  0
 71 70  1  0
 72 65  2  0
 73 74  2  0
 74 93  1  0
 75 74  1  0
 75 78  1  0
 76 77  1  0
 76 73  1  0
 77 75  2  0
 78 79  1  0
 79 80  2  0
 81 84  1  0
 81 80  1  0
 82 81  2  0
 83 82  1  0
 83 78  2  0
 84 85  1  0
 85 86  1  0
 86 87  2  0
 88 87  1  0
 88 92  1  0
 89 88  2  0
 90 85  2  0
 90 89  1  0
 91 90  1  0
 93 94  1  0
 94 97  1  0
 94 96  1  0
 95 93  2  0
 98 99  1  0
 98 73  1  0
100 98  1  0
M  ISO  4   9 101  10 101  59 100  65 100
M  END
>  <TORSDO>  (89) 
F 27

>  <SCORE>  (89) 
-7.037

>  <name>  (89) 
88

>  <ligand_id>  (89) 
88

>  <original_smiles>  (89) 
[H]c1c([H])c([H])c2c(c1[H])C([H])([H])C([H])([H])C([H])([H])C2([H])N([H])C(=O)C1([H])N(C(=O)C([H])(N([H])C(=O)C([H])(N([H])C([H])([H])[H])C([H])([H])[H])C(C([H])([H])[H])(C([H])([H])[H])C([H])([H])[H])C([H])([H])c2c([H])c(OC([H])([H])C([H])([H])[N+]([H])([H])C([H])([H])C([H])([H])C([H])([H])C([H])([H])C([H])([H])C([H])([H])[N+]([H])(C([H])([H])[H])C([H])([H])c3c(C(=O)N4C([H])([H])C([H])([H])C([H])([H])C([H])(n5nc(-c6c([H])c([H])c(Oc7c([H])c([H])c(F)c([H])c7F)c([H])c6[H])c(C(=O)N([H])[H])c5N([H])[H])C4([H])[H])c(C([H])([H])[H])c([H])c([H])c3C([H])([H])[H])c([H])c([H])c2C1([H])[H]

>  <smiles>  (89) 
[H]c1c([H])c([H])c2c(c1[H])C([H])([H])C([H])([H])C([H])([H])C2([H])N([H])C(=O)C1([H])N(C(=O)C([H])(N([H])C(=O)C([H])(N([H])C([H])([H])[H])C([H])([H])[H])C(C([H])([H])[H])(C([H])([H])[H])C([H])([H])[H])C([H])([H])c2c([H])c(OC([H])([H])C([H])([H])[N+]([H])([H])C([H])([H])C([H])([H])C([H])([H])C([H])([H])C([H])([H])C([H])([H])[N+]([H])(C([H])([H])[H])C([H])([H])c3c(C(=O)N4C([H])([H])C([H])([H])C([H])([H])C([H])(n5nc(-c6c([H])c([H])c(Oc7c([H])c([H])c(F)c([H])c7F)c([H])c6[H])c(C(=O)N([H])[H])c5N([H])[H])C4([H])[H])c(C([H])([H])[H])c([H])c([H])c3C([H])([H])[H])c([H])c([H])c2C1([H])[H]

$$$$
89:0:0
     RDKit          3D

 94103  0  0  1  0  0  0  0  0999 V2000
  -27.5740  -20.1680   18.8040 C   0  0  0  0  0  3  0  0  0  0  0  0
  -27.4840  -21.3080   17.9950 C   0  0  0  0  0  3  0  0  0  0  0  0
  -28.3510  -21.5450   20.6420 C   0  0  0  0  0  3  0  0  0  0  0  0
  -28.0370  -20.2630   20.1270 C   0  0  0  0  0  0  0  0  0  0  0  0
  -28.2140  -22.7250   19.8540 C   0  0  0  0  0  0  0  0  0  0  0  0
  -27.7960  -22.5970   18.4990 C   0  0  0  0  0  0  0  0  0  0  0  0
  -27.3530  -23.5770   16.3400 C   0  0  0  0  0  1  0  0  0  0  0  0
  -27.6700  -23.7250   17.7200 O   0  0  0  0  0  0  0  0  0  0  0  0
  -28.1040  -18.9950   20.9930 C   0  0  0  0  0  2  0  0  0  0  0  0
  -31.0590  -14.2640   19.4730 C   0  0  0  0  0  0  0  0  0  0  0  0
  -30.5020  -12.1650   18.3050 C   0  0  0  0  0  2  0  0  0  0  0  0
  -29.3710  -12.4170   17.2880 C   0  0  0  0  0  2  0  0  0  0  0  0
  -27.9920  -12.2760   17.9580 C   0  0  0  0  0  2  0  0  0  0  0  0
  -27.8890  -13.0610   19.2930 C   0  0  0  0  0  3  0  0  0  0  0  0
  -29.1180  -12.8010   20.1920 C   0  0  0  0  0  2  0  0  0  0  0  0
  -30.3220  -13.1170   19.4130 N   0  0  0  0  0  0  0  0  0  0  0  0
  -32.1110  -14.3930   18.8390 O   0  0  0  0  0  0  0  0  0  0  0  0
  -29.3370  -17.5140   19.2290 C   0  0  0  0  0  2  0  0  0  0  0  0
  -29.2100  -16.7430   21.6000 C   0  0  0  0  0  2  0  0  0  0  0  0
  -30.5180  -16.5610   19.0310 C   0  0  0  0  0  2  0  0  0  0  0  0
  -30.3830  -15.7700   21.3170 C   0  0  0  0  0  2  0  0  0  0  0  0
  -29.2580  -17.9970   20.6900 C   0  0  0  0  0  3  0  0  0  0  0  0
  -30.4060  -15.3750   19.8970 N   0  0  0  0  0  0  0  0  0  0  0  0
  -25.6830  -13.6400   20.4820 C   0  0  0  0  0  0  0  0  0  0  0  0
  -24.6700  -12.8570   20.9660 C   0  0  0  0  0  0  0  0  0  0  0  0
  -25.0670  -11.5050   20.7270 C   0  0  0  0  0  0  0  0  0  0  0  0
  -26.6360  -12.7650   19.9870 N   0  0  0  0  0  0  0  0  0  0  0  0
  -26.2780  -11.4700   20.1850 N   0  0  0  0  0  0  0  0  0  0  0  0
  -24.3390  -10.2450   20.9280 C   0  0  0  0  0  0  0  0  0  0  0  0
  -24.7650   -9.2880   21.8750 C   0  0  0  0  0  3  0  0  0  0  0  0
  -24.0350   -8.0940   22.0640 C   0  0  0  0  0  3  0  0  0  0  0  0
  -22.8650   -7.8490   21.3080 C   0  0  0  0  0  0  0  0  0  0  0  0
  -22.4570   -8.7960   20.3520 C   0  0  0  0  0  3  0  0  0  0  0  0
  -23.1870   -9.9810   20.1600 C   0  0  0  0  0  3  0  0  0  0  0  0
  -22.1090   -6.7050   21.4050 O   0  0  0  0  0  0  0  0  0  0  0  0
  -21.9060   -6.0770   22.6080 C   0  0  0  0  0  0  0  0  0  0  0  0
  -21.3010   -6.7350   23.7010 C   0  0  0  0  0  3  0  0  0  0  0  0
  -21.0510   -6.0310   24.8960 C   0  0  0  0  0  3  0  0  0  0  0  0
  -21.3910   -4.6700   24.9960 C   0  0  0  0  0  0  0  0  0  0  0  0
  -21.9900   -4.0120   23.9090 C   0  0  0  0  0  3  0  0  0  0  0  0
  -22.2420   -4.7130   22.7160 C   0  0  0  0  0  0  0  0  0  0  0  0
  -22.7990   -4.0660   21.6630 F   0  0  0  0  0  0  0  0  0  0  0  0
  -21.1430   -3.9930   26.1420 F   0  0  0  0  0  0  0  0  0  0  0  0
  -23.3680  -13.3340   21.5350 C   0  0  0  0  0  0  0  0  0  0  0  0
  -22.8030  -12.5880   22.4810 N   0  0  0  0  0  0  0  0  0  0  0  0
  -22.8660  -14.3990   21.1810 O   0  0  0  0  0  0  0  0  0  0  0  0
  -23.2270  -11.7230   22.7830 H   0  0  0  0  0  0  0  0  0  0  0  0
  -21.9380  -12.8870   22.9060 H   0  0  0  0  0  0  0  0  0  0  0  0
  -25.8610  -15.0190   20.4070 N   0  0  0  0  0  0  0  0  0  0  0  0
  -25.1460  -15.6690   20.7120 H   0  0  0  0  0  0  0  0  0  0  0  0
  -26.6670  -15.4760   20.0010 H   0  0  0  0  0  0  0  0  0  0  0  0
  -28.3930  -24.1000   20.5480 C   0  0  0  0  0  2  0  0  0  0  0  0
  -29.0210  -25.3070   19.7730 C   0  0  0  0  0  2  0  0  0  0  0  0
  -28.8470  -26.5840   20.4320 O   0  0  0  0  0  0  0  0  0  0  0  0
  -24.5850  -31.6300   23.1610 C   0  0  0  0  0  0  0  0  0  0  0  0
  -27.6400  -27.2620   20.3270 C   0  0  0  0  0  0  0  0  0  0  0  0
  -23.5640  -30.1480   21.4680 C   0  0  0  0  0  3  0  0  0  0  0  0
  -25.1830  -28.6700   20.1710 C   0  0  0  0  0  0  0  0  0  0  0  0
  -26.0800  -30.6260   21.4350 C   0  0  0  0  0  2  0  0  0  0  0  0
  -26.2770  -29.2510   20.8230 C   0  0  0  0  0  0  0  0  0  0  0  0
  -27.5090  -28.5570   20.8930 C   0  0  0  0  0  3  0  0  0  0  0  0
  -26.5140  -26.7020   19.6770 C   0  0  0  0  0  3  0  0  0  0  0  0
  -25.2950  -27.3960   19.5970 C   0  0  0  0  0  3  0  0  0  0  0  0
  -23.9000  -29.4660   20.1190 C   0  0  0  0  0  2  0  0  0  0  0  0
  -24.7560  -30.8190   22.0810 N   0  0  0  0  0  0  0  0  0  0  0  0
  -23.4570  -31.8550   23.6230 O   0  0  0  0  0  0  0  0  0  0  0  0
  -22.9030  -29.1060   22.4000 C   0  0  0  0  0  0  0  0  0  0  0  0
  -21.5840  -28.9080   22.2390 N   0  0  0  0  0  0  0  0  0  0  0  0
  -23.5750  -28.4810   23.2230 O   0  0  0  0  0  0  0  0  0  0  0  0
  -21.1010  -29.4740   21.5560 H   0  0  0  0  0  0  0  0  0  0  0  0
  -18.1980  -27.7380   22.7210 C   0  0  0  0  0  0  0  0  0  0  0  0
  -20.7610  -27.9520   22.9790 C   0  0  0  0  0  3  0  0  0  0  0  0
  -20.8380  -26.5400   22.3540 C   0  0  0  0  0  2  0  0  0  0  0  0
  -19.7260  -26.2690   21.3360 C   0  0  0  0  0  2  0  0  0  0  0  0
  -18.3510  -26.4090   21.9970 C   0  0  0  0  0  2  0  0  0  0  0  0
  -19.3290  -28.4680   23.1700 C   0  0  0  0  0  0  0  0  0  0  0  0
  -19.1340  -29.7110   23.8080 C   0  0  0  0  0  3  0  0  0  0  0  0
  -17.8370  -30.2220   24.0080 C   0  0  0  0  0  3  0  0  0  0  0  0
  -16.7200  -29.4900   23.5730 C   0  0  0  0  0  3  0  0  0  0  0  0
  -16.9010  -28.2520   22.9340 C   0  0  0  0  0  3  0  0  0  0  0  0
  -25.7910  -32.3370   23.8510 C   0  0  0  0  0  3  0  0  0  0  0  0
  -26.2730  -31.6050   25.1640 C   0  0  1  0  0  0  0  0  0  0  0  0
  -25.1320  -31.3080   26.1660 C   0  0  0  0  0  1  0  0  0  0  0  0
  -26.9630  -30.2610   24.8220 C   0  0  0  0  0  1  0  0  0  0  0  0
  -27.3260  -32.4720   25.8920 C   0  0  0  0  0  1  0  0  0  0  0  0
  -25.3830  -33.7170   24.1450 N   0  0  0  0  0  0  0  0  0  0  0  0
  -25.6930  -34.7800   23.3890 C   0  0  0  0  0  0  0  0  0  0  0  0
  -26.4240  -34.7060   22.3970 O   0  0  0  0  0  0  0  0  0  0  0  0
  -24.7350  -33.8440   24.9090 H   0  0  0  0  0  0  0  0  0  0  0  0
  -23.8920  -36.4710   22.9080 C   0  0  0  0  0  1  0  0  0  0  0  0
  -25.1000  -36.1410   23.8000 C   0  0  0  0  0  3  0  0  0  0  0  0
  -27.1160  -37.1520   24.7670 C   0  0  0  0  0  1  0  0  0  0  0  0
  -26.0760  -37.2500   23.7500 N   0  0  0  0  0  0  0  0  0  0  0  0
  -25.6080  -38.1450   23.8650 H   0  0  0  0  0  0  0  0  0  0  0  0
  1  4  1  0
  2  6  1  0
  2  1  2  0
  4  3  2  0
  4  9  1  0
  5 52  1  0
  5  3  1  0
  6  5  2  0
  7  8  1  0
  8  6  1  0
 10 23  1  0
 11 16  1  0
 12 13  1  0
 12 11  1  0
 14 13  1  0
 14 27  1  0
 14 15  1  0
 16 10  1  0
 16 15  1  0
 17 10  2  0
 18 22  1  0
 20 18  1  0
 20 23  1  0
 21 19  1  0
 22  9  1  0
 22 19  1  0
 23 21  1  0
 24 25  2  0
 25 44  1  0
 26 29  1  0
 26 25  1  0
 27 28  1  0
 27 24  1  0
 28 26  2  0
 29 30  1  0
 30 31  2  0
 32 35  1  0
 32 31  1  0
 33 32  2  0
 34 33  1  0
 34 29  2  0
 35 36  1  0
 36 41  2  0
 36 37  1  0
 37 38  2  0
 38 39  1  0
 39 43  1  0
 40 39  2  0
 41 40  1  0
 42 41  1  0
 44 45  1  0
 45 47  1  0
 45 48  1  0
 46 44  2  0
 49 24  1  0
 49 50  1  0
 51 49  1  0
 53 54  1  0
 53 52  1  0
 55 66  2  0
 56 54  1  0
 56 61  1  0
 57 65  1  0
 57 67  1  0
 58 60  1  0
 59 65  1  0
 60 61  2  0
 60 59  1  0
 62 56  2  0
 63 62  1  0
 63 58  2  0
 64 58  1  0
 64 57  1  0
 65 55  1  0
 67 69  2  0
 68 67  1  0
 70 68  1  0
 71 80  2  0
 71 76  1  0
 72 68  1  0
 72 76  1  0
 73 72  1  0
 74 75  1  0
 74 73  1  0
 75 71  1  0
 76 77  2  0
 77 78  1  0
 79 78  2  0
 80 79  1  0
 81 55  1  0
 81 86  1  0
 81 82  1  0
 82 85  1  1
 82 83  1  0
 84 82  1  0
 86 89  1  0
 87 91  1  0
 87 86  1  0
 88 87  2  0
 91 90  1  0
 93 91  1  0
 93 94  1  0
 93 92  1  0
M  ISO  4  10 100  23 100  53 101  54 101
M  END
>  <TORSDO>  (90) 
F 20

>  <SCORE>  (90) 
-10.500

>  <name>  (90) 
89

>  <ligand_id>  (90) 
89

>  <original_smiles>  (90) 
[H]c1c([H])c([H])c2c(c1[H])C([H])([H])C([H])([H])C([H])([H])C2([H])N([H])C(=O)C1([H])N(C(=O)C([H])(N([H])C(=O)C([H])(N([H])C([H])([H])[H])C([H])([H])[H])C(C([H])([H])[H])(C([H])([H])[H])C([H])([H])[H])C([H])([H])c2c([H])c(OC([H])([H])C([H])([H])c3c([H])c(C([H])([H])C4([H])C([H])([H])C([H])([H])N(C(=O)N5C([H])([H])C([H])([H])C([H])([H])C([H])(n6nc(-c7c([H])c([H])c(Oc8c([H])c([H])c(F)c([H])c8F)c([H])c7[H])c(C(=O)N([H])[H])c6N([H])[H])C5([H])[H])C([H])([H])C4([H])[H])c([H])c([H])c3OC([H])([H])[H])c([H])c([H])c2C1([H])[H]

>  <smiles>  (90) 
[H]c1c([H])c([H])c2c(c1[H])C([H])([H])C([H])([H])C([H])([H])C2([H])N([H])C(=O)C1([H])N(C(=O)C([H])(N([H])C(=O)C([H])(N([H])C([H])([H])[H])C([H])([H])[H])C(C([H])([H])[H])(C([H])([H])[H])C([H])([H])[H])C([H])([H])c2c([H])c(OC([H])([H])C([H])([H])c3c([H])c(C([H])([H])C4([H])C([H])([H])C([H])([H])N(C(=O)N5C([H])([H])C([H])([H])C([H])([H])C([H])(n6nc(-c7c([H])c([H])c(Oc8c([H])c([H])c(F)c([H])c8F)c([H])c7[H])c(C(=O)N([H])[H])c6N([H])[H])C5([H])[H])C([H])([H])C4([H])[H])c([H])c([H])c3OC([H])([H])[H])c([H])c([H])c2C1([H])[H]

$$$$
90:0:0
     RDKit          3D

 91 99  0  0  1  0  0  0  0  0999 V2000
  -29.1510  -22.8030   21.5370 C   0  0  0  0  0  3  0  0  0  0  0  0
  -28.8300  -24.2130   21.5120 C   0  0  0  0  0  3  0  0  0  0  0  0
  -28.1290  -24.0110   19.2670 C   0  0  0  0  0  3  0  0  0  0  0  0
  -29.0150  -21.9180   20.4180 C   0  0  0  0  0  0  0  0  0  0  0  0
  -28.3340  -24.9100   20.3660 C   0  0  0  0  0  0  0  0  0  0  0  0
  -28.4400  -22.5810   19.2790 C   0  0  0  0  0  0  0  0  0  0  0  0
  -27.4280  -22.2640   17.1280 C   0  0  0  0  0  1  0  0  0  0  0  0
  -28.2720  -21.7870   18.1660 O   0  0  0  0  0  0  0  0  0  0  0  0
  -28.3110  -26.3640   20.2790 O   0  0  0  0  0  0  0  0  0  0  0  0
  -24.6190  -31.9460   23.2450 C   0  0  0  0  0  0  0  0  0  0  0  0
  -27.1890  -27.2440   20.2650 C   0  0  0  0  0  0  0  0  0  0  0  0
  -23.4100  -30.5350   21.6220 C   0  0  0  0  0  3  0  0  0  0  0  0
  -24.8490  -28.9410   20.2140 C   0  0  0  0  0  0  0  0  0  0  0  0
  -25.9540  -30.8110   21.4400 C   0  0  0  0  0  2  0  0  0  0  0  0
  -26.0240  -29.4120   20.8130 C   0  0  0  0  0  0  0  0  0  0  0  0
  -27.1920  -28.5760   20.8240 C   0  0  0  0  0  3  0  0  0  0  0  0
  -25.9930  -26.8510   19.6320 C   0  0  0  0  0  3  0  0  0  0  0  0
  -24.8420  -27.6710   19.6100 C   0  0  0  0  0  3  0  0  0  0  0  0
  -23.6220  -29.8370   20.2490 C   0  0  0  0  0  2  0  0  0  0  0  0
  -24.6810  -31.1190   22.1580 N   0  0  0  0  0  0  0  0  0  0  0  0
  -23.5370  -32.2370   23.7760 O   0  0  0  0  0  0  0  0  0  0  0  0
  -22.7350  -29.5400   22.5970 C   0  0  0  0  0  0  0  0  0  0  0  0
  -21.4090  -29.3590   22.4660 N   0  0  0  0  0  0  0  0  0  0  0  0
  -23.4070  -28.9290   23.4320 O   0  0  0  0  0  0  0  0  0  0  0  0
  -20.9250  -29.9020   21.7650 H   0  0  0  0  0  0  0  0  0  0  0  0
  -18.0300  -28.1610   22.9690 C   0  0  0  0  0  0  0  0  0  0  0  0
  -20.5880  -28.4310   23.2460 C   0  0  0  0  0  3  0  0  0  0  0  0
  -20.6950  -26.9920   22.6910 C   0  0  0  0  0  2  0  0  0  0  0  0
  -19.5990  -26.6530   21.6770 C   0  0  0  0  0  2  0  0  0  0  0  0
  -18.2140  -26.8030   22.3130 C   0  0  0  0  0  2  0  0  0  0  0  0
  -19.1460  -28.9320   23.3940 C   0  0  0  0  0  0  0  0  0  0  0  0
  -18.9200  -30.2020   23.9680 C   0  0  0  0  0  3  0  0  0  0  0  0
  -17.6120  -30.7000   24.1240 C   0  0  0  0  0  3  0  0  0  0  0  0
  -16.5130  -29.9260   23.7150 C   0  0  0  0  0  3  0  0  0  0  0  0
  -16.7220  -28.6580   23.1440 C   0  0  0  0  0  3  0  0  0  0  0  0
  -25.9030  -32.5830   23.8620 C   0  0  0  0  0  3  0  0  0  0  0  0
  -26.4170  -31.8220   25.1470 C   0  0  1  0  0  0  0  0  0  0  0  0
  -25.3220  -31.5950   26.2160 C   0  0  0  0  0  1  0  0  0  0  0  0
  -26.9990  -30.4400   24.7700 C   0  0  0  0  0  1  0  0  0  0  0  0
  -27.5670  -32.6210   25.8030 C   0  0  0  0  0  1  0  0  0  0  0  0
  -25.5960  -33.9850   24.1850 N   0  0  0  0  0  0  0  0  0  0  0  0
  -25.9140  -35.0340   23.4130 C   0  0  0  0  0  0  0  0  0  0  0  0
  -26.5640  -34.9220   22.3710 O   0  0  0  0  0  0  0  0  0  0  0  0
  -25.0160  -34.1450   24.9950 H   0  0  0  0  0  0  0  0  0  0  0  0
  -24.1730  -36.8230   23.0870 C   0  0  0  0  0  1  0  0  0  0  0  0
  -25.4360  -36.4260   23.8700 C   0  0  0  0  0  3  0  0  0  0  0  0
  -27.5870  -37.3280   24.6390 C   0  0  0  0  0  1  0  0  0  0  0  0
  -26.4630  -37.4800   23.7190 N   0  0  0  0  0  0  0  0  0  0  0  0
  -26.0580  -38.4010   23.8640 H   0  0  0  0  0  0  0  0  0  0  0  0
  -29.7640  -20.4580   20.3730 C   0  0  0  0  0  3  0  0  0  0  0  0
  -29.1850  -18.9020   20.5010 C   0  0  0  0  0  3  0  0  0  0  0  0
  -31.2600  -17.8230   21.6500 C   0  0  0  0  0  1  0  0  0  0  0  0
  -30.2420  -17.6000   20.5130 C   0  0  0  0  0  3  0  0  0  0  0  0
  -30.5500  -14.9160   20.3300 C   0  0  0  0  0  0  0  0  0  0  0  0
  -30.3830  -12.5990   19.3500 C   0  0  0  0  0  2  0  0  0  0  0  0
  -29.4430  -12.6100   18.1250 C   0  0  0  0  0  2  0  0  0  0  0  0
  -27.9800  -12.4130   18.5660 C   0  0  0  0  0  2  0  0  0  0  0  0
  -27.5930  -13.3130   19.7690 C   0  0  0  0  0  3  0  0  0  0  0  0
  -28.6570  -13.2840   20.8860 C   0  0  0  0  0  2  0  0  0  0  0  0
  -29.9320  -13.6750   20.2730 N   0  0  0  0  0  0  0  0  0  0  0  0
  -31.7400  -14.9790   20.0060 O   0  0  0  0  0  0  0  0  0  0  0  0
  -29.8050  -16.0950   20.5550 N   0  0  0  0  0  0  0  0  0  0  0  0
  -28.8280  -15.9360   20.7580 H   0  0  0  0  0  0  0  0  0  0  0  0
  -25.2150  -13.8790   20.5290 C   0  0  0  0  0  0  0  0  0  0  0  0
  -24.1570  -13.0970   20.9020 C   0  0  0  0  0  0  0  0  0  0  0  0
  -24.6240  -11.7480   20.8510 C   0  0  0  0  0  0  0  0  0  0  0  0
  -26.2590  -13.0080   20.2720 N   0  0  0  0  0  0  0  0  0  0  0  0
  -25.9120  -11.7200   20.5300 N   0  0  0  0  0  0  0  0  0  0  0  0
  -23.9020  -10.4810   21.0290 C   0  0  0  0  0  0  0  0  0  0  0  0
  -24.3240   -9.5160   21.9690 C   0  0  0  0  0  3  0  0  0  0  0  0
  -23.6010   -8.3160   22.1370 C   0  0  0  0  0  3  0  0  0  0  0  0
  -22.4400   -8.0720   21.3650 C   0  0  0  0  0  0  0  0  0  0  0  0
  -22.0360   -9.0260   20.4150 C   0  0  0  0  0  3  0  0  0  0  0  0
  -22.7600  -10.2180   20.2450 C   0  0  0  0  0  3  0  0  0  0  0  0
  -21.6890   -6.9230   21.4430 O   0  0  0  0  0  0  0  0  0  0  0  0
  -21.6030   -6.1970   22.6030 C   0  0  0  0  0  0  0  0  0  0  0  0
  -21.1050   -6.7600   23.7990 C   0  0  0  0  0  3  0  0  0  0  0  0
  -20.9670   -5.9580   24.9500 C   0  0  0  0  0  3  0  0  0  0  0  0
  -21.3190   -4.5950   24.9050 C   0  0  0  0  0  0  0  0  0  0  0  0
  -21.8100   -4.0320   23.7140 C   0  0  0  0  0  3  0  0  0  0  0  0
  -21.9480   -4.8320   22.5650 C   0  0  0  0  0  0  0  0  0  0  0  0
  -22.4030   -4.2800   21.4140 F   0  0  0  0  0  0  0  0  0  0  0  0
  -21.1800   -3.8230   26.0080 F   0  0  0  0  0  0  0  0  0  0  0  0
  -22.7610  -13.5680   21.1890 C   0  0  0  0  0  0  0  0  0  0  0  0
  -22.0390  -12.8600   22.0510 N   0  0  0  0  0  0  0  0  0  0  0  0
  -22.3190  -14.5990   20.6840 O   0  0  0  0  0  0  0  0  0  0  0  0
  -22.4080  -12.0240   22.4790 H   0  0  0  0  0  0  0  0  0  0  0  0
  -21.1030  -13.1560   22.2860 H   0  0  0  0  0  0  0  0  0  0  0  0
  -25.3720  -15.2530   20.3610 N   0  0  0  0  0  0  0  0  0  0  0  0
  -24.6010  -15.9010   20.4800 H   0  0  0  0  0  0  0  0  0  0  0  0
  -26.2050  -15.6930   19.9930 H   0  0  0  0  0  0  0  0  0  0  0  0
  2  1  1  0
  3  6  2  0
  3  5  1  0
  4  1  2  0
  5  2  2  0
  6  4  1  0
  7  8  1  0
  8  6  1  0
  9  5  1  0
 10 21  2  0
 11  9  1  0
 11 16  1  0
 12 20  1  0
 12 22  1  0
 13 19  1  0
 13 15  1  0
 14 20  1  0
 15 16  2  0
 15 14  1  0
 17 11  2  0
 18 17  1  0
 18 13  2  0
 19 12  1  0
 20 10  1  0
 22 24  2  0
 23 22  1  0
 25 23  1  0
 26 35  2  0
 26 31  1  0
 27 23  1  0
 27 31  1  0
 28 27  1  0
 29 30  1  0
 29 28  1  0
 30 26  1  0
 31 32  2  0
 32 33  1  0
 34 33  2  0
 35 34  1  0
 36 10  1  0
 36 41  1  0
 36 37  1  0
 37 40  1  1
 37 38  1  0
 39 37  1  0
 41 44  1  0
 42 46  1  0
 42 41  1  0
 43 42  2  0
 46 45  1  0
 48 49  1  0
 48 46  1  0
 48 47  1  0
 50  4  1  0
 50 51  2  0
 51 53  1  0
 53 62  1  0
 53 52  1  0
 54 62  1  0
 55 60  1  0
 56 57  1  0
 56 55  1  0
 58 57  1  0
 58 67  1  0
 58 59  1  0
 60 54  1  0
 60 59  1  0
 61 54  2  0
 62 63  1  0
 64 65  2  0
 65 84  1  0
 66 65  1  0
 66 69  1  0
 67 64  1  0
 67 68  1  0
 68 66  2  0
 69 70  1  0
 70 71  2  0
 72 75  1  0
 72 71  1  0
 73 72  2  0
 74 73  1  0
 74 69  2  0
 75 76  1  0
 76 77  1  0
 77 78  2  0
 79 78  1  0
 79 83  1  0
 80 79  2  0
 81 76  2  0
 81 80  1  0
 82 81  1  0
 84 85  1  0
 85 88  1  0
 85 87  1  0
 86 84  2  0
 89 90  1  0
 89 64  1  0
 91 89  1  0
M  ISO  4   5 101   9 101  54 100  62 100
M  END
>  <TORSDO>  (91) 
F 20

>  <SCORE>  (91) 
-13.363

>  <name>  (91) 
90

>  <ligand_id>  (91) 
90

>  <original_smiles>  (91) 
[H]c1c([H])c([H])c2c(c1[H])C([H])([H])C([H])([H])C([H])([H])C2([H])N([H])C(=O)C1([H])N(C(=O)C([H])(N([H])C(=O)C([H])(N([H])C([H])([H])[H])C([H])([H])[H])C(C([H])([H])[H])(C([H])([H])[H])C([H])([H])[H])C([H])([H])c2c([H])c(Oc3c([H])c([H])c(C([H])([H])C([H])([H])C([H])(N([H])C(=O)N4C([H])([H])C([H])([H])C([H])([H])C([H])(n5nc(-c6c([H])c([H])c(Oc7c([H])c([H])c(F)c([H])c7F)c([H])c6[H])c(C(=O)N([H])[H])c5N([H])[H])C4([H])[H])C([H])([H])[H])c(OC([H])([H])[H])c3[H])c([H])c([H])c2C1([H])[H]

>  <smiles>  (91) 
[H]c1c([H])c([H])c2c(c1[H])C([H])([H])C([H])([H])C([H])([H])C2([H])N([H])C(=O)C1([H])N(C(=O)C([H])(N([H])C(=O)C([H])(N([H])C([H])([H])[H])C([H])([H])[H])C(C([H])([H])[H])(C([H])([H])[H])C([H])([H])[H])C([H])([H])c2c([H])c(Oc3c([H])c([H])c(C([H])([H])C([H])([H])C([H])(N([H])C(=O)N4C([H])([H])C([H])([H])C([H])([H])C([H])(n5nc(-c6c([H])c([H])c(Oc7c([H])c([H])c(F)c([H])c7F)c([H])c6[H])c(C(=O)N([H])[H])c5N([H])[H])C4([H])[H])C([H])([H])[H])c(OC([H])([H])[H])c3[H])c([H])c([H])c2C1([H])[H]

$$$$
91:0:0
     RDKit          3D

 93101  0  0  1  0  0  0  0  0999 V2000
  -26.1440  -22.5110   21.3520 C   0  0  0  0  0  3  0  0  0  0  0  0
  -27.3380  -24.5730   21.3440 C   0  0  0  0  0  3  0  0  0  0  0  0
  -27.2040  -21.8740   20.6810 C   0  0  0  0  0  0  0  0  0  0  0  0
  -28.4270  -24.0210   20.6270 C   0  0  0  0  0  0  0  0  0  0  0  0
  -28.4900  -22.4890   20.4790 C   0  0  0  0  0  0  0  0  0  0  0  0
  -26.2090  -23.8430   21.7430 C   0  0  0  0  0  0  0  0  0  0  0  0
  -26.7990  -20.5380   20.0790 C   0  0  0  0  0  1  0  0  0  0  0  0
  -25.0670  -25.7810   22.6100 C   0  0  0  0  0  1  0  0  0  0  0  0
  -25.1150  -24.3730   22.3950 O   0  0  0  0  0  0  0  0  0  0  0  0
  -29.7240  -21.3840   20.1930 C   0  0  0  0  0  3  0  0  0  0  0  0
  -29.6200  -19.6540   20.3310 C   0  0  0  0  0  3  0  0  0  0  0  0
  -31.8970  -18.7910   21.2620 C   0  0  0  0  0  1  0  0  0  0  0  0
  -30.7950  -18.4180   20.2590 C   0  0  0  0  0  3  0  0  0  0  0  0
  -31.2660  -15.6470   20.2870 C   0  0  0  0  0  0  0  0  0  0  0  0
  -31.1870  -13.2580   19.4140 C   0  0  0  0  0  2  0  0  0  0  0  0
  -30.2790  -13.1580   18.1650 C   0  0  0  0  0  2  0  0  0  0  0  0
  -28.8110  -12.9420   18.5790 C   0  0  0  0  0  2  0  0  0  0  0  0
  -28.3740  -13.9020   19.7160 C   0  0  0  0  0  3  0  0  0  0  0  0
  -29.4060  -13.9620   20.8620 C   0  0  0  0  0  2  0  0  0  0  0  0
  -30.6790  -14.3770   20.2640 N   0  0  0  0  0  0  0  0  0  0  0  0
  -32.4710  -15.6920   20.0100 O   0  0  0  0  0  0  0  0  0  0  0  0
  -30.4900  -16.8500   20.4240 N   0  0  0  0  0  0  0  0  0  0  0  0
  -29.5220  -16.6520   20.6300 H   0  0  0  0  0  0  0  0  0  0  0  0
  -26.0010  -14.4960   20.4580 C   0  0  0  0  0  0  0  0  0  0  0  0
  -24.9230  -13.7290   20.8030 C   0  0  0  0  0  0  0  0  0  0  0  0
  -25.3660  -12.3720   20.7380 C   0  0  0  0  0  0  0  0  0  0  0  0
  -27.0310  -13.6090   20.1980 N   0  0  0  0  0  0  0  0  0  0  0  0
  -26.6590  -12.3240   20.4340 N   0  0  0  0  0  0  0  0  0  0  0  0
  -24.6180  -11.1160   20.8880 C   0  0  0  0  0  0  0  0  0  0  0  0
  -24.9600  -10.1650   21.8740 C   0  0  0  0  0  3  0  0  0  0  0  0
  -24.2120   -8.9770   22.0120 C   0  0  0  0  0  3  0  0  0  0  0  0
  -23.1080   -8.7300   21.1630 C   0  0  0  0  0  0  0  0  0  0  0  0
  -22.7840   -9.6710   20.1680 C   0  0  0  0  0  3  0  0  0  0  0  0
  -23.5330  -10.8500   20.0290 C   0  0  0  0  0  3  0  0  0  0  0  0
  -22.3390   -7.5920   21.2080 O   0  0  0  0  0  0  0  0  0  0  0  0
  -22.0600   -6.9570   22.3920 C   0  0  0  0  0  0  0  0  0  0  0  0
  -21.3910   -7.6120   23.4490 C   0  0  0  0  0  3  0  0  0  0  0  0
  -21.0640   -6.9020   24.6210 C   0  0  0  0  0  3  0  0  0  0  0  0
  -21.3940   -5.5390   24.7350 C   0  0  0  0  0  0  0  0  0  0  0  0
  -22.0550   -4.8840   23.6820 C   0  0  0  0  0  3  0  0  0  0  0  0
  -22.3840   -5.5910   22.5120 C   0  0  0  0  0  0  0  0  0  0  0  0
  -23.0030   -4.9490   21.4910 F   0  0  0  0  0  0  0  0  0  0  0  0
  -21.0720   -4.8540   25.8570 F   0  0  0  0  0  0  0  0  0  0  0  0
  -23.5310  -14.2210   21.0740 C   0  0  0  0  0  0  0  0  0  0  0  0
  -22.7950  -13.5320   21.9370 N   0  0  0  0  0  0  0  0  0  0  0  0
  -23.1090  -15.2550   20.5570 O   0  0  0  0  0  0  0  0  0  0  0  0
  -23.1490  -12.6960   22.3780 H   0  0  0  0  0  0  0  0  0  0  0  0
  -21.8610  -13.8470   22.1610 H   0  0  0  0  0  0  0  0  0  0  0  0
  -26.1850  -15.8690   20.3170 N   0  0  0  0  0  0  0  0  0  0  0  0
  -25.4190  -16.5240   20.4290 H   0  0  0  0  0  0  0  0  0  0  0  0
  -27.0250  -16.3030   19.9570 H   0  0  0  0  0  0  0  0  0  0  0  0
  -29.2290  -25.3010   19.9940 C   0  0  0  0  0  2  0  0  0  0  0  0
  -29.0270  -26.8120   20.4080 O   0  0  0  0  0  0  0  0  0  0  0  0
  -24.8720  -32.0950   23.3960 C   0  0  0  0  0  0  0  0  0  0  0  0
  -27.8800  -27.6840   20.2910 C   0  0  0  0  0  0  0  0  0  0  0  0
  -23.8270  -30.6740   21.6720 C   0  0  0  0  0  3  0  0  0  0  0  0
  -25.4270  -29.2540   20.2360 C   0  0  0  0  0  0  0  0  0  0  0  0
  -26.3530  -31.1300   21.5940 C   0  0  0  0  0  2  0  0  0  0  0  0
  -26.5470  -29.7680   20.9000 C   0  0  0  0  0  0  0  0  0  0  0  0
  -27.7690  -28.9980   20.9100 C   0  0  0  0  0  3  0  0  0  0  0  0
  -26.7310  -27.2670   19.5920 C   0  0  0  0  0  3  0  0  0  0  0  0
  -25.5310  -28.0210   19.5680 C   0  0  0  0  0  3  0  0  0  0  0  0
  -24.1350  -30.0600   20.2790 C   0  0  0  0  0  2  0  0  0  0  0  0
  -25.0350  -31.3220   22.2780 N   0  0  0  0  0  0  0  0  0  0  0  0
  -23.7540  -32.2830   23.8990 O   0  0  0  0  0  0  0  0  0  0  0  0
  -23.1960  -29.5890   22.5800 C   0  0  0  0  0  0  0  0  0  0  0  0
  -21.8890  -29.3280   22.4060 N   0  0  0  0  0  0  0  0  0  0  0  0
  -23.8890  -28.9830   23.4030 O   0  0  0  0  0  0  0  0  0  0  0  0
  -21.3810  -29.8770   21.7260 H   0  0  0  0  0  0  0  0  0  0  0  0
  -18.5800  -27.9060   22.8010 C   0  0  0  0  0  0  0  0  0  0  0  0
  -21.1160  -28.3060   23.1180 C   0  0  0  0  0  3  0  0  0  0  0  0
  -21.3080  -26.9120   22.4750 C   0  0  0  0  0  2  0  0  0  0  0  0
  -20.2410  -26.5810   21.4270 C   0  0  0  0  0  2  0  0  0  0  0  0
  -18.8440  -26.6100   22.0540 C   0  0  0  0  0  2  0  0  0  0  0  0
  -19.6460  -28.7110   23.2840 C   0  0  0  0  0  0  0  0  0  0  0  0
  -19.3430  -29.9240   23.9390 C   0  0  0  0  0  3  0  0  0  0  0  0
  -18.0090  -30.3360   24.1150 C   0  0  0  0  0  3  0  0  0  0  0  0
  -16.9580  -29.5290   23.6480 C   0  0  0  0  0  3  0  0  0  0  0  0
  -17.2430  -28.3160   22.9970 C   0  0  0  0  0  3  0  0  0  0  0  0
  -26.0810  -32.8000   24.0860 C   0  0  0  0  0  3  0  0  0  0  0  0
  -25.6990  -34.1970   24.3460 N   0  0  0  0  0  0  0  0  0  0  0  0
  -26.0340  -35.2400   23.5750 C   0  0  0  0  0  0  0  0  0  0  0  0
  -26.7650  -35.1300   22.5880 O   0  0  0  0  0  0  0  0  0  0  0  0
  -25.0530  -34.3530   25.1060 H   0  0  0  0  0  0  0  0  0  0  0  0
  -24.2570  -36.9550   23.0790 C   0  0  0  0  0  1  0  0  0  0  0  0
  -25.4740  -36.6240   23.9600 C   0  0  0  0  0  3  0  0  0  0  0  0
  -27.5270  -37.6280   24.8610 C   0  0  0  0  0  1  0  0  0  0  0  0
  -26.4690  -37.7130   23.8570 N   0  0  0  0  0  0  0  0  0  0  0  0
  -26.0200  -38.6210   23.9480 H   0  0  0  0  0  0  0  0  0  0  0  0
  -26.5280  -32.0940   25.4270 C   0  0  1  0  0  0  0  0  0  0  0  0
  -25.3630  -31.8240   26.4080 C   0  0  0  0  0  1  0  0  0  0  0  0
  -27.2160  -30.7410   25.1310 C   0  0  0  0  0  1  0  0  0  0  0  0
  -27.5730  -32.9700   26.1550 C   0  0  0  0  0  1  0  0  0  0  0  0
  1  6  1  0
  2  6  2  0
  3  1  2  0
  4  2  1  0
  5  4  2  0
  5  3  1  0
  6  9  1  0
  7  3  1  0
  9  8  1  0
 10 11  2  0
 10  5  1  0
 13 11  1  0
 13 22  1  0
 13 12  1  0
 14 22  1  0
 15 20  1  0
 16 17  1  0
 16 15  1  0
 18 17  1  0
 18 27  1  0
 18 19  1  0
 20 14  1  0
 20 19  1  0
 21 14  2  0
 22 23  1  0
 24 25  2  0
 25 44  1  0
 26 25  1  0
 26 29  1  0
 27 28  1  0
 27 24  1  0
 28 26  2  0
 29 30  1  0
 30 31  2  0
 32 35  1  0
 32 31  1  0
 33 32  2  0
 34 33  1  0
 34 29  2  0
 35 36  1  0
 36 41  2  0
 36 37  1  0
 37 38  2  0
 38 39  1  0
 39 43  1  0
 40 39  2  0
 41 40  1  0
 42 41  1  0
 44 45  1  0
 45 48  1  0
 45 47  1  0
 46 44  2  0
 49 50  1  0
 49 24  1  0
 51 49  1  0
 52 53  1  0
 52  4  1  0
 54 65  2  0
 55 53  1  0
 55 60  1  0
 56 64  1  0
 56 66  1  0
 57 63  1  0
 57 59  1  0
 58 64  1  0
 59 60  2  0
 59 58  1  0
 61 55  2  0
 62 61  1  0
 62 57  2  0
 63 56  1  0
 64 54  1  0
 66 68  2  0
 67 66  1  0
 69 67  1  0
 70 79  2  0
 70 75  1  0
 71 67  1  0
 71 75  1  0
 72 71  1  0
 73 74  1  0
 73 72  1  0
 74 70  1  0
 75 76  2  0
 76 77  1  0
 78 77  2  0
 79 78  1  0
 80 54  1  0
 80 81  1  0
 80 90  1  0
 81 84  1  0
 82 86  1  0
 82 81  1  0
 83 82  2  0
 86 85  1  0
 88 89  1  0
 88 86  1  0
 88 87  1  0
 90 93  1  1
 90 91  1  0
 92 90  1  0
M  ISO  4  14 100  22 100  52 101  53 101
M  END
>  <TORSDO>  (92) 
F 21

>  <SCORE>  (92) 
-11.099

>  <name>  (92) 
91

>  <ligand_id>  (92) 
91

>  <original_smiles>  (92) 
[H]c1c([H])c([H])c2c(c1[H])C([H])([H])C([H])([H])C([H])([H])C2([H])N([H])C(=O)C1([H])N(C(=O)C([H])(N([H])C(=O)C([H])(N([H])C([H])([H])[H])C([H])([H])[H])C(C([H])([H])[H])(C([H])([H])[H])C([H])([H])[H])C([H])([H])c2c([H])c(OC([H])([H])c3c([H])c(OC([H])([H])[H])c([H])c(C([H])([H])[H])c3C([H])([H])C([H])([H])C([H])(N([H])C(=O)N3C([H])([H])C([H])([H])C([H])([H])C([H])(n4nc(-c5c([H])c([H])c(Oc6c([H])c([H])c(F)c([H])c6F)c([H])c5[H])c(C(=O)N([H])[H])c4N([H])[H])C3([H])[H])C([H])([H])[H])c([H])c([H])c2C1([H])[H]

>  <smiles>  (92) 
[H]c1c([H])c([H])c2c(c1[H])C([H])([H])C([H])([H])C([H])([H])C2([H])N([H])C(=O)C1([H])N(C(=O)C([H])(N([H])C(=O)C([H])(N([H])C([H])([H])[H])C([H])([H])[H])C(C([H])([H])[H])(C([H])([H])[H])C([H])([H])[H])C([H])([H])c2c([H])c(OC([H])([H])c3c([H])c(OC([H])([H])[H])c([H])c(C([H])([H])[H])c3C([H])([H])C([H])([H])C([H])(N([H])C(=O)N3C([H])([H])C([H])([H])C([H])([H])C([H])(n4nc(-c5c([H])c([H])c(Oc6c([H])c([H])c(F)c([H])c6F)c([H])c5[H])c(C(=O)N([H])[H])c4N([H])[H])C3([H])[H])C([H])([H])[H])c([H])c([H])c2C1([H])[H]

$$$$
92:0:0
     RDKit          3D

109119  0  0  1  0  0  0  0  0999 V2000
  -27.5530  -18.5590   19.6200 C   0  0  0  0  0  0  0  0  0  0  0  0
  -27.3800  -17.7240   18.7260 O   0  0  0  0  0  0  0  0  0  0  0  0
  -26.7360  -20.5430   20.8650 C   0  0  0  0  0  3  0  0  0  0  0  0
  -26.6870  -19.7640   19.7550 C   0  0  0  0  0  0  0  0  0  0  0  0
  -25.9410  -21.7580   21.1020 C   0  0  0  0  0  0  0  0  0  0  0  0
  -25.1790  -22.2380   20.2600 O   0  0  0  0  0  0  0  0  0  0  0  0
  -26.1220  -22.3910   22.4940 C   0  0  0  0  0  2  0  0  0  0  0  0
  -26.0290  -24.1900   24.2270 C   0  0  0  0  0  1  0  0  0  0  0  0
  -24.1640  -24.0530   22.6140 C   0  0  0  0  0  1  0  0  0  0  0  0
  -25.6910  -23.8650   22.7580 C   0  0  2  0  0  0  0  0  0  0  0  0
  -26.4060  -24.8820   21.8260 C   0  0  0  0  0  2  0  0  0  0  0  0
  -27.9480  -24.7870   21.6840 C   0  0  0  0  0  2  0  0  0  0  0  0
  -28.6790  -26.1130   21.3420 C   0  0  0  0  0  2  0  0  0  0  0  0
  -28.3370  -26.6620   20.0670 O   0  0  0  0  0  0  0  0  0  0  0  0
  -24.6110  -31.8700   23.2130 C   0  0  0  0  0  0  0  0  0  0  0  0
  -27.2190  -27.4570   20.0770 C   0  0  0  0  0  0  0  0  0  0  0  0
  -23.4020  -30.4940   21.5550 C   0  0  0  0  0  3  0  0  0  0  0  0
  -24.8440  -28.9690   20.1100 C   0  0  0  0  0  0  0  0  0  0  0  0
  -25.9310  -30.8320   21.3760 C   0  0  0  0  0  2  0  0  0  0  0  0
  -26.0000  -29.4700   20.7190 C   0  0  0  0  0  0  0  0  0  0  0  0
  -27.1910  -28.7110   20.7210 C   0  0  0  0  0  3  0  0  0  0  0  0
  -26.0670  -26.9860   19.4210 C   0  0  0  0  0  3  0  0  0  0  0  0
  -24.8710  -27.7210   19.4640 C   0  0  0  0  0  3  0  0  0  0  0  0
  -23.6060  -29.8320   20.1680 C   0  0  0  0  0  2  0  0  0  0  0  0
  -24.6660  -31.0780   22.1060 N   0  0  0  0  0  0  0  0  0  0  0  0
  -23.5320  -32.1460   23.7540 O   0  0  0  0  0  0  0  0  0  0  0  0
  -22.7430  -29.4670   22.5000 C   0  0  0  0  0  0  0  0  0  0  0  0
  -21.4150  -29.3110   22.3730 N   0  0  0  0  0  0  0  0  0  0  0  0
  -23.4170  -28.8170   23.3040 O   0  0  0  0  0  0  0  0  0  0  0  0
  -20.9340  -29.8840   21.6930 H   0  0  0  0  0  0  0  0  0  0  0  0
  -18.0330  -28.1340   22.8520 C   0  0  0  0  0  0  0  0  0  0  0  0
  -20.5880  -28.3750   23.1320 C   0  0  0  0  0  3  0  0  0  0  0  0
  -20.6900  -26.9460   22.5540 C   0  0  0  0  0  2  0  0  0  0  0  0
  -19.5930  -26.6340   21.5350 C   0  0  0  0  0  2  0  0  0  0  0  0
  -18.2100  -26.7820   22.1800 C   0  0  0  0  0  2  0  0  0  0  0  0
  -19.1550  -28.8900   23.2840 C   0  0  0  0  0  0  0  0  0  0  0  0
  -18.9450  -30.1560   23.8720 C   0  0  0  0  0  3  0  0  0  0  0  0
  -17.6430  -30.6630   24.0390 C   0  0  0  0  0  3  0  0  0  0  0  0
  -16.5340  -29.8990   23.6310 C   0  0  0  0  0  3  0  0  0  0  0  0
  -16.7310  -28.6370   23.0400 C   0  0  0  0  0  3  0  0  0  0  0  0
  -25.9040  -32.4830   23.8430 C   0  0  0  0  0  3  0  0  0  0  0  0
  -25.5940  -33.8640   24.2380 N   0  0  0  0  0  0  0  0  0  0  0  0
  -25.9040  -34.9480   23.5150 C   0  0  0  0  0  0  0  0  0  0  0  0
  -26.5570  -34.8910   22.4700 O   0  0  0  0  0  0  0  0  0  0  0  0
  -25.0150  -33.9800   25.0550 H   0  0  0  0  0  0  0  0  0  0  0  0
  -24.1480  -36.7280   23.2650 C   0  0  0  0  0  1  0  0  0  0  0  0
  -25.4110  -36.3120   24.0340 C   0  0  0  0  0  3  0  0  0  0  0  0
  -27.5590  -37.1810   24.8470 C   0  0  0  0  0  1  0  0  0  0  0  0
  -26.4310  -37.3800   23.9410 N   0  0  0  0  0  0  0  0  0  0  0  0
  -26.0200  -38.2870   24.1430 H   0  0  0  0  0  0  0  0  0  0  0  0
  -26.4490  -31.6610   25.0740 C   0  0  1  0  0  0  0  0  0  0  0  0
  -25.3760  -31.3720   26.1470 C   0  0  0  0  0  1  0  0  0  0  0  0
  -27.0370  -30.3070   24.6120 C   0  0  0  0  0  1  0  0  0  0  0  0
  -27.6100  -32.4310   25.7470 C   0  0  0  0  0  1  0  0  0  0  0  0
  -25.8660  -20.0280   18.7200 O   0  0  0  0  0  0  0  0  0  0  0  0
  -25.4030  -20.8340   18.9320 H   0  0  0  0  0  0  0  0  0  0  0  0
  -28.7180  -18.3700   20.6070 C   0  0  0  0  0  2  0  0  0  0  0  0
  -29.4040  -16.9850   20.6650 C   0  0  0  0  0  2  0  0  0  0  0  0
  -32.6790  -15.4070   23.7620 C   0  0  0  0  0  0  0  0  0  0  0  0
  -33.1520  -16.6010   24.5860 C   0  0  0  0  0  2  0  0  0  0  0  0
  -32.8720  -17.8090   23.6810 C   0  0  0  0  0  2  0  0  0  0  0  0
  -28.2990  -15.9300   22.7420 C   0  0  0  0  0  2  0  0  0  0  0  0
  -27.5820  -16.9630   23.6250 C   0  0  0  0  0  2  0  0  0  0  0  0
  -29.9620  -17.2880   24.5090 C   0  0  0  0  0  2  0  0  0  0  0  0
  -32.0550  -15.8490   22.4410 C   0  0  0  0  0  3  0  0  0  0  0  0
  -30.6830  -15.1980   22.0590 C   0  0  0  0  0  3  0  0  0  0  0  0
  -31.8270  -17.3430   22.6510 C   0  0  0  0  0  3  0  0  0  0  0  0
  -30.3340  -17.4720   23.0130 C   0  0  0  0  0  3  0  0  0  0  0  0
  -29.6450  -16.4000   22.1020 C   0  0  1  0  0  0  0  0  0  0  0  0
  -28.4500  -17.4830   24.8000 C   0  0  1  0  0  0  0  0  0  0  0  0
  -28.1300  -18.9750   25.0300 C   0  0  0  0  0  1  0  0  0  0  0  0
  -28.0950  -16.7070   26.0860 C   0  0  0  0  0  1  0  0  0  0  0  0
  -32.8080  -14.2330   24.1110 O   0  0  0  0  0  0  0  0  0  0  0  0
  -30.8170  -14.3670   20.7380 C   0  0  0  0  0  0  0  0  0  0  0  0
  -30.4190  -12.3280   19.3900 C   0  0  0  0  0  2  0  0  0  0  0  0
  -29.4790  -12.5610   18.1910 C   0  0  0  0  0  2  0  0  0  0  0  0
  -28.0050  -12.4180   18.6080 C   0  0  0  0  0  2  0  0  0  0  0  0
  -27.6760  -13.2070   19.9010 C   0  0  0  0  0  3  0  0  0  0  0  0
  -28.7290  -12.9380   21.0070 C   0  0  0  0  0  2  0  0  0  0  0  0
  -30.0630  -13.2560   20.4770 N   0  0  0  0  0  0  0  0  0  0  0  0
  -31.7400  -14.6720   19.9780 O   0  0  0  0  0  0  0  0  0  0  0  0
  -25.2650  -13.8150   20.5740 C   0  0  0  0  0  0  0  0  0  0  0  0
  -24.1880  -13.0450   20.9230 C   0  0  0  0  0  0  0  0  0  0  0  0
  -24.6390  -11.6900   20.8750 C   0  0  0  0  0  0  0  0  0  0  0  0
  -26.3120  -12.9320   20.3530 N   0  0  0  0  0  0  0  0  0  0  0  0
  -25.9330  -11.6470   20.5750 N   0  0  0  0  0  0  0  0  0  0  0  0
  -23.9030  -10.4290   21.0400 C   0  0  0  0  0  0  0  0  0  0  0  0
  -24.3560   -9.4200   21.9210 C   0  0  0  0  0  3  0  0  0  0  0  0
  -23.6270   -8.2210   22.0750 C   0  0  0  0  0  3  0  0  0  0  0  0
  -22.4260   -8.0240   21.3530 C   0  0  0  0  0  0  0  0  0  0  0  0
  -21.9890   -9.0220   20.4630 C   0  0  0  0  0  3  0  0  0  0  0  0
  -22.7190  -10.2130   20.3070 C   0  0  0  0  0  3  0  0  0  0  0  0
  -21.6620   -6.8840   21.4250 O   0  0  0  0  0  0  0  0  0  0  0  0
  -21.6840   -6.0710   22.5290 C   0  0  0  0  0  0  0  0  0  0  0  0
  -21.3990   -6.5620   23.8220 C   0  0  0  0  0  3  0  0  0  0  0  0
  -21.3690   -5.6790   24.9190 C   0  0  0  0  0  3  0  0  0  0  0  0
  -21.6080   -4.3050   24.7260 C   0  0  0  0  0  0  0  0  0  0  0  0
  -21.8790   -3.8130   23.4380 C   0  0  0  0  0  3  0  0  0  0  0  0
  -21.9160   -4.6930   22.3420 C   0  0  0  0  0  0  0  0  0  0  0  0
  -22.1640   -4.2100   21.1000 F   0  0  0  0  0  0  0  0  0  0  0  0
  -21.5650   -3.4550   25.7780 F   0  0  0  0  0  0  0  0  0  0  0  0
  -22.7890  -13.5270   21.1850 C   0  0  0  0  0  0  0  0  0  0  0  0
  -22.0450  -12.8320   22.0410 N   0  0  0  0  0  0  0  0  0  0  0  0
  -22.3610  -14.5590   20.6670 O   0  0  0  0  0  0  0  0  0  0  0  0
  -22.3940  -11.9980   22.4900 H   0  0  0  0  0  0  0  0  0  0  0  0
  -21.1080  -13.1470   22.2480 H   0  0  0  0  0  0  0  0  0  0  0  0
  -25.4410  -15.1840   20.4020 N   0  0  0  0  0  0  0  0  0  0  0  0
  -24.6910  -15.8550   20.5150 H   0  0  0  0  0  0  0  0  0  0  0  0
  -26.2900  -15.6040   20.0480 H   0  0  0  0  0  0  0  0  0  0  0  0
  1  4  1  0
  1 57  1  0
  2  1  2  0
  3  5  1  0
  4  3  2  0
  5  7  1  0
  6  5  2  0
  7 10  1  0
 10  9  1  1
 10  8  1  0
 11 10  1  0
 12 11  1  0
 13 12  1  0
 14 16  1  0
 14 13  1  0
 15 26  2  0
 16 21  1  0
 17 25  1  0
 17 27  1  0
 18 24  1  0
 18 20  1  0
 19 25  1  0
 20 21  2  0
 20 19  1  0
 22 23  1  0
 22 16  2  0
 23 18  2  0
 24 17  1  0
 25 15  1  0
 27 29  2  0
 28 27  1  0
 30 28  1  0
 31 40  2  0
 31 36  1  0
 32 28  1  0
 32 36  1  0
 33 32  1  0
 34 35  1  0
 34 33  1  0
 35 31  1  0
 36 37  2  0
 37 38  1  0
 39 38  2  0
 40 39  1  0
 41 15  1  0
 41 42  1  0
 41 51  1  0
 42 45  1  0
 43 47  1  0
 43 42  1  0
 44 43  2  0
 47 46  1  0
 49 47  1  0
 49 50  1  0
 49 48  1  0
 51 54  1  1
 51 52  1  0
 53 51  1  0
 55 56  1  0
 55  4  1  0
 57 58  1  0
 59 73  2  0
 59 60  1  0
 61 60  1  0
 62 63  1  0
 63 70  1  0
 64 70  1  0
 65 67  1  0
 65 59  1  0
 66 74  1  0
 66 69  1  0
 66 65  1  0
 67 68  1  0
 67 61  1  0
 68 64  1  0
 69 58  1  6
 69 62  1  0
 69 68  1  0
 70 71  1  1
 70 72  1  0
 75 80  1  0
 76 77  1  0
 76 75  1  0
 78 77  1  0
 78 85  1  0
 78 79  1  0
 80 74  1  0
 80 79  1  0
 81 74  2  0
 82 83  2  0
 83102  1  0
 84 83  1  0
 84 87  1  0
 85 82  1  0
 85 86  1  0
 86 84  2  0
 87 88  1  0
 88 89  2  0
 90 93  1  0
 90 89  1  0
 91 90  2  0
 92 91  1  0
 92 87  2  0
 93 94  1  0
 94 95  1  0
 95 96  2  0
 97 96  1  0
 97101  1  0
 98 97  2  0
 99 94  2  0
 99 98  1  0
100 99  1  0
102103  1  0
103106  1  0
103105  1  0
104102  2  0
107108  1  0
107 82  1  0
109107  1  0
M  ISO  4  13 101  14 101  66 100  74 100
M  END
>  <TORSDO>  (93) 
F 27

>  <SCORE>  (93) 
53.528

>  <name>  (93) 
92

>  <ligand_id>  (93) 
92

>  <original_smiles>  (93) 
[H]OC(C(=O)C([H])([H])C([H])([H])C12C([H])([H])C([H])([H])C(C([H])([H])[H])(C([H])([H])[H])C([H])([H])C1([H])C1([H])C([H])([H])C([H])([H])C(=O)C1([H])C2([H])C(=O)N1C([H])([H])C([H])([H])C([H])([H])C([H])(n2nc(-c3c([H])c([H])c(Oc4c([H])c([H])c(F)c([H])c4F)c([H])c3[H])c(C(=O)N([H])[H])c2N([H])[H])C1([H])[H])=C([H])C(=O)C([H])([H])C(C([H])([H])[H])(C([H])([H])[H])C([H])([H])C([H])([H])C([H])([H])Oc1c([H])c([H])c2c(c1[H])C([H])([H])N(C(=O)C([H])(N([H])C(=O)C([H])(N([H])C([H])([H])[H])C([H])([H])[H])C(C([H])([H])[H])(C([H])([H])[H])C([H])([H])[H])C([H])(C(=O)N([H])C1([H])c3c([H])c([H])c([H])c([H])c3C([H])([H])C([H])([H])C1([H])[H])C2([H])[H]

>  <smiles>  (93) 
[H]OC(C(=O)C([H])([H])C([H])([H])C12C([H])([H])C([H])([H])C(C([H])([H])[H])(C([H])([H])[H])C([H])([H])C1([H])C1([H])C([H])([H])C([H])([H])C(=O)C1([H])C2([H])C(=O)N1C([H])([H])C([H])([H])C([H])([H])C([H])(n2nc(-c3c([H])c([H])c(Oc4c([H])c([H])c(F)c([H])c4F)c([H])c3[H])c(C(=O)N([H])[H])c2N([H])[H])C1([H])[H])=C([H])C(=O)C([H])([H])C(C([H])([H])[H])(C([H])([H])[H])C([H])([H])C([H])([H])C([H])([H])Oc1c([H])c([H])c2c(c1[H])C([H])([H])N(C(=O)C([H])(N([H])C(=O)C([H])(N([H])C([H])([H])[H])C([H])([H])[H])C(C([H])([H])[H])(C([H])([H])[H])C([H])([H])[H])C([H])(C(=O)N([H])C1([H])c3c([H])c([H])c([H])c([H])c3C([H])([H])C([H])([H])C1([H])[H])C2([H])[H]

$$$$
93:0:0
     RDKit          3D

 90 98  0  0  1  0  0  0  0  0999 V2000
  -28.5700  -22.6520   19.1620 C   0  0  0  0  0  3  0  0  0  0  0  0
  -28.2290  -24.0590   19.0700 C   0  0  0  0  0  3  0  0  0  0  0  0
  -29.1710  -24.4120   21.2000 C   0  0  0  0  0  3  0  0  0  0  0  0
  -29.2620  -22.0440   20.2640 C   0  0  0  0  0  0  0  0  0  0  0  0
  -28.5360  -25.0310   20.0760 C   0  0  0  0  0  0  0  0  0  0  0  0
  -29.5100  -23.0060   21.3120 C   0  0  0  0  0  0  0  0  0  0  0  0
  -29.7900  -21.4730   23.1140 C   0  0  0  0  0  1  0  0  0  0  0  0
  -30.1910  -22.6700   22.4590 O   0  0  0  0  0  0  0  0  0  0  0  0
  -28.4760  -26.4760   19.8980 O   0  0  0  0  0  0  0  0  0  0  0  0
  -24.7140  -31.8820   23.1070 C   0  0  0  0  0  0  0  0  0  0  0  0
  -27.3380  -27.3340   19.9330 C   0  0  0  0  0  0  0  0  0  0  0  0
  -23.5130  -30.5080   21.4440 C   0  0  0  0  0  3  0  0  0  0  0  0
  -24.9680  -28.9880   19.9700 C   0  0  0  0  0  0  0  0  0  0  0  0
  -26.0530  -30.8340   21.2510 C   0  0  0  0  0  2  0  0  0  0  0  0
  -26.1400  -29.4600   20.5730 C   0  0  0  0  0  0  0  0  0  0  0  0
  -27.3240  -28.6450   20.5400 C   0  0  0  0  0  3  0  0  0  0  0  0
  -26.1410  -26.9400   19.3020 C   0  0  0  0  0  3  0  0  0  0  0  0
  -24.9750  -27.7400   19.3230 C   0  0  0  0  0  3  0  0  0  0  0  0
  -23.7250  -29.8620   20.0480 C   0  0  0  0  0  2  0  0  0  0  0  0
  -24.7800  -31.0950   21.9900 N   0  0  0  0  0  0  0  0  0  0  0  0
  -23.6310  -32.1340   23.6570 O   0  0  0  0  0  0  0  0  0  0  0  0
  -22.8660  -29.4670   22.3900 C   0  0  0  0  0  0  0  0  0  0  0  0
  -21.5410  -29.2710   22.2650 N   0  0  0  0  0  0  0  0  0  0  0  0
  -23.5560  -28.8380   23.1970 O   0  0  0  0  0  0  0  0  0  0  0  0
  -21.0410  -29.8310   21.5900 H   0  0  0  0  0  0  0  0  0  0  0  0
  -18.1920  -27.9810   22.7420 C   0  0  0  0  0  0  0  0  0  0  0  0
  -20.7420  -28.3020   23.0210 C   0  0  0  0  0  3  0  0  0  0  0  0
  -20.8810  -26.8820   22.4240 C   0  0  0  0  0  2  0  0  0  0  0  0
  -19.7900  -26.5470   21.4020 C   0  0  0  0  0  2  0  0  0  0  0  0
  -18.4040  -26.6480   22.0440 C   0  0  0  0  0  2  0  0  0  0  0  0
  -19.2900  -28.7650   23.1860 C   0  0  0  0  0  0  0  0  0  0  0  0
  -19.0370  -30.0120   23.7980 C   0  0  0  0  0  3  0  0  0  0  0  0
  -17.7200  -30.4760   23.9690 C   0  0  0  0  0  3  0  0  0  0  0  0
  -16.6360  -29.6900   23.5400 C   0  0  0  0  0  3  0  0  0  0  0  0
  -16.8730  -28.4440   22.9330 C   0  0  0  0  0  3  0  0  0  0  0  0
  -25.9920  -32.5180   23.7350 C   0  0  0  0  0  3  0  0  0  0  0  0
  -26.5420  -31.7110   24.9750 C   0  0  1  0  0  0  0  0  0  0  0  0
  -25.4720  -31.4180   26.0520 C   0  0  0  0  0  1  0  0  0  0  0  0
  -27.1400  -30.3580   24.5270 C   0  0  0  0  0  1  0  0  0  0  0  0
  -27.6920  -32.5000   25.6460 C   0  0  0  0  0  1  0  0  0  0  0  0
  -25.6600  -33.8960   24.1260 N   0  0  0  0  0  0  0  0  0  0  0  0
  -25.9340  -34.9850   23.3960 C   0  0  0  0  0  0  0  0  0  0  0  0
  -26.5610  -34.9370   22.3350 O   0  0  0  0  0  0  0  0  0  0  0  0
  -25.0960  -34.0060   24.9570 H   0  0  0  0  0  0  0  0  0  0  0  0
  -24.1360  -36.7350   23.2000 C   0  0  0  0  0  1  0  0  0  0  0  0
  -25.4340  -36.3440   23.9260 C   0  0  0  0  0  3  0  0  0  0  0  0
  -27.5840  -37.2740   24.6650 C   0  0  0  0  0  1  0  0  0  0  0  0
  -26.4270  -37.4320   23.7880 N   0  0  0  0  0  0  0  0  0  0  0  0
  -26.0020  -38.3340   23.9830 H   0  0  0  0  0  0  0  0  0  0  0  0
  -29.9930  -20.5780   20.1410 C   0  0  0  0  0  2  0  0  0  0  0  0
  -29.4350  -19.0420   20.4410 C   0  0  0  0  0  3  0  0  0  0  0  0
  -30.4550  -17.7310   20.2790 C   0  0  0  0  0  3  0  0  0  0  0  0
  -30.8200  -15.0620   20.2520 C   0  0  0  0  0  0  0  0  0  0  0  0
  -30.6630  -12.7430   19.2820 C   0  0  0  0  0  2  0  0  0  0  0  0
  -29.7080  -12.7480   18.0680 C   0  0  0  0  0  2  0  0  0  0  0  0
  -28.2500  -12.5440   18.5240 C   0  0  0  0  0  2  0  0  0  0  0  0
  -27.8720  -13.4480   19.7280 C   0  0  0  0  0  3  0  0  0  0  0  0
  -28.9470  -13.4220   20.8340 C   0  0  0  0  0  2  0  0  0  0  0  0
  -30.2150  -13.8160   20.2100 N   0  0  0  0  0  0  0  0  0  0  0  0
  -32.0100  -15.1430   19.9300 O   0  0  0  0  0  0  0  0  0  0  0  0
  -30.0520  -16.2300   20.4380 N   0  0  0  0  0  0  0  0  0  0  0  0
  -29.0810  -16.0610   20.6610 H   0  0  0  0  0  0  0  0  0  0  0  0
  -25.5070  -14.0150   20.5260 C   0  0  0  0  0  0  0  0  0  0  0  0
  -24.4500  -13.2320   20.9020 C   0  0  0  0  0  0  0  0  0  0  0  0
  -24.9130  -11.8820   20.8320 C   0  0  0  0  0  0  0  0  0  0  0  0
  -26.5440  -13.1420   20.2450 N   0  0  0  0  0  0  0  0  0  0  0  0
  -26.1970  -11.8520   20.4940 N   0  0  0  0  0  0  0  0  0  0  0  0
  -24.1900  -10.6150   21.0080 C   0  0  0  0  0  0  0  0  0  0  0  0
  -24.6080   -9.6510   21.9510 C   0  0  0  0  0  3  0  0  0  0  0  0
  -23.8840   -8.4500   22.1150 C   0  0  0  0  0  3  0  0  0  0  0  0
  -22.7270   -8.2060   21.3360 C   0  0  0  0  0  0  0  0  0  0  0  0
  -22.3280   -9.1590   20.3840 C   0  0  0  0  0  3  0  0  0  0  0  0
  -23.0530  -10.3510   20.2180 C   0  0  0  0  0  3  0  0  0  0  0  0
  -21.9760   -7.0580   21.4100 O   0  0  0  0  0  0  0  0  0  0  0  0
  -21.8460   -6.3570   22.5820 C   0  0  0  0  0  0  0  0  0  0  0  0
  -21.3160   -6.9480   23.7500 C   0  0  0  0  0  3  0  0  0  0  0  0
  -21.1350   -6.1720   24.9130 C   0  0  0  0  0  3  0  0  0  0  0  0
  -21.4740   -4.8070   24.9080 C   0  0  0  0  0  0  0  0  0  0  0  0
  -21.9970   -4.2150   23.7450 C   0  0  0  0  0  3  0  0  0  0  0  0
  -22.1800   -4.9870   22.5840 C   0  0  0  0  0  0  0  0  0  0  0  0
  -22.6640   -4.4070   21.4600 F   0  0  0  0  0  0  0  0  0  0  0  0
  -21.2940   -4.0580   26.0220 F   0  0  0  0  0  0  0  0  0  0  0  0
  -23.0580  -13.7030   21.2120 C   0  0  0  0  0  0  0  0  0  0  0  0
  -22.3500  -12.9920   22.0810 N   0  0  0  0  0  0  0  0  0  0  0  0
  -22.6100  -14.7360   20.7170 O   0  0  0  0  0  0  0  0  0  0  0  0
  -22.7270  -12.1570   22.5040 H   0  0  0  0  0  0  0  0  0  0  0  0
  -21.4180  -13.2900   22.3300 H   0  0  0  0  0  0  0  0  0  0  0  0
  -25.6660  -15.3900   20.3740 N   0  0  0  0  0  0  0  0  0  0  0  0
  -24.8960  -16.0360   20.5100 H   0  0  0  0  0  0  0  0  0  0  0  0
  -26.4940  -15.8350   20.0020 H   0  0  0  0  0  0  0  0  0  0  0  0
  1  4  1  0
  2  1  2  0
  2  5  1  0
  3  6  1  0
  4  6  2  0
  5  3  2  0
  6  8  1  0
  8  7  1  0
  9 11  1  0
  9  5  1  0
 10 21  2  0
 11 16  1  0
 12 20  1  0
 12 22  1  0
 13 19  1  0
 13 15  1  0
 14 20  1  0
 15 14  1  0
 16 15  2  0
 17 18  1  0
 17 11  2  0
 18 13  2  0
 19 12  1  0
 20 10  1  0
 22 24  2  0
 23 22  1  0
 25 23  1  0
 26 35  2  0
 26 31  1  0
 27 23  1  0
 27 31  1  0
 28 27  1  0
 29 30  1  0
 29 28  1  0
 30 26  1  0
 31 32  2  0
 32 33  1  0
 34 33  2  0
 35 34  1  0
 36 10  1  0
 36 41  1  0
 36 37  1  0
 37 40  1  1
 37 38  1  0
 39 37  1  0
 41 44  1  0
 42 46  1  0
 42 41  1  0
 43 42  2  0
 46 45  1  0
 48 46  1  0
 48 49  1  0
 48 47  1  0
 50  4  1  0
 50 51  1  0
 52 61  1  0
 52 51  2  0
 53 61  1  0
 54 59  1  0
 55 56  1  0
 55 54  1  0
 57 56  1  0
 57 66  1  0
 57 58  1  0
 59 53  1  0
 59 58  1  0
 60 53  2  0
 61 62  1  0
 63 64  2  0
 64 83  1  0
 65 64  1  0
 65 68  1  0
 66 67  1  0
 66 63  1  0
 67 65  2  0
 68 69  1  0
 69 70  2  0
 71 74  1  0
 71 70  1  0
 72 71  2  0
 73 72  1  0
 73 68  2  0
 74 75  1  0
 75 80  2  0
 75 76  1  0
 76 77  2  0
 78 77  1  0
 78 82  1  0
 79 78  2  0
 80 79  1  0
 81 80  1  0
 83 84  1  0
 84 87  1  0
 84 86  1  0
 85 83  2  0
 88 89  1  0
 88 63  1  0
 90 88  1  0
M  ISO  4   5 101   9 101  53 100  61 100
M  END
>  <TORSDO>  (94) 
F 20

>  <SCORE>  (94) 
-13.523

>  <name>  (94) 
93

>  <ligand_id>  (94) 
93

>  <original_smiles>  (94) 
[H]c1c([H])c([H])c2c(c1[H])C([H])([H])C([H])([H])C([H])([H])C2([H])N([H])C(=O)C1([H])N(C(=O)C([H])(N([H])C(=O)C([H])(N([H])C([H])([H])[H])C([H])([H])[H])C(C([H])([H])[H])(C([H])([H])[H])C([H])([H])[H])C([H])([H])c2c([H])c(Oc3c([H])c([H])c(C([H])([H])C([H])([H])C([H])([H])N([H])C(=O)N4C([H])([H])C([H])([H])C([H])([H])C([H])(n5nc(-c6c([H])c([H])c(Oc7c([H])c([H])c(F)c([H])c7F)c([H])c6[H])c(C(=O)N([H])[H])c5N([H])[H])C4([H])[H])c(OC([H])([H])[H])c3[H])c([H])c([H])c2C1([H])[H]

>  <smiles>  (94) 
[H]c1c([H])c([H])c2c(c1[H])C([H])([H])C([H])([H])C([H])([H])C2([H])N([H])C(=O)C1([H])N(C(=O)C([H])(N([H])C(=O)C([H])(N([H])C([H])([H])[H])C([H])([H])[H])C(C([H])([H])[H])(C([H])([H])[H])C([H])([H])[H])C([H])([H])c2c([H])c(Oc3c([H])c([H])c(C([H])([H])C([H])([H])C([H])([H])N([H])C(=O)N4C([H])([H])C([H])([H])C([H])([H])C([H])(n5nc(-c6c([H])c([H])c(Oc7c([H])c([H])c(F)c([H])c7F)c([H])c6[H])c(C(=O)N([H])[H])c5N([H])[H])C4([H])[H])c(OC([H])([H])[H])c3[H])c([H])c([H])c2C1([H])[H]

$$$$
94:0:0
     RDKit          3D

 94102  0  0  1  0  0  0  0  0999 V2000
  -26.6400  -25.0580   21.2570 C   0  0  0  0  0  3  0  0  0  0  0  0
  -27.2320  -23.4850   19.0370 C   0  0  0  0  0  0  0  0  0  0  0  0
  -25.9870  -23.3130   19.6930 C   0  0  0  0  0  0  0  0  0  0  0  0
  -28.2730  -24.1720   19.7160 C   0  0  0  0  0  3  0  0  0  0  0  0
  -25.7580  -24.0050   20.9110 C   0  0  0  0  0  0  0  0  0  0  0  0
  -27.8170  -25.3180   20.4930 C   0  0  0  0  0  3  0  0  0  0  0  0
  -27.4690  -22.9150   17.6490 C   0  0  0  0  0  1  0  0  0  0  0  0
  -24.9110  -22.4170   19.0890 C   0  0  0  0  0  1  0  0  0  0  0  0
  -24.6790  -22.9970   22.7560 C   0  0  0  0  0  1  0  0  0  0  0  0
  -24.5890  -23.8430   21.6100 O   0  0  0  0  0  0  0  0  0  0  0  0
  -28.2610  -26.6820   20.3470 O   0  0  0  0  0  0  0  0  0  0  0  0
  -24.7860  -32.1740   23.6160 C   0  0  0  0  0  0  0  0  0  0  0  0
  -27.2800  -27.7050   20.3030 C   0  0  0  0  0  0  0  0  0  0  0  0
  -23.5810  -30.9240   21.8650 C   0  0  0  0  0  3  0  0  0  0  0  0
  -25.0160  -29.4580   20.3410 C   0  0  0  0  0  0  0  0  0  0  0  0
  -26.1400  -31.1540   21.7710 C   0  0  0  0  0  2  0  0  0  0  0  0
  -26.1860  -29.8280   21.0190 C   0  0  0  0  0  0  0  0  0  0  0  0
  -27.3250  -28.9580   21.0050 C   0  0  0  0  0  3  0  0  0  0  0  0
  -26.1190  -27.4400   19.5520 C   0  0  0  0  0  3  0  0  0  0  0  0
  -24.9920  -28.2760   19.5890 C   0  0  0  0  0  3  0  0  0  0  0  0
  -23.8080  -30.3620   20.4390 C   0  0  0  0  0  2  0  0  0  0  0  0
  -24.8530  -31.4320   22.4720 N   0  0  0  0  0  0  0  0  0  0  0  0
  -23.6980  -32.4450   24.1480 O   0  0  0  0  0  0  0  0  0  0  0  0
  -22.8770  -29.8560   22.7370 C   0  0  0  0  0  0  0  0  0  0  0  0
  -21.5560  -29.7010   22.5550 N   0  0  0  0  0  0  0  0  0  0  0  0
  -23.5200  -29.1760   23.5420 O   0  0  0  0  0  0  0  0  0  0  0  0
  -21.0970  -30.2990   21.8820 H   0  0  0  0  0  0  0  0  0  0  0  0
  -18.1480  -28.5290   22.8930 C   0  0  0  0  0  0  0  0  0  0  0  0
  -20.7020  -28.7310   23.2420 C   0  0  0  0  0  3  0  0  0  0  0  0
  -20.8030  -27.3360   22.5820 C   0  0  0  0  0  2  0  0  0  0  0  0
  -19.7220  -27.0960   21.5220 C   0  0  0  0  0  2  0  0  0  0  0  0
  -18.3250  -27.2220   22.1370 C   0  0  0  0  0  2  0  0  0  0  0  0
  -19.2660  -29.2450   23.3990 C   0  0  0  0  0  0  0  0  0  0  0  0
  -19.0500  -30.4710   24.0650 C   0  0  0  0  0  3  0  0  0  0  0  0
  -17.7490  -30.9810   24.2290 C   0  0  0  0  0  3  0  0  0  0  0  0
  -16.6450  -30.2620   23.7410 C   0  0  0  0  0  3  0  0  0  0  0  0
  -16.8450  -29.0370   23.0780 C   0  0  0  0  0  3  0  0  0  0  0  0
  -26.0720  -32.7300   24.2990 C   0  0  0  0  0  3  0  0  0  0  0  0
  -25.8150  -34.1320   24.6600 N   0  0  0  0  0  0  0  0  0  0  0  0
  -26.1730  -35.1890   23.9170 C   0  0  0  0  0  0  0  0  0  0  0  0
  -26.8230  -35.0830   22.8780 O   0  0  0  0  0  0  0  0  0  0  0  0
  -25.2410  -34.2910   25.4750 H   0  0  0  0  0  0  0  0  0  0  0  0
  -24.4780  -37.0260   23.6510 C   0  0  0  0  0  1  0  0  0  0  0  0
  -25.7380  -36.5820   24.4090 C   0  0  0  0  0  3  0  0  0  0  0  0
  -27.9140  -37.4120   25.1810 C   0  0  0  0  0  1  0  0  0  0  0  0
  -26.7920  -37.6110   24.2680 N   0  0  0  0  0  0  0  0  0  0  0  0
  -26.4130  -38.5420   24.4280 H   0  0  0  0  0  0  0  0  0  0  0  0
  -26.5060  -31.9040   25.5740 C   0  0  1  0  0  0  0  0  0  0  0  0
  -25.3610  -31.6800   26.5870 C   0  0  0  0  0  1  0  0  0  0  0  0
  -27.0560  -30.5180   25.1750 C   0  0  0  0  0  1  0  0  0  0  0  0
  -27.6550  -32.6380   26.3050 C   0  0  0  0  0  1  0  0  0  0  0  0
  -29.2960  -23.1390   20.3660 C   0  0  0  0  0  2  0  0  0  0  0  0
  -29.4470  -21.6090   19.8490 C   0  0  0  0  0  3  0  0  0  0  0  0
  -29.9770  -20.4650   20.8630 C   0  0  0  0  0  3  0  0  0  0  0  0
  -29.9590  -18.9310   20.3530 C   0  0  0  0  0  3  0  0  0  0  0  0
  -30.4400  -17.7190   21.3090 C   0  0  0  0  0  3  0  0  0  0  0  0
  -30.7570  -15.1750   20.6070 C   0  0  0  0  0  0  0  0  0  0  0  0
  -30.5850  -12.9450   19.4890 C   0  0  0  0  0  2  0  0  0  0  0  0
  -29.6740  -13.0300   18.2490 C   0  0  0  0  0  2  0  0  0  0  0  0
  -28.1930  -12.8280   18.6360 C   0  0  0  0  0  2  0  0  0  0  0  0
  -27.7690  -13.6730   19.8690 C   0  0  0  0  0  3  0  0  0  0  0  0
  -28.8120  -13.5690   21.0120 C   0  0  0  0  0  2  0  0  0  0  0  0
  -30.1170  -13.9610   20.4610 N   0  0  0  0  0  0  0  0  0  0  0  0
  -31.9320  -15.3040   20.2590 O   0  0  0  0  0  0  0  0  0  0  0  0
  -30.0260  -16.2820   20.9950 N   0  0  0  0  0  0  0  0  0  0  0  0
  -29.0650  -16.0750   21.2160 H   0  0  0  0  0  0  0  0  0  0  0  0
  -25.3460  -14.1770   20.5490 C   0  0  0  0  0  0  0  0  0  0  0  0
  -24.2940  -13.3700   20.8750 C   0  0  0  0  0  0  0  0  0  0  0  0
  -24.7950  -12.0320   20.8360 C   0  0  0  0  0  0  0  0  0  0  0  0
  -26.4210  -13.3340   20.3210 N   0  0  0  0  0  0  0  0  0  0  0  0
  -26.0950  -12.0380   20.5590 N   0  0  0  0  0  0  0  0  0  0  0  0
  -24.0930  -10.7530   20.9920 C   0  0  0  0  0  0  0  0  0  0  0  0
  -24.4960   -9.7940   21.9460 C   0  0  0  0  0  3  0  0  0  0  0  0
  -23.7860   -8.5820   22.0880 C   0  0  0  0  0  3  0  0  0  0  0  0
  -22.6610   -8.3200   21.2730 C   0  0  0  0  0  0  0  0  0  0  0  0
  -22.2790   -9.2690   20.3070 C   0  0  0  0  0  3  0  0  0  0  0  0
  -22.9900  -10.4700   20.1620 C   0  0  0  0  0  3  0  0  0  0  0  0
  -21.9280   -7.1590   21.3180 O   0  0  0  0  0  0  0  0  0  0  0  0
  -21.8190   -6.4220   22.4700 C   0  0  0  0  0  0  0  0  0  0  0  0
  -21.2730   -6.9650   23.6530 C   0  0  0  0  0  3  0  0  0  0  0  0
  -21.1210   -6.1590   24.7970 C   0  0  0  0  0  3  0  0  0  0  0  0
  -21.4960   -4.8030   24.7600 C   0  0  0  0  0  0  0  0  0  0  0  0
  -22.0360   -4.2550   23.5840 C   0  0  0  0  0  3  0  0  0  0  0  0
  -22.1910   -5.0600   22.4410 C   0  0  0  0  0  0  0  0  0  0  0  0
  -22.6900   -4.5190   21.3070 F   0  0  0  0  0  0  0  0  0  0  0  0
  -21.3330   -4.0260   25.8560 F   0  0  0  0  0  0  0  0  0  0  0  0
  -22.8770  -13.8050   21.1230 C   0  0  0  0  0  0  0  0  0  0  0  0
  -22.1440  -13.0840   21.9620 N   0  0  0  0  0  0  0  0  0  0  0  0
  -22.4300  -14.8310   20.6100 O   0  0  0  0  0  0  0  0  0  0  0  0
  -22.5220  -12.2550   22.4000 H   0  0  0  0  0  0  0  0  0  0  0  0
  -21.1900  -13.3480   22.1610 H   0  0  0  0  0  0  0  0  0  0  0  0
  -25.4850  -15.5560   20.4050 N   0  0  0  0  0  0  0  0  0  0  0  0
  -24.7140  -16.2020   20.5320 H   0  0  0  0  0  0  0  0  0  0  0  0
  -26.3360  -16.0180   20.1200 H   0  0  0  0  0  0  0  0  0  0  0  0
  2  3  2  0
  2  4  1  0
  3  5  1  0
  4 52  1  0
  4  6  1  0
  5  1  2  0
  5 10  1  0
  6 11  1  0
  6  1  1  0
  7  2  1  0
  8  3  1  0
 10  9  1  0
 12 23  2  0
 13 11  1  0
 13 18  1  0
 14 22  1  0
 14 24  1  0
 15 21  1  0
 15 17  1  0
 16 22  1  0
 17 16  1  0
 18 17  2  0
 19 20  1  0
 19 13  2  0
 20 15  2  0
 21 14  1  0
 22 12  1  0
 24 26  2  0
 25 24  1  0
 27 25  1  0
 28 37  2  0
 28 33  1  0
 29 25  1  0
 29 33  1  0
 30 29  1  0
 31 32  1  0
 31 30  1  0
 32 28  1  0
 33 34  2  0
 34 35  1  0
 36 35  2  0
 37 36  1  0
 38 12  1  0
 38 39  1  0
 38 48  1  0
 39 42  1  0
 40 44  1  0
 40 39  1  0
 41 40  2  0
 44 43  1  0
 46 44  1  0
 46 47  1  0
 46 45  1  0
 48 51  1  1
 48 49  1  0
 50 48  1  0
 53 52  1  0
 53 54  2  0
 55 54  1  0
 55 56  2  0
 57 65  1  0
 58 63  1  0
 59 60  1  0
 59 58  1  0
 61 60  1  0
 61 70  1  0
 61 62  1  0
 63 57  1  0
 63 62  1  0
 64 57  2  0
 65 66  1  0
 65 56  1  0
 67 68  2  0
 68 87  1  0
 69 68  1  0
 69 72  1  0
 70 67  1  0
 70 71  1  0
 71 69  2  0
 72 73  1  0
 73 74  2  0
 75 78  1  0
 75 74  1  0
 76 75  2  0
 77 76  1  0
 77 72  2  0
 78 79  1  0
 79 80  1  0
 80 81  2  0
 82 81  1  0
 82 86  1  0
 83 82  2  0
 84 79  2  0
 84 83  1  0
 85 84  1  0
 87 88  1  0
 88 91  1  0
 88 90  1  0
 89 87  2  0
 92 93  1  0
 92 67  1  0
 94 92  1  0
M  ISO  4   6 101  11 101  57 100  65 100
M  END
>  <TORSDO>  (95) 
F 22

>  <SCORE>  (95) 
-11.509

>  <name>  (95) 
94

>  <ligand_id>  (95) 
94

>  <original_smiles>  (95) 
[H]c1c([H])c([H])c2c(c1[H])C([H])([H])C([H])([H])C([H])([H])C2([H])N([H])C(=O)C1([H])N(C(=O)C([H])(N([H])C(=O)C([H])(N([H])C([H])([H])[H])C([H])([H])[H])C(C([H])([H])[H])(C([H])([H])[H])C([H])([H])[H])C([H])([H])c2c([H])c(Oc3c([H])c(OC([H])([H])[H])c(C([H])([H])[H])c(C([H])([H])[H])c3C([H])([H])C([H])([H])C([H])([H])C([H])([H])C([H])([H])N([H])C(=O)N3C([H])([H])C([H])([H])C([H])([H])C([H])(n4nc(-c5c([H])c([H])c(Oc6c([H])c([H])c(F)c([H])c6F)c([H])c5[H])c(C(=O)N([H])[H])c4N([H])[H])C3([H])[H])c([H])c([H])c2C1([H])[H]

>  <smiles>  (95) 
[H]c1c([H])c([H])c2c(c1[H])C([H])([H])C([H])([H])C([H])([H])C2([H])N([H])C(=O)C1([H])N(C(=O)C([H])(N([H])C(=O)C([H])(N([H])C([H])([H])[H])C([H])([H])[H])C(C([H])([H])[H])(C([H])([H])[H])C([H])([H])[H])C([H])([H])c2c([H])c(Oc3c([H])c(OC([H])([H])[H])c(C([H])([H])[H])c(C([H])([H])[H])c3C([H])([H])C([H])([H])C([H])([H])C([H])([H])C([H])([H])N([H])C(=O)N3C([H])([H])C([H])([H])C([H])([H])C([H])(n4nc(-c5c([H])c([H])c(Oc6c([H])c([H])c(F)c([H])c6F)c([H])c5[H])c(C(=O)N([H])[H])c4N([H])[H])C3([H])[H])c([H])c([H])c2C1([H])[H]

$$$$
95:0:0
     RDKit          3D

 93101  0  0  1  0  0  0  0  0999 V2000
  -26.8620  -21.3670   20.6570 C   0  0  0  0  0  3  0  0  0  0  0  0
  -29.0950  -22.2390   20.2820 C   0  0  0  0  0  3  0  0  0  0  0  0
  -28.2460  -21.1410   20.5810 C   0  0  0  0  0  0  0  0  0  0  0  0
  -26.2750  -22.6040   20.3780 C   0  0  0  0  0  0  0  0  0  0  0  0
  -28.5370  -23.5490   20.0600 C   0  0  0  0  0  0  0  0  0  0  0  0
  -27.1140  -23.7160   20.0980 C   0  0  0  0  0  0  0  0  0  0  0  0
  -25.8650  -25.2490   18.7320 C   0  0  0  0  0  1  0  0  0  0  0  0
  -26.5550  -24.9660   19.9490 O   0  0  0  0  0  0  0  0  0  0  0  0
  -24.0960  -23.6320   21.3050 C   0  0  0  0  0  1  0  0  0  0  0  0
  -24.7450  -22.6030   20.3820 C   0  0  0  0  0  2  0  0  0  0  0  0
  -28.5500  -19.6330   20.6250 C   0  0  0  0  0  2  0  0  0  0  0  0
  -29.8710  -18.9160   20.9990 C   0  0  0  0  0  2  0  0  0  0  0  0
  -29.5750  -17.3800   20.7980 C   0  0  0  0  0  2  0  0  0  0  0  0
  -30.1850  -16.3050   21.7450 C   0  0  0  0  0  2  0  0  0  0  0  0
  -30.8440  -15.1240   20.9720 C   0  0  0  0  0  0  0  0  0  0  0  0
  -30.7560  -12.8980   19.8870 C   0  0  0  0  0  2  0  0  0  0  0  0
  -29.8830  -12.9360   18.6170 C   0  0  0  0  0  2  0  0  0  0  0  0
  -28.4030  -12.6860   18.9670 C   0  0  0  0  0  2  0  0  0  0  0  0
  -27.9170  -13.5810   20.1360 C   0  0  0  0  0  3  0  0  0  0  0  0
  -28.9030  -13.5380   21.3230 C   0  0  0  0  0  2  0  0  0  0  0  0
  -30.2420  -13.9070   20.8340 N   0  0  0  0  0  0  0  0  0  0  0  0
  -31.9310  -15.3650   20.4350 O   0  0  0  0  0  0  0  0  0  0  0  0
  -25.4820  -14.0580   20.8240 C   0  0  0  0  0  0  0  0  0  0  0  0
  -24.4360  -13.2260   21.1270 C   0  0  0  0  0  0  0  0  0  0  0  0
  -24.9510  -11.8980   21.0390 C   0  0  0  0  0  0  0  0  0  0  0  0
  -26.5640  -13.2310   20.5620 N   0  0  0  0  0  0  0  0  0  0  0  0
  -26.2480  -11.9250   20.7520 N   0  0  0  0  0  0  0  0  0  0  0  0
  -24.2730  -10.6010   21.1470 C   0  0  0  0  0  0  0  0  0  0  0  0
  -24.6790   -9.6280   22.0860 C   0  0  0  0  0  3  0  0  0  0  0  0
  -23.9960   -8.3950   22.1800 C   0  0  0  0  0  3  0  0  0  0  0  0
  -22.8920   -8.1290   21.3350 C   0  0  0  0  0  0  0  0  0  0  0  0
  -22.5070   -9.0920   20.3850 C   0  0  0  0  0  3  0  0  0  0  0  0
  -23.1920  -10.3150   20.2900 C   0  0  0  0  0  3  0  0  0  0  0  0
  -22.1830   -6.9510   21.3390 O   0  0  0  0  0  0  0  0  0  0  0  0
  -22.0460   -6.2000   22.4790 C   0  0  0  0  0  0  0  0  0  0  0  0
  -21.4360   -6.7160   23.6430 C   0  0  0  0  0  3  0  0  0  0  0  0
  -21.2520   -5.8880   24.7680 C   0  0  0  0  0  3  0  0  0  0  0  0
  -21.6650   -4.5420   24.7280 C   0  0  0  0  0  0  0  0  0  0  0  0
  -22.2640   -4.0250   23.5660 C   0  0  0  0  0  3  0  0  0  0  0  0
  -22.4510   -4.8510   22.4440 C   0  0  0  0  0  0  0  0  0  0  0  0
  -23.0110   -4.3410   21.3210 F   0  0  0  0  0  0  0  0  0  0  0  0
  -21.4800   -3.7430   25.8050 F   0  0  0  0  0  0  0  0  0  0  0  0
  -23.0170  -13.6370   21.3930 C   0  0  0  0  0  0  0  0  0  0  0  0
  -22.2980  -12.8780   22.2140 N   0  0  0  0  0  0  0  0  0  0  0  0
  -22.5490  -14.6670   20.9080 O   0  0  0  0  0  0  0  0  0  0  0  0
  -22.6870  -12.0460   22.6330 H   0  0  0  0  0  0  0  0  0  0  0  0
  -21.3450  -13.1340   22.4270 H   0  0  0  0  0  0  0  0  0  0  0  0
  -25.6000  -15.4400   20.7280 N   0  0  0  0  0  0  0  0  0  0  0  0
  -24.8110  -16.0630   20.8630 H   0  0  0  0  0  0  0  0  0  0  0  0
  -26.4490  -15.9290   20.4780 H   0  0  0  0  0  0  0  0  0  0  0  0
  -29.4540  -24.7450   19.6740 C   0  0  0  0  0  2  0  0  0  0  0  0
  -29.4020  -25.9930   20.6140 C   0  0  0  0  0  2  0  0  0  0  0  0
  -29.5350  -27.3260   20.0220 O   0  0  0  0  0  0  0  0  0  0  0  0
  -25.1050  -31.6990   23.5530 C   0  0  0  0  0  0  0  0  0  0  0  0
  -28.3580  -28.0580   20.0160 C   0  0  0  0  0  0  0  0  0  0  0  0
  -24.1650  -30.5050   21.6030 C   0  0  0  0  0  3  0  0  0  0  0  0
  -25.8630  -29.3840   20.0540 C   0  0  0  0  0  0  0  0  0  0  0  0
  -26.6540  -31.0970   21.6890 C   0  0  0  0  0  2  0  0  0  0  0  0
  -26.9220  -29.8760   20.8290 C   0  0  0  0  0  0  0  0  0  0  0  0
  -28.1830  -29.2230   20.8040 C   0  0  0  0  0  3  0  0  0  0  0  0
  -27.2880  -27.6080   19.2260 C   0  0  0  0  0  3  0  0  0  0  0  0
  -26.0460  -28.2630   19.2340 C   0  0  0  0  0  3  0  0  0  0  0  0
  -24.5410  -30.1100   20.1490 C   0  0  0  0  0  2  0  0  0  0  0  0
  -25.3200  -31.1040   22.3420 N   0  0  0  0  0  0  0  0  0  0  0  0
  -23.9670  -31.7770   24.0370 O   0  0  0  0  0  0  0  0  0  0  0  0
  -23.5550  -29.2750   22.3180 C   0  0  0  0  0  0  0  0  0  0  0  0
  -22.2670  -28.9990   22.0570 N   0  0  0  0  0  0  0  0  0  0  0  0
  -24.2410  -28.5870   23.0820 O   0  0  0  0  0  0  0  0  0  0  0  0
  -21.7640  -29.6330   21.4530 H   0  0  0  0  0  0  0  0  0  0  0  0
  -19.0210  -27.3850   22.0420 C   0  0  0  0  0  0  0  0  0  0  0  0
  -21.5090  -27.8570   22.5880 C   0  0  0  0  0  3  0  0  0  0  0  0
  -21.8140  -26.5680   21.7940 C   0  0  0  0  0  2  0  0  0  0  0  0
  -20.8360  -26.3180   20.6360 C   0  0  0  0  0  2  0  0  0  0  0  0
  -19.4000  -26.2100   21.1500 C   0  0  0  0  0  2  0  0  0  0  0  0
  -20.0120  -28.1700   22.6990 C   0  0  0  0  0  0  0  0  0  0  0  0
  -19.6030  -29.2800   23.4690 C   0  0  0  0  0  3  0  0  0  0  0  0
  -18.2340  -29.6070   23.5980 C   0  0  0  0  0  3  0  0  0  0  0  0
  -17.2660  -28.8260   22.9470 C   0  0  0  0  0  3  0  0  0  0  0  0
  -17.6580  -27.7140   22.1770 C   0  0  0  0  0  3  0  0  0  0  0  0
  -26.2700  -32.3390   24.3700 C   0  0  0  0  0  3  0  0  0  0  0  0
  -25.8720  -33.7140   24.7040 N   0  0  0  0  0  0  0  0  0  0  0  0
  -26.2720  -34.8010   24.0340 C   0  0  0  0  0  0  0  0  0  0  0  0
  -27.0770  -34.7520   23.1000 O   0  0  0  0  0  0  0  0  0  0  0  0
  -25.1710  -33.8200   25.4220 H   0  0  0  0  0  0  0  0  0  0  0  0
  -24.5450  -36.5590   23.5200 C   0  0  0  0  0  1  0  0  0  0  0  0
  -25.6870  -36.1590   24.4690 C   0  0  0  0  0  3  0  0  0  0  0  0
  -27.6770  -37.0720   25.5840 C   0  0  0  0  0  1  0  0  0  0  0  0
  -26.6900  -37.2460   24.5240 N   0  0  0  0  0  0  0  0  0  0  0  0
  -26.2380  -38.1480   24.6520 H   0  0  0  0  0  0  0  0  0  0  0  0
  -26.6190  -31.5290   25.6800 C   0  0  1  0  0  0  0  0  0  0  0  0
  -25.3900  -31.2410   26.5750 C   0  0  0  0  0  1  0  0  0  0  0  0
  -27.2790  -30.1750   25.3250 C   0  0  0  0  0  1  0  0  0  0  0  0
  -27.6530  -32.3160   26.5210 C   0  0  0  0  0  1  0  0  0  0  0  0
  2  3  2  0
  3 11  1  0
  3  1  1  0
  4 10  1  0
  4  1  2  0
  5  6  2  0
  5  2  1  0
  6  4  1  0
  7  8  1  0
  8  6  1  0
 10  9  1  0
 11 12  1  0
 13 12  1  0
 13 14  1  0
 15 14  1  0
 16 21  1  0
 17 18  1  0
 17 16  1  0
 19 18  1  0
 19 26  1  0
 19 20  1  0
 21 15  1  0
 21 20  1  0
 22 15  2  0
 23 24  2  0
 24 43  1  0
 25 24  1  0
 25 28  1  0
 26 27  1  0
 26 23  1  0
 27 25  2  0
 28 29  1  0
 29 30  2  0
 31 34  1  0
 31 30  1  0
 32 31  2  0
 33 32  1  0
 33 28  2  0
 34 35  1  0
 35 36  1  0
 36 37  2  0
 38 37  1  0
 38 42  1  0
 39 38  2  0
 40 35  2  0
 40 39  1  0
 41 40  1  0
 43 44  1  0
 44 47  1  0
 44 46  1  0
 45 43  2  0
 48 23  1  0
 48 49  1  0
 50 48  1  0
 51  5  1  0
 51 52  1  0
 53 52  1  0
 54 65  2  0
 55 53  1  0
 55 60  1  0
 56 66  1  0
 56 64  1  0
 57 63  1  0
 57 59  1  0
 58 64  1  0
 59 58  1  0
 60 59  2  0
 61 62  1  0
 61 55  2  0
 62 57  2  0
 63 56  1  0
 64 54  1  0
 66 68  2  0
 67 66  1  0
 69 67  1  0
 70 79  2  0
 70 75  1  0
 71 67  1  0
 71 75  1  0
 72 71  1  0
 73 74  1  0
 73 72  1  0
 74 70  1  0
 75 76  2  0
 76 77  1  0
 78 77  2  0
 79 78  1  0
 80 54  1  0
 80 81  1  0
 80 90  1  0
 81 84  1  0
 82 86  1  0
 82 81  1  0
 83 82  2  0
 86 85  1  0
 86 88  1  0
 88 89  1  0
 88 87  1  0
 90 93  1  1
 90 91  1  0
 92 90  1  0
M  ISO  4  14 100  15 100  52 101  53 101
M  END
>  <TORSDO>  (96) 
F 24

>  <SCORE>  (96) 
-8.361

>  <name>  (96) 
95

>  <ligand_id>  (96) 
95

>  <original_smiles>  (96) 
[H]c1c([H])c([H])c2c(c1[H])C([H])([H])C([H])([H])C([H])([H])C2([H])N([H])C(=O)C1([H])N(C(=O)C([H])(N([H])C(=O)C([H])(N([H])C([H])([H])[H])C([H])([H])[H])C(C([H])([H])[H])(C([H])([H])[H])C([H])([H])[H])C([H])([H])c2c([H])c(OC([H])([H])C([H])([H])c3c([H])c(C([H])([H])C([H])([H])C([H])([H])C([H])([H])C(=O)N4C([H])([H])C([H])([H])C([H])([H])C([H])(n5nc(-c6c([H])c([H])c(Oc7c([H])c([H])c(F)c([H])c7F)c([H])c6[H])c(C(=O)N([H])[H])c5N([H])[H])C4([H])[H])c([H])c(C([H])([H])C([H])([H])[H])c3OC([H])([H])[H])c([H])c([H])c2C1([H])[H]

>  <smiles>  (96) 
[H]c1c([H])c([H])c2c(c1[H])C([H])([H])C([H])([H])C([H])([H])C2([H])N([H])C(=O)C1([H])N(C(=O)C([H])(N([H])C(=O)C([H])(N([H])C([H])([H])[H])C([H])([H])[H])C(C([H])([H])[H])(C([H])([H])[H])C([H])([H])[H])C([H])([H])c2c([H])c(OC([H])([H])C([H])([H])c3c([H])c(C([H])([H])C([H])([H])C([H])([H])C([H])([H])C(=O)N4C([H])([H])C([H])([H])C([H])([H])C([H])(n5nc(-c6c([H])c([H])c(Oc7c([H])c([H])c(F)c([H])c7F)c([H])c6[H])c(C(=O)N([H])[H])c5N([H])[H])C4([H])[H])c([H])c(C([H])([H])C([H])([H])[H])c3OC([H])([H])[H])c([H])c([H])c2C1([H])[H]

$$$$
96:0:0
     RDKit          3D

 93101  0  0  1  0  0  0  0  0999 V2000
  -29.3010  -23.3860   19.7010 C   0  0  0  0  0  3  0  0  0  0  0  0
  -29.1020  -24.7390   19.3860 C   0  0  0  0  0  3  0  0  0  0  0  0
  -28.7690  -23.8560   22.0410 C   0  0  0  0  0  3  0  0  0  0  0  0
  -29.1550  -22.9460   21.0350 C   0  0  0  0  0  0  0  0  0  0  0  0
  -28.5880  -25.2190   21.7350 C   0  0  0  0  0  0  0  0  0  0  0  0
  -28.7530  -25.6530   20.3980 C   0  0  0  0  0  0  0  0  0  0  0  0
  -28.2560  -26.1890   22.8570 C   0  0  0  0  0  1  0  0  0  0  0  0
  -29.4030  -21.5360   21.3980 C   0  0  0  0  0  0  0  0  0  0  0  0
  -28.8590  -20.9830   22.3570 O   0  0  0  0  0  0  0  0  0  0  0  0
  -30.4580  -20.8230   20.5460 C   0  0  0  0  0  2  0  0  0  0  0  0
  -31.1300  -19.6090   21.2010 C   0  0  0  0  0  2  0  0  0  0  0  0
  -30.2030  -18.3900   21.3160 C   0  0  0  0  0  2  0  0  0  0  0  0
  -30.9710  -17.0760   21.3100 C   0  0  0  0  0  2  0  0  0  0  0  0
  -30.0340  -15.8750   21.5060 C   0  0  0  0  0  2  0  0  0  0  0  0
  -30.7230  -14.1790   19.9070 C   0  0  0  0  0  0  0  0  0  0  0  0
  -30.1210  -12.2070   18.5600 C   0  0  0  0  0  2  0  0  0  0  0  0
  -29.0390  -12.4680   17.5010 C   0  0  0  0  0  2  0  0  0  0  0  0
  -27.6320  -12.3170   18.1050 C   0  0  0  0  0  2  0  0  0  0  0  0
  -27.4660  -13.1430   19.4040 C   0  0  0  0  0  3  0  0  0  0  0  0
  -28.6300  -12.8670   20.3800 C   0  0  0  0  0  2  0  0  0  0  0  0
  -29.9080  -13.1200   19.6870 N   0  0  0  0  0  0  0  0  0  0  0  0
  -31.5750  -14.5730   19.0980 O   0  0  0  0  0  0  0  0  0  0  0  0
  -31.6920  -14.1630   22.1460 C   0  0  0  0  0  1  0  0  0  0  0  0
  -30.6960  -14.6190   21.1770 N   0  0  0  0  0  0  0  0  0  0  0  0
  -25.1640  -13.7790   20.3750 C   0  0  0  0  0  0  0  0  0  0  0  0
  -24.1340  -13.0160   20.8570 C   0  0  0  0  0  0  0  0  0  0  0  0
  -24.5760  -11.6610   20.7720 C   0  0  0  0  0  0  0  0  0  0  0  0
  -26.1690  -12.8880   20.0300 N   0  0  0  0  0  0  0  0  0  0  0  0
  -25.8230  -11.6090   20.3240 N   0  0  0  0  0  0  0  0  0  0  0  0
  -23.8640  -10.4030   21.0340 C   0  0  0  0  0  0  0  0  0  0  0  0
  -24.3580   -9.4550   21.9570 C   0  0  0  0  0  3  0  0  0  0  0  0
  -23.6440   -8.2620   22.2050 C   0  0  0  0  0  3  0  0  0  0  0  0
  -22.4250   -8.0100   21.5330 C   0  0  0  0  0  0  0  0  0  0  0  0
  -21.9520   -8.9470   20.5980 C   0  0  0  0  0  3  0  0  0  0  0  0
  -22.6660  -10.1310   20.3460 C   0  0  0  0  0  3  0  0  0  0  0  0
  -21.6780   -6.8670   21.6910 O   0  0  0  0  0  0  0  0  0  0  0  0
  -21.6800   -6.1650   22.8700 C   0  0  0  0  0  0  0  0  0  0  0  0
  -21.3130   -6.7620   24.0950 C   0  0  0  0  0  3  0  0  0  0  0  0
  -21.2590   -5.9860   25.2700 C   0  0  0  0  0  3  0  0  0  0  0  0
  -21.5650   -4.6120   25.2210 C   0  0  0  0  0  0  0  0  0  0  0  0
  -21.9240   -4.0140   24.0010 C   0  0  0  0  0  3  0  0  0  0  0  0
  -21.9780   -4.7870   22.8280 C   0  0  0  0  0  0  0  0  0  0  0  0
  -22.3050   -4.2010   21.6510 F   0  0  0  0  0  0  0  0  0  0  0  0
  -21.5080   -3.8650   26.3480 F   0  0  0  0  0  0  0  0  0  0  0  0
  -22.7800  -13.5040   21.2860 C   0  0  0  0  0  0  0  0  0  0  0  0
  -22.1610  -12.8230   22.2440 N   0  0  0  0  0  0  0  0  0  0  0  0
  -22.2870  -14.5250   20.8080 O   0  0  0  0  0  0  0  0  0  0  0  0
  -22.5770  -11.9980   22.6470 H   0  0  0  0  0  0  0  0  0  0  0  0
  -21.2590  -13.1310   22.5770 H   0  0  0  0  0  0  0  0  0  0  0  0
  -25.3210  -15.1490   20.1870 N   0  0  0  0  0  0  0  0  0  0  0  0
  -24.5790  -15.8090   20.3920 H   0  0  0  0  0  0  0  0  0  0  0  0
  -26.1390  -15.5880   19.7830 H   0  0  0  0  0  0  0  0  0  0  0  0
  -28.6450  -26.9670   20.0440 O   0  0  0  0  0  0  0  0  0  0  0  0
  -24.5690  -31.7870   23.2460 C   0  0  0  0  0  0  0  0  0  0  0  0
  -27.4200  -27.5750   20.0780 C   0  0  0  0  0  0  0  0  0  0  0  0
  -23.4360  -30.4160   21.5220 C   0  0  0  0  0  3  0  0  0  0  0  0
  -24.9650  -28.9560   20.0950 C   0  0  0  0  0  0  0  0  0  0  0  0
  -25.9500  -30.8500   21.4070 C   0  0  0  0  0  2  0  0  0  0  0  0
  -26.0860  -29.5060   20.7280 C   0  0  0  0  0  0  0  0  0  0  0  0
  -27.3130  -28.8190   20.7240 C   0  0  0  0  0  3  0  0  0  0  0  0
  -26.2880  -27.0100   19.4510 C   0  0  0  0  0  3  0  0  0  0  0  0
  -25.0570  -27.7000   19.4640 C   0  0  0  0  0  3  0  0  0  0  0  0
  -23.6950  -29.7780   20.1310 C   0  0  0  0  0  2  0  0  0  0  0  0
  -24.6670  -31.0300   22.1190 N   0  0  0  0  0  0  0  0  0  0  0  0
  -23.4680  -32.0170   23.7680 O   0  0  0  0  0  0  0  0  0  0  0  0
  -22.7860  -29.3490   22.4300 C   0  0  0  0  0  0  0  0  0  0  0  0
  -21.4700  -29.1500   22.2630 N   0  0  0  0  0  0  0  0  0  0  0  0
  -23.4640  -28.7070   23.2360 O   0  0  0  0  0  0  0  0  0  0  0  0
  -20.9840  -29.7280   21.5890 H   0  0  0  0  0  0  0  0  0  0  0  0
  -18.1070  -27.8910   22.6110 C   0  0  0  0  0  0  0  0  0  0  0  0
  -20.6490  -28.1740   22.9750 C   0  0  0  0  0  3  0  0  0  0  0  0
  -20.7950  -26.7650   22.3520 C   0  0  0  0  0  2  0  0  0  0  0  0
  -19.7290  -26.4630   21.2940 C   0  0  0  0  0  2  0  0  0  0  0  0
  -18.3260  -26.5680   21.8970 C   0  0  0  0  0  2  0  0  0  0  0  0
  -19.2000  -28.6530   23.1020 C   0  0  0  0  0  0  0  0  0  0  0  0
  -18.9460  -29.8960   23.7220 C   0  0  0  0  0  3  0  0  0  0  0  0
  -17.6300  -30.3730   23.8660 C   0  0  0  0  0  3  0  0  0  0  0  0
  -16.5510  -29.6070   23.3930 C   0  0  0  0  0  3  0  0  0  0  0  0
  -16.7900  -28.3700   22.7680 C   0  0  0  0  0  3  0  0  0  0  0  0
  -25.8280  -32.4170   23.9240 C   0  0  0  0  0  3  0  0  0  0  0  0
  -25.4850  -33.7920   24.3050 N   0  0  0  0  0  0  0  0  0  0  0  0
  -25.8210  -34.8820   23.6020 C   0  0  0  0  0  0  0  0  0  0  0  0
  -26.5280  -34.8370   22.5920 O   0  0  0  0  0  0  0  0  0  0  0  0
  -24.8670  -33.9020   25.0950 H   0  0  0  0  0  0  0  0  0  0  0  0
  -24.0740  -36.6580   23.2510 C   0  0  0  0  0  1  0  0  0  0  0  0
  -25.2850  -36.2380   24.0990 C   0  0  0  0  0  3  0  0  0  0  0  0
  -27.3630  -37.1210   25.0650 C   0  0  0  0  0  1  0  0  0  0  0  0
  -26.3000  -37.3130   24.0820 N   0  0  0  0  0  0  0  0  0  0  0  0
  -25.8700  -38.2170   24.2580 H   0  0  0  0  0  0  0  0  0  0  0  0
  -26.3350  -31.6010   25.1770 C   0  0  1  0  0  0  0  0  0  0  0  0
  -25.2290  -31.2910   26.2120 C   0  0  0  0  0  1  0  0  0  0  0  0
  -26.9610  -30.2590   24.7310 C   0  0  0  0  0  1  0  0  0  0  0  0
  -27.4480  -32.3940   25.9010 C   0  0  0  0  0  1  0  0  0  0  0  0
  1  4  1  0
  2  1  2  0
  2  6  1  0
  4  8  1  0
  4  3  2  0
  5  3  1  0
  5  7  1  0
  6  5  2  0
  8  9  2  0
 10 11  1  0
 10  8  1  0
 11 12  1  0
 13 12  1  0
 13 14  1  0
 15 24  1  0
 16 21  1  0
 17 18  1  0
 17 16  1  0
 19 18  1  0
 19 28  1  0
 19 20  1  0
 21 15  1  0
 21 20  1  0
 22 15  2  0
 24 14  1  0
 24 23  1  0
 25 26  2  0
 26 45  1  0
 27 26  1  0
 27 30  1  0
 28 29  1  0
 28 25  1  0
 29 27  2  0
 30 31  1  0
 31 32  2  0
 33 36  1  0
 33 32  1  0
 34 33  2  0
 35 34  1  0
 35 30  2  0
 36 37  1  0
 37 38  1  0
 38 39  2  0
 40 39  1  0
 40 44  1  0
 41 40  2  0
 42 37  2  0
 42 41  1  0
 43 42  1  0
 45 46  1  0
 46 49  1  0
 46 48  1  0
 47 45  2  0
 50 25  1  0
 50 51  1  0
 52 50  1  0
 53 55  1  0
 53  6  1  0
 54 65  2  0
 55 60  1  0
 56 64  1  0
 56 66  1  0
 57 63  1  0
 57 59  1  0
 58 64  1  0
 59 58  1  0
 60 59  2  0
 61 62  1  0
 61 55  2  0
 62 57  2  0
 63 56  1  0
 64 54  1  0
 66 68  2  0
 67 66  1  0
 69 67  1  0
 70 79  2  0
 70 75  1  0
 71 67  1  0
 71 75  1  0
 72 71  1  0
 73 74  1  0
 73 72  1  0
 74 70  1  0
 75 76  2  0
 76 77  1  0
 78 77  2  0
 79 78  1  0
 80 54  1  0
 80 81  1  0
 80 90  1  0
 81 84  1  0
 82 86  1  0
 82 81  1  0
 83 82  2  0
 86 85  1  0
 88 86  1  0
 88 89  1  0
 88 87  1  0
 90 93  1  1
 90 91  1  0
 92 90  1  0
M  ISO  4   6 101  15 100  24 100  53 101
M  END
>  <TORSDO>  (97) 
F 22

>  <SCORE>  (97) 
-11.491

>  <name>  (97) 
96

>  <ligand_id>  (97) 
96

>  <original_smiles>  (97) 
[H]c1c([H])c([H])c2c(c1[H])C([H])([H])C([H])([H])C([H])([H])C2([H])N([H])C(=O)C1([H])N(C(=O)C([H])(N([H])C(=O)C([H])(N([H])C([H])([H])[H])C([H])([H])[H])C(C([H])([H])[H])(C([H])([H])[H])C([H])([H])[H])C([H])([H])c2c([H])c(Oc3c([H])c([H])c(C(=O)C([H])([H])C([H])([H])C([H])([H])C([H])([H])C([H])([H])N(C(=O)N4C([H])([H])C([H])([H])C([H])([H])C([H])(n5nc(-c6c([H])c([H])c(Oc7c([H])c([H])c(F)c([H])c7F)c([H])c6[H])c(C(=O)N([H])[H])c5N([H])[H])C4([H])[H])C([H])([H])[H])c([H])c3C([H])([H])[H])c([H])c([H])c2C1([H])[H]

>  <smiles>  (97) 
[H]c1c([H])c([H])c2c(c1[H])C([H])([H])C([H])([H])C([H])([H])C2([H])N([H])C(=O)C1([H])N(C(=O)C([H])(N([H])C(=O)C([H])(N([H])C([H])([H])[H])C([H])([H])[H])C(C([H])([H])[H])(C([H])([H])[H])C([H])([H])[H])C([H])([H])c2c([H])c(Oc3c([H])c([H])c(C(=O)C([H])([H])C([H])([H])C([H])([H])C([H])([H])C([H])([H])N(C(=O)N4C([H])([H])C([H])([H])C([H])([H])C([H])(n5nc(-c6c([H])c([H])c(Oc7c([H])c([H])c(F)c([H])c7F)c([H])c6[H])c(C(=O)N([H])[H])c5N([H])[H])C4([H])[H])C([H])([H])[H])c([H])c3C([H])([H])[H])c([H])c([H])c2C1([H])[H]

$$$$
97:0:0
     RDKit          3D

 97105  0  0  1  0  0  0  0  0999 V2000
  -28.6340  -21.0270   21.1960 C   0  0  0  0  0  3  0  0  0  0  0  0
  -28.9740  -22.1080   23.5110 C   0  0  0  0  0  1  0  0  0  0  0  0
  -28.4830  -22.3270   22.0690 C   0  0  0  0  0  3  0  0  0  0  0  0
  -29.0500  -23.6010   21.5060 N   0  0  0  0  0  4  0  0  0  0  0  0
  -29.3070  -24.1420   22.3180 H   0  0  0  0  0  0  0  0  0  0  0  0
  -29.9100  -23.4190   21.0110 H   0  0  0  0  0  0  0  0  0  0  0  0
  -28.1590  -24.5060   20.6930 C   0  0  0  0  0  2  0  0  0  0  0  0
  -28.5880  -26.0170   20.7420 C   0  0  0  0  0  2  0  0  0  0  0  0
  -28.1710  -26.8580   19.6370 O   0  0  0  0  0  0  0  0  0  0  0  0
  -24.5740  -31.9670   23.1550 C   0  0  0  0  0  0  0  0  0  0  0  0
  -27.0260  -27.6130   19.7920 C   0  0  0  0  0  0  0  0  0  0  0  0
  -23.2790  -30.6260   21.5310 C   0  0  0  0  0  3  0  0  0  0  0  0
  -24.6480  -29.1440   19.9690 C   0  0  0  0  0  0  0  0  0  0  0  0
  -25.7890  -30.9950   21.2000 C   0  0  0  0  0  2  0  0  0  0  0  0
  -25.8390  -29.6400   20.5170 C   0  0  0  0  0  0  0  0  0  0  0  0
  -27.0320  -28.8830   20.4250 C   0  0  0  0  0  3  0  0  0  0  0  0
  -25.8220  -27.1420   19.2310 C   0  0  0  0  0  3  0  0  0  0  0  0
  -24.6360  -27.8970   19.3220 C   0  0  0  0  0  3  0  0  0  0  0  0
  -23.4090  -29.9980   20.1180 C   0  0  0  0  0  2  0  0  0  0  0  0
  -24.5700  -31.2100   22.0210 N   0  0  0  0  0  0  0  0  0  0  0  0
  -23.5250  -32.2150   23.7650 O   0  0  0  0  0  0  0  0  0  0  0  0
  -22.6810  -29.5700   22.4880 C   0  0  0  0  0  0  0  0  0  0  0  0
  -21.3570  -29.3620   22.3980 N   0  0  0  0  0  0  0  0  0  0  0  0
  -23.4040  -28.9400   23.2650 O   0  0  0  0  0  0  0  0  0  0  0  0
  -20.8350  -29.9190   21.7370 H   0  0  0  0  0  0  0  0  0  0  0  0
  -18.0340  -28.0440   22.9330 C   0  0  0  0  0  0  0  0  0  0  0  0
  -20.5850  -28.3890   23.1710 C   0  0  0  0  0  3  0  0  0  0  0  0
  -20.7310  -26.9690   22.5750 C   0  0  0  0  0  2  0  0  0  0  0  0
  -19.6260  -26.6200   21.5750 C   0  0  0  0  0  2  0  0  0  0  0  0
  -18.2490  -26.7100   22.2400 C   0  0  0  0  0  2  0  0  0  0  0  0
  -19.1320  -28.8400   23.3550 C   0  0  0  0  0  0  0  0  0  0  0  0
  -18.8770  -30.0890   23.9650 C   0  0  0  0  0  3  0  0  0  0  0  0
  -17.5580  -30.5410   24.1560 C   0  0  0  0  0  3  0  0  0  0  0  0
  -16.4750  -29.7400   23.7520 C   0  0  0  0  0  3  0  0  0  0  0  0
  -16.7140  -28.4940   23.1460 C   0  0  0  0  0  3  0  0  0  0  0  0
  -25.8920  -32.5780   23.7260 C   0  0  0  0  0  3  0  0  0  0  0  0
  -25.6080  -33.9660   24.1150 N   0  0  0  0  0  0  0  0  0  0  0  0
  -25.9180  -35.0400   23.3790 C   0  0  0  0  0  0  0  0  0  0  0  0
  -26.5430  -34.9680   22.3170 O   0  0  0  0  0  0  0  0  0  0  0  0
  -25.0460  -34.0990   24.9440 H   0  0  0  0  0  0  0  0  0  0  0  0
  -24.1800  -36.8480   23.1650 C   0  0  0  0  0  1  0  0  0  0  0  0
  -25.4570  -36.4150   23.9010 C   0  0  0  0  0  3  0  0  0  0  0  0
  -27.6340  -37.2630   24.6530 C   0  0  0  0  0  1  0  0  0  0  0  0
  -26.4870  -37.4690   23.7730 N   0  0  0  0  0  0  0  0  0  0  0  0
  -26.0930  -38.3830   23.9770 H   0  0  0  0  0  0  0  0  0  0  0  0
  -26.4780  -31.7630   24.9440 C   0  0  1  0  0  0  0  0  0  0  0  0
  -25.4400  -31.4660   26.0510 C   0  0  0  0  0  1  0  0  0  0  0  0
  -27.0560  -30.4110   24.4640 C   0  0  0  0  0  1  0  0  0  0  0  0
  -27.6530  -32.5430   25.5810 C   0  0  0  0  0  1  0  0  0  0  0  0
  -29.9680  -20.1830   21.2620 C   0  0  0  0  0  3  0  0  0  0  0  0
  -30.5210  -16.7670   18.5390 C   0  0  0  0  0  3  0  0  0  0  0  0
  -30.7020  -16.5100   19.9100 C   0  0  0  0  0  0  0  0  0  0  0  0
  -30.1950  -18.0280   18.0250 C   0  0  0  0  0  0  0  0  0  0  0  0
  -30.4520  -17.6080   20.8160 C   0  0  0  0  0  0  0  0  0  0  0  0
  -30.0620  -19.1320   18.9020 C   0  0  0  0  0  0  0  0  0  0  0  0
  -30.1290  -18.9350   20.3180 C   0  0  0  0  0  0  0  0  0  0  0  0
  -29.8850  -20.5240   18.2940 C   0  0  0  0  0  1  0  0  0  0  0  0
  -31.3940  -15.1770   20.2630 C   0  0  0  0  0  0  0  0  0  0  0  0
  -31.0980  -12.9130   19.3170 C   0  0  0  0  0  2  0  0  0  0  0  0
  -30.2080  -12.9740   18.0550 C   0  0  0  0  0  2  0  0  0  0  0  0
  -28.7090  -12.9650   18.4240 C   0  0  0  0  0  2  0  0  0  0  0  0
  -28.3380  -13.8860   19.6210 C   0  0  0  0  0  3  0  0  0  0  0  0
  -29.3560  -13.7770   20.7710 C   0  0  0  0  0  2  0  0  0  0  0  0
  -30.6930  -14.0040   20.2200 N   0  0  0  0  0  0  0  0  0  0  0  0
  -32.6200  -15.1860   20.1470 O   0  0  0  0  0  0  0  0  0  0  0  0
  -25.9590  -14.5730   20.2900 C   0  0  0  0  0  0  0  0  0  0  0  0
  -24.8550  -13.8390   20.6280 C   0  0  0  0  0  0  0  0  0  0  0  0
  -25.2690  -12.4720   20.6150 C   0  0  0  0  0  0  0  0  0  0  0  0
  -26.9750  -13.6540   20.0820 N   0  0  0  0  0  0  0  0  0  0  0  0
  -26.5650  -12.3870   20.3470 N   0  0  0  0  0  0  0  0  0  0  0  0
  -24.4940  -11.2360   20.7830 C   0  0  0  0  0  0  0  0  0  0  0  0
  -24.8370  -10.2770   21.7630 C   0  0  0  0  0  3  0  0  0  0  0  0
  -24.0650   -9.1060   21.9180 C   0  0  0  0  0  3  0  0  0  0  0  0
  -22.9380   -8.8840   21.0900 C   0  0  0  0  0  0  0  0  0  0  0  0
  -22.6160   -9.8290   20.1010 C   0  0  0  0  0  3  0  0  0  0  0  0
  -23.3880  -10.9930   19.9450 C   0  0  0  0  0  3  0  0  0  0  0  0
  -22.1450   -7.7630   21.1520 O   0  0  0  0  0  0  0  0  0  0  0  0
  -21.9580   -7.0770   22.3240 C   0  0  0  0  0  0  0  0  0  0  0  0
  -21.4480   -7.7040   23.4820 C   0  0  0  0  0  3  0  0  0  0  0  0
  -21.2060   -6.9460   24.6440 C   0  0  0  0  0  3  0  0  0  0  0  0
  -21.4650   -5.5620   24.6500 C   0  0  0  0  0  0  0  0  0  0  0  0
  -21.9690   -4.9350   23.4970 C   0  0  0  0  0  3  0  0  0  0  0  0
  -22.2120   -5.6910   22.3370 C   0  0  0  0  0  0  0  0  0  0  0  0
  -22.6770   -5.0780   21.2210 F   0  0  0  0  0  0  0  0  0  0  0  0
  -21.2250   -4.8310   25.7640 F   0  0  0  0  0  0  0  0  0  0  0  0
  -23.4670  -14.3660   20.8570 C   0  0  0  0  0  0  0  0  0  0  0  0
  -22.6990  -13.7110   21.7210 N   0  0  0  0  0  0  0  0  0  0  0  0
  -23.0730  -15.3900   20.3020 O   0  0  0  0  0  0  0  0  0  0  0  0
  -23.0290  -12.8780   22.1860 H   0  0  0  0  0  0  0  0  0  0  0  0
  -21.7680  -14.0470   21.9210 H   0  0  0  0  0  0  0  0  0  0  0  0
  -26.1820  -15.9360   20.1170 N   0  0  0  0  0  0  0  0  0  0  0  0
  -25.4480  -16.6280   20.2060 H   0  0  0  0  0  0  0  0  0  0  0  0
  -27.0730  -16.3320   19.8410 H   0  0  0  0  0  0  0  0  0  0  0  0
  -28.6320  -18.6060   16.1010 C   0  0  0  0  0  1  0  0  0  0  0  0
  -30.0390  -18.1450   16.5070 C   0  0  0  0  0  2  0  0  0  0  0  0
  -31.8450  -17.8970   22.9450 C   0  0  0  0  0  1  0  0  0  0  0  0
  -30.5560  -17.3470   22.3190 C   0  0  0  0  0  2  0  0  0  0  0  0
  1 50  2  0
  1  3  1  0
  3  2  1  0
  4  3  1  0
  4  5  1  0
  6  4  1  0
  7  8  1  0
  7  4  1  0
  9 11  1  0
  9  8  1  0
 10 21  2  0
 11 16  1  0
 12 20  1  0
 12 22  1  0
 13 19  1  0
 13 15  1  0
 14 20  1  0
 15 14  1  0
 16 15  2  0
 17 18  1  0
 17 11  2  0
 18 13  2  0
 19 12  1  0
 20 10  1  0
 22 24  2  0
 23 22  1  0
 25 23  1  0
 26 35  2  0
 26 31  1  0
 27 23  1  0
 27 31  1  0
 28 27  1  0
 29 30  1  0
 29 28  1  0
 30 26  1  0
 31 32  2  0
 32 33  1  0
 34 33  2  0
 35 34  1  0
 36 10  1  0
 36 37  1  0
 36 46  1  0
 37 40  1  0
 38 42  1  0
 38 37  1  0
 39 38  2  0
 42 41  1  0
 44 42  1  0
 44 45  1  0
 44 43  1  0
 46 49  1  1
 46 47  1  0
 48 46  1  0
 51 52  1  0
 52 58  1  0
 52 54  2  0
 53 51  2  0
 53 55  1  0
 54 97  1  0
 55 56  2  0
 56 54  1  0
 56 50  1  0
 57 55  1  0
 59 64  1  0
 60 61  1  0
 60 59  1  0
 62 61  1  0
 62 69  1  0
 62 63  1  0
 64 58  1  0
 64 63  1  0
 65 58  2  0
 66 67  2  0
 67 86  1  0
 68 67  1  0
 68 71  1  0
 69 66  1  0
 69 70  1  0
 70 68  2  0
 71 72  1  0
 72 73  2  0
 74 77  1  0
 74 73  1  0
 75 74  2  0
 76 75  1  0
 76 71  2  0
 77 78  1  0
 78 83  2  0
 78 79  1  0
 79 80  2  0
 80 81  1  0
 81 85  1  0
 82 81  2  0
 83 82  1  0
 84 83  1  0
 86 87  1  0
 87 90  1  0
 87 89  1  0
 88 86  2  0
 91 92  1  0
 91 66  1  0
 93 91  1  0
 94 95  1  0
 95 53  1  0
 97 96  1  0
M  ISO  4   8 101   9 101  52 100  58 100
M  END
>  <TORSDO>  (98) 
F 24

>  <SCORE>  (98) 
-9.768

>  <name>  (98) 
97

>  <ligand_id>  (98) 
97

>  <original_smiles>  (98) 
[H]c1c([H])c([H])c2c(c1[H])C([H])([H])C([H])([H])C([H])([H])C2([H])N([H])C(=O)C1([H])N(C(=O)C([H])(N([H])C(=O)C([H])(N([H])C([H])([H])[H])C([H])([H])[H])C(C([H])([H])[H])(C([H])([H])[H])C([H])([H])[H])C([H])([H])c2c([H])c(OC([H])([H])C([H])([H])[N+]([H])([H])C([H])(C([H])([H])[H])C([H])([H])C([H])([H])c3c(C([H])([H])[H])c(C([H])([H])C([H])([H])[H])c([H])c(C(=O)N4C([H])([H])C([H])([H])C([H])([H])C([H])(n5nc(-c6c([H])c([H])c(Oc7c([H])c([H])c(F)c([H])c7F)c([H])c6[H])c(C(=O)N([H])[H])c5N([H])[H])C4([H])[H])c3C([H])([H])C([H])([H])[H])c([H])c([H])c2C1([H])[H]

>  <smiles>  (98) 
[H]c1c([H])c([H])c2c(c1[H])C([H])([H])C([H])([H])C([H])([H])C2([H])N([H])C(=O)C1([H])N(C(=O)C([H])(N([H])C(=O)C([H])(N([H])C([H])([H])[H])C([H])([H])[H])C(C([H])([H])[H])(C([H])([H])[H])C([H])([H])[H])C([H])([H])c2c([H])c(OC([H])([H])C([H])([H])[N+]([H])([H])C([H])(C([H])([H])[H])C([H])([H])C([H])([H])c3c(C([H])([H])[H])c(C([H])([H])C([H])([H])[H])c([H])c(C(=O)N4C([H])([H])C([H])([H])C([H])([H])C([H])(n5nc(-c6c([H])c([H])c(Oc7c([H])c([H])c(F)c([H])c7F)c([H])c6[H])c(C(=O)N([H])[H])c5N([H])[H])C4([H])[H])c3C([H])([H])C([H])([H])[H])c([H])c([H])c2C1([H])[H]

$$$$
98:0:0
     RDKit          3D

 92100  0  0  1  0  0  0  0  0999 V2000
  -28.6040  -23.9860   17.6520 C   0  0  0  0  0  2  0  0  0  0  0  0
  -27.5770  -24.0350   18.6190 C   0  0  0  0  0  3  0  0  0  0  0  0
  -30.1150  -23.2830   19.4250 C   0  0  0  0  0  0  0  0  0  0  0  0
  -28.9430  -23.0640   20.1970 C   0  0  0  0  0  3  0  0  0  0  0  0
  -29.9390  -23.7550   18.0900 C   0  0  0  0  0  0  0  0  0  0  0  0
  -27.9980  -24.2880   19.9440 C   0  0  0  0  0  3  0  0  0  0  0  0
  -26.1800  -23.5550   18.2640 C   0  0  0  0  0  1  0  0  0  0  0  0
  -31.4230  -22.6080   19.7950 C   0  0  0  0  0  1  0  0  0  0  0  0
  -30.7980  -23.9960   15.8530 C   0  0  0  0  0  1  0  0  0  0  0  0
  -31.0280  -23.7480   17.2390 O   0  0  0  0  0  0  0  0  0  0  0  0
  -28.1630  -25.8150   20.1960 O   0  0  0  0  0  0  0  0  0  0  0  0
  -24.6410  -31.8710   23.2000 C   0  0  0  0  0  0  0  0  0  0  0  0
  -27.1660  -26.9480   20.1670 C   0  0  0  0  0  0  0  0  0  0  0  0
  -23.4350  -30.4660   21.5860 C   0  0  0  0  0  3  0  0  0  0  0  0
  -24.8700  -28.8650   20.1560 C   0  0  0  0  0  0  0  0  0  0  0  0
  -26.0050  -30.6700   21.4150 C   0  0  0  0  0  2  0  0  0  0  0  0
  -26.0710  -29.2560   20.7620 C   0  0  0  0  0  0  0  0  0  0  0  0
  -27.2110  -28.3210   20.7430 C   0  0  0  0  0  3  0  0  0  0  0  0
  -25.9220  -26.7350   19.5270 C   0  0  0  0  0  3  0  0  0  0  0  0
  -24.8230  -27.6210   19.5220 C   0  0  0  0  0  3  0  0  0  0  0  0
  -23.6530  -29.7860   20.2100 C   0  0  0  0  0  2  0  0  0  0  0  0
  -24.7160  -31.0300   22.1180 N   0  0  0  0  0  0  0  0  0  0  0  0
  -23.5550  -32.1650   23.7270 O   0  0  0  0  0  0  0  0  0  0  0  0
  -22.7530  -29.4680   22.5600 C   0  0  0  0  0  0  0  0  0  0  0  0
  -21.4230  -29.2930   22.4410 N   0  0  0  0  0  0  0  0  0  0  0  0
  -23.4240  -28.8530   23.3910 O   0  0  0  0  0  0  0  0  0  0  0  0
  -20.9320  -29.8350   21.7440 H   0  0  0  0  0  0  0  0  0  0  0  0
  -18.0490  -28.0590   22.9730 C   0  0  0  0  0  0  0  0  0  0  0  0
  -20.6070  -28.3570   23.2250 C   0  0  0  0  0  3  0  0  0  0  0  0
  -20.7230  -26.9200   22.6670 C   0  0  0  0  0  2  0  0  0  0  0  0
  -19.6230  -26.5730   21.6590 C   0  0  0  0  0  2  0  0  0  0  0  0
  -18.2410  -26.7070   22.3060 C   0  0  0  0  0  2  0  0  0  0  0  0
  -19.1600  -28.8410   23.3870 C   0  0  0  0  0  0  0  0  0  0  0  0
  -18.9270  -30.1040   23.9730 C   0  0  0  0  0  3  0  0  0  0  0  0
  -17.6160  -30.5890   24.1430 C   0  0  0  0  0  3  0  0  0  0  0  0
  -16.5200  -29.8050   23.7450 C   0  0  0  0  0  3  0  0  0  0  0  0
  -16.7360  -28.5410   23.1680 C   0  0  0  0  0  3  0  0  0  0  0  0
  -25.9140  -32.5210   23.8190 C   0  0  0  0  0  3  0  0  0  0  0  0
  -26.4360  -31.7660   25.1050 C   0  0  1  0  0  0  0  0  0  0  0  0
  -25.3470  -31.5380   26.1790 C   0  0  0  0  0  1  0  0  0  0  0  0
  -27.0220  -30.3860   24.7320 C   0  0  0  0  0  1  0  0  0  0  0  0
  -27.5840  -32.5710   25.7560 C   0  0  0  0  0  1  0  0  0  0  0  0
  -25.5950  -33.9210   24.1500 N   0  0  0  0  0  0  0  0  0  0  0  0
  -25.9170  -34.9810   23.3980 C   0  0  0  0  0  0  0  0  0  0  0  0
  -26.5780  -34.8860   22.3620 O   0  0  0  0  0  0  0  0  0  0  0  0
  -25.0080  -34.0730   24.9570 H   0  0  0  0  0  0  0  0  0  0  0  0
  -24.1820  -36.7750   23.0730 C   0  0  0  0  0  1  0  0  0  0  0  0
  -25.4300  -36.3660   23.8710 C   0  0  0  0  0  3  0  0  0  0  0  0
  -27.5680  -37.2460   24.6970 C   0  0  0  0  0  1  0  0  0  0  0  0
  -26.4590  -37.4240   23.7630 N   0  0  0  0  0  0  0  0  0  0  0  0
  -26.0510  -38.3410   23.9270 H   0  0  0  0  0  0  0  0  0  0  0  0
  -28.6400  -21.3300   20.1270 C   0  0  0  0  0  2  0  0  0  0  0  0
  -29.4300  -19.8120   20.7250 C   0  0  0  0  0  2  0  0  0  0  0  0
  -29.7670  -18.1780   20.0100 C   0  0  0  0  0  2  0  0  0  0  0  0
  -30.4520  -15.3060   20.3430 C   0  0  0  0  0  0  0  0  0  0  0  0
  -30.4200  -12.8510   19.4860 C   0  0  0  0  0  2  0  0  0  0  0  0
  -29.5220  -12.6790   18.2330 C   0  0  0  0  0  2  0  0  0  0  0  0
  -28.0610  -12.4270   18.6420 C   0  0  0  0  0  2  0  0  0  0  0  0
  -27.6060  -13.3800   19.7730 C   0  0  0  0  0  3  0  0  0  0  0  0
  -28.6360  -13.5030   20.9200 C   0  0  0  0  0  2  0  0  0  0  0  0
  -29.8860  -13.9970   20.3190 N   0  0  0  0  0  0  0  0  0  0  0  0
  -31.6520  -15.3130   20.0400 O   0  0  0  0  0  0  0  0  0  0  0  0
  -29.6990  -16.5770   20.5130 N   0  0  0  0  0  0  0  0  0  0  0  0
  -28.7700  -16.3610   20.8370 H   0  0  0  0  0  0  0  0  0  0  0  0
  -25.2140  -13.9330   20.4590 C   0  0  0  0  0  0  0  0  0  0  0  0
  -24.1500  -13.1560   20.8160 C   0  0  0  0  0  0  0  0  0  0  0  0
  -24.6240  -11.8060   20.8120 C   0  0  0  0  0  0  0  0  0  0  0  0
  -26.2680  -13.0620   20.2530 N   0  0  0  0  0  0  0  0  0  0  0  0
  -25.9220  -11.7770   20.5310 N   0  0  0  0  0  0  0  0  0  0  0  0
  -23.9000  -10.5450   21.0030 C   0  0  0  0  0  0  0  0  0  0  0  0
  -24.3140   -9.5860   21.9540 C   0  0  0  0  0  3  0  0  0  0  0  0
  -23.5850   -8.3910   22.1310 C   0  0  0  0  0  3  0  0  0  0  0  0
  -22.4270   -8.1430   21.3570 C   0  0  0  0  0  0  0  0  0  0  0  0
  -22.0310   -9.0900   20.3950 C   0  0  0  0  0  3  0  0  0  0  0  0
  -22.7610  -10.2770   20.2160 C   0  0  0  0  0  3  0  0  0  0  0  0
  -21.6700   -7.0000   21.4450 O   0  0  0  0  0  0  0  0  0  0  0  0
  -21.5970   -6.2700   22.6050 C   0  0  0  0  0  0  0  0  0  0  0  0
  -21.1430   -6.8400   23.8140 C   0  0  0  0  0  3  0  0  0  0  0  0
  -21.0190   -6.0380   24.9660 C   0  0  0  0  0  3  0  0  0  0  0  0
  -21.3370   -4.6670   24.9080 C   0  0  0  0  0  0  0  0  0  0  0  0
  -21.7840   -4.0980   23.7030 C   0  0  0  0  0  3  0  0  0  0  0  0
  -21.9100   -4.8970   22.5540 C   0  0  0  0  0  0  0  0  0  0  0  0
  -22.3210   -4.3390   21.3900 F   0  0  0  0  0  0  0  0  0  0  0  0
  -21.2120   -3.8950   26.0130 F   0  0  0  0  0  0  0  0  0  0  0  0
  -22.7460  -13.6270   21.0490 C   0  0  0  0  0  0  0  0  0  0  0  0
  -22.0050  -12.9360   21.9060 N   0  0  0  0  0  0  0  0  0  0  0  0
  -22.3170  -14.6460   20.5090 O   0  0  0  0  0  0  0  0  0  0  0  0
  -22.3600  -12.1070   22.3600 H   0  0  0  0  0  0  0  0  0  0  0  0
  -21.0650  -13.2400   22.1160 H   0  0  0  0  0  0  0  0  0  0  0  0
  -25.3700  -15.3020   20.2620 N   0  0  0  0  0  0  0  0  0  0  0  0
  -24.5930  -15.9470   20.3500 H   0  0  0  0  0  0  0  0  0  0  0  0
  -26.2070  -15.7430   19.9070 H   0  0  0  0  0  0  0  0  0  0  0  0
  1  5  1  0
  1  2  1  0
  2  7  1  0
  2  6  1  0
  3  8  1  0
  3  4  1  0
  4 52  1  0
  5  3  2  0
  6 11  1  0
  6  4  1  0
  9 10  1  0
 10  5  1  0
 12 23  2  0
 13 11  1  0
 13 18  1  0
 14 22  1  0
 14 24  1  0
 15 21  1  0
 15 17  1  0
 16 22  1  0
 17 16  1  0
 18 17  2  0
 19 13  2  0
 20 19  1  0
 20 15  2  0
 21 14  1  0
 22 12  1  0
 24 26  2  0
 25 24  1  0
 27 25  1  0
 28 37  2  0
 28 33  1  0
 29 25  1  0
 29 33  1  0
 30 29  1  0
 31 32  1  0
 31 30  1  0
 32 28  1  0
 33 34  2  0
 34 35  1  0
 36 35  2  0
 37 36  1  0
 38 12  1  0
 38 43  1  0
 38 39  1  0
 39 42  1  1
 39 40  1  0
 41 39  1  0
 43 46  1  0
 44 48  1  0
 44 43  1  0
 45 44  2  0
 48 47  1  0
 50 48  1  0
 50 51  1  0
 50 49  1  0
 52 53  1  0
 54 63  1  0
 54 53  1  0
 55 63  1  0
 56 61  1  0
 57 58  1  0
 57 56  1  0
 59 58  1  0
 59 68  1  0
 59 60  1  0
 61 55  1  0
 61 60  1  0
 62 55  2  0
 63 64  1  0
 65 66  2  0
 66 85  1  0
 67 66  1  0
 67 70  1  0
 68 65  1  0
 68 69  1  0
 69 67  2  0
 70 71  1  0
 71 72  2  0
 73 76  1  0
 73 72  1  0
 74 73  2  0
 75 74  1  0
 75 70  2  0
 76 77  1  0
 77 78  1  0
 78 79  2  0
 80 79  1  0
 80 84  1  0
 81 80  2  0
 82 77  2  0
 82 81  1  0
 83 82  1  0
 85 86  1  0
 86 89  1  0
 86 88  1  0
 87 85  2  0
 90 91  1  0
 90 65  1  0
 92 90  1  0
M  ISO  4   6 101  11 101  55 100  63 100
M  END
>  <TORSDO>  (99) 
F 20

>  <SCORE>  (99) 
-15.324

>  <name>  (99) 
98

>  <ligand_id>  (99) 
98

>  <original_smiles>  (99) 
[H]c1c([H])c([H])c2c(c1[H])C([H])([H])C([H])([H])C([H])([H])C2([H])N([H])C(=O)C1([H])N(C(=O)C([H])(N([H])C(=O)C([H])(N([H])C([H])([H])[H])C([H])([H])[H])C(C([H])([H])[H])(C([H])([H])[H])C([H])([H])[H])C([H])([H])c2c([H])c(Oc3c(C([H])([H])[H])c([H])c(OC([H])([H])[H])c(C([H])([H])[H])c3C([H])([H])C([H])([H])C([H])([H])N([H])C(=O)N3C([H])([H])C([H])([H])C([H])([H])C([H])(n4nc(-c5c([H])c([H])c(Oc6c([H])c([H])c(F)c([H])c6F)c([H])c5[H])c(C(=O)N([H])[H])c4N([H])[H])C3([H])[H])c([H])c([H])c2C1([H])[H]

>  <smiles>  (99) 
[H]c1c([H])c([H])c2c(c1[H])C([H])([H])C([H])([H])C([H])([H])C2([H])N([H])C(=O)C1([H])N(C(=O)C([H])(N([H])C(=O)C([H])(N([H])C([H])([H])[H])C([H])([H])[H])C(C([H])([H])[H])(C([H])([H])[H])C([H])([H])[H])C([H])([H])c2c([H])c(Oc3c(C([H])([H])[H])c([H])c(OC([H])([H])[H])c(C([H])([H])[H])c3C([H])([H])C([H])([H])C([H])([H])N([H])C(=O)N3C([H])([H])C([H])([H])C([H])([H])C([H])(n4nc(-c5c([H])c([H])c(Oc6c([H])c([H])c(F)c([H])c6F)c([H])c5[H])c(C(=O)N([H])[H])c4N([H])[H])C3([H])[H])c([H])c([H])c2C1([H])[H]

$$$$
