0:0:0
     RDKit          3D

 91 99  0  0  1  0  0  0  0  0999 V2000
  -30.2950  -19.5730   21.2430 C   0  0  0  0  0  3  0  0  0  0  0  0
  -30.4710  -20.9550   21.4810 C   0  0  0  0  0  3  0  0  0  0  0  0
  -28.3340  -20.1400   19.9610 C   0  0  0  0  0  3  0  0  0  0  0  0
  -29.2640  -19.0570   20.4310 C   0  0  0  0  0  0  0  0  0  0  0  0
  -28.4500  -21.6160   20.2380 C   0  0  0  0  0  0  0  0  0  0  0  0
  -29.6040  -21.9610   20.9790 C   0  0  0  0  0  0  0  0  0  0  0  0
  -29.7910  -16.3200   20.8380 C   0  0  0  0  0  2  0  0  0  0  0  0
  -29.4730  -17.4860   20.0630 C   0  0  0  0  0  3  0  0  0  0  0  0
  -30.4660  -14.9590   20.4340 C   0  0  0  0  0  0  0  0  0  0  0  0
  -30.4000  -12.5350   19.6640 C   0  0  0  0  0  2  0  0  0  0  0  0
  -29.5240  -12.4030   18.3980 C   0  0  0  0  0  2  0  0  0  0  0  0
  -28.0590  -12.1600   18.7970 C   0  0  0  0  0  2  0  0  0  0  0  0
  -27.5880  -13.1280   19.9140 C   0  0  0  0  0  3  0  0  0  0  0  0
  -28.6050  -13.2650   21.0680 C   0  0  0  0  0  2  0  0  0  0  0  0
  -29.8830  -13.6820   20.4810 N   0  0  0  0  0  0  0  0  0  0  0  0
  -31.6410  -14.9610   20.0480 O   0  0  0  0  0  0  0  0  0  0  0  0
  -25.1960  -13.6500   20.6480 C   0  0  0  0  0  0  0  0  0  0  0  0
  -24.1430  -12.8520   21.0010 C   0  0  0  0  0  0  0  0  0  0  0  0
  -24.6310  -11.5100   20.9610 C   0  0  0  0  0  0  0  0  0  0  0  0
  -26.2550  -12.7930   20.4010 N   0  0  0  0  0  0  0  0  0  0  0  0
  -25.9250  -11.5000   20.6570 N   0  0  0  0  0  0  0  0  0  0  0  0
  -23.9230  -10.2330   21.1370 C   0  0  0  0  0  0  0  0  0  0  0  0
  -24.3300   -9.2860   22.1020 C   0  0  0  0  0  3  0  0  0  0  0  0
  -23.6180   -8.0770   22.2630 C   0  0  0  0  0  3  0  0  0  0  0  0
  -22.4850   -7.8080   21.4580 C   0  0  0  0  0  0  0  0  0  0  0  0
  -22.0980   -8.7460   20.4850 C   0  0  0  0  0  3  0  0  0  0  0  0
  -22.8110   -9.9450   20.3210 C   0  0  0  0  0  3  0  0  0  0  0  0
  -21.7470   -6.6500   21.5280 O   0  0  0  0  0  0  0  0  0  0  0  0
  -21.6280   -5.9420   22.6960 C   0  0  0  0  0  0  0  0  0  0  0  0
  -20.9770   -6.4760   23.8300 C   0  0  0  0  0  3  0  0  0  0  0  0
  -20.8150   -5.6880   24.9860 C   0  0  0  0  0  3  0  0  0  0  0  0
  -21.2950   -4.3650   25.0100 C   0  0  0  0  0  0  0  0  0  0  0  0
  -21.9400   -3.8300   23.8810 C   0  0  0  0  0  3  0  0  0  0  0  0
  -22.1040   -4.6160   22.7270 C   0  0  0  0  0  0  0  0  0  0  0  0
  -22.7050   -4.0880   21.6350 F   0  0  0  0  0  0  0  0  0  0  0  0
  -21.1350   -3.6040   26.1180 F   0  0  0  0  0  0  0  0  0  0  0  0
  -22.7370  -13.3050   21.2650 C   0  0  0  0  0  0  0  0  0  0  0  0
  -22.0070  -12.5850   22.1090 N   0  0  0  0  0  0  0  0  0  0  0  0
  -22.2950  -14.3370   20.7600 O   0  0  0  0  0  0  0  0  0  0  0  0
  -22.3760  -11.7510   22.5400 H   0  0  0  0  0  0  0  0  0  0  0  0
  -21.0640  -12.8740   22.3260 H   0  0  0  0  0  0  0  0  0  0  0  0
  -25.3370  -15.0260   20.4890 N   0  0  0  0  0  0  0  0  0  0  0  0
  -24.5620  -15.6670   20.6220 H   0  0  0  0  0  0  0  0  0  0  0  0
  -26.1900  -15.4880   20.1980 H   0  0  0  0  0  0  0  0  0  0  0  0
  -29.5030  -17.3600   18.7320 O   0  0  0  0  0  0  0  0  0  0  0  0
  -29.3790  -18.2280   18.3640 H   0  0  0  0  0  0  0  0  0  0  0  0
  -31.1560  -23.7700   21.2570 C   0  0  0  0  0  1  0  0  0  0  0  0
  -29.8110  -23.3020   21.2190 O   0  0  0  0  0  0  0  0  0  0  0  0
  -27.3720  -22.8690   19.9800 C   0  0  0  0  0  2  0  0  0  0  0  0
  -27.5960  -24.3950   19.2510 C   0  0  0  0  0  2  0  0  0  0  0  0
  -27.6190  -25.8750   19.7780 O   0  0  0  0  0  0  0  0  0  0  0  0
  -24.4980  -31.6400   23.1120 C   0  0  0  0  0  0  0  0  0  0  0  0
  -26.6160  -26.9130   19.7360 C   0  0  0  0  0  0  0  0  0  0  0  0
  -23.1410  -30.4200   21.4510 C   0  0  0  0  0  3  0  0  0  0  0  0
  -24.4170  -28.8200   19.8850 C   0  0  0  0  0  0  0  0  0  0  0  0
  -25.6980  -30.5100   21.1990 C   0  0  0  0  0  2  0  0  0  0  0  0
  -25.6450  -29.1530   20.4700 C   0  0  0  0  0  0  0  0  0  0  0  0
  -26.7390  -28.2140   20.3800 C   0  0  0  0  0  3  0  0  0  0  0  0
  -25.3710  -26.6830   19.1140 C   0  0  0  0  0  3  0  0  0  0  0  0
  -24.2950  -27.6010   19.1920 C   0  0  0  0  0  3  0  0  0  0  0  0
  -23.2620  -29.7980   20.0320 C   0  0  0  0  0  2  0  0  0  0  0  0
  -24.4700  -30.8750   21.9770 N   0  0  0  0  0  0  0  0  0  0  0  0
  -23.4570  -31.9710   23.6980 O   0  0  0  0  0  0  0  0  0  0  0  0
  -22.4280  -29.4160   22.3920 C   0  0  0  0  0  0  0  0  0  0  0  0
  -21.0870  -29.3390   22.3040 N   0  0  0  0  0  0  0  0  0  0  0  0
  -23.0810  -28.7100   23.1630 O   0  0  0  0  0  0  0  0  0  0  0  0
  -20.6180  -29.9590   21.6570 H   0  0  0  0  0  0  0  0  0  0  0  0
  -17.6530  -28.3340   22.8690 C   0  0  0  0  0  0  0  0  0  0  0  0
  -20.2310  -28.4190   23.0580 C   0  0  0  0  0  3  0  0  0  0  0  0
  -20.2190  -27.0130   22.4170 C   0  0  0  0  0  2  0  0  0  0  0  0
  -19.0680  -26.8110   21.4260 C   0  0  0  0  0  2  0  0  0  0  0  0
  -17.7190  -27.0120   22.1230 C   0  0  0  0  0  2  0  0  0  0  0  0
  -18.8320  -29.0030   23.2940 C   0  0  0  0  0  0  0  0  0  0  0  0
  -18.7120  -30.2450   23.9550 C   0  0  0  0  0  3  0  0  0  0  0  0
  -17.4480  -30.8170   24.1920 C   0  0  0  0  0  3  0  0  0  0  0  0
  -16.2850  -30.1450   23.7800 C   0  0  0  0  0  3  0  0  0  0  0  0
  -16.3880  -28.9040   23.1250 C   0  0  0  0  0  3  0  0  0  0  0  0
  -25.8420  -32.1520   23.7170 C   0  0  0  0  0  3  0  0  0  0  0  0
  -25.6410  -33.5460   24.1450 N   0  0  0  0  0  0  0  0  0  0  0  0
  -26.0840  -34.6210   23.4800 C   0  0  0  0  0  0  0  0  0  0  0  0
  -26.7710  -34.5380   22.4590 O   0  0  0  0  0  0  0  0  0  0  0  0
  -25.0370  -33.6910   24.9410 H   0  0  0  0  0  0  0  0  0  0  0  0
  -24.5930  -36.6270   23.1780 C   0  0  0  0  0  1  0  0  0  0  0  0
  -25.7100  -36.0090   24.0360 C   0  0  0  0  0  3  0  0  0  0  0  0
  -27.8290  -36.5900   25.1340 C   0  0  0  0  0  1  0  0  0  0  0  0
  -26.8530  -36.9450   24.1070 N   0  0  0  0  0  0  0  0  0  0  0  0
  -26.5310  -37.8920   24.2900 H   0  0  0  0  0  0  0  0  0  0  0  0
  -26.3490  -31.2770   24.9310 C   0  0  1  0  0  0  0  0  0  0  0  0
  -25.2810  -31.0570   26.0290 C   0  0  0  0  0  1  0  0  0  0  0  0
  -26.8180  -29.8850   24.4500 C   0  0  0  0  0  1  0  0  0  0  0  0
  -27.5750  -31.9540   25.5900 C   0  0  0  0  0  1  0  0  0  0  0  0
  1  2  1  0
  3  5  2  0
  3  4  1  0
  4  1  2  0
  5  6  1  0
  6 48  1  0
  6  2  2  0
  8  4  1  0
  8  7  1  0
  9 15  1  0
  9  7  1  0
 10 15  1  0
 11 12  1  0
 11 10  1  0
 13 12  1  0
 13 20  1  0
 13 14  1  0
 15 14  1  0
 16  9  2  0
 17 18  2  0
 18 37  1  0
 19 18  1  0
 19 22  1  0
 20 17  1  0
 20 21  1  0
 21 19  2  0
 22 23  1  0
 23 24  2  0
 25 28  1  0
 25 24  1  0
 26 25  2  0
 27 26  1  0
 27 22  2  0
 28 29  1  0
 29 34  2  0
 29 30  1  0
 30 31  2  0
 31 32  1  0
 32 36  1  0
 33 32  2  0
 34 33  1  0
 35 34  1  0
 37 38  1  0
 38 41  1  0
 38 40  1  0
 39 37  2  0
 42 43  1  0
 42 17  1  0
 44 42  1  0
 45  8  1  0
 46 45  1  0
 48 47  1  0
 49  5  1  0
 50 51  1  0
 50 49  1  0
 52 63  2  0
 53 51  1  0
 53 58  1  0
 54 62  1  0
 54 64  1  0
 55 61  1  0
 55 57  1  0
 56 62  1  0
 57 56  1  0
 58 57  2  0
 59 60  1  0
 59 53  2  0
 60 55  2  0
 61 54  1  0
 62 52  1  0
 64 66  2  0
 65 64  1  0
 67 65  1  0
 68 77  2  0
 68 73  1  0
 69 65  1  0
 69 73  1  0
 70 69  1  0
 71 72  1  0
 71 70  1  0
 72 68  1  0
 73 74  2  0
 74 75  1  0
 76 75  2  0
 77 76  1  0
 78 52  1  0
 78 79  1  0
 78 88  1  0
 79 82  1  0
 80 84  1  0
 80 79  1  0
 81 80  2  0
 84 83  1  0
 84 86  1  0
 86 87  1  0
 86 85  1  0
 88 91  1  1
 88 89  1  0
 90 88  1  0
M  ISO  4   7 100   9 100  50 101  51 101
M  END
>  <TORSDO>  (1) 
F 21

>  <SCORE>  (1) 
-13.604

>  <name>  (1) 
0

>  <ligand_id>  (1) 
0

>  <original_smiles>  (1) 
[H]OC(=C([H])C(=O)N1C([H])([H])C([H])([H])C([H])([H])C([H])(n2nc(-c3c([H])c([H])c(Oc4c([H])c([H])c(F)c([H])c4F)c([H])c3[H])c(C(=O)N([H])[H])c2N([H])[H])C1([H])[H])c1c([H])c([H])c(OC([H])([H])[H])c(C([H])([H])C([H])([H])Oc2c([H])c([H])c3c(c2[H])C([H])([H])N(C(=O)C([H])(N([H])C(=O)C([H])(N([H])C([H])([H])[H])C([H])([H])[H])C(C([H])([H])[H])(C([H])([H])[H])C([H])([H])[H])C([H])(C(=O)N([H])C2([H])c4c([H])c([H])c([H])c([H])c4C([H])([H])C([H])([H])C2([H])[H])C3([H])[H])c1[H]

>  <smiles>  (1) 
[H]OC(=C([H])C(=O)N1C([H])([H])C([H])([H])C([H])([H])C([H])(n2nc(-c3c([H])c([H])c(Oc4c([H])c([H])c(F)c([H])c4F)c([H])c3[H])c(C(=O)N([H])[H])c2N([H])[H])C1([H])[H])c1c([H])c([H])c(OC([H])([H])[H])c(C([H])([H])C([H])([H])Oc2c([H])c([H])c3c(c2[H])C([H])([H])N(C(=O)C([H])(N([H])C(=O)C([H])(N([H])C([H])([H])[H])C([H])([H])[H])C(C([H])([H])[H])(C([H])([H])[H])C([H])([H])[H])C([H])(C(=O)N([H])C2([H])c4c([H])c([H])c([H])c([H])c4C([H])([H])C([H])([H])C2([H])[H])C3([H])[H])c1[H]

$$$$
1:0:0
     RDKit          3D

 95103  0  0  1  0  0  0  0  0999 V2000
  -29.3770  -21.5890   20.5860 C   0  0  0  0  0  3  0  0  0  0  0  0
  -29.2440  -17.3610   20.6200 C   0  0  0  0  0  3  0  0  0  0  0  0
  -28.9120  -18.7900   20.7820 C   0  0  0  0  0  3  0  0  0  0  0  0
  -30.4740  -19.3760   19.1880 C   0  0  0  0  0  3  0  0  0  0  0  0
  -30.2350  -16.8060   19.7240 C   0  0  0  0  0  0  0  0  0  0  0  0
  -29.5300  -19.9370   20.1210 C   0  0  0  0  0  0  0  0  0  0  0  0
  -30.7920  -17.9470   18.9780 C   0  0  0  0  0  0  0  0  0  0  0  0
  -30.7710  -15.2330   19.6090 C   0  0  0  0  0  0  0  0  0  0  0  0
  -30.4800  -12.8590   18.6950 C   0  0  0  0  0  2  0  0  0  0  0  0
  -29.4600  -12.7910   17.5370 C   0  0  0  0  0  2  0  0  0  0  0  0
  -28.0410  -12.5780   18.0890 C   0  0  0  0  0  2  0  0  0  0  0  0
  -27.7340  -13.5110   19.2890 C   0  0  0  0  0  3  0  0  0  0  0  0
  -28.8800  -13.5740   20.3180 C   0  0  0  0  0  2  0  0  0  0  0  0
  -30.0880  -13.9970   19.6010 N   0  0  0  0  0  0  0  0  0  0  0  0
  -31.9620  -15.0980   19.3070 O   0  0  0  0  0  0  0  0  0  0  0  0
  -25.4640  -14.0950   20.2870 C   0  0  0  0  0  0  0  0  0  0  0  0
  -24.4210  -13.3280   20.7260 C   0  0  0  0  0  0  0  0  0  0  0  0
  -24.8480  -11.9690   20.6020 C   0  0  0  0  0  0  0  0  0  0  0  0
  -26.4540  -13.2070   19.9120 N   0  0  0  0  0  0  0  0  0  0  0  0
  -26.1040  -11.9190   20.1710 N   0  0  0  0  0  0  0  0  0  0  0  0
  -24.1090  -10.7170   20.8130 C   0  0  0  0  0  0  0  0  0  0  0  0
  -24.5550   -9.7380   21.7280 C   0  0  0  0  0  3  0  0  0  0  0  0
  -23.8140   -8.5540   21.9280 C   0  0  0  0  0  3  0  0  0  0  0  0
  -22.6110   -8.3390   21.2140 C   0  0  0  0  0  0  0  0  0  0  0  0
  -22.1820   -9.3060   20.2870 C   0  0  0  0  0  3  0  0  0  0  0  0
  -22.9250  -10.4820   20.0850 C   0  0  0  0  0  3  0  0  0  0  0  0
  -21.8390   -7.2070   21.3240 O   0  0  0  0  0  0  0  0  0  0  0  0
  -21.7530   -6.5060   22.5010 C   0  0  0  0  0  0  0  0  0  0  0  0
  -21.3100   -7.1100   23.6980 C   0  0  0  0  0  3  0  0  0  0  0  0
  -21.1710   -6.3360   24.8670 C   0  0  0  0  0  3  0  0  0  0  0  0
  -21.4650   -4.9600   24.8410 C   0  0  0  0  0  0  0  0  0  0  0  0
  -21.9010   -4.3560   23.6480 C   0  0  0  0  0  3  0  0  0  0  0  0
  -22.0410   -5.1270   22.4810 C   0  0  0  0  0  0  0  0  0  0  0  0
  -22.4410   -4.5350   21.3290 F   0  0  0  0  0  0  0  0  0  0  0  0
  -21.3240   -4.2140   25.9610 F   0  0  0  0  0  0  0  0  0  0  0  0
  -23.0670  -13.8250   21.1380 C   0  0  0  0  0  0  0  0  0  0  0  0
  -22.4120  -13.1270   22.0580 N   0  0  0  0  0  0  0  0  0  0  0  0
  -22.6030  -14.8680   20.6780 O   0  0  0  0  0  0  0  0  0  0  0  0
  -22.8020  -12.2840   22.4510 H   0  0  0  0  0  0  0  0  0  0  0  0
  -21.5070  -13.4430   22.3770 H   0  0  0  0  0  0  0  0  0  0  0  0
  -25.6470  -15.4680   20.1470 N   0  0  0  0  0  0  0  0  0  0  0  0
  -24.9130  -16.1360   20.3600 H   0  0  0  0  0  0  0  0  0  0  0  0
  -26.4730  -15.8990   19.7530 H   0  0  0  0  0  0  0  0  0  0  0  0
  -31.1190  -17.0870   16.6060 C   0  0  0  0  0  1  0  0  0  0  0  0
  -31.7870  -17.7010   17.8450 C   0  0  0  0  0  2  0  0  0  0  0  0
  -28.6260  -23.0050   19.8830 C   0  0  0  0  0  2  0  0  0  0  0  0
  -28.3250  -24.5710   20.6270 C   0  0  0  0  0  2  0  0  0  0  0  0
  -28.4480  -26.1060   20.1760 O   0  0  0  0  0  0  0  0  0  0  0  0
  -24.6080  -31.7830   23.1750 C   0  0  0  0  0  0  0  0  0  0  0  0
  -27.3640  -27.0910   20.1800 C   0  0  0  0  0  0  0  0  0  0  0  0
  -23.4720  -30.3420   21.5320 C   0  0  0  0  0  3  0  0  0  0  0  0
  -24.9850  -28.8060   20.1210 C   0  0  0  0  0  0  0  0  0  0  0  0
  -26.0210  -30.6840   21.3830 C   0  0  0  0  0  2  0  0  0  0  0  0
  -26.1500  -29.2850   20.7340 C   0  0  0  0  0  0  0  0  0  0  0  0
  -27.3420  -28.4490   20.7350 C   0  0  0  0  0  3  0  0  0  0  0  0
  -26.1670  -26.7320   19.5290 C   0  0  0  0  0  3  0  0  0  0  0  0
  -25.0110  -27.5470   19.4990 C   0  0  0  0  0  3  0  0  0  0  0  0
  -23.7280  -29.6680   20.1580 C   0  0  0  0  0  2  0  0  0  0  0  0
  -24.7200  -30.9620   22.0850 N   0  0  0  0  0  0  0  0  0  0  0  0
  -23.5090  -32.0270   23.6980 O   0  0  0  0  0  0  0  0  0  0  0  0
  -22.8230  -29.3140   22.4950 C   0  0  0  0  0  0  0  0  0  0  0  0
  -21.5100  -29.0640   22.3400 N   0  0  0  0  0  0  0  0  0  0  0  0
  -23.5070  -28.7430   23.3470 O   0  0  0  0  0  0  0  0  0  0  0  0
  -21.0110  -29.5810   21.6300 H   0  0  0  0  0  0  0  0  0  0  0  0
  -18.2090  -27.6220   22.7410 C   0  0  0  0  0  0  0  0  0  0  0  0
  -20.7260  -28.0890   23.1050 C   0  0  0  0  0  3  0  0  0  0  0  0
  -20.9600  -26.6520   22.5820 C   0  0  0  0  0  2  0  0  0  0  0  0
  -19.9310  -26.2170   21.5330 C   0  0  0  0  0  2  0  0  0  0  0  0
  -18.5160  -26.2720   22.1140 C   0  0  0  0  0  2  0  0  0  0  0  0
  -19.2460  -28.4800   23.1910 C   0  0  0  0  0  0  0  0  0  0  0  0
  -18.9040  -29.7370   23.7380 C   0  0  0  0  0  3  0  0  0  0  0  0
  -17.5590  -30.1370   23.8390 C   0  0  0  0  0  3  0  0  0  0  0  0
  -16.5360  -29.2770   23.4040 C   0  0  0  0  0  3  0  0  0  0  0  0
  -16.8610  -28.0210   22.8600 C   0  0  0  0  0  3  0  0  0  0  0  0
  -25.8540  -32.4730   23.8090 C   0  0  0  0  0  3  0  0  0  0  0  0
  -25.5000  -33.8740   24.0890 N   0  0  0  0  0  0  0  0  0  0  0  0
  -25.8260  -34.9180   23.3150 C   0  0  0  0  0  0  0  0  0  0  0  0
  -26.5220  -34.8030   22.3030 O   0  0  0  0  0  0  0  0  0  0  0  0
  -24.8830  -34.0340   24.8720 H   0  0  0  0  0  0  0  0  0  0  0  0
  -24.0640  -36.6640   22.8890 C   0  0  0  0  0  1  0  0  0  0  0  0
  -25.3010  -36.3080   23.7270 C   0  0  0  0  0  3  0  0  0  0  0  0
  -27.4000  -37.2700   24.5650 C   0  0  0  0  0  1  0  0  0  0  0  0
  -26.3100  -37.3820   23.6000 N   0  0  0  0  0  0  0  0  0  0  0  0
  -25.8800  -38.2960   23.7120 H   0  0  0  0  0  0  0  0  0  0  0  0
  -26.3510  -31.7610   25.1270 C   0  0  1  0  0  0  0  0  0  0  0  0
  -25.2350  -31.5380   26.1740 C   0  0  0  0  0  1  0  0  0  0  0  0
  -26.9760  -30.3840   24.8100 C   0  0  0  0  0  1  0  0  0  0  0  0
  -27.4640  -32.6070   25.7910 C   0  0  0  0  0  1  0  0  0  0  0  0
  -29.1280  -21.6560   22.1200 C   0  0  0  0  0  2  0  0  0  0  0  0
  -31.2730  -22.2420   23.2370 C   0  0  0  0  0  1  0  0  0  0  0  0
  -30.2750  -21.1790   22.9480 N   0  0  1  0  0  4  0  0  0  0  0  0
  -30.7410  -20.4850   22.3780 H   0  0  0  0  0  0  0  0  0  0  0  0
  -29.8260  -20.4780   24.1840 C   0  0  0  0  0  2  0  0  0  0  0  0
  -30.1120  -18.3750   25.6230 C   0  0  0  0  0  1  0  0  0  0  0  0
  -30.7570  -19.3180   24.5970 C   0  0  0  0  0  2  0  0  0  0  0  0
  1 46  1  0
  1 89  1  0
  2  3  1  0
  4  6  1  0
  5  2  2  0
  6  1  1  0
  6  3  2  0
  7  4  2  0
  7  5  1  0
  8  5  1  0
  9 14  1  0
 10 11  1  0
 10  9  1  0
 12 11  1  0
 12 19  1  0
 12 13  1  0
 14  8  1  0
 14 13  1  0
 15  8  2  0
 16 17  2  0
 17 36  1  0
 18 17  1  0
 18 21  1  0
 19 20  1  0
 19 16  1  0
 20 18  2  0
 21 22  1  0
 22 23  2  0
 24 27  1  0
 24 23  1  0
 25 24  2  0
 26 25  1  0
 26 21  2  0
 27 28  1  0
 28 29  1  0
 29 30  2  0
 31 30  1  0
 31 35  1  0
 32 31  2  0
 33 28  2  0
 33 32  1  0
 34 33  1  0
 36 37  1  0
 37 40  1  0
 37 39  1  0
 38 36  2  0
 41 16  1  0
 41 42  1  0
 43 41  1  0
 44 45  1  0
 45  7  1  0
 46 47  1  0
 48 50  1  0
 48 47  1  0
 49 60  2  0
 50 55  1  0
 51 59  1  0
 51 61  1  0
 52 58  1  0
 52 54  1  0
 53 59  1  0
 54 55  2  0
 54 53  1  0
 56 50  2  0
 57 56  1  0
 57 52  2  0
 58 51  1  0
 59 49  1  0
 61 63  2  0
 62 61  1  0
 64 62  1  0
 65 74  2  0
 65 70  1  0
 66 62  1  0
 66 70  1  0
 67 66  1  0
 68 69  1  0
 68 67  1  0
 69 65  1  0
 70 71  2  0
 71 72  1  0
 73 72  2  0
 74 73  1  0
 75 49  1  0
 75 76  1  0
 75 85  1  0
 76 79  1  0
 77 81  1  0
 77 76  1  0
 78 77  2  0
 81 80  1  0
 83 84  1  0
 83 81  1  0
 83 82  1  0
 85 88  1  1
 85 86  1  0
 87 85  1  0
 89 91  1  0
 91 90  1  0
 91 93  1  0
 91 92  1  6
 93 95  1  0
 95 94  1  0
M  ISO  4   5 100   8 100  47 101  48 101
M  END
>  <TORSDO>  (2) 
F 24

>  <SCORE>  (2) 
-9.365

>  <name>  (2) 
1

>  <ligand_id>  (2) 
1

>  <original_smiles>  (2) 
[H]c1c([H])c([H])c2c(c1[H])C([H])([H])C([H])([H])C([H])([H])C2([H])N([H])C(=O)C1([H])N(C(=O)C([H])(N([H])C(=O)C([H])(N([H])C([H])([H])[H])C([H])([H])[H])C(C([H])([H])[H])(C([H])([H])[H])C([H])([H])[H])C([H])([H])c2c([H])c(OC([H])([H])C([H])([H])C([H])(c3c([H])c([H])c(C(=O)N4C([H])([H])C([H])([H])C([H])([H])C([H])(n5nc(-c6c([H])c([H])c(Oc7c([H])c([H])c(F)c([H])c7F)c([H])c6[H])c(C(=O)N([H])[H])c5N([H])[H])C4([H])[H])c(C([H])([H])C([H])([H])[H])c3[H])C([H])([H])[N+]([H])(C([H])([H])[H])C([H])([H])C([H])([H])C([H])([H])[H])c([H])c([H])c2C1([H])[H]

>  <smiles>  (2) 
[H]c1c([H])c([H])c2c(c1[H])C([H])([H])C([H])([H])C([H])([H])C2([H])N([H])C(=O)C1([H])N(C(=O)C([H])(N([H])C(=O)C([H])(N([H])C([H])([H])[H])C([H])([H])[H])C(C([H])([H])[H])(C([H])([H])[H])C([H])([H])[H])C([H])([H])c2c([H])c(OC([H])([H])C([H])([H])C([H])(c3c([H])c([H])c(C(=O)N4C([H])([H])C([H])([H])C([H])([H])C([H])(n5nc(-c6c([H])c([H])c(Oc7c([H])c([H])c(F)c([H])c7F)c([H])c6[H])c(C(=O)N([H])[H])c5N([H])[H])C4([H])[H])c(C([H])([H])C([H])([H])[H])c3[H])C([H])([H])[N+]([H])(C([H])([H])[H])C([H])([H])C([H])([H])C([H])([H])[H])c([H])c([H])c2C1([H])[H]

$$$$
2:0:0
     RDKit          3D

 93102  0  0  1  0  0  0  0  0999 V2000
  -30.2110  -23.1430   20.2300 C   0  0  0  0  0  3  0  0  0  0  0  0
  -30.4130  -21.8450   19.8900 C   0  0  0  0  0  3  0  0  0  0  0  0
  -28.2190  -22.0180   20.5250 C   0  0  0  0  0  0  0  0  0  0  0  0
  -28.7980  -23.5090   20.6590 C   0  0  0  0  0  3  0  0  0  0  0  0
  -29.1690  -20.9710   19.7730 C   0  0  1  0  0  0  0  0  0  0  0  0
  -28.7570  -21.0570   18.2850 C   0  0  0  0  0  1  0  0  0  0  0  0
  -27.1090  -21.7030   20.9630 O   0  0  0  0  0  0  0  0  0  0  0  0
  -28.7390  -18.3180   19.3750 C   0  0  0  0  0  3  0  0  0  0  0  0
  -30.2250  -18.8260   21.1290 C   0  0  0  0  0  3  0  0  0  0  0  0
  -29.9730  -16.3750   20.4350 C   0  0  0  0  0  0  0  0  0  0  0  0
  -29.3330  -19.3730   20.1510 C   0  0  0  0  0  0  0  0  0  0  0  0
  -29.0590  -16.9140   19.4780 C   0  0  0  0  0  0  0  0  0  0  0  0
  -30.5310  -17.4120   21.2660 C   0  0  0  0  0  0  0  0  0  0  0  0
  -28.5340  -16.0990   18.5350 F   0  0  0  0  0  0  0  0  0  0  0  0
  -31.4460  -17.0670   22.2040 F   0  0  0  0  0  0  0  0  0  0  0  0
  -30.5850  -14.9080   20.3530 C   0  0  0  0  0  0  0  0  0  0  0  0
  -30.3390  -12.5870   19.4200 C   0  0  0  0  0  2  0  0  0  0  0  0
  -29.4320  -12.5980   18.1720 C   0  0  0  0  0  2  0  0  0  0  0  0
  -27.9610  -12.4100   18.5850 C   0  0  0  0  0  2  0  0  0  0  0  0
  -27.5530  -13.3350   19.7620 C   0  0  0  0  0  3  0  0  0  0  0  0
  -28.5990  -13.3620   20.8950 C   0  0  0  0  0  2  0  0  0  0  0  0
  -29.8970  -13.7020   20.3020 N   0  0  0  0  0  0  0  0  0  0  0  0
  -31.7960  -14.8600   20.1190 O   0  0  0  0  0  0  0  0  0  0  0  0
  -25.1700  -13.9350   20.4660 C   0  0  0  0  0  0  0  0  0  0  0  0
  -24.0970  -13.1670   20.8270 C   0  0  0  0  0  0  0  0  0  0  0  0
  -24.5580  -11.8140   20.8160 C   0  0  0  0  0  0  0  0  0  0  0  0
  -26.2110  -13.0490   20.2510 N   0  0  0  0  0  0  0  0  0  0  0  0
  -25.8540  -11.7700   20.5290 N   0  0  0  0  0  0  0  0  0  0  0  0
  -23.8260  -10.5560   21.0060 C   0  0  0  0  0  0  0  0  0  0  0  0
  -24.2440   -9.5930   21.9510 C   0  0  0  0  0  3  0  0  0  0  0  0
  -23.5100   -8.4000   22.1290 C   0  0  0  0  0  3  0  0  0  0  0  0
  -22.3460   -8.1620   21.3610 C   0  0  0  0  0  0  0  0  0  0  0  0
  -21.9490   -9.1130   20.4050 C   0  0  0  0  0  3  0  0  0  0  0  0
  -22.6830  -10.2970   20.2250 C   0  0  0  0  0  3  0  0  0  0  0  0
  -21.5850   -7.0210   21.4480 O   0  0  0  0  0  0  0  0  0  0  0  0
  -21.5280   -6.2800   22.6010 C   0  0  0  0  0  0  0  0  0  0  0  0
  -21.1010   -6.8400   23.8250 C   0  0  0  0  0  3  0  0  0  0  0  0
  -20.9890   -6.0260   24.9700 C   0  0  0  0  0  3  0  0  0  0  0  0
  -21.2970   -4.6540   24.8920 C   0  0  0  0  0  0  0  0  0  0  0  0
  -21.7190   -4.0950   23.6730 C   0  0  0  0  0  3  0  0  0  0  0  0
  -21.8310   -4.9060   22.5300 C   0  0  0  0  0  0  0  0  0  0  0  0
  -22.2180   -4.3580   21.3530 F   0  0  0  0  0  0  0  0  0  0  0  0
  -21.1830   -3.8710   25.9900 F   0  0  0  0  0  0  0  0  0  0  0  0
  -22.6970  -13.6510   21.0670 C   0  0  0  0  0  0  0  0  0  0  0  0
  -21.9520  -12.9640   21.9250 N   0  0  0  0  0  0  0  0  0  0  0  0
  -22.2730  -14.6730   20.5300 O   0  0  0  0  0  0  0  0  0  0  0  0
  -22.3080  -12.1360   22.3810 H   0  0  0  0  0  0  0  0  0  0  0  0
  -21.0120  -13.2710   22.1310 H   0  0  0  0  0  0  0  0  0  0  0  0
  -25.3430  -15.3030   20.2770 N   0  0  0  0  0  0  0  0  0  0  0  0
  -24.5780  -15.9630   20.3670 H   0  0  0  0  0  0  0  0  0  0  0  0
  -26.1980  -15.7290   19.9440 H   0  0  0  0  0  0  0  0  0  0  0  0
  -28.0450  -24.8170   19.9740 C   0  0  0  0  0  2  0  0  0  0  0  0
  -28.2770  -26.3060   20.2830 O   0  0  0  0  0  0  0  0  0  0  0  0
  -24.6090  -31.8990   23.2390 C   0  0  0  0  0  0  0  0  0  0  0  0
  -27.2110  -27.2570   20.1870 C   0  0  0  0  0  0  0  0  0  0  0  0
  -23.4140  -30.5060   21.5920 C   0  0  0  0  0  3  0  0  0  0  0  0
  -24.8710  -28.9580   20.1560 C   0  0  0  0  0  0  0  0  0  0  0  0
  -25.9630  -30.7970   21.4290 C   0  0  0  0  0  2  0  0  0  0  0  0
  -26.0420  -29.4130   20.7730 C   0  0  0  0  0  0  0  0  0  0  0  0
  -27.2130  -28.5750   20.7770 C   0  0  0  0  0  3  0  0  0  0  0  0
  -26.0200  -26.9010   19.5120 C   0  0  0  0  0  3  0  0  0  0  0  0
  -24.8690  -27.7130   19.5110 C   0  0  0  0  0  3  0  0  0  0  0  0
  -23.6360  -29.8400   20.2100 C   0  0  0  0  0  2  0  0  0  0  0  0
  -24.6810  -31.0870   22.1420 N   0  0  0  0  0  0  0  0  0  0  0  0
  -23.5230  -32.1770   23.7690 O   0  0  0  0  0  0  0  0  0  0  0  0
  -22.7440  -29.4880   22.5480 C   0  0  0  0  0  0  0  0  0  0  0  0
  -21.4180  -29.3100   22.4180 N   0  0  0  0  0  0  0  0  0  0  0  0
  -23.4190  -28.8610   23.3680 O   0  0  0  0  0  0  0  0  0  0  0  0
  -20.9310  -29.8670   21.7290 H   0  0  0  0  0  0  0  0  0  0  0  0
  -18.0410  -28.0990   22.9050 C   0  0  0  0  0  0  0  0  0  0  0  0
  -20.5970  -28.3690   23.1840 C   0  0  0  0  0  3  0  0  0  0  0  0
  -20.7070  -26.9390   22.6080 C   0  0  0  0  0  2  0  0  0  0  0  0
  -19.6110  -26.6130   21.5890 C   0  0  0  0  0  2  0  0  0  0  0  0
  -18.2260  -26.7510   22.2280 C   0  0  0  0  0  2  0  0  0  0  0  0
  -19.1550  -28.8650   23.3400 C   0  0  0  0  0  0  0  0  0  0  0  0
  -18.9290  -30.1250   23.9350 C   0  0  0  0  0  3  0  0  0  0  0  0
  -17.6210  -30.6180   24.1010 C   0  0  0  0  0  3  0  0  0  0  0  0
  -16.5210  -29.8480   23.6820 C   0  0  0  0  0  3  0  0  0  0  0  0
  -16.7320  -28.5910   23.0900 C   0  0  0  0  0  3  0  0  0  0  0  0
  -25.8860  -32.5360   23.8670 C   0  0  0  0  0  3  0  0  0  0  0  0
  -25.5720  -33.9350   24.1960 N   0  0  0  0  0  0  0  0  0  0  0  0
  -25.8920  -34.9880   23.4340 C   0  0  0  0  0  0  0  0  0  0  0  0
  -26.5500  -34.8860   22.3950 O   0  0  0  0  0  0  0  0  0  0  0  0
  -24.9850  -34.0870   25.0040 H   0  0  0  0  0  0  0  0  0  0  0  0
  -24.1480  -36.7740   23.1070 C   0  0  0  0  0  1  0  0  0  0  0  0
  -25.4060  -36.3770   23.8960 C   0  0  0  0  0  3  0  0  0  0  0  0
  -27.5490  -37.2770   24.6860 C   0  0  0  0  0  1  0  0  0  0  0  0
  -26.4310  -37.4350   23.7600 N   0  0  0  0  0  0  0  0  0  0  0  0
  -26.0220  -38.3540   23.9090 H   0  0  0  0  0  0  0  0  0  0  0  0
  -26.3940  -31.7680   25.1510 C   0  0  1  0  0  0  0  0  0  0  0  0
  -25.2930  -31.5360   26.2120 C   0  0  0  0  0  1  0  0  0  0  0  0
  -26.9790  -30.3890   24.7710 C   0  0  0  0  0  1  0  0  0  0  0  0
  -27.5420  -32.5640   25.8150 C   0  0  0  0  0  1  0  0  0  0  0  0
  1  4  1  0
  2  1  2  0
  3  4  1  0
  3  7  2  0
  4 52  1  0
  5  6  1  6
  5  2  1  0
  5 11  1  0
  5  3  1  0
  8 12  2  0
  8 11  1  0
  9 13  1  0
 10 13  2  0
 11  9  2  0
 12 10  1  0
 13 15  1  0
 14 12  1  0
 16 10  1  0
 17 22  1  0
 18 19  1  0
 18 17  1  0
 20 19  1  0
 20 27  1  0
 20 21  1  0
 22 16  1  0
 22 21  1  0
 23 16  2  0
 24 25  2  0
 25 44  1  0
 26 25  1  0
 26 29  1  0
 27 24  1  0
 27 28  1  0
 28 26  2  0
 29 30  1  0
 30 31  2  0
 32 35  1  0
 32 31  1  0
 33 32  2  0
 34 33  1  0
 34 29  2  0
 35 36  1  0
 36 37  1  0
 37 38  2  0
 39 38  1  0
 39 43  1  0
 40 39  2  0
 41 36  2  0
 41 40  1  0
 42 41  1  0
 44 45  1  0
 45 48  1  0
 45 47  1  0
 46 44  2  0
 49 50  1  0
 49 24  1  0
 51 49  1  0
 52 53  1  0
 54 65  2  0
 55 53  1  0
 55 60  1  0
 56 64  1  0
 56 66  1  0
 57 63  1  0
 57 59  1  0
 58 64  1  0
 59 60  2  0
 59 58  1  0
 61 55  2  0
 62 61  1  0
 62 57  2  0
 63 56  1  0
 64 54  1  0
 66 68  2  0
 67 66  1  0
 69 67  1  0
 70 79  2  0
 70 75  1  0
 71 67  1  0
 71 75  1  0
 72 71  1  0
 73 74  1  0
 73 72  1  0
 74 70  1  0
 75 76  2  0
 76 77  1  0
 78 77  2  0
 79 78  1  0
 80 54  1  0
 80 81  1  0
 80 90  1  0
 81 84  1  0
 82 86  1  0
 82 81  1  0
 83 82  2  0
 86 85  1  0
 88 86  1  0
 88 89  1  0
 88 87  1  0
 90 93  1  1
 90 91  1  0
 92 90  1  0
M  ISO  4  10 100  16 100  52 101  53 101
M  END
>  <TORSDO>  (3) 
F 18

>  <SCORE>  (3) 
-14.558

>  <name>  (3) 
2

>  <ligand_id>  (3) 
2

>  <original_smiles>  (3) 
[H]C1=C([H])C(c2c([H])c(F)c(C(=O)N3C([H])([H])C([H])([H])C([H])([H])C([H])(n4nc(-c5c([H])c([H])c(Oc6c([H])c([H])c(F)c([H])c6F)c([H])c5[H])c(C(=O)N([H])[H])c4N([H])[H])C3([H])[H])c(F)c2[H])(C([H])([H])[H])C(=O)C1([H])C([H])([H])Oc1c([H])c([H])c2c(c1[H])C([H])([H])N(C(=O)C([H])(N([H])C(=O)C([H])(N([H])C([H])([H])[H])C([H])([H])[H])C(C([H])([H])[H])(C([H])([H])[H])C([H])([H])[H])C([H])(C(=O)N([H])C1([H])c3c([H])c([H])c([H])c([H])c3C([H])([H])C([H])([H])C1([H])[H])C2([H])[H]

>  <smiles>  (3) 
[H]C1=C([H])C(c2c([H])c(F)c(C(=O)N3C([H])([H])C([H])([H])C([H])([H])C([H])(n4nc(-c5c([H])c([H])c(Oc6c([H])c([H])c(F)c([H])c6F)c([H])c5[H])c(C(=O)N([H])[H])c4N([H])[H])C3([H])[H])c(F)c2[H])(C([H])([H])[H])C(=O)C1([H])C([H])([H])Oc1c([H])c([H])c2c(c1[H])C([H])([H])N(C(=O)C([H])(N([H])C(=O)C([H])(N([H])C([H])([H])[H])C([H])([H])[H])C(C([H])([H])[H])(C([H])([H])[H])C([H])([H])[H])C([H])(C(=O)N([H])C1([H])c3c([H])c([H])c([H])c([H])c3C([H])([H])C([H])([H])C1([H])[H])C2([H])[H]

$$$$
3:0:0
     RDKit          3D

 97105  0  0  1  0  0  0  0  0999 V2000
  -28.7670  -21.1560   21.3170 C   0  0  0  0  0  3  0  0  0  0  0  0
  -28.7510  -22.4430   21.9440 C   0  0  0  0  0  0  0  0  0  0  0  0
  -28.5870  -20.9130   19.9440 C   0  0  0  0  0  0  0  0  0  0  0  0
  -28.4300  -23.7010   21.3120 C   0  0  0  0  0  0  0  0  0  0  0  0
  -28.1360  -23.8610   19.9280 C   0  0  0  0  0  0  0  0  0  0  0  0
  -28.2760  -22.3690   19.3030 C   0  0  0  0  0  0  0  0  0  0  0  0
  -28.1280  -22.3350   17.9540 F   0  0  0  0  0  0  0  0  0  0  0  0
  -27.5240  -18.7950   18.6350 C   0  0  0  0  0  1  0  0  0  0  0  0
  -28.7960  -19.1110   19.4280 C   0  0  0  0  0  3  0  0  0  0  0  0
  -29.3010  -17.3640   20.1650 C   0  0  0  0  0  3  0  0  0  0  0  0
  -29.9860  -15.6590   19.6950 C   0  0  0  0  0  0  0  0  0  0  0  0
  -30.1520  -13.0750   18.9550 C   0  0  0  0  0  2  0  0  0  0  0  0
  -29.1790  -12.6010   17.8290 C   0  0  0  0  0  2  0  0  0  0  0  0
  -27.8220  -12.1830   18.4150 C   0  0  0  0  0  2  0  0  0  0  0  0
  -27.3490  -13.1930   19.4830 C   0  0  0  0  0  3  0  0  0  0  0  0
  -28.4510  -13.5890   20.4930 C   0  0  0  0  0  2  0  0  0  0  0  0
  -29.5520  -14.2520   19.7480 N   0  0  0  0  0  0  0  0  0  0  0  0
  -31.1680  -15.6130   19.2960 O   0  0  0  0  0  0  0  0  0  0  0  0
  -25.0870  -13.6320   20.5520 C   0  0  0  0  0  0  0  0  0  0  0  0
  -24.0830  -12.8120   20.9790 C   0  0  0  0  0  0  0  0  0  0  0  0
  -24.5590  -11.4760   20.8010 C   0  0  0  0  0  0  0  0  0  0  0  0
  -26.1030  -12.7990   20.1260 N   0  0  0  0  0  0  0  0  0  0  0  0
  -25.8070  -11.4890   20.3420 N   0  0  0  0  0  0  0  0  0  0  0  0
  -23.8670  -10.1920   20.9820 C   0  0  0  0  0  0  0  0  0  0  0  0
  -24.3350   -9.2200   21.8940 C   0  0  0  0  0  3  0  0  0  0  0  0
  -23.6370   -8.0050   22.0670 C   0  0  0  0  0  3  0  0  0  0  0  0
  -22.4570   -7.7520   21.3290 C   0  0  0  0  0  0  0  0  0  0  0  0
  -22.0070   -8.7130   20.4050 C   0  0  0  0  0  3  0  0  0  0  0  0
  -22.7070   -9.9180   20.2290 C   0  0  0  0  0  3  0  0  0  0  0  0
  -21.7280   -6.5910   21.4120 O   0  0  0  0  0  0  0  0  0  0  0  0
  -21.6470   -5.8740   22.5790 C   0  0  0  0  0  0  0  0  0  0  0  0
  -21.1260   -6.4370   23.7660 C   0  0  0  0  0  3  0  0  0  0  0  0
  -20.9940   -5.6430   24.9210 C   0  0  0  0  0  3  0  0  0  0  0  0
  -21.3760   -4.2880   24.8940 C   0  0  0  0  0  0  0  0  0  0  0  0
  -21.8950   -3.7270   23.7150 C   0  0  0  0  0  3  0  0  0  0  0  0
  -22.0260   -4.5160   22.5590 C   0  0  0  0  0  0  0  0  0  0  0  0
  -22.5030   -3.9630   21.4180 F   0  0  0  0  0  0  0  0  0  0  0  0
  -21.2450   -3.5240   26.0040 F   0  0  0  0  0  0  0  0  0  0  0  0
  -22.7190  -13.2480   21.4270 C   0  0  0  0  0  0  0  0  0  0  0  0
  -22.1030  -12.4960   22.3310 N   0  0  0  0  0  0  0  0  0  0  0  0
  -22.2130  -14.2900   21.0120 O   0  0  0  0  0  0  0  0  0  0  0  0
  -22.5280  -11.6510   22.6850 H   0  0  0  0  0  0  0  0  0  0  0  0
  -21.1920  -12.7660   22.6740 H   0  0  0  0  0  0  0  0  0  0  0  0
  -25.2110  -15.0150   20.4530 N   0  0  0  0  0  0  0  0  0  0  0  0
  -24.4500  -15.6380   20.7010 H   0  0  0  0  0  0  0  0  0  0  0  0
  -25.9880  -15.4940   20.0190 H   0  0  0  0  0  0  0  0  0  0  0  0
  -30.3380  -17.7600   21.1270 N   0  0  0  0  0  4  0  0  0  0  0  0
  -31.1490  -18.0650   20.6180 H   0  0  0  0  0  0  0  0  0  0  0  0
  -30.6100  -16.9630   21.6720 H   0  0  0  0  0  0  0  0  0  0  0  0
  -30.0340  -18.4910   21.7370 H   0  0  0  0  0  0  0  0  0  0  0  0
  -28.4820  -24.8450   22.0610 O   0  0  0  0  0  0  0  0  0  0  0  0
  -28.7080  -24.6860   22.9700 H   0  0  0  0  0  0  0  0  0  0  0  0
  -27.9870  -25.4120   19.4320 O   0  0  0  0  0  0  0  0  0  0  0  0
  -24.7910  -31.6540   22.9790 C   0  0  0  0  0  0  0  0  0  0  0  0
  -27.0250  -26.6350   19.6270 C   0  0  0  0  0  0  0  0  0  0  0  0
  -23.4770  -30.3520   21.3610 C   0  0  0  0  0  3  0  0  0  0  0  0
  -24.8020  -28.7310   19.8020 C   0  0  0  0  0  0  0  0  0  0  0  0
  -26.0460  -30.4460   21.0830 C   0  0  0  0  0  2  0  0  0  0  0  0
  -26.0420  -29.0330   20.3750 C   0  0  0  0  0  0  0  0  0  0  0  0
  -27.1360  -28.0130   20.2590 C   0  0  0  0  0  3  0  0  0  0  0  0
  -25.7500  -26.5630   19.0090 C   0  0  0  0  0  3  0  0  0  0  0  0
  -24.6940  -27.5240   19.0950 C   0  0  0  0  0  3  0  0  0  0  0  0
  -23.6210  -29.7070   19.9530 C   0  0  0  0  0  2  0  0  0  0  0  0
  -24.8010  -30.8480   21.8580 N   0  0  0  0  0  0  0  0  0  0  0  0
  -23.7390  -31.9510   23.5680 O   0  0  0  0  0  0  0  0  0  0  0  0
  -22.8060  -29.3460   22.3330 C   0  0  0  0  0  0  0  0  0  0  0  0
  -21.4670  -29.2040   22.2720 N   0  0  0  0  0  0  0  0  0  0  0  0
  -23.5000  -28.6880   23.1130 O   0  0  0  0  0  0  0  0  0  0  0  0
  -20.9630  -29.7740   21.6070 H   0  0  0  0  0  0  0  0  0  0  0  0
  -18.1090  -27.9580   22.8790 C   0  0  0  0  0  0  0  0  0  0  0  0
  -20.6750  -28.2450   23.0540 C   0  0  0  0  0  3  0  0  0  0  0  0
  -20.7650  -26.8290   22.4380 C   0  0  0  0  0  2  0  0  0  0  0  0
  -19.6290  -26.5210   21.4570 C   0  0  0  0  0  2  0  0  0  0  0  0
  -18.2730  -26.6310   22.1570 C   0  0  0  0  0  2  0  0  0  0  0  0
  -19.2350  -28.7240   23.2860 C   0  0  0  0  0  0  0  0  0  0  0  0
  -19.0210  -29.9620   23.9290 C   0  0  0  0  0  3  0  0  0  0  0  0
  -17.7160  -30.4390   24.1620 C   0  0  0  0  0  3  0  0  0  0  0  0
  -16.6070  -29.6700   23.7670 C   0  0  0  0  0  3  0  0  0  0  0  0
  -16.8050  -28.4300   23.1340 C   0  0  0  0  0  3  0  0  0  0  0  0
  -26.1050  -32.2560   23.5670 C   0  0  0  0  0  3  0  0  0  0  0  0
  -25.8210  -33.6320   24.0210 N   0  0  0  0  0  0  0  0  0  0  0  0
  -26.1520  -34.7500   23.3570 C   0  0  0  0  0  0  0  0  0  0  0  0
  -26.7870  -34.7260   22.3010 O   0  0  0  0  0  0  0  0  0  0  0  0
  -25.2550  -33.7230   24.8510 H   0  0  0  0  0  0  0  0  0  0  0  0
  -24.4630  -36.6130   23.2150 C   0  0  0  0  0  1  0  0  0  0  0  0
  -25.7130  -36.1030   23.9530 C   0  0  0  0  0  3  0  0  0  0  0  0
  -27.8890  -36.8640   24.8070 C   0  0  0  0  0  1  0  0  0  0  0  0
  -26.7710  -37.1390   23.9070 N   0  0  0  0  0  0  0  0  0  0  0  0
  -26.3960  -38.0550   24.1410 H   0  0  0  0  0  0  0  0  0  0  0  0
  -26.6860  -31.4110   24.7690 C   0  0  1  0  0  0  0  0  0  0  0  0
  -25.6580  -31.1330   25.8920 C   0  0  0  0  0  1  0  0  0  0  0  0
  -27.2130  -30.0470   24.2770 C   0  0  0  0  0  1  0  0  0  0  0  0
  -27.9010  -32.1430   25.3890 C   0  0  0  0  0  1  0  0  0  0  0  0
  -29.2820  -22.4150   23.3750 C   0  0  0  0  0  2  0  0  0  0  0  0
  -30.7100  -21.8280   23.3730 C   0  0  0  0  0  2  0  0  0  0  0  0
  -32.8000  -21.1850   24.6710 C   0  0  0  0  0  1  0  0  0  0  0  0
  -31.4040  -21.8220   24.7380 C   0  0  0  0  0  2  0  0  0  0  0  0
  1  2  1  0
  2 94  1  0
  3  1  2  0
  4  2  2  0
  4 51  1  0
  5  4  1  0
  6  5  2  0
  6  3  1  0
  7  6  1  0
  9  8  1  0
  9  3  1  0
  9 10  1  0
 10 11  1  0
 10 47  1  0
 11 17  1  0
 12 17  1  0
 13 14  1  0
 13 12  1  0
 15 14  1  0
 15 22  1  0
 15 16  1  0
 17 16  1  0
 18 11  2  0
 19 20  2  0
 20 39  1  0
 21 20  1  0
 21 24  1  0
 22 23  1  0
 22 19  1  0
 23 21  2  0
 24 25  1  0
 25 26  2  0
 27 30  1  0
 27 26  1  0
 28 27  2  0
 29 28  1  0
 29 24  2  0
 30 31  1  0
 31 32  1  0
 32 33  2  0
 34 33  1  0
 34 38  1  0
 35 34  2  0
 36 31  2  0
 36 35  1  0
 37 36  1  0
 39 40  1  0
 40 43  1  0
 40 42  1  0
 41 39  2  0
 44 19  1  0
 44 45  1  0
 46 44  1  0
 47 49  1  0
 47 50  1  0
 48 47  1  0
 51 52  1  0
 53 55  1  0
 53  5  1  0
 54 65  2  0
 55 60  1  0
 56 64  1  0
 56 66  1  0
 57 63  1  0
 57 59  1  0
 58 64  1  0
 59 58  1  0
 60 59  2  0
 61 62  1  0
 61 55  2  0
 62 57  2  0
 63 56  1  0
 64 54  1  0
 66 68  2  0
 67 66  1  0
 69 67  1  0
 70 79  2  0
 70 75  1  0
 71 67  1  0
 71 75  1  0
 72 71  1  0
 73 74  1  0
 73 72  1  0
 74 70  1  0
 75 76  2  0
 76 77  1  0
 78 77  2  0
 79 78  1  0
 80 54  1  0
 80 81  1  0
 80 90  1  0
 81 84  1  0
 82 86  1  0
 82 81  1  0
 83 82  2  0
 86 85  1  0
 88 86  1  0
 88 89  1  0
 88 87  1  0
 90 93  1  1
 90 91  1  0
 92 90  1  0
 95 94  1  0
 95 97  1  0
 96 97  1  0
M  ISO  4   5 101  10 100  11 100  53 101
M  END
>  <TORSDO>  (4) 
F 23

>  <SCORE>  (4) 
-13.103

>  <name>  (4) 
3

>  <ligand_id>  (4) 
3

>  <original_smiles>  (4) 
[H]Oc1c(Oc2c([H])c([H])c3c(c2[H])C([H])([H])N(C(=O)C([H])(N([H])C(=O)C([H])(N([H])C([H])([H])[H])C([H])([H])[H])C(C([H])([H])[H])(C([H])([H])[H])C([H])([H])[H])C([H])(C(=O)N([H])C2([H])c4c([H])c([H])c([H])c([H])c4C([H])([H])C([H])([H])C2([H])[H])C3([H])[H])c(F)c(C([H])(C([H])([H])[H])C([H])(C(=O)N2C([H])([H])C([H])([H])C([H])([H])C([H])(n3nc(-c4c([H])c([H])c(Oc5c([H])c([H])c(F)c([H])c5F)c([H])c4[H])c(C(=O)N([H])[H])c3N([H])[H])C2([H])[H])[N+]([H])([H])[H])c([H])c1C([H])([H])C([H])([H])C([H])([H])C([H])([H])[H]

>  <smiles>  (4) 
[H]Oc1c(Oc2c([H])c([H])c3c(c2[H])C([H])([H])N(C(=O)C([H])(N([H])C(=O)C([H])(N([H])C([H])([H])[H])C([H])([H])[H])C(C([H])([H])[H])(C([H])([H])[H])C([H])([H])[H])C([H])(C(=O)N([H])C2([H])c4c([H])c([H])c([H])c([H])c4C([H])([H])C([H])([H])C2([H])[H])C3([H])[H])c(F)c(C([H])(C([H])([H])[H])C([H])(C(=O)N2C([H])([H])C([H])([H])C([H])([H])C([H])(n3nc(-c4c([H])c([H])c(Oc5c([H])c([H])c(F)c([H])c5F)c([H])c4[H])c(C(=O)N([H])[H])c3N([H])[H])C2([H])[H])[N+]([H])([H])[H])c([H])c1C([H])([H])C([H])([H])C([H])([H])C([H])([H])[H]

$$$$
4:0:0
     RDKit          3D

 89 97  0  0  1  0  0  0  0  0999 V2000
  -28.2240  -22.0580   21.2320 C   0  0  0  0  0  3  0  0  0  0  0  0
  -28.0020  -23.5270   21.2370 C   0  0  0  0  0  3  0  0  0  0  0  0
  -28.8130  -23.6170   19.1040 C   0  0  0  0  0  3  0  0  0  0  0  0
  -28.7740  -21.1920   20.1850 C   0  0  0  0  0  0  0  0  0  0  0  0
  -29.0370  -22.1350   19.0900 C   0  0  0  0  0  0  0  0  0  0  0  0
  -28.2630  -24.4700   20.1640 C   0  0  0  0  0  0  0  0  0  0  0  0
  -29.5340  -21.5620   17.7730 C   0  0  0  0  0  1  0  0  0  0  0  0
  -28.8490  -19.4720   20.3830 C   0  0  0  0  0  0  0  0  0  0  0  0
  -27.9410  -19.0990   21.1310 O   0  0  0  0  0  0  0  0  0  0  0  0
  -29.6120  -16.7190   20.2180 C   0  0  0  0  0  3  0  0  0  0  0  0
  -29.7940  -18.1560   19.9150 C   0  0  0  0  0  0  0  0  0  0  0  0
  -30.9900  -18.6080   19.0920 C   0  0  0  0  0  1  0  0  0  0  0  0
  -30.4430  -15.3490   19.9560 C   0  0  0  0  0  0  0  0  0  0  0  0
  -30.4260  -12.8880   19.1470 C   0  0  0  0  0  2  0  0  0  0  0  0
  -29.4670  -12.6960   17.9430 C   0  0  0  0  0  2  0  0  0  0  0  0
  -28.0320  -12.4180   18.4270 C   0  0  0  0  0  2  0  0  0  0  0  0
  -27.6160  -13.3610   19.5850 C   0  0  0  0  0  3  0  0  0  0  0  0
  -28.7060  -13.5210   20.6650 C   0  0  0  0  0  2  0  0  0  0  0  0
  -29.9150  -14.0250   19.9970 N   0  0  0  0  0  0  0  0  0  0  0  0
  -31.6360  -15.3450   19.6230 O   0  0  0  0  0  0  0  0  0  0  0  0
  -25.2790  -13.8690   20.4760 C   0  0  0  0  0  0  0  0  0  0  0  0
  -24.2480  -13.0710   20.8810 C   0  0  0  0  0  0  0  0  0  0  0  0
  -24.7290  -11.7290   20.7990 C   0  0  0  0  0  0  0  0  0  0  0  0
  -26.3190  -13.0140   20.1550 N   0  0  0  0  0  0  0  0  0  0  0  0
  -26.0050  -11.7190   20.4200 N   0  0  0  0  0  0  0  0  0  0  0  0
  -24.0260  -10.4530   21.0000 C   0  0  0  0  0  0  0  0  0  0  0  0
  -24.4820   -9.4930   21.9310 C   0  0  0  0  0  3  0  0  0  0  0  0
  -23.7720   -8.2870   22.1230 C   0  0  0  0  0  3  0  0  0  0  0  0
  -22.5940   -8.0320   21.3810 C   0  0  0  0  0  0  0  0  0  0  0  0
  -22.1570   -8.9810   20.4390 C   0  0  0  0  0  3  0  0  0  0  0  0
  -22.8680  -10.1770   20.2460 C   0  0  0  0  0  3  0  0  0  0  0  0
  -21.8550   -6.8780   21.4810 O   0  0  0  0  0  0  0  0  0  0  0  0
  -21.7850   -6.1660   22.6510 C   0  0  0  0  0  0  0  0  0  0  0  0
  -21.3030   -6.7420   23.8470 C   0  0  0  0  0  3  0  0  0  0  0  0
  -21.1830   -5.9540   25.0090 C   0  0  0  0  0  3  0  0  0  0  0  0
  -21.5340   -4.5910   24.9770 C   0  0  0  0  0  0  0  0  0  0  0  0
  -22.0120   -4.0150   23.7870 C   0  0  0  0  0  3  0  0  0  0  0  0
  -22.1330   -4.8000   22.6260 C   0  0  0  0  0  0  0  0  0  0  0  0
  -22.5720   -4.2340   21.4770 F   0  0  0  0  0  0  0  0  0  0  0  0
  -21.4140   -3.8330   26.0920 F   0  0  0  0  0  0  0  0  0  0  0  0
  -22.8580  -13.5260   21.2250 C   0  0  0  0  0  0  0  0  0  0  0  0
  -22.1800  -12.8120   22.1150 N   0  0  0  0  0  0  0  0  0  0  0  0
  -22.3860  -14.5530   20.7400 O   0  0  0  0  0  0  0  0  0  0  0  0
  -22.5780  -11.9870   22.5380 H   0  0  0  0  0  0  0  0  0  0  0  0
  -21.2490  -13.1000   22.3810 H   0  0  0  0  0  0  0  0  0  0  0  0
  -25.4130  -15.2470   20.3230 N   0  0  0  0  0  0  0  0  0  0  0  0
  -24.6410  -15.8800   20.4990 H   0  0  0  0  0  0  0  0  0  0  0  0
  -26.2360  -15.7160   19.9690 H   0  0  0  0  0  0  0  0  0  0  0  0
  -28.2520  -26.0050   20.2080 O   0  0  0  0  0  0  0  0  0  0  0  0
  -24.6650  -31.9170   23.2390 C   0  0  0  0  0  0  0  0  0  0  0  0
  -27.1920  -27.0440   20.2140 C   0  0  0  0  0  0  0  0  0  0  0  0
  -23.4610  -30.5300   21.6010 C   0  0  0  0  0  3  0  0  0  0  0  0
  -24.8930  -28.9100   20.1800 C   0  0  0  0  0  0  0  0  0  0  0  0
  -26.0240  -30.7300   21.4470 C   0  0  0  0  0  2  0  0  0  0  0  0
  -26.0820  -29.3190   20.7980 C   0  0  0  0  0  0  0  0  0  0  0  0
  -27.2240  -28.4040   20.7900 C   0  0  0  0  0  3  0  0  0  0  0  0
  -25.9750  -26.7780   19.5520 C   0  0  0  0  0  3  0  0  0  0  0  0
  -24.8620  -27.6590   19.5420 C   0  0  0  0  0  3  0  0  0  0  0  0
  -23.6810  -29.8400   20.2250 C   0  0  0  0  0  2  0  0  0  0  0  0
  -24.7390  -31.0870   22.1490 N   0  0  0  0  0  0  0  0  0  0  0  0
  -23.5800  -32.2110   23.7650 O   0  0  0  0  0  0  0  0  0  0  0  0
  -22.7620  -29.5410   22.5680 C   0  0  0  0  0  0  0  0  0  0  0  0
  -21.4330  -29.3820   22.4430 N   0  0  0  0  0  0  0  0  0  0  0  0
  -23.4260  -28.9150   23.3990 O   0  0  0  0  0  0  0  0  0  0  0  0
  -20.9520  -29.9370   21.7480 H   0  0  0  0  0  0  0  0  0  0  0  0
  -18.0440  -28.1900   22.9570 C   0  0  0  0  0  0  0  0  0  0  0  0
  -20.6060  -28.4470   23.2150 C   0  0  0  0  0  3  0  0  0  0  0  0
  -20.7000  -27.0140   22.6420 C   0  0  0  0  0  2  0  0  0  0  0  0
  -19.5950  -26.6950   21.6290 C   0  0  0  0  0  2  0  0  0  0  0  0
  -18.2150  -26.8420   22.2770 C   0  0  0  0  0  2  0  0  0  0  0  0
  -19.1660  -28.9500   23.3840 C   0  0  0  0  0  0  0  0  0  0  0  0
  -18.9500  -30.2090   23.9840 C   0  0  0  0  0  3  0  0  0  0  0  0
  -17.6460  -30.7080   24.1620 C   0  0  0  0  0  3  0  0  0  0  0  0
  -16.5390  -29.9470   23.7460 C   0  0  0  0  0  3  0  0  0  0  0  0
  -16.7390  -28.6890   23.1490 C   0  0  0  0  0  3  0  0  0  0  0  0
  -25.9410  -32.5530   23.8710 C   0  0  0  0  0  3  0  0  0  0  0  0
  -25.6260  -33.9530   24.2100 N   0  0  0  0  0  0  0  0  0  0  0  0
  -25.9390  -35.0160   23.4560 C   0  0  0  0  0  0  0  0  0  0  0  0
  -26.5840  -34.9210   22.4090 O   0  0  0  0  0  0  0  0  0  0  0  0
  -25.0430  -34.0960   25.0200 H   0  0  0  0  0  0  0  0  0  0  0  0
  -24.1870  -36.8100   23.1860 C   0  0  0  0  0  1  0  0  0  0  0  0
  -25.4640  -36.4020   23.9380 C   0  0  0  0  0  3  0  0  0  0  0  0
  -27.6250  -37.3110   24.6770 C   0  0  0  0  0  1  0  0  0  0  0  0
  -26.4850  -37.4620   23.7790 N   0  0  0  0  0  0  0  0  0  0  0  0
  -26.0760  -38.3800   23.9350 H   0  0  0  0  0  0  0  0  0  0  0  0
  -26.4420  -31.7860   25.1580 C   0  0  1  0  0  0  0  0  0  0  0  0
  -25.3410  -31.5580   26.2210 C   0  0  0  0  0  1  0  0  0  0  0  0
  -27.0230  -30.4020   24.7850 C   0  0  0  0  0  1  0  0  0  0  0  0
  -27.5900  -32.5770   25.8260 C   0  0  0  0  0  1  0  0  0  0  0  0
  1  2  1  0
  3  6  1  0
  4  8  1  0
  4  1  2  0
  5  3  2  0
  5  4  1  0
  6 49  1  0
  6  2  2  0
  7  5  1  0
  8  9  2  0
 11 10  2  0
 11  8  1  0
 12 11  1  0
 13 19  1  0
 13 10  1  0
 14 19  1  0
 15 16  1  0
 15 14  1  0
 17 16  1  0
 17 24  1  0
 17 18  1  0
 19 18  1  0
 20 13  2  0
 21 22  2  0
 22 41  1  0
 23 22  1  0
 23 26  1  0
 24 25  1  0
 24 21  1  0
 25 23  2  0
 26 27  1  0
 27 28  2  0
 29 32  1  0
 29 28  1  0
 30 29  2  0
 31 30  1  0
 31 26  2  0
 32 33  1  0
 33 34  1  0
 34 35  2  0
 36 35  1  0
 36 40  1  0
 37 36  2  0
 38 33  2  0
 38 37  1  0
 39 38  1  0
 41 42  1  0
 42 45  1  0
 42 44  1  0
 43 41  2  0
 46 21  1  0
 46 47  1  0
 48 46  1  0
 49 51  1  0
 50 61  2  0
 51 56  1  0
 52 60  1  0
 52 62  1  0
 53 59  1  0
 53 55  1  0
 54 60  1  0
 55 54  1  0
 56 55  2  0
 57 51  2  0
 58 57  1  0
 58 53  2  0
 59 52  1  0
 60 50  1  0
 62 64  2  0
 63 62  1  0
 65 63  1  0
 66 75  2  0
 66 71  1  0
 67 63  1  0
 67 71  1  0
 68 67  1  0
 69 70  1  0
 69 68  1  0
 70 66  1  0
 71 72  2  0
 72 73  1  0
 74 73  2  0
 75 74  1  0
 76 50  1  0
 76 77  1  0
 76 86  1  0
 77 80  1  0
 78 82  1  0
 78 77  1  0
 79 78  2  0
 82 81  1  0
 84 85  1  0
 84 82  1  0
 84 83  1  0
 86 89  1  1
 86 87  1  0
 88 86  1  0
M  ISO  4   6 101  10 100  13 100  49 101
M  END
>  <TORSDO>  (5) 
F 18

>  <SCORE>  (5) 
-14.728

>  <name>  (5) 
4

>  <ligand_id>  (5) 
4

>  <original_smiles>  (5) 
[H]C(C(=O)N1C([H])([H])C([H])([H])C([H])([H])C([H])(n2nc(-c3c([H])c([H])c(Oc4c([H])c([H])c(F)c([H])c4F)c([H])c3[H])c(C(=O)N([H])[H])c2N([H])[H])C1([H])[H])=C(C(=O)c1c([H])c([H])c(Oc2c([H])c([H])c3c(c2[H])C([H])([H])N(C(=O)C([H])(N([H])C(=O)C([H])(N([H])C([H])([H])[H])C([H])([H])[H])C(C([H])([H])[H])(C([H])([H])[H])C([H])([H])[H])C([H])(C(=O)N([H])C2([H])c4c([H])c([H])c([H])c([H])c4C([H])([H])C([H])([H])C2([H])[H])C3([H])[H])c([H])c1C([H])([H])[H])C([H])([H])[H]

>  <smiles>  (5) 
[H]C(C(=O)N1C([H])([H])C([H])([H])C([H])([H])C([H])(n2nc(-c3c([H])c([H])c(Oc4c([H])c([H])c(F)c([H])c4F)c([H])c3[H])c(C(=O)N([H])[H])c2N([H])[H])C1([H])[H])=C(C(=O)c1c([H])c([H])c(Oc2c([H])c([H])c3c(c2[H])C([H])([H])N(C(=O)C([H])(N([H])C(=O)C([H])(N([H])C([H])([H])[H])C([H])([H])[H])C(C([H])([H])[H])(C([H])([H])[H])C([H])([H])[H])C([H])(C(=O)N([H])C2([H])c4c([H])c([H])c([H])c([H])c4C([H])([H])C([H])([H])C2([H])[H])C3([H])[H])c([H])c1C([H])([H])[H])C([H])([H])[H]

$$$$
5:0:0
     RDKit          3D

 94102  0  0  1  0  0  0  0  0999 V2000
  -28.1640  -20.8990   20.1750 C   0  0  0  0  0  3  0  0  0  0  0  0
  -27.6910  -22.2470   19.9870 C   0  0  0  0  0  3  0  0  0  0  0  0
  -30.2900  -21.7880   20.7190 C   0  0  0  0  0  3  0  0  0  0  0  0
  -29.4990  -20.5960   20.5630 C   0  0  0  0  0  0  0  0  0  0  0  0
  -28.4730  -23.4430   20.1400 C   0  0  0  0  0  0  0  0  0  0  0  0
  -29.8370  -23.1480   20.4880 C   0  0  0  0  0  0  0  0  0  0  0  0
  -31.5720  -24.3240   19.3340 C   0  0  0  0  0  1  0  0  0  0  0  0
  -30.8100  -24.1590   20.5690 N   0  0  0  0  0  0  0  0  0  0  0  0
  -30.3800  -25.3890   21.2270 C   0  0  0  0  0  2  0  0  0  0  0  0
  -29.6920  -25.1360   22.5800 C   0  0  0  0  0  2  0  0  0  0  0  0
  -28.4050  -26.1990   24.5180 C   0  0  0  0  0  1  0  0  0  0  0  0
  -29.1710  -26.4370   23.2110 C   0  0  0  0  0  2  0  0  0  0  0  0
  -30.0500  -19.1600   20.9700 C   0  0  0  0  0  0  0  0  0  0  0  0
  -30.8250  -19.1010   21.9290 O   0  0  0  0  0  0  0  0  0  0  0  0
  -29.7880  -17.7430   20.2370 C   0  0  0  0  0  2  0  0  0  0  0  0
  -29.8940  -16.2990   21.0380 C   0  0  0  0  0  2  0  0  0  0  0  0
  -30.6130  -14.9520   20.4760 C   0  0  0  0  0  0  0  0  0  0  0  0
  -30.4680  -12.6570   19.4350 C   0  0  0  0  0  2  0  0  0  0  0  0
  -29.5500  -12.7230   18.1930 C   0  0  0  0  0  2  0  0  0  0  0  0
  -28.0720  -12.5380   18.5910 C   0  0  0  0  0  2  0  0  0  0  0  0
  -27.6740  -13.4050   19.8160 C   0  0  0  0  0  3  0  0  0  0  0  0
  -28.7170  -13.3040   20.9510 C   0  0  0  0  0  2  0  0  0  0  0  0
  -30.0160  -13.7010   20.3920 N   0  0  0  0  0  0  0  0  0  0  0  0
  -31.7700  -15.0620   20.0570 O   0  0  0  0  0  0  0  0  0  0  0  0
  -25.2610  -13.9720   20.4760 C   0  0  0  0  0  0  0  0  0  0  0  0
  -24.1950  -13.1910   20.8320 C   0  0  0  0  0  0  0  0  0  0  0  0
  -24.6750  -11.8450   20.8340 C   0  0  0  0  0  0  0  0  0  0  0  0
  -26.3220  -13.1030   20.2800 N   0  0  0  0  0  0  0  0  0  0  0  0
  -25.9750  -11.8190   20.5560 N   0  0  0  0  0  0  0  0  0  0  0  0
  -23.9580  -10.5770   21.0280 C   0  0  0  0  0  0  0  0  0  0  0  0
  -24.3910   -9.6190   21.9700 C   0  0  0  0  0  3  0  0  0  0  0  0
  -23.6710   -8.4180   22.1540 C   0  0  0  0  0  3  0  0  0  0  0  0
  -22.5040   -8.1660   21.3930 C   0  0  0  0  0  0  0  0  0  0  0  0
  -22.0910   -9.1130   20.4390 C   0  0  0  0  0  3  0  0  0  0  0  0
  -22.8110  -10.3050   20.2550 C   0  0  0  0  0  3  0  0  0  0  0  0
  -21.7580   -7.0160   21.4850 O   0  0  0  0  0  0  0  0  0  0  0  0
  -21.7180   -6.2730   22.6370 C   0  0  0  0  0  0  0  0  0  0  0  0
  -21.2910   -6.8260   23.8650 C   0  0  0  0  0  3  0  0  0  0  0  0
  -21.1980   -6.0090   25.0090 C   0  0  0  0  0  3  0  0  0  0  0  0
  -21.5230   -4.6420   24.9270 C   0  0  0  0  0  0  0  0  0  0  0  0
  -21.9430   -4.0880   23.7050 C   0  0  0  0  0  3  0  0  0  0  0  0
  -22.0370   -4.9020   22.5620 C   0  0  0  0  0  0  0  0  0  0  0  0
  -22.4230   -4.3610   21.3820 F   0  0  0  0  0  0  0  0  0  0  0  0
  -21.4260   -3.8550   26.0240 F   0  0  0  0  0  0  0  0  0  0  0  0
  -22.7870  -13.6550   21.0640 C   0  0  0  0  0  0  0  0  0  0  0  0
  -22.0510  -12.9690   21.9310 N   0  0  0  0  0  0  0  0  0  0  0  0
  -22.3470  -14.6620   20.5120 O   0  0  0  0  0  0  0  0  0  0  0  0
  -22.4200  -12.1550   22.4000 H   0  0  0  0  0  0  0  0  0  0  0  0
  -21.1060  -13.2650   22.1320 H   0  0  0  0  0  0  0  0  0  0  0  0
  -25.4100  -15.3410   20.2810 N   0  0  0  0  0  0  0  0  0  0  0  0
  -24.6310  -15.9860   20.3610 H   0  0  0  0  0  0  0  0  0  0  0  0
  -26.2610  -15.7900   19.9660 H   0  0  0  0  0  0  0  0  0  0  0  0
  -27.7590  -24.8520   19.7360 C   0  0  0  0  0  2  0  0  0  0  0  0
  -28.1300  -26.3110   20.0140 O   0  0  0  0  0  0  0  0  0  0  0  0
  -24.5360  -31.8920   23.1410 C   0  0  0  0  0  0  0  0  0  0  0  0
  -27.0740  -27.2840   19.9650 C   0  0  0  0  0  0  0  0  0  0  0  0
  -23.3020  -30.5080   21.5180 C   0  0  0  0  0  3  0  0  0  0  0  0
  -24.7250  -28.9810   20.0310 C   0  0  0  0  0  0  0  0  0  0  0  0
  -25.8470  -30.8050   21.2890 C   0  0  0  0  0  2  0  0  0  0  0  0
  -25.9150  -29.4300   20.6180 C   0  0  0  0  0  0  0  0  0  0  0  0
  -27.0890  -28.5930   20.5790 C   0  0  0  0  0  3  0  0  0  0  0  0
  -25.8580  -26.9460   19.3220 C   0  0  0  0  0  3  0  0  0  0  0  0
  -24.7060  -27.7490   19.3690 C   0  0  0  0  0  3  0  0  0  0  0  0
  -23.4890  -29.8580   20.1240 C   0  0  0  0  0  2  0  0  0  0  0  0
  -24.5830  -31.0880   22.0360 N   0  0  0  0  0  0  0  0  0  0  0  0
  -23.4620  -32.1620   23.7000 O   0  0  0  0  0  0  0  0  0  0  0  0
  -22.6610  -29.4800   22.4810 C   0  0  0  0  0  0  0  0  0  0  0  0
  -21.3300  -29.3020   22.3860 N   0  0  0  0  0  0  0  0  0  0  0  0
  -23.3570  -28.8450   23.2760 O   0  0  0  0  0  0  0  0  0  0  0  0
  -20.8240  -29.8660   21.7170 H   0  0  0  0  0  0  0  0  0  0  0  0
  -17.9710  -28.0670   22.9400 C   0  0  0  0  0  0  0  0  0  0  0  0
  -20.5320  -28.3530   23.1650 C   0  0  0  0  0  3  0  0  0  0  0  0
  -20.6370  -26.9240   22.5820 C   0  0  0  0  0  2  0  0  0  0  0  0
  -19.5210  -26.5950   21.5870 C   0  0  0  0  0  2  0  0  0  0  0  0
  -18.1490  -26.7220   22.2550 C   0  0  0  0  0  2  0  0  0  0  0  0
  -19.0900  -28.8390   23.3530 C   0  0  0  0  0  0  0  0  0  0  0  0
  -18.8660  -30.0970   23.9550 C   0  0  0  0  0  3  0  0  0  0  0  0
  -17.5580  -30.5810   24.1500 C   0  0  0  0  0  3  0  0  0  0  0  0
  -16.4550  -29.8050   23.7520 C   0  0  0  0  0  3  0  0  0  0  0  0
  -16.6630  -28.5510   23.1510 C   0  0  0  0  0  3  0  0  0  0  0  0
  -25.8280  -32.5250   23.7410 C   0  0  0  0  0  3  0  0  0  0  0  0
  -25.5170  -33.9180   24.0990 N   0  0  0  0  0  0  0  0  0  0  0  0
  -25.8750  -34.9890   23.3810 C   0  0  0  0  0  0  0  0  0  0  0  0
  -26.5690  -34.9090   22.3640 O   0  0  0  0  0  0  0  0  0  0  0  0
  -24.9030  -34.0550   24.8890 H   0  0  0  0  0  0  0  0  0  0  0  0
  -24.1710  -36.8080   23.0320 C   0  0  0  0  0  1  0  0  0  0  0  0
  -25.3850  -36.3680   23.8660 C   0  0  0  0  0  3  0  0  0  0  0  0
  -27.5030  -37.2090   24.7800 C   0  0  0  0  0  1  0  0  0  0  0  0
  -26.4280  -37.4160   23.8140 N   0  0  0  0  0  0  0  0  0  0  0  0
  -26.0250  -38.3340   23.9820 H   0  0  0  0  0  0  0  0  0  0  0  0
  -26.3770  -31.7410   24.9960 C   0  0  1  0  0  0  0  0  0  0  0  0
  -25.3120  -31.4900   26.0900 C   0  0  0  0  0  1  0  0  0  0  0  0
  -26.9540  -30.3680   24.5770 C   0  0  0  0  0  1  0  0  0  0  0  0
  -27.5420  -32.5310   25.6370 C   0  0  0  0  0  1  0  0  0  0  0  0
  1  4  1  0
  2  5  1  0
  2  1  2  0
  4  3  2  0
  4 13  1  0
  5  6  2  0
  6  8  1  0
  6  3  1  0
  7  8  1  0
  8  9  1  0
  9 10  1  0
 10 12  1  0
 12 11  1  0
 13 14  2  0
 15 13  1  0
 15 16  1  0
 17 16  1  0
 18 23  1  0
 19 20  1  0
 19 18  1  0
 21 20  1  0
 21 28  1  0
 21 22  1  0
 23 17  1  0
 23 22  1  0
 24 17  2  0
 25 26  2  0
 26 27  1  0
 26 45  1  0
 27 30  1  0
 28 25  1  0
 28 29  1  0
 29 27  2  0
 30 31  1  0
 31 32  2  0
 33 36  1  0
 33 32  1  0
 34 33  2  0
 35 34  1  0
 35 30  2  0
 36 37  1  0
 37 38  1  0
 38 39  2  0
 40 39  1  0
 40 44  1  0
 41 40  2  0
 42 37  2  0
 42 41  1  0
 43 42  1  0
 45 46  1  0
 46 49  1  0
 46 48  1  0
 47 45  2  0
 50 51  1  0
 50 25  1  0
 52 50  1  0
 53 54  1  0
 53  5  1  0
 55 66  2  0
 56 54  1  0
 56 61  1  0
 57 65  1  0
 57 67  1  0
 58 64  1  0
 58 60  1  0
 59 65  1  0
 60 59  1  0
 61 60  2  0
 62 63  1  0
 62 56  2  0
 63 58  2  0
 64 57  1  0
 65 55  1  0
 67 69  2  0
 68 67  1  0
 70 68  1  0
 71 80  2  0
 71 76  1  0
 72 68  1  0
 72 76  1  0
 73 72  1  0
 74 75  1  0
 74 73  1  0
 75 71  1  0
 76 77  2  0
 77 78  1  0
 79 78  2  0
 80 79  1  0
 81 55  1  0
 81 82  1  0
 81 91  1  0
 82 85  1  0
 83 87  1  0
 83 82  1  0
 84 83  2  0
 87 86  1  0
 89 87  1  0
 89 90  1  0
 89 88  1  0
 91 94  1  1
 91 92  1  0
 93 91  1  0
M  ISO  4  16 100  17 100  53 101  54 101
M  END
>  <TORSDO>  (6) 
F 24

>  <SCORE>  (6) 
-12.745

>  <name>  (6) 
5

>  <ligand_id>  (6) 
5

>  <original_smiles>  (6) 
[H]c1c([H])c([H])c2c(c1[H])C([H])([H])C([H])([H])C([H])([H])C2([H])N([H])C(=O)C1([H])N(C(=O)C([H])(N([H])C(=O)C([H])(N([H])C([H])([H])[H])C([H])([H])[H])C(C([H])([H])[H])(C([H])([H])[H])C([H])([H])[H])C([H])([H])c2c([H])c(OC([H])([H])c3c([H])c([H])c(C(=O)C([H])([H])C([H])([H])C(=O)N4C([H])([H])C([H])([H])C([H])([H])C([H])(n5nc(-c6c([H])c([H])c(Oc7c([H])c([H])c(F)c([H])c7F)c([H])c6[H])c(C(=O)N([H])[H])c5N([H])[H])C4([H])[H])c([H])c3N(C([H])([H])[H])C([H])([H])C([H])([H])C([H])([H])C([H])([H])[H])c([H])c([H])c2C1([H])[H]

>  <smiles>  (6) 
[H]c1c([H])c([H])c2c(c1[H])C([H])([H])C([H])([H])C([H])([H])C2([H])N([H])C(=O)C1([H])N(C(=O)C([H])(N([H])C(=O)C([H])(N([H])C([H])([H])[H])C([H])([H])[H])C(C([H])([H])[H])(C([H])([H])[H])C([H])([H])[H])C([H])([H])c2c([H])c(OC([H])([H])c3c([H])c([H])c(C(=O)C([H])([H])C([H])([H])C(=O)N4C([H])([H])C([H])([H])C([H])([H])C([H])(n5nc(-c6c([H])c([H])c(Oc7c([H])c([H])c(F)c([H])c7F)c([H])c6[H])c(C(=O)N([H])[H])c5N([H])[H])C4([H])[H])c([H])c3N(C([H])([H])[H])C([H])([H])C([H])([H])C([H])([H])C([H])([H])[H])c([H])c([H])c2C1([H])[H]

$$$$
6:0:0
     RDKit          3D

 91 99  0  0  1  0  0  0  0  0999 V2000
  -29.0270  -22.2060   21.3890 C   0  0  0  0  0  3  0  0  0  0  0  0
  -28.8000  -23.6720   21.3580 C   0  0  0  0  0  3  0  0  0  0  0  0
  -28.3440  -22.0600   19.2000 C   0  0  0  0  0  3  0  0  0  0  0  0
  -28.8250  -21.2460   20.3150 C   0  0  0  0  0  0  0  0  0  0  0  0
  -28.3070  -24.4850   20.2550 C   0  0  0  0  0  0  0  0  0  0  0  0
  -28.1280  -23.5350   19.1580 C   0  0  0  0  0  0  0  0  0  0  0  0
  -27.3840  -19.0770   20.0210 C   0  0  0  0  0  1  0  0  0  0  0  0
  -28.7840  -19.5110   20.4950 C   0  0  0  0  0  3  0  0  0  0  0  0
  -29.8280  -18.2700   20.1950 N   0  0  0  0  0  4  0  0  0  0  0  0
  -30.0760  -18.3340   19.2220 H   0  0  0  0  0  0  0  0  0  0  0  0
  -30.6710  -18.4990   20.6930 H   0  0  0  0  0  0  0  0  0  0  0  0
  -29.5390  -16.6720   20.5040 C   0  0  0  0  0  2  0  0  0  0  0  0
  -30.4370  -15.2300   20.1800 C   0  0  0  0  0  0  0  0  0  0  0  0
  -30.4250  -12.8040   19.2900 C   0  0  0  0  0  2  0  0  0  0  0  0
  -29.4730  -12.6960   18.0690 C   0  0  0  0  0  2  0  0  0  0  0  0
  -28.0200  -12.4420   18.5180 C   0  0  0  0  0  2  0  0  0  0  0  0
  -27.6100  -13.3610   19.6980 C   0  0  0  0  0  3  0  0  0  0  0  0
  -28.6840  -13.4320   20.8010 C   0  0  0  0  0  2  0  0  0  0  0  0
  -29.9290  -13.9070   20.1810 N   0  0  0  0  0  0  0  0  0  0  0  0
  -31.6280  -15.2980   19.8440 O   0  0  0  0  0  0  0  0  0  0  0  0
  -25.2630  -13.9070   20.5380 C   0  0  0  0  0  0  0  0  0  0  0  0
  -24.2140  -13.1220   20.9250 C   0  0  0  0  0  0  0  0  0  0  0  0
  -24.6770  -11.7730   20.8440 C   0  0  0  0  0  0  0  0  0  0  0  0
  -26.2950  -13.0350   20.2360 N   0  0  0  0  0  0  0  0  0  0  0  0
  -25.9570  -11.7450   20.4900 N   0  0  0  0  0  0  0  0  0  0  0  0
  -23.9530  -10.5070   21.0250 C   0  0  0  0  0  0  0  0  0  0  0  0
  -24.3810   -9.5330   21.9530 C   0  0  0  0  0  3  0  0  0  0  0  0
  -23.6530   -8.3350   22.1230 C   0  0  0  0  0  3  0  0  0  0  0  0
  -22.4830   -8.1030   21.3620 C   0  0  0  0  0  0  0  0  0  0  0  0
  -22.0730   -9.0650   20.4220 C   0  0  0  0  0  3  0  0  0  0  0  0
  -22.8010  -10.2540   20.2500 C   0  0  0  0  0  3  0  0  0  0  0  0
  -21.7280   -6.9560   21.4410 O   0  0  0  0  0  0  0  0  0  0  0  0
  -21.6370   -6.2340   22.6030 C   0  0  0  0  0  0  0  0  0  0  0  0
  -21.1450   -6.8000   23.7990 C   0  0  0  0  0  3  0  0  0  0  0  0
  -21.0030   -6.0020   24.9510 C   0  0  0  0  0  3  0  0  0  0  0  0
  -21.3420   -4.6360   24.9080 C   0  0  0  0  0  0  0  0  0  0  0  0
  -21.8280   -4.0680   23.7170 C   0  0  0  0  0  3  0  0  0  0  0  0
  -21.9710   -4.8640   22.5670 C   0  0  0  0  0  0  0  0  0  0  0  0
  -22.4190   -4.3060   21.4160 F   0  0  0  0  0  0  0  0  0  0  0  0
  -21.1990   -3.8660   26.0120 F   0  0  0  0  0  0  0  0  0  0  0  0
  -22.8260  -13.5960   21.2490 C   0  0  0  0  0  0  0  0  0  0  0  0
  -22.1220  -12.8820   22.1200 N   0  0  0  0  0  0  0  0  0  0  0  0
  -22.3750  -14.6340   20.7660 O   0  0  0  0  0  0  0  0  0  0  0  0
  -22.5030  -12.0420   22.5310 H   0  0  0  0  0  0  0  0  0  0  0  0
  -21.1910  -13.1770   22.3790 H   0  0  0  0  0  0  0  0  0  0  0  0
  -25.4180  -15.2810   20.3840 N   0  0  0  0  0  0  0  0  0  0  0  0
  -24.6370  -15.9160   20.5020 H   0  0  0  0  0  0  0  0  0  0  0  0
  -26.2290  -15.7220   19.9720 H   0  0  0  0  0  0  0  0  0  0  0  0
  -27.7340  -24.0640   17.9650 O   0  0  0  0  0  0  0  0  0  0  0  0
  -27.6970  -25.0140   18.0010 H   0  0  0  0  0  0  0  0  0  0  0  0
  -28.2810  -26.0100   20.2240 O   0  0  0  0  0  0  0  0  0  0  0  0
  -24.6670  -31.8810   23.2150 C   0  0  0  0  0  0  0  0  0  0  0  0
  -27.2100  -27.0280   20.2170 C   0  0  0  0  0  0  0  0  0  0  0  0
  -23.4660  -30.4830   21.5850 C   0  0  0  0  0  3  0  0  0  0  0  0
  -24.9050  -28.8730   20.1670 C   0  0  0  0  0  0  0  0  0  0  0  0
  -26.0300  -30.6970   21.4290 C   0  0  0  0  0  2  0  0  0  0  0  0
  -26.0910  -29.2900   20.7840 C   0  0  0  0  0  0  0  0  0  0  0  0
  -27.2350  -28.3860   20.7870 C   0  0  0  0  0  3  0  0  0  0  0  0
  -25.9960  -26.7430   19.5560 C   0  0  0  0  0  3  0  0  0  0  0  0
  -24.8760  -27.6180   19.5380 C   0  0  0  0  0  3  0  0  0  0  0  0
  -23.6870  -29.7960   20.2120 C   0  0  0  0  0  2  0  0  0  0  0  0
  -24.7440  -31.0460   22.1300 N   0  0  0  0  0  0  0  0  0  0  0  0
  -23.5790  -32.1760   23.7360 O   0  0  0  0  0  0  0  0  0  0  0  0
  -22.7740  -29.4910   22.5540 C   0  0  0  0  0  0  0  0  0  0  0  0
  -21.4450  -29.3290   22.4270 N   0  0  0  0  0  0  0  0  0  0  0  0
  -23.4380  -28.8660   23.3860 O   0  0  0  0  0  0  0  0  0  0  0  0
  -20.9660  -29.8800   21.7290 H   0  0  0  0  0  0  0  0  0  0  0  0
  -18.0570  -28.1440   22.9480 C   0  0  0  0  0  0  0  0  0  0  0  0
  -20.6180  -28.4000   23.2020 C   0  0  0  0  0  3  0  0  0  0  0  0
  -20.7140  -26.9680   22.6280 C   0  0  0  0  0  2  0  0  0  0  0  0
  -19.6050  -26.6470   21.6200 C   0  0  0  0  0  2  0  0  0  0  0  0
  -18.2250  -26.7950   22.2700 C   0  0  0  0  0  2  0  0  0  0  0  0
  -19.1800  -28.9030   23.3720 C   0  0  0  0  0  0  0  0  0  0  0  0
  -18.9680  -30.1630   23.9730 C   0  0  0  0  0  3  0  0  0  0  0  0
  -17.6660  -30.6680   24.1500 C   0  0  0  0  0  3  0  0  0  0  0  0
  -16.5570  -29.9070   23.7410 C   0  0  0  0  0  3  0  0  0  0  0  0
  -16.7520  -28.6470   23.1470 C   0  0  0  0  0  3  0  0  0  0  0  0
  -25.9420  -32.5230   23.8420 C   0  0  0  0  0  3  0  0  0  0  0  0
  -26.4570  -31.7510   25.1190 C   0  0  1  0  0  0  0  0  0  0  0  0
  -25.3630  -31.5100   26.1840 C   0  0  0  0  0  1  0  0  0  0  0  0
  -27.0460  -30.3750   24.7350 C   0  0  0  0  0  1  0  0  0  0  0  0
  -27.6030  -32.5480   25.7850 C   0  0  0  0  0  1  0  0  0  0  0  0
  -25.6240  -33.9210   24.1830 N   0  0  0  0  0  0  0  0  0  0  0  0
  -25.9300  -34.9860   23.4330 C   0  0  0  0  0  0  0  0  0  0  0  0
  -26.5740  -34.8980   22.3830 O   0  0  0  0  0  0  0  0  0  0  0  0
  -25.0440  -34.0650   24.9970 H   0  0  0  0  0  0  0  0  0  0  0  0
  -24.1740  -36.7710   23.1550 C   0  0  0  0  0  1  0  0  0  0  0  0
  -25.4470  -36.3690   23.9180 C   0  0  0  0  0  3  0  0  0  0  0  0
  -27.6000  -37.2730   24.6800 C   0  0  0  0  0  1  0  0  0  0  0  0
  -26.4660  -37.4320   23.7730 N   0  0  0  0  0  0  0  0  0  0  0  0
  -26.0590  -38.3500   23.9300 H   0  0  0  0  0  0  0  0  0  0  0  0
  2  1  1  0
  3  4  1  0
  4  8  1  0
  4  1  2  0
  5  2  2  0
  6  3  2  0
  6  5  1  0
  8  7  1  0
  9  8  1  0
  9 12  1  0
  9 11  1  0
 10  9  1  0
 13 19  1  0
 13 12  1  0
 14 19  1  0
 15 16  1  0
 15 14  1  0
 17 16  1  0
 17 24  1  0
 17 18  1  0
 19 18  1  0
 20 13  2  0
 21 22  2  0
 22 41  1  0
 23 22  1  0
 23 26  1  0
 24 25  1  0
 24 21  1  0
 25 23  2  0
 26 27  1  0
 27 28  2  0
 29 32  1  0
 29 28  1  0
 30 29  2  0
 31 30  1  0
 31 26  2  0
 32 33  1  0
 33 34  1  0
 34 35  2  0
 36 35  1  0
 36 40  1  0
 37 36  2  0
 38 33  2  0
 38 37  1  0
 39 38  1  0
 41 42  1  0
 42 45  1  0
 42 44  1  0
 43 41  2  0
 46 47  1  0
 46 21  1  0
 48 46  1  0
 49 50  1  0
 49  6  1  0
 51  5  1  0
 52 63  2  0
 53 51  1  0
 53 58  1  0
 54 62  1  0
 54 64  1  0
 55 61  1  0
 55 57  1  0
 56 62  1  0
 57 58  2  0
 57 56  1  0
 59 53  2  0
 60 59  1  0
 60 55  2  0
 61 54  1  0
 62 52  1  0
 64 66  2  0
 65 64  1  0
 67 65  1  0
 68 77  2  0
 68 73  1  0
 69 65  1  0
 69 73  1  0
 70 69  1  0
 71 72  1  0
 71 70  1  0
 72 68  1  0
 73 74  2  0
 74 75  1  0
 76 75  2  0
 77 76  1  0
 78 52  1  0
 78 83  1  0
 78 79  1  0
 79 82  1  1
 79 80  1  0
 81 79  1  0
 83 86  1  0
 84 88  1  0
 84 83  1  0
 85 84  2  0
 88 87  1  0
 90 88  1  0
 90 91  1  0
 90 89  1  0
M  ISO  4   5 101  12 100  13 100  51 101
M  END
>  <TORSDO>  (7) 
F 20

>  <SCORE>  (7) 
-14.966

>  <name>  (7) 
6

>  <ligand_id>  (7) 
6

>  <original_smiles>  (7) 
[H]Oc1c([H])c(C([H])(C([H])([H])[H])[N+]([H])([H])C([H])([H])C(=O)N2C([H])([H])C([H])([H])C([H])([H])C([H])(n3nc(-c4c([H])c([H])c(Oc5c([H])c([H])c(F)c([H])c5F)c([H])c4[H])c(C(=O)N([H])[H])c3N([H])[H])C2([H])[H])c([H])c([H])c1Oc1c([H])c([H])c2c(c1[H])C([H])([H])N(C(=O)C([H])(N([H])C(=O)C([H])(N([H])C([H])([H])[H])C([H])([H])[H])C(C([H])([H])[H])(C([H])([H])[H])C([H])([H])[H])C([H])(C(=O)N([H])C1([H])c3c([H])c([H])c([H])c([H])c3C([H])([H])C([H])([H])C1([H])[H])C2([H])[H]

>  <smiles>  (7) 
[H]Oc1c([H])c(C([H])(C([H])([H])[H])[N+]([H])([H])C([H])([H])C(=O)N2C([H])([H])C([H])([H])C([H])([H])C([H])(n3nc(-c4c([H])c([H])c(Oc5c([H])c([H])c(F)c([H])c5F)c([H])c4[H])c(C(=O)N([H])[H])c3N([H])[H])C2([H])[H])c([H])c([H])c1Oc1c([H])c([H])c2c(c1[H])C([H])([H])N(C(=O)C([H])(N([H])C(=O)C([H])(N([H])C([H])([H])[H])C([H])([H])[H])C(C([H])([H])[H])(C([H])([H])[H])C([H])([H])[H])C([H])(C(=O)N([H])C1([H])c3c([H])c([H])c([H])c([H])c3C([H])([H])C([H])([H])C1([H])[H])C2([H])[H]

$$$$
7:0:0
     RDKit          3D

 91 99  0  0  1  0  0  0  0  0999 V2000
  -30.7850  -19.3330   19.8970 C   0  0  0  0  0  3  0  0  0  0  0  0
  -31.2300  -20.6260   19.5530 C   0  0  0  0  0  3  0  0  0  0  0  0
  -28.6710  -20.3500   20.5110 C   0  0  0  0  0  3  0  0  0  0  0  0
  -29.4780  -19.0940   20.3540 C   0  0  0  0  0  0  0  0  0  0  0  0
  -29.1260  -21.7530   20.2290 C   0  0  0  0  0  0  0  0  0  0  0  0
  -30.4450  -21.7990   19.7060 C   0  0  0  0  0  0  0  0  0  0  0  0
  -29.0910  -17.5220   20.5090 C   0  0  0  0  0  0  0  0  0  0  0  0
  -27.9190  -17.2230   20.2690 O   0  0  0  0  0  0  0  0  0  0  0  0
  -30.5820  -16.5660   22.1930 C   0  0  0  0  0  2  0  0  0  0  0  0
  -30.0640  -16.3320   20.9680 C   0  0  0  0  0  0  0  0  0  0  0  0
  -30.6000  -14.9910   20.3750 C   0  0  0  0  0  0  0  0  0  0  0  0
  -30.3890  -12.6670   19.3740 C   0  0  0  0  0  2  0  0  0  0  0  0
  -29.4710  -12.6420   18.1290 C   0  0  0  0  0  2  0  0  0  0  0  0
  -28.0070  -12.4390   18.5570 C   0  0  0  0  0  2  0  0  0  0  0  0
  -27.6110  -13.3520   19.7470 C   0  0  0  0  0  3  0  0  0  0  0  0
  -28.6570  -13.3640   20.8830 C   0  0  0  0  0  2  0  0  0  0  0  0
  -29.9360  -13.7620   20.2910 N   0  0  0  0  0  0  0  0  0  0  0  0
  -31.7630  -14.9690   19.9490 O   0  0  0  0  0  0  0  0  0  0  0  0
  -25.2340  -13.9200   20.4870 C   0  0  0  0  0  0  0  0  0  0  0  0
  -24.1710  -13.1410   20.8600 C   0  0  0  0  0  0  0  0  0  0  0  0
  -24.6430  -11.7940   20.8370 C   0  0  0  0  0  0  0  0  0  0  0  0
  -26.2800  -13.0450   20.2510 N   0  0  0  0  0  0  0  0  0  0  0  0
  -25.9360  -11.7620   20.5300 N   0  0  0  0  0  0  0  0  0  0  0  0
  -23.9170  -10.5290   21.0280 C   0  0  0  0  0  0  0  0  0  0  0  0
  -24.3570   -9.5650   21.9590 C   0  0  0  0  0  3  0  0  0  0  0  0
  -23.6320   -8.3680   22.1470 C   0  0  0  0  0  3  0  0  0  0  0  0
  -22.4550   -8.1260   21.4010 C   0  0  0  0  0  0  0  0  0  0  0  0
  -22.0360   -9.0780   20.4560 C   0  0  0  0  0  3  0  0  0  0  0  0
  -22.7600  -10.2660   20.2650 C   0  0  0  0  0  3  0  0  0  0  0  0
  -21.7050   -6.9790   21.4930 O   0  0  0  0  0  0  0  0  0  0  0  0
  -21.6670   -6.2330   22.6430 C   0  0  0  0  0  0  0  0  0  0  0  0
  -21.2650   -6.7870   23.8790 C   0  0  0  0  0  3  0  0  0  0  0  0
  -21.1720   -5.9670   25.0210 C   0  0  0  0  0  3  0  0  0  0  0  0
  -21.4760   -4.5960   24.9300 C   0  0  0  0  0  0  0  0  0  0  0  0
  -21.8710   -4.0410   23.6990 C   0  0  0  0  0  3  0  0  0  0  0  0
  -21.9660   -4.8580   22.5600 C   0  0  0  0  0  0  0  0  0  0  0  0
  -22.3260   -4.3150   21.3720 F   0  0  0  0  0  0  0  0  0  0  0  0
  -21.3800   -3.8080   26.0250 F   0  0  0  0  0  0  0  0  0  0  0  0
  -22.7760  -13.6170   21.1190 C   0  0  0  0  0  0  0  0  0  0  0  0
  -22.0500  -12.9240   21.9930 N   0  0  0  0  0  0  0  0  0  0  0  0
  -22.3350  -14.6360   20.5910 O   0  0  0  0  0  0  0  0  0  0  0  0
  -22.4250  -12.1060   22.4460 H   0  0  0  0  0  0  0  0  0  0  0  0
  -21.1110  -13.2170   22.2140 H   0  0  0  0  0  0  0  0  0  0  0  0
  -25.3800  -15.2920   20.3040 N   0  0  0  0  0  0  0  0  0  0  0  0
  -24.5850  -15.9150   20.3950 H   0  0  0  0  0  0  0  0  0  0  0  0
  -26.2290  -15.7760   20.0260 H   0  0  0  0  0  0  0  0  0  0  0  0
  -32.2260  -23.3470   19.9030 C   0  0  0  0  0  1  0  0  0  0  0  0
  -30.9680  -23.0120   19.3330 O   0  0  0  0  0  0  0  0  0  0  0  0
  -28.3800  -23.2050   20.6150 C   0  0  0  0  0  2  0  0  0  0  0  0
  -28.3920  -24.7040   19.7870 C   0  0  0  0  0  2  0  0  0  0  0  0
  -28.2900  -26.1810   20.3200 O   0  0  0  0  0  0  0  0  0  0  0  0
  -24.6190  -31.8810   23.2110 C   0  0  0  0  0  0  0  0  0  0  0  0
  -27.2120  -27.1390   20.2080 C   0  0  0  0  0  0  0  0  0  0  0  0
  -23.4240  -30.4760   21.5760 C   0  0  0  0  0  3  0  0  0  0  0  0
  -24.8750  -28.8820   20.1660 C   0  0  0  0  0  0  0  0  0  0  0  0
  -25.9780  -30.7380   21.4140 C   0  0  0  0  0  2  0  0  0  0  0  0
  -26.0530  -29.3410   20.7650 C   0  0  0  0  0  0  0  0  0  0  0  0
  -27.2190  -28.4840   20.7670 C   0  0  0  0  0  3  0  0  0  0  0  0
  -26.0040  -26.7770   19.5770 C   0  0  0  0  0  3  0  0  0  0  0  0
  -24.8610  -27.6140   19.5610 C   0  0  0  0  0  3  0  0  0  0  0  0
  -23.6480  -29.7820   20.2040 C   0  0  0  0  0  2  0  0  0  0  0  0
  -24.6940  -31.0590   22.1190 N   0  0  0  0  0  0  0  0  0  0  0  0
  -23.5330  -32.1690   23.7350 O   0  0  0  0  0  0  0  0  0  0  0  0
  -22.7460  -29.4770   22.5480 C   0  0  0  0  0  0  0  0  0  0  0  0
  -21.4160  -29.3070   22.4240 N   0  0  0  0  0  0  0  0  0  0  0  0
  -23.4160  -28.8550   23.3750 O   0  0  0  0  0  0  0  0  0  0  0  0
  -20.9330  -29.8650   21.7350 H   0  0  0  0  0  0  0  0  0  0  0  0
  -18.0290  -28.1090   22.9270 C   0  0  0  0  0  0  0  0  0  0  0  0
  -20.5890  -28.3740   23.1970 C   0  0  0  0  0  3  0  0  0  0  0  0
  -20.6900  -26.9380   22.6320 C   0  0  0  0  0  2  0  0  0  0  0  0
  -19.5900  -26.6100   21.6160 C   0  0  0  0  0  2  0  0  0  0  0  0
  -18.2070  -26.7560   22.2590 C   0  0  0  0  0  2  0  0  0  0  0  0
  -19.1470  -28.8760   23.3530 C   0  0  0  0  0  0  0  0  0  0  0  0
  -18.9250  -30.1400   23.9420 C   0  0  0  0  0  3  0  0  0  0  0  0
  -17.6170  -30.6370   24.1080 C   0  0  0  0  0  3  0  0  0  0  0  0
  -16.5150  -29.8690   23.6930 C   0  0  0  0  0  3  0  0  0  0  0  0
  -16.7230  -28.6060   23.1120 C   0  0  0  0  0  3  0  0  0  0  0  0
  -25.8920  -32.5200   23.8410 C   0  0  0  0  0  3  0  0  0  0  0  0
  -25.5750  -33.9190   24.1720 N   0  0  0  0  0  0  0  0  0  0  0  0
  -25.9110  -34.9800   23.4240 C   0  0  0  0  0  0  0  0  0  0  0  0
  -26.5860  -34.8820   22.3950 O   0  0  0  0  0  0  0  0  0  0  0  0
  -24.9710  -34.0630   24.9680 H   0  0  0  0  0  0  0  0  0  0  0  0
  -24.1840  -36.7770   23.0850 C   0  0  0  0  0  1  0  0  0  0  0  0
  -25.4270  -36.3670   23.8910 C   0  0  0  0  0  3  0  0  0  0  0  0
  -27.5640  -37.2500   24.7200 C   0  0  0  0  0  1  0  0  0  0  0  0
  -26.4610  -37.4200   23.7790 N   0  0  0  0  0  0  0  0  0  0  0  0
  -26.0560  -38.3410   23.9220 H   0  0  0  0  0  0  0  0  0  0  0  0
  -26.4020  -31.7560   25.1270 C   0  0  1  0  0  0  0  0  0  0  0  0
  -25.3040  -31.5270   26.1930 C   0  0  0  0  0  1  0  0  0  0  0  0
  -26.9850  -30.3760   24.7490 C   0  0  0  0  0  1  0  0  0  0  0  0
  -27.5530  -32.5540   25.7850 C   0  0  0  0  0  1  0  0  0  0  0  0
  1  4  1  0
  2  6  1  0
  2  1  2  0
  4  7  1  0
  4  3  2  0
  5  3  1  0
  5 49  1  0
  6  5  2  0
  7 10  1  0
  8  7  2  0
 10  9  2  0
 11 10  1  0
 12 17  1  0
 13 14  1  0
 13 12  1  0
 15 14  1  0
 15 22  1  0
 15 16  1  0
 17 11  1  0
 17 16  1  0
 18 11  2  0
 19 20  2  0
 20 39  1  0
 21 20  1  0
 21 24  1  0
 22 19  1  0
 22 23  1  0
 23 21  2  0
 24 25  1  0
 25 26  2  0
 27 30  1  0
 27 26  1  0
 28 27  2  0
 29 28  1  0
 29 24  2  0
 30 31  1  0
 31 32  1  0
 32 33  2  0
 34 33  1  0
 34 38  1  0
 35 34  2  0
 36 31  2  0
 36 35  1  0
 37 36  1  0
 39 40  1  0
 40 43  1  0
 40 42  1  0
 41 39  2  0
 44 45  1  0
 44 19  1  0
 46 44  1  0
 48  6  1  0
 48 47  1  0
 50 51  1  0
 50 49  1  0
 52 63  2  0
 53 51  1  0
 53 58  1  0
 54 62  1  0
 54 64  1  0
 55 61  1  0
 55 57  1  0
 56 62  1  0
 57 58  2  0
 57 56  1  0
 59 53  2  0
 60 59  1  0
 60 55  2  0
 61 54  1  0
 62 52  1  0
 64 66  2  0
 65 64  1  0
 67 65  1  0
 68 77  2  0
 68 73  1  0
 69 65  1  0
 69 73  1  0
 70 69  1  0
 71 72  1  0
 71 70  1  0
 72 68  1  0
 73 74  2  0
 74 75  1  0
 76 75  2  0
 77 76  1  0
 78 52  1  0
 78 79  1  0
 78 88  1  0
 79 82  1  0
 80 84  1  0
 80 79  1  0
 81 80  2  0
 84 83  1  0
 86 84  1  0
 86 87  1  0
 86 85  1  0
 88 91  1  1
 88 89  1  0
 90 88  1  0
M  ISO  4  10 100  11 100  50 101  51 101
M  END
>  <TORSDO>  (8) 
F 21

>  <SCORE>  (8) 
-14.677

>  <name>  (8) 
7

>  <ligand_id>  (8) 
7

>  <original_smiles>  (8) 
[H]C([H])=C(C(=O)c1c([H])c([H])c(OC([H])([H])[H])c(C([H])([H])C([H])([H])Oc2c([H])c([H])c3c(c2[H])C([H])([H])N(C(=O)C([H])(N([H])C(=O)C([H])(N([H])C([H])([H])[H])C([H])([H])[H])C(C([H])([H])[H])(C([H])([H])[H])C([H])([H])[H])C([H])(C(=O)N([H])C2([H])c4c([H])c([H])c([H])c([H])c4C([H])([H])C([H])([H])C2([H])[H])C3([H])[H])c1[H])C(=O)N1C([H])([H])C([H])([H])C([H])([H])C([H])(n2nc(-c3c([H])c([H])c(Oc4c([H])c([H])c(F)c([H])c4F)c([H])c3[H])c(C(=O)N([H])[H])c2N([H])[H])C1([H])[H]

>  <smiles>  (8) 
[H]C([H])=C(C(=O)c1c([H])c([H])c(OC([H])([H])[H])c(C([H])([H])C([H])([H])Oc2c([H])c([H])c3c(c2[H])C([H])([H])N(C(=O)C([H])(N([H])C(=O)C([H])(N([H])C([H])([H])[H])C([H])([H])[H])C(C([H])([H])[H])(C([H])([H])[H])C([H])([H])[H])C([H])(C(=O)N([H])C2([H])c4c([H])c([H])c([H])c([H])c4C([H])([H])C([H])([H])C2([H])[H])C3([H])[H])c1[H])C(=O)N1C([H])([H])C([H])([H])C([H])([H])C([H])(n2nc(-c3c([H])c([H])c(Oc4c([H])c([H])c(F)c([H])c4F)c([H])c3[H])c(C(=O)N([H])[H])c2N([H])[H])C1([H])[H]

$$$$
8:0:0
     RDKit          3D

 89 97  0  0  1  0  0  0  0  0999 V2000
  -28.7880  -21.5610   19.1260 C   0  0  0  0  0  3  0  0  0  0  0  0
  -28.9000  -23.2020   21.2410 C   0  0  0  0  0  3  0  0  0  0  0  0
  -29.1870  -20.6350   20.2320 C   0  0  0  0  0  0  0  0  0  0  0  0
  -28.5090  -23.0770   19.0660 C   0  0  0  0  0  0  0  0  0  0  0  0
  -29.1820  -21.6900   21.2970 C   0  0  0  0  0  0  0  0  0  0  0  0
  -28.4940  -24.1210   20.1380 C   0  0  0  0  0  0  0  0  0  0  0  0
  -28.2080  -23.6210   17.6820 C   0  0  0  0  0  1  0  0  0  0  0  0
  -29.4880  -21.1670   22.6890 C   0  0  0  0  0  1  0  0  0  0  0  0
  -29.6780  -17.3520   20.3440 C   0  0  0  0  0  0  0  0  0  0  0  0
  -29.1580  -18.8190   20.3880 C   0  0  0  0  0  0  0  0  0  0  0  0
  -30.5530  -15.8750   20.1890 C   0  0  0  0  0  0  0  0  0  0  0  0
  -30.6510  -13.3350   19.3450 C   0  0  0  0  0  2  0  0  0  0  0  0
  -29.7360  -12.9740   18.1380 C   0  0  0  0  0  2  0  0  0  0  0  0
  -28.3190  -12.6110   18.6070 C   0  0  0  0  0  2  0  0  0  0  0  0
  -27.8300  -13.5860   19.7020 C   0  0  0  0  0  3  0  0  0  0  0  0
  -28.8790  -13.8740   20.7990 C   0  0  0  0  0  2  0  0  0  0  0  0
  -30.0530  -14.4980   20.1470 N   0  0  0  0  0  0  0  0  0  0  0  0
  -31.7800  -15.8020   19.9610 O   0  0  0  0  0  0  0  0  0  0  0  0
  -25.4910  -14.0820   20.5520 C   0  0  0  0  0  0  0  0  0  0  0  0
  -24.4440  -13.2860   20.9210 C   0  0  0  0  0  0  0  0  0  0  0  0
  -24.9180  -11.9410   20.8350 C   0  0  0  0  0  0  0  0  0  0  0  0
  -26.5300  -13.2240   20.2480 N   0  0  0  0  0  0  0  0  0  0  0  0
  -26.2020  -11.9260   20.4870 N   0  0  0  0  0  0  0  0  0  0  0  0
  -24.1990  -10.6690   21.0050 C   0  0  0  0  0  0  0  0  0  0  0  0
  -24.6250   -9.6950   21.9330 C   0  0  0  0  0  3  0  0  0  0  0  0
  -23.9010   -8.4930   22.0930 C   0  0  0  0  0  3  0  0  0  0  0  0
  -22.7370   -8.2580   21.3250 C   0  0  0  0  0  0  0  0  0  0  0  0
  -22.3290   -9.2210   20.3850 C   0  0  0  0  0  3  0  0  0  0  0  0
  -23.0540  -10.4140   20.2230 C   0  0  0  0  0  3  0  0  0  0  0  0
  -21.9850   -7.1090   21.3940 O   0  0  0  0  0  0  0  0  0  0  0  0
  -21.8690   -6.3930   22.5580 C   0  0  0  0  0  0  0  0  0  0  0  0
  -21.3380   -6.9670   23.7350 C   0  0  0  0  0  3  0  0  0  0  0  0
  -21.1710   -6.1770   24.8900 C   0  0  0  0  0  3  0  0  0  0  0  0
  -21.5240   -4.8140   24.8680 C   0  0  0  0  0  0  0  0  0  0  0  0
  -22.0480   -4.2400   23.6960 C   0  0  0  0  0  3  0  0  0  0  0  0
  -22.2160   -5.0270   22.5440 C   0  0  0  0  0  0  0  0  0  0  0  0
  -22.7010   -4.4640   21.4110 F   0  0  0  0  0  0  0  0  0  0  0  0
  -21.3580   -4.0520   25.9750 F   0  0  0  0  0  0  0  0  0  0  0  0
  -23.0520  -13.7490   21.2370 C   0  0  0  0  0  0  0  0  0  0  0  0
  -22.3520  -13.0340   22.1110 N   0  0  0  0  0  0  0  0  0  0  0  0
  -22.5950  -14.7790   20.7450 O   0  0  0  0  0  0  0  0  0  0  0  0
  -22.7360  -12.2000   22.5310 H   0  0  0  0  0  0  0  0  0  0  0  0
  -21.4200  -13.3260   22.3650 H   0  0  0  0  0  0  0  0  0  0  0  0
  -25.6430  -15.4600   20.4210 N   0  0  0  0  0  0  0  0  0  0  0  0
  -24.8850  -16.1090   20.6030 H   0  0  0  0  0  0  0  0  0  0  0  0
  -26.5000  -15.9250   20.1440 H   0  0  0  0  0  0  0  0  0  0  0  0
  -27.8830  -18.6930   20.7720 O   0  0  0  0  0  0  0  0  0  0  0  0
  -27.5140  -19.5680   20.8030 H   0  0  0  0  0  0  0  0  0  0  0  0
  -28.4200  -25.7430   20.0640 O   0  0  0  0  0  0  0  0  0  0  0  0
  -24.8420  -31.8690   23.2570 C   0  0  0  0  0  0  0  0  0  0  0  0
  -27.3990  -26.9150   20.0890 C   0  0  0  0  0  0  0  0  0  0  0  0
  -23.6650  -30.5330   21.5600 C   0  0  0  0  0  3  0  0  0  0  0  0
  -25.1230  -28.9410   20.0940 C   0  0  0  0  0  0  0  0  0  0  0  0
  -26.2430  -30.6850   21.4580 C   0  0  0  0  0  2  0  0  0  0  0  0
  -26.3110  -29.2770   20.7520 C   0  0  0  0  0  0  0  0  0  0  0  0
  -27.4310  -28.2920   20.7190 C   0  0  0  0  0  3  0  0  0  0  0  0
  -26.1780  -26.7920   19.3790 C   0  0  0  0  0  3  0  0  0  0  0  0
  -25.0940  -27.7260   19.3870 C   0  0  0  0  0  3  0  0  0  0  0  0
  -23.9140  -29.8880   20.1650 C   0  0  0  0  0  2  0  0  0  0  0  0
  -24.9400  -31.0610   22.1450 N   0  0  0  0  0  0  0  0  0  0  0  0
  -23.7460  -32.1460   23.7740 O   0  0  0  0  0  0  0  0  0  0  0  0
  -22.9470  -29.5180   22.4890 C   0  0  0  0  0  0  0  0  0  0  0  0
  -21.6180  -29.3560   22.3420 N   0  0  0  0  0  0  0  0  0  0  0  0
  -23.5990  -28.8740   23.3150 O   0  0  0  0  0  0  0  0  0  0  0  0
  -21.1420  -29.9250   21.6570 H   0  0  0  0  0  0  0  0  0  0  0  0
  -18.2390  -28.0900   22.7680 C   0  0  0  0  0  0  0  0  0  0  0  0
  -20.7910  -28.3860   23.0720 C   0  0  0  0  0  3  0  0  0  0  0  0
  -20.9190  -26.9730   22.4580 C   0  0  0  0  0  2  0  0  0  0  0  0
  -19.8360  -26.6670   21.4170 C   0  0  0  0  0  2  0  0  0  0  0  0
  -18.4440  -26.7690   22.0460 C   0  0  0  0  0  2  0  0  0  0  0  0
  -19.3390  -28.8570   23.2350 C   0  0  0  0  0  0  0  0  0  0  0  0
  -19.0900  -30.0910   23.8750 C   0  0  0  0  0  3  0  0  0  0  0  0
  -17.7740  -30.5600   24.0470 C   0  0  0  0  0  3  0  0  0  0  0  0
  -16.6880  -29.7920   23.5920 C   0  0  0  0  0  3  0  0  0  0  0  0
  -16.9210  -28.5590   22.9580 C   0  0  0  0  0  3  0  0  0  0  0  0
  -26.1010  -32.4970   23.9290 C   0  0  0  0  0  3  0  0  0  0  0  0
  -25.7620  -33.8710   24.3480 N   0  0  0  0  0  0  0  0  0  0  0  0
  -26.0650  -34.9840   23.6660 C   0  0  0  0  0  0  0  0  0  0  0  0
  -26.7160  -34.9630   22.6190 O   0  0  0  0  0  0  0  0  0  0  0  0
  -25.1790  -33.9580   25.1680 H   0  0  0  0  0  0  0  0  0  0  0  0
  -24.2980  -36.7740   23.4920 C   0  0  0  0  0  1  0  0  0  0  0  0
  -25.5730  -36.3340   24.2320 C   0  0  0  0  0  3  0  0  0  0  0  0
  -27.7130  -37.2140   25.0600 C   0  0  0  0  0  1  0  0  0  0  0  0
  -26.5850  -37.4120   24.1540 N   0  0  0  0  0  0  0  0  0  0  0  0
  -26.1660  -38.3150   24.3610 H   0  0  0  0  0  0  0  0  0  0  0  0
  -26.6130  -31.6700   25.1740 C   0  0  1  0  0  0  0  0  0  0  0  0
  -25.5150  -31.3750   26.2230 C   0  0  0  0  0  1  0  0  0  0  0  0
  -27.2110  -30.3140   24.7350 C   0  0  0  0  0  1  0  0  0  0  0  0
  -27.7540  -32.4400   25.8810 C   0  0  0  0  0  1  0  0  0  0  0  0
  1  3  1  0
  2  5  1  0
  3 10  1  0
  3  5  2  0
  4  1  2  0
  4  6  1  0
  5  8  1  0
  6  2  2  0
  7  4  1  0
  9 10  2  0
 10 47  1  0
 11  9  2  0
 12 17  1  0
 13 14  1  0
 13 12  1  0
 15 14  1  0
 15 22  1  0
 15 16  1  0
 17 11  1  0
 17 16  1  0
 18 11  2  0
 19 20  2  0
 20 39  1  0
 21 20  1  0
 21 24  1  0
 22 23  1  0
 22 19  1  0
 23 21  2  0
 24 25  1  0
 25 26  2  0
 27 30  1  0
 27 26  1  0
 28 27  2  0
 29 28  1  0
 29 24  2  0
 30 31  1  0
 31 32  1  0
 32 33  2  0
 34 33  1  0
 34 38  1  0
 35 34  2  0
 36 31  2  0
 36 35  1  0
 37 36  1  0
 39 40  1  0
 40 43  1  0
 40 42  1  0
 41 39  2  0
 44 19  1  0
 44 45  1  0
 46 44  1  0
 47 48  1  0
 49 51  1  0
 49  6  1  0
 50 61  2  0
 51 56  1  0
 52 60  1  0
 52 62  1  0
 53 59  1  0
 53 55  1  0
 54 60  1  0
 55 54  1  0
 56 55  2  0
 57 58  1  0
 57 51  2  0
 58 53  2  0
 59 52  1  0
 60 50  1  0
 62 64  2  0
 63 62  1  0
 65 63  1  0
 66 75  2  0
 66 71  1  0
 67 63  1  0
 67 71  1  0
 68 67  1  0
 69 70  1  0
 69 68  1  0
 70 66  1  0
 71 72  2  0
 72 73  1  0
 74 73  2  0
 75 74  1  0
 76 50  1  0
 76 77  1  0
 76 86  1  0
 77 80  1  0
 78 82  1  0
 78 77  1  0
 79 78  2  0
 82 81  1  0
 84 82  1  0
 84 85  1  0
 84 83  1  0
 86 89  1  1
 86 87  1  0
 88 86  1  0
M  ISO  4   6 101   9 100  11 100  49 101
M  END
>  <TORSDO>  (9) 
F 18

>  <SCORE>  (9) 
-15.328

>  <name>  (9) 
8

>  <ligand_id>  (9) 
8

>  <original_smiles>  (9) 
[H]OC(=C([H])C(=O)N1C([H])([H])C([H])([H])C([H])([H])C([H])(n2nc(-c3c([H])c([H])c(Oc4c([H])c([H])c(F)c([H])c4F)c([H])c3[H])c(C(=O)N([H])[H])c2N([H])[H])C1([H])[H])c1c([H])c(C([H])([H])[H])c(Oc2c([H])c([H])c3c(c2[H])C([H])([H])N(C(=O)C([H])(N([H])C(=O)C([H])(N([H])C([H])([H])[H])C([H])([H])[H])C(C([H])([H])[H])(C([H])([H])[H])C([H])([H])[H])C([H])(C(=O)N([H])C2([H])c4c([H])c([H])c([H])c([H])c4C([H])([H])C([H])([H])C2([H])[H])C3([H])[H])c([H])c1C([H])([H])[H]

>  <smiles>  (9) 
[H]OC(=C([H])C(=O)N1C([H])([H])C([H])([H])C([H])([H])C([H])(n2nc(-c3c([H])c([H])c(Oc4c([H])c([H])c(F)c([H])c4F)c([H])c3[H])c(C(=O)N([H])[H])c2N([H])[H])C1([H])[H])c1c([H])c(C([H])([H])[H])c(Oc2c([H])c([H])c3c(c2[H])C([H])([H])N(C(=O)C([H])(N([H])C(=O)C([H])(N([H])C([H])([H])[H])C([H])([H])[H])C(C([H])([H])[H])(C([H])([H])[H])C([H])([H])[H])C([H])(C(=O)N([H])C2([H])c4c([H])c([H])c([H])c([H])c4C([H])([H])C([H])([H])C2([H])[H])C3([H])[H])c([H])c1C([H])([H])[H]

$$$$
9:0:0
     RDKit          3D

 92101  0  0  1  0  0  0  0  0999 V2000
  -29.7490  -21.4940   21.5480 C   0  0  0  0  0  3  0  0  0  0  0  0
  -29.0320  -21.1850   19.3130 C   0  0  0  0  0  3  0  0  0  0  0  0
  -29.6250  -20.5750   20.4590 C   0  0  0  0  0  0  0  0  0  0  0  0
  -29.3040  -22.8670   21.5320 C   0  0  0  0  0  0  0  0  0  0  0  0
  -28.5720  -22.5610   19.2810 C   0  0  0  0  0  0  0  0  0  0  0  0
  -28.6740  -23.4710   20.3980 C   0  0  0  0  0  0  0  0  0  0  0  0
  -29.4780  -23.6830   22.8020 C   0  0  0  0  0  1  0  0  0  0  0  0
  -27.9110  -23.0410   18.0000 C   0  0  0  0  0  1  0  0  0  0  0  0
  -30.3080  -19.1020   20.5520 C   0  0  0  0  0  2  0  0  0  0  0  0
  -29.7180  -17.6090   20.1500 C   0  0  0  0  0  2  0  0  0  0  0  0
  -30.8310  -16.6710   22.8970 C   0  0  0  0  0  2  0  0  0  0  0  0
  -29.7740  -15.8200   22.2110 C   0  0  0  0  0  2  0  0  0  0  0  0
  -31.6520  -16.4660   21.6270 C   0  0  0  0  0  2  0  0  0  0  0  0
  -30.3400  -16.2140   20.8150 C   0  0  2  0  0  0  0  0  0  0  0  0
  -30.6530  -14.8750   19.9070 C   0  0  0  0  0  0  0  0  0  0  0  0
  -30.2680  -12.6320   18.8050 C   0  0  0  0  0  2  0  0  0  0  0  0
  -29.2370  -12.7330   17.6570 C   0  0  0  0  0  2  0  0  0  0  0  0
  -27.8100  -12.5460   18.1970 C   0  0  0  0  0  2  0  0  0  0  0  0
  -27.5510  -13.4060   19.4590 C   0  0  0  0  0  3  0  0  0  0  0  0
  -28.6920  -13.2860   20.4860 C   0  0  0  0  0  2  0  0  0  0  0  0
  -29.9500  -13.6730   19.8280 N   0  0  0  0  0  0  0  0  0  0  0  0
  -31.6940  -14.9400   19.2470 O   0  0  0  0  0  0  0  0  0  0  0  0
  -25.2510  -14.0050   20.4210 C   0  0  0  0  0  0  0  0  0  0  0  0
  -24.2120  -13.2350   20.8660 C   0  0  0  0  0  0  0  0  0  0  0  0
  -24.6480  -11.8790   20.7580 C   0  0  0  0  0  0  0  0  0  0  0  0
  -26.2520  -13.1180   20.0610 N   0  0  0  0  0  0  0  0  0  0  0  0
  -25.9040  -11.8330   20.3290 N   0  0  0  0  0  0  0  0  0  0  0  0
  -23.9210  -10.6230   20.9820 C   0  0  0  0  0  0  0  0  0  0  0  0
  -24.3960   -9.6420   21.8810 C   0  0  0  0  0  3  0  0  0  0  0  0
  -23.6670   -8.4520   22.0920 C   0  0  0  0  0  3  0  0  0  0  0  0
  -22.4500   -8.2320   21.4040 C   0  0  0  0  0  0  0  0  0  0  0  0
  -21.9940   -9.2000   20.4930 C   0  0  0  0  0  3  0  0  0  0  0  0
  -22.7220  -10.3820   20.2800 C   0  0  0  0  0  3  0  0  0  0  0  0
  -21.6900   -7.0950   21.5270 O   0  0  0  0  0  0  0  0  0  0  0  0
  -21.6730   -6.3620   22.6870 C   0  0  0  0  0  0  0  0  0  0  0  0
  -21.3080   -6.9340   23.9250 C   0  0  0  0  0  3  0  0  0  0  0  0
  -21.2360   -6.1280   25.0780 C   0  0  0  0  0  3  0  0  0  0  0  0
  -21.5180   -4.7510   24.9950 C   0  0  0  0  0  0  0  0  0  0  0  0
  -21.8760   -4.1790   23.7620 C   0  0  0  0  0  3  0  0  0  0  0  0
  -21.9490   -4.9810   22.6110 C   0  0  0  0  0  0  0  0  0  0  0  0
  -22.2740   -4.4210   21.4210 F   0  0  0  0  0  0  0  0  0  0  0  0
  -21.4420   -3.9760   26.1030 F   0  0  0  0  0  0  0  0  0  0  0  0
  -22.8520  -13.7250   21.2750 C   0  0  0  0  0  0  0  0  0  0  0  0
  -22.2090  -13.0360   22.2110 N   0  0  0  0  0  0  0  0  0  0  0  0
  -22.3750  -14.7540   20.8000 O   0  0  0  0  0  0  0  0  0  0  0  0
  -22.6090  -12.2030   22.6150 H   0  0  0  0  0  0  0  0  0  0  0  0
  -21.3010  -13.3460   22.5280 H   0  0  0  0  0  0  0  0  0  0  0  0
  -25.4220  -15.3780   20.2690 N   0  0  0  0  0  0  0  0  0  0  0  0
  -24.6860  -16.0420   20.4770 H   0  0  0  0  0  0  0  0  0  0  0  0
  -26.2510  -15.8120   19.8850 H   0  0  0  0  0  0  0  0  0  0  0  0
  -27.8370  -24.8650   20.4980 C   0  0  0  0  0  2  0  0  0  0  0  0
  -28.2930  -26.3040   20.2400 O   0  0  0  0  0  0  0  0  0  0  0  0
  -24.6990  -31.9560   23.2170 C   0  0  0  0  0  0  0  0  0  0  0  0
  -27.2530  -27.2850   20.1740 C   0  0  0  0  0  0  0  0  0  0  0  0
  -23.4800  -30.5440   21.6060 C   0  0  0  0  0  3  0  0  0  0  0  0
  -24.9150  -28.9840   20.1670 C   0  0  0  0  0  0  0  0  0  0  0  0
  -26.0280  -30.8330   21.4030 C   0  0  0  0  0  2  0  0  0  0  0  0
  -26.0980  -29.4440   20.7620 C   0  0  0  0  0  0  0  0  0  0  0  0
  -27.2710  -28.6070   20.7580 C   0  0  0  0  0  3  0  0  0  0  0  0
  -26.0560  -26.9390   19.5070 C   0  0  0  0  0  3  0  0  0  0  0  0
  -24.9040  -27.7420   19.5240 C   0  0  0  0  0  3  0  0  0  0  0  0
  -23.6830  -29.8660   20.2270 C   0  0  0  0  0  2  0  0  0  0  0  0
  -24.7560  -31.1310   22.1290 N   0  0  0  0  0  0  0  0  0  0  0  0
  -23.6200  -32.2370   23.7590 O   0  0  0  0  0  0  0  0  0  0  0  0
  -22.8270  -29.5330   22.5810 C   0  0  0  0  0  0  0  0  0  0  0  0
  -21.5000  -29.3400   22.4630 N   0  0  0  0  0  0  0  0  0  0  0  0
  -23.5130  -28.9260   23.4070 O   0  0  0  0  0  0  0  0  0  0  0  0
  -21.0040  -29.8830   21.7710 H   0  0  0  0  0  0  0  0  0  0  0  0
  -18.1390  -28.1010   22.9940 C   0  0  0  0  0  0  0  0  0  0  0  0
  -20.6960  -28.4050   23.2520 C   0  0  0  0  0  3  0  0  0  0  0  0
  -20.8170  -26.9630   22.7030 C   0  0  0  0  0  2  0  0  0  0  0  0
  -19.7180  -26.6060   21.6970 C   0  0  0  0  0  2  0  0  0  0  0  0
  -18.3350  -26.7430   22.3410 C   0  0  0  0  0  2  0  0  0  0  0  0
  -19.2480  -28.8870   23.4080 C   0  0  0  0  0  0  0  0  0  0  0  0
  -19.0100  -30.1560   23.9790 C   0  0  0  0  0  3  0  0  0  0  0  0
  -17.6980  -30.6390   24.1420 C   0  0  0  0  0  3  0  0  0  0  0  0
  -16.6050  -29.8500   23.7430 C   0  0  0  0  0  3  0  0  0  0  0  0
  -16.8260  -28.5830   23.1750 C   0  0  0  0  0  3  0  0  0  0  0  0
  -25.9850  -32.6000   23.8170 C   0  0  0  0  0  3  0  0  0  0  0  0
  -26.5300  -31.8310   25.0830 C   0  0  1  0  0  0  0  0  0  0  0  0
  -25.4530  -31.5630   26.1600 C   0  0  0  0  0  1  0  0  0  0  0  0
  -27.1400  -30.4690   24.6800 C   0  0  0  0  0  1  0  0  0  0  0  0
  -27.6690  -32.6460   25.7380 C   0  0  0  0  0  1  0  0  0  0  0  0
  -25.6650  -33.9940   24.1600 N   0  0  0  0  0  0  0  0  0  0  0  0
  -25.9900  -35.0580   23.4140 C   0  0  0  0  0  0  0  0  0  0  0  0
  -26.6600  -34.9710   22.3820 O   0  0  0  0  0  0  0  0  0  0  0  0
  -25.0730  -34.1370   24.9660 H   0  0  0  0  0  0  0  0  0  0  0  0
  -24.2670  -36.8580   23.0690 C   0  0  0  0  0  1  0  0  0  0  0  0
  -25.4970  -36.4380   23.8900 C   0  0  0  0  0  3  0  0  0  0  0  0
  -27.6210  -37.3070   24.7630 C   0  0  0  0  0  1  0  0  0  0  0  0
  -26.5300  -37.4930   23.8110 N   0  0  0  0  0  0  0  0  0  0  0  0
  -26.1230  -38.4110   23.9710 H   0  0  0  0  0  0  0  0  0  0  0  0
  2  3  1  0
  3  9  1  0
  3  1  2  0
  4  1  1  0
  4  7  1  0
  5  2  2  0
  5  6  1  0
  6 51  1  0
  6  4  2  0
  8  5  1  0
 10  9  1  0
 14 10  1  6
 12 11  1  0
 13 11  1  0
 14 13  1  0
 14 12  1  0
 15 14  1  0
 16 21  1  0
 17 18  1  0
 17 16  1  0
 19 18  1  0
 19 26  1  0
 19 20  1  0
 21 15  1  0
 21 20  1  0
 22 15  2  0
 23 24  2  0
 24 43  1  0
 25 24  1  0
 25 28  1  0
 26 27  1  0
 26 23  1  0
 27 25  2  0
 28 29  1  0
 29 30  2  0
 31 34  1  0
 31 30  1  0
 32 31  2  0
 33 32  1  0
 33 28  2  0
 34 35  1  0
 35 36  1  0
 36 37  2  0
 38 37  1  0
 38 42  1  0
 39 38  2  0
 40 35  2  0
 40 39  1  0
 41 40  1  0
 43 44  1  0
 44 47  1  0
 44 46  1  0
 45 43  2  0
 48 23  1  0
 48 49  1  0
 50 48  1  0
 52 51  1  0
 53 64  2  0
 54 52  1  0
 54 59  1  0
 55 63  1  0
 55 65  1  0
 56 62  1  0
 56 58  1  0
 57 63  1  0
 58 57  1  0
 59 58  2  0
 60 61  1  0
 60 54  2  0
 61 56  2  0
 62 55  1  0
 63 53  1  0
 65 67  2  0
 66 65  1  0
 68 66  1  0
 69 78  2  0
 69 74  1  0
 70 66  1  0
 70 74  1  0
 71 70  1  0
 72 73  1  0
 72 71  1  0
 73 69  1  0
 74 75  2  0
 75 76  1  0
 77 76  2  0
 78 77  1  0
 79 53  1  0
 79 84  1  0
 79 80  1  0
 80 83  1  1
 80 81  1  0
 82 80  1  0
 84 87  1  0
 85 89  1  0
 85 84  1  0
 86 85  2  0
 89 88  1  0
 91 89  1  0
 91 92  1  0
 91 90  1  0
M  ISO  4  14 100  15 100  51 101  52 101
M  END
>  <TORSDO>  (10) 
F 20

>  <SCORE>  (10) 
-12.239

>  <name>  (10) 
9

>  <ligand_id>  (10) 
9

>  <original_smiles>  (10) 
[H]c1c([H])c([H])c2c(c1[H])C([H])([H])C([H])([H])C([H])([H])C2([H])N([H])C(=O)C1([H])N(C(=O)C([H])(N([H])C(=O)C([H])(N([H])C([H])([H])[H])C([H])([H])[H])C(C([H])([H])[H])(C([H])([H])[H])C([H])([H])[H])C([H])([H])c2c([H])c(OC([H])([H])c3c(C([H])([H])[H])c([H])c(C([H])([H])C([H])([H])C4(C(=O)N5C([H])([H])C([H])([H])C([H])([H])C([H])(n6nc(-c7c([H])c([H])c(Oc8c([H])c([H])c(F)c([H])c8F)c([H])c7[H])c(C(=O)N([H])[H])c6N([H])[H])C5([H])[H])C([H])([H])C([H])([H])C4([H])[H])c([H])c3C([H])([H])[H])c([H])c([H])c2C1([H])[H]

>  <smiles>  (10) 
[H]c1c([H])c([H])c2c(c1[H])C([H])([H])C([H])([H])C([H])([H])C2([H])N([H])C(=O)C1([H])N(C(=O)C([H])(N([H])C(=O)C([H])(N([H])C([H])([H])[H])C([H])([H])[H])C(C([H])([H])[H])(C([H])([H])[H])C([H])([H])[H])C([H])([H])c2c([H])c(OC([H])([H])c3c(C([H])([H])[H])c([H])c(C([H])([H])C([H])([H])C4(C(=O)N5C([H])([H])C([H])([H])C([H])([H])C([H])(n6nc(-c7c([H])c([H])c(Oc8c([H])c([H])c(F)c([H])c8F)c([H])c7[H])c(C(=O)N([H])[H])c6N([H])[H])C5([H])[H])C([H])([H])C([H])([H])C4([H])[H])c([H])c3C([H])([H])[H])c([H])c([H])c2C1([H])[H]

$$$$
10:0:0
     RDKit          3D

 92101  0  0  1  0  0  0  0  0999 V2000
  -29.0470  -22.2380   19.1590 C   0  0  0  0  0  3  0  0  0  0  0  0
  -28.7520  -23.6990   19.0850 C   0  0  0  0  0  3  0  0  0  0  0  0
  -29.0660  -21.4120   20.3570 C   0  0  0  0  0  0  0  0  0  0  0  0
  -28.4730  -23.7960   21.3720 C   0  0  0  0  0  0  0  0  0  0  0  0
  -28.4240  -24.6150   20.1770 C   0  0  0  0  0  0  0  0  0  0  0  0
  -28.7300  -22.3320   21.4430 C   0  0  0  0  0  0  0  0  0  0  0  0
  -28.3400  -24.5470   22.6820 C   0  0  0  0  0  1  0  0  0  0  0  0
  -28.6950  -21.7810   22.6790 F   0  0  0  0  0  0  0  0  0  0  0  0
  -31.8940  -18.9800   20.8380 C   0  0  0  0  0  2  0  0  0  0  0  0
  -30.8170  -19.8700   21.4790 C   0  0  0  0  0  2  0  0  0  0  0  0
  -31.3650  -18.6070   19.4550 C   0  0  0  0  0  2  0  0  0  0  0  0
  -29.4990  -19.7450   20.6650 C   0  0  0  0  0  3  0  0  0  0  0  0
  -29.8980  -18.2820   19.7390 C   0  0  0  0  0  3  0  0  0  0  0  0
  -30.5620  -15.3970   19.9770 C   0  0  0  0  0  0  0  0  0  0  0  0
  -30.5070  -12.9560   19.1190 C   0  0  0  0  0  2  0  0  0  0  0  0
  -29.5370  -12.7500   17.9280 C   0  0  0  0  0  2  0  0  0  0  0  0
  -28.1100  -12.4660   18.4280 C   0  0  0  0  0  2  0  0  0  0  0  0
  -27.7000  -13.4190   19.5780 C   0  0  0  0  0  3  0  0  0  0  0  0
  -28.7960  -13.5820   20.6550 C   0  0  0  0  0  2  0  0  0  0  0  0
  -29.9980  -14.0910   19.9730 N   0  0  0  0  0  0  0  0  0  0  0  0
  -31.7540  -15.3950   19.6410 O   0  0  0  0  0  0  0  0  0  0  0  0
  -29.8060  -16.6590   20.1500 N   0  0  0  0  0  0  0  0  0  0  0  0
  -28.8820  -16.4460   20.4920 H   0  0  0  0  0  0  0  0  0  0  0  0
  -25.3720  -13.9360   20.4840 C   0  0  0  0  0  0  0  0  0  0  0  0
  -24.3350  -13.1430   20.8890 C   0  0  0  0  0  0  0  0  0  0  0  0
  -24.8040  -11.7980   20.7880 C   0  0  0  0  0  0  0  0  0  0  0  0
  -26.4050  -13.0760   20.1520 N   0  0  0  0  0  0  0  0  0  0  0  0
  -26.0770  -11.7820   20.4000 N   0  0  0  0  0  0  0  0  0  0  0  0
  -24.0940  -10.5260   20.9760 C   0  0  0  0  0  0  0  0  0  0  0  0
  -24.5440   -9.5590   21.9000 C   0  0  0  0  0  3  0  0  0  0  0  0
  -23.8300   -8.3530   22.0820 C   0  0  0  0  0  3  0  0  0  0  0  0
  -22.6520   -8.1070   21.3350 C   0  0  0  0  0  0  0  0  0  0  0  0
  -22.2200   -9.0650   20.4020 C   0  0  0  0  0  3  0  0  0  0  0  0
  -22.9350  -10.2600   20.2190 C   0  0  0  0  0  3  0  0  0  0  0  0
  -21.9060   -6.9570   21.4250 O   0  0  0  0  0  0  0  0  0  0  0  0
  -21.8220   -6.2420   22.5930 C   0  0  0  0  0  0  0  0  0  0  0  0
  -21.2970   -6.8100   23.7750 C   0  0  0  0  0  3  0  0  0  0  0  0
  -21.1610   -6.0200   24.9350 C   0  0  0  0  0  3  0  0  0  0  0  0
  -21.5370   -4.6640   24.9110 C   0  0  0  0  0  0  0  0  0  0  0  0
  -22.0550   -4.0950   23.7340 C   0  0  0  0  0  3  0  0  0  0  0  0
  -22.1930   -4.8820   22.5780 C   0  0  0  0  0  0  0  0  0  0  0  0
  -22.6690   -4.3240   21.4380 F   0  0  0  0  0  0  0  0  0  0  0  0
  -21.4030   -3.9040   26.0220 F   0  0  0  0  0  0  0  0  0  0  0  0
  -22.9530  -13.6030   21.2460 C   0  0  0  0  0  0  0  0  0  0  0  0
  -22.2780  -12.8890   22.1390 N   0  0  0  0  0  0  0  0  0  0  0  0
  -22.4820  -14.6340   20.7700 O   0  0  0  0  0  0  0  0  0  0  0  0
  -22.6730  -12.0600   22.5560 H   0  0  0  0  0  0  0  0  0  0  0  0
  -21.3510  -13.1810   22.4160 H   0  0  0  0  0  0  0  0  0  0  0  0
  -25.5150  -15.3130   20.3450 N   0  0  0  0  0  0  0  0  0  0  0  0
  -24.7560  -15.9570   20.5420 H   0  0  0  0  0  0  0  0  0  0  0  0
  -26.3280  -15.7720   19.9550 H   0  0  0  0  0  0  0  0  0  0  0  0
  -28.3760  -26.1370   20.1260 O   0  0  0  0  0  0  0  0  0  0  0  0
  -24.7010  -31.8980   23.2640 C   0  0  0  0  0  0  0  0  0  0  0  0
  -27.2860  -27.1320   20.1580 C   0  0  0  0  0  0  0  0  0  0  0  0
  -23.5040  -30.5220   21.6050 C   0  0  0  0  0  3  0  0  0  0  0  0
  -24.9560  -28.9480   20.1560 C   0  0  0  0  0  0  0  0  0  0  0  0
  -26.0640  -30.7620   21.4510 C   0  0  0  0  0  2  0  0  0  0  0  0
  -26.1390  -29.3670   20.7760 C   0  0  0  0  0  0  0  0  0  0  0  0
  -27.2980  -28.4790   20.7520 C   0  0  0  0  0  3  0  0  0  0  0  0
  -26.0680  -26.8390   19.5060 C   0  0  0  0  0  3  0  0  0  0  0  0
  -24.9390  -27.7010   19.5080 C   0  0  0  0  0  3  0  0  0  0  0  0
  -23.7300  -29.8560   20.2180 C   0  0  0  0  0  2  0  0  0  0  0  0
  -24.7770  -31.0880   22.1590 N   0  0  0  0  0  0  0  0  0  0  0  0
  -23.6150  -32.1760   23.7930 O   0  0  0  0  0  0  0  0  0  0  0  0
  -22.8200  -29.5090   22.5580 C   0  0  0  0  0  0  0  0  0  0  0  0
  -21.4930  -29.3260   22.4210 N   0  0  0  0  0  0  0  0  0  0  0  0
  -23.4880  -28.8860   23.3870 O   0  0  0  0  0  0  0  0  0  0  0  0
  -21.0090  -29.8770   21.7260 H   0  0  0  0  0  0  0  0  0  0  0  0
  -18.1230  -28.0790   22.9020 C   0  0  0  0  0  0  0  0  0  0  0  0
  -20.6780  -28.3740   23.1800 C   0  0  0  0  0  3  0  0  0  0  0  0
  -20.7980  -26.9480   22.5950 C   0  0  0  0  0  2  0  0  0  0  0  0
  -19.7050  -26.6220   21.5710 C   0  0  0  0  0  2  0  0  0  0  0  0
  -18.3180  -26.7410   22.2080 C   0  0  0  0  0  2  0  0  0  0  0  0
  -19.2290  -28.8530   23.3430 C   0  0  0  0  0  0  0  0  0  0  0  0
  -18.9880  -30.1030   23.9540 C   0  0  0  0  0  3  0  0  0  0  0  0
  -17.6750  -30.5820   24.1230 C   0  0  0  0  0  3  0  0  0  0  0  0
  -16.5840  -29.8060   23.6940 C   0  0  0  0  0  3  0  0  0  0  0  0
  -16.8080  -28.5560   23.0920 C   0  0  0  0  0  3  0  0  0  0  0  0
  -25.9750  -32.5300   23.9010 C   0  0  0  0  0  3  0  0  0  0  0  0
  -25.6640  -33.9290   24.2430 N   0  0  0  0  0  0  0  0  0  0  0  0
  -25.9580  -34.9890   23.4800 C   0  0  0  0  0  0  0  0  0  0  0  0
  -26.5830  -34.8920   22.4190 O   0  0  0  0  0  0  0  0  0  0  0  0
  -25.0960  -34.0760   25.0650 H   0  0  0  0  0  0  0  0  0  0  0  0
  -24.1810  -36.7570   23.2440 C   0  0  0  0  0  1  0  0  0  0  0  0
  -25.4840  -36.3740   23.9640 C   0  0  0  0  0  3  0  0  0  0  0  0
  -27.6530  -37.3010   24.6440 C   0  0  0  0  0  1  0  0  0  0  0  0
  -26.4880  -37.4410   23.7730 N   0  0  0  0  0  0  0  0  0  0  0  0
  -26.0790  -38.3570   23.9380 H   0  0  0  0  0  0  0  0  0  0  0  0
  -26.4780  -31.7540   25.1830 C   0  0  1  0  0  0  0  0  0  0  0  0
  -25.3740  -31.5160   26.2400 C   0  0  0  0  0  1  0  0  0  0  0  0
  -27.0590  -30.3740   24.8010 C   0  0  0  0  0  1  0  0  0  0  0  0
  -27.6300  -32.5410   25.8520 C   0  0  0  0  0  1  0  0  0  0  0  0
  1  3  1  0
  2  1  2  0
  2  5  1  0
  3  6  2  0
  4  6  1  0
  4  7  1  0
  5  4  2  0
  6  8  1  0
  9 10  1  0
 11 13  1  0
 11  9  1  0
 12  3  1  0
 12 10  1  0
 13 22  1  0
 13 12  1  0
 14 22  1  0
 15 20  1  0
 16 17  1  0
 16 15  1  0
 18 17  1  0
 18 27  1  0
 18 19  1  0
 20 14  1  0
 20 19  1  0
 21 14  2  0
 22 23  1  0
 24 25  2  0
 25 44  1  0
 26 25  1  0
 26 29  1  0
 27 28  1  0
 27 24  1  0
 28 26  2  0
 29 30  1  0
 30 31  2  0
 32 35  1  0
 32 31  1  0
 33 32  2  0
 34 33  1  0
 34 29  2  0
 35 36  1  0
 36 37  1  0
 37 38  2  0
 39 38  1  0
 39 43  1  0
 40 39  2  0
 41 36  2  0
 41 40  1  0
 42 41  1  0
 44 45  1  0
 45 48  1  0
 45 47  1  0
 46 44  2  0
 49 24  1  0
 49 50  1  0
 51 49  1  0
 52 54  1  0
 52  5  1  0
 53 64  2  0
 54 59  1  0
 55 63  1  0
 55 65  1  0
 56 62  1  0
 56 58  1  0
 57 63  1  0
 58 57  1  0
 59 58  2  0
 60 61  1  0
 60 54  2  0
 61 56  2  0
 62 55  1  0
 63 53  1  0
 65 67  2  0
 66 65  1  0
 68 66  1  0
 69 78  2  0
 69 74  1  0
 70 66  1  0
 70 74  1  0
 71 70  1  0
 72 73  1  0
 72 71  1  0
 73 69  1  0
 74 75  2  0
 75 76  1  0
 77 76  2  0
 78 77  1  0
 79 53  1  0
 79 80  1  0
 79 89  1  0
 80 83  1  0
 81 85  1  0
 81 80  1  0
 82 81  2  0
 85 84  1  0
 87 88  1  0
 87 85  1  0
 87 86  1  0
 89 92  1  1
 89 90  1  0
 91 89  1  0
M  ISO  4   5 101  14 100  22 100  52 101
M  END
>  <TORSDO>  (11) 
F 17

>  <SCORE>  (11) 
-16.064

>  <name>  (11) 
10

>  <ligand_id>  (11) 
10

>  <original_smiles>  (11) 
[H]c1c([H])c([H])c2c(c1[H])C([H])([H])C([H])([H])C([H])([H])C2([H])N([H])C(=O)C1([H])N(C(=O)C([H])(N([H])C(=O)C([H])(N([H])C([H])([H])[H])C([H])([H])[H])C(C([H])([H])[H])(C([H])([H])[H])C([H])([H])[H])C([H])([H])c2c([H])c(Oc3c([H])c([H])c(C4([H])C([H])([H])C([H])([H])C([H])([H])C4([H])N([H])C(=O)N4C([H])([H])C([H])([H])C([H])([H])C([H])(n5nc(-c6c([H])c([H])c(Oc7c([H])c([H])c(F)c([H])c7F)c([H])c6[H])c(C(=O)N([H])[H])c5N([H])[H])C4([H])[H])c(F)c3C([H])([H])[H])c([H])c([H])c2C1([H])[H]

>  <smiles>  (11) 
[H]c1c([H])c([H])c2c(c1[H])C([H])([H])C([H])([H])C([H])([H])C2([H])N([H])C(=O)C1([H])N(C(=O)C([H])(N([H])C(=O)C([H])(N([H])C([H])([H])[H])C([H])([H])[H])C(C([H])([H])[H])(C([H])([H])[H])C([H])([H])[H])C([H])([H])c2c([H])c(Oc3c([H])c([H])c(C4([H])C([H])([H])C([H])([H])C([H])([H])C4([H])N([H])C(=O)N4C([H])([H])C([H])([H])C([H])([H])C([H])(n5nc(-c6c([H])c([H])c(Oc7c([H])c([H])c(F)c([H])c7F)c([H])c6[H])c(C(=O)N([H])[H])c5N([H])[H])C4([H])[H])c(F)c3C([H])([H])[H])c([H])c([H])c2C1([H])[H]

$$$$
11:0:0
     RDKit          3D

 88 96  0  0  1  0  0  0  0  0999 V2000
  -29.6560  -21.8300   21.0940 C   0  0  0  0  0  3  0  0  0  0  0  0
  -29.3270  -23.3070   21.0960 C   0  0  0  0  0  3  0  0  0  0  0  0
  -27.6860  -22.9410   19.6360 C   0  0  0  0  0  3  0  0  0  0  0  0
  -29.0580  -20.6760   20.3850 C   0  0  0  0  0  0  0  0  0  0  0  0
  -28.2990  -24.0850   20.3770 C   0  0  0  0  0  0  0  0  0  0  0  0
  -28.0090  -21.4240   19.6250 C   0  0  0  0  0  0  0  0  0  0  0  0
  -29.7630  -18.9950   20.3960 C   0  0  0  0  0  0  0  0  0  0  0  0
  -30.9870  -19.0690   20.5460 O   0  0  0  0  0  0  0  0  0  0  0  0
  -29.3230  -17.2180   20.3360 C   0  0  0  0  0  2  0  0  0  0  0  0
  -30.2140  -15.6000   20.2180 C   0  0  0  0  0  0  0  0  0  0  0  0
  -30.3250  -13.0790   19.3760 C   0  0  0  0  0  2  0  0  0  0  0  0
  -29.4110  -12.7640   18.1580 C   0  0  0  0  0  2  0  0  0  0  0  0
  -27.9830  -12.4180   18.6110 C   0  0  0  0  0  2  0  0  0  0  0  0
  -27.4960  -13.3860   19.7130 C   0  0  0  0  0  3  0  0  0  0  0  0
  -28.5390  -13.6310   20.8240 C   0  0  0  0  0  2  0  0  0  0  0  0
  -29.7340  -14.2270   20.1910 N   0  0  0  0  0  0  0  0  0  0  0  0
  -31.4390  -15.5710   19.9910 O   0  0  0  0  0  0  0  0  0  0  0  0
  -25.1350  -13.8980   20.5070 C   0  0  0  0  0  0  0  0  0  0  0  0
  -24.0860  -13.1070   20.8810 C   0  0  0  0  0  0  0  0  0  0  0  0
  -24.5690  -11.7620   20.8360 C   0  0  0  0  0  0  0  0  0  0  0  0
  -26.1840  -13.0370   20.2410 N   0  0  0  0  0  0  0  0  0  0  0  0
  -25.8590  -11.7450   20.5100 N   0  0  0  0  0  0  0  0  0  0  0  0
  -23.8560  -10.4910   21.0270 C   0  0  0  0  0  0  0  0  0  0  0  0
  -24.2960   -9.5270   21.9620 C   0  0  0  0  0  3  0  0  0  0  0  0
  -23.5780   -8.3250   22.1430 C   0  0  0  0  0  3  0  0  0  0  0  0
  -22.4070   -8.0770   21.3880 C   0  0  0  0  0  0  0  0  0  0  0  0
  -21.9850   -9.0290   20.4440 C   0  0  0  0  0  3  0  0  0  0  0  0
  -22.7040  -10.2230   20.2610 C   0  0  0  0  0  3  0  0  0  0  0  0
  -21.6620   -6.9260   21.4770 O   0  0  0  0  0  0  0  0  0  0  0  0
  -21.6090   -6.1870   22.6330 C   0  0  0  0  0  0  0  0  0  0  0  0
  -21.1470   -6.7390   23.8480 C   0  0  0  0  0  3  0  0  0  0  0  0
  -21.0430   -5.9280   24.9950 C   0  0  0  0  0  3  0  0  0  0  0  0
  -21.3930   -4.5650   24.9290 C   0  0  0  0  0  0  0  0  0  0  0  0
  -21.8470   -4.0140   23.7180 C   0  0  0  0  0  3  0  0  0  0  0  0
  -21.9520   -4.8220   22.5730 C   0  0  0  0  0  0  0  0  0  0  0  0
  -22.3700   -4.2800   21.4040 F   0  0  0  0  0  0  0  0  0  0  0  0
  -21.2860   -3.7840   26.0280 F   0  0  0  0  0  0  0  0  0  0  0  0
  -22.6860  -13.5690   21.1620 C   0  0  0  0  0  0  0  0  0  0  0  0
  -21.9720  -12.8670   22.0340 N   0  0  0  0  0  0  0  0  0  0  0  0
  -22.2350  -14.5900   20.6420 O   0  0  0  0  0  0  0  0  0  0  0  0
  -22.3500  -12.0430   22.4780 H   0  0  0  0  0  0  0  0  0  0  0  0
  -21.0340  -13.1630   22.2640 H   0  0  0  0  0  0  0  0  0  0  0  0
  -25.2810  -15.2720   20.3400 N   0  0  0  0  0  0  0  0  0  0  0  0
  -24.5090  -15.9160   20.4730 H   0  0  0  0  0  0  0  0  0  0  0  0
  -26.1210  -15.7270   20.0070 H   0  0  0  0  0  0  0  0  0  0  0  0
  -26.3470  -21.1070   17.8940 C   0  0  0  0  0  1  0  0  0  0  0  0
  -27.3110  -20.5720   18.7920 O   0  0  0  0  0  0  0  0  0  0  0  0
  -28.1970  -25.6880   20.3310 O   0  0  0  0  0  0  0  0  0  0  0  0
  -24.6530  -31.9020   23.2470 C   0  0  0  0  0  0  0  0  0  0  0  0
  -27.1640  -26.8250   20.3120 C   0  0  0  0  0  0  0  0  0  0  0  0
  -23.4570  -30.4940   21.6220 C   0  0  0  0  0  3  0  0  0  0  0  0
  -24.8940  -28.8270   20.2300 C   0  0  0  0  0  0  0  0  0  0  0  0
  -26.0320  -30.6340   21.4980 C   0  0  0  0  0  2  0  0  0  0  0  0
  -26.0870  -29.1990   20.8620 C   0  0  0  0  0  0  0  0  0  0  0  0
  -27.2050  -28.2220   20.8730 C   0  0  0  0  0  3  0  0  0  0  0  0
  -25.9390  -26.6470   19.6210 C   0  0  0  0  0  3  0  0  0  0  0  0
  -24.8540  -27.5740   19.5900 C   0  0  0  0  0  3  0  0  0  0  0  0
  -23.6890  -29.7790   20.2610 C   0  0  0  0  0  2  0  0  0  0  0  0
  -24.7370  -31.0430   22.1740 N   0  0  0  0  0  0  0  0  0  0  0  0
  -23.5630  -32.2130   23.7560 O   0  0  0  0  0  0  0  0  0  0  0  0
  -22.7380  -29.5290   22.6030 C   0  0  0  0  0  0  0  0  0  0  0  0
  -21.4060  -29.3760   22.4710 N   0  0  0  0  0  0  0  0  0  0  0  0
  -23.3890  -28.9150   23.4510 O   0  0  0  0  0  0  0  0  0  0  0  0
  -20.9320  -29.9170   21.7620 H   0  0  0  0  0  0  0  0  0  0  0  0
  -18.0160  -28.1770   22.9740 C   0  0  0  0  0  0  0  0  0  0  0  0
  -20.5730  -28.4530   23.2520 C   0  0  0  0  0  3  0  0  0  0  0  0
  -20.6800  -27.0100   22.7030 C   0  0  0  0  0  2  0  0  0  0  0  0
  -19.5880  -26.6710   21.6840 C   0  0  0  0  0  2  0  0  0  0  0  0
  -18.2000  -26.8200   22.3150 C   0  0  0  0  0  2  0  0  0  0  0  0
  -19.1290  -28.9500   23.3990 C   0  0  0  0  0  0  0  0  0  0  0  0
  -18.9000  -30.2160   23.9800 C   0  0  0  0  0  3  0  0  0  0  0  0
  -17.5910  -30.7100   24.1380 C   0  0  0  0  0  3  0  0  0  0  0  0
  -16.4930  -29.9360   23.7260 C   0  0  0  0  0  3  0  0  0  0  0  0
  -16.7060  -28.6710   23.1520 C   0  0  0  0  0  3  0  0  0  0  0  0
  -25.9220  -32.5480   23.8810 C   0  0  0  0  0  3  0  0  0  0  0  0
  -26.4180  -31.7940   25.1780 C   0  0  1  0  0  0  0  0  0  0  0  0
  -25.3110  -31.5840   26.2380 C   0  0  0  0  0  1  0  0  0  0  0  0
  -26.9950  -30.4050   24.8280 C   0  0  0  0  0  1  0  0  0  0  0  0
  -27.5680  -32.5900   25.8400 C   0  0  0  0  0  1  0  0  0  0  0  0
  -25.6070  -33.9530   24.2090 N   0  0  0  0  0  0  0  0  0  0  0  0
  -25.9300  -35.0120   23.4530 C   0  0  0  0  0  0  0  0  0  0  0  0
  -26.5800  -34.9090   22.4100 O   0  0  0  0  0  0  0  0  0  0  0  0
  -25.0240  -34.1040   25.0180 H   0  0  0  0  0  0  0  0  0  0  0  0
  -24.1900  -36.8110   23.1550 C   0  0  0  0  0  1  0  0  0  0  0  0
  -25.4580  -36.4040   23.9240 C   0  0  0  0  0  3  0  0  0  0  0  0
  -27.6140  -37.3030   24.6860 C   0  0  0  0  0  1  0  0  0  0  0  0
  -26.4860  -37.4580   23.7710 N   0  0  0  0  0  0  0  0  0  0  0  0
  -26.0840  -38.3800   23.9190 H   0  0  0  0  0  0  0  0  0  0  0  0
  1  2  1  0
  3  5  1  0
  4  7  1  0
  4  1  2  0
  5  2  2  0
  6  3  2  0
  6  4  1  0
  7  8  2  0
  9  7  1  0
 10  9  1  0
 11 16  1  0
 12 13  1  0
 12 11  1  0
 14 13  1  0
 14 21  1  0
 14 15  1  0
 16 10  1  0
 16 15  1  0
 17 10  2  0
 18 19  2  0
 19 38  1  0
 20 19  1  0
 20 23  1  0
 21 18  1  0
 21 22  1  0
 22 20  2  0
 23 24  1  0
 24 25  2  0
 26 29  1  0
 26 25  1  0
 27 26  2  0
 28 27  1  0
 28 23  2  0
 29 30  1  0
 30 31  1  0
 31 32  2  0
 33 32  1  0
 33 37  1  0
 34 33  2  0
 35 30  2  0
 35 34  1  0
 36 35  1  0
 38 39  1  0
 39 42  1  0
 39 41  1  0
 40 38  2  0
 43 44  1  0
 43 18  1  0
 45 43  1  0
 46 47  1  0
 47  6  1  0
 48  5  1  0
 49 60  2  0
 50 48  1  0
 50 55  1  0
 51 59  1  0
 51 61  1  0
 52 58  1  0
 52 54  1  0
 53 59  1  0
 54 55  2  0
 54 53  1  0
 56 50  2  0
 57 56  1  0
 57 52  2  0
 58 51  1  0
 59 49  1  0
 61 63  2  0
 62 61  1  0
 64 62  1  0
 65 74  2  0
 65 70  1  0
 66 62  1  0
 66 70  1  0
 67 66  1  0
 68 69  1  0
 68 67  1  0
 69 65  1  0
 70 71  2  0
 71 72  1  0
 73 72  2  0
 74 73  1  0
 75 49  1  0
 75 80  1  0
 75 76  1  0
 76 79  1  1
 76 77  1  0
 78 76  1  0
 80 83  1  0
 81 85  1  0
 81 80  1  0
 82 81  2  0
 85 84  1  0
 87 88  1  0
 87 85  1  0
 87 86  1  0
M  ISO  4   5 101   9 100  10 100  48 101
M  END
>  <TORSDO>  (12) 
F 19

>  <SCORE>  (12) 
-15.558

>  <name>  (12) 
11

>  <ligand_id>  (12) 
11

>  <original_smiles>  (12) 
[H]c1c([H])c([H])c2c(c1[H])C([H])([H])C([H])([H])C([H])([H])C2([H])N([H])C(=O)C1([H])N(C(=O)C([H])(N([H])C(=O)C([H])(N([H])C([H])([H])[H])C([H])([H])[H])C(C([H])([H])[H])(C([H])([H])[H])C([H])([H])[H])C([H])([H])c2c([H])c(Oc3c([H])c([H])c(C(=O)C([H])([H])C(=O)N4C([H])([H])C([H])([H])C([H])([H])C([H])(n5nc(-c6c([H])c([H])c(Oc7c([H])c([H])c(F)c([H])c7F)c([H])c6[H])c(C(=O)N([H])[H])c5N([H])[H])C4([H])[H])c(OC([H])([H])[H])c3[H])c([H])c([H])c2C1([H])[H]

>  <smiles>  (12) 
[H]c1c([H])c([H])c2c(c1[H])C([H])([H])C([H])([H])C([H])([H])C2([H])N([H])C(=O)C1([H])N(C(=O)C([H])(N([H])C(=O)C([H])(N([H])C([H])([H])[H])C([H])([H])[H])C(C([H])([H])[H])(C([H])([H])[H])C([H])([H])[H])C([H])([H])c2c([H])c(Oc3c([H])c([H])c(C(=O)C([H])([H])C(=O)N4C([H])([H])C([H])([H])C([H])([H])C([H])(n5nc(-c6c([H])c([H])c(Oc7c([H])c([H])c(F)c([H])c7F)c([H])c6[H])c(C(=O)N([H])[H])c5N([H])[H])C4([H])[H])c(OC([H])([H])[H])c3[H])c([H])c([H])c2C1([H])[H]

$$$$
12:0:0
     RDKit          3D

 91 99  0  0  1  0  0  0  0  0999 V2000
  -27.6310  -25.0450   21.3440 C   0  0  0  0  0  3  0  0  0  0  0  0
  -27.4410  -23.6610   21.5300 C   0  0  0  0  0  3  0  0  0  0  0  0
  -29.5860  -24.5590   19.9980 C   0  0  0  0  0  3  0  0  0  0  0  0
  -29.4440  -23.1340   20.2190 C   0  0  0  0  0  0  0  0  0  0  0  0
  -28.6880  -25.5450   20.5520 C   0  0  0  0  0  0  0  0  0  0  0  0
  -28.3190  -22.7040   20.9690 C   0  0  0  0  0  0  0  0  0  0  0  0
  -30.3790  -22.0960   19.5640 C   0  0  0  0  0  0  0  0  0  0  0  0
  -30.8190  -22.2850   18.4270 O   0  0  0  0  0  0  0  0  0  0  0  0
  -30.8980  -20.8030   20.3210 C   0  0  0  0  0  2  0  0  0  0  0  0
  -30.4260  -19.3520   19.8430 C   0  0  0  0  0  2  0  0  0  0  0  0
  -31.3340  -18.0720   20.1770 C   0  0  0  0  0  2  0  0  0  0  0  0
  -30.6290  -16.6360   20.2280 C   0  0  0  0  0  2  0  0  0  0  0  0
  -31.4600  -15.2950   20.0240 C   0  0  0  0  0  0  0  0  0  0  0  0
  -31.2190  -12.9870   19.1190 C   0  0  0  0  0  2  0  0  0  0  0  0
  -30.2700  -13.0560   17.8960 C   0  0  0  0  0  2  0  0  0  0  0  0
  -28.7970  -12.9410   18.3390 C   0  0  0  0  0  2  0  0  0  0  0  0
  -28.4550  -13.8860   19.5200 C   0  0  0  0  0  3  0  0  0  0  0  0
  -29.5170  -13.8030   20.6380 C   0  0  0  0  0  2  0  0  0  0  0  0
  -30.8340  -14.0730   20.0440 N   0  0  0  0  0  0  0  0  0  0  0  0
  -32.6340  -15.3830   19.6550 O   0  0  0  0  0  0  0  0  0  0  0  0
  -26.1180  -14.5830   20.3250 C   0  0  0  0  0  0  0  0  0  0  0  0
  -25.0200  -13.8560   20.6950 C   0  0  0  0  0  0  0  0  0  0  0  0
  -25.4080  -12.4850   20.6070 C   0  0  0  0  0  0  0  0  0  0  0  0
  -27.1070  -13.6580   20.0310 N   0  0  0  0  0  0  0  0  0  0  0  0
  -26.6870  -12.3880   20.2650 N   0  0  0  0  0  0  0  0  0  0  0  0
  -24.6220  -11.2540   20.7690 C   0  0  0  0  0  0  0  0  0  0  0  0
  -24.9910  -10.2600   21.7020 C   0  0  0  0  0  3  0  0  0  0  0  0
  -24.2070   -9.0970   21.8540 C   0  0  0  0  0  3  0  0  0  0  0  0
  -23.0420   -8.9170   21.0720 C   0  0  0  0  0  0  0  0  0  0  0  0
  -22.6920   -9.9000   20.1290 C   0  0  0  0  0  3  0  0  0  0  0  0
  -23.4750  -11.0550   19.9760 C   0  0  0  0  0  3  0  0  0  0  0  0
  -22.2350   -7.8060   21.1320 O   0  0  0  0  0  0  0  0  0  0  0  0
  -22.0670   -7.1010   22.2960 C   0  0  0  0  0  0  0  0  0  0  0  0
  -21.5720   -7.7070   23.4710 C   0  0  0  0  0  3  0  0  0  0  0  0
  -21.3530   -6.9310   24.6260 C   0  0  0  0  0  3  0  0  0  0  0  0
  -21.6130   -5.5480   24.6050 C   0  0  0  0  0  0  0  0  0  0  0  0
  -22.0990   -4.9400   23.4350 C   0  0  0  0  0  3  0  0  0  0  0  0
  -22.3230   -5.7140   22.2830 C   0  0  0  0  0  0  0  0  0  0  0  0
  -22.7720   -5.1190   21.1510 F   0  0  0  0  0  0  0  0  0  0  0  0
  -21.3930   -4.8000   25.7120 F   0  0  0  0  0  0  0  0  0  0  0  0
  -23.6570  -14.3970   21.0190 C   0  0  0  0  0  0  0  0  0  0  0  0
  -22.9160  -13.7150   21.8840 N   0  0  0  0  0  0  0  0  0  0  0  0
  -23.2590  -15.4570   20.5380 O   0  0  0  0  0  0  0  0  0  0  0  0
  -23.2520  -12.8580   22.2970 H   0  0  0  0  0  0  0  0  0  0  0  0
  -22.0010  -14.0600   22.1440 H   0  0  0  0  0  0  0  0  0  0  0  0
  -26.3530  -15.9510   20.1940 N   0  0  0  0  0  0  0  0  0  0  0  0
  -25.6320  -16.6450   20.3470 H   0  0  0  0  0  0  0  0  0  0  0  0
  -27.2270  -16.3510   19.8760 H   0  0  0  0  0  0  0  0  0  0  0  0
  -26.8210  -20.8630   20.7560 C   0  0  0  0  0  1  0  0  0  0  0  0
  -28.0980  -21.3560   21.1440 O   0  0  0  0  0  0  0  0  0  0  0  0
  -28.8260  -26.9450   20.3690 O   0  0  0  0  0  0  0  0  0  0  0  0
  -24.7890  -32.1030   23.4400 C   0  0  0  0  0  0  0  0  0  0  0  0
  -27.6900  -27.7680   20.3340 C   0  0  0  0  0  0  0  0  0  0  0  0
  -23.7010  -30.7170   21.7080 C   0  0  0  0  0  3  0  0  0  0  0  0
  -25.2670  -29.2760   20.2850 C   0  0  0  0  0  0  0  0  0  0  0  0
  -26.2290  -31.1440   21.6300 C   0  0  0  0  0  2  0  0  0  0  0  0
  -26.3900  -29.7920   20.9460 C   0  0  0  0  0  0  0  0  0  0  0  0
  -27.6040  -29.0420   20.9720 C   0  0  0  0  0  3  0  0  0  0  0  0
  -26.5520  -27.3070   19.6400 C   0  0  0  0  0  3  0  0  0  0  0  0
  -25.3480  -28.0380   19.6260 C   0  0  0  0  0  3  0  0  0  0  0  0
  -23.9960  -30.1020   20.3130 C   0  0  0  0  0  2  0  0  0  0  0  0
  -24.9230  -31.3360   22.3190 N   0  0  0  0  0  0  0  0  0  0  0  0
  -23.6780  -32.3220   23.9420 O   0  0  0  0  0  0  0  0  0  0  0  0
  -23.0470  -29.6420   22.6080 C   0  0  0  0  0  0  0  0  0  0  0  0
  -21.7330  -29.4260   22.4320 N   0  0  0  0  0  0  0  0  0  0  0  0
  -23.7220  -29.0080   23.4240 O   0  0  0  0  0  0  0  0  0  0  0  0
  -21.2460  -30.0020   21.7600 H   0  0  0  0  0  0  0  0  0  0  0  0
  -18.3860  -28.0900   22.7600 C   0  0  0  0  0  0  0  0  0  0  0  0
  -20.9210  -28.4310   23.1350 C   0  0  0  0  0  3  0  0  0  0  0  0
  -21.0970  -27.0270   22.5100 C   0  0  0  0  0  2  0  0  0  0  0  0
  -20.0470  -26.7090   21.4440 C   0  0  0  0  0  2  0  0  0  0  0  0
  -18.6380  -26.7750   22.0400 C   0  0  0  0  0  2  0  0  0  0  0  0
  -19.4590  -28.8750   23.2580 C   0  0  0  0  0  0  0  0  0  0  0  0
  -19.1710  -30.1070   23.8850 C   0  0  0  0  0  3  0  0  0  0  0  0
  -17.8430  -30.5550   24.0170 C   0  0  0  0  0  3  0  0  0  0  0  0
  -16.7840  -29.7660   23.5360 C   0  0  0  0  0  3  0  0  0  0  0  0
  -17.0550  -28.5360   22.9120 C   0  0  0  0  0  3  0  0  0  0  0  0
  -26.0230  -32.7600   24.1330 C   0  0  0  0  0  3  0  0  0  0  0  0
  -25.6970  -34.1710   24.3800 N   0  0  0  0  0  0  0  0  0  0  0  0
  -26.0920  -35.1910   23.6090 C   0  0  0  0  0  0  0  0  0  0  0  0
  -26.8430  -35.0450   22.6410 O   0  0  0  0  0  0  0  0  0  0  0  0
  -25.0390  -34.3600   25.1240 H   0  0  0  0  0  0  0  0  0  0  0  0
  -24.4080  -36.9730   23.0450 C   0  0  0  0  0  1  0  0  0  0  0  0
  -25.5760  -36.5970   23.9690 C   0  0  0  0  0  3  0  0  0  0  0  0
  -27.6450  -37.5120   24.9280 C   0  0  0  0  0  1  0  0  0  0  0  0
  -26.6190  -37.6420   23.8950 N   0  0  0  0  0  0  0  0  0  0  0  0
  -26.2090  -38.5690   23.9740 H   0  0  0  0  0  0  0  0  0  0  0  0
  -26.4370  -32.0420   25.4770 C   0  0  1  0  0  0  0  0  0  0  0  0
  -25.2600  -31.8370   26.4590 C   0  0  0  0  0  1  0  0  0  0  0  0
  -27.0600  -30.6560   25.1890 C   0  0  0  0  0  1  0  0  0  0  0  0
  -27.5210  -32.8730   26.2030 C   0  0  0  0  0  1  0  0  0  0  0  0
  1  2  1  0
  3  4  2  0
  3  5  1  0
  4  6  1  0
  5  1  2  0
  6 50  1  0
  6  2  2  0
  7  4  1  0
  7  9  1  0
  8  7  2  0
 10 11  1  0
 10  9  1  0
 11 12  1  0
 13 19  1  0
 13 12  1  0
 14 19  1  0
 15 16  1  0
 15 14  1  0
 17 16  1  0
 17 24  1  0
 17 18  1  0
 19 18  1  0
 20 13  2  0
 21 22  2  0
 22 41  1  0
 23 22  1  0
 23 26  1  0
 24 25  1  0
 24 21  1  0
 25 23  2  0
 26 27  1  0
 27 28  2  0
 29 32  1  0
 29 28  1  0
 30 29  2  0
 31 30  1  0
 31 26  2  0
 32 33  1  0
 33 34  1  0
 34 35  2  0
 36 35  1  0
 36 40  1  0
 37 36  2  0
 38 33  2  0
 38 37  1  0
 39 38  1  0
 41 42  1  0
 42 45  1  0
 42 44  1  0
 43 41  2  0
 46 21  1  0
 46 47  1  0
 48 46  1  0
 49 50  1  0
 51  5  1  0
 52 63  2  0
 53 51  1  0
 53 58  1  0
 54 62  1  0
 54 64  1  0
 55 61  1  0
 55 57  1  0
 56 62  1  0
 57 58  2  0
 57 56  1  0
 59 53  2  0
 60 59  1  0
 60 55  2  0
 61 54  1  0
 62 52  1  0
 64 66  2  0
 65 64  1  0
 67 65  1  0
 68 77  2  0
 68 73  1  0
 69 65  1  0
 69 73  1  0
 70 69  1  0
 71 72  1  0
 71 70  1  0
 72 68  1  0
 73 74  2  0
 74 75  1  0
 76 75  2  0
 77 76  1  0
 78 52  1  0
 78 79  1  0
 78 88  1  0
 79 82  1  0
 80 84  1  0
 80 79  1  0
 81 80  2  0
 84 83  1  0
 86 84  1  0
 86 87  1  0
 86 85  1  0
 88 91  1  1
 88 89  1  0
 90 88  1  0
M  ISO  4   5 101  12 100  13 100  51 101
M  END
>  <TORSDO>  (13) 
F 22

>  <SCORE>  (13) 
-10.108

>  <name>  (13) 
12

>  <ligand_id>  (13) 
12

>  <original_smiles>  (13) 
[H]c1c([H])c([H])c2c(c1[H])C([H])([H])C([H])([H])C([H])([H])C2([H])N([H])C(=O)C1([H])N(C(=O)C([H])(N([H])C(=O)C([H])(N([H])C([H])([H])[H])C([H])([H])[H])C(C([H])([H])[H])(C([H])([H])[H])C([H])([H])[H])C([H])([H])c2c([H])c(Oc3c([H])c([H])c(OC([H])([H])[H])c(C(=O)C([H])([H])C([H])([H])C([H])([H])C([H])([H])C(=O)N4C([H])([H])C([H])([H])C([H])([H])C([H])(n5nc(-c6c([H])c([H])c(Oc7c([H])c([H])c(F)c([H])c7F)c([H])c6[H])c(C(=O)N([H])[H])c5N([H])[H])C4([H])[H])c3[H])c([H])c([H])c2C1([H])[H]

>  <smiles>  (13) 
[H]c1c([H])c([H])c2c(c1[H])C([H])([H])C([H])([H])C([H])([H])C2([H])N([H])C(=O)C1([H])N(C(=O)C([H])(N([H])C(=O)C([H])(N([H])C([H])([H])[H])C([H])([H])[H])C(C([H])([H])[H])(C([H])([H])[H])C([H])([H])[H])C([H])([H])c2c([H])c(Oc3c([H])c([H])c(OC([H])([H])[H])c(C(=O)C([H])([H])C([H])([H])C([H])([H])C([H])([H])C(=O)N4C([H])([H])C([H])([H])C([H])([H])C([H])(n5nc(-c6c([H])c([H])c(Oc7c([H])c([H])c(F)c([H])c7F)c([H])c6[H])c(C(=O)N([H])[H])c5N([H])[H])C4([H])[H])c3[H])c([H])c([H])c2C1([H])[H]

$$$$
13:0:0
     RDKit          3D

 93103  0  0  1  0  0  0  0  0999 V2000
  -29.0660  -22.2670   20.1860 C   0  0  0  0  0  3  0  0  0  0  0  0
  -28.1710  -22.0240   17.7120 C   0  0  0  0  0  3  0  0  0  0  0  0
  -28.9750  -20.7050   19.6910 C   0  0  0  0  0  0  0  0  0  0  0  0
  -28.3120  -20.8280   18.4730 C   0  0  0  0  0  0  0  0  0  0  0  0
  -28.7370  -23.7250   19.4970 C   0  0  0  0  0  0  0  0  0  0  0  0
  -28.4740  -23.3510   18.1450 C   0  0  0  0  0  0  0  0  0  0  0  0
  -26.4950  -18.7640   20.2310 C   0  0  0  0  0  2  0  0  0  0  0  0
  -25.3780  -18.9750   19.2100 C   0  0  0  0  0  2  0  0  0  0  0  0
  -27.5330  -19.5920   18.1690 C   0  0  0  0  0  3  0  0  0  0  0  0
  -29.1070  -18.8460   20.1940 C   0  0  0  0  0  3  0  0  0  0  0  0
  -27.7520  -18.6410   19.3700 C   0  0  0  0  0  3  0  0  0  0  0  0
  -26.0040  -19.8640   18.1240 C   0  0  0  0  0  3  0  0  0  0  0  0
  -25.3740  -19.6660   16.7380 C   0  0  0  0  0  1  0  0  0  0  0  0
  -28.5270  -24.2750   17.1670 F   0  0  0  0  0  0  0  0  0  0  0  0
  -30.1980  -15.6950   19.9400 C   0  0  0  0  0  0  0  0  0  0  0  0
  -30.3900  -13.1110   19.1750 C   0  0  0  0  0  2  0  0  0  0  0  0
  -29.4830  -12.5780   18.0280 C   0  0  0  0  0  2  0  0  0  0  0  0
  -28.0990  -12.1680   18.5550 C   0  0  0  0  0  2  0  0  0  0  0  0
  -27.5740  -13.1910   19.5860 C   0  0  0  0  0  3  0  0  0  0  0  0
  -28.6280  -13.6250   20.6340 C   0  0  0  0  0  2  0  0  0  0  0  0
  -29.7260  -14.2980   19.8910 N   0  0  0  0  0  0  0  0  0  0  0  0
  -31.4400  -15.6510   19.8330 O   0  0  0  0  0  0  0  0  0  0  0  0
  -29.3640  -17.0430   19.9170 N   0  0  0  0  0  0  0  0  0  0  0  0
  -28.4310  -16.6880   19.7770 H   0  0  0  0  0  0  0  0  0  0  0  0
  -25.2430  -13.6560   20.4690 C   0  0  0  0  0  0  0  0  0  0  0  0
  -24.2220  -12.8490   20.8840 C   0  0  0  0  0  0  0  0  0  0  0  0
  -24.7250  -11.5130   20.8260 C   0  0  0  0  0  0  0  0  0  0  0  0
  -26.2970  -12.8130   20.1740 N   0  0  0  0  0  0  0  0  0  0  0  0
  -26.0030  -11.5160   20.4540 N   0  0  0  0  0  0  0  0  0  0  0  0
  -24.0350  -10.2340   21.0430 C   0  0  0  0  0  0  0  0  0  0  0  0
  -24.4910   -9.3000   21.9990 C   0  0  0  0  0  3  0  0  0  0  0  0
  -23.7950   -8.0890   22.2060 C   0  0  0  0  0  3  0  0  0  0  0  0
  -22.6310   -7.8000   21.4550 C   0  0  0  0  0  0  0  0  0  0  0  0
  -22.1950   -8.7220   20.4860 C   0  0  0  0  0  3  0  0  0  0  0  0
  -22.8920   -9.9240   20.2780 C   0  0  0  0  0  3  0  0  0  0  0  0
  -21.9060   -6.6370   21.5680 O   0  0  0  0  0  0  0  0  0  0  0  0
  -21.7840   -5.9800   22.7660 C   0  0  0  0  0  0  0  0  0  0  0  0
  -21.2480   -6.6100   23.9100 C   0  0  0  0  0  3  0  0  0  0  0  0
  -21.0760   -5.8770   25.1010 C   0  0  0  0  0  3  0  0  0  0  0  0
  -21.4290   -4.5150   25.1480 C   0  0  0  0  0  0  0  0  0  0  0  0
  -21.9580   -3.8840   24.0080 C   0  0  0  0  0  3  0  0  0  0  0  0
  -22.1320   -4.6150   22.8200 C   0  0  0  0  0  0  0  0  0  0  0  0
  -22.6210   -3.9980   21.7180 F   0  0  0  0  0  0  0  0  0  0  0  0
  -21.2570   -3.8080   26.2900 F   0  0  0  0  0  0  0  0  0  0  0  0
  -22.8270  -13.2920   21.2100 C   0  0  0  0  0  0  0  0  0  0  0  0
  -22.1520  -12.5810   22.1060 N   0  0  0  0  0  0  0  0  0  0  0  0
  -22.3440  -14.3040   20.7030 O   0  0  0  0  0  0  0  0  0  0  0  0
  -22.5580  -11.7620   22.5350 H   0  0  0  0  0  0  0  0  0  0  0  0
  -21.2170  -12.8600   22.3680 H   0  0  0  0  0  0  0  0  0  0  0  0
  -25.3550  -15.0290   20.2830 N   0  0  0  0  0  0  0  0  0  0  0  0
  -24.5610  -15.6480   20.4070 H   0  0  0  0  0  0  0  0  0  0  0  0
  -26.1500  -15.4790   19.8540 H   0  0  0  0  0  0  0  0  0  0  0  0
  -28.7590  -25.3500   19.8430 O   0  0  0  0  0  0  0  0  0  0  0  0
  -25.0880  -31.5510   23.0540 C   0  0  0  0  0  0  0  0  0  0  0  0
  -27.7710  -26.5980   19.8510 C   0  0  0  0  0  0  0  0  0  0  0  0
  -23.9740  -30.2390   21.3070 C   0  0  0  0  0  3  0  0  0  0  0  0
  -25.4860  -28.6900   19.8550 C   0  0  0  0  0  0  0  0  0  0  0  0
  -26.5620  -30.3900   21.2810 C   0  0  0  0  0  2  0  0  0  0  0  0
  -26.6660  -28.9900   20.5430 C   0  0  0  0  0  0  0  0  0  0  0  0
  -27.7880  -27.9850   20.5030 C   0  0  0  0  0  3  0  0  0  0  0  0
  -26.5200  -26.5340   19.1700 C   0  0  0  0  0  3  0  0  0  0  0  0
  -25.4580  -27.4850   19.1500 C   0  0  0  0  0  3  0  0  0  0  0  0
  -24.2730  -29.6340   19.9080 C   0  0  0  0  0  2  0  0  0  0  0  0
  -25.2320  -30.7550   21.9370 N   0  0  0  0  0  0  0  0  0  0  0  0
  -23.9730  -31.8130   23.5380 O   0  0  0  0  0  0  0  0  0  0  0  0
  -23.2300  -29.2010   22.1930 C   0  0  0  0  0  0  0  0  0  0  0  0
  -21.8920  -29.0960   22.0680 N   0  0  0  0  0  0  0  0  0  0  0  0
  -23.8710  -28.4910   22.9710 O   0  0  0  0  0  0  0  0  0  0  0  0
  -21.4230  -29.7170   21.4240 H   0  0  0  0  0  0  0  0  0  0  0  0
  -18.4660  -28.0010   22.5860 C   0  0  0  0  0  0  0  0  0  0  0  0
  -21.0460  -28.1180   22.7660 C   0  0  0  0  0  3  0  0  0  0  0  0
  -21.0480  -26.7560   22.0320 C   0  0  0  0  0  2  0  0  0  0  0  0
  -19.8980  -26.6120   21.0290 C   0  0  0  0  0  2  0  0  0  0  0  0
  -18.5480  -26.7410   21.7370 C   0  0  0  0  0  2  0  0  0  0  0  0
  -19.6370  -28.6570   23.0520 C   0  0  0  0  0  0  0  0  0  0  0  0
  -19.5020  -29.8400   23.8090 C   0  0  0  0  0  3  0  0  0  0  0  0
  -18.2300  -30.3690   24.1010 C   0  0  0  0  0  3  0  0  0  0  0  0
  -17.0740  -29.7100   23.6460 C   0  0  0  0  0  3  0  0  0  0  0  0
  -17.1940  -28.5260   22.8980 C   0  0  0  0  0  3  0  0  0  0  0  0
  -26.3160  -32.1850   23.7750 C   0  0  0  0  0  3  0  0  0  0  0  0
  -25.9430  -33.5430   24.2200 N   0  0  0  0  0  0  0  0  0  0  0  0
  -26.2560  -34.6790   23.5810 C   0  0  0  0  0  0  0  0  0  0  0  0
  -26.9450  -34.6930   22.5580 O   0  0  0  0  0  0  0  0  0  0  0  0
  -25.3290  -33.6030   25.0180 H   0  0  0  0  0  0  0  0  0  0  0  0
  -24.4730  -36.4520   23.3960 C   0  0  0  0  0  1  0  0  0  0  0  0
  -25.7270  -36.0080   24.1650 C   0  0  0  0  0  3  0  0  0  0  0  0
  -27.8310  -36.8880   25.0780 C   0  0  0  0  0  1  0  0  0  0  0  0
  -26.7260  -37.1010   24.1500 N   0  0  0  0  0  0  0  0  0  0  0  0
  -26.2900  -37.9910   24.3740 H   0  0  0  0  0  0  0  0  0  0  0  0
  -26.8030  -31.3340   25.0140 C   0  0  1  0  0  0  0  0  0  0  0  0
  -25.6830  -31.0070   26.0310 C   0  0  0  0  0  1  0  0  0  0  0  0
  -27.4220  -29.9940   24.5600 C   0  0  0  0  0  1  0  0  0  0  0  0
  -27.9210  -32.0980   25.7640 C   0  0  0  0  0  1  0  0  0  0  0  0
  2  6  2  0
  2  4  1  0
  3  1  1  0
  3 10  1  0
  4  3  2  0
  5 53  1  0
  5  1  2  0
  6  5  1  0
  8  7  1  0
  9  4  1  0
  9 11  1  0
 10 23  1  0
 11 10  1  0
 11  7  1  0
 12 13  1  0
 12  9  1  0
 12  8  1  0
 14  6  1  0
 16 21  1  0
 17 18  1  0
 17 16  1  0
 19 18  1  0
 19 28  1  0
 19 20  1  0
 21 15  1  0
 21 20  1  0
 22 15  2  0
 23 15  1  0
 24 23  1  0
 25 26  2  0
 26 45  1  0
 27 26  1  0
 27 30  1  0
 28 29  1  0
 28 25  1  0
 29 27  2  0
 30 31  1  0
 31 32  2  0
 33 36  1  0
 33 32  1  0
 34 33  2  0
 35 34  1  0
 35 30  2  0
 36 37  1  0
 37 42  2  0
 37 38  1  0
 38 39  2  0
 39 40  1  0
 40 44  1  0
 41 40  2  0
 42 41  1  0
 43 42  1  0
 45 46  1  0
 46 49  1  0
 46 48  1  0
 47 45  2  0
 50 51  1  0
 50 25  1  0
 52 50  1  0
 53 55  1  0
 54 65  2  0
 55 60  1  0
 56 64  1  0
 56 66  1  0
 57 63  1  0
 57 59  1  0
 58 64  1  0
 59 58  1  0
 60 59  2  0
 61 55  2  0
 62 61  1  0
 62 57  2  0
 63 56  1  0
 64 54  1  0
 66 68  2  0
 67 66  1  0
 69 67  1  0
 70 79  2  0
 70 75  1  0
 71 67  1  0
 71 75  1  0
 72 71  1  0
 73 74  1  0
 73 72  1  0
 74 70  1  0
 75 76  2  0
 76 77  1  0
 78 77  2  0
 79 78  1  0
 80 54  1  0
 80 81  1  0
 80 90  1  0
 81 84  1  0
 82 86  1  0
 82 81  1  0
 83 82  2  0
 86 85  1  0
 88 86  1  0
 88 89  1  0
 88 87  1  0
 90 93  1  1
 90 91  1  0
 92 90  1  0
M  ISO  4   5 101  15 100  23 100  53 101
M  END
>  <TORSDO>  (14) 
F 16

>  <SCORE>  (14) 
-13.015

>  <name>  (14) 
13

>  <ligand_id>  (14) 
13

>  <original_smiles>  (14) 
[H]c1c([H])c([H])c2c(c1[H])C([H])([H])C([H])([H])C([H])([H])C2([H])N([H])C(=O)C1([H])N(C(=O)C([H])(N([H])C(=O)C([H])(N([H])C([H])([H])[H])C([H])([H])[H])C(C([H])([H])[H])(C([H])([H])[H])C([H])([H])[H])C([H])([H])c2c([H])c(Oc3c([H])c4c(c([H])c3F)C3([H])C([H])(C([H])([H])[H])C([H])([H])C([H])([H])C3([H])C4([H])N([H])C(=O)N3C([H])([H])C([H])([H])C([H])([H])C([H])(n4nc(-c5c([H])c([H])c(Oc6c([H])c([H])c(F)c([H])c6F)c([H])c5[H])c(C(=O)N([H])[H])c4N([H])[H])C3([H])[H])c([H])c([H])c2C1([H])[H]

>  <smiles>  (14) 
[H]c1c([H])c([H])c2c(c1[H])C([H])([H])C([H])([H])C([H])([H])C2([H])N([H])C(=O)C1([H])N(C(=O)C([H])(N([H])C(=O)C([H])(N([H])C([H])([H])[H])C([H])([H])[H])C(C([H])([H])[H])(C([H])([H])[H])C([H])([H])[H])C([H])([H])c2c([H])c(Oc3c([H])c4c(c([H])c3F)C3([H])C([H])(C([H])([H])[H])C([H])([H])C([H])([H])C3([H])C4([H])N([H])C(=O)N3C([H])([H])C([H])([H])C([H])([H])C([H])(n4nc(-c5c([H])c([H])c(Oc6c([H])c([H])c(F)c([H])c6F)c([H])c5[H])c(C(=O)N([H])[H])c4N([H])[H])C3([H])[H])c([H])c([H])c2C1([H])[H]

$$$$
14:0:0
     RDKit          3D

 90 98  0  0  1  0  0  0  0  0999 V2000
  -28.7080  -22.6150   19.1320 C   0  0  0  0  0  3  0  0  0  0  0  0
  -28.3870  -24.0300   19.0980 C   0  0  0  0  0  3  0  0  0  0  0  0
  -28.6450  -24.1360   21.4390 C   0  0  0  0  0  3  0  0  0  0  0  0
  -29.0520  -21.8810   20.3160 C   0  0  0  0  0  0  0  0  0  0  0  0
  -28.9690  -22.7170   21.4830 C   0  0  0  0  0  0  0  0  0  0  0  0
  -28.3640  -24.8840   20.2460 C   0  0  0  0  0  0  0  0  0  0  0  0
  -29.3300  -22.1100   22.8300 C   0  0  0  0  0  1  0  0  0  0  0  0
  -28.3440  -26.3430   20.1830 O   0  0  0  0  0  0  0  0  0  0  0  0
  -24.6590  -31.9020   23.2220 C   0  0  0  0  0  0  0  0  0  0  0  0
  -27.2270  -27.2320   20.1730 C   0  0  0  0  0  0  0  0  0  0  0  0
  -23.4510  -30.5200   21.5750 C   0  0  0  0  0  3  0  0  0  0  0  0
  -24.8910  -28.9420   20.1440 C   0  0  0  0  0  0  0  0  0  0  0  0
  -25.9980  -30.7900   21.4030 C   0  0  0  0  0  2  0  0  0  0  0  0
  -26.0650  -29.4000   20.7530 C   0  0  0  0  0  0  0  0  0  0  0  0
  -27.2330  -28.5570   20.7530 C   0  0  0  0  0  3  0  0  0  0  0  0
  -26.0300  -26.8540   19.5320 C   0  0  0  0  0  3  0  0  0  0  0  0
  -24.8820  -27.6810   19.5210 C   0  0  0  0  0  3  0  0  0  0  0  0
  -23.6660  -29.8420   20.1930 C   0  0  0  0  0  2  0  0  0  0  0  0
  -24.7220  -31.0910   22.1230 N   0  0  0  0  0  0  0  0  0  0  0  0
  -23.5760  -32.1870   23.7540 O   0  0  0  0  0  0  0  0  0  0  0  0
  -22.7710  -29.5110   22.5330 C   0  0  0  0  0  0  0  0  0  0  0  0
  -21.4430  -29.3480   22.4080 N   0  0  0  0  0  0  0  0  0  0  0  0
  -23.4420  -28.8750   23.3510 O   0  0  0  0  0  0  0  0  0  0  0  0
  -20.9580  -29.9110   21.7230 H   0  0  0  0  0  0  0  0  0  0  0  0
  -18.0540  -28.1820   22.9220 C   0  0  0  0  0  0  0  0  0  0  0  0
  -20.6180  -28.4130   23.1770 C   0  0  0  0  0  3  0  0  0  0  0  0
  -20.7000  -26.9870   22.5860 C   0  0  0  0  0  2  0  0  0  0  0  0
  -19.5880  -26.6860   21.5760 C   0  0  0  0  0  2  0  0  0  0  0  0
  -18.2110  -26.8390   22.2280 C   0  0  0  0  0  2  0  0  0  0  0  0
  -19.1830  -28.9280   23.3530 C   0  0  0  0  0  0  0  0  0  0  0  0
  -18.9800  -30.1840   23.9640 C   0  0  0  0  0  3  0  0  0  0  0  0
  -17.6820  -30.6950   24.1450 C   0  0  0  0  0  3  0  0  0  0  0  0
  -16.5670  -29.9470   23.7280 C   0  0  0  0  0  3  0  0  0  0  0  0
  -16.7550  -28.6920   23.1230 C   0  0  0  0  0  3  0  0  0  0  0  0
  -25.9430  -32.5260   23.8520 C   0  0  0  0  0  3  0  0  0  0  0  0
  -26.4560  -31.7390   25.1200 C   0  0  1  0  0  0  0  0  0  0  0  0
  -25.3610  -31.5020   26.1870 C   0  0  0  0  0  1  0  0  0  0  0  0
  -27.0270  -30.3600   24.7150 C   0  0  0  0  0  1  0  0  0  0  0  0
  -27.6120  -32.5180   25.7900 C   0  0  0  0  0  1  0  0  0  0  0  0
  -25.6370  -33.9210   24.2060 N   0  0  0  0  0  0  0  0  0  0  0  0
  -25.9380  -34.9830   23.4470 C   0  0  0  0  0  0  0  0  0  0  0  0
  -26.5670  -34.8900   22.3900 O   0  0  0  0  0  0  0  0  0  0  0  0
  -25.0770  -34.0640   25.0340 H   0  0  0  0  0  0  0  0  0  0  0  0
  -24.1750  -36.7590   23.1930 C   0  0  0  0  0  1  0  0  0  0  0  0
  -25.4630  -36.3670   23.9350 C   0  0  0  0  0  3  0  0  0  0  0  0
  -27.6320  -37.2740   24.6520 C   0  0  0  0  0  1  0  0  0  0  0  0
  -26.4780  -37.4320   23.7670 N   0  0  0  0  0  0  0  0  0  0  0  0
  -26.0720  -38.3470   23.9370 H   0  0  0  0  0  0  0  0  0  0  0  0
  -29.7980  -20.4190   20.2630 C   0  0  0  0  0  3  0  0  0  0  0  0
  -29.2230  -18.8730   20.4640 C   0  0  0  0  0  3  0  0  0  0  0  0
  -31.3370  -17.7690   21.5260 C   0  0  0  0  0  1  0  0  0  0  0  0
  -30.2740  -17.5720   20.4260 C   0  0  0  0  0  3  0  0  0  0  0  0
  -30.5670  -14.8950   20.2430 C   0  0  0  0  0  0  0  0  0  0  0  0
  -30.3800  -12.5880   19.2570 C   0  0  0  0  0  2  0  0  0  0  0  0
  -29.4310  -12.6210   18.0380 C   0  0  0  0  0  2  0  0  0  0  0  0
  -27.9670  -12.4390   18.4830 C   0  0  0  0  0  2  0  0  0  0  0  0
  -27.5980  -13.3230   19.7040 C   0  0  0  0  0  3  0  0  0  0  0  0
  -28.6720  -13.2800   20.8120 C   0  0  0  0  0  2  0  0  0  0  0  0
  -29.9450  -13.6590   20.1920 N   0  0  0  0  0  0  0  0  0  0  0  0
  -31.7530  -14.9570   19.9040 O   0  0  0  0  0  0  0  0  0  0  0  0
  -29.8270  -16.0740   20.4750 N   0  0  0  0  0  0  0  0  0  0  0  0
  -28.8500  -15.9200   20.6760 H   0  0  0  0  0  0  0  0  0  0  0  0
  -25.2240  -13.8890   20.4820 C   0  0  0  0  0  0  0  0  0  0  0  0
  -24.1670  -13.1070   20.8570 C   0  0  0  0  0  0  0  0  0  0  0  0
  -24.6340  -11.7590   20.8040 C   0  0  0  0  0  0  0  0  0  0  0  0
  -26.2660  -13.0170   20.2170 N   0  0  0  0  0  0  0  0  0  0  0  0
  -25.9200  -11.7290   20.4740 N   0  0  0  0  0  0  0  0  0  0  0  0
  -23.9110  -10.4910   20.9880 C   0  0  0  0  0  0  0  0  0  0  0  0
  -24.3370   -9.5260   21.9260 C   0  0  0  0  0  3  0  0  0  0  0  0
  -23.6120   -8.3280   22.1020 C   0  0  0  0  0  3  0  0  0  0  0  0
  -22.4460   -8.0860   21.3370 C   0  0  0  0  0  0  0  0  0  0  0  0
  -22.0400   -9.0400   20.3860 C   0  0  0  0  0  3  0  0  0  0  0  0
  -22.7670  -10.2280   20.2100 C   0  0  0  0  0  3  0  0  0  0  0  0
  -21.6930   -6.9390   21.4190 O   0  0  0  0  0  0  0  0  0  0  0  0
  -21.6080   -6.2160   22.5820 C   0  0  0  0  0  0  0  0  0  0  0  0
  -21.1190   -6.7840   23.7790 C   0  0  0  0  0  3  0  0  0  0  0  0
  -20.9790   -5.9860   24.9320 C   0  0  0  0  0  3  0  0  0  0  0  0
  -21.3230   -4.6210   24.8910 C   0  0  0  0  0  0  0  0  0  0  0  0
  -21.8060   -4.0530   23.6990 C   0  0  0  0  0  3  0  0  0  0  0  0
  -21.9460   -4.8480   22.5480 C   0  0  0  0  0  0  0  0  0  0  0  0
  -22.3910   -4.2890   21.3960 F   0  0  0  0  0  0  0  0  0  0  0  0
  -21.1840   -3.8540   25.9970 F   0  0  0  0  0  0  0  0  0  0  0  0
  -22.7730  -13.5780   21.1540 C   0  0  0  0  0  0  0  0  0  0  0  0
  -22.0590  -12.8750   22.0250 N   0  0  0  0  0  0  0  0  0  0  0  0
  -22.3280  -14.6080   20.6500 O   0  0  0  0  0  0  0  0  0  0  0  0
  -22.4300  -12.0420   22.4570 H   0  0  0  0  0  0  0  0  0  0  0  0
  -21.1260  -13.1780   22.2670 H   0  0  0  0  0  0  0  0  0  0  0  0
  -25.3820  -15.2630   20.3220 N   0  0  0  0  0  0  0  0  0  0  0  0
  -24.6170  -15.9140   20.4670 H   0  0  0  0  0  0  0  0  0  0  0  0
  -26.2210  -15.7130   19.9790 H   0  0  0  0  0  0  0  0  0  0  0  0
  1  4  1  0
  2  1  2  0
  2  6  1  0
  3  5  1  0
  4  5  2  0
  5  7  1  0
  6  3  2  0
  8  6  1  0
  9 20  2  0
 10  8  1  0
 10 15  1  0
 11 19  1  0
 11 21  1  0
 12 18  1  0
 12 14  1  0
 13 19  1  0
 14 15  2  0
 14 13  1  0
 16 10  2  0
 17 16  1  0
 17 12  2  0
 18 11  1  0
 19  9  1  0
 21 23  2  0
 22 21  1  0
 24 22  1  0
 25 34  2  0
 25 30  1  0
 26 22  1  0
 26 30  1  0
 27 26  1  0
 28 29  1  0
 28 27  1  0
 29 25  1  0
 30 31  2  0
 31 32  1  0
 33 32  2  0
 34 33  1  0
 35  9  1  0
 35 40  1  0
 35 36  1  0
 36 39  1  1
 36 37  1  0
 38 36  1  0
 40 43  1  0
 41 45  1  0
 41 40  1  0
 42 41  2  0
 45 44  1  0
 47 45  1  0
 47 48  1  0
 47 46  1  0
 49  4  1  0
 49 50  2  0
 52 50  1  0
 52 61  1  0
 52 51  1  0
 53 61  1  0
 54 59  1  0
 55 56  1  0
 55 54  1  0
 57 56  1  0
 57 66  1  0
 57 58  1  0
 59 53  1  0
 59 58  1  0
 60 53  2  0
 61 62  1  0
 63 64  2  0
 64 83  1  0
 65 64  1  0
 65 68  1  0
 66 67  1  0
 66 63  1  0
 67 65  2  0
 68 69  1  0
 69 70  2  0
 71 74  1  0
 71 70  1  0
 72 71  2  0
 73 72  1  0
 73 68  2  0
 74 75  1  0
 75 76  1  0
 76 77  2  0
 78 77  1  0
 78 82  1  0
 79 78  2  0
 80 75  2  0
 80 79  1  0
 81 80  1  0
 83 84  1  0
 84 87  1  0
 84 86  1  0
 85 83  2  0
 88 89  1  0
 88 63  1  0
 90 88  1  0
M  ISO  4   6 101   8 101  53 100  61 100
M  END
>  <TORSDO>  (15) 
F 19

>  <SCORE>  (15) 
-14.346

>  <name>  (15) 
14

>  <ligand_id>  (15) 
14

>  <original_smiles>  (15) 
[H]c1c([H])c([H])c2c(c1[H])C([H])([H])C([H])([H])C([H])([H])C2([H])N([H])C(=O)C1([H])N(C(=O)C([H])(N([H])C(=O)C([H])(N([H])C([H])([H])[H])C([H])([H])[H])C(C([H])([H])[H])(C([H])([H])[H])C([H])([H])[H])C([H])([H])c2c([H])c(Oc3c([H])c([H])c(C([H])([H])C([H])([H])C([H])(N([H])C(=O)N4C([H])([H])C([H])([H])C([H])([H])C([H])(n5nc(-c6c([H])c([H])c(Oc7c([H])c([H])c(F)c([H])c7F)c([H])c6[H])c(C(=O)N([H])[H])c5N([H])[H])C4([H])[H])C([H])([H])[H])c(C([H])([H])[H])c3[H])c([H])c([H])c2C1([H])[H]

>  <smiles>  (15) 
[H]c1c([H])c([H])c2c(c1[H])C([H])([H])C([H])([H])C([H])([H])C2([H])N([H])C(=O)C1([H])N(C(=O)C([H])(N([H])C(=O)C([H])(N([H])C([H])([H])[H])C([H])([H])[H])C(C([H])([H])[H])(C([H])([H])[H])C([H])([H])[H])C([H])([H])c2c([H])c(Oc3c([H])c([H])c(C([H])([H])C([H])([H])C([H])(N([H])C(=O)N4C([H])([H])C([H])([H])C([H])([H])C([H])(n5nc(-c6c([H])c([H])c(Oc7c([H])c([H])c(F)c([H])c7F)c([H])c6[H])c(C(=O)N([H])[H])c5N([H])[H])C4([H])[H])C([H])([H])[H])c(C([H])([H])[H])c3[H])c([H])c([H])c2C1([H])[H]

$$$$
15:0:0
     RDKit          3D

 90 98  0  0  1  0  0  0  0  0999 V2000
  -29.5260  -22.1440   20.7990 C   0  0  0  0  0  3  0  0  0  0  0  0
  -29.3470  -23.6220   20.8310 C   0  0  0  0  0  3  0  0  0  0  0  0
  -27.4730  -23.4570   19.5350 C   0  0  0  0  0  3  0  0  0  0  0  0
  -28.6910  -21.1580   20.1280 C   0  0  0  0  0  0  0  0  0  0  0  0
  -28.3000  -24.4380   20.2180 C   0  0  0  0  0  0  0  0  0  0  0  0
  -27.6320  -21.9640   19.4900 C   0  0  0  0  0  0  0  0  0  0  0  0
  -28.7230  -19.4300   20.1580 C   0  0  0  0  0  0  0  0  0  0  0  0
  -27.6090  -18.8990   20.1310 O   0  0  0  0  0  0  0  0  0  0  0  0
  -29.9160  -18.1810   20.1940 C   0  0  0  0  0  2  0  0  0  0  0  0
  -30.4400  -15.2940   20.1720 C   0  0  0  0  0  0  0  0  0  0  0  0
  -30.4130  -12.8590   19.3010 C   0  0  0  0  0  2  0  0  0  0  0  0
  -29.4680  -12.6630   18.0920 C   0  0  0  0  0  2  0  0  0  0  0  0
  -28.0270  -12.3930   18.5610 C   0  0  0  0  0  2  0  0  0  0  0  0
  -27.5980  -13.3500   19.7040 C   0  0  0  0  0  3  0  0  0  0  0  0
  -28.6710  -13.4930   20.8040 C   0  0  0  0  0  2  0  0  0  0  0  0
  -29.8850  -13.9890   20.1430 N   0  0  0  0  0  0  0  0  0  0  0  0
  -31.6520  -15.3180   19.9200 O   0  0  0  0  0  0  0  0  0  0  0  0
  -29.6570  -16.5390   20.2820 N   0  0  0  0  0  0  0  0  0  0  0  0
  -28.6780  -16.3430   20.4310 H   0  0  0  0  0  0  0  0  0  0  0  0
  -25.2530  -13.9000   20.5400 C   0  0  0  0  0  0  0  0  0  0  0  0
  -24.2000  -13.1170   20.9240 C   0  0  0  0  0  0  0  0  0  0  0  0
  -24.6620  -11.7670   20.8470 C   0  0  0  0  0  0  0  0  0  0  0  0
  -26.2840  -13.0280   20.2450 N   0  0  0  0  0  0  0  0  0  0  0  0
  -25.9450  -11.7370   20.4990 N   0  0  0  0  0  0  0  0  0  0  0  0
  -23.9360  -10.5020   21.0260 C   0  0  0  0  0  0  0  0  0  0  0  0
  -24.3740   -9.5200   21.9420 C   0  0  0  0  0  3  0  0  0  0  0  0
  -23.6420   -8.3230   22.1110 C   0  0  0  0  0  3  0  0  0  0  0  0
  -22.4620   -8.0990   21.3630 C   0  0  0  0  0  0  0  0  0  0  0  0
  -22.0450   -9.0690   20.4340 C   0  0  0  0  0  3  0  0  0  0  0  0
  -22.7750  -10.2570   20.2640 C   0  0  0  0  0  3  0  0  0  0  0  0
  -21.7040   -6.9560   21.4410 O   0  0  0  0  0  0  0  0  0  0  0  0
  -21.6380   -6.2140   22.5930 C   0  0  0  0  0  0  0  0  0  0  0  0
  -21.1790   -6.7630   23.8100 C   0  0  0  0  0  3  0  0  0  0  0  0
  -21.0650   -5.9460   24.9520 C   0  0  0  0  0  3  0  0  0  0  0  0
  -21.3970   -4.5800   24.8790 C   0  0  0  0  0  0  0  0  0  0  0  0
  -21.8490   -4.0300   23.6670 C   0  0  0  0  0  3  0  0  0  0  0  0
  -21.9660   -4.8430   22.5260 C   0  0  0  0  0  0  0  0  0  0  0  0
  -22.3830   -4.3040   21.3550 F   0  0  0  0  0  0  0  0  0  0  0  0
  -21.2790   -3.7930   25.9750 F   0  0  0  0  0  0  0  0  0  0  0  0
  -22.8120  -13.5920   21.2400 C   0  0  0  0  0  0  0  0  0  0  0  0
  -22.1040  -12.8840   22.1120 N   0  0  0  0  0  0  0  0  0  0  0  0
  -22.3650  -14.6270   20.7480 O   0  0  0  0  0  0  0  0  0  0  0  0
  -22.4800  -12.0480   22.5350 H   0  0  0  0  0  0  0  0  0  0  0  0
  -21.1720  -13.1810   22.3620 H   0  0  0  0  0  0  0  0  0  0  0  0
  -25.4100  -15.2750   20.3860 N   0  0  0  0  0  0  0  0  0  0  0  0
  -24.6390  -15.9200   20.5220 H   0  0  0  0  0  0  0  0  0  0  0  0
  -26.2290  -15.7190   19.9920 H   0  0  0  0  0  0  0  0  0  0  0  0
  -25.6080  -21.8380   18.1450 C   0  0  0  0  0  1  0  0  0  0  0  0
  -26.7230  -21.2080   18.7710 O   0  0  0  0  0  0  0  0  0  0  0  0
  -28.2650  -25.9750   20.2370 O   0  0  0  0  0  0  0  0  0  0  0  0
  -24.6820  -31.8840   23.2600 C   0  0  0  0  0  0  0  0  0  0  0  0
  -27.2060  -27.0160   20.2230 C   0  0  0  0  0  0  0  0  0  0  0  0
  -23.4770  -30.4990   21.6210 C   0  0  0  0  0  3  0  0  0  0  0  0
  -24.9110  -28.8890   20.1930 C   0  0  0  0  0  0  0  0  0  0  0  0
  -26.0430  -30.6980   21.4720 C   0  0  0  0  0  2  0  0  0  0  0  0
  -26.1000  -29.2910   20.8160 C   0  0  0  0  0  0  0  0  0  0  0  0
  -27.2380  -28.3720   20.8090 C   0  0  0  0  0  3  0  0  0  0  0  0
  -25.9910  -26.7640   19.5490 C   0  0  0  0  0  3  0  0  0  0  0  0
  -24.8790  -27.6450   19.5450 C   0  0  0  0  0  3  0  0  0  0  0  0
  -23.6990  -29.8160   20.2430 C   0  0  0  0  0  2  0  0  0  0  0  0
  -24.7570  -31.0540   22.1700 N   0  0  0  0  0  0  0  0  0  0  0  0
  -23.5940  -32.1780   23.7840 O   0  0  0  0  0  0  0  0  0  0  0  0
  -22.7830  -29.5020   22.5850 C   0  0  0  0  0  0  0  0  0  0  0  0
  -21.4510  -29.3450   22.4610 N   0  0  0  0  0  0  0  0  0  0  0  0
  -23.4470  -28.8710   23.4100 O   0  0  0  0  0  0  0  0  0  0  0  0
  -20.9690  -29.9060   21.7710 H   0  0  0  0  0  0  0  0  0  0  0  0
  -18.0610  -28.1640   22.9830 C   0  0  0  0  0  0  0  0  0  0  0  0
  -20.6240  -28.4090   23.2300 C   0  0  0  0  0  3  0  0  0  0  0  0
  -20.7100  -26.9790   22.6470 C   0  0  0  0  0  2  0  0  0  0  0  0
  -19.5990  -26.6720   21.6380 C   0  0  0  0  0  2  0  0  0  0  0  0
  -18.2240  -26.8200   22.2930 C   0  0  0  0  0  2  0  0  0  0  0  0
  -19.1870  -28.9170   23.4090 C   0  0  0  0  0  0  0  0  0  0  0  0
  -18.9790  -30.1740   24.0190 C   0  0  0  0  0  3  0  0  0  0  0  0
  -17.6780  -30.6780   24.2030 C   0  0  0  0  0  3  0  0  0  0  0  0
  -16.5670  -29.9240   23.7900 C   0  0  0  0  0  3  0  0  0  0  0  0
  -16.7580  -28.6680   23.1860 C   0  0  0  0  0  3  0  0  0  0  0  0
  -25.9580  -32.5180   23.8930 C   0  0  0  0  0  3  0  0  0  0  0  0
  -26.4550  -31.7530   25.1830 C   0  0  1  0  0  0  0  0  0  0  0  0
  -25.3500  -31.5340   26.2430 C   0  0  0  0  0  1  0  0  0  0  0  0
  -27.0300  -30.3660   24.8160 C   0  0  0  0  0  1  0  0  0  0  0  0
  -27.6070  -32.5430   25.8490 C   0  0  0  0  0  1  0  0  0  0  0  0
  -25.6500  -33.9210   24.2250 N   0  0  0  0  0  0  0  0  0  0  0  0
  -25.9670  -34.9770   23.4640 C   0  0  0  0  0  0  0  0  0  0  0  0
  -26.6130  -34.8730   22.4180 O   0  0  0  0  0  0  0  0  0  0  0  0
  -25.0690  -34.0740   25.0360 H   0  0  0  0  0  0  0  0  0  0  0  0
  -24.2250  -36.7710   23.1730 C   0  0  0  0  0  1  0  0  0  0  0  0
  -25.4970  -36.3690   23.9350 C   0  0  0  0  0  3  0  0  0  0  0  0
  -27.6580  -37.2650   24.6830 C   0  0  0  0  0  1  0  0  0  0  0  0
  -26.5220  -37.4240   23.7790 N   0  0  0  0  0  0  0  0  0  0  0  0
  -26.1200  -38.3440   23.9340 H   0  0  0  0  0  0  0  0  0  0  0  0
  1  2  1  0
  3  5  1  0
  4  7  1  0
  4  1  2  0
  5 50  1  0
  5  2  2  0
  6  3  2  0
  6  4  1  0
  7  9  1  0
  8  7  2  0
  9 18  1  0
 10 18  1  0
 11 16  1  0
 12 13  1  0
 12 11  1  0
 14 13  1  0
 14 23  1  0
 14 15  1  0
 16 10  1  0
 16 15  1  0
 17 10  2  0
 18 19  1  0
 20 21  2  0
 21 40  1  0
 22 21  1  0
 22 25  1  0
 23 24  1  0
 23 20  1  0
 24 22  2  0
 25 26  1  0
 26 27  2  0
 28 31  1  0
 28 27  1  0
 29 28  2  0
 30 29  1  0
 30 25  2  0
 31 32  1  0
 32 33  1  0
 33 34  2  0
 35 34  1  0
 35 39  1  0
 36 35  2  0
 37 32  2  0
 37 36  1  0
 38 37  1  0
 40 41  1  0
 41 44  1  0
 41 43  1  0
 42 40  2  0
 45 46  1  0
 45 20  1  0
 47 45  1  0
 48 49  1  0
 49  6  1  0
 51 62  2  0
 52 50  1  0
 52 57  1  0
 53 61  1  0
 53 63  1  0
 54 60  1  0
 54 56  1  0
 55 61  1  0
 56 55  1  0
 57 56  2  0
 58 52  2  0
 59 58  1  0
 59 54  2  0
 60 53  1  0
 61 51  1  0
 63 65  2  0
 64 63  1  0
 66 64  1  0
 67 76  2  0
 67 72  1  0
 68 64  1  0
 68 72  1  0
 69 68  1  0
 70 71  1  0
 70 69  1  0
 71 67  1  0
 72 73  2  0
 73 74  1  0
 75 74  2  0
 76 75  1  0
 77 51  1  0
 77 82  1  0
 77 78  1  0
 78 81  1  1
 78 79  1  0
 80 78  1  0
 82 85  1  0
 83 87  1  0
 83 82  1  0
 84 83  2  0
 87 86  1  0
 89 90  1  0
 89 87  1  0
 89 88  1  0
M  ISO  4   5 101  10 100  18 100  50 101
M  END
>  <TORSDO>  (16) 
F 19

>  <SCORE>  (16) 
-15.424

>  <name>  (16) 
15

>  <ligand_id>  (16) 
15

>  <original_smiles>  (16) 
[H]c1c([H])c([H])c2c(c1[H])C([H])([H])C([H])([H])C([H])([H])C2([H])N([H])C(=O)C1([H])N(C(=O)C([H])(N([H])C(=O)C([H])(N([H])C([H])([H])[H])C([H])([H])[H])C(C([H])([H])[H])(C([H])([H])[H])C([H])([H])[H])C([H])([H])c2c([H])c(Oc3c([H])c([H])c(C(=O)C([H])([H])N([H])C(=O)N4C([H])([H])C([H])([H])C([H])([H])C([H])(n5nc(-c6c([H])c([H])c(Oc7c([H])c([H])c(F)c([H])c7F)c([H])c6[H])c(C(=O)N([H])[H])c5N([H])[H])C4([H])[H])c(OC([H])([H])[H])c3[H])c([H])c([H])c2C1([H])[H]

>  <smiles>  (16) 
[H]c1c([H])c([H])c2c(c1[H])C([H])([H])C([H])([H])C([H])([H])C2([H])N([H])C(=O)C1([H])N(C(=O)C([H])(N([H])C(=O)C([H])(N([H])C([H])([H])[H])C([H])([H])[H])C(C([H])([H])[H])(C([H])([H])[H])C([H])([H])[H])C([H])([H])c2c([H])c(Oc3c([H])c([H])c(C(=O)C([H])([H])N([H])C(=O)N4C([H])([H])C([H])([H])C([H])([H])C([H])(n5nc(-c6c([H])c([H])c(Oc7c([H])c([H])c(F)c([H])c7F)c([H])c6[H])c(C(=O)N([H])[H])c5N([H])[H])C4([H])[H])c(OC([H])([H])[H])c3[H])c([H])c([H])c2C1([H])[H]

$$$$
16:0:0
     RDKit          3D

 95103  0  0  1  0  0  0  0  0999 V2000
  -30.5540  -19.2550   22.8290 C   0  0  0  0  0  3  0  0  0  0  0  0
  -30.5970  -18.2000   21.9030 C   0  0  0  0  0  3  0  0  0  0  0  0
  -30.1940  -20.5650   22.4390 C   0  0  0  0  0  0  0  0  0  0  0  0
  -30.3010  -18.4160   20.5410 C   0  0  0  0  0  0  0  0  0  0  0  0
  -29.9100  -20.8220   21.0680 C   0  0  0  0  0  0  0  0  0  0  0  0
  -29.9810  -19.7480   20.1350 C   0  0  0  0  0  0  0  0  0  0  0  0
  -29.7260  -20.0270   18.8360 F   0  0  0  0  0  0  0  0  0  0  0  0
  -30.6040  -21.2900   24.9000 C   0  0  0  0  0  1  0  0  0  0  0  0
  -30.1250  -21.6770   23.4910 C   0  0  0  0  0  2  0  0  0  0  0  0
  -29.5200  -17.2890   18.3160 C   0  0  0  0  0  1  0  0  0  0  0  0
  -30.4140  -17.2110   19.5730 C   0  0  0  0  0  3  0  0  0  0  0  0
  -30.9820  -14.8130   20.0140 C   0  0  0  0  0  0  0  0  0  0  0  0
  -30.6890  -12.5720   19.0580 C   0  0  0  0  0  2  0  0  0  0  0  0
  -29.7210  -12.7010   17.8630 C   0  0  0  0  0  2  0  0  0  0  0  0
  -28.2570  -12.5800   18.3340 C   0  0  0  0  0  2  0  0  0  0  0  0
  -27.9390  -13.4860   19.5530 C   0  0  0  0  0  3  0  0  0  0  0  0
  -29.0250  -13.3580   20.6480 C   0  0  0  0  0  2  0  0  0  0  0  0
  -30.3330  -13.6200   20.0260 N   0  0  0  0  0  0  0  0  0  0  0  0
  -32.1300  -14.9440   19.5860 O   0  0  0  0  0  0  0  0  0  0  0  0
  -30.1940  -15.8910   20.2050 N   0  0  0  0  0  0  0  0  0  0  0  0
  -29.2700  -15.7100   20.5620 H   0  0  0  0  0  0  0  0  0  0  0  0
  -25.6010  -14.1220   20.4150 C   0  0  0  0  0  0  0  0  0  0  0  0
  -24.5270  -13.3600   20.7900 C   0  0  0  0  0  0  0  0  0  0  0  0
  -24.9410  -12.0000   20.6590 C   0  0  0  0  0  0  0  0  0  0  0  0
  -26.6030  -13.2240   20.0820 N   0  0  0  0  0  0  0  0  0  0  0  0
  -26.2130  -11.9400   20.2860 N   0  0  0  0  0  0  0  0  0  0  0  0
  -24.1840  -10.7500   20.8090 C   0  0  0  0  0  0  0  0  0  0  0  0
  -24.5970   -9.7400   21.7060 C   0  0  0  0  0  3  0  0  0  0  0  0
  -23.8430   -8.5550   21.8460 C   0  0  0  0  0  3  0  0  0  0  0  0
  -22.6610   -8.3730   21.0900 C   0  0  0  0  0  0  0  0  0  0  0  0
  -22.2660   -9.3700   20.1810 C   0  0  0  0  0  3  0  0  0  0  0  0
  -23.0210  -10.5470   20.0390 C   0  0  0  0  0  3  0  0  0  0  0  0
  -21.8790   -7.2440   21.1420 O   0  0  0  0  0  0  0  0  0  0  0  0
  -21.7760   -6.4920   22.2840 C   0  0  0  0  0  0  0  0  0  0  0  0
  -21.2980   -7.0380   23.4950 C   0  0  0  0  0  3  0  0  0  0  0  0
  -21.1420   -6.2110   24.6260 C   0  0  0  0  0  3  0  0  0  0  0  0
  -21.4540   -4.8420   24.5460 C   0  0  0  0  0  0  0  0  0  0  0  0
  -21.9240   -4.2940   23.3390 C   0  0  0  0  0  3  0  0  0  0  0  0
  -22.0810   -5.1170   22.2110 C   0  0  0  0  0  0  0  0  0  0  0  0
  -22.5150   -4.5820   21.0440 F   0  0  0  0  0  0  0  0  0  0  0  0
  -21.2970   -4.0460   25.6310 F   0  0  0  0  0  0  0  0  0  0  0  0
  -23.1590  -13.8610   21.1590 C   0  0  0  0  0  0  0  0  0  0  0  0
  -22.4500  -13.1330   22.0140 N   0  0  0  0  0  0  0  0  0  0  0  0
  -22.7310  -14.9290   20.7240 O   0  0  0  0  0  0  0  0  0  0  0  0
  -22.8110  -12.2680   22.3880 H   0  0  0  0  0  0  0  0  0  0  0  0
  -21.5320  -13.4440   22.3000 H   0  0  0  0  0  0  0  0  0  0  0  0
  -25.8030  -15.4940   20.3090 N   0  0  0  0  0  0  0  0  0  0  0  0
  -25.0660  -16.1650   20.4900 H   0  0  0  0  0  0  0  0  0  0  0  0
  -26.6480  -15.9220   19.9520 H   0  0  0  0  0  0  0  0  0  0  0  0
  -29.4640  -22.2170   20.5740 C   0  0  0  0  0  2  0  0  0  0  0  0
  -30.4230  -23.3990   20.8930 C   0  0  0  0  0  2  0  0  0  0  0  0
  -29.9720  -24.7590   20.3200 C   0  0  0  0  0  0  0  0  0  0  0  0
  -29.7660  -24.8970   19.1090 O   0  0  0  0  0  0  0  0  0  0  0  0
  -29.8000  -25.9370   21.3040 C   0  0  0  0  0  2  0  0  0  0  0  0
  -29.7530  -27.2190   20.6450 O   0  0  0  0  0  0  0  0  0  0  0  0
  -25.0520  -31.7430   23.5310 C   0  0  0  0  0  0  0  0  0  0  0  0
  -28.5050  -27.7990   20.5840 C   0  0  0  0  0  0  0  0  0  0  0  0
  -24.1820  -30.2640   21.7470 C   0  0  0  0  0  3  0  0  0  0  0  0
  -25.9420  -28.9800   20.4190 C   0  0  0  0  0  0  0  0  0  0  0  0
  -26.6460  -30.9530   21.7830 C   0  0  0  0  0  2  0  0  0  0  0  0
  -26.9650  -29.6280   21.1210 C   0  0  0  0  0  0  0  0  0  0  0  0
  -28.2510  -29.0450   21.2020 C   0  0  0  0  0  3  0  0  0  0  0  0
  -27.4670  -27.1600   19.8770 C   0  0  0  0  0  3  0  0  0  0  0  0
  -26.1880  -27.7440   19.7940 C   0  0  0  0  0  3  0  0  0  0  0  0
  -24.5960  -29.6690   20.3750 C   0  0  0  0  0  2  0  0  0  0  0  0
  -25.3040  -31.0030   22.4140 N   0  0  0  0  0  0  0  0  0  0  0  0
  -23.9030  -31.8510   23.9820 O   0  0  0  0  0  0  0  0  0  0  0  0
  -23.5930  -29.1310   22.6180 C   0  0  0  0  0  0  0  0  0  0  0  0
  -22.3450  -28.7350   22.3220 N   0  0  0  0  0  0  0  0  0  0  0  0
  -24.2630  -28.6080   23.5140 O   0  0  0  0  0  0  0  0  0  0  0  0
  -21.8600  -29.2170   21.5780 H   0  0  0  0  0  0  0  0  0  0  0  0
  -19.2110  -26.9380   22.3250 C   0  0  0  0  0  0  0  0  0  0  0  0
  -21.6050  -27.6580   22.9810 C   0  0  0  0  0  3  0  0  0  0  0  0
  -22.0550  -26.2740   22.4610 C   0  0  0  0  0  2  0  0  0  0  0  0
  -21.2010  -25.7590   21.2990 C   0  0  0  0  0  2  0  0  0  0  0  0
  -19.7320  -25.6470   21.7170 C   0  0  0  0  0  2  0  0  0  0  0  0
  -20.0920  -27.8890   22.9050 C   0  0  0  0  0  0  0  0  0  0  0  0
  -19.5590  -29.0880   23.4240 C   0  0  0  0  0  3  0  0  0  0  0  0
  -18.1760  -29.3440   23.3750 C   0  0  0  0  0  3  0  0  0  0  0  0
  -17.3060  -28.3920   22.8150 C   0  0  0  0  0  3  0  0  0  0  0  0
  -17.8230  -27.1900   22.2970 C   0  0  0  0  0  3  0  0  0  0  0  0
  -26.1890  -32.5080   24.2800 C   0  0  0  0  0  3  0  0  0  0  0  0
  -25.7470  -33.8970   24.4540 N   0  0  0  0  0  0  0  0  0  0  0  0
  -26.0980  -34.9130   23.6550 C   0  0  0  0  0  0  0  0  0  0  0  0
  -26.8980  -34.7850   22.7230 O   0  0  0  0  0  0  0  0  0  0  0  0
  -25.0490  -34.0650   25.1630 H   0  0  0  0  0  0  0  0  0  0  0  0
  -24.2840  -36.5140   22.9710 C   0  0  0  0  0  1  0  0  0  0  0  0
  -25.4620  -36.2880   23.9320 C   0  0  0  0  0  3  0  0  0  0  0  0
  -27.4240  -37.4180   24.8800 C   0  0  0  0  0  1  0  0  0  0  0  0
  -26.4180  -37.4120   23.8210 N   0  0  0  0  0  0  0  0  0  0  0  0
  -25.9310  -38.3040   23.8410 H   0  0  0  0  0  0  0  0  0  0  0  0
  -26.5620  -31.8620   25.6700 C   0  0  1  0  0  0  0  0  0  0  0  0
  -25.3420  -31.6140   26.5870 C   0  0  0  0  0  1  0  0  0  0  0  0
  -27.2850  -30.5100   25.4670 C   0  0  0  0  0  1  0  0  0  0  0  0
  -27.5500  -32.7810   26.4270 C   0  0  0  0  0  1  0  0  0  0  0  0
  2  1  2  0
  3  1  1  0
  3  9  1  0
  4  2  1  0
  5  3  2  0
  6  4  2  0
  6  5  1  0
  7  6  1  0
  9  8  1  0
 11 10  1  0
 11 20  1  0
 11  4  1  0
 12 18  1  0
 12 20  1  0
 13 18  1  0
 14 15  1  0
 14 13  1  0
 16 15  1  0
 16 25  1  0
 16 17  1  0
 18 17  1  0
 19 12  2  0
 20 21  1  0
 22 23  2  0
 23 42  1  0
 24 23  1  0
 24 27  1  0
 25 26  1  0
 25 22  1  0
 26 24  2  0
 27 28  1  0
 28 29  2  0
 30 33  1  0
 30 29  1  0
 31 30  2  0
 32 31  1  0
 32 27  2  0
 33 34  1  0
 34 35  1  0
 35 36  2  0
 37 36  1  0
 37 41  1  0
 38 37  2  0
 39 34  2  0
 39 38  1  0
 40 39  1  0
 42 43  1  0
 43 46  1  0
 43 45  1  0
 44 42  2  0
 47 22  1  0
 47 48  1  0
 49 47  1  0
 50 51  1  0
 50  5  1  0
 52 51  1  0
 52 54  1  0
 53 52  2  0
 55 54  1  0
 56 67  2  0
 57 55  1  0
 57 62  1  0
 58 66  1  0
 58 68  1  0
 59 61  1  0
 60 66  1  0
 61 62  2  0
 61 60  1  0
 63 57  2  0
 64 63  1  0
 64 59  2  0
 65 59  1  0
 65 58  1  0
 66 56  1  0
 68 70  2  0
 69 68  1  0
 71 69  1  0
 72 77  1  0
 73 69  1  0
 74 73  1  0
 75 76  1  0
 75 74  1  0
 76 72  1  0
 77 73  1  0
 77 78  2  0
 79 78  1  0
 80 79  2  0
 81 72  2  0
 81 80  1  0
 82 56  1  0
 82 83  1  0
 82 92  1  0
 83 86  1  0
 84 88  1  0
 84 83  1  0
 85 84  2  0
 88 87  1  0
 90 91  1  0
 90 88  1  0
 90 89  1  0
 92 95  1  1
 92 93  1  0
 94 92  1  0
M  ISO  4  12 100  20 100  54 101  55 101
M  END
>  <TORSDO>  (17) 
F 22

>  <SCORE>  (17) 
-11.266

>  <name>  (17) 
16

>  <ligand_id>  (17) 
16

>  <original_smiles>  (17) 
[H]c1c([H])c([H])c2c(c1[H])C([H])([H])C([H])([H])C([H])([H])C2([H])N([H])C(=O)C1([H])N(C(=O)C([H])(N([H])C(=O)C([H])(N([H])C([H])([H])[H])C([H])([H])[H])C(C([H])([H])[H])(C([H])([H])[H])C([H])([H])[H])C([H])([H])c2c([H])c(OC([H])([H])C(=O)C([H])([H])C([H])([H])c3c(F)c(C([H])(N([H])C(=O)N4C([H])([H])C([H])([H])C([H])([H])C([H])(n5nc(-c6c([H])c([H])c(Oc7c([H])c([H])c(F)c([H])c7F)c([H])c6[H])c(C(=O)N([H])[H])c5N([H])[H])C4([H])[H])C([H])([H])[H])c([H])c([H])c3C([H])([H])C([H])([H])[H])c([H])c([H])c2C1([H])[H]

>  <smiles>  (17) 
[H]c1c([H])c([H])c2c(c1[H])C([H])([H])C([H])([H])C([H])([H])C2([H])N([H])C(=O)C1([H])N(C(=O)C([H])(N([H])C(=O)C([H])(N([H])C([H])([H])[H])C([H])([H])[H])C(C([H])([H])[H])(C([H])([H])[H])C([H])([H])[H])C([H])([H])c2c([H])c(OC([H])([H])C(=O)C([H])([H])C([H])([H])c3c(F)c(C([H])(N([H])C(=O)N4C([H])([H])C([H])([H])C([H])([H])C([H])(n5nc(-c6c([H])c([H])c(Oc7c([H])c([H])c(F)c([H])c7F)c([H])c6[H])c(C(=O)N([H])[H])c5N([H])[H])C4([H])[H])C([H])([H])[H])c([H])c([H])c3C([H])([H])C([H])([H])[H])c([H])c([H])c2C1([H])[H]

$$$$
17:0:0
     RDKit          3D

 89 96  0  0  1  0  0  0  0  0999 V2000
  -28.2930  -23.5610   22.8880 C   0  0  0  0  0  3  0  0  0  0  0  0
  -27.4950  -23.9570   21.7930 C   0  0  0  0  0  3  0  0  0  0  0  0
  -29.9270  -22.5240   21.3960 C   0  0  0  0  0  3  0  0  0  0  0  0
  -28.9320  -22.5100   20.4000 C   0  0  0  0  0  0  0  0  0  0  0  0
  -29.5640  -22.9870   22.6780 C   0  0  0  0  0  0  0  0  0  0  0  0
  -28.0660  -23.9310   20.5070 C   0  0  0  0  0  0  0  0  0  0  0  0
  -30.3950  -22.7660   23.7350 O   0  0  0  0  0  0  0  0  0  0  0  0
  -30.0540  -23.1170   24.5550 H   0  0  0  0  0  0  0  0  0  0  0  0
  -28.1780  -25.5270   20.1830 O   0  0  0  0  0  0  0  0  0  0  0  0
  -24.6500  -31.8780   23.1580 C   0  0  0  0  0  0  0  0  0  0  0  0
  -27.2000  -26.7540   20.2180 C   0  0  0  0  0  0  0  0  0  0  0  0
  -23.4640  -30.4540   21.5410 C   0  0  0  0  0  3  0  0  0  0  0  0
  -24.9190  -28.7960   20.1420 C   0  0  0  0  0  0  0  0  0  0  0  0
  -26.0420  -30.6040   21.4070 C   0  0  0  0  0  2  0  0  0  0  0  0
  -26.1150  -29.1580   20.7740 C   0  0  0  0  0  0  0  0  0  0  0  0
  -27.2360  -28.1650   20.7830 C   0  0  0  0  0  3  0  0  0  0  0  0
  -25.9670  -26.6170   19.5260 C   0  0  0  0  0  3  0  0  0  0  0  0
  -24.8840  -27.5510   19.4940 C   0  0  0  0  0  3  0  0  0  0  0  0
  -23.7060  -29.7420   20.1780 C   0  0  0  0  0  2  0  0  0  0  0  0
  -24.7420  -31.0130   22.0880 N   0  0  0  0  0  0  0  0  0  0  0  0
  -23.5580  -32.1740   23.6740 O   0  0  0  0  0  0  0  0  0  0  0  0
  -22.7600  -29.4830   22.5280 C   0  0  0  0  0  0  0  0  0  0  0  0
  -21.4270  -29.3150   22.4140 N   0  0  0  0  0  0  0  0  0  0  0  0
  -23.4250  -28.8770   23.3730 O   0  0  0  0  0  0  0  0  0  0  0  0
  -20.9380  -29.8590   21.7170 H   0  0  0  0  0  0  0  0  0  0  0  0
  -18.0610  -28.0530   22.9550 C   0  0  0  0  0  0  0  0  0  0  0  0
  -20.6180  -28.3770   23.2020 C   0  0  0  0  0  3  0  0  0  0  0  0
  -20.7440  -26.9360   22.6550 C   0  0  0  0  0  2  0  0  0  0  0  0
  -19.6470  -26.5750   21.6460 C   0  0  0  0  0  2  0  0  0  0  0  0
  -18.2650  -26.6990   22.2920 C   0  0  0  0  0  2  0  0  0  0  0  0
  -19.1660  -28.8460   23.3680 C   0  0  0  0  0  0  0  0  0  0  0  0
  -18.9210  -30.1060   23.9550 C   0  0  0  0  0  3  0  0  0  0  0  0
  -17.6070  -30.5760   24.1320 C   0  0  0  0  0  3  0  0  0  0  0  0
  -16.5170  -29.7840   23.7300 C   0  0  0  0  0  3  0  0  0  0  0  0
  -16.7460  -28.5240   23.1480 C   0  0  0  0  0  3  0  0  0  0  0  0
  -25.9120  -32.5460   23.7840 C   0  0  0  0  0  3  0  0  0  0  0  0
  -26.4380  -31.7930   25.0700 C   0  0  1  0  0  0  0  0  0  0  0  0
  -25.3540  -31.5760   26.1530 C   0  0  0  0  0  1  0  0  0  0  0  0
  -27.0180  -30.4080   24.7080 C   0  0  0  0  0  1  0  0  0  0  0  0
  -27.5960  -32.5960   25.7090 C   0  0  0  0  0  1  0  0  0  0  0  0
  -25.5720  -33.9410   24.1290 N   0  0  0  0  0  0  0  0  0  0  0  0
  -25.8740  -35.0180   23.3910 C   0  0  0  0  0  0  0  0  0  0  0  0
  -26.5270  -34.9450   22.3470 O   0  0  0  0  0  0  0  0  0  0  0  0
  -24.9890  -34.0700   24.9430 H   0  0  0  0  0  0  0  0  0  0  0  0
  -24.1130  -36.8030   23.1170 C   0  0  0  0  0  1  0  0  0  0  0  0
  -25.3820  -36.3960   23.8850 C   0  0  0  0  0  3  0  0  0  0  0  0
  -27.5230  -37.3100   24.6730 C   0  0  0  0  0  1  0  0  0  0  0  0
  -26.3940  -37.4690   23.7600 N   0  0  0  0  0  0  0  0  0  0  0  0
  -25.9750  -38.3780   23.9330 H   0  0  0  0  0  0  0  0  0  0  0  0
  -28.7180  -20.6560   20.1160 C   0  0  0  0  0  1  0  0  0  0  0  0
  -29.7530  -18.9820   20.2580 C   0  0  0  0  0  1  0  0  0  0  0  0
  -30.3320  -15.8040   20.1400 C   0  0  0  0  0  0  0  0  0  0  0  0
  -30.4480  -13.2480   19.3260 C   0  0  0  0  0  2  0  0  0  0  0  0
  -29.5510  -12.8040   18.1330 C   0  0  0  0  0  2  0  0  0  0  0  0
  -28.1380  -12.4360   18.6050 C   0  0  0  0  0  2  0  0  0  0  0  0
  -27.6270  -13.4420   19.6590 C   0  0  0  0  0  3  0  0  0  0  0  0
  -28.6640  -13.7910   20.7540 C   0  0  0  0  0  2  0  0  0  0  0  0
  -29.8140  -14.4320   20.0700 N   0  0  0  0  0  0  0  0  0  0  0  0
  -31.5690  -15.7330   19.9880 O   0  0  0  0  0  0  0  0  0  0  0  0
  -29.5750  -17.1850   20.1960 N   0  0  0  0  0  0  0  0  0  0  0  0
  -28.5910  -16.9610   20.2260 H   0  0  0  0  0  0  0  0  0  0  0  0
  -25.2730  -13.9510   20.4580 C   0  0  0  0  0  0  0  0  0  0  0  0
  -24.2250  -13.1600   20.8380 C   0  0  0  0  0  0  0  0  0  0  0  0
  -24.7020  -11.8140   20.7880 C   0  0  0  0  0  0  0  0  0  0  0  0
  -26.3200  -13.0890   20.1940 N   0  0  0  0  0  0  0  0  0  0  0  0
  -25.9920  -11.7960   20.4570 N   0  0  0  0  0  0  0  0  0  0  0  0
  -23.9840  -10.5460   20.9780 C   0  0  0  0  0  0  0  0  0  0  0  0
  -24.4130   -9.5850   21.9190 C   0  0  0  0  0  3  0  0  0  0  0  0
  -23.6910   -8.3850   22.0990 C   0  0  0  0  0  3  0  0  0  0  0  0
  -22.5260   -8.1360   21.3360 C   0  0  0  0  0  0  0  0  0  0  0  0
  -22.1120   -9.0870   20.3860 C   0  0  0  0  0  3  0  0  0  0  0  0
  -22.8340  -10.2800   20.2050 C   0  0  0  0  0  3  0  0  0  0  0  0
  -21.7760   -6.9870   21.4250 O   0  0  0  0  0  0  0  0  0  0  0  0
  -21.7010   -6.2640   22.5880 C   0  0  0  0  0  0  0  0  0  0  0  0
  -21.2240   -6.8330   23.7880 C   0  0  0  0  0  3  0  0  0  0  0  0
  -21.1000   -6.0370   24.9440 C   0  0  0  0  0  3  0  0  0  0  0  0
  -21.4410   -4.6710   24.8990 C   0  0  0  0  0  0  0  0  0  0  0  0
  -21.9080   -4.1000   23.7030 C   0  0  0  0  0  3  0  0  0  0  0  0
  -22.0350   -4.8950   22.5490 C   0  0  0  0  0  0  0  0  0  0  0  0
  -22.4660   -4.3350   21.3920 F   0  0  0  0  0  0  0  0  0  0  0  0
  -21.3150   -3.9030   26.0070 F   0  0  0  0  0  0  0  0  0  0  0  0
  -22.8280  -13.6260   21.1260 C   0  0  0  0  0  0  0  0  0  0  0  0
  -22.1130  -12.9210   21.9970 N   0  0  0  0  0  0  0  0  0  0  0  0
  -22.3810  -14.6510   20.6140 O   0  0  0  0  0  0  0  0  0  0  0  0
  -22.4870  -12.0920   22.4340 H   0  0  0  0  0  0  0  0  0  0  0  0
  -21.1750  -13.2190   22.2290 H   0  0  0  0  0  0  0  0  0  0  0  0
  -25.4180  -15.3220   20.2810 N   0  0  0  0  0  0  0  0  0  0  0  0
  -24.6400  -15.9640   20.4080 H   0  0  0  0  0  0  0  0  0  0  0  0
  -26.2340  -15.7680   19.8840 H   0  0  0  0  0  0  0  0  0  0  0  0
  2  1  2  0
  3  5  2  0
  4  6  2  3
  4  3  1  0
  5  1  1  0
  5  7  1  0
  6  2  1  0
  7  8  1  0
  9 11  1  0
  9  6  1  0
 10 21  2  0
 11 16  1  0
 12 20  1  0
 12 22  1  0
 13 19  1  0
 13 15  1  0
 14 20  1  0
 15 16  2  0
 15 14  1  0
 17 11  2  0
 18 17  1  0
 18 13  2  0
 19 12  1  0
 20 10  1  0
 22 24  2  0
 23 22  1  0
 25 23  1  0
 26 35  2  0
 26 31  1  0
 27 23  1  0
 27 31  1  0
 28 27  1  0
 29 30  1  0
 29 28  1  0
 30 26  1  0
 31 32  2  0
 32 33  1  0
 34 33  2  0
 35 34  1  0
 36 10  1  0
 36 41  1  0
 36 37  1  0
 37 40  1  1
 37 38  1  0
 39 37  1  0
 41 44  1  0
 42 46  1  0
 42 41  1  0
 43 42  2  0
 46 45  1  0
 48 46  1  0
 48 49  1  0
 48 47  1  0
 50  4  1  0
 52 60  1  0
 53 58  1  0
 54 55  1  0
 54 53  1  0
 56 55  1  0
 56 65  1  0
 56 57  1  0
 58 52  1  0
 58 57  1  0
 59 52  2  0
 60 61  1  0
 60 51  1  0
 62 63  2  0
 63 82  1  0
 64 63  1  0
 64 67  1  0
 65 66  1  0
 65 62  1  0
 66 64  2  0
 67 68  1  0
 68 69  2  0
 70 73  1  0
 70 69  1  0
 71 70  2  0
 72 71  1  0
 72 67  2  0
 73 74  1  0
 74 75  1  0
 75 76  2  0
 77 76  1  0
 77 81  1  0
 78 77  2  0
 79 74  2  0
 79 78  1  0
 80 79  1  0
 82 83  1  0
 83 86  1  0
 83 85  1  0
 84 82  2  0
 87 88  1  0
 87 62  1  0
 89 87  1  0
M  ISO  4   6 101   9 101  52 100  60 100
M  END
>  <TORSDO>  (18) 
F 19

>  <SCORE>  (18) 
-15.066

>  <name>  (18) 
17

>  <ligand_id>  (18) 
17

>  <original_smiles>  (18) 
[H]Oc1c([H])c([H])c(Oc2c([H])c([H])c3c(c2[H])C([H])([H])N(C(=O)C([H])(N([H])C(=O)C([H])(N([H])C([H])([H])[H])C([H])([H])[H])C(C([H])([H])[H])(C([H])([H])[H])C([H])([H])[H])C([H])(C(=O)N([H])C2([H])c4c([H])c([H])c([H])c([H])c4C([H])([H])C([H])([H])C2([H])[H])C3([H])[H])c(C([H])([H])C([H])([H])N([H])C(=O)N2C([H])([H])C([H])([H])C([H])([H])C([H])(n3nc(-c4c([H])c([H])c(Oc5c([H])c([H])c(F)c([H])c5F)c([H])c4[H])c(C(=O)N([H])[H])c3N([H])[H])C2([H])[H])c1[H]

>  <smiles>  (18) 
[H]Oc1c([H])c([H])c(Oc2c([H])c([H])c3c(c2[H])C([H])([H])N(C(=O)C([H])(N([H])C(=O)C([H])(N([H])C([H])([H])[H])C([H])([H])[H])C(C([H])([H])[H])(C([H])([H])[H])C([H])([H])[H])C([H])(C(=O)N([H])C2([H])c4c([H])c([H])c([H])c([H])c4C([H])([H])C([H])([H])C2([H])[H])C3([H])[H])c(C([H])([H])C([H])([H])N([H])C(=O)N2C([H])([H])C([H])([H])C([H])([H])C([H])(n3nc(-c4c([H])c([H])c(Oc5c([H])c([H])c(F)c([H])c5F)c([H])c4[H])c(C(=O)N([H])[H])c3N([H])[H])C2([H])[H])c1[H]

$$$$
18:0:0
     RDKit          3D

 91 99  0  0  1  0  0  0  0  0999 V2000
  -27.6070  -22.0240   21.3620 C   0  0  0  0  0  3  0  0  0  0  0  0
  -26.8510  -23.1090   21.8580 C   0  0  0  0  0  3  0  0  0  0  0  0
  -28.8720  -23.6410   20.0790 C   0  0  0  0  0  3  0  0  0  0  0  0
  -28.6780  -22.2080   20.4720 C   0  0  0  0  0  0  0  0  0  0  0  0
  -27.0830  -24.4710   21.5040 C   0  0  0  0  0  0  0  0  0  0  0  0
  -28.0850  -24.8260   20.5500 C   0  0  0  0  0  0  0  0  0  0  0  0
  -25.1350  -25.1990   22.7340 C   0  0  0  0  0  1  0  0  0  0  0  0
  -26.3790  -25.4910   22.1100 O   0  0  0  0  0  0  0  0  0  0  0  0
  -28.2790  -26.2600   20.2140 O   0  0  0  0  0  0  0  0  0  0  0  0
  -24.5890  -31.9150   23.2390 C   0  0  0  0  0  0  0  0  0  0  0  0
  -27.2390  -27.2670   20.1610 C   0  0  0  0  0  0  0  0  0  0  0  0
  -23.4180  -30.5330   21.5660 C   0  0  0  0  0  3  0  0  0  0  0  0
  -24.8980  -28.9970   20.1240 C   0  0  0  0  0  0  0  0  0  0  0  0
  -25.9700  -30.8210   21.4330 C   0  0  0  0  0  2  0  0  0  0  0  0
  -26.0640  -29.4390   20.7620 C   0  0  0  0  0  0  0  0  0  0  0  0
  -27.2340  -28.5880   20.7710 C   0  0  0  0  0  3  0  0  0  0  0  0
  -26.0570  -26.9420   19.4600 C   0  0  0  0  0  3  0  0  0  0  0  0
  -24.9070  -27.7610   19.4570 C   0  0  0  0  0  3  0  0  0  0  0  0
  -23.6600  -29.8810   20.1780 C   0  0  0  0  0  2  0  0  0  0  0  0
  -24.6790  -31.1120   22.1350 N   0  0  0  0  0  0  0  0  0  0  0  0
  -23.4950  -32.1810   23.7620 O   0  0  0  0  0  0  0  0  0  0  0  0
  -22.7410  -29.5040   22.5060 C   0  0  0  0  0  0  0  0  0  0  0  0
  -21.4140  -29.3320   22.3720 N   0  0  0  0  0  0  0  0  0  0  0  0
  -23.4120  -28.8650   23.3190 O   0  0  0  0  0  0  0  0  0  0  0  0
  -20.9260  -29.9000   21.6930 H   0  0  0  0  0  0  0  0  0  0  0  0
  -18.0320  -28.1330   22.8680 C   0  0  0  0  0  0  0  0  0  0  0  0
  -20.5940  -28.3770   23.1230 C   0  0  0  0  0  3  0  0  0  0  0  0
  -20.6860  -26.9610   22.5090 C   0  0  0  0  0  2  0  0  0  0  0  0
  -19.5750  -26.6710   21.4940 C   0  0  0  0  0  2  0  0  0  0  0  0
  -18.1980  -26.8030   22.1510 C   0  0  0  0  0  2  0  0  0  0  0  0
  -19.1560  -28.8790   23.3110 C   0  0  0  0  0  0  0  0  0  0  0  0
  -18.9440  -30.1240   23.9420 C   0  0  0  0  0  3  0  0  0  0  0  0
  -17.6420  -30.6220   24.1350 C   0  0  0  0  0  3  0  0  0  0  0  0
  -16.5320  -29.8710   23.7070 C   0  0  0  0  0  3  0  0  0  0  0  0
  -16.7280  -28.6290   23.0790 C   0  0  0  0  0  3  0  0  0  0  0  0
  -25.8560  -32.5530   23.8860 C   0  0  0  0  0  3  0  0  0  0  0  0
  -26.3300  -31.7990   25.1900 C   0  0  1  0  0  0  0  0  0  0  0  0
  -25.2050  -31.5820   26.2280 C   0  0  0  0  0  1  0  0  0  0  0  0
  -26.9210  -30.4140   24.8420 C   0  0  0  0  0  1  0  0  0  0  0  0
  -27.4630  -32.6010   25.8740 C   0  0  0  0  0  1  0  0  0  0  0  0
  -25.5430  -33.9580   24.1950 N   0  0  0  0  0  0  0  0  0  0  0  0
  -25.8920  -35.0040   23.4340 C   0  0  0  0  0  0  0  0  0  0  0  0
  -26.5790  -34.8880   22.4150 O   0  0  0  0  0  0  0  0  0  0  0  0
  -24.9380  -34.1210   24.9860 H   0  0  0  0  0  0  0  0  0  0  0  0
  -24.1840  -36.8080   23.0310 C   0  0  0  0  0  1  0  0  0  0  0  0
  -25.4040  -36.4000   23.8710 C   0  0  0  0  0  3  0  0  0  0  0  0
  -27.5220  -37.2850   24.7470 C   0  0  0  0  0  1  0  0  0  0  0  0
  -26.4460  -37.4460   23.7720 N   0  0  0  0  0  0  0  0  0  0  0  0
  -26.0410  -38.3700   23.8970 H   0  0  0  0  0  0  0  0  0  0  0  0
  -29.5640  -20.8610   20.0690 C   0  0  0  0  0  3  0  0  0  0  0  0
  -29.2000  -19.2200   20.3750 C   0  0  0  0  0  3  0  0  0  0  0  0
  -31.4440  -18.1870   21.1920 C   0  0  0  0  0  1  0  0  0  0  0  0
  -30.2770  -17.9050   20.2300 C   0  0  0  0  0  3  0  0  0  0  0  0
  -30.6530  -15.1490   20.1440 C   0  0  0  0  0  0  0  0  0  0  0  0
  -30.5090  -12.7970   19.1980 C   0  0  0  0  0  2  0  0  0  0  0  0
  -29.5400  -12.7440   17.9940 C   0  0  0  0  0  2  0  0  0  0  0  0
  -28.0950  -12.5130   18.4750 C   0  0  0  0  0  2  0  0  0  0  0  0
  -27.7170  -13.4240   19.6710 C   0  0  0  0  0  3  0  0  0  0  0  0
  -28.8110  -13.4570   20.7610 C   0  0  0  0  0  2  0  0  0  0  0  0
  -30.0530  -13.8890   20.1090 N   0  0  0  0  0  0  0  0  0  0  0  0
  -31.8400  -15.1980   19.8040 O   0  0  0  0  0  0  0  0  0  0  0  0
  -29.9070  -16.3540   20.3580 N   0  0  0  0  0  0  0  0  0  0  0  0
  -28.9400  -16.1810   20.5930 H   0  0  0  0  0  0  0  0  0  0  0  0
  -25.3670  -13.9640   20.5230 C   0  0  0  0  0  0  0  0  0  0  0  0
  -24.3230  -13.1720   20.9130 C   0  0  0  0  0  0  0  0  0  0  0  0
  -24.7920  -11.8250   20.8240 C   0  0  0  0  0  0  0  0  0  0  0  0
  -26.4040  -13.1000   20.2150 N   0  0  0  0  0  0  0  0  0  0  0  0
  -26.0710  -11.8060   20.4620 N   0  0  0  0  0  0  0  0  0  0  0  0
  -24.0770  -10.5550   21.0050 C   0  0  0  0  0  0  0  0  0  0  0  0
  -24.5070   -9.5910   21.9440 C   0  0  0  0  0  3  0  0  0  0  0  0
  -23.7910   -8.3860   22.1140 C   0  0  0  0  0  3  0  0  0  0  0  0
  -22.6310   -8.1360   21.3440 C   0  0  0  0  0  0  0  0  0  0  0  0
  -22.2200   -9.0870   20.3940 C   0  0  0  0  0  3  0  0  0  0  0  0
  -22.9360  -10.2830   20.2220 C   0  0  0  0  0  3  0  0  0  0  0  0
  -21.8860   -6.9840   21.4240 O   0  0  0  0  0  0  0  0  0  0  0  0
  -21.7820   -6.2730   22.5930 C   0  0  0  0  0  0  0  0  0  0  0  0
  -21.2370   -6.8430   23.7640 C   0  0  0  0  0  3  0  0  0  0  0  0
  -21.0840   -6.0560   24.9230 C   0  0  0  0  0  3  0  0  0  0  0  0
  -21.4650   -4.7000   24.9110 C   0  0  0  0  0  0  0  0  0  0  0  0
  -22.0020   -4.1300   23.7430 C   0  0  0  0  0  3  0  0  0  0  0  0
  -22.1560   -4.9140   22.5870 C   0  0  0  0  0  0  0  0  0  0  0  0
  -22.6550   -4.3550   21.4580 F   0  0  0  0  0  0  0  0  0  0  0  0
  -21.3110   -3.9420   26.0210 F   0  0  0  0  0  0  0  0  0  0  0  0
  -22.9360  -13.6350   21.2490 C   0  0  0  0  0  0  0  0  0  0  0  0
  -22.2400  -12.9070   22.1150 N   0  0  0  0  0  0  0  0  0  0  0  0
  -22.4780  -14.6750   20.7790 O   0  0  0  0  0  0  0  0  0  0  0  0
  -22.6240  -12.0640   22.5180 H   0  0  0  0  0  0  0  0  0  0  0  0
  -21.3100  -13.1970   22.3820 H   0  0  0  0  0  0  0  0  0  0  0  0
  -25.5160  -15.3400   20.3790 N   0  0  0  0  0  0  0  0  0  0  0  0
  -24.7450  -15.9810   20.5330 H   0  0  0  0  0  0  0  0  0  0  0  0
  -26.3370  -15.7940   20.0010 H   0  0  0  0  0  0  0  0  0  0  0  0
  1  2  1  0
  3  4  1  0
  3  6  2  0
  4  1  2  0
  5  2  2  0
  5  8  1  0
  6  5  1  0
  8  7  1  0
  9  6  1  0
 10 21  2  0
 11  9  1  0
 11 16  1  0
 12 20  1  0
 12 22  1  0
 13 19  1  0
 13 15  1  0
 14 20  1  0
 15 16  2  0
 15 14  1  0
 17 11  2  0
 18 17  1  0
 18 13  2  0
 19 12  1  0
 20 10  1  0
 22 24  2  0
 23 22  1  0
 25 23  1  0
 26 35  2  0
 26 31  1  0
 27 23  1  0
 27 31  1  0
 28 27  1  0
 29 30  1  0
 29 28  1  0
 30 26  1  0
 31 32  2  0
 32 33  1  0
 34 33  2  0
 35 34  1  0
 36 10  1  0
 36 41  1  0
 36 37  1  0
 37 40  1  1
 37 38  1  0
 39 37  1  0
 41 44  1  0
 42 46  1  0
 42 41  1  0
 43 42  2  0
 46 45  1  0
 48 46  1  0
 48 49  1  0
 48 47  1  0
 50 51  2  0
 50  4  1  0
 53 62  1  0
 53 51  1  0
 53 52  1  0
 54 62  1  0
 55 60  1  0
 56 57  1  0
 56 55  1  0
 58 57  1  0
 58 67  1  0
 58 59  1  0
 60 54  1  0
 60 59  1  0
 61 54  2  0
 62 63  1  0
 64 65  2  0
 65 84  1  0
 66 65  1  0
 66 69  1  0
 67 68  1  0
 67 64  1  0
 68 66  2  0
 69 70  1  0
 70 71  2  0
 72 75  1  0
 72 71  1  0
 73 72  2  0
 74 73  1  0
 74 69  2  0
 75 76  1  0
 76 77  1  0
 77 78  2  0
 79 78  1  0
 79 83  1  0
 80 79  2  0
 81 76  2  0
 81 80  1  0
 82 81  1  0
 84 85  1  0
 85 88  1  0
 85 87  1  0
 86 84  2  0
 89 64  1  0
 89 90  1  0
 91 89  1  0
M  ISO  4   6 101   9 101  54 100  62 100
M  END
>  <TORSDO>  (19) 
F 20

>  <SCORE>  (19) 
-14.850

>  <name>  (19) 
18

>  <ligand_id>  (19) 
18

>  <original_smiles>  (19) 
[H]c1c([H])c([H])c2c(c1[H])C([H])([H])C([H])([H])C([H])([H])C2([H])N([H])C(=O)C1([H])N(C(=O)C([H])(N([H])C(=O)C([H])(N([H])C([H])([H])[H])C([H])([H])[H])C(C([H])([H])[H])(C([H])([H])[H])C([H])([H])[H])C([H])([H])c2c([H])c(Oc3c([H])c(C([H])([H])C([H])([H])C([H])(N([H])C(=O)N4C([H])([H])C([H])([H])C([H])([H])C([H])(n5nc(-c6c([H])c([H])c(Oc7c([H])c([H])c(F)c([H])c7F)c([H])c6[H])c(C(=O)N([H])[H])c5N([H])[H])C4([H])[H])C([H])([H])[H])c([H])c([H])c3OC([H])([H])[H])c([H])c([H])c2C1([H])[H]

>  <smiles>  (19) 
[H]c1c([H])c([H])c2c(c1[H])C([H])([H])C([H])([H])C([H])([H])C2([H])N([H])C(=O)C1([H])N(C(=O)C([H])(N([H])C(=O)C([H])(N([H])C([H])([H])[H])C([H])([H])[H])C(C([H])([H])[H])(C([H])([H])[H])C([H])([H])[H])C([H])([H])c2c([H])c(Oc3c([H])c(C([H])([H])C([H])([H])C([H])(N([H])C(=O)N4C([H])([H])C([H])([H])C([H])([H])C([H])(n5nc(-c6c([H])c([H])c(Oc7c([H])c([H])c(F)c([H])c7F)c([H])c6[H])c(C(=O)N([H])[H])c5N([H])[H])C4([H])[H])C([H])([H])[H])c([H])c([H])c3OC([H])([H])[H])c([H])c([H])c2C1([H])[H]

$$$$
19:0:0
     RDKit          3D

 90 98  0  0  1  0  0  0  0  0999 V2000
  -28.4490  -19.8450   19.8430 C   0  0  0  0  0  3  0  0  0  0  0  0
  -31.0090  -20.6170   20.2100 C   0  0  0  0  0  3  0  0  0  0  0  0
  -29.4470  -18.6710   19.9800 C   0  0  0  0  0  0  0  0  0  0  0  0
  -28.6820  -21.3730   19.8840 C   0  0  0  0  0  0  0  0  0  0  0  0
  -30.7530  -19.2150   20.1990 C   0  0  0  0  0  0  0  0  0  0  0  0
  -30.0470  -21.6580   20.0760 C   0  0  0  0  0  0  0  0  0  0  0  0
  -31.9100  -17.6300   21.8470 C   0  0  0  0  0  1  0  0  0  0  0  0
  -31.9700  -18.3460   20.4890 C   0  0  0  0  0  2  0  0  0  0  0  0
  -31.7110  -23.3410   20.5350 C   0  0  0  0  0  1  0  0  0  0  0  0
  -30.3760  -22.9940   20.1910 O   0  0  0  0  0  0  0  0  0  0  0  0
  -29.1830  -16.9320   20.0330 C   0  0  0  0  0  2  0  0  0  0  0  0
  -30.1240  -15.4470   19.8230 C   0  0  0  0  0  0  0  0  0  0  0  0
  -30.1710  -12.9950   18.9660 C   0  0  0  0  0  2  0  0  0  0  0  0
  -29.1730  -12.8030   17.7960 C   0  0  0  0  0  2  0  0  0  0  0  0
  -27.7620  -12.4840   18.3230 C   0  0  0  0  0  2  0  0  0  0  0  0
  -27.3650  -13.4040   19.5040 C   0  0  0  0  0  3  0  0  0  0  0  0
  -28.4840  -13.5590   20.5510 C   0  0  0  0  0  2  0  0  0  0  0  0
  -29.6620  -14.1020   19.8580 N   0  0  0  0  0  0  0  0  0  0  0  0
  -31.3070  -15.4940   19.4550 O   0  0  0  0  0  0  0  0  0  0  0  0
  -25.0460  -13.8560   20.4590 C   0  0  0  0  0  0  0  0  0  0  0  0
  -24.0430  -13.0320   20.8860 C   0  0  0  0  0  0  0  0  0  0  0  0
  -24.5520  -11.7000   20.7780 C   0  0  0  0  0  0  0  0  0  0  0  0
  -26.0930  -13.0270   20.1040 N   0  0  0  0  0  0  0  0  0  0  0  0
  -25.8150  -11.7220   20.3650 N   0  0  0  0  0  0  0  0  0  0  0  0
  -23.8840  -10.4090   20.9870 C   0  0  0  0  0  0  0  0  0  0  0  0
  -24.3440   -9.4840   21.9510 C   0  0  0  0  0  3  0  0  0  0  0  0
  -23.6690   -8.2600   22.1500 C   0  0  0  0  0  3  0  0  0  0  0  0
  -22.5210   -7.9500   21.3830 C   0  0  0  0  0  0  0  0  0  0  0  0
  -22.0780   -8.8640   20.4120 C   0  0  0  0  0  3  0  0  0  0  0  0
  -22.7520  -10.0810   20.2120 C   0  0  0  0  0  3  0  0  0  0  0  0
  -21.8180   -6.7730   21.4870 O   0  0  0  0  0  0  0  0  0  0  0  0
  -21.7300   -6.0890   22.6730 C   0  0  0  0  0  0  0  0  0  0  0  0
  -21.1020   -6.6460   23.8090 C   0  0  0  0  0  3  0  0  0  0  0  0
  -20.9710   -5.8830   24.9860 C   0  0  0  0  0  3  0  0  0  0  0  0
  -21.4580   -4.5630   25.0290 C   0  0  0  0  0  0  0  0  0  0  0  0
  -22.0760   -4.0040   23.8950 C   0  0  0  0  0  3  0  0  0  0  0  0
  -22.2090   -4.7650   22.7210 C   0  0  0  0  0  0  0  0  0  0  0  0
  -22.7870   -4.2150   21.6250 F   0  0  0  0  0  0  0  0  0  0  0  0
  -21.3270   -3.8260   26.1570 F   0  0  0  0  0  0  0  0  0  0  0  0
  -22.6560  -13.4510   21.2770 C   0  0  0  0  0  0  0  0  0  0  0  0
  -22.0230  -12.7130   22.1820 N   0  0  0  0  0  0  0  0  0  0  0  0
  -22.1450  -14.4710   20.8150 O   0  0  0  0  0  0  0  0  0  0  0  0
  -22.4530  -11.8890   22.5760 H   0  0  0  0  0  0  0  0  0  0  0  0
  -21.0960  -12.9780   22.4820 H   0  0  0  0  0  0  0  0  0  0  0  0
  -25.1480  -15.2380   20.3130 N   0  0  0  0  0  0  0  0  0  0  0  0
  -24.3720  -15.8590   20.5080 H   0  0  0  0  0  0  0  0  0  0  0  0
  -25.9500  -15.7180   19.9260 H   0  0  0  0  0  0  0  0  0  0  0  0
  -27.6490  -22.7740   20.0100 C   0  0  0  0  0  2  0  0  0  0  0  0
  -27.6210  -24.4330   19.3180 C   0  0  0  0  0  2  0  0  0  0  0  0
  -27.6480  -25.9950   19.8350 O   0  0  0  0  0  0  0  0  0  0  0  0
  -24.5360  -31.9710   23.1350 C   0  0  0  0  0  0  0  0  0  0  0  0
  -26.6620  -27.1040   19.8070 C   0  0  0  0  0  0  0  0  0  0  0  0
  -23.1680  -30.6670   21.5570 C   0  0  0  0  0  3  0  0  0  0  0  0
  -24.4390  -29.0540   19.9810 C   0  0  0  0  0  0  0  0  0  0  0  0
  -25.7200  -30.7910   21.2220 C   0  0  0  0  0  2  0  0  0  0  0  0
  -25.6810  -29.4010   20.5250 C   0  0  0  0  0  0  0  0  0  0  0  0
  -26.7820  -28.4440   20.4210 C   0  0  0  0  0  3  0  0  0  0  0  0
  -25.3970  -26.9060   19.2120 C   0  0  0  0  0  3  0  0  0  0  0  0
  -24.3190  -27.8290   19.3050 C   0  0  0  0  0  3  0  0  0  0  0  0
  -23.2630  -30.0170   20.1480 C   0  0  0  0  0  2  0  0  0  0  0  0
  -24.5010  -31.1680   22.0230 N   0  0  0  0  0  0  0  0  0  0  0  0
  -23.5000  -32.2870   23.7410 O   0  0  0  0  0  0  0  0  0  0  0  0
  -22.5080  -29.6710   22.5460 C   0  0  0  0  0  0  0  0  0  0  0  0
  -21.1770  -29.4970   22.4570 N   0  0  0  0  0  0  0  0  0  0  0  0
  -23.2010  -29.0550   23.3610 O   0  0  0  0  0  0  0  0  0  0  0  0
  -20.6700  -30.0430   21.7740 H   0  0  0  0  0  0  0  0  0  0  0  0
  -17.8330  -28.2020   22.9980 C   0  0  0  0  0  0  0  0  0  0  0  0
  -20.3810  -28.5590   23.2570 C   0  0  0  0  0  3  0  0  0  0  0  0
  -20.5310  -27.1140   22.7260 C   0  0  0  0  0  2  0  0  0  0  0  0
  -19.4410  -26.7250   21.7200 C   0  0  0  0  0  2  0  0  0  0  0  0
  -18.0550  -26.8430   22.3590 C   0  0  0  0  0  2  0  0  0  0  0  0
  -18.9240  -29.0160   23.4040 C   0  0  0  0  0  0  0  0  0  0  0  0
  -18.6610  -30.2840   23.9660 C   0  0  0  0  0  3  0  0  0  0  0  0
  -17.3390  -30.7420   24.1230 C   0  0  0  0  0  3  0  0  0  0  0  0
  -16.2620  -29.9280   23.7300 C   0  0  0  0  0  3  0  0  0  0  0  0
  -16.5100  -28.6600   23.1740 C   0  0  0  0  0  3  0  0  0  0  0  0
  -25.8750  -32.5460   23.6880 C   0  0  0  0  0  3  0  0  0  0  0  0
  -25.6370  -33.9430   24.0940 N   0  0  0  0  0  0  0  0  0  0  0  0
  -25.9900  -35.0200   23.3800 C   0  0  0  0  0  0  0  0  0  0  0  0
  -26.6150  -34.9400   22.3200 O   0  0  0  0  0  0  0  0  0  0  0  0
  -25.0800  -34.0820   24.9240 H   0  0  0  0  0  0  0  0  0  0  0  0
  -24.3690  -36.9330   23.1580 C   0  0  0  0  0  1  0  0  0  0  0  0
  -25.5900  -36.4060   23.9270 C   0  0  0  0  0  3  0  0  0  0  0  0
  -27.7710  -37.1230   24.8010 C   0  0  0  0  0  1  0  0  0  0  0  0
  -26.6830  -37.4030   23.8670 N   0  0  0  0  0  0  0  0  0  0  0  0
  -26.3330  -38.3370   24.0590 H   0  0  0  0  0  0  0  0  0  0  0  0
  -26.4490  -31.7180   24.9050 C   0  0  1  0  0  0  0  0  0  0  0  0
  -25.4180  -31.4770   26.0320 C   0  0  0  0  0  1  0  0  0  0  0  0
  -26.9640  -30.3380   24.4390 C   0  0  0  0  0  1  0  0  0  0  0  0
  -27.6670  -32.4550   25.5120 C   0  0  0  0  0  1  0  0  0  0  0  0
  1  4  2  0
  1  3  1  0
  3 11  1  0
  3  5  2  0
  4 48  1  0
  4  6  1  0
  5  2  1  0
  5  8  1  0
  6 10  1  0
  6  2  2  0
  8  7  1  0
 10  9  1  0
 12 18  1  0
 12 11  1  0
 13 18  1  0
 14 15  1  0
 14 13  1  0
 16 15  1  0
 16 23  1  0
 16 17  1  0
 18 17  1  0
 19 12  2  0
 20 21  2  0
 21 40  1  0
 22 21  1  0
 22 25  1  0
 23 24  1  0
 23 20  1  0
 24 22  2  0
 25 26  1  0
 26 27  2  0
 28 31  1  0
 28 27  1  0
 29 28  2  0
 30 29  1  0
 30 25  2  0
 31 32  1  0
 32 37  2  0
 32 33  1  0
 33 34  2  0
 34 35  1  0
 35 39  1  0
 36 35  2  0
 37 36  1  0
 38 37  1  0
 40 41  1  0
 41 44  1  0
 41 43  1  0
 42 40  2  0
 45 20  1  0
 45 46  1  0
 47 45  1  0
 49 50  1  0
 49 48  1  0
 51 62  2  0
 52 50  1  0
 52 57  1  0
 53 61  1  0
 53 63  1  0
 54 60  1  0
 54 56  1  0
 55 61  1  0
 56 55  1  0
 57 56  2  0
 58 59  1  0
 58 52  2  0
 59 54  2  0
 60 53  1  0
 61 51  1  0
 63 65  2  0
 64 63  1  0
 66 64  1  0
 67 76  2  0
 67 72  1  0
 68 64  1  0
 68 72  1  0
 69 68  1  0
 70 71  1  0
 70 69  1  0
 71 67  1  0
 72 73  2  0
 73 74  1  0
 75 74  2  0
 76 75  1  0
 77 51  1  0
 77 78  1  0
 77 87  1  0
 78 81  1  0
 79 83  1  0
 79 78  1  0
 80 79  2  0
 83 82  1  0
 85 83  1  0
 85 86  1  0
 85 84  1  0
 87 90  1  1
 87 88  1  0
 89 87  1  0
M  ISO  4  11 100  12 100  49 101  50 101
M  END
>  <TORSDO>  (20) 
F 21

>  <SCORE>  (20) 
-14.353

>  <name>  (20) 
19

>  <ligand_id>  (20) 
19

>  <original_smiles>  (20) 
[H]c1c([H])c([H])c2c(c1[H])C([H])([H])C([H])([H])C([H])([H])C2([H])N([H])C(=O)C1([H])N(C(=O)C([H])(N([H])C(=O)C([H])(N([H])C([H])([H])[H])C([H])([H])[H])C(C([H])([H])[H])(C([H])([H])[H])C([H])([H])[H])C([H])([H])c2c([H])c(OC([H])([H])C([H])([H])c3c([H])c(C([H])([H])C(=O)N4C([H])([H])C([H])([H])C([H])([H])C([H])(n5nc(-c6c([H])c([H])c(Oc7c([H])c([H])c(F)c([H])c7F)c([H])c6[H])c(C(=O)N([H])[H])c5N([H])[H])C4([H])[H])c(C([H])([H])C([H])([H])[H])c([H])c3OC([H])([H])[H])c([H])c([H])c2C1([H])[H]

>  <smiles>  (20) 
[H]c1c([H])c([H])c2c(c1[H])C([H])([H])C([H])([H])C([H])([H])C2([H])N([H])C(=O)C1([H])N(C(=O)C([H])(N([H])C(=O)C([H])(N([H])C([H])([H])[H])C([H])([H])[H])C(C([H])([H])[H])(C([H])([H])[H])C([H])([H])[H])C([H])([H])c2c([H])c(OC([H])([H])C([H])([H])c3c([H])c(C([H])([H])C(=O)N4C([H])([H])C([H])([H])C([H])([H])C([H])(n5nc(-c6c([H])c([H])c(Oc7c([H])c([H])c(F)c([H])c7F)c([H])c6[H])c(C(=O)N([H])[H])c5N([H])[H])C4([H])[H])c(C([H])([H])C([H])([H])[H])c([H])c3OC([H])([H])[H])c([H])c([H])c2C1([H])[H]

$$$$
20:0:0
     RDKit          3D

 89 97  0  0  1  0  0  0  0  0999 V2000
  -29.3070  -18.9420   21.3040 C   0  0  0  0  0  3  0  0  0  0  0  0
  -29.9670  -16.7740   20.0140 C   0  0  0  0  0  0  0  0  0  0  0  0
  -29.6970  -17.5180   21.2330 C   0  0  0  0  0  0  0  0  0  0  0  0
  -29.1510  -19.8790   20.2090 C   0  0  0  0  0  0  0  0  0  0  0  0
  -29.8280  -17.7140   18.8980 C   0  0  0  0  0  0  0  0  0  0  0  0
  -29.4450  -19.1500   18.9890 C   0  0  0  0  0  0  0  0  0  0  0  0
  -29.8430  -16.7870   22.5580 C   0  0  0  0  0  1  0  0  0  0  0  0
  -30.1200  -17.1560   17.5030 C   0  0  0  0  0  1  0  0  0  0  0  0
  -29.3190  -19.9500   17.6980 C   0  0  0  0  0  1  0  0  0  0  0  0
  -30.6180  -15.2520   19.8820 C   0  0  0  0  0  0  0  0  0  0  0  0
  -30.4510  -12.8760   18.9500 C   0  0  0  0  0  2  0  0  0  0  0  0
  -29.4530  -12.7920   17.7700 C   0  0  0  0  0  2  0  0  0  0  0  0
  -28.0270  -12.5350   18.2880 C   0  0  0  0  0  2  0  0  0  0  0  0
  -27.6710  -13.4360   19.4980 C   0  0  0  0  0  3  0  0  0  0  0  0
  -28.7930  -13.5130   20.5510 C   0  0  0  0  0  2  0  0  0  0  0  0
  -30.0060  -13.9800   19.8690 N   0  0  0  0  0  0  0  0  0  0  0  0
  -31.8110  -15.2210   19.5540 O   0  0  0  0  0  0  0  0  0  0  0  0
  -25.3590  -13.9350   20.4550 C   0  0  0  0  0  0  0  0  0  0  0  0
  -24.3330  -13.1300   20.8650 C   0  0  0  0  0  0  0  0  0  0  0  0
  -24.8070  -11.7870   20.7370 C   0  0  0  0  0  0  0  0  0  0  0  0
  -26.3870  -13.0830   20.0910 N   0  0  0  0  0  0  0  0  0  0  0  0
  -26.0730  -11.7820   20.3290 N   0  0  0  0  0  0  0  0  0  0  0  0
  -24.1060  -10.5090   20.9230 C   0  0  0  0  0  0  0  0  0  0  0  0
  -24.5390   -9.5560   21.8720 C   0  0  0  0  0  3  0  0  0  0  0  0
  -23.8340   -8.3450   22.0450 C   0  0  0  0  0  3  0  0  0  0  0  0
  -22.6810   -8.0780   21.2700 C   0  0  0  0  0  0  0  0  0  0  0  0
  -22.2670   -9.0190   20.3110 C   0  0  0  0  0  3  0  0  0  0  0  0
  -22.9730  -10.2210   20.1360 C   0  0  0  0  0  3  0  0  0  0  0  0
  -21.9480   -6.9180   21.3520 O   0  0  0  0  0  0  0  0  0  0  0  0
  -21.7800   -6.2550   22.5410 C   0  0  0  0  0  0  0  0  0  0  0  0
  -21.1910   -6.8750   23.6640 C   0  0  0  0  0  3  0  0  0  0  0  0
  -20.9740   -6.1360   24.8430 C   0  0  0  0  0  3  0  0  0  0  0  0
  -21.3380   -4.7770   24.9000 C   0  0  0  0  0  0  0  0  0  0  0  0
  -21.9190   -4.1560   23.7810 C   0  0  0  0  0  3  0  0  0  0  0  0
  -22.1380   -4.8940   22.6040 C   0  0  0  0  0  0  0  0  0  0  0  0
  -22.6790   -4.2840   21.5220 F   0  0  0  0  0  0  0  0  0  0  0  0
  -21.1230   -4.0650   26.0320 F   0  0  0  0  0  0  0  0  0  0  0  0
  -22.9550  -13.5780   21.2560 C   0  0  0  0  0  0  0  0  0  0  0  0
  -22.3020  -12.8420   22.1480 N   0  0  0  0  0  0  0  0  0  0  0  0
  -22.4700  -14.6150   20.8070 O   0  0  0  0  0  0  0  0  0  0  0  0
  -22.7110  -12.0030   22.5330 H   0  0  0  0  0  0  0  0  0  0  0  0
  -21.3800  -13.1220   22.4510 H   0  0  0  0  0  0  0  0  0  0  0  0
  -25.5000  -15.3140   20.3320 N   0  0  0  0  0  0  0  0  0  0  0  0
  -24.7470  -15.9590   20.5440 H   0  0  0  0  0  0  0  0  0  0  0  0
  -26.3330  -15.7790   19.9940 H   0  0  0  0  0  0  0  0  0  0  0  0
  -28.4250  -21.4270   20.3420 C   0  0  0  0  0  2  0  0  0  0  0  0
  -28.9500  -23.0870   20.2510 C   0  0  0  0  0  3  0  0  0  0  0  0
  -27.9510  -24.5250   20.1870 C   0  0  0  0  0  3  0  0  0  0  0  0
  -28.2540  -26.1030   20.2400 O   0  0  0  0  0  0  0  0  0  0  0  0
  -24.6650  -31.9270   23.2390 C   0  0  0  0  0  0  0  0  0  0  0  0
  -27.2240  -27.1470   20.1890 C   0  0  0  0  0  0  0  0  0  0  0  0
  -23.4640  -30.5340   21.6030 C   0  0  0  0  0  3  0  0  0  0  0  0
  -24.9090  -28.9570   20.1660 C   0  0  0  0  0  0  0  0  0  0  0  0
  -26.0240  -30.7820   21.4330 C   0  0  0  0  0  2  0  0  0  0  0  0
  -26.0970  -29.3840   20.7730 C   0  0  0  0  0  0  0  0  0  0  0  0
  -27.2540  -28.4990   20.7600 C   0  0  0  0  0  3  0  0  0  0  0  0
  -26.0050  -26.8480   19.5420 C   0  0  0  0  0  3  0  0  0  0  0  0
  -24.8810  -27.7050   19.5340 C   0  0  0  0  0  3  0  0  0  0  0  0
  -23.6850  -29.8610   20.2220 C   0  0  0  0  0  2  0  0  0  0  0  0
  -24.7390  -31.1050   22.1460 N   0  0  0  0  0  0  0  0  0  0  0  0
  -23.5790  -32.2080   23.7710 O   0  0  0  0  0  0  0  0  0  0  0  0
  -22.7860  -29.5250   22.5660 C   0  0  0  0  0  0  0  0  0  0  0  0
  -21.4620  -29.3310   22.4240 N   0  0  0  0  0  0  0  0  0  0  0  0
  -23.4570  -28.9200   23.4060 O   0  0  0  0  0  0  0  0  0  0  0  0
  -20.9740  -29.8730   21.7240 H   0  0  0  0  0  0  0  0  0  0  0  0
  -18.1040  -28.0410   22.8790 C   0  0  0  0  0  0  0  0  0  0  0  0
  -20.6480  -28.3830   23.1930 C   0  0  0  0  0  3  0  0  0  0  0  0
  -20.8030  -26.9450   22.6460 C   0  0  0  0  0  2  0  0  0  0  0  0
  -19.7320  -26.5740   21.6140 C   0  0  0  0  0  2  0  0  0  0  0  0
  -18.3330  -26.6880   22.2270 C   0  0  0  0  0  2  0  0  0  0  0  0
  -19.1910  -28.8430   23.3190 C   0  0  0  0  0  0  0  0  0  0  0  0
  -18.9200  -30.1050   23.8900 C   0  0  0  0  0  3  0  0  0  0  0  0
  -17.5980  -30.5670   24.0240 C   0  0  0  0  0  3  0  0  0  0  0  0
  -16.5260  -29.7650   23.5990 C   0  0  0  0  0  3  0  0  0  0  0  0
  -16.7800  -28.5020   23.0320 C   0  0  0  0  0  3  0  0  0  0  0  0
  -25.9400  -32.5670   23.8660 C   0  0  0  0  0  3  0  0  0  0  0  0
  -26.4570  -31.7950   25.1440 C   0  0  1  0  0  0  0  0  0  0  0  0
  -25.3610  -31.5450   26.2060 C   0  0  0  0  0  1  0  0  0  0  0  0
  -27.0550  -30.4240   24.7570 C   0  0  0  0  0  1  0  0  0  0  0  0
  -27.5970  -32.5980   25.8160 C   0  0  0  0  0  1  0  0  0  0  0  0
  -25.6210  -33.9630   24.2090 N   0  0  0  0  0  0  0  0  0  0  0  0
  -25.9210  -35.0260   23.4510 C   0  0  0  0  0  0  0  0  0  0  0  0
  -26.5610  -34.9350   22.4010 O   0  0  0  0  0  0  0  0  0  0  0  0
  -25.0460  -34.1060   25.0270 H   0  0  0  0  0  0  0  0  0  0  0  0
  -24.1520  -36.8000   23.1870 C   0  0  0  0  0  1  0  0  0  0  0  0
  -25.4380  -36.4090   23.9340 C   0  0  0  0  0  3  0  0  0  0  0  0
  -27.5950  -37.3300   24.6630 C   0  0  0  0  0  1  0  0  0  0  0  0
  -26.4480  -37.4770   23.7700 N   0  0  0  0  0  0  0  0  0  0  0  0
  -26.0360  -38.3920   23.9320 H   0  0  0  0  0  0  0  0  0  0  0  0
  2  3  2  0
  3  1  1  0
  3  7  1  0
  4 46  1  0
  4  1  2  0
  5  6  2  0
  5  2  1  0
  6  4  1  0
  8  5  1  0
  9  6  1  0
 10  2  1  0
 11 16  1  0
 12 13  1  0
 12 11  1  0
 14 13  1  0
 14 21  1  0
 14 15  1  0
 16 10  1  0
 16 15  1  0
 17 10  2  0
 18 19  2  0
 19 38  1  0
 20 19  1  0
 20 23  1  0
 21 22  1  0
 21 18  1  0
 22 20  2  0
 23 24  1  0
 24 25  2  0
 26 29  1  0
 26 25  1  0
 27 26  2  0
 28 27  1  0
 28 23  2  0
 29 30  1  0
 30 35  2  0
 30 31  1  0
 31 32  2  0
 32 33  1  0
 33 37  1  0
 34 33  2  0
 35 34  1  0
 36 35  1  0
 38 39  1  0
 39 42  1  0
 39 41  1  0
 40 38  2  0
 43 18  1  0
 43 44  1  0
 45 43  1  0
 47 46  1  0
 48 49  1  0
 48 47  2  0
 50 61  2  0
 51 49  1  0
 51 56  1  0
 52 60  1  0
 52 62  1  0
 53 59  1  0
 53 55  1  0
 54 60  1  0
 55 54  1  0
 56 55  2  0
 57 51  2  0
 58 57  1  0
 58 53  2  0
 59 52  1  0
 60 50  1  0
 62 64  2  0
 63 62  1  0
 65 63  1  0
 66 75  2  0
 66 71  1  0
 67 63  1  0
 67 71  1  0
 68 67  1  0
 69 70  1  0
 69 68  1  0
 70 66  1  0
 71 72  2  0
 72 73  1  0
 74 73  2  0
 75 74  1  0
 76 50  1  0
 76 81  1  0
 76 77  1  0
 77 80  1  1
 77 78  1  0
 79 77  1  0
 81 84  1  0
 82 86  1  0
 82 81  1  0
 83 82  2  0
 86 85  1  0
 88 89  1  0
 88 86  1  0
 88 87  1  0
M  ISO  4   2 100  10 100  48 101  49 101
M  END
>  <TORSDO>  (21) 
F 19

>  <SCORE>  (21) 
-13.632

>  <name>  (21) 
20

>  <ligand_id>  (21) 
20

>  <original_smiles>  (21) 
[H]c1c([H])c([H])c2c(c1[H])C([H])([H])C([H])([H])C([H])([H])C2([H])N([H])C(=O)C1([H])N(C(=O)C([H])(N([H])C(=O)C([H])(N([H])C([H])([H])[H])C([H])([H])[H])C(C([H])([H])[H])(C([H])([H])[H])C([H])([H])[H])C([H])([H])c2c([H])c(OC([H])([H])C([H])([H])C([H])([H])c3c([H])c(C([H])([H])[H])c(C(=O)N4C([H])([H])C([H])([H])C([H])([H])C([H])(n5nc(-c6c([H])c([H])c(Oc7c([H])c([H])c(F)c([H])c7F)c([H])c6[H])c(C(=O)N([H])[H])c5N([H])[H])C4([H])[H])c(C([H])([H])[H])c3C([H])([H])[H])c([H])c([H])c2C1([H])[H]

>  <smiles>  (21) 
[H]c1c([H])c([H])c2c(c1[H])C([H])([H])C([H])([H])C([H])([H])C2([H])N([H])C(=O)C1([H])N(C(=O)C([H])(N([H])C(=O)C([H])(N([H])C([H])([H])[H])C([H])([H])[H])C(C([H])([H])[H])(C([H])([H])[H])C([H])([H])[H])C([H])([H])c2c([H])c(OC([H])([H])C([H])([H])C([H])([H])c3c([H])c(C([H])([H])[H])c(C(=O)N4C([H])([H])C([H])([H])C([H])([H])C([H])(n5nc(-c6c([H])c([H])c(Oc7c([H])c([H])c(F)c([H])c7F)c([H])c6[H])c(C(=O)N([H])[H])c5N([H])[H])C4([H])[H])c(C([H])([H])[H])c3C([H])([H])[H])c([H])c([H])c2C1([H])[H]

$$$$
21:0:0
     RDKit          3D

 89 97  0  0  1  0  0  0  0  0999 V2000
  -29.3180  -21.7160   18.3660 C   0  0  0  0  0  1  0  0  0  0  0  0
  -28.7830  -21.5060   19.7950 C   0  0  0  0  0  3  0  0  0  0  0  0
  -28.8320  -18.7840   19.3780 C   0  0  0  0  0  3  0  0  0  0  0  0
  -30.0210  -19.3250   21.2800 C   0  0  0  0  0  3  0  0  0  0  0  0
  -29.9970  -16.7810   20.5570 C   0  0  0  0  0  0  0  0  0  0  0  0
  -29.2280  -19.8990   20.2130 C   0  0  0  0  0  0  0  0  0  0  0  0
  -29.1950  -17.3660   19.4970 C   0  0  0  0  0  0  0  0  0  0  0  0
  -30.3760  -17.8880   21.4420 C   0  0  0  0  0  0  0  0  0  0  0  0
  -28.7300  -16.5100   18.3350 C   0  0  0  0  0  1  0  0  0  0  0  0
  -31.2350  -17.5480   22.6460 C   0  0  0  0  0  1  0  0  0  0  0  0
  -30.6480  -15.2520   20.5620 C   0  0  0  0  0  0  0  0  0  0  0  0
  -30.5740  -12.8450   19.6780 C   0  0  0  0  0  2  0  0  0  0  0  0
  -29.7140  -12.6850   18.4010 C   0  0  0  0  0  2  0  0  0  0  0  0
  -28.2280  -12.4880   18.7570 C   0  0  0  0  0  2  0  0  0  0  0  0
  -27.7470  -13.4370   19.8840 C   0  0  0  0  0  3  0  0  0  0  0  0
  -28.7440  -13.5520   21.0520 C   0  0  0  0  0  2  0  0  0  0  0  0
  -30.0260  -13.9870   20.4850 N   0  0  0  0  0  0  0  0  0  0  0  0
  -31.8760  -15.1980   20.4230 O   0  0  0  0  0  0  0  0  0  0  0  0
  -25.3390  -13.9930   20.5160 C   0  0  0  0  0  0  0  0  0  0  0  0
  -24.2650  -13.2140   20.8470 C   0  0  0  0  0  0  0  0  0  0  0  0
  -24.7430  -11.8680   20.8650 C   0  0  0  0  0  0  0  0  0  0  0  0
  -26.3980  -13.1210   20.3380 N   0  0  0  0  0  0  0  0  0  0  0  0
  -26.0500  -11.8390   20.6180 N   0  0  0  0  0  0  0  0  0  0  0  0
  -24.0160  -10.6030   21.0440 C   0  0  0  0  0  0  0  0  0  0  0  0
  -24.4060   -9.6570   22.0180 C   0  0  0  0  0  3  0  0  0  0  0  0
  -23.6760   -8.4590   22.1840 C   0  0  0  0  0  3  0  0  0  0  0  0
  -22.5430   -8.2000   21.3750 C   0  0  0  0  0  0  0  0  0  0  0  0
  -22.1740   -9.1360   20.3920 C   0  0  0  0  0  3  0  0  0  0  0  0
  -22.9040  -10.3250   20.2250 C   0  0  0  0  0  3  0  0  0  0  0  0
  -21.7910   -7.0520   21.4460 O   0  0  0  0  0  0  0  0  0  0  0  0
  -21.6820   -6.3340   22.6100 C   0  0  0  0  0  0  0  0  0  0  0  0
  -21.1770   -6.9110   23.7960 C   0  0  0  0  0  3  0  0  0  0  0  0
  -21.0170   -6.1190   24.9510 C   0  0  0  0  0  3  0  0  0  0  0  0
  -21.3500   -4.7520   24.9200 C   0  0  0  0  0  0  0  0  0  0  0  0
  -21.8470   -4.1740   23.7390 C   0  0  0  0  0  3  0  0  0  0  0  0
  -22.0100   -4.9640   22.5860 C   0  0  0  0  0  0  0  0  0  0  0  0
  -22.4690   -4.3980   21.4440 F   0  0  0  0  0  0  0  0  0  0  0  0
  -21.1900   -3.9890   26.0270 F   0  0  0  0  0  0  0  0  0  0  0  0
  -22.8530  -13.6860   21.0340 C   0  0  0  0  0  0  0  0  0  0  0  0
  -22.0840  -12.9990   21.8730 N   0  0  0  0  0  0  0  0  0  0  0  0
  -22.4390  -14.7000   20.4740 O   0  0  0  0  0  0  0  0  0  0  0  0
  -22.4340  -12.1810   22.3500 H   0  0  0  0  0  0  0  0  0  0  0  0
  -21.1350  -13.2980   22.0440 H   0  0  0  0  0  0  0  0  0  0  0  0
  -25.4990  -15.3620   20.3280 N   0  0  0  0  0  0  0  0  0  0  0  0
  -24.7270  -16.0120   20.4300 H   0  0  0  0  0  0  0  0  0  0  0  0
  -26.3690  -15.8170   20.0800 H   0  0  0  0  0  0  0  0  0  0  0  0
  -28.9230  -23.0930   20.4960 C   0  0  0  0  0  3  0  0  0  0  0  0
  -28.0950  -24.5540   19.9840 C   0  0  0  0  0  3  0  0  0  0  0  0
  -28.3140  -26.1190   20.2540 O   0  0  0  0  0  0  0  0  0  0  0  0
  -24.7140  -31.9270   23.2160 C   0  0  0  0  0  0  0  0  0  0  0  0
  -27.2780  -27.1540   20.1640 C   0  0  0  0  0  0  0  0  0  0  0  0
  -23.5060  -30.5180   21.5960 C   0  0  0  0  0  3  0  0  0  0  0  0
  -24.9490  -28.9420   20.1500 C   0  0  0  0  0  0  0  0  0  0  0  0
  -26.0610  -30.7820   21.4020 C   0  0  0  0  0  2  0  0  0  0  0  0
  -26.1360  -29.3810   20.7490 C   0  0  0  0  0  0  0  0  0  0  0  0
  -27.2980  -28.5040   20.7390 C   0  0  0  0  0  3  0  0  0  0  0  0
  -26.0680  -26.8480   19.5060 C   0  0  0  0  0  3  0  0  0  0  0  0
  -24.9330  -27.6930   19.5100 C   0  0  0  0  0  3  0  0  0  0  0  0
  -23.7170  -29.8370   20.2160 C   0  0  0  0  0  2  0  0  0  0  0  0
  -24.7820  -31.0990   22.1240 N   0  0  0  0  0  0  0  0  0  0  0  0
  -23.6310  -32.2040   23.7540 O   0  0  0  0  0  0  0  0  0  0  0  0
  -22.8460  -29.5090   22.5700 C   0  0  0  0  0  0  0  0  0  0  0  0
  -21.5190  -29.3150   22.4550 N   0  0  0  0  0  0  0  0  0  0  0  0
  -23.5320  -28.9010   23.3970 O   0  0  0  0  0  0  0  0  0  0  0  0
  -21.0200  -29.8580   21.7650 H   0  0  0  0  0  0  0  0  0  0  0  0
  -18.1650  -28.0450   22.9790 C   0  0  0  0  0  0  0  0  0  0  0  0
  -20.7190  -28.3690   23.2380 C   0  0  0  0  0  3  0  0  0  0  0  0
  -20.8510  -26.9330   22.6810 C   0  0  0  0  0  2  0  0  0  0  0  0
  -19.7560  -26.5740   21.6720 C   0  0  0  0  0  2  0  0  0  0  0  0
  -18.3720  -26.6940   22.3160 C   0  0  0  0  0  2  0  0  0  0  0  0
  -19.2670  -28.8390   23.3970 C   0  0  0  0  0  0  0  0  0  0  0  0
  -19.0180  -30.1010   23.9790 C   0  0  0  0  0  3  0  0  0  0  0  0
  -17.7020  -30.5720   24.1440 C   0  0  0  0  0  3  0  0  0  0  0  0
  -16.6160  -29.7750   23.7400 C   0  0  0  0  0  3  0  0  0  0  0  0
  -16.8490  -28.5130   23.1650 C   0  0  0  0  0  3  0  0  0  0  0  0
  -25.9920  -32.5790   23.8250 C   0  0  0  0  0  3  0  0  0  0  0  0
  -26.5230  -31.8210   25.1040 C   0  0  1  0  0  0  0  0  0  0  0  0
  -25.4410  -31.5820   26.1840 C   0  0  0  0  0  1  0  0  0  0  0  0
  -27.1130  -30.4440   24.7220 C   0  0  0  0  0  1  0  0  0  0  0  0
  -27.6760  -32.6260   25.7490 C   0  0  0  0  0  1  0  0  0  0  0  0
  -25.6690  -33.9760   24.1610 N   0  0  0  0  0  0  0  0  0  0  0  0
  -25.9900  -35.0380   23.4090 C   0  0  0  0  0  0  0  0  0  0  0  0
  -26.6530  -34.9450   22.3730 O   0  0  0  0  0  0  0  0  0  0  0  0
  -25.0790  -34.1210   24.9670 H   0  0  0  0  0  0  0  0  0  0  0  0
  -24.2540  -36.8280   23.0720 C   0  0  0  0  0  1  0  0  0  0  0  0
  -25.4980  -36.4210   23.8790 C   0  0  0  0  0  3  0  0  0  0  0  0
  -27.6280  -37.3100   24.7160 C   0  0  0  0  0  1  0  0  0  0  0  0
  -26.5260  -37.4800   23.7730 N   0  0  0  0  0  0  0  0  0  0  0  0
  -26.1160  -38.3980   23.9260 H   0  0  0  0  0  0  0  0  0  0  0  0
  2  1  1  0
  2  6  1  0
  2 47  1  0
  3  7  2  0
  3  6  1  0
  4  8  1  0
  5 11  1  0
  5  8  2  0
  6  4  2  0
  7  5  1  0
  8 10  1  0
  9  7  1  0
 12 17  1  0
 13 14  1  0
 13 12  1  0
 15 14  1  0
 15 22  1  0
 15 16  1  0
 17 11  1  0
 17 16  1  0
 18 11  2  0
 19 20  2  0
 20 21  1  0
 20 39  1  0
 21 24  1  0
 22 19  1  0
 22 23  1  0
 23 21  2  0
 24 25  1  0
 25 26  2  0
 27 30  1  0
 27 26  1  0
 28 27  2  0
 29 28  1  0
 29 24  2  0
 30 31  1  0
 31 32  1  0
 32 33  2  0
 34 33  1  0
 34 38  1  0
 35 34  2  0
 36 31  2  0
 36 35  1  0
 37 36  1  0
 39 40  1  0
 40 43  1  0
 40 42  1  0
 41 39  2  0
 44 45  1  0
 44 19  1  0
 46 44  1  0
 48 49  1  0
 48 47  2  0
 50 61  2  0
 51 49  1  0
 51 56  1  0
 52 60  1  0
 52 62  1  0
 53 59  1  0
 53 55  1  0
 54 60  1  0
 55 54  1  0
 56 55  2  0
 57 58  1  0
 57 51  2  0
 58 53  2  0
 59 52  1  0
 60 50  1  0
 62 64  2  0
 63 62  1  0
 65 63  1  0
 66 75  2  0
 66 71  1  0
 67 63  1  0
 67 71  1  0
 68 67  1  0
 69 70  1  0
 69 68  1  0
 70 66  1  0
 71 72  2  0
 72 73  1  0
 74 73  2  0
 75 74  1  0
 76 50  1  0
 76 81  1  0
 76 77  1  0
 77 80  1  1
 77 78  1  0
 79 77  1  0
 81 84  1  0
 82 86  1  0
 82 81  1  0
 83 82  2  0
 86 85  1  0
 88 86  1  0
 88 89  1  0
 88 87  1  0
M  ISO  4   5 100  11 100  48 101  49 101
M  END
>  <TORSDO>  (22) 
F 19

>  <SCORE>  (22) 
-14.724

>  <name>  (22) 
21

>  <ligand_id>  (22) 
21

>  <original_smiles>  (22) 
[H]c1c([H])c([H])c2c(c1[H])C([H])([H])C([H])([H])C([H])([H])C2([H])N([H])C(=O)C1([H])N(C(=O)C([H])(N([H])C(=O)C([H])(N([H])C([H])([H])[H])C([H])([H])[H])C(C([H])([H])[H])(C([H])([H])[H])C([H])([H])[H])C([H])([H])c2c([H])c(OC([H])([H])C([H])([H])C([H])(c3c([H])c(C([H])([H])[H])c(C(=O)N4C([H])([H])C([H])([H])C([H])([H])C([H])(n5nc(-c6c([H])c([H])c(Oc7c([H])c([H])c(F)c([H])c7F)c([H])c6[H])c(C(=O)N([H])[H])c5N([H])[H])C4([H])[H])c(C([H])([H])[H])c3[H])C([H])([H])[H])c([H])c([H])c2C1([H])[H]

>  <smiles>  (22) 
[H]c1c([H])c([H])c2c(c1[H])C([H])([H])C([H])([H])C([H])([H])C2([H])N([H])C(=O)C1([H])N(C(=O)C([H])(N([H])C(=O)C([H])(N([H])C([H])([H])[H])C([H])([H])[H])C(C([H])([H])[H])(C([H])([H])[H])C([H])([H])[H])C([H])([H])c2c([H])c(OC([H])([H])C([H])([H])C([H])(c3c([H])c(C([H])([H])[H])c(C(=O)N4C([H])([H])C([H])([H])C([H])([H])C([H])(n5nc(-c6c([H])c([H])c(Oc7c([H])c([H])c(F)c([H])c7F)c([H])c6[H])c(C(=O)N([H])[H])c5N([H])[H])C4([H])[H])c(C([H])([H])[H])c3[H])C([H])([H])[H])c([H])c([H])c2C1([H])[H]

$$$$
22:0:0
     RDKit          3D

 91 99  0  0  1  0  0  0  0  0999 V2000
  -28.5260  -19.5090   20.3720 C   0  0  0  0  0  3  0  0  0  0  0  0
  -28.1160  -20.9570   20.3520 C   0  0  0  0  0  3  0  0  0  0  0  0
  -30.4340  -20.0220   19.3300 C   0  0  0  0  0  3  0  0  0  0  0  0
  -29.7400  -18.8240   19.8830 C   0  0  0  0  0  0  0  0  0  0  0  0
  -28.7870  -22.1580   19.8220 C   0  0  0  0  0  0  0  0  0  0  0  0
  -30.0140  -21.5030   19.2700 C   0  0  0  0  0  0  0  0  0  0  0  0
  -32.2910  -22.3700   18.8880 C   0  0  0  0  0  1  0  0  0  0  0  0
  -30.8650  -22.3710   18.5640 N   0  0  0  0  0  0  0  0  0  0  0  0
  -30.7750  -21.6480   16.1810 C   0  0  0  0  0  1  0  0  0  0  0  0
  -30.4230  -22.7240   17.2160 C   0  0  0  0  0  2  0  0  0  0  0  0
  -27.9790  -23.8070   19.6930 C   0  0  0  0  0  2  0  0  0  0  0  0
  -28.2250  -25.4870   19.9310 O   0  0  0  0  0  0  0  0  0  0  0  0
  -24.6160  -31.6160   22.8500 C   0  0  0  0  0  0  0  0  0  0  0  0
  -27.2170  -26.6410   19.8570 C   0  0  0  0  0  0  0  0  0  0  0  0
  -23.4170  -30.1490   21.2840 C   0  0  0  0  0  3  0  0  0  0  0  0
  -24.8680  -28.5390   19.8450 C   0  0  0  0  0  0  0  0  0  0  0  0
  -25.9780  -30.3990   21.0570 C   0  0  0  0  0  2  0  0  0  0  0  0
  -26.0690  -28.9640   20.4270 C   0  0  0  0  0  0  0  0  0  0  0  0
  -27.2280  -28.0390   20.4060 C   0  0  0  0  0  3  0  0  0  0  0  0
  -25.9760  -26.4070   19.2130 C   0  0  0  0  0  3  0  0  0  0  0  0
  -24.8550  -27.2840   19.2130 C   0  0  0  0  0  3  0  0  0  0  0  0
  -23.6270  -29.4390   19.9160 C   0  0  0  0  0  2  0  0  0  0  0  0
  -24.6950  -30.7530   21.7820 N   0  0  0  0  0  0  0  0  0  0  0  0
  -23.5330  -31.8850   23.3990 O   0  0  0  0  0  0  0  0  0  0  0  0
  -22.7770  -29.1600   22.2970 C   0  0  0  0  0  0  0  0  0  0  0  0
  -21.4470  -28.9610   22.2290 N   0  0  0  0  0  0  0  0  0  0  0  0
  -23.4870  -28.5710   23.1160 O   0  0  0  0  0  0  0  0  0  0  0  0
  -20.9210  -29.4850   21.5430 H   0  0  0  0  0  0  0  0  0  0  0  0
  -18.1240  -27.6520   22.8860 C   0  0  0  0  0  0  0  0  0  0  0  0
  -20.6810  -28.0150   23.0490 C   0  0  0  0  0  3  0  0  0  0  0  0
  -20.8140  -26.5740   22.5040 C   0  0  0  0  0  2  0  0  0  0  0  0
  -19.6890  -26.1900   21.5370 C   0  0  0  0  0  2  0  0  0  0  0  0
  -18.3250  -26.2980   22.2260 C   0  0  0  0  0  2  0  0  0  0  0  0
  -19.2280  -28.4640   23.2570 C   0  0  0  0  0  0  0  0  0  0  0  0
  -18.9810  -29.7260   23.8390 C   0  0  0  0  0  3  0  0  0  0  0  0
  -17.6640  -30.1780   24.0510 C   0  0  0  0  0  3  0  0  0  0  0  0
  -16.5760  -29.3650   23.6910 C   0  0  0  0  0  3  0  0  0  0  0  0
  -16.8070  -28.1030   23.1140 C   0  0  0  0  0  3  0  0  0  0  0  0
  -25.8800  -32.3170   23.4290 C   0  0  0  0  0  3  0  0  0  0  0  0
  -25.5030  -33.6870   23.8310 N   0  0  0  0  0  0  0  0  0  0  0  0
  -25.7670  -34.7970   23.1280 C   0  0  0  0  0  0  0  0  0  0  0  0
  -26.4160  -34.7800   22.0800 O   0  0  0  0  0  0  0  0  0  0  0  0
  -24.9230  -33.7690   24.6520 H   0  0  0  0  0  0  0  0  0  0  0  0
  -23.9550  -36.5340   22.9200 C   0  0  0  0  0  1  0  0  0  0  0  0
  -25.2340  -36.1380   23.6760 C   0  0  0  0  0  3  0  0  0  0  0  0
  -27.3440  -37.0820   24.5050 C   0  0  0  0  0  1  0  0  0  0  0  0
  -26.2140  -37.2430   23.5950 N   0  0  0  0  0  0  0  0  0  0  0  0
  -25.7690  -38.1340   23.7960 H   0  0  0  0  0  0  0  0  0  0  0  0
  -26.5030  -31.5500   24.6620 C   0  0  1  0  0  0  0  0  0  0  0  0
  -25.4800  -31.2250   25.7760 C   0  0  0  0  0  1  0  0  0  0  0  0
  -27.1460  -30.2160   24.2170 C   0  0  0  0  0  1  0  0  0  0  0  0
  -27.6380  -32.3970   25.2850 C   0  0  0  0  0  1  0  0  0  0  0  0
  -30.1490  -17.0610   20.2380 C   0  0  0  0  0  3  0  0  0  0  0  0
  -30.8010  -15.4840   19.5510 C   0  0  0  0  0  0  0  0  0  0  0  0
  -30.6270  -13.0260   18.5520 C   0  0  0  0  0  2  0  0  0  0  0  0
  -29.5580  -12.8550   17.4360 C   0  0  0  0  0  2  0  0  0  0  0  0
  -28.1680  -12.5850   18.0380 C   0  0  0  0  0  2  0  0  0  0  0  0
  -27.8860  -13.5170   19.2390 C   0  0  0  0  0  3  0  0  0  0  0  0
  -29.0660  -13.6050   20.2310 C   0  0  0  0  0  2  0  0  0  0  0  0
  -30.2250  -14.1530   19.4960 N   0  0  0  0  0  0  0  0  0  0  0  0
  -31.9490  -15.4370   19.0730 O   0  0  0  0  0  0  0  0  0  0  0  0
  -25.6690  -14.1380   20.3220 C   0  0  0  0  0  0  0  0  0  0  0  0
  -24.6160  -13.3950   20.7780 C   0  0  0  0  0  0  0  0  0  0  0  0
  -24.9960  -12.0270   20.6130 C   0  0  0  0  0  0  0  0  0  0  0  0
  -26.6190  -13.2280   19.8970 N   0  0  0  0  0  0  0  0  0  0  0  0
  -26.2360  -11.9470   20.1380 N   0  0  0  0  0  0  0  0  0  0  0  0
  -24.2210  -10.7950   20.8220 C   0  0  0  0  0  0  0  0  0  0  0  0
  -24.6380   -9.8060   21.7410 C   0  0  0  0  0  3  0  0  0  0  0  0
  -23.8630   -8.6430   21.9420 C   0  0  0  0  0  3  0  0  0  0  0  0
  -22.6570   -8.4610   21.2260 C   0  0  0  0  0  0  0  0  0  0  0  0
  -22.2580   -9.4370   20.2960 C   0  0  0  0  0  3  0  0  0  0  0  0
  -23.0340  -10.5910   20.0930 C   0  0  0  0  0  3  0  0  0  0  0  0
  -21.8550   -7.3500   21.3350 O   0  0  0  0  0  0  0  0  0  0  0  0
  -21.7210   -6.6730   22.5200 C   0  0  0  0  0  0  0  0  0  0  0  0
  -21.2410   -7.3050   23.6880 C   0  0  0  0  0  3  0  0  0  0  0  0
  -21.0520   -6.5550   24.8670 C   0  0  0  0  0  3  0  0  0  0  0  0
  -21.3340   -5.1760   24.8790 C   0  0  0  0  0  0  0  0  0  0  0  0
  -21.8080   -4.5440   23.7160 C   0  0  0  0  0  3  0  0  0  0  0  0
  -21.9980   -5.2900   22.5390 C   0  0  0  0  0  0  0  0  0  0  0  0
  -22.4330   -4.6720   21.4150 F   0  0  0  0  0  0  0  0  0  0  0  0
  -21.1470   -4.4530   26.0090 F   0  0  0  0  0  0  0  0  0  0  0  0
  -23.2920  -13.9280   21.2430 C   0  0  0  0  0  0  0  0  0  0  0  0
  -22.6540  -13.2450   22.1860 N   0  0  0  0  0  0  0  0  0  0  0  0
  -22.8410  -14.9860   20.8050 O   0  0  0  0  0  0  0  0  0  0  0  0
  -23.0360  -12.3890   22.5610 H   0  0  0  0  0  0  0  0  0  0  0  0
  -21.7700  -13.5820   22.5390 H   0  0  0  0  0  0  0  0  0  0  0  0
  -25.8870  -15.5080   20.2030 N   0  0  0  0  0  0  0  0  0  0  0  0
  -25.1790  -16.1890   20.4490 H   0  0  0  0  0  0  0  0  0  0  0  0
  -26.7080  -15.9250   19.7830 H   0  0  0  0  0  0  0  0  0  0  0  0
  -30.1860  -17.8790   22.7340 C   0  0  0  0  0  1  0  0  0  0  0  0
  -30.8950  -17.1180   21.6000 C   0  0  0  0  0  2  0  0  0  0  0  0
  2  1  1  0
  3  4  1  0
  4 53  1  0
  4  1  2  0
  5  2  2  0
  6  3  2  0
  6  5  1  0
  8  7  1  0
  8  6  1  0
  9 10  1  0
 10  8  1  0
 11  5  1  0
 11 12  1  0
 13 24  2  0
 14 12  1  0
 14 19  1  0
 15 23  1  0
 15 25  1  0
 16 22  1  0
 16 18  1  0
 17 23  1  0
 18 17  1  0
 19 18  2  0
 20 14  2  0
 21 20  1  0
 21 16  2  0
 22 15  1  0
 23 13  1  0
 25 27  2  0
 26 25  1  0
 28 26  1  0
 29 38  2  0
 29 34  1  0
 30 26  1  0
 30 34  1  0
 31 30  1  0
 32 33  1  0
 32 31  1  0
 33 29  1  0
 34 35  2  0
 35 36  1  0
 37 36  2  0
 38 37  1  0
 39 13  1  0
 39 40  1  0
 39 49  1  0
 40 43  1  0
 41 45  1  0
 41 40  1  0
 42 41  2  0
 45 44  1  0
 47 45  1  0
 47 48  1  0
 47 46  1  0
 49 52  1  1
 49 50  1  0
 51 49  1  0
 53 91  1  0
 54 53  1  0
 55 60  1  0
 56 57  1  0
 56 55  1  0
 58 57  1  0
 58 65  1  0
 58 59  1  0
 60 54  1  0
 60 59  1  0
 61 54  2  0
 62 63  2  0
 63 82  1  0
 64 63  1  0
 64 67  1  0
 65 66  1  0
 65 62  1  0
 66 64  2  0
 67 68  1  0
 68 69  2  0
 70 73  1  0
 70 69  1  0
 71 70  2  0
 72 71  1  0
 72 67  2  0
 73 74  1  0
 74 79  2  0
 74 75  1  0
 75 76  2  0
 76 77  1  0
 77 81  1  0
 78 77  2  0
 79 78  1  0
 80 79  1  0
 82 83  1  0
 83 86  1  0
 83 85  1  0
 84 82  2  0
 87 62  1  0
 87 88  1  0
 89 87  1  0
 91 90  1  0
M  ISO  4  11 101  12 101  53 100  54 100
M  END
>  <TORSDO>  (23) 
F 21

>  <SCORE>  (23) 
-13.309

>  <name>  (23) 
22

>  <ligand_id>  (23) 
22

>  <original_smiles>  (23) 
[H]c1c([H])c([H])c2c(c1[H])C([H])([H])C([H])([H])C([H])([H])C2([H])N([H])C(=O)C1([H])N(C(=O)C([H])(N([H])C(=O)C([H])(N([H])C([H])([H])[H])C([H])([H])[H])C(C([H])([H])[H])(C([H])([H])[H])C([H])([H])[H])C([H])([H])c2c([H])c(OC([H])([H])c3c([H])c([H])c(C([H])(C(=O)N4C([H])([H])C([H])([H])C([H])([H])C([H])(n5nc(-c6c([H])c([H])c(Oc7c([H])c([H])c(F)c([H])c7F)c([H])c6[H])c(C(=O)N([H])[H])c5N([H])[H])C4([H])[H])C([H])([H])C([H])([H])[H])c([H])c3N(C([H])([H])[H])C([H])([H])C([H])([H])[H])c([H])c([H])c2C1([H])[H]

>  <smiles>  (23) 
[H]c1c([H])c([H])c2c(c1[H])C([H])([H])C([H])([H])C([H])([H])C2([H])N([H])C(=O)C1([H])N(C(=O)C([H])(N([H])C(=O)C([H])(N([H])C([H])([H])[H])C([H])([H])[H])C(C([H])([H])[H])(C([H])([H])[H])C([H])([H])[H])C([H])([H])c2c([H])c(OC([H])([H])c3c([H])c([H])c(C([H])(C(=O)N4C([H])([H])C([H])([H])C([H])([H])C([H])(n5nc(-c6c([H])c([H])c(Oc7c([H])c([H])c(F)c([H])c7F)c([H])c6[H])c(C(=O)N([H])[H])c5N([H])[H])C4([H])[H])C([H])([H])C([H])([H])[H])c([H])c3N(C([H])([H])[H])C([H])([H])C([H])([H])[H])c([H])c([H])c2C1([H])[H]

$$$$
23:0:0
     RDKit          3D

 93102  0  0  1  0  0  0  0  0999 V2000
  -29.5520  -23.4990   21.5500 C   0  0  0  0  0  3  0  0  0  0  0  0
  -29.2490  -24.8760   21.4090 C   0  0  0  0  0  3  0  0  0  0  0  0
  -28.2340  -24.4230   19.2630 C   0  0  0  0  0  3  0  0  0  0  0  0
  -29.1990  -22.5520   20.5550 C   0  0  0  0  0  0  0  0  0  0  0  0
  -28.6120  -25.3730   20.2520 C   0  0  0  0  0  0  0  0  0  0  0  0
  -28.4910  -23.0230   19.4150 C   0  0  0  0  0  0  0  0  0  0  0  0
  -27.2880  -22.4650   17.3830 C   0  0  0  0  0  1  0  0  0  0  0  0
  -28.1310  -22.0810   18.4710 O   0  0  0  0  0  0  0  0  0  0  0  0
  -28.5360  -26.7520   20.0620 O   0  0  0  0  0  0  0  0  0  0  0  0
  -24.7030  -31.9240   23.2490 C   0  0  0  0  0  0  0  0  0  0  0  0
  -27.3510  -27.4700   20.1400 C   0  0  0  0  0  0  0  0  0  0  0  0
  -23.5040  -30.5330   21.5960 C   0  0  0  0  0  3  0  0  0  0  0  0
  -24.9610  -29.0010   20.1730 C   0  0  0  0  0  0  0  0  0  0  0  0
  -26.0340  -30.8870   21.4070 C   0  0  0  0  0  2  0  0  0  0  0  0
  -26.1210  -29.5140   20.7650 C   0  0  0  0  0  0  0  0  0  0  0  0
  -27.3180  -28.7530   20.7480 C   0  0  0  0  0  3  0  0  0  0  0  0
  -26.1690  -26.9850   19.5410 C   0  0  0  0  0  3  0  0  0  0  0  0
  -24.9770  -27.7360   19.5670 C   0  0  0  0  0  3  0  0  0  0  0  0
  -23.7260  -29.8740   20.2080 C   0  0  0  0  0  2  0  0  0  0  0  0
  -24.7660  -31.1320   22.1400 N   0  0  0  0  0  0  0  0  0  0  0  0
  -23.6210  -32.1870   23.7890 O   0  0  0  0  0  0  0  0  0  0  0  0
  -22.8540  -29.5010   22.5450 C   0  0  0  0  0  0  0  0  0  0  0  0
  -21.5320  -29.3060   22.4090 N   0  0  0  0  0  0  0  0  0  0  0  0
  -23.5370  -28.8760   23.3610 O   0  0  0  0  0  0  0  0  0  0  0  0
  -21.0380  -29.8670   21.7280 H   0  0  0  0  0  0  0  0  0  0  0  0
  -18.1710  -28.0650   22.8650 C   0  0  0  0  0  0  0  0  0  0  0  0
  -20.7210  -28.3570   23.1700 C   0  0  0  0  0  3  0  0  0  0  0  0
  -20.8500  -26.9250   22.5980 C   0  0  0  0  0  2  0  0  0  0  0  0
  -19.7650  -26.5870   21.5700 C   0  0  0  0  0  2  0  0  0  0  0  0
  -18.3730  -26.7160   22.1940 C   0  0  0  0  0  2  0  0  0  0  0  0
  -19.2730  -28.8420   23.3100 C   0  0  0  0  0  0  0  0  0  0  0  0
  -19.0280  -30.1030   23.8960 C   0  0  0  0  0  3  0  0  0  0  0  0
  -17.7140  -30.5870   24.0410 C   0  0  0  0  0  3  0  0  0  0  0  0
  -16.6260  -29.8100   23.6100 C   0  0  0  0  0  3  0  0  0  0  0  0
  -16.8540  -28.5480   23.0290 C   0  0  0  0  0  3  0  0  0  0  0  0
  -25.9860  -32.5540   23.8730 C   0  0  0  0  0  3  0  0  0  0  0  0
  -26.4950  -31.7870   25.1560 C   0  0  1  0  0  0  0  0  0  0  0  0
  -25.3940  -31.5560   26.2170 C   0  0  0  0  0  1  0  0  0  0  0  0
  -27.0790  -30.4090   24.7690 C   0  0  0  0  0  1  0  0  0  0  0  0
  -27.6420  -32.5830   25.8240 C   0  0  0  0  0  1  0  0  0  0  0  0
  -25.6780  -33.9540   24.1950 N   0  0  0  0  0  0  0  0  0  0  0  0
  -26.0230  -35.0040   23.4360 C   0  0  0  0  0  0  0  0  0  0  0  0
  -26.7000  -34.8950   22.4110 O   0  0  0  0  0  0  0  0  0  0  0  0
  -25.0720  -34.1150   24.9850 H   0  0  0  0  0  0  0  0  0  0  0  0
  -24.3010  -36.8000   23.0570 C   0  0  0  0  0  1  0  0  0  0  0  0
  -25.5320  -36.3930   23.8830 C   0  0  0  0  0  3  0  0  0  0  0  0
  -27.6590  -37.2770   24.7340 C   0  0  0  0  0  1  0  0  0  0  0  0
  -26.5680  -37.4430   23.7790 N   0  0  0  0  0  0  0  0  0  0  0  0
  -26.1610  -38.3660   23.9160 H   0  0  0  0  0  0  0  0  0  0  0  0
  -29.7160  -21.0840   20.6600 C   0  0  0  0  0  3  0  0  0  0  0  0
  -28.7680  -20.0330   21.3150 C   0  0  0  0  0  3  0  0  0  0  0  0
  -30.8150  -14.6340   20.1040 C   0  0  0  0  0  0  0  0  0  0  0  0
  -30.4790  -12.4760   18.9140 C   0  0  0  0  0  2  0  0  0  0  0  0
  -29.4440  -12.6050   17.7750 C   0  0  0  0  0  2  0  0  0  0  0  0
  -28.0210  -12.3650   18.3120 C   0  0  0  0  0  2  0  0  0  0  0  0
  -27.7200  -13.2460   19.5480 C   0  0  0  0  0  3  0  0  0  0  0  0
  -28.8480  -13.1050   20.6000 C   0  0  0  0  0  2  0  0  0  0  0  0
  -30.1250  -13.4590   19.9570 N   0  0  0  0  0  0  0  0  0  0  0  0
  -31.9570  -14.7690   19.6530 O   0  0  0  0  0  0  0  0  0  0  0  0
  -30.5290  -18.0450   21.7550 C   0  0  0  0  0  2  0  0  0  0  0  0
  -28.9480  -17.8430   19.9000 C   0  0  0  0  0  2  0  0  0  0  0  0
  -30.7130  -16.4860   21.8100 C   0  0  0  0  0  2  0  0  0  0  0  0
  -29.0130  -16.3010   19.9710 C   0  0  0  0  0  2  0  0  0  0  0  0
  -29.1350  -18.4960   21.2680 C   0  0  0  0  0  3  0  0  0  0  0  0
  -30.1600  -15.6970   20.6770 N   0  0  0  0  0  0  0  0  0  0  0  0
  -25.3850  -13.8520   20.4390 C   0  0  0  0  0  0  0  0  0  0  0  0
  -24.3430  -13.0700   20.8640 C   0  0  0  0  0  0  0  0  0  0  0  0
  -24.8000  -11.7200   20.7630 C   0  0  0  0  0  0  0  0  0  0  0  0
  -26.4080  -12.9700   20.1170 N   0  0  0  0  0  0  0  0  0  0  0  0
  -26.0650  -11.6850   20.3720 N   0  0  0  0  0  0  0  0  0  0  0  0
  -24.0870  -10.4520   20.9580 C   0  0  0  0  0  0  0  0  0  0  0  0
  -24.5410   -9.4870   21.8820 C   0  0  0  0  0  3  0  0  0  0  0  0
  -23.8300   -8.2820   22.0630 C   0  0  0  0  0  3  0  0  0  0  0  0
  -22.6530   -8.0360   21.3170 C   0  0  0  0  0  0  0  0  0  0  0  0
  -22.2190   -8.9910   20.3810 C   0  0  0  0  0  3  0  0  0  0  0  0
  -22.9310  -10.1880   20.1990 C   0  0  0  0  0  3  0  0  0  0  0  0
  -21.9120   -6.8830   21.4100 O   0  0  0  0  0  0  0  0  0  0  0  0
  -21.8280   -6.1760   22.5820 C   0  0  0  0  0  0  0  0  0  0  0  0
  -21.3510   -6.7630   23.7750 C   0  0  0  0  0  3  0  0  0  0  0  0
  -21.2180   -5.9810   24.9390 C   0  0  0  0  0  3  0  0  0  0  0  0
  -21.5470   -4.6130   24.9110 C   0  0  0  0  0  0  0  0  0  0  0  0
  -22.0140   -4.0260   23.7230 C   0  0  0  0  0  3  0  0  0  0  0  0
  -22.1520   -4.8040   22.5600 C   0  0  0  0  0  0  0  0  0  0  0  0
  -22.5820   -4.2300   21.4120 F   0  0  0  0  0  0  0  0  0  0  0  0
  -21.4110   -3.8600   26.0260 F   0  0  0  0  0  0  0  0  0  0  0  0
  -22.9670  -13.5410   21.2370 C   0  0  0  0  0  0  0  0  0  0  0  0
  -22.2920  -12.8220   22.1280 N   0  0  0  0  0  0  0  0  0  0  0  0
  -22.4980  -14.5790   20.7750 O   0  0  0  0  0  0  0  0  0  0  0  0
  -22.6870  -11.9850   22.5270 H   0  0  0  0  0  0  0  0  0  0  0  0
  -21.3710  -13.1230   22.4140 H   0  0  0  0  0  0  0  0  0  0  0  0
  -25.5330  -15.2250   20.2820 N   0  0  0  0  0  0  0  0  0  0  0  0
  -24.7710  -15.8740   20.4470 H   0  0  0  0  0  0  0  0  0  0  0  0
  -26.3460  -15.6700   19.8800 H   0  0  0  0  0  0  0  0  0  0  0  0
  2  1  1  0
  3  6  2  0
  3  5  1  0
  4 50  1  0
  4  1  2  0
  5  2  2  0
  6  4  1  0
  7  8  1  0
  8  6  1  0
  9 11  1  0
  9  5  1  0
 10 21  2  0
 11 16  1  0
 12 20  1  0
 12 22  1  0
 13 19  1  0
 13 15  1  0
 14 20  1  0
 15 14  1  0
 16 15  2  0
 17 18  1  0
 17 11  2  0
 18 13  2  0
 19 12  1  0
 20 10  1  0
 22 24  2  0
 23 22  1  0
 25 23  1  0
 26 35  2  0
 26 31  1  0
 27 23  1  0
 27 31  1  0
 28 27  1  0
 29 30  1  0
 29 28  1  0
 30 26  1  0
 31 32  2  0
 32 33  1  0
 34 33  2  0
 35 34  1  0
 36 10  1  0
 36 41  1  0
 36 37  1  0
 37 40  1  1
 37 38  1  0
 39 37  1  0
 41 44  1  0
 42 46  1  0
 42 41  1  0
 43 42  2  0
 46 45  1  0
 48 46  1  0
 48 49  1  0
 48 47  1  0
 50 51  2  0
 52 65  1  0
 53 58  1  0
 54 55  1  0
 54 53  1  0
 56 55  1  0
 56 69  1  0
 56 57  1  0
 58 52  1  0
 58 57  1  0
 59 52  2  0
 60 62  1  0
 61 63  1  0
 61 64  1  0
 63 65  1  0
 64 51  1  0
 64 60  1  0
 65 62  1  0
 66 67  2  0
 67 86  1  0
 68 67  1  0
 68 71  1  0
 69 70  1  0
 69 66  1  0
 70 68  2  0
 71 72  1  0
 72 73  2  0
 74 77  1  0
 74 73  1  0
 75 74  2  0
 76 75  1  0
 76 71  2  0
 77 78  1  0
 78 79  1  0
 79 80  2  0
 81 80  1  0
 81 85  1  0
 82 81  2  0
 83 78  2  0
 83 82  1  0
 84 83  1  0
 86 87  1  0
 87 90  1  0
 87 89  1  0
 88 86  2  0
 91 66  1  0
 91 92  1  0
 93 91  1  0
M  ISO  4   5 101   9 101  52 100  65 100
M  END
>  <TORSDO>  (24) 
F 19

>  <SCORE>  (24) 
-13.106

>  <name>  (24) 
23

>  <ligand_id>  (24) 
23

>  <original_smiles>  (24) 
[H]c1c([H])c([H])c2c(c1[H])C([H])([H])C([H])([H])C([H])([H])C2([H])N([H])C(=O)C1([H])N(C(=O)C([H])(N([H])C(=O)C([H])(N([H])C([H])([H])[H])C([H])([H])[H])C(C([H])([H])[H])(C([H])([H])[H])C([H])([H])[H])C([H])([H])c2c([H])c(Oc3c([H])c([H])c(C([H])([H])C([H])([H])C4([H])C([H])([H])C([H])([H])N(C(=O)N5C([H])([H])C([H])([H])C([H])([H])C([H])(n6nc(-c7c([H])c([H])c(Oc8c([H])c([H])c(F)c([H])c8F)c([H])c7[H])c(C(=O)N([H])[H])c6N([H])[H])C5([H])[H])C([H])([H])C4([H])[H])c(OC([H])([H])[H])c3[H])c([H])c([H])c2C1([H])[H]

>  <smiles>  (24) 
[H]c1c([H])c([H])c2c(c1[H])C([H])([H])C([H])([H])C([H])([H])C2([H])N([H])C(=O)C1([H])N(C(=O)C([H])(N([H])C(=O)C([H])(N([H])C([H])([H])[H])C([H])([H])[H])C(C([H])([H])[H])(C([H])([H])[H])C([H])([H])[H])C([H])([H])c2c([H])c(Oc3c([H])c([H])c(C([H])([H])C([H])([H])C4([H])C([H])([H])C([H])([H])N(C(=O)N5C([H])([H])C([H])([H])C([H])([H])C([H])(n6nc(-c7c([H])c([H])c(Oc8c([H])c([H])c(F)c([H])c8F)c([H])c7[H])c(C(=O)N([H])[H])c6N([H])[H])C5([H])[H])C([H])([H])C4([H])[H])c(OC([H])([H])[H])c3[H])c([H])c([H])c2C1([H])[H]

$$$$
24:0:0
     RDKit          3D

 87 93  0  0  1  0  0  0  0  0999 V2000
  -30.0070  -20.9780   20.6420 C   0  0  0  0  0  3  0  0  0  0  0  0
  -28.3660  -20.6510   19.3180 C   0  0  0  0  0  3  0  0  0  0  0  0
  -29.6570  -22.5160   20.6640 C   0  0  0  0  0  3  0  0  0  0  0  0
  -28.0120  -22.1940   19.3410 C   0  0  0  0  0  3  0  0  0  0  0  0
  -29.4390  -19.7440   19.9470 C   0  0  0  0  0  3  0  0  0  0  0  0
  -28.5930  -23.4260   20.0360 C   0  0  0  0  0  0  0  0  0  0  0  0
  -28.1280  -17.3940   20.0230 C   0  0  0  0  0  1  0  0  0  0  0  0
  -29.6200  -17.7500   20.1240 C   0  0  0  0  0  2  0  0  0  0  0  0
  -30.3900  -15.9760   19.5480 C   0  0  0  0  0  2  0  0  0  0  0  0
  -30.4190  -13.3860   18.5650 C   0  0  0  0  0  2  0  0  0  0  0  0
  -29.3730  -12.9400   17.4860 C   0  0  0  0  0  2  0  0  0  0  0  0
  -28.0490  -12.5080   18.1290 C   0  0  0  0  0  2  0  0  0  0  0  0
  -27.6770  -13.4710   19.2710 C   0  0  0  0  0  3  0  0  0  0  0  0
  -28.8510  -13.7990   20.2330 C   0  0  0  0  0  2  0  0  0  0  0  0
  -29.9080  -14.5430   19.4740 N   0  0  0  0  0  0  0  0  0  0  0  0
  -31.5660  -15.8660   19.1240 O   0  0  0  0  0  1  0  0  0  0  0  0
  -25.4870  -13.9770   20.4460 C   0  0  0  0  0  0  0  0  0  0  0  0
  -24.4740  -13.1970   20.9160 C   0  0  0  0  0  0  0  0  0  0  0  0
  -24.8770  -11.8440   20.6940 C   0  0  0  0  0  0  0  0  0  0  0  0
  -26.4490  -13.1070   19.9660 N   0  0  0  0  0  0  0  0  0  0  0  0
  -26.1040  -11.8070   20.1780 N   0  0  0  0  0  0  0  0  0  0  0  0
  -24.1270  -10.5940   20.8830 C   0  0  0  0  0  0  0  0  0  0  0  0
  -24.5640   -9.5960   21.7810 C   0  0  0  0  0  3  0  0  0  0  0  0
  -23.8100   -8.4170   21.9630 C   0  0  0  0  0  3  0  0  0  0  0  0
  -22.6040   -8.2250   21.2490 C   0  0  0  0  0  0  0  0  0  0  0  0
  -22.1840   -9.2120   20.3390 C   0  0  0  0  0  3  0  0  0  0  0  0
  -22.9390  -10.3820   20.1540 C   0  0  0  0  0  3  0  0  0  0  0  0
  -21.8210   -7.1010   21.3430 O   0  0  0  0  0  0  0  0  0  0  0  0
  -21.6760   -6.4220   22.5270 C   0  0  0  0  0  0  0  0  0  0  0  0
  -21.1650   -7.0470   23.6860 C   0  0  0  0  0  3  0  0  0  0  0  0
  -20.9670   -6.2950   24.8610 C   0  0  0  0  0  3  0  0  0  0  0  0
  -21.2680   -4.9200   24.8790 C   0  0  0  0  0  0  0  0  0  0  0  0
  -21.7700   -4.2960   23.7250 C   0  0  0  0  0  3  0  0  0  0  0  0
  -21.9710   -5.0430   22.5510 C   0  0  0  0  0  0  0  0  0  0  0  0
  -22.4340   -4.4320   21.4350 F   0  0  0  0  0  0  0  0  0  0  0  0
  -21.0700   -4.1970   26.0060 F   0  0  0  0  0  0  0  0  0  0  0  0
  -23.1580  -13.6910   21.4390 C   0  0  0  0  0  0  0  0  0  0  0  0
  -22.5570  -12.9650   22.3730 N   0  0  0  0  0  0  0  0  0  0  0  0
  -22.6820  -14.7600   21.0550 O   0  0  0  0  0  0  0  0  0  0  0  0
  -22.9560  -12.0980   22.7020 H   0  0  0  0  0  0  0  0  0  0  0  0
  -21.6800  -13.2790   22.7660 H   0  0  0  0  0  0  0  0  0  0  0  0
  -25.6530  -15.3540   20.3520 N   0  0  0  0  0  0  0  0  0  0  0  0
  -24.9230  -16.0030   20.6320 H   0  0  0  0  0  0  0  0  0  0  0  0
  -26.4180  -15.8140   19.8790 H   0  0  0  0  0  0  0  0  0  0  0  0
  -29.4540  -18.4680   22.6950 C   0  0  0  0  0  1  0  0  0  0  0  0
  -30.1520  -17.6570   21.5880 C   0  0  0  0  0  2  0  0  0  0  0  0
  -28.3970  -25.1240   20.0770 O   0  0  0  0  0  0  0  0  0  0  0  0
  -24.6450  -31.5800   22.9440 C   0  0  0  0  0  0  0  0  0  0  0  0
  -27.3730  -26.3800   20.0420 C   0  0  0  0  0  0  0  0  0  0  0  0
  -23.5420  -30.1460   21.2840 C   0  0  0  0  0  3  0  0  0  0  0  0
  -25.0670  -28.4930   19.9210 C   0  0  0  0  0  0  0  0  0  0  0  0
  -26.1270  -30.2960   21.2470 C   0  0  0  0  0  2  0  0  0  0  0  0
  -26.2400  -28.8390   20.6000 C   0  0  0  0  0  0  0  0  0  0  0  0
  -27.3610  -27.8160   20.6240 C   0  0  0  0  0  3  0  0  0  0  0  0
  -26.1580  -26.3050   19.2950 C   0  0  0  0  0  3  0  0  0  0  0  0
  -25.0780  -27.2560   19.2460 C   0  0  0  0  0  3  0  0  0  0  0  0
  -23.8440  -29.4380   19.9280 C   0  0  0  0  0  2  0  0  0  0  0  0
  -24.7960  -30.7150   21.8770 N   0  0  0  0  0  0  0  0  0  0  0  0
  -23.5290  -31.8590   23.4200 O   0  0  0  0  0  0  0  0  0  0  0  0
  -22.8120  -29.1680   22.2450 C   0  0  0  0  0  0  0  0  0  0  0  0
  -21.4780  -29.0170   22.1160 N   0  0  0  0  0  0  0  0  0  0  0  0
  -23.4620  -28.5400   23.0840 O   0  0  0  0  0  0  0  0  0  0  0  0
  -21.0000  -29.5750   21.4240 H   0  0  0  0  0  0  0  0  0  0  0  0
  -18.0900  -27.7960   22.6390 C   0  0  0  0  0  0  0  0  0  0  0  0
  -20.6540  -28.0620   22.8730 C   0  0  0  0  0  3  0  0  0  0  0  0
  -20.7470  -26.6440   22.2620 C   0  0  0  0  0  2  0  0  0  0  0  0
  -19.6340  -26.3490   21.2520 C   0  0  0  0  0  2  0  0  0  0  0  0
  -18.2610  -26.4700   21.9160 C   0  0  0  0  0  2  0  0  0  0  0  0
  -19.2130  -28.5510   23.0740 C   0  0  0  0  0  0  0  0  0  0  0  0
  -18.9960  -29.7880   23.7170 C   0  0  0  0  0  3  0  0  0  0  0  0
  -17.6910  -30.2740   23.9260 C   0  0  0  0  0  3  0  0  0  0  0  0
  -16.5850  -29.5180   23.5020 C   0  0  0  0  0  3  0  0  0  0  0  0
  -16.7840  -28.2800   22.8660 C   0  0  0  0  0  3  0  0  0  0  0  0
  -25.8650  -32.2770   23.6240 C   0  0  0  0  0  3  0  0  0  0  0  0
  -25.4650  -33.6460   24.0150 N   0  0  0  0  0  0  0  0  0  0  0  0
  -25.7460  -34.7630   23.3290 C   0  0  0  0  0  0  0  0  0  0  0  0
  -26.4190  -34.7480   22.2950 O   0  0  0  0  0  0  0  0  0  0  0  0
  -24.8590  -33.7220   24.8200 H   0  0  0  0  0  0  0  0  0  0  0  0
  -23.9300  -36.4990   23.1070 C   0  0  0  0  0  1  0  0  0  0  0  0
  -25.2070  -36.1060   23.8690 C   0  0  0  0  0  3  0  0  0  0  0  0
  -27.2900  -37.0870   24.7310 C   0  0  0  0  0  1  0  0  0  0  0  0
  -26.1950  -37.2040   23.7710 N   0  0  0  0  0  0  0  0  0  0  0  0
  -25.7540  -38.1110   23.8890 H   0  0  0  0  0  0  0  0  0  0  0  0
  -26.3900  -31.4990   24.8950 C   0  0  1  0  0  0  0  0  0  0  0  0
  -25.2880  -31.1820   25.9330 C   0  0  0  0  0  1  0  0  0  0  0  0
  -27.0490  -30.1610   24.4980 C   0  0  0  0  0  1  0  0  0  0  0  0
  -27.4860  -32.3310   25.6010 C   0  0  0  0  0  1  0  0  0  0  0  0
  1  3  1  0
  2  4  2  0
  2  5  1  0
  4  6  1  0
  5  1  2  0
  6 47  1  0
  6  3  2  0
  7  8  1  0
  8 46  1  0
 10 15  1  0
 11 12  1  0
 11 10  1  0
 13 12  1  0
 13 20  1  0
 13 14  1  0
 15  9  1  0
 15 14  1  0
 16  9  1  0
 17 18  2  0
 18 37  1  0
 19 22  1  0
 19 18  1  0
 20 21  1  0
 20 17  1  0
 21 19  2  0
 22 23  1  0
 23 24  2  0
 25 28  1  0
 25 24  1  0
 26 25  2  0
 27 26  1  0
 27 22  2  0
 28 29  1  0
 29 34  2  0
 29 30  1  0
 30 31  2  0
 31 32  1  0
 32 36  1  0
 33 32  2  0
 34 33  1  0
 35 34  1  0
 37 38  1  0
 38 40  1  0
 38 41  1  0
 39 37  2  0
 42 17  1  0
 42 43  1  0
 44 42  1  0
 46 45  1  0
 48 59  2  0
 49 47  1  0
 49 54  1  0
 50 58  1  0
 50 60  1  0
 51 57  1  0
 51 53  1  0
 52 58  1  0
 53 54  2  0
 53 52  1  0
 55 49  2  0
 56 55  1  0
 56 51  2  0
 57 50  1  0
 58 48  1  0
 60 62  2  0
 61 60  1  0
 63 61  1  0
 64 73  2  0
 64 69  1  0
 65 61  1  0
 65 69  1  0
 66 65  1  0
 67 68  1  0
 67 66  1  0
 68 64  1  0
 69 70  2  0
 70 71  1  0
 72 71  2  0
 73 72  1  0
 74 48  1  0
 74 75  1  0
 74 84  1  0
 75 78  1  0
 76 80  1  0
 76 75  1  0
 77 76  2  0
 80 79  1  0
 82 80  1  0
 82 83  1  0
 82 81  1  0
 84 87  1  1
 84 85  1  0
 86 84  1  0
M  ISO  4   6 101   8 100   9 100  47 101
M  END
>  <TORSDO>  (25) 
F 18

>  <SCORE>  (25) 
-12.279

>  <name>  (25) 
24

>  <ligand_id>  (25) 
24

>  <original_smiles>  (25) 
[H]c1c([H])c([H])c2c(c1[H])C([H])([H])C([H])([H])C([H])([H])C2([H])N([H])C(=O)C1([H])N(C(=O)C([H])(N([H])C(=O)C([H])(N([H])C([H])([H])[H])C([H])([H])[H])C(C([H])([H])[H])(C([H])([H])[H])C([H])([H])[H])C([H])([H])c2c([H])c(Oc3c([H])c([H])c(C(C(=O)N4C([H])([H])C([H])([H])C([H])([H])C([H])(n5nc(-c6c([H])c([H])c(Oc7c([H])c([H])c(F)c([H])c7F)c([H])c6[H])c(C(=O)N([H])[H])c5N([H])[H])C4([H])[H])(C([H])([H])[H])C([H])([H])C([H])([H])[H])c([H])c3[H])c([H])c([H])c2C1([H])[H]

>  <smiles>  (25) 
[H]c1c([H])c([H])c2c(c1[H])C([H])([H])C([H])([H])C([H])([H])C2([H])N([H])C(=O)C1([H])N(C(=O)C([H])(N([H])C(=O)C([H])(N([H])C([H])([H])[H])C([H])([H])[H])C(C([H])([H])[H])(C([H])([H])[H])C([H])([H])[H])C([H])([H])c2c([H])c(Oc3c([H])c([H])c(C(C(=O)N4C([H])([H])C([H])([H])C([H])([H])C([H])(n5nc(-c6c([H])c([H])c(Oc7c([H])c([H])c(F)c([H])c7F)c([H])c6[H])c(C(=O)N([H])[H])c5N([H])[H])C4([H])[H])(C([H])([H])[H])C([H])([H])C([H])([H])[H])c([H])c3[H])c([H])c([H])c2C1([H])[H]

$$$$
25:0:0
     RDKit          3D

 92100  0  0  1  0  0  0  0  0999 V2000
  -28.1350  -17.4230   19.1960 C   0  0  0  0  0  3  0  0  0  0  0  0
  -30.0810  -16.4180   20.3610 C   0  0  0  0  0  0  0  0  0  0  0  0
  -29.1130  -16.4150   19.3060 C   0  0  0  0  0  0  0  0  0  0  0  0
  -30.4210  -17.8370   20.7110 C   0  0  0  0  0  0  0  0  0  0  0  0
  -29.5580  -19.0110   20.3540 C   0  0  0  0  0  0  0  0  0  0  0  0
  -28.2970  -18.6680   19.8190 C   0  0  0  0  0  0  0  0  0  0  0  0
  -29.2040  -15.4950   18.0930 C   0  0  0  0  0  1  0  0  0  0  0  0
  -30.8370  -15.0400   20.7900 C   0  0  0  0  0  0  0  0  0  0  0  0
  -30.8450  -12.5450   20.3770 C   0  0  0  0  0  2  0  0  0  0  0  0
  -30.0980  -12.1310   19.0870 C   0  0  0  0  0  2  0  0  0  0  0  0
  -28.5660  -12.0710   19.3090 C   0  0  0  0  0  2  0  0  0  0  0  0
  -27.9970  -13.1630   20.2640 C   0  0  0  0  0  3  0  0  0  0  0  0
  -28.9020  -13.4620   21.4670 C   0  0  0  0  0  2  0  0  0  0  0  0
  -30.2310  -13.7850   20.9360 N   0  0  0  0  0  0  0  0  0  0  0  0
  -32.0650  -15.0290   20.8220 O   0  0  0  0  0  0  0  0  0  0  0  0
  -25.5820  -13.8730   20.7080 C   0  0  0  0  0  0  0  0  0  0  0  0
  -24.4440  -13.1480   20.9390 C   0  0  0  0  0  0  0  0  0  0  0  0
  -24.8580  -11.7820   20.9970 C   0  0  0  0  0  0  0  0  0  0  0  0
  -26.6060  -12.9430   20.6190 N   0  0  0  0  0  0  0  0  0  0  0  0
  -26.1710  -11.6840   20.8560 N   0  0  0  0  0  0  0  0  0  0  0  0
  -24.0790  -10.5510   21.1260 C   0  0  0  0  0  0  0  0  0  0  0  0
  -24.4000   -9.5720   22.0920 C   0  0  0  0  0  3  0  0  0  0  0  0
  -23.6250   -8.3990   22.1990 C   0  0  0  0  0  3  0  0  0  0  0  0
  -22.5160   -8.1990   21.3450 C   0  0  0  0  0  0  0  0  0  0  0  0
  -22.2260   -9.1620   20.3650 C   0  0  0  0  0  3  0  0  0  0  0  0
  -23.0010  -10.3270   20.2520 C   0  0  0  0  0  3  0  0  0  0  0  0
  -21.7170   -7.0820   21.3600 O   0  0  0  0  0  0  0  0  0  0  0  0
  -21.5780   -6.3180   22.4890 C   0  0  0  0  0  0  0  0  0  0  0  0
  -21.0750   -6.8540   23.6930 C   0  0  0  0  0  3  0  0  0  0  0  0
  -20.8840   -6.0180   24.8100 C   0  0  0  0  0  3  0  0  0  0  0  0
  -21.1830   -4.6450   24.7240 C   0  0  0  0  0  0  0  0  0  0  0  0
  -21.6740   -4.1070   23.5210 C   0  0  0  0  0  3  0  0  0  0  0  0
  -21.8690   -4.9420   22.4080 C   0  0  0  0  0  0  0  0  0  0  0  0
  -22.3210   -4.4130   21.2450 F   0  0  0  0  0  0  0  0  0  0  0  0
  -20.9960   -3.8390   25.7950 F   0  0  0  0  0  0  0  0  0  0  0  0
  -23.0480  -13.6780   21.0280 C   0  0  0  0  0  0  0  0  0  0  0  0
  -22.2080  -13.0510   21.8430 N   0  0  0  0  0  0  0  0  0  0  0  0
  -22.7050  -14.6860   20.4100 O   0  0  0  0  0  0  0  0  0  0  0  0
  -22.5060  -12.2370   22.3620 H   0  0  0  0  0  0  0  0  0  0  0  0
  -21.2590  -13.3860   21.9470 H   0  0  0  0  0  0  0  0  0  0  0  0
  -25.8410  -15.2310   20.5470 N   0  0  0  0  0  0  0  0  0  0  0  0
  -25.1300  -15.9500   20.5850 H   0  0  0  0  0  0  0  0  0  0  0  0
  -26.7810  -15.6050   20.4730 H   0  0  0  0  0  0  0  0  0  0  0  0
  -33.0200  -18.1860   20.5940 C   0  0  0  0  0  1  0  0  0  0  0  0
  -31.7310  -18.1030   21.4690 C   0  0  0  0  0  2  0  0  0  0  0  0
  -25.9640  -19.0370   19.9030 C   0  0  0  0  0  1  0  0  0  0  0  0
  -27.2750  -19.5860   19.7640 O   0  0  0  0  0  0  0  0  0  0  0  0
  -29.8770  -20.6140   20.4990 C   0  0  0  0  0  3  0  0  0  0  0  0
  -28.8710  -21.8530   19.9600 C   0  0  0  0  0  3  0  0  0  0  0  0
  -29.2050  -23.4890   19.9050 C   0  0  0  0  0  3  0  0  0  0  0  0
  -28.0600  -24.6610   19.5940 C   0  0  0  0  0  3  0  0  0  0  0  0
  -28.2700  -26.1870   19.5240 O   0  0  0  0  0  0  0  0  0  0  0  0
  -24.5150  -31.5040   22.8740 C   0  0  0  0  0  0  0  0  0  0  0  0
  -27.1540  -27.0910   19.5270 C   0  0  0  0  0  0  0  0  0  0  0  0
  -23.3020  -30.1410   21.2200 C   0  0  0  0  0  3  0  0  0  0  0  0
  -24.7480  -28.7020   19.6650 C   0  0  0  0  0  0  0  0  0  0  0  0
  -25.8320  -30.5350   20.9540 C   0  0  0  0  0  2  0  0  0  0  0  0
  -25.9320  -29.1890   20.2300 C   0  0  0  0  0  0  0  0  0  0  0  0
  -27.1400  -28.4070   20.1340 C   0  0  0  0  0  3  0  0  0  0  0  0
  -25.9340  -26.6930   18.9410 C   0  0  0  0  0  3  0  0  0  0  0  0
  -24.7580  -27.4660   19.0040 C   0  0  0  0  0  3  0  0  0  0  0  0
  -23.4850  -29.5300   19.8090 C   0  0  0  0  0  2  0  0  0  0  0  0
  -24.5710  -30.7470   21.7360 N   0  0  0  0  0  0  0  0  0  0  0  0
  -23.4420  -31.7150   23.4580 O   0  0  0  0  0  0  0  0  0  0  0  0
  -22.7040  -29.0640   22.1590 C   0  0  0  0  0  0  0  0  0  0  0  0
  -21.3830  -28.8350   22.0660 N   0  0  0  0  0  0  0  0  0  0  0  0
  -23.4280  -28.4360   22.9360 O   0  0  0  0  0  0  0  0  0  0  0  0
  -20.8480  -29.4090   21.4300 H   0  0  0  0  0  0  0  0  0  0  0  0
  -18.0840  -27.4700   22.6360 C   0  0  0  0  0  0  0  0  0  0  0  0
  -20.6350  -27.8290   22.8210 C   0  0  0  0  0  3  0  0  0  0  0  0
  -20.7730  -26.4250   22.1870 C   0  0  0  0  0  2  0  0  0  0  0  0
  -19.6460  -26.0920   21.2010 C   0  0  0  0  0  2  0  0  0  0  0  0
  -18.2750  -26.1620   21.8830 C   0  0  0  0  0  2  0  0  0  0  0  0
  -19.1850  -28.2600   23.0590 C   0  0  0  0  0  0  0  0  0  0  0  0
  -18.9410  -29.4880   23.7110 C   0  0  0  0  0  3  0  0  0  0  0  0
  -17.6270  -29.9320   23.9380 C   0  0  0  0  0  3  0  0  0  0  0  0
  -16.5390  -29.1430   23.5310 C   0  0  0  0  0  3  0  0  0  0  0  0
  -16.7700  -27.9080   22.8950 C   0  0  0  0  0  3  0  0  0  0  0  0
  -25.7950  -32.1560   23.4820 C   0  0  0  0  0  3  0  0  0  0  0  0
  -25.4390  -33.5200   23.9050 N   0  0  0  0  0  0  0  0  0  0  0  0
  -25.7730  -34.6370   23.2460 C   0  0  0  0  0  0  0  0  0  0  0  0
  -26.4750  -34.6280   22.2290 O   0  0  0  0  0  0  0  0  0  0  0  0
  -24.8040  -33.5990   24.6860 H   0  0  0  0  0  0  0  0  0  0  0  0
  -24.0370  -36.4360   22.9550 C   0  0  0  0  0  1  0  0  0  0  0  0
  -25.2470  -35.9790   23.7890 C   0  0  0  0  0  3  0  0  0  0  0  0
  -27.3210  -36.8310   24.7940 C   0  0  0  0  0  1  0  0  0  0  0  0
  -26.2670  -37.0510   23.8050 N   0  0  0  0  0  0  0  0  0  0  0  0
  -25.8430  -37.9590   23.9800 H   0  0  0  0  0  0  0  0  0  0  0  0
  -26.3830  -31.3420   24.7020 C   0  0  1  0  0  0  0  0  0  0  0  0
  -25.3410  -31.0270   25.8010 C   0  0  0  0  0  1  0  0  0  0  0  0
  -26.9870  -29.9980   24.2310 C   0  0  0  0  0  1  0  0  0  0  0  0
  -27.5380  -32.1380   25.3530 C   0  0  0  0  0  1  0  0  0  0  0  0
  1  3  2  0
  1  6  1  0
  2  4  2  0
  2  8  1  0
  3  2  1  0
  4 45  1  0
  5 48  1  0
  5  4  1  0
  6  5  2  0
  7  3  1  0
  8 15  2  0
  8 14  1  0
  9 14  1  0
 10 11  1  0
 10  9  1  0
 12 11  1  0
 12 19  1  0
 12 13  1  0
 14 13  1  0
 16 17  2  0
 17 18  1  0
 17 36  1  0
 18 21  1  0
 19 16  1  0
 19 20  1  0
 20 18  2  0
 21 22  1  0
 22 23  2  0
 24 27  1  0
 24 23  1  0
 25 24  2  0
 26 25  1  0
 26 21  2  0
 27 28  1  0
 28 29  1  0
 29 30  2  0
 31 30  1  0
 31 35  1  0
 32 31  2  0
 33 28  2  0
 33 32  1  0
 34 33  1  0
 36 37  1  0
 37 40  1  0
 37 39  1  0
 38 36  2  0
 41 42  1  0
 41 16  1  0
 43 41  1  0
 44 45  1  0
 47  6  1  0
 47 46  1  0
 49 48  2  0
 50 49  1  0
 51 50  2  0
 52 54  1  0
 52 51  1  0
 53 64  2  0
 54 59  1  0
 55 63  1  0
 55 65  1  0
 56 62  1  0
 56 58  1  0
 57 63  1  0
 58 57  1  0
 59 58  2  0
 60 61  1  0
 60 54  2  0
 61 56  2  0
 62 55  1  0
 63 53  1  0
 65 67  2  0
 66 65  1  0
 68 66  1  0
 69 78  2  0
 69 74  1  0
 70 66  1  0
 70 74  1  0
 71 70  1  0
 72 73  1  0
 72 71  1  0
 73 69  1  0
 74 75  2  0
 75 76  1  0
 77 76  2  0
 78 77  1  0
 79 53  1  0
 79 80  1  0
 79 89  1  0
 80 83  1  0
 81 85  1  0
 81 80  1  0
 82 81  2  0
 85 84  1  0
 85 87  1  0
 87 88  1  0
 87 86  1  0
 89 92  1  1
 89 90  1  0
 91 89  1  0
M  ISO  4   2 100   8 100  51 101  52 101
M  END
>  <TORSDO>  (26) 
F 22

>  <SCORE>  (26) 
-9.931

>  <name>  (26) 
25

>  <ligand_id>  (26) 
25

>  <original_smiles>  (26) 
[H]c1c([H])c([H])c2c(c1[H])C([H])([H])C([H])([H])C([H])([H])C2([H])N([H])C(=O)C1([H])N(C(=O)C([H])(N([H])C(=O)C([H])(N([H])C([H])([H])[H])C([H])([H])[H])C(C([H])([H])[H])(C([H])([H])[H])C([H])([H])[H])C([H])([H])c2c([H])c(OC([H])([H])C([H])([H])C([H])([H])C([H])([H])c3c(OC([H])([H])[H])c([H])c(C([H])([H])[H])c(C(=O)N4C([H])([H])C([H])([H])C([H])([H])C([H])(n5nc(-c6c([H])c([H])c(Oc7c([H])c([H])c(F)c([H])c7F)c([H])c6[H])c(C(=O)N([H])[H])c5N([H])[H])C4([H])[H])c3C([H])([H])C([H])([H])[H])c([H])c([H])c2C1([H])[H]

>  <smiles>  (26) 
[H]c1c([H])c([H])c2c(c1[H])C([H])([H])C([H])([H])C([H])([H])C2([H])N([H])C(=O)C1([H])N(C(=O)C([H])(N([H])C(=O)C([H])(N([H])C([H])([H])[H])C([H])([H])[H])C(C([H])([H])[H])(C([H])([H])[H])C([H])([H])[H])C([H])([H])c2c([H])c(OC([H])([H])C([H])([H])C([H])([H])C([H])([H])c3c(OC([H])([H])[H])c([H])c(C([H])([H])[H])c(C(=O)N4C([H])([H])C([H])([H])C([H])([H])C([H])(n5nc(-c6c([H])c([H])c(Oc7c([H])c([H])c(F)c([H])c7F)c([H])c6[H])c(C(=O)N([H])[H])c5N([H])[H])C4([H])[H])c3C([H])([H])C([H])([H])[H])c([H])c([H])c2C1([H])[H]

$$$$
26:0:0
     RDKit          3D

 91 99  0  0  1  0  0  0  0  0999 V2000
  -30.5040  -17.3600   19.5140 C   0  0  0  0  0  0  0  0  0  0  0  0
  -30.4760  -17.7010   20.9120 C   0  0  0  0  0  0  0  0  0  0  0  0
  -30.1360  -18.7500   18.7610 C   0  0  0  0  0  0  0  0  0  0  0  0
  -29.9770  -18.9520   21.4450 C   0  0  0  0  0  0  0  0  0  0  0  0
  -29.6980  -20.2230   19.2830 C   0  0  0  0  0  0  0  0  0  0  0  0
  -29.6290  -20.1210   20.6870 C   0  0  0  0  0  0  0  0  0  0  0  0
  -31.1220  -16.7650   21.9410 C   0  0  0  0  0  1  0  0  0  0  0  0
  -29.8460  -19.0780   22.9700 C   0  0  0  0  0  1  0  0  0  0  0  0
  -31.0750  -15.7140   19.0680 C   0  0  0  0  0  0  0  0  0  0  0  0
  -30.9450  -13.1320   18.3180 C   0  0  0  0  0  2  0  0  0  0  0  0
  -29.8640  -12.7600   17.2560 C   0  0  0  0  0  2  0  0  0  0  0  0
  -28.5050  -12.4780   17.9140 C   0  0  0  0  0  2  0  0  0  0  0  0
  -28.2110  -13.5170   19.0140 C   0  0  0  0  0  3  0  0  0  0  0  0
  -29.4050  -13.7750   19.9540 C   0  0  0  0  0  2  0  0  0  0  0  0
  -30.5180  -14.3500   19.1570 N   0  0  0  0  0  0  0  0  0  0  0  0
  -32.2040  -15.5890   18.5520 O   0  0  0  0  0  0  0  0  0  0  0  0
  -26.1110  -14.1900   20.2760 C   0  0  0  0  0  0  0  0  0  0  0  0
  -25.0530  -13.4830   20.7700 C   0  0  0  0  0  0  0  0  0  0  0  0
  -25.3470  -12.1060   20.5240 C   0  0  0  0  0  0  0  0  0  0  0  0
  -26.9770  -13.2540   19.7440 N   0  0  0  0  0  0  0  0  0  0  0  0
  -26.5460  -11.9830   19.9590 N   0  0  0  0  0  0  0  0  0  0  0  0
  -24.5230  -10.9070   20.7370 C   0  0  0  0  0  0  0  0  0  0  0  0
  -24.9410   -9.8620   21.5890 C   0  0  0  0  0  3  0  0  0  0  0  0
  -24.1190   -8.7320   21.7950 C   0  0  0  0  0  3  0  0  0  0  0  0
  -22.8630   -8.6410   21.1480 C   0  0  0  0  0  0  0  0  0  0  0  0
  -22.4610   -9.6760   20.2840 C   0  0  0  0  0  3  0  0  0  0  0  0
  -23.2820  -10.7950   20.0770 C   0  0  0  0  0  3  0  0  0  0  0  0
  -22.0110   -7.5700   21.2660 O   0  0  0  0  0  0  0  0  0  0  0  0
  -21.8930   -6.8690   22.4400 C   0  0  0  0  0  0  0  0  0  0  0  0
  -21.4840   -7.4900   23.6410 C   0  0  0  0  0  3  0  0  0  0  0  0
  -21.3090   -6.7190   24.8070 C   0  0  0  0  0  3  0  0  0  0  0  0
  -21.5330   -5.3300   24.7740 C   0  0  0  0  0  0  0  0  0  0  0  0
  -21.9370   -4.7100   23.5780 C   0  0  0  0  0  3  0  0  0  0  0  0
  -22.1130   -5.4780   22.4140 C   0  0  0  0  0  0  0  0  0  0  0  0
  -22.4800   -4.8710   21.2600 F   0  0  0  0  0  0  0  0  0  0  0  0
  -21.3570   -4.5880   25.8920 F   0  0  0  0  0  0  0  0  0  0  0  0
  -23.7930  -14.0630   21.3420 C   0  0  0  0  0  0  0  0  0  0  0  0
  -23.1600  -13.3580   22.2730 N   0  0  0  0  0  0  0  0  0  0  0  0
  -23.3900  -15.1740   21.0020 O   0  0  0  0  0  0  0  0  0  0  0  0
  -23.5010  -12.4550   22.5670 H   0  0  0  0  0  0  0  0  0  0  0  0
  -22.3220  -13.7280   22.6990 H   0  0  0  0  0  0  0  0  0  0  0  0
  -26.4000  -15.5510   20.2050 N   0  0  0  0  0  0  0  0  0  0  0  0
  -25.7590  -16.2570   20.5490 H   0  0  0  0  0  0  0  0  0  0  0  0
  -27.2410  -15.9420   19.8020 H   0  0  0  0  0  0  0  0  0  0  0  0
  -31.6090  -19.1300   16.7440 C   0  0  0  0  0  1  0  0  0  0  0  0
  -30.2390  -18.6720   17.2510 C   0  0  0  0  0  2  0  0  0  0  0  0
  -29.2570  -21.2510   21.3560 O   0  0  0  0  0  0  0  0  0  0  0  0
  -29.0940  -21.9750   20.7660 H   0  0  0  0  0  0  0  0  0  0  0  0
  -29.3710  -21.9450   18.5990 C   0  0  0  0  0  2  0  0  0  0  0  0
  -28.3810  -23.6020   18.9640 C   0  0  0  0  0  2  0  0  0  0  0  0
  -28.3410  -25.3480   18.6360 O   0  0  0  0  0  0  0  0  0  0  0  0
  -24.7870  -31.0650   22.5800 C   0  0  0  0  0  0  0  0  0  0  0  0
  -27.3080  -26.5010   18.8360 C   0  0  0  0  0  0  0  0  0  0  0  0
  -23.5490  -29.8230   20.8580 C   0  0  0  0  0  3  0  0  0  0  0  0
  -24.9620  -28.4260   19.1690 C   0  0  0  0  0  0  0  0  0  0  0  0
  -26.1070  -30.1000   20.5960 C   0  0  0  0  0  2  0  0  0  0  0  0
  -26.1840  -28.7600   19.7660 C   0  0  0  0  0  0  0  0  0  0  0  0
  -27.3390  -27.8320   19.5650 C   0  0  0  0  0  3  0  0  0  0  0  0
  -26.0380  -26.3850   18.2160 C   0  0  0  0  0  3  0  0  0  0  0  0
  -24.9270  -27.2710   18.3690 C   0  0  0  0  0  3  0  0  0  0  0  0
  -23.7250  -29.3110   19.4010 C   0  0  0  0  0  2  0  0  0  0  0  0
  -24.8410  -30.3580   21.4000 N   0  0  0  0  0  0  0  0  0  0  0  0
  -23.7190  -31.2480   23.1910 O   0  0  0  0  0  0  0  0  0  0  0  0
  -22.9370  -28.7030   21.7430 C   0  0  0  0  0  0  0  0  0  0  0  0
  -21.6120  -28.4760   21.6520 N   0  0  0  0  0  0  0  0  0  0  0  0
  -23.6650  -28.0390   22.4820 O   0  0  0  0  0  0  0  0  0  0  0  0
  -21.0680  -29.0670   21.0390 H   0  0  0  0  0  0  0  0  0  0  0  0
  -18.3290  -27.0010   22.1680 C   0  0  0  0  0  0  0  0  0  0  0  0
  -20.8790  -27.4090   22.3470 C   0  0  0  0  0  3  0  0  0  0  0  0
  -21.0360  -26.0570   21.6110 C   0  0  0  0  0  2  0  0  0  0  0  0
  -19.9080  -25.7770   20.6150 C   0  0  0  0  0  2  0  0  0  0  0  0
  -18.5540  -25.7530   21.3290 C   0  0  0  0  0  2  0  0  0  0  0  0
  -19.4190  -27.7860   22.6320 C   0  0  0  0  0  0  0  0  0  0  0  0
  -19.1490  -28.9500   23.3840 C   0  0  0  0  0  3  0  0  0  0  0  0
  -17.8250  -29.3330   23.6700 C   0  0  0  0  0  3  0  0  0  0  0  0
  -16.7520  -28.5460   23.2160 C   0  0  0  0  0  3  0  0  0  0  0  0
  -17.0050  -27.3810   22.4730 C   0  0  0  0  0  3  0  0  0  0  0  0
  -26.0620  -31.6930   23.2210 C   0  0  0  0  0  3  0  0  0  0  0  0
  -26.7280  -30.7620   24.3090 C   0  0  1  0  0  0  0  0  0  0  0  0
  -25.7470  -30.2760   25.4030 C   0  0  0  0  0  1  0  0  0  0  0  0
  -27.3550  -29.5080   23.6610 C   0  0  0  0  0  1  0  0  0  0  0  0
  -27.8840  -31.5170   25.0080 C   0  0  0  0  0  1  0  0  0  0  0  0
  -25.6850  -32.9830   23.8320 N   0  0  0  0  0  0  0  0  0  0  0  0
  -25.8940  -34.1880   23.2840 C   0  0  0  0  0  0  0  0  0  0  0  0
  -26.4800  -34.3340   22.2100 O   0  0  0  0  0  0  0  0  0  0  0  0
  -25.1470  -32.9340   24.6850 H   0  0  0  0  0  0  0  0  0  0  0  0
  -24.0490  -35.9010   23.4260 C   0  0  0  0  0  1  0  0  0  0  0  0
  -25.3740  -35.4280   24.0450 C   0  0  0  0  0  3  0  0  0  0  0  0
  -27.5150  -36.2900   24.8870 C   0  0  0  0  0  1  0  0  0  0  0  0
  -26.3350  -36.5540   24.0690 N   0  0  0  0  0  0  0  0  0  0  0  0
  -25.8920  -37.4000   24.4150 H   0  0  0  0  0  0  0  0  0  0  0  0
  1  2  1  0
  2  4  2  0
  2  7  1  0
  3  5  1  0
  3  1  2  0
  4  8  1  0
  5  6  2  0
  6 47  1  0
  6  4  1  0
  9 15  1  0
  9  1  1  0
 10 15  1  0
 11 12  1  0
 11 10  1  0
 13 12  1  0
 13 20  1  0
 13 14  1  0
 15 14  1  0
 16  9  2  0
 17 18  2  0
 18 37  1  0
 19 22  1  0
 19 18  1  0
 20 21  1  0
 20 17  1  0
 21 19  2  0
 22 23  1  0
 23 24  2  0
 25 28  1  0
 25 24  1  0
 26 25  2  0
 27 26  1  0
 27 22  2  0
 28 29  1  0
 29 30  1  0
 30 31  2  0
 32 31  1  0
 32 36  1  0
 33 32  2  0
 34 29  2  0
 34 33  1  0
 35 34  1  0
 37 38  1  0
 38 40  1  0
 38 41  1  0
 39 37  2  0
 42 17  1  0
 42 43  1  0
 44 42  1  0
 45 46  1  0
 46  3  1  0
 48 47  1  0
 49 50  1  0
 49  5  1  0
 51 53  1  0
 51 50  1  0
 52 63  2  0
 53 58  1  0
 54 62  1  0
 54 64  1  0
 55 61  1  0
 55 57  1  0
 56 62  1  0
 57 56  1  0
 58 57  2  0
 59 60  1  0
 59 53  2  0
 60 55  2  0
 61 54  1  0
 62 52  1  0
 64 66  2  0
 65 64  1  0
 67 65  1  0
 68 77  2  0
 68 73  1  0
 69 65  1  0
 69 73  1  0
 70 69  1  0
 71 72  1  0
 71 70  1  0
 72 68  1  0
 73 74  2  0
 74 75  1  0
 76 75  2  0
 77 76  1  0
 78 52  1  0
 78 83  1  0
 78 79  1  0
 79 82  1  1
 79 80  1  0
 81 79  1  0
 83 86  1  0
 84 83  1  0
 84 88  1  0
 85 84  2  0
 88 87  1  0
 88 90  1  0
 90 91  1  0
 90 89  1  0
M  ISO  4   1 100   9 100  50 101  51 101
M  END
>  <TORSDO>  (27) 
F 20

>  <SCORE>  (27) 
-9.764

>  <name>  (27) 
26

>  <ligand_id>  (27) 
26

>  <original_smiles>  (27) 
[H]Oc1c(C([H])([H])[H])c(C([H])([H])[H])c(C(=O)N2C([H])([H])C([H])([H])C([H])([H])C([H])(n3nc(-c4c([H])c([H])c(Oc5c([H])c([H])c(F)c([H])c5F)c([H])c4[H])c(C(=O)N([H])[H])c3N([H])[H])C2([H])[H])c(C([H])([H])C([H])([H])[H])c1C([H])([H])C([H])([H])Oc1c([H])c([H])c2c(c1[H])C([H])([H])N(C(=O)C([H])(N([H])C(=O)C([H])(N([H])C([H])([H])[H])C([H])([H])[H])C(C([H])([H])[H])(C([H])([H])[H])C([H])([H])[H])C([H])(C(=O)N([H])C1([H])c3c([H])c([H])c([H])c([H])c3C([H])([H])C([H])([H])C1([H])[H])C2([H])[H]

>  <smiles>  (27) 
[H]Oc1c(C([H])([H])[H])c(C([H])([H])[H])c(C(=O)N2C([H])([H])C([H])([H])C([H])([H])C([H])(n3nc(-c4c([H])c([H])c(Oc5c([H])c([H])c(F)c([H])c5F)c([H])c4[H])c(C(=O)N([H])[H])c3N([H])[H])C2([H])[H])c(C([H])([H])C([H])([H])[H])c1C([H])([H])C([H])([H])Oc1c([H])c([H])c2c(c1[H])C([H])([H])N(C(=O)C([H])(N([H])C(=O)C([H])(N([H])C([H])([H])[H])C([H])([H])[H])C(C([H])([H])[H])(C([H])([H])[H])C([H])([H])[H])C([H])(C(=O)N([H])C1([H])c3c([H])c([H])c([H])c([H])c3C([H])([H])C([H])([H])C1([H])[H])C2([H])[H]

$$$$
27:0:0
     RDKit          3D

 92100  0  0  1  0  0  0  0  0999 V2000
  -28.7400  -21.7900   21.2430 C   0  0  0  0  0  3  0  0  0  0  0  0
  -28.4760  -23.2650   19.0080 C   0  0  0  0  0  3  0  0  0  0  0  0
  -29.0070  -20.8430   20.1330 C   0  0  0  0  0  0  0  0  0  0  0  0
  -28.3750  -23.2700   21.2600 C   0  0  0  0  0  0  0  0  0  0  0  0
  -28.2130  -24.2170   20.1160 C   0  0  0  0  0  0  0  0  0  0  0  0
  -28.8180  -21.7840   19.0030 C   0  0  0  0  0  0  0  0  0  0  0  0
  -29.0370  -21.2530   17.7770 F   0  0  0  0  0  0  0  0  0  0  0  0
  -27.4670  -24.9260   22.7610 C   0  0  0  0  0  1  0  0  0  0  0  0
  -28.2160  -23.7330   22.5490 O   0  0  0  0  0  0  0  0  0  0  0  0
  -28.1480  -25.8130   20.0810 O   0  0  0  0  0  0  0  0  0  0  0  0
  -24.6160  -31.9190   23.1860 C   0  0  0  0  0  0  0  0  0  0  0  0
  -27.1140  -26.9390   20.1000 C   0  0  0  0  0  0  0  0  0  0  0  0
  -23.4060  -30.5410   21.5470 C   0  0  0  0  0  3  0  0  0  0  0  0
  -24.8320  -28.9140   20.1010 C   0  0  0  0  0  0  0  0  0  0  0  0
  -25.9770  -30.6980   21.3940 C   0  0  0  0  0  2  0  0  0  0  0  0
  -26.0300  -29.2800   20.7260 C   0  0  0  0  0  0  0  0  0  0  0  0
  -27.1540  -28.3160   20.6990 C   0  0  0  0  0  3  0  0  0  0  0  0
  -25.8820  -26.7600   19.4270 C   0  0  0  0  0  3  0  0  0  0  0  0
  -24.7890  -27.6760   19.4330 C   0  0  0  0  0  3  0  0  0  0  0  0
  -23.6260  -29.8610   20.1640 C   0  0  0  0  0  2  0  0  0  0  0  0
  -24.6890  -31.0830   22.0960 N   0  0  0  0  0  0  0  0  0  0  0  0
  -23.5310  -32.2150   23.7130 O   0  0  0  0  0  0  0  0  0  0  0  0
  -22.7030  -29.5500   22.5130 C   0  0  0  0  0  0  0  0  0  0  0  0
  -21.3720  -29.3920   22.3930 N   0  0  0  0  0  0  0  0  0  0  0  0
  -23.3650  -28.9230   23.3430 O   0  0  0  0  0  0  0  0  0  0  0  0
  -20.8870  -29.9510   21.7050 H   0  0  0  0  0  0  0  0  0  0  0  0
  -17.9860  -28.1820   22.9230 C   0  0  0  0  0  0  0  0  0  0  0  0
  -20.5500  -28.4480   23.1630 C   0  0  0  0  0  3  0  0  0  0  0  0
  -20.6460  -27.0200   22.5740 C   0  0  0  0  0  2  0  0  0  0  0  0
  -19.5340  -26.7080   21.5670 C   0  0  0  0  0  2  0  0  0  0  0  0
  -18.1580  -26.8430   22.2250 C   0  0  0  0  0  2  0  0  0  0  0  0
  -19.1080  -28.9430   23.3480 C   0  0  0  0  0  0  0  0  0  0  0  0
  -18.8900  -30.1940   23.9640 C   0  0  0  0  0  3  0  0  0  0  0  0
  -17.5850  -30.6850   24.1570 C   0  0  0  0  0  3  0  0  0  0  0  0
  -16.4790  -29.9230   23.7440 C   0  0  0  0  0  3  0  0  0  0  0  0
  -16.6810  -28.6720   23.1330 C   0  0  0  0  0  3  0  0  0  0  0  0
  -25.8890  -32.5570   23.8190 C   0  0  0  0  0  3  0  0  0  0  0  0
  -26.3880  -31.7900   25.1070 C   0  0  1  0  0  0  0  0  0  0  0  0
  -25.2860  -31.5720   26.1700 C   0  0  0  0  0  1  0  0  0  0  0  0
  -26.9660  -30.4060   24.7360 C   0  0  0  0  0  1  0  0  0  0  0  0
  -27.5410  -32.5800   25.7720 C   0  0  0  0  0  1  0  0  0  0  0  0
  -25.5800  -33.9580   24.1640 N   0  0  0  0  0  0  0  0  0  0  0  0
  -25.9010  -35.0250   23.4180 C   0  0  0  0  0  0  0  0  0  0  0  0
  -26.5470  -34.9320   22.3710 O   0  0  0  0  0  0  0  0  0  0  0  0
  -25.0050  -34.1040   24.9790 H   0  0  0  0  0  0  0  0  0  0  0  0
  -24.1740  -36.8390   23.1340 C   0  0  0  0  0  1  0  0  0  0  0  0
  -25.4350  -36.4140   23.9060 C   0  0  0  0  0  3  0  0  0  0  0  0
  -27.5880  -37.2880   24.7000 C   0  0  0  0  0  1  0  0  0  0  0  0
  -26.4690  -37.4630   23.7770 N   0  0  0  0  0  0  0  0  0  0  0  0
  -26.0690  -38.3860   23.9360 H   0  0  0  0  0  0  0  0  0  0  0  0
  -29.7220  -19.1450   20.1290 C   0  0  0  0  0  2  0  0  0  0  0  0
  -29.3300  -17.2940   20.1600 C   0  0  0  0  0  3  0  0  0  0  0  0
  -30.2180  -15.6800   20.0200 C   0  0  0  0  0  0  0  0  0  0  0  0
  -30.2990  -13.1520   19.1980 C   0  0  0  0  0  2  0  0  0  0  0  0
  -29.3470  -12.8490   18.0030 C   0  0  0  0  0  2  0  0  0  0  0  0
  -27.9200  -12.5250   18.4830 C   0  0  0  0  0  2  0  0  0  0  0  0
  -27.4740  -13.4760   19.6200 C   0  0  0  0  0  3  0  0  0  0  0  0
  -28.5600  -13.7110   20.6920 C   0  0  0  0  0  2  0  0  0  0  0  0
  -29.7370  -14.3070   20.0240 N   0  0  0  0  0  0  0  0  0  0  0  0
  -31.4290  -15.6570   19.7360 O   0  0  0  0  0  0  0  0  0  0  0  0
  -25.1500  -13.9790   20.5210 C   0  0  0  0  0  0  0  0  0  0  0  0
  -24.1090  -13.1830   20.9030 C   0  0  0  0  0  0  0  0  0  0  0  0
  -24.5860  -11.8360   20.8170 C   0  0  0  0  0  0  0  0  0  0  0  0
  -26.1850  -13.1220   20.1980 N   0  0  0  0  0  0  0  0  0  0  0  0
  -25.8640  -11.8250   20.4470 N   0  0  0  0  0  0  0  0  0  0  0  0
  -23.8770  -10.5650   21.0110 C   0  0  0  0  0  0  0  0  0  0  0  0
  -24.3350   -9.5920   21.9270 C   0  0  0  0  0  3  0  0  0  0  0  0
  -23.6200   -8.3890   22.1100 C   0  0  0  0  0  3  0  0  0  0  0  0
  -22.4310   -8.1490   21.3790 C   0  0  0  0  0  0  0  0  0  0  0  0
  -21.9920   -9.1110   20.4540 C   0  0  0  0  0  3  0  0  0  0  0  0
  -22.7070  -10.3060   20.2700 C   0  0  0  0  0  3  0  0  0  0  0  0
  -21.6870   -6.9980   21.4710 O   0  0  0  0  0  0  0  0  0  0  0  0
  -21.6380   -6.2640   22.6290 C   0  0  0  0  0  0  0  0  0  0  0  0
  -21.1450   -6.8060   23.8360 C   0  0  0  0  0  3  0  0  0  0  0  0
  -21.0460   -5.9950   24.9840 C   0  0  0  0  0  3  0  0  0  0  0  0
  -21.4320   -4.6420   24.9260 C   0  0  0  0  0  0  0  0  0  0  0  0
  -21.9200   -4.0990   23.7260 C   0  0  0  0  0  3  0  0  0  0  0  0
  -22.0190   -4.9070   22.5800 C   0  0  0  0  0  0  0  0  0  0  0  0
  -22.4680   -4.3730   21.4180 F   0  0  0  0  0  0  0  0  0  0  0  0
  -21.3300   -3.8620   26.0280 F   0  0  0  0  0  0  0  0  0  0  0  0
  -22.7240  -13.6420   21.2520 C   0  0  0  0  0  0  0  0  0  0  0  0
  -22.0450  -12.9260   22.1400 N   0  0  0  0  0  0  0  0  0  0  0  0
  -22.2600  -14.6770   20.7770 O   0  0  0  0  0  0  0  0  0  0  0  0
  -22.4370  -12.0900   22.5470 H   0  0  0  0  0  0  0  0  0  0  0  0
  -21.1230  -13.2230   22.4220 H   0  0  0  0  0  0  0  0  0  0  0  0
  -25.3060  -15.3580   20.4020 N   0  0  0  0  0  0  0  0  0  0  0  0
  -24.5230  -15.9120   20.7340 H   0  0  0  0  0  0  0  0  0  0  0  0
  -26.1780  -15.7350   20.7450 H   0  0  0  0  0  0  0  0  0  0  0  0
  -28.2220  -17.1660   19.2030 N   0  0  0  0  0  4  0  0  0  0  0  0
  -27.9060  -16.2180   19.1490 H   0  0  0  0  0  0  0  0  0  0  0  0
  -28.5400  -17.4360   18.2890 H   0  0  0  0  0  0  0  0  0  0  0  0
  -27.4530  -17.7580   19.4660 H   0  0  0  0  0  0  0  0  0  0  0  0
  1  4  1  0
  2  5  1  0
  3  1  2  0
  4  9  1  0
  5  4  2  0
  6  2  2  0
  6  3  1  0
  7  6  1  0
  9  8  1  0
 10 12  1  0
 10  5  1  0
 11 22  2  0
 12 17  1  0
 13 21  1  0
 13 23  1  0
 14 20  1  0
 14 16  1  0
 15 21  1  0
 16 15  1  0
 17 16  2  0
 18 19  1  0
 18 12  2  0
 19 14  2  0
 20 13  1  0
 21 11  1  0
 23 25  2  0
 24 23  1  0
 26 24  1  0
 27 36  2  0
 27 32  1  0
 28 24  1  0
 28 32  1  0
 29 28  1  0
 30 31  1  0
 30 29  1  0
 31 27  1  0
 32 33  2  0
 33 34  1  0
 35 34  2  0
 36 35  1  0
 37 11  1  0
 37 42  1  0
 37 38  1  0
 38 41  1  1
 38 39  1  0
 40 38  1  0
 42 45  1  0
 43 47  1  0
 43 42  1  0
 44 43  2  0
 47 46  1  0
 49 47  1  0
 49 50  1  0
 49 48  1  0
 51  3  1  0
 52 51  1  0
 53 59  1  0
 53 52  1  0
 54 59  1  0
 55 56  1  0
 55 54  1  0
 57 56  1  0
 57 64  1  0
 57 58  1  0
 59 58  1  0
 60 53  2  0
 61 62  2  0
 62 81  1  0
 63 62  1  0
 63 66  1  0
 64 65  1  0
 64 61  1  0
 65 63  2  0
 66 67  1  0
 67 68  2  0
 69 72  1  0
 69 68  1  0
 70 69  2  0
 71 70  1  0
 71 66  2  0
 72 73  1  0
 73 74  1  0
 74 75  2  0
 76 75  1  0
 76 80  1  0
 77 76  2  0
 78 73  2  0
 78 77  1  0
 79 78  1  0
 81 82  1  0
 82 85  1  0
 82 84  1  0
 83 81  2  0
 86 61  1  0
 86 87  1  0
 86 88  1  0
 89 92  1  0
 89 52  1  0
 90 89  1  0
 91 89  1  0
M  ISO  4   5 101  10 101  52 100  53 100
M  END
>  <TORSDO>  (28) 
F 20

>  <SCORE>  (28) 
-15.171

>  <name>  (28) 
27

>  <ligand_id>  (28) 
27

>  <original_smiles>  (28) 
[H]c1c([H])c([H])c2c(c1[H])C([H])([H])C([H])([H])C([H])([H])C2([H])N([H])C(=O)C1([H])N(C(=O)C([H])(N([H])C(=O)C([H])(N([H])C([H])([H])[H])C([H])([H])[H])C(C([H])([H])[H])(C([H])([H])[H])C([H])([H])[H])C([H])([H])c2c([H])c(Oc3c([H])c(F)c(C([H])([H])C([H])(C(=O)N4C([H])([H])C([H])([H])C([H])([H])C([H])(n5nc(-c6c([H])c([H])c(Oc7c([H])c([H])c(F)c([H])c7F)c([H])c6[H])c(C(=O)N([H])[H])c5N([H])[H])C4([H])[H])[N+]([H])([H])[H])c([H])c3OC([H])([H])[H])c([H])c([H])c2C1([H])[H]

>  <smiles>  (28) 
[H]c1c([H])c([H])c2c(c1[H])C([H])([H])C([H])([H])C([H])([H])C2([H])N([H])C(=O)C1([H])N(C(=O)C([H])(N([H])C(=O)C([H])(N([H])C([H])([H])[H])C([H])([H])[H])C(C([H])([H])[H])(C([H])([H])[H])C([H])([H])[H])C([H])([H])c2c([H])c(Oc3c([H])c(F)c(C([H])([H])C([H])(C(=O)N4C([H])([H])C([H])([H])C([H])([H])C([H])(n5nc(-c6c([H])c([H])c(Oc7c([H])c([H])c(F)c([H])c7F)c([H])c6[H])c(C(=O)N([H])[H])c5N([H])[H])C4([H])[H])[N+]([H])([H])[H])c([H])c3OC([H])([H])[H])c([H])c([H])c2C1([H])[H]

$$$$
28:0:0
     RDKit          3D

 91 99  0  0  1  0  0  0  0  0999 V2000
  -29.0350  -23.3730   19.7770 C   0  0  0  0  0  3  0  0  0  0  0  0
  -30.3270  -24.0870   22.0350 C   0  0  0  0  0  3  0  0  0  0  0  0
  -29.6270  -22.1760   20.5650 C   0  0  0  0  0  0  0  0  0  0  0  0
  -30.2470  -22.6860   21.7600 C   0  0  0  0  0  0  0  0  0  0  0  0
  -29.0330  -24.8860   20.0930 C   0  0  0  0  0  0  0  0  0  0  0  0
  -29.7640  -25.1360   21.2670 C   0  0  0  0  0  0  0  0  0  0  0  0
  -31.9860  -20.9400   22.6580 C   0  0  0  0  0  1  0  0  0  0  0  0
  -29.6220  -21.0990   23.6360 C   0  0  0  0  0  1  0  0  0  0  0  0
  -30.7680  -21.8280   22.9260 C   0  0  0  0  0  3  0  0  0  0  0  0
  -29.5840  -26.8720   22.8900 C   0  0  0  0  0  1  0  0  0  0  0  0
  -30.0050  -26.4500   21.6000 O   0  0  0  0  0  0  0  0  0  0  0  0
  -28.6110  -26.1620   19.3630 O   0  0  0  0  0  0  0  0  0  0  0  0
  -24.7730  -31.5620   23.0770 C   0  0  0  0  0  0  0  0  0  0  0  0
  -27.4980  -27.1250   19.5880 C   0  0  0  0  0  0  0  0  0  0  0  0
  -23.5900  -30.2070   21.3970 C   0  0  0  0  0  3  0  0  0  0  0  0
  -25.0630  -28.8040   19.8060 C   0  0  0  0  0  0  0  0  0  0  0  0
  -26.1230  -30.6100   21.1460 C   0  0  0  0  0  2  0  0  0  0  0  0
  -26.2540  -29.2560   20.3950 C   0  0  0  0  0  0  0  0  0  0  0  0
  -27.4630  -28.4390   20.2610 C   0  0  0  0  0  3  0  0  0  0  0  0
  -26.2650  -26.8170   18.9720 C   0  0  0  0  0  3  0  0  0  0  0  0
  -25.0870  -27.6040   19.0780 C   0  0  0  0  0  3  0  0  0  0  0  0
  -23.7930  -29.6380   19.9670 C   0  0  0  0  0  2  0  0  0  0  0  0
  -24.8500  -30.8190   21.9290 N   0  0  0  0  0  0  0  0  0  0  0  0
  -23.6970  -31.7390   23.6710 O   0  0  0  0  0  0  0  0  0  0  0  0
  -23.0150  -29.1010   22.3190 C   0  0  0  0  0  0  0  0  0  0  0  0
  -21.7240  -28.7590   22.1530 N   0  0  0  0  0  0  0  0  0  0  0  0
  -23.7380  -28.5520   23.1570 O   0  0  0  0  0  0  0  0  0  0  0  0
  -21.1830  -29.2650   21.4640 H   0  0  0  0  0  0  0  0  0  0  0  0
  -18.5980  -26.9300   22.3750 C   0  0  0  0  0  0  0  0  0  0  0  0
  -21.0170  -27.6940   22.8770 C   0  0  0  0  0  3  0  0  0  0  0  0
  -21.4500  -26.2980   22.3690 C   0  0  0  0  0  2  0  0  0  0  0  0
  -20.5390  -25.7460   21.2660 C   0  0  0  0  0  2  0  0  0  0  0  0
  -19.0980  -25.6300   21.7680 C   0  0  0  0  0  2  0  0  0  0  0  0
  -19.4990  -27.9060   22.8810 C   0  0  0  0  0  0  0  0  0  0  0  0
  -18.9800  -29.1080   23.4070 C   0  0  0  0  0  3  0  0  0  0  0  0
  -17.5920  -29.3440   23.4320 C   0  0  0  0  0  3  0  0  0  0  0  0
  -16.7040  -28.3700   22.9410 C   0  0  0  0  0  3  0  0  0  0  0  0
  -17.2080  -27.1650   22.4210 C   0  0  0  0  0  3  0  0  0  0  0  0
  -26.0330  -32.2430   23.6980 C   0  0  0  0  0  3  0  0  0  0  0  0
  -25.6630  -33.6150   24.0890 N   0  0  0  0  0  0  0  0  0  0  0  0
  -25.9770  -34.7200   23.3990 C   0  0  0  0  0  0  0  0  0  0  0  0
  -26.6690  -34.6930   22.3780 O   0  0  0  0  0  0  0  0  0  0  0  0
  -25.0560  -33.7070   24.8890 H   0  0  0  0  0  0  0  0  0  0  0  0
  -24.2050  -36.4840   23.1030 C   0  0  0  0  0  1  0  0  0  0  0  0
  -25.4390  -36.0690   23.9200 C   0  0  0  0  0  3  0  0  0  0  0  0
  -27.5290  -36.9690   24.8480 C   0  0  0  0  0  1  0  0  0  0  0  0
  -26.4440  -37.1550   23.8870 N   0  0  0  0  0  0  0  0  0  0  0  0
  -26.0090  -38.0550   24.0730 H   0  0  0  0  0  0  0  0  0  0  0  0
  -26.6070  -31.4600   24.9430 C   0  0  1  0  0  0  0  0  0  0  0  0
  -25.5520  -31.1610   26.0330 C   0  0  0  0  0  1  0  0  0  0  0  0
  -27.2270  -30.1130   24.5110 C   0  0  0  0  0  1  0  0  0  0  0  0
  -27.7480  -32.2790   25.5920 C   0  0  0  0  0  1  0  0  0  0  0  0
  -29.4360  -20.4410   20.3450 C   0  0  0  0  0  2  0  0  0  0  0  0
  -30.4230  -18.9170   20.4310 C   0  0  0  0  0  3  0  0  0  0  0  0
  -30.0360  -17.1740   20.7450 C   0  0  0  0  0  3  0  0  0  0  0  0
  -30.8990  -15.6350   20.6740 C   0  0  0  0  0  0  0  0  0  0  0  0
  -30.9470  -13.1680   19.8340 C   0  0  0  0  0  2  0  0  0  0  0  0
  -30.1240  -12.9860   18.5300 C   0  0  0  0  0  2  0  0  0  0  0  0
  -28.6360  -12.7420   18.8420 C   0  0  0  0  0  2  0  0  0  0  0  0
  -28.1140  -13.7050   19.9370 C   0  0  0  0  0  3  0  0  0  0  0  0
  -29.0710  -13.8290   21.1410 C   0  0  0  0  0  2  0  0  0  0  0  0
  -30.3640  -14.3130   20.6270 N   0  0  0  0  0  0  0  0  0  0  0  0
  -32.1320  -15.6350   20.5150 O   0  0  0  0  0  0  0  0  0  0  0  0
  -25.7010  -14.2970   20.5130 C   0  0  0  0  0  0  0  0  0  0  0  0
  -24.6030  -13.5360   20.8030 C   0  0  0  0  0  0  0  0  0  0  0  0
  -25.0510  -12.1800   20.8120 C   0  0  0  0  0  0  0  0  0  0  0  0
  -26.7460  -13.4060   20.3450 N   0  0  0  0  0  0  0  0  0  0  0  0
  -26.3620  -12.1260   20.5950 N   0  0  0  0  0  0  0  0  0  0  0  0
  -24.2930  -10.9310   20.9540 C   0  0  0  0  0  0  0  0  0  0  0  0
  -24.6540   -9.9510   21.9050 C   0  0  0  0  0  3  0  0  0  0  0  0
  -23.8950   -8.7670   22.0380 C   0  0  0  0  0  3  0  0  0  0  0  0
  -22.7610   -8.5550   21.2180 C   0  0  0  0  0  0  0  0  0  0  0  0
  -22.4160   -9.5250   20.2610 C   0  0  0  0  0  3  0  0  0  0  0  0
  -23.1740  -10.7000   20.1270 C   0  0  0  0  0  3  0  0  0  0  0  0
  -21.9790   -7.4240   21.2570 O   0  0  0  0  0  0  0  0  0  0  0  0
  -21.8460   -6.6810   22.4030 C   0  0  0  0  0  0  0  0  0  0  0  0
  -21.3850   -7.2520   23.6100 C   0  0  0  0  0  3  0  0  0  0  0  0
  -21.1940   -6.4380   24.7440 C   0  0  0  0  0  3  0  0  0  0  0  0
  -21.4540   -5.0570   24.6730 C   0  0  0  0  0  0  0  0  0  0  0  0
  -21.9080   -4.4870   23.4710 C   0  0  0  0  0  3  0  0  0  0  0  0
  -22.1000   -5.2970   22.3380 C   0  0  0  0  0  0  0  0  0  0  0  0
  -22.5180   -4.7390   21.1760 F   0  0  0  0  0  0  0  0  0  0  0  0
  -21.2650   -4.2740   25.7600 F   0  0  0  0  0  0  0  0  0  0  0  0
  -23.1980  -14.0370   20.9650 C   0  0  0  0  0  0  0  0  0  0  0  0
  -22.4010  -13.3690   21.7920 N   0  0  0  0  0  0  0  0  0  0  0  0
  -22.8120  -15.0560   20.3930 O   0  0  0  0  0  0  0  0  0  0  0  0
  -22.7240  -12.5480   22.2820 H   0  0  0  0  0  0  0  0  0  0  0  0
  -21.4550  -13.6870   21.9400 H   0  0  0  0  0  0  0  0  0  0  0  0
  -25.8910  -15.6640   20.3490 N   0  0  0  0  0  0  0  0  0  0  0  0
  -25.1240  -16.3260   20.4160 H   0  0  0  0  0  0  0  0  0  0  0  0
  -26.7690  -16.1040   20.1030 H   0  0  0  0  0  0  0  0  0  0  0  0
  1  5  2  0
  1  3  1  0
  3  4  2  0
  4  2  1  0
  4  9  1  0
  5  6  1  0
  6 11  1  0
  6  2  2  0
  7  9  1  0
  9  8  1  0
 11 10  1  0
 12 14  1  0
 12  5  1  0
 13 24  2  0
 14 19  1  0
 15 23  1  0
 15 25  1  0
 16 22  1  0
 16 18  1  0
 17 23  1  0
 18 17  1  0
 19 18  2  0
 20 21  1  0
 20 14  2  0
 21 16  2  0
 22 15  1  0
 23 13  1  0
 25 27  2  0
 26 25  1  0
 28 26  1  0
 29 38  2  0
 29 34  1  0
 30 26  1  0
 30 34  1  0
 31 30  1  0
 32 33  1  0
 32 31  1  0
 33 29  1  0
 34 35  2  0
 35 36  1  0
 37 36  2  0
 38 37  1  0
 39 13  1  0
 39 40  1  0
 39 49  1  0
 40 43  1  0
 41 45  1  0
 41 40  1  0
 42 41  2  0
 45 44  1  0
 47 45  1  0
 47 48  1  0
 47 46  1  0
 49 52  1  1
 49 50  1  0
 51 49  1  0
 53 54  1  0
 53  3  1  0
 54 55  2  0
 56 55  1  0
 57 62  1  0
 58 59  1  0
 58 57  1  0
 60 59  1  0
 60 67  1  0
 60 61  1  0
 62 56  1  0
 62 61  1  0
 63 56  2  0
 64 65  2  0
 65 66  1  0
 65 84  1  0
 66 69  1  0
 67 64  1  0
 67 68  1  0
 68 66  2  0
 69 70  1  0
 70 71  2  0
 72 75  1  0
 72 71  1  0
 73 72  2  0
 74 73  1  0
 74 69  2  0
 75 76  1  0
 76 77  1  0
 77 78  2  0
 79 78  1  0
 79 83  1  0
 80 79  2  0
 81 76  2  0
 81 80  1  0
 82 81  1  0
 84 85  1  0
 85 88  1  0
 85 87  1  0
 86 84  2  0
 89 90  1  0
 89 64  1  0
 91 89  1  0
M  ISO  4   5 101  12 101  55 100  56 100
M  END
>  <TORSDO>  (29) 
F 21

>  <SCORE>  (29) 
-13.441

>  <name>  (29) 
28

>  <ligand_id>  (29) 
28

>  <original_smiles>  (29) 
[H]c1c([H])c([H])c2c(c1[H])C([H])([H])C([H])([H])C([H])([H])C2([H])N([H])C(=O)C1([H])N(C(=O)C([H])(N([H])C(=O)C([H])(N([H])C([H])([H])[H])C([H])([H])[H])C(C([H])([H])[H])(C([H])([H])[H])C([H])([H])[H])C([H])([H])c2c([H])c(Oc3c([H])c(C([H])([H])C([H])([H])C([H])([H])C(=O)N4C([H])([H])C([H])([H])C([H])([H])C([H])(n5nc(-c6c([H])c([H])c(Oc7c([H])c([H])c(F)c([H])c7F)c([H])c6[H])c(C(=O)N([H])[H])c5N([H])[H])C4([H])[H])c(C([H])(C([H])([H])[H])C([H])([H])[H])c([H])c3OC([H])([H])[H])c([H])c([H])c2C1([H])[H]

>  <smiles>  (29) 
[H]c1c([H])c([H])c2c(c1[H])C([H])([H])C([H])([H])C([H])([H])C2([H])N([H])C(=O)C1([H])N(C(=O)C([H])(N([H])C(=O)C([H])(N([H])C([H])([H])[H])C([H])([H])[H])C(C([H])([H])[H])(C([H])([H])[H])C([H])([H])[H])C([H])([H])c2c([H])c(Oc3c([H])c(C([H])([H])C([H])([H])C([H])([H])C(=O)N4C([H])([H])C([H])([H])C([H])([H])C([H])(n5nc(-c6c([H])c([H])c(Oc7c([H])c([H])c(F)c([H])c7F)c([H])c6[H])c(C(=O)N([H])[H])c5N([H])[H])C4([H])[H])c(C([H])(C([H])([H])[H])C([H])([H])[H])c([H])c3OC([H])([H])[H])c([H])c([H])c2C1([H])[H]

$$$$
29:0:0
     RDKit          3D

 86 92  0  0  1  0  0  0  0  0999 V2000
  -28.2830  -19.7490   19.5540 C   0  0  0  0  0  3  0  0  0  0  0  0
  -29.2990  -18.7040   20.2280 C   0  0  0  0  0  3  0  0  0  0  0  0
  -27.8990  -21.3730   19.5410 C   0  0  0  0  0  0  0  0  0  0  0  0
  -29.7970  -20.0820   20.8750 C   0  0  0  0  0  0  0  0  0  0  0  0
  -29.4190  -21.7160   20.8720 C   0  0  0  0  0  0  0  0  0  0  0  0
  -28.3680  -22.7470   20.2310 C   0  0  0  0  0  3  0  0  0  0  0  0
  -26.7950  -21.6510   18.5360 C   0  0  0  0  0  1  0  0  0  0  0  0
  -30.9920  -19.7540   21.7650 C   0  0  0  0  0  1  0  0  0  0  0  0
  -30.3640  -22.5420   21.7370 C   0  0  0  0  0  1  0  0  0  0  0  0
  -29.9300  -16.7260   20.1680 C   0  0  0  0  0  2  0  0  0  0  0  0
  -30.3400  -13.9330   19.4590 C   0  0  0  0  0  2  0  0  0  0  0  0
  -29.6100  -13.0690   18.3430 C   0  0  0  0  0  2  0  0  0  0  0  0
  -28.2800  -12.4850   18.8220 C   0  0  0  0  0  2  0  0  0  0  0  0
  -27.6000  -13.5240   19.7210 C   0  0  0  0  0  3  0  0  0  0  0  0
  -28.5200  -14.2530   20.7700 C   0  0  0  0  0  2  0  0  0  0  0  0
  -29.5350  -15.1790   20.0870 N   0  0  0  0  0  0  0  0  0  0  0  0
  -31.1770  -16.4690   20.1190 O   0  0  0  0  0  1  0  0  0  0  0  0
  -25.2290  -13.9100   20.4680 C   0  0  0  0  0  0  0  0  0  0  0  0
  -24.1940  -13.0940   20.8160 C   0  0  0  0  0  0  0  0  0  0  0  0
  -24.7070  -11.7610   20.7950 C   0  0  0  0  0  0  0  0  0  0  0  0
  -26.3110  -13.0860   20.2500 N   0  0  0  0  0  0  0  0  0  0  0  0
  -26.0120  -11.7770   20.5010 N   0  0  0  0  0  0  0  0  0  0  0  0
  -24.0020  -10.4810   20.9780 C   0  0  0  0  0  0  0  0  0  0  0  0
  -24.4140   -9.5330   21.9420 C   0  0  0  0  0  3  0  0  0  0  0  0
  -23.6960   -8.3310   22.1220 C   0  0  0  0  0  3  0  0  0  0  0  0
  -22.5480   -8.0640   21.3390 C   0  0  0  0  0  0  0  0  0  0  0  0
  -22.1520   -8.9990   20.3660 C   0  0  0  0  0  3  0  0  0  0  0  0
  -22.8730  -10.1920   20.1840 C   0  0  0  0  0  3  0  0  0  0  0  0
  -21.8050   -6.9090   21.4250 O   0  0  0  0  0  0  0  0  0  0  0  0
  -21.7160   -6.1930   22.5920 C   0  0  0  0  0  0  0  0  0  0  0  0
  -21.2050   -6.7630   23.7780 C   0  0  0  0  0  3  0  0  0  0  0  0
  -21.0620   -5.9720   24.9360 C   0  0  0  0  0  3  0  0  0  0  0  0
  -21.4250   -4.6110   24.9090 C   0  0  0  0  0  0  0  0  0  0  0  0
  -21.9310   -4.0400   23.7270 C   0  0  0  0  0  3  0  0  0  0  0  0
  -22.0730   -4.8290   22.5720 C   0  0  0  0  0  0  0  0  0  0  0  0
  -22.5400   -4.2680   21.4300 F   0  0  0  0  0  0  0  0  0  0  0  0
  -21.2830   -3.8500   26.0180 F   0  0  0  0  0  0  0  0  0  0  0  0
  -22.7790  -13.5350   21.0480 C   0  0  0  0  0  0  0  0  0  0  0  0
  -22.0570  -12.8400   21.9160 N   0  0  0  0  0  0  0  0  0  0  0  0
  -22.3270  -14.5390   20.4990 O   0  0  0  0  0  0  0  0  0  0  0  0
  -22.4410  -12.0310   22.3840 H   0  0  0  0  0  0  0  0  0  0  0  0
  -21.1080  -13.1170   22.1180 H   0  0  0  0  0  0  0  0  0  0  0  0
  -25.3350  -15.2850   20.2770 N   0  0  0  0  0  0  0  0  0  0  0  0
  -24.5340  -15.8990   20.3750 H   0  0  0  0  0  0  0  0  0  0  0  0
  -26.1640  -15.7640   19.9500 H   0  0  0  0  0  0  0  0  0  0  0  0
  -28.1530  -24.6130   20.2260 O   0  0  0  0  0  1  0  0  0  0  0  0
  -24.6800  -31.7770   23.0800 C   0  0  0  0  0  0  0  0  0  0  0  0
  -27.2130  -26.1010   20.2230 C   0  0  0  0  0  0  0  0  0  0  0  0
  -23.5340  -30.3410   21.4590 C   0  0  0  0  0  3  0  0  0  0  0  0
  -24.9970  -28.5440   20.1190 C   0  0  0  0  0  0  0  0  0  0  0  0
  -26.1350  -30.2930   21.4360 C   0  0  0  0  0  2  0  0  0  0  0  0
  -26.1970  -28.7810   20.7970 C   0  0  0  0  0  0  0  0  0  0  0  0
  -27.2500  -27.6140   20.7970 C   0  0  0  0  0  3  0  0  0  0  0  0
  -25.9760  -26.2510   19.4740 C   0  0  0  0  0  3  0  0  0  0  0  0
  -24.9660  -27.3080   19.4320 C   0  0  0  0  0  3  0  0  0  0  0  0
  -23.8180  -29.5750   20.1220 C   0  0  0  0  0  2  0  0  0  0  0  0
  -24.8160  -30.8540   22.0430 N   0  0  0  0  0  0  0  0  0  0  0  0
  -23.5690  -32.1080   23.5410 O   0  0  0  0  0  0  0  0  0  0  0  0
  -22.7480  -29.4340   22.4520 C   0  0  0  0  0  0  0  0  0  0  0  0
  -21.4080  -29.3300   22.3320 N   0  0  0  0  0  0  0  0  0  0  0  0
  -23.3690  -28.8130   23.3150 O   0  0  0  0  0  0  0  0  0  0  0  0
  -20.9460  -29.8800   21.6200 H   0  0  0  0  0  0  0  0  0  0  0  0
  -17.9880  -28.1830   22.8980 C   0  0  0  0  0  0  0  0  0  0  0  0
  -20.5600  -28.4110   23.1110 C   0  0  0  0  0  3  0  0  0  0  0  0
  -20.6210  -26.9790   22.5280 C   0  0  0  0  0  2  0  0  0  0  0  0
  -19.4980  -26.6850   21.5290 C   0  0  0  0  0  2  0  0  0  0  0  0
  -18.1310  -26.8410   22.1990 C   0  0  0  0  0  2  0  0  0  0  0  0
  -19.1260  -28.9270   23.3110 C   0  0  0  0  0  0  0  0  0  0  0  0
  -18.9310  -30.1770   23.9380 C   0  0  0  0  0  3  0  0  0  0  0  0
  -17.6340  -30.6850   24.1470 C   0  0  0  0  0  3  0  0  0  0  0  0
  -16.5130  -29.9410   23.7420 C   0  0  0  0  0  3  0  0  0  0  0  0
  -16.6900  -28.6910   23.1250 C   0  0  0  0  0  3  0  0  0  0  0  0
  -25.9030  -32.4750   23.7540 C   0  0  0  0  0  3  0  0  0  0  0  0
  -25.5440  -33.8770   24.0870 N   0  0  0  0  0  0  0  0  0  0  0  0
  -25.8810  -34.9640   23.3770 C   0  0  0  0  0  0  0  0  0  0  0  0
  -26.5650  -34.8930   22.3540 O   0  0  0  0  0  0  0  0  0  0  0  0
  -24.9280  -34.0020   24.8760 H   0  0  0  0  0  0  0  0  0  0  0  0
  -24.1460  -36.7750   23.0750 C   0  0  0  0  0  1  0  0  0  0  0  0
  -25.3900  -36.3460   23.8700 C   0  0  0  0  0  3  0  0  0  0  0  0
  -27.5160  -37.2430   24.7220 C   0  0  0  0  0  1  0  0  0  0  0  0
  -26.4160  -37.4110   23.7770 N   0  0  0  0  0  0  0  0  0  0  0  0
  -26.0010  -38.3270   23.9300 H   0  0  0  0  0  0  0  0  0  0  0  0
  -26.3770  -31.7430   25.0730 C   0  0  1  0  0  0  0  0  0  0  0  0
  -25.2510  -31.5260   26.1130 C   0  0  0  0  0  1  0  0  0  0  0  0
  -26.9810  -30.3600   24.7560 C   0  0  0  0  0  1  0  0  0  0  0  0
  -27.5030  -32.5610   25.7500 C   0  0  0  0  0  1  0  0  0  0  0  0
  1  2  1  0
  2  4  2  0
  3  1  2  0
  3  6  1  0
  4  8  1  0
  5  4  1  0
  5  9  1  0
  6  5  2  0
  7  3  1  0
 11 16  1  0
 12 13  1  0
 12 11  1  0
 14 13  1  0
 14 21  1  0
 14 15  1  0
 16 10  1  0
 16 15  1  0
 17 10  1  0
 18 19  2  0
 19 38  1  0
 20 19  1  0
 20 23  1  0
 21 18  1  0
 21 22  1  0
 22 20  2  0
 23 24  1  0
 24 25  2  0
 26 29  1  0
 26 25  1  0
 27 26  2  0
 28 27  1  0
 28 23  2  0
 29 30  1  0
 30 31  1  0
 31 32  2  0
 33 32  1  0
 33 37  1  0
 34 33  2  0
 35 30  2  0
 35 34  1  0
 36 35  1  0
 38 39  1  0
 39 42  1  0
 39 41  1  0
 40 38  2  0
 43 44  1  0
 43 18  1  0
 45 43  1  0
 47 58  2  0
 48 46  1  0
 48 53  1  0
 49 57  1  0
 49 59  1  0
 50 56  1  0
 50 52  1  0
 51 57  1  0
 52 51  1  0
 53 52  2  0
 54 48  2  0
 55 54  1  0
 55 50  2  0
 56 49  1  0
 57 47  1  0
 59 61  2  0
 60 59  1  0
 62 60  1  0
 63 72  2  0
 63 68  1  0
 64 60  1  0
 64 68  1  0
 65 64  1  0
 66 67  1  0
 66 65  1  0
 67 63  1  0
 68 69  2  0
 69 70  1  0
 71 70  2  0
 72 71  1  0
 73 47  1  0
 73 74  1  0
 73 83  1  0
 74 77  1  0
 75 79  1  0
 75 74  1  0
 76 75  2  0
 79 78  1  0
 81 79  1  0
 81 82  1  0
 81 80  1  0
 83 86  1  1
 83 84  1  0
 85 83  1  0
M  ISO  4   2 100   6 101  10 100  46 101
M  END
>  <TORSDO>  (30) 
F 16

>  <SCORE>  (30) 
-16.836

>  <name>  (30) 
29

>  <ligand_id>  (30) 
29

>  <original_smiles>  (30) 
[H]c1c([H])c([H])c2c(c1[H])C([H])([H])C([H])([H])C([H])([H])C2([H])N([H])C(=O)C1([H])N(C(=O)C([H])(N([H])C(=O)C([H])(N([H])C([H])([H])[H])C([H])([H])[H])C(C([H])([H])[H])(C([H])([H])[H])C([H])([H])[H])C([H])([H])c2c([H])c(Oc3c(C([H])([H])[H])c([H])c(C(=O)N4C([H])([H])C([H])([H])C([H])([H])C([H])(n5nc(-c6c([H])c([H])c(Oc7c([H])c([H])c(F)c([H])c7F)c([H])c6[H])c(C(=O)N([H])[H])c5N([H])[H])C4([H])[H])c(C([H])([H])[H])c3C([H])([H])[H])c([H])c([H])c2C1([H])[H]

>  <smiles>  (30) 
[H]c1c([H])c([H])c2c(c1[H])C([H])([H])C([H])([H])C([H])([H])C2([H])N([H])C(=O)C1([H])N(C(=O)C([H])(N([H])C(=O)C([H])(N([H])C([H])([H])[H])C([H])([H])[H])C(C([H])([H])[H])(C([H])([H])[H])C([H])([H])[H])C([H])([H])c2c([H])c(Oc3c(C([H])([H])[H])c([H])c(C(=O)N4C([H])([H])C([H])([H])C([H])([H])C([H])(n5nc(-c6c([H])c([H])c(Oc7c([H])c([H])c(F)c([H])c7F)c([H])c6[H])c(C(=O)N([H])[H])c5N([H])[H])C4([H])[H])c(C([H])([H])[H])c3C([H])([H])[H])c([H])c([H])c2C1([H])[H]

$$$$
30:0:0
     RDKit          3D

 87 95  0  0  1  0  0  0  0  0999 V2000
  -29.1570  -21.5910   21.3600 C   0  0  0  0  0  3  0  0  0  0  0  0
  -28.4650  -21.4590   19.2620 C   0  0  0  0  0  3  0  0  0  0  0  0
  -28.8230  -23.0880   21.3750 C   0  0  0  0  0  3  0  0  0  0  0  0
  -28.1310  -22.9620   19.2790 C   0  0  0  0  0  3  0  0  0  0  0  0
  -29.0320  -20.5440   20.3040 C   0  0  0  0  0  0  0  0  0  0  0  0
  -28.2570  -24.0070   20.3430 C   0  0  0  0  0  0  0  0  0  0  0  0
  -30.7810  -18.9920   19.0230 C   0  0  0  0  0  1  0  0  0  0  0  0
  -29.8120  -18.8400   20.2030 C   0  0  0  0  0  0  0  0  0  0  0  0
  -30.2470  -15.7120   20.1570 C   0  0  0  0  0  0  0  0  0  0  0  0
  -30.3070  -13.1880   19.2880 C   0  0  0  0  0  2  0  0  0  0  0  0
  -29.3790  -12.8100   18.0980 C   0  0  0  0  0  2  0  0  0  0  0  0
  -27.9730  -12.4450   18.5970 C   0  0  0  0  0  2  0  0  0  0  0  0
  -27.4950  -13.4280   19.6890 C   0  0  0  0  0  3  0  0  0  0  0  0
  -28.5590  -13.7260   20.7710 C   0  0  0  0  0  2  0  0  0  0  0  0
  -29.7090  -14.3550   20.0820 N   0  0  0  0  0  0  0  0  0  0  0  0
  -31.4740  -15.6380   19.9500 O   0  0  0  0  0  0  0  0  0  0  0  0
  -29.5180  -17.0890   20.2670 N   0  0  0  0  0  4  0  0  0  0  0  0
  -28.5310  -16.9170   20.3970 H   0  0  0  0  0  0  0  0  0  0  0  0
  -25.1610  -13.9320   20.5500 C   0  0  0  0  0  0  0  0  0  0  0  0
  -24.1190  -13.1370   20.9360 C   0  0  0  0  0  0  0  0  0  0  0  0
  -24.5950  -11.7920   20.8560 C   0  0  0  0  0  0  0  0  0  0  0  0
  -26.2000  -13.0720   20.2480 N   0  0  0  0  0  0  0  0  0  0  0  0
  -25.8760  -11.7760   20.5000 N   0  0  0  0  0  0  0  0  0  0  0  0
  -23.8800  -10.5210   21.0390 C   0  0  0  0  0  0  0  0  0  0  0  0
  -24.3320   -9.5420   21.9510 C   0  0  0  0  0  3  0  0  0  0  0  0
  -23.6130   -8.3400   22.1260 C   0  0  0  0  0  3  0  0  0  0  0  0
  -22.4260   -8.1080   21.3890 C   0  0  0  0  0  0  0  0  0  0  0  0
  -21.9920   -9.0770   20.4670 C   0  0  0  0  0  3  0  0  0  0  0  0
  -22.7120  -10.2700   20.2900 C   0  0  0  0  0  3  0  0  0  0  0  0
  -21.6770   -6.9600   21.4750 O   0  0  0  0  0  0  0  0  0  0  0  0
  -21.6360   -6.2110   22.6240 C   0  0  0  0  0  0  0  0  0  0  0  0
  -21.1780   -6.7500   23.8470 C   0  0  0  0  0  3  0  0  0  0  0  0
  -21.0830   -5.9260   24.9870 C   0  0  0  0  0  3  0  0  0  0  0  0
  -21.4380   -4.5670   24.9050 C   0  0  0  0  0  0  0  0  0  0  0  0
  -21.8890   -4.0280   23.6870 C   0  0  0  0  0  3  0  0  0  0  0  0
  -21.9840   -4.8480   22.5490 C   0  0  0  0  0  0  0  0  0  0  0  0
  -22.4000   -4.3190   21.3730 F   0  0  0  0  0  0  0  0  0  0  0  0
  -21.3410   -3.7740   25.9970 F   0  0  0  0  0  0  0  0  0  0  0  0
  -22.7290  -13.6000   21.2560 C   0  0  0  0  0  0  0  0  0  0  0  0
  -22.0300  -12.8830   22.1280 N   0  0  0  0  0  0  0  0  0  0  0  0
  -22.2730  -14.6340   20.7690 O   0  0  0  0  0  0  0  0  0  0  0  0
  -22.4130  -12.0480   22.5440 H   0  0  0  0  0  0  0  0  0  0  0  0
  -21.0980  -13.1770   22.3860 H   0  0  0  0  0  0  0  0  0  0  0  0
  -25.3060  -15.3070   20.3980 N   0  0  0  0  0  0  0  0  0  0  0  0
  -24.5330  -15.9470   20.5370 H   0  0  0  0  0  0  0  0  0  0  0  0
  -26.1270  -15.7570   20.0120 H   0  0  0  0  0  0  0  0  0  0  0  0
  -28.1870  -25.6290   20.3330 O   0  0  0  0  0  0  0  0  0  0  0  0
  -24.6650  -31.9250   23.2300 C   0  0  0  0  0  0  0  0  0  0  0  0
  -27.1720  -26.8030   20.3070 C   0  0  0  0  0  0  0  0  0  0  0  0
  -23.4730  -30.5150   21.6070 C   0  0  0  0  0  3  0  0  0  0  0  0
  -24.9110  -28.8390   20.2190 C   0  0  0  0  0  0  0  0  0  0  0  0
  -26.0510  -30.6410   21.4910 C   0  0  0  0  0  2  0  0  0  0  0  0
  -26.1050  -29.2000   20.8550 C   0  0  0  0  0  0  0  0  0  0  0  0
  -27.2170  -28.2080   20.8680 C   0  0  0  0  0  3  0  0  0  0  0  0
  -25.9480  -26.6510   19.6080 C   0  0  0  0  0  3  0  0  0  0  0  0
  -24.8700  -27.5890   19.5740 C   0  0  0  0  0  3  0  0  0  0  0  0
  -23.7100  -29.7990   20.2450 C   0  0  0  0  0  2  0  0  0  0  0  0
  -24.7530  -31.0620   22.1600 N   0  0  0  0  0  0  0  0  0  0  0  0
  -23.5730  -32.2370   23.7350 O   0  0  0  0  0  0  0  0  0  0  0  0
  -22.7490  -29.5530   22.5890 C   0  0  0  0  0  0  0  0  0  0  0  0
  -21.4180  -29.3970   22.4560 N   0  0  0  0  0  0  0  0  0  0  0  0
  -23.3990  -28.9460   23.4430 O   0  0  0  0  0  0  0  0  0  0  0  0
  -20.9450  -29.9370   21.7450 H   0  0  0  0  0  0  0  0  0  0  0  0
  -18.0260  -28.1950   22.9660 C   0  0  0  0  0  0  0  0  0  0  0  0
  -20.5850  -28.4730   23.2380 C   0  0  0  0  0  3  0  0  0  0  0  0
  -20.6910  -27.0310   22.6890 C   0  0  0  0  0  2  0  0  0  0  0  0
  -19.5950  -26.6900   21.6730 C   0  0  0  0  0  2  0  0  0  0  0  0
  -18.2100  -26.8380   22.3080 C   0  0  0  0  0  2  0  0  0  0  0  0
  -19.1400  -28.9690   23.3880 C   0  0  0  0  0  0  0  0  0  0  0  0
  -18.9110  -30.2350   23.9700 C   0  0  0  0  0  3  0  0  0  0  0  0
  -17.6030  -30.7280   24.1310 C   0  0  0  0  0  3  0  0  0  0  0  0
  -16.5040  -29.9540   23.7210 C   0  0  0  0  0  3  0  0  0  0  0  0
  -16.7160  -28.6880   23.1440 C   0  0  0  0  0  3  0  0  0  0  0  0
  -25.9310  -32.5760   23.8650 C   0  0  0  0  0  3  0  0  0  0  0  0
  -25.6140  -33.9820   24.1860 N   0  0  0  0  0  0  0  0  0  0  0  0
  -25.9400  -35.0390   23.4300 C   0  0  0  0  0  0  0  0  0  0  0  0
  -26.5950  -34.9330   22.3910 O   0  0  0  0  0  0  0  0  0  0  0  0
  -25.0260  -34.1360   24.9920 H   0  0  0  0  0  0  0  0  0  0  0  0
  -24.2080  -36.8450   23.1210 C   0  0  0  0  0  1  0  0  0  0  0  0
  -25.4700  -36.4340   23.8970 C   0  0  0  0  0  3  0  0  0  0  0  0
  -27.6170  -37.3360   24.6800 C   0  0  0  0  0  1  0  0  0  0  0  0
  -26.5030  -37.4820   23.7470 N   0  0  0  0  0  0  0  0  0  0  0  0
  -26.1020  -38.4080   23.8720 H   0  0  0  0  0  0  0  0  0  0  0  0
  -26.4220  -31.8300   25.1690 C   0  0  1  0  0  0  0  0  0  0  0  0
  -25.3120  -31.6200   26.2260 C   0  0  0  0  0  1  0  0  0  0  0  0
  -27.0060  -30.4410   24.8280 C   0  0  0  0  0  1  0  0  0  0  0  0
  -27.5660  -32.6320   25.8320 C   0  0  0  0  0  1  0  0  0  0  0  0
  1  3  1  0
  2  4  2  0
  2  5  1  0
  4  6  1  0
  5  1  2  0
  6  3  2  0
  7  8  1  0
  8 17  2  0
  8  5  1  0
  9 17  1  0
 10 15  1  0
 11 12  1  0
 11 10  1  0
 13 12  1  0
 13 22  1  0
 13 14  1  0
 15  9  1  0
 15 14  1  0
 16  9  2  0
 17 18  1  0
 19 20  2  0
 20 39  1  0
 21 20  1  0
 21 24  1  0
 22 23  1  0
 22 19  1  0
 23 21  2  0
 24 25  1  0
 25 26  2  0
 27 30  1  0
 27 26  1  0
 28 27  2  0
 29 28  1  0
 29 24  2  0
 30 31  1  0
 31 32  1  0
 32 33  2  0
 34 33  1  0
 34 38  1  0
 35 34  2  0
 36 31  2  0
 36 35  1  0
 37 36  1  0
 39 40  1  0
 40 43  1  0
 40 42  1  0
 41 39  2  0
 44 45  1  0
 44 19  1  0
 46 44  1  0
 47  6  1  0
 48 59  2  0
 49 47  1  0
 49 54  1  0
 50 58  1  0
 50 60  1  0
 51 57  1  0
 51 53  1  0
 52 58  1  0
 53 54  2  0
 53 52  1  0
 55 49  2  0
 56 55  1  0
 56 51  2  0
 57 50  1  0
 58 48  1  0
 60 62  2  0
 61 60  1  0
 63 61  1  0
 64 73  2  0
 64 69  1  0
 65 61  1  0
 65 69  1  0
 66 65  1  0
 67 68  1  0
 67 66  1  0
 68 64  1  0
 69 70  2  0
 70 71  1  0
 72 71  2  0
 73 72  1  0
 74 48  1  0
 74 75  1  0
 74 84  1  0
 75 78  1  0
 76 80  1  0
 76 75  1  0
 77 76  2  0
 80 79  1  0
 82 83  1  0
 82 80  1  0
 82 81  1  0
 84 87  1  1
 84 85  1  0
 86 84  1  0
M  ISO  4   6 101   9 100  17 100  47 101
M  END
>  <TORSDO>  (31) 
F 17

>  <SCORE>  (31) 
-15.871

>  <name>  (31) 
30

>  <ligand_id>  (31) 
30

>  <original_smiles>  (31) 
[H]c1c([H])c([H])c2c(c1[H])C([H])([H])C([H])([H])C([H])([H])C2([H])N([H])C(=O)C1([H])N(C(=O)C([H])(N([H])C(=O)C([H])(N([H])C([H])([H])[H])C([H])([H])[H])C(C([H])([H])[H])(C([H])([H])[H])C([H])([H])[H])C([H])([H])c2c([H])c(Oc3c([H])c([H])c(C([H])(N([H])C(=O)N4C([H])([H])C([H])([H])C([H])([H])C([H])(n5nc(-c6c([H])c([H])c(Oc7c([H])c([H])c(F)c([H])c7F)c([H])c6[H])c(C(=O)N([H])[H])c5N([H])[H])C4([H])[H])C([H])([H])[H])c([H])c3[H])c([H])c([H])c2C1([H])[H]

>  <smiles>  (31) 
[H]c1c([H])c([H])c2c(c1[H])C([H])([H])C([H])([H])C([H])([H])C2([H])N([H])C(=O)C1([H])N(C(=O)C([H])(N([H])C(=O)C([H])(N([H])C([H])([H])[H])C([H])([H])[H])C(C([H])([H])[H])(C([H])([H])[H])C([H])([H])[H])C([H])([H])c2c([H])c(Oc3c([H])c([H])c(C([H])(N([H])C(=O)N4C([H])([H])C([H])([H])C([H])([H])C([H])(n5nc(-c6c([H])c([H])c(Oc7c([H])c([H])c(F)c([H])c7F)c([H])c6[H])c(C(=O)N([H])[H])c5N([H])[H])C4([H])[H])C([H])([H])[H])c([H])c3[H])c([H])c([H])c2C1([H])[H]

$$$$
31:0:0
     RDKit          3D

 93 98  0  0  1  0  0  0  0  0999 V2000
  -29.5570  -19.5020   20.3820 C   0  0  0  0  0  2  0  0  0  0  0  0
  -30.1770  -16.1040   20.2770 C   0  0  0  0  0  0  0  0  0  0  0  0
  -30.3850  -13.4690   19.5000 C   0  0  0  0  0  2  0  0  0  0  0  0
  -29.5520  -12.8490   18.3310 C   0  0  0  0  0  2  0  0  0  0  0  0
  -28.1570  -12.4130   18.7990 C   0  0  0  0  0  2  0  0  0  0  0  0
  -27.5770  -13.4490   19.7820 C   0  0  0  0  0  3  0  0  0  0  0  0
  -28.5720  -13.9450   20.8680 C   0  0  0  0  0  2  0  0  0  0  0  0
  -29.6740  -14.6860   20.1700 N   0  0  0  0  0  0  0  0  0  0  0  0
  -31.4170  -15.9330   20.2510 O   0  0  0  0  0  0  0  0  0  0  0  0
  -29.4550  -17.5900   20.2530 N   0  0  0  0  0  0  0  0  0  0  0  0
  -28.4710  -17.3730   20.1730 H   0  0  0  0  0  0  0  0  0  0  0  0
  -25.2140  -13.9380   20.5450 C   0  0  0  0  0  0  0  0  0  0  0  0
  -24.1570  -13.1490   20.8960 C   0  0  0  0  0  0  0  0  0  0  0  0
  -24.6380  -11.8030   20.8630 C   0  0  0  0  0  0  0  0  0  0  0  0
  -26.2690  -13.0800   20.3060 N   0  0  0  0  0  0  0  0  0  0  0  0
  -25.9370  -11.7840   20.5620 N   0  0  0  0  0  0  0  0  0  0  0  0
  -23.9130  -10.5350   21.0400 C   0  0  0  0  0  0  0  0  0  0  0  0
  -24.3360   -9.5630   21.9720 C   0  0  0  0  0  3  0  0  0  0  0  0
  -23.6060   -8.3670   22.1430 C   0  0  0  0  0  3  0  0  0  0  0  0
  -22.4370   -8.1330   21.3810 C   0  0  0  0  0  0  0  0  0  0  0  0
  -22.0320   -9.0940   20.4370 C   0  0  0  0  0  3  0  0  0  0  0  0
  -22.7630  -10.2810   20.2660 C   0  0  0  0  0  3  0  0  0  0  0  0
  -21.6800   -6.9890   21.4610 O   0  0  0  0  0  0  0  0  0  0  0  0
  -21.6240   -6.2410   22.6100 C   0  0  0  0  0  0  0  0  0  0  0  0
  -21.1810   -6.7860   23.8350 C   0  0  0  0  0  3  0  0  0  0  0  0
  -21.0720   -5.9640   24.9730 C   0  0  0  0  0  3  0  0  0  0  0  0
  -21.3970   -4.5980   24.8890 C   0  0  0  0  0  0  0  0  0  0  0  0
  -21.8320   -4.0500   23.6700 C   0  0  0  0  0  3  0  0  0  0  0  0
  -21.9410   -4.8690   22.5320 C   0  0  0  0  0  0  0  0  0  0  0  0
  -22.3410   -4.3320   21.3550 F   0  0  0  0  0  0  0  0  0  0  0  0
  -21.2860   -3.8050   25.9820 F   0  0  0  0  0  0  0  0  0  0  0  0
  -22.7540  -13.6160   21.1430 C   0  0  0  0  0  0  0  0  0  0  0  0
  -22.0190  -12.9220   22.0040 N   0  0  0  0  0  0  0  0  0  0  0  0
  -22.3200  -14.6370   20.6100 O   0  0  0  0  0  0  0  0  0  0  0  0
  -22.3860  -12.0980   22.4590 H   0  0  0  0  0  0  0  0  0  0  0  0
  -21.0770  -13.2170   22.2120 H   0  0  0  0  0  0  0  0  0  0  0  0
  -25.3640  -15.3110   20.3710 N   0  0  0  0  0  0  0  0  0  0  0  0
  -24.5900  -15.9580   20.4800 H   0  0  0  0  0  0  0  0  0  0  0  0
  -26.2130  -15.7560   20.0480 H   0  0  0  0  0  0  0  0  0  0  0  0
  -30.9600  -19.9560   19.8790 C   0  0  0  0  0  2  0  0  0  0  0  0
  -33.8860  -17.2780   18.0450 C   0  0  0  0  0  3  0  0  0  0  0  0
  -34.1240  -17.8200   19.3190 C   0  0  0  0  0  3  0  0  0  0  0  0
  -32.6820  -17.5630   17.3810 C   0  0  0  0  0  3  0  0  0  0  0  0
  -33.1620  -18.6470   19.9360 C   0  0  0  0  0  0  0  0  0  0  0  0
  -31.7110  -18.3960   17.9750 C   0  0  0  0  0  0  0  0  0  0  0  0
  -31.9410  -18.9480   19.2680 C   0  0  0  0  0  0  0  0  0  0  0  0
  -33.4810  -19.2020   21.3150 C   0  0  0  0  0  1  0  0  0  0  0  0
  -30.4490  -18.6810   17.1690 C   0  0  0  0  0  2  0  0  0  0  0  0
  -29.3940  -20.0540   15.2940 C   0  0  0  0  0  1  0  0  0  0  0  0
  -30.6470  -19.8060   16.1420 C   0  0  0  0  0  2  0  0  0  0  0  0
  -28.5730  -21.3340   20.0480 C   0  0  0  0  0 15  0  0  0  0  0  0
  -28.2510  -23.3620   20.5440 C   0  0  0  0  0 15  0  0  0  0  0  0
  -28.1570  -25.2260   20.1950 O   0  0  0  0  0  1  0  0  0  0  0  0
  -24.5940  -31.8240   23.1280 C   0  0  0  0  0  0  0  0  0  0  0  0
  -27.1720  -26.5220   20.2430 C   0  0  0  0  0  0  0  0  0  0  0  0
  -23.4340  -30.3860   21.5130 C   0  0  0  0  0  3  0  0  0  0  0  0
  -24.9020  -28.6850   20.1470 C   0  0  0  0  0  0  0  0  0  0  0  0
  -26.0230  -30.4860   21.4200 C   0  0  0  0  0  2  0  0  0  0  0  0
  -26.1010  -29.0180   20.7870 C   0  0  0  0  0  0  0  0  0  0  0  0
  -27.2110  -27.9760   20.7880 C   0  0  0  0  0  3  0  0  0  0  0  0
  -25.9290  -26.4640   19.5440 C   0  0  0  0  0  3  0  0  0  0  0  0
  -24.8690  -27.4360   19.4990 C   0  0  0  0  0  3  0  0  0  0  0  0
  -23.6970  -29.6540   20.1620 C   0  0  0  0  0  2  0  0  0  0  0  0
  -24.7110  -30.9400   22.0710 N   0  0  0  0  0  0  0  0  0  0  0  0
  -23.4920  -32.1280   23.6200 O   0  0  0  0  0  0  0  0  0  0  0  0
  -22.7040  -29.4350   22.5020 C   0  0  0  0  0  0  0  0  0  0  0  0
  -21.3700  -29.2810   22.3820 N   0  0  0  0  0  0  0  0  0  0  0  0
  -23.3570  -28.8270   23.3540 O   0  0  0  0  0  0  0  0  0  0  0  0
  -20.8900  -29.8200   21.6740 H   0  0  0  0  0  0  0  0  0  0  0  0
  -17.9860  -28.0570   22.9330 C   0  0  0  0  0  0  0  0  0  0  0  0
  -20.5480  -28.3490   23.1670 C   0  0  0  0  0  3  0  0  0  0  0  0
  -20.6520  -26.9110   22.6050 C   0  0  0  0  0  2  0  0  0  0  0  0
  -19.5450  -26.5750   21.6010 C   0  0  0  0  0  2  0  0  0  0  0  0
  -18.1670  -26.7100   22.2560 C   0  0  0  0  0  2  0  0  0  0  0  0
  -19.1030  -28.8350   23.3450 C   0  0  0  0  0  0  0  0  0  0  0  0
  -18.8740  -30.0920   23.9450 C   0  0  0  0  0  3  0  0  0  0  0  0
  -17.5640  -30.5740   24.1310 C   0  0  0  0  0  3  0  0  0  0  0  0
  -16.4640  -29.7980   23.7310 C   0  0  0  0  0  3  0  0  0  0  0  0
  -16.6760  -28.5400   23.1380 C   0  0  0  0  0  3  0  0  0  0  0  0
  -25.8370  -32.5110   23.7730 C   0  0  0  0  0  3  0  0  0  0  0  0
  -25.4810  -33.9050   24.1140 N   0  0  0  0  0  0  0  0  0  0  0  0
  -25.8010  -34.9890   23.3930 C   0  0  0  0  0  0  0  0  0  0  0  0
  -26.4790  -34.9210   22.3660 O   0  0  0  0  0  0  0  0  0  0  0  0
  -24.8730  -34.0270   24.9110 H   0  0  0  0  0  0  0  0  0  0  0  0
  -24.0520  -36.7800   23.0810 C   0  0  0  0  0  1  0  0  0  0  0  0
  -25.2950  -36.3640   23.8850 C   0  0  0  0  0  3  0  0  0  0  0  0
  -27.4110  -37.2650   24.7510 C   0  0  0  0  0  1  0  0  0  0  0  0
  -26.3140  -37.4350   23.8020 N   0  0  0  0  0  0  0  0  0  0  0  0
  -25.8940  -38.3460   23.9630 H   0  0  0  0  0  0  0  0  0  0  0  0
  -26.3470  -31.7660   25.0690 C   0  0  1  0  0  0  0  0  0  0  0  0
  -25.2450  -31.5290   26.1290 C   0  0  0  0  0  1  0  0  0  0  0  0
  -26.9560  -30.3900   24.7220 C   0  0  0  0  0  1  0  0  0  0  0  0
  -27.4790  -32.5870   25.7320 C   0  0  0  0  0  1  0  0  0  0  0  0
  3  8  1  0
  4  5  1  0
  4  3  1  0
  6  5  1  0
  6 15  1  0
  6  7  1  0
  8  2  1  0
  8  7  1  0
  9  2  2  0
 10  2  1  0
 10  1  1  0
 11 10  1  0
 12 13  2  0
 13 32  1  0
 14 13  1  0
 14 17  1  0
 15 12  1  0
 15 16  1  0
 16 14  2  0
 17 18  1  0
 18 19  2  0
 20 23  1  0
 20 19  1  0
 21 20  2  0
 22 21  1  0
 22 17  2  0
 23 24  1  0
 24 25  1  0
 25 26  2  0
 27 26  1  0
 27 31  1  0
 28 27  2  0
 29 24  2  0
 29 28  1  0
 30 29  1  0
 32 33  1  0
 33 36  1  0
 33 35  1  0
 34 32  2  0
 37 38  1  0
 37 12  1  0
 39 37  1  0
 40  1  1  0
 41 42  1  0
 42 44  2  0
 43 45  1  0
 43 41  2  0
 44 47  1  0
 45 46  2  0
 46 40  1  0
 46 44  1  0
 48 45  1  0
 49 50  1  0
 50 48  1  0
 53 55  1  0
 54 65  2  0
 55 60  1  0
 56 64  1  0
 56 66  1  0
 57 63  1  0
 57 59  1  0
 58 64  1  0
 59 60  2  0
 59 58  1  0
 61 55  2  0
 62 61  1  0
 62 57  2  0
 63 56  1  0
 64 54  1  0
 66 68  2  0
 67 66  1  0
 69 67  1  0
 70 79  2  0
 70 75  1  0
 71 67  1  0
 71 75  1  0
 72 71  1  0
 73 74  1  0
 73 72  1  0
 74 70  1  0
 75 76  2  0
 76 77  1  0
 78 77  2  0
 79 78  1  0
 80 54  1  0
 80 81  1  0
 80 90  1  0
 81 84  1  0
 82 86  1  0
 82 81  1  0
 83 82  2  0
 86 85  1  0
 88 86  1  0
 88 89  1  0
 88 87  1  0
 90 93  1  1
 90 91  1  0
 92 90  1  0
M  ISO  4   2 100  10 100  52 101  53 101
M  END
>  <TORSDO>  (32) 
F 22

>  <SCORE>  (32) 
-14.960

>  <name>  (32) 
31

>  <ligand_id>  (32) 
31

>  <original_smiles>  (32) 
[H]c1c([H])c(C([H])([H])[H])c(C([H])([H])C([H])(N([H])C(=O)N2C([H])([H])C([H])([H])C([H])([H])C([H])(n3nc(-c4c([H])c([H])c(Oc5c([H])c([H])c(F)c([H])c5F)c([H])c4[H])c(C(=O)N([H])[H])c3N([H])[H])C2([H])[H])C([H])([H])C([H])([H])Oc2c([H])c([H])c3c(c2[H])C([H])([H])N(C(=O)C([H])(N([H])C(=O)C([H])(N([H])C([H])([H])[H])C([H])([H])[H])C(C([H])([H])[H])(C([H])([H])[H])C([H])([H])[H])C([H])(C(=O)N([H])C2([H])c4c([H])c([H])c([H])c([H])c4C([H])([H])C([H])([H])C2([H])[H])C3([H])[H])c(C([H])([H])C([H])([H])C([H])([H])[H])c1[H]

>  <smiles>  (32) 
[H]c1c([H])c(C([H])([H])[H])c(C([H])([H])C([H])(N([H])C(=O)N2C([H])([H])C([H])([H])C([H])([H])C([H])(n3nc(-c4c([H])c([H])c(Oc5c([H])c([H])c(F)c([H])c5F)c([H])c4[H])c(C(=O)N([H])[H])c3N([H])[H])C2([H])[H])C([H])([H])C([H])([H])Oc2c([H])c([H])c3c(c2[H])C([H])([H])N(C(=O)C([H])(N([H])C(=O)C([H])(N([H])C([H])([H])[H])C([H])([H])[H])C(C([H])([H])[H])(C([H])([H])[H])C([H])([H])[H])C([H])(C(=O)N([H])C2([H])c4c([H])c([H])c([H])c([H])c4C([H])([H])C([H])([H])C2([H])[H])C3([H])[H])c(C([H])([H])C([H])([H])C([H])([H])[H])c1[H]

$$$$
32:0:0
     RDKit          3D

 92100  0  0  1  0  0  0  0  0999 V2000
  -30.5050  -20.8440   20.5820 C   0  0  0  0  0  3  0  0  0  0  0  0
  -30.7420  -19.3950   20.6340 C   0  0  0  0  0  3  0  0  0  0  0  0
  -29.3520  -21.5570   20.0590 C   0  0  0  0  0  0  0  0  0  0  0  0
  -29.8660  -18.3360   20.1720 C   0  0  0  0  0  0  0  0  0  0  0  0
  -28.4830  -20.5180   19.5130 C   0  0  0  0  0  0  0  0  0  0  0  0
  -28.7270  -19.0420   19.5710 C   0  0  0  0  0  0  0  0  0  0  0  0
  -27.1930  -20.9710   18.8430 C   0  0  0  0  0  1  0  0  0  0  0  0
  -28.6430  -16.3950   21.3940 C   0  0  0  0  0  1  0  0  0  0  0  0
  -30.9950  -16.7280   21.8450 C   0  0  0  0  0  1  0  0  0  0  0  0
  -29.9770  -16.6690   20.6730 C   0  0  2  0  0  0  0  0  0  0  0  0
  -30.5230  -15.1930   19.9130 C   0  0  0  0  0  0  0  0  0  0  0  0
  -30.4250  -12.7960   18.9260 C   0  0  0  0  0  2  0  0  0  0  0  0
  -29.4040  -12.6680   17.7650 C   0  0  0  0  0  2  0  0  0  0  0  0
  -27.9810  -12.3980   18.2900 C   0  0  0  0  0  2  0  0  0  0  0  0
  -27.6390  -13.3050   19.4980 C   0  0  0  0  0  3  0  0  0  0  0  0
  -28.7770  -13.3060   20.5390 C   0  0  0  0  0  2  0  0  0  0  0  0
  -29.9690  -13.8780   19.8770 N   0  0  0  0  0  0  0  0  0  0  0  0
  -31.6340  -15.2350   19.3620 O   0  0  0  0  0  0  0  0  0  0  0  0
  -25.3240  -13.8530   20.4380 C   0  0  0  0  0  0  0  0  0  0  0  0
  -24.2950  -13.0700   20.8770 C   0  0  0  0  0  0  0  0  0  0  0  0
  -24.7490  -11.7200   20.7570 C   0  0  0  0  0  0  0  0  0  0  0  0
  -26.3430  -12.9850   20.0860 N   0  0  0  0  0  0  0  0  0  0  0  0
  -26.0100  -11.6920   20.3400 N   0  0  0  0  0  0  0  0  0  0  0  0
  -24.0300  -10.4560   20.9570 C   0  0  0  0  0  0  0  0  0  0  0  0
  -24.4740   -9.4930   21.8900 C   0  0  0  0  0  3  0  0  0  0  0  0
  -23.7530   -8.2940   22.0790 C   0  0  0  0  0  3  0  0  0  0  0  0
  -22.5740   -8.0500   21.3360 C   0  0  0  0  0  0  0  0  0  0  0  0
  -22.1480   -9.0020   20.3930 C   0  0  0  0  0  3  0  0  0  0  0  0
  -22.8700  -10.1920   20.2010 C   0  0  0  0  0  3  0  0  0  0  0  0
  -21.8230   -6.9040   21.4350 O   0  0  0  0  0  0  0  0  0  0  0  0
  -21.7170   -6.2150   22.6170 C   0  0  0  0  0  0  0  0  0  0  0  0
  -21.1950   -6.8120   23.7840 C   0  0  0  0  0  3  0  0  0  0  0  0
  -21.0390   -6.0470   24.9570 C   0  0  0  0  0  3  0  0  0  0  0  0
  -21.3930   -4.6840   24.9630 C   0  0  0  0  0  0  0  0  0  0  0  0
  -21.9080   -4.0870   23.8000 C   0  0  0  0  0  3  0  0  0  0  0  0
  -22.0670   -4.8480   22.6290 C   0  0  0  0  0  0  0  0  0  0  0  0
  -22.5430   -4.2620   21.5050 F   0  0  0  0  0  0  0  0  0  0  0  0
  -21.2360   -3.9470   26.0870 F   0  0  0  0  0  0  0  0  0  0  0  0
  -22.9260  -13.5430   21.2720 C   0  0  0  0  0  0  0  0  0  0  0  0
  -22.2630  -12.8200   22.1670 N   0  0  0  0  0  0  0  0  0  0  0  0
  -22.4580  -14.5890   20.8240 O   0  0  0  0  0  0  0  0  0  0  0  0
  -22.6580  -11.9740   22.5500 H   0  0  0  0  0  0  0  0  0  0  0  0
  -21.3490  -13.1170   22.4750 H   0  0  0  0  0  0  0  0  0  0  0  0
  -25.4600  -15.2260   20.2720 N   0  0  0  0  0  0  0  0  0  0  0  0
  -24.6490  -15.8240   20.3880 H   0  0  0  0  0  0  0  0  0  0  0  0
  -26.1250  -15.6030   19.6120 H   0  0  0  0  0  0  0  0  0  0  0  0
  -29.2750  -23.2500   20.1650 C   0  0  0  0  0  0  0  0  0  0  0  0
  -30.3110  -23.7690   20.5920 O   0  0  0  0  0  0  0  0  0  0  0  0
  -28.1050  -24.4460   19.8330 C   0  0  0  0  0  2  0  0  0  0  0  0
  -28.3280  -26.0290   20.0610 O   0  0  0  0  0  0  0  0  0  0  0  0
  -24.5690  -31.7550   23.0550 C   0  0  0  0  0  0  0  0  0  0  0  0
  -27.2750  -27.0530   19.9960 C   0  0  0  0  0  0  0  0  0  0  0  0
  -23.4280  -30.3730   21.3670 C   0  0  0  0  0  3  0  0  0  0  0  0
  -24.9290  -28.8300   19.9430 C   0  0  0  0  0  0  0  0  0  0  0  0
  -25.9860  -30.6530   21.2660 C   0  0  0  0  0  2  0  0  0  0  0  0
  -26.0940  -29.2640   20.5880 C   0  0  0  0  0  0  0  0  0  0  0  0
  -27.2650  -28.3960   20.5900 C   0  0  0  0  0  3  0  0  0  0  0  0
  -26.0790  -26.7450   19.3130 C   0  0  0  0  0  3  0  0  0  0  0  0
  -24.9410  -27.5890   19.2880 C   0  0  0  0  0  3  0  0  0  0  0  0
  -23.6910  -29.7190   19.9820 C   0  0  0  0  0  2  0  0  0  0  0  0
  -24.6800  -30.9510   21.9510 N   0  0  0  0  0  0  0  0  0  0  0  0
  -23.4670  -32.0160   23.5630 O   0  0  0  0  0  0  0  0  0  0  0  0
  -22.7360  -29.3440   22.2990 C   0  0  0  0  0  0  0  0  0  0  0  0
  -21.4070  -29.1830   22.1660 N   0  0  0  0  0  0  0  0  0  0  0  0
  -23.4010  -28.6930   23.1080 O   0  0  0  0  0  0  0  0  0  0  0  0
  -20.9250  -29.7600   21.4900 H   0  0  0  0  0  0  0  0  0  0  0  0
  -18.0140  -28.0090   22.6710 C   0  0  0  0  0  0  0  0  0  0  0  0
  -20.5810  -28.2240   22.9060 C   0  0  0  0  0  3  0  0  0  0  0  0
  -20.6510  -26.8180   22.2640 C   0  0  0  0  0  2  0  0  0  0  0  0
  -19.5280  -26.5590   21.2540 C   0  0  0  0  0  2  0  0  0  0  0  0
  -18.1590  -26.6930   21.9270 C   0  0  0  0  0  2  0  0  0  0  0  0
  -19.1500  -28.7360   23.1170 C   0  0  0  0  0  0  0  0  0  0  0  0
  -18.9580  -29.9690   23.7750 C   0  0  0  0  0  3  0  0  0  0  0  0
  -17.6630  -30.4770   23.9910 C   0  0  0  0  0  3  0  0  0  0  0  0
  -16.5410  -29.7470   23.5600 C   0  0  0  0  0  3  0  0  0  0  0  0
  -16.7180  -28.5150   22.9060 C   0  0  0  0  0  3  0  0  0  0  0  0
  -25.8200  -32.4020   23.7230 C   0  0  0  0  0  3  0  0  0  0  0  0
  -26.3230  -31.6100   24.9940 C   0  0  1  0  0  0  0  0  0  0  0  0
  -25.2100  -31.3260   26.0300 C   0  0  0  0  0  1  0  0  0  0  0  0
  -26.9440  -30.2550   24.5900 C   0  0  0  0  0  1  0  0  0  0  0  0
  -27.4410  -32.4130   25.7020 C   0  0  0  0  0  1  0  0  0  0  0  0
  -25.4720  -33.7850   24.0900 N   0  0  0  0  0  0  0  0  0  0  0  0
  -25.7900  -34.8710   23.3740 C   0  0  0  0  0  0  0  0  0  0  0  0
  -26.4710  -34.8160   22.3470 O   0  0  0  0  0  0  0  0  0  0  0  0
  -24.8660  -33.9000   24.8890 H   0  0  0  0  0  0  0  0  0  0  0  0
  -24.0300  -36.6470   23.0680 C   0  0  0  0  0  1  0  0  0  0  0  0
  -25.2730  -36.2370   23.8750 C   0  0  0  0  0  3  0  0  0  0  0  0
  -27.3760  -37.1430   24.7620 C   0  0  0  0  0  1  0  0  0  0  0  0
  -26.2850  -37.3130   23.8050 N   0  0  0  0  0  0  0  0  0  0  0  0
  -25.8590  -38.2200   23.9680 H   0  0  0  0  0  0  0  0  0  0  0  0
  -27.7480  -18.2630   19.0320 O   0  0  0  0  0  0  0  0  0  0  0  0
  -27.8550  -17.3530   19.2760 H   0  0  0  0  0  0  0  0  0  0  0  0
  1  2  1  0
  3 47  1  0
  3  1  2  0
  4  2  2  0
  4 10  1  0
  5  6  2  0
  5  3  1  0
  6  4  1  0
  7  5  1  0
 10  8  1  1
 10  9  1  0
 11 10  1  0
 12 17  1  0
 13 14  1  0
 13 12  1  0
 15 14  1  0
 15 22  1  0
 15 16  1  0
 17 11  1  0
 17 16  1  0
 18 11  2  0
 19 20  2  0
 20 39  1  0
 21 20  1  0
 21 24  1  0
 22 23  1  0
 22 19  1  0
 23 21  2  0
 24 25  1  0
 25 26  2  0
 27 30  1  0
 27 26  1  0
 28 27  2  0
 29 28  1  0
 29 24  2  0
 30 31  1  0
 31 36  2  0
 31 32  1  0
 32 33  2  0
 33 34  1  0
 34 38  1  0
 35 34  2  0
 36 35  1  0
 37 36  1  0
 39 40  1  0
 40 43  1  0
 40 42  1  0
 41 39  2  0
 44 45  1  0
 44 19  1  0
 46 44  1  0
 47 48  2  0
 49 50  1  0
 49 47  1  0
 51 62  2  0
 52 50  1  0
 52 57  1  0
 53 61  1  0
 53 63  1  0
 54 60  1  0
 54 56  1  0
 55 61  1  0
 56 57  2  0
 56 55  1  0
 58 52  2  0
 59 58  1  0
 59 54  2  0
 60 53  1  0
 61 51  1  0
 63 65  2  0
 64 63  1  0
 66 64  1  0
 67 76  2  0
 67 72  1  0
 68 64  1  0
 68 72  1  0
 69 68  1  0
 70 71  1  0
 70 69  1  0
 71 67  1  0
 72 73  2  0
 73 74  1  0
 75 74  2  0
 76 75  1  0
 77 51  1  0
 77 82  1  0
 77 78  1  0
 78 81  1  1
 78 79  1  0
 80 78  1  0
 82 85  1  0
 83 87  1  0
 83 82  1  0
 84 83  2  0
 87 86  1  0
 89 87  1  0
 89 90  1  0
 89 88  1  0
 91 92  1  0
 91  6  1  0
M  ISO  4  10 100  11 100  49 101  50 101
M  END
>  <TORSDO>  (33) 
F 20

>  <SCORE>  (33) 
-15.459

>  <name>  (33) 
32

>  <ligand_id>  (33) 
32

>  <original_smiles>  (33) 
[H]Oc1c(C([H])([H])[H])c(C(=O)C([H])([H])Oc2c([H])c([H])c3c(c2[H])C([H])([H])N(C(=O)C([H])(N([H])C(=O)C([H])(N([H])C([H])([H])[H])C([H])([H])[H])C(C([H])([H])[H])(C([H])([H])[H])C([H])([H])[H])C([H])(C(=O)N([H])C2([H])c4c([H])c([H])c([H])c([H])c4C([H])([H])C([H])([H])C2([H])[H])C3([H])[H])c([H])c([H])c1C(C(=O)N1C([H])([H])C([H])([H])C([H])([H])C([H])(n2nc(-c3c([H])c([H])c(Oc4c([H])c([H])c(F)c([H])c4F)c([H])c3[H])c(C(=O)N([H])[H])c2N([H])[H])C1([H])[H])(C([H])([H])[H])C([H])([H])[H]

>  <smiles>  (33) 
[H]Oc1c(C([H])([H])[H])c(C(=O)C([H])([H])Oc2c([H])c([H])c3c(c2[H])C([H])([H])N(C(=O)C([H])(N([H])C(=O)C([H])(N([H])C([H])([H])[H])C([H])([H])[H])C(C([H])([H])[H])(C([H])([H])[H])C([H])([H])[H])C([H])(C(=O)N([H])C2([H])c4c([H])c([H])c([H])c([H])c4C([H])([H])C([H])([H])C2([H])[H])C3([H])[H])c([H])c([H])c1C(C(=O)N1C([H])([H])C([H])([H])C([H])([H])C([H])(n2nc(-c3c([H])c([H])c(Oc4c([H])c([H])c(F)c([H])c4F)c([H])c3[H])c(C(=O)N([H])[H])c2N([H])[H])C1([H])[H])(C([H])([H])[H])C([H])([H])[H]

$$$$
33:0:0
     RDKit          3D

 93101  0  0  1  0  0  0  0  0999 V2000
  -29.4740  -22.2280   20.9650 C   0  0  0  0  0  3  0  0  0  0  0  0
  -27.6000  -23.5280   19.4440 C   0  0  0  0  0  3  0  0  0  0  0  0
  -28.7480  -21.2400   20.1810 C   0  0  0  0  0  0  0  0  0  0  0  0
  -29.2800  -23.7090   20.9960 C   0  0  0  0  0  0  0  0  0  0  0  0
  -27.7810  -22.0510   19.4150 C   0  0  0  0  0  0  0  0  0  0  0  0
  -28.3030  -24.5040   20.2490 C   0  0  0  0  0  0  0  0  0  0  0  0
  -30.1990  -24.5020   21.9040 C   0  0  0  0  0  1  0  0  0  0  0  0
  -26.8390  -21.3610   18.4390 C   0  0  0  0  0  1  0  0  0  0  0  0
  -28.7820  -19.5180   20.2670 C   0  0  0  0  0  0  0  0  0  0  0  0
  -27.6550  -19.0260   20.3790 O   0  0  0  0  0  0  0  0  0  0  0  0
  -30.0100  -18.2290   20.2240 C   0  0  0  0  0  3  0  0  0  0  0  0
  -30.4820  -15.3100   20.2190 C   0  0  0  0  0  0  0  0  0  0  0  0
  -30.4280  -12.8770   19.3340 C   0  0  0  0  0  2  0  0  0  0  0  0
  -29.4810  -12.6730   18.1270 C   0  0  0  0  0  2  0  0  0  0  0  0
  -28.0460  -12.3920   18.6040 C   0  0  0  0  0  2  0  0  0  0  0  0
  -27.6070  -13.3580   19.7330 C   0  0  0  0  0  3  0  0  0  0  0  0
  -28.6810  -13.5200   20.8310 C   0  0  0  0  0  2  0  0  0  0  0  0
  -29.8960  -14.0160   20.1650 N   0  0  0  0  0  0  0  0  0  0  0  0
  -31.7040  -15.2890   20.0320 O   0  0  0  0  0  0  0  0  0  0  0  0
  -29.7290  -16.5800   20.2490 N   0  0  0  0  0  0  0  0  0  0  0  0
  -28.7390  -16.4020   20.3170 H   0  0  0  0  0  0  0  0  0  0  0  0
  -25.2510  -13.8900   20.5510 C   0  0  0  0  0  0  0  0  0  0  0  0
  -24.2030  -13.0980   20.9290 C   0  0  0  0  0  0  0  0  0  0  0  0
  -24.6800  -11.7520   20.8690 C   0  0  0  0  0  0  0  0  0  0  0  0
  -26.2950  -13.0270   20.2710 N   0  0  0  0  0  0  0  0  0  0  0  0
  -25.9660  -11.7340   20.5320 N   0  0  0  0  0  0  0  0  0  0  0  0
  -23.9660  -10.4800   21.0500 C   0  0  0  0  0  0  0  0  0  0  0  0
  -24.4160   -9.5040   21.9670 C   0  0  0  0  0  3  0  0  0  0  0  0
  -23.6970   -8.3010   22.1410 C   0  0  0  0  0  3  0  0  0  0  0  0
  -22.5150   -8.0660   21.3980 C   0  0  0  0  0  0  0  0  0  0  0  0
  -22.0860   -9.0310   20.4720 C   0  0  0  0  0  3  0  0  0  0  0  0
  -22.8040  -10.2250   20.2950 C   0  0  0  0  0  3  0  0  0  0  0  0
  -21.7680   -6.9150   21.4830 O   0  0  0  0  0  0  0  0  0  0  0  0
  -21.7220   -6.1700   22.6340 C   0  0  0  0  0  0  0  0  0  0  0  0
  -21.2660   -6.7120   23.8570 C   0  0  0  0  0  3  0  0  0  0  0  0
  -21.1660   -5.8910   24.9970 C   0  0  0  0  0  3  0  0  0  0  0  0
  -21.5150   -4.5300   24.9200 C   0  0  0  0  0  0  0  0  0  0  0  0
  -21.9610   -3.9850   23.7020 C   0  0  0  0  0  3  0  0  0  0  0  0
  -22.0620   -4.8040   22.5620 C   0  0  0  0  0  0  0  0  0  0  0  0
  -22.4730   -4.2680   21.3880 F   0  0  0  0  0  0  0  0  0  0  0  0
  -21.4120   -3.7400   26.0140 F   0  0  0  0  0  0  0  0  0  0  0  0
  -22.8070  -13.5580   21.2300 C   0  0  0  0  0  0  0  0  0  0  0  0
  -22.1030  -12.8510   22.1060 N   0  0  0  0  0  0  0  0  0  0  0  0
  -22.3510  -14.5820   20.7230 O   0  0  0  0  0  0  0  0  0  0  0  0
  -22.4860  -12.0250   22.5380 H   0  0  0  0  0  0  0  0  0  0  0  0
  -21.1670  -13.1440   22.3510 H   0  0  0  0  0  0  0  0  0  0  0  0
  -25.3970  -15.2650   20.3930 N   0  0  0  0  0  0  0  0  0  0  0  0
  -24.6330  -15.9120   20.5590 H   0  0  0  0  0  0  0  0  0  0  0  0
  -26.2360  -15.7230   20.0650 H   0  0  0  0  0  0  0  0  0  0  0  0
  -32.4730  -18.5830   19.5450 C   0  0  0  0  0  1  0  0  0  0  0  0
  -30.8070  -17.8410   17.7610 C   0  0  0  0  0  1  0  0  0  0  0  0
  -31.0070  -18.6080   19.0810 C   0  0  0  0  0  3  0  0  0  0  0  0
  -28.2540  -26.0340   20.2300 O   0  0  0  0  0  0  0  0  0  0  0  0
  -24.6490  -31.9200   23.2200 C   0  0  0  0  0  0  0  0  0  0  0  0
  -27.1770  -27.0510   20.2160 C   0  0  0  0  0  0  0  0  0  0  0  0
  -23.4360  -30.5120   21.6050 C   0  0  0  0  0  3  0  0  0  0  0  0
  -24.8680  -28.8980   20.1810 C   0  0  0  0  0  0  0  0  0  0  0  0
  -25.9970  -30.7310   21.4280 C   0  0  0  0  0  2  0  0  0  0  0  0
  -26.0570  -29.3190   20.7850 C   0  0  0  0  0  0  0  0  0  0  0  0
  -27.2050  -28.4150   20.7790 C   0  0  0  0  0  3  0  0  0  0  0  0
  -25.9590  -26.7700   19.5630 C   0  0  0  0  0  3  0  0  0  0  0  0
  -24.8380  -27.6410   19.5560 C   0  0  0  0  0  3  0  0  0  0  0  0
  -23.6490  -29.8150   20.2330 C   0  0  0  0  0  2  0  0  0  0  0  0
  -24.7160  -31.0820   22.1380 N   0  0  0  0  0  0  0  0  0  0  0  0
  -23.5660  -32.2150   23.7500 O   0  0  0  0  0  0  0  0  0  0  0  0
  -22.7520  -29.5240   22.5850 C   0  0  0  0  0  0  0  0  0  0  0  0
  -21.4220  -29.3500   22.4640 N   0  0  0  0  0  0  0  0  0  0  0  0
  -23.4220  -28.9100   23.4200 O   0  0  0  0  0  0  0  0  0  0  0  0
  -20.9380  -29.8880   21.7600 H   0  0  0  0  0  0  0  0  0  0  0  0
  -18.0470  -28.1340   22.9890 C   0  0  0  0  0  0  0  0  0  0  0  0
  -20.6050  -28.4220   23.2510 C   0  0  0  0  0  3  0  0  0  0  0  0
  -20.7180  -26.9820   22.7000 C   0  0  0  0  0  2  0  0  0  0  0  0
  -19.6180  -26.6350   21.6910 C   0  0  0  0  0  2  0  0  0  0  0  0
  -18.2350  -26.7790   22.3310 C   0  0  0  0  0  2  0  0  0  0  0  0
  -19.1590  -28.9130   23.4070 C   0  0  0  0  0  0  0  0  0  0  0  0
  -18.9270  -30.1810   23.9870 C   0  0  0  0  0  3  0  0  0  0  0  0
  -17.6160  -30.6670   24.1490 C   0  0  0  0  0  3  0  0  0  0  0  0
  -16.5190  -29.8870   23.7470 C   0  0  0  0  0  3  0  0  0  0  0  0
  -16.7360  -28.6220   23.1710 C   0  0  0  0  0  3  0  0  0  0  0  0
  -25.9280  -32.5620   23.8340 C   0  0  0  0  0  3  0  0  0  0  0  0
  -26.4450  -31.8040   25.1190 C   0  0  1  0  0  0  0  0  0  0  0  0
  -25.3510  -31.5810   26.1920 C   0  0  0  0  0  1  0  0  0  0  0  0
  -27.0220  -30.4190   24.7480 C   0  0  0  0  0  1  0  0  0  0  0  0
  -27.6020  -32.6020   25.7680 C   0  0  0  0  0  1  0  0  0  0  0  0
  -25.6160  -33.9620   24.1650 N   0  0  0  0  0  0  0  0  0  0  0  0
  -25.9270  -35.0180   23.4020 C   0  0  0  0  0  0  0  0  0  0  0  0
  -26.5710  -34.9150   22.3550 O   0  0  0  0  0  0  0  0  0  0  0  0
  -25.0360  -34.1150   24.9780 H   0  0  0  0  0  0  0  0  0  0  0  0
  -24.1840  -36.8110   23.1010 C   0  0  0  0  0  1  0  0  0  0  0  0
  -25.4520  -36.4090   23.8720 C   0  0  0  0  0  3  0  0  0  0  0  0
  -27.6070  -37.3100   24.6360 C   0  0  0  0  0  1  0  0  0  0  0  0
  -26.4780  -37.4650   23.7210 N   0  0  0  0  0  0  0  0  0  0  0  0
  -26.0720  -38.3850   23.8700 H   0  0  0  0  0  0  0  0  0  0  0  0
  1  4  1  0
  2  6  1  0
  3  9  1  0
  3  1  2  0
  4  7  1  0
  5  2  2  0
  5  3  1  0
  6  4  2  0
  8  5  1  0
  9 10  2  0
 11 52  1  0
 11 20  1  0
 11  9  1  0
 12 20  1  0
 13 18  1  0
 14 15  1  0
 14 13  1  0
 16 15  1  0
 16 25  1  0
 16 17  1  0
 18 12  1  0
 18 17  1  0
 19 12  2  0
 20 21  1  0
 22 23  2  0
 23 42  1  0
 24 23  1  0
 24 27  1  0
 25 26  1  0
 25 22  1  0
 26 24  2  0
 27 28  1  0
 28 29  2  0
 30 33  1  0
 30 29  1  0
 31 30  2  0
 32 31  1  0
 32 27  2  0
 33 34  1  0
 34 35  1  0
 35 36  2  0
 37 36  1  0
 37 41  1  0
 38 37  2  0
 39 34  2  0
 39 38  1  0
 40 39  1  0
 42 43  1  0
 43 46  1  0
 43 45  1  0
 44 42  2  0
 47 22  1  0
 47 48  1  0
 49 47  1  0
 51 52  1  0
 52 50  1  0
 53  6  1  0
 54 65  2  0
 55 53  1  0
 55 60  1  0
 56 64  1  0
 56 66  1  0
 57 63  1  0
 57 59  1  0
 58 64  1  0
 59 58  1  0
 60 59  2  0
 61 55  2  0
 62 61  1  0
 62 57  2  0
 63 56  1  0
 64 54  1  0
 66 68  2  0
 67 66  1  0
 69 67  1  0
 70 79  2  0
 70 75  1  0
 71 67  1  0
 71 75  1  0
 72 71  1  0
 73 74  1  0
 73 72  1  0
 74 70  1  0
 75 76  2  0
 76 77  1  0
 78 77  2  0
 79 78  1  0
 80 54  1  0
 80 85  1  0
 80 81  1  0
 81 84  1  1
 81 82  1  0
 83 81  1  0
 85 88  1  0
 86 90  1  0
 86 85  1  0
 87 86  2  0
 90 89  1  0
 92 93  1  0
 92 90  1  0
 92 91  1  0
M  ISO  4   6 101  12 100  20 100  53 101
M  END
>  <TORSDO>  (34) 
F 19

>  <SCORE>  (34) 
-16.101

>  <name>  (34) 
33

>  <ligand_id>  (34) 
33

>  <original_smiles>  (34) 
[H]c1c([H])c([H])c2c(c1[H])C([H])([H])C([H])([H])C([H])([H])C2([H])N([H])C(=O)C1([H])N(C(=O)C([H])(N([H])C(=O)C([H])(N([H])C([H])([H])[H])C([H])([H])[H])C(C([H])([H])[H])(C([H])([H])[H])C([H])([H])[H])C([H])([H])c2c([H])c(Oc3c([H])c(C([H])([H])[H])c(C(=O)C([H])(N([H])C(=O)N4C([H])([H])C([H])([H])C([H])([H])C([H])(n5nc(-c6c([H])c([H])c(Oc7c([H])c([H])c(F)c([H])c7F)c([H])c6[H])c(C(=O)N([H])[H])c5N([H])[H])C4([H])[H])C([H])(C([H])([H])[H])C([H])([H])[H])c([H])c3C([H])([H])[H])c([H])c([H])c2C1([H])[H]

>  <smiles>  (34) 
[H]c1c([H])c([H])c2c(c1[H])C([H])([H])C([H])([H])C([H])([H])C2([H])N([H])C(=O)C1([H])N(C(=O)C([H])(N([H])C(=O)C([H])(N([H])C([H])([H])[H])C([H])([H])[H])C(C([H])([H])[H])(C([H])([H])[H])C([H])([H])[H])C([H])([H])c2c([H])c(Oc3c([H])c(C([H])([H])[H])c(C(=O)C([H])(N([H])C(=O)N4C([H])([H])C([H])([H])C([H])([H])C([H])(n5nc(-c6c([H])c([H])c(Oc7c([H])c([H])c(F)c([H])c7F)c([H])c6[H])c(C(=O)N([H])[H])c5N([H])[H])C4([H])[H])C([H])(C([H])([H])[H])C([H])([H])[H])c([H])c3C([H])([H])[H])c([H])c([H])c2C1([H])[H]

$$$$
34:0:0
     RDKit          3D

 88 96  0  0  1  0  0  0  0  0999 V2000
  -29.0990  -21.5310   21.3620 C   0  0  0  0  0  3  0  0  0  0  0  0
  -28.7710  -23.0300   21.3900 C   0  0  0  0  0  3  0  0  0  0  0  0
  -28.4500  -21.4290   19.2700 C   0  0  0  0  0  3  0  0  0  0  0  0
  -28.9880  -20.4810   20.3030 C   0  0  0  0  0  0  0  0  0  0  0  0
  -28.1190  -22.9400   19.2780 C   0  0  0  0  0  0  0  0  0  0  0  0
  -28.2240  -23.9700   20.3640 C   0  0  0  0  0  0  0  0  0  0  0  0
  -27.6470  -23.4890   17.9440 C   0  0  0  0  0  1  0  0  0  0  0  0
  -29.4050  -17.2620   20.3180 C   0  0  0  0  0  3  0  0  0  0  0  0
  -29.6690  -18.7820   20.2080 C   0  0  0  0  0  0  0  0  0  0  0  0
  -30.2380  -15.7530   20.1720 C   0  0  0  0  0  0  0  0  0  0  0  0
  -30.3460  -13.1980   19.3710 C   0  0  0  0  0  2  0  0  0  0  0  0
  -29.4420  -12.8060   18.1650 C   0  0  0  0  0  2  0  0  0  0  0  0
  -28.0270  -12.4370   18.6340 C   0  0  0  0  0  2  0  0  0  0  0  0
  -27.5240  -13.4260   19.7100 C   0  0  0  0  0  3  0  0  0  0  0  0
  -28.5650  -13.7470   20.8060 C   0  0  0  0  0  2  0  0  0  0  0  0
  -29.7350  -14.3730   20.1500 N   0  0  0  0  0  0  0  0  0  0  0  0
  -31.4610  -15.6690   19.9450 O   0  0  0  0  0  0  0  0  0  0  0  0
  -25.1800  -13.9180   20.5460 C   0  0  0  0  0  0  0  0  0  0  0  0
  -24.1380  -13.1220   20.9240 C   0  0  0  0  0  0  0  0  0  0  0  0
  -24.6200  -11.7780   20.8560 C   0  0  0  0  0  0  0  0  0  0  0  0
  -26.2250  -13.0630   20.2560 N   0  0  0  0  0  0  0  0  0  0  0  0
  -25.9050  -11.7660   20.5120 N   0  0  0  0  0  0  0  0  0  0  0  0
  -23.9070  -10.5050   21.0400 C   0  0  0  0  0  0  0  0  0  0  0  0
  -24.3480   -9.5350   21.9670 C   0  0  0  0  0  3  0  0  0  0  0  0
  -23.6310   -8.3320   22.1420 C   0  0  0  0  0  3  0  0  0  0  0  0
  -22.4580   -8.0890   21.3880 C   0  0  0  0  0  0  0  0  0  0  0  0
  -22.0350   -9.0480   20.4490 C   0  0  0  0  0  3  0  0  0  0  0  0
  -22.7540  -10.2420   20.2730 C   0  0  0  0  0  3  0  0  0  0  0  0
  -21.7110   -6.9380   21.4710 O   0  0  0  0  0  0  0  0  0  0  0  0
  -21.6480   -6.2020   22.6280 C   0  0  0  0  0  0  0  0  0  0  0  0
  -21.1680   -6.7530   23.8350 C   0  0  0  0  0  3  0  0  0  0  0  0
  -21.0550   -5.9420   24.9830 C   0  0  0  0  0  3  0  0  0  0  0  0
  -21.4120   -4.5820   24.9220 C   0  0  0  0  0  0  0  0  0  0  0  0
  -21.8850   -4.0310   23.7190 C   0  0  0  0  0  3  0  0  0  0  0  0
  -21.9990   -4.8380   22.5740 C   0  0  0  0  0  0  0  0  0  0  0  0
  -22.4360   -4.2960   21.4120 F   0  0  0  0  0  0  0  0  0  0  0  0
  -21.2970   -3.8010   26.0220 F   0  0  0  0  0  0  0  0  0  0  0  0
  -22.7420  -13.5810   21.2280 C   0  0  0  0  0  0  0  0  0  0  0  0
  -22.0390  -12.8690   22.1020 N   0  0  0  0  0  0  0  0  0  0  0  0
  -22.2860  -14.6080   20.7270 O   0  0  0  0  0  0  0  0  0  0  0  0
  -22.4240  -12.0400   22.5290 H   0  0  0  0  0  0  0  0  0  0  0  0
  -21.1040  -13.1590   22.3470 H   0  0  0  0  0  0  0  0  0  0  0  0
  -25.3230  -15.2940   20.3920 N   0  0  0  0  0  0  0  0  0  0  0  0
  -24.5530  -15.9380   20.5370 H   0  0  0  0  0  0  0  0  0  0  0  0
  -26.1570  -15.7500   20.0420 H   0  0  0  0  0  0  0  0  0  0  0  0
  -30.9530  -19.0030   19.9050 O   0  0  0  0  0  0  0  0  0  0  0  0
  -31.0690  -19.9430   19.8380 H   0  0  0  0  0  0  0  0  0  0  0  0
  -28.1530  -25.5980   20.3720 O   0  0  0  0  0  0  0  0  0  0  0  0
  -24.6190  -31.9050   23.2740 C   0  0  0  0  0  0  0  0  0  0  0  0
  -27.1410  -26.7810   20.3440 C   0  0  0  0  0  0  0  0  0  0  0  0
  -23.4340  -30.4970   21.6450 C   0  0  0  0  0  3  0  0  0  0  0  0
  -24.8800  -28.8270   20.2560 C   0  0  0  0  0  0  0  0  0  0  0  0
  -26.0120  -30.6250   21.5350 C   0  0  0  0  0  2  0  0  0  0  0  0
  -26.0710  -29.1830   20.8960 C   0  0  0  0  0  0  0  0  0  0  0  0
  -27.1830  -28.1870   20.9090 C   0  0  0  0  0  3  0  0  0  0  0  0
  -25.9180  -26.6370   19.6400 C   0  0  0  0  0  3  0  0  0  0  0  0
  -24.8420  -27.5790   19.6050 C   0  0  0  0  0  3  0  0  0  0  0  0
  -23.6770  -29.7840   20.2820 C   0  0  0  0  0  2  0  0  0  0  0  0
  -24.7130  -31.0440   22.2040 N   0  0  0  0  0  0  0  0  0  0  0  0
  -23.5250  -32.2140   23.7770 O   0  0  0  0  0  0  0  0  0  0  0  0
  -22.7090  -29.5320   22.6220 C   0  0  0  0  0  0  0  0  0  0  0  0
  -21.3790  -29.3740   22.4870 N   0  0  0  0  0  0  0  0  0  0  0  0
  -23.3580  -28.9210   23.4740 O   0  0  0  0  0  0  0  0  0  0  0  0
  -20.9050  -29.9170   21.7780 H   0  0  0  0  0  0  0  0  0  0  0  0
  -17.9910  -28.1570   22.9800 C   0  0  0  0  0  0  0  0  0  0  0  0
  -20.5460  -28.4470   23.2640 C   0  0  0  0  0  3  0  0  0  0  0  0
  -20.6610  -27.0050   22.7150 C   0  0  0  0  0  2  0  0  0  0  0  0
  -19.5730  -26.6600   21.6930 C   0  0  0  0  0  2  0  0  0  0  0  0
  -18.1840  -26.8020   22.3200 C   0  0  0  0  0  2  0  0  0  0  0  0
  -19.0990  -28.9350   23.4090 C   0  0  0  0  0  0  0  0  0  0  0  0
  -18.8610  -30.2000   23.9900 C   0  0  0  0  0  3  0  0  0  0  0  0
  -17.5490  -30.6860   24.1450 C   0  0  0  0  0  3  0  0  0  0  0  0
  -16.4560  -29.9070   23.7290 C   0  0  0  0  0  3  0  0  0  0  0  0
  -16.6780  -28.6440   23.1530 C   0  0  0  0  0  3  0  0  0  0  0  0
  -25.8820  -32.5570   23.9150 C   0  0  0  0  0  3  0  0  0  0  0  0
  -25.5620  -33.9630   24.2360 N   0  0  0  0  0  0  0  0  0  0  0  0
  -25.8810  -35.0210   23.4770 C   0  0  0  0  0  0  0  0  0  0  0  0
  -26.5300  -34.9160   22.4340 O   0  0  0  0  0  0  0  0  0  0  0  0
  -24.9810  -34.1170   25.0460 H   0  0  0  0  0  0  0  0  0  0  0  0
  -24.1340  -36.8150   23.1820 C   0  0  0  0  0  1  0  0  0  0  0  0
  -25.4070  -36.4150   23.9440 C   0  0  0  0  0  3  0  0  0  0  0  0
  -27.5630  -37.3260   24.6910 C   0  0  0  0  0  1  0  0  0  0  0  0
  -26.4320  -37.4710   23.7800 N   0  0  0  0  0  0  0  0  0  0  0  0
  -26.0260  -38.3930   23.9210 H   0  0  0  0  0  0  0  0  0  0  0  0
  -26.3680  -31.8120   25.2210 C   0  0  1  0  0  0  0  0  0  0  0  0
  -25.2540  -31.6020   26.2730 C   0  0  0  0  0  1  0  0  0  0  0  0
  -26.9510  -30.4220   24.8820 C   0  0  0  0  0  1  0  0  0  0  0  0
  -27.5110  -32.6140   25.8870 C   0  0  0  0  0  1  0  0  0  0  0  0
  1  2  1  0
  3  5  2  0
  3  4  1  0
  4  1  2  0
  5  6  1  0
  6 48  1  0
  6  2  2  0
  7  5  1  0
  9  4  1  0
  9  8  2  0
 10  8  1  0
 11 16  1  0
 12 13  1  0
 12 11  1  0
 14 13  1  0
 14 21  1  0
 14 15  1  0
 16 10  1  0
 16 15  1  0
 17 10  2  0
 18 19  2  0
 19 38  1  0
 20 19  1  0
 20 23  1  0
 21 22  1  0
 21 18  1  0
 22 20  2  0
 23 24  1  0
 24 25  2  0
 26 29  1  0
 26 25  1  0
 27 26  2  0
 28 27  1  0
 28 23  2  0
 29 30  1  0
 30 31  1  0
 31 32  2  0
 33 32  1  0
 33 37  1  0
 34 33  2  0
 35 30  2  0
 35 34  1  0
 36 35  1  0
 38 39  1  0
 39 42  1  0
 39 41  1  0
 40 38  2  0
 43 44  1  0
 43 18  1  0
 45 43  1  0
 46  9  1  0
 47 46  1  0
 49 60  2  0
 50 48  1  0
 50 55  1  0
 51 59  1  0
 51 61  1  0
 52 58  1  0
 52 54  1  0
 53 59  1  0
 54 55  2  0
 54 53  1  0
 56 50  2  0
 57 56  1  0
 57 52  2  0
 58 51  1  0
 59 49  1  0
 61 63  2  0
 62 61  1  0
 64 62  1  0
 65 74  2  0
 65 70  1  0
 66 62  1  0
 66 70  1  0
 67 66  1  0
 68 69  1  0
 68 67  1  0
 69 65  1  0
 70 71  2  0
 71 72  1  0
 73 72  2  0
 74 73  1  0
 75 49  1  0
 75 76  1  0
 75 85  1  0
 76 79  1  0
 77 81  1  0
 77 76  1  0
 78 77  2  0
 81 80  1  0
 83 84  1  0
 83 81  1  0
 83 82  1  0
 85 88  1  1
 85 86  1  0
 87 85  1  0
M  ISO  4   6 101   8 100  10 100  48 101
M  END
>  <TORSDO>  (35) 
F 18

>  <SCORE>  (35) 
-15.672

>  <name>  (35) 
34

>  <ligand_id>  (35) 
34

>  <original_smiles>  (35) 
[H]OC(=C([H])C(=O)N1C([H])([H])C([H])([H])C([H])([H])C([H])(n2nc(-c3c([H])c([H])c(Oc4c([H])c([H])c(F)c([H])c4F)c([H])c3[H])c(C(=O)N([H])[H])c2N([H])[H])C1([H])[H])c1c([H])c([H])c(Oc2c([H])c([H])c3c(c2[H])C([H])([H])N(C(=O)C([H])(N([H])C(=O)C([H])(N([H])C([H])([H])[H])C([H])([H])[H])C(C([H])([H])[H])(C([H])([H])[H])C([H])([H])[H])C([H])(C(=O)N([H])C2([H])c4c([H])c([H])c([H])c([H])c4C([H])([H])C([H])([H])C2([H])[H])C3([H])[H])c(C([H])([H])[H])c1[H]

>  <smiles>  (35) 
[H]OC(=C([H])C(=O)N1C([H])([H])C([H])([H])C([H])([H])C([H])(n2nc(-c3c([H])c([H])c(Oc4c([H])c([H])c(F)c([H])c4F)c([H])c3[H])c(C(=O)N([H])[H])c2N([H])[H])C1([H])[H])c1c([H])c([H])c(Oc2c([H])c([H])c3c(c2[H])C([H])([H])N(C(=O)C([H])(N([H])C(=O)C([H])(N([H])C([H])([H])[H])C([H])([H])[H])C(C([H])([H])[H])(C([H])([H])[H])C([H])([H])[H])C([H])(C(=O)N([H])C2([H])c4c([H])c([H])c([H])c([H])c4C([H])([H])C([H])([H])C2([H])[H])C3([H])[H])c(C([H])([H])[H])c1[H]

$$$$
35:0:0
     RDKit          3D

 93101  0  0  1  0  0  0  0  0999 V2000
  -30.0410  -20.3360   21.8210 C   0  0  0  0  0  3  0  0  0  0  0  0
  -29.3900  -21.4900   21.3030 C   0  0  0  0  0  3  0  0  0  0  0  0
  -28.7950  -20.1050   19.4330 C   0  0  0  0  0  3  0  0  0  0  0  0
  -30.1090  -19.0620   21.1790 C   0  0  0  0  0  0  0  0  0  0  0  0
  -28.7150  -21.5020   20.0660 C   0  0  0  0  0  0  0  0  0  0  0  0
  -29.4720  -18.8100   19.9320 C   0  0  0  0  0  0  0  0  0  0  0  0
  -29.9800  -17.5350   17.7760 C   0  0  0  0  0  1  0  0  0  0  0  0
  -27.9950  -16.9140   19.0780 C   0  0  0  0  0  1  0  0  0  0  0  0
  -29.4840  -17.2180   19.2100 C   0  0  2  0  0  0  0  0  0  0  0  0
  -30.3150  -15.6600   19.5160 C   0  0  0  0  0  0  0  0  0  0  0  0
  -30.3220  -13.1920   18.7190 C   0  0  0  0  0  2  0  0  0  0  0  0
  -29.2900  -12.9120   17.5960 C   0  0  0  0  0  2  0  0  0  0  0  0
  -27.9190  -12.5460   18.1950 C   0  0  0  0  0  2  0  0  0  0  0  0
  -27.5220  -13.4970   19.3450 C   0  0  0  0  0  3  0  0  0  0  0  0
  -28.6730  -13.7680   20.3390 C   0  0  0  0  0  2  0  0  0  0  0  0
  -29.8060  -14.3260   19.5720 N   0  0  0  0  0  0  0  0  0  0  0  0
  -31.5410  -15.6430   19.3290 O   0  0  0  0  0  0  0  0  0  0  0  0
  -25.2430  -13.9720   20.3890 C   0  0  0  0  0  0  0  0  0  0  0  0
  -24.2490  -13.1540   20.8380 C   0  0  0  0  0  0  0  0  0  0  0  0
  -24.7440  -11.8210   20.6940 C   0  0  0  0  0  0  0  0  0  0  0  0
  -26.2740  -13.1360   19.9950 N   0  0  0  0  0  0  0  0  0  0  0  0
  -25.9920  -11.8330   20.2440 N   0  0  0  0  0  0  0  0  0  0  0  0
  -24.0750  -10.5340   20.8990 C   0  0  0  0  0  0  0  0  0  0  0  0
  -24.5240   -9.6180   21.8750 C   0  0  0  0  0  3  0  0  0  0  0  0
  -23.8510   -8.3930   22.0660 C   0  0  0  0  0  3  0  0  0  0  0  0
  -22.7160   -8.0770   21.2820 C   0  0  0  0  0  0  0  0  0  0  0  0
  -22.2880   -8.9820   20.2960 C   0  0  0  0  0  3  0  0  0  0  0  0
  -22.9630  -10.1990   20.1020 C   0  0  0  0  0  3  0  0  0  0  0  0
  -22.0150   -6.9010   21.3820 O   0  0  0  0  0  0  0  0  0  0  0  0
  -21.8230   -6.2800   22.5910 C   0  0  0  0  0  0  0  0  0  0  0  0
  -21.1490   -6.9150   23.6570 C   0  0  0  0  0  3  0  0  0  0  0  0
  -20.9130   -6.2160   24.8560 C   0  0  0  0  0  3  0  0  0  0  0  0
  -21.3400   -4.8820   24.9900 C   0  0  0  0  0  0  0  0  0  0  0  0
  -22.0080   -4.2460   23.9300 C   0  0  0  0  0  3  0  0  0  0  0  0
  -22.2470   -4.9430   22.7320 C   0  0  0  0  0  0  0  0  0  0  0  0
  -22.8720   -4.3190   21.7050 F   0  0  0  0  0  0  0  0  0  0  0  0
  -21.1070   -4.2080   26.1400 F   0  0  0  0  0  0  0  0  0  0  0  0
  -22.8790  -13.5810   21.2760 C   0  0  0  0  0  0  0  0  0  0  0  0
  -22.2660  -12.8320   22.1850 N   0  0  0  0  0  0  0  0  0  0  0  0
  -22.3640  -14.6150   20.8510 O   0  0  0  0  0  0  0  0  0  0  0  0
  -22.6990  -11.9950   22.5470 H   0  0  0  0  0  0  0  0  0  0  0  0
  -21.3540  -13.1000   22.5260 H   0  0  0  0  0  0  0  0  0  0  0  0
  -25.3330  -15.3530   20.2510 N   0  0  0  0  0  0  0  0  0  0  0  0
  -24.5570  -15.9660   20.4780 H   0  0  0  0  0  0  0  0  0  0  0  0
  -26.1090  -15.8390   19.8210 H   0  0  0  0  0  0  0  0  0  0  0  0
  -30.8520  -17.9930   21.8870 C   0  0  0  0  0  0  0  0  0  0  0  0
  -30.3080  -17.0010   22.3780 O   0  0  0  0  0  0  0  0  0  0  0  0
  -32.3760  -18.1480   21.9650 C   0  0  0  0  0  2  0  0  0  0  0  0
  -33.3160  -20.1460   20.6330 C   0  0  0  0  0  1  0  0  0  0  0  0
  -33.0250  -18.6380   20.6490 C   0  0  0  0  0  2  0  0  0  0  0  0
  -28.1280  -23.0420   19.5050 C   0  0  0  0  0  2  0  0  0  0  0  0
  -27.6150  -24.5600   20.3040 C   0  0  0  0  0  2  0  0  0  0  0  0
  -27.7590  -26.1620   19.9800 O   0  0  0  0  0  0  0  0  0  0  0  0
  -24.3870  -32.0580   23.2820 C   0  0  0  0  0  0  0  0  0  0  0  0
  -26.7280  -27.2260   20.0670 C   0  0  0  0  0  0  0  0  0  0  0  0
  -23.0930  -30.7060   21.6840 C   0  0  0  0  0  3  0  0  0  0  0  0
  -24.4450  -29.1060   20.1670 C   0  0  0  0  0  0  0  0  0  0  0  0
  -25.6480  -30.8970   21.4050 C   0  0  0  0  0  2  0  0  0  0  0  0
  -25.6680  -29.4980   20.7270 C   0  0  0  0  0  0  0  0  0  0  0  0
  -26.8070  -28.5820   20.6450 C   0  0  0  0  0  3  0  0  0  0  0  0
  -25.4710  -26.9700   19.4780 C   0  0  0  0  0  3  0  0  0  0  0  0
  -24.3690  -27.8630   19.5200 C   0  0  0  0  0  3  0  0  0  0  0  0
  -23.2420  -30.0400   20.2870 C   0  0  0  0  0  2  0  0  0  0  0  0
  -24.4000  -31.2460   22.1760 N   0  0  0  0  0  0  0  0  0  0  0  0
  -23.3300  -32.3520   23.8630 O   0  0  0  0  0  0  0  0  0  0  0  0
  -22.4350  -29.7030   22.6680 C   0  0  0  0  0  0  0  0  0  0  0  0
  -21.1190  -29.4590   22.5210 N   0  0  0  0  0  0  0  0  0  0  0  0
  -23.1160  -29.1420   23.5310 O   0  0  0  0  0  0  0  0  0  0  0  0
  -20.6230  -29.9640   21.7980 H   0  0  0  0  0  0  0  0  0  0  0  0
  -17.8300  -27.9770   22.9080 C   0  0  0  0  0  0  0  0  0  0  0  0
  -20.3330  -28.5020   23.3050 C   0  0  0  0  0  3  0  0  0  0  0  0
  -20.6010  -27.0510   22.8430 C   0  0  0  0  0  2  0  0  0  0  0  0
  -19.6030  -26.5600   21.7900 C   0  0  0  0  0  2  0  0  0  0  0  0
  -18.1740  -26.6110   22.3390 C   0  0  0  0  0  2  0  0  0  0  0  0
  -18.8430  -28.8710   23.3480 C   0  0  0  0  0  0  0  0  0  0  0  0
  -18.4680  -30.1390   23.8410 C   0  0  0  0  0  3  0  0  0  0  0  0
  -17.1140  -30.5180   23.9010 C   0  0  0  0  0  3  0  0  0  0  0  0
  -16.1150  -29.6250   23.4760 C   0  0  0  0  0  3  0  0  0  0  0  0
  -16.4730  -28.3570   22.9850 C   0  0  0  0  0  3  0  0  0  0  0  0
  -25.6970  -32.6720   23.8610 C   0  0  0  0  0  3  0  0  0  0  0  0
  -25.4390  -34.0920   24.1570 N   0  0  0  0  0  0  0  0  0  0  0  0
  -25.8030  -35.1170   23.3750 C   0  0  0  0  0  0  0  0  0  0  0  0
  -26.4540  -34.9640   22.3380 O   0  0  0  0  0  0  0  0  0  0  0  0
  -24.8580  -34.2860   24.9590 H   0  0  0  0  0  0  0  0  0  0  0  0
  -24.1430  -36.9780   23.0170 C   0  0  0  0  0  1  0  0  0  0  0  0
  -25.3840  -36.5370   23.8100 C   0  0  0  0  0  3  0  0  0  0  0  0
  -27.5670  -37.3610   24.5780 C   0  0  0  0  0  1  0  0  0  0  0  0
  -26.4560  -37.5450   23.6490 N   0  0  0  0  0  0  0  0  0  0  0  0
  -26.0910  -38.4850   23.7730 H   0  0  0  0  0  0  0  0  0  0  0  0
  -26.2070  -31.9310   25.1600 C   0  0  1  0  0  0  0  0  0  0  0  0
  -25.1150  -31.7280   26.2380 C   0  0  0  0  0  1  0  0  0  0  0  0
  -26.7770  -30.5360   24.8110 C   0  0  0  0  0  1  0  0  0  0  0  0
  -27.3670  -32.7320   25.7960 C   0  0  0  0  0  1  0  0  0  0  0  0
  2  1  1  0
  3  6  2  0
  3  5  1  0
  4  1  2  0
  4 46  1  0
  5  2  2  0
  6  4  1  0
  9  7  1  6
  8  9  1  0
  9 10  1  0
  9  6  1  0
 10 16  1  0
 11 16  1  0
 12 13  1  0
 12 11  1  0
 14 13  1  0
 14 21  1  0
 14 15  1  0
 16 15  1  0
 17 10  2  0
 18 19  2  0
 19 38  1  0
 20 19  1  0
 20 23  1  0
 21 22  1  0
 21 18  1  0
 22 20  2  0
 23 24  1  0
 24 25  2  0
 26 29  1  0
 26 25  1  0
 27 26  2  0
 28 27  1  0
 28 23  2  0
 29 30  1  0
 30 35  2  0
 30 31  1  0
 31 32  2  0
 32 33  1  0
 33 37  1  0
 34 33  2  0
 35 34  1  0
 36 35  1  0
 38 39  1  0
 39 42  1  0
 39 41  1  0
 40 38  2  0
 43 18  1  0
 43 44  1  0
 45 43  1  0
 46 48  1  0
 46 47  2  0
 49 50  1  0
 50 48  1  0
 51  5  1  0
 51 52  1  0
 53 55  1  0
 53 52  1  0
 54 65  2  0
 55 60  1  0
 56 64  1  0
 56 66  1  0
 57 63  1  0
 57 59  1  0
 58 64  1  0
 59 58  1  0
 60 59  2  0
 61 62  1  0
 61 55  2  0
 62 57  2  0
 63 56  1  0
 64 54  1  0
 66 68  2  0
 67 66  1  0
 69 67  1  0
 70 79  2  0
 70 75  1  0
 71 67  1  0
 71 75  1  0
 72 71  1  0
 73 74  1  0
 73 72  1  0
 74 70  1  0
 75 76  2  0
 76 77  1  0
 78 77  2  0
 79 78  1  0
 80 54  1  0
 80 81  1  0
 80 90  1  0
 81 84  1  0
 82 86  1  0
 82 81  1  0
 83 82  2  0
 86 85  1  0
 88 89  1  0
 88 86  1  0
 88 87  1  0
 90 93  1  1
 90 91  1  0
 92 90  1  0
M  ISO  4   9 100  10 100  52 101  53 101
M  END
>  <TORSDO>  (36) 
F 22

>  <SCORE>  (36) 
-13.316

>  <name>  (36) 
35

>  <ligand_id>  (36) 
35

>  <original_smiles>  (36) 
[H]c1c([H])c([H])c2c(c1[H])C([H])([H])C([H])([H])C([H])([H])C2([H])N([H])C(=O)C1([H])N(C(=O)C([H])(N([H])C(=O)C([H])(N([H])C([H])([H])[H])C([H])([H])[H])C(C([H])([H])[H])(C([H])([H])[H])C([H])([H])[H])C([H])([H])c2c([H])c(OC([H])([H])C([H])([H])c3c([H])c([H])c(C(=O)C([H])([H])C([H])([H])C([H])([H])[H])c(C(C(=O)N4C([H])([H])C([H])([H])C([H])([H])C([H])(n5nc(-c6c([H])c([H])c(Oc7c([H])c([H])c(F)c([H])c7F)c([H])c6[H])c(C(=O)N([H])[H])c5N([H])[H])C4([H])[H])(C([H])([H])[H])C([H])([H])[H])c3[H])c([H])c([H])c2C1([H])[H]

>  <smiles>  (36) 
[H]c1c([H])c([H])c2c(c1[H])C([H])([H])C([H])([H])C([H])([H])C2([H])N([H])C(=O)C1([H])N(C(=O)C([H])(N([H])C(=O)C([H])(N([H])C([H])([H])[H])C([H])([H])[H])C(C([H])([H])[H])(C([H])([H])[H])C([H])([H])[H])C([H])([H])c2c([H])c(OC([H])([H])C([H])([H])c3c([H])c([H])c(C(=O)C([H])([H])C([H])([H])C([H])([H])[H])c(C(C(=O)N4C([H])([H])C([H])([H])C([H])([H])C([H])(n5nc(-c6c([H])c([H])c(Oc7c([H])c([H])c(F)c([H])c7F)c([H])c6[H])c(C(=O)N([H])[H])c5N([H])[H])C4([H])[H])(C([H])([H])[H])C([H])([H])[H])c3[H])c([H])c([H])c2C1([H])[H]

$$$$
36:0:0
     RDKit          3D

 92100  0  0  1  0  0  0  0  0999 V2000
  -29.8540  -20.5010   23.1780 C   0  0  0  0  0  3  0  0  0  0  0  0
  -29.8120  -19.7220   22.0210 C   0  0  0  0  0  3  0  0  0  0  0  0
  -29.6670  -22.4880   21.8360 C   0  0  0  0  0  3  0  0  0  0  0  0
  -29.8110  -21.8870   23.0910 C   0  0  0  0  0  0  0  0  0  0  0  0
  -29.7340  -20.2020   20.6840 C   0  0  0  0  0  0  0  0  0  0  0  0
  -29.5610  -21.7870   20.6050 C   0  0  0  0  0  0  0  0  0  0  0  0
  -29.8900  -22.7210   24.3560 C   0  0  0  0  0  1  0  0  0  0  0  0
  -29.0840  -23.0410   19.5480 C   0  0  0  0  0  2  0  0  0  0  0  0
  -29.1420  -24.8490   19.5180 C   0  0  0  0  0  2  0  0  0  0  0  0
  -28.7620  -26.2740   20.2250 O   0  0  0  0  0  0  0  0  0  0  0  0
  -24.7120  -31.8240   23.1700 C   0  0  0  0  0  0  0  0  0  0  0  0
  -27.6860  -27.2790   20.0520 C   0  0  0  0  0  0  0  0  0  0  0  0
  -23.6610  -30.4090   21.4470 C   0  0  0  0  0  3  0  0  0  0  0  0
  -25.2580  -28.9700   20.0000 C   0  0  0  0  0  0  0  0  0  0  0  0
  -26.2060  -30.8110   21.3850 C   0  0  0  0  0  2  0  0  0  0  0  0
  -26.3900  -29.4390   20.6770 C   0  0  0  0  0  0  0  0  0  0  0  0
  -27.5910  -28.6080   20.6880 C   0  0  0  0  0  3  0  0  0  0  0  0
  -26.5280  -26.9560   19.3150 C   0  0  0  0  0  3  0  0  0  0  0  0
  -25.3500  -27.7510   19.3040 C   0  0  0  0  0  3  0  0  0  0  0  0
  -23.9730  -29.7970   20.0520 C   0  0  0  0  0  2  0  0  0  0  0  0
  -24.8780  -31.0410   22.0560 N   0  0  0  0  0  0  0  0  0  0  0  0
  -23.5920  -32.0210   23.6700 O   0  0  0  0  0  0  0  0  0  0  0  0
  -23.0160  -29.3340   22.3580 C   0  0  0  0  0  0  0  0  0  0  0  0
  -21.6990  -29.1010   22.2080 N   0  0  0  0  0  0  0  0  0  0  0  0
  -23.7060  -28.7090   23.1680 O   0  0  0  0  0  0  0  0  0  0  0  0
  -21.1910  -29.6580   21.5350 H   0  0  0  0  0  0  0  0  0  0  0  0
  -18.3800  -27.7020   22.6300 C   0  0  0  0  0  0  0  0  0  0  0  0
  -20.9230  -28.0850   22.9260 C   0  0  0  0  0  3  0  0  0  0  0  0
  -21.1000  -26.6910   22.2810 C   0  0  0  0  0  2  0  0  0  0  0  0
  -20.0220  -26.3660   21.2430 C   0  0  0  0  0  2  0  0  0  0  0  0
  -18.6300  -26.4040   21.8830 C   0  0  0  0  0  2  0  0  0  0  0  0
  -19.4560  -28.5000   23.1050 C   0  0  0  0  0  0  0  0  0  0  0  0
  -19.1680  -29.7130   23.7660 C   0  0  0  0  0  3  0  0  0  0  0  0
  -17.8370  -30.1310   23.9580 C   0  0  0  0  0  3  0  0  0  0  0  0
  -16.7760  -29.3330   23.4990 C   0  0  0  0  0  3  0  0  0  0  0  0
  -17.0490  -28.1200   22.8390 C   0  0  0  0  0  3  0  0  0  0  0  0
  -25.9200  -32.5270   23.8590 C   0  0  0  0  0  3  0  0  0  0  0  0
  -25.5190  -33.9110   24.1730 N   0  0  0  0  0  0  0  0  0  0  0  0
  -25.8220  -34.9860   23.4350 C   0  0  0  0  0  0  0  0  0  0  0  0
  -26.5300  -34.9220   22.4270 O   0  0  0  0  0  0  0  0  0  0  0  0
  -24.8890  -34.0320   24.9530 H   0  0  0  0  0  0  0  0  0  0  0  0
  -24.0030  -36.6870   23.0520 C   0  0  0  0  0  1  0  0  0  0  0  0
  -25.2500  -36.3480   23.8820 C   0  0  0  0  0  3  0  0  0  0  0  0
  -27.3130  -37.3610   24.7490 C   0  0  0  0  0  1  0  0  0  0  0  0
  -26.2240  -37.4590   23.7810 N   0  0  0  0  0  0  0  0  0  0  0  0
  -25.7610  -38.3540   23.9170 H   0  0  0  0  0  0  0  0  0  0  0  0
  -26.3980  -31.7910   25.1720 C   0  0  1  0  0  0  0  0  0  0  0  0
  -25.2620  -31.5070   26.1800 C   0  0  0  0  0  1  0  0  0  0  0  0
  -27.0700  -30.4400   24.8370 C   0  0  0  0  0  1  0  0  0  0  0  0
  -27.4680  -32.6470   25.8930 C   0  0  0  0  0  1  0  0  0  0  0  0
  -29.9040  -18.7570   19.7270 C   0  0  0  0  0  3  0  0  0  0  0  0
  -28.8270  -18.7840   18.7250 N   0  0  0  0  0  4  0  0  0  0  0  0
  -28.9720  -18.0870   18.0170 H   0  0  0  0  0  0  0  0  0  0  0  0
  -28.8080  -19.6810   18.2720 H   0  0  0  0  0  0  0  0  0  0  0  0
  -27.9360  -18.6310   19.1600 H   0  0  0  0  0  0  0  0  0  0  0  0
  -30.0950  -17.0630   20.3520 C   0  0  0  0  0  2  0  0  0  0  0  0
  -30.8040  -15.5480   19.8470 C   0  0  0  0  0  0  0  0  0  0  0  0
  -30.7320  -13.0970   18.9860 C   0  0  0  0  0  2  0  0  0  0  0  0
  -29.7560  -12.9510   17.7910 C   0  0  0  0  0  2  0  0  0  0  0  0
  -28.3170  -12.7200   18.2860 C   0  0  0  0  0  2  0  0  0  0  0  0
  -27.9460  -13.6600   19.4620 C   0  0  0  0  0  3  0  0  0  0  0  0
  -29.0480  -13.7500   20.5360 C   0  0  0  0  0  2  0  0  0  0  0  0
  -30.2630  -14.2310   19.8630 N   0  0  0  0  0  0  0  0  0  0  0  0
  -31.9700  -15.5600   19.4250 O   0  0  0  0  0  0  0  0  0  0  0  0
  -25.6520  -14.2380   20.4110 C   0  0  0  0  0  0  0  0  0  0  0  0
  -24.5870  -13.4730   20.7910 C   0  0  0  0  0  0  0  0  0  0  0  0
  -24.9990  -12.1140   20.6320 C   0  0  0  0  0  0  0  0  0  0  0  0
  -26.6420  -13.3490   20.0330 N   0  0  0  0  0  0  0  0  0  0  0  0
  -26.2660  -12.0600   20.2330 N   0  0  0  0  0  0  0  0  0  0  0  0
  -24.2380  -10.8670   20.7800 C   0  0  0  0  0  0  0  0  0  0  0  0
  -24.6520   -9.8500   21.6670 C   0  0  0  0  0  3  0  0  0  0  0  0
  -23.8900   -8.6690   21.8090 C   0  0  0  0  0  3  0  0  0  0  0  0
  -22.7000   -8.4990   21.0630 C   0  0  0  0  0  0  0  0  0  0  0  0
  -22.3040   -9.5040   20.1630 C   0  0  0  0  0  3  0  0  0  0  0  0
  -23.0650  -10.6760   20.0210 C   0  0  0  0  0  3  0  0  0  0  0  0
  -21.9100   -7.3760   21.1160 O   0  0  0  0  0  0  0  0  0  0  0  0
  -21.7950   -6.6300   22.2600 C   0  0  0  0  0  0  0  0  0  0  0  0
  -21.3240   -7.1850   23.4700 C   0  0  0  0  0  3  0  0  0  0  0  0
  -21.1570   -6.3640   24.6030 C   0  0  0  0  0  3  0  0  0  0  0  0
  -21.4530   -4.9900   24.5280 C   0  0  0  0  0  0  0  0  0  0  0  0
  -21.9190   -4.4350   23.3220 C   0  0  0  0  0  3  0  0  0  0  0  0
  -22.0870   -5.2520   22.1920 C   0  0  0  0  0  0  0  0  0  0  0  0
  -22.5160   -4.7080   21.0270 F   0  0  0  0  0  0  0  0  0  0  0  0
  -21.2840   -4.2000   25.6140 F   0  0  0  0  0  0  0  0  0  0  0  0
  -23.2310  -13.9770   21.1870 C   0  0  0  0  0  0  0  0  0  0  0  0
  -22.5360  -13.2480   22.0530 N   0  0  0  0  0  0  0  0  0  0  0  0
  -22.7990  -15.0490   20.7640 O   0  0  0  0  0  0  0  0  0  0  0  0
  -22.9030  -12.3820   22.4200 H   0  0  0  0  0  0  0  0  0  0  0  0
  -21.6250  -13.5600   22.3580 H   0  0  0  0  0  0  0  0  0  0  0  0
  -25.8570  -15.6120   20.3280 N   0  0  0  0  0  0  0  0  0  0  0  0
  -25.1320  -16.2790   20.5720 H   0  0  0  0  0  0  0  0  0  0  0  0
  -26.7110  -16.0430   20.0030 H   0  0  0  0  0  0  0  0  0  0  0  0
  2  1  2  0
  3  4  2  0
  4  1  1  0
  4  7  1  0
  5  2  1  0
  6  5  2  0
  6  3  1  0
  8  6  1  0
  9  8  1  0
  9 10  1  0
 11 22  2  0
 12 10  1  0
 12 17  1  0
 13 21  1  0
 13 23  1  0
 14 20  1  0
 14 16  1  0
 15 21  1  0
 16 17  2  0
 16 15  1  0
 18 12  2  0
 19 18  1  0
 19 14  2  0
 20 13  1  0
 21 11  1  0
 23 25  2  0
 24 23  1  0
 26 24  1  0
 27 36  2  0
 27 32  1  0
 28 24  1  0
 28 32  1  0
 29 28  1  0
 30 31  1  0
 30 29  1  0
 31 27  1  0
 32 33  2  0
 33 34  1  0
 35 34  2  0
 36 35  1  0
 37 11  1  0
 37 38  1  0
 37 47  1  0
 38 41  1  0
 39 43  1  0
 39 38  1  0
 40 39  2  0
 43 42  1  0
 45 43  1  0
 45 46  1  0
 45 44  1  0
 47 50  1  1
 47 48  1  0
 49 47  1  0
 51 56  1  0
 51  5  1  0
 52 55  1  0
 52 51  1  0
 53 52  1  0
 54 52  1  0
 57 63  1  0
 57 56  1  0
 58 63  1  0
 59 60  1  0
 59 58  1  0
 61 60  1  0
 61 68  1  0
 61 62  1  0
 63 62  1  0
 64 57  2  0
 65 66  2  0
 66 85  1  0
 67 70  1  0
 67 66  1  0
 68 69  1  0
 68 65  1  0
 69 67  2  0
 70 71  1  0
 71 72  2  0
 73 76  1  0
 73 72  1  0
 74 73  2  0
 75 74  1  0
 75 70  2  0
 76 77  1  0
 77 78  1  0
 78 79  2  0
 80 79  1  0
 80 84  1  0
 81 80  2  0
 82 77  2  0
 82 81  1  0
 83 82  1  0
 85 86  1  0
 86 89  1  0
 86 88  1  0
 87 85  2  0
 90 65  1  0
 90 91  1  0
 92 90  1  0
M  ISO  4   9 101  10 101  56 100  57 100
M  END
>  <TORSDO>  (37) 
F 21

>  <SCORE>  (37) 
-14.100

>  <name>  (37) 
36

>  <ligand_id>  (37) 
36

>  <original_smiles>  (37) 
[H]c1c([H])c([H])c2c(c1[H])C([H])([H])C([H])([H])C([H])([H])C2([H])N([H])C(=O)C1([H])N(C(=O)C([H])(N([H])C(=O)C([H])(N([H])C([H])([H])[H])C([H])([H])[H])C(C([H])([H])[H])(C([H])([H])[H])C([H])([H])[H])C([H])([H])c2c([H])c(OC([H])([H])C([H])([H])c3c([H])c(C([H])([H])[H])c([H])c([H])c3C([H])(C([H])([H])C(=O)N3C([H])([H])C([H])([H])C([H])([H])C([H])(n4nc(-c5c([H])c([H])c(Oc6c([H])c([H])c(F)c([H])c6F)c([H])c5[H])c(C(=O)N([H])[H])c4N([H])[H])C3([H])[H])[N+]([H])([H])[H])c([H])c([H])c2C1([H])[H]

>  <smiles>  (37) 
[H]c1c([H])c([H])c2c(c1[H])C([H])([H])C([H])([H])C([H])([H])C2([H])N([H])C(=O)C1([H])N(C(=O)C([H])(N([H])C(=O)C([H])(N([H])C([H])([H])[H])C([H])([H])[H])C(C([H])([H])[H])(C([H])([H])[H])C([H])([H])[H])C([H])([H])c2c([H])c(OC([H])([H])C([H])([H])c3c([H])c(C([H])([H])[H])c([H])c([H])c3C([H])(C([H])([H])C(=O)N3C([H])([H])C([H])([H])C([H])([H])C([H])(n4nc(-c5c([H])c([H])c(Oc6c([H])c([H])c(F)c([H])c6F)c([H])c5[H])c(C(=O)N([H])[H])c4N([H])[H])C3([H])[H])[N+]([H])([H])[H])c([H])c([H])c2C1([H])[H]

$$$$
37:0:0
     RDKit          3D

 90 98  0  0  1  0  0  0  0  0999 V2000
  -29.2840  -19.9840   18.6110 C   0  0  0  0  0  3  0  0  0  0  0  0
  -28.9210  -21.2360   18.0340 C   0  0  0  0  0  3  0  0  0  0  0  0
  -29.3110  -21.1700   20.7000 C   0  0  0  0  0  3  0  0  0  0  0  0
  -29.5330  -19.8030   19.9850 C   0  0  0  0  0  0  0  0  0  0  0  0
  -28.9070  -22.5690   20.1420 C   0  0  0  0  0  0  0  0  0  0  0  0
  -28.7400  -22.4750   18.7380 C   0  0  0  0  0  0  0  0  0  0  0  0
  -30.2500  -18.2450   22.0070 C   0  0  0  0  0  1  0  0  0  0  0  0
  -30.1650  -18.2180   20.4750 C   0  0  0  0  0  0  0  0  0  0  0  0
  -30.6070  -15.2830   19.9550 C   0  0  0  0  0  0  0  0  0  0  0  0
  -30.4860  -12.8480   19.0070 C   0  0  0  0  0  2  0  0  0  0  0  0
  -29.4880  -12.6420   17.8380 C   0  0  0  0  0  2  0  0  0  0  0  0
  -28.0680  -12.3820   18.3680 C   0  0  0  0  0  2  0  0  0  0  0  0
  -27.6980  -13.3420   19.5260 C   0  0  0  0  0  3  0  0  0  0  0  0
  -28.8170  -13.4740   20.5800 C   0  0  0  0  0  2  0  0  0  0  0  0
  -29.9980  -13.9920   19.8680 N   0  0  0  0  0  0  0  0  0  0  0  0
  -31.8300  -15.2280   19.7470 O   0  0  0  0  0  0  0  0  0  0  0  0
  -29.8850  -16.5950   20.0760 N   0  0  0  0  0  4  0  0  0  0  0  0
  -28.8930  -16.4210   20.0380 H   0  0  0  0  0  0  0  0  0  0  0  0
  -25.3960  -13.9370   20.4380 C   0  0  0  0  0  0  0  0  0  0  0  0
  -24.3380  -13.1770   20.8510 C   0  0  0  0  0  0  0  0  0  0  0  0
  -24.7700  -11.8180   20.7660 C   0  0  0  0  0  0  0  0  0  0  0  0
  -26.4000  -13.0430   20.1140 N   0  0  0  0  0  0  0  0  0  0  0  0
  -26.0400  -11.7600   20.3800 N   0  0  0  0  0  0  0  0  0  0  0  0
  -24.0220  -10.5690   20.9700 C   0  0  0  0  0  0  0  0  0  0  0  0
  -24.4710   -9.5770   21.8700 C   0  0  0  0  0  3  0  0  0  0  0  0
  -23.7210   -8.3970   22.0650 C   0  0  0  0  0  3  0  0  0  0  0  0
  -22.5090   -8.2000   21.3610 C   0  0  0  0  0  0  0  0  0  0  0  0
  -22.0800   -9.1800   20.4490 C   0  0  0  0  0  3  0  0  0  0  0  0
  -22.8290  -10.3520   20.2520 C   0  0  0  0  0  3  0  0  0  0  0  0
  -21.7290   -7.0730   21.4670 O   0  0  0  0  0  0  0  0  0  0  0  0
  -21.7080   -6.3190   22.6130 C   0  0  0  0  0  0  0  0  0  0  0  0
  -21.3220   -6.8630   23.8570 C   0  0  0  0  0  3  0  0  0  0  0  0
  -21.2470   -6.0350   24.9950 C   0  0  0  0  0  3  0  0  0  0  0  0
  -21.5480   -4.6650   24.8910 C   0  0  0  0  0  0  0  0  0  0  0  0
  -21.9290   -4.1200   23.6510 C   0  0  0  0  0  3  0  0  0  0  0  0
  -22.0050   -4.9450   22.5150 C   0  0  0  0  0  0  0  0  0  0  0  0
  -22.3510   -4.4100   21.3190 F   0  0  0  0  0  0  0  0  0  0  0  0
  -21.4700   -3.8670   25.9810 F   0  0  0  0  0  0  0  0  0  0  0  0
  -22.9710  -13.6820   21.2050 C   0  0  0  0  0  0  0  0  0  0  0  0
  -22.2720  -12.9880   22.0950 N   0  0  0  0  0  0  0  0  0  0  0  0
  -22.5340  -14.7290   20.7260 O   0  0  0  0  0  0  0  0  0  0  0  0
  -22.6400  -12.1410   22.5030 H   0  0  0  0  0  0  0  0  0  0  0  0
  -21.3570  -13.3090   22.3750 H   0  0  0  0  0  0  0  0  0  0  0  0
  -25.5790  -15.3080   20.2770 N   0  0  0  0  0  0  0  0  0  0  0  0
  -24.8290  -15.9710   20.4430 H   0  0  0  0  0  0  0  0  0  0  0  0
  -26.4010  -15.7360   19.8740 H   0  0  0  0  0  0  0  0  0  0  0  0
  -28.3120  -23.6710   16.6840 C   0  0  0  0  0  1  0  0  0  0  0  0
  -28.3610  -23.6410   18.1050 O   0  0  0  0  0  0  0  0  0  0  0  0
  -28.4270  -24.1090   20.8860 C   0  0  0  0  0  2  0  0  0  0  0  0
  -28.6360  -25.7350   20.5560 O   0  0  0  0  0  0  0  0  0  0  0  0
  -24.8110  -31.7520   23.2750 C   0  0  0  0  0  0  0  0  0  0  0  0
  -27.6040  -26.8290   20.5070 C   0  0  0  0  0  0  0  0  0  0  0  0
  -23.7330  -30.3070   21.6010 C   0  0  0  0  0  3  0  0  0  0  0  0
  -25.2830  -28.6940   20.2970 C   0  0  0  0  0  0  0  0  0  0  0  0
  -26.3020  -30.5500   21.5930 C   0  0  0  0  0  2  0  0  0  0  0  0
  -26.4330  -29.1250   20.9720 C   0  0  0  0  0  0  0  0  0  0  0  0
  -27.5910  -28.2170   21.0440 C   0  0  0  0  0  3  0  0  0  0  0  0
  -26.4200  -26.5570   19.7850 C   0  0  0  0  0  3  0  0  0  0  0  0
  -25.3060  -27.4300   19.6830 C   0  0  0  0  0  3  0  0  0  0  0  0
  -24.0520  -29.6000   20.2540 C   0  0  0  0  0  2  0  0  0  0  0  0
  -24.9680  -30.8990   22.2100 N   0  0  0  0  0  0  0  0  0  0  0  0
  -23.6890  -32.0320   23.7290 O   0  0  0  0  0  0  0  0  0  0  0  0
  -23.0000  -29.3180   22.5460 C   0  0  0  0  0  0  0  0  0  0  0  0
  -21.6780  -29.1410   22.3610 N   0  0  0  0  0  0  0  0  0  0  0  0
  -23.6300  -28.7110   23.4150 O   0  0  0  0  0  0  0  0  0  0  0  0
  -21.2230  -29.6810   21.6390 H   0  0  0  0  0  0  0  0  0  0  0  0
  -18.2870  -27.9020   22.7290 C   0  0  0  0  0  0  0  0  0  0  0  0
  -20.8290  -28.2030   23.1050 C   0  0  0  0  0  3  0  0  0  0  0  0
  -20.9720  -26.7650   22.5530 C   0  0  0  0  0  2  0  0  0  0  0  0
  -19.9220  -26.4180   21.4930 C   0  0  0  0  0  2  0  0  0  0  0  0
  -18.5110  -26.5490   22.0730 C   0  0  0  0  0  2  0  0  0  0  0  0
  -19.3750  -28.6850   23.1990 C   0  0  0  0  0  0  0  0  0  0  0  0
  -19.1110  -29.9470   23.7740 C   0  0  0  0  0  3  0  0  0  0  0  0
  -17.7920  -30.4280   23.8820 C   0  0  0  0  0  3  0  0  0  0  0  0
  -16.7180  -29.6440   23.4260 C   0  0  0  0  0  3  0  0  0  0  0  0
  -16.9660  -28.3820   22.8560 C   0  0  0  0  0  3  0  0  0  0  0  0
  -26.0320  -32.4310   23.9660 C   0  0  0  0  0  3  0  0  0  0  0  0
  -26.4650  -31.7090   25.3030 C   0  0  1  0  0  0  0  0  0  0  0  0
  -25.3010  -31.4890   26.2990 C   0  0  0  0  0  1  0  0  0  0  0  0
  -27.0940  -30.3290   25.0090 C   0  0  0  0  0  1  0  0  0  0  0  0
  -27.5540  -32.5430   26.0180 C   0  0  0  0  0  1  0  0  0  0  0  0
  -25.6760  -33.8340   24.2440 N   0  0  0  0  0  0  0  0  0  0  0  0
  -26.0220  -34.8800   23.4810 C   0  0  0  0  0  0  0  0  0  0  0  0
  -26.7340  -34.7660   22.4810 O   0  0  0  0  0  0  0  0  0  0  0  0
  -25.0450  -33.9940   25.0150 H   0  0  0  0  0  0  0  0  0  0  0  0
  -24.2690  -36.6340   23.0400 C   0  0  0  0  0  1  0  0  0  0  0  0
  -25.4980  -36.2720   23.8910 C   0  0  0  0  0  3  0  0  0  0  0  0
  -27.5870  -37.2300   24.7560 C   0  0  0  0  0  1  0  0  0  0  0  0
  -26.5120  -37.3440   23.7740 N   0  0  0  0  0  0  0  0  0  0  0  0
  -26.0830  -38.2590   23.8770 H   0  0  0  0  0  0  0  0  0  0  0  0
  1  4  1  0
  2  1  2  0
  2  6  1  0
  4  8  1  0
  4  3  2  0
  5  3  1  0
  5 49  1  0
  6  5  2  0
  8  7  1  0
  9 17  1  0
 10 15  1  0
 11 12  1  0
 11 10  1  0
 13 12  1  0
 13 22  1  0
 13 14  1  0
 15  9  1  0
 15 14  1  0
 16  9  2  0
 17  8  2  0
 18 17  1  0
 19 20  2  0
 20 39  1  0
 21 20  1  0
 21 24  1  0
 22 23  1  0
 22 19  1  0
 23 21  2  0
 24 25  1  0
 25 26  2  0
 27 30  1  0
 27 26  1  0
 28 27  2  0
 29 28  1  0
 29 24  2  0
 30 31  1  0
 31 32  1  0
 32 33  2  0
 34 33  1  0
 34 38  1  0
 35 34  2  0
 36 31  2  0
 36 35  1  0
 37 36  1  0
 39 40  1  0
 40 43  1  0
 40 42  1  0
 41 39  2  0
 44 19  1  0
 44 45  1  0
 46 44  1  0
 47 48  1  0
 48  6  1  0
 50 49  1  0
 51 62  2  0
 52 50  1  0
 52 57  1  0
 53 61  1  0
 53 63  1  0
 54 56  1  0
 55 61  1  0
 56 57  2  0
 56 55  1  0
 58 52  2  0
 59 58  1  0
 59 54  2  0
 60 54  1  0
 60 53  1  0
 61 51  1  0
 63 65  2  0
 64 63  1  0
 66 64  1  0
 67 76  2  0
 67 72  1  0
 68 64  1  0
 68 72  1  0
 69 68  1  0
 70 71  1  0
 70 69  1  0
 71 67  1  0
 72 73  2  0
 73 74  1  0
 75 74  2  0
 76 75  1  0
 77 51  1  0
 77 82  1  0
 77 78  1  0
 78 81  1  1
 78 79  1  0
 80 78  1  0
 82 85  1  0
 83 87  1  0
 83 82  1  0
 84 83  2  0
 87 86  1  0
 89 90  1  0
 89 87  1  0
 89 88  1  0
M  ISO  4   9 100  17 100  49 101  50 101
M  END
>  <TORSDO>  (38) 
F 19

>  <SCORE>  (38) 
-15.164

>  <name>  (38) 
37

>  <ligand_id>  (38) 
37

>  <original_smiles>  (38) 
[H]c1c([H])c([H])c2c(c1[H])C([H])([H])C([H])([H])C([H])([H])C2([H])N([H])C(=O)C1([H])N(C(=O)C([H])(N([H])C(=O)C([H])(N([H])C([H])([H])[H])C([H])([H])[H])C(C([H])([H])[H])(C([H])([H])[H])C([H])([H])[H])C([H])([H])c2c([H])c(OC([H])([H])c3c([H])c(C([H])(N([H])C(=O)N4C([H])([H])C([H])([H])C([H])([H])C([H])(n5nc(-c6c([H])c([H])c(Oc7c([H])c([H])c(F)c([H])c7F)c([H])c6[H])c(C(=O)N([H])[H])c5N([H])[H])C4([H])[H])C([H])([H])[H])c([H])c([H])c3OC([H])([H])[H])c([H])c([H])c2C1([H])[H]

>  <smiles>  (38) 
[H]c1c([H])c([H])c2c(c1[H])C([H])([H])C([H])([H])C([H])([H])C2([H])N([H])C(=O)C1([H])N(C(=O)C([H])(N([H])C(=O)C([H])(N([H])C([H])([H])[H])C([H])([H])[H])C(C([H])([H])[H])(C([H])([H])[H])C([H])([H])[H])C([H])([H])c2c([H])c(OC([H])([H])c3c([H])c(C([H])(N([H])C(=O)N4C([H])([H])C([H])([H])C([H])([H])C([H])(n5nc(-c6c([H])c([H])c(Oc7c([H])c([H])c(F)c([H])c7F)c([H])c6[H])c(C(=O)N([H])[H])c5N([H])[H])C4([H])[H])C([H])([H])[H])c([H])c([H])c3OC([H])([H])[H])c([H])c([H])c2C1([H])[H]

$$$$
38:0:0
     RDKit          3D

 94102  0  0  1  0  0  0  0  0999 V2000
  -27.9240  -22.1720   21.5240 C   0  0  0  0  0  3  0  0  0  0  0  0
  -27.2720  -23.2650   22.1310 C   0  0  0  0  0  3  0  0  0  0  0  0
  -28.7750  -22.3320   20.4160 C   0  0  0  0  0  0  0  0  0  0  0  0
  -27.4050  -24.6010   21.6810 C   0  0  0  0  0  0  0  0  0  0  0  0
  -28.8670  -23.7480   19.9290 C   0  0  0  0  0  0  0  0  0  0  0  0
  -28.1710  -24.9280   20.5230 C   0  0  0  0  0  0  0  0  0  0  0  0
  -26.7310  -25.6670   22.5330 C   0  0  0  0  0  1  0  0  0  0  0  0
  -29.7610  -24.0300   18.7340 C   0  0  0  0  0  1  0  0  0  0  0  0
  -29.5020  -20.9780   19.8920 C   0  0  0  0  0  0  0  0  0  0  0  0
  -30.3180  -21.0540   18.9700 O   0  0  0  0  0  0  0  0  0  0  0  0
  -29.2590  -19.4340   20.4400 C   0  0  0  0  0  2  0  0  0  0  0  0
  -30.1800  -18.0720   20.0170 C   0  0  0  0  0  3  0  0  0  0  0  0
  -30.4350  -18.0740   18.5610 N   0  0  0  0  0  4  0  0  0  0  0  0
  -29.6190  -17.8060   18.0390 H   0  0  0  0  0  0  0  0  0  0  0  0
  -31.1860  -17.4450   18.3280 H   0  0  0  0  0  0  0  0  0  0  0  0
  -30.7110  -18.9960   18.2600 H   0  0  0  0  0  0  0  0  0  0  0  0
  -29.8420  -16.4920   20.5260 C   0  0  0  0  0  2  0  0  0  0  0  0
  -30.6750  -15.1050   20.1470 C   0  0  0  0  0  0  0  0  0  0  0  0
  -30.5690  -12.7650   19.1710 C   0  0  0  0  0  2  0  0  0  0  0  0
  -29.6040  -12.7610   17.9610 C   0  0  0  0  0  2  0  0  0  0  0  0
  -28.1490  -12.5360   18.4200 C   0  0  0  0  0  2  0  0  0  0  0  0
  -27.7690  -13.4290   19.6290 C   0  0  0  0  0  3  0  0  0  0  0  0
  -28.8530  -13.4110   20.7280 C   0  0  0  0  0  2  0  0  0  0  0  0
  -30.1190  -13.8280   20.1140 N   0  0  0  0  0  0  0  0  0  0  0  0
  -31.8430  -15.2100   19.7570 O   0  0  0  0  0  0  0  0  0  0  0  0
  -25.4010  -13.9790   20.4340 C   0  0  0  0  0  0  0  0  0  0  0  0
  -24.3550  -13.1900   20.8220 C   0  0  0  0  0  0  0  0  0  0  0  0
  -24.8310  -11.8430   20.7630 C   0  0  0  0  0  0  0  0  0  0  0  0
  -26.4460  -13.1140   20.1550 N   0  0  0  0  0  0  0  0  0  0  0  0
  -26.1130  -11.8230   20.4190 N   0  0  0  0  0  0  0  0  0  0  0  0
  -24.1210  -10.5730   20.9570 C   0  0  0  0  0  0  0  0  0  0  0  0
  -24.5500   -9.6250   21.9130 C   0  0  0  0  0  3  0  0  0  0  0  0
  -23.8390   -8.4200   22.0940 C   0  0  0  0  0  3  0  0  0  0  0  0
  -22.6840   -8.1520   21.3200 C   0  0  0  0  0  0  0  0  0  0  0  0
  -22.2750   -9.0890   20.3550 C   0  0  0  0  0  3  0  0  0  0  0  0
  -22.9870  -10.2860   20.1710 C   0  0  0  0  0  3  0  0  0  0  0  0
  -21.9450   -6.9970   21.4090 O   0  0  0  0  0  0  0  0  0  0  0  0
  -21.8500   -6.2930   22.5830 C   0  0  0  0  0  0  0  0  0  0  0  0
  -21.3080   -6.8640   23.7550 C   0  0  0  0  0  3  0  0  0  0  0  0
  -21.1650   -6.0830   24.9180 C   0  0  0  0  0  3  0  0  0  0  0  0
  -21.5540   -4.7310   24.9100 C   0  0  0  0  0  0  0  0  0  0  0  0
  -22.0900   -4.1580   23.7440 C   0  0  0  0  0  3  0  0  0  0  0  0
  -22.2360   -4.9370   22.5820 C   0  0  0  0  0  0  0  0  0  0  0  0
  -22.7320   -4.3750   21.4540 F   0  0  0  0  0  0  0  0  0  0  0  0
  -21.4110   -3.9770   26.0260 F   0  0  0  0  0  0  0  0  0  0  0  0
  -22.9600  -13.6500   21.1340 C   0  0  0  0  0  0  0  0  0  0  0  0
  -22.2560  -12.9290   22.0000 N   0  0  0  0  0  0  0  0  0  0  0  0
  -22.5040  -14.6830   20.6440 O   0  0  0  0  0  0  0  0  0  0  0  0
  -22.6400  -12.0930   22.4150 H   0  0  0  0  0  0  0  0  0  0  0  0
  -21.3200  -13.2170   22.2490 H   0  0  0  0  0  0  0  0  0  0  0  0
  -25.5460  -15.3540   20.2710 N   0  0  0  0  0  0  0  0  0  0  0  0
  -24.7740  -15.9950   20.4120 H   0  0  0  0  0  0  0  0  0  0  0  0
  -26.3790  -15.8080   19.9200 H   0  0  0  0  0  0  0  0  0  0  0  0
  -28.2910  -26.3380   20.1080 O   0  0  0  0  0  0  0  0  0  0  0  0
  -24.5940  -31.8970   23.2220 C   0  0  0  0  0  0  0  0  0  0  0  0
  -27.2240  -27.3050   20.0820 C   0  0  0  0  0  0  0  0  0  0  0  0
  -23.4060  -30.5310   21.5480 C   0  0  0  0  0  3  0  0  0  0  0  0
  -24.8720  -29.0050   20.0850 C   0  0  0  0  0  0  0  0  0  0  0  0
  -25.9550  -30.8310   21.3870 C   0  0  0  0  0  2  0  0  0  0  0  0
  -26.0430  -29.4560   20.7070 C   0  0  0  0  0  0  0  0  0  0  0  0
  -27.2200  -28.6220   20.6920 C   0  0  0  0  0  3  0  0  0  0  0  0
  -26.0320  -26.9520   19.4160 C   0  0  0  0  0  3  0  0  0  0  0  0
  -24.8770  -27.7650   19.4250 C   0  0  0  0  0  3  0  0  0  0  0  0
  -23.6330  -29.8870   20.1520 C   0  0  0  0  0  2  0  0  0  0  0  0
  -24.6720  -31.1070   22.1080 N   0  0  0  0  0  0  0  0  0  0  0  0
  -23.5050  -32.1590   23.7580 O   0  0  0  0  0  0  0  0  0  0  0  0
  -22.7390  -29.4930   22.4870 C   0  0  0  0  0  0  0  0  0  0  0  0
  -21.4120  -29.3150   22.3590 N   0  0  0  0  0  0  0  0  0  0  0  0
  -23.4180  -28.8540   23.2940 O   0  0  0  0  0  0  0  0  0  0  0  0
  -20.9190  -29.8850   21.6860 H   0  0  0  0  0  0  0  0  0  0  0  0
  -18.0370  -28.1010   22.8630 C   0  0  0  0  0  0  0  0  0  0  0  0
  -20.6000  -28.3520   23.1080 C   0  0  0  0  0  3  0  0  0  0  0  0
  -20.6920  -26.9400   22.4850 C   0  0  0  0  0  2  0  0  0  0  0  0
  -19.5760  -26.6520   21.4740 C   0  0  0  0  0  2  0  0  0  0  0  0
  -18.2030  -26.7770   22.1380 C   0  0  0  0  0  2  0  0  0  0  0  0
  -19.1610  -28.8490   23.3040 C   0  0  0  0  0  0  0  0  0  0  0  0
  -18.9490  -30.0910   23.9430 C   0  0  0  0  0  3  0  0  0  0  0  0
  -17.6460  -30.5830   24.1450 C   0  0  0  0  0  3  0  0  0  0  0  0
  -16.5360  -29.8330   23.7160 C   0  0  0  0  0  3  0  0  0  0  0  0
  -16.7330  -28.5930   23.0820 C   0  0  0  0  0  3  0  0  0  0  0  0
  -25.8670  -32.5280   23.8660 C   0  0  0  0  0  3  0  0  0  0  0  0
  -25.5550  -33.9260   24.2030 N   0  0  0  0  0  0  0  0  0  0  0  0
  -25.9000  -34.9870   23.4600 C   0  0  0  0  0  0  0  0  0  0  0  0
  -26.5840  -34.8930   22.4370 O   0  0  0  0  0  0  0  0  0  0  0  0
  -24.9530  -34.0750   24.9990 H   0  0  0  0  0  0  0  0  0  0  0  0
  -24.1970  -36.8030   23.0890 C   0  0  0  0  0  1  0  0  0  0  0  0
  -25.4120  -36.3740   23.9270 C   0  0  0  0  0  3  0  0  0  0  0  0
  -27.5250  -37.2320   24.8380 C   0  0  0  0  0  1  0  0  0  0  0  0
  -26.4550  -37.4200   23.8610 N   0  0  0  0  0  0  0  0  0  0  0  0
  -26.0510  -38.3410   24.0060 H   0  0  0  0  0  0  0  0  0  0  0  0
  -26.3640  -31.7540   25.1480 C   0  0  1  0  0  0  0  0  0  0  0  0
  -25.2540  -31.5150   26.1990 C   0  0  0  0  0  1  0  0  0  0  0  0
  -26.9500  -30.3750   24.7640 C   0  0  0  0  0  1  0  0  0  0  0  0
  -27.5060  -32.5440   25.8290 C   0  0  0  0  0  1  0  0  0  0  0  0
  1  2  1  0
  3  1  2  0
  4  2  2  0
  4  7  1  0
  5  3  1  0
  5  6  2  0
  6  4  1  0
  8  5  1  0
  9  3  1  0
  9 11  1  0
 10  9  2  0
 12 11  1  0
 12 17  1  0
 13 12  1  0
 14 13  1  0
 15 13  1  0
 16 13  1  0
 18 17  1  0
 19 24  1  0
 20 21  1  0
 20 19  1  0
 22 21  1  0
 22 29  1  0
 22 23  1  0
 24 18  1  0
 24 23  1  0
 25 18  2  0
 26 27  2  0
 27 46  1  0
 28 27  1  0
 28 31  1  0
 29 30  1  0
 29 26  1  0
 30 28  2  0
 31 32  1  0
 32 33  2  0
 34 37  1  0
 34 33  1  0
 35 34  2  0
 36 35  1  0
 36 31  2  0
 37 38  1  0
 38 39  1  0
 39 40  2  0
 41 40  1  0
 41 45  1  0
 42 41  2  0
 43 38  2  0
 43 42  1  0
 44 43  1  0
 46 47  1  0
 47 50  1  0
 47 49  1  0
 48 46  2  0
 51 52  1  0
 51 26  1  0
 53 51  1  0
 54  6  1  0
 55 66  2  0
 56 54  1  0
 56 61  1  0
 57 65  1  0
 57 67  1  0
 58 64  1  0
 58 60  1  0
 59 65  1  0
 60 59  1  0
 61 60  2  0
 62 63  1  0
 62 56  2  0
 63 58  2  0
 64 57  1  0
 65 55  1  0
 67 69  2  0
 68 67  1  0
 70 68  1  0
 71 80  2  0
 71 76  1  0
 72 68  1  0
 72 76  1  0
 73 72  1  0
 74 75  1  0
 74 73  1  0
 75 71  1  0
 76 77  2  0
 77 78  1  0
 79 78  2  0
 80 79  1  0
 81 55  1  0
 81 82  1  0
 81 91  1  0
 82 85  1  0
 83 87  1  0
 83 82  1  0
 84 83  2  0
 87 86  1  0
 89 87  1  0
 89 90  1  0
 89 88  1  0
 91 94  1  1
 91 92  1  0
 93 91  1  0
M  ISO  4   6 101  17 100  18 100  54 101
M  END
>  <TORSDO>  (39) 
F 21

>  <SCORE>  (39) 
-14.079

>  <name>  (39) 
38

>  <ligand_id>  (39) 
38

>  <original_smiles>  (39) 
[H]c1c([H])c([H])c2c(c1[H])C([H])([H])C([H])([H])C([H])([H])C2([H])N([H])C(=O)C1([H])N(C(=O)C([H])(N([H])C(=O)C([H])(N([H])C([H])([H])[H])C([H])([H])[H])C(C([H])([H])[H])(C([H])([H])[H])C([H])([H])[H])C([H])([H])c2c([H])c(Oc3c(C([H])([H])[H])c([H])c([H])c(C(=O)C([H])([H])C([H])(C([H])([H])C(=O)N4C([H])([H])C([H])([H])C([H])([H])C([H])(n5nc(-c6c([H])c([H])c(Oc7c([H])c([H])c(F)c([H])c7F)c([H])c6[H])c(C(=O)N([H])[H])c5N([H])[H])C4([H])[H])[N+]([H])([H])[H])c3C([H])([H])[H])c([H])c([H])c2C1([H])[H]

>  <smiles>  (39) 
[H]c1c([H])c([H])c2c(c1[H])C([H])([H])C([H])([H])C([H])([H])C2([H])N([H])C(=O)C1([H])N(C(=O)C([H])(N([H])C(=O)C([H])(N([H])C([H])([H])[H])C([H])([H])[H])C(C([H])([H])[H])(C([H])([H])[H])C([H])([H])[H])C([H])([H])c2c([H])c(Oc3c(C([H])([H])[H])c([H])c([H])c(C(=O)C([H])([H])C([H])(C([H])([H])C(=O)N4C([H])([H])C([H])([H])C([H])([H])C([H])(n5nc(-c6c([H])c([H])c(Oc7c([H])c([H])c(F)c([H])c7F)c([H])c6[H])c(C(=O)N([H])[H])c5N([H])[H])C4([H])[H])[N+]([H])([H])[H])c3C([H])([H])[H])c([H])c([H])c2C1([H])[H]

$$$$
39:0:0
     RDKit          3D

 93101  0  0  1  0  0  0  0  0999 V2000
  -28.5530  -23.5920   19.5210 C   0  0  0  0  0  3  0  0  0  0  0  0
  -28.7310  -24.9060   19.0460 C   0  0  0  0  0  3  0  0  0  0  0  0
  -28.7530  -24.4020   21.8110 C   0  0  0  0  0  3  0  0  0  0  0  0
  -28.5220  -23.3350   20.9140 C   0  0  0  0  0  0  0  0  0  0  0  0
  -28.8720  -25.9720   19.9550 C   0  0  0  0  0  0  0  0  0  0  0  0
  -28.9300  -25.7120   21.3410 C   0  0  0  0  0  0  0  0  0  0  0  0
  -29.1000  -26.7250   22.2250 F   0  0  0  0  0  0  0  0  0  0  0  0
  -28.1940  -22.0010   21.4900 C   0  0  0  0  0  0  0  0  0  0  0  0
  -27.9820  -21.8310   22.6960 O   0  0  0  0  0  0  0  0  0  0  0  0
  -28.1300  -20.7830   20.5700 C   0  0  0  0  0  2  0  0  0  0  0  0
  -29.4770  -20.0430   20.4600 C   0  0  0  0  0  2  0  0  0  0  0  0
  -29.2350  -18.5310   20.3810 C   0  0  0  0  0  2  0  0  0  0  0  0
  -30.5050  -17.6740   20.4820 C   0  0  0  0  0  2  0  0  0  0  0  0
  -30.1520  -16.2850   21.0320 C   0  0  0  0  0  2  0  0  0  0  0  0
  -31.5820  -14.4540   20.2000 C   0  0  0  0  0  0  0  0  0  0  0  0
  -31.1920  -12.1390   19.4440 C   0  0  0  0  0  2  0  0  0  0  0  0
  -30.2870  -12.0900   18.2000 C   0  0  0  0  0  2  0  0  0  0  0  0
  -28.8060  -12.0570   18.6180 C   0  0  0  0  0  2  0  0  0  0  0  0
  -28.4550  -13.1670   19.6400 C   0  0  0  0  0  3  0  0  0  0  0  0
  -29.4740  -13.1700   20.8040 C   0  0  0  0  0  2  0  0  0  0  0  0
  -30.8290  -13.3190   20.2420 N   0  0  0  0  0  0  0  0  0  0  0  0
  -32.6070  -14.5590   19.5260 O   0  0  0  0  0  0  0  0  0  0  0  0
  -31.3140  -15.4040   21.1020 N   0  0  0  0  0  0  0  0  0  0  0  0
  -32.1520  -15.9170   21.3320 H   0  0  0  0  0  0  0  0  0  0  0  0
  -26.1350  -14.0160   20.3740 C   0  0  0  0  0  0  0  0  0  0  0  0
  -24.9920  -13.3540   20.7320 C   0  0  0  0  0  0  0  0  0  0  0  0
  -25.3070  -11.9620   20.6680 C   0  0  0  0  0  0  0  0  0  0  0  0
  -27.0810  -13.0320   20.1210 N   0  0  0  0  0  0  0  0  0  0  0  0
  -26.5850  -11.7920   20.3530 N   0  0  0  0  0  0  0  0  0  0  0  0
  -24.4530  -10.7790   20.8410 C   0  0  0  0  0  0  0  0  0  0  0  0
  -24.7280   -9.8120   21.8330 C   0  0  0  0  0  3  0  0  0  0  0  0
  -23.8850   -8.6920   21.9940 C   0  0  0  0  0  3  0  0  0  0  0  0
  -22.7520   -8.5320   21.1590 C   0  0  0  0  0  0  0  0  0  0  0  0
  -22.4940   -9.4870   20.1610 C   0  0  0  0  0  3  0  0  0  0  0  0
  -23.3380  -10.5990   19.9990 C   0  0  0  0  0  3  0  0  0  0  0  0
  -21.8930   -7.4610   21.2210 O   0  0  0  0  0  0  0  0  0  0  0  0
  -21.6140   -6.8320   22.4080 C   0  0  0  0  0  0  0  0  0  0  0  0
  -21.0630   -7.5250   23.5070 C   0  0  0  0  0  3  0  0  0  0  0  0
  -20.7280   -6.8250   24.6830 C   0  0  0  0  0  3  0  0  0  0  0  0
  -20.9320   -5.4350   24.7610 C   0  0  0  0  0  0  0  0  0  0  0  0
  -21.4730   -4.7420   23.6640 C   0  0  0  0  0  3  0  0  0  0  0  0
  -21.8130   -5.4390   22.4910 C   0  0  0  0  0  0  0  0  0  0  0  0
  -22.3150   -4.7630   21.4290 F   0  0  0  0  0  0  0  0  0  0  0  0
  -20.6030   -4.7610   25.8880 F   0  0  0  0  0  0  0  0  0  0  0  0
  -23.6540  -13.9700   21.0260 C   0  0  0  0  0  0  0  0  0  0  0  0
  -22.8730  -13.3460   21.8990 N   0  0  0  0  0  0  0  0  0  0  0  0
  -23.3180  -15.0380   20.5140 O   0  0  0  0  0  0  0  0  0  0  0  0
  -23.1620  -12.4820   22.3290 H   0  0  0  0  0  0  0  0  0  0  0  0
  -21.9740  -13.7430   22.1430 H   0  0  0  0  0  0  0  0  0  0  0  0
  -26.4480  -15.3630   20.2270 N   0  0  0  0  0  0  0  0  0  0  0  0
  -25.7640  -16.0950   20.3860 H   0  0  0  0  0  0  0  0  0  0  0  0
  -27.3450  -15.7080   19.9160 H   0  0  0  0  0  0  0  0  0  0  0  0
  -28.8390  -27.2620   19.4950 O   0  0  0  0  0  0  0  0  0  0  0  0
  -24.5650  -31.6430   23.0940 C   0  0  0  0  0  0  0  0  0  0  0  0
  -27.6060  -27.8550   19.5740 C   0  0  0  0  0  0  0  0  0  0  0  0
  -23.4740  -30.2770   21.3410 C   0  0  0  0  0  3  0  0  0  0  0  0
  -25.0560  -29.0440   19.7620 C   0  0  0  0  0  0  0  0  0  0  0  0
  -25.9380  -30.9310   21.1440 C   0  0  0  0  0  2  0  0  0  0  0  0
  -26.1600  -29.6440   20.3830 C   0  0  0  0  0  0  0  0  0  0  0  0
  -27.4370  -29.0550   20.2940 C   0  0  0  0  0  3  0  0  0  0  0  0
  -26.4880  -27.2600   18.9460 C   0  0  0  0  0  3  0  0  0  0  0  0
  -25.2150  -27.8460   19.0420 C   0  0  0  0  0  3  0  0  0  0  0  0
  -23.7260  -29.7490   19.9030 C   0  0  0  0  0  2  0  0  0  0  0  0
  -24.6780  -30.9580   21.9200 N   0  0  0  0  0  0  0  0  0  0  0  0
  -23.4750  -31.7480   23.6710 O   0  0  0  0  0  0  0  0  0  0  0  0
  -22.9570  -29.1090   22.2110 C   0  0  0  0  0  0  0  0  0  0  0  0
  -21.6770  -28.7490   22.0230 N   0  0  0  0  0  0  0  0  0  0  0  0
  -23.7030  -28.5300   23.0050 O   0  0  0  0  0  0  0  0  0  0  0  0
  -21.1250  -29.2820   21.3660 H   0  0  0  0  0  0  0  0  0  0  0  0
  -18.5410  -26.9730   22.2220 C   0  0  0  0  0  0  0  0  0  0  0  0
  -20.9860  -27.6550   22.7040 C   0  0  0  0  0  3  0  0  0  0  0  0
  -21.3790  -26.2860   22.1040 C   0  0  0  0  0  2  0  0  0  0  0  0
  -20.4330  -25.8230   20.9930 C   0  0  0  0  0  2  0  0  0  0  0  0
  -19.0000  -25.7040   21.5230 C   0  0  0  0  0  2  0  0  0  0  0  0
  -19.4740  -27.8980   22.7620 C   0  0  0  0  0  0  0  0  0  0  0  0
  -18.9960  -29.0790   23.3680 C   0  0  0  0  0  3  0  0  0  0  0  0
  -17.6150  -29.3440   23.4410 C   0  0  0  0  0  3  0  0  0  0  0  0
  -16.6960  -28.4170   22.9210 C   0  0  0  0  0  3  0  0  0  0  0  0
  -17.1580  -27.2330   22.3170 C   0  0  0  0  0  3  0  0  0  0  0  0
  -25.7960  -32.3460   23.7520 C   0  0  0  0  0  3  0  0  0  0  0  0
  -25.3770  -33.7000   24.1360 N   0  0  0  0  0  0  0  0  0  0  0  0
  -25.6490  -34.8080   23.4340 C   0  0  0  0  0  0  0  0  0  0  0  0
  -26.3520  -34.8020   22.4190 O   0  0  0  0  0  0  0  0  0  0  0  0
  -24.7520  -33.7740   24.9260 H   0  0  0  0  0  0  0  0  0  0  0  0
  -23.8050  -36.4870   23.1010 C   0  0  0  0  0  1  0  0  0  0  0  0
  -25.0460  -36.1340   23.9370 C   0  0  0  0  0  3  0  0  0  0  0  0
  -27.0840  -37.1310   24.8770 C   0  0  0  0  0  1  0  0  0  0  0  0
  -26.0010  -37.2620   23.9070 N   0  0  0  0  0  0  0  0  0  0  0  0
  -25.5240  -38.1430   24.0830 H   0  0  0  0  0  0  0  0  0  0  0  0
  -26.3690  -31.5620   24.9960 C   0  0  1  0  0  0  0  0  0  0  0  0
  -25.2930  -31.1960   26.0460 C   0  0  0  0  0  1  0  0  0  0  0  0
  -27.0610  -30.2540   24.5470 C   0  0  0  0  0  1  0  0  0  0  0  0
  -27.4520  -32.4140   25.7010 C   0  0  0  0  0  1  0  0  0  0  0  0
  1  4  1  0
  2  1  2  0
  2  5  1  0
  4  8  1  0
  4  3  2  0
  5  6  2  0
  6  3  1  0
  6  7  1  0
  8  9  2  0
 10  8  1  0
 11 10  1  0
 12 11  1  0
 12 13  1  0
 13 14  1  0
 14 23  1  0
 15 21  1  0
 15 23  1  0
 16 21  1  0
 17 18  1  0
 17 16  1  0
 19 18  1  0
 19 28  1  0
 19 20  1  0
 21 20  1  0
 22 15  2  0
 23 24  1  0
 25 26  2  0
 26 45  1  0
 27 26  1  0
 27 30  1  0
 28 29  1  0
 28 25  1  0
 29 27  2  0
 30 31  1  0
 31 32  2  0
 33 36  1  0
 33 32  1  0
 34 33  2  0
 35 34  1  0
 35 30  2  0
 36 37  1  0
 37 42  2  0
 37 38  1  0
 38 39  2  0
 39 40  1  0
 40 44  1  0
 41 40  2  0
 42 41  1  0
 43 42  1  0
 45 46  1  0
 46 49  1  0
 46 48  1  0
 47 45  2  0
 50 25  1  0
 50 51  1  0
 52 50  1  0
 53 55  1  0
 53  5  1  0
 54 65  2  0
 55 60  1  0
 56 64  1  0
 56 66  1  0
 57 63  1  0
 57 59  1  0
 58 64  1  0
 59 58  1  0
 60 59  2  0
 61 62  1  0
 61 55  2  0
 62 57  2  0
 63 56  1  0
 64 54  1  0
 66 68  2  0
 67 66  1  0
 69 67  1  0
 70 79  2  0
 70 75  1  0
 71 67  1  0
 71 75  1  0
 72 71  1  0
 73 74  1  0
 73 72  1  0
 74 70  1  0
 75 76  2  0
 76 77  1  0
 78 77  2  0
 79 78  1  0
 80 54  1  0
 80 81  1  0
 80 90  1  0
 81 84  1  0
 82 86  1  0
 82 81  1  0
 83 82  2  0
 86 85  1  0
 88 86  1  0
 88 89  1  0
 88 87  1  0
 90 93  1  1
 90 91  1  0
 92 90  1  0
M  ISO  4   5 101  15 100  23 100  53 101
M  END
>  <TORSDO>  (40) 
F 22

>  <SCORE>  (40) 
-10.654

>  <name>  (40) 
39

>  <ligand_id>  (40) 
39

>  <original_smiles>  (40) 
[H]c1c([H])c([H])c2c(c1[H])C([H])([H])C([H])([H])C([H])([H])C2([H])N([H])C(=O)C1([H])N(C(=O)C([H])(N([H])C(=O)C([H])(N([H])C([H])([H])[H])C([H])([H])[H])C(C([H])([H])[H])(C([H])([H])[H])C([H])([H])[H])C([H])([H])c2c([H])c(Oc3c([H])c([H])c(C(=O)C([H])([H])C([H])([H])C([H])([H])C([H])([H])C([H])([H])N([H])C(=O)N4C([H])([H])C([H])([H])C([H])([H])C([H])(n5nc(-c6c([H])c([H])c(Oc7c([H])c([H])c(F)c([H])c7F)c([H])c6[H])c(C(=O)N([H])[H])c5N([H])[H])C4([H])[H])c([H])c3F)c([H])c([H])c2C1([H])[H]

>  <smiles>  (40) 
[H]c1c([H])c([H])c2c(c1[H])C([H])([H])C([H])([H])C([H])([H])C2([H])N([H])C(=O)C1([H])N(C(=O)C([H])(N([H])C(=O)C([H])(N([H])C([H])([H])[H])C([H])([H])[H])C(C([H])([H])[H])(C([H])([H])[H])C([H])([H])[H])C([H])([H])c2c([H])c(Oc3c([H])c([H])c(C(=O)C([H])([H])C([H])([H])C([H])([H])C([H])([H])C([H])([H])N([H])C(=O)N4C([H])([H])C([H])([H])C([H])([H])C([H])(n5nc(-c6c([H])c([H])c(Oc7c([H])c([H])c(F)c([H])c7F)c([H])c6[H])c(C(=O)N([H])[H])c5N([H])[H])C4([H])[H])c([H])c3F)c([H])c([H])c2C1([H])[H]

$$$$
40:0:0
     RDKit          3D

 88 96  0  0  1  0  0  0  0  0999 V2000
  -27.4420  -23.4360   20.0970 C   0  0  0  0  0  3  0  0  0  0  0  0
  -27.1500  -22.0430   19.8820 C   0  0  0  0  0  3  0  0  0  0  0  0
  -29.7030  -22.6800   20.1420 C   0  0  0  0  0  3  0  0  0  0  0  0
  -29.4820  -21.0870   19.8920 C   0  0  0  0  0  0  0  0  0  0  0  0
  -28.7340  -23.9810   20.2760 C   0  0  0  0  0  0  0  0  0  0  0  0
  -28.0650  -20.9280   19.8190 C   0  0  0  0  0  0  0  0  0  0  0  0
  -30.4860  -19.5230   19.7410 C   0  0  0  0  0  0  0  0  0  0  0  0
  -31.6450  -19.7740   19.3880 O   0  0  0  0  0  0  0  0  0  0  0  0
  -30.3050  -17.6580   19.9740 C   0  0  0  0  0  2  0  0  0  0  0  0
  -31.3040  -16.0410   19.8970 C   0  0  0  0  0  0  0  0  0  0  0  0
  -31.6670  -13.4110   19.3810 C   0  0  0  0  0  2  0  0  0  0  0  0
  -30.7900  -12.8220   18.2340 C   0  0  0  0  0  2  0  0  0  0  0  0
  -29.4130  -12.3870   18.7500 C   0  0  0  0  0  2  0  0  0  0  0  0
  -28.8390  -13.4410   19.7200 C   0  0  0  0  0  3  0  0  0  0  0  0
  -29.8560  -13.9450   20.7700 C   0  0  0  0  0  2  0  0  0  0  0  0
  -30.9650  -14.6110   20.0400 N   0  0  0  0  0  0  0  0  0  0  0  0
  -32.5210  -16.0650   19.6090 O   0  0  0  0  0  0  0  0  0  0  0  0
  -26.5690  -13.8830   20.7580 C   0  0  0  0  0  0  0  0  0  0  0  0
  -25.5430  -13.0710   21.1410 C   0  0  0  0  0  0  0  0  0  0  0  0
  -25.9940  -11.7300   20.9190 C   0  0  0  0  0  0  0  0  0  0  0  0
  -27.5740  -13.0440   20.3180 N   0  0  0  0  0  0  0  0  0  0  0  0
  -27.2490  -11.7330   20.4760 N   0  0  0  0  0  0  0  0  0  0  0  0
  -25.2770  -10.4560   21.0390 C   0  0  0  0  0  0  0  0  0  0  0  0
  -25.5530   -9.5470   22.0840 C   0  0  0  0  0  3  0  0  0  0  0  0
  -24.8310   -8.3410   22.1990 C   0  0  0  0  0  3  0  0  0  0  0  0
  -23.8160   -8.0320   21.2610 C   0  0  0  0  0  0  0  0  0  0  0  0
  -23.5620   -8.9270   20.2080 C   0  0  0  0  0  3  0  0  0  0  0  0
  -24.2870  -10.1240   20.0940 C   0  0  0  0  0  3  0  0  0  0  0  0
  -23.0830   -6.8710   21.2720 O   0  0  0  0  0  0  0  0  0  0  0  0
  -22.5330   -6.3790   22.4280 C   0  0  0  0  0  0  0  0  0  0  0  0
  -21.6000   -7.1200   23.1840 C   0  0  0  0  0  3  0  0  0  0  0  0
  -21.0080   -6.5480   24.3290 C   0  0  0  0  0  3  0  0  0  0  0  0
  -21.3370   -5.2350   24.7110 C   0  0  0  0  0  0  0  0  0  0  0  0
  -22.2590   -4.4910   23.9530 C   0  0  0  0  0  3  0  0  0  0  0  0
  -22.8530   -5.0610   22.8140 C   0  0  0  0  0  0  0  0  0  0  0  0
  -23.7250   -4.3330   22.0740 F   0  0  0  0  0  0  0  0  0  0  0  0
  -20.7640   -4.6810   25.8050 F   0  0  0  0  0  0  0  0  0  0  0  0
  -24.1790  -13.5120   21.5880 C   0  0  0  0  0  0  0  0  0  0  0  0
  -23.5400  -12.7420   22.4580 N   0  0  0  0  0  0  0  0  0  0  0  0
  -23.6920  -14.5730   21.2000 O   0  0  0  0  0  0  0  0  0  0  0  0
  -23.9530  -11.8850   22.7980 H   0  0  0  0  0  0  0  0  0  0  0  0
  -22.6270  -13.0130   22.7980 H   0  0  0  0  0  0  0  0  0  0  0  0
  -26.7320  -15.2660   20.7150 N   0  0  0  0  0  0  0  0  0  0  0  0
  -25.9900  -15.9090   20.9690 H   0  0  0  0  0  0  0  0  0  0  0  0
  -27.5580  -15.7410   20.3740 H   0  0  0  0  0  0  0  0  0  0  0  0
  -26.2630  -19.3050   20.0460 C   0  0  0  0  0  1  0  0  0  0  0  0
  -27.5980  -19.6390   19.6480 O   0  0  0  0  0  0  0  0  0  0  0  0
  -28.8060  -25.5910   20.5910 O   0  0  0  0  0  0  0  0  0  0  0  0
  -25.1210  -31.8710   23.5550 C   0  0  0  0  0  0  0  0  0  0  0  0
  -27.8240  -26.8250   20.5820 C   0  0  0  0  0  0  0  0  0  0  0  0
  -24.0200  -30.5050   21.8330 C   0  0  0  0  0  3  0  0  0  0  0  0
  -25.5510  -28.8910   20.4540 C   0  0  0  0  0  0  0  0  0  0  0  0
  -26.6060  -30.6440   21.8480 C   0  0  0  0  0  2  0  0  0  0  0  0
  -26.7130  -29.2220   21.1630 C   0  0  0  0  0  0  0  0  0  0  0  0
  -27.8280  -28.2190   21.1960 C   0  0  0  0  0  3  0  0  0  0  0  0
  -26.6350  -26.7350   19.8070 C   0  0  0  0  0  3  0  0  0  0  0  0
  -25.5560  -27.6730   19.7570 C   0  0  0  0  0  3  0  0  0  0  0  0
  -24.3340  -29.8360   20.4610 C   0  0  0  0  0  2  0  0  0  0  0  0
  -25.2710  -31.0380   22.4650 N   0  0  0  0  0  0  0  0  0  0  0  0
  -24.0040  -32.1550   24.0200 O   0  0  0  0  0  0  0  0  0  0  0  0
  -23.2610  -29.4990   22.7400 C   0  0  0  0  0  0  0  0  0  0  0  0
  -21.9420  -29.3310   22.5310 N   0  0  0  0  0  0  0  0  0  0  0  0
  -23.8760  -28.8670   23.6010 O   0  0  0  0  0  0  0  0  0  0  0  0
  -21.4970  -29.8950   21.8200 H   0  0  0  0  0  0  0  0  0  0  0  0
  -18.5340  -28.1000   22.8490 C   0  0  0  0  0  0  0  0  0  0  0  0
  -21.0820  -28.3650   23.2300 C   0  0  0  0  0  3  0  0  0  0  0  0
  -21.2080  -26.9490   22.6160 C   0  0  0  0  0  2  0  0  0  0  0  0
  -20.1550  -26.6650   21.5390 C   0  0  0  0  0  2  0  0  0  0  0  0
  -18.7480  -26.7790   22.1300 C   0  0  0  0  0  2  0  0  0  0  0  0
  -19.6310  -28.8540   23.3510 C   0  0  0  0  0  0  0  0  0  0  0  0
  -19.3790  -30.0910   23.9820 C   0  0  0  0  0  3  0  0  0  0  0  0
  -18.0640  -30.5760   24.1180 C   0  0  0  0  0  3  0  0  0  0  0  0
  -16.9810  -29.8170   23.6390 C   0  0  0  0  0  3  0  0  0  0  0  0
  -17.2180  -28.5820   23.0110 C   0  0  0  0  0  3  0  0  0  0  0  0
  -26.3460  -32.5130   24.2710 C   0  0  0  0  0  3  0  0  0  0  0  0
  -26.7080  -31.7970   25.6330 C   0  0  1  0  0  0  0  0  0  0  0  0
  -25.5030  -31.6220   26.5870 C   0  0  0  0  0  1  0  0  0  0  0  0
  -27.3090  -30.3930   25.3870 C   0  0  0  0  0  1  0  0  0  0  0  0
  -27.7920  -32.6120   26.3800 C   0  0  0  0  0  1  0  0  0  0  0  0
  -26.0420  -33.9360   24.5270 N   0  0  0  0  0  0  0  0  0  0  0  0
  -26.4270  -34.9600   23.7530 C   0  0  0  0  0  0  0  0  0  0  0  0
  -27.1380  -34.8050   22.7560 O   0  0  0  0  0  0  0  0  0  0  0  0
  -25.4230  -34.1280   25.3000 H   0  0  0  0  0  0  0  0  0  0  0  0
  -24.7440  -36.7770   23.2810 C   0  0  0  0  0  1  0  0  0  0  0  0
  -25.9550  -36.3790   24.1420 C   0  0  0  0  0  3  0  0  0  0  0  0
  -28.0810  -37.2690   24.9990 C   0  0  0  0  0  1  0  0  0  0  0  0
  -27.0090  -37.4120   24.0150 N   0  0  0  0  0  0  0  0  0  0  0  0
  -26.6170  -38.3450   24.1180 H   0  0  0  0  0  0  0  0  0  0  0  0
  1  5  1  0
  2  1  2  0
  3  5  2  0
  4  3  1  0
  5 48  1  0
  6  2  1  0
  6  4  2  0
  7  4  1  0
  7  9  1  0
  8  7  2  0
 10  9  1  0
 10 16  1  0
 11 16  1  0
 12 13  1  0
 12 11  1  0
 14 13  1  0
 14 21  1  0
 14 15  1  0
 16 15  1  0
 17 10  2  0
 18 19  2  0
 19 38  1  0
 20 23  1  0
 20 19  1  0
 21 22  1  0
 21 18  1  0
 22 20  2  0
 23 24  1  0
 24 25  2  0
 26 29  1  0
 26 25  1  0
 27 26  2  0
 28 27  1  0
 28 23  2  0
 29 30  1  0
 30 35  2  0
 30 31  1  0
 31 32  2  0
 32 33  1  0
 33 37  1  0
 34 33  2  0
 35 34  1  0
 36 35  1  0
 38 39  1  0
 39 41  1  0
 39 42  1  0
 40 38  2  0
 43 18  1  0
 43 44  1  0
 45 43  1  0
 47  6  1  0
 47 46  1  0
 49 60  2  0
 50 48  1  0
 50 55  1  0
 51 59  1  0
 51 61  1  0
 52 58  1  0
 52 54  1  0
 53 59  1  0
 54 55  2  0
 54 53  1  0
 56 50  2  0
 57 56  1  0
 57 52  2  0
 58 51  1  0
 59 49  1  0
 61 63  2  0
 62 61  1  0
 64 62  1  0
 65 74  2  0
 65 70  1  0
 66 62  1  0
 66 70  1  0
 67 66  1  0
 68 69  1  0
 68 67  1  0
 69 65  1  0
 70 71  2  0
 71 72  1  0
 73 72  2  0
 74 73  1  0
 75 49  1  0
 75 80  1  0
 75 76  1  0
 76 79  1  1
 76 77  1  0
 78 76  1  0
 80 83  1  0
 81 85  1  0
 81 80  1  0
 82 81  2  0
 85 84  1  0
 87 88  1  0
 87 85  1  0
 87 86  1  0
M  ISO  4   5 101   9 100  10 100  48 101
M  END
>  <TORSDO>  (41) 
F 19

>  <SCORE>  (41) 
-9.911

>  <name>  (41) 
40

>  <ligand_id>  (41) 
40

>  <original_smiles>  (41) 
[H]c1c([H])c([H])c2c(c1[H])C([H])([H])C([H])([H])C([H])([H])C2([H])N([H])C(=O)C1([H])N(C(=O)C([H])(N([H])C(=O)C([H])(N([H])C([H])([H])[H])C([H])([H])[H])C(C([H])([H])[H])(C([H])([H])[H])C([H])([H])[H])C([H])([H])c2c([H])c(Oc3c([H])c([H])c(OC([H])([H])[H])c(C(=O)C([H])([H])C(=O)N4C([H])([H])C([H])([H])C([H])([H])C([H])(n5nc(-c6c([H])c([H])c(Oc7c([H])c([H])c(F)c([H])c7F)c([H])c6[H])c(C(=O)N([H])[H])c5N([H])[H])C4([H])[H])c3[H])c([H])c([H])c2C1([H])[H]

>  <smiles>  (41) 
[H]c1c([H])c([H])c2c(c1[H])C([H])([H])C([H])([H])C([H])([H])C2([H])N([H])C(=O)C1([H])N(C(=O)C([H])(N([H])C(=O)C([H])(N([H])C([H])([H])[H])C([H])([H])[H])C(C([H])([H])[H])(C([H])([H])[H])C([H])([H])[H])C([H])([H])c2c([H])c(Oc3c([H])c([H])c(OC([H])([H])[H])c(C(=O)C([H])([H])C(=O)N4C([H])([H])C([H])([H])C([H])([H])C([H])(n5nc(-c6c([H])c([H])c(Oc7c([H])c([H])c(F)c([H])c7F)c([H])c6[H])c(C(=O)N([H])[H])c5N([H])[H])C4([H])[H])c3[H])c([H])c([H])c2C1([H])[H]

$$$$
41:0:0
     RDKit          3D

 90 98  0  0  1  0  0  0  0  0999 V2000
  -31.8780  -21.5570   20.2110 C   0  0  0  0  0  3  0  0  0  0  0  0
  -31.9380  -20.9190   21.4740 C   0  0  0  0  0  3  0  0  0  0  0  0
  -30.6240  -21.7550   19.5870 C   0  0  0  0  0  0  0  0  0  0  0  0
  -30.8170  -20.1920   21.9370 C   0  0  0  0  0  0  0  0  0  0  0  0
  -29.4740  -21.4310   20.3420 C   0  0  0  0  0  3  0  0  0  0  0  0
  -29.7340  -20.0720   21.0420 C   0  0  0  0  0  3  0  0  0  0  0  0
  -30.5520  -22.5780   18.3170 C   0  0  0  0  0  1  0  0  0  0  0  0
  -31.1520  -20.1700   24.4450 C   0  0  0  0  0  1  0  0  0  0  0  0
  -30.9330  -19.3300   23.1810 C   0  0  0  0  0  2  0  0  0  0  0  0
  -29.7730  -18.4750   20.3990 C   0  0  0  0  0  2  0  0  0  0  0  0
  -30.0550  -16.8550   21.1090 C   0  0  0  0  0  2  0  0  0  0  0  0
  -30.7960  -15.3010   20.8360 C   0  0  0  0  0  0  0  0  0  0  0  0
  -30.7780  -12.8750   19.9490 C   0  0  0  0  0  2  0  0  0  0  0  0
  -29.9520  -12.7610   18.6420 C   0  0  0  0  0  2  0  0  0  0  0  0
  -28.4650  -12.5260   18.9600 C   0  0  0  0  0  2  0  0  0  0  0  0
  -27.9560  -13.4720   20.0780 C   0  0  0  0  0  3  0  0  0  0  0  0
  -28.9180  -13.5580   21.2810 C   0  0  0  0  0  2  0  0  0  0  0  0
  -30.2220  -14.0050   20.7740 N   0  0  0  0  0  0  0  0  0  0  0  0
  -32.0150  -15.2750   20.6010 O   0  0  0  0  0  0  0  0  0  0  0  0
  -25.5360  -14.0500   20.6450 C   0  0  0  0  0  0  0  0  0  0  0  0
  -24.4430  -13.2830   20.9360 C   0  0  0  0  0  0  0  0  0  0  0  0
  -24.9030  -11.9290   20.9470 C   0  0  0  0  0  0  0  0  0  0  0  0
  -26.5880  -13.1680   20.4840 N   0  0  0  0  0  0  0  0  0  0  0  0
  -26.2140  -11.8870   20.7350 N   0  0  0  0  0  0  0  0  0  0  0  0
  -24.1550  -10.6720   21.0870 C   0  0  0  0  0  0  0  0  0  0  0  0
  -24.5280   -9.6890   22.0300 C   0  0  0  0  0  3  0  0  0  0  0  0
  -23.7790   -8.5000   22.1610 C   0  0  0  0  0  3  0  0  0  0  0  0
  -22.6410   -8.2850   21.3480 C   0  0  0  0  0  0  0  0  0  0  0  0
  -22.2870   -9.2550   20.3940 C   0  0  0  0  0  3  0  0  0  0  0  0
  -23.0380  -10.4350   20.2620 C   0  0  0  0  0  3  0  0  0  0  0  0
  -21.8690   -7.1490   21.3850 O   0  0  0  0  0  0  0  0  0  0  0  0
  -21.7710   -6.3820   22.5190 C   0  0  0  0  0  0  0  0  0  0  0  0
  -21.2880   -6.9100   23.7360 C   0  0  0  0  0  3  0  0  0  0  0  0
  -21.1390   -6.0700   24.8580 C   0  0  0  0  0  3  0  0  0  0  0  0
  -21.4620   -4.7040   24.7630 C   0  0  0  0  0  0  0  0  0  0  0  0
  -21.9380   -4.1750   23.5510 C   0  0  0  0  0  3  0  0  0  0  0  0
  -22.0890   -5.0120   22.4310 C   0  0  0  0  0  0  0  0  0  0  0  0
  -22.5280   -4.4920   21.2590 F   0  0  0  0  0  0  0  0  0  0  0  0
  -21.3120   -3.8950   25.8380 F   0  0  0  0  0  0  0  0  0  0  0  0
  -23.0330  -13.7700   21.0940 C   0  0  0  0  0  0  0  0  0  0  0  0
  -22.2420  -13.0950   21.9200 N   0  0  0  0  0  0  0  0  0  0  0  0
  -22.6410  -14.7840   20.5200 O   0  0  0  0  0  0  0  0  0  0  0  0
  -22.5710  -12.2750   22.4060 H   0  0  0  0  0  0  0  0  0  0  0  0
  -21.2910  -13.4050   22.0680 H   0  0  0  0  0  0  0  0  0  0  0  0
  -25.7200  -15.4200   20.4770 N   0  0  0  0  0  0  0  0  0  0  0  0
  -24.9550  -16.0810   20.5420 H   0  0  0  0  0  0  0  0  0  0  0  0
  -26.6020  -15.8580   20.2400 H   0  0  0  0  0  0  0  0  0  0  0  0
  -28.8830  -22.9320   20.9610 C   0  0  0  0  0  2  0  0  0  0  0  0
  -28.3660  -24.4450   20.1810 C   0  0  0  0  0  2  0  0  0  0  0  0
  -28.3310  -26.0140   20.6120 O   0  0  0  0  0  0  0  0  0  0  0  0
  -24.6420  -31.9580   23.2410 C   0  0  0  0  0  0  0  0  0  0  0  0
  -27.2940  -27.0500   20.4330 C   0  0  0  0  0  0  0  0  0  0  0  0
  -23.4840  -30.4930   21.6350 C   0  0  0  0  0  3  0  0  0  0  0  0
  -24.9700  -28.8650   20.2860 C   0  0  0  0  0  0  0  0  0  0  0  0
  -26.0450  -30.7400   21.5150 C   0  0  0  0  0  2  0  0  0  0  0  0
  -26.1380  -29.3150   20.9100 C   0  0  0  0  0  0  0  0  0  0  0  0
  -27.2920  -28.4240   20.9660 C   0  0  0  0  0  3  0  0  0  0  0  0
  -26.0990  -26.7380   19.7460 C   0  0  0  0  0  3  0  0  0  0  0  0
  -24.9710  -27.5960   19.6840 C   0  0  0  0  0  3  0  0  0  0  0  0
  -23.7380  -29.7660   20.2850 C   0  0  0  0  0  2  0  0  0  0  0  0
  -24.7430  -31.0920   22.1840 N   0  0  0  0  0  0  0  0  0  0  0  0
  -23.5430  -32.2550   23.7380 O   0  0  0  0  0  0  0  0  0  0  0  0
  -22.7890  -29.5230   22.6240 C   0  0  0  0  0  0  0  0  0  0  0  0
  -21.4710  -29.3080   22.4600 N   0  0  0  0  0  0  0  0  0  0  0  0
  -23.4430  -28.9630   23.5080 O   0  0  0  0  0  0  0  0  0  0  0  0
  -20.9970  -29.8100   21.7230 H   0  0  0  0  0  0  0  0  0  0  0  0
  -18.1210  -27.9840   22.8720 C   0  0  0  0  0  0  0  0  0  0  0  0
  -20.6490  -28.3850   23.2490 C   0  0  0  0  0  3  0  0  0  0  0  0
  -20.8430  -26.9250   22.7770 C   0  0  0  0  0  2  0  0  0  0  0  0
  -19.8120  -26.4870   21.7310 C   0  0  0  0  0  2  0  0  0  0  0  0
  -18.3930  -26.6050   22.2930 C   0  0  0  0  0  2  0  0  0  0  0  0
  -19.1790  -28.8240   23.3050 C   0  0  0  0  0  0  0  0  0  0  0  0
  -18.8720  -30.1080   23.8080 C   0  0  0  0  0  3  0  0  0  0  0  0
  -17.5380  -30.5530   23.8800 C   0  0  0  0  0  3  0  0  0  0  0  0
  -16.4930  -29.7110   23.4610 C   0  0  0  0  0  3  0  0  0  0  0  0
  -16.7850  -28.4280   22.9630 C   0  0  0  0  0  3  0  0  0  0  0  0
  -25.9000  -32.6330   23.8680 C   0  0  0  0  0  3  0  0  0  0  0  0
  -25.5570  -34.0330   24.1730 N   0  0  0  0  0  0  0  0  0  0  0  0
  -25.8690  -35.0860   23.4060 C   0  0  0  0  0  0  0  0  0  0  0  0
  -26.5410  -34.9800   22.3760 O   0  0  0  0  0  0  0  0  0  0  0  0
  -24.9570  -34.1850   24.9720 H   0  0  0  0  0  0  0  0  0  0  0  0
  -24.1120  -36.8500   23.0310 C   0  0  0  0  0  1  0  0  0  0  0  0
  -25.3600  -36.4730   23.8460 C   0  0  0  0  0  3  0  0  0  0  0  0
  -27.4750  -37.4100   24.6710 C   0  0  0  0  0  1  0  0  0  0  0  0
  -26.3750  -37.5420   23.7210 N   0  0  0  0  0  0  0  0  0  0  0  0
  -25.9530  -38.4580   23.8510 H   0  0  0  0  0  0  0  0  0  0  0  0
  -26.4100  -31.9020   25.1720 C   0  0  1  0  0  0  0  0  0  0  0  0
  -25.3030  -31.6620   26.2260 C   0  0  0  0  0  1  0  0  0  0  0  0
  -27.0330  -30.5310   24.8280 C   0  0  0  0  0  1  0  0  0  0  0  0
  -27.5290  -32.7380   25.8370 C   0  0  0  0  0  1  0  0  0  0  0  0
  1  2  1  0
  2  4  2  0
  3  1  2  0
  3  5  1  0
  4  9  1  0
  5 48  1  0
  5  6  1  0
  6 10  1  0
  6  4  1  0
  7  3  1  0
  9  8  1  0
 10 11  1  0
 12 11  1  0
 13 18  1  0
 14 15  1  0
 14 13  1  0
 16 15  1  0
 16 23  1  0
 16 17  1  0
 18 12  1  0
 18 17  1  0
 19 12  2  0
 20 21  2  0
 21 22  1  0
 21 40  1  0
 22 25  1  0
 23 20  1  0
 23 24  1  0
 24 22  2  0
 25 26  1  0
 26 27  2  0
 28 31  1  0
 28 27  1  0
 29 28  2  0
 30 29  1  0
 30 25  2  0
 31 32  1  0
 32 33  1  0
 33 34  2  0
 35 34  1  0
 35 39  1  0
 36 35  2  0
 37 32  2  0
 37 36  1  0
 38 37  1  0
 40 41  1  0
 41 44  1  0
 41 43  1  0
 42 40  2  0
 45 46  1  0
 45 20  1  0
 47 45  1  0
 49 50  1  0
 49 48  1  0
 51 62  2  0
 52 50  1  0
 52 57  1  0
 53 61  1  0
 53 63  1  0
 54 56  1  0
 55 61  1  0
 56 57  2  0
 56 55  1  0
 58 52  2  0
 59 58  1  0
 59 54  2  0
 60 54  1  0
 60 53  1  0
 61 51  1  0
 63 65  2  0
 64 63  1  0
 66 64  1  0
 67 76  2  0
 67 72  1  0
 68 64  1  0
 68 72  1  0
 69 68  1  0
 70 71  1  0
 70 69  1  0
 71 67  1  0
 72 73  2  0
 73 74  1  0
 75 74  2  0
 76 75  1  0
 77 51  1  0
 77 78  1  0
 77 87  1  0
 78 81  1  0
 79 83  1  0
 79 78  1  0
 80 79  2  0
 83 82  1  0
 85 83  1  0
 85 86  1  0
 85 84  1  0
 87 90  1  1
 87 88  1  0
 89 87  1  0
M  ISO  4  11 100  12 100  49 101  50 101
M  END
>  <TORSDO>  (42) 
F 21

>  <SCORE>  (42) 
-15.217

>  <name>  (42) 
41

>  <ligand_id>  (42) 
41

>  <original_smiles>  (42) 
[H]c1c([H])c([H])c2c(c1[H])C([H])([H])C([H])([H])C([H])([H])C2([H])N([H])C(=O)C1([H])N(C(=O)C([H])(N([H])C(=O)C([H])(N([H])C([H])([H])[H])C([H])([H])[H])C(C([H])([H])[H])(C([H])([H])[H])C([H])([H])[H])C([H])([H])c2c([H])c(OC([H])([H])C([H])([H])c3c(C([H])([H])[H])c([H])c([H])c(C([H])([H])C([H])([H])[H])c3C([H])([H])C([H])([H])C(=O)N3C([H])([H])C([H])([H])C([H])([H])C([H])(n4nc(-c5c([H])c([H])c(Oc6c([H])c([H])c(F)c([H])c6F)c([H])c5[H])c(C(=O)N([H])[H])c4N([H])[H])C3([H])[H])c([H])c([H])c2C1([H])[H]

>  <smiles>  (42) 
[H]c1c([H])c([H])c2c(c1[H])C([H])([H])C([H])([H])C([H])([H])C2([H])N([H])C(=O)C1([H])N(C(=O)C([H])(N([H])C(=O)C([H])(N([H])C([H])([H])[H])C([H])([H])[H])C(C([H])([H])[H])(C([H])([H])[H])C([H])([H])[H])C([H])([H])c2c([H])c(OC([H])([H])C([H])([H])c3c(C([H])([H])[H])c([H])c([H])c(C([H])([H])C([H])([H])[H])c3C([H])([H])C([H])([H])C(=O)N3C([H])([H])C([H])([H])C([H])([H])C([H])(n4nc(-c5c([H])c([H])c(Oc6c([H])c([H])c(F)c([H])c6F)c([H])c5[H])c(C(=O)N([H])[H])c4N([H])[H])C3([H])[H])c([H])c([H])c2C1([H])[H]

$$$$
42:0:0
     RDKit          3D

 90 98  0  0  1  0  0  0  0  0999 V2000
  -28.4510  -22.1150   18.6240 C   0  0  0  0  0  3  0  0  0  0  0  0
  -28.1670  -23.2700   17.8620 C   0  0  0  0  0  3  0  0  0  0  0  0
  -28.6080  -23.5650   20.5560 C   0  0  0  0  0  3  0  0  0  0  0  0
  -28.7320  -22.1780   20.0000 C   0  0  0  0  0  0  0  0  0  0  0  0
  -28.1200  -24.5880   18.4040 C   0  0  0  0  0  0  0  0  0  0  0  0
  -28.2650  -24.8140   19.8010 C   0  0  0  0  0  0  0  0  0  0  0  0
  -27.8430  -25.5440   16.2010 C   0  0  0  0  0  1  0  0  0  0  0  0
  -27.9740  -25.7070   17.6080 O   0  0  0  0  0  0  0  0  0  0  0  0
  -28.2440  -26.2210   20.2680 O   0  0  0  0  0  0  0  0  0  0  0  0
  -24.5880  -31.9420   23.2110 C   0  0  0  0  0  0  0  0  0  0  0  0
  -27.1680  -27.1960   20.1930 C   0  0  0  0  0  0  0  0  0  0  0  0
  -23.3870  -30.5370   21.5830 C   0  0  0  0  0  3  0  0  0  0  0  0
  -24.8330  -28.9510   20.1650 C   0  0  0  0  0  0  0  0  0  0  0  0
  -25.9420  -30.7980   21.4120 C   0  0  0  0  0  2  0  0  0  0  0  0
  -26.0150  -29.4000   20.7650 C   0  0  0  0  0  0  0  0  0  0  0  0
  -27.1800  -28.5400   20.7600 C   0  0  0  0  0  3  0  0  0  0  0  0
  -25.9410  -26.8440   19.5850 C   0  0  0  0  0  3  0  0  0  0  0  0
  -24.8090  -27.6860   19.5620 C   0  0  0  0  0  3  0  0  0  0  0  0
  -23.6060  -29.8520   20.2080 C   0  0  0  0  0  2  0  0  0  0  0  0
  -24.6600  -31.1150   22.1230 N   0  0  0  0  0  0  0  0  0  0  0  0
  -23.5020  -32.2300   23.7380 O   0  0  0  0  0  0  0  0  0  0  0  0
  -22.7090  -29.5350   22.5520 C   0  0  0  0  0  0  0  0  0  0  0  0
  -21.3830  -29.3510   22.4170 N   0  0  0  0  0  0  0  0  0  0  0  0
  -23.3790  -28.9270   23.3900 O   0  0  0  0  0  0  0  0  0  0  0  0
  -20.8990  -29.8930   21.7150 H   0  0  0  0  0  0  0  0  0  0  0  0
  -18.0100  -28.1250   22.9080 C   0  0  0  0  0  0  0  0  0  0  0  0
  -20.5640  -28.4160   23.1930 C   0  0  0  0  0  3  0  0  0  0  0  0
  -20.6830  -26.9780   22.6370 C   0  0  0  0  0  2  0  0  0  0  0  0
  -19.5940  -26.6310   21.6180 C   0  0  0  0  0  2  0  0  0  0  0  0
  -18.2050  -26.7700   22.2500 C   0  0  0  0  0  2  0  0  0  0  0  0
  -19.1170  -28.9040   23.3360 C   0  0  0  0  0  0  0  0  0  0  0  0
  -18.8790  -30.1710   23.9140 C   0  0  0  0  0  3  0  0  0  0  0  0
  -17.5670  -30.6580   24.0670 C   0  0  0  0  0  3  0  0  0  0  0  0
  -16.4750  -29.8770   23.6530 C   0  0  0  0  0  3  0  0  0  0  0  0
  -16.6960  -28.6120   23.0800 C   0  0  0  0  0  3  0  0  0  0  0  0
  -25.8660  -32.5840   23.8340 C   0  0  0  0  0  3  0  0  0  0  0  0
  -26.3730  -31.8270   25.1230 C   0  0  1  0  0  0  0  0  0  0  0  0
  -25.2730  -31.6010   26.1860 C   0  0  0  0  0  1  0  0  0  0  0  0
  -26.9590  -30.4440   24.7540 C   0  0  0  0  0  1  0  0  0  0  0  0
  -27.5190  -32.6280   25.7830 C   0  0  0  0  0  1  0  0  0  0  0  0
  -25.5520  -33.9850   24.1550 N   0  0  0  0  0  0  0  0  0  0  0  0
  -25.8930  -35.0380   23.3990 C   0  0  0  0  0  0  0  0  0  0  0  0
  -26.5690  -34.9300   22.3720 O   0  0  0  0  0  0  0  0  0  0  0  0
  -24.9520  -34.1430   24.9510 H   0  0  0  0  0  0  0  0  0  0  0  0
  -24.1880  -36.8510   23.0160 C   0  0  0  0  0  1  0  0  0  0  0  0
  -25.4090  -36.4300   23.8510 C   0  0  0  0  0  3  0  0  0  0  0  0
  -27.5280  -37.3010   24.7370 C   0  0  0  0  0  1  0  0  0  0  0  0
  -26.4530  -37.4750   23.7640 N   0  0  0  0  0  0  0  0  0  0  0  0
  -26.0510  -38.3990   23.8980 H   0  0  0  0  0  0  0  0  0  0  0  0
  -29.2560  -20.7750   20.7280 C   0  0  0  0  0  2  0  0  0  0  0  0
  -29.0400  -19.1560   20.2190 C   0  0  0  0  0  3  0  0  0  0  0  0
  -29.9670  -17.8070   20.7070 C   0  0  0  0  0  3  0  0  0  0  0  0
  -30.4200  -15.0780   20.3650 C   0  0  0  0  0  0  0  0  0  0  0  0
  -30.3350  -12.7390   19.3710 C   0  0  0  0  0  2  0  0  0  0  0  0
  -29.3880  -12.6850   18.1500 C   0  0  0  0  0  2  0  0  0  0  0  0
  -27.9360  -12.4340   18.5970 C   0  0  0  0  0  2  0  0  0  0  0  0
  -27.5230  -13.3310   19.7940 C   0  0  0  0  0  3  0  0  0  0  0  0
  -28.5920  -13.3530   20.9050 C   0  0  0  0  0  2  0  0  0  0  0  0
  -29.8400  -13.8100   20.2820 N   0  0  0  0  0  0  0  0  0  0  0  0
  -31.6280  -15.1530   20.1180 O   0  0  0  0  0  0  0  0  0  0  0  0
  -29.6280  -16.2600   20.5210 N   0  0  0  0  0  0  0  0  0  0  0  0
  -28.6460  -16.0490   20.6180 H   0  0  0  0  0  0  0  0  0  0  0  0
  -25.1400  -13.8460   20.5680 C   0  0  0  0  0  0  0  0  0  0  0  0
  -24.0960  -13.0430   20.9370 C   0  0  0  0  0  0  0  0  0  0  0  0
  -24.5890  -11.7030   20.8820 C   0  0  0  0  0  0  0  0  0  0  0  0
  -26.1990  -12.9950   20.3050 N   0  0  0  0  0  0  0  0  0  0  0  0
  -25.8780  -11.7000   20.5600 N   0  0  0  0  0  0  0  0  0  0  0  0
  -23.8910  -10.4240   21.0580 C   0  0  0  0  0  0  0  0  0  0  0  0
  -24.3340   -9.4610   21.9930 C   0  0  0  0  0  3  0  0  0  0  0  0
  -23.6320   -8.2480   22.1570 C   0  0  0  0  0  3  0  0  0  0  0  0
  -22.4730   -7.9870   21.3880 C   0  0  0  0  0  0  0  0  0  0  0  0
  -22.0500   -8.9380   20.4440 C   0  0  0  0  0  3  0  0  0  0  0  0
  -22.7520  -10.1430   20.2770 C   0  0  0  0  0  3  0  0  0  0  0  0
  -21.7430   -6.8260   21.4630 O   0  0  0  0  0  0  0  0  0  0  0  0
  -21.6790   -6.0890   22.6180 C   0  0  0  0  0  0  0  0  0  0  0  0
  -21.1650   -6.6270   23.8180 C   0  0  0  0  0  3  0  0  0  0  0  0
  -21.0520   -5.8140   24.9630 C   0  0  0  0  0  3  0  0  0  0  0  0
  -21.4440   -4.4630   24.9090 C   0  0  0  0  0  0  0  0  0  0  0  0
  -21.9520   -3.9240   23.7140 C   0  0  0  0  0  3  0  0  0  0  0  0
  -22.0660   -4.7340   22.5710 C   0  0  0  0  0  0  0  0  0  0  0  0
  -22.5360   -4.2050   21.4170 F   0  0  0  0  0  0  0  0  0  0  0  0
  -21.3300   -3.6800   26.0080 F   0  0  0  0  0  0  0  0  0  0  0  0
  -22.6920  -13.4870   21.2230 C   0  0  0  0  0  0  0  0  0  0  0  0
  -21.9800  -12.7590   22.0750 N   0  0  0  0  0  0  0  0  0  0  0  0
  -22.2330  -14.5160   20.7260 O   0  0  0  0  0  0  0  0  0  0  0  0
  -22.3650  -11.9280   22.4990 H   0  0  0  0  0  0  0  0  0  0  0  0
  -21.0380  -13.0370   22.3090 H   0  0  0  0  0  0  0  0  0  0  0  0
  -25.2700  -15.2220   20.4080 N   0  0  0  0  0  0  0  0  0  0  0  0
  -24.4840  -15.8520   20.5280 H   0  0  0  0  0  0  0  0  0  0  0  0
  -26.0910  -15.6850   20.0380 H   0  0  0  0  0  0  0  0  0  0  0  0
  1  4  1  0
  2  5  1  0
  2  1  2  0
  4  3  2  0
  4 50  1  0
  5  6  2  0
  6  9  1  0
  6  3  1  0
  7  8  1  0
  8  5  1  0
 10 21  2  0
 11  9  1  0
 11 16  1  0
 12 20  1  0
 12 22  1  0
 13 19  1  0
 13 15  1  0
 14 20  1  0
 15 14  1  0
 16 15  2  0
 17 11  2  0
 18 17  1  0
 18 13  2  0
 19 12  1  0
 20 10  1  0
 22 24  2  0
 23 22  1  0
 25 23  1  0
 26 35  2  0
 26 31  1  0
 27 23  1  0
 27 31  1  0
 28 27  1  0
 29 30  1  0
 29 28  1  0
 30 26  1  0
 31 32  2  0
 32 33  1  0
 34 33  2  0
 35 34  1  0
 36 10  1  0
 36 41  1  0
 36 37  1  0
 37 40  1  1
 37 38  1  0
 39 37  1  0
 41 44  1  0
 42 46  1  0
 42 41  1  0
 43 42  2  0
 46 45  1  0
 48 46  1  0
 48 49  1  0
 48 47  1  0
 51 52  2  0
 51 50  1  0
 53 61  1  0
 54 59  1  0
 55 56  1  0
 55 54  1  0
 57 56  1  0
 57 66  1  0
 57 58  1  0
 59 53  1  0
 59 58  1  0
 60 53  2  0
 61 62  1  0
 61 52  1  0
 63 64  2  0
 64 83  1  0
 65 64  1  0
 65 68  1  0
 66 67  1  0
 66 63  1  0
 67 65  2  0
 68 69  1  0
 69 70  2  0
 71 74  1  0
 71 70  1  0
 72 71  2  0
 73 72  1  0
 73 68  2  0
 74 75  1  0
 75 76  1  0
 76 77  2  0
 78 77  1  0
 78 82  1  0
 79 78  2  0
 80 75  2  0
 80 79  1  0
 81 80  1  0
 83 84  1  0
 84 87  1  0
 84 86  1  0
 85 83  2  0
 88 89  1  0
 88 63  1  0
 90 88  1  0
M  ISO  4   6 101   9 101  53 100  61 100
M  END
>  <TORSDO>  (43) 
F 20

>  <SCORE>  (43) 
-15.048

>  <name>  (43) 
42

>  <ligand_id>  (43) 
42

>  <original_smiles>  (43) 
[H]c1c([H])c([H])c2c(c1[H])C([H])([H])C([H])([H])C([H])([H])C2([H])N([H])C(=O)C1([H])N(C(=O)C([H])(N([H])C(=O)C([H])(N([H])C([H])([H])[H])C([H])([H])[H])C(C([H])([H])[H])(C([H])([H])[H])C([H])([H])[H])C([H])([H])c2c([H])c(Oc3c([H])c(C([H])([H])C([H])([H])C([H])([H])N([H])C(=O)N4C([H])([H])C([H])([H])C([H])([H])C([H])(n5nc(-c6c([H])c([H])c(Oc7c([H])c([H])c(F)c([H])c7F)c([H])c6[H])c(C(=O)N([H])[H])c5N([H])[H])C4([H])[H])c([H])c([H])c3OC([H])([H])[H])c([H])c([H])c2C1([H])[H]

>  <smiles>  (43) 
[H]c1c([H])c([H])c2c(c1[H])C([H])([H])C([H])([H])C([H])([H])C2([H])N([H])C(=O)C1([H])N(C(=O)C([H])(N([H])C(=O)C([H])(N([H])C([H])([H])[H])C([H])([H])[H])C(C([H])([H])[H])(C([H])([H])[H])C([H])([H])[H])C([H])([H])c2c([H])c(Oc3c([H])c(C([H])([H])C([H])([H])C([H])([H])N([H])C(=O)N4C([H])([H])C([H])([H])C([H])([H])C([H])(n5nc(-c6c([H])c([H])c(Oc7c([H])c([H])c(F)c([H])c7F)c([H])c6[H])c(C(=O)N([H])[H])c5N([H])[H])C4([H])[H])c([H])c([H])c3OC([H])([H])[H])c([H])c([H])c2C1([H])[H]

$$$$
43:0:0
     RDKit          3D

 88 94  0  0  1  0  0  0  0  0999 V2000
  -29.7470  -21.0360   20.6910 C   0  0  0  0  0  3  0  0  0  0  0  0
  -29.4610  -22.5810   20.7530 C   0  0  0  0  0  3  0  0  0  0  0  0
  -28.3260  -20.8540   19.1080 C   0  0  0  0  0  3  0  0  0  0  0  0
  -29.2460  -19.8670   19.8470 C   0  0  0  0  0  3  0  0  0  0  0  0
  -28.5400  -23.5660   20.0330 C   0  0  0  0  0  0  0  0  0  0  0  0
  -28.0230  -22.4100   19.1690 C   0  0  0  0  0  0  0  0  0  0  0  0
  -27.0920  -22.8120   18.2570 O   0  0  0  0  0  0  0  0  0  0  0  0
  -26.9050  -23.7420   18.3410 H   0  0  0  0  0  0  0  0  0  0  0  0
  -28.4090  -25.2670   20.1570 O   0  0  0  0  0  0  0  0  0  0  0  0
  -24.9980  -31.8050   23.2650 C   0  0  0  0  0  0  0  0  0  0  0  0
  -27.4390  -26.5660   20.1780 C   0  0  0  0  0  0  0  0  0  0  0  0
  -23.8040  -30.4670   21.5880 C   0  0  0  0  0  3  0  0  0  0  0  0
  -25.2300  -28.7840   20.1540 C   0  0  0  0  0  0  0  0  0  0  0  0
  -26.3930  -30.4980   21.5110 C   0  0  0  0  0  2  0  0  0  0  0  0
  -26.4280  -29.0560   20.8210 C   0  0  0  0  0  0  0  0  0  0  0  0
  -27.5020  -27.9840   20.7980 C   0  0  0  0  0  3  0  0  0  0  0  0
  -26.2110  -26.5710   19.4480 C   0  0  0  0  0  3  0  0  0  0  0  0
  -25.1730  -27.5700   19.4430 C   0  0  0  0  0  3  0  0  0  0  0  0
  -24.0510  -29.7850   20.2080 C   0  0  0  0  0  2  0  0  0  0  0  0
  -25.0920  -30.9610   22.1740 N   0  0  0  0  0  0  0  0  0  0  0  0
  -23.9040  -32.1220   23.7640 O   0  0  0  0  0  0  0  0  0  0  0  0
  -23.0430  -29.4980   22.5340 C   0  0  0  0  0  0  0  0  0  0  0  0
  -21.7090  -29.3690   22.3860 N   0  0  0  0  0  0  0  0  0  0  0  0
  -23.6710  -28.8550   23.3790 O   0  0  0  0  0  0  0  0  0  0  0  0
  -21.2500  -29.9370   21.6880 H   0  0  0  0  0  0  0  0  0  0  0  0
  -18.2930  -28.2040   22.8550 C   0  0  0  0  0  0  0  0  0  0  0  0
  -20.8570  -28.4290   23.1290 C   0  0  0  0  0  3  0  0  0  0  0  0
  -20.9370  -27.0100   22.5190 C   0  0  0  0  0  2  0  0  0  0  0  0
  -19.8350  -26.7330   21.4910 C   0  0  0  0  0  2  0  0  0  0  0  0
  -18.4530  -26.8770   22.1340 C   0  0  0  0  0  2  0  0  0  0  0  0
  -19.4210  -28.9410   23.3070 C   0  0  0  0  0  0  0  0  0  0  0  0
  -19.2130  -30.1820   23.9480 C   0  0  0  0  0  3  0  0  0  0  0  0
  -17.9130  -30.6870   24.1370 C   0  0  0  0  0  3  0  0  0  0  0  0
  -16.8010  -29.9490   23.6970 C   0  0  0  0  0  3  0  0  0  0  0  0
  -16.9920  -28.7080   23.0620 C   0  0  0  0  0  3  0  0  0  0  0  0
  -26.2600  -32.4260   23.9390 C   0  0  0  0  0  3  0  0  0  0  0  0
  -26.7200  -31.6380   25.2300 C   0  0  1  0  0  0  0  0  0  0  0  0
  -25.5900  -31.4130   26.2610 C   0  0  0  0  0  1  0  0  0  0  0  0
  -27.2920  -30.2520   24.8630 C   0  0  0  0  0  1  0  0  0  0  0  0
  -27.8630  -32.4080   25.9340 C   0  0  0  0  0  1  0  0  0  0  0  0
  -25.9580  -33.8270   24.3020 N   0  0  0  0  0  0  0  0  0  0  0  0
  -26.2840  -34.9060   23.5760 C   0  0  0  0  0  0  0  0  0  0  0  0
  -26.9240  -34.8260   22.5260 O   0  0  0  0  0  0  0  0  0  0  0  0
  -25.3860  -33.9630   25.1220 H   0  0  0  0  0  0  0  0  0  0  0  0
  -24.5550  -36.7300   23.3630 C   0  0  0  0  0  1  0  0  0  0  0  0
  -25.8350  -36.2930   24.0920 C   0  0  0  0  0  3  0  0  0  0  0  0
  -28.0130  -37.1610   24.8310 C   0  0  0  0  0  1  0  0  0  0  0  0
  -26.8670  -37.3430   23.9430 N   0  0  0  0  0  0  0  0  0  0  0  0
  -26.4730  -38.2630   24.1210 H   0  0  0  0  0  0  0  0  0  0  0  0
  -29.3800  -17.8730   20.0180 C   0  0  0  0  0  1  0  0  0  0  0  0
  -30.1980  -16.0760   19.5920 C   0  0  0  0  0  2  0  0  0  0  0  0
  -30.5080  -13.4160   18.8750 C   0  0  0  0  0  2  0  0  0  0  0  0
  -29.5830  -12.7870   17.7780 C   0  0  0  0  0  2  0  0  0  0  0  0
  -28.2510  -12.3000   18.3660 C   0  0  0  0  0  2  0  0  0  0  0  0
  -27.7340  -13.3110   19.4070 C   0  0  0  0  0  3  0  0  0  0  0  0
  -28.8120  -13.8160   20.4020 C   0  0  0  0  0  2  0  0  0  0  0  0
  -29.8390  -14.6040   19.6430 N   0  0  0  0  0  0  0  0  0  0  0  0
  -31.3890  -16.0120   19.2020 O   0  0  0  0  0  1  0  0  0  0  0  0
  -25.4920  -13.7220   20.5080 C   0  0  0  0  0  0  0  0  0  0  0  0
  -24.4880  -12.9060   20.9400 C   0  0  0  0  0  0  0  0  0  0  0  0
  -24.9490  -11.5700   20.7280 C   0  0  0  0  0  0  0  0  0  0  0  0
  -26.4990  -12.8930   20.0590 N   0  0  0  0  0  0  0  0  0  0  0  0
  -26.1940  -11.5800   20.2500 N   0  0  0  0  0  0  0  0  0  0  0  0
  -24.2430  -10.2930   20.8980 C   0  0  0  0  0  0  0  0  0  0  0  0
  -24.7100   -9.2990   21.7850 C   0  0  0  0  0  3  0  0  0  0  0  0
  -23.9960   -8.0920   21.9490 C   0  0  0  0  0  3  0  0  0  0  0  0
  -22.8000   -7.8700   21.2250 C   0  0  0  0  0  0  0  0  0  0  0  0
  -22.3510   -8.8540   20.3250 C   0  0  0  0  0  3  0  0  0  0  0  0
  -23.0660  -10.0510   20.1600 C   0  0  0  0  0  3  0  0  0  0  0  0
  -22.0560   -6.7180   21.2990 O   0  0  0  0  0  0  0  0  0  0  0  0
  -21.9310   -6.0150   22.4710 C   0  0  0  0  0  0  0  0  0  0  0  0
  -21.3970   -6.6030   23.6390 C   0  0  0  0  0  3  0  0  0  0  0  0
  -21.2220   -5.8260   24.8010 C   0  0  0  0  0  3  0  0  0  0  0  0
  -21.5710   -4.4630   24.7960 C   0  0  0  0  0  0  0  0  0  0  0  0
  -22.0980   -3.8750   23.6330 C   0  0  0  0  0  3  0  0  0  0  0  0
  -22.2740   -4.6480   22.4730 C   0  0  0  0  0  0  0  0  0  0  0  0
  -22.7620   -4.0710   21.3480 F   0  0  0  0  0  0  0  0  0  0  0  0
  -21.3960   -3.7130   25.9100 F   0  0  0  0  0  0  0  0  0  0  0  0
  -23.1390  -13.3500   21.4220 C   0  0  0  0  0  0  0  0  0  0  0  0
  -22.5340  -12.5980   22.3330 N   0  0  0  0  0  0  0  0  0  0  0  0
  -22.6380  -14.4030   21.0280 O   0  0  0  0  0  0  0  0  0  0  0  0
  -22.9570  -11.7460   22.6720 H   0  0  0  0  0  0  0  0  0  0  0  0
  -21.6320  -12.8770   22.6930 H   0  0  0  0  0  0  0  0  0  0  0  0
  -25.6200  -15.1010   20.4270 N   0  0  0  0  0  0  0  0  0  0  0  0
  -24.8760  -15.7290   20.7100 H   0  0  0  0  0  0  0  0  0  0  0  0
  -26.4350  -15.5840   20.0720 H   0  0  0  0  0  0  0  0  0  0  0  0
  -26.7810  -17.8050   20.0130 C   0  0  0  0  0  1  0  0  0  0  0  0
  -28.0810  -17.5240   20.7790 C   0  0  0  0  0  2  0  0  0  0  0  0
  1  2  1  0
  3  6  2  0
  3  4  1  0
  4  1  2  0
  5  9  1  0
  5  2  2  0
  6  5  1  0
  7  8  1  0
  7  6  1  0
  9 11  1  0
 10 21  2  0
 11 16  1  0
 12 20  1  0
 12 22  1  0
 13 19  1  0
 13 15  1  0
 14 20  1  0
 15 14  1  0
 16 15  2  0
 17 11  2  0
 18 17  1  0
 18 13  2  0
 19 12  1  0
 20 10  1  0
 22 24  2  0
 23 22  1  0
 25 23  1  0
 26 35  2  0
 26 31  1  0
 27 23  1  0
 27 31  1  0
 28 27  1  0
 29 30  1  0
 29 28  1  0
 30 26  1  0
 31 32  2  0
 32 33  1  0
 34 33  2  0
 35 34  1  0
 36 10  1  0
 36 41  1  0
 36 37  1  0
 37 40  1  1
 37 38  1  0
 39 37  1  0
 41 44  1  0
 42 46  1  0
 42 41  1  0
 43 42  2  0
 46 45  1  0
 48 46  1  0
 48 49  1  0
 48 47  1  0
 50 88  1  0
 51 57  1  0
 52 57  1  0
 53 54  1  0
 53 52  1  0
 55 54  1  0
 55 62  1  0
 55 56  1  0
 57 56  1  0
 58 51  1  0
 59 60  2  0
 60 79  1  0
 61 64  1  0
 61 60  1  0
 62 63  1  0
 62 59  1  0
 63 61  2  0
 64 65  1  0
 65 66  2  0
 67 70  1  0
 67 66  1  0
 68 67  2  0
 69 68  1  0
 69 64  2  0
 70 71  1  0
 71 76  2  0
 71 72  1  0
 72 73  2  0
 74 73  1  0
 74 78  1  0
 75 74  2  0
 76 75  1  0
 77 76  1  0
 79 80  1  0
 80 82  1  0
 80 83  1  0
 81 79  2  0
 84 59  1  0
 84 85  1  0
 86 84  1  0
 87 88  1  0
M  ISO  4   5 101   9 101  50 100  51 100
M  END
>  <TORSDO>  (44) 
F 19

>  <SCORE>  (44) 
-14.798

>  <name>  (44) 
43

>  <ligand_id>  (44) 
43

>  <original_smiles>  (44) 
[H]Oc1c([H])c(C([H])(C(=O)N2C([H])([H])C([H])([H])C([H])([H])C([H])(n3nc(-c4c([H])c([H])c(Oc5c([H])c([H])c(F)c([H])c5F)c([H])c4[H])c(C(=O)N([H])[H])c3N([H])[H])C2([H])[H])C([H])([H])C([H])([H])[H])c([H])c([H])c1Oc1c([H])c([H])c2c(c1[H])C([H])([H])N(C(=O)C([H])(N([H])C(=O)C([H])(N([H])C([H])([H])[H])C([H])([H])[H])C(C([H])([H])[H])(C([H])([H])[H])C([H])([H])[H])C([H])(C(=O)N([H])C1([H])c3c([H])c([H])c([H])c([H])c3C([H])([H])C([H])([H])C1([H])[H])C2([H])[H]

>  <smiles>  (44) 
[H]Oc1c([H])c(C([H])(C(=O)N2C([H])([H])C([H])([H])C([H])([H])C([H])(n3nc(-c4c([H])c([H])c(Oc5c([H])c([H])c(F)c([H])c5F)c([H])c4[H])c(C(=O)N([H])[H])c3N([H])[H])C2([H])[H])C([H])([H])C([H])([H])[H])c([H])c([H])c1Oc1c([H])c([H])c2c(c1[H])C([H])([H])N(C(=O)C([H])(N([H])C(=O)C([H])(N([H])C([H])([H])[H])C([H])([H])[H])C(C([H])([H])[H])(C([H])([H])[H])C([H])([H])[H])C([H])(C(=O)N([H])C1([H])c3c([H])c([H])c([H])c([H])c3C([H])([H])C([H])([H])C1([H])[H])C2([H])[H]

$$$$
44:0:0
     RDKit          3D

 90 98  0  0  1  0  0  0  0  0999 V2000
  -29.8470  -22.4280   19.9910 C   0  0  0  0  0  3  0  0  0  0  0  0
  -27.3860  -23.6750   19.9990 C   0  0  0  0  0  3  0  0  0  0  0  0
  -28.7900  -21.4360   19.9550 C   0  0  0  0  0  0  0  0  0  0  0  0
  -29.6930  -23.9140   20.0300 C   0  0  0  0  0  0  0  0  0  0  0  0
  -28.4380  -24.6620   20.0380 C   0  0  0  0  0  0  0  0  0  0  0  0
  -27.5440  -22.2080   19.9580 C   0  0  0  0  0  0  0  0  0  0  0  0
  -26.3780  -21.5220   19.9230 F   0  0  0  0  0  0  0  0  0  0  0  0
  -28.8190  -19.7340   19.9580 C   0  0  0  0  0  0  0  0  0  0  0  0
  -27.7080  -19.2070   20.0520 O   0  0  0  0  0  0  0  0  0  0  0  0
  -29.9880  -18.4940   19.8580 C   0  0  0  0  0  3  0  0  0  0  0  0
  -29.6880  -16.7730   20.1250 C   0  0  0  0  0  3  0  0  0  0  0  0
  -30.5730  -15.3270   19.8160 C   0  0  0  0  0  0  0  0  0  0  0  0
  -30.5420  -12.8980   18.9460 C   0  0  0  0  0  2  0  0  0  0  0  0
  -29.5410  -12.7510   17.7710 C   0  0  0  0  0  2  0  0  0  0  0  0
  -28.1150  -12.4890   18.2900 C   0  0  0  0  0  2  0  0  0  0  0  0
  -27.7410  -13.4320   19.4620 C   0  0  0  0  0  3  0  0  0  0  0  0
  -28.8570  -13.5280   20.5210 C   0  0  0  0  0  2  0  0  0  0  0  0
  -30.0680  -14.0070   19.8400 N   0  0  0  0  0  0  0  0  0  0  0  0
  -31.7510  -15.3990   19.4410 O   0  0  0  0  0  0  0  0  0  0  0  0
  -25.4320  -13.9790   20.4030 C   0  0  0  0  0  0  0  0  0  0  0  0
  -24.3920  -13.1930   20.8200 C   0  0  0  0  0  0  0  0  0  0  0  0
  -24.8460  -11.8440   20.7030 C   0  0  0  0  0  0  0  0  0  0  0  0
  -26.4470  -13.1090   20.0490 N   0  0  0  0  0  0  0  0  0  0  0  0
  -26.1110  -11.8160   20.2970 N   0  0  0  0  0  0  0  0  0  0  0  0
  -24.1260  -10.5780   20.8990 C   0  0  0  0  0  0  0  0  0  0  0  0
  -24.5500   -9.6250   21.8520 C   0  0  0  0  0  3  0  0  0  0  0  0
  -23.8270   -8.4260   22.0350 C   0  0  0  0  0  3  0  0  0  0  0  0
  -22.6670   -8.1710   21.2650 C   0  0  0  0  0  0  0  0  0  0  0  0
  -22.2630   -9.1120   20.3020 C   0  0  0  0  0  3  0  0  0  0  0  0
  -22.9850  -10.3030   20.1180 C   0  0  0  0  0  3  0  0  0  0  0  0
  -21.9180   -7.0230   21.3560 O   0  0  0  0  0  0  0  0  0  0  0  0
  -21.7710   -6.3520   22.5440 C   0  0  0  0  0  0  0  0  0  0  0  0
  -21.1770   -6.9560   23.6730 C   0  0  0  0  0  3  0  0  0  0  0  0
  -20.9820   -6.2080   24.8510 C   0  0  0  0  0  3  0  0  0  0  0  0
  -21.3720   -4.8560   24.9000 C   0  0  0  0  0  0  0  0  0  0  0  0
  -21.9580   -4.2500   23.7760 C   0  0  0  0  0  3  0  0  0  0  0  0
  -22.1540   -4.9960   22.5990 C   0  0  0  0  0  0  0  0  0  0  0  0
  -22.7010   -4.4020   21.5110 F   0  0  0  0  0  0  0  0  0  0  0  0
  -21.1770   -4.1350   26.0290 F   0  0  0  0  0  0  0  0  0  0  0  0
  -23.0230  -13.6660   21.2080 C   0  0  0  0  0  0  0  0  0  0  0  0
  -22.3530  -12.9420   22.0970 N   0  0  0  0  0  0  0  0  0  0  0  0
  -22.5560  -14.7120   20.7560 O   0  0  0  0  0  0  0  0  0  0  0  0
  -22.7440  -12.0960   22.4820 H   0  0  0  0  0  0  0  0  0  0  0  0
  -21.4360  -13.2390   22.3990 H   0  0  0  0  0  0  0  0  0  0  0  0
  -25.5910  -15.3550   20.2700 N   0  0  0  0  0  0  0  0  0  0  0  0
  -24.8430  -16.0080   20.4770 H   0  0  0  0  0  0  0  0  0  0  0  0
  -26.4240  -15.8090   19.9190 H   0  0  0  0  0  0  0  0  0  0  0  0
  -32.0960  -24.1790   20.0430 C   0  0  0  0  0  1  0  0  0  0  0  0
  -30.7930  -24.7460   20.0720 O   0  0  0  0  0  0  0  0  0  0  0  0
  -28.3720  -26.1760   20.1340 O   0  0  0  0  0  0  0  0  0  0  0  0
  -24.6390  -31.8710   23.2390 C   0  0  0  0  0  0  0  0  0  0  0  0
  -27.2820  -27.1600   20.1340 C   0  0  0  0  0  0  0  0  0  0  0  0
  -23.4780  -30.5170   21.5390 C   0  0  0  0  0  3  0  0  0  0  0  0
  -24.9570  -28.9660   20.0990 C   0  0  0  0  0  0  0  0  0  0  0  0
  -26.0370  -30.7670   21.4360 C   0  0  0  0  0  2  0  0  0  0  0  0
  -26.1250  -29.3800   20.7500 C   0  0  0  0  0  0  0  0  0  0  0  0
  -27.2810  -28.4950   20.7470 C   0  0  0  0  0  3  0  0  0  0  0  0
  -26.0880  -26.8740   19.4380 C   0  0  0  0  0  3  0  0  0  0  0  0
  -24.9560  -27.7310   19.4280 C   0  0  0  0  0  3  0  0  0  0  0  0
  -23.7290  -29.8710   20.1490 C   0  0  0  0  0  2  0  0  0  0  0  0
  -24.7380  -31.0760   22.1260 N   0  0  0  0  0  0  0  0  0  0  0  0
  -23.5420  -32.1390   23.7520 O   0  0  0  0  0  0  0  0  0  0  0  0
  -22.7790  -29.4890   22.4650 C   0  0  0  0  0  0  0  0  0  0  0  0
  -21.4500  -29.3300   22.3210 N   0  0  0  0  0  0  0  0  0  0  0  0
  -23.4370  -28.8340   23.2770 O   0  0  0  0  0  0  0  0  0  0  0  0
  -20.9740  -29.9090   21.6420 H   0  0  0  0  0  0  0  0  0  0  0  0
  -18.0490  -28.1740   22.8130 C   0  0  0  0  0  0  0  0  0  0  0  0
  -20.6180  -28.3700   23.0520 C   0  0  0  0  0  3  0  0  0  0  0  0
  -20.6790  -26.9700   22.3980 C   0  0  0  0  0  2  0  0  0  0  0  0
  -19.5550  -26.7270   21.3850 C   0  0  0  0  0  2  0  0  0  0  0  0
  -18.1880  -26.8630   22.0580 C   0  0  0  0  0  2  0  0  0  0  0  0
  -19.1900  -28.8890   23.2660 C   0  0  0  0  0  0  0  0  0  0  0  0
  -19.0050  -30.1180   23.9360 C   0  0  0  0  0  3  0  0  0  0  0  0
  -17.7120  -30.6320   24.1560 C   0  0  0  0  0  3  0  0  0  0  0  0
  -16.5870  -29.9130   23.7160 C   0  0  0  0  0  3  0  0  0  0  0  0
  -16.7560  -28.6850   23.0520 C   0  0  0  0  0  3  0  0  0  0  0  0
  -25.9000  -32.4980   23.9090 C   0  0  0  0  0  3  0  0  0  0  0  0
  -26.3540  -31.7310   25.2130 C   0  0  1  0  0  0  0  0  0  0  0  0
  -25.2150  -31.5120   26.2360 C   0  0  0  0  0  1  0  0  0  0  0  0
  -26.9400  -30.3440   24.8630 C   0  0  0  0  0  1  0  0  0  0  0  0
  -27.4850  -32.5190   25.9180 C   0  0  0  0  0  1  0  0  0  0  0  0
  -25.5920  -33.9020   24.2280 N   0  0  0  0  0  0  0  0  0  0  0  0
  -25.9240  -34.9530   23.4660 C   0  0  0  0  0  0  0  0  0  0  0  0
  -26.5880  -34.8410   22.4320 O   0  0  0  0  0  0  0  0  0  0  0  0
  -25.0010  -34.0620   25.0310 H   0  0  0  0  0  0  0  0  0  0  0  0
  -24.1830  -36.7430   23.1440 C   0  0  0  0  0  1  0  0  0  0  0  0
  -25.4480  -36.3480   23.9210 C   0  0  0  0  0  3  0  0  0  0  0  0
  -27.5960  -37.2600   24.6910 C   0  0  0  0  0  1  0  0  0  0  0  0
  -26.4760  -37.4020   23.7640 N   0  0  0  0  0  0  0  0  0  0  0  0
  -26.0700  -38.3250   23.8970 H   0  0  0  0  0  0  0  0  0  0  0  0
  1  4  1  0
  2  5  1  0
  3  8  1  0
  3  6  1  0
  3  1  2  0
  4  5  2  0
  4 49  1  0
  5 50  1  0
  6  2  2  0
  7  6  1  0
  8  9  2  0
 10  8  1  0
 10 11  2  0
 12 18  1  0
 12 11  1  0
 13 18  1  0
 14 15  1  0
 14 13  1  0
 16 15  1  0
 16 23  1  0
 16 17  1  0
 18 17  1  0
 19 12  2  0
 20 21  2  0
 21 40  1  0
 22 21  1  0
 22 25  1  0
 23 24  1  0
 23 20  1  0
 24 22  2  0
 25 26  1  0
 26 27  2  0
 28 31  1  0
 28 27  1  0
 29 28  2  0
 30 29  1  0
 30 25  2  0
 31 32  1  0
 32 37  2  0
 32 33  1  0
 33 34  2  0
 34 35  1  0
 35 39  1  0
 36 35  2  0
 37 36  1  0
 38 37  1  0
 40 41  1  0
 41 44  1  0
 41 43  1  0
 42 40  2  0
 45 20  1  0
 45 46  1  0
 47 45  1  0
 48 49  1  0
 51 62  2  0
 52 50  1  0
 52 57  1  0
 53 61  1  0
 53 63  1  0
 54 60  1  0
 54 56  1  0
 55 61  1  0
 56 55  1  0
 57 56  2  0
 58 52  2  0
 59 58  1  0
 59 54  2  0
 60 53  1  0
 61 51  1  0
 63 65  2  0
 64 63  1  0
 66 64  1  0
 67 76  2  0
 67 72  1  0
 68 64  1  0
 68 72  1  0
 69 68  1  0
 70 71  1  0
 70 69  1  0
 71 67  1  0
 72 73  2  0
 73 74  1  0
 75 74  2  0
 76 75  1  0
 77 51  1  0
 77 82  1  0
 77 78  1  0
 78 81  1  1
 78 79  1  0
 80 78  1  0
 82 85  1  0
 83 87  1  0
 83 82  1  0
 84 83  2  0
 87 86  1  0
 89 90  1  0
 89 87  1  0
 89 88  1  0
M  ISO  4   5 101  11 100  12 100  50 101
M  END
>  <TORSDO>  (45) 
F 20

>  <SCORE>  (45) 
-14.939

>  <name>  (45) 
44

>  <ligand_id>  (45) 
44

>  <original_smiles>  (45) 
[H]c1c([H])c([H])c2c(c1[H])C([H])([H])C([H])([H])C([H])([H])C2([H])N([H])C(=O)C1([H])N(C(=O)C([H])(N([H])C(=O)C([H])(N([H])C([H])([H])[H])C([H])([H])[H])C(C([H])([H])[H])(C([H])([H])[H])C([H])([H])[H])C([H])([H])c2c([H])c(Oc3c([H])c(F)c(C(=O)C([H])([H])C([H])([H])C(=O)N4C([H])([H])C([H])([H])C([H])([H])C([H])(n5nc(-c6c([H])c([H])c(Oc7c([H])c([H])c(F)c([H])c7F)c([H])c6[H])c(C(=O)N([H])[H])c5N([H])[H])C4([H])[H])c([H])c3OC([H])([H])[H])c([H])c([H])c2C1([H])[H]

>  <smiles>  (45) 
[H]c1c([H])c([H])c2c(c1[H])C([H])([H])C([H])([H])C([H])([H])C2([H])N([H])C(=O)C1([H])N(C(=O)C([H])(N([H])C(=O)C([H])(N([H])C([H])([H])[H])C([H])([H])[H])C(C([H])([H])[H])(C([H])([H])[H])C([H])([H])[H])C([H])([H])c2c([H])c(Oc3c([H])c(F)c(C(=O)C([H])([H])C([H])([H])C(=O)N4C([H])([H])C([H])([H])C([H])([H])C([H])(n5nc(-c6c([H])c([H])c(Oc7c([H])c([H])c(F)c([H])c7F)c([H])c6[H])c(C(=O)N([H])[H])c5N([H])[H])C4([H])[H])c([H])c3OC([H])([H])[H])c([H])c([H])c2C1([H])[H]

$$$$
45:0:0
     RDKit          3D

 93102  0  0  1  0  0  0  0  0999 V2000
  -28.7720  -23.0490   19.5000 C   0  0  0  0  0  3  0  0  0  0  0  0
  -28.5810  -24.4320   19.2500 C   0  0  0  0  0  3  0  0  0  0  0  0
  -28.8250  -24.8990   21.6100 C   0  0  0  0  0  3  0  0  0  0  0  0
  -29.0160  -22.5660   20.8130 C   0  0  0  0  0  0  0  0  0  0  0  0
  -28.6190  -25.3760   20.3000 C   0  0  0  0  0  0  0  0  0  0  0  0
  -29.0270  -23.5220   21.8660 C   0  0  0  0  0  0  0  0  0  0  0  0
  -29.2440  -23.1390   23.1480 F   0  0  0  0  0  0  0  0  0  0  0  0
  -29.3710  -21.1190   21.0880 C   0  0  0  0  0  0  0  0  0  0  0  0
  -30.1020  -20.7940   22.0280 O   0  0  0  0  0  0  0  0  0  0  0  0
  -28.8030  -19.9910   20.1850 C   0  0  0  0  0  2  0  0  0  0  0  0
  -30.8660  -14.5080   20.0200 C   0  0  0  0  0  0  0  0  0  0  0  0
  -30.4780  -12.3280   18.9490 C   0  0  0  0  0  2  0  0  0  0  0  0
  -29.4930  -12.5360   17.7800 C   0  0  0  0  0  2  0  0  0  0  0  0
  -28.0380  -12.4320   18.2750 C   0  0  0  0  0  2  0  0  0  0  0  0
  -27.7670  -13.2890   19.5430 C   0  0  0  0  0  3  0  0  0  0  0  0
  -28.8680  -13.0890   20.6070 C   0  0  0  0  0  2  0  0  0  0  0  0
  -30.1610  -13.3460   19.9610 N   0  0  0  0  0  0  0  0  0  0  0  0
  -32.0370  -14.5820   19.6330 O   0  0  0  0  0  0  0  0  0  0  0  0
  -29.2620  -17.7640   18.9720 C   0  0  0  0  0  2  0  0  0  0  0  0
  -29.3280  -17.7040   21.4220 C   0  0  0  0  0  2  0  0  0  0  0  0
  -30.1650  -16.5130   18.9130 C   0  0  0  0  0  2  0  0  0  0  0  0
  -30.2000  -16.4150   21.3810 C   0  0  0  0  0  2  0  0  0  0  0  0
  -29.5750  -18.6240   20.2050 C   0  0  0  0  0  3  0  0  0  0  0  0
  -30.1240  -15.6500   20.1170 N   0  0  0  0  0  0  0  0  0  0  0  0
  -25.4270  -13.9360   20.3850 C   0  0  0  0  0  0  0  0  0  0  0  0
  -24.3580  -13.1830   20.7880 C   0  0  0  0  0  0  0  0  0  0  0  0
  -24.7850  -11.8200   20.7130 C   0  0  0  0  0  0  0  0  0  0  0  0
  -26.4360  -13.0350   20.0870 N   0  0  0  0  0  0  0  0  0  0  0  0
  -26.0570  -11.7560   20.3440 N   0  0  0  0  0  0  0  0  0  0  0  0
  -24.0370  -10.5730   20.9140 C   0  0  0  0  0  0  0  0  0  0  0  0
  -24.4560   -9.6020   21.8500 C   0  0  0  0  0  3  0  0  0  0  0  0
  -23.7100   -8.4190   22.0390 C   0  0  0  0  0  3  0  0  0  0  0  0
  -22.5290   -8.1980   21.2910 C   0  0  0  0  0  0  0  0  0  0  0  0
  -22.1290   -9.1560   20.3440 C   0  0  0  0  0  3  0  0  0  0  0  0
  -22.8750  -10.3320   20.1540 C   0  0  0  0  0  3  0  0  0  0  0  0
  -21.7550   -7.0680   21.3890 O   0  0  0  0  0  0  0  0  0  0  0  0
  -21.6510   -6.3650   22.5630 C   0  0  0  0  0  0  0  0  0  0  0  0
  -21.1820   -6.9660   23.7510 C   0  0  0  0  0  3  0  0  0  0  0  0
  -21.0260   -6.1910   24.9170 C   0  0  0  0  0  3  0  0  0  0  0  0
  -21.3270   -4.8170   24.8970 C   0  0  0  0  0  0  0  0  0  0  0  0
  -21.7900   -4.2160   23.7130 C   0  0  0  0  0  3  0  0  0  0  0  0
  -21.9480   -4.9870   22.5480 C   0  0  0  0  0  0  0  0  0  0  0  0
  -22.3740   -4.3990   21.4040 F   0  0  0  0  0  0  0  0  0  0  0  0
  -21.1700   -4.0690   26.0140 F   0  0  0  0  0  0  0  0  0  0  0  0
  -22.9870  -13.6880   21.1340 C   0  0  0  0  0  0  0  0  0  0  0  0
  -22.2860  -12.9960   22.0260 N   0  0  0  0  0  0  0  0  0  0  0  0
  -22.5480  -14.7300   20.6490 O   0  0  0  0  0  0  0  0  0  0  0  0
  -22.6550  -12.1520   22.4390 H   0  0  0  0  0  0  0  0  0  0  0  0
  -21.3690  -13.3160   22.3010 H   0  0  0  0  0  0  0  0  0  0  0  0
  -25.6210  -15.3050   20.2250 N   0  0  0  0  0  0  0  0  0  0  0  0
  -24.8860  -15.9840   20.3920 H   0  0  0  0  0  0  0  0  0  0  0  0
  -26.4830  -15.7250   19.9020 H   0  0  0  0  0  0  0  0  0  0  0  0
  -28.5640  -26.7350   20.0380 O   0  0  0  0  0  0  0  0  0  0  0  0
  -24.5630  -31.7460   23.1970 C   0  0  0  0  0  0  0  0  0  0  0  0
  -27.3630  -27.4110   20.0880 C   0  0  0  0  0  0  0  0  0  0  0  0
  -23.4090  -30.3170   21.5400 C   0  0  0  0  0  3  0  0  0  0  0  0
  -24.9170  -28.8390   20.1070 C   0  0  0  0  0  0  0  0  0  0  0  0
  -25.9220  -30.7630   21.3500 C   0  0  0  0  0  2  0  0  0  0  0  0
  -26.0550  -29.3980   20.7040 C   0  0  0  0  0  0  0  0  0  0  0  0
  -27.2810  -28.6890   20.6920 C   0  0  0  0  0  3  0  0  0  0  0  0
  -26.2080  -26.8690   19.4850 C   0  0  0  0  0  3  0  0  0  0  0  0
  -24.9890  -27.5740   19.4970 C   0  0  0  0  0  3  0  0  0  0  0  0
  -23.6440  -29.6550   20.1570 C   0  0  0  0  0  2  0  0  0  0  0  0
  -24.6490  -30.9580   22.0870 N   0  0  0  0  0  0  0  0  0  0  0  0
  -23.4730  -31.9760   23.7370 O   0  0  0  0  0  0  0  0  0  0  0  0
  -22.7930  -29.2650   22.4920 C   0  0  0  0  0  0  0  0  0  0  0  0
  -21.4830  -29.0150   22.3410 N   0  0  0  0  0  0  0  0  0  0  0  0
  -23.4940  -28.6770   23.3220 O   0  0  0  0  0  0  0  0  0  0  0  0
  -20.9770  -29.5430   21.6430 H   0  0  0  0  0  0  0  0  0  0  0  0
  -18.1770  -27.6110   22.7410 C   0  0  0  0  0  0  0  0  0  0  0  0
  -20.7020  -28.0360   23.0970 C   0  0  0  0  0  3  0  0  0  0  0  0
  -20.9160  -26.6080   22.5460 C   0  0  0  0  0  2  0  0  0  0  0  0
  -19.8730  -26.2020   21.4990 C   0  0  0  0  0  2  0  0  0  0  0  0
  -18.4630  -26.2660   22.0930 C   0  0  0  0  0  2  0  0  0  0  0  0
  -19.2280  -28.4490   23.1980 C   0  0  0  0  0  0  0  0  0  0  0  0
  -18.9110  -29.7030   23.7610 C   0  0  0  0  0  3  0  0  0  0  0  0
  -17.5720  -30.1230   23.8740 C   0  0  0  0  0  3  0  0  0  0  0  0
  -16.5330  -29.2840   23.4330 C   0  0  0  0  0  3  0  0  0  0  0  0
  -16.8360  -28.0300   22.8740 C   0  0  0  0  0  3  0  0  0  0  0  0
  -25.8250  -32.4170   23.8240 C   0  0  0  0  0  3  0  0  0  0  0  0
  -25.4730  -33.8060   24.1470 N   0  0  0  0  0  0  0  0  0  0  0  0
  -25.7780  -34.8650   23.3840 C   0  0  0  0  0  0  0  0  0  0  0  0
  -26.4560  -34.7760   22.3570 O   0  0  0  0  0  0  0  0  0  0  0  0
  -24.8680  -33.9460   24.9420 H   0  0  0  0  0  0  0  0  0  0  0  0
  -23.9950  -36.6000   23.0160 C   0  0  0  0  0  1  0  0  0  0  0  0
  -25.2460  -36.2400   23.8330 C   0  0  0  0  0  3  0  0  0  0  0  0
  -27.3500  -37.1950   24.6640 C   0  0  0  0  0  1  0  0  0  0  0  0
  -26.2450  -37.3240   23.7170 N   0  0  0  0  0  0  0  0  0  0  0  0
  -25.8090  -38.2320   23.8590 H   0  0  0  0  0  0  0  0  0  0  0  0
  -26.3590  -31.6630   25.1030 C   0  0  1  0  0  0  0  0  0  0  0  0
  -25.2690  -31.3930   26.1660 C   0  0  0  0  0  1  0  0  0  0  0  0
  -26.9860  -30.3040   24.7150 C   0  0  0  0  0  1  0  0  0  0  0  0
  -27.4820  -32.4940   25.7700 C   0  0  0  0  0  1  0  0  0  0  0  0
  1  4  1  0
  2  1  2  0
  2  5  1  0
  3  6  1  0
  4  8  1  0
  4  6  2  0
  5  3  2  0
  6  7  1  0
  8  9  2  0
 10  8  1  0
 11 24  1  0
 12 17  1  0
 13 14  1  0
 13 12  1  0
 15 14  1  0
 15 28  1  0
 15 16  1  0
 17 11  1  0
 17 16  1  0
 18 11  2  0
 19 23  1  0
 21 19  1  0
 21 24  1  0
 22 20  1  0
 23 10  1  0
 23 20  1  0
 24 22  1  0
 25 26  2  0
 26 45  1  0
 27 26  1  0
 27 30  1  0
 28 29  1  0
 28 25  1  0
 29 27  2  0
 30 31  1  0
 31 32  2  0
 33 36  1  0
 33 32  1  0
 34 33  2  0
 35 34  1  0
 35 30  2  0
 36 37  1  0
 37 38  1  0
 38 39  2  0
 40 39  1  0
 40 44  1  0
 41 40  2  0
 42 37  2  0
 42 41  1  0
 43 42  1  0
 45 46  1  0
 46 49  1  0
 46 48  1  0
 47 45  2  0
 50 25  1  0
 50 51  1  0
 52 50  1  0
 53 55  1  0
 53  5  1  0
 54 65  2  0
 55 60  1  0
 56 64  1  0
 56 66  1  0
 57 63  1  0
 57 59  1  0
 58 64  1  0
 59 58  1  0
 60 59  2  0
 61 62  1  0
 61 55  2  0
 62 57  2  0
 63 56  1  0
 64 54  1  0
 66 68  2  0
 67 66  1  0
 69 67  1  0
 70 79  2  0
 70 75  1  0
 71 67  1  0
 71 75  1  0
 72 71  1  0
 73 74  1  0
 73 72  1  0
 74 70  1  0
 75 76  2  0
 76 77  1  0
 78 77  2  0
 79 78  1  0
 80 54  1  0
 80 81  1  0
 80 90  1  0
 81 84  1  0
 82 86  1  0
 82 81  1  0
 83 82  2  0
 86 85  1  0
 88 86  1  0
 88 89  1  0
 88 87  1  0
 90 93  1  1
 90 91  1  0
 92 90  1  0
M  ISO  4   5 101  11 100  24 100  53 101
M  END
>  <TORSDO>  (46) 
F 18

>  <SCORE>  (46) 
-14.400

>  <name>  (46) 
45

>  <ligand_id>  (46) 
45

>  <original_smiles>  (46) 
[H]c1c([H])c([H])c2c(c1[H])C([H])([H])C([H])([H])C([H])([H])C2([H])N([H])C(=O)C1([H])N(C(=O)C([H])(N([H])C(=O)C([H])(N([H])C([H])([H])[H])C([H])([H])[H])C(C([H])([H])[H])(C([H])([H])[H])C([H])([H])[H])C([H])([H])c2c([H])c(Oc3c([H])c([H])c(C(=O)C([H])([H])C4([H])C([H])([H])C([H])([H])N(C(=O)N5C([H])([H])C([H])([H])C([H])([H])C([H])(n6nc(-c7c([H])c([H])c(Oc8c([H])c([H])c(F)c([H])c8F)c([H])c7[H])c(C(=O)N([H])[H])c6N([H])[H])C5([H])[H])C([H])([H])C4([H])[H])c(F)c3[H])c([H])c([H])c2C1([H])[H]

>  <smiles>  (46) 
[H]c1c([H])c([H])c2c(c1[H])C([H])([H])C([H])([H])C([H])([H])C2([H])N([H])C(=O)C1([H])N(C(=O)C([H])(N([H])C(=O)C([H])(N([H])C([H])([H])[H])C([H])([H])[H])C(C([H])([H])[H])(C([H])([H])[H])C([H])([H])[H])C([H])([H])c2c([H])c(Oc3c([H])c([H])c(C(=O)C([H])([H])C4([H])C([H])([H])C([H])([H])N(C(=O)N5C([H])([H])C([H])([H])C([H])([H])C([H])(n6nc(-c7c([H])c([H])c(Oc8c([H])c([H])c(F)c([H])c8F)c([H])c7[H])c(C(=O)N([H])[H])c6N([H])[H])C5([H])[H])C([H])([H])C4([H])[H])c(F)c3[H])c([H])c([H])c2C1([H])[H]

$$$$
46:0:0
     RDKit          3D

 90 98  0  0  1  0  0  0  0  0999 V2000
  -27.6620  -22.0420   21.4380 C   0  0  0  0  0  3  0  0  0  0  0  0
  -26.8850  -23.1210   21.9060 C   0  0  0  0  0  3  0  0  0  0  0  0
  -28.8490  -23.6370   20.0530 C   0  0  0  0  0  3  0  0  0  0  0  0
  -28.6840  -22.2200   20.4900 C   0  0  0  0  0  0  0  0  0  0  0  0
  -27.0560  -24.4650   21.4720 C   0  0  0  0  0  0  0  0  0  0  0  0
  -28.0550  -24.8110   20.5120 C   0  0  0  0  0  0  0  0  0  0  0  0
  -29.4930  -20.8970   20.0460 C   0  0  0  0  0  0  0  0  0  0  0  0
  -30.3950  -21.0120   19.2120 O   0  0  0  0  0  0  0  0  0  0  0  0
  -29.2300  -19.3610   20.6030 C   0  0  0  0  0  3  0  0  0  0  0  0
  -30.1020  -17.9830   20.1630 C   0  0  0  0  0  3  0  0  0  0  0  0
  -29.7540  -16.4060   20.6470 C   0  0  0  0  0  2  0  0  0  0  0  0
  -30.6010  -15.0250   20.2840 C   0  0  0  0  0  0  0  0  0  0  0  0
  -30.5300  -12.6770   19.3270 C   0  0  0  0  0  2  0  0  0  0  0  0
  -29.5990  -12.6550   18.0890 C   0  0  0  0  0  2  0  0  0  0  0  0
  -28.1310  -12.4380   18.5070 C   0  0  0  0  0  2  0  0  0  0  0  0
  -27.7170  -13.3480   19.6930 C   0  0  0  0  0  3  0  0  0  0  0  0
  -28.7650  -13.3370   20.8250 C   0  0  0  0  0  2  0  0  0  0  0  0
  -30.0480  -13.7470   20.2430 N   0  0  0  0  0  0  0  0  0  0  0  0
  -31.7820  -15.1320   19.9330 O   0  0  0  0  0  0  0  0  0  0  0  0
  -25.3230  -13.9070   20.4130 C   0  0  0  0  0  0  0  0  0  0  0  0
  -24.2640  -13.1210   20.7830 C   0  0  0  0  0  0  0  0  0  0  0  0
  -24.7450  -11.7760   20.7650 C   0  0  0  0  0  0  0  0  0  0  0  0
  -26.3760  -13.0380   20.1830 N   0  0  0  0  0  0  0  0  0  0  0  0
  -26.0380  -11.7530   20.4620 N   0  0  0  0  0  0  0  0  0  0  0  0
  -24.0320  -10.5070   20.9610 C   0  0  0  0  0  0  0  0  0  0  0  0
  -24.4560   -9.5580   21.9170 C   0  0  0  0  0  3  0  0  0  0  0  0
  -23.7380   -8.3550   22.0990 C   0  0  0  0  0  3  0  0  0  0  0  0
  -22.5850   -8.0930   21.3220 C   0  0  0  0  0  0  0  0  0  0  0  0
  -22.1820   -9.0310   20.3540 C   0  0  0  0  0  3  0  0  0  0  0  0
  -22.9000  -10.2240   20.1720 C   0  0  0  0  0  3  0  0  0  0  0  0
  -21.8400   -6.9410   21.4110 O   0  0  0  0  0  0  0  0  0  0  0  0
  -21.7630   -6.2240   22.5780 C   0  0  0  0  0  0  0  0  0  0  0  0
  -21.2750   -6.7960   23.7740 C   0  0  0  0  0  3  0  0  0  0  0  0
  -21.1450   -6.0040   24.9320 C   0  0  0  0  0  3  0  0  0  0  0  0
  -21.4930   -4.6410   24.8940 C   0  0  0  0  0  0  0  0  0  0  0  0
  -21.9720   -4.0670   23.7040 C   0  0  0  0  0  3  0  0  0  0  0  0
  -22.1020   -4.8560   22.5470 C   0  0  0  0  0  0  0  0  0  0  0  0
  -22.5450   -4.2940   21.3970 F   0  0  0  0  0  0  0  0  0  0  0  0
  -21.3600   -3.8760   26.0040 F   0  0  0  0  0  0  0  0  0  0  0  0
  -22.8600  -13.5860   21.0410 C   0  0  0  0  0  0  0  0  0  0  0  0
  -22.1300  -12.8860   21.9020 N   0  0  0  0  0  0  0  0  0  0  0  0
  -22.4170  -14.6050   20.5130 O   0  0  0  0  0  0  0  0  0  0  0  0
  -22.4990  -12.0610   22.3530 H   0  0  0  0  0  0  0  0  0  0  0  0
  -21.1890  -13.1820   22.1160 H   0  0  0  0  0  0  0  0  0  0  0  0
  -25.4690  -15.2780   20.2270 N   0  0  0  0  0  0  0  0  0  0  0  0
  -24.6940  -15.9230   20.3410 H   0  0  0  0  0  0  0  0  0  0  0  0
  -26.3160  -15.7310   19.9080 H   0  0  0  0  0  0  0  0  0  0  0  0
  -24.9610  -25.1100   22.4470 C   0  0  0  0  0  1  0  0  0  0  0  0
  -26.2680  -25.4640   22.0030 O   0  0  0  0  0  0  0  0  0  0  0  0
  -28.2430  -26.2260   20.1290 O   0  0  0  0  0  0  0  0  0  0  0  0
  -24.5990  -31.8640   23.1700 C   0  0  0  0  0  0  0  0  0  0  0  0
  -27.2030  -27.2240   20.0800 C   0  0  0  0  0  0  0  0  0  0  0  0
  -23.4120  -30.4930   21.4970 C   0  0  0  0  0  3  0  0  0  0  0  0
  -24.8750  -28.9550   20.0480 C   0  0  0  0  0  0  0  0  0  0  0  0
  -25.9620  -30.7760   21.3520 C   0  0  0  0  0  2  0  0  0  0  0  0
  -26.0440  -29.3940   20.6830 C   0  0  0  0  0  0  0  0  0  0  0  0
  -27.2080  -28.5400   20.6930 C   0  0  0  0  0  3  0  0  0  0  0  0
  -26.0210  -26.8950   19.3830 C   0  0  0  0  0  3  0  0  0  0  0  0
  -24.8750  -27.7180   19.3820 C   0  0  0  0  0  3  0  0  0  0  0  0
  -23.6420  -29.8420   20.1080 C   0  0  0  0  0  2  0  0  0  0  0  0
  -24.6770  -31.0650   22.0620 N   0  0  0  0  0  0  0  0  0  0  0  0
  -23.5100  -32.1360   23.6980 O   0  0  0  0  0  0  0  0  0  0  0  0
  -22.7330  -29.4660   22.4370 C   0  0  0  0  0  0  0  0  0  0  0  0
  -21.4030  -29.3070   22.3140 N   0  0  0  0  0  0  0  0  0  0  0  0
  -23.4050  -28.8180   23.2440 O   0  0  0  0  0  0  0  0  0  0  0  0
  -20.9190  -29.8810   21.6360 H   0  0  0  0  0  0  0  0  0  0  0  0
  -18.0140  -28.1470   22.8420 C   0  0  0  0  0  0  0  0  0  0  0  0
  -20.5810  -28.3610   23.0720 C   0  0  0  0  0  3  0  0  0  0  0  0
  -20.6510  -26.9470   22.4500 C   0  0  0  0  0  2  0  0  0  0  0  0
  -19.5260  -26.6750   21.4460 C   0  0  0  0  0  2  0  0  0  0  0  0
  -18.1570  -26.8200   22.1170 C   0  0  0  0  0  2  0  0  0  0  0  0
  -19.1510  -28.8770   23.2770 C   0  0  0  0  0  0  0  0  0  0  0  0
  -18.9610  -30.1200   23.9200 C   0  0  0  0  0  3  0  0  0  0  0  0
  -17.6660  -30.6320   24.1280 C   0  0  0  0  0  3  0  0  0  0  0  0
  -16.5440  -29.9000   23.7040 C   0  0  0  0  0  3  0  0  0  0  0  0
  -16.7190  -28.6590   23.0680 C   0  0  0  0  0  3  0  0  0  0  0  0
  -25.8730  -32.4910   23.8160 C   0  0  0  0  0  3  0  0  0  0  0  0
  -25.5610  -33.8880   24.1590 N   0  0  0  0  0  0  0  0  0  0  0  0
  -25.9000  -34.9510   23.4180 C   0  0  0  0  0  0  0  0  0  0  0  0
  -26.5760  -34.8600   22.3900 O   0  0  0  0  0  0  0  0  0  0  0  0
  -24.9600  -34.0340   24.9570 H   0  0  0  0  0  0  0  0  0  0  0  0
  -24.1810  -36.7560   23.0720 C   0  0  0  0  0  1  0  0  0  0  0  0
  -25.4130  -36.3350   23.8900 C   0  0  0  0  0  3  0  0  0  0  0  0
  -27.5410  -37.2020   24.7580 C   0  0  0  0  0  1  0  0  0  0  0  0
  -26.4510  -37.3870   23.8040 N   0  0  0  0  0  0  0  0  0  0  0  0
  -26.0460  -38.3070   23.9560 H   0  0  0  0  0  0  0  0  0  0  0  0
  -26.3700  -31.7100   25.0940 C   0  0  1  0  0  0  0  0  0  0  0  0
  -25.2610  -31.4730   26.1450 C   0  0  0  0  0  1  0  0  0  0  0  0
  -26.9520  -30.3320   24.7050 C   0  0  0  0  0  1  0  0  0  0  0  0
  -27.5150  -32.4960   25.7780 C   0  0  0  0  0  1  0  0  0  0  0  0
  1  2  1  0
  3  4  1  0
  3  6  2  0
  4  1  2  0
  5  2  2  0
  5 49  1  0
  6  5  1  0
  7  4  1  0
  7  9  1  0
  8  7  2  0
 10  9  2  0
 10 11  1  0
 12 11  1  0
 13 18  1  0
 14 15  1  0
 14 13  1  0
 16 15  1  0
 16 23  1  0
 16 17  1  0
 18 12  1  0
 18 17  1  0
 19 12  2  0
 20 21  2  0
 21 40  1  0
 22 21  1  0
 22 25  1  0
 23 20  1  0
 23 24  1  0
 24 22  2  0
 25 26  1  0
 26 27  2  0
 28 31  1  0
 28 27  1  0
 29 28  2  0
 30 29  1  0
 30 25  2  0
 31 32  1  0
 32 33  1  0
 33 34  2  0
 35 34  1  0
 35 39  1  0
 36 35  2  0
 37 32  2  0
 37 36  1  0
 38 37  1  0
 40 41  1  0
 41 44  1  0
 41 43  1  0
 42 40  2  0
 45 46  1  0
 45 20  1  0
 47 45  1  0
 49 48  1  0
 50  6  1  0
 51 62  2  0
 52 50  1  0
 52 57  1  0
 53 61  1  0
 53 63  1  0
 54 60  1  0
 54 56  1  0
 55 61  1  0
 56 57  2  0
 56 55  1  0
 58 52  2  0
 59 58  1  0
 59 54  2  0
 60 53  1  0
 61 51  1  0
 63 65  2  0
 64 63  1  0
 66 64  1  0
 67 76  2  0
 67 72  1  0
 68 64  1  0
 68 72  1  0
 69 68  1  0
 70 71  1  0
 70 69  1  0
 71 67  1  0
 72 73  2  0
 73 74  1  0
 75 74  2  0
 76 75  1  0
 77 51  1  0
 77 78  1  0
 77 87  1  0
 78 81  1  0
 79 83  1  0
 79 78  1  0
 80 79  2  0
 83 82  1  0
 85 83  1  0
 85 86  1  0
 85 84  1  0
 87 90  1  1
 87 88  1  0
 89 87  1  0
M  ISO  4   6 101  11 100  12 100  50 101
M  END
>  <TORSDO>  (47) 
F 21

>  <SCORE>  (47) 
-13.385

>  <name>  (47) 
46

>  <ligand_id>  (47) 
46

>  <original_smiles>  (47) 
[H]c1c([H])c([H])c2c(c1[H])C([H])([H])C([H])([H])C([H])([H])C2([H])N([H])C(=O)C1([H])N(C(=O)C([H])(N([H])C(=O)C([H])(N([H])C([H])([H])[H])C([H])([H])[H])C(C([H])([H])[H])(C([H])([H])[H])C([H])([H])[H])C([H])([H])c2c([H])c(Oc3c([H])c(C(=O)C([H])([H])C([H])([H])C([H])([H])C(=O)N4C([H])([H])C([H])([H])C([H])([H])C([H])(n5nc(-c6c([H])c([H])c(Oc7c([H])c([H])c(F)c([H])c7F)c([H])c6[H])c(C(=O)N([H])[H])c5N([H])[H])C4([H])[H])c([H])c([H])c3OC([H])([H])[H])c([H])c([H])c2C1([H])[H]

>  <smiles>  (47) 
[H]c1c([H])c([H])c2c(c1[H])C([H])([H])C([H])([H])C([H])([H])C2([H])N([H])C(=O)C1([H])N(C(=O)C([H])(N([H])C(=O)C([H])(N([H])C([H])([H])[H])C([H])([H])[H])C(C([H])([H])[H])(C([H])([H])[H])C([H])([H])[H])C([H])([H])c2c([H])c(Oc3c([H])c(C(=O)C([H])([H])C([H])([H])C([H])([H])C(=O)N4C([H])([H])C([H])([H])C([H])([H])C([H])(n5nc(-c6c([H])c([H])c(Oc7c([H])c([H])c(F)c([H])c7F)c([H])c6[H])c(C(=O)N([H])[H])c5N([H])[H])C4([H])[H])c([H])c([H])c3OC([H])([H])[H])c([H])c([H])c2C1([H])[H]

$$$$
47:0:0
     RDKit          3D

 98106  0  0  1  0  0  0  0  0999 V2000
  -31.4280  -18.4110   20.3510 C   0  0  0  0  0  2  0  0  0  0  0  0
  -30.9530  -17.4260   19.2240 C   0  0  0  0  0  2  0  0  0  0  0  0
  -27.8000  -15.8580   21.4300 C   0  0  0  0  0  3  0  0  0  0  0  0
  -27.5200  -16.9610   20.5960 C   0  0  0  0  0  3  0  0  0  0  0  0
  -29.6680  -15.2820   19.9980 C   0  0  0  0  0  0  0  0  0  0  0  0
  -28.8850  -14.9870   21.1580 C   0  0  0  0  0  0  0  0  0  0  0  0
  -29.6780  -16.6420   19.5730 C   0  0  0  0  0  0  0  0  0  0  0  0
  -28.4770  -17.3630   19.6440 C   0  0  0  0  0  0  0  0  0  0  0  0
  -30.2090  -14.2230   19.0490 C   0  0  0  0  0  0  0  0  0  0  0  0
  -29.7050  -12.1270   17.7930 C   0  0  0  0  0  2  0  0  0  0  0  0
  -28.4830  -12.3340   16.8790 C   0  0  0  0  0  2  0  0  0  0  0  0
  -27.1550  -12.1030   17.6410 C   0  0  0  0  0  2  0  0  0  0  0  0
  -27.1190  -12.8480   19.0030 C   0  0  0  0  0  3  0  0  0  0  0  0
  -28.4170  -12.5700   19.7840 C   0  0  0  0  0  2  0  0  0  0  0  0
  -29.5600  -13.0170   18.9600 N   0  0  0  0  0  0  0  0  0  0  0  0
  -31.1220  -14.5260   18.2680 O   0  0  0  0  0  0  0  0  0  0  0  0
  -24.9340  -13.2960   20.2990 C   0  0  0  0  0  0  0  0  0  0  0  0
  -24.0110  -12.4610   20.8590 C   0  0  0  0  0  0  0  0  0  0  0  0
  -24.4790  -11.1370   20.5980 C   0  0  0  0  0  0  0  0  0  0  0  0
  -25.9300  -12.4870   19.7760 N   0  0  0  0  0  0  0  0  0  0  0  0
  -25.6600  -11.1740   19.9940 N   0  0  0  0  0  0  0  0  0  0  0  0
  -23.8410   -9.8370   20.8550 C   0  0  0  0  0  0  0  0  0  0  0  0
  -24.3720   -8.9100   21.7810 C   0  0  0  0  0  3  0  0  0  0  0  0
  -23.7190   -7.6800   22.0170 C   0  0  0  0  0  3  0  0  0  0  0  0
  -22.5240   -7.3600   21.3300 C   0  0  0  0  0  0  0  0  0  0  0  0
  -22.0120   -8.2770   20.3910 C   0  0  0  0  0  3  0  0  0  0  0  0
  -22.6700   -9.4950   20.1510 C   0  0  0  0  0  3  0  0  0  0  0  0
  -21.8440   -6.1750   21.4850 O   0  0  0  0  0  0  0  0  0  0  0  0
  -21.7170   -5.5700   22.7140 C   0  0  0  0  0  0  0  0  0  0  0  0
  -21.1630   -6.2460   23.8220 C   0  0  0  0  0  3  0  0  0  0  0  0
  -20.9860   -5.5700   25.0460 C   0  0  0  0  0  3  0  0  0  0  0  0
  -21.3540   -4.2200   25.1660 C   0  0  0  0  0  0  0  0  0  0  0  0
  -21.8950   -3.5350   24.0640 C   0  0  0  0  0  3  0  0  0  0  0  0
  -22.0750   -4.2080   22.8390 C   0  0  0  0  0  0  0  0  0  0  0  0
  -22.5940   -3.5450   21.7760 F   0  0  0  0  0  0  0  0  0  0  0  0
  -21.1630   -3.5690   26.3370 F   0  0  0  0  0  0  0  0  0  0  0  0
  -22.7350  -12.8640   21.5350 C   0  0  0  0  0  0  0  0  0  0  0  0
  -22.2870  -12.0880   22.5110 N   0  0  0  0  0  0  0  0  0  0  0  0
  -22.1530  -13.9060   21.2260 O   0  0  0  0  0  0  0  0  0  0  0  0
  -22.7860  -11.2470   22.7600 H   0  0  0  0  0  0  0  0  0  0  0  0
  -21.4390  -12.3160   23.0130 H   0  0  0  0  0  0  0  0  0  0  0  0
  -24.9840  -14.6690   20.1910 N   0  0  0  0  0  0  0  0  0  0  0  0
  -25.8580  -15.1840   20.2280 H   0  0  0  0  0  0  0  0  0  0  0  0
  -24.1710  -15.2120   20.4590 H   0  0  0  0  0  0  0  0  0  0  0  0
  -30.5540  -13.1140   21.9950 C   0  0  0  0  0  1  0  0  0  0  0  0
  -28.1200  -12.7960   22.3720 C   0  0  0  0  0  1  0  0  0  0  0  0
  -29.2200  -13.8590   22.1690 C   0  0  0  0  0  3  0  0  0  0  0  0
  -27.1130  -18.7730   18.2520 C   0  0  0  0  0  1  0  0  0  0  0  0
  -28.3630  -18.4740   18.8420 O   0  0  0  0  0  0  0  0  0  0  0  0
  -30.4340  -19.3800   21.0760 C   0  0  0  0  0  2  0  0  0  0  0  0
  -29.5390  -20.3020   20.2080 C   0  0  0  0  0  2  0  0  0  0  0  0
  -29.0150  -21.6250   20.8370 C   0  0  0  0  0  2  0  0  0  0  0  0
  -29.3690  -22.8310   20.0430 N   0  0  0  0  0  4  0  0  0  0  0  0
  -29.1900  -22.6310   19.0710 H   0  0  0  0  0  0  0  0  0  0  0  0
  -30.3610  -22.9790   20.1430 H   0  0  0  0  0  0  0  0  0  0  0  0
  -28.6390  -24.0860   20.4020 C   0  0  0  0  0  2  0  0  0  0  0  0
  -28.9980  -25.2550   19.4530 C   0  0  0  0  0  2  0  0  0  0  0  0
  -28.8180  -26.5560   20.0320 O   0  0  0  0  0  0  0  0  0  0  0  0
  -24.7450  -31.5370   23.0480 C   0  0  0  0  0  0  0  0  0  0  0  0
  -27.6030  -27.2090   19.9820 C   0  0  0  0  0  0  0  0  0  0  0  0
  -23.6280  -30.1410   21.3370 C   0  0  0  0  0  3  0  0  0  0  0  0
  -25.1670  -28.6620   19.9370 C   0  0  0  0  0  0  0  0  0  0  0  0
  -26.1540  -30.5580   21.2340 C   0  0  0  0  0  2  0  0  0  0  0  0
  -26.2940  -29.2010   20.5730 C   0  0  0  0  0  0  0  0  0  0  0  0
  -27.5090  -28.4850   20.5850 C   0  0  0  0  0  3  0  0  0  0  0  0
  -26.4520  -26.6810   19.3490 C   0  0  0  0  0  3  0  0  0  0  0  0
  -25.2390  -27.3980   19.3320 C   0  0  0  0  0  3  0  0  0  0  0  0
  -23.9020  -29.4910   19.9550 C   0  0  0  0  0  2  0  0  0  0  0  0
  -24.8580  -30.7650   21.9300 N   0  0  0  0  0  0  0  0  0  0  0  0
  -23.6390  -31.7760   23.5520 O   0  0  0  0  0  0  0  0  0  0  0  0
  -22.9670  -29.0850   22.2500 C   0  0  0  0  0  0  0  0  0  0  0  0
  -21.6390  -28.9330   22.1250 N   0  0  0  0  0  0  0  0  0  0  0  0
  -23.6430  -28.4130   23.0310 O   0  0  0  0  0  0  0  0  0  0  0  0
  -21.1540  -29.5270   21.4660 H   0  0  0  0  0  0  0  0  0  0  0  0
  -18.2370  -27.8300   22.6450 C   0  0  0  0  0  0  0  0  0  0  0  0
  -20.8110  -27.9710   22.8500 C   0  0  0  0  0  3  0  0  0  0  0  0
  -20.8370  -26.5800   22.1710 C   0  0  0  0  0  2  0  0  0  0  0  0
  -19.6940  -26.3750   21.1740 C   0  0  0  0  0  2  0  0  0  0  0  0
  -18.3380  -26.5260   21.8700 C   0  0  0  0  0  2  0  0  0  0  0  0
  -19.3980  -28.5170   23.0900 C   0  0  0  0  0  0  0  0  0  0  0  0
  -19.2470  -29.7430   23.7730 C   0  0  0  0  0  3  0  0  0  0  0  0
  -17.9690  -30.2810   24.0130 C   0  0  0  0  0  3  0  0  0  0  0  0
  -16.8230  -29.5900   23.5840 C   0  0  0  0  0  3  0  0  0  0  0  0
  -16.9580  -28.3650   22.9060 C   0  0  0  0  0  3  0  0  0  0  0  0
  -25.9940  -32.1790   23.7260 C   0  0  0  0  0  3  0  0  0  0  0  0
  -26.4900  -31.3820   24.9930 C   0  0  1  0  0  0  0  0  0  0  0  0
  -25.3710  -31.0750   26.0140 C   0  0  0  0  0  1  0  0  0  0  0  0
  -27.1360  -30.0420   24.5740 C   0  0  0  0  0  1  0  0  0  0  0  0
  -27.5900  -32.1910   25.7210 C   0  0  0  0  0  1  0  0  0  0  0  0
  -25.6410  -33.5580   24.0880 N   0  0  0  0  0  0  0  0  0  0  0  0
  -25.9640  -34.6410   23.3660 C   0  0  0  0  0  0  0  0  0  0  0  0
  -26.6670  -34.5860   22.3520 O   0  0  0  0  0  0  0  0  0  0  0  0
  -25.0170  -33.6720   24.8740 H   0  0  0  0  0  0  0  0  0  0  0  0
  -24.1980  -36.3950   23.0070 C   0  0  0  0  0  1  0  0  0  0  0  0
  -25.4240  -36.0030   23.8480 C   0  0  0  0  0  3  0  0  0  0  0  0
  -27.5080  -36.9160   24.7700 C   0  0  0  0  0  1  0  0  0  0  0  0
  -26.4320  -37.0850   23.7960 N   0  0  0  0  0  0  0  0  0  0  0  0
  -25.9960  -37.9890   23.9540 H   0  0  0  0  0  0  0  0  0  0  0  0
  1 50  1  0
  2  7  1  0
  2  1  1  0
  4  3  2  0
  5  6  2  0
  6  3  1  0
  6 47  1  0
  7  8  2  0
  7  5  1  0
  8  4  1  0
  9  5  1  0
 10 15  1  0
 11 12  1  0
 11 10  1  0
 13 12  1  0
 13 20  1  0
 13 14  1  0
 15  9  1  0
 15 14  1  0
 16  9  2  0
 17 18  2  0
 18 37  1  0
 19 22  1  0
 19 18  1  0
 20 21  1  0
 20 17  1  0
 21 19  2  0
 22 23  1  0
 23 24  2  0
 25 28  1  0
 25 24  1  0
 26 25  2  0
 27 26  1  0
 27 22  2  0
 28 29  1  0
 29 34  2  0
 29 30  1  0
 30 31  2  0
 31 32  1  0
 32 36  1  0
 33 32  2  0
 34 33  1  0
 35 34  1  0
 37 38  1  0
 38 40  1  0
 38 41  1  0
 39 37  2  0
 42 43  1  0
 42 17  1  0
 42 44  1  0
 45 47  1  0
 47 46  1  0
 48 49  1  0
 49  8  1  0
 51 52  1  0
 51 50  1  0
 53 55  1  0
 53 56  1  0
 53 52  1  0
 54 53  1  0
 57 58  1  0
 57 56  1  0
 59 70  2  0
 60 58  1  0
 60 65  1  0
 61 69  1  0
 61 71  1  0
 62 68  1  0
 62 64  1  0
 63 69  1  0
 64 65  2  0
 64 63  1  0
 66 60  2  0
 67 66  1  0
 67 62  2  0
 68 61  1  0
 69 59  1  0
 71 73  2  0
 72 71  1  0
 74 72  1  0
 75 84  2  0
 75 80  1  0
 76 72  1  0
 76 80  1  0
 77 76  1  0
 78 79  1  0
 78 77  1  0
 79 75  1  0
 80 81  2  0
 81 82  1  0
 83 82  2  0
 84 83  1  0
 85 59  1  0
 85 90  1  0
 85 86  1  0
 86 89  1  1
 86 87  1  0
 88 86  1  0
 90 93  1  0
 91 95  1  0
 91 90  1  0
 92 91  2  0
 95 94  1  0
 97 95  1  0
 97 98  1  0
 97 96  1  0
M  ISO  4   5 100   9 100  57 101  58 101
M  END
>  <TORSDO>  (48) 
F 26

>  <SCORE>  (48) 
-5.587

>  <name>  (48) 
47

>  <ligand_id>  (48) 
47

>  <original_smiles>  (48) 
[H]c1c([H])c([H])c2c(c1[H])C([H])([H])C([H])([H])C([H])([H])C2([H])N([H])C(=O)C1([H])N(C(=O)C([H])(N([H])C(=O)C([H])(N([H])C([H])([H])[H])C([H])([H])[H])C(C([H])([H])[H])(C([H])([H])[H])C([H])([H])[H])C([H])([H])c2c([H])c(OC([H])([H])C([H])([H])[N+]([H])([H])C([H])([H])C([H])([H])C([H])([H])C([H])([H])C([H])([H])c3c(OC([H])([H])[H])c([H])c([H])c(C([H])(C([H])([H])[H])C([H])([H])[H])c3C(=O)N3C([H])([H])C([H])([H])C([H])([H])C([H])(n4nc(-c5c([H])c([H])c(Oc6c([H])c([H])c(F)c([H])c6F)c([H])c5[H])c(C(=O)N([H])[H])c4N([H])[H])C3([H])[H])c([H])c([H])c2C1([H])[H]

>  <smiles>  (48) 
[H]c1c([H])c([H])c2c(c1[H])C([H])([H])C([H])([H])C([H])([H])C2([H])N([H])C(=O)C1([H])N(C(=O)C([H])(N([H])C(=O)C([H])(N([H])C([H])([H])[H])C([H])([H])[H])C(C([H])([H])[H])(C([H])([H])[H])C([H])([H])[H])C([H])([H])c2c([H])c(OC([H])([H])C([H])([H])[N+]([H])([H])C([H])([H])C([H])([H])C([H])([H])C([H])([H])C([H])([H])c3c(OC([H])([H])[H])c([H])c([H])c(C([H])(C([H])([H])[H])C([H])([H])[H])c3C(=O)N3C([H])([H])C([H])([H])C([H])([H])C([H])(n4nc(-c5c([H])c([H])c(Oc6c([H])c([H])c(F)c([H])c6F)c([H])c5[H])c(C(=O)N([H])[H])c4N([H])[H])C3([H])[H])c([H])c([H])c2C1([H])[H]

$$$$
48:0:0
     RDKit          3D

 87 93  0  0  1  0  0  0  0  0999 V2000
  -27.8250  -20.8080   20.2160 C   0  0  0  0  0  3  0  0  0  0  0  0
  -27.5240  -22.3550   20.2210 C   0  0  0  0  0  3  0  0  0  0  0  0
  -29.6200  -22.7070   20.4050 C   0  0  0  0  0  3  0  0  0  0  0  0
  -29.0630  -19.8980   20.2850 C   0  0  0  0  0  3  0  0  0  0  0  0
  -29.9360  -21.1510   20.3900 C   0  0  0  0  0  0  0  0  0  0  0  0
  -28.3790  -23.6130   20.3170 C   0  0  0  0  0  0  0  0  0  0  0  0
  -31.4140  -20.8370   20.5040 C   0  0  0  0  0  1  0  0  0  0  0  0
  -28.2240  -25.3160   20.3360 O   0  0  0  0  0  0  0  0  0  0  0  0
  -24.6900  -31.8970   23.2230 C   0  0  0  0  0  0  0  0  0  0  0  0
  -27.2310  -26.6000   20.3150 C   0  0  0  0  0  0  0  0  0  0  0  0
  -23.5210  -30.4740   21.6010 C   0  0  0  0  0  3  0  0  0  0  0  0
  -24.9760  -28.7680   20.2260 C   0  0  0  0  0  0  0  0  0  0  0  0
  -26.1080  -30.5570   21.5110 C   0  0  0  0  0  2  0  0  0  0  0  0
  -26.1730  -29.0920   20.8760 C   0  0  0  0  0  0  0  0  0  0  0  0
  -27.2690  -28.0410   20.8840 C   0  0  0  0  0  3  0  0  0  0  0  0
  -25.9990  -26.5510   19.5990 C   0  0  0  0  0  3  0  0  0  0  0  0
  -24.9420  -27.5290   19.5620 C   0  0  0  0  0  3  0  0  0  0  0  0
  -23.7780  -29.7460   20.2470 C   0  0  0  0  0  2  0  0  0  0  0  0
  -24.8010  -31.0160   22.1640 N   0  0  0  0  0  0  0  0  0  0  0  0
  -23.5900  -32.2090   23.7140 O   0  0  0  0  0  0  0  0  0  0  0  0
  -22.7840  -29.5220   22.5850 C   0  0  0  0  0  0  0  0  0  0  0  0
  -21.4500  -29.3680   22.4550 N   0  0  0  0  0  0  0  0  0  0  0  0
  -23.4280  -28.9170   23.4450 O   0  0  0  0  0  0  0  0  0  0  0  0
  -20.9770  -29.9050   21.7410 H   0  0  0  0  0  0  0  0  0  0  0  0
  -18.0620  -28.1410   22.9670 C   0  0  0  0  0  0  0  0  0  0  0  0
  -20.6190  -28.4390   23.2350 C   0  0  0  0  0  3  0  0  0  0  0  0
  -20.7360  -26.9980   22.6840 C   0  0  0  0  0  2  0  0  0  0  0  0
  -19.6430  -26.6540   21.6680 C   0  0  0  0  0  2  0  0  0  0  0  0
  -18.2570  -26.7890   22.3020 C   0  0  0  0  0  2  0  0  0  0  0  0
  -19.1700  -28.9240   23.3900 C   0  0  0  0  0  0  0  0  0  0  0  0
  -18.9300  -30.1840   23.9800 C   0  0  0  0  0  3  0  0  0  0  0  0
  -17.6170  -30.6660   24.1420 C   0  0  0  0  0  3  0  0  0  0  0  0
  -16.5240  -29.8830   23.7300 C   0  0  0  0  0  3  0  0  0  0  0  0
  -16.7480  -28.6210   23.1520 C   0  0  0  0  0  3  0  0  0  0  0  0
  -25.9380  -32.5720   23.8720 C   0  0  0  0  0  3  0  0  0  0  0  0
  -25.6000  -33.9750   24.1980 N   0  0  0  0  0  0  0  0  0  0  0  0
  -25.9260  -35.0440   23.4570 C   0  0  0  0  0  0  0  0  0  0  0  0
  -26.5930  -34.9500   22.4250 O   0  0  0  0  0  0  0  0  0  0  0  0
  -25.0010  -34.1200   24.9970 H   0  0  0  0  0  0  0  0  0  0  0  0
  -24.1880  -36.8440   23.1370 C   0  0  0  0  0  1  0  0  0  0  0  0
  -25.4410  -36.4330   23.9290 C   0  0  0  0  0  3  0  0  0  0  0  0
  -27.5760  -37.3360   24.7490 C   0  0  0  0  0  1  0  0  0  0  0  0
  -26.4710  -37.4920   23.8060 N   0  0  0  0  0  0  0  0  0  0  0  0
  -26.0630  -38.4120   23.9450 H   0  0  0  0  0  0  0  0  0  0  0  0
  -26.4270  -31.8320   25.1810 C   0  0  1  0  0  0  0  0  0  0  0  0
  -25.3100  -31.6120   26.2300 C   0  0  0  0  0  1  0  0  0  0  0  0
  -27.0240  -30.4480   24.8440 C   0  0  0  0  0  1  0  0  0  0  0  0
  -27.5610  -32.6440   25.8490 C   0  0  0  0  0  1  0  0  0  0  0  0
  -29.2040  -17.8940   20.1790 C   0  0  0  0  0  1  0  0  0  0  0  0
  -30.2000  -16.1500   20.2700 C   0  0  0  0  0  2  0  0  0  0  0  0
  -30.5240  -13.5050   19.5460 C   0  0  0  0  0  2  0  0  0  0  0  0
  -29.6940  -12.9300   18.3470 C   0  0  0  0  0  2  0  0  0  0  0  0
  -28.2950  -12.4760   18.7880 C   0  0  0  0  0  2  0  0  0  0  0  0
  -27.6970  -13.4870   19.7850 C   0  0  0  0  0  3  0  0  0  0  0  0
  -28.6790  -13.9480   20.8940 C   0  0  0  0  0  2  0  0  0  0  0  0
  -29.8080  -14.6920   20.2530 N   0  0  0  0  0  0  0  0  0  0  0  0
  -31.4480  -16.0870   20.1510 O   0  0  0  0  0  1  0  0  0  0  0  0
  -25.3230  -13.9400   20.5440 C   0  0  0  0  0  0  0  0  0  0  0  0
  -24.2740  -13.1430   20.8890 C   0  0  0  0  0  0  0  0  0  0  0  0
  -24.7710  -11.8040   20.8530 C   0  0  0  0  0  0  0  0  0  0  0  0
  -26.3880  -13.0990   20.2990 N   0  0  0  0  0  0  0  0  0  0  0  0
  -26.0690  -11.8010   20.5540 N   0  0  0  0  0  0  0  0  0  0  0  0
  -24.0600  -10.5310   21.0320 C   0  0  0  0  0  0  0  0  0  0  0  0
  -24.4780   -9.5780   21.9870 C   0  0  0  0  0  3  0  0  0  0  0  0
  -23.7610   -8.3730   22.1550 C   0  0  0  0  0  3  0  0  0  0  0  0
  -22.6120   -8.1140   21.3700 C   0  0  0  0  0  0  0  0  0  0  0  0
  -22.2130   -9.0580   20.4070 C   0  0  0  0  0  3  0  0  0  0  0  0
  -22.9300  -10.2550   20.2370 C   0  0  0  0  0  3  0  0  0  0  0  0
  -21.8680   -6.9600   21.4470 O   0  0  0  0  0  0  0  0  0  0  0  0
  -21.7730   -6.2410   22.6110 C   0  0  0  0  0  0  0  0  0  0  0  0
  -21.2430   -6.8030   23.7920 C   0  0  0  0  0  3  0  0  0  0  0  0
  -21.1000   -6.0070   24.9470 C   0  0  0  0  0  3  0  0  0  0  0  0
  -21.4770   -4.6500   24.9200 C   0  0  0  0  0  0  0  0  0  0  0  0
  -22.0000   -4.0880   23.7420 C   0  0  0  0  0  3  0  0  0  0  0  0
  -22.1460   -4.8810   22.5900 C   0  0  0  0  0  0  0  0  0  0  0  0
  -22.6310   -4.3280   21.4520 F   0  0  0  0  0  0  0  0  0  0  0  0
  -21.3310   -3.8840   26.0270 F   0  0  0  0  0  0  0  0  0  0  0  0
  -22.8650  -13.5990   21.1320 C   0  0  0  0  0  0  0  0  0  0  0  0
  -22.1320  -12.9020   21.9910 N   0  0  0  0  0  0  0  0  0  0  0  0
  -22.4250  -14.6170   20.5960 O   0  0  0  0  0  0  0  0  0  0  0  0
  -22.5040  -12.0880   22.4550 H   0  0  0  0  0  0  0  0  0  0  0  0
  -21.1860  -13.1950   22.1900 H   0  0  0  0  0  0  0  0  0  0  0  0
  -25.4550  -15.3100   20.3800 N   0  0  0  0  0  0  0  0  0  0  0  0
  -24.6680  -15.9450   20.4670 H   0  0  0  0  0  0  0  0  0  0  0  0
  -26.2900  -15.7550   20.0260 H   0  0  0  0  0  0  0  0  0  0  0  0
  -26.8860  -17.7820   18.9450 C   0  0  0  0  0  1  0  0  0  0  0  0
  -28.4120  -17.6140   18.8670 C   0  0  0  0  0  2  0  0  0  0  0  0
  1  2  2  0
  1  4  1  0
  2  6  1  0
  4  5  2  0
  5  3  1  0
  5  7  1  0
  6  8  1  0
  6  3  2  0
  9 20  2  0
 10  8  1  0
 10 15  1  0
 11 19  1  0
 11 21  1  0
 12 18  1  0
 12 14  1  0
 13 19  1  0
 14 15  2  0
 14 13  1  0
 16 10  2  0
 17 16  1  0
 17 12  2  0
 18 11  1  0
 19  9  1  0
 21 23  2  0
 22 21  1  0
 24 22  1  0
 25 34  2  0
 25 30  1  0
 26 22  1  0
 26 30  1  0
 27 26  1  0
 28 29  1  0
 28 27  1  0
 29 25  1  0
 30 31  2  0
 31 32  1  0
 33 32  2  0
 34 33  1  0
 35  9  1  0
 35 36  1  0
 35 45  1  0
 36 39  1  0
 37 41  1  0
 37 36  1  0
 38 37  2  0
 41 40  1  0
 43 41  1  0
 43 44  1  0
 43 42  1  0
 45 48  1  1
 45 46  1  0
 47 45  1  0
 51 56  1  0
 52 53  1  0
 52 51  1  0
 54 53  1  0
 54 61  1  0
 54 55  1  0
 56 50  1  0
 56 55  1  0
 57 50  1  0
 58 59  2  0
 59 78  1  0
 60 59  1  0
 60 63  1  0
 61 58  1  0
 61 62  1  0
 62 60  2  0
 63 64  1  0
 64 65  2  0
 66 69  1  0
 66 65  1  0
 67 66  2  0
 68 67  1  0
 68 63  2  0
 69 70  1  0
 70 71  1  0
 71 72  2  0
 73 72  1  0
 73 77  1  0
 74 73  2  0
 75 70  2  0
 75 74  1  0
 76 75  1  0
 78 79  1  0
 79 82  1  0
 79 81  1  0
 80 78  2  0
 83 84  1  0
 83 58  1  0
 85 83  1  0
 87 86  1  0
 87 49  1  0
M  ISO  4   6 101   8 101  49 100  50 100
M  END
>  <TORSDO>  (49) 
F 18

>  <SCORE>  (49) 
-16.114

>  <name>  (49) 
48

>  <ligand_id>  (49) 
48

>  <original_smiles>  (49) 
[H]c1c([H])c([H])c2c(c1[H])C([H])([H])C([H])([H])C([H])([H])C2([H])N([H])C(=O)C1([H])N(C(=O)C([H])(N([H])C(=O)C([H])(N([H])C([H])([H])[H])C([H])([H])[H])C(C([H])([H])[H])(C([H])([H])[H])C([H])([H])[H])C([H])([H])c2c([H])c(Oc3c([H])c([H])c(C([H])(C(=O)N4C([H])([H])C([H])([H])C([H])([H])C([H])(n5nc(-c6c([H])c([H])c(Oc7c([H])c([H])c(F)c([H])c7F)c([H])c6[H])c(C(=O)N([H])[H])c5N([H])[H])C4([H])[H])C([H])([H])C([H])([H])[H])c(C([H])([H])[H])c3[H])c([H])c([H])c2C1([H])[H]

>  <smiles>  (49) 
[H]c1c([H])c([H])c2c(c1[H])C([H])([H])C([H])([H])C([H])([H])C2([H])N([H])C(=O)C1([H])N(C(=O)C([H])(N([H])C(=O)C([H])(N([H])C([H])([H])[H])C([H])([H])[H])C(C([H])([H])[H])(C([H])([H])[H])C([H])([H])[H])C([H])([H])c2c([H])c(Oc3c([H])c([H])c(C([H])(C(=O)N4C([H])([H])C([H])([H])C([H])([H])C([H])(n5nc(-c6c([H])c([H])c(Oc7c([H])c([H])c(F)c([H])c7F)c([H])c6[H])c(C(=O)N([H])[H])c5N([H])[H])C4([H])[H])C([H])([H])C([H])([H])[H])c(C([H])([H])[H])c3[H])c([H])c([H])c2C1([H])[H]

$$$$
49:0:0
     RDKit          3D

 89 97  0  0  1  0  0  0  0  0999 V2000
  -28.1640  -19.0840   20.1420 C   0  0  0  0  0  3  0  0  0  0  0  0
  -27.2170  -20.1220   20.0070 C   0  0  0  0  0  3  0  0  0  0  0  0
  -29.8660  -20.8070   20.0840 C   0  0  0  0  0  3  0  0  0  0  0  0
  -29.5390  -19.3540   20.2070 C   0  0  0  0  0  0  0  0  0  0  0  0
  -27.5510  -21.5000   19.9220 C   0  0  0  0  0  0  0  0  0  0  0  0
  -28.9090  -21.9450   19.9220 C   0  0  0  0  0  0  0  0  0  0  0  0
  -26.3740  -22.4550   19.8720 C   0  0  0  0  0  1  0  0  0  0  0  0
  -29.3020  -23.5710   19.8050 C   0  0  0  0  0  3  0  0  0  0  0  0
  -28.2760  -24.9210   19.6210 C   0  0  0  0  0  3  0  0  0  0  0  0
  -28.5660  -26.4570   19.7680 O   0  0  0  0  0  0  0  0  0  0  0  0
  -24.7520  -31.7420   23.2620 C   0  0  0  0  0  0  0  0  0  0  0  0
  -27.4960  -27.4330   19.7930 C   0  0  0  0  0  0  0  0  0  0  0  0
  -23.6240  -30.5060   21.4560 C   0  0  0  0  0  3  0  0  0  0  0  0
  -25.1360  -29.1400   19.8950 C   0  0  0  0  0  0  0  0  0  0  0  0
  -26.1760  -30.8410   21.3820 C   0  0  0  0  0  2  0  0  0  0  0  0
  -26.2950  -29.5340   20.5770 C   0  0  0  0  0  0  0  0  0  0  0  0
  -27.4780  -28.7040   20.5040 C   0  0  0  0  0  3  0  0  0  0  0  0
  -26.3080  -27.1500   19.0810 C   0  0  0  0  0  3  0  0  0  0  0  0
  -25.1570  -27.9660   19.1300 C   0  0  0  0  0  3  0  0  0  0  0  0
  -23.8890  -30.0060   20.0140 C   0  0  0  0  0  2  0  0  0  0  0  0
  -24.8700  -31.0440   22.0920 N   0  0  0  0  0  0  0  0  0  0  0  0
  -23.6470  -31.9420   23.7890 O   0  0  0  0  0  0  0  0  0  0  0  0
  -22.9520  -29.3800   22.2760 C   0  0  0  0  0  0  0  0  0  0  0  0
  -21.6250  -29.2210   22.1270 N   0  0  0  0  0  0  0  0  0  0  0  0
  -23.6260  -28.6600   23.0170 O   0  0  0  0  0  0  0  0  0  0  0  0
  -21.1360  -29.8680   21.5230 H   0  0  0  0  0  0  0  0  0  0  0  0
  -18.2340  -28.0040   22.5190 C   0  0  0  0  0  0  0  0  0  0  0  0
  -20.8000  -28.1900   22.7660 C   0  0  0  0  0  3  0  0  0  0  0  0
  -20.8640  -26.8580   21.9810 C   0  0  0  0  0  2  0  0  0  0  0  0
  -19.7420  -26.7100   20.9510 C   0  0  0  0  0  2  0  0  0  0  0  0
  -18.3770  -26.7690   21.6440 C   0  0  0  0  0  2  0  0  0  0  0  0
  -19.3710  -28.6850   23.0310 C   0  0  0  0  0  0  0  0  0  0  0  0
  -19.1780  -29.8520   23.8020 C   0  0  0  0  0  3  0  0  0  0  0  0
  -17.8840  -30.3340   24.0680 C   0  0  0  0  0  3  0  0  0  0  0  0
  -16.7620  -29.6420   23.5770 C   0  0  0  0  0  3  0  0  0  0  0  0
  -16.9390  -28.4760   22.8100 C   0  0  0  0  0  3  0  0  0  0  0  0
  -25.9970  -32.3340   23.9870 C   0  0  0  0  0  3  0  0  0  0  0  0
  -26.4160  -31.5090   25.2660 C   0  0  1  0  0  0  0  0  0  0  0  0
  -25.2550  -31.2490   26.2540 C   0  0  0  0  0  1  0  0  0  0  0  0
  -27.0020  -30.1360   24.8660 C   0  0  0  0  0  1  0  0  0  0  0  0
  -27.5330  -32.2580   26.0300 C   0  0  0  0  0  1  0  0  0  0  0  0
  -25.6830  -33.7240   24.3550 N   0  0  0  0  0  0  0  0  0  0  0  0
  -26.0090  -34.8000   23.6270 C   0  0  0  0  0  0  0  0  0  0  0  0
  -26.6710  -34.7270   22.5890 O   0  0  0  0  0  0  0  0  0  0  0  0
  -25.0980  -33.8550   25.1670 H   0  0  0  0  0  0  0  0  0  0  0  0
  -24.2460  -36.5790   23.3810 C   0  0  0  0  0  1  0  0  0  0  0  0
  -25.5260  -36.1750   24.1300 C   0  0  0  0  0  3  0  0  0  0  0  0
  -27.6760  -37.0890   24.8950 C   0  0  0  0  0  1  0  0  0  0  0  0
  -26.5410  -37.2440   23.9870 N   0  0  0  0  0  0  0  0  0  0  0  0
  -26.1260  -38.1580   24.1500 H   0  0  0  0  0  0  0  0  0  0  0  0
  -30.5620  -18.0680   20.4070 C   0  0  0  0  0  2  0  0  0  0  0  0
  -30.9670  -15.3450   20.4420 C   0  0  0  0  0  0  0  0  0  0  0  0
  -30.9020  -12.9710   19.5520 C   0  0  0  0  0  2  0  0  0  0  0  0
  -30.0190  -12.8880   18.2850 C   0  0  0  0  0  2  0  0  0  0  0  0
  -28.5420  -12.6780   18.6610 C   0  0  0  0  0  2  0  0  0  0  0  0
  -28.0810  -13.6240   19.8000 C   0  0  0  0  0  3  0  0  0  0  0  0
  -29.0900  -13.6710   20.9680 C   0  0  0  0  0  2  0  0  0  0  0  0
  -30.3800  -14.0820   20.3990 N   0  0  0  0  0  0  0  0  0  0  0  0
  -32.1780  -15.4090   20.1970 O   0  0  0  0  0  0  0  0  0  0  0  0
  -30.1850  -16.5330   20.5470 N   0  0  0  0  0  0  0  0  0  0  0  0
  -29.2050  -16.3570   20.7100 H   0  0  0  0  0  0  0  0  0  0  0  0
  -25.6830  -14.1950   20.4780 C   0  0  0  0  0  0  0  0  0  0  0  0
  -24.6080  -13.4160   20.8080 C   0  0  0  0  0  0  0  0  0  0  0  0
  -25.0690  -12.0660   20.7620 C   0  0  0  0  0  0  0  0  0  0  0  0
  -26.7300  -13.3180   20.2530 N   0  0  0  0  0  0  0  0  0  0  0  0
  -26.3680  -12.0300   20.4880 N   0  0  0  0  0  0  0  0  0  0  0  0
  -24.3320  -10.8020   20.9000 C   0  0  0  0  0  0  0  0  0  0  0  0
  -24.6920   -9.8380   21.8680 C   0  0  0  0  0  3  0  0  0  0  0  0
  -23.9540   -8.6420   21.9970 C   0  0  0  0  0  3  0  0  0  0  0  0
  -22.8400   -8.4020   21.1570 C   0  0  0  0  0  0  0  0  0  0  0  0
  -22.5010   -9.3530   20.1800 C   0  0  0  0  0  3  0  0  0  0  0  0
  -23.2390  -10.5410   20.0500 C   0  0  0  0  0  3  0  0  0  0  0  0
  -22.0810   -7.2580   21.1930 O   0  0  0  0  0  0  0  0  0  0  0  0
  -21.8900   -6.5560   22.3590 C   0  0  0  0  0  0  0  0  0  0  0  0
  -21.2420   -7.1270   23.4750 C   0  0  0  0  0  3  0  0  0  0  0  0
  -21.0060   -6.3490   24.6270 C   0  0  0  0  0  3  0  0  0  0  0  0
  -21.4080   -5.0010   24.6600 C   0  0  0  0  0  0  0  0  0  0  0  0
  -22.0470   -4.4280   23.5460 C   0  0  0  0  0  3  0  0  0  0  0  0
  -22.2860   -5.2040   22.3970 C   0  0  0  0  0  0  0  0  0  0  0  0
  -22.8830   -4.6410   21.3200 F   0  0  0  0  0  0  0  0  0  0  0  0
  -21.1750   -4.2500   25.7620 F   0  0  0  0  0  0  0  0  0  0  0  0
  -23.2050  -13.8950   21.0460 C   0  0  0  0  0  0  0  0  0  0  0  0
  -22.4520  -13.1930   21.8840 N   0  0  0  0  0  0  0  0  0  0  0  0
  -22.7830  -14.9240   20.5190 O   0  0  0  0  0  0  0  0  0  0  0  0
  -22.8030  -12.3620   22.3330 H   0  0  0  0  0  0  0  0  0  0  0  0
  -21.5100  -13.4980   22.0860 H   0  0  0  0  0  0  0  0  0  0  0  0
  -25.8540  -15.5690   20.3260 N   0  0  0  0  0  0  0  0  0  0  0  0
  -25.0700  -16.2120   20.3800 H   0  0  0  0  0  0  0  0  0  0  0  0
  -26.6850  -15.9930   19.9320 H   0  0  0  0  0  0  0  0  0  0  0  0
  1  4  1  0
  2  1  2  0
  3  4  2  0
  4 51  1  0
  5  6  2  0
  5  2  1  0
  6  3  1  0
  7  5  1  0
  8  6  1  0
  9 10  1  0
  9  8  2  0
 10 12  1  0
 11 22  2  0
 12 17  1  0
 13 21  1  0
 13 23  1  0
 14 20  1  0
 14 16  1  0
 15 21  1  0
 16 15  1  0
 17 16  2  0
 18 19  1  0
 18 12  2  0
 19 14  2  0
 20 13  1  0
 21 11  1  0
 23 25  2  0
 24 23  1  0
 26 24  1  0
 27 36  2  0
 27 32  1  0
 28 24  1  0
 28 32  1  0
 29 28  1  0
 30 31  1  0
 30 29  1  0
 31 27  1  0
 32 33  2  0
 33 34  1  0
 35 34  2  0
 36 35  1  0
 37 11  1  0
 37 42  1  0
 37 38  1  0
 38 41  1  1
 38 39  1  0
 40 38  1  0
 42 45  1  0
 43 47  1  0
 43 42  1  0
 44 43  2  0
 47 46  1  0
 49 47  1  0
 49 50  1  0
 49 48  1  0
 51 60  1  0
 52 60  1  0
 53 58  1  0
 54 55  1  0
 54 53  1  0
 56 55  1  0
 56 65  1  0
 56 57  1  0
 58 52  1  0
 58 57  1  0
 59 52  2  0
 60 61  1  0
 62 63  2  0
 63 82  1  0
 64 63  1  0
 64 67  1  0
 65 62  1  0
 65 66  1  0
 66 64  2  0
 67 68  1  0
 68 69  2  0
 70 73  1  0
 70 69  1  0
 71 70  2  0
 72 71  1  0
 72 67  2  0
 73 74  1  0
 74 79  2  0
 74 75  1  0
 75 76  2  0
 76 77  1  0
 77 81  1  0
 78 77  2  0
 79 78  1  0
 80 79  1  0
 82 83  1  0
 83 86  1  0
 83 85  1  0
 84 82  2  0
 87 88  1  0
 87 62  1  0
 89 87  1  0
M  ISO  4   9 101  10 101  52 100  60 100
M  END
>  <TORSDO>  (50) 
F 19

>  <SCORE>  (50) 
-13.492

>  <name>  (50) 
49

>  <ligand_id>  (50) 
49

>  <original_smiles>  (50) 
[H]c1c([H])c([H])c2c(c1[H])C([H])([H])C([H])([H])C([H])([H])C2([H])N([H])C(=O)C1([H])N(C(=O)C([H])(N([H])C(=O)C([H])(N([H])C([H])([H])[H])C([H])([H])[H])C(C([H])([H])[H])(C([H])([H])[H])C([H])([H])[H])C([H])([H])c2c([H])c(OC([H])([H])C([H])([H])c3c([H])c(C([H])([H])N([H])C(=O)N4C([H])([H])C([H])([H])C([H])([H])C([H])(n5nc(-c6c([H])c([H])c(Oc7c([H])c([H])c(F)c([H])c7F)c([H])c6[H])c(C(=O)N([H])[H])c5N([H])[H])C4([H])[H])c([H])c([H])c3C([H])([H])[H])c([H])c([H])c2C1([H])[H]

>  <smiles>  (50) 
[H]c1c([H])c([H])c2c(c1[H])C([H])([H])C([H])([H])C([H])([H])C2([H])N([H])C(=O)C1([H])N(C(=O)C([H])(N([H])C(=O)C([H])(N([H])C([H])([H])[H])C([H])([H])[H])C(C([H])([H])[H])(C([H])([H])[H])C([H])([H])[H])C([H])([H])c2c([H])c(OC([H])([H])C([H])([H])c3c([H])c(C([H])([H])N([H])C(=O)N4C([H])([H])C([H])([H])C([H])([H])C([H])(n5nc(-c6c([H])c([H])c(Oc7c([H])c([H])c(F)c([H])c7F)c([H])c6[H])c(C(=O)N([H])[H])c5N([H])[H])C4([H])[H])c([H])c([H])c3C([H])([H])[H])c([H])c([H])c2C1([H])[H]

$$$$
50:0:0
     RDKit          3D

 92100  0  0  1  0  0  0  0  0999 V2000
  -30.7290  -20.9820   17.8130 C   0  0  0  0  0  3  0  0  0  0  0  0
  -30.7010  -19.6510   18.3330 C   0  0  0  0  0  3  0  0  0  0  0  0
  -30.0630  -22.1460   18.3340 C   0  0  0  0  0  0  0  0  0  0  0  0
  -29.9480  -19.2480   19.4550 C   0  0  0  0  0  0  0  0  0  0  0  0
  -29.2620  -20.6100   20.0130 C   0  0  0  0  0  0  0  0  0  0  0  0
  -29.2930  -22.1550   19.5310 C   0  0  0  0  0  0  0  0  0  0  0  0
  -30.0990  -23.4110   17.4910 C   0  0  0  0  0  1  0  0  0  0  0  0
  -28.3840  -20.4000   21.2310 C   0  0  0  0  0  1  0  0  0  0  0  0
  -28.4550  -23.7700   20.0030 C   0  0  0  0  0  2  0  0  0  0  0  0
  -28.6280  -25.5290   19.8230 O   0  0  0  0  0  0  0  0  0  0  0  0
  -24.8730  -31.6880   22.8710 C   0  0  0  0  0  0  0  0  0  0  0  0
  -27.6220  -26.7250   19.8420 C   0  0  0  0  0  0  0  0  0  0  0  0
  -23.7650  -30.2930   21.1770 C   0  0  0  0  0  3  0  0  0  0  0  0
  -25.2940  -28.7110   19.7720 C   0  0  0  0  0  0  0  0  0  0  0  0
  -26.3460  -30.5040   21.1250 C   0  0  0  0  0  2  0  0  0  0  0  0
  -26.4690  -29.0830   20.4390 C   0  0  0  0  0  0  0  0  0  0  0  0
  -27.6210  -28.1250   20.4320 C   0  0  0  0  0  3  0  0  0  0  0  0
  -26.4060  -26.5690   19.1280 C   0  0  0  0  0  3  0  0  0  0  0  0
  -25.3020  -27.4750   19.0980 C   0  0  0  0  0  3  0  0  0  0  0  0
  -24.0630  -29.6320   19.7990 C   0  0  0  0  0  2  0  0  0  0  0  0
  -25.0160  -30.8590   21.7790 N   0  0  0  0  0  0  0  0  0  0  0  0
  -23.7580  -31.9450   23.3590 O   0  0  0  0  0  0  0  0  0  0  0  0
  -23.0520  -29.2760   22.1080 C   0  0  0  0  0  0  0  0  0  0  0  0
  -21.7140  -29.1640   22.0200 N   0  0  0  0  0  0  0  0  0  0  0  0
  -23.7140  -28.5880   22.8890 O   0  0  0  0  0  0  0  0  0  0  0  0
  -21.2270  -29.7740   21.3780 H   0  0  0  0  0  0  0  0  0  0  0  0
  -18.3000  -28.0910   22.6740 C   0  0  0  0  0  0  0  0  0  0  0  0
  -20.8850  -28.1990   22.7580 C   0  0  0  0  0  3  0  0  0  0  0  0
  -20.8550  -26.8280   22.0440 C   0  0  0  0  0  2  0  0  0  0  0  0
  -19.6650  -26.6650   21.0920 C   0  0  0  0  0  2  0  0  0  0  0  0
  -18.3450  -26.8130   21.8540 C   0  0  0  0  0  2  0  0  0  0  0  0
  -19.4900  -28.7510   23.0850 C   0  0  0  0  0  0  0  0  0  0  0  0
  -19.3880  -29.9460   23.8270 C   0  0  0  0  0  3  0  0  0  0  0  0
  -18.1300  -30.4890   24.1540 C   0  0  0  0  0  3  0  0  0  0  0  0
  -16.9550  -29.8240   23.7540 C   0  0  0  0  0  3  0  0  0  0  0  0
  -17.0410  -28.6280   23.0220 C   0  0  0  0  0  3  0  0  0  0  0  0
  -26.1010  -32.3600   23.5590 C   0  0  0  0  0  3  0  0  0  0  0  0
  -26.6800  -31.5120   24.7600 C   0  0  1  0  0  0  0  0  0  0  0  0
  -25.6150  -31.0870   25.8010 C   0  0  0  0  0  1  0  0  0  0  0  0
  -27.3610  -30.2230   24.2500 C   0  0  0  0  0  1  0  0  0  0  0  0
  -27.7730  -32.3240   25.4940 C   0  0  0  0  0  1  0  0  0  0  0  0
  -25.6850  -33.6900   24.0470 N   0  0  0  0  0  0  0  0  0  0  0  0
  -25.8940  -34.8480   23.4050 C   0  0  0  0  0  0  0  0  0  0  0  0
  -26.5180  -34.9170   22.3430 O   0  0  0  0  0  0  0  0  0  0  0  0
  -25.1190  -33.7050   24.8820 H   0  0  0  0  0  0  0  0  0  0  0  0
  -24.0070  -36.5210   23.3650 C   0  0  0  0  0  1  0  0  0  0  0  0
  -25.3290  -36.1340   24.0460 C   0  0  0  0  0  3  0  0  0  0  0  0
  -27.4250  -37.1280   24.8600 C   0  0  0  0  0  1  0  0  0  0  0  0
  -26.2610  -37.2830   23.9910 N   0  0  0  0  0  0  0  0  0  0  0  0
  -25.7860  -38.1420   24.2540 H   0  0  0  0  0  0  0  0  0  0  0  0
  -29.9060  -17.3920   19.7740 C   0  0  0  0  0  3  0  0  0  0  0  0
  -30.7420  -15.7440   19.3640 C   0  0  0  0  0  0  0  0  0  0  0  0
  -30.7720  -13.2090   18.4720 C   0  0  0  0  0  2  0  0  0  0  0  0
  -29.7090  -12.8500   17.3880 C   0  0  0  0  0  2  0  0  0  0  0  0
  -28.3480  -12.4930   18.0140 C   0  0  0  0  0  2  0  0  0  0  0  0
  -28.0060  -13.4470   19.1780 C   0  0  0  0  0  3  0  0  0  0  0  0
  -29.1870  -13.7120   20.1400 C   0  0  0  0  0  2  0  0  0  0  0  0
  -30.2730  -14.3560   19.3620 N   0  0  0  0  0  0  0  0  0  0  0  0
  -31.9210  -15.7080   18.9420 O   0  0  0  0  0  0  0  0  0  0  0  0
  -25.8150  -13.9470   20.3620 C   0  0  0  0  0  0  0  0  0  0  0  0
  -24.8070  -13.1580   20.8320 C   0  0  0  0  0  0  0  0  0  0  0  0
  -25.2220  -11.8070   20.6040 C   0  0  0  0  0  0  0  0  0  0  0  0
  -26.7770  -13.0850   19.8710 N   0  0  0  0  0  0  0  0  0  0  0  0
  -26.4480  -11.7820   20.0850 N   0  0  0  0  0  0  0  0  0  0  0  0
  -24.4890  -10.5480   20.7950 C   0  0  0  0  0  0  0  0  0  0  0  0
  -24.9200   -9.5750   21.7230 C   0  0  0  0  0  3  0  0  0  0  0  0
  -24.1830   -8.3850   21.9040 C   0  0  0  0  0  3  0  0  0  0  0  0
  -23.0040   -8.1570   21.1530 C   0  0  0  0  0  0  0  0  0  0  0  0
  -22.6020   -9.1190   20.2110 C   0  0  0  0  0  3  0  0  0  0  0  0
  -23.3360  -10.2980   20.0260 C   0  0  0  0  0  3  0  0  0  0  0  0
  -22.2410   -7.0170   21.2410 O   0  0  0  0  0  0  0  0  0  0  0  0
  -22.0390   -6.3740   22.4360 C   0  0  0  0  0  0  0  0  0  0  0  0
  -21.4070   -7.0130   23.5260 C   0  0  0  0  0  3  0  0  0  0  0  0
  -21.1590   -6.2970   24.7150 C   0  0  0  0  0  3  0  0  0  0  0  0
  -21.5270   -4.9410   24.8120 C   0  0  0  0  0  0  0  0  0  0  0  0
  -22.1440   -4.3020   23.7210 C   0  0  0  0  0  3  0  0  0  0  0  0
  -22.3960   -5.0160   22.5390 C   0  0  0  0  0  0  0  0  0  0  0  0
  -22.9710   -4.3880   21.4870 F   0  0  0  0  0  0  0  0  0  0  0  0
  -21.2830   -4.2510   25.9520 F   0  0  0  0  0  0  0  0  0  0  0  0
  -23.4850  -13.6290   21.3580 C   0  0  0  0  0  0  0  0  0  0  0  0
  -22.8970  -12.8940   22.2940 N   0  0  0  0  0  0  0  0  0  0  0  0
  -22.9910  -14.6860   20.9650 O   0  0  0  0  0  0  0  0  0  0  0  0
  -23.3290  -12.0450   22.6240 H   0  0  0  0  0  0  0  0  0  0  0  0
  -22.0060  -13.1770   22.6740 H   0  0  0  0  0  0  0  0  0  0  0  0
  -25.9900  -15.3260   20.2660 N   0  0  0  0  0  0  0  0  0  0  0  0
  -25.2040  -15.9380   20.4490 H   0  0  0  0  0  0  0  0  0  0  0  0
  -26.6160  -15.7110   19.5730 H   0  0  0  0  0  0  0  0  0  0  0  0
  -29.6660  -17.2410   21.2780 C   0  0  0  0  0  0  0  0  0  0  0  0
  -28.4190  -17.0150   21.6870 N   0  0  0  0  0  0  0  0  0  0  0  0
  -30.5850  -17.3920   22.0840 O   0  0  0  0  0  0  0  0  0  0  0  0
  -27.6610  -16.9630   21.0150 H   0  0  0  0  0  0  0  0  0  0  0  0
  -28.1970  -16.9900   22.6740 H   0  0  0  0  0  0  0  0  0  0  0  0
  1  2  2  0
  1  3  1  0
  2  4  1  0
  3  6  2  0
  4 51  1  0
  4  5  2  0
  5  8  1  0
  6  9  1  0
  6  5  1  0
  7  3  1  0
 10 12  1  0
 10  9  1  0
 11 22  2  0
 12 17  1  0
 13 21  1  0
 13 23  1  0
 14 20  1  0
 14 16  1  0
 15 21  1  0
 16 15  1  0
 17 16  2  0
 18 12  2  0
 19 18  1  0
 19 14  2  0
 20 13  1  0
 21 11  1  0
 23 25  2  0
 24 23  1  0
 26 24  1  0
 27 36  2  0
 27 32  1  0
 28 24  1  0
 28 32  1  0
 29 28  1  0
 30 31  1  0
 30 29  1  0
 31 27  1  0
 32 33  2  0
 33 34  1  0
 35 34  2  0
 36 35  1  0
 37 11  1  0
 37 42  1  0
 37 38  1  0
 38 41  1  1
 38 39  1  0
 40 38  1  0
 42 45  1  0
 43 47  1  0
 43 42  1  0
 44 43  2  0
 47 46  1  0
 49 47  1  0
 49 50  1  0
 49 48  1  0
 51 52  1  0
 51 88  1  0
 53 58  1  0
 54 55  1  0
 54 53  1  0
 56 55  1  0
 56 63  1  0
 56 57  1  0
 58 52  1  0
 58 57  1  0
 59 52  2  0
 60 61  2  0
 61 80  1  0
 62 65  1  0
 62 61  1  0
 63 64  1  0
 63 60  1  0
 64 62  2  0
 65 66  1  0
 66 67  2  0
 68 71  1  0
 68 67  1  0
 69 68  2  0
 70 69  1  0
 70 65  2  0
 71 72  1  0
 72 77  2  0
 72 73  1  0
 73 74  2  0
 74 75  1  0
 75 79  1  0
 76 75  2  0
 77 76  1  0
 78 77  1  0
 80 81  1  0
 81 83  1  0
 81 84  1  0
 82 80  2  0
 85 60  1  0
 85 86  1  0
 87 85  1  0
 88 89  1  0
 88 90  2  0
 89 92  1  0
 91 89  1  0
M  ISO  4   9 101  10 101  51 100  52 100
M  END
>  <TORSDO>  (51) 
F 19

>  <SCORE>  (51) 
-12.820

>  <name>  (51) 
50

>  <ligand_id>  (51) 
50

>  <original_smiles>  (51) 
[H]c1c([H])c([H])c2c(c1[H])C([H])([H])C([H])([H])C([H])([H])C2([H])N([H])C(=O)C1([H])N(C(=O)C([H])(N([H])C(=O)C([H])(N([H])C([H])([H])[H])C([H])([H])[H])C(C([H])([H])[H])(C([H])([H])[H])C([H])([H])[H])C([H])([H])c2c([H])c(OC([H])([H])c3c(C([H])([H])[H])c([H])c([H])c(C([H])(C(=O)N([H])[H])C(=O)N4C([H])([H])C([H])([H])C([H])([H])C([H])(n5nc(-c6c([H])c([H])c(Oc7c([H])c([H])c(F)c([H])c7F)c([H])c6[H])c(C(=O)N([H])[H])c5N([H])[H])C4([H])[H])c3C([H])([H])[H])c([H])c([H])c2C1([H])[H]

>  <smiles>  (51) 
[H]c1c([H])c([H])c2c(c1[H])C([H])([H])C([H])([H])C([H])([H])C2([H])N([H])C(=O)C1([H])N(C(=O)C([H])(N([H])C(=O)C([H])(N([H])C([H])([H])[H])C([H])([H])[H])C(C([H])([H])[H])(C([H])([H])[H])C([H])([H])[H])C([H])([H])c2c([H])c(OC([H])([H])c3c(C([H])([H])[H])c([H])c([H])c(C([H])(C(=O)N([H])[H])C(=O)N4C([H])([H])C([H])([H])C([H])([H])C([H])(n5nc(-c6c([H])c([H])c(Oc7c([H])c([H])c(F)c([H])c7F)c([H])c6[H])c(C(=O)N([H])[H])c5N([H])[H])C4([H])[H])c3C([H])([H])[H])c([H])c([H])c2C1([H])[H]

$$$$
51:0:0
     RDKit          3D

 92100  0  0  1  0  0  0  0  0999 V2000
  -28.9200  -23.2940   18.8190 C   0  0  0  0  0  3  0  0  0  0  0  0
  -28.9490  -24.7010   18.9070 C   0  0  0  0  0  3  0  0  0  0  0  0
  -28.3190  -22.5220   19.8390 C   0  0  0  0  0  0  0  0  0  0  0  0
  -27.6710  -23.1810   20.9290 C   0  0  0  0  0  0  0  0  0  0  0  0
  -27.7200  -24.6020   21.0250 C   0  0  0  0  0  0  0  0  0  0  0  0
  -28.3580  -25.3630   20.0000 C   0  0  0  0  0  0  0  0  0  0  0  0
  -26.8920  -22.4030   22.0060 C   0  0  0  0  0  1  0  0  0  0  0  0
  -27.0700  -25.3170   22.2120 C   0  0  0  0  0  1  0  0  0  0  0  0
  -28.3840  -21.0380   19.6890 C   0  0  0  0  0  0  0  0  0  0  0  0
  -27.9040  -20.4380   18.7150 O   0  0  0  0  0  0  0  0  0  0  0  0
  -29.1950  -20.3050   20.7820 C   0  0  0  0  0  2  0  0  0  0  0  0
  -29.3120  -18.7680   20.6570 C   0  0  0  0  0  2  0  0  0  0  0  0
  -30.6730  -18.2630   21.1830 C   0  0  0  0  0  2  0  0  0  0  0  0
  -31.1380  -16.9720   20.5020 C   0  0  0  0  0  2  0  0  0  0  0  0
  -30.3420  -15.7010   20.8880 C   0  0  0  0  0  2  0  0  0  0  0  0
  -30.9470  -14.4540   20.2320 C   0  0  0  0  0  0  0  0  0  0  0  0
  -30.5340  -12.3110   19.0980 C   0  0  0  0  0  2  0  0  0  0  0  0
  -29.5940  -12.5550   17.9030 C   0  0  0  0  0  2  0  0  0  0  0  0
  -28.1190  -12.4870   18.3480 C   0  0  0  0  0  2  0  0  0  0  0  0
  -27.8250  -13.3340   19.6140 C   0  0  0  0  0  3  0  0  0  0  0  0
  -28.8890  -13.0900   20.7080 C   0  0  0  0  0  2  0  0  0  0  0  0
  -30.2160  -13.3170   20.1180 N   0  0  0  0  0  0  0  0  0  0  0  0
  -32.0630  -14.5630   19.7140 O   0  0  0  0  0  0  0  0  0  0  0  0
  -25.4350  -13.9810   20.3300 C   0  0  0  0  0  0  0  0  0  0  0  0
  -24.3610  -13.2280   20.7240 C   0  0  0  0  0  0  0  0  0  0  0  0
  -24.8070  -11.8710   20.7140 C   0  0  0  0  0  0  0  0  0  0  0  0
  -26.4710  -13.0850   20.1110 N   0  0  0  0  0  0  0  0  0  0  0  0
  -26.0940  -11.8140   20.3990 N   0  0  0  0  0  0  0  0  0  0  0  0
  -24.0680  -10.6200   20.9300 C   0  0  0  0  0  0  0  0  0  0  0  0
  -24.4950   -9.6610   21.8760 C   0  0  0  0  0  3  0  0  0  0  0  0
  -23.7560   -8.4760   22.0780 C   0  0  0  0  0  3  0  0  0  0  0  0
  -22.5740   -8.2390   21.3370 C   0  0  0  0  0  0  0  0  0  0  0  0
  -22.1640   -9.1840   20.3810 C   0  0  0  0  0  3  0  0  0  0  0  0
  -22.9040  -10.3630   20.1750 C   0  0  0  0  0  3  0  0  0  0  0  0
  -21.8080   -7.1040   21.4510 O   0  0  0  0  0  0  0  0  0  0  0  0
  -21.7600   -6.3810   22.6150 C   0  0  0  0  0  0  0  0  0  0  0  0
  -21.3580   -6.9630   23.8380 C   0  0  0  0  0  3  0  0  0  0  0  0
  -21.2570   -6.1670   24.9960 C   0  0  0  0  0  3  0  0  0  0  0  0
  -21.5480   -4.7920   24.9350 C   0  0  0  0  0  0  0  0  0  0  0  0
  -21.9410   -4.2080   23.7170 C   0  0  0  0  0  3  0  0  0  0  0  0
  -22.0450   -5.0010   22.5590 C   0  0  0  0  0  0  0  0  0  0  0  0
  -22.4070   -4.4300   21.3850 F   0  0  0  0  0  0  0  0  0  0  0  0
  -21.4420   -4.0260   26.0460 F   0  0  0  0  0  0  0  0  0  0  0  0
  -22.9710  -13.7270   20.9930 C   0  0  0  0  0  0  0  0  0  0  0  0
  -22.2370  -13.0590   21.8800 N   0  0  0  0  0  0  0  0  0  0  0  0
  -22.5400  -14.7440   20.4510 O   0  0  0  0  0  0  0  0  0  0  0  0
  -22.5880  -12.2320   22.3400 H   0  0  0  0  0  0  0  0  0  0  0  0
  -21.3060  -13.3840   22.1030 H   0  0  0  0  0  0  0  0  0  0  0  0
  -25.6090  -15.3480   20.1240 N   0  0  0  0  0  0  0  0  0  0  0  0
  -24.8480  -16.0070   20.2450 H   0  0  0  0  0  0  0  0  0  0  0  0
  -26.4570  -15.7790   19.7850 H   0  0  0  0  0  0  0  0  0  0  0  0
  -28.4250  -26.7470   20.0230 O   0  0  0  0  0  0  0  0  0  0  0  0
  -24.6510  -31.8750   23.2100 C   0  0  0  0  0  0  0  0  0  0  0  0
  -27.2590  -27.4820   20.0280 C   0  0  0  0  0  0  0  0  0  0  0  0
  -23.4400  -30.4940   21.5630 C   0  0  0  0  0  3  0  0  0  0  0  0
  -24.8710  -28.9780   20.1070 C   0  0  0  0  0  0  0  0  0  0  0  0
  -25.9610  -30.8520   21.3470 C   0  0  0  0  0  2  0  0  0  0  0  0
  -26.0380  -29.4910   20.6890 C   0  0  0  0  0  0  0  0  0  0  0  0
  -27.2360  -28.7510   20.6480 C   0  0  0  0  0  3  0  0  0  0  0  0
  -26.0750  -26.9800   19.4450 C   0  0  0  0  0  3  0  0  0  0  0  0
  -24.8790  -27.7130   19.4960 C   0  0  0  0  0  3  0  0  0  0  0  0
  -23.6420  -29.8490   20.1650 C   0  0  0  0  0  2  0  0  0  0  0  0
  -24.7050  -31.0890   22.0960 N   0  0  0  0  0  0  0  0  0  0  0  0
  -23.5720  -32.1350   23.7590 O   0  0  0  0  0  0  0  0  0  0  0  0
  -22.8040  -29.4530   22.5170 C   0  0  0  0  0  0  0  0  0  0  0  0
  -21.4800  -29.2690   22.3990 N   0  0  0  0  0  0  0  0  0  0  0  0
  -23.4950  -28.8170   23.3190 O   0  0  0  0  0  0  0  0  0  0  0  0
  -20.9790  -29.8440   21.7350 H   0  0  0  0  0  0  0  0  0  0  0  0
  -18.1120  -28.0690   22.9170 C   0  0  0  0  0  0  0  0  0  0  0  0
  -20.6700  -28.3210   23.1630 C   0  0  0  0  0  3  0  0  0  0  0  0
  -20.7670  -26.8960   22.5640 C   0  0  0  0  0  2  0  0  0  0  0  0
  -19.6500  -26.5880   21.5610 C   0  0  0  0  0  2  0  0  0  0  0  0
  -18.2740  -26.7290   22.2190 C   0  0  0  0  0  2  0  0  0  0  0  0
  -19.2350  -28.8230   23.3450 C   0  0  0  0  0  0  0  0  0  0  0  0
  -19.0200  -30.0830   23.9470 C   0  0  0  0  0  3  0  0  0  0  0  0
  -17.7140  -30.5760   24.1340 C   0  0  0  0  0  3  0  0  0  0  0  0
  -16.6090  -29.8190   23.7140 C   0  0  0  0  0  3  0  0  0  0  0  0
  -16.8060  -28.5670   23.1070 C   0  0  0  0  0  3  0  0  0  0  0  0
  -25.9380  -32.5040   23.8330 C   0  0  0  0  0  3  0  0  0  0  0  0
  -25.6270  -33.8980   24.1800 N   0  0  0  0  0  0  0  0  0  0  0  0
  -25.9460  -34.9560   23.4250 C   0  0  0  0  0  0  0  0  0  0  0  0
  -26.5980  -34.8650   22.3810 O   0  0  0  0  0  0  0  0  0  0  0  0
  -25.0550  -34.0480   24.9980 H   0  0  0  0  0  0  0  0  0  0  0  0
  -24.1950  -36.7300   23.1130 C   0  0  0  0  0  1  0  0  0  0  0  0
  -25.4560  -36.3370   23.8990 C   0  0  0  0  0  3  0  0  0  0  0  0
  -27.6060  -37.2290   24.6850 C   0  0  0  0  0  1  0  0  0  0  0  0
  -26.4810  -37.3980   23.7710 N   0  0  0  0  0  0  0  0  0  0  0  0
  -26.0730  -38.3170   23.9330 H   0  0  0  0  0  0  0  0  0  0  0  0
  -26.4650  -31.7190   25.0950 C   0  0  1  0  0  0  0  0  0  0  0  0
  -25.3880  -31.4670   26.1740 C   0  0  0  0  0  1  0  0  0  0  0  0
  -27.0480  -30.3540   24.6700 C   0  0  0  0  0  1  0  0  0  0  0  0
  -27.6210  -32.5040   25.7560 C   0  0  0  0  0  1  0  0  0  0  0  0
  1  2  2  0
  1  3  1  0
  2  6  1  0
  3  4  2  0
  4  5  1  0
  4  7  1  0
  5  8  1  0
  6 52  1  0
  6  5  2  0
  9  3  1  0
  9 11  1  0
 10  9  2  0
 12 11  1  0
 12 13  1  0
 14 15  1  0
 14 13  1  0
 16 15  1  0
 17 22  1  0
 18 19  1  0
 18 17  1  0
 20 19  1  0
 20 27  1  0
 20 21  1  0
 22 16  1  0
 22 21  1  0
 23 16  2  0
 24 25  2  0
 25 44  1  0
 26 25  1  0
 26 29  1  0
 27 24  1  0
 27 28  1  0
 28 26  2  0
 29 30  1  0
 30 31  2  0
 32 35  1  0
 32 31  1  0
 33 32  2  0
 34 33  1  0
 34 29  2  0
 35 36  1  0
 36 37  1  0
 37 38  2  0
 39 38  1  0
 39 43  1  0
 40 39  2  0
 41 36  2  0
 41 40  1  0
 42 41  1  0
 44 45  1  0
 45 48  1  0
 45 47  1  0
 46 44  2  0
 49 50  1  0
 49 24  1  0
 51 49  1  0
 52 54  1  0
 53 64  2  0
 54 59  1  0
 55 63  1  0
 55 65  1  0
 56 62  1  0
 56 58  1  0
 57 63  1  0
 58 57  1  0
 59 58  2  0
 60 61  1  0
 60 54  2  0
 61 56  2  0
 62 55  1  0
 63 53  1  0
 65 67  2  0
 66 65  1  0
 68 66  1  0
 69 78  2  0
 69 74  1  0
 70 66  1  0
 70 74  1  0
 71 70  1  0
 72 73  1  0
 72 71  1  0
 73 69  1  0
 74 75  2  0
 75 76  1  0
 77 76  2  0
 78 77  1  0
 79 53  1  0
 79 80  1  0
 79 89  1  0
 80 83  1  0
 81 85  1  0
 81 80  1  0
 82 81  2  0
 85 84  1  0
 87 85  1  0
 87 88  1  0
 87 86  1  0
 89 92  1  1
 89 90  1  0
 91 89  1  0
M  ISO  4   6 101  15 100  16 100  52 101
M  END
>  <TORSDO>  (52) 
F 22

>  <SCORE>  (52) 
-12.560

>  <name>  (52) 
51

>  <ligand_id>  (52) 
51

>  <original_smiles>  (52) 
[H]c1c([H])c([H])c2c(c1[H])C([H])([H])C([H])([H])C([H])([H])C2([H])N([H])C(=O)C1([H])N(C(=O)C([H])(N([H])C(=O)C([H])(N([H])C([H])([H])[H])C([H])([H])[H])C(C([H])([H])[H])(C([H])([H])[H])C([H])([H])[H])C([H])([H])c2c([H])c(Oc3c([H])c([H])c(C(=O)C([H])([H])C([H])([H])C([H])([H])C([H])([H])C([H])([H])C(=O)N4C([H])([H])C([H])([H])C([H])([H])C([H])(n5nc(-c6c([H])c([H])c(Oc7c([H])c([H])c(F)c([H])c7F)c([H])c6[H])c(C(=O)N([H])[H])c5N([H])[H])C4([H])[H])c(C([H])([H])[H])c3C([H])([H])[H])c([H])c([H])c2C1([H])[H]

>  <smiles>  (52) 
[H]c1c([H])c([H])c2c(c1[H])C([H])([H])C([H])([H])C([H])([H])C2([H])N([H])C(=O)C1([H])N(C(=O)C([H])(N([H])C(=O)C([H])(N([H])C([H])([H])[H])C([H])([H])[H])C(C([H])([H])[H])(C([H])([H])[H])C([H])([H])[H])C([H])([H])c2c([H])c(Oc3c([H])c([H])c(C(=O)C([H])([H])C([H])([H])C([H])([H])C([H])([H])C([H])([H])C(=O)N4C([H])([H])C([H])([H])C([H])([H])C([H])(n5nc(-c6c([H])c([H])c(Oc7c([H])c([H])c(F)c([H])c7F)c([H])c6[H])c(C(=O)N([H])[H])c5N([H])[H])C4([H])[H])c(C([H])([H])[H])c3C([H])([H])[H])c([H])c([H])c2C1([H])[H]

$$$$
52:0:0
     RDKit          3D

 95103  0  0  1  0  0  0  0  0999 V2000
  -29.1180  -22.2060   20.3090 C   0  0  0  0  0  3  0  0  0  0  0  0
  -29.9570  -20.8810   20.9140 C   0  0  0  0  0  3  0  0  0  0  0  0
  -29.2380  -19.2810   19.0460 C   0  0  0  0  0  3  0  0  0  0  0  0
  -30.4930  -16.8030   20.0220 C   0  0  0  0  0  0  0  0  0  0  0  0
  -29.2610  -18.1140   18.2710 C   0  0  0  0  0  0  0  0  0  0  0  0
  -29.9120  -19.3780   20.2670 C   0  0  0  0  0  0  0  0  0  0  0  0
  -29.9540  -16.9480   18.6980 C   0  0  0  0  0  0  0  0  0  0  0  0
  -30.4890  -18.0960   20.7700 C   0  0  0  0  0  0  0  0  0  0  0  0
  -28.5690  -18.1780   16.9150 C   0  0  0  0  0  1  0  0  0  0  0  0
  -30.2110  -15.9140   17.6160 C   0  0  0  0  0  1  0  0  0  0  0  0
  -31.2440  -15.4190   20.4090 C   0  0  0  0  0  0  0  0  0  0  0  0
  -31.1970  -13.0140   19.6100 C   0  0  0  0  0  2  0  0  0  0  0  0
  -30.3030  -12.7530   18.3720 C   0  0  0  0  0  2  0  0  0  0  0  0
  -28.7970  -12.7190   18.7120 C   0  0  0  0  0  2  0  0  0  0  0  0
  -28.3510  -13.6920   19.8400 C   0  0  0  0  0  3  0  0  0  0  0  0
  -29.3690  -13.7600   20.9860 C   0  0  0  0  0  2  0  0  0  0  0  0
  -30.6500  -14.1570   20.3930 N   0  0  0  0  0  0  0  0  0  0  0  0
  -32.4770  -15.4410   20.3600 O   0  0  0  0  0  0  0  0  0  0  0  0
  -25.9690  -14.2700   20.5800 C   0  0  0  0  0  0  0  0  0  0  0  0
  -24.8880  -13.4900   20.8900 C   0  0  0  0  0  0  0  0  0  0  0  0
  -25.3380  -12.1360   20.8060 C   0  0  0  0  0  0  0  0  0  0  0  0
  -27.0060  -13.3910   20.3170 N   0  0  0  0  0  0  0  0  0  0  0  0
  -26.6350  -12.1020   20.5300 N   0  0  0  0  0  0  0  0  0  0  0  0
  -24.5960  -10.8740   20.9140 C   0  0  0  0  0  0  0  0  0  0  0  0
  -24.9630   -9.8780   21.8450 C   0  0  0  0  0  3  0  0  0  0  0  0
  -24.2190   -8.6810   21.9470 C   0  0  0  0  0  3  0  0  0  0  0  0
  -23.0930   -8.4730   21.1150 C   0  0  0  0  0  0  0  0  0  0  0  0
  -22.7450   -9.4580   20.1740 C   0  0  0  0  0  3  0  0  0  0  0  0
  -23.4900  -10.6460   20.0710 C   0  0  0  0  0  3  0  0  0  0  0  0
  -22.3270   -7.3340   21.1240 O   0  0  0  0  0  0  0  0  0  0  0  0
  -22.0700   -6.6500   22.2850 C   0  0  0  0  0  0  0  0  0  0  0  0
  -21.4290   -7.2620   23.3840 C   0  0  0  0  0  3  0  0  0  0  0  0
  -21.1220   -6.5030   24.5310 C   0  0  0  0  0  3  0  0  0  0  0  0
  -21.4470   -5.1350   24.5800 C   0  0  0  0  0  0  0  0  0  0  0  0
  -22.0810   -4.5230   23.4840 C   0  0  0  0  0  3  0  0  0  0  0  0
  -22.3900   -5.2780   22.3390 C   0  0  0  0  0  0  0  0  0  0  0  0
  -22.9810   -4.6790   21.2770 F   0  0  0  0  0  0  0  0  0  0  0  0
  -21.1440   -4.4040   25.6780 F   0  0  0  0  0  0  0  0  0  0  0  0
  -23.4880  -13.9660   21.1470 C   0  0  0  0  0  0  0  0  0  0  0  0
  -22.7420  -13.2540   21.9840 N   0  0  0  0  0  0  0  0  0  0  0  0
  -23.0640  -15.0050   20.6410 O   0  0  0  0  0  0  0  0  0  0  0  0
  -23.0930  -12.4110   22.4150 H   0  0  0  0  0  0  0  0  0  0  0  0
  -21.8020  -13.5570   22.1950 H   0  0  0  0  0  0  0  0  0  0  0  0
  -26.1570  -15.6450   20.4700 N   0  0  0  0  0  0  0  0  0  0  0  0
  -25.4050  -16.3100   20.6110 H   0  0  0  0  0  0  0  0  0  0  0  0
  -27.0320  -16.0860   20.2140 H   0  0  0  0  0  0  0  0  0  0  0  0
  -30.2280  -17.4520   23.2020 C   0  0  0  0  0  1  0  0  0  0  0  0
  -31.1270  -18.1110   22.1480 C   0  0  0  0  0  2  0  0  0  0  0  0
  -29.2580  -23.8000   20.8260 C   0  0  0  0  0  3  0  0  0  0  0  0
  -30.6710  -24.2220   20.7330 N   0  0  0  0  0  4  0  0  0  0  0  0
  -30.9970  -24.2210   19.7820 H   0  0  0  0  0  0  0  0  0  0  0  0
  -31.2680  -23.6270   21.2790 H   0  0  0  0  0  0  0  0  0  0  0  0
  -30.7650  -25.1590   21.0870 H   0  0  0  0  0  0  0  0  0  0  0  0
  -28.3190  -25.0480   20.2320 C   0  0  0  0  0  2  0  0  0  0  0  0
  -28.5400  -26.5660   20.4500 O   0  0  0  0  0  0  0  0  0  0  0  0
  -24.7100  -32.0230   23.4960 C   0  0  0  0  0  0  0  0  0  0  0  0
  -27.4660  -27.5150   20.3540 C   0  0  0  0  0  0  0  0  0  0  0  0
  -23.5790  -30.6550   21.7860 C   0  0  0  0  0  3  0  0  0  0  0  0
  -25.0950  -29.1820   20.3280 C   0  0  0  0  0  0  0  0  0  0  0  0
  -26.1240  -31.0030   21.6790 C   0  0  0  0  0  2  0  0  0  0  0  0
  -26.2460  -29.6400   20.9810 C   0  0  0  0  0  0  0  0  0  0  0  0
  -27.4320  -28.8200   20.9820 C   0  0  0  0  0  3  0  0  0  0  0  0
  -26.2960  -27.1640   19.6450 C   0  0  0  0  0  3  0  0  0  0  0  0
  -25.1320  -27.9600   19.6430 C   0  0  0  0  0  3  0  0  0  0  0  0
  -23.8420  -30.0390   20.3860 C   0  0  0  0  0  2  0  0  0  0  0  0
  -24.8230  -31.2460   22.3770 N   0  0  0  0  0  0  0  0  0  0  0  0
  -23.6070  -32.2570   24.0120 O   0  0  0  0  0  0  0  0  0  0  0  0
  -22.9150  -29.5920   22.6970 C   0  0  0  0  0  0  0  0  0  0  0  0
  -21.5950  -29.3890   22.5380 N   0  0  0  0  0  0  0  0  0  0  0  0
  -23.5900  -28.9550   23.5100 O   0  0  0  0  0  0  0  0  0  0  0  0
  -21.1080  -29.9590   21.8590 H   0  0  0  0  0  0  0  0  0  0  0  0
  -18.2380  -28.0910   22.9350 C   0  0  0  0  0  0  0  0  0  0  0  0
  -20.7850  -28.4050   23.2570 C   0  0  0  0  0  3  0  0  0  0  0  0
  -20.9320  -26.9990   22.6300 C   0  0  0  0  0  2  0  0  0  0  0  0
  -19.8550  -26.6870   21.5850 C   0  0  0  0  0  2  0  0  0  0  0  0
  -18.4600  -26.7730   22.2100 C   0  0  0  0  0  2  0  0  0  0  0  0
  -19.3290  -28.8640   23.4120 C   0  0  0  0  0  0  0  0  0  0  0  0
  -19.0680  -30.0960   24.0500 C   0  0  0  0  0  3  0  0  0  0  0  0
  -17.7470  -30.5570   24.2130 C   0  0  0  0  0  3  0  0  0  0  0  0
  -16.6710  -29.7810   23.7510 C   0  0  0  0  0  3  0  0  0  0  0  0
  -16.9170  -28.5480   23.1190 C   0  0  0  0  0  3  0  0  0  0  0  0
  -25.9590  -32.6690   24.1710 C   0  0  0  0  0  3  0  0  0  0  0  0
  -25.6410  -34.0810   24.4390 N   0  0  0  0  0  0  0  0  0  0  0  0
  -26.0440  -35.1120   23.6860 C   0  0  0  0  0  0  0  0  0  0  0  0
  -26.7890  -34.9750   22.7120 O   0  0  0  0  0  0  0  0  0  0  0  0
  -24.9910  -34.2620   25.1910 H   0  0  0  0  0  0  0  0  0  0  0  0
  -24.3790  -36.9230   23.1540 C   0  0  0  0  0  1  0  0  0  0  0  0
  -25.5430  -36.5180   24.0720 C   0  0  0  0  0  3  0  0  0  0  0  0
  -27.6170  -37.3940   25.0560 C   0  0  0  0  0  1  0  0  0  0  0  0
  -26.5990  -37.5540   24.0210 N   0  0  0  0  0  0  0  0  0  0  0  0
  -26.1950  -38.4830   24.1150 H   0  0  0  0  0  0  0  0  0  0  0  0
  -26.3910  -31.9390   25.5020 C   0  0  1  0  0  0  0  0  0  0  0  0
  -25.2340  -31.7390   26.5080 C   0  0  0  0  0  1  0  0  0  0  0  0
  -26.9900  -30.5470   25.1950 C   0  0  0  0  0  1  0  0  0  0  0  0
  -27.5030  -32.7510   26.2070 C   0  0  0  0  0  1  0  0  0  0  0  0
  1 49  1  0
  1  2  2  0
  3  6  1  0
  4 11  1  0
  4  8  1  0
  5  7  1  0
  5  3  2  0
  6  8  2  0
  6  2  1  0
  7  4  2  0
  8 48  1  0
  9  5  1  0
 10  7  1  0
 12 17  1  0
 13 14  1  0
 13 12  1  0
 15 14  1  0
 15 22  1  0
 15 16  1  0
 17 11  1  0
 17 16  1  0
 18 11  2  0
 19 20  2  0
 20 39  1  0
 21 20  1  0
 21 24  1  0
 22 23  1  0
 22 19  1  0
 23 21  2  0
 24 25  1  0
 25 26  2  0
 27 30  1  0
 27 26  1  0
 28 27  2  0
 29 28  1  0
 29 24  2  0
 30 31  1  0
 31 36  2  0
 31 32  1  0
 32 33  2  0
 33 34  1  0
 34 38  1  0
 35 34  2  0
 36 35  1  0
 37 36  1  0
 39 40  1  0
 40 43  1  0
 40 42  1  0
 41 39  2  0
 44 19  1  0
 44 45  1  0
 46 44  1  0
 48 47  1  0
 49 54  1  0
 50 49  1  0
 50 53  1  0
 50 52  1  0
 51 50  1  0
 54 55  1  0
 56 67  2  0
 57 55  1  0
 57 62  1  0
 58 66  1  0
 58 68  1  0
 59 65  1  0
 59 61  1  0
 60 66  1  0
 61 62  2  0
 61 60  1  0
 63 57  2  0
 64 63  1  0
 64 59  2  0
 65 58  1  0
 66 56  1  0
 68 70  2  0
 69 68  1  0
 71 69  1  0
 72 81  2  0
 72 77  1  0
 73 69  1  0
 73 77  1  0
 74 73  1  0
 75 76  1  0
 75 74  1  0
 76 72  1  0
 77 78  2  0
 78 79  1  0
 80 79  2  0
 81 80  1  0
 82 56  1  0
 82 83  1  0
 82 92  1  0
 83 86  1  0
 84 88  1  0
 84 83  1  0
 85 84  2  0
 88 87  1  0
 90 88  1  0
 90 91  1  0
 90 89  1  0
 92 95  1  1
 92 93  1  0
 94 92  1  0
M  ISO  4   4 100  11 100  54 101  55 101
M  END
>  <TORSDO>  (53) 
F 22

>  <SCORE>  (53) 
-10.176

>  <name>  (53) 
52

>  <ligand_id>  (53) 
52

>  <original_smiles>  (53) 
[H]c1c([H])c([H])c2c(c1[H])C([H])([H])C([H])([H])C([H])([H])C2([H])N([H])C(=O)C1([H])N(C(=O)C([H])(N([H])C(=O)C([H])(N([H])C([H])([H])[H])C([H])([H])[H])C(C([H])([H])[H])(C([H])([H])[H])C([H])([H])[H])C([H])([H])c2c([H])c(OC([H])([H])C([H])(C([H])([H])C([H])([H])c3c([H])c(C([H])([H])[H])c(C([H])([H])[H])c(C(=O)N4C([H])([H])C([H])([H])C([H])([H])C([H])(n5nc(-c6c([H])c([H])c(Oc7c([H])c([H])c(F)c([H])c7F)c([H])c6[H])c(C(=O)N([H])[H])c5N([H])[H])C4([H])[H])c3C([H])([H])C([H])([H])[H])[N+]([H])([H])[H])c([H])c([H])c2C1([H])[H]

>  <smiles>  (53) 
[H]c1c([H])c([H])c2c(c1[H])C([H])([H])C([H])([H])C([H])([H])C2([H])N([H])C(=O)C1([H])N(C(=O)C([H])(N([H])C(=O)C([H])(N([H])C([H])([H])[H])C([H])([H])[H])C(C([H])([H])[H])(C([H])([H])[H])C([H])([H])[H])C([H])([H])c2c([H])c(OC([H])([H])C([H])(C([H])([H])C([H])([H])c3c([H])c(C([H])([H])[H])c(C([H])([H])[H])c(C(=O)N4C([H])([H])C([H])([H])C([H])([H])C([H])(n5nc(-c6c([H])c([H])c(Oc7c([H])c([H])c(F)c([H])c7F)c([H])c6[H])c(C(=O)N([H])[H])c5N([H])[H])C4([H])[H])c3C([H])([H])C([H])([H])[H])[N+]([H])([H])[H])c([H])c([H])c2C1([H])[H]

$$$$
53:0:0
     RDKit          3D

 96104  0  0  1  0  0  0  0  0999 V2000
  -27.9380  -21.4360   20.1550 C   0  0  0  0  0  3  0  0  0  0  0  0
  -28.3390  -20.2400   20.7840 C   0  0  0  0  0  3  0  0  0  0  0  0
  -28.4620  -20.4540   17.9930 C   0  0  0  0  0  3  0  0  0  0  0  0
  -27.9950  -21.5520   18.7490 C   0  0  0  0  0  0  0  0  0  0  0  0
  -28.7740  -19.1310   20.0250 C   0  0  0  0  0  0  0  0  0  0  0  0
  -28.8360  -19.2410   18.6130 C   0  0  0  0  0  0  0  0  0  0  0  0
  -29.2630  -18.0760   17.7340 C   0  0  0  0  0  1  0  0  0  0  0  0
  -26.0260  -22.5330   17.5390 C   0  0  0  0  0  1  0  0  0  0  0  0
  -27.4690  -22.7800   18.0010 C   0  0  0  0  0  3  0  0  0  0  0  0
  -27.5450  -24.0520   18.7620 N   0  0  0  0  0  4  0  0  0  0  0  0
  -26.9750  -24.6960   18.2380 H   0  0  0  0  0  0  0  0  0  0  0  0
  -27.1180  -23.9340   19.6670 H   0  0  0  0  0  0  0  0  0  0  0  0
  -28.8820  -24.6790   18.9050 C   0  0  0  0  0  2  0  0  0  0  0  0
  -28.8150  -26.2250   18.8760 C   0  0  0  0  0  2  0  0  0  0  0  0
  -28.3970  -26.8020   20.1180 O   0  0  0  0  0  0  0  0  0  0  0  0
  -24.6000  -31.9550   23.2410 C   0  0  0  0  0  0  0  0  0  0  0  0
  -27.2190  -27.5180   20.1260 C   0  0  0  0  0  0  0  0  0  0  0  0
  -23.3780  -30.5500   21.6140 C   0  0  0  0  0  3  0  0  0  0  0  0
  -24.8180  -29.0110   20.1810 C   0  0  0  0  0  0  0  0  0  0  0  0
  -25.9020  -30.9050   21.3960 C   0  0  0  0  0  2  0  0  0  0  0  0
  -25.9790  -29.5320   20.7630 C   0  0  0  0  0  0  0  0  0  0  0  0
  -27.1790  -28.7850   20.7490 C   0  0  0  0  0  3  0  0  0  0  0  0
  -26.0330  -27.0030   19.5550 C   0  0  0  0  0  3  0  0  0  0  0  0
  -24.8360  -27.7400   19.5830 C   0  0  0  0  0  3  0  0  0  0  0  0
  -23.5750  -29.8690   20.2340 C   0  0  0  0  0  2  0  0  0  0  0  0
  -24.6450  -31.1530   22.1410 N   0  0  0  0  0  0  0  0  0  0  0  0
  -23.5240  -32.2300   23.7890 O   0  0  0  0  0  0  0  0  0  0  0  0
  -22.7360  -29.5300   22.5810 C   0  0  0  0  0  0  0  0  0  0  0  0
  -21.4120  -29.3410   22.4600 N   0  0  0  0  0  0  0  0  0  0  0  0
  -23.4260  -28.9110   23.3960 O   0  0  0  0  0  0  0  0  0  0  0  0
  -20.9170  -29.8920   21.7710 H   0  0  0  0  0  0  0  0  0  0  0  0
  -18.0460  -28.1380   22.9700 C   0  0  0  0  0  0  0  0  0  0  0  0
  -20.6030  -28.4060   23.2380 C   0  0  0  0  0  3  0  0  0  0  0  0
  -20.7100  -26.9720   22.6730 C   0  0  0  0  0  2  0  0  0  0  0  0
  -19.6080  -26.6370   21.6620 C   0  0  0  0  0  2  0  0  0  0  0  0
  -18.2270  -26.7830   22.3070 C   0  0  0  0  0  2  0  0  0  0  0  0
  -19.1610  -28.9070   23.3950 C   0  0  0  0  0  0  0  0  0  0  0  0
  -18.9400  -30.1750   23.9750 C   0  0  0  0  0  3  0  0  0  0  0  0
  -17.6340  -30.6740   24.1350 C   0  0  0  0  0  3  0  0  0  0  0  0
  -16.5320  -29.9020   23.7300 C   0  0  0  0  0  3  0  0  0  0  0  0
  -16.7390  -28.6360   23.1530 C   0  0  0  0  0  3  0  0  0  0  0  0
  -25.8930  -32.5870   23.8460 C   0  0  0  0  0  3  0  0  0  0  0  0
  -25.5870  -33.9830   24.1820 N   0  0  0  0  0  0  0  0  0  0  0  0
  -25.9130  -35.0370   23.4210 C   0  0  0  0  0  0  0  0  0  0  0  0
  -26.5750  -34.9350   22.3850 O   0  0  0  0  0  0  0  0  0  0  0  0
  -25.0000  -34.1360   24.9880 H   0  0  0  0  0  0  0  0  0  0  0  0
  -24.1800  -36.8260   23.0780 C   0  0  0  0  0  1  0  0  0  0  0  0
  -25.4260  -36.4230   23.8830 C   0  0  0  0  0  3  0  0  0  0  0  0
  -27.5690  -37.3020   24.6980 C   0  0  0  0  0  1  0  0  0  0  0  0
  -26.4550  -37.4790   23.7700 N   0  0  0  0  0  0  0  0  0  0  0  0
  -26.0490  -38.3960   23.9350 H   0  0  0  0  0  0  0  0  0  0  0  0
  -26.4290  -31.8120   25.1110 C   0  0  1  0  0  0  0  0  0  0  0  0
  -25.3520  -31.5680   26.1930 C   0  0  0  0  0  1  0  0  0  0  0  0
  -27.0090  -30.4370   24.7040 C   0  0  0  0  0  1  0  0  0  0  0  0
  -27.5860  -32.6060   25.7620 C   0  0  0  0  0  1  0  0  0  0  0  0
  -29.1270  -17.8370   20.7520 C   0  0  0  0  0  2  0  0  0  0  0  0
  -30.6430  -17.6250   20.9220 C   0  0  0  0  0  2  0  0  0  0  0  0
  -31.0140  -16.4030   21.7870 C   0  0  0  0  0  2  0  0  0  0  0  0
  -30.8320  -14.3620   20.3460 C   0  0  0  0  0  0  0  0  0  0  0  0
  -30.4150  -12.2910   19.0710 C   0  0  0  0  0  2  0  0  0  0  0  0
  -29.4480  -12.5390   17.8990 C   0  0  0  0  0  2  0  0  0  0  0  0
  -27.9840  -12.4170   18.3630 C   0  0  0  0  0  2  0  0  0  0  0  0
  -27.6950  -13.2430   19.6430 C   0  0  0  0  0  3  0  0  0  0  0  0
  -28.7630  -12.9660   20.7230 C   0  0  0  0  0  2  0  0  0  0  0  0
  -30.0930  -13.2420   20.1440 N   0  0  0  0  0  0  0  0  0  0  0  0
  -31.8470  -14.6360   19.6990 O   0  0  0  0  0  0  0  0  0  0  0  0
  -30.3930  -15.1590   21.3290 N   0  0  0  0  0  0  0  0  0  0  0  0
  -29.5720  -14.8440   21.8250 H   0  0  0  0  0  0  0  0  0  0  0  0
  -25.3150  -13.8910   20.3890 C   0  0  0  0  0  0  0  0  0  0  0  0
  -24.2430  -13.1360   20.7820 C   0  0  0  0  0  0  0  0  0  0  0  0
  -24.6820  -11.7770   20.7480 C   0  0  0  0  0  0  0  0  0  0  0  0
  -26.3440  -12.9930   20.1450 N   0  0  0  0  0  0  0  0  0  0  0  0
  -25.9660  -11.7170   20.4150 N   0  0  0  0  0  0  0  0  0  0  0  0
  -23.9430  -10.5260   20.9580 C   0  0  0  0  0  0  0  0  0  0  0  0
  -24.3800   -9.5560   21.8860 C   0  0  0  0  0  3  0  0  0  0  0  0
  -23.6410   -8.3690   22.0830 C   0  0  0  0  0  3  0  0  0  0  0  0
  -22.4510   -8.1450   21.3510 C   0  0  0  0  0  0  0  0  0  0  0  0
  -22.0330   -9.1030   20.4120 C   0  0  0  0  0  3  0  0  0  0  0  0
  -22.7720  -10.2810   20.2130 C   0  0  0  0  0  3  0  0  0  0  0  0
  -21.6830   -7.0100   21.4570 O   0  0  0  0  0  0  0  0  0  0  0  0
  -21.6450   -6.2720   22.6120 C   0  0  0  0  0  0  0  0  0  0  0  0
  -21.2640   -6.8410   23.8480 C   0  0  0  0  0  3  0  0  0  0  0  0
  -21.1720   -6.0300   24.9970 C   0  0  0  0  0  3  0  0  0  0  0  0
  -21.4500   -4.6530   24.9130 C   0  0  0  0  0  0  0  0  0  0  0  0
  -21.8230   -4.0840   23.6820 C   0  0  0  0  0  3  0  0  0  0  0  0
  -21.9170   -4.8910   22.5350 C   0  0  0  0  0  0  0  0  0  0  0  0
  -22.2570   -4.3340   21.3470 F   0  0  0  0  0  0  0  0  0  0  0  0
  -21.3530   -3.8730   26.0140 F   0  0  0  0  0  0  0  0  0  0  0  0
  -22.8570  -13.6340   21.0810 C   0  0  0  0  0  0  0  0  0  0  0  0
  -22.1370  -12.9530   21.9660 N   0  0  0  0  0  0  0  0  0  0  0  0
  -22.4230  -14.6630   20.5650 O   0  0  0  0  0  0  0  0  0  0  0  0
  -22.5020  -12.1210   22.4060 H   0  0  0  0  0  0  0  0  0  0  0  0
  -21.2100  -13.2700   22.2070 H   0  0  0  0  0  0  0  0  0  0  0  0
  -25.4950  -15.2580   20.2030 N   0  0  0  0  0  0  0  0  0  0  0  0
  -24.7420  -15.9250   20.3260 H   0  0  0  0  0  0  0  0  0  0  0  0
  -26.3500  -15.6830   19.8660 H   0  0  0  0  0  0  0  0  0  0  0  0
  1  2  1  0
  3  6  2  0
  3  4  1  0
  4  1  2  0
  5 56  1  0
  5  2  2  0
  6  5  1  0
  7  6  1  0
  9  8  1  0
  9  4  1  0
  9 10  1  0
 10 13  1  0
 10 12  1  0
 11 10  1  0
 14 13  1  0
 14 15  1  0
 15 17  1  0
 16 27  2  0
 17 22  1  0
 18 26  1  0
 18 28  1  0
 19 25  1  0
 19 21  1  0
 20 26  1  0
 21 20  1  0
 22 21  2  0
 23 24  1  0
 23 17  2  0
 24 19  2  0
 25 18  1  0
 26 16  1  0
 28 30  2  0
 29 28  1  0
 31 29  1  0
 32 41  2  0
 32 37  1  0
 33 29  1  0
 33 37  1  0
 34 33  1  0
 35 36  1  0
 35 34  1  0
 36 32  1  0
 37 38  2  0
 38 39  1  0
 40 39  2  0
 41 40  1  0
 42 16  1  0
 42 43  1  0
 42 52  1  0
 43 46  1  0
 44 48  1  0
 44 43  1  0
 45 44  2  0
 48 47  1  0
 50 48  1  0
 50 51  1  0
 50 49  1  0
 52 55  1  1
 52 53  1  0
 54 52  1  0
 56 57  1  0
 57 58  1  0
 59 67  1  0
 60 65  1  0
 61 62  1  0
 61 60  1  0
 63 62  1  0
 63 72  1  0
 63 64  1  0
 65 59  1  0
 65 64  1  0
 66 59  2  0
 67 58  1  0
 67 68  1  0
 69 70  2  0
 70 89  1  0
 71 70  1  0
 71 74  1  0
 72 69  1  0
 72 73  1  0
 73 71  2  0
 74 75  1  0
 75 76  2  0
 77 80  1  0
 77 76  1  0
 78 77  2  0
 79 78  1  0
 79 74  2  0
 80 81  1  0
 81 82  1  0
 82 83  2  0
 84 83  1  0
 84 88  1  0
 85 84  2  0
 86 81  2  0
 86 85  1  0
 87 86  1  0
 89 90  1  0
 90 93  1  0
 90 92  1  0
 91 89  2  0
 94 95  1  0
 94 69  1  0
 96 94  1  0
M  ISO  4  14 101  15 101  59 100  67 100
M  END
>  <TORSDO>  (54) 
F 23

>  <SCORE>  (54) 
-12.802

>  <name>  (54) 
53

>  <ligand_id>  (54) 
53

>  <original_smiles>  (54) 
[H]c1c([H])c([H])c2c(c1[H])C([H])([H])C([H])([H])C([H])([H])C2([H])N([H])C(=O)C1([H])N(C(=O)C([H])(N([H])C(=O)C([H])(N([H])C([H])([H])[H])C([H])([H])[H])C(C([H])([H])[H])(C([H])([H])[H])C([H])([H])[H])C([H])([H])c2c([H])c(OC([H])([H])C([H])([H])[N+]([H])([H])C([H])(c3c([H])c([H])c(C([H])([H])C([H])([H])C([H])([H])N([H])C(=O)N4C([H])([H])C([H])([H])C([H])([H])C([H])(n5nc(-c6c([H])c([H])c(Oc7c([H])c([H])c(F)c([H])c7F)c([H])c6[H])c(C(=O)N([H])[H])c5N([H])[H])C4([H])[H])c(C([H])([H])[H])c3[H])C([H])([H])[H])c([H])c([H])c2C1([H])[H]

>  <smiles>  (54) 
[H]c1c([H])c([H])c2c(c1[H])C([H])([H])C([H])([H])C([H])([H])C2([H])N([H])C(=O)C1([H])N(C(=O)C([H])(N([H])C(=O)C([H])(N([H])C([H])([H])[H])C([H])([H])[H])C(C([H])([H])[H])(C([H])([H])[H])C([H])([H])[H])C([H])([H])c2c([H])c(OC([H])([H])C([H])([H])[N+]([H])([H])C([H])(c3c([H])c([H])c(C([H])([H])C([H])([H])C([H])([H])N([H])C(=O)N4C([H])([H])C([H])([H])C([H])([H])C([H])(n5nc(-c6c([H])c([H])c(Oc7c([H])c([H])c(F)c([H])c7F)c([H])c6[H])c(C(=O)N([H])[H])c5N([H])[H])C4([H])[H])c(C([H])([H])[H])c3[H])C([H])([H])[H])c([H])c([H])c2C1([H])[H]

$$$$
54:0:0
     RDKit          3D

 90 98  0  0  1  0  0  0  0  0999 V2000
  -30.1740  -23.5110   19.7930 C   0  0  0  0  0  3  0  0  0  0  0  0
  -31.0640  -22.4360   19.5640 C   0  0  0  0  0  3  0  0  0  0  0  0
  -28.5410  -21.8550   20.4540 C   0  0  0  0  0  3  0  0  0  0  0  0
  -28.8580  -23.2970   20.2300 C   0  0  0  0  0  0  0  0  0  0  0  0
  -29.4480  -20.6840   20.2440 C   0  0  0  0  0  0  0  0  0  0  0  0
  -30.7280  -21.0610   19.7540 C   0  0  0  0  0  0  0  0  0  0  0  0
  -32.7030  -20.3470   18.5850 C   0  0  0  0  0  1  0  0  0  0  0  0
  -31.6220  -20.0540   19.4650 O   0  0  0  0  0  0  0  0  0  0  0  0
  -29.0910  -19.0670   20.4620 C   0  0  0  0  0  3  0  0  0  0  0  0
  -30.1370  -17.7290   20.3220 C   0  0  0  0  0  3  0  0  0  0  0  0
  -30.5190  -14.9960   20.2900 C   0  0  0  0  0  0  0  0  0  0  0  0
  -30.3870  -12.6480   19.3320 C   0  0  0  0  0  2  0  0  0  0  0  0
  -29.4450  -12.6200   18.1040 C   0  0  0  0  0  2  0  0  0  0  0  0
  -27.9830  -12.4120   18.5430 C   0  0  0  0  0  2  0  0  0  0  0  0
  -27.5900  -13.3110   19.7440 C   0  0  0  0  0  3  0  0  0  0  0  0
  -28.6580  -13.3170   20.8600 C   0  0  0  0  0  2  0  0  0  0  0  0
  -29.9200  -13.7370   20.2390 N   0  0  0  0  0  0  0  0  0  0  0  0
  -31.7150  -15.0560   19.9850 O   0  0  0  0  0  0  0  0  0  0  0  0
  -29.7600  -16.1900   20.4720 N   0  0  0  0  0  0  0  0  0  0  0  0
  -28.7870  -16.0180   20.6800 H   0  0  0  0  0  0  0  0  0  0  0  0
  -25.2110  -13.8640   20.5000 C   0  0  0  0  0  0  0  0  0  0  0  0
  -24.1570  -13.0800   20.8770 C   0  0  0  0  0  0  0  0  0  0  0  0
  -24.6320  -11.7330   20.8390 C   0  0  0  0  0  0  0  0  0  0  0  0
  -26.2600  -12.9960   20.2520 N   0  0  0  0  0  0  0  0  0  0  0  0
  -25.9220  -11.7080   20.5210 N   0  0  0  0  0  0  0  0  0  0  0  0
  -23.9160  -10.4650   21.0310 C   0  0  0  0  0  0  0  0  0  0  0  0
  -24.3560   -9.4990   21.9620 C   0  0  0  0  0  3  0  0  0  0  0  0
  -23.6380   -8.2980   22.1420 C   0  0  0  0  0  3  0  0  0  0  0  0
  -22.4630   -8.0530   21.3910 C   0  0  0  0  0  0  0  0  0  0  0  0
  -22.0420   -9.0070   20.4480 C   0  0  0  0  0  3  0  0  0  0  0  0
  -22.7630  -10.2000   20.2660 C   0  0  0  0  0  3  0  0  0  0  0  0
  -21.7150   -6.9040   21.4810 O   0  0  0  0  0  0  0  0  0  0  0  0
  -21.6710   -6.1630   22.6340 C   0  0  0  0  0  0  0  0  0  0  0  0
  -21.2360   -6.7140   23.8580 C   0  0  0  0  0  3  0  0  0  0  0  0
  -21.1400   -5.8980   25.0030 C   0  0  0  0  0  3  0  0  0  0  0  0
  -21.4680   -4.5310   24.9240 C   0  0  0  0  0  0  0  0  0  0  0  0
  -21.8970   -3.9800   23.7040 C   0  0  0  0  0  3  0  0  0  0  0  0
  -21.9950   -4.7930   22.5620 C   0  0  0  0  0  0  0  0  0  0  0  0
  -22.3880   -4.2510   21.3840 F   0  0  0  0  0  0  0  0  0  0  0  0
  -21.3700   -3.7440   26.0210 F   0  0  0  0  0  0  0  0  0  0  0  0
  -22.7590  -13.5460   21.1580 C   0  0  0  0  0  0  0  0  0  0  0  0
  -22.0450  -12.8440   22.0310 N   0  0  0  0  0  0  0  0  0  0  0  0
  -22.3090  -14.5670   20.6400 O   0  0  0  0  0  0  0  0  0  0  0  0
  -22.4240  -12.0170   22.4690 H   0  0  0  0  0  0  0  0  0  0  0  0
  -21.1060  -13.1360   22.2650 H   0  0  0  0  0  0  0  0  0  0  0  0
  -25.3590  -15.2370   20.3200 N   0  0  0  0  0  0  0  0  0  0  0  0
  -24.5740  -15.8730   20.4150 H   0  0  0  0  0  0  0  0  0  0  0  0
  -26.1820  -15.6800   19.9350 H   0  0  0  0  0  0  0  0  0  0  0  0
  -27.8470  -24.6050   20.3390 C   0  0  0  0  0  2  0  0  0  0  0  0
  -28.2160  -26.1300   20.2530 O   0  0  0  0  0  0  0  0  0  0  0  0
  -24.6490  -31.8910   23.2430 C   0  0  0  0  0  0  0  0  0  0  0  0
  -27.1800  -27.1450   20.2030 C   0  0  0  0  0  0  0  0  0  0  0  0
  -23.4360  -30.5040   21.6090 C   0  0  0  0  0  3  0  0  0  0  0  0
  -24.8690  -28.9260   20.1760 C   0  0  0  0  0  0  0  0  0  0  0  0
  -25.9940  -30.7480   21.4360 C   0  0  0  0  0  2  0  0  0  0  0  0
  -26.0570  -29.3560   20.7830 C   0  0  0  0  0  0  0  0  0  0  0  0
  -27.2130  -28.4840   20.7770 C   0  0  0  0  0  3  0  0  0  0  0  0
  -25.9680  -26.8330   19.5490 C   0  0  0  0  0  3  0  0  0  0  0  0
  -24.8400  -27.6770   19.5410 C   0  0  0  0  0  3  0  0  0  0  0  0
  -23.6490  -29.8320   20.2280 C   0  0  0  0  0  2  0  0  0  0  0  0
  -24.7140  -31.0700   22.1500 N   0  0  0  0  0  0  0  0  0  0  0  0
  -23.5660  -32.1820   23.7730 O   0  0  0  0  0  0  0  0  0  0  0  0
  -22.7570  -29.4960   22.5720 C   0  0  0  0  0  0  0  0  0  0  0  0
  -21.4280  -29.3300   22.4500 N   0  0  0  0  0  0  0  0  0  0  0  0
  -23.4300  -28.8680   23.3930 O   0  0  0  0  0  0  0  0  0  0  0  0
  -20.9420  -29.8880   21.7610 H   0  0  0  0  0  0  0  0  0  0  0  0
  -18.0440  -28.1370   22.9590 C   0  0  0  0  0  0  0  0  0  0  0  0
  -20.6040  -28.3960   23.2230 C   0  0  0  0  0  3  0  0  0  0  0  0
  -20.7020  -26.9620   22.6530 C   0  0  0  0  0  2  0  0  0  0  0  0
  -19.5990  -26.6380   21.6410 C   0  0  0  0  0  2  0  0  0  0  0  0
  -18.2170  -26.7880   22.2840 C   0  0  0  0  0  2  0  0  0  0  0  0
  -19.1640  -28.9000   23.3850 C   0  0  0  0  0  0  0  0  0  0  0  0
  -18.9460  -30.1630   23.9750 C   0  0  0  0  0  3  0  0  0  0  0  0
  -17.6410  -30.6650   24.1440 C   0  0  0  0  0  3  0  0  0  0  0  0
  -16.5360  -29.8990   23.7320 C   0  0  0  0  0  3  0  0  0  0  0  0
  -16.7380  -28.6370   23.1460 C   0  0  0  0  0  3  0  0  0  0  0  0
  -25.9330  -32.5200   23.8650 C   0  0  0  0  0  3  0  0  0  0  0  0
  -26.4490  -31.7430   25.1390 C   0  0  1  0  0  0  0  0  0  0  0  0
  -25.3580  -31.5090   26.2110 C   0  0  0  0  0  1  0  0  0  0  0  0
  -27.0210  -30.3630   24.7430 C   0  0  0  0  0  1  0  0  0  0  0  0
  -27.6070  -32.5280   25.7970 C   0  0  0  0  0  1  0  0  0  0  0  0
  -25.6240  -33.9180   24.2120 N   0  0  0  0  0  0  0  0  0  0  0  0
  -25.9240  -34.9800   23.4510 C   0  0  0  0  0  0  0  0  0  0  0  0
  -26.5580  -34.8880   22.3970 O   0  0  0  0  0  0  0  0  0  0  0  0
  -25.0630  -34.0640   25.0370 H   0  0  0  0  0  0  0  0  0  0  0  0
  -24.1620  -36.7560   23.1880 C   0  0  0  0  0  1  0  0  0  0  0  0
  -25.4470  -36.3630   23.9360 C   0  0  0  0  0  3  0  0  0  0  0  0
  -27.6100  -37.2690   24.6620 C   0  0  0  0  0  1  0  0  0  0  0  0
  -26.4610  -37.4270   23.7740 N   0  0  0  0  0  0  0  0  0  0  0  0
  -26.0540  -38.3440   23.9420 H   0  0  0  0  0  0  0  0  0  0  0  0
  1  4  1  0
  2  6  1  0
  2  1  2  0
  4 49  1  0
  4  3  2  0
  5  3  1  0
  5  9  1  0
  6  5  2  0
  7  8  1  0
  8  6  1  0
 10  9  2  0
 10 19  1  0
 11 19  1  0
 12 17  1  0
 13 14  1  0
 13 12  1  0
 15 14  1  0
 15 24  1  0
 15 16  1  0
 17 11  1  0
 17 16  1  0
 18 11  2  0
 19 20  1  0
 21 22  2  0
 22 41  1  0
 23 22  1  0
 23 26  1  0
 24 21  1  0
 24 25  1  0
 25 23  2  0
 26 27  1  0
 27 28  2  0
 29 32  1  0
 29 28  1  0
 30 29  2  0
 31 30  1  0
 31 26  2  0
 32 33  1  0
 33 34  1  0
 34 35  2  0
 36 35  1  0
 36 40  1  0
 37 36  2  0
 38 33  2  0
 38 37  1  0
 39 38  1  0
 41 42  1  0
 42 45  1  0
 42 44  1  0
 43 41  2  0
 46 47  1  0
 46 21  1  0
 48 46  1  0
 50 49  1  0
 51 62  2  0
 52 50  1  0
 52 57  1  0
 53 61  1  0
 53 63  1  0
 54 60  1  0
 54 56  1  0
 55 61  1  0
 56 55  1  0
 57 56  2  0
 58 52  2  0
 59 58  1  0
 59 54  2  0
 60 53  1  0
 61 51  1  0
 63 65  2  0
 64 63  1  0
 66 64  1  0
 67 76  2  0
 67 72  1  0
 68 64  1  0
 68 72  1  0
 69 68  1  0
 70 71  1  0
 70 69  1  0
 71 67  1  0
 72 73  2  0
 73 74  1  0
 75 74  2  0
 76 75  1  0
 77 51  1  0
 77 82  1  0
 77 78  1  0
 78 81  1  1
 78 79  1  0
 80 78  1  0
 82 85  1  0
 83 87  1  0
 83 82  1  0
 84 83  2  0
 87 86  1  0
 89 87  1  0
 89 90  1  0
 89 88  1  0
M  ISO  4  11 100  19 100  49 101  50 101
M  END
>  <TORSDO>  (55) 
F 20

>  <SCORE>  (55) 
-14.574

>  <name>  (55) 
54

>  <ligand_id>  (55) 
54

>  <original_smiles>  (55) 
[H]c1c([H])c([H])c2c(c1[H])C([H])([H])C([H])([H])C([H])([H])C2([H])N([H])C(=O)C1([H])N(C(=O)C([H])(N([H])C(=O)C([H])(N([H])C([H])([H])[H])C([H])([H])[H])C(C([H])([H])[H])(C([H])([H])[H])C([H])([H])[H])C([H])([H])c2c([H])c(OC([H])([H])c3c([H])c([H])c(OC([H])([H])[H])c(C([H])([H])C([H])([H])N([H])C(=O)N4C([H])([H])C([H])([H])C([H])([H])C([H])(n5nc(-c6c([H])c([H])c(Oc7c([H])c([H])c(F)c([H])c7F)c([H])c6[H])c(C(=O)N([H])[H])c5N([H])[H])C4([H])[H])c3[H])c([H])c([H])c2C1([H])[H]

>  <smiles>  (55) 
[H]c1c([H])c([H])c2c(c1[H])C([H])([H])C([H])([H])C([H])([H])C2([H])N([H])C(=O)C1([H])N(C(=O)C([H])(N([H])C(=O)C([H])(N([H])C([H])([H])[H])C([H])([H])[H])C(C([H])([H])[H])(C([H])([H])[H])C([H])([H])[H])C([H])([H])c2c([H])c(OC([H])([H])c3c([H])c([H])c(OC([H])([H])[H])c(C([H])([H])C([H])([H])N([H])C(=O)N4C([H])([H])C([H])([H])C([H])([H])C([H])(n5nc(-c6c([H])c([H])c(Oc7c([H])c([H])c(F)c([H])c7F)c([H])c6[H])c(C(=O)N([H])[H])c5N([H])[H])C4([H])[H])c3[H])c([H])c([H])c2C1([H])[H]

$$$$
55:0:0
     RDKit          3D

 89 97  0  0  1  0  0  0  0  0999 V2000
  -28.9660  -19.9200   18.8540 C   0  0  0  0  0  3  0  0  0  0  0  0
  -29.3040  -18.4350   18.9030 C   0  0  0  0  0  3  0  0  0  0  0  0
  -29.3110  -21.0350   19.7720 C   0  0  0  0  0  0  0  0  0  0  0  0
  -30.0800  -17.6390   19.8860 C   0  0  0  0  0  0  0  0  0  0  0  0
  -30.0990  -20.2400   20.7710 C   0  0  0  0  0  0  0  0  0  0  0  0
  -30.4500  -18.7390   20.8190 C   0  0  0  0  0  0  0  0  0  0  0  0
  -30.6420  -21.0840   21.9270 C   0  0  0  0  0  1  0  0  0  0  0  0
  -30.7080  -15.9940   19.7680 C   0  0  0  0  0  0  0  0  0  0  0  0
  -30.7180  -13.4580   18.9960 C   0  0  0  0  0  2  0  0  0  0  0  0
  -29.7710  -13.0940   17.8200 C   0  0  0  0  0  2  0  0  0  0  0  0
  -28.3650  -12.7580   18.3390 C   0  0  0  0  0  2  0  0  0  0  0  0
  -27.9120  -13.7640   19.4220 C   0  0  0  0  0  3  0  0  0  0  0  0
  -28.9910  -14.0770   20.4830 C   0  0  0  0  0  2  0  0  0  0  0  0
  -30.1560  -14.6490   19.7750 N   0  0  0  0  0  0  0  0  0  0  0  0
  -31.9190  -15.8900   19.5000 O   0  0  0  0  0  0  0  0  0  0  0  0
  -25.6210  -14.2860   20.3850 C   0  0  0  0  0  0  0  0  0  0  0  0
  -24.5760  -13.5000   20.7800 C   0  0  0  0  0  0  0  0  0  0  0  0
  -25.0190  -12.1490   20.6400 C   0  0  0  0  0  0  0  0  0  0  0  0
  -26.6290  -13.4160   20.0150 N   0  0  0  0  0  0  0  0  0  0  0  0
  -26.2870  -12.1190   20.2380 N   0  0  0  0  0  0  0  0  0  0  0  0
  -24.2840  -10.8860   20.8070 C   0  0  0  0  0  0  0  0  0  0  0  0
  -24.6940   -9.9080   21.7400 C   0  0  0  0  0  3  0  0  0  0  0  0
  -23.9540   -8.7150   21.8980 C   0  0  0  0  0  3  0  0  0  0  0  0
  -22.7930   -8.4920   21.1230 C   0  0  0  0  0  0  0  0  0  0  0  0
  -22.4020   -9.4580   20.1800 C   0  0  0  0  0  3  0  0  0  0  0  0
  -23.1410  -10.6420   20.0200 C   0  0  0  0  0  3  0  0  0  0  0  0
  -22.0270   -7.3520   21.1900 O   0  0  0  0  0  0  0  0  0  0  0  0
  -21.8550   -6.6690   22.3680 C   0  0  0  0  0  0  0  0  0  0  0  0
  -21.2380   -7.2620   23.4910 C   0  0  0  0  0  3  0  0  0  0  0  0
  -21.0180   -6.5030   24.6570 C   0  0  0  0  0  3  0  0  0  0  0  0
  -21.4040   -5.1500   24.7000 C   0  0  0  0  0  0  0  0  0  0  0  0
  -22.0130   -4.5550   23.5810 C   0  0  0  0  0  3  0  0  0  0  0  0
  -22.2340   -5.3120   22.4170 C   0  0  0  0  0  0  0  0  0  0  0  0
  -22.8020   -4.7280   21.3340 F   0  0  0  0  0  0  0  0  0  0  0  0
  -21.1870   -4.4170   25.8170 F   0  0  0  0  0  0  0  0  0  0  0  0
  -23.2070  -13.9790   21.1660 C   0  0  0  0  0  0  0  0  0  0  0  0
  -22.5300  -13.2520   22.0470 N   0  0  0  0  0  0  0  0  0  0  0  0
  -22.7520  -15.0320   20.7220 O   0  0  0  0  0  0  0  0  0  0  0  0
  -22.9150  -12.3990   22.4250 H   0  0  0  0  0  0  0  0  0  0  0  0
  -21.6150  -13.5540   22.3490 H   0  0  0  0  0  0  0  0  0  0  0  0
  -25.7940  -15.6620   20.2780 N   0  0  0  0  0  0  0  0  0  0  0  0
  -25.0530  -16.3210   20.4920 H   0  0  0  0  0  0  0  0  0  0  0  0
  -26.6360  -16.1120   19.9390 H   0  0  0  0  0  0  0  0  0  0  0  0
  -29.2200  -22.8520   19.5920 C   0  0  0  0  0  0  0  0  0  0  0  0
  -30.3580  -23.3200   19.4910 O   0  0  0  0  0  0  0  0  0  0  0  0
  -28.0390  -24.2510   19.5390 C   0  0  0  0  0  2  0  0  0  0  0  0
  -28.2470  -25.9680   19.6800 O   0  0  0  0  0  0  0  0  0  0  0  0
  -24.6580  -31.8510   23.1380 C   0  0  0  0  0  0  0  0  0  0  0  0
  -27.2360  -27.1250   19.7290 C   0  0  0  0  0  0  0  0  0  0  0  0
  -23.4560  -30.5330   21.4460 C   0  0  0  0  0  3  0  0  0  0  0  0
  -24.9030  -29.0430   19.8770 C   0  0  0  0  0  0  0  0  0  0  0  0
  -26.0200  -30.7830   21.2490 C   0  0  0  0  0  2  0  0  0  0  0  0
  -26.1060  -29.4070   20.4950 C   0  0  0  0  0  0  0  0  0  0  0  0
  -27.2570  -28.4760   20.3920 C   0  0  0  0  0  3  0  0  0  0  0  0
  -25.9930  -26.9580   19.0700 C   0  0  0  0  0  3  0  0  0  0  0  0
  -24.8810  -27.8460   19.1410 C   0  0  0  0  0  3  0  0  0  0  0  0
  -23.6680  -29.9430   20.0230 C   0  0  0  0  0  2  0  0  0  0  0  0
  -24.7360  -31.0850   21.9980 N   0  0  0  0  0  0  0  0  0  0  0  0
  -23.5750  -32.0780   23.7050 O   0  0  0  0  0  0  0  0  0  0  0  0
  -22.8070  -29.4640   22.3670 C   0  0  0  0  0  0  0  0  0  0  0  0
  -21.4860  -29.2370   22.2350 N   0  0  0  0  0  0  0  0  0  0  0  0
  -23.5030  -28.8400   23.1710 O   0  0  0  0  0  0  0  0  0  0  0  0
  -20.9720  -29.7950   21.5680 H   0  0  0  0  0  0  0  0  0  0  0  0
  -18.1830  -27.7860   22.6640 C   0  0  0  0  0  0  0  0  0  0  0  0
  -20.7180  -28.2190   22.9620 C   0  0  0  0  0  3  0  0  0  0  0  0
  -20.9200  -26.8190   22.3360 C   0  0  0  0  0  2  0  0  0  0  0  0
  -19.8520  -26.4610   21.2980 C   0  0  0  0  0  2  0  0  0  0  0  0
  -18.4580  -26.4830   21.9320 C   0  0  0  0  0  2  0  0  0  0  0  0
  -19.2430  -28.6090   23.1330 C   0  0  0  0  0  0  0  0  0  0  0  0
  -18.9300  -29.8230   23.7800 C   0  0  0  0  0  3  0  0  0  0  0  0
  -17.5910  -30.2190   23.9610 C   0  0  0  0  0  3  0  0  0  0  0  0
  -16.5450  -29.3960   23.5050 C   0  0  0  0  0  3  0  0  0  0  0  0
  -16.8430  -28.1800   22.8630 C   0  0  0  0  0  3  0  0  0  0  0  0
  -25.9240  -32.4940   23.7810 C   0  0  0  0  0  3  0  0  0  0  0  0
  -26.4430  -31.7030   25.0460 C   0  0  1  0  0  0  0  0  0  0  0  0
  -25.3510  -31.4430   26.1110 C   0  0  0  0  0  1  0  0  0  0  0  0
  -27.0340  -30.3350   24.6420 C   0  0  0  0  0  1  0  0  0  0  0  0
  -27.5900  -32.4920   25.7220 C   0  0  0  0  0  1  0  0  0  0  0  0
  -25.5930  -33.8810   24.1600 N   0  0  0  0  0  0  0  0  0  0  0  0
  -25.8760  -34.9690   23.4290 C   0  0  0  0  0  0  0  0  0  0  0  0
  -26.5030  -34.9100   22.3680 O   0  0  0  0  0  0  0  0  0  0  0  0
  -25.0290  -33.9970   24.9890 H   0  0  0  0  0  0  0  0  0  0  0  0
  -24.0940  -36.7400   23.2380 C   0  0  0  0  0  1  0  0  0  0  0  0
  -25.3920  -36.3360   23.9570 C   0  0  0  0  0  3  0  0  0  0  0  0
  -27.5460  -37.2630   24.6900 C   0  0  0  0  0  1  0  0  0  0  0  0
  -26.3930  -37.4160   23.8060 N   0  0  0  0  0  0  0  0  0  0  0  0
  -25.9740  -38.3240   23.9860 H   0  0  0  0  0  0  0  0  0  0  0  0
  -32.8410  -18.4580   21.6710 C   0  0  0  0  0  1  0  0  0  0  0  0
  -31.3470  -18.2540   21.9640 C   0  0  0  0  0  2  0  0  0  0  0  0
  1  2  2  0
  1  3  1  0
  2  4  1  0
  3  5  2  0
  4  6  2  0
  5  6  1  0
  5  7  1  0
  6 89  1  0
  8 14  1  0
  8  4  1  0
  9 14  1  0
 10 11  1  0
 10  9  1  0
 12 11  1  0
 12 19  1  0
 12 13  1  0
 14 13  1  0
 15  8  2  0
 16 17  2  0
 17 36  1  0
 18 17  1  0
 18 21  1  0
 19 20  1  0
 19 16  1  0
 20 18  2  0
 21 22  1  0
 22 23  2  0
 24 27  1  0
 24 23  1  0
 25 24  2  0
 26 25  1  0
 26 21  2  0
 27 28  1  0
 28 33  2  0
 28 29  1  0
 29 30  2  0
 30 31  1  0
 31 35  1  0
 32 31  2  0
 33 32  1  0
 34 33  1  0
 36 37  1  0
 37 40  1  0
 37 39  1  0
 38 36  2  0
 41 16  1  0
 41 42  1  0
 43 41  1  0
 44  3  1  0
 45 44  2  0
 46 44  1  0
 46 47  1  0
 47 49  1  0
 48 59  2  0
 49 54  1  0
 50 58  1  0
 50 60  1  0
 51 57  1  0
 51 53  1  0
 52 58  1  0
 53 52  1  0
 54 53  2  0
 55 56  1  0
 55 49  2  0
 56 51  2  0
 57 50  1  0
 58 48  1  0
 60 62  2  0
 61 60  1  0
 63 61  1  0
 64 73  2  0
 64 69  1  0
 65 61  1  0
 65 69  1  0
 66 65  1  0
 67 68  1  0
 67 66  1  0
 68 64  1  0
 69 70  2  0
 70 71  1  0
 72 71  2  0
 73 72  1  0
 74 48  1  0
 74 79  1  0
 74 75  1  0
 75 78  1  1
 75 76  1  0
 77 75  1  0
 79 82  1  0
 80 84  1  0
 80 79  1  0
 81 80  2  0
 84 83  1  0
 86 84  1  0
 86 87  1  0
 86 85  1  0
 88 89  1  0
M  ISO  4   4 100   8 100  46 101  47 101
M  END
>  <TORSDO>  (56) 
F 19

>  <SCORE>  (56) 
-14.896

>  <name>  (56) 
55

>  <ligand_id>  (56) 
55

>  <original_smiles>  (56) 
[H]c1c([H])c([H])c2c(c1[H])C([H])([H])C([H])([H])C([H])([H])C2([H])N([H])C(=O)C1([H])N(C(=O)C([H])(N([H])C(=O)C([H])(N([H])C([H])([H])[H])C([H])([H])[H])C(C([H])([H])[H])(C([H])([H])[H])C([H])([H])[H])C([H])([H])c2c([H])c(OC([H])([H])C(=O)c3c([H])c([H])c(C(=O)N4C([H])([H])C([H])([H])C([H])([H])C([H])(n5nc(-c6c([H])c([H])c(Oc7c([H])c([H])c(F)c([H])c7F)c([H])c6[H])c(C(=O)N([H])[H])c5N([H])[H])C4([H])[H])c(C([H])([H])C([H])([H])[H])c3C([H])([H])[H])c([H])c([H])c2C1([H])[H]

>  <smiles>  (56) 
[H]c1c([H])c([H])c2c(c1[H])C([H])([H])C([H])([H])C([H])([H])C2([H])N([H])C(=O)C1([H])N(C(=O)C([H])(N([H])C(=O)C([H])(N([H])C([H])([H])[H])C([H])([H])[H])C(C([H])([H])[H])(C([H])([H])[H])C([H])([H])[H])C([H])([H])c2c([H])c(OC([H])([H])C(=O)c3c([H])c([H])c(C(=O)N4C([H])([H])C([H])([H])C([H])([H])C([H])(n5nc(-c6c([H])c([H])c(Oc7c([H])c([H])c(F)c([H])c7F)c([H])c6[H])c(C(=O)N([H])[H])c5N([H])[H])C4([H])[H])c(C([H])([H])C([H])([H])[H])c3C([H])([H])[H])c([H])c([H])c2C1([H])[H]

$$$$
56:0:0
     RDKit          3D

 90 98  0  0  1  0  0  0  0  0999 V2000
  -28.3650  -18.8340   19.1800 C   0  0  0  0  0  3  0  0  0  0  0  0
  -27.6760  -19.9130   18.5830 C   0  0  0  0  0  3  0  0  0  0  0  0
  -29.4330  -20.4770   20.6040 C   0  0  0  0  0  3  0  0  0  0  0  0
  -29.2980  -19.0420   20.2080 C   0  0  0  0  0  0  0  0  0  0  0  0
  -27.8440  -21.2730   18.9640 C   0  0  0  0  0  0  0  0  0  0  0  0
  -28.7190  -21.6560   20.0260 C   0  0  0  0  0  0  0  0  0  0  0  0
  -27.0640  -22.2920   18.1530 C   0  0  0  0  0  1  0  0  0  0  0  0
  -31.6240  -17.9920   20.5450 C   0  0  0  0  0  1  0  0  0  0  0  0
  -30.1300  -17.7290   20.7740 C   0  0  0  0  0  0  0  0  0  0  0  0
  -30.5470  -14.9840   20.3780 C   0  0  0  0  0  0  0  0  0  0  0  0
  -30.4120  -12.6340   19.4250 C   0  0  0  0  0  2  0  0  0  0  0  0
  -29.4720  -12.5730   18.2000 C   0  0  0  0  0  2  0  0  0  0  0  0
  -28.0140  -12.3560   18.6460 C   0  0  0  0  0  2  0  0  0  0  0  0
  -27.6110  -13.2850   19.8210 C   0  0  0  0  0  3  0  0  0  0  0  0
  -28.6740  -13.3090   20.9390 C   0  0  0  0  0  2  0  0  0  0  0  0
  -29.9340  -13.7310   20.3140 N   0  0  0  0  0  0  0  0  0  0  0  0
  -31.7560  -15.0090   20.1220 O   0  0  0  0  0  0  0  0  0  0  0  0
  -29.7930  -16.1870   20.5340 N   0  0  0  0  0  4  0  0  0  0  0  0
  -28.8100  -15.9920   20.6450 H   0  0  0  0  0  0  0  0  0  0  0  0
  -25.2330  -13.8410   20.5800 C   0  0  0  0  0  0  0  0  0  0  0  0
  -24.1770  -13.0550   20.9520 C   0  0  0  0  0  0  0  0  0  0  0  0
  -24.6520  -11.7080   20.9070 C   0  0  0  0  0  0  0  0  0  0  0  0
  -26.2800  -12.9720   20.3310 N   0  0  0  0  0  0  0  0  0  0  0  0
  -25.9420  -11.6850   20.5960 N   0  0  0  0  0  0  0  0  0  0  0  0
  -23.9360  -10.4380   21.0890 C   0  0  0  0  0  0  0  0  0  0  0  0
  -24.3810   -9.4610   22.0090 C   0  0  0  0  0  3  0  0  0  0  0  0
  -23.6610   -8.2590   22.1810 C   0  0  0  0  0  3  0  0  0  0  0  0
  -22.4840   -8.0240   21.4340 C   0  0  0  0  0  0  0  0  0  0  0  0
  -22.0570   -8.9880   20.5050 C   0  0  0  0  0  3  0  0  0  0  0  0
  -22.7770  -10.1830   20.3310 C   0  0  0  0  0  3  0  0  0  0  0  0
  -21.7350   -6.8740   21.5150 O   0  0  0  0  0  0  0  0  0  0  0  0
  -21.7000   -6.1180   22.6590 C   0  0  0  0  0  0  0  0  0  0  0  0
  -21.2710   -6.6540   23.8940 C   0  0  0  0  0  3  0  0  0  0  0  0
  -21.1850   -5.8260   25.0300 C   0  0  0  0  0  3  0  0  0  0  0  0
  -21.5150   -4.4590   24.9320 C   0  0  0  0  0  0  0  0  0  0  0  0
  -21.9370   -3.9230   23.7020 C   0  0  0  0  0  3  0  0  0  0  0  0
  -22.0260   -4.7510   22.5700 C   0  0  0  0  0  0  0  0  0  0  0  0
  -22.4150   -4.2250   21.3830 F   0  0  0  0  0  0  0  0  0  0  0  0
  -21.4240   -3.6600   26.0200 F   0  0  0  0  0  0  0  0  0  0  0  0
  -22.7790  -13.5200   21.2330 C   0  0  0  0  0  0  0  0  0  0  0  0
  -22.0590  -12.8120   22.0950 N   0  0  0  0  0  0  0  0  0  0  0  0
  -22.3320  -14.5450   20.7180 O   0  0  0  0  0  0  0  0  0  0  0  0
  -22.4360  -11.9830   22.5310 H   0  0  0  0  0  0  0  0  0  0  0  0
  -21.1180  -13.0970   22.3210 H   0  0  0  0  0  0  0  0  0  0  0  0
  -25.3820  -15.2130   20.4000 N   0  0  0  0  0  0  0  0  0  0  0  0
  -24.5880  -15.8430   20.4600 H   0  0  0  0  0  0  0  0  0  0  0  0
  -26.1890  -15.6380   19.9670 H   0  0  0  0  0  0  0  0  0  0  0  0
  -28.9220  -23.2620   20.4640 C   0  0  0  0  0  3  0  0  0  0  0  0
  -27.9840  -24.6340   20.0670 C   0  0  0  0  0  3  0  0  0  0  0  0
  -28.2220  -26.1520   20.3740 O   0  0  0  0  0  0  0  0  0  0  0  0
  -24.6250  -31.9180   23.2610 C   0  0  0  0  0  0  0  0  0  0  0  0
  -27.1780  -27.1500   20.2790 C   0  0  0  0  0  0  0  0  0  0  0  0
  -23.4190  -30.5170   21.6310 C   0  0  0  0  0  3  0  0  0  0  0  0
  -24.8610  -28.9180   20.2260 C   0  0  0  0  0  0  0  0  0  0  0  0
  -25.9760  -30.7640   21.4670 C   0  0  0  0  0  2  0  0  0  0  0  0
  -26.0440  -29.3630   20.8290 C   0  0  0  0  0  0  0  0  0  0  0  0
  -27.2020  -28.4950   20.8380 C   0  0  0  0  0  3  0  0  0  0  0  0
  -25.9680  -26.8120   19.6330 C   0  0  0  0  0  3  0  0  0  0  0  0
  -24.8360  -27.6550   19.6140 C   0  0  0  0  0  3  0  0  0  0  0  0
  -23.6390  -29.8230   20.2610 C   0  0  0  0  0  2  0  0  0  0  0  0
  -24.6940  -31.0900   22.1730 N   0  0  0  0  0  0  0  0  0  0  0  0
  -23.5390  -32.2140   23.7840 O   0  0  0  0  0  0  0  0  0  0  0  0
  -22.7290  -29.5250   22.6010 C   0  0  0  0  0  0  0  0  0  0  0  0
  -21.4000  -29.3610   22.4690 N   0  0  0  0  0  0  0  0  0  0  0  0
  -23.3920  -28.9040   23.4340 O   0  0  0  0  0  0  0  0  0  0  0  0
  -20.9220  -29.9110   21.7700 H   0  0  0  0  0  0  0  0  0  0  0  0
  -18.0090  -28.1870   22.9620 C   0  0  0  0  0  0  0  0  0  0  0  0
  -20.5670  -28.4380   23.2460 C   0  0  0  0  0  3  0  0  0  0  0  0
  -20.6640  -27.0000   22.6880 C   0  0  0  0  0  2  0  0  0  0  0  0
  -19.5680  -26.6720   21.6690 C   0  0  0  0  0  2  0  0  0  0  0  0
  -18.1820  -26.8300   22.3010 C   0  0  0  0  0  2  0  0  0  0  0  0
  -19.1280  -28.9480   23.3910 C   0  0  0  0  0  0  0  0  0  0  0  0
  -18.9110  -30.2170   23.9720 C   0  0  0  0  0  3  0  0  0  0  0  0
  -17.6080  -30.7260   24.1250 C   0  0  0  0  0  3  0  0  0  0  0  0
  -16.5020  -29.9630   23.7110 C   0  0  0  0  0  3  0  0  0  0  0  0
  -16.7040  -28.6950   23.1360 C   0  0  0  0  0  3  0  0  0  0  0  0
  -25.9040  -32.5480   23.8870 C   0  0  0  0  0  3  0  0  0  0  0  0
  -26.4060  -31.7830   25.1740 C   0  0  1  0  0  0  0  0  0  0  0  0
  -25.3030  -31.5650   26.2370 C   0  0  0  0  0  1  0  0  0  0  0  0
  -26.9760  -30.3950   24.8000 C   0  0  0  0  0  1  0  0  0  0  0  0
  -27.5590  -32.5710   25.8370 C   0  0  0  0  0  1  0  0  0  0  0  0
  -25.6000  -33.9520   24.2100 N   0  0  0  0  0  0  0  0  0  0  0  0
  -25.9370  -35.0000   23.4480 C   0  0  0  0  0  0  0  0  0  0  0  0
  -26.6000  -34.8880   22.4140 O   0  0  0  0  0  0  0  0  0  0  0  0
  -25.0020  -34.1120   25.0080 H   0  0  0  0  0  0  0  0  0  0  0  0
  -24.2160  -36.8080   23.1060 C   0  0  0  0  0  1  0  0  0  0  0  0
  -25.4640  -36.3960   23.9040 C   0  0  0  0  0  3  0  0  0  0  0  0
  -27.6100  -37.2780   24.7070 C   0  0  0  0  0  1  0  0  0  0  0  0
  -26.5000  -37.4410   23.7740 N   0  0  0  0  0  0  0  0  0  0  0  0
  -26.1010  -38.3650   23.9150 H   0  0  0  0  0  0  0  0  0  0  0  0
  1  4  1  0
  2  5  1  0
  2  1  2  0
  4  3  2  0
  4  9  1  0
  5  6  2  0
  6 48  1  0
  6  3  1  0
  7  5  1  0
  8  9  1  0
 10 18  1  0
 11 16  1  0
 12 13  1  0
 12 11  1  0
 14 13  1  0
 14 23  1  0
 14 15  1  0
 16 10  1  0
 16 15  1  0
 17 10  2  0
 18 19  1  0
 18  9  2  0
 20 21  2  0
 21 40  1  0
 22 21  1  0
 22 25  1  0
 23 20  1  0
 23 24  1  0
 24 22  2  0
 25 26  1  0
 26 27  2  0
 28 31  1  0
 28 27  1  0
 29 28  2  0
 30 29  1  0
 30 25  2  0
 31 32  1  0
 32 33  1  0
 33 34  2  0
 35 34  1  0
 35 39  1  0
 36 35  2  0
 37 32  2  0
 37 36  1  0
 38 37  1  0
 40 41  1  0
 41 44  1  0
 41 43  1  0
 42 40  2  0
 45 46  1  0
 45 20  1  0
 47 45  1  0
 49 50  1  0
 49 48  2  0
 51 62  2  0
 52 50  1  0
 52 57  1  0
 53 61  1  0
 53 63  1  0
 54 60  1  0
 54 56  1  0
 55 61  1  0
 56 57  2  0
 56 55  1  0
 58 52  2  0
 59 58  1  0
 59 54  2  0
 60 53  1  0
 61 51  1  0
 63 65  2  0
 64 63  1  0
 66 64  1  0
 67 76  2  0
 67 72  1  0
 68 64  1  0
 68 72  1  0
 69 68  1  0
 70 71  1  0
 70 69  1  0
 71 67  1  0
 72 73  2  0
 73 74  1  0
 75 74  2  0
 76 75  1  0
 77 51  1  0
 77 82  1  0
 77 78  1  0
 78 81  1  1
 78 79  1  0
 80 78  1  0
 82 85  1  0
 83 87  1  0
 83 82  1  0
 84 83  2  0
 87 86  1  0
 89 87  1  0
 89 90  1  0
 89 88  1  0
M  ISO  4  10 100  18 100  49 101  50 101
M  END
>  <TORSDO>  (57) 
F 19

>  <SCORE>  (57) 
-15.261

>  <name>  (57) 
56

>  <ligand_id>  (57) 
56

>  <original_smiles>  (57) 
[H]c1c([H])c([H])c2c(c1[H])C([H])([H])C([H])([H])C([H])([H])C2([H])N([H])C(=O)C1([H])N(C(=O)C([H])(N([H])C(=O)C([H])(N([H])C([H])([H])[H])C([H])([H])[H])C(C([H])([H])[H])(C([H])([H])[H])C([H])([H])[H])C([H])([H])c2c([H])c(OC([H])([H])C([H])([H])c3c([H])c(C([H])(N([H])C(=O)N4C([H])([H])C([H])([H])C([H])([H])C([H])(n5nc(-c6c([H])c([H])c(Oc7c([H])c([H])c(F)c([H])c7F)c([H])c6[H])c(C(=O)N([H])[H])c5N([H])[H])C4([H])[H])C([H])([H])[H])c([H])c([H])c3C([H])([H])[H])c([H])c([H])c2C1([H])[H]

>  <smiles>  (57) 
[H]c1c([H])c([H])c2c(c1[H])C([H])([H])C([H])([H])C([H])([H])C2([H])N([H])C(=O)C1([H])N(C(=O)C([H])(N([H])C(=O)C([H])(N([H])C([H])([H])[H])C([H])([H])[H])C(C([H])([H])[H])(C([H])([H])[H])C([H])([H])[H])C([H])([H])c2c([H])c(OC([H])([H])C([H])([H])c3c([H])c(C([H])(N([H])C(=O)N4C([H])([H])C([H])([H])C([H])([H])C([H])(n5nc(-c6c([H])c([H])c(Oc7c([H])c([H])c(F)c([H])c7F)c([H])c6[H])c(C(=O)N([H])[H])c5N([H])[H])C4([H])[H])C([H])([H])[H])c([H])c([H])c3C([H])([H])[H])c([H])c([H])c2C1([H])[H]

$$$$
57:0:0
     RDKit          3D

 91 99  0  0  1  0  0  0  0  0999 V2000
  -26.2820  -23.1690   22.2690 C   0  0  0  0  0  3  0  0  0  0  0  0
  -26.1220  -24.5040   22.6300 C   0  0  0  0  0  3  0  0  0  0  0  0
  -27.2380  -22.8320   21.3040 C   0  0  0  0  0  3  0  0  0  0  0  0
  -26.8400  -25.4920   21.9440 C   0  0  0  0  0  3  0  0  0  0  0  0
  -28.0640  -23.7840   20.6530 C   0  0  0  0  0  0  0  0  0  0  0  0
  -27.7470  -25.2260   20.8740 C   0  0  0  0  0  0  0  0  0  0  0  0
  -29.2270  -23.1020   19.8810 C   0  0  0  0  0  0  0  0  0  0  0  0
  -30.0930  -23.8300   19.3920 O   0  0  0  0  0  0  0  0  0  0  0  0
  -29.4630  -21.5010   19.6090 C   0  0  0  0  0  2  0  0  0  0  0  0
  -29.1430  -20.2180   20.5630 C   0  0  0  0  0  2  0  0  0  0  0  0
  -30.0180  -18.8310   20.6690 C   0  0  0  0  0  2  0  0  0  0  0  0
  -29.7750  -17.4820   19.8010 C   0  0  0  0  0  2  0  0  0  0  0  0
  -30.6510  -14.9680   20.1010 C   0  0  0  0  0  0  0  0  0  0  0  0
  -30.4630  -12.6710   19.1250 C   0  0  0  0  0  2  0  0  0  0  0  0
  -29.5020  -12.7370   17.9160 C   0  0  0  0  0  2  0  0  0  0  0  0
  -28.0450  -12.5510   18.3750 C   0  0  0  0  0  2  0  0  0  0  0  0
  -27.6900  -13.4460   19.5910 C   0  0  0  0  0  3  0  0  0  0  0  0
  -28.7660  -13.3620   20.6980 C   0  0  0  0  0  2  0  0  0  0  0  0
  -30.0560  -13.7230   20.0900 N   0  0  0  0  0  0  0  0  0  0  0  0
  -31.7950  -15.1090   19.6570 O   0  0  0  0  0  0  0  0  0  0  0  0
  -29.8620  -16.0680   20.4120 N   0  0  0  0  0  0  0  0  0  0  0  0
  -29.0140  -15.7920   20.8870 H   0  0  0  0  0  0  0  0  0  0  0  0
  -25.3090  -14.0320   20.3480 C   0  0  0  0  0  0  0  0  0  0  0  0
  -24.2530  -13.2550   20.7390 C   0  0  0  0  0  0  0  0  0  0  0  0
  -24.7230  -11.9060   20.7120 C   0  0  0  0  0  0  0  0  0  0  0  0
  -26.3540  -13.1570   20.1020 N   0  0  0  0  0  0  0  0  0  0  0  0
  -26.0090  -11.8730   20.3830 N   0  0  0  0  0  0  0  0  0  0  0  0
  -24.0080  -10.6410   20.9210 C   0  0  0  0  0  0  0  0  0  0  0  0
  -24.4430   -9.6930   21.8740 C   0  0  0  0  0  3  0  0  0  0  0  0
  -23.7240   -8.4950   22.0710 C   0  0  0  0  0  3  0  0  0  0  0  0
  -22.5560   -8.2360   21.3160 C   0  0  0  0  0  0  0  0  0  0  0  0
  -22.1400   -9.1730   20.3540 C   0  0  0  0  0  3  0  0  0  0  0  0
  -22.8580  -10.3630   20.1550 C   0  0  0  0  0  3  0  0  0  0  0  0
  -21.8080   -7.0880   21.4230 O   0  0  0  0  0  0  0  0  0  0  0  0
  -21.7450   -6.3760   22.5930 C   0  0  0  0  0  0  0  0  0  0  0  0
  -21.2910   -6.9590   23.7960 C   0  0  0  0  0  3  0  0  0  0  0  0
  -21.1780   -6.1720   24.9600 C   0  0  0  0  0  3  0  0  0  0  0  0
  -21.5080   -4.8050   24.9210 C   0  0  0  0  0  0  0  0  0  0  0  0
  -21.9540   -4.2220   23.7220 C   0  0  0  0  0  3  0  0  0  0  0  0
  -22.0710   -5.0050   22.5600 C   0  0  0  0  0  0  0  0  0  0  0  0
  -22.4820   -4.4340   21.4030 F   0  0  0  0  0  0  0  0  0  0  0  0
  -21.3910   -4.0460   26.0360 F   0  0  0  0  0  0  0  0  0  0  0  0
  -22.8570  -13.7270   21.0310 C   0  0  0  0  0  0  0  0  0  0  0  0
  -22.1510  -13.0300   21.9130 N   0  0  0  0  0  0  0  0  0  0  0  0
  -22.4050  -14.7470   20.5140 O   0  0  0  0  0  0  0  0  0  0  0  0
  -22.5330  -12.2030   22.3480 H   0  0  0  0  0  0  0  0  0  0  0  0
  -21.2160  -13.3250   22.1570 H   0  0  0  0  0  0  0  0  0  0  0  0
  -25.4610  -15.4020   20.1570 N   0  0  0  0  0  0  0  0  0  0  0  0
  -24.6930  -16.0500   20.2820 H   0  0  0  0  0  0  0  0  0  0  0  0
  -26.2970  -15.8460   19.7960 H   0  0  0  0  0  0  0  0  0  0  0  0
  -28.1550  -26.4310   20.1870 O   0  0  0  0  0  0  0  0  0  0  0  0
  -24.5360  -31.9590   23.1880 C   0  0  0  0  0  0  0  0  0  0  0  0
  -27.1660  -27.4430   20.0350 C   0  0  0  0  0  0  0  0  0  0  0  0
  -23.3430  -30.5850   21.5210 C   0  0  0  0  0  3  0  0  0  0  0  0
  -24.8080  -29.0830   20.0440 C   0  0  0  0  0  0  0  0  0  0  0  0
  -25.8830  -30.9160   21.3440 C   0  0  0  0  0  2  0  0  0  0  0  0
  -25.9750  -29.5500   20.6630 C   0  0  0  0  0  0  0  0  0  0  0  0
  -27.1590  -28.7390   20.6580 C   0  0  0  0  0  3  0  0  0  0  0  0
  -25.9900  -27.0640   19.3530 C   0  0  0  0  0  3  0  0  0  0  0  0
  -24.8230  -27.8500   19.3740 C   0  0  0  0  0  3  0  0  0  0  0  0
  -23.5620  -29.9440   20.1230 C   0  0  0  0  0  2  0  0  0  0  0  0
  -24.6080  -31.1690   22.0750 N   0  0  0  0  0  0  0  0  0  0  0  0
  -23.4510  -32.2190   23.7290 O   0  0  0  0  0  0  0  0  0  0  0  0
  -22.6860  -29.5470   22.4620 C   0  0  0  0  0  0  0  0  0  0  0  0
  -21.3640  -29.3430   22.3170 N   0  0  0  0  0  0  0  0  0  0  0  0
  -23.3650  -28.9300   23.2850 O   0  0  0  0  0  0  0  0  0  0  0  0
  -20.8720  -29.8930   21.6280 H   0  0  0  0  0  0  0  0  0  0  0  0
  -18.0140  -28.0310   22.7460 C   0  0  0  0  0  0  0  0  0  0  0  0
  -20.5550  -28.3840   23.0740 C   0  0  0  0  0  3  0  0  0  0  0  0
  -20.7210  -26.9520   22.5100 C   0  0  0  0  0  2  0  0  0  0  0  0
  -19.6540  -26.5840   21.4730 C   0  0  0  0  0  2  0  0  0  0  0  0
  -18.2540  -26.6830   22.0870 C   0  0  0  0  0  2  0  0  0  0  0  0
  -19.0940  -28.8360   23.1980 C   0  0  0  0  0  0  0  0  0  0  0  0
  -18.8140  -30.0940   23.7780 C   0  0  0  0  0  3  0  0  0  0  0  0
  -17.4880  -30.5490   23.9090 C   0  0  0  0  0  3  0  0  0  0  0  0
  -16.4220  -29.7410   23.4750 C   0  0  0  0  0  3  0  0  0  0  0  0
  -16.6860  -28.4870   22.8970 C   0  0  0  0  0  3  0  0  0  0  0  0
  -25.8120  -32.5940   23.8200 C   0  0  0  0  0  3  0  0  0  0  0  0
  -25.4990  -33.9930   24.1470 N   0  0  0  0  0  0  0  0  0  0  0  0
  -25.8480  -35.0470   23.3990 C   0  0  0  0  0  0  0  0  0  0  0  0
  -26.5340  -34.9450   22.3780 O   0  0  0  0  0  0  0  0  0  0  0  0
  -24.8850  -34.1450   24.9350 H   0  0  0  0  0  0  0  0  0  0  0  0
  -24.1340  -36.8500   23.0220 C   0  0  0  0  0  1  0  0  0  0  0  0
  -25.3600  -36.4370   23.8520 C   0  0  0  0  0  3  0  0  0  0  0  0
  -27.4860  -37.3060   24.7220 C   0  0  0  0  0  1  0  0  0  0  0  0
  -26.4010  -37.4840   23.7600 N   0  0  0  0  0  0  0  0  0  0  0  0
  -25.9990  -38.4060   23.9030 H   0  0  0  0  0  0  0  0  0  0  0  0
  -26.3180  -31.8230   25.0990 C   0  0  1  0  0  0  0  0  0  0  0  0
  -25.2160  -31.5870   26.1590 C   0  0  0  0  0  1  0  0  0  0  0  0
  -26.9020  -30.4440   24.7130 C   0  0  0  0  0  1  0  0  0  0  0  0
  -27.4680  -32.6130   25.7660 C   0  0  0  0  0  1  0  0  0  0  0  0
  1  2  1  0
  3  1  2  0
  4  2  2  0
  5  6  2  0
  5  3  1  0
  6  4  1  0
  7  5  1  0
  8  7  2  0
  9  7  1  0
  9 10  1  0
 10 11  1  0
 12 21  1  0
 12 11  1  0
 13 21  1  0
 14 19  1  0
 15 16  1  0
 15 14  1  0
 17 16  1  0
 17 26  1  0
 17 18  1  0
 19 13  1  0
 19 18  1  0
 20 13  2  0
 21 22  1  0
 23 24  2  0
 24 43  1  0
 25 24  1  0
 25 28  1  0
 26 23  1  0
 26 27  1  0
 27 25  2  0
 28 29  1  0
 29 30  2  0
 31 34  1  0
 31 30  1  0
 32 31  2  0
 33 32  1  0
 33 28  2  0
 34 35  1  0
 35 36  1  0
 36 37  2  0
 38 37  1  0
 38 42  1  0
 39 38  2  0
 40 35  2  0
 40 39  1  0
 41 40  1  0
 43 44  1  0
 44 47  1  0
 44 46  1  0
 45 43  2  0
 48 49  1  0
 48 23  1  0
 50 48  1  0
 51  6  1  0
 52 63  2  0
 53 51  1  0
 53 58  1  0
 54 62  1  0
 54 64  1  0
 55 61  1  0
 55 57  1  0
 56 62  1  0
 57 56  1  0
 58 57  2  0
 59 60  1  0
 59 53  2  0
 60 55  2  0
 61 54  1  0
 62 52  1  0
 64 66  2  0
 65 64  1  0
 67 65  1  0
 68 77  2  0
 68 73  1  0
 69 65  1  0
 69 73  1  0
 70 69  1  0
 71 72  1  0
 71 70  1  0
 72 68  1  0
 73 74  2  0
 74 75  1  0
 76 75  2  0
 77 76  1  0
 78 52  1  0
 78 79  1  0
 78 88  1  0
 79 82  1  0
 80 84  1  0
 80 79  1  0
 81 80  2  0
 84 83  1  0
 86 84  1  0
 86 87  1  0
 86 85  1  0
 88 91  1  1
 88 89  1  0
 90 88  1  0
M  ISO  4   6 101  13 100  21 100  51 101
M  END
>  <TORSDO>  (58) 
F 21

>  <SCORE>  (58) 
-12.776

>  <name>  (58) 
57

>  <ligand_id>  (58) 
57

>  <original_smiles>  (58) 
[H]c1c([H])c([H])c(C(=O)C([H])([H])C([H])([H])C([H])([H])C([H])([H])N([H])C(=O)N2C([H])([H])C([H])([H])C([H])([H])C([H])(n3nc(-c4c([H])c([H])c(Oc5c([H])c([H])c(F)c([H])c5F)c([H])c4[H])c(C(=O)N([H])[H])c3N([H])[H])C2([H])[H])c(Oc2c([H])c([H])c3c(c2[H])C([H])([H])N(C(=O)C([H])(N([H])C(=O)C([H])(N([H])C([H])([H])[H])C([H])([H])[H])C(C([H])([H])[H])(C([H])([H])[H])C([H])([H])[H])C([H])(C(=O)N([H])C2([H])c4c([H])c([H])c([H])c([H])c4C([H])([H])C([H])([H])C2([H])[H])C3([H])[H])c1[H]

>  <smiles>  (58) 
[H]c1c([H])c([H])c(C(=O)C([H])([H])C([H])([H])C([H])([H])C([H])([H])N([H])C(=O)N2C([H])([H])C([H])([H])C([H])([H])C([H])(n3nc(-c4c([H])c([H])c(Oc5c([H])c([H])c(F)c([H])c5F)c([H])c4[H])c(C(=O)N([H])[H])c3N([H])[H])C2([H])[H])c(Oc2c([H])c([H])c3c(c2[H])C([H])([H])N(C(=O)C([H])(N([H])C(=O)C([H])(N([H])C([H])([H])[H])C([H])([H])[H])C(C([H])([H])[H])(C([H])([H])[H])C([H])([H])[H])C([H])(C(=O)N([H])C2([H])c4c([H])c([H])c([H])c([H])c4C([H])([H])C([H])([H])C2([H])[H])C3([H])[H])c1[H]

$$$$
58:0:0
     RDKit          3D

 91 99  0  0  1  0  0  0  0  0999 V2000
  -30.7370  -19.6320   19.8460 C   0  0  0  0  0  3  0  0  0  0  0  0
  -30.3110  -20.9870   19.9400 C   0  0  0  0  0  3  0  0  0  0  0  0
  -28.5210  -18.9360   19.2510 C   0  0  0  0  0  3  0  0  0  0  0  0
  -29.8650  -18.5620   19.4910 C   0  0  0  0  0  0  0  0  0  0  0  0
  -28.0840  -20.2950   19.3300 C   0  0  0  0  0  0  0  0  0  0  0  0
  -28.9720  -21.3570   19.6840 C   0  0  0  0  0  0  0  0  0  0  0  0
  -26.6350  -20.6020   18.9840 C   0  0  0  0  0  1  0  0  0  0  0  0
  -30.1050  -16.0180   20.0120 C   0  0  0  0  0  3  0  0  0  0  0  0
  -30.4130  -17.1550   19.2880 C   0  0  0  0  0  0  0  0  0  0  0  0
  -31.3800  -17.1300   18.0980 C   0  0  0  0  0  1  0  0  0  0  0  0
  -30.8530  -14.7310   19.8680 C   0  0  0  0  0  0  0  0  0  0  0  0
  -30.5850  -12.3900   19.1270 C   0  0  0  0  0  2  0  0  0  0  0  0
  -29.6180  -12.3790   17.9230 C   0  0  0  0  0  2  0  0  0  0  0  0
  -28.1620  -12.2450   18.4100 C   0  0  0  0  0  2  0  0  0  0  0  0
  -27.8180  -13.2400   19.5510 C   0  0  0  0  0  3  0  0  0  0  0  0
  -28.9120  -13.2720   20.6380 C   0  0  0  0  0  2  0  0  0  0  0  0
  -30.1980  -13.5320   19.9840 N   0  0  0  0  0  0  0  0  0  0  0  0
  -32.0340  -14.7360   19.5140 O   0  0  0  0  0  0  0  0  0  0  0  0
  -25.5000  -13.8720   20.4520 C   0  0  0  0  0  0  0  0  0  0  0  0
  -24.4350  -13.1150   20.8610 C   0  0  0  0  0  0  0  0  0  0  0  0
  -24.8530  -11.7530   20.7570 C   0  0  0  0  0  0  0  0  0  0  0  0
  -26.4980  -12.9730   20.1190 N   0  0  0  0  0  0  0  0  0  0  0  0
  -26.1200  -11.6900   20.3620 N   0  0  0  0  0  0  0  0  0  0  0  0
  -24.1010  -10.5060   20.9510 C   0  0  0  0  0  0  0  0  0  0  0  0
  -24.5200   -9.5270   21.8780 C   0  0  0  0  0  3  0  0  0  0  0  0
  -23.7710   -8.3450   22.0600 C   0  0  0  0  0  3  0  0  0  0  0  0
  -22.5870   -8.1340   21.3140 C   0  0  0  0  0  0  0  0  0  0  0  0
  -22.1860   -9.1010   20.3750 C   0  0  0  0  0  3  0  0  0  0  0  0
  -22.9360  -10.2740   20.1920 C   0  0  0  0  0  3  0  0  0  0  0  0
  -21.8080   -7.0060   21.4060 O   0  0  0  0  0  0  0  0  0  0  0  0
  -21.6920   -6.3040   22.5790 C   0  0  0  0  0  0  0  0  0  0  0  0
  -21.1710   -6.8920   23.7520 C   0  0  0  0  0  3  0  0  0  0  0  0
  -21.0050   -6.1160   24.9160 C   0  0  0  0  0  3  0  0  0  0  0  0
  -21.3500   -4.7510   24.9080 C   0  0  0  0  0  0  0  0  0  0  0  0
  -21.8630   -4.1610   23.7390 C   0  0  0  0  0  3  0  0  0  0  0  0
  -22.0310   -4.9350   22.5770 C   0  0  0  0  0  0  0  0  0  0  0  0
  -22.5070   -4.3570   21.4480 F   0  0  0  0  0  0  0  0  0  0  0  0
  -21.1820   -4.0030   26.0220 F   0  0  0  0  0  0  0  0  0  0  0  0
  -23.0730  -13.6220   21.2380 C   0  0  0  0  0  0  0  0  0  0  0  0
  -22.3830  -12.9250   22.1340 N   0  0  0  0  0  0  0  0  0  0  0  0
  -22.6330  -14.6730   20.7740 O   0  0  0  0  0  0  0  0  0  0  0  0
  -22.7540  -12.0750   22.5340 H   0  0  0  0  0  0  0  0  0  0  0  0
  -21.4720  -13.2470   22.4250 H   0  0  0  0  0  0  0  0  0  0  0  0
  -25.6940  -15.2430   20.3130 N   0  0  0  0  0  0  0  0  0  0  0  0
  -24.9560  -15.9120   20.4980 H   0  0  0  0  0  0  0  0  0  0  0  0
  -26.5360  -15.6670   19.9450 H   0  0  0  0  0  0  0  0  0  0  0  0
  -28.4820  -22.6980   19.7920 N   0  0  0  0  0  0  0  0  0  0  0  0
  -27.4720  -22.7970   19.7570 H   0  0  0  0  0  0  0  0  0  0  0  0
  -29.2320  -23.9840   19.6530 C   0  0  0  0  0  2  0  0  0  0  0  0
  -28.4820  -25.2270   20.3030 C   0  0  0  0  0  2  0  0  0  0  0  0
  -28.6620  -26.5960   19.7730 O   0  0  0  0  0  0  0  0  0  0  0  0
  -24.6330  -31.6320   22.9980 C   0  0  0  0  0  0  0  0  0  0  0  0
  -27.5200  -27.4000   19.7600 C   0  0  0  0  0  0  0  0  0  0  0  0
  -23.5310  -30.2710   21.2570 C   0  0  0  0  0  3  0  0  0  0  0  0
  -25.0830  -28.8780   19.7780 C   0  0  0  0  0  0  0  0  0  0  0  0
  -26.0530  -30.7250   21.1480 C   0  0  0  0  0  2  0  0  0  0  0  0
  -26.2120  -29.3930   20.4300 C   0  0  0  0  0  0  0  0  0  0  0  0
  -27.4370  -28.6650   20.4140 C   0  0  0  0  0  3  0  0  0  0  0  0
  -26.3740  -26.9410   19.0760 C   0  0  0  0  0  3  0  0  0  0  0  0
  -25.1640  -27.6570   19.0930 C   0  0  0  0  0  3  0  0  0  0  0  0
  -23.8020  -29.6860   19.8470 C   0  0  0  0  0  2  0  0  0  0  0  0
  -24.7550  -30.8910   21.8580 N   0  0  0  0  0  0  0  0  0  0  0  0
  -23.5270  -31.8280   23.5220 O   0  0  0  0  0  0  0  0  0  0  0  0
  -22.9040  -29.1690   22.1440 C   0  0  0  0  0  0  0  0  0  0  0  0
  -21.5790  -28.9790   22.0250 N   0  0  0  0  0  0  0  0  0  0  0  0
  -23.6080  -28.4910   22.8980 O   0  0  0  0  0  0  0  0  0  0  0  0
  -21.0710  -29.5800   21.3910 H   0  0  0  0  0  0  0  0  0  0  0  0
  -18.2140  -27.7830   22.5870 C   0  0  0  0  0  0  0  0  0  0  0  0
  -20.7870  -27.9730   22.7340 C   0  0  0  0  0  3  0  0  0  0  0  0
  -20.8270  -26.6130   21.9990 C   0  0  0  0  0  2  0  0  0  0  0  0
  -19.6630  -26.4220   21.0210 C   0  0  0  0  0  2  0  0  0  0  0  0
  -18.3230  -26.5160   21.7560 C   0  0  0  0  0  2  0  0  0  0  0  0
  -19.3700  -28.4750   23.0320 C   0  0  0  0  0  0  0  0  0  0  0  0
  -19.2130  -29.6670   23.7720 C   0  0  0  0  0  3  0  0  0  0  0  0
  -17.9290  -30.1650   24.0710 C   0  0  0  0  0  3  0  0  0  0  0  0
  -16.7870  -29.4670   23.6400 C   0  0  0  0  0  3  0  0  0  0  0  0
  -16.9300  -28.2790   22.9030 C   0  0  0  0  0  3  0  0  0  0  0  0
  -25.8720  -32.2870   23.6810 C   0  0  0  0  0  3  0  0  0  0  0  0
  -26.3910  -31.4780   24.9330 C   0  0  1  0  0  0  0  0  0  0  0  0
  -25.2840  -31.1470   25.9610 C   0  0  0  0  0  1  0  0  0  0  0  0
  -27.0410  -30.1450   24.4930 C   0  0  0  0  0  1  0  0  0  0  0  0
  -27.4910  -32.2870   25.6590 C   0  0  0  0  0  1  0  0  0  0  0  0
  -25.4920  -33.6510   24.0690 N   0  0  0  0  0  0  0  0  0  0  0  0
  -25.7650  -34.7520   23.3550 C   0  0  0  0  0  0  0  0  0  0  0  0
  -26.4350  -34.7280   22.3190 O   0  0  0  0  0  0  0  0  0  0  0  0
  -24.8890  -33.7400   24.8740 H   0  0  0  0  0  0  0  0  0  0  0  0
  -23.9330  -36.4580   23.0950 C   0  0  0  0  0  1  0  0  0  0  0  0
  -25.2080  -36.0910   23.8730 C   0  0  0  0  0  3  0  0  0  0  0  0
  -27.2960  -37.0710   24.7190 C   0  0  0  0  0  1  0  0  0  0  0  0
  -26.1780  -37.2050   23.7880 N   0  0  0  0  0  0  0  0  0  0  0  0
  -25.7200  -38.0950   23.9680 H   0  0  0  0  0  0  0  0  0  0  0  0
  1  2  1  0
  3  5  2  0
  3  4  1  0
  4  1  2  0
  5  6  1  0
  6 47  1  0
  6  2  2  0
  7  5  1  0
  9  4  1  0
  9  8  2  0
 10  9  1  0
 11 17  1  0
 11  8  1  0
 12 17  1  0
 13 14  1  0
 13 12  1  0
 15 14  1  0
 15 22  1  0
 15 16  1  0
 17 16  1  0
 18 11  2  0
 19 20  2  0
 20 39  1  0
 21 20  1  0
 21 24  1  0
 22 23  1  0
 22 19  1  0
 23 21  2  0
 24 25  1  0
 25 26  2  0
 27 30  1  0
 27 26  1  0
 28 27  2  0
 29 28  1  0
 29 24  2  0
 30 31  1  0
 31 32  1  0
 32 33  2  0
 34 33  1  0
 34 38  1  0
 35 34  2  0
 36 31  2  0
 36 35  1  0
 37 36  1  0
 39 40  1  0
 40 43  1  0
 40 42  1  0
 41 39  2  0
 44 19  1  0
 44 45  1  0
 46 44  1  0
 48 47  1  0
 49 47  1  0
 49 50  1  0
 51 50  1  0
 52 63  2  0
 53 51  1  0
 53 58  1  0
 54 62  1  0
 54 64  1  0
 55 61  1  0
 55 57  1  0
 56 62  1  0
 57 56  1  0
 58 57  2  0
 59 60  1  0
 59 53  2  0
 60 55  2  0
 61 54  1  0
 62 52  1  0
 64 66  2  0
 65 64  1  0
 67 65  1  0
 68 77  2  0
 68 73  1  0
 69 65  1  0
 69 73  1  0
 70 69  1  0
 71 72  1  0
 71 70  1  0
 72 68  1  0
 73 74  2  0
 74 75  1  0
 76 75  2  0
 77 76  1  0
 78 52  1  0
 78 83  1  0
 78 79  1  0
 79 82  1  1
 79 80  1  0
 81 79  1  0
 83 86  1  0
 84 88  1  0
 84 83  1  0
 85 84  2  0
 88 87  1  0
 90 88  1  0
 90 91  1  0
 90 89  1  0
M  ISO  4   8 100  11 100  50 101  51 101
M  END
>  <TORSDO>  (59) 
F 20

>  <SCORE>  (59) 
-12.984

>  <name>  (59) 
58

>  <ligand_id>  (59) 
58

>  <original_smiles>  (59) 
[H]C(C(=O)N1C([H])([H])C([H])([H])C([H])([H])C([H])(n2nc(-c3c([H])c([H])c(Oc4c([H])c([H])c(F)c([H])c4F)c([H])c3[H])c(C(=O)N([H])[H])c2N([H])[H])C1([H])[H])=C(c1c([H])c([H])c(N([H])C([H])([H])C([H])([H])Oc2c([H])c([H])c3c(c2[H])C([H])([H])N(C(=O)C([H])(N([H])C(=O)C([H])(N([H])C([H])([H])[H])C([H])([H])[H])C(C([H])([H])[H])(C([H])([H])[H])C([H])([H])[H])C([H])(C(=O)N([H])C2([H])c4c([H])c([H])c([H])c([H])c4C([H])([H])C([H])([H])C2([H])[H])C3([H])[H])c(C([H])([H])[H])c1[H])C([H])([H])[H]

>  <smiles>  (59) 
[H]C(C(=O)N1C([H])([H])C([H])([H])C([H])([H])C([H])(n2nc(-c3c([H])c([H])c(Oc4c([H])c([H])c(F)c([H])c4F)c([H])c3[H])c(C(=O)N([H])[H])c2N([H])[H])C1([H])[H])=C(c1c([H])c([H])c(N([H])C([H])([H])C([H])([H])Oc2c([H])c([H])c3c(c2[H])C([H])([H])N(C(=O)C([H])(N([H])C(=O)C([H])(N([H])C([H])([H])[H])C([H])([H])[H])C(C([H])([H])[H])(C([H])([H])[H])C([H])([H])[H])C([H])(C(=O)N([H])C2([H])c4c([H])c([H])c([H])c([H])c4C([H])([H])C([H])([H])C2([H])[H])C3([H])[H])c(C([H])([H])[H])c1[H])C([H])([H])[H]

$$$$
59:0:0
     RDKit          3D

 91 99  0  0  1  0  0  0  0  0999 V2000
  -29.4070  -19.4700   19.0100 C   0  0  0  0  0  3  0  0  0  0  0  0
  -30.6600  -17.4960   20.1860 C   0  0  0  0  0  0  0  0  0  0  0  0
  -29.8100  -18.0550   19.1430 C   0  0  0  0  0  0  0  0  0  0  0  0
  -31.0470  -18.6310   21.0390 C   0  0  0  0  0  0  0  0  0  0  0  0
  -30.6190  -20.0680   20.8820 C   0  0  0  0  0  0  0  0  0  0  0  0
  -29.7670  -20.6130   19.8220 C   0  0  0  0  0  0  0  0  0  0  0  0
  -31.0620  -21.0610   21.9450 C   0  0  0  0  0  1  0  0  0  0  0  0
  -31.3120  -15.9500   20.1730 C   0  0  0  0  0  0  0  0  0  0  0  0
  -31.2200  -13.5200   19.3270 C   0  0  0  0  0  2  0  0  0  0  0  0
  -30.3030  -13.3540   18.0910 C   0  0  0  0  0  2  0  0  0  0  0  0
  -28.8510  -13.1040   18.5290 C   0  0  0  0  0  2  0  0  0  0  0  0
  -28.4110  -14.0640   19.6620 C   0  0  0  0  0  3  0  0  0  0  0  0
  -29.4580  -14.2150   20.7820 C   0  0  0  0  0  2  0  0  0  0  0  0
  -30.7030  -14.6710   20.1520 N   0  0  0  0  0  0  0  0  0  0  0  0
  -32.5300  -15.8910   19.9530 O   0  0  0  0  0  0  0  0  0  0  0  0
  -26.0690  -14.6240   20.4960 C   0  0  0  0  0  0  0  0  0  0  0  0
  -24.9980  -13.8470   20.8370 C   0  0  0  0  0  0  0  0  0  0  0  0
  -25.4370  -12.4920   20.7180 C   0  0  0  0  0  0  0  0  0  0  0  0
  -27.0880  -13.7440   20.1800 N   0  0  0  0  0  0  0  0  0  0  0  0
  -26.7220  -12.4520   20.3820 N   0  0  0  0  0  0  0  0  0  0  0  0
  -24.6870  -11.2340   20.8440 C   0  0  0  0  0  0  0  0  0  0  0  0
  -25.0620  -10.2390   21.7750 C   0  0  0  0  0  3  0  0  0  0  0  0
  -24.3120   -9.0500   21.8920 C   0  0  0  0  0  3  0  0  0  0  0  0
  -23.1720   -8.8460   21.0780 C   0  0  0  0  0  0  0  0  0  0  0  0
  -22.8160   -9.8280   20.1370 C   0  0  0  0  0  3  0  0  0  0  0  0
  -23.5670  -11.0110   20.0180 C   0  0  0  0  0  3  0  0  0  0  0  0
  -22.3980   -7.7110   21.1050 O   0  0  0  0  0  0  0  0  0  0  0  0
  -22.1840   -7.0120   22.2660 C   0  0  0  0  0  0  0  0  0  0  0  0
  -21.5610   -7.6030   23.3870 C   0  0  0  0  0  3  0  0  0  0  0  0
  -21.2980   -6.8300   24.5350 C   0  0  0  0  0  3  0  0  0  0  0  0
  -21.6480   -5.4660   24.5610 C   0  0  0  0  0  0  0  0  0  0  0  0
  -22.2630   -4.8750   23.4440 C   0  0  0  0  0  3  0  0  0  0  0  0
  -22.5270   -5.6460   22.2990 C   0  0  0  0  0  0  0  0  0  0  0  0
  -23.1010   -5.0660   21.2170 F   0  0  0  0  0  0  0  0  0  0  0  0
  -21.3880   -4.7200   25.6610 F   0  0  0  0  0  0  0  0  0  0  0  0
  -23.6150  -14.3340   21.1560 C   0  0  0  0  0  0  0  0  0  0  0  0
  -22.8920  -13.6120   22.0040 N   0  0  0  0  0  0  0  0  0  0  0  0
  -23.1880  -15.3890   20.6890 O   0  0  0  0  0  0  0  0  0  0  0  0
  -23.2530  -12.7580   22.4020 H   0  0  0  0  0  0  0  0  0  0  0  0
  -21.9650  -13.9180   22.2600 H   0  0  0  0  0  0  0  0  0  0  0  0
  -26.2600  -15.9990   20.4010 N   0  0  0  0  0  0  0  0  0  0  0  0
  -25.5130  -16.6620   20.5780 H   0  0  0  0  0  0  0  0  0  0  0  0
  -27.1230  -16.4440   20.1150 H   0  0  0  0  0  0  0  0  0  0  0  0
  -27.7770  -16.9020   18.1480 C   0  0  0  0  0  1  0  0  0  0  0  0
  -29.2870  -17.1390   18.0430 C   0  0  0  0  0  2  0  0  0  0  0  0
  -33.4680  -18.5380   21.8060 C   0  0  0  0  0  1  0  0  0  0  0  0
  -32.0020  -18.2800   22.1800 C   0  0  0  0  0  2  0  0  0  0  0  0
  -29.1510  -21.9800   19.5430 O   0  0  0  0  0  0  0  0  0  0  0  0
  -29.4210  -23.5450   19.8430 C   0  0  0  0  0  3  0  0  0  0  0  0
  -28.3880  -24.9590   19.5310 C   0  0  0  0  0  3  0  0  0  0  0  0
  -28.5200  -26.5660   19.7500 O   0  0  0  0  0  0  0  0  0  0  0  0
  -24.5640  -31.9310   23.1770 C   0  0  0  0  0  0  0  0  0  0  0  0
  -27.4180  -27.5510   19.7620 C   0  0  0  0  0  0  0  0  0  0  0  0
  -23.4360  -30.5500   21.4790 C   0  0  0  0  0  3  0  0  0  0  0  0
  -24.9670  -29.1870   19.9050 C   0  0  0  0  0  0  0  0  0  0  0  0
  -25.9650  -31.0080   21.2730 C   0  0  0  0  0  2  0  0  0  0  0  0
  -26.1320  -29.6610   20.5200 C   0  0  0  0  0  0  0  0  0  0  0  0
  -27.3510  -28.8630   20.4300 C   0  0  0  0  0  3  0  0  0  0  0  0
  -26.2140  -27.2190   19.1030 C   0  0  0  0  0  3  0  0  0  0  0  0
  -25.0280  -27.9880   19.1770 C   0  0  0  0  0  3  0  0  0  0  0  0
  -23.6740  -29.9860   20.0510 C   0  0  0  0  0  2  0  0  0  0  0  0
  -24.6760  -31.1860   22.0310 N   0  0  0  0  0  0  0  0  0  0  0  0
  -23.4740  -32.0880   23.7490 O   0  0  0  0  0  0  0  0  0  0  0  0
  -22.8680  -29.4310   22.3900 C   0  0  0  0  0  0  0  0  0  0  0  0
  -21.5650  -29.1240   22.2550 N   0  0  0  0  0  0  0  0  0  0  0  0
  -23.6040  -28.8440   23.1860 O   0  0  0  0  0  0  0  0  0  0  0  0
  -21.0190  -29.6590   21.5930 H   0  0  0  0  0  0  0  0  0  0  0  0
  -18.3580  -27.4740   22.6390 C   0  0  0  0  0  0  0  0  0  0  0  0
  -20.8540  -28.0630   22.9750 C   0  0  0  0  0  3  0  0  0  0  0  0
  -21.1550  -26.6760   22.3610 C   0  0  0  0  0  2  0  0  0  0  0  0
  -20.1270  -26.2460   21.3090 C   0  0  0  0  0  2  0  0  0  0  0  0
  -18.7240  -26.1840   21.9230 C   0  0  0  0  0  2  0  0  0  0  0  0
  -19.3560  -28.3630   23.1180 C   0  0  0  0  0  0  0  0  0  0  0  0
  -18.9580  -29.5620   23.7470 C   0  0  0  0  0  3  0  0  0  0  0  0
  -17.5950  -29.8770   23.9000 C   0  0  0  0  0  3  0  0  0  0  0  0
  -16.6110  -28.9880   23.4330 C   0  0  0  0  0  3  0  0  0  0  0  0
  -16.9930  -27.7870   22.8090 C   0  0  0  0  0  3  0  0  0  0  0  0
  -25.7980  -32.6360   23.8180 C   0  0  0  0  0  3  0  0  0  0  0  0
  -25.4110  -34.0190   24.1420 N   0  0  0  0  0  0  0  0  0  0  0  0
  -25.7070  -35.0940   23.3990 C   0  0  0  0  0  0  0  0  0  0  0  0
  -26.3990  -35.0280   22.3800 O   0  0  0  0  0  0  0  0  0  0  0  0
  -24.7930  -34.1410   24.9320 H   0  0  0  0  0  0  0  0  0  0  0  0
  -23.9050  -36.8130   23.0280 C   0  0  0  0  0  1  0  0  0  0  0  0
  -25.1510  -36.4570   23.8560 C   0  0  0  0  0  3  0  0  0  0  0  0
  -27.2270  -37.4410   24.7280 C   0  0  0  0  0  1  0  0  0  0  0  0
  -26.1360  -37.5580   23.7630 N   0  0  0  0  0  0  0  0  0  0  0  0
  -25.6850  -38.4590   23.9030 H   0  0  0  0  0  0  0  0  0  0  0  0
  -26.3290  -31.9010   25.1110 C   0  0  1  0  0  0  0  0  0  0  0  0
  -25.2290  -31.6240   26.1640 C   0  0  0  0  0  1  0  0  0  0  0  0
  -26.9810  -30.5480   24.7500 C   0  0  0  0  0  1  0  0  0  0  0  0
  -27.4300  -32.7550   25.7820 C   0  0  0  0  0  1  0  0  0  0  0  0
  1  3  2  0
  1  6  1  0
  2  4  2  0
  3  2  1  0
  4 47  1  0
  5  4  1  0
  5  7  1  0
  6  5  2  0
  8  2  1  0
  9 14  1  0
 10 11  1  0
 10  9  1  0
 12 11  1  0
 12 19  1  0
 12 13  1  0
 14  8  1  0
 14 13  1  0
 15  8  2  0
 16 17  2  0
 17 36  1  0
 18 17  1  0
 18 21  1  0
 19 20  1  0
 19 16  1  0
 20 18  2  0
 21 22  1  0
 22 23  2  0
 24 27  1  0
 24 23  1  0
 25 24  2  0
 26 25  1  0
 26 21  2  0
 27 28  1  0
 28 33  2  0
 28 29  1  0
 29 30  2  0
 30 31  1  0
 31 35  1  0
 32 31  2  0
 33 32  1  0
 34 33  1  0
 36 37  1  0
 37 40  1  0
 37 39  1  0
 38 36  2  0
 41 16  1  0
 41 42  1  0
 43 41  1  0
 45 44  1  0
 45  3  1  0
 46 47  1  0
 48  6  1  0
 48 49  1  0
 50 51  1  0
 50 49  2  0
 51 53  1  0
 52 63  2  0
 53 58  1  0
 54 62  1  0
 54 64  1  0
 55 61  1  0
 55 57  1  0
 56 62  1  0
 57 56  1  0
 58 57  2  0
 59 60  1  0
 59 53  2  0
 60 55  2  0
 61 54  1  0
 62 52  1  0
 64 66  2  0
 65 64  1  0
 67 65  1  0
 68 77  2  0
 68 73  1  0
 69 65  1  0
 69 73  1  0
 70 69  1  0
 71 72  1  0
 71 70  1  0
 72 68  1  0
 73 74  2  0
 74 75  1  0
 76 75  2  0
 77 76  1  0
 78 52  1  0
 78 79  1  0
 78 88  1  0
 79 82  1  0
 80 84  1  0
 80 79  1  0
 81 80  2  0
 84 83  1  0
 86 84  1  0
 86 87  1  0
 86 85  1  0
 88 91  1  1
 88 89  1  0
 90 88  1  0
M  ISO  4   2 100   8 100  50 101  51 101
M  END
>  <TORSDO>  (60) 
F 21

>  <SCORE>  (60) 
-9.764

>  <name>  (60) 
59

>  <ligand_id>  (60) 
59

>  <original_smiles>  (60) 
[H]c1c([H])c([H])c2c(c1[H])C([H])([H])C([H])([H])C([H])([H])C2([H])N([H])C(=O)C1([H])N(C(=O)C([H])(N([H])C(=O)C([H])(N([H])C([H])([H])[H])C([H])([H])[H])C(C([H])([H])[H])(C([H])([H])[H])C([H])([H])[H])C([H])([H])c2c([H])c(OC([H])([H])C([H])([H])Oc3c([H])c(C([H])([H])C([H])([H])[H])c(C(=O)N4C([H])([H])C([H])([H])C([H])([H])C([H])(n5nc(-c6c([H])c([H])c(Oc7c([H])c([H])c(F)c([H])c7F)c([H])c6[H])c(C(=O)N([H])[H])c5N([H])[H])C4([H])[H])c(C([H])([H])C([H])([H])[H])c3C([H])([H])[H])c([H])c([H])c2C1([H])[H]

>  <smiles>  (60) 
[H]c1c([H])c([H])c2c(c1[H])C([H])([H])C([H])([H])C([H])([H])C2([H])N([H])C(=O)C1([H])N(C(=O)C([H])(N([H])C(=O)C([H])(N([H])C([H])([H])[H])C([H])([H])[H])C(C([H])([H])[H])(C([H])([H])[H])C([H])([H])[H])C([H])([H])c2c([H])c(OC([H])([H])C([H])([H])Oc3c([H])c(C([H])([H])C([H])([H])[H])c(C(=O)N4C([H])([H])C([H])([H])C([H])([H])C([H])(n5nc(-c6c([H])c([H])c(Oc7c([H])c([H])c(F)c([H])c7F)c([H])c6[H])c(C(=O)N([H])[H])c5N([H])[H])C4([H])[H])c(C([H])([H])C([H])([H])[H])c3C([H])([H])[H])c([H])c([H])c2C1([H])[H]

$$$$
60:0:0
     RDKit          3D

101110  0  0  1  0  0  0  0  0999 V2000
  -28.6840  -24.2490   19.2370 C   0  0  0  0  0  3  0  0  0  0  0  0
  -29.0780  -22.9600   19.7690 C   0  0  0  0  0  0  0  0  0  0  0  0
  -29.6290  -22.9570   21.0930 C   0  0  0  0  0  0  0  0  0  0  0  0
  -29.7070  -24.1740   21.8380 C   0  0  0  0  0  0  0  0  0  0  0  0
  -28.7800  -25.4820   19.9780 C   0  0  0  0  0  0  0  0  0  0  0  0
  -29.2820  -25.4010   21.2850 C   0  0  0  0  0  0  0  0  0  0  0  0
  -29.3880  -26.5380   22.0170 F   0  0  0  0  0  0  0  0  0  0  0  0
  -29.1380  -24.1850   24.3250 C   0  0  0  0  0  1  0  0  0  0  0  0
  -30.2510  -24.2230   23.2680 C   0  0  0  0  0  2  0  0  0  0  0  0
  -28.5570  -26.7690   19.4520 O   0  0  0  0  0  0  0  0  0  0  0  0
  -24.7700  -31.7560   23.1260 C   0  0  0  0  0  0  0  0  0  0  0  0
  -27.3930  -27.5100   19.6710 C   0  0  0  0  0  0  0  0  0  0  0  0
  -23.5440  -30.4380   21.4350 C   0  0  0  0  0  3  0  0  0  0  0  0
  -24.9790  -29.0170   19.8680 C   0  0  0  0  0  0  0  0  0  0  0  0
  -26.0610  -30.8430   21.1820 C   0  0  0  0  0  2  0  0  0  0  0  0
  -26.1520  -29.5070   20.4560 C   0  0  0  0  0  0  0  0  0  0  0  0
  -27.3630  -28.7650   20.3500 C   0  0  0  0  0  3  0  0  0  0  0  0
  -26.1960  -27.0540   19.0840 C   0  0  0  0  0  3  0  0  0  0  0  0
  -24.9980  -27.7910   19.1800 C   0  0  0  0  0  3  0  0  0  0  0  0
  -23.7240  -29.8550   20.0080 C   0  0  0  0  0  2  0  0  0  0  0  0
  -24.8130  -31.0280   21.9720 N   0  0  0  0  0  0  0  0  0  0  0  0
  -23.7000  -31.9640   23.7160 O   0  0  0  0  0  0  0  0  0  0  0  0
  -22.9400  -29.3430   22.3480 C   0  0  0  0  0  0  0  0  0  0  0  0
  -21.6250  -29.1020   22.2170 N   0  0  0  0  0  0  0  0  0  0  0  0
  -23.6550  -28.7150   23.1320 O   0  0  0  0  0  0  0  0  0  0  0  0
  -21.1050  -29.6710   21.5620 H   0  0  0  0  0  0  0  0  0  0  0  0
  -18.3400  -27.6320   22.5860 C   0  0  0  0  0  0  0  0  0  0  0  0
  -20.8600  -28.0840   22.9400 C   0  0  0  0  0  3  0  0  0  0  0  0
  -21.0920  -26.6800   22.3350 C   0  0  0  0  0  2  0  0  0  0  0  0
  -20.0480  -26.2960   21.2820 C   0  0  0  0  0  2  0  0  0  0  0  0
  -18.6420  -26.3170   21.8880 C   0  0  0  0  0  2  0  0  0  0  0  0
  -19.3820  -28.4680   23.0670 C   0  0  0  0  0  0  0  0  0  0  0  0
  -19.0470  -29.6950   23.6800 C   0  0  0  0  0  3  0  0  0  0  0  0
  -17.7030  -30.0880   23.8180 C   0  0  0  0  0  3  0  0  0  0  0  0
  -16.6750  -29.2500   23.3530 C   0  0  0  0  0  3  0  0  0  0  0  0
  -16.9940  -28.0240   22.7430 C   0  0  0  0  0  3  0  0  0  0  0  0
  -26.0590  -32.3780   23.7490 C   0  0  0  0  0  3  0  0  0  0  0  0
  -25.7460  -33.7650   24.1210 N   0  0  0  0  0  0  0  0  0  0  0  0
  -26.0720  -34.8410   23.3910 C   0  0  0  0  0  0  0  0  0  0  0  0
  -26.7360  -34.7680   22.3520 O   0  0  0  0  0  0  0  0  0  0  0  0
  -25.1590  -33.8940   24.9320 H   0  0  0  0  0  0  0  0  0  0  0  0
  -24.3490  -36.6520   23.0830 C   0  0  0  0  0  1  0  0  0  0  0  0
  -25.5840  -36.2170   23.8890 C   0  0  0  0  0  3  0  0  0  0  0  0
  -27.7200  -37.0710   24.7540 C   0  0  0  0  0  1  0  0  0  0  0  0
  -26.6210  -37.2710   23.8130 N   0  0  0  0  0  0  0  0  0  0  0  0
  -26.2180  -38.1870   23.9840 H   0  0  0  0  0  0  0  0  0  0  0  0
  -26.5920  -31.5750   24.9990 C   0  0  1  0  0  0  0  0  0  0  0  0
  -25.5170  -31.3120   26.0800 C   0  0  0  0  0  1  0  0  0  0  0  0
  -27.1700  -30.2080   24.5610 C   0  0  0  0  0  1  0  0  0  0  0  0
  -27.7530  -32.3510   25.6620 C   0  0  0  0  0  1  0  0  0  0  0  0
  -28.7220  -21.6310   18.9670 C   0  0  0  0  0  2  0  0  0  0  0  0
  -29.7080  -20.3710   18.7130 C   0  0  0  0  0  2  0  0  0  0  0  0
  -28.7390  -18.9140   20.6820 C   0  0  0  0  0  0  0  0  0  0  0  0
  -30.3550  -17.6870   19.0130 C   0  0  0  0  0  2  0  0  0  0  0  0
  -29.2450  -16.4960   20.9530 C   0  0  0  0  0  2  0  0  0  0  0  0
  -29.3030  -18.8970   19.2400 C   0  0  0  0  0  3  0  0  0  0  0  0
  -30.5550  -16.5360   20.1280 C   0  0  2  0  0  0  0  0  0  0  0  0
  -31.6580  -17.0580   21.0870 C   0  0  0  0  0  1  0  0  0  0  0  0
  -28.8000  -17.8030   21.4140 N   0  0  0  0  0  0  0  0  0  0  0  0
  -28.2290  -19.9200   21.1650 O   0  0  0  0  0  0  0  0  0  0  0  0
  -28.4770  -17.8640   22.3720 H   0  0  0  0  0  0  0  0  0  0  0  0
  -31.1000  -15.1050   19.5680 C   0  0  0  0  0  0  0  0  0  0  0  0
  -30.9270  -12.7290   18.7790 C   0  0  0  0  0  2  0  0  0  0  0  0
  -29.9120  -12.6090   17.6190 C   0  0  0  0  0  2  0  0  0  0  0  0
  -28.4750  -12.4310   18.1430 C   0  0  0  0  0  2  0  0  0  0  0  0
  -28.1380  -13.4420   19.2690 C   0  0  0  0  0  3  0  0  0  0  0  0
  -29.2600  -13.4430   20.3270 C   0  0  0  0  0  2  0  0  0  0  0  0
  -30.5050  -13.8550   19.6550 N   0  0  0  0  0  0  0  0  0  0  0  0
  -32.1780  -15.1700   18.9640 O   0  0  0  0  0  0  0  0  0  0  0  0
  -25.8410  -14.0980   20.2200 C   0  0  0  0  0  0  0  0  0  0  0  0
  -24.7930  -13.3500   20.6840 C   0  0  0  0  0  0  0  0  0  0  0  0
  -25.2060  -11.9900   20.5820 C   0  0  0  0  0  0  0  0  0  0  0  0
  -26.8300  -13.1920   19.8700 N   0  0  0  0  0  0  0  0  0  0  0  0
  -26.4560  -11.9150   20.1410 N   0  0  0  0  0  0  0  0  0  0  0  0
  -24.4570  -10.7460   20.8140 C   0  0  0  0  0  0  0  0  0  0  0  0
  -24.8640   -9.8120   21.7900 C   0  0  0  0  0  3  0  0  0  0  0  0
  -24.1180   -8.6330   22.0080 C   0  0  0  0  0  3  0  0  0  0  0  0
  -22.9520   -8.3800   21.2470 C   0  0  0  0  0  0  0  0  0  0  0  0
  -22.5660   -9.3030   20.2580 C   0  0  0  0  0  3  0  0  0  0  0  0
  -23.3120  -10.4730   20.0410 C   0  0  0  0  0  3  0  0  0  0  0  0
  -22.1770   -7.2520   21.3700 O   0  0  0  0  0  0  0  0  0  0  0  0
  -21.9960   -6.6330   22.5810 C   0  0  0  0  0  0  0  0  0  0  0  0
  -21.4590   -7.3150   23.6940 C   0  0  0  0  0  3  0  0  0  0  0  0
  -21.2250   -6.6240   24.8990 C   0  0  0  0  0  3  0  0  0  0  0  0
  -21.5170   -5.2480   24.9890 C   0  0  0  0  0  0  0  0  0  0  0  0
  -22.0440   -4.5650   23.8790 C   0  0  0  0  0  3  0  0  0  0  0  0
  -22.2800   -5.2560   22.6780 C   0  0  0  0  0  0  0  0  0  0  0  0
  -22.7670   -4.5880   21.6040 F   0  0  0  0  0  0  0  0  0  0  0  0
  -21.2830   -4.5810   26.1440 F   0  0  0  0  0  0  0  0  0  0  0  0
  -23.4420  -13.8630   21.1000 C   0  0  0  0  0  0  0  0  0  0  0  0
  -22.7990  -13.1970   22.0520 N   0  0  0  0  0  0  0  0  0  0  0  0
  -22.9690  -14.8910   20.6150 O   0  0  0  0  0  0  0  0  0  0  0  0
  -23.2010  -12.3750   22.4790 H   0  0  0  0  0  0  0  0  0  0  0  0
  -21.8900  -13.5110   22.3630 H   0  0  0  0  0  0  0  0  0  0  0  0
  -26.0180  -15.4640   20.0390 N   0  0  0  0  0  0  0  0  0  0  0  0
  -25.2610  -16.1210   20.1900 H   0  0  0  0  0  0  0  0  0  0  0  0
  -26.8100  -15.8780   19.5640 H   0  0  0  0  0  0  0  0  0  0  0  0
  -30.1180  -21.6750   21.7710 C   0  0  0  0  0  2  0  0  0  0  0  0
  -31.5760  -21.3010   21.4100 C   0  0  0  0  0  2  0  0  0  0  0  0
  -33.5670  -19.8020   21.9690 C   0  0  0  0  0  1  0  0  0  0  0  0
  -32.1060  -20.1490   22.2810 C   0  0  0  0  0  2  0  0  0  0  0  0
  1  2  2  0
  1  5  1  0
  2  3  1  0
  3 98  1  0
  3  4  2  0
  4  9  1  0
  5  6  2  0
  6  4  1  0
  6  7  1  0
  9  8  1  0
 10 12  1  0
 10  5  1  0
 11 22  2  0
 12 17  1  0
 13 21  1  0
 13 23  1  0
 14 20  1  0
 14 16  1  0
 15 21  1  0
 16 15  1  0
 17 16  2  0
 18 19  1  0
 18 12  2  0
 19 14  2  0
 20 13  1  0
 21 11  1  0
 23 25  2  0
 24 23  1  0
 26 24  1  0
 27 36  2  0
 27 32  1  0
 28 24  1  0
 28 32  1  0
 29 28  1  0
 30 31  1  0
 30 29  1  0
 31 27  1  0
 32 33  2  0
 33 34  1  0
 35 34  2  0
 36 35  1  0
 37 11  1  0
 37 38  1  0
 37 47  1  0
 38 41  1  0
 39 43  1  0
 39 38  1  0
 40 39  2  0
 43 42  1  0
 45 43  1  0
 45 46  1  0
 45 44  1  0
 47 50  1  1
 47 48  1  0
 49 47  1  0
 51  2  1  0
 52 51  1  0
 53 60  2  0
 53 59  1  0
 54 56  1  0
 54 57  1  0
 55 59  1  0
 56 52  1  0
 56 53  1  0
 57 55  1  0
 57 58  1  1
 59 61  1  0
 62 68  1  0
 62 57  1  0
 63 68  1  0
 64 65  1  0
 64 63  1  0
 66 65  1  0
 66 73  1  0
 66 67  1  0
 68 67  1  0
 69 62  2  0
 70 71  2  0
 71 90  1  0
 72 71  1  0
 72 75  1  0
 73 74  1  0
 73 70  1  0
 74 72  2  0
 75 76  1  0
 76 77  2  0
 78 81  1  0
 78 77  1  0
 79 78  2  0
 80 79  1  0
 80 75  2  0
 81 82  1  0
 82 87  2  0
 82 83  1  0
 83 84  2  0
 84 85  1  0
 85 89  1  0
 86 85  2  0
 87 86  1  0
 88 87  1  0
 90 91  1  0
 91 94  1  0
 91 93  1  0
 92 90  2  0
 95 96  1  0
 95 70  1  0
 97 95  1  0
 99 98  1  0
 99101  1  0
100101  1  0
M  ISO  4   5 101  10 101  57 100  62 100
M  END
>  <TORSDO>  (61) 
F 23

>  <SCORE>  (61) 
-10.719

>  <name>  (61) 
60

>  <ligand_id>  (61) 
60

>  <original_smiles>  (61) 
[H]c1c([H])c([H])c2c(c1[H])C([H])([H])C([H])([H])C([H])([H])C2([H])N([H])C(=O)C1([H])N(C(=O)C([H])(N([H])C(=O)C([H])(N([H])C([H])([H])[H])C([H])([H])[H])C(C([H])([H])[H])(C([H])([H])[H])C([H])([H])[H])C([H])([H])c2c([H])c(Oc3c([H])c(C([H])([H])C([H])([H])C4([H])C(=O)N([H])C([H])([H])C(C(=O)N5C([H])([H])C([H])([H])C([H])([H])C([H])(n6nc(-c7c([H])c([H])c(Oc8c([H])c([H])c(F)c([H])c8F)c([H])c7[H])c(C(=O)N([H])[H])c6N([H])[H])C5([H])[H])(C([H])([H])[H])C4([H])[H])c(C([H])([H])C([H])([H])C([H])([H])C([H])([H])[H])c(C([H])([H])C([H])([H])[H])c3F)c([H])c([H])c2C1([H])[H]

>  <smiles>  (61) 
[H]c1c([H])c([H])c2c(c1[H])C([H])([H])C([H])([H])C([H])([H])C2([H])N([H])C(=O)C1([H])N(C(=O)C([H])(N([H])C(=O)C([H])(N([H])C([H])([H])[H])C([H])([H])[H])C(C([H])([H])[H])(C([H])([H])[H])C([H])([H])[H])C([H])([H])c2c([H])c(Oc3c([H])c(C([H])([H])C([H])([H])C4([H])C(=O)N([H])C([H])([H])C(C(=O)N5C([H])([H])C([H])([H])C([H])([H])C([H])(n6nc(-c7c([H])c([H])c(Oc8c([H])c([H])c(F)c([H])c8F)c([H])c7[H])c(C(=O)N([H])[H])c6N([H])[H])C5([H])[H])(C([H])([H])[H])C4([H])[H])c(C([H])([H])C([H])([H])C([H])([H])C([H])([H])[H])c(C([H])([H])C([H])([H])[H])c3F)c([H])c([H])c2C1([H])[H]

$$$$
61:0:0
     RDKit          3D

 91 99  0  0  1  0  0  0  0  0999 V2000
  -27.8340  -21.1750   20.5160 C   0  0  0  0  0  3  0  0  0  0  0  0
  -27.1990  -23.6750   20.5150 C   0  0  0  0  0  3  0  0  0  0  0  0
  -29.1520  -21.2790   20.0060 C   0  0  0  0  0  0  0  0  0  0  0  0
  -26.9480  -22.2780   20.7610 C   0  0  0  0  0  0  0  0  0  0  0  0
  -28.4070  -24.2260   20.0160 C   0  0  0  0  0  0  0  0  0  0  0  0
  -29.3530  -22.8980   19.7900 C   0  0  0  0  0  0  0  0  0  0  0  0
  -30.5800  -23.2160   19.3150 F   0  0  0  0  0  0  0  0  0  0  0  0
  -25.7160  -21.9500   21.3210 N   0  0  0  0  0  0  0  0  0  0  0  0
  -25.4390  -20.9850   21.4690 H   0  0  0  0  0  0  0  0  0  0  0  0
  -25.0820  -22.6490   21.6950 H   0  0  0  0  0  0  0  0  0  0  0  0
  -30.7450  -19.7200   18.3810 C   0  0  0  0  0  1  0  0  0  0  0  0
  -30.1220  -19.6240   19.7950 C   0  0  0  0  0  0  0  0  0  0  0  0
  -30.7490  -16.4080   20.0070 C   0  0  0  0  0  0  0  0  0  0  0  0
  -30.9310  -13.8250   19.2440 C   0  0  0  0  0  2  0  0  0  0  0  0
  -30.0510  -13.2960   18.0730 C   0  0  0  0  0  2  0  0  0  0  0  0
  -28.6510  -12.8920   18.5480 C   0  0  0  0  0  2  0  0  0  0  0  0
  -28.1070  -13.8990   19.5850 C   0  0  0  0  0  3  0  0  0  0  0  0
  -29.1340  -14.3280   20.6640 C   0  0  0  0  0  2  0  0  0  0  0  0
  -30.2580  -15.0090   19.9640 N   0  0  0  0  0  0  0  0  0  0  0  0
  -31.9860  -16.3300   19.8490 O   0  0  0  0  0  0  0  0  0  0  0  0
  -29.9790  -17.8100   20.0220 N   0  0  0  0  0  4  0  0  0  0  0  0
  -28.9990  -17.5900   20.1210 H   0  0  0  0  0  0  0  0  0  0  0  0
  -25.7790  -14.3620   20.4530 C   0  0  0  0  0  0  0  0  0  0  0  0
  -24.7370  -13.5560   20.8130 C   0  0  0  0  0  0  0  0  0  0  0  0
  -25.2190  -12.2150   20.7050 C   0  0  0  0  0  0  0  0  0  0  0  0
  -26.8200  -13.5150   20.1430 N   0  0  0  0  0  0  0  0  0  0  0  0
  -26.5020  -12.2120   20.3560 N   0  0  0  0  0  0  0  0  0  0  0  0
  -24.5030  -10.9380   20.8480 C   0  0  0  0  0  0  0  0  0  0  0  0
  -24.8910   -9.9700   21.8010 C   0  0  0  0  0  3  0  0  0  0  0  0
  -24.1660   -8.7650   21.9310 C   0  0  0  0  0  3  0  0  0  0  0  0
  -23.0400   -8.5200   21.1110 C   0  0  0  0  0  0  0  0  0  0  0  0
  -22.6780   -9.4750   20.1440 C   0  0  0  0  0  3  0  0  0  0  0  0
  -23.4010  -10.6690   20.0110 C   0  0  0  0  0  3  0  0  0  0  0  0
  -22.2900   -7.3680   21.1540 O   0  0  0  0  0  0  0  0  0  0  0  0
  -22.0810   -6.6870   22.3260 C   0  0  0  0  0  0  0  0  0  0  0  0
  -21.4340   -7.2860   23.4300 C   0  0  0  0  0  3  0  0  0  0  0  0
  -21.1750   -6.5280   24.5890 C   0  0  0  0  0  3  0  0  0  0  0  0
  -21.5510   -5.1720   24.6450 C   0  0  0  0  0  0  0  0  0  0  0  0
  -22.1860   -4.5730   23.5450 C   0  0  0  0  0  3  0  0  0  0  0  0
  -22.4500   -5.3280   22.3880 C   0  0  0  0  0  0  0  0  0  0  0  0
  -23.0440   -4.7380   21.3230 F   0  0  0  0  0  0  0  0  0  0  0  0
  -21.2950   -4.4430   25.7580 F   0  0  0  0  0  0  0  0  0  0  0  0
  -23.3410  -14.0090   21.1340 C   0  0  0  0  0  0  0  0  0  0  0  0
  -22.6410  -13.2690   21.9840 N   0  0  0  0  0  0  0  0  0  0  0  0
  -22.8840  -15.0500   20.6610 O   0  0  0  0  0  0  0  0  0  0  0  0
  -23.0270  -12.4300   22.3910 H   0  0  0  0  0  0  0  0  0  0  0  0
  -21.7040  -13.5460   22.2310 H   0  0  0  0  0  0  0  0  0  0  0  0
  -25.9180  -15.7410   20.3250 N   0  0  0  0  0  0  0  0  0  0  0  0
  -25.1350  -16.3790   20.4290 H   0  0  0  0  0  0  0  0  0  0  0  0
  -26.7330  -16.1870   19.9220 H   0  0  0  0  0  0  0  0  0  0  0  0
  -28.4650  -25.8800   19.9000 O   0  0  0  0  0  0  0  0  0  0  0  0
  -24.9550  -32.0900   23.3440 C   0  0  0  0  0  0  0  0  0  0  0  0
  -27.4810  -27.1260   20.0250 C   0  0  0  0  0  0  0  0  0  0  0  0
  -23.7640  -30.7840   21.6380 C   0  0  0  0  0  3  0  0  0  0  0  0
  -25.2110  -29.2120   20.1230 C   0  0  0  0  0  0  0  0  0  0  0  0
  -26.3450  -30.9160   21.5230 C   0  0  0  0  0  2  0  0  0  0  0  0
  -26.4120  -29.5160   20.7760 C   0  0  0  0  0  0  0  0  0  0  0  0
  -27.5230  -28.5010   20.7010 C   0  0  0  0  0  3  0  0  0  0  0  0
  -26.2440  -27.0730   19.3280 C   0  0  0  0  0  3  0  0  0  0  0  0
  -25.1690  -28.0180   19.3780 C   0  0  0  0  0  3  0  0  0  0  0  0
  -24.0040  -30.1660   20.2290 C   0  0  0  0  0  2  0  0  0  0  0  0
  -25.0450  -31.2960   22.2220 N   0  0  0  0  0  0  0  0  0  0  0  0
  -23.8650  -32.3590   23.8770 O   0  0  0  0  0  0  0  0  0  0  0  0
  -23.0560  -29.7520   22.5590 C   0  0  0  0  0  0  0  0  0  0  0  0
  -21.7310  -29.5560   22.4010 N   0  0  0  0  0  0  0  0  0  0  0  0
  -23.7110  -29.1210   23.3900 O   0  0  0  0  0  0  0  0  0  0  0  0
  -21.2460  -30.1210   21.7160 H   0  0  0  0  0  0  0  0  0  0  0  0
  -18.3730  -28.2260   22.8180 C   0  0  0  0  0  0  0  0  0  0  0  0
  -20.9200  -28.5630   23.1200 C   0  0  0  0  0  3  0  0  0  0  0  0
  -21.0730  -27.1640   22.4810 C   0  0  0  0  0  2  0  0  0  0  0  0
  -19.9910  -26.8560   21.4390 C   0  0  0  0  0  2  0  0  0  0  0  0
  -18.6000  -26.9200   22.0760 C   0  0  0  0  0  2  0  0  0  0  0  0
  -19.4630  -29.0060   23.2930 C   0  0  0  0  0  0  0  0  0  0  0  0
  -19.1900  -30.2260   23.9540 C   0  0  0  0  0  3  0  0  0  0  0  0
  -17.8650  -30.6670   24.1370 C   0  0  0  0  0  3  0  0  0  0  0  0
  -16.7950  -29.8850   23.6770 C   0  0  0  0  0  3  0  0  0  0  0  0
  -17.0490  -28.6660   23.0270 C   0  0  0  0  0  3  0  0  0  0  0  0
  -26.2180  -32.7140   24.0130 C   0  0  0  0  0  3  0  0  0  0  0  0
  -25.8950  -34.0980   24.4190 N   0  0  0  0  0  0  0  0  0  0  0  0
  -26.1940  -35.2010   23.7200 C   0  0  0  0  0  0  0  0  0  0  0  0
  -26.8230  -35.1620   22.6600 O   0  0  0  0  0  0  0  0  0  0  0  0
  -25.3360  -34.2010   25.2530 H   0  0  0  0  0  0  0  0  0  0  0  0
  -24.4260  -36.9900   23.5620 C   0  0  0  0  0  1  0  0  0  0  0  0
  -25.7200  -36.5620   24.2750 C   0  0  0  0  0  3  0  0  0  0  0  0
  -27.8840  -37.4490   25.0310 C   0  0  0  0  0  1  0  0  0  0  0  0
  -26.7290  -37.6400   24.1570 N   0  0  0  0  0  0  0  0  0  0  0  0
  -26.3150  -38.5430   24.3740 H   0  0  0  0  0  0  0  0  0  0  0  0
  -26.7200  -31.8980   25.2730 C   0  0  1  0  0  0  0  0  0  0  0  0
  -25.6130  -31.6270   26.3220 C   0  0  0  0  0  1  0  0  0  0  0  0
  -27.3050  -30.5290   24.8590 C   0  0  0  0  0  1  0  0  0  0  0  0
  -27.8610  -32.6690   25.9760 C   0  0  0  0  0  1  0  0  0  0  0  0
  1  4  1  0
  2  4  2  0
  3  1  2  0
  4  8  1  0
  5  2  1  0
  6  3  1  0
  6  5  2  0
  7  6  1  0
  8  9  1  0
  8 10  1  0
 11 12  1  0
 12  3  1  0
 12 21  2  0
 13 21  1  0
 14 19  1  0
 15 16  1  0
 15 14  1  0
 17 16  1  0
 17 26  1  0
 17 18  1  0
 19 13  1  0
 19 18  1  0
 20 13  2  0
 21 22  1  0
 23 24  2  0
 24 43  1  0
 25 24  1  0
 25 28  1  0
 26 27  1  0
 26 23  1  0
 27 25  2  0
 28 29  1  0
 29 30  2  0
 31 34  1  0
 31 30  1  0
 32 31  2  0
 33 32  1  0
 33 28  2  0
 34 35  1  0
 35 40  2  0
 35 36  1  0
 36 37  2  0
 37 38  1  0
 38 42  1  0
 39 38  2  0
 40 39  1  0
 41 40  1  0
 43 44  1  0
 44 47  1  0
 44 46  1  0
 45 43  2  0
 48 49  1  0
 48 23  1  0
 50 48  1  0
 51  5  1  0
 51 53  1  0
 52 63  2  0
 53 58  1  0
 54 62  1  0
 54 64  1  0
 55 61  1  0
 55 57  1  0
 56 62  1  0
 57 56  1  0
 58 57  2  0
 59 60  1  0
 59 53  2  0
 60 55  2  0
 61 54  1  0
 62 52  1  0
 64 66  2  0
 65 64  1  0
 67 65  1  0
 68 77  2  0
 68 73  1  0
 69 65  1  0
 69 73  1  0
 70 69  1  0
 71 72  1  0
 71 70  1  0
 72 68  1  0
 73 74  2  0
 74 75  1  0
 76 75  2  0
 77 76  1  0
 78 52  1  0
 78 79  1  0
 78 88  1  0
 79 82  1  0
 80 84  1  0
 80 79  1  0
 81 80  2  0
 84 83  1  0
 86 84  1  0
 86 87  1  0
 86 85  1  0
 88 91  1  1
 88 89  1  0
 90 88  1  0
M  ISO  4   5 101  13 100  21 100  51 101
M  END
>  <TORSDO>  (62) 
F 18

>  <SCORE>  (62) 
-12.684

>  <name>  (62) 
61

>  <ligand_id>  (62) 
61

>  <original_smiles>  (62) 
[H]c1c([H])c([H])c2c(c1[H])C([H])([H])C([H])([H])C([H])([H])C2([H])N([H])C(=O)C1([H])N(C(=O)C([H])(N([H])C(=O)C([H])(N([H])C([H])([H])[H])C([H])([H])[H])C(C([H])([H])[H])(C([H])([H])[H])C([H])([H])[H])C([H])([H])c2c([H])c(Oc3c([H])c(N([H])[H])c([H])c(C([H])(N([H])C(=O)N4C([H])([H])C([H])([H])C([H])([H])C([H])(n5nc(-c6c([H])c([H])c(Oc7c([H])c([H])c(F)c([H])c7F)c([H])c6[H])c(C(=O)N([H])[H])c5N([H])[H])C4([H])[H])C([H])([H])[H])c3F)c([H])c([H])c2C1([H])[H]

>  <smiles>  (62) 
[H]c1c([H])c([H])c2c(c1[H])C([H])([H])C([H])([H])C([H])([H])C2([H])N([H])C(=O)C1([H])N(C(=O)C([H])(N([H])C(=O)C([H])(N([H])C([H])([H])[H])C([H])([H])[H])C(C([H])([H])[H])(C([H])([H])[H])C([H])([H])[H])C([H])([H])c2c([H])c(Oc3c([H])c(N([H])[H])c([H])c(C([H])(N([H])C(=O)N4C([H])([H])C([H])([H])C([H])([H])C([H])(n5nc(-c6c([H])c([H])c(Oc7c([H])c([H])c(F)c([H])c7F)c([H])c6[H])c(C(=O)N([H])[H])c5N([H])[H])C4([H])[H])C([H])([H])[H])c3F)c([H])c([H])c2C1([H])[H]

$$$$
62:0:0
     RDKit          3D

 89 97  0  0  1  0  0  0  0  0999 V2000
  -28.4490  -22.1960   21.3100 C   0  0  0  0  0  3  0  0  0  0  0  0
  -28.7810  -22.2380   19.0350 C   0  0  0  0  0  3  0  0  0  0  0  0
  -28.7690  -21.3370   20.1780 C   0  0  0  0  0  0  0  0  0  0  0  0
  -28.2150  -23.6670   21.3100 C   0  0  0  0  0  0  0  0  0  0  0  0
  -28.5450  -23.7050   19.0160 C   0  0  0  0  0  0  0  0  0  0  0  0
  -28.2220  -24.5580   20.1540 C   0  0  0  0  0  0  0  0  0  0  0  0
  -27.9350  -24.3130   22.6530 C   0  0  0  0  0  1  0  0  0  0  0  0
  -28.6480  -24.3970   17.6700 C   0  0  0  0  0  1  0  0  0  0  0  0
  -28.1930  -26.0820   20.1450 O   0  0  0  0  0  0  0  0  0  0  0  0
  -24.6320  -31.9320   23.2260 C   0  0  0  0  0  0  0  0  0  0  0  0
  -27.1180  -27.0940   20.1540 C   0  0  0  0  0  0  0  0  0  0  0  0
  -23.3980  -30.5430   21.6060 C   0  0  0  0  0  3  0  0  0  0  0  0
  -24.8100  -28.9350   20.1570 C   0  0  0  0  0  0  0  0  0  0  0  0
  -25.9560  -30.7580   21.4070 C   0  0  0  0  0  2  0  0  0  0  0  0
  -26.0060  -29.3510   20.7540 C   0  0  0  0  0  0  0  0  0  0  0  0
  -27.1520  -28.4490   20.7310 C   0  0  0  0  0  3  0  0  0  0  0  0
  -25.8940  -26.8090   19.5140 C   0  0  0  0  0  3  0  0  0  0  0  0
  -24.7730  -27.6820   19.5200 C   0  0  0  0  0  3  0  0  0  0  0  0
  -23.5950  -29.8580   20.2260 C   0  0  0  0  0  2  0  0  0  0  0  0
  -24.6840  -31.1050   22.1330 N   0  0  0  0  0  0  0  0  0  0  0  0
  -23.5550  -32.2250   23.7700 O   0  0  0  0  0  0  0  0  0  0  0  0
  -22.7210  -29.5490   22.5840 C   0  0  0  0  0  0  0  0  0  0  0  0
  -21.3930  -29.3690   22.4650 N   0  0  0  0  0  0  0  0  0  0  0  0
  -23.3970  -28.9380   23.4160 O   0  0  0  0  0  0  0  0  0  0  0  0
  -20.9000  -29.9130   21.7710 H   0  0  0  0  0  0  0  0  0  0  0  0
  -18.0290  -28.1160   22.9790 C   0  0  0  0  0  0  0  0  0  0  0  0
  -20.5830  -28.4300   23.2480 C   0  0  0  0  0  3  0  0  0  0  0  0
  -20.7100  -26.9900   22.6950 C   0  0  0  0  0  2  0  0  0  0  0  0
  -19.6170  -26.6330   21.6830 C   0  0  0  0  0  2  0  0  0  0  0  0
  -18.2310  -26.7620   22.3210 C   0  0  0  0  0  2  0  0  0  0  0  0
  -19.1330  -28.9060   23.4000 C   0  0  0  0  0  0  0  0  0  0  0  0
  -18.8870  -30.1690   23.9790 C   0  0  0  0  0  3  0  0  0  0  0  0
  -17.5720  -30.6450   24.1410 C   0  0  0  0  0  3  0  0  0  0  0  0
  -16.4830  -29.8540   23.7340 C   0  0  0  0  0  3  0  0  0  0  0  0
  -16.7130  -28.5910   23.1600 C   0  0  0  0  0  3  0  0  0  0  0  0
  -25.9190  -32.5640   23.8350 C   0  0  0  0  0  3  0  0  0  0  0  0
  -25.6180  -33.9660   24.1750 N   0  0  0  0  0  0  0  0  0  0  0  0
  -25.9220  -35.0240   23.4100 C   0  0  0  0  0  0  0  0  0  0  0  0
  -26.5500  -34.9220   22.3530 O   0  0  0  0  0  0  0  0  0  0  0  0
  -25.0560  -34.1180   24.9990 H   0  0  0  0  0  0  0  0  0  0  0  0
  -24.1810  -36.8240   23.1450 C   0  0  0  0  0  1  0  0  0  0  0  0
  -25.4600  -36.4150   23.8930 C   0  0  0  0  0  3  0  0  0  0  0  0
  -27.6270  -37.3080   24.6270 C   0  0  0  0  0  1  0  0  0  0  0  0
  -26.4870  -37.4670   23.7290 N   0  0  0  0  0  0  0  0  0  0  0  0
  -26.0870  -38.3880   23.8840 H   0  0  0  0  0  0  0  0  0  0  0  0
  -26.4440  -31.7980   25.1110 C   0  0  1  0  0  0  0  0  0  0  0  0
  -25.3610  -31.5730   26.1930 C   0  0  0  0  0  1  0  0  0  0  0  0
  -27.0140  -30.4130   24.7280 C   0  0  0  0  0  1  0  0  0  0  0  0
  -27.6060  -32.5870   25.7570 C   0  0  0  0  0  1  0  0  0  0  0  0
  -28.7490  -19.6020   20.1140 C   0  0  0  0  0  3  0  0  0  0  0  0
  -29.8770  -18.2390   20.3290 C   0  0  0  0  0  3  0  0  0  0  0  0
  -30.3730  -15.3490   20.1750 C   0  0  0  0  0  0  0  0  0  0  0  0
  -30.3420  -12.9050   19.3250 C   0  0  0  0  0  2  0  0  0  0  0  0
  -29.3980  -12.6750   18.1190 C   0  0  0  0  0  2  0  0  0  0  0  0
  -27.9610  -12.3860   18.5970 C   0  0  0  0  0  2  0  0  0  0  0  0
  -27.5120  -13.3520   19.7210 C   0  0  0  0  0  3  0  0  0  0  0  0
  -28.5860  -13.5520   20.8100 C   0  0  0  0  0  2  0  0  0  0  0  0
  -29.7970  -14.0500   20.1320 N   0  0  0  0  0  0  0  0  0  0  0  0
  -31.6100  -15.3380   20.1020 O   0  0  0  0  0  0  0  0  0  0  0  0
  -28.5480  -16.5860   19.0600 C   0  0  0  0  0  1  0  0  0  0  0  0
  -29.6050  -16.6220   20.0710 N   0  0  0  0  0  0  0  0  0  0  0  0
  -25.1590  -13.9120   20.5250 C   0  0  0  0  0  0  0  0  0  0  0  0
  -24.1040  -13.1310   20.9000 C   0  0  0  0  0  0  0  0  0  0  0  0
  -24.5780  -11.7840   20.8540 C   0  0  0  0  0  0  0  0  0  0  0  0
  -26.2010  -13.0390   20.2610 N   0  0  0  0  0  0  0  0  0  0  0  0
  -25.8640  -11.7530   20.5270 N   0  0  0  0  0  0  0  0  0  0  0  0
  -23.8620  -10.5180   21.0430 C   0  0  0  0  0  0  0  0  0  0  0  0
  -24.3000   -9.5560   21.9790 C   0  0  0  0  0  3  0  0  0  0  0  0
  -23.5810   -8.3540   22.1560 C   0  0  0  0  0  3  0  0  0  0  0  0
  -22.4110   -8.1080   21.3980 C   0  0  0  0  0  0  0  0  0  0  0  0
  -21.9950   -9.0600   20.4510 C   0  0  0  0  0  3  0  0  0  0  0  0
  -22.7140  -10.2520   20.2710 C   0  0  0  0  0  3  0  0  0  0  0  0
  -21.6640   -6.9600   21.4860 O   0  0  0  0  0  0  0  0  0  0  0  0
  -21.6030   -6.2290   22.6450 C   0  0  0  0  0  0  0  0  0  0  0  0
  -21.1120   -6.7800   23.8480 C   0  0  0  0  0  3  0  0  0  0  0  0
  -21.0030   -5.9730   24.9990 C   0  0  0  0  0  3  0  0  0  0  0  0
  -21.3740   -4.6160   24.9460 C   0  0  0  0  0  0  0  0  0  0  0  0
  -21.8600   -4.0650   23.7470 C   0  0  0  0  0  3  0  0  0  0  0  0
  -21.9720   -4.8700   22.6000 C   0  0  0  0  0  0  0  0  0  0  0  0
  -22.4200   -4.3290   21.4410 F   0  0  0  0  0  0  0  0  0  0  0  0
  -21.2620   -3.8390   26.0480 F   0  0  0  0  0  0  0  0  0  0  0  0
  -22.7090  -13.6010   21.1860 C   0  0  0  0  0  0  0  0  0  0  0  0
  -21.9940  -12.9000   22.0580 N   0  0  0  0  0  0  0  0  0  0  0  0
  -22.2620  -14.6270   20.6730 O   0  0  0  0  0  0  0  0  0  0  0  0
  -22.3690  -12.0720   22.4970 H   0  0  0  0  0  0  0  0  0  0  0  0
  -21.0570  -13.1970   22.2930 H   0  0  0  0  0  0  0  0  0  0  0  0
  -25.3090  -15.2850   20.3580 N   0  0  0  0  0  0  0  0  0  0  0  0
  -24.5410  -15.9340   20.4940 H   0  0  0  0  0  0  0  0  0  0  0  0
  -26.1590  -15.7370   20.0520 H   0  0  0  0  0  0  0  0  0  0  0  0
  1  4  1  0
  2  3  1  0
  3  1  2  0
  4  7  1  0
  5  2  2  0
  5  6  1  0
  6  4  2  0
  8  5  1  0
  9 11  1  0
  9  6  1  0
 10 21  2  0
 11 16  1  0
 12 20  1  0
 12 22  1  0
 13 19  1  0
 13 15  1  0
 14 20  1  0
 15 14  1  0
 16 15  2  0
 17 18  1  0
 17 11  2  0
 18 13  2  0
 19 12  1  0
 20 10  1  0
 22 24  2  0
 23 22  1  0
 25 23  1  0
 26 35  2  0
 26 31  1  0
 27 23  1  0
 27 31  1  0
 28 27  1  0
 29 30  1  0
 29 28  1  0
 30 26  1  0
 31 32  2  0
 32 33  1  0
 34 33  2  0
 35 34  1  0
 36 10  1  0
 36 37  1  0
 36 46  1  0
 37 40  1  0
 38 42  1  0
 38 37  1  0
 39 38  2  0
 42 41  1  0
 44 45  1  0
 44 42  1  0
 44 43  1  0
 46 49  1  1
 46 47  1  0
 48 46  1  0
 50  3  1  0
 50 51  2  0
 53 58  1  0
 54 55  1  0
 54 53  1  0
 56 55  1  0
 56 65  1  0
 56 57  1  0
 58 52  1  0
 58 57  1  0
 59 52  2  0
 60 61  1  0
 61 52  1  0
 61 51  1  0
 62 63  2  0
 63 82  1  0
 64 63  1  0
 64 67  1  0
 65 62  1  0
 65 66  1  0
 66 64  2  0
 67 68  1  0
 68 69  2  0
 70 73  1  0
 70 69  1  0
 71 70  2  0
 72 71  1  0
 72 67  2  0
 73 74  1  0
 74 75  1  0
 75 76  2  0
 77 76  1  0
 77 81  1  0
 78 77  2  0
 79 74  2  0
 79 78  1  0
 80 79  1  0
 82 83  1  0
 83 86  1  0
 83 85  1  0
 84 82  2  0
 87 88  1  0
 87 62  1  0
 89 87  1  0
M  ISO  4   6 101   9 101  52 100  61 100
M  END
>  <TORSDO>  (63) 
F 18

>  <SCORE>  (63) 
-15.447

>  <name>  (63) 
62

>  <ligand_id>  (63) 
62

>  <original_smiles>  (63) 
[H]c1c([H])c([H])c2c(c1[H])C([H])([H])C([H])([H])C([H])([H])C2([H])N([H])C(=O)C1([H])N(C(=O)C([H])(N([H])C(=O)C([H])(N([H])C([H])([H])[H])C([H])([H])[H])C(C([H])([H])[H])(C([H])([H])[H])C([H])([H])[H])C([H])([H])c2c([H])c(Oc3c(C([H])([H])[H])c([H])c(C([H])([H])C([H])([H])N(C(=O)N4C([H])([H])C([H])([H])C([H])([H])C([H])(n5nc(-c6c([H])c([H])c(Oc7c([H])c([H])c(F)c([H])c7F)c([H])c6[H])c(C(=O)N([H])[H])c5N([H])[H])C4([H])[H])C([H])([H])[H])c([H])c3C([H])([H])[H])c([H])c([H])c2C1([H])[H]

>  <smiles>  (63) 
[H]c1c([H])c([H])c2c(c1[H])C([H])([H])C([H])([H])C([H])([H])C2([H])N([H])C(=O)C1([H])N(C(=O)C([H])(N([H])C(=O)C([H])(N([H])C([H])([H])[H])C([H])([H])[H])C(C([H])([H])[H])(C([H])([H])[H])C([H])([H])[H])C([H])([H])c2c([H])c(Oc3c(C([H])([H])[H])c([H])c(C([H])([H])C([H])([H])N(C(=O)N4C([H])([H])C([H])([H])C([H])([H])C([H])(n5nc(-c6c([H])c([H])c(Oc7c([H])c([H])c(F)c([H])c7F)c([H])c6[H])c(C(=O)N([H])[H])c5N([H])[H])C4([H])[H])C([H])([H])[H])c([H])c3C([H])([H])[H])c([H])c([H])c2C1([H])[H]

$$$$
63:0:0
     RDKit          3D

 91100  0  0  1  0  0  0  0  0999 V2000
  -30.6060  -21.2910   21.3930 C   0  0  0  0  0  3  0  0  0  0  0  0
  -30.8250  -22.6270   21.8030 C   0  0  0  0  0  3  0  0  0  0  0  0
  -28.7570  -22.1160   20.0640 C   0  0  0  0  0  3  0  0  0  0  0  0
  -29.5580  -20.9590   20.5160 C   0  0  0  0  0  0  0  0  0  0  0  0
  -30.0250  -23.7190   21.3670 C   0  0  0  0  0  0  0  0  0  0  0  0
  -28.9530  -23.5260   20.4570 C   0  0  0  0  0  0  0  0  0  0  0  0
  -30.3370  -25.0950   21.9230 C   0  0  0  0  0  1  0  0  0  0  0  0
  -29.2880  -19.3970   20.1460 C   0  0  0  0  0  3  0  0  0  0  0  0
  -30.1890  -18.0240   20.5360 C   0  0  0  0  0  3  0  0  0  0  0  0
  -27.7200  -16.8110   19.2670 C   0  0  0  0  0  2  0  0  0  0  0  0
  -28.1330  -16.3040   20.6840 C   0  0  0  0  0  2  0  0  0  0  0  0
  -29.0760  -16.4290   18.7400 C   0  0  0  0  0  2  0  0  0  0  0  0
  -29.6040  -16.4850   20.1840 C   0  0  1  0  0  0  0  0  0  0  0  0
  -30.4740  -15.0450   20.3610 C   0  0  0  0  0  0  0  0  0  0  0  0
  -30.4410  -12.6620   19.4890 C   0  0  0  0  0  2  0  0  0  0  0  0
  -29.5240  -12.5580   18.2430 C   0  0  0  0  0  2  0  0  0  0  0  0
  -28.0510  -12.3320   18.6510 C   0  0  0  0  0  2  0  0  0  0  0  0
  -27.6050  -13.2500   19.8150 C   0  0  0  0  0  3  0  0  0  0  0  0
  -28.6520  -13.3070   20.9480 C   0  0  0  0  0  2  0  0  0  0  0  0
  -29.9260  -13.7520   20.3650 N   0  0  0  0  0  0  0  0  0  0  0  0
  -31.7000  -15.1040   20.2130 O   0  0  0  0  0  0  0  0  0  0  0  0
  -25.2010  -13.8170   20.5230 C   0  0  0  0  0  0  0  0  0  0  0  0
  -24.1440  -13.0330   20.8810 C   0  0  0  0  0  0  0  0  0  0  0  0
  -24.6340  -11.6950   20.8710 C   0  0  0  0  0  0  0  0  0  0  0  0
  -26.2650  -12.9530   20.3050 N   0  0  0  0  0  0  0  0  0  0  0  0
  -25.9300  -11.6710   20.5850 N   0  0  0  0  0  0  0  0  0  0  0  0
  -23.9270  -10.4270   21.0610 C   0  0  0  0  0  0  0  0  0  0  0  0
  -24.3660   -9.4740   22.0050 C   0  0  0  0  0  3  0  0  0  0  0  0
  -23.6580   -8.2680   22.1820 C   0  0  0  0  0  3  0  0  0  0  0  0
  -22.4960   -8.0090   21.4150 C   0  0  0  0  0  0  0  0  0  0  0  0
  -22.0780   -8.9520   20.4590 C   0  0  0  0  0  3  0  0  0  0  0  0
  -22.7870  -10.1500   20.2810 C   0  0  0  0  0  3  0  0  0  0  0  0
  -21.7570   -6.8530   21.5010 O   0  0  0  0  0  0  0  0  0  0  0  0
  -21.7130   -6.1140   22.6540 C   0  0  0  0  0  0  0  0  0  0  0  0
  -21.2650   -6.6650   23.8740 C   0  0  0  0  0  3  0  0  0  0  0  0
  -21.1700   -5.8500   25.0200 C   0  0  0  0  0  3  0  0  0  0  0  0
  -21.5100   -4.4860   24.9450 C   0  0  0  0  0  0  0  0  0  0  0  0
  -21.9480   -3.9350   23.7290 C   0  0  0  0  0  3  0  0  0  0  0  0
  -22.0490   -4.7470   22.5860 C   0  0  0  0  0  0  0  0  0  0  0  0
  -22.4530   -4.2080   21.4110 F   0  0  0  0  0  0  0  0  0  0  0  0
  -21.4110   -3.7010   26.0440 F   0  0  0  0  0  0  0  0  0  0  0  0
  -22.7370  -13.4950   21.1200 C   0  0  0  0  0  0  0  0  0  0  0  0
  -22.0070  -12.8000   21.9850 N   0  0  0  0  0  0  0  0  0  0  0  0
  -22.2930  -14.5080   20.5810 O   0  0  0  0  0  0  0  0  0  0  0  0
  -22.3820  -11.9830   22.4430 H   0  0  0  0  0  0  0  0  0  0  0  0
  -21.0620  -13.0880   22.1920 H   0  0  0  0  0  0  0  0  0  0  0  0
  -25.3160  -15.1850   20.3420 N   0  0  0  0  0  0  0  0  0  0  0  0
  -24.5390  -15.8250   20.4570 H   0  0  0  0  0  0  0  0  0  0  0  0
  -26.1790  -15.6450   20.0790 H   0  0  0  0  0  0  0  0  0  0  0  0
  -28.0080  -24.7720   19.9660 C   0  0  0  0  0  2  0  0  0  0  0  0
  -28.2300  -26.2670   20.2730 O   0  0  0  0  0  0  0  0  0  0  0  0
  -24.5920  -31.8990   23.2520 C   0  0  0  0  0  0  0  0  0  0  0  0
  -27.1600  -27.2200   20.1950 C   0  0  0  0  0  0  0  0  0  0  0  0
  -23.3780  -30.5010   21.6240 C   0  0  0  0  0  3  0  0  0  0  0  0
  -24.8180  -28.9330   20.1840 C   0  0  0  0  0  0  0  0  0  0  0  0
  -25.9270  -30.7750   21.4410 C   0  0  0  0  0  2  0  0  0  0  0  0
  -25.9960  -29.3850   20.7910 C   0  0  0  0  0  0  0  0  0  0  0  0
  -27.1620  -28.5400   20.7910 C   0  0  0  0  0  3  0  0  0  0  0  0
  -25.9600  -26.8670   19.5370 C   0  0  0  0  0  3  0  0  0  0  0  0
  -24.8120  -27.6860   19.5440 C   0  0  0  0  0  3  0  0  0  0  0  0
  -23.5870  -29.8230   20.2430 C   0  0  0  0  0  2  0  0  0  0  0  0
  -24.6520  -31.0800   22.1590 N   0  0  0  0  0  0  0  0  0  0  0  0
  -23.5110  -32.1820   23.7920 O   0  0  0  0  0  0  0  0  0  0  0  0
  -22.7100  -29.4910   22.5910 C   0  0  0  0  0  0  0  0  0  0  0  0
  -21.3840  -29.3100   22.4660 N   0  0  0  0  0  0  0  0  0  0  0  0
  -23.3900  -28.8750   23.4160 O   0  0  0  0  0  0  0  0  0  0  0  0
  -20.8940  -29.8590   21.7730 H   0  0  0  0  0  0  0  0  0  0  0  0
  -18.0150  -28.0810   22.9650 C   0  0  0  0  0  0  0  0  0  0  0  0
  -20.5700  -28.3730   23.2440 C   0  0  0  0  0  3  0  0  0  0  0  0
  -20.6900  -26.9360   22.6850 C   0  0  0  0  0  2  0  0  0  0  0  0
  -19.5960  -26.5900   21.6700 C   0  0  0  0  0  2  0  0  0  0  0  0
  -18.2090  -26.7270   22.3040 C   0  0  0  0  0  2  0  0  0  0  0  0
  -19.1230  -28.8600   23.3920 C   0  0  0  0  0  0  0  0  0  0  0  0
  -18.8860  -30.1260   23.9700 C   0  0  0  0  0  3  0  0  0  0  0  0
  -17.5750  -30.6140   24.1250 C   0  0  0  0  0  3  0  0  0  0  0  0
  -16.4820  -29.8330   23.7150 C   0  0  0  0  0  3  0  0  0  0  0  0
  -16.7030  -28.5680   23.1420 C   0  0  0  0  0  3  0  0  0  0  0  0
  -25.8750  -32.5330   23.8690 C   0  0  0  0  0  3  0  0  0  0  0  0
  -26.3950  -31.7650   25.1470 C   0  0  1  0  0  0  0  0  0  0  0  0
  -25.3050  -31.5360   26.2210 C   0  0  0  0  0  1  0  0  0  0  0  0
  -26.9700  -30.3840   24.7620 C   0  0  0  0  0  1  0  0  0  0  0  0
  -27.5520  -32.5580   25.7990 C   0  0  0  0  0  1  0  0  0  0  0  0
  -25.5700  -33.9340   24.2000 N   0  0  0  0  0  0  0  0  0  0  0  0
  -25.8930  -34.9860   23.4360 C   0  0  0  0  0  0  0  0  0  0  0  0
  -26.5490  -34.8810   22.3970 O   0  0  0  0  0  0  0  0  0  0  0  0
  -24.9850  -34.0880   25.0090 H   0  0  0  0  0  0  0  0  0  0  0  0
  -24.1580  -36.7800   23.1110 C   0  0  0  0  0  1  0  0  0  0  0  0
  -25.4140  -36.3770   23.9010 C   0  0  0  0  0  3  0  0  0  0  0  0
  -27.5640  -37.2640   24.6890 C   0  0  0  0  0  1  0  0  0  0  0  0
  -26.4440  -37.4310   23.7660 N   0  0  0  0  0  0  0  0  0  0  0  0
  -26.0410  -38.3510   23.9220 H   0  0  0  0  0  0  0  0  0  0  0  0
  1  2  1  0
  3  6  2  0
  3  4  1  0
  4  1  2  0
  5  2  2  0
  5  7  1  0
  6  5  1  0
  8  4  1  0
  8  9  2  0
 10 11  1  0
 12 10  1  0
 12 13  1  0
 13 14  1  0
 13  9  1  1
 13 11  1  0
 14 20  1  0
 15 20  1  0
 16 17  1  0
 16 15  1  0
 18 17  1  0
 18 25  1  0
 18 19  1  0
 20 19  1  0
 21 14  2  0
 22 23  2  0
 23 42  1  0
 24 23  1  0
 24 27  1  0
 25 22  1  0
 25 26  1  0
 26 24  2  0
 27 28  1  0
 28 29  2  0
 30 33  1  0
 30 29  1  0
 31 30  2  0
 32 31  1  0
 32 27  2  0
 33 34  1  0
 34 35  1  0
 35 36  2  0
 37 36  1  0
 37 41  1  0
 38 37  2  0
 39 34  2  0
 39 38  1  0
 40 39  1  0
 42 43  1  0
 43 46  1  0
 43 45  1  0
 44 42  2  0
 47 48  1  0
 47 22  1  0
 49 47  1  0
 50 51  1  0
 50  6  1  0
 52 63  2  0
 53 51  1  0
 53 58  1  0
 54 62  1  0
 54 64  1  0
 55 61  1  0
 55 57  1  0
 56 62  1  0
 57 58  2  0
 57 56  1  0
 59 60  1  0
 59 53  2  0
 60 55  2  0
 61 54  1  0
 62 52  1  0
 64 66  2  0
 65 64  1  0
 67 65  1  0
 68 77  2  0
 68 73  1  0
 69 65  1  0
 69 73  1  0
 70 69  1  0
 71 72  1  0
 71 70  1  0
 72 68  1  0
 73 74  2  0
 74 75  1  0
 76 75  2  0
 77 76  1  0
 78 52  1  0
 78 83  1  0
 78 79  1  0
 79 82  1  1
 79 80  1  0
 81 79  1  0
 83 86  1  0
 84 88  1  0
 84 83  1  0
 85 84  2  0
 88 87  1  0
 90 88  1  0
 90 91  1  0
 90 89  1  0
M  ISO  4  13 100  14 100  50 101  51 101
M  END
>  <TORSDO>  (64) 
F 20

>  <SCORE>  (64) 
-13.806

>  <name>  (64) 
63

>  <ligand_id>  (64) 
63

>  <original_smiles>  (64) 
[H]c1c([H])c([H])c2c(c1[H])C([H])([H])C([H])([H])C([H])([H])C2([H])N([H])C(=O)C1([H])N(C(=O)C([H])(N([H])C(=O)C([H])(N([H])C([H])([H])[H])C([H])([H])[H])C(C([H])([H])[H])(C([H])([H])[H])C([H])([H])[H])C([H])([H])c2c([H])c(OC([H])([H])c3c([H])c(C([H])([H])C([H])([H])C4(C(=O)N5C([H])([H])C([H])([H])C([H])([H])C([H])(n6nc(-c7c([H])c([H])c(Oc8c([H])c([H])c(F)c([H])c8F)c([H])c7[H])c(C(=O)N([H])[H])c6N([H])[H])C5([H])[H])C([H])([H])C([H])([H])C4([H])[H])c([H])c([H])c3C([H])([H])[H])c([H])c([H])c2C1([H])[H]

>  <smiles>  (64) 
[H]c1c([H])c([H])c2c(c1[H])C([H])([H])C([H])([H])C([H])([H])C2([H])N([H])C(=O)C1([H])N(C(=O)C([H])(N([H])C(=O)C([H])(N([H])C([H])([H])[H])C([H])([H])[H])C(C([H])([H])[H])(C([H])([H])[H])C([H])([H])[H])C([H])([H])c2c([H])c(OC([H])([H])c3c([H])c(C([H])([H])C([H])([H])C4(C(=O)N5C([H])([H])C([H])([H])C([H])([H])C([H])(n6nc(-c7c([H])c([H])c(Oc8c([H])c([H])c(F)c([H])c8F)c([H])c7[H])c(C(=O)N([H])[H])c6N([H])[H])C5([H])[H])C([H])([H])C([H])([H])C4([H])[H])c([H])c([H])c3C([H])([H])[H])c([H])c([H])c2C1([H])[H]

$$$$
64:0:0
     RDKit          3D

 96104  0  0  1  0  0  0  0  0999 V2000
  -29.0510  -23.8080   20.0830 C   0  0  0  0  0  3  0  0  0  0  0  0
  -26.4170  -23.3500   19.4370 C   0  0  0  0  0  0  0  0  0  0  0  0
  -28.6500  -22.3740   19.9340 C   0  0  0  0  0  0  0  0  0  0  0  0
  -27.3050  -22.2270   19.4330 C   0  0  0  0  0  0  0  0  0  0  0  0
  -26.8010  -24.6270   19.9140 C   0  0  0  0  0  0  0  0  0  0  0  0
  -28.1550  -24.9960   19.9710 C   0  0  0  0  0  0  0  0  0  0  0  0
  -25.8420  -25.5290   20.4170 N   0  0  0  0  0  0  0  0  0  0  0  0
  -24.9280  -25.5960   19.9920 H   0  0  0  0  0  0  0  0  0  0  0  0
  -26.1970  -26.4340   20.7050 H   0  0  0  0  0  0  0  0  0  0  0  0
  -25.0420  -23.2620   18.8890 C   0  0  0  0  0  0  0  0  0  0  0  0
  -24.7900  -23.3540   17.6850 O   0  0  0  0  0  0  0  0  0  0  0  0
  -22.5820  -22.7920   19.3090 C   0  0  0  0  0  1  0  0  0  0  0  0
  -23.9400  -23.1260   19.9400 C   0  0  0  0  0  2  0  0  0  0  0  0
  -27.5740  -20.3270   17.7370 C   0  0  0  0  0  1  0  0  0  0  0  0
  -26.7790  -20.8590   18.9360 C   0  0  0  0  0  2  0  0  0  0  0  0
  -28.4470  -26.4450   20.0320 O   0  0  0  0  0  0  0  0  0  0  0  0
  -24.7010  -31.7870   23.4560 C   0  0  0  0  0  0  0  0  0  0  0  0
  -27.4280  -27.4740   19.9870 C   0  0  0  0  0  0  0  0  0  0  0  0
  -23.5830  -30.6270   21.5910 C   0  0  0  0  0  3  0  0  0  0  0  0
  -25.0930  -29.2130   20.0540 C   0  0  0  0  0  0  0  0  0  0  0  0
  -26.1400  -30.8670   21.5930 C   0  0  0  0  0  2  0  0  0  0  0  0
  -26.2380  -29.5660   20.7830 C   0  0  0  0  0  0  0  0  0  0  0  0
  -27.3980  -28.7110   20.7500 C   0  0  0  0  0  3  0  0  0  0  0  0
  -26.2790  -27.2350   19.2100 C   0  0  0  0  0  3  0  0  0  0  0  0
  -25.1230  -28.0600   19.2580 C   0  0  0  0  0  3  0  0  0  0  0  0
  -23.8680  -30.1110   20.1550 C   0  0  0  0  0  2  0  0  0  0  0  0
  -24.8250  -31.1090   22.2710 N   0  0  0  0  0  0  0  0  0  0  0  0
  -23.5910  -32.0280   23.9560 O   0  0  0  0  0  0  0  0  0  0  0  0
  -22.8260  -29.5370   22.3940 C   0  0  0  0  0  0  0  0  0  0  0  0
  -21.4990  -29.4440   22.2020 N   0  0  0  0  0  0  0  0  0  0  0  0
  -23.4420  -28.7860   23.1470 O   0  0  0  0  0  0  0  0  0  0  0  0
  -21.0790  -30.0850   21.5470 H   0  0  0  0  0  0  0  0  0  0  0  0
  -18.0440  -28.3470   22.5420 C   0  0  0  0  0  0  0  0  0  0  0  0
  -20.6230  -28.4240   22.7860 C   0  0  0  0  0  3  0  0  0  0  0  0
  -20.6350  -27.1440   21.9200 C   0  0  0  0  0  2  0  0  0  0  0  0
  -19.4770  -27.1100   20.9170 C   0  0  0  0  0  2  0  0  0  0  0  0
  -18.1440  -27.1250   21.6550 C   0  0  0  0  0  2  0  0  0  0  0  0
  -19.2070  -28.9610   23.0780 C   0  0  0  0  0  0  0  0  0  0  0  0
  -19.0600  -30.0970   23.9000 C   0  0  0  0  0  3  0  0  0  0  0  0
  -17.7790  -30.6260   24.1690 C   0  0  0  0  0  3  0  0  0  0  0  0
  -16.6390  -30.0220   23.6220 C   0  0  0  0  0  3  0  0  0  0  0  0
  -16.7690  -28.8810   22.8160 C   0  0  0  0  0  3  0  0  0  0  0  0
  -25.9510  -32.3130   24.2280 C   0  0  0  0  0  3  0  0  0  0  0  0
  -25.7070  -33.7260   24.5730 N   0  0  0  0  0  0  0  0  0  0  0  0
  -26.1600  -34.7700   23.8730 C   0  0  0  0  0  0  0  0  0  0  0  0
  -26.8910  -34.6440   22.8860 O   0  0  0  0  0  0  0  0  0  0  0  0
  -25.0750  -33.9030   25.3410 H   0  0  0  0  0  0  0  0  0  0  0  0
  -24.5700  -36.6740   23.4610 C   0  0  0  0  0  1  0  0  0  0  0  0
  -25.7370  -36.1800   24.3320 C   0  0  0  0  0  3  0  0  0  0  0  0
  -27.8760  -36.9120   25.2950 C   0  0  0  0  0  1  0  0  0  0  0  0
  -26.8380  -37.1680   24.2970 N   0  0  0  0  0  0  0  0  0  0  0  0
  -26.4850  -38.1120   24.4380 H   0  0  0  0  0  0  0  0  0  0  0  0
  -26.2750  -31.4780   25.5260 C   0  0  1  0  0  0  0  0  0  0  0  0
  -25.0650  -31.2840   26.4730 C   0  0  0  0  0  1  0  0  0  0  0  0
  -26.8140  -30.0770   25.1530 C   0  0  0  0  0  1  0  0  0  0  0  0
  -27.3940  -32.1790   26.3210 C   0  0  0  0  0  1  0  0  0  0  0  0
  -29.4750  -21.0170   20.4450 C   0  0  0  0  0  3  0  0  0  0  0  0
  -29.9630  -19.6560   19.5680 C   0  0  0  0  0  3  0  0  0  0  0  0
  -30.5990  -18.2430   20.2340 C   0  0  0  0  0  2  0  0  0  0  0  0
  -30.0920  -16.6670   19.9130 C   0  0  0  0  0  2  0  0  0  0  0  0
  -30.9980  -15.2710   19.9830 C   0  0  0  0  0  0  0  0  0  0  0  0
  -30.9590  -12.8380   19.2950 C   0  0  0  0  0  2  0  0  0  0  0  0
  -30.0240  -12.6680   18.0710 C   0  0  0  0  0  2  0  0  0  0  0  0
  -28.5560  -12.4960   18.5150 C   0  0  0  0  0  2  0  0  0  0  0  0
  -28.1340  -13.5290   19.5910 C   0  0  0  0  0  3  0  0  0  0  0  0
  -29.1820  -13.6370   20.7150 C   0  0  0  0  0  2  0  0  0  0  0  0
  -30.4600  -13.9940   20.0920 N   0  0  0  0  0  0  0  0  0  0  0  0
  -32.2020  -15.3450   19.7140 O   0  0  0  0  0  0  0  0  0  0  0  0
  -25.8000  -14.1980   20.4010 C   0  0  0  0  0  0  0  0  0  0  0  0
  -24.7010  -13.4590   20.7630 C   0  0  0  0  0  0  0  0  0  0  0  0
  -25.0980  -12.0920   20.6720 C   0  0  0  0  0  0  0  0  0  0  0  0
  -26.7880  -13.2760   20.0980 N   0  0  0  0  0  0  0  0  0  0  0  0
  -26.3790  -12.0010   20.3280 N   0  0  0  0  0  0  0  0  0  0  0  0
  -24.3150  -10.8570   20.8270 C   0  0  0  0  0  0  0  0  0  0  0  0
  -24.7100   -9.8390   21.7210 C   0  0  0  0  0  3  0  0  0  0  0  0
  -23.9310   -8.6710   21.8700 C   0  0  0  0  0  3  0  0  0  0  0  0
  -22.7390   -8.5120   21.1220 C   0  0  0  0  0  0  0  0  0  0  0  0
  -22.3590   -9.5210   20.2200 C   0  0  0  0  0  3  0  0  0  0  0  0
  -23.1400  -10.6820   20.0710 C   0  0  0  0  0  3  0  0  0  0  0  0
  -21.9360   -7.3960   21.1750 O   0  0  0  0  0  0  0  0  0  0  0  0
  -21.8370   -6.6370   22.3120 C   0  0  0  0  0  0  0  0  0  0  0  0
  -21.4180   -7.1880   23.5430 C   0  0  0  0  0  3  0  0  0  0  0  0
  -21.2620   -6.3560   24.6700 C   0  0  0  0  0  3  0  0  0  0  0  0
  -21.5170   -4.9750   24.5670 C   0  0  0  0  0  0  0  0  0  0  0  0
  -21.9280   -4.4240   23.3400 C   0  0  0  0  0  3  0  0  0  0  0  0
  -22.0830   -5.2530   22.2160 C   0  0  0  0  0  0  0  0  0  0  0  0
  -22.4580   -4.7130   21.0310 F   0  0  0  0  0  0  0  0  0  0  0  0
  -21.3620   -4.1720   25.6480 F   0  0  0  0  0  0  0  0  0  0  0  0
  -23.3360  -13.9990   21.0750 C   0  0  0  0  0  0  0  0  0  0  0  0
  -22.5940  -13.3280   21.9490 N   0  0  0  0  0  0  0  0  0  0  0  0
  -22.9310  -15.0490   20.5810 O   0  0  0  0  0  0  0  0  0  0  0  0
  -22.9160  -12.4690   22.3640 H   0  0  0  0  0  0  0  0  0  0  0  0
  -21.6870  -13.6950   22.2040 H   0  0  0  0  0  0  0  0  0  0  0  0
  -26.0360  -15.5620   20.2770 N   0  0  0  0  0  0  0  0  0  0  0  0
  -25.3280  -16.2640   20.4600 H   0  0  0  0  0  0  0  0  0  0  0  0
  -26.9070  -15.9570   19.9410 H   0  0  0  0  0  0  0  0  0  0  0  0
  2  5  1  0
  3  1  2  0
  3 57  1  0
  4  2  2  0
  4  3  1  0
  5  6  2  0
  5  7  1  0
  6 16  1  0
  6  1  1  0
  7  9  1  0
  8  7  1  0
 10  2  1  0
 10 13  1  0
 11 10  2  0
 12 13  1  0
 14 15  1  0
 15  4  1  0
 17 28  2  0
 18 16  1  0
 18 23  1  0
 19 27  1  0
 19 29  1  0
 20 26  1  0
 20 22  1  0
 21 27  1  0
 22 21  1  0
 23 22  2  0
 24 25  1  0
 24 18  2  0
 25 20  2  0
 26 19  1  0
 27 17  1  0
 29 31  2  0
 30 29  1  0
 32 30  1  0
 33 42  2  0
 33 38  1  0
 34 30  1  0
 34 38  1  0
 35 34  1  0
 36 37  1  0
 36 35  1  0
 37 33  1  0
 38 39  2  0
 39 40  1  0
 41 40  2  0
 42 41  1  0
 43 17  1  0
 43 44  1  0
 43 53  1  0
 44 47  1  0
 45 49  1  0
 45 44  1  0
 46 45  2  0
 49 48  1  0
 51 49  1  0
 51 52  1  0
 51 50  1  0
 53 56  1  1
 53 54  1  0
 55 53  1  0
 58 59  1  0
 58 57  2  0
 60 61  1  0
 60 59  1  0
 61 67  1  0
 62 67  1  0
 63 64  1  0
 63 62  1  0
 65 64  1  0
 65 72  1  0
 65 66  1  0
 67 66  1  0
 68 61  2  0
 69 70  2  0
 70 89  1  0
 71 70  1  0
 71 74  1  0
 72 73  1  0
 72 69  1  0
 73 71  2  0
 74 75  1  0
 75 76  2  0
 77 80  1  0
 77 76  1  0
 78 77  2  0
 79 78  1  0
 79 74  2  0
 80 81  1  0
 81 82  1  0
 82 83  2  0
 84 83  1  0
 84 88  1  0
 85 84  2  0
 86 81  2  0
 86 85  1  0
 87 86  1  0
 89 90  1  0
 90 93  1  0
 90 92  1  0
 91 89  2  0
 94 69  1  0
 94 95  1  0
 96 94  1  0
M  ISO  4   6 101  16 101  60 100  61 100
M  END
>  <TORSDO>  (65) 
F 24

>  <SCORE>  (65) 
-11.858

>  <name>  (65) 
64

>  <ligand_id>  (65) 
64

>  <original_smiles>  (65) 
[H]c1c([H])c([H])c2c(c1[H])C([H])([H])C([H])([H])C([H])([H])C2([H])N([H])C(=O)C1([H])N(C(=O)C([H])(N([H])C(=O)C([H])(N([H])C([H])([H])[H])C([H])([H])[H])C(C([H])([H])[H])(C([H])([H])[H])C([H])([H])[H])C([H])([H])c2c([H])c(Oc3c([H])c(C([H])([H])C([H])([H])C([H])([H])C([H])([H])C(=O)N4C([H])([H])C([H])([H])C([H])([H])C([H])(n5nc(-c6c([H])c([H])c(Oc7c([H])c([H])c(F)c([H])c7F)c([H])c6[H])c(C(=O)N([H])[H])c5N([H])[H])C4([H])[H])c(C([H])([H])C([H])([H])[H])c(C(=O)C([H])([H])C([H])([H])[H])c3N([H])[H])c([H])c([H])c2C1([H])[H]

>  <smiles>  (65) 
[H]c1c([H])c([H])c2c(c1[H])C([H])([H])C([H])([H])C([H])([H])C2([H])N([H])C(=O)C1([H])N(C(=O)C([H])(N([H])C(=O)C([H])(N([H])C([H])([H])[H])C([H])([H])[H])C(C([H])([H])[H])(C([H])([H])[H])C([H])([H])[H])C([H])([H])c2c([H])c(Oc3c([H])c(C([H])([H])C([H])([H])C([H])([H])C([H])([H])C(=O)N4C([H])([H])C([H])([H])C([H])([H])C([H])(n5nc(-c6c([H])c([H])c(Oc7c([H])c([H])c(F)c([H])c7F)c([H])c6[H])c(C(=O)N([H])[H])c5N([H])[H])C4([H])[H])c(C([H])([H])C([H])([H])[H])c(C(=O)C([H])([H])C([H])([H])[H])c3N([H])[H])c([H])c([H])c2C1([H])[H]

$$$$
65:0:0
     RDKit          3D

 90 98  0  0  1  0  0  0  0  0999 V2000
  -28.0080  -22.6750   21.0370 C   0  0  0  0  0  3  0  0  0  0  0  0
  -27.6850  -24.0860   20.9490 C   0  0  0  0  0  3  0  0  0  0  0  0
  -29.8240  -23.0020   19.5430 C   0  0  0  0  0  3  0  0  0  0  0  0
  -29.1180  -22.0700   20.3630 C   0  0  0  0  0  0  0  0  0  0  0  0
  -28.4470  -25.0240   20.1820 C   0  0  0  0  0  0  0  0  0  0  0  0
  -29.5150  -24.4050   19.4630 C   0  0  0  0  0  0  0  0  0  0  0  0
  -30.3300  -25.2040   18.7080 O   0  0  0  0  0  0  0  0  0  0  0  0
  -31.0820  -24.7430   18.3500 H   0  0  0  0  0  0  0  0  0  0  0  0
  -28.3540  -26.4650   20.2090 O   0  0  0  0  0  0  0  0  0  0  0  0
  -24.6070  -31.9290   23.2390 C   0  0  0  0  0  0  0  0  0  0  0  0
  -27.2030  -27.2900   20.2200 C   0  0  0  0  0  0  0  0  0  0  0  0
  -23.4000  -30.5230   21.6070 C   0  0  0  0  0  3  0  0  0  0  0  0
  -24.8450  -28.9410   20.1950 C   0  0  0  0  0  0  0  0  0  0  0  0
  -25.9420  -30.8180   21.4220 C   0  0  0  0  0  2  0  0  0  0  0  0
  -26.0160  -29.4270   20.7880 C   0  0  0  0  0  0  0  0  0  0  0  0
  -27.1930  -28.6120   20.7890 C   0  0  0  0  0  3  0  0  0  0  0  0
  -26.0100  -26.8690   19.5960 C   0  0  0  0  0  3  0  0  0  0  0  0
  -24.8490  -27.6720   19.5870 C   0  0  0  0  0  3  0  0  0  0  0  0
  -23.6130  -29.8260   20.2360 C   0  0  0  0  0  2  0  0  0  0  0  0
  -24.6690  -31.1090   22.1480 N   0  0  0  0  0  0  0  0  0  0  0  0
  -23.5240  -32.2140   23.7720 O   0  0  0  0  0  0  0  0  0  0  0  0
  -22.7290  -29.5210   22.5760 C   0  0  0  0  0  0  0  0  0  0  0  0
  -21.4010  -29.3530   22.4510 N   0  0  0  0  0  0  0  0  0  0  0  0
  -23.4010  -28.8950   23.3990 O   0  0  0  0  0  0  0  0  0  0  0  0
  -20.9160  -29.9080   21.7610 H   0  0  0  0  0  0  0  0  0  0  0  0
  -18.0160  -28.1730   22.9550 C   0  0  0  0  0  0  0  0  0  0  0  0
  -20.5770  -28.4210   23.2240 C   0  0  0  0  0  3  0  0  0  0  0  0
  -20.6710  -26.9860   22.6520 C   0  0  0  0  0  2  0  0  0  0  0  0
  -19.5670  -26.6670   21.6390 C   0  0  0  0  0  2  0  0  0  0  0  0
  -18.1870  -26.8210   22.2830 C   0  0  0  0  0  2  0  0  0  0  0  0
  -19.1400  -28.9300   23.3820 C   0  0  0  0  0  0  0  0  0  0  0  0
  -18.9270  -30.1970   23.9710 C   0  0  0  0  0  3  0  0  0  0  0  0
  -17.6230  -30.7040   24.1370 C   0  0  0  0  0  3  0  0  0  0  0  0
  -16.5160  -29.9430   23.7250 C   0  0  0  0  0  3  0  0  0  0  0  0
  -16.7130  -28.6790   23.1420 C   0  0  0  0  0  3  0  0  0  0  0  0
  -25.8900  -32.5620   23.8620 C   0  0  0  0  0  3  0  0  0  0  0  0
  -25.5850  -33.9610   24.1950 N   0  0  0  0  0  0  0  0  0  0  0  0
  -25.9120  -35.0150   23.4330 C   0  0  0  0  0  0  0  0  0  0  0  0
  -26.5730  -34.9100   22.3980 O   0  0  0  0  0  0  0  0  0  0  0  0
  -24.9960  -34.1160   25.0010 H   0  0  0  0  0  0  0  0  0  0  0  0
  -24.1800  -36.8100   23.0940 C   0  0  0  0  0  1  0  0  0  0  0  0
  -25.4300  -36.4040   23.8940 C   0  0  0  0  0  3  0  0  0  0  0  0
  -27.5720  -37.2890   24.7050 C   0  0  0  0  0  1  0  0  0  0  0  0
  -26.4610  -37.4570   23.7700 N   0  0  0  0  0  0  0  0  0  0  0  0
  -26.0570  -38.3770   23.9250 H   0  0  0  0  0  0  0  0  0  0  0  0
  -26.4030  -31.7900   25.1410 C   0  0  1  0  0  0  0  0  0  0  0  0
  -25.3090  -31.5560   26.2080 C   0  0  0  0  0  1  0  0  0  0  0  0
  -26.9810  -30.4110   24.7510 C   0  0  0  0  0  1  0  0  0  0  0  0
  -27.5570  -32.5790   25.8050 C   0  0  0  0  0  1  0  0  0  0  0  0
  -29.7500  -20.6160   20.7010 C   0  0  0  0  0  3  0  0  0  0  0  0
  -29.2390  -19.1140   20.2700 C   0  0  0  0  0  3  0  0  0  0  0  0
  -31.4290  -18.0220   19.5000 C   0  0  0  0  0  1  0  0  0  0  0  0
  -30.2300  -17.7960   20.4420 C   0  0  0  0  0  3  0  0  0  0  0  0
  -29.6580  -16.2410   20.3070 C   0  0  0  0  0  2  0  0  0  0  0  0
  -30.5400  -14.8600   20.2690 C   0  0  0  0  0  0  0  0  0  0  0  0
  -30.3930  -12.5410   19.3290 C   0  0  0  0  0  2  0  0  0  0  0  0
  -29.4510  -12.6090   18.1050 C   0  0  0  0  0  2  0  0  0  0  0  0
  -27.9860  -12.4140   18.5420 C   0  0  0  0  0  2  0  0  0  0  0  0
  -27.6090  -13.2990   19.7570 C   0  0  0  0  0  3  0  0  0  0  0  0
  -28.6750  -13.2340   20.8680 C   0  0  0  0  0  2  0  0  0  0  0  0
  -29.9640  -13.6010   20.2720 N   0  0  0  0  0  0  0  0  0  0  0  0
  -31.7430  -14.9320   20.0010 O   0  0  0  0  0  0  0  0  0  0  0  0
  -25.2290  -13.8730   20.5190 C   0  0  0  0  0  0  0  0  0  0  0  0
  -24.1680  -13.0920   20.8960 C   0  0  0  0  0  0  0  0  0  0  0  0
  -24.6370  -11.7440   20.8560 C   0  0  0  0  0  0  0  0  0  0  0  0
  -26.2700  -12.9980   20.2620 N   0  0  0  0  0  0  0  0  0  0  0  0
  -25.9240  -11.7130   20.5290 N   0  0  0  0  0  0  0  0  0  0  0  0
  -23.9180  -10.4780   21.0480 C   0  0  0  0  0  0  0  0  0  0  0  0
  -24.3650   -9.5060   21.9690 C   0  0  0  0  0  3  0  0  0  0  0  0
  -23.6450   -8.3060   22.1510 C   0  0  0  0  0  3  0  0  0  0  0  0
  -22.4620   -8.0680   21.4090 C   0  0  0  0  0  0  0  0  0  0  0  0
  -22.0340   -9.0270   20.4750 C   0  0  0  0  0  3  0  0  0  0  0  0
  -22.7560  -10.2190   20.2930 C   0  0  0  0  0  3  0  0  0  0  0  0
  -21.7110   -6.9210   21.5020 O   0  0  0  0  0  0  0  0  0  0  0  0
  -21.6770   -6.1720   22.6510 C   0  0  0  0  0  0  0  0  0  0  0  0
  -21.2620   -6.7210   23.8840 C   0  0  0  0  0  3  0  0  0  0  0  0
  -21.1730   -5.8970   25.0240 C   0  0  0  0  0  3  0  0  0  0  0  0
  -21.4950   -4.5290   24.9350 C   0  0  0  0  0  0  0  0  0  0  0  0
  -21.9070   -3.9830   23.7080 C   0  0  0  0  0  3  0  0  0  0  0  0
  -21.9950   -4.8010   22.5690 C   0  0  0  0  0  0  0  0  0  0  0  0
  -22.3710   -4.2650   21.3840 F   0  0  0  0  0  0  0  0  0  0  0  0
  -21.4000   -3.7410   26.0300 F   0  0  0  0  0  0  0  0  0  0  0  0
  -22.7730  -13.5640   21.1830 C   0  0  0  0  0  0  0  0  0  0  0  0
  -22.0560  -12.8590   22.0510 N   0  0  0  0  0  0  0  0  0  0  0  0
  -22.3250  -14.5890   20.6710 O   0  0  0  0  0  0  0  0  0  0  0  0
  -22.4390  -12.0350   22.4920 H   0  0  0  0  0  0  0  0  0  0  0  0
  -21.1160  -13.1470   22.2820 H   0  0  0  0  0  0  0  0  0  0  0  0
  -25.3920  -15.2440   20.3550 N   0  0  0  0  0  0  0  0  0  0  0  0
  -24.6410  -15.9080   20.5160 H   0  0  0  0  0  0  0  0  0  0  0  0
  -26.2450  -15.6790   20.0270 H   0  0  0  0  0  0  0  0  0  0  0  0
  2  1  1  0
  3  4  1  0
  4 50  1  0
  4  1  2  0
  5  9  1  0
  5  2  2  0
  6  3  2  0
  6  5  1  0
  7  6  1  0
  8  7  1  0
  9 11  1  0
 10 21  2  0
 11 16  1  0
 12 20  1  0
 12 22  1  0
 13 19  1  0
 13 15  1  0
 14 20  1  0
 15 16  2  0
 15 14  1  0
 17 11  2  0
 18 17  1  0
 18 13  2  0
 19 12  1  0
 20 10  1  0
 22 24  2  0
 23 22  1  0
 25 23  1  0
 26 35  2  0
 26 31  1  0
 27 23  1  0
 27 31  1  0
 28 27  1  0
 29 30  1  0
 29 28  1  0
 30 26  1  0
 31 32  2  0
 32 33  1  0
 34 33  2  0
 35 34  1  0
 36 10  1  0
 36 37  1  0
 36 46  1  0
 37 40  1  0
 38 42  1  0
 38 37  1  0
 39 38  2  0
 42 41  1  0
 44 42  1  0
 44 45  1  0
 44 43  1  0
 46 49  1  1
 46 47  1  0
 48 46  1  0
 51 53  1  0
 51 50  2  0
 53 52  1  0
 54 53  1  0
 55 61  1  0
 55 54  1  0
 56 61  1  0
 57 58  1  0
 57 56  1  0
 59 58  1  0
 59 66  1  0
 59 60  1  0
 61 60  1  0
 62 55  2  0
 63 64  2  0
 64 83  1  0
 65 64  1  0
 65 68  1  0
 66 63  1  0
 66 67  1  0
 67 65  2  0
 68 69  1  0
 69 70  2  0
 71 74  1  0
 71 70  1  0
 72 71  2  0
 73 72  1  0
 73 68  2  0
 74 75  1  0
 75 76  1  0
 76 77  2  0
 78 77  1  0
 78 82  1  0
 79 78  2  0
 80 75  2  0
 80 79  1  0
 81 80  1  0
 83 84  1  0
 84 87  1  0
 84 86  1  0
 85 83  2  0
 88 89  1  0
 88 63  1  0
 90 88  1  0
M  ISO  4   5 101   9 101  54 100  55 100
M  END
>  <TORSDO>  (66) 
F 21

>  <SCORE>  (66) 
-13.654

>  <name>  (66) 
65

>  <ligand_id>  (66) 
65

>  <original_smiles>  (66) 
[H]Oc1c([H])c(C([H])([H])C([H])([H])C([H])(C([H])([H])[H])C([H])([H])C(=O)N2C([H])([H])C([H])([H])C([H])([H])C([H])(n3nc(-c4c([H])c([H])c(Oc5c([H])c([H])c(F)c([H])c5F)c([H])c4[H])c(C(=O)N([H])[H])c3N([H])[H])C2([H])[H])c([H])c([H])c1Oc1c([H])c([H])c2c(c1[H])C([H])([H])N(C(=O)C([H])(N([H])C(=O)C([H])(N([H])C([H])([H])[H])C([H])([H])[H])C(C([H])([H])[H])(C([H])([H])[H])C([H])([H])[H])C([H])(C(=O)N([H])C1([H])c3c([H])c([H])c([H])c([H])c3C([H])([H])C([H])([H])C1([H])[H])C2([H])[H]

>  <smiles>  (66) 
[H]Oc1c([H])c(C([H])([H])C([H])([H])C([H])(C([H])([H])[H])C([H])([H])C(=O)N2C([H])([H])C([H])([H])C([H])([H])C([H])(n3nc(-c4c([H])c([H])c(Oc5c([H])c([H])c(F)c([H])c5F)c([H])c4[H])c(C(=O)N([H])[H])c3N([H])[H])C2([H])[H])c([H])c([H])c1Oc1c([H])c([H])c2c(c1[H])C([H])([H])N(C(=O)C([H])(N([H])C(=O)C([H])(N([H])C([H])([H])[H])C([H])([H])[H])C(C([H])([H])[H])(C([H])([H])[H])C([H])([H])[H])C([H])(C(=O)N([H])C1([H])c3c([H])c([H])c([H])c([H])c3C([H])([H])C([H])([H])C1([H])[H])C2([H])[H]

$$$$
66:0:0
     RDKit          3D

 91 99  0  0  1  0  0  0  0  0999 V2000
  -29.7160  -18.5080   18.6520 C   0  0  0  0  0  3  0  0  0  0  0  0
  -29.3020  -19.9150   18.2420 C   0  0  0  0  0  3  0  0  0  0  0  0
  -30.3920  -18.0000   19.8730 C   0  0  0  0  0  0  0  0  0  0  0  0
  -29.4590  -21.2210   18.9280 C   0  0  0  0  0  0  0  0  0  0  0  0
  -30.5750  -19.3000   20.5760 C   0  0  0  0  0  0  0  0  0  0  0  0
  -30.1580  -20.7160   20.1530 C   0  0  0  0  0  0  0  0  0  0  0  0
  -31.1020  -16.4150   20.1710 C   0  0  0  0  0  0  0  0  0  0  0  0
  -31.3480  -13.7940   19.8740 C   0  0  0  0  0  2  0  0  0  0  0  0
  -30.6340  -13.1830   18.6380 C   0  0  0  0  0  2  0  0  0  0  0  0
  -29.1750  -12.8390   18.9690 C   0  0  0  0  0  2  0  0  0  0  0  0
  -28.5010  -13.9730   19.7760 C   0  0  0  0  0  3  0  0  0  0  0  0
  -29.3670  -14.5260   20.9290 C   0  0  0  0  0  2  0  0  0  0  0  0
  -30.6140  -15.0540   20.3380 N   0  0  0  0  0  0  0  0  0  0  0  0
  -32.3450  -16.3560   20.1200 O   0  0  0  0  0  0  0  0  0  0  0  0
  -26.0760  -14.4980   20.3140 C   0  0  0  0  0  0  0  0  0  0  0  0
  -25.0010  -13.7180   20.6320 C   0  0  0  0  0  0  0  0  0  0  0  0
  -25.4940  -12.3790   20.7160 C   0  0  0  0  0  0  0  0  0  0  0  0
  -27.1500  -13.6370   20.2030 N   0  0  0  0  0  0  0  0  0  0  0  0
  -26.8090  -12.3580   20.5160 N   0  0  0  0  0  0  0  0  0  0  0  0
  -24.7740  -11.1130   20.9130 C   0  0  0  0  0  0  0  0  0  0  0  0
  -25.0820  -10.2410   21.9820 C   0  0  0  0  0  3  0  0  0  0  0  0
  -24.3560   -9.0450   22.1630 C   0  0  0  0  0  3  0  0  0  0  0  0
  -23.3070   -8.7080   21.2740 C   0  0  0  0  0  0  0  0  0  0  0  0
  -23.0190   -9.5680   20.1990 C   0  0  0  0  0  3  0  0  0  0  0  0
  -23.7450  -10.7560   20.0180 C   0  0  0  0  0  3  0  0  0  0  0  0
  -22.5670   -7.5530   21.3570 O   0  0  0  0  0  0  0  0  0  0  0  0
  -22.2870   -6.9610   22.5620 C   0  0  0  0  0  0  0  0  0  0  0  0
  -21.5890   -7.6440   23.5830 C   0  0  0  0  0  3  0  0  0  0  0  0
  -21.2610   -6.9750   24.7790 C   0  0  0  0  0  3  0  0  0  0  0  0
  -21.6210   -5.6250   24.9550 C   0  0  0  0  0  0  0  0  0  0  0  0
  -22.3110   -4.9440   23.9370 C   0  0  0  0  0  3  0  0  0  0  0  0
  -22.6400   -5.6090   22.7440 C   0  0  0  0  0  0  0  0  0  0  0  0
  -23.2850   -4.9400   21.7580 F   0  0  0  0  0  0  0  0  0  0  0  0
  -21.2990   -4.9810   26.1000 F   0  0  0  0  0  0  0  0  0  0  0  0
  -23.5790  -14.1790   20.7500 C   0  0  0  0  0  0  0  0  0  0  0  0
  -22.7950  -13.5360   21.6080 N   0  0  0  0  0  0  0  0  0  0  0  0
  -23.1690  -15.1500   20.1160 O   0  0  0  0  0  0  0  0  0  0  0  0
  -23.1390  -12.7530   22.1440 H   0  0  0  0  0  0  0  0  0  0  0  0
  -21.8370  -13.8320   21.7310 H   0  0  0  0  0  0  0  0  0  0  0  0
  -26.2290  -15.8620   20.0770 N   0  0  0  0  0  0  0  0  0  0  0  0
  -25.4460  -16.5060   20.1000 H   0  0  0  0  0  0  0  0  0  0  0  0
  -27.1000  -16.3080   19.8180 H   0  0  0  0  0  0  0  0  0  0  0  0
  -29.3020  -22.9420   18.3440 C   0  0  0  0  0  0  0  0  0  0  0  0
  -30.4090  -23.3810   18.0150 O   0  0  0  0  0  0  0  0  0  0  0  0
  -28.0740  -24.2790   18.0960 C   0  0  0  0  0  2  0  0  0  0  0  0
  -28.1870  -26.0100   18.1760 O   0  0  0  0  0  0  0  0  0  0  0  0
  -24.4830  -31.2560   22.4400 C   0  0  0  0  0  0  0  0  0  0  0  0
  -27.1300  -27.1060   18.3930 C   0  0  0  0  0  0  0  0  0  0  0  0
  -23.2750  -30.0960   20.6400 C   0  0  0  0  0  3  0  0  0  0  0  0
  -24.7230  -28.8790   18.8520 C   0  0  0  0  0  0  0  0  0  0  0  0
  -25.8160  -30.4920   20.3910 C   0  0  0  0  0  2  0  0  0  0  0  0
  -25.9320  -29.2220   19.4700 C   0  0  0  0  0  0  0  0  0  0  0  0
  -27.1170  -28.3650   19.2170 C   0  0  0  0  0  3  0  0  0  0  0  0
  -25.8710  -26.9610   17.7580 C   0  0  0  0  0  3  0  0  0  0  0  0
  -24.7250  -27.7800   17.9760 C   0  0  0  0  0  3  0  0  0  0  0  0
  -23.4560  -29.6930   19.1480 C   0  0  0  0  0  2  0  0  0  0  0  0
  -24.5500  -30.6370   21.2130 N   0  0  0  0  0  0  0  0  0  0  0  0
  -23.4140  -31.3600   23.0660 O   0  0  0  0  0  0  0  0  0  0  0  0
  -22.7100  -28.8930   21.4440 C   0  0  0  0  0  0  0  0  0  0  0  0
  -21.3920  -28.6330   21.3480 N   0  0  0  0  0  0  0  0  0  0  0  0
  -23.4670  -28.1990   22.1270 O   0  0  0  0  0  0  0  0  0  0  0  0
  -20.8260  -29.2510   20.7830 H   0  0  0  0  0  0  0  0  0  0  0  0
  -18.1670  -27.0070   21.7330 C   0  0  0  0  0  0  0  0  0  0  0  0
  -20.6970  -27.5000   21.9710 C   0  0  0  0  0  3  0  0  0  0  0  0
  -20.9170  -26.2010   21.1600 C   0  0  0  0  0  2  0  0  0  0  0  0
  -19.8100  -25.9350   20.1350 C   0  0  0  0  0  2  0  0  0  0  0  0
  -18.4500  -25.8190   20.8290 C   0  0  0  0  0  2  0  0  0  0  0  0
  -19.2200  -27.8060   22.2560 C   0  0  0  0  0  0  0  0  0  0  0  0
  -18.8970  -28.9140   23.0680 C   0  0  0  0  0  3  0  0  0  0  0  0
  -17.5560  -29.2290   23.3570 C   0  0  0  0  0  3  0  0  0  0  0  0
  -16.5190  -28.4290   22.8470 C   0  0  0  0  0  3  0  0  0  0  0  0
  -16.8260  -27.3180   22.0410 C   0  0  0  0  0  3  0  0  0  0  0  0
  -25.7440  -31.8760   23.1150 C   0  0  0  0  0  3  0  0  0  0  0  0
  -25.3330  -33.1110   23.8090 N   0  0  0  0  0  0  0  0  0  0  0  0
  -25.4980  -34.3540   23.3360 C   0  0  0  0  0  0  0  0  0  0  0  0
  -26.0700  -34.5870   22.2690 O   0  0  0  0  0  0  0  0  0  0  0  0
  -24.8070  -32.9920   24.6630 H   0  0  0  0  0  0  0  0  0  0  0  0
  -23.5920  -35.9820   23.6030 C   0  0  0  0  0  1  0  0  0  0  0  0
  -24.9430  -35.5240   24.1770 C   0  0  0  0  0  3  0  0  0  0  0  0
  -27.0650  -36.4160   25.0360 C   0  0  0  0  0  1  0  0  0  0  0  0
  -25.8610  -36.6830   24.2550 N   0  0  0  0  0  0  0  0  0  0  0  0
  -25.3910  -37.4880   24.6610 H   0  0  0  0  0  0  0  0  0  0  0  0
  -26.4440  -30.8950   24.1370 C   0  0  1  0  0  0  0  0  0  0  0  0
  -25.4820  -30.3110   25.1980 C   0  0  0  0  0  1  0  0  0  0  0  0
  -27.1030  -29.7060   23.4020 C   0  0  0  0  0  1  0  0  0  0  0  0
  -27.5830  -31.6350   24.8760 C   0  0  0  0  0  1  0  0  0  0  0  0
  -29.4750  -22.5090   21.4960 C   0  0  0  0  0  1  0  0  0  0  0  0
  -30.5460  -21.7040   21.0210 O   0  0  0  0  0  0  0  0  0  0  0  0
  -31.3320  -19.1840   21.8970 C   0  0  0  0  0  2  0  0  0  0  0  0
  -33.5740  -19.4620   23.0830 C   0  0  0  0  0  1  0  0  0  0  0  0
  -32.8280  -19.4950   21.7440 C   0  0  0  0  0  2  0  0  0  0  0  0
  1  3  1  0
  2  1  2  0
  2  4  1  0
  3  7  1  0
  3  5  2  0
  4  6  2  0
  5 89  1  0
  6  5  1  0
  6 88  1  0
  7 13  1  0
  8 13  1  0
  9 10  1  0
  9  8  1  0
 11 10  1  0
 11 18  1  0
 11 12  1  0
 13 12  1  0
 14  7  2  0
 15 16  2  0
 16 17  1  0
 16 35  1  0
 17 20  1  0
 18 15  1  0
 18 19  1  0
 19 17  2  0
 20 21  1  0
 21 22  2  0
 23 26  1  0
 23 22  1  0
 24 23  2  0
 25 24  1  0
 25 20  2  0
 26 27  1  0
 27 32  2  0
 27 28  1  0
 28 29  2  0
 29 30  1  0
 30 34  1  0
 31 30  2  0
 32 31  1  0
 33 32  1  0
 35 36  1  0
 36 39  1  0
 36 38  1  0
 37 35  2  0
 40 41  1  0
 40 15  1  0
 42 40  1  0
 43  4  1  0
 44 43  2  0
 45 46  1  0
 45 43  1  0
 46 48  1  0
 47 58  2  0
 48 53  1  0
 49 57  1  0
 49 59  1  0
 50 56  1  0
 50 52  1  0
 51 57  1  0
 52 51  1  0
 53 52  2  0
 54 55  1  0
 54 48  2  0
 55 50  2  0
 56 49  1  0
 57 47  1  0
 59 61  2  0
 60 59  1  0
 62 60  1  0
 63 72  2  0
 63 68  1  0
 64 60  1  0
 64 68  1  0
 65 64  1  0
 66 67  1  0
 66 65  1  0
 67 63  1  0
 68 69  2  0
 69 70  1  0
 71 70  2  0
 72 71  1  0
 73 47  1  0
 73 74  1  0
 73 83  1  0
 74 77  1  0
 75 74  1  0
 75 79  1  0
 76 75  2  0
 79 78  1  0
 79 81  1  0
 81 82  1  0
 81 80  1  0
 83 86  1  1
 83 84  1  0
 85 83  1  0
 88 87  1  0
 91 89  1  0
 91 90  1  0
M  ISO  4   3 100   7 100  45 101  46 101
M  END
>  <TORSDO>  (67) 
F 21

>  <SCORE>  (67) 
-9.575

>  <name>  (67) 
66

>  <ligand_id>  (67) 
66

>  <original_smiles>  (67) 
[H]c1c([H])c([H])c2c(c1[H])C([H])([H])C([H])([H])C([H])([H])C2([H])N([H])C(=O)C1([H])N(C(=O)C([H])(N([H])C(=O)C([H])(N([H])C([H])([H])[H])C([H])([H])[H])C(C([H])([H])[H])(C([H])([H])[H])C([H])([H])[H])C([H])([H])c2c([H])c(OC([H])([H])C(=O)c3c([H])c([H])c(C(=O)N4C([H])([H])C([H])([H])C([H])([H])C([H])(n5nc(-c6c([H])c([H])c(Oc7c([H])c([H])c(F)c([H])c7F)c([H])c6[H])c(C(=O)N([H])[H])c5N([H])[H])C4([H])[H])c(C([H])([H])C([H])([H])C([H])([H])[H])c3OC([H])([H])[H])c([H])c([H])c2C1([H])[H]

>  <smiles>  (67) 
[H]c1c([H])c([H])c2c(c1[H])C([H])([H])C([H])([H])C([H])([H])C2([H])N([H])C(=O)C1([H])N(C(=O)C([H])(N([H])C(=O)C([H])(N([H])C([H])([H])[H])C([H])([H])[H])C(C([H])([H])[H])(C([H])([H])[H])C([H])([H])[H])C([H])([H])c2c([H])c(OC([H])([H])C(=O)c3c([H])c([H])c(C(=O)N4C([H])([H])C([H])([H])C([H])([H])C([H])(n5nc(-c6c([H])c([H])c(Oc7c([H])c([H])c(F)c([H])c7F)c([H])c6[H])c(C(=O)N([H])[H])c5N([H])[H])C4([H])[H])c(C([H])([H])C([H])([H])C([H])([H])[H])c3OC([H])([H])[H])c([H])c([H])c2C1([H])[H]

$$$$
67:0:0
     RDKit          3D

 91 99  0  0  1  0  0  0  0  0999 V2000
  -29.8050  -20.8910   23.6470 C   0  0  0  0  0  3  0  0  0  0  0  0
  -29.8930  -22.2760   23.5970 C   0  0  0  0  0  3  0  0  0  0  0  0
  -29.7210  -20.1700   22.4590 C   0  0  0  0  0  3  0  0  0  0  0  0
  -29.8130  -22.9570   22.3720 C   0  0  0  0  0  0  0  0  0  0  0  0
  -29.6950  -20.7510   21.1660 C   0  0  0  0  0  0  0  0  0  0  0  0
  -29.5970  -22.2880   21.1180 C   0  0  0  0  0  0  0  0  0  0  0  0
  -30.0030  -24.4660   22.4960 C   0  0  0  0  0  1  0  0  0  0  0  0
  -29.7100  -19.4610   20.1290 C   0  0  0  0  0  2  0  0  0  0  0  0
  -31.8960  -18.2930   19.3920 C   0  0  0  0  0  1  0  0  0  0  0  0
  -30.7100  -18.0740   20.3480 C   0  0  0  0  0  3  0  0  0  0  0  0
  -31.0020  -15.2840   20.2280 C   0  0  0  0  0  0  0  0  0  0  0  0
  -30.8440  -12.9110   19.3260 C   0  0  0  0  0  2  0  0  0  0  0  0
  -29.9170  -12.8330   18.0910 C   0  0  0  0  0  2  0  0  0  0  0  0
  -28.4530  -12.6380   18.5260 C   0  0  0  0  0  2  0  0  0  0  0  0
  -28.0460  -13.5930   19.6780 C   0  0  0  0  0  3  0  0  0  0  0  0
  -29.0990  -13.6440   20.8040 C   0  0  0  0  0  2  0  0  0  0  0  0
  -30.3660  -14.0410   20.1790 N   0  0  0  0  0  0  0  0  0  0  0  0
  -32.2180  -15.2690   20.0110 O   0  0  0  0  0  0  0  0  0  0  0  0
  -30.2800  -16.5260   20.3080 N   0  0  0  0  0  0  0  0  0  0  0  0
  -29.2860  -16.3840   20.4080 H   0  0  0  0  0  0  0  0  0  0  0  0
  -25.6830  -14.2030   20.4380 C   0  0  0  0  0  0  0  0  0  0  0  0
  -24.6050  -13.4430   20.8020 C   0  0  0  0  0  0  0  0  0  0  0  0
  -25.0460  -12.0840   20.7530 C   0  0  0  0  0  0  0  0  0  0  0  0
  -26.7070  -13.3100   20.1820 N   0  0  0  0  0  0  0  0  0  0  0  0
  -26.3350  -12.0280   20.4390 N   0  0  0  0  0  0  0  0  0  0  0  0
  -24.2940  -10.8340   20.9270 C   0  0  0  0  0  0  0  0  0  0  0  0
  -24.6750   -9.8700   21.8870 C   0  0  0  0  0  3  0  0  0  0  0  0
  -23.9250   -8.6850   22.0490 C   0  0  0  0  0  3  0  0  0  0  0  0
  -22.7790   -8.4560   21.2510 C   0  0  0  0  0  0  0  0  0  0  0  0
  -22.4180   -9.4080   20.2820 C   0  0  0  0  0  3  0  0  0  0  0  0
  -23.1690  -10.5840   20.1180 C   0  0  0  0  0  3  0  0  0  0  0  0
  -22.0040   -7.3240   21.3220 O   0  0  0  0  0  0  0  0  0  0  0  0
  -21.8550   -6.6270   22.4940 C   0  0  0  0  0  0  0  0  0  0  0  0
  -21.3220   -7.2270   23.6560 C   0  0  0  0  0  3  0  0  0  0  0  0
  -21.1200   -6.4550   24.8180 C   0  0  0  0  0  3  0  0  0  0  0  0
  -21.4390   -5.0840   24.8190 C   0  0  0  0  0  0  0  0  0  0  0  0
  -21.9650   -4.4840   23.6610 C   0  0  0  0  0  3  0  0  0  0  0  0
  -22.1690   -5.2520   22.5010 C   0  0  0  0  0  0  0  0  0  0  0  0
  -22.6540   -4.6640   21.3820 F   0  0  0  0  0  0  0  0  0  0  0  0
  -21.2390   -4.3410   25.9320 F   0  0  0  0  0  0  0  0  0  0  0  0
  -23.2180  -13.9430   21.0780 C   0  0  0  0  0  0  0  0  0  0  0  0
  -22.4810  -13.2590   21.9450 N   0  0  0  0  0  0  0  0  0  0  0  0
  -22.7960  -14.9760   20.5580 O   0  0  0  0  0  0  0  0  0  0  0  0
  -22.8340  -12.4240   22.3880 H   0  0  0  0  0  0  0  0  0  0  0  0
  -21.5490  -13.5770   22.1720 H   0  0  0  0  0  0  0  0  0  0  0  0
  -25.8680  -15.5730   20.2750 N   0  0  0  0  0  0  0  0  0  0  0  0
  -25.1090  -16.2340   20.3970 H   0  0  0  0  0  0  0  0  0  0  0  0
  -26.7070  -16.0000   19.9060 H   0  0  0  0  0  0  0  0  0  0  0  0
  -29.3430  -23.3970   19.9250 C   0  0  0  0  0  2  0  0  0  0  0  0
  -28.3650  -24.8160   19.9630 C   0  0  0  0  0  2  0  0  0  0  0  0
  -28.6160  -26.3630   20.1500 O   0  0  0  0  0  0  0  0  0  0  0  0
  -24.7200  -31.8640   23.2350 C   0  0  0  0  0  0  0  0  0  0  0  0
  -27.5260  -27.3240   20.1060 C   0  0  0  0  0  0  0  0  0  0  0  0
  -23.5930  -30.4470   21.5650 C   0  0  0  0  0  3  0  0  0  0  0  0
  -25.1200  -28.9810   20.1080 C   0  0  0  0  0  0  0  0  0  0  0  0
  -26.1350  -30.8360   21.4130 C   0  0  0  0  0  2  0  0  0  0  0  0
  -26.2790  -29.4610   20.7290 C   0  0  0  0  0  0  0  0  0  0  0  0
  -27.4820  -28.6520   20.7110 C   0  0  0  0  0  3  0  0  0  0  0  0
  -26.3300  -26.9580   19.4470 C   0  0  0  0  0  3  0  0  0  0  0  0
  -25.1610  -27.7450   19.4490 C   0  0  0  0  0  3  0  0  0  0  0  0
  -23.8510  -29.8160   20.1710 C   0  0  0  0  0  2  0  0  0  0  0  0
  -24.8350  -31.0710   22.1260 N   0  0  0  0  0  0  0  0  0  0  0  0
  -23.6190  -32.0820   23.7660 O   0  0  0  0  0  0  0  0  0  0  0  0
  -22.9650  -29.3850   22.5020 C   0  0  0  0  0  0  0  0  0  0  0  0
  -21.6550  -29.1210   22.3410 N   0  0  0  0  0  0  0  0  0  0  0  0
  -23.6580  -28.8010   23.3390 O   0  0  0  0  0  0  0  0  0  0  0  0
  -21.1490  -29.6450   21.6430 H   0  0  0  0  0  0  0  0  0  0  0  0
  -18.3630  -27.6580   22.7370 C   0  0  0  0  0  0  0  0  0  0  0  0
  -20.8840  -28.1220   23.0870 C   0  0  0  0  0  3  0  0  0  0  0  0
  -21.1170  -26.7030   22.5200 C   0  0  0  0  0  2  0  0  0  0  0  0
  -20.0780  -26.2950   21.4710 C   0  0  0  0  0  2  0  0  0  0  0  0
  -18.6680  -26.3290   22.0690 C   0  0  0  0  0  2  0  0  0  0  0  0
  -19.4030  -28.5080   23.2010 C   0  0  0  0  0  0  0  0  0  0  0  0
  -19.0630  -29.7470   23.7870 C   0  0  0  0  0  3  0  0  0  0  0  0
  -17.7180  -30.1410   23.9120 C   0  0  0  0  0  3  0  0  0  0  0  0
  -16.6930  -29.2900   23.4620 C   0  0  0  0  0  3  0  0  0  0  0  0
  -17.0160  -28.0520   22.8810 C   0  0  0  0  0  3  0  0  0  0  0  0
  -25.9610  -32.5500   23.8790 C   0  0  0  0  0  3  0  0  0  0  0  0
  -26.4680  -31.8170   25.1830 C   0  0  1  0  0  0  0  0  0  0  0  0
  -25.3530  -31.5500   26.2200 C   0  0  0  0  0  1  0  0  0  0  0  0
  -27.1190  -30.4600   24.8330 C   0  0  0  0  0  1  0  0  0  0  0  0
  -27.5640  -32.6670   25.8680 C   0  0  0  0  0  1  0  0  0  0  0  0
  -25.5960  -33.9430   24.1860 N   0  0  0  0  0  0  0  0  0  0  0  0
  -25.9110  -35.0010   23.4270 C   0  0  0  0  0  0  0  0  0  0  0  0
  -26.6080  -34.9100   22.4130 O   0  0  0  0  0  0  0  0  0  0  0  0
  -24.9770  -34.0830   24.9700 H   0  0  0  0  0  0  0  0  0  0  0  0
  -24.1360  -36.7390   23.0230 C   0  0  0  0  0  1  0  0  0  0  0  0
  -25.3720  -36.3790   23.8630 C   0  0  0  0  0  3  0  0  0  0  0  0
  -27.4570  -37.3410   24.7330 C   0  0  0  0  0  1  0  0  0  0  0  0
  -26.3740  -37.4630   23.7620 N   0  0  0  0  0  0  0  0  0  0  0  0
  -25.9350  -38.3710   23.8900 H   0  0  0  0  0  0  0  0  0  0  0  0
  2  1  1  0
  3  1  2  0
  4  7  1  0
  4  2  2  0
  5  3  1  0
  6  5  2  0
  6  4  1  0
  8 10  1  0
  8  5  1  0
 10  9  1  0
 11 19  1  0
 12 17  1  0
 13 14  1  0
 13 12  1  0
 15 14  1  0
 15 24  1  0
 15 16  1  0
 17 11  1  0
 17 16  1  0
 18 11  2  0
 19 10  1  0
 19 20  1  0
 21 22  2  0
 22 41  1  0
 23 22  1  0
 23 26  1  0
 24 21  1  0
 24 25  1  0
 25 23  2  0
 26 27  1  0
 27 28  2  0
 29 32  1  0
 29 28  1  0
 30 29  2  0
 31 30  1  0
 31 26  2  0
 32 33  1  0
 33 38  2  0
 33 34  1  0
 34 35  2  0
 35 36  1  0
 36 40  1  0
 37 36  2  0
 38 37  1  0
 39 38  1  0
 41 42  1  0
 42 45  1  0
 42 44  1  0
 43 41  2  0
 46 47  1  0
 46 21  1  0
 48 46  1  0
 49 50  1  0
 49  6  1  0
 50 51  1  0
 52 63  2  0
 53 51  1  0
 53 58  1  0
 54 62  1  0
 54 64  1  0
 55 61  1  0
 55 57  1  0
 56 62  1  0
 57 56  1  0
 58 57  2  0
 59 60  1  0
 59 53  2  0
 60 55  2  0
 61 54  1  0
 62 52  1  0
 64 66  2  0
 65 64  1  0
 67 65  1  0
 68 77  2  0
 68 73  1  0
 69 65  1  0
 69 73  1  0
 70 69  1  0
 71 72  1  0
 71 70  1  0
 72 68  1  0
 73 74  2  0
 74 75  1  0
 76 75  2  0
 77 76  1  0
 78 52  1  0
 78 83  1  0
 78 79  1  0
 79 82  1  1
 79 80  1  0
 81 79  1  0
 83 86  1  0
 84 88  1  0
 84 83  1  0
 85 84  2  0
 88 87  1  0
 90 88  1  0
 90 91  1  0
 90 89  1  0
M  ISO  4  11 100  19 100  50 101  51 101
M  END
>  <TORSDO>  (68) 
F 20

>  <SCORE>  (68) 
-13.715

>  <name>  (68) 
67

>  <ligand_id>  (68) 
67

>  <original_smiles>  (68) 
[H]c1c([H])c([H])c2c(c1[H])C([H])([H])C([H])([H])C([H])([H])C2([H])N([H])C(=O)C1([H])N(C(=O)C([H])(N([H])C(=O)C([H])(N([H])C([H])([H])[H])C([H])([H])[H])C(C([H])([H])[H])(C([H])([H])[H])C([H])([H])[H])C([H])([H])c2c([H])c(OC([H])([H])C([H])([H])c3c(C([H])([H])[H])c([H])c([H])c([H])c3C([H])([H])C([H])(N([H])C(=O)N3C([H])([H])C([H])([H])C([H])([H])C([H])(n4nc(-c5c([H])c([H])c(Oc6c([H])c([H])c(F)c([H])c6F)c([H])c5[H])c(C(=O)N([H])[H])c4N([H])[H])C3([H])[H])C([H])([H])[H])c([H])c([H])c2C1([H])[H]

>  <smiles>  (68) 
[H]c1c([H])c([H])c2c(c1[H])C([H])([H])C([H])([H])C([H])([H])C2([H])N([H])C(=O)C1([H])N(C(=O)C([H])(N([H])C(=O)C([H])(N([H])C([H])([H])[H])C([H])([H])[H])C(C([H])([H])[H])(C([H])([H])[H])C([H])([H])[H])C([H])([H])c2c([H])c(OC([H])([H])C([H])([H])c3c(C([H])([H])[H])c([H])c([H])c([H])c3C([H])([H])C([H])(N([H])C(=O)N3C([H])([H])C([H])([H])C([H])([H])C([H])(n4nc(-c5c([H])c([H])c(Oc6c([H])c([H])c(F)c([H])c6F)c([H])c5[H])c(C(=O)N([H])[H])c4N([H])[H])C3([H])[H])C([H])([H])[H])c([H])c([H])c2C1([H])[H]

$$$$
68:0:0
     RDKit          3D

 92100  0  0  1  0  0  0  0  0999 V2000
  -27.7620  -23.0040   21.5150 C   0  0  0  0  0  3  0  0  0  0  0  0
  -28.4450  -24.2640   19.5530 C   0  0  0  0  0  3  0  0  0  0  0  0
  -28.3620  -22.9860   20.2390 C   0  0  0  0  0  0  0  0  0  0  0  0
  -27.3180  -24.2070   22.1120 C   0  0  0  0  0  0  0  0  0  0  0  0
  -27.9800  -25.5140   20.1230 C   0  0  0  0  0  0  0  0  0  0  0  0
  -27.4680  -25.4550   21.4500 C   0  0  0  0  0  0  0  0  0  0  0  0
  -26.6280  -24.1390   23.4670 C   0  0  0  0  0  1  0  0  0  0  0  0
  -27.9110  -27.0690   23.1280 C   0  0  0  0  0  1  0  0  0  0  0  0
  -27.0750  -26.6170   22.0660 O   0  0  0  0  0  0  0  0  0  0  0  0
  -28.0360  -26.7700   19.4520 O   0  0  0  0  0  0  0  0  0  0  0  0
  -24.4960  -31.9150   23.0720 C   0  0  0  0  0  0  0  0  0  0  0  0
  -26.9490  -27.6560   19.5150 C   0  0  0  0  0  0  0  0  0  0  0  0
  -23.2140  -30.6810   21.3560 C   0  0  0  0  0  3  0  0  0  0  0  0
  -24.5980  -29.2650   19.7340 C   0  0  0  0  0  0  0  0  0  0  0  0
  -25.7450  -31.0120   21.0970 C   0  0  0  0  0  2  0  0  0  0  0  0
  -25.7930  -29.6990   20.3240 C   0  0  0  0  0  0  0  0  0  0  0  0
  -26.9740  -28.9110   20.2010 C   0  0  0  0  0  3  0  0  0  0  0  0
  -25.7390  -27.2760   18.8980 C   0  0  0  0  0  3  0  0  0  0  0  0
  -24.5730  -28.0590   19.0110 C   0  0  0  0  0  3  0  0  0  0  0  0
  -23.3680  -30.1350   19.9090 C   0  0  0  0  0  2  0  0  0  0  0  0
  -24.5060  -31.2170   21.8960 N   0  0  0  0  0  0  0  0  0  0  0  0
  -23.4380  -32.1430   23.6760 O   0  0  0  0  0  0  0  0  0  0  0  0
  -22.5890  -29.5790   22.2420 C   0  0  0  0  0  0  0  0  0  0  0  0
  -21.2620  -29.3980   22.1380 N   0  0  0  0  0  0  0  0  0  0  0  0
  -23.2970  -28.8920   22.9830 O   0  0  0  0  0  0  0  0  0  0  0  0
  -20.7510  -30.0080   21.5140 H   0  0  0  0  0  0  0  0  0  0  0  0
  -17.9000  -28.1810   22.6810 C   0  0  0  0  0  0  0  0  0  0  0  0
  -20.4720  -28.3920   22.8500 C   0  0  0  0  0  3  0  0  0  0  0  0
  -20.5280  -27.0270   22.1240 C   0  0  0  0  0  2  0  0  0  0  0  0
  -19.3750  -26.8200   21.1370 C   0  0  0  0  0  2  0  0  0  0  0  0
  -18.0270  -26.9090   21.8580 C   0  0  0  0  0  2  0  0  0  0  0  0
  -19.0480  -28.8850   23.1320 C   0  0  0  0  0  0  0  0  0  0  0  0
  -18.8720  -30.0810   23.8610 C   0  0  0  0  0  3  0  0  0  0  0  0
  -17.5830  -30.5690   24.1480 C   0  0  0  0  0  3  0  0  0  0  0  0
  -16.4510  -29.8610   23.7100 C   0  0  0  0  0  3  0  0  0  0  0  0
  -16.6120  -28.6680   22.9830 C   0  0  0  0  0  3  0  0  0  0  0  0
  -25.8110  -32.4810   23.6980 C   0  0  0  0  0  3  0  0  0  0  0  0
  -25.5330  -33.8500   24.1530 N   0  0  0  0  0  0  0  0  0  0  0  0
  -25.8690  -34.9590   23.4790 C   0  0  0  0  0  0  0  0  0  0  0  0
  -26.5240  -34.9300   22.4330 O   0  0  0  0  0  0  0  0  0  0  0  0
  -24.9650  -33.9440   24.9830 H   0  0  0  0  0  0  0  0  0  0  0  0
  -24.1850  -36.8160   23.2790 C   0  0  0  0  0  1  0  0  0  0  0  0
  -25.4080  -36.3090   24.0600 C   0  0  0  0  0  3  0  0  0  0  0  0
  -27.5500  -37.0710   24.9950 C   0  0  0  0  0  1  0  0  0  0  0  0
  -26.4650  -37.3460   24.0520 N   0  0  0  0  0  0  0  0  0  0  0  0
  -26.0750  -38.2560   24.2760 H   0  0  0  0  0  0  0  0  0  0  0  0
  -26.3550  -31.6050   24.8930 C   0  0  1  0  0  0  0  0  0  0  0  0
  -25.2940  -31.3100   25.9780 C   0  0  0  0  0  1  0  0  0  0  0  0
  -26.8940  -30.2500   24.3790 C   0  0  0  0  0  1  0  0  0  0  0  0
  -27.5420  -32.3270   25.5740 C   0  0  0  0  0  1  0  0  0  0  0  0
  -28.7340  -21.5820   19.5970 C   0  0  0  0  0  2  0  0  0  0  0  0
  -29.4870  -20.4090   20.4210 C   0  0  0  0  0  2  0  0  0  0  0  0
  -29.3070  -18.8530   19.9960 C   0  0  0  0  0  3  0  0  0  0  0  0
  -30.3240  -17.7230   20.5520 C   0  0  0  0  0  3  0  0  0  0  0  0
  -30.7470  -15.1470   20.1760 C   0  0  0  0  0  0  0  0  0  0  0  0
  -30.5900  -12.8530   19.2010 C   0  0  0  0  0  2  0  0  0  0  0  0
  -29.6440  -12.9000   17.9830 C   0  0  0  0  0  2  0  0  0  0  0  0
  -28.1800  -12.7020   18.4230 C   0  0  0  0  0  2  0  0  0  0  0  0
  -27.7960  -13.6060   19.6250 C   0  0  0  0  0  3  0  0  0  0  0  0
  -28.8600  -13.5470   20.7420 C   0  0  0  0  0  2  0  0  0  0  0  0
  -30.1500  -13.9100   20.1380 N   0  0  0  0  0  0  0  0  0  0  0  0
  -31.9200  -15.2830   19.8130 O   0  0  0  0  0  0  0  0  0  0  0  0
  -29.9540  -16.2460   20.4490 N   0  0  0  0  0  0  0  0  0  0  0  0
  -29.0010  -16.0230   20.6880 H   0  0  0  0  0  0  0  0  0  0  0  0
  -25.4060  -14.1710   20.3700 C   0  0  0  0  0  0  0  0  0  0  0  0
  -24.3540  -13.3850   20.7570 C   0  0  0  0  0  0  0  0  0  0  0  0
  -24.8340  -12.0390   20.7210 C   0  0  0  0  0  0  0  0  0  0  0  0
  -26.4590  -13.3050   20.1280 N   0  0  0  0  0  0  0  0  0  0  0  0
  -26.1220  -12.0180   20.3970 N   0  0  0  0  0  0  0  0  0  0  0  0
  -24.1240  -10.7680   20.9220 C   0  0  0  0  0  0  0  0  0  0  0  0
  -24.5510   -9.8290   21.8870 C   0  0  0  0  0  3  0  0  0  0  0  0
  -23.8410   -8.6220   22.0730 C   0  0  0  0  0  3  0  0  0  0  0  0
  -22.6920   -8.3460   21.2950 C   0  0  0  0  0  0  0  0  0  0  0  0
  -22.2870   -9.2750   20.3200 C   0  0  0  0  0  3  0  0  0  0  0  0
  -22.9960  -10.4730   20.1310 C   0  0  0  0  0  3  0  0  0  0  0  0
  -21.9540   -7.1920   21.3880 O   0  0  0  0  0  0  0  0  0  0  0  0
  -21.8560   -6.4950   22.5660 C   0  0  0  0  0  0  0  0  0  0  0  0
  -21.2980   -7.0700   23.7270 C   0  0  0  0  0  3  0  0  0  0  0  0
  -21.1510   -6.2970   24.8960 C   0  0  0  0  0  3  0  0  0  0  0  0
  -21.5540   -4.9470   24.9040 C   0  0  0  0  0  0  0  0  0  0  0  0
  -22.1070   -4.3710   23.7460 C   0  0  0  0  0  3  0  0  0  0  0  0
  -22.2550   -5.1430   22.5800 C   0  0  0  0  0  0  0  0  0  0  0  0
  -22.7670   -4.5770   21.4610 F   0  0  0  0  0  0  0  0  0  0  0  0
  -21.4080   -4.2020   26.0240 F   0  0  0  0  0  0  0  0  0  0  0  0
  -22.9540  -13.8440   21.0420 C   0  0  0  0  0  0  0  0  0  0  0  0
  -22.2490  -13.1430   21.9220 N   0  0  0  0  0  0  0  0  0  0  0  0
  -22.4970  -14.8630   20.5220 O   0  0  0  0  0  0  0  0  0  0  0  0
  -22.6350  -12.3210   22.3640 H   0  0  0  0  0  0  0  0  0  0  0  0
  -21.3090  -13.4300   22.1550 H   0  0  0  0  0  0  0  0  0  0  0  0
  -25.5490  -15.5430   20.1830 N   0  0  0  0  0  0  0  0  0  0  0  0
  -24.7740  -16.1880   20.2870 H   0  0  0  0  0  0  0  0  0  0  0  0
  -26.3780  -15.9900   19.8110 H   0  0  0  0  0  0  0  0  0  0  0  0
  1  4  1  0
  2  5  2  0
  2  3  1  0
  3  1  2  0
  4  7  1  0
  5  6  1  0
  6  9  1  0
  6  4  2  0
  9  8  1  0
 10 12  1  0
 10  5  1  0
 11 22  2  0
 12 17  1  0
 13 21  1  0
 13 23  1  0
 14 20  1  0
 14 16  1  0
 15 21  1  0
 16 15  1  0
 17 16  2  0
 18 19  1  0
 18 12  2  0
 19 14  2  0
 20 13  1  0
 21 11  1  0
 23 25  2  0
 24 23  1  0
 26 24  1  0
 27 36  2  0
 27 32  1  0
 28 24  1  0
 28 32  1  0
 29 28  1  0
 30 31  1  0
 30 29  1  0
 31 27  1  0
 32 33  2  0
 33 34  1  0
 35 34  2  0
 36 35  1  0
 37 11  1  0
 37 38  1  0
 37 47  1  0
 38 41  1  0
 39 43  1  0
 39 38  1  0
 40 39  2  0
 43 42  1  0
 45 43  1  0
 45 46  1  0
 45 44  1  0
 47 50  1  1
 47 48  1  0
 49 47  1  0
 51  3  1  0
 51 52  1  0
 53 52  1  0
 53 54  2  0
 55 63  1  0
 56 61  1  0
 57 58  1  0
 57 56  1  0
 59 58  1  0
 59 68  1  0
 59 60  1  0
 61 55  1  0
 61 60  1  0
 62 55  2  0
 63 54  1  0
 63 64  1  0
 65 66  2  0
 66 85  1  0
 67 66  1  0
 67 70  1  0
 68 65  1  0
 68 69  1  0
 69 67  2  0
 70 71  1  0
 71 72  2  0
 73 76  1  0
 73 72  1  0
 74 73  2  0
 75 74  1  0
 75 70  2  0
 76 77  1  0
 77 82  2  0
 77 78  1  0
 78 79  2  0
 79 80  1  0
 80 84  1  0
 81 80  2  0
 82 81  1  0
 83 82  1  0
 85 86  1  0
 86 89  1  0
 86 88  1  0
 87 85  2  0
 90 91  1  0
 90 65  1  0
 92 90  1  0
M  ISO  4   5 101  10 101  55 100  63 100
M  END
>  <TORSDO>  (69) 
F 21

>  <SCORE>  (69) 
-11.012

>  <name>  (69) 
68

>  <ligand_id>  (69) 
68

>  <original_smiles>  (69) 
[H]c1c([H])c([H])c2c(c1[H])C([H])([H])C([H])([H])C([H])([H])C2([H])N([H])C(=O)C1([H])N(C(=O)C([H])(N([H])C(=O)C([H])(N([H])C([H])([H])[H])C([H])([H])[H])C(C([H])([H])[H])(C([H])([H])[H])C([H])([H])[H])C([H])([H])c2c([H])c(Oc3c([H])c(C([H])([H])C([H])([H])C([H])([H])C([H])([H])N([H])C(=O)N4C([H])([H])C([H])([H])C([H])([H])C([H])(n5nc(-c6c([H])c([H])c(Oc7c([H])c([H])c(F)c([H])c7F)c([H])c6[H])c(C(=O)N([H])[H])c5N([H])[H])C4([H])[H])c([H])c(C([H])([H])[H])c3OC([H])([H])[H])c([H])c([H])c2C1([H])[H]

>  <smiles>  (69) 
[H]c1c([H])c([H])c2c(c1[H])C([H])([H])C([H])([H])C([H])([H])C2([H])N([H])C(=O)C1([H])N(C(=O)C([H])(N([H])C(=O)C([H])(N([H])C([H])([H])[H])C([H])([H])[H])C(C([H])([H])[H])(C([H])([H])[H])C([H])([H])[H])C([H])([H])c2c([H])c(Oc3c([H])c(C([H])([H])C([H])([H])C([H])([H])C([H])([H])N([H])C(=O)N4C([H])([H])C([H])([H])C([H])([H])C([H])(n5nc(-c6c([H])c([H])c(Oc7c([H])c([H])c(F)c([H])c7F)c([H])c6[H])c(C(=O)N([H])[H])c5N([H])[H])C4([H])[H])c([H])c(C([H])([H])[H])c3OC([H])([H])[H])c([H])c([H])c2C1([H])[H]

$$$$
69:0:0
     RDKit          3D

 89 97  0  0  1  0  0  0  0  0999 V2000
  -27.8220  -21.0740   19.9300 C   0  0  0  0  0  3  0  0  0  0  0  0
  -28.2110  -19.6190   19.9500 C   0  0  0  0  0  3  0  0  0  0  0  0
  -29.9590  -21.6780   20.1650 C   0  0  0  0  0  3  0  0  0  0  0  0
  -28.6200  -22.3070   20.0570 C   0  0  0  0  0  0  0  0  0  0  0  0
  -29.5270  -18.9640   20.1040 C   0  0  0  0  0  0  0  0  0  0  0  0
  -30.3790  -20.1930   20.2030 C   0  0  0  0  0  0  0  0  0  0  0  0
  -30.8320  -17.3570   21.7150 C   0  0  0  0  0  1  0  0  0  0  0  0
  -28.4970  -16.8450   21.2360 C   0  0  0  0  0  1  0  0  0  0  0  0
  -29.8260  -17.1960   20.5530 C   0  0  1  0  0  0  0  0  0  0  0  0
  -30.4490  -15.5750   19.8890 C   0  0  0  0  0  0  0  0  0  0  0  0
  -30.4520  -13.0850   18.9350 C   0  0  0  0  0  2  0  0  0  0  0  0
  -29.4510  -12.8080   17.7770 C   0  0  0  0  0  2  0  0  0  0  0  0
  -28.0450  -12.4730   18.3060 C   0  0  0  0  0  2  0  0  0  0  0  0
  -27.6570  -13.4050   19.4770 C   0  0  0  0  0  3  0  0  0  0  0  0
  -28.7880  -13.5400   20.5180 C   0  0  0  0  0  2  0  0  0  0  0  0
  -29.9360  -14.2050   19.8450 N   0  0  0  0  0  0  0  0  0  0  0  0
  -31.6050  -15.5450   19.4280 O   0  0  0  0  0  0  0  0  0  0  0  0
  -25.3470  -13.9260   20.4220 C   0  0  0  0  0  0  0  0  0  0  0  0
  -24.3170  -13.1390   20.8480 C   0  0  0  0  0  0  0  0  0  0  0  0
  -24.7760  -11.7920   20.7350 C   0  0  0  0  0  0  0  0  0  0  0  0
  -26.3700  -13.0630   20.0720 N   0  0  0  0  0  0  0  0  0  0  0  0
  -26.0430  -11.7670   20.3250 N   0  0  0  0  0  0  0  0  0  0  0  0
  -24.0570  -10.5270   20.9370 C   0  0  0  0  0  0  0  0  0  0  0  0
  -24.5140   -9.5530   21.8510 C   0  0  0  0  0  3  0  0  0  0  0  0
  -23.7910   -8.3570   22.0430 C   0  0  0  0  0  3  0  0  0  0  0  0
  -22.5950   -8.1250   21.3220 C   0  0  0  0  0  0  0  0  0  0  0  0
  -22.1560   -9.0890   20.3960 C   0  0  0  0  0  3  0  0  0  0  0  0
  -22.8800  -10.2760   20.2020 C   0  0  0  0  0  3  0  0  0  0  0  0
  -21.8410   -6.9810   21.4240 O   0  0  0  0  0  0  0  0  0  0  0  0
  -21.7720   -6.2670   22.5930 C   0  0  0  0  0  0  0  0  0  0  0  0
  -21.3190   -6.8500   23.7960 C   0  0  0  0  0  3  0  0  0  0  0  0
  -21.1960   -6.0630   24.9580 C   0  0  0  0  0  3  0  0  0  0  0  0
  -21.5180   -4.6930   24.9180 C   0  0  0  0  0  0  0  0  0  0  0  0
  -21.9640   -4.1090   23.7200 C   0  0  0  0  0  3  0  0  0  0  0  0
  -22.0880   -4.8940   22.5600 C   0  0  0  0  0  0  0  0  0  0  0  0
  -22.4990   -4.3220   21.4030 F   0  0  0  0  0  0  0  0  0  0  0  0
  -21.3940   -3.9350   26.0330 F   0  0  0  0  0  0  0  0  0  0  0  0
  -22.9460  -13.6130   21.2340 C   0  0  0  0  0  0  0  0  0  0  0  0
  -22.2810  -12.8980   22.1340 N   0  0  0  0  0  0  0  0  0  0  0  0
  -22.4770  -14.6540   20.7750 O   0  0  0  0  0  0  0  0  0  0  0  0
  -22.6760  -12.0570   22.5290 H   0  0  0  0  0  0  0  0  0  0  0  0
  -21.3640  -13.1970   22.4330 H   0  0  0  0  0  0  0  0  0  0  0  0
  -25.4840  -15.3000   20.2710 N   0  0  0  0  0  0  0  0  0  0  0  0
  -24.7190  -15.9380   20.4620 H   0  0  0  0  0  0  0  0  0  0  0  0
  -26.2930  -15.7580   19.8760 H   0  0  0  0  0  0  0  0  0  0  0  0
  -32.6610  -20.9010   20.6040 C   0  0  0  0  0  1  0  0  0  0  0  0
  -31.7110  -19.8710   20.3590 O   0  0  0  0  0  0  0  0  0  0  0  0
  -27.9070  -23.9920   19.9230 C   0  0  0  0  0  2  0  0  0  0  0  0
  -28.1860  -25.6410   20.2760 O   0  0  0  0  0  0  0  0  0  0  0  0
  -24.6630  -31.8150   23.1980 C   0  0  0  0  0  0  0  0  0  0  0  0
  -27.2160  -26.8230   20.1930 C   0  0  0  0  0  0  0  0  0  0  0  0
  -23.4780  -30.4230   21.5520 C   0  0  0  0  0  3  0  0  0  0  0  0
  -24.9320  -28.7950   20.1370 C   0  0  0  0  0  0  0  0  0  0  0  0
  -26.0530  -30.5900   21.4330 C   0  0  0  0  0  2  0  0  0  0  0  0
  -26.1220  -29.1690   20.7730 C   0  0  0  0  0  0  0  0  0  0  0  0
  -27.2520  -28.2070   20.7750 C   0  0  0  0  0  3  0  0  0  0  0  0
  -25.9940  -26.6390   19.5020 C   0  0  0  0  0  3  0  0  0  0  0  0
  -24.9020  -27.5540   19.4790 C   0  0  0  0  0  3  0  0  0  0  0  0
  -23.7200  -29.7340   20.1790 C   0  0  0  0  0  2  0  0  0  0  0  0
  -24.7540  -30.9730   22.1130 N   0  0  0  0  0  0  0  0  0  0  0  0
  -23.5700  -32.1120   23.7070 O   0  0  0  0  0  0  0  0  0  0  0  0
  -22.7640  -29.4380   22.5160 C   0  0  0  0  0  0  0  0  0  0  0  0
  -21.4360  -29.2680   22.3730 N   0  0  0  0  0  0  0  0  0  0  0  0
  -23.4160  -28.8250   23.3640 O   0  0  0  0  0  0  0  0  0  0  0  0
  -20.9600  -29.8130   21.6690 H   0  0  0  0  0  0  0  0  0  0  0  0
  -18.0590  -28.0050   22.8180 C   0  0  0  0  0  0  0  0  0  0  0  0
  -20.6070  -28.3280   23.1390 C   0  0  0  0  0  3  0  0  0  0  0  0
  -20.7490  -26.8890   22.5910 C   0  0  0  0  0  2  0  0  0  0  0  0
  -19.6790  -26.5280   21.5550 C   0  0  0  0  0  2  0  0  0  0  0  0
  -18.2800  -26.6520   22.1630 C   0  0  0  0  0  2  0  0  0  0  0  0
  -19.1510  -28.7990   23.2610 C   0  0  0  0  0  0  0  0  0  0  0  0
  -18.8890  -30.0610   23.8370 C   0  0  0  0  0  3  0  0  0  0  0  0
  -17.5690  -30.5310   23.9720 C   0  0  0  0  0  3  0  0  0  0  0  0
  -16.4920  -29.7370   23.5410 C   0  0  0  0  0  3  0  0  0  0  0  0
  -16.7380  -28.4750   22.9710 C   0  0  0  0  0  3  0  0  0  0  0  0
  -25.9280  -32.4580   23.8430 C   0  0  0  0  0  3  0  0  0  0  0  0
  -26.4180  -31.6950   25.1360 C   0  0  1  0  0  0  0  0  0  0  0  0
  -25.3060  -31.4750   26.1890 C   0  0  0  0  0  1  0  0  0  0  0  0
  -26.9990  -30.3090   24.7770 C   0  0  0  0  0  1  0  0  0  0  0  0
  -27.5620  -32.4880   25.8090 C   0  0  0  0  0  1  0  0  0  0  0  0
  -25.6090  -33.8600   24.1770 N   0  0  0  0  0  0  0  0  0  0  0  0
  -25.9310  -34.9230   23.4280 C   0  0  0  0  0  0  0  0  0  0  0  0
  -26.5870  -34.8280   22.3870 O   0  0  0  0  0  0  0  0  0  0  0  0
  -25.0250  -34.0070   24.9870 H   0  0  0  0  0  0  0  0  0  0  0  0
  -24.1880  -36.7190   23.1330 C   0  0  0  0  0  1  0  0  0  0  0  0
  -25.4530  -36.3120   23.9050 C   0  0  0  0  0  3  0  0  0  0  0  0
  -27.6070  -37.2110   24.6780 C   0  0  0  0  0  1  0  0  0  0  0  0
  -26.4790  -37.3700   23.7630 N   0  0  0  0  0  0  0  0  0  0  0  0
  -26.0720  -38.2880   23.9180 H   0  0  0  0  0  0  0  0  0  0  0  0
  1  2  2  0
  1  4  1  0
  2  5  1  0
  3  6  1  0
  4  3  2  0
  5  6  2  0
  5  9  1  0
  6 47  1  0
  9  8  1  1
  9  7  1  0
 10  9  1  0
 11 16  1  0
 12 13  1  0
 12 11  1  0
 14 13  1  0
 14 21  1  0
 14 15  1  0
 16 10  1  0
 16 15  1  0
 17 10  2  0
 18 19  2  0
 19 38  1  0
 20 19  1  0
 20 23  1  0
 21 22  1  0
 21 18  1  0
 22 20  2  0
 23 24  1  0
 24 25  2  0
 26 29  1  0
 26 25  1  0
 27 26  2  0
 28 27  1  0
 28 23  2  0
 29 30  1  0
 30 31  1  0
 31 32  2  0
 33 32  1  0
 33 37  1  0
 34 33  2  0
 35 30  2  0
 35 34  1  0
 36 35  1  0
 38 39  1  0
 39 42  1  0
 39 41  1  0
 40 38  2  0
 43 18  1  0
 43 44  1  0
 45 43  1  0
 47 46  1  0
 48  4  1  0
 48 49  1  0
 50 61  2  0
 51 49  1  0
 51 56  1  0
 52 60  1  0
 52 62  1  0
 53 59  1  0
 53 55  1  0
 54 60  1  0
 55 56  2  0
 55 54  1  0
 57 51  2  0
 58 57  1  0
 58 53  2  0
 59 52  1  0
 60 50  1  0
 62 64  2  0
 63 62  1  0
 65 63  1  0
 66 75  2  0
 66 71  1  0
 67 63  1  0
 67 71  1  0
 68 67  1  0
 69 70  1  0
 69 68  1  0
 70 66  1  0
 71 72  2  0
 72 73  1  0
 74 73  2  0
 75 74  1  0
 76 50  1  0
 76 81  1  0
 76 77  1  0
 77 80  1  1
 77 78  1  0
 79 77  1  0
 81 84  1  0
 82 86  1  0
 82 81  1  0
 83 82  2  0
 86 85  1  0
 88 86  1  0
 88 89  1  0
 88 87  1  0
M  ISO  4   9 100  10 100  48 101  49 101
M  END
>  <TORSDO>  (70) 
F 19

>  <SCORE>  (70) 
-15.706

>  <name>  (70) 
69

>  <ligand_id>  (70) 
69

>  <original_smiles>  (70) 
[H]c1c([H])c([H])c2c(c1[H])C([H])([H])C([H])([H])C([H])([H])C2([H])N([H])C(=O)C1([H])N(C(=O)C([H])(N([H])C(=O)C([H])(N([H])C([H])([H])[H])C([H])([H])[H])C(C([H])([H])[H])(C([H])([H])[H])C([H])([H])[H])C([H])([H])c2c([H])c(OC([H])([H])c3c([H])c([H])c(C(C(=O)N4C([H])([H])C([H])([H])C([H])([H])C([H])(n5nc(-c6c([H])c([H])c(Oc7c([H])c([H])c(F)c([H])c7F)c([H])c6[H])c(C(=O)N([H])[H])c5N([H])[H])C4([H])[H])(C([H])([H])[H])C([H])([H])[H])c(OC([H])([H])[H])c3[H])c([H])c([H])c2C1([H])[H]

>  <smiles>  (70) 
[H]c1c([H])c([H])c2c(c1[H])C([H])([H])C([H])([H])C([H])([H])C2([H])N([H])C(=O)C1([H])N(C(=O)C([H])(N([H])C(=O)C([H])(N([H])C([H])([H])[H])C([H])([H])[H])C(C([H])([H])[H])(C([H])([H])[H])C([H])([H])[H])C([H])([H])c2c([H])c(OC([H])([H])c3c([H])c([H])c(C(C(=O)N4C([H])([H])C([H])([H])C([H])([H])C([H])(n5nc(-c6c([H])c([H])c(Oc7c([H])c([H])c(F)c([H])c7F)c([H])c6[H])c(C(=O)N([H])[H])c5N([H])[H])C4([H])[H])(C([H])([H])[H])C([H])([H])[H])c(OC([H])([H])[H])c3[H])c([H])c([H])c2C1([H])[H]

$$$$
70:0:0
     RDKit          3D

 92100  0  0  1  0  0  0  0  0999 V2000
  -28.1300  -23.0680   21.5940 C   0  0  0  0  0  3  0  0  0  0  0  0
  -27.6830  -23.6550   22.7790 C   0  0  0  0  0  3  0  0  0  0  0  0
  -27.4640  -25.7570   21.6130 C   0  0  0  0  0  3  0  0  0  0  0  0
  -28.2770  -23.7580   20.3660 C   0  0  0  0  0  0  0  0  0  0  0  0
  -27.3680  -25.0080   22.7950 C   0  0  0  0  0  0  0  0  0  0  0  0
  -27.8650  -25.2450   20.3420 C   0  0  0  0  0  0  0  0  0  0  0  0
  -26.9640  -25.6090   23.9880 N   0  0  0  0  0  0  0  0  0  0  0  0
  -27.0990  -25.1200   24.8690 H   0  0  0  0  0  0  0  0  0  0  0  0
  -26.9690  -26.6210   24.0760 H   0  0  0  0  0  0  0  0  0  0  0  0
  -27.8190  -26.3610   19.3710 O   0  0  0  0  0  0  0  0  0  0  0  0
  -24.4740  -31.8970   23.0010 C   0  0  0  0  0  0  0  0  0  0  0  0
  -26.8260  -27.4220   19.4510 C   0  0  0  0  0  0  0  0  0  0  0  0
  -23.1670  -30.6440   21.3290 C   0  0  0  0  0  3  0  0  0  0  0  0
  -24.5160  -29.1860   19.6920 C   0  0  0  0  0  0  0  0  0  0  0  0
  -25.7110  -30.9060   21.0360 C   0  0  0  0  0  2  0  0  0  0  0  0
  -25.7350  -29.5720   20.2680 C   0  0  0  0  0  0  0  0  0  0  0  0
  -26.8910  -28.7070   20.1350 C   0  0  0  0  0  3  0  0  0  0  0  0
  -25.5850  -27.1490   18.8380 C   0  0  0  0  0  3  0  0  0  0  0  0
  -24.4550  -27.9900   18.9580 C   0  0  0  0  0  3  0  0  0  0  0  0
  -23.3010  -30.0800   19.8890 C   0  0  0  0  0  2  0  0  0  0  0  0
  -24.4730  -31.1680   21.8420 N   0  0  0  0  0  0  0  0  0  0  0  0
  -23.4250  -32.1450   23.6150 O   0  0  0  0  0  0  0  0  0  0  0  0
  -22.5400  -29.5650   22.2490 C   0  0  0  0  0  0  0  0  0  0  0  0
  -21.2070  -29.3940   22.1740 N   0  0  0  0  0  0  0  0  0  0  0  0
  -23.2510  -28.8870   22.9930 O   0  0  0  0  0  0  0  0  0  0  0  0
  -20.6880  -29.9940   21.5480 H   0  0  0  0  0  0  0  0  0  0  0  0
  -17.8520  -28.1740   22.7960 C   0  0  0  0  0  0  0  0  0  0  0  0
  -20.4250  -28.4000   22.9150 C   0  0  0  0  0  3  0  0  0  0  0  0
  -20.4750  -27.0230   22.2120 C   0  0  0  0  0  2  0  0  0  0  0  0
  -19.3040  -26.7950   21.2500 C   0  0  0  0  0  2  0  0  0  0  0  0
  -17.9700  -26.8880   21.9930 C   0  0  0  0  0  2  0  0  0  0  0  0
  -19.0040  -28.8910   23.2150 C   0  0  0  0  0  0  0  0  0  0  0  0
  -18.8350  -30.0970   23.9310 C   0  0  0  0  0  3  0  0  0  0  0  0
  -17.5490  -30.5830   24.2300 C   0  0  0  0  0  3  0  0  0  0  0  0
  -16.4130  -29.8610   23.8250 C   0  0  0  0  0  3  0  0  0  0  0  0
  -16.5660  -28.6580   23.1130 C   0  0  0  0  0  3  0  0  0  0  0  0
  -25.7910  -32.4780   23.5980 C   0  0  0  0  0  3  0  0  0  0  0  0
  -25.5010  -33.8350   24.0890 N   0  0  0  0  0  0  0  0  0  0  0  0
  -25.8450  -34.9670   23.4630 C   0  0  0  0  0  0  0  0  0  0  0  0
  -26.5070  -34.9780   22.4230 O   0  0  0  0  0  0  0  0  0  0  0  0
  -24.9090  -33.8970   24.9060 H   0  0  0  0  0  0  0  0  0  0  0  0
  -24.1760  -36.8470   23.3160 C   0  0  0  0  0  1  0  0  0  0  0  0
  -25.3860  -36.3000   24.0910 C   0  0  0  0  0  3  0  0  0  0  0  0
  -27.5160  -37.0100   25.0850 C   0  0  0  0  0  1  0  0  0  0  0  0
  -26.4500  -37.3260   24.1390 N   0  0  0  0  0  0  0  0  0  0  0  0
  -26.0630  -38.2340   24.3850 H   0  0  0  0  0  0  0  0  0  0  0  0
  -26.3870  -31.5890   24.7590 C   0  0  1  0  0  0  0  0  0  0  0  0
  -25.3680  -31.2540   25.8720 C   0  0  0  0  0  1  0  0  0  0  0  0
  -26.9320  -30.2530   24.2060 C   0  0  0  0  0  1  0  0  0  0  0  0
  -27.5850  -32.3180   25.4110 C   0  0  0  0  0  1  0  0  0  0  0  0
  -28.9910  -22.6810   19.3610 C   0  0  0  0  0  2  0  0  0  0  0  0
  -28.7840  -20.9660   19.2970 C   0  0  0  0  0  2  0  0  0  0  0  0
  -29.4260  -19.6110   20.1210 C   0  0  0  0  0  2  0  0  0  0  0  0
  -29.8850  -18.1100   19.4240 C   0  0  0  0  0  2  0  0  0  0  0  0
  -30.5480  -15.4270   19.8070 C   0  0  0  0  0  0  0  0  0  0  0  0
  -30.4310  -13.0270   18.9690 C   0  0  0  0  0  2  0  0  0  0  0  0
  -29.4490  -12.9270   17.7780 C   0  0  0  0  0  2  0  0  0  0  0  0
  -28.0090  -12.7040   18.2740 C   0  0  0  0  0  2  0  0  0  0  0  0
  -27.6400  -13.6450   19.4520 C   0  0  0  0  0  3  0  0  0  0  0  0
  -28.7450  -13.7210   20.5280 C   0  0  0  0  0  2  0  0  0  0  0  0
  -29.9780  -14.1490   19.8530 N   0  0  0  0  0  0  0  0  0  0  0  0
  -31.7130  -15.4920   19.3970 O   0  0  0  0  0  0  0  0  0  0  0  0
  -29.7810  -16.6240   20.0120 N   0  0  0  0  0  0  0  0  0  0  0  0
  -28.8810  -16.4290   20.4250 H   0  0  0  0  0  0  0  0  0  0  0  0
  -25.3070  -14.1900   20.3540 C   0  0  0  0  0  0  0  0  0  0  0  0
  -24.2700  -13.4000   20.7660 C   0  0  0  0  0  0  0  0  0  0  0  0
  -24.7340  -12.0520   20.6680 C   0  0  0  0  0  0  0  0  0  0  0  0
  -26.3370  -13.3240   20.0240 N   0  0  0  0  0  0  0  0  0  0  0  0
  -26.0040  -12.0320   20.2770 N   0  0  0  0  0  0  0  0  0  0  0  0
  -24.0210  -10.7830   20.8660 C   0  0  0  0  0  0  0  0  0  0  0  0
  -24.4640   -9.8210   21.8000 C   0  0  0  0  0  3  0  0  0  0  0  0
  -23.7470   -8.6200   21.9870 C   0  0  0  0  0  3  0  0  0  0  0  0
  -22.5720   -8.3700   21.2400 C   0  0  0  0  0  0  0  0  0  0  0  0
  -22.1470   -9.3220   20.2960 C   0  0  0  0  0  3  0  0  0  0  0  0
  -22.8640  -10.5140   20.1060 C   0  0  0  0  0  3  0  0  0  0  0  0
  -21.8260   -7.2210   21.3370 O   0  0  0  0  0  0  0  0  0  0  0  0
  -21.7440   -6.5120   22.5080 C   0  0  0  0  0  0  0  0  0  0  0  0
  -21.2180   -7.0810   23.6890 C   0  0  0  0  0  3  0  0  0  0  0  0
  -21.0860   -6.2950   24.8520 C   0  0  0  0  0  3  0  0  0  0  0  0
  -21.4690   -4.9420   24.8350 C   0  0  0  0  0  0  0  0  0  0  0  0
  -21.9910   -4.3720   23.6600 C   0  0  0  0  0  3  0  0  0  0  0  0
  -22.1240   -5.1550   22.5000 C   0  0  0  0  0  0  0  0  0  0  0  0
  -22.6040   -4.5930   21.3630 F   0  0  0  0  0  0  0  0  0  0  0  0
  -21.3370   -4.1860   25.9500 F   0  0  0  0  0  0  0  0  0  0  0  0
  -22.8910  -13.8680   21.1340 C   0  0  0  0  0  0  0  0  0  0  0  0
  -22.2150  -13.1470   22.0230 N   0  0  0  0  0  0  0  0  0  0  0  0
  -22.4250  -14.9050   20.6670 O   0  0  0  0  0  0  0  0  0  0  0  0
  -22.6090  -12.3090   22.4240 H   0  0  0  0  0  0  0  0  0  0  0  0
  -21.2900  -13.4400   22.3090 H   0  0  0  0  0  0  0  0  0  0  0  0
  -25.4560  -15.5660   20.2010 N   0  0  0  0  0  0  0  0  0  0  0  0
  -24.6950  -16.2140   20.3750 H   0  0  0  0  0  0  0  0  0  0  0  0
  -26.2680  -16.0130   19.7950 H   0  0  0  0  0  0  0  0  0  0  0  0
  1  2  1  0
  2  5  2  0
  3  5  1  0
  4  1  2  0
  5  7  1  0
  6  4  1  0
  6  3  2  0
  7  9  1  0
  7  8  1  0
 10 12  1  0
 10  6  1  0
 11 22  2  0
 12 17  1  0
 13 21  1  0
 13 23  1  0
 14 20  1  0
 14 16  1  0
 15 21  1  0
 16 15  1  0
 17 16  2  0
 18 19  1  0
 18 12  2  0
 19 14  2  0
 20 13  1  0
 21 11  1  0
 23 25  2  0
 24 23  1  0
 26 24  1  0
 27 36  2  0
 27 32  1  0
 28 24  1  0
 28 32  1  0
 29 28  1  0
 30 31  1  0
 30 29  1  0
 31 27  1  0
 32 33  2  0
 33 34  1  0
 35 34  2  0
 36 35  1  0
 37 11  1  0
 37 38  1  0
 37 47  1  0
 38 41  1  0
 39 38  1  0
 39 43  1  0
 40 39  2  0
 43 42  1  0
 43 45  1  0
 45 46  1  0
 45 44  1  0
 47 50  1  1
 47 48  1  0
 49 47  1  0
 51  4  1  0
 52 51  1  0
 52 53  1  0
 54 63  1  0
 54 53  1  0
 55 61  1  0
 55 63  1  0
 56 61  1  0
 57 58  1  0
 57 56  1  0
 59 58  1  0
 59 68  1  0
 59 60  1  0
 61 60  1  0
 62 55  2  0
 63 64  1  0
 65 66  2  0
 66 85  1  0
 67 66  1  0
 67 70  1  0
 68 69  1  0
 68 65  1  0
 69 67  2  0
 70 71  1  0
 71 72  2  0
 73 76  1  0
 73 72  1  0
 74 73  2  0
 75 74  1  0
 75 70  2  0
 76 77  1  0
 77 78  1  0
 78 79  2  0
 80 79  1  0
 80 84  1  0
 81 80  2  0
 82 77  2  0
 82 81  1  0
 83 82  1  0
 85 86  1  0
 86 89  1  0
 86 88  1  0
 87 85  2  0
 90 65  1  0
 90 91  1  0
 92 90  1  0
M  ISO  4   6 101  10 101  55 100  63 100
M  END
>  <TORSDO>  (71) 
F 21

>  <SCORE>  (71) 
-13.169

>  <name>  (71) 
70

>  <ligand_id>  (71) 
70

>  <original_smiles>  (71) 
[H]c1c([H])c([H])c2c(c1[H])C([H])([H])C([H])([H])C([H])([H])C2([H])N([H])C(=O)C1([H])N(C(=O)C([H])(N([H])C(=O)C([H])(N([H])C([H])([H])[H])C([H])([H])[H])C(C([H])([H])[H])(C([H])([H])[H])C([H])([H])[H])C([H])([H])c2c([H])c(Oc3c([H])c(N([H])[H])c([H])c([H])c3C([H])([H])C([H])([H])C([H])([H])C([H])([H])N([H])C(=O)N3C([H])([H])C([H])([H])C([H])([H])C([H])(n4nc(-c5c([H])c([H])c(Oc6c([H])c([H])c(F)c([H])c6F)c([H])c5[H])c(C(=O)N([H])[H])c4N([H])[H])C3([H])[H])c([H])c([H])c2C1([H])[H]

>  <smiles>  (71) 
[H]c1c([H])c([H])c2c(c1[H])C([H])([H])C([H])([H])C([H])([H])C2([H])N([H])C(=O)C1([H])N(C(=O)C([H])(N([H])C(=O)C([H])(N([H])C([H])([H])[H])C([H])([H])[H])C(C([H])([H])[H])(C([H])([H])[H])C([H])([H])[H])C([H])([H])c2c([H])c(Oc3c([H])c(N([H])[H])c([H])c([H])c3C([H])([H])C([H])([H])C([H])([H])C([H])([H])N([H])C(=O)N3C([H])([H])C([H])([H])C([H])([H])C([H])(n4nc(-c5c([H])c([H])c(Oc6c([H])c([H])c(F)c([H])c6F)c([H])c5[H])c(C(=O)N([H])[H])c4N([H])[H])C3([H])[H])c([H])c([H])c2C1([H])[H]

$$$$
71:0:0
     RDKit          3D

 91100  0  0  1  0  0  0  0  0999 V2000
  -28.8520  -23.7910   20.0900 C   0  0  0  0  0  3  0  0  0  0  0  0
  -27.4700  -22.2180   21.3250 C   0  0  0  0  0  3  0  0  0  0  0  0
  -26.9280  -24.6310   21.2870 C   0  0  0  0  0  3  0  0  0  0  0  0
  -28.6120  -22.3910   20.5180 C   0  0  0  0  0  0  0  0  0  0  0  0
  -28.0160  -24.9590   20.4450 C   0  0  0  0  0  0  0  0  0  0  0  0
  -26.6540  -23.3080   21.7000 C   0  0  0  0  0  0  0  0  0  0  0  0
  -25.5780  -23.0770   22.4890 F   0  0  0  0  0  0  0  0  0  0  0  0
  -28.2130  -26.3640   20.0850 O   0  0  0  0  0  0  0  0  0  0  0  0
  -24.5860  -31.9440   23.2080 C   0  0  0  0  0  0  0  0  0  0  0  0
  -27.1560  -27.3330   20.0750 C   0  0  0  0  0  0  0  0  0  0  0  0
  -23.3760  -30.5770   21.5500 C   0  0  0  0  0  3  0  0  0  0  0  0
  -24.8200  -29.0390   20.0850 C   0  0  0  0  0  0  0  0  0  0  0  0
  -25.9250  -30.8620   21.3730 C   0  0  0  0  0  2  0  0  0  0  0  0
  -25.9980  -29.4850   20.7000 C   0  0  0  0  0  0  0  0  0  0  0  0
  -27.1680  -28.6430   20.6870 C   0  0  0  0  0  3  0  0  0  0  0  0
  -25.9620  -26.9850   19.4090 C   0  0  0  0  0  3  0  0  0  0  0  0
  -24.8110  -27.8000   19.4260 C   0  0  0  0  0  3  0  0  0  0  0  0
  -23.5890  -29.9270   20.1570 C   0  0  0  0  0  2  0  0  0  0  0  0
  -24.6480  -31.1480   22.0990 N   0  0  0  0  0  0  0  0  0  0  0  0
  -23.5040  -32.2160   23.7500 O   0  0  0  0  0  0  0  0  0  0  0  0
  -22.7090  -29.5490   22.4970 C   0  0  0  0  0  0  0  0  0  0  0  0
  -21.3810  -29.3790   22.3760 N   0  0  0  0  0  0  0  0  0  0  0  0
  -23.3880  -28.9070   23.3020 O   0  0  0  0  0  0  0  0  0  0  0  0
  -20.8900  -29.9480   21.7010 H   0  0  0  0  0  0  0  0  0  0  0  0
  -17.9990  -28.2010   22.9110 C   0  0  0  0  0  0  0  0  0  0  0  0
  -20.5650  -28.4270   23.1350 C   0  0  0  0  0  3  0  0  0  0  0  0
  -20.6400  -27.0120   22.5180 C   0  0  0  0  0  2  0  0  0  0  0  0
  -19.5160  -26.7300   21.5160 C   0  0  0  0  0  2  0  0  0  0  0  0
  -18.1480  -26.8710   22.1910 C   0  0  0  0  0  2  0  0  0  0  0  0
  -19.1330  -28.9380   23.3410 C   0  0  0  0  0  0  0  0  0  0  0  0
  -18.9380  -30.1840   23.9750 C   0  0  0  0  0  3  0  0  0  0  0  0
  -17.6410  -30.6910   24.1830 C   0  0  0  0  0  3  0  0  0  0  0  0
  -16.5210  -29.9490   23.7680 C   0  0  0  0  0  3  0  0  0  0  0  0
  -16.7010  -28.7050   23.1380 C   0  0  0  0  0  3  0  0  0  0  0  0
  -25.8690  -32.5700   23.8370 C   0  0  0  0  0  3  0  0  0  0  0  0
  -26.3810  -31.7860   25.1080 C   0  0  1  0  0  0  0  0  0  0  0  0
  -25.2860  -31.5450   26.1740 C   0  0  0  0  0  1  0  0  0  0  0  0
  -26.9580  -30.4080   24.7100 C   0  0  0  0  0  1  0  0  0  0  0  0
  -27.5340  -32.5700   25.7770 C   0  0  0  0  0  1  0  0  0  0  0  0
  -25.5620  -33.9660   24.1830 N   0  0  0  0  0  0  0  0  0  0  0  0
  -25.8750  -35.0270   23.4280 C   0  0  0  0  0  0  0  0  0  0  0  0
  -26.5180  -34.9330   22.3780 O   0  0  0  0  0  0  0  0  0  0  0  0
  -24.9890  -34.1130   25.0010 H   0  0  0  0  0  0  0  0  0  0  0  0
  -24.1280  -36.8170   23.1450 C   0  0  0  0  0  1  0  0  0  0  0  0
  -25.3980  -36.4110   23.9090 C   0  0  0  0  0  3  0  0  0  0  0  0
  -27.5570  -37.3010   24.6720 C   0  0  0  0  0  1  0  0  0  0  0  0
  -26.4210  -37.4700   23.7690 N   0  0  0  0  0  0  0  0  0  0  0  0
  -26.0160  -38.3870   23.9370 H   0  0  0  0  0  0  0  0  0  0  0  0
  -29.5230  -21.0760   20.1880 C   0  0  0  0  0  3  0  0  0  0  0  0
  -29.1810  -19.5010   20.6550 C   0  0  0  0  0  3  0  0  0  0  0  0
  -29.3950  -16.7950   18.9980 C   0  0  0  0  0  2  0  0  0  0  0  0
  -30.3730  -17.9410   18.8620 C   0  0  0  0  0  2  0  0  0  0  0  0
  -29.7710  -16.5150   20.4920 C   0  0  0  0  0  3  0  0  0  0  0  0
  -30.1860  -18.1930   20.3490 C   0  0  2  0  0  0  0  0  0  0  0  0
  -31.5010  -18.6420   21.0300 C   0  0  0  0  0  1  0  0  0  0  0  0
  -30.5850  -15.0700   20.2700 C   0  0  0  0  0  0  0  0  0  0  0  0
  -30.4390  -12.7380   19.3140 C   0  0  0  0  0  2  0  0  0  0  0  0
  -29.5110  -12.7630   18.0770 C   0  0  0  0  0  2  0  0  0  0  0  0
  -28.0390  -12.5750   18.4950 C   0  0  0  0  0  2  0  0  0  0  0  0
  -27.6460  -13.4680   19.7030 C   0  0  0  0  0  3  0  0  0  0  0  0
  -28.7020  -13.4340   20.8280 C   0  0  0  0  0  2  0  0  0  0  0  0
  -29.9930  -13.8120   20.2430 N   0  0  0  0  0  0  0  0  0  0  0  0
  -31.7820  -15.1100   19.9510 O   0  0  0  0  0  0  0  0  0  0  0  0
  -25.2590  -14.0340   20.4380 C   0  0  0  0  0  0  0  0  0  0  0  0
  -24.2000  -13.2530   20.8090 C   0  0  0  0  0  0  0  0  0  0  0  0
  -24.6730  -11.9050   20.7830 C   0  0  0  0  0  0  0  0  0  0  0  0
  -26.3090  -13.1620   20.2000 N   0  0  0  0  0  0  0  0  0  0  0  0
  -25.9640  -11.8760   20.4730 N   0  0  0  0  0  0  0  0  0  0  0  0
  -23.9530  -10.6390   20.9770 C   0  0  0  0  0  0  0  0  0  0  0  0
  -24.3800   -9.6820   21.9250 C   0  0  0  0  0  3  0  0  0  0  0  0
  -23.6590   -8.4820   22.1070 C   0  0  0  0  0  3  0  0  0  0  0  0
  -22.4950   -8.2290   21.3400 C   0  0  0  0  0  0  0  0  0  0  0  0
  -22.0870   -9.1740   20.3830 C   0  0  0  0  0  3  0  0  0  0  0  0
  -22.8090  -10.3650   20.1990 C   0  0  0  0  0  3  0  0  0  0  0  0
  -21.7470   -7.0800   21.4300 O   0  0  0  0  0  0  0  0  0  0  0  0
  -21.6790   -6.3540   22.5920 C   0  0  0  0  0  0  0  0  0  0  0  0
  -21.2050   -6.9170   23.7970 C   0  0  0  0  0  3  0  0  0  0  0  0
  -21.0870   -6.1150   24.9500 C   0  0  0  0  0  3  0  0  0  0  0  0
  -21.4330   -4.7520   24.9000 C   0  0  0  0  0  0  0  0  0  0  0  0
  -21.9000   -4.1880   23.7000 C   0  0  0  0  0  3  0  0  0  0  0  0
  -22.0200   -4.9860   22.5480 C   0  0  0  0  0  0  0  0  0  0  0  0
  -22.4500   -4.4330   21.3890 F   0  0  0  0  0  0  0  0  0  0  0  0
  -21.3130   -3.9800   26.0050 F   0  0  0  0  0  0  0  0  0  0  0  0
  -22.7990  -13.7220   21.0770 C   0  0  0  0  0  0  0  0  0  0  0  0
  -22.0770  -13.0310   21.9510 N   0  0  0  0  0  0  0  0  0  0  0  0
  -22.3540  -14.7380   20.5450 O   0  0  0  0  0  0  0  0  0  0  0  0
  -22.4490  -12.2120   22.4060 H   0  0  0  0  0  0  0  0  0  0  0  0
  -21.1370  -13.3280   22.1700 H   0  0  0  0  0  0  0  0  0  0  0  0
  -25.4160  -15.4050   20.2600 N   0  0  0  0  0  0  0  0  0  0  0  0
  -24.6510  -16.0590   20.3840 H   0  0  0  0  0  0  0  0  0  0  0  0
  -26.2750  -15.8480   19.9620 H   0  0  0  0  0  0  0  0  0  0  0  0
  1  5  2  0
  1  4  1  0
  2  6  1  0
  3  6  2  0
  4  2  2  0
  5  3  1  0
  6  7  1  0
  8  5  1  0
  9 20  2  0
 10  8  1  0
 10 15  1  0
 11 19  1  0
 11 21  1  0
 12 18  1  0
 12 14  1  0
 13 19  1  0
 14 13  1  0
 15 14  2  0
 16 17  1  0
 16 10  2  0
 17 12  2  0
 18 11  1  0
 19  9  1  0
 21 23  2  0
 22 21  1  0
 24 22  1  0
 25 34  2  0
 25 30  1  0
 26 22  1  0
 26 30  1  0
 27 26  1  0
 28 29  1  0
 28 27  1  0
 29 25  1  0
 30 31  2  0
 31 32  1  0
 33 32  2  0
 34 33  1  0
 35  9  1  0
 35 40  1  0
 35 36  1  0
 36 39  1  1
 36 37  1  0
 38 36  1  0
 40 43  1  0
 41 45  1  0
 41 40  1  0
 42 41  2  0
 45 44  1  0
 47 45  1  0
 47 48  1  0
 47 46  1  0
 49  4  1  0
 49 50  2  0
 51 53  1  0
 52 51  1  0
 52 54  1  0
 53 56  1  0
 54 53  1  0
 54 50  1  0
 54 55  1  1
 57 62  1  0
 58 59  1  0
 58 57  1  0
 60 59  1  0
 60 67  1  0
 60 61  1  0
 62 56  1  0
 62 61  1  0
 63 56  2  0
 64 65  2  0
 65 84  1  0
 66 65  1  0
 66 69  1  0
 67 64  1  0
 67 68  1  0
 68 66  2  0
 69 70  1  0
 70 71  2  0
 72 75  1  0
 72 71  1  0
 73 72  2  0
 74 73  1  0
 74 69  2  0
 75 76  1  0
 76 77  1  0
 77 78  2  0
 79 78  1  0
 79 83  1  0
 80 79  2  0
 81 76  2  0
 81 80  1  0
 82 81  1  0
 84 85  1  0
 85 88  1  0
 85 87  1  0
 86 84  2  0
 89 90  1  0
 89 64  1  0
 91 89  1  0
M  ISO  4   5 101   8 101  53 100  56 100
M  END
>  <TORSDO>  (72) 
F 19

>  <SCORE>  (72) 
-14.363

>  <name>  (72) 
71

>  <ligand_id>  (72) 
71

>  <original_smiles>  (72) 
[H]c1c([H])c([H])c2c(c1[H])C([H])([H])C([H])([H])C([H])([H])C2([H])N([H])C(=O)C1([H])N(C(=O)C([H])(N([H])C(=O)C([H])(N([H])C([H])([H])[H])C([H])([H])[H])C(C([H])([H])[H])(C([H])([H])[H])C([H])([H])[H])C([H])([H])c2c([H])c(Oc3c([H])c(F)c([H])c(C([H])([H])C([H])([H])C4(C([H])([H])[H])C([H])([H])C([H])([H])C4([H])C(=O)N4C([H])([H])C([H])([H])C([H])([H])C([H])(n5nc(-c6c([H])c([H])c(Oc7c([H])c([H])c(F)c([H])c7F)c([H])c6[H])c(C(=O)N([H])[H])c5N([H])[H])C4([H])[H])c3[H])c([H])c([H])c2C1([H])[H]

>  <smiles>  (72) 
[H]c1c([H])c([H])c2c(c1[H])C([H])([H])C([H])([H])C([H])([H])C2([H])N([H])C(=O)C1([H])N(C(=O)C([H])(N([H])C(=O)C([H])(N([H])C([H])([H])[H])C([H])([H])[H])C(C([H])([H])[H])(C([H])([H])[H])C([H])([H])[H])C([H])([H])c2c([H])c(Oc3c([H])c(F)c([H])c(C([H])([H])C([H])([H])C4(C([H])([H])[H])C([H])([H])C([H])([H])C4([H])C(=O)N4C([H])([H])C([H])([H])C([H])([H])C([H])(n5nc(-c6c([H])c([H])c(Oc7c([H])c([H])c(F)c([H])c7F)c([H])c6[H])c(C(=O)N([H])[H])c5N([H])[H])C4([H])[H])c3[H])c([H])c([H])c2C1([H])[H]

$$$$
72:0:0
     RDKit          3D

 89 97  0  0  1  0  0  0  0  0999 V2000
  -28.0770  -22.1460   21.2600 C   0  0  0  0  0  3  0  0  0  0  0  0
  -28.8990  -23.6750   19.1720 C   0  0  0  0  0  3  0  0  0  0  0  0
  -28.7290  -21.2890   20.2720 C   0  0  0  0  0  0  0  0  0  0  0  0
  -27.8560  -23.6190   21.2260 C   0  0  0  0  0  0  0  0  0  0  0  0
  -29.1180  -22.2000   19.2040 C   0  0  0  0  0  0  0  0  0  0  0  0
  -28.2370  -24.5290   20.1550 C   0  0  0  0  0  0  0  0  0  0  0  0
  -27.1740  -24.2500   22.4240 C   0  0  0  0  0  1  0  0  0  0  0  0
  -29.7860  -21.5760   17.9950 C   0  0  0  0  0  1  0  0  0  0  0  0
  -28.2140  -26.0580   20.1370 O   0  0  0  0  0  0  0  0  0  0  0  0
  -24.6560  -31.9220   23.2290 C   0  0  0  0  0  0  0  0  0  0  0  0
  -27.1460  -27.0810   20.1540 C   0  0  0  0  0  0  0  0  0  0  0  0
  -23.4270  -30.5380   21.6040 C   0  0  0  0  0  3  0  0  0  0  0  0
  -24.8420  -28.9320   20.1540 C   0  0  0  0  0  0  0  0  0  0  0  0
  -25.9870  -30.7510   21.4110 C   0  0  0  0  0  2  0  0  0  0  0  0
  -26.0380  -29.3450   20.7560 C   0  0  0  0  0  0  0  0  0  0  0  0
  -27.1830  -28.4380   20.7330 C   0  0  0  0  0  3  0  0  0  0  0  0
  -25.9230  -26.8050   19.5090 C   0  0  0  0  0  3  0  0  0  0  0  0
  -24.8050  -27.6810   19.5140 C   0  0  0  0  0  3  0  0  0  0  0  0
  -23.6280  -29.8550   20.2220 C   0  0  0  0  0  2  0  0  0  0  0  0
  -24.7120  -31.0970   22.1350 N   0  0  0  0  0  0  0  0  0  0  0  0
  -23.5790  -32.2140   23.7720 O   0  0  0  0  0  0  0  0  0  0  0  0
  -22.7490  -29.5410   22.5790 C   0  0  0  0  0  0  0  0  0  0  0  0
  -21.4200  -29.3640   22.4600 N   0  0  0  0  0  0  0  0  0  0  0  0
  -23.4250  -28.9240   23.4070 O   0  0  0  0  0  0  0  0  0  0  0  0
  -20.9290  -29.9120   21.7680 H   0  0  0  0  0  0  0  0  0  0  0  0
  -18.0530  -28.1180   22.9740 C   0  0  0  0  0  0  0  0  0  0  0  0
  -20.6090  -28.4230   23.2390 C   0  0  0  0  0  3  0  0  0  0  0  0
  -20.7300  -26.9870   22.6790 C   0  0  0  0  0  2  0  0  0  0  0  0
  -19.6350  -26.6390   21.6660 C   0  0  0  0  0  2  0  0  0  0  0  0
  -18.2510  -26.7680   22.3070 C   0  0  0  0  0  2  0  0  0  0  0  0
  -19.1600  -28.9030   23.3960 C   0  0  0  0  0  0  0  0  0  0  0  0
  -18.9190  -30.1640   23.9830 C   0  0  0  0  0  3  0  0  0  0  0  0
  -17.6050  -30.6430   24.1470 C   0  0  0  0  0  3  0  0  0  0  0  0
  -16.5130  -29.8570   23.7390 C   0  0  0  0  0  3  0  0  0  0  0  0
  -16.7390  -28.5960   23.1580 C   0  0  0  0  0  3  0  0  0  0  0  0
  -25.9430  -32.5550   23.8420 C   0  0  0  0  0  3  0  0  0  0  0  0
  -25.6360  -33.9530   24.1940 N   0  0  0  0  0  0  0  0  0  0  0  0
  -25.9360  -35.0180   23.4390 C   0  0  0  0  0  0  0  0  0  0  0  0
  -26.5600  -34.9280   22.3790 O   0  0  0  0  0  0  0  0  0  0  0  0
  -25.0750  -34.0950   25.0200 H   0  0  0  0  0  0  0  0  0  0  0  0
  -24.1810  -36.8090   23.2000 C   0  0  0  0  0  1  0  0  0  0  0  0
  -25.4680  -36.4020   23.9340 C   0  0  0  0  0  3  0  0  0  0  0  0
  -27.6380  -37.3010   24.6540 C   0  0  0  0  0  1  0  0  0  0  0  0
  -26.4870  -37.4630   23.7700 N   0  0  0  0  0  0  0  0  0  0  0  0
  -26.0830  -38.3800   23.9380 H   0  0  0  0  0  0  0  0  0  0  0  0
  -26.4710  -31.7780   25.1120 C   0  0  1  0  0  0  0  0  0  0  0  0
  -25.3900  -31.5420   26.1930 C   0  0  0  0  0  1  0  0  0  0  0  0
  -27.0440  -30.3980   24.7160 C   0  0  0  0  0  1  0  0  0  0  0  0
  -27.6330  -32.5660   25.7620 C   0  0  0  0  0  1  0  0  0  0  0  0
  -28.7110  -19.5440   20.2970 C   0  0  0  0  0  3  0  0  0  0  0  0
  -29.8760  -18.2010   20.2790 C   0  0  0  0  0  3  0  0  0  0  0  0
  -30.3940  -15.3200   20.1870 C   0  0  0  0  0  0  0  0  0  0  0  0
  -30.3610  -12.9020   19.2720 C   0  0  0  0  0  2  0  0  0  0  0  0
  -29.4190  -12.7340   18.0540 C   0  0  0  0  0  2  0  0  0  0  0  0
  -27.9760  -12.4590   18.5160 C   0  0  0  0  0  2  0  0  0  0  0  0
  -27.5460  -13.3970   19.6720 C   0  0  0  0  0  3  0  0  0  0  0  0
  -28.6140  -13.5130   20.7790 C   0  0  0  0  0  2  0  0  0  0  0  0
  -29.8350  -14.0180   20.1340 N   0  0  0  0  0  0  0  0  0  0  0  0
  -31.6060  -15.3480   19.9310 O   0  0  0  0  0  0  0  0  0  0  0  0
  -29.6140  -16.5620   20.3260 N   0  0  0  0  0  0  0  0  0  0  0  0
  -28.6410  -16.3460   20.4840 H   0  0  0  0  0  0  0  0  0  0  0  0
  -25.1810  -13.9270   20.4650 C   0  0  0  0  0  0  0  0  0  0  0  0
  -24.1350  -13.1350   20.8480 C   0  0  0  0  0  0  0  0  0  0  0  0
  -24.6160  -11.7910   20.8010 C   0  0  0  0  0  0  0  0  0  0  0  0
  -26.2290  -13.0650   20.1990 N   0  0  0  0  0  0  0  0  0  0  0  0
  -25.9040  -11.7740   20.4700 N   0  0  0  0  0  0  0  0  0  0  0  0
  -23.9080  -10.5190   20.9940 C   0  0  0  0  0  0  0  0  0  0  0  0
  -24.3480   -9.5620   21.9340 C   0  0  0  0  0  3  0  0  0  0  0  0
  -23.6350   -8.3560   22.1150 C   0  0  0  0  0  3  0  0  0  0  0  0
  -22.4680   -8.1000   21.3570 C   0  0  0  0  0  0  0  0  0  0  0  0
  -22.0460   -9.0480   20.4070 C   0  0  0  0  0  3  0  0  0  0  0  0
  -22.7600  -10.2440   20.2240 C   0  0  0  0  0  3  0  0  0  0  0  0
  -21.7270   -6.9470   21.4470 O   0  0  0  0  0  0  0  0  0  0  0  0
  -21.6630   -6.2220   22.6100 C   0  0  0  0  0  0  0  0  0  0  0  0
  -21.1690   -6.7800   23.8100 C   0  0  0  0  0  3  0  0  0  0  0  0
  -21.0560   -5.9790   24.9640 C   0  0  0  0  0  3  0  0  0  0  0  0
  -21.4250   -4.6220   24.9200 C   0  0  0  0  0  0  0  0  0  0  0  0
  -21.9120   -4.0630   23.7230 C   0  0  0  0  0  3  0  0  0  0  0  0
  -22.0270   -4.8620   22.5720 C   0  0  0  0  0  0  0  0  0  0  0  0
  -22.4760   -4.3130   21.4180 F   0  0  0  0  0  0  0  0  0  0  0  0
  -21.3100   -3.8500   26.0260 F   0  0  0  0  0  0  0  0  0  0  0  0
  -22.7350  -13.5950   21.1380 C   0  0  0  0  0  0  0  0  0  0  0  0
  -22.0300  -12.8920   22.0160 N   0  0  0  0  0  0  0  0  0  0  0  0
  -22.2790  -14.6130   20.6210 O   0  0  0  0  0  0  0  0  0  0  0  0
  -22.4140  -12.0690   22.4560 H   0  0  0  0  0  0  0  0  0  0  0  0
  -21.0920  -13.1820   22.2530 H   0  0  0  0  0  0  0  0  0  0  0  0
  -25.3210  -15.3010   20.2920 N   0  0  0  0  0  0  0  0  0  0  0  0
  -24.5420  -15.9380   20.4120 H   0  0  0  0  0  0  0  0  0  0  0  0
  -26.1420  -15.7500   19.9060 H   0  0  0  0  0  0  0  0  0  0  0  0
  2  5  2  0
  2  6  1  0
  3 50  1  0
  3  1  2  0
  4  1  1  0
  4  7  1  0
  5  3  1  0
  6  4  2  0
  8  5  1  0
  9 11  1  0
  9  6  1  0
 10 21  2  0
 11 16  1  0
 12 20  1  0
 12 22  1  0
 13 19  1  0
 13 15  1  0
 14 20  1  0
 15 14  1  0
 16 15  2  0
 17 18  1  0
 17 11  2  0
 18 13  2  0
 19 12  1  0
 20 10  1  0
 22 24  2  0
 23 22  1  0
 25 23  1  0
 26 35  2  0
 26 31  1  0
 27 23  1  0
 27 31  1  0
 28 27  1  0
 29 30  1  0
 29 28  1  0
 30 26  1  0
 31 32  2  0
 32 33  1  0
 34 33  2  0
 35 34  1  0
 36 10  1  0
 36 37  1  0
 36 46  1  0
 37 40  1  0
 38 42  1  0
 38 37  1  0
 39 38  2  0
 42 41  1  0
 44 42  1  0
 44 45  1  0
 44 43  1  0
 46 49  1  1
 46 47  1  0
 48 46  1  0
 51 50  2  0
 51 60  1  0
 52 60  1  0
 53 58  1  0
 54 55  1  0
 54 53  1  0
 56 55  1  0
 56 65  1  0
 56 57  1  0
 58 52  1  0
 58 57  1  0
 59 52  2  0
 60 61  1  0
 62 63  2  0
 63 82  1  0
 64 63  1  0
 64 67  1  0
 65 62  1  0
 65 66  1  0
 66 64  2  0
 67 68  1  0
 68 69  2  0
 70 73  1  0
 70 69  1  0
 71 70  2  0
 72 71  1  0
 72 67  2  0
 73 74  1  0
 74 75  1  0
 75 76  2  0
 77 76  1  0
 77 81  1  0
 78 77  2  0
 79 74  2  0
 79 78  1  0
 80 79  1  0
 82 83  1  0
 83 86  1  0
 83 85  1  0
 84 82  2  0
 87 88  1  0
 87 62  1  0
 89 87  1  0
M  ISO  4   6 101   9 101  52 100  60 100
M  END
>  <TORSDO>  (73) 
F 18

>  <SCORE>  (73) 
-15.471

>  <name>  (73) 
72

>  <ligand_id>  (73) 
72

>  <original_smiles>  (73) 
[H]c1c([H])c([H])c2c(c1[H])C([H])([H])C([H])([H])C([H])([H])C2([H])N([H])C(=O)C1([H])N(C(=O)C([H])(N([H])C(=O)C([H])(N([H])C([H])([H])[H])C([H])([H])[H])C(C([H])([H])[H])(C([H])([H])[H])C([H])([H])[H])C([H])([H])c2c([H])c(Oc3c([H])c(C([H])([H])[H])c(C([H])([H])C([H])([H])N([H])C(=O)N4C([H])([H])C([H])([H])C([H])([H])C([H])(n5nc(-c6c([H])c([H])c(Oc7c([H])c([H])c(F)c([H])c7F)c([H])c6[H])c(C(=O)N([H])[H])c5N([H])[H])C4([H])[H])c([H])c3C([H])([H])[H])c([H])c([H])c2C1([H])[H]

>  <smiles>  (73) 
[H]c1c([H])c([H])c2c(c1[H])C([H])([H])C([H])([H])C([H])([H])C2([H])N([H])C(=O)C1([H])N(C(=O)C([H])(N([H])C(=O)C([H])(N([H])C([H])([H])[H])C([H])([H])[H])C(C([H])([H])[H])(C([H])([H])[H])C([H])([H])[H])C([H])([H])c2c([H])c(Oc3c([H])c(C([H])([H])[H])c(C([H])([H])C([H])([H])N([H])C(=O)N4C([H])([H])C([H])([H])C([H])([H])C([H])(n5nc(-c6c([H])c([H])c(Oc7c([H])c([H])c(F)c([H])c7F)c([H])c6[H])c(C(=O)N([H])[H])c5N([H])[H])C4([H])[H])c([H])c3C([H])([H])[H])c([H])c([H])c2C1([H])[H]

$$$$
73:0:0
     RDKit          3D

 88 96  0  0  1  0  0  0  0  0999 V2000
  -29.1530  -19.6580   19.1620 C   0  0  0  0  0  3  0  0  0  0  0  0
  -29.7490  -19.7620   21.3170 C   0  0  0  0  0  3  0  0  0  0  0  0
  -29.9630  -17.2770   20.2280 C   0  0  0  0  0  0  0  0  0  0  0  0
  -29.2580  -20.6620   20.2450 C   0  0  0  0  0  0  0  0  0  0  0  0
  -29.4640  -18.1660   19.1400 C   0  0  0  0  0  0  0  0  0  0  0  0
  -30.0710  -18.2760   21.3210 C   0  0  0  0  0  0  0  0  0  0  0  0
  -29.2680  -17.5240   17.7760 C   0  0  0  0  0  1  0  0  0  0  0  0
  -30.6050  -15.6450   20.1300 C   0  0  0  0  0  0  0  0  0  0  0  0
  -30.6190  -13.1410   19.2880 C   0  0  0  0  0  2  0  0  0  0  0  0
  -29.6970  -12.8290   18.0780 C   0  0  0  0  0  2  0  0  0  0  0  0
  -28.2770  -12.4890   18.5540 C   0  0  0  0  0  2  0  0  0  0  0  0
  -27.8040  -13.4610   19.6590 C   0  0  0  0  0  3  0  0  0  0  0  0
  -28.8610  -13.7300   20.7520 C   0  0  0  0  0  2  0  0  0  0  0  0
  -30.0480  -14.3080   20.0910 N   0  0  0  0  0  0  0  0  0  0  0  0
  -31.8240  -15.5510   19.8920 O   0  0  0  0  0  0  0  0  0  0  0  0
  -25.4690  -13.9560   20.5290 C   0  0  0  0  0  0  0  0  0  0  0  0
  -24.4270  -13.1580   20.9050 C   0  0  0  0  0  0  0  0  0  0  0  0
  -24.9030  -11.8120   20.8120 C   0  0  0  0  0  0  0  0  0  0  0  0
  -26.5060  -13.1010   20.2140 N   0  0  0  0  0  0  0  0  0  0  0  0
  -26.1840  -11.8010   20.4540 N   0  0  0  0  0  0  0  0  0  0  0  0
  -24.1890  -10.5390   20.9820 C   0  0  0  0  0  0  0  0  0  0  0  0
  -24.5870   -9.5890   21.9480 C   0  0  0  0  0  3  0  0  0  0  0  0
  -23.8670   -8.3850   22.1080 C   0  0  0  0  0  3  0  0  0  0  0  0
  -22.7360   -8.1210   21.3010 C   0  0  0  0  0  0  0  0  0  0  0  0
  -22.3570   -9.0590   20.3250 C   0  0  0  0  0  3  0  0  0  0  0  0
  -23.0770  -10.2540   20.1640 C   0  0  0  0  0  3  0  0  0  0  0  0
  -21.9930   -6.9670   21.3660 O   0  0  0  0  0  0  0  0  0  0  0  0
  -21.7950   -6.3040   22.5520 C   0  0  0  0  0  0  0  0  0  0  0  0
  -21.1570   -6.9190   23.6510 C   0  0  0  0  0  3  0  0  0  0  0  0
  -20.9110   -6.1800   24.8260 C   0  0  0  0  0  3  0  0  0  0  0  0
  -21.2930   -4.8280   24.9000 C   0  0  0  0  0  0  0  0  0  0  0  0
  -21.9240   -4.2130   23.8050 C   0  0  0  0  0  3  0  0  0  0  0  0
  -22.1720   -4.9490   22.6330 C   0  0  0  0  0  0  0  0  0  0  0  0
  -22.7600   -4.3440   21.5730 F   0  0  0  0  0  0  0  0  0  0  0  0
  -21.0520   -4.1160   26.0260 F   0  0  0  0  0  0  0  0  0  0  0  0
  -23.0370  -13.6150   21.2330 C   0  0  0  0  0  0  0  0  0  0  0  0
  -22.3440  -12.8930   22.1050 N   0  0  0  0  0  0  0  0  0  0  0  0
  -22.5760  -14.6500   20.7510 O   0  0  0  0  0  0  0  0  0  0  0  0
  -22.7300  -12.0570   22.5160 H   0  0  0  0  0  0  0  0  0  0  0  0
  -21.4110  -13.1830   22.3670 H   0  0  0  0  0  0  0  0  0  0  0  0
  -25.6170  -15.3340   20.3960 N   0  0  0  0  0  0  0  0  0  0  0  0
  -24.8560  -15.9810   20.5670 H   0  0  0  0  0  0  0  0  0  0  0  0
  -26.4600  -15.7920   20.0700 H   0  0  0  0  0  0  0  0  0  0  0  0
  -30.5650  -17.8020   22.5040 O   0  0  0  0  0  0  0  0  0  0  0  0
  -30.6240  -18.4690   23.1810 H   0  0  0  0  0  0  0  0  0  0  0  0
  -29.2320  -22.4990   20.2200 C   0  0  0  0  0  3  0  0  0  0  0  0
  -28.1380  -24.0370   20.1230 C   0  0  0  0  0  3  0  0  0  0  0  0
  -28.3220  -25.7480   20.2270 O   0  0  0  0  0  0  0  0  0  0  0  0
  -24.7330  -31.8500   23.2240 C   0  0  0  0  0  0  0  0  0  0  0  0
  -27.3260  -26.9090   20.1770 C   0  0  0  0  0  0  0  0  0  0  0  0
  -23.5670  -30.4720   21.5530 C   0  0  0  0  0  3  0  0  0  0  0  0
  -25.0370  -28.8720   20.1260 C   0  0  0  0  0  0  0  0  0  0  0  0
  -26.1420  -30.6590   21.4490 C   0  0  0  0  0  2  0  0  0  0  0  0
  -26.2210  -29.2440   20.7730 C   0  0  0  0  0  0  0  0  0  0  0  0
  -27.3550  -28.2890   20.7670 C   0  0  0  0  0  3  0  0  0  0  0  0
  -26.1080  -26.7220   19.4820 C   0  0  0  0  0  3  0  0  0  0  0  0
  -25.0140  -27.6340   19.4600 C   0  0  0  0  0  3  0  0  0  0  0  0
  -23.8210  -29.8040   20.1720 C   0  0  0  0  0  2  0  0  0  0  0  0
  -24.8370  -31.0240   22.1290 N   0  0  0  0  0  0  0  0  0  0  0  0
  -23.6350  -32.1310   23.7330 O   0  0  0  0  0  0  0  0  0  0  0  0
  -22.8560  -29.4680   22.5010 C   0  0  0  0  0  0  0  0  0  0  0  0
  -21.5270  -29.3030   22.3590 N   0  0  0  0  0  0  0  0  0  0  0  0
  -23.5100  -28.8370   23.3330 O   0  0  0  0  0  0  0  0  0  0  0  0
  -21.0500  -29.8640   21.6660 H   0  0  0  0  0  0  0  0  0  0  0  0
  -18.1400  -28.0810   22.8340 C   0  0  0  0  0  0  0  0  0  0  0  0
  -20.6990  -28.3500   23.1080 C   0  0  0  0  0  3  0  0  0  0  0  0
  -20.8050  -26.9300   22.5050 C   0  0  0  0  0  2  0  0  0  0  0  0
  -19.7070  -26.6250   21.4820 C   0  0  0  0  0  2  0  0  0  0  0  0
  -18.3230  -26.7500   22.1250 C   0  0  0  0  0  2  0  0  0  0  0  0
  -19.2550  -28.8400   23.2810 C   0  0  0  0  0  0  0  0  0  0  0  0
  -19.0260  -30.0830   23.9080 C   0  0  0  0  0  3  0  0  0  0  0  0
  -17.7180  -30.5700   24.0900 C   0  0  0  0  0  3  0  0  0  0  0  0
  -16.6180  -29.8090   23.6560 C   0  0  0  0  0  3  0  0  0  0  0  0
  -16.8300  -28.5670   23.0330 C   0  0  0  0  0  3  0  0  0  0  0  0
  -25.9890  -32.4960   23.8850 C   0  0  0  0  0  3  0  0  0  0  0  0
  -26.4680  -31.7290   25.1800 C   0  0  1  0  0  0  0  0  0  0  0  0
  -25.3450  -31.4970   26.2190 C   0  0  0  0  0  1  0  0  0  0  0  0
  -27.0600  -30.3480   24.8200 C   0  0  0  0  0  1  0  0  0  0  0  0
  -27.6020  -32.5250   25.8710 C   0  0  0  0  0  1  0  0  0  0  0  0
  -25.6620  -33.8940   24.2220 N   0  0  0  0  0  0  0  0  0  0  0  0
  -25.9590  -34.9590   23.4650 C   0  0  0  0  0  0  0  0  0  0  0  0
  -26.5940  -34.8680   22.4120 O   0  0  0  0  0  0  0  0  0  0  0  0
  -25.0930  -34.0370   25.0430 H   0  0  0  0  0  0  0  0  0  0  0  0
  -24.1740  -36.7220   23.2260 C   0  0  0  0  0  1  0  0  0  0  0  0
  -25.4760  -36.3430   23.9500 C   0  0  0  0  0  3  0  0  0  0  0  0
  -27.6370  -37.2900   24.6360 C   0  0  0  0  0  1  0  0  0  0  0  0
  -26.4760  -37.4180   23.7600 N   0  0  0  0  0  0  0  0  0  0  0  0
  -26.0580  -38.3310   23.9170 H   0  0  0  0  0  0  0  0  0  0  0  0
  1  4  1  0
  2  6  1  0
  3  6  2  0
  4  2  2  0
  5  1  2  0
  5  3  1  0
  6 44  1  0
  7  5  1  0
  8  3  1  0
  9 14  1  0
 10 11  1  0
 10  9  1  0
 12 11  1  0
 12 19  1  0
 12 13  1  0
 14  8  1  0
 14 13  1  0
 15  8  2  0
 16 17  2  0
 17 36  1  0
 18 17  1  0
 18 21  1  0
 19 20  1  0
 19 16  1  0
 20 18  2  0
 21 22  1  0
 22 23  2  0
 24 27  1  0
 24 23  1  0
 25 24  2  0
 26 25  1  0
 26 21  2  0
 27 28  1  0
 28 33  2  0
 28 29  1  0
 29 30  2  0
 30 31  1  0
 31 35  1  0
 32 31  2  0
 33 32  1  0
 34 33  1  0
 36 37  1  0
 37 40  1  0
 37 39  1  0
 38 36  2  0
 41 16  1  0
 41 42  1  0
 43 41  1  0
 44 45  1  0
 46  4  1  0
 47 46  2  0
 47 48  1  0
 49 60  2  0
 50 48  1  0
 50 55  1  0
 51 59  1  0
 51 61  1  0
 52 58  1  0
 52 54  1  0
 53 59  1  0
 54 53  1  0
 55 54  2  0
 56 50  2  0
 57 56  1  0
 57 52  2  0
 58 51  1  0
 59 49  1  0
 61 63  2  0
 62 61  1  0
 64 62  1  0
 65 74  2  0
 65 70  1  0
 66 62  1  0
 66 70  1  0
 67 66  1  0
 68 69  1  0
 68 67  1  0
 69 65  1  0
 70 71  2  0
 71 72  1  0
 73 72  2  0
 74 73  1  0
 75 49  1  0
 75 80  1  0
 75 76  1  0
 76 79  1  1
 76 77  1  0
 78 76  1  0
 80 83  1  0
 81 85  1  0
 81 80  1  0
 82 81  2  0
 85 84  1  0
 87 88  1  0
 87 85  1  0
 87 86  1  0
M  ISO  4   3 100   8 100  47 101  48 101
M  END
>  <TORSDO>  (74) 
F 19

>  <SCORE>  (74) 
-15.718

>  <name>  (74) 
73

>  <ligand_id>  (74) 
73

>  <original_smiles>  (74) 
[H]Oc1c([H])c(C([H])([H])C([H])([H])Oc2c([H])c([H])c3c(c2[H])C([H])([H])N(C(=O)C([H])(N([H])C(=O)C([H])(N([H])C([H])([H])[H])C([H])([H])[H])C(C([H])([H])[H])(C([H])([H])[H])C([H])([H])[H])C([H])(C(=O)N([H])C2([H])c4c([H])c([H])c([H])c([H])c4C([H])([H])C([H])([H])C2([H])[H])C3([H])[H])c([H])c(C([H])([H])[H])c1C(=O)N1C([H])([H])C([H])([H])C([H])([H])C([H])(n2nc(-c3c([H])c([H])c(Oc4c([H])c([H])c(F)c([H])c4F)c([H])c3[H])c(C(=O)N([H])[H])c2N([H])[H])C1([H])[H]

>  <smiles>  (74) 
[H]Oc1c([H])c(C([H])([H])C([H])([H])Oc2c([H])c([H])c3c(c2[H])C([H])([H])N(C(=O)C([H])(N([H])C(=O)C([H])(N([H])C([H])([H])[H])C([H])([H])[H])C(C([H])([H])[H])(C([H])([H])[H])C([H])([H])[H])C([H])(C(=O)N([H])C2([H])c4c([H])c([H])c([H])c([H])c4C([H])([H])C([H])([H])C2([H])[H])C3([H])[H])c([H])c(C([H])([H])[H])c1C(=O)N1C([H])([H])C([H])([H])C([H])([H])C([H])(n2nc(-c3c([H])c([H])c(Oc4c([H])c([H])c(F)c([H])c4F)c([H])c3[H])c(C(=O)N([H])[H])c2N([H])[H])C1([H])[H]

$$$$
74:0:0
     RDKit          3D

 92100  0  0  1  0  0  0  0  0999 V2000
  -30.5560  -19.9480   21.2800 C   0  0  0  0  0  3  0  0  0  0  0  0
  -30.6890  -21.2900   21.7800 C   0  0  0  0  0  0  0  0  0  0  0  0
  -29.6280  -19.5330   20.2990 C   0  0  0  0  0  0  0  0  0  0  0  0
  -29.0400  -22.4440   20.2400 C   0  0  0  0  0  0  0  0  0  0  0  0
  -29.9450  -22.4490   21.3390 C   0  0  0  0  0  0  0  0  0  0  0  0
  -28.8910  -20.8940   19.8300 C   0  0  0  0  0  0  0  0  0  0  0  0
  -31.7180  -21.4800   22.8870 C   0  0  0  0  0  1  0  0  0  0  0  0
  -27.8890  -20.7050   18.9420 F   0  0  0  0  0  0  0  0  0  0  0  0
  -28.0310  -17.4400   20.2380 C   0  0  0  0  0  1  0  0  0  0  0  0
  -29.5080  -17.6910   19.9240 C   0  0  2  0  0  0  0  0  0  0  0  0
  -30.3240  -16.0040   20.3020 C   0  0  0  0  0  0  0  0  0  0  0  0
  -30.5100  -13.4270   19.5780 C   0  0  0  0  0  2  0  0  0  0  0  0
  -29.6630  -12.9840   18.3470 C   0  0  0  0  0  2  0  0  0  0  0  0
  -28.2470  -12.5700   18.7770 C   0  0  0  0  0  2  0  0  0  0  0  0
  -27.6720  -13.5770   19.7930 C   0  0  0  0  0  3  0  0  0  0  0  0
  -28.6580  -13.9820   20.9130 C   0  0  0  0  0  2  0  0  0  0  0  0
  -29.8450  -14.6140   20.2840 N   0  0  0  0  0  0  0  0  0  0  0  0
  -31.5700  -15.9260   20.2630 O   0  0  0  0  0  0  0  0  0  0  0  0
  -25.2990  -14.0810   20.5450 C   0  0  0  0  0  0  0  0  0  0  0  0
  -24.2440  -13.2910   20.8940 C   0  0  0  0  0  0  0  0  0  0  0  0
  -24.7320  -11.9460   20.8620 C   0  0  0  0  0  0  0  0  0  0  0  0
  -26.3550  -13.2210   20.3000 N   0  0  0  0  0  0  0  0  0  0  0  0
  -26.0280  -11.9300   20.5620 N   0  0  0  0  0  0  0  0  0  0  0  0
  -24.0190  -10.6770   21.0370 C   0  0  0  0  0  0  0  0  0  0  0  0
  -24.4120   -9.7340   22.0140 C   0  0  0  0  0  3  0  0  0  0  0  0
  -23.6930   -8.5300   22.1720 C   0  0  0  0  0  3  0  0  0  0  0  0
  -22.5690   -8.2590   21.3570 C   0  0  0  0  0  0  0  0  0  0  0  0
  -22.1980   -9.1880   20.3680 C   0  0  0  0  0  3  0  0  0  0  0  0
  -22.9180  -10.3850   20.2070 C   0  0  0  0  0  3  0  0  0  0  0  0
  -21.8280   -7.1030   21.4250 O   0  0  0  0  0  0  0  0  0  0  0  0
  -21.7050   -6.3900   22.5900 C   0  0  0  0  0  0  0  0  0  0  0  0
  -21.0940   -6.9390   23.7370 C   0  0  0  0  0  3  0  0  0  0  0  0
  -20.9280   -6.1510   24.8940 C   0  0  0  0  0  3  0  0  0  0  0  0
  -21.3620   -4.8110   24.9010 C   0  0  0  0  0  0  0  0  0  0  0  0
  -21.9650   -4.2590   23.7570 C   0  0  0  0  0  3  0  0  0  0  0  0
  -22.1330   -5.0460   22.6030 C   0  0  0  0  0  0  0  0  0  0  0  0
  -22.6980   -4.5040   21.4970 F   0  0  0  0  0  0  0  0  0  0  0  0
  -21.1950   -4.0500   26.0080 F   0  0  0  0  0  0  0  0  0  0  0  0
  -22.8370  -13.7500   21.1370 C   0  0  0  0  0  0  0  0  0  0  0  0
  -22.1010  -13.0510   21.9920 N   0  0  0  0  0  0  0  0  0  0  0  0
  -22.3970  -14.7680   20.6020 O   0  0  0  0  0  0  0  0  0  0  0  0
  -22.4710  -12.2350   22.4560 H   0  0  0  0  0  0  0  0  0  0  0  0
  -21.1510  -13.3370   22.1880 H   0  0  0  0  0  0  0  0  0  0  0  0
  -25.4410  -15.4540   20.3770 N   0  0  0  0  0  0  0  0  0  0  0  0
  -24.6670  -16.0990   20.4920 H   0  0  0  0  0  0  0  0  0  0  0  0
  -26.2890  -15.9030   20.0610 H   0  0  0  0  0  0  0  0  0  0  0  0
  -28.7850  -18.3630   17.4200 C   0  0  0  0  0  1  0  0  0  0  0  0
  -29.7360  -17.6160   18.3720 C   0  0  0  0  0  2  0  0  0  0  0  0
  -29.0430  -23.8310   23.0050 C   0  0  0  0  0  1  0  0  0  0  0  0
  -30.0820  -23.6220   22.0400 O   0  0  0  0  0  0  0  0  0  0  0  0
  -28.2210  -24.0650   19.7710 C   0  0  0  0  0  2  0  0  0  0  0  0
  -28.3570  -25.8020   20.0760 O   0  0  0  0  0  0  0  0  0  0  0  0
  -24.6240  -31.8540   23.1820 C   0  0  0  0  0  0  0  0  0  0  0  0
  -27.3620  -27.0010   20.0130 C   0  0  0  0  0  0  0  0  0  0  0  0
  -23.5020  -30.4870   21.4740 C   0  0  0  0  0  3  0  0  0  0  0  0
  -25.0210  -28.9560   20.0020 C   0  0  0  0  0  0  0  0  0  0  0  0
  -26.0730  -30.7250   21.3890 C   0  0  0  0  0  2  0  0  0  0  0  0
  -26.1940  -29.3290   20.6680 C   0  0  0  0  0  0  0  0  0  0  0  0
  -27.3470  -28.3790   20.6410 C   0  0  0  0  0  3  0  0  0  0  0  0
  -26.1520  -26.8460   19.2890 C   0  0  0  0  0  3  0  0  0  0  0  0
  -25.0410  -27.7440   19.2870 C   0  0  0  0  0  3  0  0  0  0  0  0
  -23.7760  -29.8580   20.0770 C   0  0  0  0  0  2  0  0  0  0  0  0
  -24.7530  -31.0570   22.0680 N   0  0  0  0  0  0  0  0  0  0  0  0
  -23.5170  -32.0920   23.6940 O   0  0  0  0  0  0  0  0  0  0  0  0
  -22.8140  -29.4470   22.3990 C   0  0  0  0  0  0  0  0  0  0  0  0
  -21.4930  -29.2330   22.2380 N   0  0  0  0  0  0  0  0  0  0  0  0
  -23.4800  -28.8220   23.2290 O   0  0  0  0  0  0  0  0  0  0  0  0
  -21.0030  -29.7850   21.5470 H   0  0  0  0  0  0  0  0  0  0  0  0
  -18.1470  -27.8780   22.6830 C   0  0  0  0  0  0  0  0  0  0  0  0
  -20.6960  -28.2330   22.9610 C   0  0  0  0  0  3  0  0  0  0  0  0
  -20.8500  -26.8330   22.3260 C   0  0  0  0  0  2  0  0  0  0  0  0
  -19.7650  -26.5150   21.2930 C   0  0  0  0  0  2  0  0  0  0  0  0
  -18.3760  -26.5750   21.9370 C   0  0  0  0  0  2  0  0  0  0  0  0
  -19.2350  -28.6640   23.1480 C   0  0  0  0  0  0  0  0  0  0  0  0
  -18.9640  -29.8810   23.8100 C   0  0  0  0  0  3  0  0  0  0  0  0
  -17.6410  -30.3170   24.0040 C   0  0  0  0  0  3  0  0  0  0  0  0
  -16.5660  -29.5280   23.5510 C   0  0  0  0  0  3  0  0  0  0  0  0
  -16.8210  -28.3110   22.8960 C   0  0  0  0  0  3  0  0  0  0  0  0
  -25.8600  -32.5220   23.8620 C   0  0  0  0  0  3  0  0  0  0  0  0
  -26.3150  -31.7780   25.1800 C   0  0  1  0  0  0  0  0  0  0  0  0
  -25.1760  -31.5430   26.1990 C   0  0  0  0  0  1  0  0  0  0  0  0
  -26.9360  -30.3990   24.8630 C   0  0  0  0  0  1  0  0  0  0  0  0
  -27.4210  -32.6010   25.8830 C   0  0  0  0  0  1  0  0  0  0  0  0
  -25.5100  -33.9230   24.1750 N   0  0  0  0  0  0  0  0  0  0  0  0
  -25.8330  -34.9850   23.4230 C   0  0  0  0  0  0  0  0  0  0  0  0
  -26.5160  -34.8910   22.4010 O   0  0  0  0  0  0  0  0  0  0  0  0
  -24.8990  -34.0680   24.9650 H   0  0  0  0  0  0  0  0  0  0  0  0
  -24.0750  -36.7570   23.0760 C   0  0  0  0  0  1  0  0  0  0  0  0
  -25.3270  -36.3720   23.8790 C   0  0  0  0  0  3  0  0  0  0  0  0
  -27.4370  -37.3200   24.7090 C   0  0  0  0  0  1  0  0  0  0  0  0
  -26.3430  -37.4430   23.7520 N   0  0  0  0  0  0  0  0  0  0  0  0
  -25.9160  -38.3590   23.8690 H   0  0  0  0  0  0  0  0  0  0  0  0
  1  2  1  0
  2  7  1  0
  3  1  2  0
  4  5  1  0
  5  2  2  0
  5 50  1  0
  6  4  2  0
  6  3  1  0
  8  6  1  0
 10  9  1  6
 10  3  1  0
 10 11  1  0
 12 17  1  0
 13 14  1  0
 13 12  1  0
 15 14  1  0
 15 22  1  0
 15 16  1  0
 17 11  1  0
 17 16  1  0
 18 11  2  0
 19 20  2  0
 20 39  1  0
 21 20  1  0
 21 24  1  0
 22 19  1  0
 22 23  1  0
 23 21  2  0
 24 25  1  0
 25 26  2  0
 27 30  1  0
 27 26  1  0
 28 27  2  0
 29 28  1  0
 29 24  2  0
 30 31  1  0
 31 36  2  0
 31 32  1  0
 32 33  2  0
 33 34  1  0
 34 38  1  0
 35 34  2  0
 36 35  1  0
 37 36  1  0
 39 40  1  0
 40 43  1  0
 40 42  1  0
 41 39  2  0
 44 45  1  0
 44 19  1  0
 46 44  1  0
 47 48  1  0
 48 10  1  0
 50 49  1  0
 51 52  1  0
 51  4  1  0
 53 64  2  0
 54 52  1  0
 54 59  1  0
 55 63  1  0
 55 65  1  0
 56 62  1  0
 56 58  1  0
 57 63  1  0
 58 57  1  0
 59 58  2  0
 60 54  2  0
 61 60  1  0
 61 56  2  0
 62 55  1  0
 63 53  1  0
 65 67  2  0
 66 65  1  0
 68 66  1  0
 69 78  2  0
 69 74  1  0
 70 66  1  0
 70 74  1  0
 71 70  1  0
 72 73  1  0
 72 71  1  0
 73 69  1  0
 74 75  2  0
 75 76  1  0
 77 76  2  0
 78 77  1  0
 79 53  1  0
 79 84  1  0
 79 80  1  0
 80 83  1  1
 80 81  1  0
 82 80  1  0
 84 87  1  0
 85 89  1  0
 85 84  1  0
 86 85  2  0
 89 88  1  0
 91 92  1  0
 91 89  1  0
 91 90  1  0
M  ISO  4  10 100  11 100  51 101  52 101
M  END
>  <TORSDO>  (75) 
F 20

>  <SCORE>  (75) 
-15.812

>  <name>  (75) 
74

>  <ligand_id>  (75) 
74

>  <original_smiles>  (75) 
[H]c1c([H])c([H])c2c(c1[H])C([H])([H])C([H])([H])C([H])([H])C2([H])N([H])C(=O)C1([H])N(C(=O)C([H])(N([H])C(=O)C([H])(N([H])C([H])([H])[H])C([H])([H])[H])C(C([H])([H])[H])(C([H])([H])[H])C([H])([H])[H])C([H])([H])c2c([H])c(OC([H])([H])c3c(F)c(C(C(=O)N4C([H])([H])C([H])([H])C([H])([H])C([H])(n5nc(-c6c([H])c([H])c(Oc7c([H])c([H])c(F)c([H])c7F)c([H])c6[H])c(C(=O)N([H])[H])c5N([H])[H])C4([H])[H])(C([H])([H])[H])C([H])([H])C([H])([H])[H])c([H])c(C([H])([H])[H])c3OC([H])([H])[H])c([H])c([H])c2C1([H])[H]

>  <smiles>  (75) 
[H]c1c([H])c([H])c2c(c1[H])C([H])([H])C([H])([H])C([H])([H])C2([H])N([H])C(=O)C1([H])N(C(=O)C([H])(N([H])C(=O)C([H])(N([H])C([H])([H])[H])C([H])([H])[H])C(C([H])([H])[H])(C([H])([H])[H])C([H])([H])[H])C([H])([H])c2c([H])c(OC([H])([H])c3c(F)c(C(C(=O)N4C([H])([H])C([H])([H])C([H])([H])C([H])(n5nc(-c6c([H])c([H])c(Oc7c([H])c([H])c(F)c([H])c7F)c([H])c6[H])c(C(=O)N([H])[H])c5N([H])[H])C4([H])[H])(C([H])([H])[H])C([H])([H])C([H])([H])[H])c([H])c(C([H])([H])[H])c3OC([H])([H])[H])c([H])c([H])c2C1([H])[H]

$$$$
75:0:0
     RDKit          3D

 90 98  0  0  1  0  0  0  0  0999 V2000
  -27.7510  -22.0390   21.4770 C   0  0  0  0  0  3  0  0  0  0  0  0
  -27.0820  -23.1420   22.0440 C   0  0  0  0  0  3  0  0  0  0  0  0
  -28.6730  -22.1920   20.4290 C   0  0  0  0  0  0  0  0  0  0  0  0
  -27.2610  -24.4800   21.6150 C   0  0  0  0  0  0  0  0  0  0  0  0
  -28.8080  -23.6100   19.9530 C   0  0  0  0  0  0  0  0  0  0  0  0
  -28.0930  -24.8110   20.5030 C   0  0  0  0  0  0  0  0  0  0  0  0
  -26.5650  -25.5430   22.4520 C   0  0  0  0  0  1  0  0  0  0  0  0
  -29.7920  -23.8660   18.8290 C   0  0  0  0  0  1  0  0  0  0  0  0
  -28.2510  -26.2330   20.1060 O   0  0  0  0  0  0  0  0  0  0  0  0
  -24.6150  -31.9000   23.1600 C   0  0  0  0  0  0  0  0  0  0  0  0
  -27.2070  -27.2340   20.0650 C   0  0  0  0  0  0  0  0  0  0  0  0
  -23.4190  -30.5160   21.5070 C   0  0  0  0  0  3  0  0  0  0  0  0
  -24.8710  -28.9680   20.0540 C   0  0  0  0  0  0  0  0  0  0  0  0
  -25.9690  -30.7990   21.3370 C   0  0  0  0  0  2  0  0  0  0  0  0
  -26.0490  -29.4130   20.6700 C   0  0  0  0  0  0  0  0  0  0  0  0
  -27.2160  -28.5610   20.6620 C   0  0  0  0  0  3  0  0  0  0  0  0
  -26.0130  -26.8990   19.3950 C   0  0  0  0  0  3  0  0  0  0  0  0
  -24.8660  -27.7240   19.4000 C   0  0  0  0  0  3  0  0  0  0  0  0
  -23.6380  -29.8560   20.1200 C   0  0  0  0  0  2  0  0  0  0  0  0
  -24.6870  -31.0930   22.0560 N   0  0  0  0  0  0  0  0  0  0  0  0
  -23.5300  -32.1730   23.6950 O   0  0  0  0  0  0  0  0  0  0  0  0
  -22.7480  -29.4950   22.4620 C   0  0  0  0  0  0  0  0  0  0  0  0
  -21.4190  -29.3250   22.3420 N   0  0  0  0  0  0  0  0  0  0  0  0
  -23.4260  -28.8600   23.2720 O   0  0  0  0  0  0  0  0  0  0  0  0
  -20.9280  -29.8890   21.6640 H   0  0  0  0  0  0  0  0  0  0  0  0
  -18.0410  -28.1220   22.8650 C   0  0  0  0  0  0  0  0  0  0  0  0
  -20.6040  -28.3750   23.1070 C   0  0  0  0  0  3  0  0  0  0  0  0
  -20.6950  -26.9540   22.5050 C   0  0  0  0  0  2  0  0  0  0  0  0
  -19.5810  -26.6510   21.4990 C   0  0  0  0  0  2  0  0  0  0  0  0
  -18.2080  -26.7860   22.1610 C   0  0  0  0  0  2  0  0  0  0  0  0
  -19.1660  -28.8750   23.2950 C   0  0  0  0  0  0  0  0  0  0  0  0
  -18.9540  -30.1260   23.9150 C   0  0  0  0  0  3  0  0  0  0  0  0
  -17.6510  -30.6220   24.1110 C   0  0  0  0  0  3  0  0  0  0  0  0
  -16.5410  -29.8640   23.6960 C   0  0  0  0  0  3  0  0  0  0  0  0
  -16.7380  -28.6170   23.0790 C   0  0  0  0  0  3  0  0  0  0  0  0
  -25.8930  -32.5350   23.7900 C   0  0  0  0  0  3  0  0  0  0  0  0
  -26.4070  -31.7600   25.0660 C   0  0  1  0  0  0  0  0  0  0  0  0
  -25.3120  -31.5160   26.1310 C   0  0  0  0  0  1  0  0  0  0  0  0
  -26.9930  -30.3830   24.6750 C   0  0  0  0  0  1  0  0  0  0  0  0
  -27.5550  -32.5540   25.7330 C   0  0  0  0  0  1  0  0  0  0  0  0
  -25.5780  -33.9320   24.1340 N   0  0  0  0  0  0  0  0  0  0  0  0
  -25.9070  -34.9960   23.3910 C   0  0  0  0  0  0  0  0  0  0  0  0
  -26.5760  -34.9070   22.3580 O   0  0  0  0  0  0  0  0  0  0  0  0
  -24.9880  -34.0760   24.9400 H   0  0  0  0  0  0  0  0  0  0  0  0
  -24.1850  -36.8010   23.0570 C   0  0  0  0  0  1  0  0  0  0  0  0
  -25.4200  -36.3790   23.8670 C   0  0  0  0  0  3  0  0  0  0  0  0
  -27.5500  -37.2510   24.7270 C   0  0  0  0  0  1  0  0  0  0  0  0
  -26.4550  -37.4320   23.7780 N   0  0  0  0  0  0  0  0  0  0  0  0
  -26.0490  -38.3500   23.9350 H   0  0  0  0  0  0  0  0  0  0  0  0
  -29.4670  -20.8150   19.9340 C   0  0  0  0  0  2  0  0  0  0  0  0
  -29.1990  -19.2070   20.4390 C   0  0  0  0  0  3  0  0  0  0  0  0
  -30.1330  -17.8450   20.0110 C   0  0  0  0  0  3  0  0  0  0  0  0
  -30.6110  -15.1190   20.1510 C   0  0  0  0  0  0  0  0  0  0  0  0
  -30.5060  -12.7580   19.2220 C   0  0  0  0  0  2  0  0  0  0  0  0
  -29.5570  -12.6940   18.0020 C   0  0  0  0  0  2  0  0  0  0  0  0
  -28.1030  -12.4670   18.4540 C   0  0  0  0  0  2  0  0  0  0  0  0
  -27.7030  -13.3870   19.6390 C   0  0  0  0  0  3  0  0  0  0  0  0
  -28.7720  -13.4190   20.7500 C   0  0  0  0  0  2  0  0  0  0  0  0
  -30.0270  -13.8500   20.1230 N   0  0  0  0  0  0  0  0  0  0  0  0
  -31.8010  -15.1880   19.8300 O   0  0  0  0  0  0  0  0  0  0  0  0
  -29.8350  -16.3090   20.3250 N   0  0  0  0  0  0  0  0  0  0  0  0
  -28.8780  -16.1200   20.5890 H   0  0  0  0  0  0  0  0  0  0  0  0
  -25.3260  -13.9350   20.4100 C   0  0  0  0  0  0  0  0  0  0  0  0
  -24.2790  -13.1480   20.7970 C   0  0  0  0  0  0  0  0  0  0  0  0
  -24.7600  -11.8020   20.7630 C   0  0  0  0  0  0  0  0  0  0  0  0
  -26.3770  -13.0700   20.1560 N   0  0  0  0  0  0  0  0  0  0  0  0
  -26.0470  -11.7830   20.4350 N   0  0  0  0  0  0  0  0  0  0  0  0
  -24.0510  -10.5310   20.9620 C   0  0  0  0  0  0  0  0  0  0  0  0
  -24.4840   -9.5830   21.9140 C   0  0  0  0  0  3  0  0  0  0  0  0
  -23.7740   -8.3780   22.0980 C   0  0  0  0  0  3  0  0  0  0  0  0
  -22.6130   -8.1130   21.3330 C   0  0  0  0  0  0  0  0  0  0  0  0
  -22.2000   -9.0490   20.3680 C   0  0  0  0  0  3  0  0  0  0  0  0
  -22.9140  -10.2460   20.1810 C   0  0  0  0  0  3  0  0  0  0  0  0
  -21.8740   -6.9580   21.4290 O   0  0  0  0  0  0  0  0  0  0  0  0
  -21.8010   -6.2450   22.5990 C   0  0  0  0  0  0  0  0  0  0  0  0
  -21.3060   -6.8150   23.7920 C   0  0  0  0  0  3  0  0  0  0  0  0
  -21.1840   -6.0260   24.9530 C   0  0  0  0  0  3  0  0  0  0  0  0
  -21.5460   -4.6650   24.9200 C   0  0  0  0  0  0  0  0  0  0  0  0
  -22.0330   -4.0950   23.7320 C   0  0  0  0  0  3  0  0  0  0  0  0
  -22.1560   -4.8810   22.5730 C   0  0  0  0  0  0  0  0  0  0  0  0
  -22.6060   -4.3200   21.4240 F   0  0  0  0  0  0  0  0  0  0  0  0
  -21.4230   -3.9040   26.0320 F   0  0  0  0  0  0  0  0  0  0  0  0
  -22.8770  -13.6070   21.0830 C   0  0  0  0  0  0  0  0  0  0  0  0
  -22.1640  -12.9020   21.9530 N   0  0  0  0  0  0  0  0  0  0  0  0
  -22.4260  -14.6290   20.5670 O   0  0  0  0  0  0  0  0  0  0  0  0
  -22.5430  -12.0780   22.3980 H   0  0  0  0  0  0  0  0  0  0  0  0
  -21.2250  -13.1950   22.1800 H   0  0  0  0  0  0  0  0  0  0  0  0
  -25.4660  -15.3090   20.2260 N   0  0  0  0  0  0  0  0  0  0  0  0
  -24.6860  -15.9470   20.3340 H   0  0  0  0  0  0  0  0  0  0  0  0
  -26.2910  -15.7570   19.8460 H   0  0  0  0  0  0  0  0  0  0  0  0
  1  2  1  0
  3  1  2  0
  4  2  2  0
  4  7  1  0
  5  3  1  0
  5  6  2  0
  6  4  1  0
  8  5  1  0
  9  6  1  0
 10 21  2  0
 11  9  1  0
 11 16  1  0
 12 20  1  0
 12 22  1  0
 13 19  1  0
 13 15  1  0
 14 20  1  0
 15 14  1  0
 16 15  2  0
 17 18  1  0
 17 11  2  0
 18 13  2  0
 19 12  1  0
 20 10  1  0
 22 24  2  0
 23 22  1  0
 25 23  1  0
 26 35  2  0
 26 31  1  0
 27 23  1  0
 27 31  1  0
 28 27  1  0
 29 30  1  0
 29 28  1  0
 30 26  1  0
 31 32  2  0
 32 33  1  0
 34 33  2  0
 35 34  1  0
 36 10  1  0
 36 41  1  0
 36 37  1  0
 37 40  1  1
 37 38  1  0
 39 37  1  0
 41 44  1  0
 42 46  1  0
 42 41  1  0
 43 42  2  0
 46 45  1  0
 48 46  1  0
 48 49  1  0
 48 47  1  0
 50  3  1  0
 50 51  1  0
 52 61  1  0
 52 51  2  0
 53 61  1  0
 54 59  1  0
 55 56  1  0
 55 54  1  0
 57 56  1  0
 57 66  1  0
 57 58  1  0
 59 53  1  0
 59 58  1  0
 60 53  2  0
 61 62  1  0
 63 64  2  0
 64 83  1  0
 65 64  1  0
 65 68  1  0
 66 63  1  0
 66 67  1  0
 67 65  2  0
 68 69  1  0
 69 70  2  0
 71 74  1  0
 71 70  1  0
 72 71  2  0
 73 72  1  0
 73 68  2  0
 74 75  1  0
 75 76  1  0
 76 77  2  0
 78 77  1  0
 78 82  1  0
 79 78  2  0
 80 75  2  0
 80 79  1  0
 81 80  1  0
 83 84  1  0
 84 87  1  0
 84 86  1  0
 85 83  2  0
 88 89  1  0
 88 63  1  0
 90 88  1  0
M  ISO  4   6 101   9 101  53 100  61 100
M  END
>  <TORSDO>  (76) 
F 19

>  <SCORE>  (76) 
-15.202

>  <name>  (76) 
75

>  <ligand_id>  (76) 
75

>  <original_smiles>  (76) 
[H]c1c([H])c([H])c2c(c1[H])C([H])([H])C([H])([H])C([H])([H])C2([H])N([H])C(=O)C1([H])N(C(=O)C([H])(N([H])C(=O)C([H])(N([H])C([H])([H])[H])C([H])([H])[H])C(C([H])([H])[H])(C([H])([H])[H])C([H])([H])[H])C([H])([H])c2c([H])c(Oc3c(C([H])([H])[H])c([H])c([H])c(C([H])([H])C([H])([H])C([H])([H])N([H])C(=O)N4C([H])([H])C([H])([H])C([H])([H])C([H])(n5nc(-c6c([H])c([H])c(Oc7c([H])c([H])c(F)c([H])c7F)c([H])c6[H])c(C(=O)N([H])[H])c5N([H])[H])C4([H])[H])c3C([H])([H])[H])c([H])c([H])c2C1([H])[H]

>  <smiles>  (76) 
[H]c1c([H])c([H])c2c(c1[H])C([H])([H])C([H])([H])C([H])([H])C2([H])N([H])C(=O)C1([H])N(C(=O)C([H])(N([H])C(=O)C([H])(N([H])C([H])([H])[H])C([H])([H])[H])C(C([H])([H])[H])(C([H])([H])[H])C([H])([H])[H])C([H])([H])c2c([H])c(Oc3c(C([H])([H])[H])c([H])c([H])c(C([H])([H])C([H])([H])C([H])([H])N([H])C(=O)N4C([H])([H])C([H])([H])C([H])([H])C([H])(n5nc(-c6c([H])c([H])c(Oc7c([H])c([H])c(F)c([H])c7F)c([H])c6[H])c(C(=O)N([H])[H])c5N([H])[H])C4([H])[H])c3C([H])([H])[H])c([H])c([H])c2C1([H])[H]

$$$$
76:0:0
     RDKit          3D

 89 97  0  0  1  0  0  0  0  0999 V2000
  -29.9610  -21.7920   19.8950 C   0  0  0  0  0  3  0  0  0  0  0  0
  -29.6110  -23.2700   19.8930 C   0  0  0  0  0  3  0  0  0  0  0  0
  -27.9350  -21.2870   20.6090 C   0  0  0  0  0  3  0  0  0  0  0  0
  -29.1990  -20.5620   20.2420 C   0  0  0  0  0  0  0  0  0  0  0  0
  -27.5670  -22.7960   20.6230 C   0  0  0  0  0  0  0  0  0  0  0  0
  -28.3770  -24.0100   20.2480 C   0  0  0  0  0  0  0  0  0  0  0  0
  -26.1620  -23.0910   21.1160 C   0  0  0  0  0  1  0  0  0  0  0  0
  -28.2400  -25.6280   20.2800 O   0  0  0  0  0  0  0  0  0  0  0  0
  -24.6940  -31.8870   23.2030 C   0  0  0  0  0  0  0  0  0  0  0  0
  -27.2110  -26.7870   20.2560 C   0  0  0  0  0  0  0  0  0  0  0  0
  -23.5020  -30.4790   21.5790 C   0  0  0  0  0  3  0  0  0  0  0  0
  -24.9410  -28.8150   20.1800 C   0  0  0  0  0  0  0  0  0  0  0  0
  -26.0770  -30.6180   21.4520 C   0  0  0  0  0  2  0  0  0  0  0  0
  -26.1350  -29.1790   20.8120 C   0  0  0  0  0  0  0  0  0  0  0  0
  -27.2520  -28.1930   20.8170 C   0  0  0  0  0  3  0  0  0  0  0  0
  -25.9850  -26.6300   19.5630 C   0  0  0  0  0  3  0  0  0  0  0  0
  -24.9040  -27.5650   19.5330 C   0  0  0  0  0  3  0  0  0  0  0  0
  -23.7370  -29.7690   20.2130 C   0  0  0  0  0  2  0  0  0  0  0  0
  -24.7810  -31.0280   22.1300 N   0  0  0  0  0  0  0  0  0  0  0  0
  -23.6030  -32.1940   23.7130 O   0  0  0  0  0  0  0  0  0  0  0  0
  -22.7860  -29.5100   22.5580 C   0  0  0  0  0  0  0  0  0  0  0  0
  -21.4530  -29.3570   22.4360 N   0  0  0  0  0  0  0  0  0  0  0  0
  -23.4420  -28.8940   23.4010 O   0  0  0  0  0  0  0  0  0  0  0  0
  -20.9740  -29.9040   21.7350 H   0  0  0  0  0  0  0  0  0  0  0  0
  -18.0660  -28.1530   22.9630 C   0  0  0  0  0  0  0  0  0  0  0  0
  -20.6270  -28.4290   23.2180 C   0  0  0  0  0  3  0  0  0  0  0  0
  -20.7290  -26.9900   22.6610 C   0  0  0  0  0  2  0  0  0  0  0  0
  -19.6270  -26.6560   21.6480 C   0  0  0  0  0  2  0  0  0  0  0  0
  -18.2460  -26.8010   22.2920 C   0  0  0  0  0  2  0  0  0  0  0  0
  -19.1840  -28.9240   23.3820 C   0  0  0  0  0  0  0  0  0  0  0  0
  -18.9580  -30.1860   23.9750 C   0  0  0  0  0  3  0  0  0  0  0  0
  -17.6510  -30.6790   24.1440 C   0  0  0  0  0  3  0  0  0  0  0  0
  -16.5490  -29.9080   23.7340 C   0  0  0  0  0  3  0  0  0  0  0  0
  -16.7580  -28.6450   23.1520 C   0  0  0  0  0  3  0  0  0  0  0  0
  -25.9600  -32.5400   23.8380 C   0  0  0  0  0  3  0  0  0  0  0  0
  -25.6340  -33.9380   24.1790 N   0  0  0  0  0  0  0  0  0  0  0  0
  -25.9330  -35.0080   23.4290 C   0  0  0  0  0  0  0  0  0  0  0  0
  -26.5690  -34.9220   22.3770 O   0  0  0  0  0  0  0  0  0  0  0  0
  -25.0620  -34.0770   24.9990 H   0  0  0  0  0  0  0  0  0  0  0  0
  -24.1630  -36.7860   23.1840 C   0  0  0  0  0  1  0  0  0  0  0  0
  -25.4530  -36.3900   23.9210 C   0  0  0  0  0  3  0  0  0  0  0  0
  -27.6130  -37.3130   24.6410 C   0  0  0  0  0  1  0  0  0  0  0  0
  -26.4620  -37.4610   23.7560 N   0  0  0  0  0  0  0  0  0  0  0  0
  -26.0470  -38.3740   23.9240 H   0  0  0  0  0  0  0  0  0  0  0  0
  -26.4680  -31.7810   25.1260 C   0  0  1  0  0  0  0  0  0  0  0  0
  -25.3690  -31.5520   26.1910 C   0  0  0  0  0  1  0  0  0  0  0  0
  -27.0520  -30.3980   24.7590 C   0  0  0  0  0  1  0  0  0  0  0  0
  -27.6150  -32.5800   25.7890 C   0  0  0  0  0  1  0  0  0  0  0  0
  -29.9090  -18.8180   20.1750 C   0  0  0  0  0  0  0  0  0  0  0  0
  -30.3470  -15.7000   20.2610 C   0  0  0  0  0  0  0  0  0  0  0  0
  -30.4500  -13.1660   19.4320 C   0  0  0  0  0  2  0  0  0  0  0  0
  -29.5710  -12.7790   18.2090 C   0  0  0  0  0  2  0  0  0  0  0  0
  -28.1450  -12.4190   18.6510 C   0  0  0  0  0  2  0  0  0  0  0  0
  -27.6250  -13.4060   19.7220 C   0  0  0  0  0  3  0  0  0  0  0  0
  -28.6470  -13.7120   20.8430 C   0  0  0  0  0  2  0  0  0  0  0  0
  -29.8190  -14.3380   20.1920 N   0  0  0  0  0  0  0  0  0  0  0  0
  -31.5780  -15.6270   20.0890 O   0  0  0  0  0  0  0  0  0  0  0  0
  -29.6080  -17.0750   20.3280 N   0  0  0  0  0  4  0  0  0  0  0  0
  -28.6210  -16.9090   20.4590 H   0  0  0  0  0  0  0  0  0  0  0  0
  -25.2470  -13.9040   20.4550 C   0  0  0  0  0  0  0  0  0  0  0  0
  -24.1980  -13.1080   20.8170 C   0  0  0  0  0  0  0  0  0  0  0  0
  -24.6930  -11.7670   20.8040 C   0  0  0  0  0  0  0  0  0  0  0  0
  -26.3090  -13.0500   20.2310 N   0  0  0  0  0  0  0  0  0  0  0  0
  -25.9900  -11.7580   20.5090 N   0  0  0  0  0  0  0  0  0  0  0  0
  -23.9860  -10.4940   20.9960 C   0  0  0  0  0  0  0  0  0  0  0  0
  -24.4130   -9.5450   21.9510 C   0  0  0  0  0  3  0  0  0  0  0  0
  -23.7010   -8.3400   22.1320 C   0  0  0  0  0  3  0  0  0  0  0  0
  -22.5450   -8.0750   21.3600 C   0  0  0  0  0  0  0  0  0  0  0  0
  -22.1370   -9.0120   20.3930 C   0  0  0  0  0  3  0  0  0  0  0  0
  -22.8510  -10.2080   20.2100 C   0  0  0  0  0  3  0  0  0  0  0  0
  -21.8050   -6.9200   21.4490 O   0  0  0  0  0  0  0  0  0  0  0  0
  -21.7390   -6.1970   22.6130 C   0  0  0  0  0  0  0  0  0  0  0  0
  -21.2600   -6.7610   23.8160 C   0  0  0  0  0  3  0  0  0  0  0  0
  -21.1430   -5.9630   24.9710 C   0  0  0  0  0  3  0  0  0  0  0  0
  -21.4940   -4.6000   24.9240 C   0  0  0  0  0  0  0  0  0  0  0  0
  -21.9660   -4.0350   23.7260 C   0  0  0  0  0  3  0  0  0  0  0  0
  -22.0840   -4.8300   22.5730 C   0  0  0  0  0  0  0  0  0  0  0  0
  -22.5190   -4.2760   21.4160 F   0  0  0  0  0  0  0  0  0  0  0  0
  -21.3760   -3.8300   26.0310 F   0  0  0  0  0  0  0  0  0  0  0  0
  -22.7890  -13.5620   21.0580 C   0  0  0  0  0  0  0  0  0  0  0  0
  -22.0630  -12.8680   21.9230 N   0  0  0  0  0  0  0  0  0  0  0  0
  -22.3420  -14.5710   20.5110 O   0  0  0  0  0  0  0  0  0  0  0  0
  -22.4390  -12.0530   22.3860 H   0  0  0  0  0  0  0  0  0  0  0  0
  -21.1160  -13.1530   22.1290 H   0  0  0  0  0  0  0  0  0  0  0  0
  -25.3840  -15.2760   20.2650 N   0  0  0  0  0  0  0  0  0  0  0  0
  -24.5990  -15.9140   20.3490 H   0  0  0  0  0  0  0  0  0  0  0  0
  -26.2220  -15.7240   19.9190 H   0  0  0  0  0  0  0  0  0  0  0  0
  -32.3650  -18.9520   19.3830 C   0  0  0  0  0  1  0  0  0  0  0  0
  -30.8870  -18.8660   18.9750 C   0  0  0  0  0  2  0  0  0  0  0  0
  1  4  1  0
  2  1  2  0
  2  6  1  0
  3  5  1  0
  4  3  2  0
  5  7  1  0
  6  8  1  0
  6  5  2  0
  9 20  2  0
 10  8  1  0
 10 15  1  0
 11 19  1  0
 11 21  1  0
 12 18  1  0
 12 14  1  0
 13 19  1  0
 14 15  2  0
 14 13  1  0
 16 10  2  0
 17 16  1  0
 17 12  2  0
 18 11  1  0
 19  9  1  0
 21 23  2  0
 22 21  1  0
 24 22  1  0
 25 34  2  0
 25 30  1  0
 26 22  1  0
 26 30  1  0
 27 26  1  0
 28 29  1  0
 28 27  1  0
 29 25  1  0
 30 31  2  0
 31 32  1  0
 33 32  2  0
 34 33  1  0
 35  9  1  0
 35 36  1  0
 35 45  1  0
 36 39  1  0
 37 41  1  0
 37 36  1  0
 38 37  2  0
 41 40  1  0
 43 41  1  0
 43 44  1  0
 43 42  1  0
 45 48  1  1
 45 46  1  0
 47 45  1  0
 49  4  1  0
 49 58  2  0
 50 58  1  0
 51 56  1  0
 52 53  1  0
 52 51  1  0
 54 53  1  0
 54 63  1  0
 54 55  1  0
 56 50  1  0
 56 55  1  0
 57 50  2  0
 58 59  1  0
 60 61  2  0
 61 80  1  0
 62 61  1  0
 62 65  1  0
 63 60  1  0
 63 64  1  0
 64 62  2  0
 65 66  1  0
 66 67  2  0
 68 71  1  0
 68 67  1  0
 69 68  2  0
 70 69  1  0
 70 65  2  0
 71 72  1  0
 72 73  1  0
 73 74  2  0
 75 74  1  0
 75 79  1  0
 76 75  2  0
 77 72  2  0
 77 76  1  0
 78 77  1  0
 80 81  1  0
 81 84  1  0
 81 83  1  0
 82 80  2  0
 85 86  1  0
 85 60  1  0
 87 85  1  0
 89 88  1  0
 89 49  1  0
M  ISO  4   6 101   8 101  50 100  58 100
M  END
>  <TORSDO>  (77) 
F 18

>  <SCORE>  (77) 
-15.532

>  <name>  (77) 
76

>  <ligand_id>  (77) 
76

>  <original_smiles>  (77) 
[H]c1c([H])c([H])c2c(c1[H])C([H])([H])C([H])([H])C([H])([H])C2([H])N([H])C(=O)C1([H])N(C(=O)C([H])(N([H])C(=O)C([H])(N([H])C([H])([H])[H])C([H])([H])[H])C(C([H])([H])[H])(C([H])([H])[H])C([H])([H])[H])C([H])([H])c2c([H])c(Oc3c([H])c([H])c(C([H])(N([H])C(=O)N4C([H])([H])C([H])([H])C([H])([H])C([H])(n5nc(-c6c([H])c([H])c(Oc7c([H])c([H])c(F)c([H])c7F)c([H])c6[H])c(C(=O)N([H])[H])c5N([H])[H])C4([H])[H])C([H])([H])C([H])([H])[H])c([H])c3C([H])([H])[H])c([H])c([H])c2C1([H])[H]

>  <smiles>  (77) 
[H]c1c([H])c([H])c2c(c1[H])C([H])([H])C([H])([H])C([H])([H])C2([H])N([H])C(=O)C1([H])N(C(=O)C([H])(N([H])C(=O)C([H])(N([H])C([H])([H])[H])C([H])([H])[H])C(C([H])([H])[H])(C([H])([H])[H])C([H])([H])[H])C([H])([H])c2c([H])c(Oc3c([H])c([H])c(C([H])(N([H])C(=O)N4C([H])([H])C([H])([H])C([H])([H])C([H])(n5nc(-c6c([H])c([H])c(Oc7c([H])c([H])c(F)c([H])c7F)c([H])c6[H])c(C(=O)N([H])[H])c5N([H])[H])C4([H])[H])C([H])([H])C([H])([H])[H])c([H])c3C([H])([H])[H])c([H])c([H])c2C1([H])[H]

$$$$
77:0:0
     RDKit          3D

 97106  0  0  1  0  0  0  0  0999 V2000
  -28.2290  -21.8320   21.8200 C   0  0  0  0  0  3  0  0  0  0  0  0
  -29.2910  -22.6220   22.3160 C   0  0  0  0  0  3  0  0  0  0  0  0
  -29.3900  -21.7010   19.7070 C   0  0  0  0  0  0  0  0  0  0  0  0
  -28.2290  -21.4300   20.4700 C   0  0  0  0  0  0  0  0  0  0  0  0
  -29.8380  -23.1850   20.0150 C   0  0  0  0  0  0  0  0  0  0  0  0
  -30.1180  -23.3120   21.4010 C   0  0  0  0  0  0  0  0  0  0  0  0
  -30.6530  -17.3090   19.9050 C   0  0  0  0  0  0  0  0  0  0  0  0
  -31.4140  -18.1600   20.6530 C   0  0  0  0  0  0  0  0  0  0  0  0
  -29.7210  -18.5190   19.2240 C   0  0  0  0  0  2  0  0  0  0  0  0
  -31.1520  -19.7170   20.6720 C   0  0  0  0  0  2  0  0  0  0  0  0
  -30.2550  -20.1820   19.4560 C   0  0  2  0  0  0  0  0  0  0  0  0
  -31.1400  -20.4650   18.2250 C   0  0  0  0  0  1  0  0  0  0  0  0
  -31.1470  -15.7500   19.6320 C   0  0  0  0  0  0  0  0  0  0  0  0
  -30.9780  -13.2320   18.9680 C   0  0  0  0  0  2  0  0  0  0  0  0
  -30.0370  -12.9540   17.7670 C   0  0  0  0  0  2  0  0  0  0  0  0
  -28.6060  -12.7310   18.2760 C   0  0  0  0  0  2  0  0  0  0  0  0
  -28.2080  -13.7650   19.3590 C   0  0  0  0  0  3  0  0  0  0  0  0
  -29.2890  -14.0350   20.4280 C   0  0  0  0  0  2  0  0  0  0  0  0
  -30.5030  -14.4680   19.7230 N   0  0  0  0  0  0  0  0  0  0  0  0
  -32.3110  -15.5700   19.2350 O   0  0  0  0  0  0  0  0  0  0  0  0
  -25.9670  -14.3900   20.3690 C   0  0  0  0  0  0  0  0  0  0  0  0
  -24.8840  -13.6560   20.7630 C   0  0  0  0  0  0  0  0  0  0  0  0
  -25.2440  -12.2840   20.5770 C   0  0  0  0  0  0  0  0  0  0  0  0
  -26.9130  -13.4760   19.9550 N   0  0  0  0  0  0  0  0  0  0  0  0
  -26.4990  -12.1940   20.1450 N   0  0  0  0  0  0  0  0  0  0  0  0
  -24.4440  -11.0620   20.7300 C   0  0  0  0  0  0  0  0  0  0  0  0
  -24.8790   -9.9910   21.5430 C   0  0  0  0  0  3  0  0  0  0  0  0
  -24.0790   -8.8350   21.6910 C   0  0  0  0  0  3  0  0  0  0  0  0
  -22.8310   -8.7470   21.0310 C   0  0  0  0  0  0  0  0  0  0  0  0
  -22.4150   -9.8050   20.2070 C   0  0  0  0  0  3  0  0  0  0  0  0
  -23.2110  -10.9520   20.0550 C   0  0  0  0  0  3  0  0  0  0  0  0
  -21.9990   -7.6560   21.0910 O   0  0  0  0  0  0  0  0  0  0  0  0
  -21.9160   -6.8780   22.2180 C   0  0  0  0  0  0  0  0  0  0  0  0
  -21.5620   -7.4210   23.4720 C   0  0  0  0  0  3  0  0  0  0  0  0
  -21.4250   -6.5760   24.5900 C   0  0  0  0  0  3  0  0  0  0  0  0
  -21.6260   -5.1900   24.4560 C   0  0  0  0  0  0  0  0  0  0  0  0
  -21.9740   -4.6470   23.2060 C   0  0  0  0  0  3  0  0  0  0  0  0
  -22.1160   -5.4900   22.0900 C   0  0  0  0  0  0  0  0  0  0  0  0
  -22.4300   -4.9590   20.8850 F   0  0  0  0  0  0  0  0  0  0  0  0
  -21.4840   -4.3740   25.5290 F   0  0  0  0  0  0  0  0  0  0  0  0
  -23.5530  -14.2030   21.1840 C   0  0  0  0  0  0  0  0  0  0  0  0
  -22.8700  -13.5070   22.0840 N   0  0  0  0  0  0  0  0  0  0  0  0
  -23.1420  -15.2800   20.7560 O   0  0  0  0  0  0  0  0  0  0  0  0
  -23.2230  -12.6320   22.4450 H   0  0  0  0  0  0  0  0  0  0  0  0
  -21.9790  -13.8530   22.4130 H   0  0  0  0  0  0  0  0  0  0  0  0
  -26.2180  -15.7560   20.3020 N   0  0  0  0  0  0  0  0  0  0  0  0
  -25.5120  -16.4440   20.5320 H   0  0  0  0  0  0  0  0  0  0  0  0
  -27.0740  -16.1660   19.9500 H   0  0  0  0  0  0  0  0  0  0  0  0
  -32.5070  -17.8370   21.3660 O   0  0  0  0  0  0  0  0  0  0  0  0
  -32.9210  -18.6430   21.6550 H   0  0  0  0  0  0  0  0  0  0  0  0
  -31.0280  -24.2530   21.8840 N   0  0  0  0  0  0  0  0  0  0  0  0
  -30.9360  -24.5920   22.8380 H   0  0  0  0  0  0  0  0  0  0  0  0
  -31.4300  -24.9330   21.2480 H   0  0  0  0  0  0  0  0  0  0  0  0
  -26.1710  -21.4240   19.0330 C   0  0  0  0  0  1  0  0  0  0  0  0
  -27.0820  -20.5930   19.9420 C   0  0  0  0  0  2  0  0  0  0  0  0
  -29.2880  -24.7460   19.4080 C   0  0  0  0  0  2  0  0  0  0  0  0
  -29.2330  -26.2710   20.0750 O   0  0  0  0  0  0  0  0  0  0  0  0
  -24.8290  -31.4550   23.3590 C   0  0  0  0  0  0  0  0  0  0  0  0
  -28.1190  -27.2730   20.0170 C   0  0  0  0  0  0  0  0  0  0  0  0
  -23.9110  -30.1340   21.4980 C   0  0  0  0  0  3  0  0  0  0  0  0
  -25.6240  -28.8910   19.9990 C   0  0  0  0  0  0  0  0  0  0  0  0
  -26.4350  -30.6540   21.5520 C   0  0  0  0  0  2  0  0  0  0  0  0
  -26.7120  -29.3430   20.7510 C   0  0  0  0  0  0  0  0  0  0  0  0
  -27.9510  -28.5570   20.7400 C   0  0  0  0  0  3  0  0  0  0  0  0
  -26.9930  -26.9850   19.2150 C   0  0  0  0  0  3  0  0  0  0  0  0
  -25.7890  -27.7410   19.2090 C   0  0  0  0  0  3  0  0  0  0  0  0
  -24.2980  -29.6470   20.0710 C   0  0  0  0  0  2  0  0  0  0  0  0
  -25.0750  -30.7720   22.1950 N   0  0  0  0  0  0  0  0  0  0  0  0
  -23.6830  -31.5480   23.8330 O   0  0  0  0  0  0  0  0  0  0  0  0
  -23.2970  -28.9560   22.2990 C   0  0  0  0  0  0  0  0  0  0  0  0
  -22.0330  -28.6010   22.0090 N   0  0  0  0  0  0  0  0  0  0  0  0
  -23.9610  -28.3710   23.1580 O   0  0  0  0  0  0  0  0  0  0  0  0
  -21.5410  -29.1460   21.3140 H   0  0  0  0  0  0  0  0  0  0  0  0
  -18.8620  -26.8300   22.0480 C   0  0  0  0  0  0  0  0  0  0  0  0
  -21.3010  -27.4770   22.6070 C   0  0  0  0  0  3  0  0  0  0  0  0
  -21.6990  -26.1350   21.9470 C   0  0  0  0  0  2  0  0  0  0  0  0
  -20.7630  -25.7040   20.8140 C   0  0  0  0  0  2  0  0  0  0  0  0
  -19.3220  -25.5790   21.3170 C   0  0  0  0  0  2  0  0  0  0  0  0
  -19.7890  -27.7210   22.6470 C   0  0  0  0  0  0  0  0  0  0  0  0
  -19.3040  -28.8710   23.3090 C   0  0  0  0  0  3  0  0  0  0  0  0
  -17.9230  -29.1320   23.3810 C   0  0  0  0  0  3  0  0  0  0  0  0
  -17.0080  -28.2410   22.7960 C   0  0  0  0  0  3  0  0  0  0  0  0
  -17.4780  -27.0920   22.1300 C   0  0  0  0  0  3  0  0  0  0  0  0
  -25.9720  -32.1700   24.1430 C   0  0  0  0  0  3  0  0  0  0  0  0
  -25.5950  -33.5830   24.3090 N   0  0  0  0  0  0  0  0  0  0  0  0
  -26.0360  -34.5920   23.5440 C   0  0  0  0  0  0  0  0  0  0  0  0
  -26.8590  -34.4280   22.6390 O   0  0  0  0  0  0  0  0  0  0  0  0
  -24.8710  -33.7760   24.9860 H   0  0  0  0  0  0  0  0  0  0  0  0
  -24.3890  -36.3370   22.7860 C   0  0  0  0  0  1  0  0  0  0  0  0
  -25.4760  -36.0000   23.8190 C   0  0  0  0  0  3  0  0  0  0  0  0
  -27.4390  -36.9630   24.9370 C   0  0  0  0  0  1  0  0  0  0  0  0
  -26.5100  -37.0560   23.8150 N   0  0  0  0  0  0  0  0  0  0  0  0
  -26.0860  -37.9780   23.8300 H   0  0  0  0  0  0  0  0  0  0  0  0
  -26.2580  -31.5110   25.5510 C   0  0  1  0  0  0  0  0  0  0  0  0
  -24.9860  -31.3030   26.4100 C   0  0  0  0  0  1  0  0  0  0  0  0
  -26.9380  -30.1310   25.3920 C   0  0  0  0  0  1  0  0  0  0  0  0
  -27.2440  -32.3950   26.3470 C   0  0  0  0  0  1  0  0  0  0  0  0
  1  2  1  0
  3  5  2  3
  3  4  1  0
  4  1  2  0
  5  6  1  0
  6 51  1  0
  6  2  2  0
  7  8  2  0
  8 10  1  0
  8 49  1  0
  9 11  1  0
  9  7  1  0
 11 12  1  6
 11  3  1  0
 11 10  1  0
 13 19  1  0
 13  7  1  0
 14 19  1  0
 15 16  1  0
 15 14  1  0
 17 16  1  0
 17 24  1  0
 17 18  1  0
 19 18  1  0
 20 13  2  0
 21 22  2  0
 22 41  1  0
 23 26  1  0
 23 22  1  0
 24 25  1  0
 24 21  1  0
 25 23  2  0
 26 27  1  0
 27 28  2  0
 29 32  1  0
 29 28  1  0
 30 29  2  0
 31 30  1  0
 31 26  2  0
 32 33  1  0
 33 34  1  0
 34 35  2  0
 36 35  1  0
 36 40  1  0
 37 36  2  0
 38 33  2  0
 38 37  1  0
 39 38  1  0
 41 42  1  0
 42 45  1  0
 42 44  1  0
 43 41  2  0
 46 21  1  0
 46 47  1  0
 48 46  1  0
 49 50  1  0
 51 52  1  0
 53 51  1  0
 54 55  1  0
 55  4  1  0
 56  5  1  0
 56 57  1  0
 58 69  2  0
 59 57  1  0
 59 64  1  0
 60 68  1  0
 60 70  1  0
 61 67  1  0
 61 63  1  0
 62 68  1  0
 63 62  1  0
 64 63  2  0
 65 59  2  0
 66 65  1  0
 66 61  2  0
 67 60  1  0
 68 58  1  0
 70 72  2  0
 71 70  1  0
 73 71  1  0
 74 83  2  0
 74 79  1  0
 75 71  1  0
 75 79  1  0
 76 75  1  0
 77 78  1  0
 77 76  1  0
 78 74  1  0
 79 80  2  0
 80 81  1  0
 82 81  2  0
 83 82  1  0
 84 58  1  0
 84 85  1  0
 84 94  1  0
 85 88  1  0
 86 90  1  0
 86 85  1  0
 87 86  2  0
 90 89  1  0
 92 90  1  0
 92 93  1  0
 92 91  1  0
 94 97  1  1
 94 95  1  0
 96 94  1  0
M  ISO  4   7 100  13 100  56 101  57 101
M  END
>  <TORSDO>  (78) 
F 21

>  <SCORE>  (78) 
-12.390

>  <name>  (78) 
77

>  <ligand_id>  (78) 
77

>  <original_smiles>  (78) 
[H]OC1=C(C(=O)N2C([H])([H])C([H])([H])C([H])([H])C([H])(n3nc(-c4c([H])c([H])c(Oc5c([H])c([H])c(F)c([H])c5F)c([H])c4[H])c(C(=O)N([H])[H])c3N([H])[H])C2([H])[H])C([H])([H])C(c2c(C([H])([H])Oc3c([H])c([H])c4c(c3[H])C([H])([H])N(C(=O)C([H])(N([H])C(=O)C([H])(N([H])C([H])([H])[H])C([H])([H])[H])C(C([H])([H])[H])(C([H])([H])[H])C([H])([H])[H])C([H])(C(=O)N([H])C3([H])c5c([H])c([H])c([H])c([H])c5C([H])([H])C([H])([H])C3([H])[H])C4([H])[H])c(N([H])[H])c([H])c([H])c2C([H])([H])C([H])([H])[H])(C([H])([H])[H])C1([H])[H]

>  <smiles>  (78) 
[H]OC1=C(C(=O)N2C([H])([H])C([H])([H])C([H])([H])C([H])(n3nc(-c4c([H])c([H])c(Oc5c([H])c([H])c(F)c([H])c5F)c([H])c4[H])c(C(=O)N([H])[H])c3N([H])[H])C2([H])[H])C([H])([H])C(c2c(C([H])([H])Oc3c([H])c([H])c4c(c3[H])C([H])([H])N(C(=O)C([H])(N([H])C(=O)C([H])(N([H])C([H])([H])[H])C([H])([H])[H])C(C([H])([H])[H])(C([H])([H])[H])C([H])([H])[H])C([H])(C(=O)N([H])C3([H])c5c([H])c([H])c([H])c([H])c5C([H])([H])C([H])([H])C3([H])[H])C4([H])[H])c(N([H])[H])c([H])c([H])c2C([H])([H])C([H])([H])[H])(C([H])([H])[H])C1([H])[H]

$$$$
78:0:0
     RDKit          3D

 88 96  0  0  1  0  0  0  0  0999 V2000
  -29.3130  -19.9050   21.4270 C   0  0  0  0  0  3  0  0  0  0  0  0
  -29.6240  -18.4140   21.4200 C   0  0  0  0  0  3  0  0  0  0  0  0
  -29.9330  -20.0710   19.2980 C   0  0  0  0  0  3  0  0  0  0  0  0
  -29.4060  -20.9530   20.3730 C   0  0  0  0  0  0  0  0  0  0  0  0
  -30.1380  -17.5390   20.3390 C   0  0  0  0  0  0  0  0  0  0  0  0
  -30.2640  -18.5790   19.2700 C   0  0  0  0  0  0  0  0  0  0  0  0
  -30.7850  -15.9000   20.3890 C   0  0  0  0  0  0  0  0  0  0  0  0
  -30.8700  -13.3480   19.6860 C   0  0  0  0  0  2  0  0  0  0  0  0
  -30.0450  -12.9580   18.4270 C   0  0  0  0  0  2  0  0  0  0  0  0
  -28.5930  -12.6360   18.8070 C   0  0  0  0  0  2  0  0  0  0  0  0
  -28.0340  -13.6620   19.8190 C   0  0  0  0  0  3  0  0  0  0  0  0
  -29.0020  -13.9960   20.9760 C   0  0  0  0  0  2  0  0  0  0  0  0
  -30.2340  -14.5530   20.3830 N   0  0  0  0  0  0  0  0  0  0  0  0
  -32.0170  -15.7930   20.2570 O   0  0  0  0  0  0  0  0  0  0  0  0
  -25.6430  -14.1930   20.4880 C   0  0  0  0  0  0  0  0  0  0  0  0
  -24.5720  -13.4110   20.8140 C   0  0  0  0  0  0  0  0  0  0  0  0
  -25.0470  -12.0630   20.8100 C   0  0  0  0  0  0  0  0  0  0  0  0
  -26.6970  -13.3240   20.2870 N   0  0  0  0  0  0  0  0  0  0  0  0
  -26.3520  -12.0360   20.5520 N   0  0  0  0  0  0  0  0  0  0  0  0
  -24.3160  -10.7980   20.9750 C   0  0  0  0  0  0  0  0  0  0  0  0
  -24.6700   -9.8610   21.9700 C   0  0  0  0  0  3  0  0  0  0  0  0
  -23.9350   -8.6650   22.1230 C   0  0  0  0  0  3  0  0  0  0  0  0
  -22.8310   -8.3980   21.2790 C   0  0  0  0  0  0  0  0  0  0  0  0
  -22.4950   -9.3240   20.2760 C   0  0  0  0  0  3  0  0  0  0  0  0
  -23.2300  -10.5110   20.1220 C   0  0  0  0  0  3  0  0  0  0  0  0
  -22.0740   -7.2520   21.3360 O   0  0  0  0  0  0  0  0  0  0  0  0
  -21.8470   -6.5990   22.5200 C   0  0  0  0  0  0  0  0  0  0  0  0
  -21.1620   -7.2120   23.5910 C   0  0  0  0  0  3  0  0  0  0  0  0
  -20.8900   -6.4810   24.7640 C   0  0  0  0  0  3  0  0  0  0  0  0
  -21.2920   -5.1350   24.8660 C   0  0  0  0  0  0  0  0  0  0  0  0
  -21.9690   -4.5210   23.7980 C   0  0  0  0  0  3  0  0  0  0  0  0
  -22.2430   -5.2500   22.6280 C   0  0  0  0  0  0  0  0  0  0  0  0
  -22.8770   -4.6460   21.5930 F   0  0  0  0  0  0  0  0  0  0  0  0
  -21.0230   -4.4300   25.9890 F   0  0  0  0  0  0  0  0  0  0  0  0
  -23.1620  -13.8840   21.0160 C   0  0  0  0  0  0  0  0  0  0  0  0
  -22.4050  -13.2050   21.8710 N   0  0  0  0  0  0  0  0  0  0  0  0
  -22.7410  -14.8920   20.4520 O   0  0  0  0  0  0  0  0  0  0  0  0
  -22.7580  -12.3890   22.3490 H   0  0  0  0  0  0  0  0  0  0  0  0
  -21.4580  -13.5070   22.0520 H   0  0  0  0  0  0  0  0  0  0  0  0
  -25.8080  -15.5640   20.3160 N   0  0  0  0  0  0  0  0  0  0  0  0
  -25.0400  -16.2190   20.4080 H   0  0  0  0  0  0  0  0  0  0  0  0
  -26.6780  -16.0100   20.0540 H   0  0  0  0  0  0  0  0  0  0  0  0
  -29.2870  -22.7550   20.5890 C   0  0  0  0  0  0  0  0  0  0  0  0
  -30.1000  -23.1250   21.4410 O   0  0  0  0  0  0  0  0  0  0  0  0
  -28.3510  -24.2270   20.0240 C   0  0  0  0  0  2  0  0  0  0  0  0
  -28.4810  -25.9180   20.3920 O   0  0  0  0  0  0  0  0  0  0  0  0
  -24.7710  -31.9910   23.3480 C   0  0  0  0  0  0  0  0  0  0  0  0
  -27.4750  -27.0780   20.3160 C   0  0  0  0  0  0  0  0  0  0  0  0
  -23.6360  -30.5790   21.6870 C   0  0  0  0  0  3  0  0  0  0  0  0
  -25.1410  -29.0040   20.2620 C   0  0  0  0  0  0  0  0  0  0  0  0
  -26.2070  -30.8170   21.5800 C   0  0  0  0  0  2  0  0  0  0  0  0
  -26.3190  -29.4000   20.9070 C   0  0  0  0  0  0  0  0  0  0  0  0
  -27.4700  -28.4640   20.9060 C   0  0  0  0  0  3  0  0  0  0  0  0
  -26.2610  -26.8760   19.6150 C   0  0  0  0  0  3  0  0  0  0  0  0
  -25.1470  -27.7680   19.5920 C   0  0  0  0  0  3  0  0  0  0  0  0
  -23.9020  -29.9090   20.3080 C   0  0  0  0  0  2  0  0  0  0  0  0
  -24.8940  -31.1600   22.2580 N   0  0  0  0  0  0  0  0  0  0  0  0
  -23.6680  -32.2490   23.8590 O   0  0  0  0  0  0  0  0  0  0  0  0
  -22.9490  -29.5640   22.6390 C   0  0  0  0  0  0  0  0  0  0  0  0
  -21.6290  -29.3440   22.4820 N   0  0  0  0  0  0  0  0  0  0  0  0
  -23.6140  -28.9740   23.4940 O   0  0  0  0  0  0  0  0  0  0  0  0
  -21.1400  -29.8720   21.7730 H   0  0  0  0  0  0  0  0  0  0  0  0
  -18.2840  -28.0080   22.9450 C   0  0  0  0  0  0  0  0  0  0  0  0
  -20.8290  -28.3720   23.2380 C   0  0  0  0  0  3  0  0  0  0  0  0
  -20.9900  -26.9480   22.6530 C   0  0  0  0  0  2  0  0  0  0  0  0
  -19.9120  -26.5950   21.6240 C   0  0  0  0  0  2  0  0  0  0  0  0
  -18.5200  -26.6770   22.2540 C   0  0  0  0  0  2  0  0  0  0  0  0
  -19.3680  -28.8120   23.3930 C   0  0  0  0  0  0  0  0  0  0  0  0
  -19.0890  -30.0530   24.0040 C   0  0  0  0  0  3  0  0  0  0  0  0
  -17.7620  -30.4950   24.1690 C   0  0  0  0  0  3  0  0  0  0  0  0
  -16.6950  -29.6900   23.7350 C   0  0  0  0  0  3  0  0  0  0  0  0
  -16.9560  -28.4490   23.1290 C   0  0  0  0  0  3  0  0  0  0  0  0
  -26.0130  -32.6700   24.0040 C   0  0  0  0  0  3  0  0  0  0  0  0
  -26.5010  -31.9340   25.3120 C   0  0  1  0  0  0  0  0  0  0  0  0
  -25.3720  -31.6610   26.3340 C   0  0  0  0  0  1  0  0  0  0  0  0
  -27.1590  -30.5780   24.9730 C   0  0  0  0  0  1  0  0  0  0  0  0
  -27.5870  -32.7800   26.0170 C   0  0  0  0  0  1  0  0  0  0  0  0
  -25.6580  -34.0670   24.3200 N   0  0  0  0  0  0  0  0  0  0  0  0
  -25.9210  -35.1250   23.5410 C   0  0  0  0  0  0  0  0  0  0  0  0
  -26.5470  -35.0300   22.4820 O   0  0  0  0  0  0  0  0  0  0  0  0
  -25.0950  -34.2110   25.1450 H   0  0  0  0  0  0  0  0  0  0  0  0
  -24.0950  -36.8430   23.2920 C   0  0  0  0  0  1  0  0  0  0  0  0
  -25.4140  -36.5070   24.0060 C   0  0  0  0  0  3  0  0  0  0  0  0
  -27.5530  -37.5250   24.6590 C   0  0  0  0  0  1  0  0  0  0  0  0
  -26.3880  -37.5980   23.7790 N   0  0  0  0  0  0  0  0  0  0  0  0
  -25.9490  -38.5060   23.9070 H   0  0  0  0  0  0  0  0  0  0  0  0
  -29.9880  -17.3750   17.2620 C   0  0  0  0  0  1  0  0  0  0  0  0
  -30.8250  -18.1790   18.0840 O   0  0  0  0  0  0  0  0  0  0  0  0
  2  1  1  0
  3  4  1  0
  4 43  1  0
  4  1  2  0
  5  7  1  0
  5  2  2  0
  6  3  2  0
  6  5  1  0
  8 13  1  0
  9 10  1  0
  9  8  1  0
 11 10  1  0
 11 18  1  0
 11 12  1  0
 13  7  1  0
 13 12  1  0
 14  7  2  0
 15 16  2  0
 16 35  1  0
 17 16  1  0
 17 20  1  0
 18 15  1  0
 18 19  1  0
 19 17  2  0
 20 21  1  0
 21 22  2  0
 23 26  1  0
 23 22  1  0
 24 23  2  0
 25 24  1  0
 25 20  2  0
 26 27  1  0
 27 32  2  0
 27 28  1  0
 28 29  2  0
 29 30  1  0
 30 34  1  0
 31 30  2  0
 32 31  1  0
 33 32  1  0
 35 36  1  0
 36 39  1  0
 36 38  1  0
 37 35  2  0
 40 41  1  0
 40 15  1  0
 42 40  1  0
 43 44  2  0
 45 46  1  0
 45 43  1  0
 47 58  2  0
 48 46  1  0
 48 53  1  0
 49 57  1  0
 49 59  1  0
 50 56  1  0
 50 52  1  0
 51 57  1  0
 52 51  1  0
 53 52  2  0
 54 48  2  0
 55 54  1  0
 55 50  2  0
 56 49  1  0
 57 47  1  0
 59 61  2  0
 60 59  1  0
 62 60  1  0
 63 72  2  0
 63 68  1  0
 64 60  1  0
 64 68  1  0
 65 64  1  0
 66 67  1  0
 66 65  1  0
 67 63  1  0
 68 69  2  0
 69 70  1  0
 71 70  2  0
 72 71  1  0
 73 47  1  0
 73 78  1  0
 73 74  1  0
 74 77  1  1
 74 75  1  0
 76 74  1  0
 78 81  1  0
 79 83  1  0
 79 78  1  0
 80 79  2  0
 83 82  1  0
 85 86  1  0
 85 83  1  0
 85 84  1  0
 87 88  1  0
 88  6  1  0
M  ISO  4   5 100   7 100  45 101  46 101
M  END
>  <TORSDO>  (79) 
F 19

>  <SCORE>  (79) 
-14.096

>  <name>  (79) 
78

>  <ligand_id>  (79) 
78

>  <original_smiles>  (79) 
[H]c1c([H])c([H])c2c(c1[H])C([H])([H])C([H])([H])C([H])([H])C2([H])N([H])C(=O)C1([H])N(C(=O)C([H])(N([H])C(=O)C([H])(N([H])C([H])([H])[H])C([H])([H])[H])C(C([H])([H])[H])(C([H])([H])[H])C([H])([H])[H])C([H])([H])c2c([H])c(OC([H])([H])C(=O)c3c([H])c([H])c(C(=O)N4C([H])([H])C([H])([H])C([H])([H])C([H])(n5nc(-c6c([H])c([H])c(Oc7c([H])c([H])c(F)c([H])c7F)c([H])c6[H])c(C(=O)N([H])[H])c5N([H])[H])C4([H])[H])c(OC([H])([H])[H])c3[H])c([H])c([H])c2C1([H])[H]

>  <smiles>  (79) 
[H]c1c([H])c([H])c2c(c1[H])C([H])([H])C([H])([H])C([H])([H])C2([H])N([H])C(=O)C1([H])N(C(=O)C([H])(N([H])C(=O)C([H])(N([H])C([H])([H])[H])C([H])([H])[H])C(C([H])([H])[H])(C([H])([H])[H])C([H])([H])[H])C([H])([H])c2c([H])c(OC([H])([H])C(=O)c3c([H])c([H])c(C(=O)N4C([H])([H])C([H])([H])C([H])([H])C([H])(n5nc(-c6c([H])c([H])c(Oc7c([H])c([H])c(F)c([H])c7F)c([H])c6[H])c(C(=O)N([H])[H])c5N([H])[H])C4([H])[H])c(OC([H])([H])[H])c3[H])c([H])c([H])c2C1([H])[H]

$$$$
79:0:0
     RDKit          3D

 93102  0  0  1  0  0  0  0  0999 V2000
  -29.2290  -24.5030   22.7310 C   0  0  0  0  0  3  0  0  0  0  0  0
  -29.5740  -23.1350   22.7890 C   0  0  0  0  0  3  0  0  0  0  0  0
  -29.9860  -24.6000   20.4200 C   0  0  0  0  0  3  0  0  0  0  0  0
  -29.4360  -25.2450   21.5460 C   0  0  0  0  0  0  0  0  0  0  0  0
  -30.1410  -22.4980   21.6650 C   0  0  0  0  0  0  0  0  0  0  0  0
  -30.3340  -23.2380   20.4770 C   0  0  0  0  0  0  0  0  0  0  0  0
  -30.8680  -22.6390   19.3850 F   0  0  0  0  0  0  0  0  0  0  0  0
  -30.5900  -21.0420   21.7360 C   0  0  0  0  0  2  0  0  0  0  0  0
  -29.5200  -20.0320   21.2650 C   0  0  0  0  0  2  0  0  0  0  0  0
  -31.0760  -14.6160   20.0490 C   0  0  0  0  0  0  0  0  0  0  0  0
  -30.6940  -12.4060   19.0340 C   0  0  0  0  0  2  0  0  0  0  0  0
  -29.7100  -12.5440   17.8560 C   0  0  0  0  0  2  0  0  0  0  0  0
  -28.2590  -12.4240   18.3580 C   0  0  0  0  0  2  0  0  0  0  0  0
  -27.9660  -13.3500   19.5680 C   0  0  0  0  0  3  0  0  0  0  0  0
  -29.0630  -13.2170   20.6500 C   0  0  0  0  0  2  0  0  0  0  0  0
  -30.3630  -13.4580   20.0080 N   0  0  0  0  0  0  0  0  0  0  0  0
  -32.1930  -14.7240   19.5310 O   0  0  0  0  0  0  0  0  0  0  0  0
  -29.5170  -18.0060   19.7000 C   0  0  0  0  0  2  0  0  0  0  0  0
  -29.9000  -17.5880   22.0930 C   0  0  0  0  0  2  0  0  0  0  0  0
  -30.3070  -16.7450   19.3320 C   0  0  0  0  0  2  0  0  0  0  0  0
  -30.6340  -16.2610   21.7660 C   0  0  0  0  0  2  0  0  0  0  0  0
  -30.0960  -18.6220   20.9750 C   0  0  0  0  0  3  0  0  0  0  0  0
  -30.3910  -15.7310   20.4060 N   0  0  0  0  0  0  0  0  0  0  0  0
  -25.6340  -14.0080   20.4350 C   0  0  0  0  0  0  0  0  0  0  0  0
  -24.5650  -13.2560   20.8410 C   0  0  0  0  0  0  0  0  0  0  0  0
  -24.9790  -11.8920   20.7410 C   0  0  0  0  0  0  0  0  0  0  0  0
  -26.6350  -13.1040   20.1170 N   0  0  0  0  0  0  0  0  0  0  0  0
  -26.2480  -11.8260   20.3600 N   0  0  0  0  0  0  0  0  0  0  0  0
  -24.2260  -10.6470   20.9340 C   0  0  0  0  0  0  0  0  0  0  0  0
  -24.6340   -9.6740   21.8710 C   0  0  0  0  0  3  0  0  0  0  0  0
  -23.8820   -8.4920   22.0500 C   0  0  0  0  0  3  0  0  0  0  0  0
  -22.7070   -8.2770   21.2920 C   0  0  0  0  0  0  0  0  0  0  0  0
  -22.3190   -9.2390   20.3420 C   0  0  0  0  0  3  0  0  0  0  0  0
  -23.0710  -10.4120   20.1620 C   0  0  0  0  0  3  0  0  0  0  0  0
  -21.9280   -7.1500   21.3800 O   0  0  0  0  0  0  0  0  0  0  0  0
  -21.7850   -6.4650   22.5600 C   0  0  0  0  0  0  0  0  0  0  0  0
  -21.2950   -7.0870   23.7290 C   0  0  0  0  0  3  0  0  0  0  0  0
  -21.0980   -6.3300   24.9010 C   0  0  0  0  0  3  0  0  0  0  0  0
  -21.3810   -4.9510   24.9050 C   0  0  0  0  0  0  0  0  0  0  0  0
  -21.8640   -4.3280   23.7400 C   0  0  0  0  0  3  0  0  0  0  0  0
  -22.0620   -5.0830   22.5710 C   0  0  0  0  0  0  0  0  0  0  0  0
  -22.5070   -4.4730   21.4460 F   0  0  0  0  0  0  0  0  0  0  0  0
  -21.1850   -4.2220   26.0280 F   0  0  0  0  0  0  0  0  0  0  0  0
  -23.2010  -13.7650   21.2080 C   0  0  0  0  0  0  0  0  0  0  0  0
  -22.5110  -13.0710   22.1070 N   0  0  0  0  0  0  0  0  0  0  0  0
  -22.7610  -14.8110   20.7350 O   0  0  0  0  0  0  0  0  0  0  0  0
  -22.8850  -12.2240   22.5110 H   0  0  0  0  0  0  0  0  0  0  0  0
  -21.5980  -13.3920   22.3960 H   0  0  0  0  0  0  0  0  0  0  0  0
  -25.8360  -15.3780   20.2940 N   0  0  0  0  0  0  0  0  0  0  0  0
  -25.1070  -16.0580   20.4830 H   0  0  0  0  0  0  0  0  0  0  0  0
  -26.7040  -15.8010   19.9880 H   0  0  0  0  0  0  0  0  0  0  0  0
  -29.1160  -26.7310   21.4910 C   0  0  0  0  0  2  0  0  0  0  0  0
  -28.6370  -27.1300   20.2040 O   0  0  0  0  0  0  0  0  0  0  0  0
  -24.6360  -32.0780   23.3920 C   0  0  0  0  0  0  0  0  0  0  0  0
  -27.4690  -27.8530   20.2170 C   0  0  0  0  0  0  0  0  0  0  0  0
  -23.4950  -30.6810   21.6960 C   0  0  0  0  0  3  0  0  0  0  0  0
  -25.0180  -29.2450   20.2360 C   0  0  0  0  0  0  0  0  0  0  0  0
  -26.0000  -31.1480   21.5300 C   0  0  0  0  0  2  0  0  0  0  0  0
  -26.1430  -29.8000   20.8570 C   0  0  0  0  0  0  0  0  0  0  0  0
  -27.3720  -29.1090   20.8540 C   0  0  0  0  0  3  0  0  0  0  0  0
  -26.3390  -27.3140   19.5700 C   0  0  0  0  0  3  0  0  0  0  0  0
  -25.1090  -27.9980   19.5910 C   0  0  0  0  0  3  0  0  0  0  0  0
  -23.7390  -30.0450   20.2990 C   0  0  0  0  0  2  0  0  0  0  0  0
  -24.7270  -31.3160   22.2650 N   0  0  0  0  0  0  0  0  0  0  0  0
  -23.5450  -32.2920   23.9350 O   0  0  0  0  0  0  0  0  0  0  0  0
  -22.8760  -29.6110   22.6220 C   0  0  0  0  0  0  0  0  0  0  0  0
  -21.5650  -29.3700   22.4600 N   0  0  0  0  0  0  0  0  0  0  0  0
  -23.5710  -28.9990   23.4360 O   0  0  0  0  0  0  0  0  0  0  0  0
  -21.0660  -29.9120   21.7690 H   0  0  0  0  0  0  0  0  0  0  0  0
  -18.2460  -27.9870   22.8180 C   0  0  0  0  0  0  0  0  0  0  0  0
  -20.7740  -28.3790   23.1900 C   0  0  0  0  0  3  0  0  0  0  0  0
  -20.9760  -26.9650   22.5980 C   0  0  0  0  0  2  0  0  0  0  0  0
  -19.9300  -26.5970   21.5400 C   0  0  0  0  0  2  0  0  0  0  0  0
  -18.5200  -26.6590   22.1360 C   0  0  0  0  0  2  0  0  0  0  0  0
  -19.3050  -28.8030   23.2980 C   0  0  0  0  0  0  0  0  0  0  0  0
  -18.9960  -30.0450   23.8950 C   0  0  0  0  0  3  0  0  0  0  0  0
  -17.6620  -30.4740   24.0200 C   0  0  0  0  0  3  0  0  0  0  0  0
  -16.6160  -29.6550   23.5570 C   0  0  0  0  0  3  0  0  0  0  0  0
  -16.9090  -28.4140   22.9640 C   0  0  0  0  0  3  0  0  0  0  0  0
  -25.8970  -32.7310   24.0410 C   0  0  0  0  0  3  0  0  0  0  0  0
  -26.3700  -31.9980   25.3550 C   0  0  1  0  0  0  0  0  0  0  0  0
  -25.2350  -31.7700   26.3820 C   0  0  0  0  0  1  0  0  0  0  0  0
  -26.9850  -30.6190   25.0160 C   0  0  0  0  0  1  0  0  0  0  0  0
  -27.4890  -32.8190   26.0370 C   0  0  0  0  0  1  0  0  0  0  0  0
  -25.5710  -34.1360   24.3160 N   0  0  0  0  0  0  0  0  0  0  0  0
  -25.9240  -35.1630   23.5300 C   0  0  0  0  0  0  0  0  0  0  0  0
  -26.6250  -35.0270   22.5240 O   0  0  0  0  0  0  0  0  0  0  0  0
  -24.9460  -34.3110   25.0890 H   0  0  0  0  0  0  0  0  0  0  0  0
  -24.1920  -36.9270   23.0680 C   0  0  0  0  0  1  0  0  0  0  0  0
  -25.4170  -36.5630   23.9240 C   0  0  0  0  0  3  0  0  0  0  0  0
  -27.5260  -37.4940   24.7710 C   0  0  0  0  0  1  0  0  0  0  0  0
  -26.4450  -37.6200   23.7960 N   0  0  0  0  0  0  0  0  0  0  0  0
  -26.0310  -38.5440   23.8980 H   0  0  0  0  0  0  0  0  0  0  0  0
  1  2  1  0
  3  6  2  0
  3  4  1  0
  4  1  2  0
  5  8  1  0
  5  2  2  0
  6  5  1  0
  7  6  1  0
  9  8  1  0
 10 23  1  0
 11 16  1  0
 12 13  1  0
 12 11  1  0
 14 13  1  0
 14 27  1  0
 14 15  1  0
 16 10  1  0
 16 15  1  0
 17 10  2  0
 18 22  1  0
 20 18  1  0
 20 23  1  0
 21 19  1  0
 22  9  1  0
 22 19  1  0
 23 21  1  0
 24 25  2  0
 25 44  1  0
 26 25  1  0
 26 29  1  0
 27 28  1  0
 27 24  1  0
 28 26  2  0
 29 30  1  0
 30 31  2  0
 32 35  1  0
 32 31  1  0
 33 32  2  0
 34 33  1  0
 34 29  2  0
 35 36  1  0
 36 41  2  0
 36 37  1  0
 37 38  2  0
 38 39  1  0
 39 43  1  0
 40 39  2  0
 41 40  1  0
 42 41  1  0
 44 45  1  0
 45 48  1  0
 45 47  1  0
 46 44  2  0
 49 24  1  0
 49 50  1  0
 51 49  1  0
 52  4  1  0
 53 55  1  0
 53 52  1  0
 54 65  2  0
 55 60  1  0
 56 64  1  0
 56 66  1  0
 57 63  1  0
 57 59  1  0
 58 64  1  0
 59 58  1  0
 60 59  2  0
 61 62  1  0
 61 55  2  0
 62 57  2  0
 63 56  1  0
 64 54  1  0
 66 68  2  0
 67 66  1  0
 69 67  1  0
 70 79  2  0
 70 75  1  0
 71 67  1  0
 71 75  1  0
 72 71  1  0
 73 74  1  0
 73 72  1  0
 74 70  1  0
 75 76  2  0
 76 77  1  0
 78 77  2  0
 79 78  1  0
 80 54  1  0
 80 85  1  0
 80 81  1  0
 81 84  1  1
 81 82  1  0
 83 81  1  0
 85 88  1  0
 86 90  1  0
 86 85  1  0
 87 86  2  0
 90 89  1  0
 92 93  1  0
 92 90  1  0
 92 91  1  0
M  ISO  4  10 100  23 100  52 101  53 101
M  END
>  <TORSDO>  (80) 
F 19

>  <SCORE>  (80) 
-13.680

>  <name>  (80) 
79

>  <ligand_id>  (80) 
79

>  <original_smiles>  (80) 
[H]c1c([H])c([H])c2c(c1[H])C([H])([H])C([H])([H])C([H])([H])C2([H])N([H])C(=O)C1([H])N(C(=O)C([H])(N([H])C(=O)C([H])(N([H])C([H])([H])[H])C([H])([H])[H])C(C([H])([H])[H])(C([H])([H])[H])C([H])([H])[H])C([H])([H])c2c([H])c(OC([H])([H])c3c([H])c([H])c(C([H])([H])C([H])([H])C4([H])C([H])([H])C([H])([H])N(C(=O)N5C([H])([H])C([H])([H])C([H])([H])C([H])(n6nc(-c7c([H])c([H])c(Oc8c([H])c([H])c(F)c([H])c8F)c([H])c7[H])c(C(=O)N([H])[H])c6N([H])[H])C5([H])[H])C([H])([H])C4([H])[H])c(F)c3[H])c([H])c([H])c2C1([H])[H]

>  <smiles>  (80) 
[H]c1c([H])c([H])c2c(c1[H])C([H])([H])C([H])([H])C([H])([H])C2([H])N([H])C(=O)C1([H])N(C(=O)C([H])(N([H])C(=O)C([H])(N([H])C([H])([H])[H])C([H])([H])[H])C(C([H])([H])[H])(C([H])([H])[H])C([H])([H])[H])C([H])([H])c2c([H])c(OC([H])([H])c3c([H])c([H])c(C([H])([H])C([H])([H])C4([H])C([H])([H])C([H])([H])N(C(=O)N5C([H])([H])C([H])([H])C([H])([H])C([H])(n6nc(-c7c([H])c([H])c(Oc8c([H])c([H])c(F)c([H])c8F)c([H])c7[H])c(C(=O)N([H])[H])c6N([H])[H])C5([H])[H])C([H])([H])C4([H])[H])c(F)c3[H])c([H])c([H])c2C1([H])[H]

$$$$
80:0:0
     RDKit          3D

 92100  0  0  1  0  0  0  0  0999 V2000
  -27.7610  -19.6530   19.6420 C   0  0  0  0  0  3  0  0  0  0  0  0
  -26.8040  -20.6470   19.3710 C   0  0  0  0  0  3  0  0  0  0  0  0
  -29.2430  -21.3890   20.4740 C   0  0  0  0  0  3  0  0  0  0  0  0
  -29.0000  -19.9850   20.2240 C   0  0  0  0  0  0  0  0  0  0  0  0
  -27.0300  -22.0080   19.6700 C   0  0  0  0  0  0  0  0  0  0  0  0
  -28.2810  -22.4350   20.1960 C   0  0  0  0  0  0  0  0  0  0  0  0
  -25.8630  -22.9580   19.4600 C   0  0  0  0  0  1  0  0  0  0  0  0
  -29.9910  -18.8380   20.6650 C   0  0  0  0  0  3  0  0  0  0  0  0
  -29.9050  -17.3420   20.0640 C   0  0  0  0  0  3  0  0  0  0  0  0
  -30.0560  -15.9420   22.2410 C   0  0  0  0  0  1  0  0  0  0  0  0
  -30.6630  -16.1550   20.8420 C   0  0  1  0  0  0  0  0  0  0  0  0
  -31.0460  -14.8050   20.0400 C   0  0  0  0  0  0  0  0  0  0  0  0
  -30.6970  -12.5830   18.9530 C   0  0  0  0  0  2  0  0  0  0  0  0
  -29.7100  -12.7200   17.7720 C   0  0  0  0  0  2  0  0  0  0  0  0
  -28.2620  -12.5490   18.2650 C   0  0  0  0  0  2  0  0  0  0  0  0
  -27.9650  -13.4160   19.5180 C   0  0  0  0  0  3  0  0  0  0  0  0
  -29.0690  -13.2540   20.5830 C   0  0  0  0  0  2  0  0  0  0  0  0
  -30.3520  -13.6140   19.9660 N   0  0  0  0  0  0  0  0  0  0  0  0
  -32.1210  -14.8860   19.4300 O   0  0  0  0  0  0  0  0  0  0  0  0
  -25.6330  -14.0310   20.3960 C   0  0  0  0  0  0  0  0  0  0  0  0
  -24.5750  -13.2650   20.8020 C   0  0  0  0  0  0  0  0  0  0  0  0
  -25.0060  -11.9060   20.6980 C   0  0  0  0  0  0  0  0  0  0  0  0
  -26.6420  -13.1400   20.0680 N   0  0  0  0  0  0  0  0  0  0  0  0
  -26.2760  -11.8550   20.3120 N   0  0  0  0  0  0  0  0  0  0  0  0
  -24.2680  -10.6510   20.8900 C   0  0  0  0  0  0  0  0  0  0  0  0
  -24.6680   -9.6980   21.8520 C   0  0  0  0  0  3  0  0  0  0  0  0
  -23.9310   -8.5080   22.0300 C   0  0  0  0  0  3  0  0  0  0  0  0
  -22.7780   -8.2640   21.2460 C   0  0  0  0  0  0  0  0  0  0  0  0
  -22.3960   -9.2060   20.2760 C   0  0  0  0  0  3  0  0  0  0  0  0
  -23.1340  -10.3870   20.0970 C   0  0  0  0  0  3  0  0  0  0  0  0
  -22.0150   -7.1240   21.3310 O   0  0  0  0  0  0  0  0  0  0  0  0
  -21.8340   -6.4650   22.5200 C   0  0  0  0  0  0  0  0  0  0  0  0
  -21.2580   -7.0990   23.6430 C   0  0  0  0  0  3  0  0  0  0  0  0
  -21.0280   -6.3650   24.8240 C   0  0  0  0  0  3  0  0  0  0  0  0
  -21.3620   -5.0000   24.8810 C   0  0  0  0  0  0  0  0  0  0  0  0
  -21.9300   -4.3660   23.7620 C   0  0  0  0  0  3  0  0  0  0  0  0
  -22.1630   -5.0960   22.5840 C   0  0  0  0  0  0  0  0  0  0  0  0
  -22.6910   -4.4760   21.5030 F   0  0  0  0  0  0  0  0  0  0  0  0
  -21.1330   -4.2920   26.0120 F   0  0  0  0  0  0  0  0  0  0  0  0
  -23.2060  -13.7580   21.1700 C   0  0  0  0  0  0  0  0  0  0  0  0
  -22.5230  -13.0580   22.0680 N   0  0  0  0  0  0  0  0  0  0  0  0
  -22.7520  -14.7990   20.6960 O   0  0  0  0  0  0  0  0  0  0  0  0
  -22.9020  -12.2150   22.4730 H   0  0  0  0  0  0  0  0  0  0  0  0
  -21.6070  -13.3730   22.3580 H   0  0  0  0  0  0  0  0  0  0  0  0
  -25.8180  -15.4030   20.2570 N   0  0  0  0  0  0  0  0  0  0  0  0
  -25.0790  -16.0720   20.4390 H   0  0  0  0  0  0  0  0  0  0  0  0
  -26.6610  -15.8350   19.9000 H   0  0  0  0  0  0  0  0  0  0  0  0
  -31.9280  -16.7270   21.1330 O   0  0  0  0  0  0  0  0  0  0  0  0
  -32.4850  -16.4060   20.4220 H   0  0  0  0  0  0  0  0  0  0  0  0
  -28.5080  -23.9480   20.6110 C   0  0  0  0  0  3  0  0  0  0  0  0
  -28.3910  -25.1390   19.5450 C   0  0  0  0  0  3  0  0  0  0  0  0
  -28.3450  -26.5490   20.0160 O   0  0  0  0  0  0  0  0  0  0  0  0
  -24.5780  -31.8450   23.1460 C   0  0  0  0  0  0  0  0  0  0  0  0
  -27.1910  -27.3540   19.9810 C   0  0  0  0  0  0  0  0  0  0  0  0
  -23.3700  -30.4810   21.4810 C   0  0  0  0  0  3  0  0  0  0  0  0
  -24.8190  -28.9620   20.0170 C   0  0  0  0  0  0  0  0  0  0  0  0
  -25.9100  -30.8060   21.2950 C   0  0  0  0  0  2  0  0  0  0  0  0
  -25.9870  -29.4400   20.6200 C   0  0  0  0  0  0  0  0  0  0  0  0
  -27.1720  -28.6460   20.5950 C   0  0  0  0  0  3  0  0  0  0  0  0
  -25.9940  -26.9300   19.3580 C   0  0  0  0  0  3  0  0  0  0  0  0
  -24.8250  -27.7140   19.3790 C   0  0  0  0  0  3  0  0  0  0  0  0
  -23.5790  -29.8330   20.0870 C   0  0  0  0  0  2  0  0  0  0  0  0
  -24.6380  -31.0610   22.0310 N   0  0  0  0  0  0  0  0  0  0  0  0
  -23.4970  -32.1090   23.6920 O   0  0  0  0  0  0  0  0  0  0  0  0
  -22.7140  -29.4420   22.4230 C   0  0  0  0  0  0  0  0  0  0  0  0
  -21.3850  -29.2800   22.3110 N   0  0  0  0  0  0  0  0  0  0  0  0
  -23.4010  -28.7850   23.2100 O   0  0  0  0  0  0  0  0  0  0  0  0
  -20.8900  -29.8600   21.6490 H   0  0  0  0  0  0  0  0  0  0  0  0
  -18.0030  -28.1170   22.8490 C   0  0  0  0  0  0  0  0  0  0  0  0
  -20.5710  -28.3270   23.0690 C   0  0  0  0  0  3  0  0  0  0  0  0
  -20.6370  -26.9140   22.4420 C   0  0  0  0  0  2  0  0  0  0  0  0
  -19.5060  -26.6430   21.4440 C   0  0  0  0  0  2  0  0  0  0  0  0
  -18.1420  -26.7890   22.1260 C   0  0  0  0  0  2  0  0  0  0  0  0
  -19.1440  -28.8450   23.2780 C   0  0  0  0  0  0  0  0  0  0  0  0
  -18.9580  -30.0920   23.9180 C   0  0  0  0  0  3  0  0  0  0  0  0
  -17.6650  -30.6070   24.1310 C   0  0  0  0  0  3  0  0  0  0  0  0
  -16.5400  -29.8730   23.7170 C   0  0  0  0  0  3  0  0  0  0  0  0
  -16.7100  -28.6300   23.0820 C   0  0  0  0  0  3  0  0  0  0  0  0
  -25.8630  -32.4670   23.7770 C   0  0  0  0  0  3  0  0  0  0  0  0
  -25.5490  -33.8540   24.1460 N   0  0  0  0  0  0  0  0  0  0  0  0
  -25.8810  -34.9290   23.4190 C   0  0  0  0  0  0  0  0  0  0  0  0
  -26.5540  -34.8580   22.3870 O   0  0  0  0  0  0  0  0  0  0  0  0
  -24.9530  -33.9860   24.9510 H   0  0  0  0  0  0  0  0  0  0  0  0
  -24.1600  -36.7370   23.1020 C   0  0  0  0  0  1  0  0  0  0  0  0
  -25.3900  -36.3040   23.9160 C   0  0  0  0  0  3  0  0  0  0  0  0
  -27.5110  -37.1620   24.8090 C   0  0  0  0  0  1  0  0  0  0  0  0
  -26.4250  -37.3580   23.8510 N   0  0  0  0  0  0  0  0  0  0  0  0
  -26.0180  -38.2750   24.0150 H   0  0  0  0  0  0  0  0  0  0  0  0
  -26.3910  -31.6640   25.0290 C   0  0  1  0  0  0  0  0  0  0  0  0
  -25.3060  -31.3920   26.0980 C   0  0  0  0  0  1  0  0  0  0  0  0
  -26.9790  -30.3010   24.5980 C   0  0  0  0  0  1  0  0  0  0  0  0
  -27.5420  -32.4470   25.7040 C   0  0  0  0  0  1  0  0  0  0  0  0
  1  4  1  0
  2  1  2  0
  2  5  1  0
  4  3  2  0
  4  8  1  0
  5  6  2  0
  6  3  1  0
  6 50  1  0
  7  5  1  0
  9  8  2  0
  9 11  1  0
 11 48  1  0
 11 10  1  1
 12 11  1  0
 13 18  1  0
 14 15  1  0
 14 13  1  0
 16 15  1  0
 16 23  1  0
 16 17  1  0
 18 12  1  0
 18 17  1  0
 19 12  2  0
 20 21  2  0
 21 40  1  0
 22 21  1  0
 22 25  1  0
 23 24  1  0
 23 20  1  0
 24 22  2  0
 25 26  1  0
 26 27  2  0
 28 31  1  0
 28 27  1  0
 29 28  2  0
 30 29  1  0
 30 25  2  0
 31 32  1  0
 32 37  2  0
 32 33  1  0
 33 34  2  0
 34 35  1  0
 35 39  1  0
 36 35  2  0
 37 36  1  0
 38 37  1  0
 40 41  1  0
 41 44  1  0
 41 43  1  0
 42 40  2  0
 45 20  1  0
 45 46  1  0
 47 45  1  0
 49 48  1  0
 51 52  1  0
 51 50  2  0
 53 64  2  0
 54 52  1  0
 54 59  1  0
 55 63  1  0
 55 65  1  0
 56 62  1  0
 56 58  1  0
 57 63  1  0
 58 57  1  0
 59 58  2  0
 60 61  1  0
 60 54  2  0
 61 56  2  0
 62 55  1  0
 63 53  1  0
 65 67  2  0
 66 65  1  0
 68 66  1  0
 69 78  2  0
 69 74  1  0
 70 66  1  0
 70 74  1  0
 71 70  1  0
 72 73  1  0
 72 71  1  0
 73 69  1  0
 74 75  2  0
 75 76  1  0
 77 76  2  0
 78 77  1  0
 79 53  1  0
 79 80  1  0
 79 89  1  0
 80 83  1  0
 81 85  1  0
 81 80  1  0
 82 81  2  0
 85 84  1  0
 87 85  1  0
 87 88  1  0
 87 86  1  0
 89 92  1  1
 89 90  1  0
 91 89  1  0
M  ISO  4  11 100  12 100  51 101  52 101
M  END
>  <TORSDO>  (81) 
F 22

>  <SCORE>  (81) 
-12.267

>  <name>  (81) 
80

>  <ligand_id>  (81) 
80

>  <original_smiles>  (81) 
[H]OC(C(=O)N1C([H])([H])C([H])([H])C([H])([H])C([H])(n2nc(-c3c([H])c([H])c(Oc4c([H])c([H])c(F)c([H])c4F)c([H])c3[H])c(C(=O)N([H])[H])c2N([H])[H])C1([H])[H])(C([H])([H])[H])C([H])([H])C([H])([H])c1c([H])c([H])c(C([H])([H])[H])c(C([H])([H])C([H])([H])Oc2c([H])c([H])c3c(c2[H])C([H])([H])N(C(=O)C([H])(N([H])C(=O)C([H])(N([H])C([H])([H])[H])C([H])([H])[H])C(C([H])([H])[H])(C([H])([H])[H])C([H])([H])[H])C([H])(C(=O)N([H])C2([H])c4c([H])c([H])c([H])c([H])c4C([H])([H])C([H])([H])C2([H])[H])C3([H])[H])c1[H]

>  <smiles>  (81) 
[H]OC(C(=O)N1C([H])([H])C([H])([H])C([H])([H])C([H])(n2nc(-c3c([H])c([H])c(Oc4c([H])c([H])c(F)c([H])c4F)c([H])c3[H])c(C(=O)N([H])[H])c2N([H])[H])C1([H])[H])(C([H])([H])[H])C([H])([H])C([H])([H])c1c([H])c([H])c(C([H])([H])[H])c(C([H])([H])C([H])([H])Oc2c([H])c([H])c3c(c2[H])C([H])([H])N(C(=O)C([H])(N([H])C(=O)C([H])(N([H])C([H])([H])[H])C([H])([H])[H])C(C([H])([H])[H])(C([H])([H])[H])C([H])([H])[H])C([H])(C(=O)N([H])C2([H])c4c([H])c([H])c([H])c([H])c4C([H])([H])C([H])([H])C2([H])[H])C3([H])[H])c1[H]

$$$$
81:0:0
     RDKit          3D

 91 99  0  0  1  0  0  0  0  0999 V2000
  -29.2700  -21.6380   18.5750 C   0  0  0  0  0  3  0  0  0  0  0  0
  -29.2160  -22.8840   17.9040 C   0  0  0  0  0  3  0  0  0  0  0  0
  -28.4870  -22.8870   20.4870 C   0  0  0  0  0  3  0  0  0  0  0  0
  -28.9280  -21.4850   19.9260 C   0  0  0  0  0  0  0  0  0  0  0  0
  -28.8110  -24.1410   18.4530 C   0  0  0  0  0  0  0  0  0  0  0  0
  -28.3810  -24.3020   19.8100 C   0  0  0  0  0  0  0  0  0  0  0  0
  -28.2910  -25.1170   16.1490 C   0  0  0  0  0  1  0  0  0  0  0  0
  -30.4550  -25.6780   17.3430 C   0  0  0  0  0  1  0  0  0  0  0  0
  -28.9640  -25.3400   17.5170 C   0  0  0  0  0  3  0  0  0  0  0  0
  -29.0380  -19.8290   20.4780 C   0  0  0  0  0  0  0  0  0  0  0  0
  -28.4320  -19.5910   21.5270 O   0  0  0  0  0  0  0  0  0  0  0  0
  -29.8640  -18.3770   19.8600 C   0  0  0  0  0  2  0  0  0  0  0  0
  -30.4200  -15.4270   19.8910 C   0  0  0  0  0  0  0  0  0  0  0  0
  -30.3570  -12.9860   18.9490 C   0  0  0  0  0  2  0  0  0  0  0  0
  -29.3620  -12.7760   17.7740 C   0  0  0  0  0  2  0  0  0  0  0  0
  -27.9480  -12.4820   18.3040 C   0  0  0  0  0  2  0  0  0  0  0  0
  -27.5680  -13.4190   19.4760 C   0  0  0  0  0  3  0  0  0  0  0  0
  -28.6840  -13.5600   20.5340 C   0  0  0  0  0  2  0  0  0  0  0  0
  -29.8620  -14.1090   19.8420 N   0  0  0  0  0  0  0  0  0  0  0  0
  -31.6120  -15.4290   19.5430 O   0  0  0  0  0  0  0  0  0  0  0  0
  -29.6770  -16.7090   20.1330 N   0  0  0  0  0  0  0  0  0  0  0  0
  -28.7360  -16.5180   20.4440 H   0  0  0  0  0  0  0  0  0  0  0  0
  -25.2550  -13.9500   20.3920 C   0  0  0  0  0  0  0  0  0  0  0  0
  -24.2230  -13.1600   20.8130 C   0  0  0  0  0  0  0  0  0  0  0  0
  -24.6910  -11.8120   20.7250 C   0  0  0  0  0  0  0  0  0  0  0  0
  -26.2810  -13.0840   20.0630 N   0  0  0  0  0  0  0  0  0  0  0  0
  -25.9610  -11.7900   20.3310 N   0  0  0  0  0  0  0  0  0  0  0  0
  -23.9800  -10.5430   20.9320 C   0  0  0  0  0  0  0  0  0  0  0  0
  -24.4460   -9.5790   21.8550 C   0  0  0  0  0  3  0  0  0  0  0  0
  -23.7330   -8.3770   22.0550 C   0  0  0  0  0  3  0  0  0  0  0  0
  -22.5400   -8.1310   21.3360 C   0  0  0  0  0  0  0  0  0  0  0  0
  -22.0940   -9.0830   20.4040 C   0  0  0  0  0  3  0  0  0  0  0  0
  -22.8050  -10.2770   20.2010 C   0  0  0  0  0  3  0  0  0  0  0  0
  -21.7960   -6.9800   21.4460 O   0  0  0  0  0  0  0  0  0  0  0  0
  -21.7580   -6.2590   22.6120 C   0  0  0  0  0  0  0  0  0  0  0  0
  -21.3000   -6.8220   23.8240 C   0  0  0  0  0  3  0  0  0  0  0  0
  -21.2150   -6.0230   24.9830 C   0  0  0  0  0  3  0  0  0  0  0  0
  -21.5760   -4.6620   24.9290 C   0  0  0  0  0  0  0  0  0  0  0  0
  -22.0220   -4.0990   23.7210 C   0  0  0  0  0  3  0  0  0  0  0  0
  -22.1120   -4.8960   22.5660 C   0  0  0  0  0  0  0  0  0  0  0  0
  -22.5250   -4.3440   21.3990 F   0  0  0  0  0  0  0  0  0  0  0  0
  -21.4840   -3.8930   26.0370 F   0  0  0  0  0  0  0  0  0  0  0  0
  -22.8440  -13.6230   21.1770 C   0  0  0  0  0  0  0  0  0  0  0  0
  -22.1740  -12.9050   22.0730 N   0  0  0  0  0  0  0  0  0  0  0  0
  -22.3750  -14.6570   20.7040 O   0  0  0  0  0  0  0  0  0  0  0  0
  -22.5750  -12.0680   22.4710 H   0  0  0  0  0  0  0  0  0  0  0  0
  -21.2490  -13.1900   22.3600 H   0  0  0  0  0  0  0  0  0  0  0  0
  -25.4030  -15.3240   20.2280 N   0  0  0  0  0  0  0  0  0  0  0  0
  -24.6420  -15.9690   20.4080 H   0  0  0  0  0  0  0  0  0  0  0  0
  -26.2030  -15.7650   19.7930 H   0  0  0  0  0  0  0  0  0  0  0  0
  -28.2140  -25.7820   20.3020 O   0  0  0  0  0  0  0  0  0  0  0  0
  -24.6220  -31.8150   23.2090 C   0  0  0  0  0  0  0  0  0  0  0  0
  -27.2140  -26.9140   20.1600 C   0  0  0  0  0  0  0  0  0  0  0  0
  -23.4540  -30.4480   21.5270 C   0  0  0  0  0  3  0  0  0  0  0  0
  -24.9240  -28.8480   20.0990 C   0  0  0  0  0  0  0  0  0  0  0  0
  -26.0250  -30.6350   21.4330 C   0  0  0  0  0  2  0  0  0  0  0  0
  -26.1020  -29.2260   20.7560 C   0  0  0  0  0  0  0  0  0  0  0  0
  -27.2320  -28.2800   20.7640 C   0  0  0  0  0  3  0  0  0  0  0  0
  -26.0150  -26.7130   19.4360 C   0  0  0  0  0  3  0  0  0  0  0  0
  -24.9110  -27.6170   19.4180 C   0  0  0  0  0  3  0  0  0  0  0  0
  -23.7130  -29.7850   20.1420 C   0  0  0  0  0  2  0  0  0  0  0  0
  -24.7210  -30.9950   22.1120 N   0  0  0  0  0  0  0  0  0  0  0  0
  -23.5230  -32.0980   23.7150 O   0  0  0  0  0  0  0  0  0  0  0  0
  -22.7380  -29.4420   22.4670 C   0  0  0  0  0  0  0  0  0  0  0  0
  -21.4050  -29.2990   22.3380 N   0  0  0  0  0  0  0  0  0  0  0  0
  -23.3910  -28.7920   23.2870 O   0  0  0  0  0  0  0  0  0  0  0  0
  -20.9300  -29.8820   21.6610 H   0  0  0  0  0  0  0  0  0  0  0  0
  -18.0080  -28.1100   22.8110 C   0  0  0  0  0  0  0  0  0  0  0  0
  -20.5690  -28.3530   23.0850 C   0  0  0  0  0  3  0  0  0  0  0  0
  -20.6620  -26.9310   22.4810 C   0  0  0  0  0  2  0  0  0  0  0  0
  -19.5600  -26.6390   21.4570 C   0  0  0  0  0  2  0  0  0  0  0  0
  -18.1770  -26.7790   22.1000 C   0  0  0  0  0  2  0  0  0  0  0  0
  -19.1320  -28.8560   23.2620 C   0  0  0  0  0  0  0  0  0  0  0  0
  -18.9170  -30.0990   23.8940 C   0  0  0  0  0  3  0  0  0  0  0  0
  -17.6140  -30.6010   24.0760 C   0  0  0  0  0  3  0  0  0  0  0  0
  -16.5060  -29.8550   23.6360 C   0  0  0  0  0  3  0  0  0  0  0  0
  -16.7040  -28.6110   23.0130 C   0  0  0  0  0  3  0  0  0  0  0  0
  -25.8800  -32.4520   23.8730 C   0  0  0  0  0  3  0  0  0  0  0  0
  -26.3490  -31.6850   25.1720 C   0  0  1  0  0  0  0  0  0  0  0  0
  -25.2220  -31.4630   26.2050 C   0  0  0  0  0  1  0  0  0  0  0  0
  -26.9340  -30.3010   24.8100 C   0  0  0  0  0  1  0  0  0  0  0  0
  -27.4850  -32.4750   25.8660 C   0  0  0  0  0  1  0  0  0  0  0  0
  -25.5620  -33.8520   24.2070 N   0  0  0  0  0  0  0  0  0  0  0  0
  -25.9030  -34.9190   23.4700 C   0  0  0  0  0  0  0  0  0  0  0  0
  -26.5810  -34.8270   22.4440 O   0  0  0  0  0  0  0  0  0  0  0  0
  -24.9720  -33.9990   25.0110 H   0  0  0  0  0  0  0  0  0  0  0  0
  -24.1860  -36.7310   23.1350 C   0  0  0  0  0  1  0  0  0  0  0  0
  -25.4230  -36.3050   23.9450 C   0  0  0  0  0  3  0  0  0  0  0  0
  -27.5520  -37.1820   24.8000 C   0  0  0  0  0  1  0  0  0  0  0  0
  -26.4580  -37.3580   23.8490 N   0  0  0  0  0  0  0  0  0  0  0  0
  -26.0520  -38.2770   24.0000 H   0  0  0  0  0  0  0  0  0  0  0  0
  1  4  1  0
  2  5  1  0
  2  1  2  0
  4 10  1  0
  4  3  2  0
  5  6  2  0
  6 51  1  0
  6  3  1  0
  7  9  1  0
  8  9  1  0
  9  5  1  0
 10 11  2  0
 12 21  1  0
 12 10  1  0
 13 21  1  0
 14 19  1  0
 15 16  1  0
 15 14  1  0
 17 16  1  0
 17 26  1  0
 17 18  1  0
 19 13  1  0
 19 18  1  0
 20 13  2  0
 21 22  1  0
 23 24  2  0
 24 43  1  0
 25 24  1  0
 25 28  1  0
 26 27  1  0
 26 23  1  0
 27 25  2  0
 28 29  1  0
 29 30  2  0
 31 34  1  0
 31 30  1  0
 32 31  2  0
 33 32  1  0
 33 28  2  0
 34 35  1  0
 35 36  1  0
 36 37  2  0
 38 37  1  0
 38 42  1  0
 39 38  2  0
 40 35  2  0
 40 39  1  0
 41 40  1  0
 43 44  1  0
 44 47  1  0
 44 46  1  0
 45 43  2  0
 48 23  1  0
 48 49  1  0
 50 48  1  0
 52 63  2  0
 53 51  1  0
 53 58  1  0
 54 62  1  0
 54 64  1  0
 55 61  1  0
 55 57  1  0
 56 62  1  0
 57 58  2  0
 57 56  1  0
 59 53  2  0
 60 59  1  0
 60 55  2  0
 61 54  1  0
 62 52  1  0
 64 66  2  0
 65 64  1  0
 67 65  1  0
 68 77  2  0
 68 73  1  0
 69 65  1  0
 69 73  1  0
 70 69  1  0
 71 72  1  0
 71 70  1  0
 72 68  1  0
 73 74  2  0
 74 75  1  0
 76 75  2  0
 77 76  1  0
 78 52  1  0
 78 83  1  0
 78 79  1  0
 79 82  1  1
 79 80  1  0
 81 79  1  0
 83 86  1  0
 84 88  1  0
 84 83  1  0
 85 84  2  0
 88 87  1  0
 90 88  1  0
 90 91  1  0
 90 89  1  0
M  ISO  4   6 101  13 100  21 100  51 101
M  END
>  <TORSDO>  (82) 
F 19

>  <SCORE>  (82) 
-14.471

>  <name>  (82) 
81

>  <ligand_id>  (82) 
81

>  <original_smiles>  (82) 
[H]c1c([H])c([H])c2c(c1[H])C([H])([H])C([H])([H])C([H])([H])C2([H])N([H])C(=O)C1([H])N(C(=O)C([H])(N([H])C(=O)C([H])(N([H])C([H])([H])[H])C([H])([H])[H])C(C([H])([H])[H])(C([H])([H])[H])C([H])([H])[H])C([H])([H])c2c([H])c(Oc3c([H])c(C(=O)C([H])([H])N([H])C(=O)N4C([H])([H])C([H])([H])C([H])([H])C([H])(n5nc(-c6c([H])c([H])c(Oc7c([H])c([H])c(F)c([H])c7F)c([H])c6[H])c(C(=O)N([H])[H])c5N([H])[H])C4([H])[H])c([H])c([H])c3C([H])(C([H])([H])[H])C([H])([H])[H])c([H])c([H])c2C1([H])[H]

>  <smiles>  (82) 
[H]c1c([H])c([H])c2c(c1[H])C([H])([H])C([H])([H])C([H])([H])C2([H])N([H])C(=O)C1([H])N(C(=O)C([H])(N([H])C(=O)C([H])(N([H])C([H])([H])[H])C([H])([H])[H])C(C([H])([H])[H])(C([H])([H])[H])C([H])([H])[H])C([H])([H])c2c([H])c(Oc3c([H])c(C(=O)C([H])([H])N([H])C(=O)N4C([H])([H])C([H])([H])C([H])([H])C([H])(n5nc(-c6c([H])c([H])c(Oc7c([H])c([H])c(F)c([H])c7F)c([H])c6[H])c(C(=O)N([H])[H])c5N([H])[H])C4([H])[H])c([H])c([H])c3C([H])(C([H])([H])[H])C([H])([H])[H])c([H])c([H])c2C1([H])[H]

$$$$
82:0:0
     RDKit          3D

 91 99  0  0  1  0  0  0  0  0999 V2000
  -29.3030  -22.3630   21.9800 C   0  0  0  0  0  3  0  0  0  0  0  0
  -29.3350  -23.6260   22.6140 C   0  0  0  0  0  3  0  0  0  0  0  0
  -28.8360  -22.1870   20.6650 C   0  0  0  0  0  0  0  0  0  0  0  0
  -28.4230  -23.4810   20.0130 C   0  0  0  0  0  0  0  0  0  0  0  0
  -28.9210  -24.8370   21.9870 C   0  0  0  0  0  0  0  0  0  0  0  0
  -28.4490  -24.8450   20.6530 C   0  0  0  0  0  0  0  0  0  0  0  0
  -27.9250  -23.4070   18.5840 C   0  0  0  0  0  1  0  0  0  0  0  0
  -29.4070  -26.1230   23.9700 C   0  0  0  0  0  1  0  0  0  0  0  0
  -28.9880  -26.0650   22.6120 O   0  0  0  0  0  0  0  0  0  0  0  0
  -28.2870  -26.2020   20.0810 O   0  0  0  0  0  0  0  0  0  0  0  0
  -24.6160  -31.9020   23.1890 C   0  0  0  0  0  0  0  0  0  0  0  0
  -27.1990  -27.1490   20.1940 C   0  0  0  0  0  0  0  0  0  0  0  0
  -23.4190  -30.4950   21.5570 C   0  0  0  0  0  3  0  0  0  0  0  0
  -24.8670  -28.9010   20.1520 C   0  0  0  0  0  0  0  0  0  0  0  0
  -25.9730  -30.7550   21.3920 C   0  0  0  0  0  2  0  0  0  0  0  0
  -26.0480  -29.3520   20.7600 C   0  0  0  0  0  0  0  0  0  0  0  0
  -27.2150  -28.4920   20.7610 C   0  0  0  0  0  3  0  0  0  0  0  0
  -25.9910  -26.8020   19.5570 C   0  0  0  0  0  3  0  0  0  0  0  0
  -24.8520  -27.6380   19.5390 C   0  0  0  0  0  3  0  0  0  0  0  0
  -23.6420  -29.8050   20.1860 C   0  0  0  0  0  2  0  0  0  0  0  0
  -24.6900  -31.0750   22.1000 N   0  0  0  0  0  0  0  0  0  0  0  0
  -23.5300  -32.1870   23.7160 O   0  0  0  0  0  0  0  0  0  0  0  0
  -22.7400  -29.4940   22.5270 C   0  0  0  0  0  0  0  0  0  0  0  0
  -21.4100  -29.3300   22.4100 N   0  0  0  0  0  0  0  0  0  0  0  0
  -23.4140  -28.8660   23.3470 O   0  0  0  0  0  0  0  0  0  0  0  0
  -20.9220  -29.8870   21.7220 H   0  0  0  0  0  0  0  0  0  0  0  0
  -18.0280  -28.1470   22.9440 C   0  0  0  0  0  0  0  0  0  0  0  0
  -20.5900  -28.3970   23.1880 C   0  0  0  0  0  3  0  0  0  0  0  0
  -20.6790  -26.9650   22.6120 C   0  0  0  0  0  2  0  0  0  0  0  0
  -19.5660  -26.6490   21.6060 C   0  0  0  0  0  2  0  0  0  0  0  0
  -18.1910  -26.7990   22.2640 C   0  0  0  0  0  2  0  0  0  0  0  0
  -19.1530  -28.9040   23.3640 C   0  0  0  0  0  0  0  0  0  0  0  0
  -18.9440  -30.1660   23.9620 C   0  0  0  0  0  3  0  0  0  0  0  0
  -17.6430  -30.6710   24.1440 C   0  0  0  0  0  3  0  0  0  0  0  0
  -16.5320  -29.9110   23.7390 C   0  0  0  0  0  3  0  0  0  0  0  0
  -16.7250  -28.6510   23.1450 C   0  0  0  0  0  3  0  0  0  0  0  0
  -25.8930  -32.5440   23.8130 C   0  0  0  0  0  3  0  0  0  0  0  0
  -26.4100  -31.7770   25.0920 C   0  0  1  0  0  0  0  0  0  0  0  0
  -25.3170  -31.5400   26.1600 C   0  0  0  0  0  1  0  0  0  0  0  0
  -26.9980  -30.3990   24.7090 C   0  0  0  0  0  1  0  0  0  0  0  0
  -27.5590  -32.5760   25.7530 C   0  0  0  0  0  1  0  0  0  0  0  0
  -25.5740  -33.9420   24.1480 N   0  0  0  0  0  0  0  0  0  0  0  0
  -25.9050  -35.0020   23.4000 C   0  0  0  0  0  0  0  0  0  0  0  0
  -26.5770  -34.9090   22.3700 O   0  0  0  0  0  0  0  0  0  0  0  0
  -24.9780  -34.0870   24.9490 H   0  0  0  0  0  0  0  0  0  0  0  0
  -24.1800  -36.8030   23.0550 C   0  0  0  0  0  1  0  0  0  0  0  0
  -25.4150  -36.3880   23.8700 C   0  0  0  0  0  3  0  0  0  0  0  0
  -27.5450  -37.2670   24.7220 C   0  0  0  0  0  1  0  0  0  0  0  0
  -26.4490  -37.4430   23.7720 N   0  0  0  0  0  0  0  0  0  0  0  0
  -26.0420  -38.3610   23.9250 H   0  0  0  0  0  0  0  0  0  0  0  0
  -28.6210  -20.5930   20.2000 C   0  0  0  0  0  2  0  0  0  0  0  0
  -29.6980  -19.2720   19.9900 C   0  0  0  0  0  2  0  0  0  0  0  0
  -29.8530  -17.7830   20.8210 C   0  0  0  0  0  2  0  0  0  0  0  0
  -30.5350  -15.0860   20.2300 C   0  0  0  0  0  0  0  0  0  0  0  0
  -30.4470  -12.7330   19.2460 C   0  0  0  0  0  2  0  0  0  0  0  0
  -29.4940  -12.6570   18.0290 C   0  0  0  0  0  2  0  0  0  0  0  0
  -28.0380  -12.4280   18.4830 C   0  0  0  0  0  2  0  0  0  0  0  0
  -27.6350  -13.3480   19.6650 C   0  0  0  0  0  3  0  0  0  0  0  0
  -28.7060  -13.3710   20.7730 C   0  0  0  0  0  2  0  0  0  0  0  0
  -29.9530  -13.8190   20.1390 N   0  0  0  0  0  0  0  0  0  0  0  0
  -31.7540  -15.1520   20.0390 O   0  0  0  0  0  0  0  0  0  0  0  0
  -29.7190  -16.2640   20.3220 N   0  0  0  0  0  0  0  0  0  0  0  0
  -28.7470  -15.9990   20.2520 H   0  0  0  0  0  0  0  0  0  0  0  0
  -25.2600  -13.9110   20.4260 C   0  0  0  0  0  0  0  0  0  0  0  0
  -24.2040  -13.1300   20.8080 C   0  0  0  0  0  0  0  0  0  0  0  0
  -24.6800  -11.7820   20.7810 C   0  0  0  0  0  0  0  0  0  0  0  0
  -26.3070  -13.0400   20.1810 N   0  0  0  0  0  0  0  0  0  0  0  0
  -25.9690  -11.7550   20.4630 N   0  0  0  0  0  0  0  0  0  0  0  0
  -23.9640  -10.5170   20.9810 C   0  0  0  0  0  0  0  0  0  0  0  0
  -24.4040   -9.5580   21.9210 C   0  0  0  0  0  3  0  0  0  0  0  0
  -23.6860   -8.3580   22.1090 C   0  0  0  0  0  3  0  0  0  0  0  0
  -22.5130   -8.1070   21.3560 C   0  0  0  0  0  0  0  0  0  0  0  0
  -22.0930   -9.0530   20.4060 C   0  0  0  0  0  3  0  0  0  0  0  0
  -22.8120  -10.2450   20.2160 C   0  0  0  0  0  3  0  0  0  0  0  0
  -21.7660   -6.9580   21.4540 O   0  0  0  0  0  0  0  0  0  0  0  0
  -21.7180   -6.2260   22.6140 C   0  0  0  0  0  0  0  0  0  0  0  0
  -21.2790   -6.7890   23.8320 C   0  0  0  0  0  3  0  0  0  0  0  0
  -21.1800   -5.9840   24.9840 C   0  0  0  0  0  3  0  0  0  0  0  0
  -21.5090   -4.6160   24.9180 C   0  0  0  0  0  0  0  0  0  0  0  0
  -21.9400   -4.0530   23.7060 C   0  0  0  0  0  3  0  0  0  0  0  0
  -22.0410   -4.8550   22.5550 C   0  0  0  0  0  0  0  0  0  0  0  0
  -22.4370   -4.3030   21.3830 F   0  0  0  0  0  0  0  0  0  0  0  0
  -21.4050   -3.8410   26.0230 F   0  0  0  0  0  0  0  0  0  0  0  0
  -22.8050  -13.5980   21.0810 C   0  0  0  0  0  0  0  0  0  0  0  0
  -22.0840  -12.9010   21.9520 N   0  0  0  0  0  0  0  0  0  0  0  0
  -22.3600  -14.6200   20.5580 O   0  0  0  0  0  0  0  0  0  0  0  0
  -22.4590  -12.0760   22.3960 H   0  0  0  0  0  0  0  0  0  0  0  0
  -21.1460  -13.1970   22.1780 H   0  0  0  0  0  0  0  0  0  0  0  0
  -25.4080  -15.2830   20.2380 N   0  0  0  0  0  0  0  0  0  0  0  0
  -24.6280  -15.9230   20.3460 H   0  0  0  0  0  0  0  0  0  0  0  0
  -26.2330  -15.7280   19.8610 H   0  0  0  0  0  0  0  0  0  0  0  0
  1  2  1  0
  3  1  2  0
  4  6  2  0
  4  3  1  0
  5  9  1  0
  5  2  2  0
  6  5  1  0
  7  4  1  0
  9  8  1  0
 10 12  1  0
 10  6  1  0
 11 22  2  0
 12 17  1  0
 13 21  1  0
 13 23  1  0
 14 20  1  0
 14 16  1  0
 15 21  1  0
 16 17  2  0
 16 15  1  0
 18 12  2  0
 19 18  1  0
 19 14  2  0
 20 13  1  0
 21 11  1  0
 23 25  2  0
 24 23  1  0
 26 24  1  0
 27 36  2  0
 27 32  1  0
 28 24  1  0
 28 32  1  0
 29 28  1  0
 30 31  1  0
 30 29  1  0
 31 27  1  0
 32 33  2  0
 33 34  1  0
 35 34  2  0
 36 35  1  0
 37 11  1  0
 37 42  1  0
 37 38  1  0
 38 41  1  1
 38 39  1  0
 40 38  1  0
 42 45  1  0
 43 47  1  0
 43 42  1  0
 44 43  2  0
 47 46  1  0
 49 47  1  0
 49 50  1  0
 49 48  1  0
 51  3  1  0
 52 51  1  0
 52 53  1  0
 54 62  1  0
 55 60  1  0
 56 57  1  0
 56 55  1  0
 58 57  1  0
 58 67  1  0
 58 59  1  0
 60 54  1  0
 60 59  1  0
 61 54  2  0
 62 53  1  0
 63 62  1  0
 64 65  2  0
 65 84  1  0
 66 65  1  0
 66 69  1  0
 67 64  1  0
 67 68  1  0
 68 66  2  0
 69 70  1  0
 70 71  2  0
 72 75  1  0
 72 71  1  0
 73 72  2  0
 74 73  1  0
 74 69  2  0
 75 76  1  0
 76 77  1  0
 77 78  2  0
 79 78  1  0
 79 83  1  0
 80 79  2  0
 81 76  2  0
 81 80  1  0
 82 81  1  0
 84 85  1  0
 85 88  1  0
 85 87  1  0
 86 84  2  0
 89 90  1  0
 89 64  1  0
 91 89  1  0
M  ISO  4   6 101  10 101  54 100  62 100
M  END
>  <TORSDO>  (83) 
F 20

>  <SCORE>  (83) 
-15.167

>  <name>  (83) 
82

>  <ligand_id>  (83) 
82

>  <original_smiles>  (83) 
[H]c1c([H])c([H])c2c(c1[H])C([H])([H])C([H])([H])C([H])([H])C2([H])N([H])C(=O)C1([H])N(C(=O)C([H])(N([H])C(=O)C([H])(N([H])C([H])([H])[H])C([H])([H])[H])C(C([H])([H])[H])(C([H])([H])[H])C([H])([H])[H])C([H])([H])c2c([H])c(Oc3c(OC([H])([H])[H])c([H])c([H])c(C([H])([H])C([H])([H])C([H])([H])N([H])C(=O)N4C([H])([H])C([H])([H])C([H])([H])C([H])(n5nc(-c6c([H])c([H])c(Oc7c([H])c([H])c(F)c([H])c7F)c([H])c6[H])c(C(=O)N([H])[H])c5N([H])[H])C4([H])[H])c3C([H])([H])[H])c([H])c([H])c2C1([H])[H]

>  <smiles>  (83) 
[H]c1c([H])c([H])c2c(c1[H])C([H])([H])C([H])([H])C([H])([H])C2([H])N([H])C(=O)C1([H])N(C(=O)C([H])(N([H])C(=O)C([H])(N([H])C([H])([H])[H])C([H])([H])[H])C(C([H])([H])[H])(C([H])([H])[H])C([H])([H])[H])C([H])([H])c2c([H])c(Oc3c(OC([H])([H])[H])c([H])c([H])c(C([H])([H])C([H])([H])C([H])([H])N([H])C(=O)N4C([H])([H])C([H])([H])C([H])([H])C([H])(n5nc(-c6c([H])c([H])c(Oc7c([H])c([H])c(F)c([H])c7F)c([H])c6[H])c(C(=O)N([H])[H])c5N([H])[H])C4([H])[H])c3C([H])([H])[H])c([H])c([H])c2C1([H])[H]

$$$$
83:0:0
     RDKit          3D

 91 98  0  0  1  0  0  0  0  0999 V2000
  -30.2840  -22.0910   18.7200 C   0  0  0  0  0  0  0  0  0  0  0  0
  -30.3230  -23.2880   18.1160 N   0  0  0  0  0  0  0  0  0  0  0  0
  -29.2270  -21.5690   19.0800 O   0  0  0  0  0  0  0  0  0  0  0  0
  -31.2340  -23.6380   17.8500 H   0  0  0  0  0  0  0  0  0  0  0  0
  -31.6340  -21.3770   18.8950 C   0  0  0  0  0  2  0  0  0  0  0  0
  -31.6660  -20.1470   19.8330 C   0  0  0  0  0  2  0  0  0  0  0  0
  -30.8540  -18.9250   19.3540 C   0  0  0  0  0  2  0  0  0  0  0  0
  -31.2310  -17.6030   20.0470 C   0  0  0  0  0  2  0  0  0  0  0  0
  -30.0840  -16.5740   19.9180 C   0  0  0  0  0  2  0  0  0  0  0  0
  -30.9080  -14.2590   19.9560 C   0  0  0  0  0  0  0  0  0  0  0  0
  -30.4310  -12.1760   18.7200 C   0  0  0  0  0  2  0  0  0  0  0  0
  -29.4260  -12.4590   17.5820 C   0  0  0  0  0  2  0  0  0  0  0  0
  -27.9720  -12.3740   18.0890 C   0  0  0  0  0  2  0  0  0  0  0  0
  -27.7500  -13.1850   19.3930 C   0  0  0  0  0  3  0  0  0  0  0  0
  -28.8460  -12.8470   20.4230 C   0  0  0  0  0  2  0  0  0  0  0  0
  -30.1610  -13.1260   19.8120 N   0  0  0  0  0  0  0  0  0  0  0  0
  -31.9490  -14.4460   19.3150 O   0  0  0  0  0  0  0  0  0  0  0  0
  -30.0690  -15.3220   22.0420 C   0  0  0  0  0  1  0  0  0  0  0  0
  -30.3080  -15.2900   20.5960 N   0  0  0  0  0  0  0  0  0  0  0  0
  -25.4140  -13.8930   20.2150 C   0  0  0  0  0  0  0  0  0  0  0  0
  -24.3380  -13.1660   20.6530 C   0  0  0  0  0  0  0  0  0  0  0  0
  -24.7450  -11.7980   20.6130 C   0  0  0  0  0  0  0  0  0  0  0  0
  -26.4120  -12.9680   19.9410 N   0  0  0  0  0  0  0  0  0  0  0  0
  -26.0140  -11.7050   20.2330 N   0  0  0  0  0  0  0  0  0  0  0  0
  -23.9860  -10.5650   20.8610 C   0  0  0  0  0  0  0  0  0  0  0  0
  -24.4250   -9.6050   21.7990 C   0  0  0  0  0  3  0  0  0  0  0  0
  -23.6690   -8.4350   22.0300 C   0  0  0  0  0  3  0  0  0  0  0  0
  -22.4630   -8.2180   21.3240 C   0  0  0  0  0  0  0  0  0  0  0  0
  -22.0420   -9.1660   20.3760 C   0  0  0  0  0  3  0  0  0  0  0  0
  -22.7970  -10.3290   20.1430 C   0  0  0  0  0  3  0  0  0  0  0  0
  -21.6760   -7.1000   21.4650 O   0  0  0  0  0  0  0  0  0  0  0  0
  -21.6310   -6.3930   22.6400 C   0  0  0  0  0  0  0  0  0  0  0  0
  -21.2630   -7.0010   23.8610 C   0  0  0  0  0  3  0  0  0  0  0  0
  -21.1640   -6.2230   25.0320 C   0  0  0  0  0  3  0  0  0  0  0  0
  -21.4230   -4.8390   24.9830 C   0  0  0  0  0  0  0  0  0  0  0  0
  -21.7820   -4.2320   23.7670 C   0  0  0  0  0  3  0  0  0  0  0  0
  -21.8820   -5.0070   22.5980 C   0  0  0  0  0  0  0  0  0  0  0  0
  -22.2090   -4.4140   21.4250 F   0  0  0  0  0  0  0  0  0  0  0  0
  -21.3180   -4.0890   26.1050 F   0  0  0  0  0  0  0  0  0  0  0  0
  -22.9770  -13.6970   21.0000 C   0  0  0  0  0  0  0  0  0  0  0  0
  -22.2810  -13.0450   21.9260 N   0  0  0  0  0  0  0  0  0  0  0  0
  -22.5390  -14.7250   20.4840 O   0  0  0  0  0  0  0  0  0  0  0  0
  -22.6480  -12.2160   22.3710 H   0  0  0  0  0  0  0  0  0  0  0  0
  -21.3680  -13.3830   22.1940 H   0  0  0  0  0  0  0  0  0  0  0  0
  -25.6230  -15.2540   20.0130 N   0  0  0  0  0  0  0  0  0  0  0  0
  -24.9010  -15.9500   20.1670 H   0  0  0  0  0  0  0  0  0  0  0  0
  -26.4810  -15.6500   19.6530 H   0  0  0  0  0  0  0  0  0  0  0  0
  -29.1620  -24.0290   17.6210 C   0  0  0  0  0  2  0  0  0  0  0  0
  -28.3690  -24.7670   18.7200 C   0  0  0  0  0  2  0  0  0  0  0  0
  -28.8650  -26.1970   19.0170 C   0  0  0  0  0  2  0  0  0  0  0  0
  -28.3660  -26.7520   20.2370 O   0  0  0  0  0  0  0  0  0  0  0  0
  -24.5730  -31.9000   23.3230 C   0  0  0  0  0  0  0  0  0  0  0  0
  -27.1860  -27.4630   20.2150 C   0  0  0  0  0  0  0  0  0  0  0  0
  -23.3490  -30.5000   21.6920 C   0  0  0  0  0  3  0  0  0  0  0  0
  -24.7870  -28.9620   20.2580 C   0  0  0  0  0  0  0  0  0  0  0  0
  -25.8740  -30.8530   21.4790 C   0  0  0  0  0  2  0  0  0  0  0  0
  -25.9490  -29.4830   20.8390 C   0  0  0  0  0  0  0  0  0  0  0  0
  -27.1460  -28.7360   20.8270 C   0  0  0  0  0  3  0  0  0  0  0  0
  -25.9980  -26.9460   19.6520 C   0  0  0  0  0  3  0  0  0  0  0  0
  -24.8060  -27.6900   19.6670 C   0  0  0  0  0  3  0  0  0  0  0  0
  -23.5450  -29.8210   20.3120 C   0  0  0  0  0  2  0  0  0  0  0  0
  -24.6160  -31.0990   22.2220 N   0  0  0  0  0  0  0  0  0  0  0  0
  -23.4970  -32.1780   23.8700 O   0  0  0  0  0  0  0  0  0  0  0  0
  -22.7020  -29.4820   22.6570 C   0  0  0  0  0  0  0  0  0  0  0  0
  -21.3790  -29.2920   22.5270 N   0  0  0  0  0  0  0  0  0  0  0  0
  -23.3870  -28.8680   23.4780 O   0  0  0  0  0  0  0  0  0  0  0  0
  -20.8880  -29.8400   21.8350 H   0  0  0  0  0  0  0  0  0  0  0  0
  -18.0150  -28.0650   23.0020 C   0  0  0  0  0  0  0  0  0  0  0  0
  -20.5650  -28.3580   23.3030 C   0  0  0  0  0  3  0  0  0  0  0  0
  -20.6910  -26.9190   22.7520 C   0  0  0  0  0  2  0  0  0  0  0  0
  -19.6070  -26.5660   21.7300 C   0  0  0  0  0  2  0  0  0  0  0  0
  -18.2150  -26.7060   22.3520 C   0  0  0  0  0  2  0  0  0  0  0  0
  -19.1190  -28.8470   23.4350 C   0  0  0  0  0  0  0  0  0  0  0  0
  -18.8780  -30.1190   23.9990 C   0  0  0  0  0  3  0  0  0  0  0  0
  -17.5650  -30.6100   24.1370 C   0  0  0  0  0  3  0  0  0  0  0  0
  -16.4760  -29.8240   23.7210 C   0  0  0  0  0  3  0  0  0  0  0  0
  -16.7020  -28.5550   23.1610 C   0  0  0  0  0  3  0  0  0  0  0  0
  -25.8660  -32.5270   23.9310 C   0  0  0  0  0  3  0  0  0  0  0  0
  -25.5660  -33.9260   24.2610 N   0  0  0  0  0  0  0  0  0  0  0  0
  -25.9010  -34.9750   23.4990 C   0  0  0  0  0  0  0  0  0  0  0  0
  -26.5660  -34.8680   22.4650 O   0  0  0  0  0  0  0  0  0  0  0  0
  -24.9770  -34.0860   25.0640 H   0  0  0  0  0  0  0  0  0  0  0  0
  -24.1800  -36.7750   23.1440 C   0  0  0  0  0  1  0  0  0  0  0  0
  -25.4200  -36.3660   23.9570 C   0  0  0  0  0  3  0  0  0  0  0  0
  -27.5610  -37.2370   24.7840 C   0  0  0  0  0  1  0  0  0  0  0  0
  -26.4560  -37.4130   23.8440 N   0  0  0  0  0  0  0  0  0  0  0  0
  -26.0560  -38.3360   23.9930 H   0  0  0  0  0  0  0  0  0  0  0  0
  -26.3960  -31.7530   25.1990 C   0  0  1  0  0  0  0  0  0  0  0  0
  -25.3150  -31.5140   26.2790 C   0  0  0  0  0  1  0  0  0  0  0  0
  -26.9740  -30.3760   24.7980 C   0  0  0  0  0  1  0  0  0  0  0  0
  -27.5570  -32.5440   25.8490 C   0  0  0  0  0  1  0  0  0  0  0  0
  1  5  1  0
  1  3  2  0
  2  1  1  0
  4  2  1  0
  5  6  1  0
  7  6  1  0
  7  8  1  0
  9  8  1  0
  9 19  1  0
 10 19  1  0
 11 16  1  0
 12 13  1  0
 12 11  1  0
 14 13  1  0
 14 23  1  0
 14 15  1  0
 16 10  1  0
 16 15  1  0
 17 10  2  0
 19 18  1  0
 20 21  2  0
 21 40  1  0
 22 21  1  0
 22 25  1  0
 23 20  1  0
 23 24  1  0
 24 22  2  0
 25 26  1  0
 26 27  2  0
 28 31  1  0
 28 27  1  0
 29 28  2  0
 30 29  1  0
 30 25  2  0
 31 32  1  0
 32 33  1  0
 33 34  2  0
 35 34  1  0
 35 39  1  0
 36 35  2  0
 37 32  2  0
 37 36  1  0
 38 37  1  0
 40 41  1  0
 41 44  1  0
 41 43  1  0
 42 40  2  0
 45 46  1  0
 45 20  1  0
 47 45  1  0
 48  2  1  0
 48 49  1  0
 49 50  1  0
 50 51  1  0
 52 63  2  0
 53 51  1  0
 53 58  1  0
 54 62  1  0
 54 64  1  0
 55 61  1  0
 55 57  1  0
 56 62  1  0
 57 56  1  0
 58 57  2  0
 59 60  1  0
 59 53  2  0
 60 55  2  0
 61 54  1  0
 62 52  1  0
 64 66  2  0
 65 64  1  0
 67 65  1  0
 68 77  2  0
 68 73  1  0
 69 65  1  0
 69 73  1  0
 70 69  1  0
 71 72  1  0
 71 70  1  0
 72 68  1  0
 73 74  2  0
 74 75  1  0
 76 75  2  0
 77 76  1  0
 78 52  1  0
 78 79  1  0
 78 88  1  0
 79 82  1  0
 80 84  1  0
 80 79  1  0
 81 80  2  0
 84 83  1  0
 86 84  1  0
 86 87  1  0
 86 85  1  0
 88 91  1  1
 88 89  1  0
 90 88  1  0
M  ISO  4  10 100  19 100  50 101  51 101
M  END
>  <TORSDO>  (84) 
F 24

>  <SCORE>  (84) 
-11.411

>  <name>  (84) 
83

>  <ligand_id>  (84) 
83

>  <original_smiles>  (84) 
[H]c1c([H])c([H])c2c(c1[H])C([H])([H])C([H])([H])C([H])([H])C2([H])N([H])C(=O)C1([H])N(C(=O)C([H])(N([H])C(=O)C([H])(N([H])C([H])([H])[H])C([H])([H])[H])C(C([H])([H])[H])(C([H])([H])[H])C([H])([H])[H])C([H])([H])c2c([H])c(OC([H])([H])C([H])([H])C([H])([H])N([H])C(=O)C([H])([H])C([H])([H])C([H])([H])C([H])([H])C([H])([H])N(C(=O)N3C([H])([H])C([H])([H])C([H])([H])C([H])(n4nc(-c5c([H])c([H])c(Oc6c([H])c([H])c(F)c([H])c6F)c([H])c5[H])c(C(=O)N([H])[H])c4N([H])[H])C3([H])[H])C([H])([H])[H])c([H])c([H])c2C1([H])[H]

>  <smiles>  (84) 
[H]c1c([H])c([H])c2c(c1[H])C([H])([H])C([H])([H])C([H])([H])C2([H])N([H])C(=O)C1([H])N(C(=O)C([H])(N([H])C(=O)C([H])(N([H])C([H])([H])[H])C([H])([H])[H])C(C([H])([H])[H])(C([H])([H])[H])C([H])([H])[H])C([H])([H])c2c([H])c(OC([H])([H])C([H])([H])C([H])([H])N([H])C(=O)C([H])([H])C([H])([H])C([H])([H])C([H])([H])C([H])([H])N(C(=O)N3C([H])([H])C([H])([H])C([H])([H])C([H])(n4nc(-c5c([H])c([H])c(Oc6c([H])c([H])c(F)c([H])c6F)c([H])c5[H])c(C(=O)N([H])[H])c4N([H])[H])C3([H])[H])C([H])([H])[H])c([H])c([H])c2C1([H])[H]

$$$$
84:0:0
     RDKit          3D

 92100  0  0  1  0  0  0  0  0999 V2000
  -28.6790  -24.1350   21.3550 C   0  0  0  0  0  3  0  0  0  0  0  0
  -29.0060  -22.7200   21.3800 C   0  0  0  0  0  0  0  0  0  0  0  0
  -28.9980  -21.8790   20.2150 C   0  0  0  0  0  0  0  0  0  0  0  0
  -28.5850  -22.6010   19.0380 C   0  0  0  0  0  0  0  0  0  0  0  0
  -28.3250  -24.8800   20.1860 C   0  0  0  0  0  0  0  0  0  0  0  0
  -28.2820  -24.0300   19.0270 C   0  0  0  0  0  0  0  0  0  0  0  0
  -29.4970  -22.1310   22.6900 C   0  0  0  0  0  1  0  0  0  0  0  0
  -28.5710  -21.8410   17.7150 C   0  0  0  0  0  1  0  0  0  0  0  0
  -28.0230  -24.6270   17.8260 O   0  0  0  0  0  0  0  0  0  0  0  0
  -28.1650  -24.0340   17.0970 H   0  0  0  0  0  0  0  0  0  0  0  0
  -28.3070  -26.3390   20.1560 O   0  0  0  0  0  0  0  0  0  0  0  0
  -24.6550  -31.9070   23.2460 C   0  0  0  0  0  0  0  0  0  0  0  0
  -27.1900  -27.2270   20.1760 C   0  0  0  0  0  0  0  0  0  0  0  0
  -23.4320  -30.5210   21.6130 C   0  0  0  0  0  3  0  0  0  0  0  0
  -24.8560  -28.9400   20.1770 C   0  0  0  0  0  0  0  0  0  0  0  0
  -25.9800  -30.7850   21.4210 C   0  0  0  0  0  2  0  0  0  0  0  0
  -26.0390  -29.3950   20.7730 C   0  0  0  0  0  0  0  0  0  0  0  0
  -27.2060  -28.5530   20.7540 C   0  0  0  0  0  3  0  0  0  0  0  0
  -25.9810  -26.8490   19.5560 C   0  0  0  0  0  3  0  0  0  0  0  0
  -24.8390  -27.6780   19.5560 C   0  0  0  0  0  3  0  0  0  0  0  0
  -23.6340  -29.8400   20.2330 C   0  0  0  0  0  2  0  0  0  0  0  0
  -24.7100  -31.0900   22.1500 N   0  0  0  0  0  0  0  0  0  0  0  0
  -23.5760  -32.1980   23.7820 O   0  0  0  0  0  0  0  0  0  0  0  0
  -22.7570  -29.5160   22.5790 C   0  0  0  0  0  0  0  0  0  0  0  0
  -21.4300  -29.3440   22.4480 N   0  0  0  0  0  0  0  0  0  0  0  0
  -23.4290  -28.8930   23.4040 O   0  0  0  0  0  0  0  0  0  0  0  0
  -20.9480  -29.8920   21.7490 H   0  0  0  0  0  0  0  0  0  0  0  0
  -18.0490  -28.1420   22.9430 C   0  0  0  0  0  0  0  0  0  0  0  0
  -20.6070  -28.4120   23.2220 C   0  0  0  0  0  3  0  0  0  0  0  0
  -20.7140  -26.9760   22.6570 C   0  0  0  0  0  2  0  0  0  0  0  0
  -19.6160  -26.6440   21.6400 C   0  0  0  0  0  2  0  0  0  0  0  0
  -18.2320  -26.7910   22.2750 C   0  0  0  0  0  2  0  0  0  0  0  0
  -19.1650  -28.9110   23.3720 C   0  0  0  0  0  0  0  0  0  0  0  0
  -18.9380  -30.1760   23.9570 C   0  0  0  0  0  3  0  0  0  0  0  0
  -17.6300  -30.6710   24.1160 C   0  0  0  0  0  3  0  0  0  0  0  0
  -16.5300  -29.9010   23.7000 C   0  0  0  0  0  3  0  0  0  0  0  0
  -16.7400  -28.6390   23.1190 C   0  0  0  0  0  3  0  0  0  0  0  0
  -25.9440  -32.5310   23.8650 C   0  0  0  0  0  3  0  0  0  0  0  0
  -26.4630  -31.7480   25.1330 C   0  0  1  0  0  0  0  0  0  0  0  0
  -25.3730  -31.5110   26.2050 C   0  0  0  0  0  1  0  0  0  0  0  0
  -27.0360  -30.3690   24.7300 C   0  0  0  0  0  1  0  0  0  0  0  0
  -27.6240  -32.5290   25.7920 C   0  0  0  0  0  1  0  0  0  0  0  0
  -25.6400  -33.9270   24.2150 N   0  0  0  0  0  0  0  0  0  0  0  0
  -25.9430  -34.9870   23.4550 C   0  0  0  0  0  0  0  0  0  0  0  0
  -26.5780  -34.8930   22.4010 O   0  0  0  0  0  0  0  0  0  0  0  0
  -25.0770  -34.0730   25.0400 H   0  0  0  0  0  0  0  0  0  0  0  0
  -24.1870  -36.7670   23.1830 C   0  0  0  0  0  1  0  0  0  0  0  0
  -25.4660  -36.3710   23.9390 C   0  0  0  0  0  3  0  0  0  0  0  0
  -27.6310  -37.2630   24.6790 C   0  0  0  0  0  1  0  0  0  0  0  0
  -26.4860  -37.4330   23.7890 N   0  0  0  0  0  0  0  0  0  0  0  0
  -26.0810  -38.3480   23.9680 H   0  0  0  0  0  0  0  0  0  0  0  0
  -29.7250  -20.4040   20.1710 C   0  0  0  0  0  2  0  0  0  0  0  0
  -29.1130  -18.8800   20.3990 C   0  0  0  0  0  3  0  0  0  0  0  0
  -30.1350  -17.5670   20.3000 C   0  0  0  0  0  3  0  0  0  0  0  0
  -30.5180  -14.9000   20.3460 C   0  0  0  0  0  0  0  0  0  0  0  0
  -30.3850  -12.5810   19.3820 C   0  0  0  0  0  2  0  0  0  0  0  0
  -29.4550  -12.5870   18.1490 C   0  0  0  0  0  2  0  0  0  0  0  0
  -27.9820  -12.4050   18.5700 C   0  0  0  0  0  2  0  0  0  0  0  0
  -27.5850  -13.3000   19.7760 C   0  0  0  0  0  3  0  0  0  0  0  0
  -28.6400  -13.2600   20.9010 C   0  0  0  0  0  2  0  0  0  0  0  0
  -29.9190  -13.6530   20.3000 N   0  0  0  0  0  0  0  0  0  0  0  0
  -31.7170  -14.9830   20.0640 O   0  0  0  0  0  0  0  0  0  0  0  0
  -29.7380  -16.0670   20.4840 N   0  0  0  0  0  0  0  0  0  0  0  0
  -28.7590  -15.8950   20.6590 H   0  0  0  0  0  0  0  0  0  0  0  0
  -25.1970  -13.8690   20.5010 C   0  0  0  0  0  0  0  0  0  0  0  0
  -24.1350  -13.0880   20.8670 C   0  0  0  0  0  0  0  0  0  0  0  0
  -24.6080  -11.7390   20.8410 C   0  0  0  0  0  0  0  0  0  0  0  0
  -26.2450  -12.9960   20.2670 N   0  0  0  0  0  0  0  0  0  0  0  0
  -25.9000  -11.7090   20.5370 N   0  0  0  0  0  0  0  0  0  0  0  0
  -23.8870  -10.4730   21.0270 C   0  0  0  0  0  0  0  0  0  0  0  0
  -24.3100   -9.5110   21.9720 C   0  0  0  0  0  3  0  0  0  0  0  0
  -23.5870   -8.3120   22.1460 C   0  0  0  0  0  3  0  0  0  0  0  0
  -22.4250   -8.0650   21.3750 C   0  0  0  0  0  0  0  0  0  0  0  0
  -22.0230   -9.0140   20.4190 C   0  0  0  0  0  3  0  0  0  0  0  0
  -22.7480  -10.2040   20.2430 C   0  0  0  0  0  3  0  0  0  0  0  0
  -21.6740   -6.9170   21.4610 O   0  0  0  0  0  0  0  0  0  0  0  0
  -21.6020   -6.1860   22.6200 C   0  0  0  0  0  0  0  0  0  0  0  0
  -21.1380   -6.7490   23.8290 C   0  0  0  0  0  3  0  0  0  0  0  0
  -21.0140   -5.9440   24.9780 C   0  0  0  0  0  3  0  0  0  0  0  0
  -21.3460   -4.5770   24.9210 C   0  0  0  0  0  0  0  0  0  0  0  0
  -21.8040   -4.0130   23.7170 C   0  0  0  0  0  3  0  0  0  0  0  0
  -21.9290   -4.8150   22.5680 C   0  0  0  0  0  0  0  0  0  0  0  0
  -22.3490   -4.2620   21.4050 F   0  0  0  0  0  0  0  0  0  0  0  0
  -21.2200   -3.8010   26.0240 F   0  0  0  0  0  0  0  0  0  0  0  0
  -22.7330  -13.5570   21.1290 C   0  0  0  0  0  0  0  0  0  0  0  0
  -22.0030  -12.8590   21.9910 N   0  0  0  0  0  0  0  0  0  0  0  0
  -22.2920  -14.5770   20.6020 O   0  0  0  0  0  0  0  0  0  0  0  0
  -22.3680  -12.0320   22.4370 H   0  0  0  0  0  0  0  0  0  0  0  0
  -21.0610  -13.1560   22.2090 H   0  0  0  0  0  0  0  0  0  0  0  0
  -25.3530  -15.2390   20.3180 N   0  0  0  0  0  0  0  0  0  0  0  0
  -24.5830  -15.8930   20.4120 H   0  0  0  0  0  0  0  0  0  0  0  0
  -26.1990  -15.6780   19.9770 H   0  0  0  0  0  0  0  0  0  0  0  0
  1  2  1  0
  2  7  1  0
  3  2  2  0
  4  3  1  0
  5  1  2  0
  6  4  2  0
  6  5  1  0
  8  4  1  0
  9  6  1  0
 10  9  1  0
 11 13  1  0
 11  5  1  0
 12 23  2  0
 13 18  1  0
 14 22  1  0
 14 24  1  0
 15 21  1  0
 15 17  1  0
 16 22  1  0
 17 16  1  0
 18 17  2  0
 19 13  2  0
 20 19  1  0
 20 15  2  0
 21 14  1  0
 22 12  1  0
 24 26  2  0
 25 24  1  0
 27 25  1  0
 28 37  2  0
 28 33  1  0
 29 25  1  0
 29 33  1  0
 30 29  1  0
 31 32  1  0
 31 30  1  0
 32 28  1  0
 33 34  2  0
 34 35  1  0
 36 35  2  0
 37 36  1  0
 38 12  1  0
 38 43  1  0
 38 39  1  0
 39 42  1  1
 39 40  1  0
 41 39  1  0
 43 46  1  0
 44 48  1  0
 44 43  1  0
 45 44  2  0
 48 47  1  0
 50 48  1  0
 50 51  1  0
 50 49  1  0
 52  3  1  0
 52 53  1  0
 54 53  2  0
 54 63  1  0
 55 63  1  0
 56 61  1  0
 57 58  1  0
 57 56  1  0
 59 58  1  0
 59 68  1  0
 59 60  1  0
 61 55  1  0
 61 60  1  0
 62 55  2  0
 63 64  1  0
 65 66  2  0
 66 85  1  0
 67 66  1  0
 67 70  1  0
 68 65  1  0
 68 69  1  0
 69 67  2  0
 70 71  1  0
 71 72  2  0
 73 76  1  0
 73 72  1  0
 74 73  2  0
 75 74  1  0
 75 70  2  0
 76 77  1  0
 77 78  1  0
 78 79  2  0
 80 79  1  0
 80 84  1  0
 81 80  2  0
 82 77  2  0
 82 81  1  0
 83 82  1  0
 85 86  1  0
 86 89  1  0
 86 88  1  0
 87 85  2  0
 90 91  1  0
 90 65  1  0
 92 90  1  0
M  ISO  4   5 101  11 101  55 100  63 100
M  END
>  <TORSDO>  (85) 
F 20

>  <SCORE>  (85) 
-14.136

>  <name>  (85) 
84

>  <ligand_id>  (85) 
84

>  <original_smiles>  (85) 
[H]Oc1c(Oc2c([H])c([H])c3c(c2[H])C([H])([H])N(C(=O)C([H])(N([H])C(=O)C([H])(N([H])C([H])([H])[H])C([H])([H])[H])C(C([H])([H])[H])(C([H])([H])[H])C([H])([H])[H])C([H])(C(=O)N([H])C2([H])c4c([H])c([H])c([H])c([H])c4C([H])([H])C([H])([H])C2([H])[H])C3([H])[H])c([H])c(C([H])([H])[H])c(C([H])([H])C([H])([H])C([H])([H])N([H])C(=O)N2C([H])([H])C([H])([H])C([H])([H])C([H])(n3nc(-c4c([H])c([H])c(Oc5c([H])c([H])c(F)c([H])c5F)c([H])c4[H])c(C(=O)N([H])[H])c3N([H])[H])C2([H])[H])c1C([H])([H])[H]

>  <smiles>  (85) 
[H]Oc1c(Oc2c([H])c([H])c3c(c2[H])C([H])([H])N(C(=O)C([H])(N([H])C(=O)C([H])(N([H])C([H])([H])[H])C([H])([H])[H])C(C([H])([H])[H])(C([H])([H])[H])C([H])([H])[H])C([H])(C(=O)N([H])C2([H])c4c([H])c([H])c([H])c([H])c4C([H])([H])C([H])([H])C2([H])[H])C3([H])[H])c([H])c(C([H])([H])[H])c(C([H])([H])C([H])([H])C([H])([H])N([H])C(=O)N2C([H])([H])C([H])([H])C([H])([H])C([H])(n3nc(-c4c([H])c([H])c(Oc5c([H])c([H])c(F)c([H])c5F)c([H])c4[H])c(C(=O)N([H])[H])c3N([H])[H])C2([H])[H])c1C([H])([H])[H]

$$$$
85:0:0
     RDKit          3D

 93101  0  0  1  0  0  0  0  0999 V2000
  -28.0210  -22.6360   21.3520 C   0  0  0  0  0  3  0  0  0  0  0  0
  -29.5200  -24.1700   19.6300 C   0  0  0  0  0  3  0  0  0  0  0  0
  -29.0860  -21.9160   20.7130 C   0  0  0  0  0  0  0  0  0  0  0  0
  -27.7300  -24.0510   21.1730 C   0  0  0  0  0  0  0  0  0  0  0  0
  -29.8200  -22.7620   19.8170 C   0  0  0  0  0  0  0  0  0  0  0  0
  -28.4870  -24.9070   20.2990 C   0  0  0  0  0  0  0  0  0  0  0  0
  -26.6100  -24.6490   22.0030 C   0  0  0  0  0  1  0  0  0  0  0  0
  -31.0140  -22.1750   19.0820 C   0  0  0  0  0  1  0  0  0  0  0  0
  -28.4230  -26.3630   20.1890 O   0  0  0  0  0  0  0  0  0  0  0  0
  -24.5880  -31.8430   23.1800 C   0  0  0  0  0  0  0  0  0  0  0  0
  -27.2920  -27.2350   20.1620 C   0  0  0  0  0  0  0  0  0  0  0  0
  -23.4390  -30.4570   21.4930 C   0  0  0  0  0  3  0  0  0  0  0  0
  -24.9350  -28.9110   20.0880 C   0  0  0  0  0  0  0  0  0  0  0  0
  -25.9860  -30.7600   21.3920 C   0  0  0  0  0  2  0  0  0  0  0  0
  -26.0870  -29.3780   20.7300 C   0  0  0  0  0  0  0  0  0  0  0  0
  -27.2640  -28.5530   20.7550 C   0  0  0  0  0  3  0  0  0  0  0  0
  -26.1200  -26.8480   19.4810 C   0  0  0  0  0  3  0  0  0  0  0  0
  -24.9600  -27.6570   19.4510 C   0  0  0  0  0  3  0  0  0  0  0  0
  -23.6970  -29.7930   20.1140 C   0  0  0  0  0  2  0  0  0  0  0  0
  -24.6880  -31.0410   22.0770 N   0  0  0  0  0  0  0  0  0  0  0  0
  -23.4880  -32.1130   23.6870 O   0  0  0  0  0  0  0  0  0  0  0  0
  -22.7490  -29.4320   22.4270 C   0  0  0  0  0  0  0  0  0  0  0  0
  -21.4190  -29.2830   22.2950 N   0  0  0  0  0  0  0  0  0  0  0  0
  -23.4110  -28.7750   23.2340 O   0  0  0  0  0  0  0  0  0  0  0  0
  -20.9410  -29.8630   21.6180 H   0  0  0  0  0  0  0  0  0  0  0  0
  -18.0140  -28.1650   22.8090 C   0  0  0  0  0  0  0  0  0  0  0  0
  -20.5840  -28.3370   23.0400 C   0  0  0  0  0  3  0  0  0  0  0  0
  -20.6320  -26.9310   22.4000 C   0  0  0  0  0  2  0  0  0  0  0  0
  -19.5030  -26.6880   21.3930 C   0  0  0  0  0  2  0  0  0  0  0  0
  -18.1370  -26.8450   22.0670 C   0  0  0  0  0  2  0  0  0  0  0  0
  -19.1630  -28.8730   23.2510 C   0  0  0  0  0  0  0  0  0  0  0  0
  -18.9930  -30.1120   23.9070 C   0  0  0  0  0  3  0  0  0  0  0  0
  -17.7080  -30.6430   24.1230 C   0  0  0  0  0  3  0  0  0  0  0  0
  -16.5730  -29.9310   23.6950 C   0  0  0  0  0  3  0  0  0  0  0  0
  -16.7280  -28.6940   23.0450 C   0  0  0  0  0  3  0  0  0  0  0  0
  -25.8470  -32.4790   23.8450 C   0  0  0  0  0  3  0  0  0  0  0  0
  -25.5090  -33.8640   24.2120 N   0  0  0  0  0  0  0  0  0  0  0  0
  -25.8600  -34.9470   23.5070 C   0  0  0  0  0  0  0  0  0  0  0  0
  -26.5690  -34.8870   22.4990 O   0  0  0  0  0  0  0  0  0  0  0  0
  -24.8860  -33.9840   24.9970 H   0  0  0  0  0  0  0  0  0  0  0  0
  -24.1440  -36.7510   23.1430 C   0  0  0  0  0  1  0  0  0  0  0  0
  -25.3440  -36.3140   23.9990 C   0  0  0  0  0  3  0  0  0  0  0  0
  -27.4290  -37.1670   24.9750 C   0  0  0  0  0  1  0  0  0  0  0  0
  -26.3760  -37.3740   23.9840 N   0  0  0  0  0  0  0  0  0  0  0  0
  -25.9580  -38.2860   24.1510 H   0  0  0  0  0  0  0  0  0  0  0  0
  -26.3500  -31.6810   25.1130 C   0  0  1  0  0  0  0  0  0  0  0  0
  -25.2380  -31.3980   26.1510 C   0  0  0  0  0  1  0  0  0  0  0  0
  -26.9620  -30.3230   24.7000 C   0  0  0  0  0  1  0  0  0  0  0  0
  -27.4760  -32.4740   25.8180 C   0  0  0  0  0  1  0  0  0  0  0  0
  -29.5680  -20.4240   21.1980 C   0  0  0  0  0  3  0  0  0  0  0  0
  -29.4440  -18.9790   20.4040 C   0  0  0  0  0  3  0  0  0  0  0  0
  -30.2190  -16.3270   20.2990 C   0  0  0  0  0  0  0  0  0  0  0  0
  -30.0360  -17.5570   20.9680 C   0  0  0  0  0  0  0  0  0  0  0  0
  -30.9200  -15.0320   20.7940 C   0  0  0  0  0  0  0  0  0  0  0  0
  -30.8230  -12.6290   20.0450 C   0  0  0  0  0  2  0  0  0  0  0  0
  -30.0260  -12.4890   18.7290 C   0  0  0  0  0  2  0  0  0  0  0  0
  -28.5110  -12.3790   19.0010 C   0  0  0  0  0  2  0  0  0  0  0  0
  -27.9970  -13.3500   20.1000 C   0  0  0  0  0  3  0  0  0  0  0  0
  -28.9490  -13.4610   21.3030 C   0  0  0  0  0  2  0  0  0  0  0  0
  -30.2790  -13.7980   20.7830 N   0  0  0  0  0  0  0  0  0  0  0  0
  -32.1540  -15.0020   20.8290 O   0  0  0  0  0  0  0  0  0  0  0  0
  -25.5690  -13.9560   20.6100 C   0  0  0  0  0  0  0  0  0  0  0  0
  -24.4740  -13.1950   20.9040 C   0  0  0  0  0  0  0  0  0  0  0  0
  -24.9360  -11.8440   20.9650 C   0  0  0  0  0  0  0  0  0  0  0  0
  -26.6250  -13.0680   20.4960 N   0  0  0  0  0  0  0  0  0  0  0  0
  -26.2490  -11.7950   20.7790 N   0  0  0  0  0  0  0  0  0  0  0  0
  -24.1930  -10.5890   21.1300 C   0  0  0  0  0  0  0  0  0  0  0  0
  -24.5620   -9.6360   22.1040 C   0  0  0  0  0  3  0  0  0  0  0  0
  -23.8190   -8.4450   22.2560 C   0  0  0  0  0  3  0  0  0  0  0  0
  -22.6920   -8.2020   21.4350 C   0  0  0  0  0  0  0  0  0  0  0  0
  -22.3440   -9.1440   20.4520 C   0  0  0  0  0  3  0  0  0  0  0  0
  -23.0870  -10.3250   20.2960 C   0  0  0  0  0  3  0  0  0  0  0  0
  -21.9270   -7.0630   21.4940 O   0  0  0  0  0  0  0  0  0  0  0  0
  -21.8240   -6.3240   22.6450 C   0  0  0  0  0  0  0  0  0  0  0  0
  -21.3480   -6.8850   23.8500 C   0  0  0  0  0  3  0  0  0  0  0  0
  -21.1920   -6.0730   24.9920 C   0  0  0  0  0  3  0  0  0  0  0  0
  -21.5030   -4.7010   24.9270 C   0  0  0  0  0  0  0  0  0  0  0  0
  -21.9730   -4.1400   23.7270 C   0  0  0  0  0  3  0  0  0  0  0  0
  -22.1300   -4.9490   22.5880 C   0  0  0  0  0  0  0  0  0  0  0  0
  -22.5630   -4.3990   21.4290 F   0  0  0  0  0  0  0  0  0  0  0  0
  -21.3470   -3.9190   26.0220 F   0  0  0  0  0  0  0  0  0  0  0  0
  -23.0590  -13.6800   21.0230 C   0  0  0  0  0  0  0  0  0  0  0  0
  -22.2590  -13.0290   21.8600 N   0  0  0  0  0  0  0  0  0  0  0  0
  -22.6700  -14.6720   20.4090 O   0  0  0  0  0  0  0  0  0  0  0  0
  -22.5900  -12.2290   22.3800 H   0  0  0  0  0  0  0  0  0  0  0  0
  -21.3050  -13.3350   21.9820 H   0  0  0  0  0  0  0  0  0  0  0  0
  -25.7500  -15.3200   20.4000 N   0  0  0  0  0  0  0  0  0  0  0  0
  -24.9770  -15.9760   20.4180 H   0  0  0  0  0  0  0  0  0  0  0  0
  -26.6310  -15.7520   20.1470 H   0  0  0  0  0  0  0  0  0  0  0  0
  -30.9850  -16.8840   17.9260 C   0  0  0  0  0  1  0  0  0  0  0  0
  -29.8600  -16.3260   18.8120 C   0  0  0  0  0  2  0  0  0  0  0  0
  -30.3860  -17.7110   22.2530 O   0  0  0  0  0  0  0  0  0  0  0  0
  -30.2230  -18.6130   22.4920 H   0  0  0  0  0  0  0  0  0  0  0  0
  2  5  2  0
  2  6  1  0
  3 50  1  0
  3  1  2  0
  4  1  1  0
  4  7  1  0
  5  3  1  0
  6  4  2  0
  8  5  1  0
  9  6  1  0
 10 21  2  0
 11  9  1  0
 11 16  1  0
 12 20  1  0
 12 22  1  0
 13 19  1  0
 13 15  1  0
 14 20  1  0
 15 16  2  0
 15 14  1  0
 17 11  2  0
 18 17  1  0
 18 13  2  0
 19 12  1  0
 20 10  1  0
 22 24  2  0
 23 22  1  0
 25 23  1  0
 26 35  2  0
 26 31  1  0
 27 23  1  0
 27 31  1  0
 28 27  1  0
 29 30  1  0
 29 28  1  0
 30 26  1  0
 31 32  2  0
 32 33  1  0
 34 33  2  0
 35 34  1  0
 36 10  1  0
 36 37  1  0
 36 46  1  0
 37 40  1  0
 38 42  1  0
 38 37  1  0
 39 38  2  0
 42 41  1  0
 44 42  1  0
 44 45  1  0
 44 43  1  0
 46 49  1  1
 46 47  1  0
 48 46  1  0
 51 53  1  0
 51 50  2  0
 52 54  1  0
 52 53  2  0
 53 92  1  0
 54 61  2  0
 55 60  1  0
 56 57  1  0
 56 55  1  0
 58 57  1  0
 58 65  1  0
 58 59  1  0
 60 54  1  0
 60 59  1  0
 62 63  2  0
 63 64  1  0
 63 82  1  0
 64 67  1  0
 65 62  1  0
 65 66  1  0
 66 64  2  0
 67 68  1  0
 68 69  2  0
 70 73  1  0
 70 69  1  0
 71 70  2  0
 72 71  1  0
 72 67  2  0
 73 74  1  0
 74 75  1  0
 75 76  2  0
 77 76  1  0
 77 81  1  0
 78 77  2  0
 79 74  2  0
 79 78  1  0
 80 79  1  0
 82 83  1  0
 83 86  1  0
 83 85  1  0
 84 82  2  0
 87 88  1  0
 87 62  1  0
 89 87  1  0
 90 91  1  0
 91 52  1  0
 92 93  1  0
M  ISO  4   6 101   9 101  52 100  54 100
M  END
>  <TORSDO>  (86) 
F 21

>  <SCORE>  (86) 
-13.436

>  <name>  (86) 
85

>  <ligand_id>  (86) 
85

>  <original_smiles>  (86) 
[H]OC(=C(C(=O)N1C([H])([H])C([H])([H])C([H])([H])C([H])(n2nc(-c3c([H])c([H])c(Oc4c([H])c([H])c(F)c([H])c4F)c([H])c3[H])c(C(=O)N([H])[H])c2N([H])[H])C1([H])[H])C([H])([H])C([H])([H])[H])C([H])([H])C([H])([H])c1c([H])c(C([H])([H])[H])c(Oc2c([H])c([H])c3c(c2[H])C([H])([H])N(C(=O)C([H])(N([H])C(=O)C([H])(N([H])C([H])([H])[H])C([H])([H])[H])C(C([H])([H])[H])(C([H])([H])[H])C([H])([H])[H])C([H])(C(=O)N([H])C2([H])c4c([H])c([H])c([H])c([H])c4C([H])([H])C([H])([H])C2([H])[H])C3([H])[H])c([H])c1C([H])([H])[H]

>  <smiles>  (86) 
[H]OC(=C(C(=O)N1C([H])([H])C([H])([H])C([H])([H])C([H])(n2nc(-c3c([H])c([H])c(Oc4c([H])c([H])c(F)c([H])c4F)c([H])c3[H])c(C(=O)N([H])[H])c2N([H])[H])C1([H])[H])C([H])([H])C([H])([H])[H])C([H])([H])C([H])([H])c1c([H])c(C([H])([H])[H])c(Oc2c([H])c([H])c3c(c2[H])C([H])([H])N(C(=O)C([H])(N([H])C(=O)C([H])(N([H])C([H])([H])[H])C([H])([H])[H])C(C([H])([H])[H])(C([H])([H])[H])C([H])([H])[H])C([H])(C(=O)N([H])C2([H])c4c([H])c([H])c([H])c([H])c4C([H])([H])C([H])([H])C2([H])[H])C3([H])[H])c([H])c1C([H])([H])[H]

$$$$
86:0:0
     RDKit          3D

 91 99  0  0  1  0  0  0  0  0999 V2000
  -29.7980  -17.4520   20.1340 C   0  0  0  0  0  0  0  0  0  0  0  0
  -28.5490  -18.0700   19.6030 C   0  0  0  0  0  0  0  0  0  0  0  0
  -30.5620  -18.6830   20.5020 C   0  0  0  0  0  0  0  0  0  0  0  0
  -28.1660  -19.5480   19.4760 C   0  0  0  0  0  0  0  0  0  0  0  0
  -30.1650  -20.1590   20.3820 C   0  0  0  0  0  0  0  0  0  0  0  0
  -28.9280  -20.7710   19.8300 C   0  0  0  0  0  0  0  0  0  0  0  0
  -27.5290  -17.0690   19.0700 C   0  0  0  0  0  1  0  0  0  0  0  0
  -26.8110  -19.8550   18.8500 C   0  0  0  0  0  1  0  0  0  0  0  0
  -31.1780  -21.2150   20.8400 C   0  0  0  0  0  1  0  0  0  0  0  0
  -30.3990  -15.7950   20.0610 C   0  0  0  0  0  0  0  0  0  0  0  0
  -30.4290  -13.2470   19.3410 C   0  0  0  0  0  2  0  0  0  0  0  0
  -29.5370  -12.8530   18.1350 C   0  0  0  0  0  2  0  0  0  0  0  0
  -28.1200  -12.5090   18.6090 C   0  0  0  0  0  2  0  0  0  0  0  0
  -27.6080  -13.5360   19.6440 C   0  0  0  0  0  3  0  0  0  0  0  0
  -28.6390  -13.9010   20.7360 C   0  0  0  0  0  2  0  0  0  0  0  0
  -29.8330  -14.4560   20.0660 N   0  0  0  0  0  0  0  0  0  0  0  0
  -31.6200  -15.6700   19.8580 O   0  0  0  0  0  0  0  0  0  0  0  0
  -25.2640  -14.0440   20.4730 C   0  0  0  0  0  0  0  0  0  0  0  0
  -24.2160  -13.2540   20.8490 C   0  0  0  0  0  0  0  0  0  0  0  0
  -24.6960  -11.9070   20.7920 C   0  0  0  0  0  0  0  0  0  0  0  0
  -26.3070  -13.1840   20.1930 N   0  0  0  0  0  0  0  0  0  0  0  0
  -25.9820  -11.8900   20.4520 N   0  0  0  0  0  0  0  0  0  0  0  0
  -23.9820  -10.6360   20.9790 C   0  0  0  0  0  0  0  0  0  0  0  0
  -24.4070   -9.6800   21.9270 C   0  0  0  0  0  3  0  0  0  0  0  0
  -23.6890   -8.4780   22.1040 C   0  0  0  0  0  3  0  0  0  0  0  0
  -22.5320   -8.2210   21.3300 C   0  0  0  0  0  0  0  0  0  0  0  0
  -22.1260   -9.1670   20.3710 C   0  0  0  0  0  3  0  0  0  0  0  0
  -22.8460  -10.3600   20.1930 C   0  0  0  0  0  3  0  0  0  0  0  0
  -21.7880   -7.0700   21.4150 O   0  0  0  0  0  0  0  0  0  0  0  0
  -21.6880   -6.3600   22.5840 C   0  0  0  0  0  0  0  0  0  0  0  0
  -21.1940   -6.9460   23.7710 C   0  0  0  0  0  3  0  0  0  0  0  0
  -21.0440   -6.1630   24.9320 C   0  0  0  0  0  3  0  0  0  0  0  0
  -21.3770   -4.7950   24.9090 C   0  0  0  0  0  0  0  0  0  0  0  0
  -21.8630   -4.2100   23.7270 C   0  0  0  0  0  3  0  0  0  0  0  0
  -22.0160   -4.9890   22.5680 C   0  0  0  0  0  0  0  0  0  0  0  0
  -22.4650   -4.4150   21.4260 F   0  0  0  0  0  0  0  0  0  0  0  0
  -21.2250   -4.0410   26.0220 F   0  0  0  0  0  0  0  0  0  0  0  0
  -22.8210  -13.7170   21.1490 C   0  0  0  0  0  0  0  0  0  0  0  0
  -22.1160  -13.0130   22.0270 N   0  0  0  0  0  0  0  0  0  0  0  0
  -22.3670  -14.7410   20.6400 O   0  0  0  0  0  0  0  0  0  0  0  0
  -22.4980  -12.1840   22.4590 H   0  0  0  0  0  0  0  0  0  0  0  0
  -21.1820  -13.3080   22.2750 H   0  0  0  0  0  0  0  0  0  0  0  0
  -25.4160  -15.4180   20.3170 N   0  0  0  0  0  0  0  0  0  0  0  0
  -24.6560  -16.0740   20.4600 H   0  0  0  0  0  0  0  0  0  0  0  0
  -26.2770  -15.8620   20.0300 H   0  0  0  0  0  0  0  0  0  0  0  0
  -31.9730  -18.3750   21.0270 C   0  0  0  0  0  2  0  0  0  0  0  0
  -34.4560  -18.2220   20.3980 C   0  0  0  0  0  1  0  0  0  0  0  0
  -33.0710  -18.7620   20.0190 C   0  0  0  0  0  2  0  0  0  0  0  0
  -28.6520  -22.5370   19.3750 C   0  0  0  0  0  2  0  0  0  0  0  0
  -27.6890  -24.1080   19.7890 C   0  0  0  0  0  2  0  0  0  0  0  0
  -27.8460  -25.8130   19.5750 O   0  0  0  0  0  0  0  0  0  0  0  0
  -24.5970  -31.8470   23.0670 C   0  0  0  0  0  0  0  0  0  0  0  0
  -26.8570  -26.9760   19.6730 C   0  0  0  0  0  0  0  0  0  0  0  0
  -23.2770  -30.5520   21.4470 C   0  0  0  0  0  3  0  0  0  0  0  0
  -24.6020  -28.9760   19.8590 C   0  0  0  0  0  0  0  0  0  0  0  0
  -25.8370  -30.6990   21.1470 C   0  0  0  0  0  2  0  0  0  0  0  0
  -25.8400  -29.3090   20.4230 C   0  0  0  0  0  0  0  0  0  0  0  0
  -26.9540  -28.3380   20.2970 C   0  0  0  0  0  3  0  0  0  0  0  0
  -25.5810  -26.8300   19.0740 C   0  0  0  0  0  3  0  0  0  0  0  0
  -24.5080  -27.7640   19.1560 C   0  0  0  0  0  3  0  0  0  0  0  0
  -23.4120  -29.9280   20.0270 C   0  0  0  0  0  2  0  0  0  0  0  0
  -24.5980  -31.0600   21.9400 N   0  0  0  0  0  0  0  0  0  0  0  0
  -23.5470  -32.1310   23.6690 O   0  0  0  0  0  0  0  0  0  0  0  0
  -22.6210  -29.5270   22.4100 C   0  0  0  0  0  0  0  0  0  0  0  0
  -21.2910  -29.3390   22.3190 N   0  0  0  0  0  0  0  0  0  0  0  0
  -23.3180  -28.9000   23.2110 O   0  0  0  0  0  0  0  0  0  0  0  0
  -20.7770  -29.8960   21.6500 H   0  0  0  0  0  0  0  0  0  0  0  0
  -17.9760  -27.9400   22.7970 C   0  0  0  0  0  0  0  0  0  0  0  0
  -20.5100  -28.3660   23.0910 C   0  0  0  0  0  3  0  0  0  0  0  0
  -20.7070  -26.9340   22.5390 C   0  0  0  0  0  2  0  0  0  0  0  0
  -19.6430  -26.5330   21.5140 C   0  0  0  0  0  2  0  0  0  0  0  0
  -18.2450  -26.5980   22.1360 C   0  0  0  0  0  2  0  0  0  0  0  0
  -19.0390  -28.7770   23.2310 C   0  0  0  0  0  0  0  0  0  0  0  0
  -18.7290  -30.0270   23.8120 C   0  0  0  0  0  3  0  0  0  0  0  0
  -17.3920  -30.4400   23.9620 C   0  0  0  0  0  3  0  0  0  0  0  0
  -16.3450  -29.6030   23.5410 C   0  0  0  0  0  3  0  0  0  0  0  0
  -16.6370  -28.3550   22.9630 C   0  0  0  0  0  3  0  0  0  0  0  0
  -25.9140  -32.4460   23.6470 C   0  0  0  0  0  3  0  0  0  0  0  0
  -26.4740  -31.6280   24.8770 C   0  0  1  0  0  0  0  0  0  0  0  0
  -25.4320  -31.3960   25.9970 C   0  0  0  0  0  1  0  0  0  0  0  0
  -26.9940  -30.2420   24.4310 C   0  0  0  0  0  1  0  0  0  0  0  0
  -27.6800  -32.3720   25.4950 C   0  0  0  0  0  1  0  0  0  0  0  0
  -25.6430  -33.8390   24.0520 N   0  0  0  0  0  0  0  0  0  0  0  0
  -25.9860  -34.9270   23.3480 C   0  0  0  0  0  0  0  0  0  0  0  0
  -26.6220  -34.8610   22.2930 O   0  0  0  0  0  0  0  0  0  0  0  0
  -25.0740  -33.9640   24.8750 H   0  0  0  0  0  0  0  0  0  0  0  0
  -24.3020  -36.7940   23.1630 C   0  0  0  0  0  1  0  0  0  0  0  0
  -25.5600  -36.3030   23.8990 C   0  0  0  0  0  3  0  0  0  0  0  0
  -27.7480  -37.0920   24.6910 C   0  0  0  0  0  1  0  0  0  0  0  0
  -26.6170  -37.3340   23.8010 N   0  0  0  0  0  0  0  0  0  0  0  0
  -26.2410  -38.2540   24.0090 H   0  0  0  0  0  0  0  0  0  0  0  0
  1  3  1  0
  2  1  2  0
  3 46  1  0
  4  2  1  0
  4  6  2  0
  5  3  2  0
  5  9  1  0
  6  5  1  0
  7  2  1  0
  8  4  1  0
 10 16  1  0
 10  1  1  0
 11 16  1  0
 12 13  1  0
 12 11  1  0
 14 13  1  0
 14 21  1  0
 14 15  1  0
 16 15  1  0
 17 10  2  0
 18 19  2  0
 19 38  1  0
 20 19  1  0
 20 23  1  0
 21 22  1  0
 21 18  1  0
 22 20  2  0
 23 24  1  0
 24 25  2  0
 26 29  1  0
 26 25  1  0
 27 26  2  0
 28 27  1  0
 28 23  2  0
 29 30  1  0
 30 31  1  0
 31 32  2  0
 33 32  1  0
 33 37  1  0
 34 33  2  0
 35 30  2  0
 35 34  1  0
 36 35  1  0
 38 39  1  0
 39 42  1  0
 39 41  1  0
 40 38  2  0
 43 44  1  0
 43 18  1  0
 45 43  1  0
 48 47  1  0
 48 46  1  0
 49 50  1  0
 49  6  1  0
 51 53  1  0
 51 50  1  0
 52 63  2  0
 53 58  1  0
 54 62  1  0
 54 64  1  0
 55 61  1  0
 55 57  1  0
 56 62  1  0
 57 56  1  0
 58 57  2  0
 59 60  1  0
 59 53  2  0
 60 55  2  0
 61 54  1  0
 62 52  1  0
 64 66  2  0
 65 64  1  0
 67 65  1  0
 68 77  2  0
 68 73  1  0
 69 65  1  0
 69 73  1  0
 70 69  1  0
 71 72  1  0
 71 70  1  0
 72 68  1  0
 73 74  2  0
 74 75  1  0
 76 75  2  0
 77 76  1  0
 78 52  1  0
 78 83  1  0
 78 79  1  0
 79 82  1  1
 79 80  1  0
 81 79  1  0
 83 86  1  0
 84 88  1  0
 84 83  1  0
 85 84  2  0
 88 87  1  0
 90 88  1  0
 90 91  1  0
 90 89  1  0
M  ISO  4   1 100  10 100  50 101  51 101
M  END
>  <TORSDO>  (87) 
F 20

>  <SCORE>  (87) 
-15.586

>  <name>  (87) 
86

>  <ligand_id>  (87) 
86

>  <original_smiles>  (87) 
[H]c1c([H])c([H])c2c(c1[H])C([H])([H])C([H])([H])C([H])([H])C2([H])N([H])C(=O)C1([H])N(C(=O)C([H])(N([H])C(=O)C([H])(N([H])C([H])([H])[H])C([H])([H])[H])C(C([H])([H])[H])(C([H])([H])[H])C([H])([H])[H])C([H])([H])c2c([H])c(OC([H])([H])C([H])([H])c3c(C([H])([H])[H])c(C([H])([H])[H])c(C(=O)N4C([H])([H])C([H])([H])C([H])([H])C([H])(n5nc(-c6c([H])c([H])c(Oc7c([H])c([H])c(F)c([H])c7F)c([H])c6[H])c(C(=O)N([H])[H])c5N([H])[H])C4([H])[H])c(C([H])([H])C([H])([H])C([H])([H])[H])c3C([H])([H])[H])c([H])c([H])c2C1([H])[H]

>  <smiles>  (87) 
[H]c1c([H])c([H])c2c(c1[H])C([H])([H])C([H])([H])C([H])([H])C2([H])N([H])C(=O)C1([H])N(C(=O)C([H])(N([H])C(=O)C([H])(N([H])C([H])([H])[H])C([H])([H])[H])C(C([H])([H])[H])(C([H])([H])[H])C([H])([H])[H])C([H])([H])c2c([H])c(OC([H])([H])C([H])([H])c3c(C([H])([H])[H])c(C([H])([H])[H])c(C(=O)N4C([H])([H])C([H])([H])C([H])([H])C([H])(n5nc(-c6c([H])c([H])c(Oc7c([H])c([H])c(F)c([H])c7F)c([H])c6[H])c(C(=O)N([H])[H])c5N([H])[H])C4([H])[H])c(C([H])([H])C([H])([H])C([H])([H])[H])c3C([H])([H])[H])c([H])c([H])c2C1([H])[H]

$$$$
87:0:0
     RDKit          3D

101111  0  0  1  0  0  0  0  0999 V2000
  -27.1810  -25.0070   17.2020 C   0  0  0  0  0  3  0  0  0  0  0  0
  -30.0550  -25.3150   18.8170 C   0  0  0  0  0  2  0  0  0  0  0  0
  -26.3420  -24.0310   18.3970 C   0  0  0  0  0  2  0  0  0  0  0  0
  -28.0480  -24.3950   20.8990 C   0  0  0  0  0  2  0  0  0  0  0  0
  -28.8980  -25.4040   17.4960 C   0  0  1  0  0  0  0  0  0  0  0  0
  -29.5880  -24.3590   20.1890 C   0  0  2  0  0  0  0  0  0  0  0  0
  -29.3610  -24.2140   16.4320 C   0  0  0  0  0  1  0  0  0  0  0  0
  -30.6210  -24.6420   21.3810 C   0  0  0  0  0  1  0  0  0  0  0  0
  -26.6730  -24.1390   20.0410 N   0  0  0  0  0  0  0  0  0  0  0  0
  -24.3540  -22.9000   22.8460 C   0  0  0  0  0  3  0  0  0  0  0  0
  -23.8790  -24.1300   23.3720 C   0  0  0  0  0  3  0  0  0  0  0  0
  -25.3030  -22.9480   21.8010 C   0  0  0  0  0  3  0  0  0  0  0  0
  -24.8440  -25.2890   21.4390 C   0  0  0  0  0  3  0  0  0  0  0  0
  -24.0900  -25.3410   22.6460 C   0  0  0  0  0  0  0  0  0  0  0  0
  -25.5820  -24.1160   21.0360 C   0  0  0  0  0  0  0  0  0  0  0  0
  -23.5870  -26.7040   23.1550 C   0  0  0  0  0  1  0  0  0  0  0  0
  -29.9160  -22.9010   19.8020 C   0  0  0  0  0  2  0  0  0  0  0  0
  -29.4370  -21.7420   20.7680 C   0  0  0  0  0  2  0  0  0  0  0  0
  -29.9790  -20.3820   20.3030 C   0  0  0  0  0  2  0  0  0  0  0  0
  -29.6090  -19.0870   21.1440 C   0  0  0  0  0  2  0  0  0  0  0  0
  -30.4890  -17.8420   20.8240 C   0  0  0  0  0  2  0  0  0  0  0  0
  -30.7660  -15.3070   20.8640 C   0  0  0  0  0  0  0  0  0  0  0  0
  -30.5770  -13.0500   19.8730 C   0  0  0  0  0  2  0  0  0  0  0  0
  -29.7760  -13.1500   18.5400 C   0  0  0  0  0  2  0  0  0  0  0  0
  -28.2800  -12.9340   18.8160 C   0  0  0  0  0  2  0  0  0  0  0  0
  -27.7910  -13.8230   20.0020 C   0  0  0  0  0  3  0  0  0  0  0  0
  -28.7400  -13.7490   21.2300 C   0  0  0  0  0  2  0  0  0  0  0  0
  -30.0740  -14.0880   20.7850 N   0  0  0  0  0  0  0  0  0  0  0  0
  -31.8940  -15.4090   20.5200 O   0  0  0  0  0  0  0  0  0  0  0  0
  -30.0090  -16.4630   21.1740 N   0  0  0  0  0  0  0  0  0  0  0  0
  -29.0910  -16.3090   21.5060 H   0  0  0  0  0  0  0  0  0  0  0  0
  -25.3440  -14.4070   20.5220 C   0  0  0  0  0  0  0  0  0  0  0  0
  -24.2390  -13.6010   20.7720 C   0  0  0  0  0  0  0  0  0  0  0  0
  -24.7210  -12.2690   20.7460 C   0  0  0  0  0  0  0  0  0  0  0  0
  -26.4030  -13.5250   20.3660 N   0  0  0  0  0  0  0  0  0  0  0  0
  -26.0310  -12.2360   20.5510 N   0  0  0  0  0  0  0  0  0  0  0  0
  -23.9900  -10.9930   20.8360 C   0  0  0  0  0  0  0  0  0  0  0  0
  -24.4480   -9.9380   21.6500 C   0  0  0  0  0  3  0  0  0  0  0  0
  -23.7140   -8.7330   21.7340 C   0  0  0  0  0  3  0  0  0  0  0  0
  -22.5150   -8.5810   21.0020 C   0  0  0  0  0  0  0  0  0  0  0  0
  -22.0840   -9.6250   20.1700 C   0  0  0  0  0  3  0  0  0  0  0  0
  -22.8150  -10.8250   20.0820 C   0  0  0  0  0  3  0  0  0  0  0  0
  -21.7530   -7.4400   21.0000 O   0  0  0  0  0  0  0  0  0  0  0  0
  -21.8510   -6.5070   22.0020 C   0  0  0  0  0  0  0  0  0  0  0  0
  -21.6470   -6.8460   23.3580 C   0  0  0  0  0  3  0  0  0  0  0  0
  -21.6850   -5.8410   24.3460 C   0  0  0  0  0  3  0  0  0  0  0  0
  -21.9190   -4.5020   23.9830 C   0  0  0  0  0  0  0  0  0  0  0  0
  -22.1200   -4.1650   22.6350 C   0  0  0  0  0  3  0  0  0  0  0  0
  -22.0830   -5.1640   21.6460 C   0  0  0  0  0  0  0  0  0  0  0  0
  -22.2530   -4.8280   20.3440 F   0  0  0  0  0  0  0  0  0  0  0  0
  -21.9520   -3.5380   24.9330 F   0  0  0  0  0  0  0  0  0  0  0  0
  -22.8320  -14.0890   20.9240 C   0  0  0  0  0  0  0  0  0  0  0  0
  -22.0410  -13.3680   21.7360 N   0  0  0  0  0  0  0  0  0  0  0  0
  -22.4230  -15.0960   20.3840 O   0  0  0  0  0  0  0  0  0  0  0  0
  -22.3950  -12.5490   22.2030 H   0  0  0  0  0  0  0  0  0  0  0  0
  -21.0840  -13.6540   21.8760 H   0  0  0  0  0  0  0  0  0  0  0  0
  -25.5090  -15.7660   20.3960 N   0  0  0  0  0  0  0  0  0  0  0  0
  -24.7190  -16.4070   20.4440 H   0  0  0  0  0  0  0  0  0  0  0  0
  -26.3750  -16.2300   20.1400 H   0  0  0  0  0  0  0  0  0  0  0  0
  -28.0310  -26.1190   18.4080 C   0  0  0  0  0  3  0  0  0  0  0  0
  -28.1280  -27.3900   19.1440 O   0  0  0  0  0  0  0  0  0  0  0  0
  -24.8390  -32.0730   23.4340 C   0  0  0  0  0  0  0  0  0  0  0  0
  -26.8990  -27.9150   19.4810 C   0  0  0  0  0  0  0  0  0  0  0  0
  -23.5020  -30.8940   21.7140 C   0  0  0  0  0  3  0  0  0  0  0  0
  -24.7130  -29.4890   19.9050 C   0  0  0  0  0  0  0  0  0  0  0  0
  -25.9690  -31.0790   21.4220 C   0  0  0  0  0  2  0  0  0  0  0  0
  -25.8810  -29.8130   20.5690 C   0  0  0  0  0  0  0  0  0  0  0  0
  -27.0260  -29.0400   20.2860 C   0  0  0  0  0  3  0  0  0  0  0  0
  -25.6710  -27.4420   18.9940 C   0  0  0  0  0  3  0  0  0  0  0  0
  -24.5600  -28.3590   19.0590 C   0  0  0  0  0  3  0  0  0  0  0  0
  -23.6020  -30.4640   20.2150 C   0  0  0  0  0  2  0  0  0  0  0  0
  -24.8050  -31.3350   22.2790 N   0  0  0  0  0  0  0  0  0  0  0  0
  -23.7940  -32.3130   24.0680 O   0  0  0  0  0  0  0  0  0  0  0  0
  -22.8750  -29.7680   22.5480 C   0  0  0  0  0  0  0  0  0  0  0  0
  -21.5880  -29.5620   22.3040 N   0  0  0  0  0  0  0  0  0  0  0  0
  -23.5410  -29.0790   23.3430 O   0  0  0  0  0  0  0  0  0  0  0  0
  -21.1310  -30.1740   21.6510 H   0  0  0  0  0  0  0  0  0  0  0  0
  -18.2940  -28.1500   22.7160 C   0  0  0  0  0  0  0  0  0  0  0  0
  -20.8310  -28.5230   22.9660 C   0  0  0  0  0  3  0  0  0  0  0  0
  -21.0290  -27.1690   22.2790 C   0  0  0  0  0  2  0  0  0  0  0  0
  -19.9280  -26.8630   21.2600 C   0  0  0  0  0  2  0  0  0  0  0  0
  -18.5440  -26.8570   21.9320 C   0  0  0  0  0  2  0  0  0  0  0  0
  -19.3860  -28.9270   23.2000 C   0  0  0  0  0  0  0  0  0  0  0  0
  -19.0990  -30.1200   23.9040 C   0  0  0  0  0  3  0  0  0  0  0  0
  -17.7710  -30.5250   24.1400 C   0  0  0  0  0  3  0  0  0  0  0  0
  -16.7040  -29.7580   23.6530 C   0  0  0  0  0  3  0  0  0  0  0  0
  -16.9720  -28.5760   22.9470 C   0  0  0  0  0  3  0  0  0  0  0  0
  -26.1760  -32.6340   24.0070 C   0  0  0  0  0  3  0  0  0  0  0  0
  -25.9350  -34.0290   24.3820 N   0  0  0  0  0  0  0  0  0  0  0  0
  -26.3080  -35.0780   23.6630 C   0  0  0  0  0  0  0  0  0  0  0  0
  -26.9670  -35.0010   22.6090 O   0  0  0  0  0  0  0  0  0  0  0  0
  -25.3810  -34.2610   25.2030 H   0  0  0  0  0  0  0  0  0  0  0  0
  -24.6920  -36.9620   23.3940 C   0  0  0  0  0  1  0  0  0  0  0  0
  -25.8940  -36.4590   24.2040 C   0  0  0  0  0  3  0  0  0  0  0  0
  -28.0380  -37.1680   25.1270 C   0  0  0  0  0  1  0  0  0  0  0  0
  -26.9740  -37.4520   24.1780 N   0  0  0  0  0  0  0  0  0  0  0  0
  -26.6100  -38.3570   24.4080 H   0  0  0  0  0  0  0  0  0  0  0  0
  -26.7040  -31.7530   25.1920 C   0  0  1  0  0  0  0  0  0  0  0  0
  -25.5850  -31.5210   26.2370 C   0  0  0  0  0  1  0  0  0  0  0  0
  -27.2250  -30.3480   24.7220 C   0  0  0  0  0  1  0  0  0  0  0  0
  -27.8590  -32.4920   25.8970 C   0  0  0  0  0  1  0  0  0  0  0  0
  1  5  1  0
  1  3  1  0
  1 60  1  0
  2  6  1  0
  3  9  1  0
  5  7  1  1
  5 60  1  0
  5  2  1  0
  6  4  1  0
  6  8  1  1
  9  4  1  0
  9 15  1  0
 10 11  1  0
 12 10  2  0
 13 14  1  0
 14 16  1  0
 14 11  2  0
 15 13  2  0
 15 12  1  0
 17  6  1  0
 17 18  1  0
 19 18  1  0
 19 20  1  0
 21 20  1  0
 21 30  1  0
 22 30  1  0
 23 28  1  0
 24 25  1  0
 24 23  1  0
 26 25  1  0
 26 35  1  0
 26 27  1  0
 28 22  1  0
 28 27  1  0
 29 22  2  0
 30 31  1  0
 32 33  2  0
 33 52  1  0
 34 33  1  0
 34 37  1  0
 35 32  1  0
 35 36  1  0
 36 34  2  0
 37 38  1  0
 38 39  2  0
 40 39  1  0
 41 40  2  0
 42 41  1  0
 42 37  2  0
 43 40  1  0
 43 44  1  0
 44 45  1  0
 45 46  2  0
 47 46  1  0
 47 51  1  0
 48 47  2  0
 49 44  2  0
 49 48  1  0
 50 49  1  0
 52 53  1  0
 53 56  1  0
 53 55  1  0
 54 52  2  0
 57 58  1  0
 57 32  1  0
 59 57  1  0
 60 61  1  0
 61 63  1  0
 62 73  2  0
 63 68  1  0
 64 72  1  0
 64 74  1  0
 65 71  1  0
 65 67  1  0
 66 72  1  0
 67 66  1  0
 68 67  2  0
 69 70  1  0
 69 63  2  0
 70 65  2  0
 71 64  1  0
 72 62  1  0
 74 76  2  0
 75 74  1  0
 77 75  1  0
 78 87  2  0
 78 83  1  0
 79 75  1  0
 79 83  1  0
 80 79  1  0
 81 82  1  0
 81 80  1  0
 82 78  1  0
 83 84  2  0
 84 85  1  0
 86 85  2  0
 87 86  1  0
 88 62  1  0
 88 89  1  0
 88 98  1  0
 89 92  1  0
 90 94  1  0
 90 89  1  0
 91 90  2  0
 94 93  1  0
 96 94  1  0
 96 97  1  0
 96 95  1  0
 98101  1  1
 98 99  1  0
100 98  1  0
M  ISO  4  22 100  30 100  60 101  61 101
M  END
>  <TORSDO>  (88) 
F 23

>  <SCORE>  (88) 
-10.630

>  <name>  (88) 
87

>  <ligand_id>  (88) 
87

>  <original_smiles>  (88) 
[H]c1c([H])c(N2C([H])([H])C([H])([H])C(C([H])([H])[H])(C([H])([H])Oc3c([H])c([H])c4c(c3[H])C([H])([H])N(C(=O)C([H])(N([H])C(=O)C([H])(N([H])C([H])([H])[H])C([H])([H])[H])C(C([H])([H])[H])(C([H])([H])[H])C([H])([H])[H])C([H])(C(=O)N([H])C3([H])c5c([H])c([H])c([H])c([H])c5C([H])([H])C([H])([H])C3([H])[H])C4([H])[H])C([H])([H])C(C([H])([H])[H])(C([H])([H])C([H])([H])C([H])([H])C([H])([H])C([H])([H])N([H])C(=O)N3C([H])([H])C([H])([H])C([H])([H])C([H])(n4nc(-c5c([H])c([H])c(Oc6c([H])c([H])c(F)c([H])c6F)c([H])c5[H])c(C(=O)N([H])[H])c4N([H])[H])C3([H])[H])C2([H])[H])c([H])c(C([H])([H])[H])c1[H]

>  <smiles>  (88) 
[H]c1c([H])c(N2C([H])([H])C([H])([H])C(C([H])([H])[H])(C([H])([H])Oc3c([H])c([H])c4c(c3[H])C([H])([H])N(C(=O)C([H])(N([H])C(=O)C([H])(N([H])C([H])([H])[H])C([H])([H])[H])C(C([H])([H])[H])(C([H])([H])[H])C([H])([H])[H])C([H])(C(=O)N([H])C3([H])c5c([H])c([H])c([H])c([H])c5C([H])([H])C([H])([H])C3([H])[H])C4([H])[H])C([H])([H])C(C([H])([H])[H])(C([H])([H])C([H])([H])C([H])([H])C([H])([H])C([H])([H])N([H])C(=O)N3C([H])([H])C([H])([H])C([H])([H])C([H])(n4nc(-c5c([H])c([H])c(Oc6c([H])c([H])c(F)c([H])c6F)c([H])c5[H])c(C(=O)N([H])[H])c4N([H])[H])C3([H])[H])C2([H])[H])c([H])c(C([H])([H])[H])c1[H]

$$$$
88:0:0
     RDKit          3D

 95103  0  0  1  0  0  0  0  0999 V2000
  -29.4290  -18.3830   18.6480 C   0  0  0  0  0  3  0  0  0  0  0  0
  -30.2280  -19.9220   20.3120 C   0  0  0  0  0  3  0  0  0  0  0  0
  -30.2290  -18.4660   19.8080 C   0  0  0  0  0  0  0  0  0  0  0  0
  -28.7450  -19.4950   18.0600 C   0  0  0  0  0  0  0  0  0  0  0  0
  -29.5260  -21.1720   19.7580 C   0  0  0  0  0  0  0  0  0  0  0  0
  -28.8230  -20.8370   18.5740 C   0  0  0  0  0  0  0  0  0  0  0  0
  -29.0120  -22.4330   16.8770 C   0  0  0  0  0  1  0  0  0  0  0  0
  -28.2150  -21.8680   17.9090 O   0  0  0  0  0  0  0  0  0  0  0  0
  -27.9410  -19.1770   16.7880 C   0  0  0  0  0  2  0  0  0  0  0  0
  -26.6140  -19.9390   16.5420 C   0  0  0  0  0  2  0  0  0  0  0  0
  -24.8200  -21.3920   17.5920 C   0  0  0  0  0  1  0  0  0  0  0  0
  -24.8120  -18.8970   18.0170 C   0  0  0  0  0  1  0  0  0  0  0  0
  -25.6920  -20.1350   17.7670 C   0  0  0  0  0  3  0  0  0  0  0  0
  -29.5460  -22.8560   20.2350 C   0  0  0  0  0  3  0  0  0  0  0  0
  -28.5250  -24.2930   19.8690 C   0  0  0  0  0  3  0  0  0  0  0  0
  -28.6200  -25.8980   20.2160 O   0  0  0  0  0  0  0  0  0  0  0  0
  -24.7830  -31.6080   23.2620 C   0  0  0  0  0  0  0  0  0  0  0  0
  -27.5650  -26.9440   20.1330 C   0  0  0  0  0  0  0  0  0  0  0  0
  -23.6650  -30.2230   21.5590 C   0  0  0  0  0  3  0  0  0  0  0  0
  -25.1940  -28.7220   20.1070 C   0  0  0  0  0  0  0  0  0  0  0  0
  -26.2230  -30.5350   21.4620 C   0  0  0  0  0  2  0  0  0  0  0  0
  -26.3550  -29.1550   20.7610 C   0  0  0  0  0  0  0  0  0  0  0  0
  -27.5320  -28.2850   20.7540 C   0  0  0  0  0  3  0  0  0  0  0  0
  -26.3720  -26.6580   19.4300 C   0  0  0  0  0  3  0  0  0  0  0  0
  -25.2280  -27.4960   19.4210 C   0  0  0  0  0  3  0  0  0  0  0  0
  -23.9400  -29.5920   20.1650 C   0  0  0  0  0  2  0  0  0  0  0  0
  -24.9100  -30.8150   22.1490 N   0  0  0  0  0  0  0  0  0  0  0  0
  -23.6760  -31.8430   23.7720 O   0  0  0  0  0  0  0  0  0  0  0  0
  -22.9940  -29.1740   22.4800 C   0  0  0  0  0  0  0  0  0  0  0  0
  -21.6920  -28.9020   22.2680 N   0  0  0  0  0  0  0  0  0  0  0  0
  -23.6510  -28.6040   23.3560 O   0  0  0  0  0  0  0  0  0  0  0  0
  -21.2140  -29.4150   21.5410 H   0  0  0  0  0  0  0  0  0  0  0  0
  -18.4110  -27.3730   22.5060 C   0  0  0  0  0  0  0  0  0  0  0  0
  -20.8980  -27.9010   22.9870 C   0  0  0  0  0  3  0  0  0  0  0  0
  -21.1910  -26.4760   22.4610 C   0  0  0  0  0  2  0  0  0  0  0  0
  -20.2230  -26.0270   21.3610 C   0  0  0  0  0  2  0  0  0  0  0  0
  -18.7810  -26.0410   21.8780 C   0  0  0  0  0  2  0  0  0  0  0  0
  -19.4050  -28.2540   23.0110 C   0  0  0  0  0  0  0  0  0  0  0  0
  -19.0060  -29.4930   23.5550 C   0  0  0  0  0  3  0  0  0  0  0  0
  -17.6470  -29.8580   23.6000 C   0  0  0  0  0  3  0  0  0  0  0  0
  -16.6670  -28.9770   23.1100 C   0  0  0  0  0  3  0  0  0  0  0  0
  -17.0490  -27.7350   22.5700 C   0  0  0  0  0  3  0  0  0  0  0  0
  -26.0200  -32.2750   23.9350 C   0  0  0  0  0  3  0  0  0  0  0  0
  -25.6810  -33.6820   24.2160 N   0  0  0  0  0  0  0  0  0  0  0  0
  -26.0430  -34.7250   23.4580 C   0  0  0  0  0  0  0  0  0  0  0  0
  -26.7580  -34.6060   22.4600 O   0  0  0  0  0  0  0  0  0  0  0  0
  -25.0510  -33.8470   24.9870 H   0  0  0  0  0  0  0  0  0  0  0  0
  -24.3290  -36.5120   22.9950 C   0  0  0  0  0  1  0  0  0  0  0  0
  -25.5330  -36.1220   23.8680 C   0  0  0  0  0  3  0  0  0  0  0  0
  -27.6250  -37.0310   24.7820 C   0  0  0  0  0  1  0  0  0  0  0  0
  -26.5690  -37.1780   23.7840 N   0  0  0  0  0  0  0  0  0  0  0  0
  -26.1540  -38.0990   23.8930 H   0  0  0  0  0  0  0  0  0  0  0  0
  -26.4660  -31.5490   25.2650 C   0  0  1  0  0  0  0  0  0  0  0  0
  -25.3160  -31.3390   26.2780 C   0  0  0  0  0  1  0  0  0  0  0  0
  -27.0750  -30.1620   24.9600 C   0  0  0  0  0  1  0  0  0  0  0  0
  -27.5750  -32.3700   25.9640 C   0  0  0  0  0  1  0  0  0  0  0  0
  -30.9250  -16.9890   20.4460 C   0  0  0  0  0  3  0  0  0  0  0  0
  -31.3920  -15.4150   19.7720 C   0  0  0  0  0  0  0  0  0  0  0  0
  -31.1040  -13.0380   18.7400 C   0  0  0  0  0  2  0  0  0  0  0  0
  -30.0870  -13.0320   17.5690 C   0  0  0  0  0  2  0  0  0  0  0  0
  -28.6460  -12.8600   18.0840 C   0  0  0  0  0  2  0  0  0  0  0  0
  -28.3740  -13.7440   19.3250 C   0  0  0  0  0  3  0  0  0  0  0  0
  -29.5070  -13.6460   20.3670 C   0  0  0  0  0  2  0  0  0  0  0  0
  -30.7380  -14.1410   19.7110 N   0  0  0  0  0  0  0  0  0  0  0  0
  -32.5310  -15.3390   19.2820 O   0  0  0  0  0  0  0  0  0  0  0  0
  -26.0950  -14.4450   20.2410 C   0  0  0  0  0  0  0  0  0  0  0  0
  -25.0050  -13.7360   20.6550 C   0  0  0  0  0  0  0  0  0  0  0  0
  -25.3680  -12.3550   20.5520 C   0  0  0  0  0  0  0  0  0  0  0  0
  -27.0560  -13.5080   19.9010 N   0  0  0  0  0  0  0  0  0  0  0  0
  -26.6320  -12.2420   20.1530 N   0  0  0  0  0  0  0  0  0  0  0  0
  -24.5640  -11.1430   20.7530 C   0  0  0  0  0  0  0  0  0  0  0  0
  -24.9320  -10.1540   21.6930 C   0  0  0  0  0  3  0  0  0  0  0  0
  -24.1270   -9.0120   21.8810 C   0  0  0  0  0  3  0  0  0  0  0  0
  -22.9370   -8.8490   21.1310 C   0  0  0  0  0  0  0  0  0  0  0  0
  -22.5880   -9.8250   20.1820 C   0  0  0  0  0  3  0  0  0  0  0  0
  -23.3940  -10.9590   19.9920 C   0  0  0  0  0  3  0  0  0  0  0  0
  -22.1070   -7.7580   21.2300 O   0  0  0  0  0  0  0  0  0  0  0  0
  -21.9430   -7.0820   22.4120 C   0  0  0  0  0  0  0  0  0  0  0  0
  -21.4860   -7.7280   23.5800 C   0  0  0  0  0  3  0  0  0  0  0  0
  -21.2660   -6.9840   24.7570 C   0  0  0  0  0  3  0  0  0  0  0  0
  -21.4890   -5.5940   24.7640 C   0  0  0  0  0  0  0  0  0  0  0  0
  -21.9370   -4.9470   23.5990 C   0  0  0  0  0  3  0  0  0  0  0  0
  -22.1590   -5.6890   22.4250 C   0  0  0  0  0  0  0  0  0  0  0  0
  -22.5710   -5.0570   21.3010 F   0  0  0  0  0  0  0  0  0  0  0  0
  -21.2700   -4.8780   25.8930 F   0  0  0  0  0  0  0  0  0  0  0  0
  -23.6670  -14.3010   21.0330 C   0  0  0  0  0  0  0  0  0  0  0  0
  -22.9600  -13.6430   21.9440 N   0  0  0  0  0  0  0  0  0  0  0  0
  -23.2660  -15.3630   20.5560 O   0  0  0  0  0  0  0  0  0  0  0  0
  -23.2990  -12.7830   22.3470 H   0  0  0  0  0  0  0  0  0  0  0  0
  -22.0640  -14.0040   22.2410 H   0  0  0  0  0  0  0  0  0  0  0  0
  -26.3450  -15.8080   20.0990 N   0  0  0  0  0  0  0  0  0  0  0  0
  -25.6610  -16.5160   20.3430 H   0  0  0  0  0  0  0  0  0  0  0  0
  -27.2150  -16.2000   19.7660 H   0  0  0  0  0  0  0  0  0  0  0  0
  -30.3500  -17.9300   22.8370 C   0  0  0  0  0  1  0  0  0  0  0  0
  -30.4060  -16.7350   21.8790 C   0  0  0  0  0  2  0  0  0  0  0  0
  1  3  1  0
  3  2  2  0
  3 57  1  0
  4  6  1  0
  4  1  2  0
  5 14  1  0
  5  2  1  0
  6  5  2  0
  7  8  1  0
  8  6  1  0
  9  4  1  0
 10  9  1  0
 10 13  1  0
 11 13  1  0
 13 12  1  0
 15 16  1  0
 15 14  2  0
 17 28  2  0
 18 16  1  0
 18 23  1  0
 19 27  1  0
 19 29  1  0
 20 26  1  0
 20 22  1  0
 21 27  1  0
 22 21  1  0
 23 22  2  0
 24 18  2  0
 25 24  1  0
 25 20  2  0
 26 19  1  0
 27 17  1  0
 29 31  2  0
 30 29  1  0
 32 30  1  0
 33 42  2  0
 33 38  1  0
 34 30  1  0
 34 38  1  0
 35 34  1  0
 36 37  1  0
 36 35  1  0
 37 33  1  0
 38 39  2  0
 39 40  1  0
 41 40  2  0
 42 41  1  0
 43 17  1  0
 43 44  1  0
 43 53  1  0
 44 47  1  0
 45 49  1  0
 45 44  1  0
 46 45  2  0
 49 48  1  0
 51 49  1  0
 51 52  1  0
 51 50  1  0
 53 56  1  1
 53 54  1  0
 55 53  1  0
 57 95  1  0
 58 57  1  0
 59 64  1  0
 60 61  1  0
 60 59  1  0
 62 61  1  0
 62 69  1  0
 62 63  1  0
 64 58  1  0
 64 63  1  0
 65 58  2  0
 66 67  2  0
 67 86  1  0
 68 67  1  0
 68 71  1  0
 69 70  1  0
 69 66  1  0
 70 68  2  0
 71 72  1  0
 72 73  2  0
 74 77  1  0
 74 73  1  0
 75 74  2  0
 76 75  1  0
 76 71  2  0
 77 78  1  0
 78 83  2  0
 78 79  1  0
 79 80  2  0
 80 81  1  0
 81 85  1  0
 82 81  2  0
 83 82  1  0
 84 83  1  0
 86 87  1  0
 87 90  1  0
 87 89  1  0
 88 86  2  0
 91 66  1  0
 91 92  1  0
 93 91  1  0
 95 94  1  0
M  ISO  4  15 101  16 101  57 100  58 100
M  END
>  <TORSDO>  (89) 
F 24

>  <SCORE>  (89) 
-10.280

>  <name>  (89) 
88

>  <ligand_id>  (89) 
88

>  <original_smiles>  (89) 
[H]c1c([H])c([H])c2c(c1[H])C([H])([H])C([H])([H])C([H])([H])C2([H])N([H])C(=O)C1([H])N(C(=O)C([H])(N([H])C(=O)C([H])(N([H])C([H])([H])[H])C([H])([H])[H])C(C([H])([H])[H])(C([H])([H])[H])C([H])([H])[H])C([H])([H])c2c([H])c(OC([H])([H])C([H])([H])c3c([H])c(C([H])(C(=O)N4C([H])([H])C([H])([H])C([H])([H])C([H])(n5nc(-c6c([H])c([H])c(Oc7c([H])c([H])c(F)c([H])c7F)c([H])c6[H])c(C(=O)N([H])[H])c5N([H])[H])C4([H])[H])C([H])([H])C([H])([H])[H])c([H])c(C([H])([H])C([H])([H])C([H])(C([H])([H])[H])C([H])([H])[H])c3OC([H])([H])[H])c([H])c([H])c2C1([H])[H]

>  <smiles>  (89) 
[H]c1c([H])c([H])c2c(c1[H])C([H])([H])C([H])([H])C([H])([H])C2([H])N([H])C(=O)C1([H])N(C(=O)C([H])(N([H])C(=O)C([H])(N([H])C([H])([H])[H])C([H])([H])[H])C(C([H])([H])[H])(C([H])([H])[H])C([H])([H])[H])C([H])([H])c2c([H])c(OC([H])([H])C([H])([H])c3c([H])c(C([H])(C(=O)N4C([H])([H])C([H])([H])C([H])([H])C([H])(n5nc(-c6c([H])c([H])c(Oc7c([H])c([H])c(F)c([H])c7F)c([H])c6[H])c(C(=O)N([H])[H])c5N([H])[H])C4([H])[H])C([H])([H])C([H])([H])[H])c([H])c(C([H])([H])C([H])([H])C([H])(C([H])([H])[H])C([H])([H])[H])c3OC([H])([H])[H])c([H])c([H])c2C1([H])[H]

$$$$
89:0:0
     RDKit          3D

 88 96  0  0  1  0  0  0  0  0999 V2000
  -28.6080  -21.5490   19.1900 C   0  0  0  0  0  3  0  0  0  0  0  0
  -28.2540  -23.0400   19.1700 C   0  0  0  0  0  3  0  0  0  0  0  0
  -28.9580  -23.2190   21.2610 C   0  0  0  0  0  3  0  0  0  0  0  0
  -29.1800  -20.6680   20.2500 C   0  0  0  0  0  0  0  0  0  0  0  0
  -29.3210  -21.7290   21.2920 C   0  0  0  0  0  0  0  0  0  0  0  0
  -28.3680  -24.0970   20.2120 C   0  0  0  0  0  0  0  0  0  0  0  0
  -30.0020  -21.2670   22.5680 C   0  0  0  0  0  1  0  0  0  0  0  0
  -29.9420  -19.0030   20.1340 C   0  0  0  0  0  0  0  0  0  0  0  0
  -31.1160  -19.1670   19.7940 O   0  0  0  0  0  0  0  0  0  0  0  0
  -28.3390  -17.1300   20.7180 C   0  0  0  0  0  2  0  0  0  0  0  0
  -29.6180  -17.2530   20.3290 C   0  0  0  0  0  0  0  0  0  0  0  0
  -30.4180  -15.7350   20.1720 C   0  0  0  0  0  0  0  0  0  0  0  0
  -30.5050  -13.2070   19.3260 C   0  0  0  0  0  2  0  0  0  0  0  0
  -29.5840  -12.8580   18.1200 C   0  0  0  0  0  2  0  0  0  0  0  0
  -28.1640  -12.4990   18.5860 C   0  0  0  0  0  2  0  0  0  0  0  0
  -27.6830  -13.4630   19.6950 C   0  0  0  0  0  3  0  0  0  0  0  0
  -28.7450  -13.6970   20.7940 C   0  0  0  0  0  2  0  0  0  0  0  0
  -29.9080  -14.3580   20.1460 N   0  0  0  0  0  0  0  0  0  0  0  0
  -31.6380  -15.6480   19.9300 O   0  0  0  0  0  0  0  0  0  0  0  0
  -25.3200  -13.9590   20.4920 C   0  0  0  0  0  0  0  0  0  0  0  0
  -24.2800  -13.1640   20.8750 C   0  0  0  0  0  0  0  0  0  0  0  0
  -24.7660  -11.8220   20.8190 C   0  0  0  0  0  0  0  0  0  0  0  0
  -26.3750  -13.1060   20.2260 N   0  0  0  0  0  0  0  0  0  0  0  0
  -26.0550  -11.8110   20.4870 N   0  0  0  0  0  0  0  0  0  0  0  0
  -24.0550  -10.5490   21.0000 C   0  0  0  0  0  0  0  0  0  0  0  0
  -24.4840   -9.5890   21.9420 C   0  0  0  0  0  3  0  0  0  0  0  0
  -23.7650   -8.3850   22.1160 C   0  0  0  0  0  3  0  0  0  0  0  0
  -22.6060   -8.1330   21.3450 C   0  0  0  0  0  0  0  0  0  0  0  0
  -22.1970   -9.0810   20.3920 C   0  0  0  0  0  3  0  0  0  0  0  0
  -22.9150  -10.2760   20.2160 C   0  0  0  0  0  3  0  0  0  0  0  0
  -21.8620   -6.9820   21.4260 O   0  0  0  0  0  0  0  0  0  0  0  0
  -21.7630   -6.2690   22.5950 C   0  0  0  0  0  0  0  0  0  0  0  0
  -21.2460   -6.8430   23.7780 C   0  0  0  0  0  3  0  0  0  0  0  0
  -21.0990   -6.0560   24.9370 C   0  0  0  0  0  3  0  0  0  0  0  0
  -21.4570   -4.6950   24.9150 C   0  0  0  0  0  0  0  0  0  0  0  0
  -21.9670   -4.1200   23.7370 C   0  0  0  0  0  3  0  0  0  0  0  0
  -22.1160   -4.9050   22.5790 C   0  0  0  0  0  0  0  0  0  0  0  0
  -22.5880   -4.3400   21.4420 F   0  0  0  0  0  0  0  0  0  0  0  0
  -21.3090   -3.9360   26.0250 F   0  0  0  0  0  0  0  0  0  0  0  0
  -22.8820  -13.6220   21.1660 C   0  0  0  0  0  0  0  0  0  0  0  0
  -22.1770  -12.9170   22.0430 N   0  0  0  0  0  0  0  0  0  0  0  0
  -22.4250  -14.6430   20.6540 O   0  0  0  0  0  0  0  0  0  0  0  0
  -22.5600  -12.0900   22.4770 H   0  0  0  0  0  0  0  0  0  0  0  0
  -21.2390  -13.2050   22.2830 H   0  0  0  0  0  0  0  0  0  0  0  0
  -25.4420  -15.3330   20.3120 N   0  0  0  0  0  0  0  0  0  0  0  0
  -24.6450  -15.9520   20.4160 H   0  0  0  0  0  0  0  0  0  0  0  0
  -26.2390  -15.7850   19.8850 H   0  0  0  0  0  0  0  0  0  0  0  0
  -28.2800  -25.7080   20.1580 O   0  0  0  0  0  0  0  0  0  0  0  0
  -24.7170  -31.8950   23.1620 C   0  0  0  0  0  0  0  0  0  0  0  0
  -27.2440  -26.8510   20.1570 C   0  0  0  0  0  0  0  0  0  0  0  0
  -23.5150  -30.4840   21.5450 C   0  0  0  0  0  3  0  0  0  0  0  0
  -24.9510  -28.8410   20.1220 C   0  0  0  0  0  0  0  0  0  0  0  0
  -26.0870  -30.6520   21.3850 C   0  0  0  0  0  2  0  0  0  0  0  0
  -26.1500  -29.2180   20.7390 C   0  0  0  0  0  0  0  0  0  0  0  0
  -27.2770  -28.2490   20.7280 C   0  0  0  0  0  3  0  0  0  0  0  0
  -26.0090  -26.6740   19.4810 C   0  0  0  0  0  3  0  0  0  0  0  0
  -24.9160  -27.5940   19.4730 C   0  0  0  0  0  3  0  0  0  0  0  0
  -23.7390  -29.7820   20.1750 C   0  0  0  0  0  2  0  0  0  0  0  0
  -24.7970  -31.0440   22.0830 N   0  0  0  0  0  0  0  0  0  0  0  0
  -23.6300  -32.1890   23.6880 O   0  0  0  0  0  0  0  0  0  0  0  0
  -22.8210  -29.5050   22.5300 C   0  0  0  0  0  0  0  0  0  0  0  0
  -21.4890  -29.3330   22.4170 N   0  0  0  0  0  0  0  0  0  0  0  0
  -23.4910  -28.8950   23.3670 O   0  0  0  0  0  0  0  0  0  0  0  0
  -20.9970  -29.8740   21.7190 H   0  0  0  0  0  0  0  0  0  0  0  0
  -18.1220  -28.0830   22.9590 C   0  0  0  0  0  0  0  0  0  0  0  0
  -20.6790  -28.3940   23.2030 C   0  0  0  0  0  3  0  0  0  0  0  0
  -20.8000  -26.9570   22.6460 C   0  0  0  0  0  2  0  0  0  0  0  0
  -19.6980  -26.6070   21.6400 C   0  0  0  0  0  2  0  0  0  0  0  0
  -18.3170  -26.7330   22.2890 C   0  0  0  0  0  2  0  0  0  0  0  0
  -19.2300  -28.8700   23.3730 C   0  0  0  0  0  0  0  0  0  0  0  0
  -18.9890  -30.1300   23.9630 C   0  0  0  0  0  3  0  0  0  0  0  0
  -17.6750  -30.6050   24.1390 C   0  0  0  0  0  3  0  0  0  0  0  0
  -16.5830  -29.8170   23.7370 C   0  0  0  0  0  3  0  0  0  0  0  0
  -16.8080  -28.5560   23.1530 C   0  0  0  0  0  3  0  0  0  0  0  0
  -25.9860  -32.5540   23.7820 C   0  0  0  0  0  3  0  0  0  0  0  0
  -25.6530  -33.9460   24.1400 N   0  0  0  0  0  0  0  0  0  0  0  0
  -25.9480  -35.0250   23.4010 C   0  0  0  0  0  0  0  0  0  0  0  0
  -26.5870  -34.9520   22.3480 O   0  0  0  0  0  0  0  0  0  0  0  0
  -25.0800  -34.0730   24.9610 H   0  0  0  0  0  0  0  0  0  0  0  0
  -24.1830  -36.8070   23.1550 C   0  0  0  0  0  1  0  0  0  0  0  0
  -25.4630  -36.4000   23.9070 C   0  0  0  0  0  3  0  0  0  0  0  0
  -27.6110  -37.3100   24.6730 C   0  0  0  0  0  1  0  0  0  0  0  0
  -26.4740  -37.4720   23.7720 N   0  0  0  0  0  0  0  0  0  0  0  0
  -26.0590  -38.3840   23.9450 H   0  0  0  0  0  0  0  0  0  0  0  0
  -26.5190  -31.7870   25.0570 C   0  0  1  0  0  0  0  0  0  0  0  0
  -25.4390  -31.5400   26.1360 C   0  0  0  0  0  1  0  0  0  0  0  0
  -27.1110  -30.4140   24.6700 C   0  0  0  0  0  1  0  0  0  0  0  0
  -27.6700  -32.5910   25.7080 C   0  0  0  0  0  1  0  0  0  0  0  0
  1  4  1  0
  2  1  2  0
  2  6  1  0
  3  5  1  0
  4  5  2  0
  5  7  1  0
  6  3  2  0
  8  4  1  0
  8 11  1  0
  9  8  2  0
 11 10  2  0
 12 11  1  0
 13 18  1  0
 14 15  1  0
 14 13  1  0
 16 15  1  0
 16 23  1  0
 16 17  1  0
 18 12  1  0
 18 17  1  0
 19 12  2  0
 20 21  2  0
 21 40  1  0
 22 21  1  0
 22 25  1  0
 23 24  1  0
 23 20  1  0
 24 22  2  0
 25 26  1  0
 26 27  2  0
 28 31  1  0
 28 27  1  0
 29 28  2  0
 30 29  1  0
 30 25  2  0
 31 32  1  0
 32 33  1  0
 33 34  2  0
 35 34  1  0
 35 39  1  0
 36 35  2  0
 37 32  2  0
 37 36  1  0
 38 37  1  0
 40 41  1  0
 41 44  1  0
 41 43  1  0
 42 40  2  0
 45 46  1  0
 45 20  1  0
 47 45  1  0
 48  6  1  0
 49 60  2  0
 50 48  1  0
 50 55  1  0
 51 59  1  0
 51 61  1  0
 52 58  1  0
 52 54  1  0
 53 59  1  0
 54 53  1  0
 55 54  2  0
 56 50  2  0
 57 56  1  0
 57 52  2  0
 58 51  1  0
 59 49  1  0
 61 63  2  0
 62 61  1  0
 64 62  1  0
 65 74  2  0
 65 70  1  0
 66 62  1  0
 66 70  1  0
 67 66  1  0
 68 69  1  0
 68 67  1  0
 69 65  1  0
 70 71  2  0
 71 72  1  0
 73 72  2  0
 74 73  1  0
 75 49  1  0
 75 76  1  0
 75 85  1  0
 76 79  1  0
 77 81  1  0
 77 76  1  0
 78 77  2  0
 81 80  1  0
 83 81  1  0
 83 84  1  0
 83 82  1  0
 85 88  1  1
 85 86  1  0
 87 85  1  0
M  ISO  4   6 101  11 100  12 100  48 101
M  END
>  <TORSDO>  (90) 
F 18

>  <SCORE>  (90) 
-15.913

>  <name>  (90) 
89

>  <ligand_id>  (90) 
89

>  <original_smiles>  (90) 
[H]C([H])=C(C(=O)c1c([H])c([H])c(Oc2c([H])c([H])c3c(c2[H])C([H])([H])N(C(=O)C([H])(N([H])C(=O)C([H])(N([H])C([H])([H])[H])C([H])([H])[H])C(C([H])([H])[H])(C([H])([H])[H])C([H])([H])[H])C([H])(C(=O)N([H])C2([H])c4c([H])c([H])c([H])c([H])c4C([H])([H])C([H])([H])C2([H])[H])C3([H])[H])c([H])c1C([H])([H])[H])C(=O)N1C([H])([H])C([H])([H])C([H])([H])C([H])(n2nc(-c3c([H])c([H])c(Oc4c([H])c([H])c(F)c([H])c4F)c([H])c3[H])c(C(=O)N([H])[H])c2N([H])[H])C1([H])[H]

>  <smiles>  (90) 
[H]C([H])=C(C(=O)c1c([H])c([H])c(Oc2c([H])c([H])c3c(c2[H])C([H])([H])N(C(=O)C([H])(N([H])C(=O)C([H])(N([H])C([H])([H])[H])C([H])([H])[H])C(C([H])([H])[H])(C([H])([H])[H])C([H])([H])[H])C([H])(C(=O)N([H])C2([H])c4c([H])c([H])c([H])c([H])c4C([H])([H])C([H])([H])C2([H])[H])C3([H])[H])c([H])c1C([H])([H])[H])C(=O)N1C([H])([H])C([H])([H])C([H])([H])C([H])(n2nc(-c3c([H])c([H])c(Oc4c([H])c([H])c(F)c([H])c4F)c([H])c3[H])c(C(=O)N([H])[H])c2N([H])[H])C1([H])[H]

$$$$
90:0:0
     RDKit          3D

 93101  0  0  1  0  0  0  0  0999 V2000
  -27.8570  -23.1820   21.4620 C   0  0  0  0  0  3  0  0  0  0  0  0
  -28.0630  -24.5680   21.2690 C   0  0  0  0  0  3  0  0  0  0  0  0
  -30.0810  -23.9360   20.1110 C   0  0  0  0  0  3  0  0  0  0  0  0
  -28.7050  -22.1400   20.9830 C   0  0  0  0  0  0  0  0  0  0  0  0
  -29.9250  -22.4090   20.2870 C   0  0  0  0  0  0  0  0  0  0  0  0
  -29.1690  -25.0940   20.5810 C   0  0  0  0  0  0  0  0  0  0  0  0
  -27.0390  -20.2940   20.3280 C   0  0  0  0  0  1  0  0  0  0  0  0
  -28.2090  -20.7170   21.2380 C   0  0  0  0  0  2  0  0  0  0  0  0
  -29.2510  -26.6210   20.5600 O   0  0  0  0  0  0  0  0  0  0  0  0
  -24.9680  -31.9720   23.7830 C   0  0  0  0  0  0  0  0  0  0  0  0
  -28.1570  -27.6290   20.5960 C   0  0  0  0  0  0  0  0  0  0  0  0
  -24.0510  -30.6900   21.8910 C   0  0  0  0  0  3  0  0  0  0  0  0
  -25.7490  -29.3460   20.4870 C   0  0  0  0  0  0  0  0  0  0  0  0
  -26.5950  -31.0790   22.0490 C   0  0  0  0  0  2  0  0  0  0  0  0
  -26.8320  -29.7520   21.2750 C   0  0  0  0  0  0  0  0  0  0  0  0
  -28.0340  -28.9170   21.3110 C   0  0  0  0  0  3  0  0  0  0  0  0
  -27.0410  -27.3690   19.7760 C   0  0  0  0  0  3  0  0  0  0  0  0
  -25.8750  -28.1740   19.7230 C   0  0  0  0  0  3  0  0  0  0  0  0
  -24.4690  -30.1790   20.4880 C   0  0  0  0  0  2  0  0  0  0  0  0
  -25.2190  -31.2700   22.6330 N   0  0  0  0  0  0  0  0  0  0  0  0
  -23.8130  -32.1330   24.2110 O   0  0  0  0  0  0  0  0  0  0  0  0
  -23.3420  -29.5500   22.6670 C   0  0  0  0  0  0  0  0  0  0  0  0
  -22.0420  -29.3270   22.3950 N   0  0  0  0  0  0  0  0  0  0  0  0
  -23.9690  -28.8690   23.4830 O   0  0  0  0  0  0  0  0  0  0  0  0
  -21.5840  -29.9380   21.7330 H   0  0  0  0  0  0  0  0  0  0  0  0
  -18.7050  -27.9040   22.4510 C   0  0  0  0  0  0  0  0  0  0  0  0
  -21.2140  -28.2620   22.9720 C   0  0  0  0  0  3  0  0  0  0  0  0
  -21.4470  -26.9170   22.2460 C   0  0  0  0  0  2  0  0  0  0  0  0
  -20.4540  -26.6670   21.1060 C   0  0  0  0  0  2  0  0  0  0  0  0
  -19.0190  -26.6610   21.6350 C   0  0  0  0  0  2  0  0  0  0  0  0
  -19.7360  -28.6670   23.0630 C   0  0  0  0  0  0  0  0  0  0  0  0
  -19.3900  -29.8310   23.7820 C   0  0  0  0  0  3  0  0  0  0  0  0
  -18.0470  -30.2390   23.8900 C   0  0  0  0  0  3  0  0  0  0  0  0
  -17.0300  -29.4740   23.2940 C   0  0  0  0  0  3  0  0  0  0  0  0
  -17.3590  -28.3080   22.5800 C   0  0  0  0  0  3  0  0  0  0  0  0
  -26.1170  -32.6200   24.6130 C   0  0  0  0  0  3  0  0  0  0  0  0
  -25.7260  -34.0040   24.9320 N   0  0  0  0  0  0  0  0  0  0  0  0
  -26.1510  -35.0920   24.2760 C   0  0  0  0  0  0  0  0  0  0  0  0
  -26.9750  -35.0370   23.3600 O   0  0  0  0  0  0  0  0  0  0  0  0
  -25.0130  -34.1200   25.6380 H   0  0  0  0  0  0  0  0  0  0  0  0
  -24.4650  -36.8780   23.7220 C   0  0  0  0  0  1  0  0  0  0  0  0
  -25.5730  -36.4580   24.7010 C   0  0  0  0  0  3  0  0  0  0  0  0
  -27.5450  -37.3340   25.8750 C   0  0  0  0  0  1  0  0  0  0  0  0
  -26.5920  -37.5290   24.7860 N   0  0  0  0  0  0  0  0  0  0  0  0
  -26.1500  -38.4370   24.9120 H   0  0  0  0  0  0  0  0  0  0  0  0
  -26.4450  -31.8280   25.9400 C   0  0  1  0  0  0  0  0  0  0  0  0
  -25.1980  -31.5020   26.7950 C   0  0  0  0  0  1  0  0  0  0  0  0
  -27.1570  -30.4930   25.6260 C   0  0  0  0  0  1  0  0  0  0  0  0
  -27.4230  -32.6500   26.8130 C   0  0  0  0  0  1  0  0  0  0  0  0
  -30.8140  -21.0480   19.6250 C   0  0  0  0  0  2  0  0  0  0  0  0
  -31.4890  -19.4760   20.2150 C   0  0  0  0  0  2  0  0  0  0  0  0
  -31.1660  -17.9120   18.1770 C   0  0  0  0  0  1  0  0  0  0  0  0
  -31.1840  -17.7700   19.7170 C   0  0  1  0  0  0  0  0  0  0  0  0
  -32.0420  -16.2200   19.9250 C   0  0  0  0  0  0  0  0  0  0  0  0
  -32.0120  -13.7210   19.2120 C   0  0  0  0  0  2  0  0  0  0  0  0
  -31.0970  -13.4890   17.9800 C   0  0  0  0  0  2  0  0  0  0  0  0
  -29.6250  -13.2950   18.3940 C   0  0  0  0  0  2  0  0  0  0  0  0
  -29.1970  -14.3230   19.4670 C   0  0  0  0  0  3  0  0  0  0  0  0
  -30.2330  -14.4410   20.6050 C   0  0  0  0  0  2  0  0  0  0  0  0
  -31.4910  -14.9050   19.9920 N   0  0  0  0  0  0  0  0  0  0  0  0
  -33.2720  -16.1800   19.7570 O   0  0  0  0  0  0  0  0  0  0  0  0
  -26.8800  -15.0580   20.2360 C   0  0  0  0  0  0  0  0  0  0  0  0
  -25.7640  -14.3600   20.6030 C   0  0  0  0  0  0  0  0  0  0  0  0
  -26.1220  -12.9780   20.5360 C   0  0  0  0  0  0  0  0  0  0  0  0
  -27.8460  -14.1070   19.9610 N   0  0  0  0  0  0  0  0  0  0  0  0
  -27.4050  -12.8500   20.2140 N   0  0  0  0  0  0  0  0  0  0  0  0
  -25.3010  -11.7710   20.6980 C   0  0  0  0  0  0  0  0  0  0  0  0
  -25.5970  -10.8030   21.6820 C   0  0  0  0  0  3  0  0  0  0  0  0
  -24.7790   -9.6630   21.8330 C   0  0  0  0  0  3  0  0  0  0  0  0
  -23.6510   -9.4820   20.9980 C   0  0  0  0  0  0  0  0  0  0  0  0
  -23.3750  -10.4370   20.0020 C   0  0  0  0  0  3  0  0  0  0  0  0
  -24.1930  -11.5690   19.8490 C   0  0  0  0  0  3  0  0  0  0  0  0
  -22.8160   -8.3930   21.0560 O   0  0  0  0  0  0  0  0  0  0  0  0
  -22.4970   -7.7950   22.2480 C   0  0  0  0  0  0  0  0  0  0  0  0
  -21.8740   -8.5080   23.2940 C   0  0  0  0  0  3  0  0  0  0  0  0
  -21.4970   -7.8380   24.4750 C   0  0  0  0  0  3  0  0  0  0  0  0
  -21.7360   -6.4560   24.6080 C   0  0  0  0  0  0  0  0  0  0  0  0
  -22.3550   -5.7440   23.5660 C   0  0  0  0  0  3  0  0  0  0  0  0
  -22.7310   -6.4110   22.3870 C   0  0  0  0  0  0  0  0  0  0  0  0
  -23.3060   -5.7170   21.3760 F   0  0  0  0  0  0  0  0  0  0  0  0
  -21.3670   -5.8110   25.7400 F   0  0  0  0  0  0  0  0  0  0  0  0
  -24.4050  -14.9380   20.8810 C   0  0  0  0  0  0  0  0  0  0  0  0
  -23.6220  -14.2960   21.7430 N   0  0  0  0  0  0  0  0  0  0  0  0
  -24.0520  -15.9970   20.3660 O   0  0  0  0  0  0  0  0  0  0  0  0
  -23.9160  -13.4390   22.1880 H   0  0  0  0  0  0  0  0  0  0  0  0
  -22.7110  -14.6710   21.9650 H   0  0  0  0  0  0  0  0  0  0  0  0
  -27.1640  -16.4150   20.0720 N   0  0  0  0  0  0  0  0  0  0  0  0
  -26.3520  -16.9580   20.3500 H   0  0  0  0  0  0  0  0  0  0  0  0
  -27.3030  -16.6080   19.0860 H   0  0  0  0  0  0  0  0  0  0  0  0
  -29.8100  -17.5250   20.2070 N   0  0  0  0  0  4  0  0  0  0  0  0
  -29.2120  -18.3020   19.9900 H   0  0  0  0  0  0  0  0  0  0  0  0
  -29.8220  -17.4120   21.2050 H   0  0  0  0  0  0  0  0  0  0  0  0
  -29.3760  -16.7090   19.8110 H   0  0  0  0  0  0  0  0  0  0  0  0
  2  1  1  0
  3  5  2  0
  3  6  1  0
  4  8  1  0
  4  1  2  0
  5  4  1  0
  6  2  2  0
  7  8  1  0
  9  6  1  0
  9 11  1  0
 10 21  2  0
 11 16  1  0
 12 20  1  0
 12 22  1  0
 13 19  1  0
 13 15  1  0
 14 20  1  0
 15 16  2  0
 15 14  1  0
 17 11  2  0
 18 17  1  0
 18 13  2  0
 19 12  1  0
 20 10  1  0
 22 24  2  0
 23 22  1  0
 25 23  1  0
 26 35  2  0
 26 31  1  0
 27 23  1  0
 27 31  1  0
 28 27  1  0
 29 30  1  0
 29 28  1  0
 30 26  1  0
 31 32  2  0
 32 33  1  0
 34 33  2  0
 35 34  1  0
 36 10  1  0
 36 37  1  0
 36 46  1  0
 37 40  1  0
 38 42  1  0
 38 37  1  0
 39 38  2  0
 42 41  1  0
 42 44  1  0
 44 45  1  0
 44 43  1  0
 46 47  1  1
 46 49  1  0
 48 46  1  0
 50 51  1  0
 50  5  1  0
 53 52  1  6
 53 54  1  0
 53 90  1  0
 53 51  1  0
 54 60  1  0
 55 60  1  0
 56 57  1  0
 56 55  1  0
 58 57  1  0
 58 65  1  0
 58 59  1  0
 60 59  1  0
 61 54  2  0
 62 63  2  0
 63 82  1  0
 64 63  1  0
 64 67  1  0
 65 66  1  0
 65 62  1  0
 66 64  2  0
 67 68  1  0
 68 69  2  0
 70 73  1  0
 70 69  1  0
 71 70  2  0
 72 71  1  0
 72 67  2  0
 73 74  1  0
 74 79  2  0
 74 75  1  0
 75 76  2  0
 76 77  1  0
 77 81  1  0
 78 77  2  0
 79 78  1  0
 80 79  1  0
 82 83  1  0
 83 86  1  0
 83 85  1  0
 84 82  2  0
 87 62  1  0
 87 88  1  0
 89 87  1  0
 90 92  1  0
 91 90  1  0
 93 90  1  0
M  ISO  4   6 101   9 101  53 100  54 100
M  END
>  <TORSDO>  (91) 
F 21

>  <SCORE>  (91) 
-9.656

>  <name>  (91) 
90

>  <ligand_id>  (91) 
90

>  <original_smiles>  (91) 
[H]c1c([H])c([H])c2c(c1[H])C([H])([H])C([H])([H])C([H])([H])C2([H])N([H])C(=O)C1([H])N(C(=O)C([H])(N([H])C(=O)C([H])(N([H])C([H])([H])[H])C([H])([H])[H])C(C([H])([H])[H])(C([H])([H])[H])C([H])([H])[H])C([H])([H])c2c([H])c(Oc3c([H])c([H])c(C([H])([H])C([H])([H])[H])c(C([H])([H])C([H])([H])C(C(=O)N4C([H])([H])C([H])([H])C([H])([H])C([H])(n5nc(-c6c([H])c([H])c(Oc7c([H])c([H])c(F)c([H])c7F)c([H])c6[H])c(C(=O)N([H])[H])c5N([H])[H])C4([H])[H])(C([H])([H])[H])[N+]([H])([H])[H])c3[H])c([H])c([H])c2C1([H])[H]

>  <smiles>  (91) 
[H]c1c([H])c([H])c2c(c1[H])C([H])([H])C([H])([H])C([H])([H])C2([H])N([H])C(=O)C1([H])N(C(=O)C([H])(N([H])C(=O)C([H])(N([H])C([H])([H])[H])C([H])([H])[H])C(C([H])([H])[H])(C([H])([H])[H])C([H])([H])[H])C([H])([H])c2c([H])c(Oc3c([H])c([H])c(C([H])([H])C([H])([H])[H])c(C([H])([H])C([H])([H])C(C(=O)N4C([H])([H])C([H])([H])C([H])([H])C([H])(n5nc(-c6c([H])c([H])c(Oc7c([H])c([H])c(F)c([H])c7F)c([H])c6[H])c(C(=O)N([H])[H])c5N([H])[H])C4([H])[H])(C([H])([H])[H])[N+]([H])([H])[H])c3[H])c([H])c([H])c2C1([H])[H]

$$$$
91:0:0
     RDKit          3D

 89 97  0  0  1  0  0  0  0  0999 V2000
  -27.1000  -20.1990   20.6900 C   0  0  0  0  0  3  0  0  0  0  0  0
  -27.5330  -21.5340   20.5320 C   0  0  0  0  0  3  0  0  0  0  0  0
  -27.9360  -19.0920   20.4240 C   0  0  0  0  0  3  0  0  0  0  0  0
  -29.6910  -20.6530   19.8550 C   0  0  0  0  0  3  0  0  0  0  0  0
  -28.8340  -21.8450   20.0890 C   0  0  0  0  0  0  0  0  0  0  0  0
  -29.2830  -19.2340   20.0270 C   0  0  0  0  0  0  0  0  0  0  0  0
  -29.2150  -23.4350   19.8960 C   0  0  0  0  0  3  0  0  0  0  0  0
  -28.1370  -24.7130   20.0440 C   0  0  0  0  0  3  0  0  0  0  0  0
  -28.4340  -26.2400   19.9970 O   0  0  0  0  0  0  0  0  0  0  0  0
  -24.7330  -31.7260   23.2430 C   0  0  0  0  0  0  0  0  0  0  0  0
  -27.3720  -27.2130   19.9850 C   0  0  0  0  0  0  0  0  0  0  0  0
  -23.5620  -30.4240   21.5080 C   0  0  0  0  0  3  0  0  0  0  0  0
  -25.0360  -28.9420   20.0190 C   0  0  0  0  0  0  0  0  0  0  0  0
  -26.1170  -30.7090   21.3980 C   0  0  0  0  0  2  0  0  0  0  0  0
  -26.2060  -29.3570   20.6700 C   0  0  0  0  0  0  0  0  0  0  0  0
  -27.3760  -28.5110   20.6350 C   0  0  0  0  0  3  0  0  0  0  0  0
  -26.1810  -26.9060   19.2920 C   0  0  0  0  0  3  0  0  0  0  0  0
  -25.0370  -27.7310   19.3150 C   0  0  0  0  0  3  0  0  0  0  0  0
  -23.8070  -29.8320   20.0960 C   0  0  0  0  0  2  0  0  0  0  0  0
  -24.8220  -30.9730   22.1050 N   0  0  0  0  0  0  0  0  0  0  0  0
  -23.6370  -31.9770   23.7680 O   0  0  0  0  0  0  0  0  0  0  0  0
  -22.8760  -29.3590   22.3990 C   0  0  0  0  0  0  0  0  0  0  0  0
  -21.5500  -29.1940   22.2410 N   0  0  0  0  0  0  0  0  0  0  0  0
  -23.5380  -28.6900   23.1950 O   0  0  0  0  0  0  0  0  0  0  0  0
  -21.0760  -29.7920   21.5800 H   0  0  0  0  0  0  0  0  0  0  0  0
  -18.1710  -27.9470   22.6110 C   0  0  0  0  0  0  0  0  0  0  0  0
  -20.7210  -28.2110   22.9430 C   0  0  0  0  0  3  0  0  0  0  0  0
  -20.8430  -26.8130   22.2950 C   0  0  0  0  0  2  0  0  0  0  0  0
  -19.7640  -26.5380   21.2430 C   0  0  0  0  0  2  0  0  0  0  0  0
  -18.3690  -26.6380   21.8670 C   0  0  0  0  0  2  0  0  0  0  0  0
  -19.2750  -28.6940   23.1010 C   0  0  0  0  0  0  0  0  0  0  0  0
  -19.0370  -29.9190   23.7580 C   0  0  0  0  0  3  0  0  0  0  0  0
  -17.7250  -30.4020   23.9300 C   0  0  0  0  0  3  0  0  0  0  0  0
  -16.6350  -29.6540   23.4540 C   0  0  0  0  0  3  0  0  0  0  0  0
  -16.8580  -28.4280   22.8010 C   0  0  0  0  0  3  0  0  0  0  0  0
  -25.9990  -32.3260   23.9240 C   0  0  0  0  0  3  0  0  0  0  0  0
  -26.5030  -31.4780   25.1560 C   0  0  1  0  0  0  0  0  0  0  0  0
  -25.3980  -31.1660   26.1910 C   0  0  0  0  0  1  0  0  0  0  0  0
  -27.0980  -30.1300   24.6880 C   0  0  0  0  0  1  0  0  0  0  0  0
  -27.6410  -32.2330   25.8800 C   0  0  0  0  0  1  0  0  0  0  0  0
  -25.6730  -33.6990   24.3450 N   0  0  0  0  0  0  0  0  0  0  0  0
  -26.0080  -34.8070   23.6700 C   0  0  0  0  0  0  0  0  0  0  0  0
  -26.6930  -34.7790   22.6440 O   0  0  0  0  0  0  0  0  0  0  0  0
  -25.0650  -33.7910   25.1440 H   0  0  0  0  0  0  0  0  0  0  0  0
  -24.2760  -36.6150   23.4200 C   0  0  0  0  0  1  0  0  0  0  0  0
  -25.5080  -36.1580   24.2190 C   0  0  0  0  0  3  0  0  0  0  0  0
  -27.6230  -36.9900   25.1480 C   0  0  0  0  0  1  0  0  0  0  0  0
  -26.5380  -37.2200   24.1980 N   0  0  0  0  0  0  0  0  0  0  0  0
  -26.1250  -38.1270   24.4000 H   0  0  0  0  0  0  0  0  0  0  0  0
  -30.1260  -17.8630   19.6510 C   0  0  0  0  0  2  0  0  0  0  0  0
  -29.1130  -16.2690   21.5100 C   0  0  0  0  0  1  0  0  0  0  0  0
  -31.4680  -16.8370   21.5390 C   0  0  0  0  0  1  0  0  0  0  0  0
  -30.3170  -16.4570   20.5720 C   0  0  2  0  0  0  0  0  0  0  0  0
  -30.8370  -15.0070   19.8970 C   0  0  0  0  0  0  0  0  0  0  0  0
  -30.6290  -12.6900   18.8620 C   0  0  0  0  0  2  0  0  0  0  0  0
  -29.6120  -12.6920   17.6950 C   0  0  0  0  0  2  0  0  0  0  0  0
  -28.1730  -12.4820   18.2060 C   0  0  0  0  0  2  0  0  0  0  0  0
  -27.8640  -13.3510   19.4530 C   0  0  0  0  0  3  0  0  0  0  0  0
  -28.9950  -13.2490   20.4960 C   0  0  0  0  0  2  0  0  0  0  0  0
  -30.2270  -13.7410   19.8520 N   0  0  0  0  0  0  0  0  0  0  0  0
  -31.9450  -15.0570   19.3480 O   0  0  0  0  0  0  0  0  0  0  0  0
  -25.5340  -13.9220   20.3570 C   0  0  0  0  0  0  0  0  0  0  0  0
  -24.4940  -13.1430   20.7780 C   0  0  0  0  0  0  0  0  0  0  0  0
  -24.9430  -11.7910   20.6680 C   0  0  0  0  0  0  0  0  0  0  0  0
  -26.5550  -13.0480   20.0210 N   0  0  0  0  0  0  0  0  0  0  0  0
  -26.2100  -11.7570   20.2680 N   0  0  0  0  0  0  0  0  0  0  0  0
  -24.2200  -10.5280   20.8650 C   0  0  0  0  0  0  0  0  0  0  0  0
  -24.6360   -9.5770   21.8230 C   0  0  0  0  0  3  0  0  0  0  0  0
  -23.9100   -8.3820   22.0080 C   0  0  0  0  0  3  0  0  0  0  0  0
  -22.7530   -8.1260   21.2340 C   0  0  0  0  0  0  0  0  0  0  0  0
  -22.3550   -9.0660   20.2670 C   0  0  0  0  0  3  0  0  0  0  0  0
  -23.0820  -10.2530   20.0800 C   0  0  0  0  0  3  0  0  0  0  0  0
  -22.0010   -6.9800   21.3260 O   0  0  0  0  0  0  0  0  0  0  0  0
  -21.8400   -6.3190   22.5160 C   0  0  0  0  0  0  0  0  0  0  0  0
  -21.2880   -6.9520   23.6520 C   0  0  0  0  0  3  0  0  0  0  0  0
  -21.0740   -6.2160   24.8340 C   0  0  0  0  0  3  0  0  0  0  0  0
  -21.4040   -4.8480   24.8810 C   0  0  0  0  0  0  0  0  0  0  0  0
  -21.9470   -4.2150   23.7500 C   0  0  0  0  0  3  0  0  0  0  0  0
  -22.1610   -4.9480   22.5700 C   0  0  0  0  0  0  0  0  0  0  0  0
  -22.6670   -4.3270   21.4770 F   0  0  0  0  0  0  0  0  0  0  0  0
  -21.1900   -4.1380   26.0140 F   0  0  0  0  0  0  0  0  0  0  0  0
  -23.1230  -13.6200   21.1630 C   0  0  0  0  0  0  0  0  0  0  0  0
  -22.4600  -12.9110   22.0660 N   0  0  0  0  0  0  0  0  0  0  0  0
  -22.6550  -14.6580   20.6980 O   0  0  0  0  0  0  0  0  0  0  0  0
  -22.8570  -12.0720   22.4640 H   0  0  0  0  0  0  0  0  0  0  0  0
  -21.5430  -13.2090   22.3650 H   0  0  0  0  0  0  0  0  0  0  0  0
  -25.6860  -15.2980   20.2030 N   0  0  0  0  0  0  0  0  0  0  0  0
  -24.9210  -15.9420   20.3740 H   0  0  0  0  0  0  0  0  0  0  0  0
  -26.4920  -15.7440   19.7880 H   0  0  0  0  0  0  0  0  0  0  0  0
  2  1  1  0
  3  1  2  0
  4  6  2  0
  4  5  1  0
  5  2  2  0
  6  3  1  0
  7  8  2  0
  7  5  1  0
  9  8  1  0
 10 21  2  0
 11  9  1  0
 11 16  1  0
 12 20  1  0
 12 22  1  0
 13 19  1  0
 13 15  1  0
 14 20  1  0
 15 14  1  0
 16 15  2  0
 17 18  1  0
 17 11  2  0
 18 13  2  0
 19 12  1  0
 20 10  1  0
 22 24  2  0
 23 22  1  0
 25 23  1  0
 26 35  2  0
 26 31  1  0
 27 23  1  0
 27 31  1  0
 28 27  1  0
 29 30  1  0
 29 28  1  0
 30 26  1  0
 31 32  2  0
 32 33  1  0
 34 33  2  0
 35 34  1  0
 36 10  1  0
 36 41  1  0
 36 37  1  0
 37 40  1  1
 37 38  1  0
 39 37  1  0
 41 44  1  0
 42 46  1  0
 42 41  1  0
 43 42  2  0
 46 45  1  0
 48 46  1  0
 48 49  1  0
 48 47  1  0
 50  6  1  0
 50 53  1  0
 53 51  1  1
 53 52  1  0
 54 53  1  0
 55 60  1  0
 56 57  1  0
 56 55  1  0
 58 57  1  0
 58 65  1  0
 58 59  1  0
 60 54  1  0
 60 59  1  0
 61 54  2  0
 62 63  2  0
 63 82  1  0
 64 63  1  0
 64 67  1  0
 65 66  1  0
 65 62  1  0
 66 64  2  0
 67 68  1  0
 68 69  2  0
 70 73  1  0
 70 69  1  0
 71 70  2  0
 72 71  1  0
 72 67  2  0
 73 74  1  0
 74 79  2  0
 74 75  1  0
 75 76  2  0
 76 77  1  0
 77 81  1  0
 78 77  2  0
 79 78  1  0
 80 79  1  0
 82 83  1  0
 83 86  1  0
 83 85  1  0
 84 82  2  0
 87 62  1  0
 87 88  1  0
 89 87  1  0
M  ISO  4   8 101   9 101  53 100  54 100
M  END
>  <TORSDO>  (92) 
F 20

>  <SCORE>  (92) 
-11.425

>  <name>  (92) 
91

>  <ligand_id>  (92) 
91

>  <original_smiles>  (92) 
[H]c1c([H])c([H])c2c(c1[H])C([H])([H])C([H])([H])C([H])([H])C2([H])N([H])C(=O)C1([H])N(C(=O)C([H])(N([H])C(=O)C([H])(N([H])C([H])([H])[H])C([H])([H])[H])C(C([H])([H])[H])(C([H])([H])[H])C([H])([H])[H])C([H])([H])c2c([H])c(OC([H])([H])C([H])([H])c3c([H])c([H])c([H])c(C([H])([H])C(C(=O)N4C([H])([H])C([H])([H])C([H])([H])C([H])(n5nc(-c6c([H])c([H])c(Oc7c([H])c([H])c(F)c([H])c7F)c([H])c6[H])c(C(=O)N([H])[H])c5N([H])[H])C4([H])[H])(C([H])([H])[H])C([H])([H])[H])c3[H])c([H])c([H])c2C1([H])[H]

>  <smiles>  (92) 
[H]c1c([H])c([H])c2c(c1[H])C([H])([H])C([H])([H])C([H])([H])C2([H])N([H])C(=O)C1([H])N(C(=O)C([H])(N([H])C(=O)C([H])(N([H])C([H])([H])[H])C([H])([H])[H])C(C([H])([H])[H])(C([H])([H])[H])C([H])([H])[H])C([H])([H])c2c([H])c(OC([H])([H])C([H])([H])c3c([H])c([H])c([H])c(C([H])([H])C(C(=O)N4C([H])([H])C([H])([H])C([H])([H])C([H])(n5nc(-c6c([H])c([H])c(Oc7c([H])c([H])c(F)c([H])c7F)c([H])c6[H])c(C(=O)N([H])[H])c5N([H])[H])C4([H])[H])(C([H])([H])[H])C([H])([H])[H])c3[H])c([H])c([H])c2C1([H])[H]

$$$$
92:0:0
     RDKit          3D

 91 99  0  0  1  0  0  0  0  0999 V2000
  -29.8490  -21.9180   18.9060 C   0  0  0  0  0  3  0  0  0  0  0  0
  -30.4270  -20.7630   18.3400 C   0  0  0  0  0  3  0  0  0  0  0  0
  -28.7760  -20.4560   20.5110 C   0  0  0  0  0  3  0  0  0  0  0  0
  -28.9780  -21.8580   20.0110 C   0  0  0  0  0  0  0  0  0  0  0  0
  -29.3690  -19.1930   19.9520 C   0  0  0  0  0  0  0  0  0  0  0  0
  -30.2010  -19.4480   18.8170 C   0  0  0  0  0  0  0  0  0  0  0  0
  -30.8480  -18.3290   18.0060 C   0  0  0  0  0  1  0  0  0  0  0  0
  -29.1130  -17.6140   20.3570 C   0  0  0  0  0  0  0  0  0  0  0  0
  -27.9430  -17.2280   20.3980 O   0  0  0  0  0  0  0  0  0  0  0  0
  -31.2680  -17.1720   21.2830 C   0  0  0  0  0  2  0  0  0  0  0  0
  -30.2670  -16.5360   20.6250 C   0  0  0  0  0  0  0  0  0  0  0  0
  -30.6520  -15.0210   20.3740 C   0  0  0  0  0  0  0  0  0  0  0  0
  -30.3510  -12.6670   19.4800 C   0  0  0  0  0  2  0  0  0  0  0  0
  -29.4670  -12.5970   18.2200 C   0  0  0  0  0  2  0  0  0  0  0  0
  -28.0020  -12.3970   18.6330 C   0  0  0  0  0  2  0  0  0  0  0  0
  -27.5760  -13.3480   19.7830 C   0  0  0  0  0  3  0  0  0  0  0  0
  -28.6170  -13.4680   20.9170 C   0  0  0  0  0  2  0  0  0  0  0  0
  -29.8970  -13.8410   20.3030 N   0  0  0  0  0  0  0  0  0  0  0  0
  -31.8430  -14.8140   20.1130 O   0  0  0  0  0  0  0  0  0  0  0  0
  -25.1920  -13.8940   20.5010 C   0  0  0  0  0  0  0  0  0  0  0  0
  -24.1300  -13.1080   20.8540 C   0  0  0  0  0  0  0  0  0  0  0  0
  -24.6090  -11.7620   20.8420 C   0  0  0  0  0  0  0  0  0  0  0  0
  -26.2460  -13.0260   20.2820 N   0  0  0  0  0  0  0  0  0  0  0  0
  -25.9060  -11.7380   20.5570 N   0  0  0  0  0  0  0  0  0  0  0  0
  -23.8890  -10.4930   21.0280 C   0  0  0  0  0  0  0  0  0  0  0  0
  -24.3060   -9.5370   21.9810 C   0  0  0  0  0  3  0  0  0  0  0  0
  -23.5830   -8.3360   22.1560 C   0  0  0  0  0  3  0  0  0  0  0  0
  -22.4280   -8.0820   21.3780 C   0  0  0  0  0  0  0  0  0  0  0  0
  -22.0300   -9.0280   20.4150 C   0  0  0  0  0  3  0  0  0  0  0  0
  -22.7540  -10.2190   20.2380 C   0  0  0  0  0  3  0  0  0  0  0  0
  -21.6780   -6.9340   21.4600 O   0  0  0  0  0  0  0  0  0  0  0  0
  -21.6000   -6.2070   22.6200 C   0  0  0  0  0  0  0  0  0  0  0  0
  -21.1250   -6.7720   23.8240 C   0  0  0  0  0  3  0  0  0  0  0  0
  -20.9980   -5.9700   24.9750 C   0  0  0  0  0  3  0  0  0  0  0  0
  -21.3310   -4.6040   24.9240 C   0  0  0  0  0  0  0  0  0  0  0  0
  -21.7980   -4.0380   23.7240 C   0  0  0  0  0  3  0  0  0  0  0  0
  -21.9290   -4.8370   22.5750 C   0  0  0  0  0  0  0  0  0  0  0  0
  -22.3580   -4.2820   21.4160 F   0  0  0  0  0  0  0  0  0  0  0  0
  -21.2010   -3.8300   26.0280 F   0  0  0  0  0  0  0  0  0  0  0  0
  -22.7250  -13.5740   21.0940 C   0  0  0  0  0  0  0  0  0  0  0  0
  -21.9860  -12.8740   21.9480 N   0  0  0  0  0  0  0  0  0  0  0  0
  -22.2910  -14.5960   20.5630 O   0  0  0  0  0  0  0  0  0  0  0  0
  -22.3510  -12.0500   22.4010 H   0  0  0  0  0  0  0  0  0  0  0  0
  -21.0420  -13.1700   22.1520 H   0  0  0  0  0  0  0  0  0  0  0  0
  -25.3490  -15.2660   20.3240 N   0  0  0  0  0  0  0  0  0  0  0  0
  -24.5830  -15.9160   20.4590 H   0  0  0  0  0  0  0  0  0  0  0  0
  -26.2260  -15.7340   20.1200 H   0  0  0  0  0  0  0  0  0  0  0  0
  -28.4510  -23.2980   20.5810 C   0  0  0  0  0  0  0  0  0  0  0  0
  -28.1000  -23.3580   21.7620 O   0  0  0  0  0  0  0  0  0  0  0  0
  -28.2810  -24.7140   19.7050 C   0  0  0  0  0  2  0  0  0  0  0  0
  -28.2740  -26.1650   20.3130 O   0  0  0  0  0  0  0  0  0  0  0  0
  -24.6470  -31.8750   23.2530 C   0  0  0  0  0  0  0  0  0  0  0  0
  -27.2220  -27.1550   20.1990 C   0  0  0  0  0  0  0  0  0  0  0  0
  -23.4480  -30.4790   21.6140 C   0  0  0  0  0  3  0  0  0  0  0  0
  -24.8960  -28.9130   20.1780 C   0  0  0  0  0  0  0  0  0  0  0  0
  -26.0010  -30.7460   21.4480 C   0  0  0  0  0  2  0  0  0  0  0  0
  -26.0760  -29.3540   20.7880 C   0  0  0  0  0  0  0  0  0  0  0  0
  -27.2350  -28.4890   20.7870 C   0  0  0  0  0  3  0  0  0  0  0  0
  -26.0180  -26.8260   19.5420 C   0  0  0  0  0  3  0  0  0  0  0  0
  -24.8810  -27.6640   19.5400 C   0  0  0  0  0  3  0  0  0  0  0  0
  -23.6680  -29.8090   20.2320 C   0  0  0  0  0  2  0  0  0  0  0  0
  -24.7180  -31.0570   22.1580 N   0  0  0  0  0  0  0  0  0  0  0  0
  -23.5610  -32.1540   23.7850 O   0  0  0  0  0  0  0  0  0  0  0  0
  -22.7770  -29.4660   22.5760 C   0  0  0  0  0  0  0  0  0  0  0  0
  -21.4500  -29.2850   22.4490 N   0  0  0  0  0  0  0  0  0  0  0  0
  -23.4540  -28.8470   23.4020 O   0  0  0  0  0  0  0  0  0  0  0  0
  -20.9600  -29.8390   21.7610 H   0  0  0  0  0  0  0  0  0  0  0  0
  -18.0820  -28.0480   22.9480 C   0  0  0  0  0  0  0  0  0  0  0  0
  -20.6360  -28.3430   23.2210 C   0  0  0  0  0  3  0  0  0  0  0  0
  -20.7560  -26.9080   22.6550 C   0  0  0  0  0  2  0  0  0  0  0  0
  -19.6620  -26.5670   21.6390 C   0  0  0  0  0  2  0  0  0  0  0  0
  -18.2760  -26.6980   22.2770 C   0  0  0  0  0  2  0  0  0  0  0  0
  -19.1890  -28.8260   23.3770 C   0  0  0  0  0  0  0  0  0  0  0  0
  -18.9520  -30.0880   23.9660 C   0  0  0  0  0  3  0  0  0  0  0  0
  -17.6410  -30.5710   24.1300 C   0  0  0  0  0  3  0  0  0  0  0  0
  -16.5480  -29.7910   23.7150 C   0  0  0  0  0  3  0  0  0  0  0  0
  -16.7680  -28.5310   23.1290 C   0  0  0  0  0  3  0  0  0  0  0  0
  -25.9250  -32.5170   23.8760 C   0  0  0  0  0  3  0  0  0  0  0  0
  -26.4310  -31.7610   25.1670 C   0  0  1  0  0  0  0  0  0  0  0  0
  -25.3310  -31.5410   26.2310 C   0  0  0  0  0  1  0  0  0  0  0  0
  -27.0150  -30.3760   24.8030 C   0  0  0  0  0  1  0  0  0  0  0  0
  -27.5780  -32.5630   25.8260 C   0  0  0  0  0  1  0  0  0  0  0  0
  -25.6100  -33.9190   24.1960 N   0  0  0  0  0  0  0  0  0  0  0  0
  -25.9400  -34.9720   23.4370 C   0  0  0  0  0  0  0  0  0  0  0  0
  -26.6100  -34.8660   22.4060 O   0  0  0  0  0  0  0  0  0  0  0  0
  -25.0160  -34.0740   24.9970 H   0  0  0  0  0  0  0  0  0  0  0  0
  -24.2150  -36.7710   23.0780 C   0  0  0  0  0  1  0  0  0  0  0  0
  -25.4550  -36.3640   23.8910 C   0  0  0  0  0  3  0  0  0  0  0  0
  -27.5870  -37.2530   24.7250 C   0  0  0  0  0  1  0  0  0  0  0  0
  -26.4880  -37.4160   23.7780 N   0  0  0  0  0  0  0  0  0  0  0  0
  -26.0820  -38.3370   23.9180 H   0  0  0  0  0  0  0  0  0  0  0  0
  1  4  1  0
  2  6  1  0
  2  1  2  0
  4  3  2  0
  4 48  1  0
  5  8  1  0
  5  3  1  0
  6  5  2  0
  7  6  1  0
  8  9  2  0
  8 11  1  0
 11 10  2  0
 12 11  1  0
 13 18  1  0
 14 15  1  0
 14 13  1  0
 16 15  1  0
 16 23  1  0
 16 17  1  0
 18 12  1  0
 18 17  1  0
 19 12  2  0
 20 21  2  0
 21 40  1  0
 22 21  1  0
 22 25  1  0
 23 20  1  0
 23 24  1  0
 24 22  2  0
 25 26  1  0
 26 27  2  0
 28 31  1  0
 28 27  1  0
 29 28  2  0
 30 29  1  0
 30 25  2  0
 31 32  1  0
 32 33  1  0
 33 34  2  0
 35 34  1  0
 35 39  1  0
 36 35  2  0
 37 32  2  0
 37 36  1  0
 38 37  1  0
 40 41  1  0
 41 44  1  0
 41 43  1  0
 42 40  2  0
 45 46  1  0
 45 20  1  0
 47 45  1  0
 48 49  2  0
 50 51  1  0
 50 48  1  0
 52 63  2  0
 53 51  1  0
 53 58  1  0
 54 62  1  0
 54 64  1  0
 55 61  1  0
 55 57  1  0
 56 62  1  0
 57 56  1  0
 58 57  2  0
 59 53  2  0
 60 59  1  0
 60 55  2  0
 61 54  1  0
 62 52  1  0
 64 66  2  0
 65 64  1  0
 67 65  1  0
 68 77  2  0
 68 73  1  0
 69 65  1  0
 69 73  1  0
 70 69  1  0
 71 72  1  0
 71 70  1  0
 72 68  1  0
 73 74  2  0
 74 75  1  0
 76 75  2  0
 77 76  1  0
 78 52  1  0
 78 83  1  0
 78 79  1  0
 79 82  1  1
 79 80  1  0
 81 79  1  0
 83 86  1  0
 84 88  1  0
 84 83  1  0
 85 84  2  0
 88 87  1  0
 90 88  1  0
 90 91  1  0
 90 89  1  0
M  ISO  4  11 100  12 100  50 101  51 101
M  END
>  <TORSDO>  (93) 
F 20

>  <SCORE>  (93) 
-14.109

>  <name>  (93) 
92

>  <ligand_id>  (93) 
92

>  <original_smiles>  (93) 
[H]C([H])=C(C(=O)c1c([H])c(C(=O)C([H])([H])Oc2c([H])c([H])c3c(c2[H])C([H])([H])N(C(=O)C([H])(N([H])C(=O)C([H])(N([H])C([H])([H])[H])C([H])([H])[H])C(C([H])([H])[H])(C([H])([H])[H])C([H])([H])[H])C([H])(C(=O)N([H])C2([H])c4c([H])c([H])c([H])c([H])c4C([H])([H])C([H])([H])C2([H])[H])C3([H])[H])c([H])c([H])c1C([H])([H])[H])C(=O)N1C([H])([H])C([H])([H])C([H])([H])C([H])(n2nc(-c3c([H])c([H])c(Oc4c([H])c([H])c(F)c([H])c4F)c([H])c3[H])c(C(=O)N([H])[H])c2N([H])[H])C1([H])[H]

>  <smiles>  (93) 
[H]C([H])=C(C(=O)c1c([H])c(C(=O)C([H])([H])Oc2c([H])c([H])c3c(c2[H])C([H])([H])N(C(=O)C([H])(N([H])C(=O)C([H])(N([H])C([H])([H])[H])C([H])([H])[H])C(C([H])([H])[H])(C([H])([H])[H])C([H])([H])[H])C([H])(C(=O)N([H])C2([H])c4c([H])c([H])c([H])c([H])c4C([H])([H])C([H])([H])C2([H])[H])C3([H])[H])c([H])c([H])c1C([H])([H])[H])C(=O)N1C([H])([H])C([H])([H])C([H])([H])C([H])(n2nc(-c3c([H])c([H])c(Oc4c([H])c([H])c(F)c([H])c4F)c([H])c3[H])c(C(=O)N([H])[H])c2N([H])[H])C1([H])[H]

$$$$
93:0:0
     RDKit          3D

 91 99  0  0  1  0  0  0  0  0999 V2000
  -29.0800  -22.6310   18.4630 C   0  0  0  0  0  3  0  0  0  0  0  0
  -28.9910  -23.8030   17.6810 C   0  0  0  0  0  3  0  0  0  0  0  0
  -28.5540  -23.9660   20.4280 C   0  0  0  0  0  3  0  0  0  0  0  0
  -28.8840  -22.6650   19.8610 C   0  0  0  0  0  0  0  0  0  0  0  0
  -28.4780  -25.1870   19.6460 C   0  0  0  0  0  0  0  0  0  0  0  0
  -28.7090  -25.0570   18.2590 C   0  0  0  0  0  0  0  0  0  0  0  0
  -28.6950  -26.1580   17.4700 F   0  0  0  0  0  0  0  0  0  0  0  0
  -28.9520  -21.3330   20.6640 C   0  0  0  0  0  0  0  0  0  0  0  0
  -28.3720  -21.2420   21.7490 O   0  0  0  0  0  0  0  0  0  0  0  0
  -29.8070  -20.0650   20.1910 C   0  0  0  0  0  2  0  0  0  0  0  0
  -29.3490  -18.5570   20.5660 C   0  0  0  0  0  3  0  0  0  0  0  0
  -30.3730  -17.3290   20.3530 C   0  0  0  0  0  3  0  0  0  0  0  0
  -30.6290  -14.7370   20.3560 C   0  0  0  0  0  0  0  0  0  0  0  0
  -30.3720  -12.4710   19.3460 C   0  0  0  0  0  2  0  0  0  0  0  0
  -29.4360  -12.5690   18.1220 C   0  0  0  0  0  2  0  0  0  0  0  0
  -27.9640  -12.4110   18.5500 C   0  0  0  0  0  2  0  0  0  0  0  0
  -27.6010  -13.2980   19.7710 C   0  0  0  0  0  3  0  0  0  0  0  0
  -28.6650  -13.2060   20.8890 C   0  0  0  0  0  2  0  0  0  0  0  0
  -29.9660  -13.5330   20.2930 N   0  0  0  0  0  0  0  0  0  0  0  0
  -31.8100  -14.8130   20.0090 O   0  0  0  0  0  0  0  0  0  0  0  0
  -29.9060  -15.8940   20.5790 N   0  0  0  0  0  0  0  0  0  0  0  0
  -28.9350  -15.7650   20.8240 H   0  0  0  0  0  0  0  0  0  0  0  0
  -25.2150  -13.8960   20.5020 C   0  0  0  0  0  0  0  0  0  0  0  0
  -24.1470  -13.1250   20.8770 C   0  0  0  0  0  0  0  0  0  0  0  0
  -24.6070  -11.7730   20.8510 C   0  0  0  0  0  0  0  0  0  0  0  0
  -26.2570  -13.0130   20.2680 N   0  0  0  0  0  0  0  0  0  0  0  0
  -25.8980  -11.7310   20.5430 N   0  0  0  0  0  0  0  0  0  0  0  0
  -23.8770  -10.5130   21.0480 C   0  0  0  0  0  0  0  0  0  0  0  0
  -24.3200   -9.5410   21.9710 C   0  0  0  0  0  3  0  0  0  0  0  0
  -23.5910   -8.3460   22.1560 C   0  0  0  0  0  3  0  0  0  0  0  0
  -22.4050   -8.1160   21.4170 C   0  0  0  0  0  0  0  0  0  0  0  0
  -21.9820   -9.0780   20.4830 C   0  0  0  0  0  3  0  0  0  0  0  0
  -22.7120  -10.2640   20.2950 C   0  0  0  0  0  3  0  0  0  0  0  0
  -21.6450   -6.9760   21.5110 O   0  0  0  0  0  0  0  0  0  0  0  0
  -21.6230   -6.2190   22.6560 C   0  0  0  0  0  0  0  0  0  0  0  0
  -21.2520   -6.7650   23.9040 C   0  0  0  0  0  3  0  0  0  0  0  0
  -21.1760   -5.9370   25.0410 C   0  0  0  0  0  3  0  0  0  0  0  0
  -21.4600   -4.5620   24.9320 C   0  0  0  0  0  0  0  0  0  0  0  0
  -21.8250   -4.0150   23.6890 C   0  0  0  0  0  3  0  0  0  0  0  0
  -21.9040   -4.8420   22.5540 C   0  0  0  0  0  0  0  0  0  0  0  0
  -22.2350   -4.3040   21.3550 F   0  0  0  0  0  0  0  0  0  0  0  0
  -21.3800   -3.7650   26.0230 F   0  0  0  0  0  0  0  0  0  0  0  0
  -22.7510  -13.6070   21.1420 C   0  0  0  0  0  0  0  0  0  0  0  0
  -22.0200  -12.9200   22.0160 N   0  0  0  0  0  0  0  0  0  0  0  0
  -22.3150  -14.6260   20.6130 O   0  0  0  0  0  0  0  0  0  0  0  0
  -22.3860  -12.0950   22.4690 H   0  0  0  0  0  0  0  0  0  0  0  0
  -21.0820  -13.2250   22.2360 H   0  0  0  0  0  0  0  0  0  0  0  0
  -25.3800  -15.2660   20.3210 N   0  0  0  0  0  0  0  0  0  0  0  0
  -24.6150  -15.9220   20.4330 H   0  0  0  0  0  0  0  0  0  0  0  0
  -26.2270  -15.7080   19.9850 H   0  0  0  0  0  0  0  0  0  0  0  0
  -28.3650  -26.4980   20.1770 O   0  0  0  0  0  0  0  0  0  0  0  0
  -24.6450  -31.8830   23.2030 C   0  0  0  0  0  0  0  0  0  0  0  0
  -27.2280  -27.3240   20.1040 C   0  0  0  0  0  0  0  0  0  0  0  0
  -23.4220  -30.4800   21.5800 C   0  0  0  0  0  3  0  0  0  0  0  0
  -24.8570  -28.9270   20.1320 C   0  0  0  0  0  0  0  0  0  0  0  0
  -25.9570  -30.8030   21.3600 C   0  0  0  0  0  2  0  0  0  0  0  0
  -26.0290  -29.4230   20.7120 C   0  0  0  0  0  0  0  0  0  0  0  0
  -27.2150  -28.6320   20.6900 C   0  0  0  0  0  3  0  0  0  0  0  0
  -26.0300  -26.8780   19.5060 C   0  0  0  0  0  3  0  0  0  0  0  0
  -24.8580  -27.6600   19.5230 C   0  0  0  0  0  3  0  0  0  0  0  0
  -23.6170  -29.8000   20.1970 C   0  0  0  0  0  2  0  0  0  0  0  0
  -24.6950  -31.0740   22.1050 N   0  0  0  0  0  0  0  0  0  0  0  0
  -23.5690  -32.1580   23.7530 O   0  0  0  0  0  0  0  0  0  0  0  0
  -22.7740  -29.4640   22.5510 C   0  0  0  0  0  0  0  0  0  0  0  0
  -21.4460  -29.2840   22.4420 N   0  0  0  0  0  0  0  0  0  0  0  0
  -23.4660  -28.8400   23.3620 O   0  0  0  0  0  0  0  0  0  0  0  0
  -20.9490  -29.8410   21.7600 H   0  0  0  0  0  0  0  0  0  0  0  0
  -18.0800  -28.0690   22.9730 C   0  0  0  0  0  0  0  0  0  0  0  0
  -20.6380  -28.3470   23.2230 C   0  0  0  0  0  3  0  0  0  0  0  0
  -20.7460  -26.9120   22.6560 C   0  0  0  0  0  2  0  0  0  0  0  0
  -19.6390  -26.5760   21.6520 C   0  0  0  0  0  2  0  0  0  0  0  0
  -18.2610  -26.7170   22.3040 C   0  0  0  0  0  2  0  0  0  0  0  0
  -19.1960  -28.8420   23.3900 C   0  0  0  0  0  0  0  0  0  0  0  0
  -18.9720  -30.1080   23.9760 C   0  0  0  0  0  3  0  0  0  0  0  0
  -17.6650  -30.6000   24.1460 C   0  0  0  0  0  3  0  0  0  0  0  0
  -16.5630  -29.8250   23.7450 C   0  0  0  0  0  3  0  0  0  0  0  0
  -16.7720  -28.5610   23.1640 C   0  0  0  0  0  3  0  0  0  0  0  0
  -25.9350  -32.5190   23.8060 C   0  0  0  0  0  3  0  0  0  0  0  0
  -26.4840  -31.7390   25.0640 C   0  0  1  0  0  0  0  0  0  0  0  0
  -25.4140  -31.4830   26.1510 C   0  0  0  0  0  1  0  0  0  0  0  0
  -27.0670  -30.3690   24.6460 C   0  0  0  0  0  1  0  0  0  0  0  0
  -27.6470  -32.5330   25.7080 C   0  0  0  0  0  1  0  0  0  0  0  0
  -25.6210  -33.9100   24.1610 N   0  0  0  0  0  0  0  0  0  0  0  0
  -25.9300  -34.9770   23.4090 C   0  0  0  0  0  0  0  0  0  0  0  0
  -26.5800  -34.8920   22.3620 O   0  0  0  0  0  0  0  0  0  0  0  0
  -25.0420  -34.0520   24.9750 H   0  0  0  0  0  0  0  0  0  0  0  0
  -24.1810  -36.7590   23.1190 C   0  0  0  0  0  1  0  0  0  0  0  0
  -25.4440  -36.3570   23.8960 C   0  0  0  0  0  3  0  0  0  0  0  0
  -27.5940  -37.2440   24.6840 C   0  0  0  0  0  1  0  0  0  0  0  0
  -26.4670  -37.4190   23.7710 N   0  0  0  0  0  0  0  0  0  0  0  0
  -26.0590  -38.3340   23.9400 H   0  0  0  0  0  0  0  0  0  0  0  0
  1  4  1  0
  2  6  1  0
  2  1  2  0
  4  3  2  0
  4  8  1  0
  5 51  1  0
  5  3  1  0
  6  5  2  0
  7  6  1  0
  8  9  2  0
 10 11  1  0
 10  8  1  0
 12 11  2  0
 12 21  1  0
 13 21  1  0
 14 19  1  0
 15 16  1  0
 15 14  1  0
 17 16  1  0
 17 26  1  0
 17 18  1  0
 19 13  1  0
 19 18  1  0
 20 13  2  0
 21 22  1  0
 23 24  2  0
 24 43  1  0
 25 24  1  0
 25 28  1  0
 26 23  1  0
 26 27  1  0
 27 25  2  0
 28 29  1  0
 29 30  2  0
 31 34  1  0
 31 30  1  0
 32 31  2  0
 33 32  1  0
 33 28  2  0
 34 35  1  0
 35 36  1  0
 36 37  2  0
 38 37  1  0
 38 42  1  0
 39 38  2  0
 40 35  2  0
 40 39  1  0
 41 40  1  0
 43 44  1  0
 44 47  1  0
 44 46  1  0
 45 43  2  0
 48 49  1  0
 48 23  1  0
 50 48  1  0
 52 63  2  0
 53 51  1  0
 53 58  1  0
 54 62  1  0
 54 64  1  0
 55 61  1  0
 55 57  1  0
 56 62  1  0
 57 56  1  0
 58 57  2  0
 59 60  1  0
 59 53  2  0
 60 55  2  0
 61 54  1  0
 62 52  1  0
 64 66  2  0
 65 64  1  0
 67 65  1  0
 68 77  2  0
 68 73  1  0
 69 65  1  0
 69 73  1  0
 70 69  1  0
 71 72  1  0
 71 70  1  0
 72 68  1  0
 73 74  2  0
 74 75  1  0
 76 75  2  0
 77 76  1  0
 78 52  1  0
 78 83  1  0
 78 79  1  0
 79 82  1  1
 79 80  1  0
 81 79  1  0
 83 86  1  0
 84 88  1  0
 84 83  1  0
 85 84  2  0
 88 87  1  0
 90 88  1  0
 90 91  1  0
 90 89  1  0
M  ISO  4   5 101  13 100  21 100  51 101
M  END
>  <TORSDO>  (94) 
F 20

>  <SCORE>  (94) 
-13.679

>  <name>  (94) 
93

>  <ligand_id>  (94) 
93

>  <original_smiles>  (94) 
[H]c1c([H])c([H])c2c(c1[H])C([H])([H])C([H])([H])C([H])([H])C2([H])N([H])C(=O)C1([H])N(C(=O)C([H])(N([H])C(=O)C([H])(N([H])C([H])([H])[H])C([H])([H])[H])C(C([H])([H])[H])(C([H])([H])[H])C([H])([H])[H])C([H])([H])c2c([H])c(Oc3c([H])c(C(=O)C([H])([H])C([H])([H])C([H])([H])N([H])C(=O)N4C([H])([H])C([H])([H])C([H])([H])C([H])(n5nc(-c6c([H])c([H])c(Oc7c([H])c([H])c(F)c([H])c7F)c([H])c6[H])c(C(=O)N([H])[H])c5N([H])[H])C4([H])[H])c([H])c([H])c3F)c([H])c([H])c2C1([H])[H]

>  <smiles>  (94) 
[H]c1c([H])c([H])c2c(c1[H])C([H])([H])C([H])([H])C([H])([H])C2([H])N([H])C(=O)C1([H])N(C(=O)C([H])(N([H])C(=O)C([H])(N([H])C([H])([H])[H])C([H])([H])[H])C(C([H])([H])[H])(C([H])([H])[H])C([H])([H])[H])C([H])([H])c2c([H])c(Oc3c([H])c(C(=O)C([H])([H])C([H])([H])C([H])([H])N([H])C(=O)N4C([H])([H])C([H])([H])C([H])([H])C([H])(n5nc(-c6c([H])c([H])c(Oc7c([H])c([H])c(F)c([H])c7F)c([H])c6[H])c(C(=O)N([H])[H])c5N([H])[H])C4([H])[H])c([H])c([H])c3F)c([H])c([H])c2C1([H])[H]

$$$$
94:0:0
     RDKit          3D

 88 96  0  0  1  0  0  0  0  0999 V2000
  -28.7010  -19.5210   19.4980 C   0  0  0  0  0  3  0  0  0  0  0  0
  -29.0230  -18.0220   19.5020 C   0  0  0  0  0  3  0  0  0  0  0  0
  -29.8040  -19.7320   21.4180 C   0  0  0  0  0  3  0  0  0  0  0  0
  -29.0620  -20.5950   20.4640 C   0  0  0  0  0  0  0  0  0  0  0  0
  -29.7800  -17.1800   20.4730 C   0  0  0  0  0  0  0  0  0  0  0  0
  -30.1430  -18.2500   21.4450 C   0  0  0  0  0  0  0  0  0  0  0  0
  -30.3830  -15.5250   20.3640 C   0  0  0  0  0  0  0  0  0  0  0  0
  -30.4240  -12.9990   19.5510 C   0  0  0  0  0  2  0  0  0  0  0  0
  -29.5470  -12.6270   18.3220 C   0  0  0  0  0  2  0  0  0  0  0  0
  -28.1130  -12.2940   18.7570 C   0  0  0  0  0  2  0  0  0  0  0  0
  -27.5970  -13.3020   19.8080 C   0  0  0  0  0  3  0  0  0  0  0  0
  -28.6100  -13.6100   20.9330 C   0  0  0  0  0  2  0  0  0  0  0  0
  -29.8150  -14.1870   20.3020 N   0  0  0  0  0  0  0  0  0  0  0  0
  -31.6110  -15.4080   20.1970 O   0  0  0  0  0  0  0  0  0  0  0  0
  -25.2350  -13.8290   20.5790 C   0  0  0  0  0  0  0  0  0  0  0  0
  -24.1710  -13.0450   20.9260 C   0  0  0  0  0  0  0  0  0  0  0  0
  -24.6390  -11.6960   20.8730 C   0  0  0  0  0  0  0  0  0  0  0  0
  -26.2770  -12.9600   20.3190 N   0  0  0  0  0  0  0  0  0  0  0  0
  -25.9340  -11.6680   20.5670 N   0  0  0  0  0  0  0  0  0  0  0  0
  -23.9090  -10.4310   21.0380 C   0  0  0  0  0  0  0  0  0  0  0  0
  -24.3630   -9.4230   21.9160 C   0  0  0  0  0  3  0  0  0  0  0  0
  -23.6300   -8.2260   22.0740 C   0  0  0  0  0  3  0  0  0  0  0  0
  -22.4280   -8.0290   21.3540 C   0  0  0  0  0  0  0  0  0  0  0  0
  -21.9920   -9.0250   20.4640 C   0  0  0  0  0  3  0  0  0  0  0  0
  -22.7250  -10.2130   20.3040 C   0  0  0  0  0  3  0  0  0  0  0  0
  -21.6650   -6.8890   21.4240 O   0  0  0  0  0  0  0  0  0  0  0  0
  -21.6870   -6.0730   22.5280 C   0  0  0  0  0  0  0  0  0  0  0  0
  -21.4010   -6.5630   23.8220 C   0  0  0  0  0  3  0  0  0  0  0  0
  -21.3660   -5.6770   24.9180 C   0  0  0  0  0  3  0  0  0  0  0  0
  -21.6050   -4.3040   24.7230 C   0  0  0  0  0  0  0  0  0  0  0  0
  -21.8810   -3.8140   23.4350 C   0  0  0  0  0  3  0  0  0  0  0  0
  -21.9190   -4.6950   22.3400 C   0  0  0  0  0  0  0  0  0  0  0  0
  -22.1670   -4.2140   21.0970 F   0  0  0  0  0  0  0  0  0  0  0  0
  -21.5620   -3.4530   25.7730 F   0  0  0  0  0  0  0  0  0  0  0  0
  -22.7730  -13.5200   21.1910 C   0  0  0  0  0  0  0  0  0  0  0  0
  -22.0400  -12.8170   22.0470 N   0  0  0  0  0  0  0  0  0  0  0  0
  -22.3410  -14.5500   20.6760 O   0  0  0  0  0  0  0  0  0  0  0  0
  -22.4040  -11.9850   22.4880 H   0  0  0  0  0  0  0  0  0  0  0  0
  -21.1000  -13.1180   22.2650 H   0  0  0  0  0  0  0  0  0  0  0  0
  -25.4000  -15.2030   20.4290 N   0  0  0  0  0  0  0  0  0  0  0  0
  -24.6370  -15.8580   20.5610 H   0  0  0  0  0  0  0  0  0  0  0  0
  -26.2600  -15.6510   20.1370 H   0  0  0  0  0  0  0  0  0  0  0  0
  -28.8910  -22.4000   20.6500 C   0  0  0  0  0  0  0  0  0  0  0  0
  -29.6140  -22.7860   21.5770 O   0  0  0  0  0  0  0  0  0  0  0  0
  -28.0160  -23.8700   19.9970 C   0  0  0  0  0  2  0  0  0  0  0  0
  -28.1810  -25.5660   20.3220 O   0  0  0  0  0  0  0  0  0  0  0  0
  -24.6760  -31.8050   23.1550 C   0  0  0  0  0  0  0  0  0  0  0  0
  -27.2170  -26.7580   20.2070 C   0  0  0  0  0  0  0  0  0  0  0  0
  -23.5000  -30.4090   21.5070 C   0  0  0  0  0  3  0  0  0  0  0  0
  -24.9560  -28.7630   20.1120 C   0  0  0  0  0  0  0  0  0  0  0  0
  -26.0770  -30.5540   21.4150 C   0  0  0  0  0  2  0  0  0  0  0  0
  -26.1410  -29.1270   20.7620 C   0  0  0  0  0  0  0  0  0  0  0  0
  -27.2580  -28.1480   20.7820 C   0  0  0  0  0  3  0  0  0  0  0  0
  -26.0050  -26.5900   19.4940 C   0  0  0  0  0  3  0  0  0  0  0  0
  -24.9230  -27.5200   19.4550 C   0  0  0  0  0  3  0  0  0  0  0  0
  -23.7520  -29.7120   20.1390 C   0  0  0  0  0  2  0  0  0  0  0  0
  -24.7740  -30.9540   22.0780 N   0  0  0  0  0  0  0  0  0  0  0  0
  -23.5790  -32.1100   23.6540 O   0  0  0  0  0  0  0  0  0  0  0  0
  -22.7730  -29.4330   22.4700 C   0  0  0  0  0  0  0  0  0  0  0  0
  -21.4380  -29.3030   22.3460 N   0  0  0  0  0  0  0  0  0  0  0  0
  -23.4210  -28.7920   23.3010 O   0  0  0  0  0  0  0  0  0  0  0  0
  -20.9670  -29.8710   21.6540 H   0  0  0  0  0  0  0  0  0  0  0  0
  -18.0330  -28.1420   22.8450 C   0  0  0  0  0  0  0  0  0  0  0  0
  -20.5970  -28.3780   23.1130 C   0  0  0  0  0  3  0  0  0  0  0  0
  -20.6820  -26.9450   22.5390 C   0  0  0  0  0  2  0  0  0  0  0  0
  -19.5790  -26.6370   21.5200 C   0  0  0  0  0  2  0  0  0  0  0  0
  -18.1970  -26.7950   22.1600 C   0  0  0  0  0  2  0  0  0  0  0  0
  -19.1600  -28.8920   23.2780 C   0  0  0  0  0  0  0  0  0  0  0  0
  -18.9520  -30.1500   23.8830 C   0  0  0  0  0  3  0  0  0  0  0  0
  -17.6510  -30.6610   24.0540 C   0  0  0  0  0  3  0  0  0  0  0  0
  -16.5390  -29.9100   23.6350 C   0  0  0  0  0  3  0  0  0  0  0  0
  -16.7320  -28.6510   23.0380 C   0  0  0  0  0  3  0  0  0  0  0  0
  -25.9380  -32.4490   23.8080 C   0  0  0  0  0  3  0  0  0  0  0  0
  -26.4570  -31.6500   25.0670 C   0  0  1  0  0  0  0  0  0  0  0  0
  -25.3660  -31.3800   26.1310 C   0  0  0  0  0  1  0  0  0  0  0  0
  -27.0500  -30.2830   24.6570 C   0  0  0  0  0  1  0  0  0  0  0  0
  -27.6020  -32.4390   25.7470 C   0  0  0  0  0  1  0  0  0  0  0  0
  -25.5970  -33.8300   24.1970 N   0  0  0  0  0  0  0  0  0  0  0  0
  -25.9110  -34.9290   23.4970 C   0  0  0  0  0  0  0  0  0  0  0  0
  -26.5750  -34.8860   22.4590 O   0  0  0  0  0  0  0  0  0  0  0  0
  -25.0040  -33.9340   25.0080 H   0  0  0  0  0  0  0  0  0  0  0  0
  -24.1490  -36.7170   23.2650 C   0  0  0  0  0  1  0  0  0  0  0  0
  -25.4140  -36.2910   24.0280 C   0  0  0  0  0  3  0  0  0  0  0  0
  -27.5570  -37.1740   24.8480 C   0  0  0  0  0  1  0  0  0  0  0  0
  -26.4290  -37.3650   23.9400 N   0  0  0  0  0  0  0  0  0  0  0  0
  -26.0120  -38.2700   24.1410 H   0  0  0  0  0  0  0  0  0  0  0  0
  -32.3010  -18.5380   22.8210 C   0  0  0  0  0  1  0  0  0  0  0  0
  -30.9440  -17.8280   22.6780 C   0  0  0  0  0  2  0  0  0  0  0  0
  1  2  2  0
  1  4  1  0
  2  5  1  0
  3  6  1  0
  4 43  1  0
  4  3  2  0
  5  6  2  0
  6 88  1  0
  7  5  1  0
  8 13  1  0
  9 10  1  0
  9  8  1  0
 11 10  1  0
 11 18  1  0
 11 12  1  0
 13  7  1  0
 13 12  1  0
 14  7  2  0
 15 16  2  0
 16 35  1  0
 17 16  1  0
 17 20  1  0
 18 19  1  0
 18 15  1  0
 19 17  2  0
 20 21  1  0
 21 22  2  0
 23 26  1  0
 23 22  1  0
 24 23  2  0
 25 24  1  0
 25 20  2  0
 26 27  1  0
 27 28  1  0
 28 29  2  0
 30 29  1  0
 30 34  1  0
 31 30  2  0
 32 27  2  0
 32 31  1  0
 33 32  1  0
 35 36  1  0
 36 39  1  0
 36 38  1  0
 37 35  2  0
 40 41  1  0
 40 15  1  0
 42 40  1  0
 43 44  2  0
 45 46  1  0
 45 43  1  0
 47 58  2  0
 48 46  1  0
 48 53  1  0
 49 57  1  0
 49 59  1  0
 50 56  1  0
 50 52  1  0
 51 57  1  0
 52 53  2  0
 52 51  1  0
 54 48  2  0
 55 54  1  0
 55 50  2  0
 56 49  1  0
 57 47  1  0
 59 61  2  0
 60 59  1  0
 62 60  1  0
 63 72  2  0
 63 68  1  0
 64 60  1  0
 64 68  1  0
 65 64  1  0
 66 67  1  0
 66 65  1  0
 67 63  1  0
 68 69  2  0
 69 70  1  0
 71 70  2  0
 72 71  1  0
 73 47  1  0
 73 78  1  0
 73 74  1  0
 74 77  1  1
 74 75  1  0
 76 74  1  0
 78 81  1  0
 79 83  1  0
 79 78  1  0
 80 79  2  0
 83 82  1  0
 85 83  1  0
 85 86  1  0
 85 84  1  0
 88 87  1  0
M  ISO  4   5 100   7 100  45 101  46 101
M  END
>  <TORSDO>  (95) 
F 19

>  <SCORE>  (95) 
-14.408

>  <name>  (95) 
94

>  <ligand_id>  (95) 
94

>  <original_smiles>  (95) 
[H]c1c([H])c([H])c2c(c1[H])C([H])([H])C([H])([H])C([H])([H])C2([H])N([H])C(=O)C1([H])N(C(=O)C([H])(N([H])C(=O)C([H])(N([H])C([H])([H])[H])C([H])([H])[H])C(C([H])([H])[H])(C([H])([H])[H])C([H])([H])[H])C([H])([H])c2c([H])c(OC([H])([H])C(=O)c3c([H])c([H])c(C(=O)N4C([H])([H])C([H])([H])C([H])([H])C([H])(n5nc(-c6c([H])c([H])c(Oc7c([H])c([H])c(F)c([H])c7F)c([H])c6[H])c(C(=O)N([H])[H])c5N([H])[H])C4([H])[H])c(C([H])([H])C([H])([H])[H])c3[H])c([H])c([H])c2C1([H])[H]

>  <smiles>  (95) 
[H]c1c([H])c([H])c2c(c1[H])C([H])([H])C([H])([H])C([H])([H])C2([H])N([H])C(=O)C1([H])N(C(=O)C([H])(N([H])C(=O)C([H])(N([H])C([H])([H])[H])C([H])([H])[H])C(C([H])([H])[H])(C([H])([H])[H])C([H])([H])[H])C([H])([H])c2c([H])c(OC([H])([H])C(=O)c3c([H])c([H])c(C(=O)N4C([H])([H])C([H])([H])C([H])([H])C([H])(n5nc(-c6c([H])c([H])c(Oc7c([H])c([H])c(F)c([H])c7F)c([H])c6[H])c(C(=O)N([H])[H])c5N([H])[H])C4([H])[H])c(C([H])([H])C([H])([H])[H])c3[H])c([H])c([H])c2C1([H])[H]

$$$$
