0:0:0
     RDKit          3D

 95103  0  0  1  0  0  0  0  0999 V2000
  -26.5010  -22.8870   22.0640 C   0  0  0  0  0  1  0  0  0  0  0  0
  -27.5520  -23.0650   20.9500 C   0  0  0  0  0  3  0  0  0  0  0  0
  -28.1980  -21.3430   19.1980 C   0  0  0  0  0  3  0  0  0  0  0  0
  -28.7700  -20.1150   18.8130 C   0  0  0  0  0  3  0  0  0  0  0  0
  -28.8630  -20.9310   21.5050 C   0  0  0  0  0  3  0  0  0  0  0  0
  -28.2240  -21.7540   20.5490 C   0  0  0  0  0  0  0  0  0  0  0  0
  -29.3720  -19.2800   19.7760 C   0  0  0  0  0  0  0  0  0  0  0  0
  -29.4250  -19.6990   21.1240 C   0  0  0  0  0  0  0  0  0  0  0  0
  -29.9930  -18.9070   22.0630 F   0  0  0  0  0  0  0  0  0  0  0  0
  -29.8770  -17.9030   19.3890 C   0  0  0  0  0  2  0  0  0  0  0  0
  -31.3150  -17.5780   19.8360 C   0  0  0  0  0  2  0  0  0  0  0  0
  -31.8960  -15.1670   19.5790 C   0  0  0  0  0  0  0  0  0  0  0  0
  -31.6050  -12.7910   18.9860 C   0  0  0  0  0  2  0  0  0  0  0  0
  -30.6340  -12.6580   17.7950 C   0  0  0  0  0  2  0  0  0  0  0  0
  -29.1690  -12.6290   18.2720 C   0  0  0  0  0  2  0  0  0  0  0  0
  -28.8450  -13.7810   19.2590 C   0  0  0  0  0  3  0  0  0  0  0  0
  -29.9100  -13.8410   20.3760 C   0  0  0  0  0  2  0  0  0  0  0  0
  -31.2410  -13.9910   19.7480 N   0  0  0  0  0  0  0  0  0  0  0  0
  -32.8770  -15.3140   18.8420 O   0  0  0  0  0  0  0  0  0  0  0  0
  -31.3520  -16.1820   20.2550 N   0  0  0  0  0  0  0  0  0  0  0  0
  -30.6460  -15.9080   20.9240 H   0  0  0  0  0  0  0  0  0  0  0  0
  -26.5750  -14.6360   20.1380 C   0  0  0  0  0  0  0  0  0  0  0  0
  -25.4480  -13.9750   20.5510 C   0  0  0  0  0  0  0  0  0  0  0  0
  -25.7430  -12.5820   20.4340 C   0  0  0  0  0  0  0  0  0  0  0  0
  -27.4940  -13.6510   19.8070 N   0  0  0  0  0  0  0  0  0  0  0  0
  -26.9970  -12.4090   20.0370 N   0  0  0  0  0  0  0  0  0  0  0  0
  -24.8880  -11.4040   20.6230 C   0  0  0  0  0  0  0  0  0  0  0  0
  -25.2120  -10.4000   21.5620 C   0  0  0  0  0  3  0  0  0  0  0  0
  -24.3660   -9.2840   21.7380 C   0  0  0  0  0  3  0  0  0  0  0  0
  -23.1800   -9.1660   20.9740 C   0  0  0  0  0  0  0  0  0  0  0  0
  -22.8740  -10.1570   20.0250 C   0  0  0  0  0  3  0  0  0  0  0  0
  -23.7190  -11.2650   19.8470 C   0  0  0  0  0  3  0  0  0  0  0  0
  -22.3100   -8.1060   21.0590 O   0  0  0  0  0  0  0  0  0  0  0  0
  -22.0940   -7.4460   22.2420 C   0  0  0  0  0  0  0  0  0  0  0  0
  -21.6420   -8.1190   23.3980 C   0  0  0  0  0  3  0  0  0  0  0  0
  -21.3630   -7.3910   24.5720 C   0  0  0  0  0  3  0  0  0  0  0  0
  -21.5280   -5.9940   24.5910 C   0  0  0  0  0  0  0  0  0  0  0  0
  -21.9740   -5.3210   23.4390 C   0  0  0  0  0  3  0  0  0  0  0  0
  -22.2520   -6.0450   22.2680 C   0  0  0  0  0  0  0  0  0  0  0  0
  -22.6610   -5.3900   21.1540 F   0  0  0  0  0  0  0  0  0  0  0  0
  -21.2540   -5.2930   25.7160 F   0  0  0  0  0  0  0  0  0  0  0  0
  -24.1370  -14.5970   20.9400 C   0  0  0  0  0  0  0  0  0  0  0  0
  -23.4040  -13.9610   21.8480 N   0  0  0  0  0  0  0  0  0  0  0  0
  -23.7760  -15.6760   20.4750 O   0  0  0  0  0  0  0  0  0  0  0  0
  -23.7100  -13.0840   22.2450 H   0  0  0  0  0  0  0  0  0  0  0  0
  -22.5260  -14.3570   22.1520 H   0  0  0  0  0  0  0  0  0  0  0  0
  -26.8880  -15.9840   19.9980 N   0  0  0  0  0  0  0  0  0  0  0  0
  -26.2090  -16.7180   20.1750 H   0  0  0  0  0  0  0  0  0  0  0  0
  -27.7500  -16.3310   19.5980 H   0  0  0  0  0  0  0  0  0  0  0  0
  -28.5890  -24.0540   21.3140 N   0  0  0  0  0  4  0  0  0  0  0  0
  -28.8220  -23.9130   22.2840 H   0  0  0  0  0  0  0  0  0  0  0  0
  -29.4210  -23.8420   20.7840 H   0  0  0  0  0  0  0  0  0  0  0  0
  -28.2400  -25.4820   21.1000 C   0  0  0  0  0  2  0  0  0  0  0  0
  -28.3700  -25.9220   19.6270 C   0  0  0  0  0  2  0  0  0  0  0  0
  -28.3520  -27.3480   19.5410 O   0  0  0  0  0  0  0  0  0  0  0  0
  -24.7600  -32.0280   23.4880 C   0  0  0  0  0  0  0  0  0  0  0  0
  -27.1560  -28.0070   19.7200 C   0  0  0  0  0  0  0  0  0  0  0  0
  -23.4360  -30.8550   21.7590 C   0  0  0  0  0  3  0  0  0  0  0  0
  -24.7780  -29.4940   20.0740 C   0  0  0  0  0  0  0  0  0  0  0  0
  -25.9490  -31.2200   21.4540 C   0  0  0  0  0  2  0  0  0  0  0  0
  -25.9740  -29.9400   20.6470 C   0  0  0  0  0  0  0  0  0  0  0  0
  -27.1640  -29.2060   20.4660 C   0  0  0  0  0  3  0  0  0  0  0  0
  -25.9380  -27.5640   19.1510 C   0  0  0  0  0  3  0  0  0  0  0  0
  -24.7530  -28.3040   19.3270 C   0  0  0  0  0  3  0  0  0  0  0  0
  -23.5520  -30.3490   20.2960 C   0  0  0  0  0  2  0  0  0  0  0  0
  -24.7370  -31.3740   22.2920 N   0  0  0  0  0  0  0  0  0  0  0  0
  -23.7190  -32.2380   24.1240 O   0  0  0  0  0  0  0  0  0  0  0  0
  -22.8280  -29.7260   22.6210 C   0  0  0  0  0  0  0  0  0  0  0  0
  -21.5080  -29.5190   22.4880 N   0  0  0  0  0  0  0  0  0  0  0  0
  -23.5390  -29.0420   23.3620 O   0  0  0  0  0  0  0  0  0  0  0  0
  -20.9940  -30.1280   21.8650 H   0  0  0  0  0  0  0  0  0  0  0  0
  -18.1980  -28.1080   22.8010 C   0  0  0  0  0  0  0  0  0  0  0  0
  -20.7280  -28.4860   23.1680 C   0  0  0  0  0  3  0  0  0  0  0  0
  -20.9280  -27.1060   22.5010 C   0  0  0  0  0  2  0  0  0  0  0  0
  -19.8740  -26.7900   21.4360 C   0  0  0  0  0  2  0  0  0  0  0  0
  -18.4690  -26.8180   22.0460 C   0  0  0  0  0  2  0  0  0  0  0  0
  -19.2590  -28.8990   23.3140 C   0  0  0  0  0  0  0  0  0  0  0  0
  -18.9550  -30.1070   23.9790 C   0  0  0  0  0  3  0  0  0  0  0  0
  -17.6210  -30.5250   24.1360 C   0  0  0  0  0  3  0  0  0  0  0  0
  -16.5730  -29.7310   23.6400 C   0  0  0  0  0  3  0  0  0  0  0  0
  -16.8620  -28.5230   22.9780 C   0  0  0  0  0  3  0  0  0  0  0  0
  -26.0920  -32.5620   24.1020 C   0  0  0  0  0  3  0  0  0  0  0  0
  -25.8520  -33.9410   24.5450 N   0  0  0  0  0  0  0  0  0  0  0  0
  -26.2100  -35.0330   23.8580 C   0  0  0  0  0  0  0  0  0  0  0  0
  -26.8500  -34.9820   22.8030 O   0  0  0  0  0  0  0  0  0  0  0  0
  -25.2830  -34.0580   25.3710 H   0  0  0  0  0  0  0  0  0  0  0  0
  -24.5440  -36.9090   23.6880 C   0  0  0  0  0  1  0  0  0  0  0  0
  -25.7900  -36.4010   24.4290 C   0  0  0  0  0  3  0  0  0  0  0  0
  -27.9820  -37.1400   25.2540 C   0  0  0  0  0  1  0  0  0  0  0  0
  -26.8600  -37.4200   24.3610 N   0  0  0  0  0  0  0  0  0  0  0  0
  -26.4950  -38.3410   24.5900 H   0  0  0  0  0  0  0  0  0  0  0  0
  -26.6270  -31.6770   25.2940 C   0  0  1  0  0  0  0  0  0  0  0  0
  -25.5650  -31.3870   26.3800 C   0  0  0  0  0  1  0  0  0  0  0  0
  -27.1510  -30.3180   24.7720 C   0  0  0  0  0  1  0  0  0  0  0  0
  -27.8250  -32.3810   25.9730 C   0  0  0  0  0  1  0  0  0  0  0  0
  2 50  1  0
  2  1  1  0
  3  6  1  0
  4  3  2  0
  4  7  1  0
  6  2  1  0
  6  5  2  0
  7  8  2  0
  8  5  1  0
  8  9  1  0
 10  7  1  0
 10 11  1  0
 11 20  1  0
 12 18  1  0
 12 20  1  0
 13 18  1  0
 14 15  1  0
 14 13  1  0
 16 15  1  0
 16 25  1  0
 16 17  1  0
 18 17  1  0
 19 12  2  0
 20 21  1  0
 22 23  2  0
 23 42  1  0
 24 23  1  0
 24 27  1  0
 25 26  1  0
 25 22  1  0
 26 24  2  0
 27 28  1  0
 28 29  2  0
 30 33  1  0
 30 29  1  0
 31 30  2  0
 32 31  1  0
 32 27  2  0
 33 34  1  0
 34 39  2  0
 34 35  1  0
 35 36  2  0
 36 37  1  0
 37 41  1  0
 38 37  2  0
 39 38  1  0
 40 39  1  0
 42 43  1  0
 43 46  1  0
 43 45  1  0
 44 42  2  0
 47 22  1  0
 47 48  1  0
 49 47  1  0
 50 51  1  0
 52 50  1  0
 53 50  1  0
 54 53  1  0
 55 54  1  0
 55 57  1  0
 56 67  2  0
 57 62  1  0
 58 66  1  0
 58 68  1  0
 59 65  1  0
 59 61  1  0
 60 66  1  0
 61 60  1  0
 62 61  2  0
 63 64  1  0
 63 57  2  0
 64 59  2  0
 65 58  1  0
 66 56  1  0
 68 70  2  0
 69 68  1  0
 71 69  1  0
 72 81  2  0
 72 77  1  0
 73 69  1  0
 73 77  1  0
 74 73  1  0
 75 76  1  0
 75 74  1  0
 76 72  1  0
 77 78  2  0
 78 79  1  0
 80 79  2  0
 81 80  1  0
 82 56  1  0
 82 83  1  0
 82 92  1  0
 83 86  1  0
 84 88  1  0
 84 83  1  0
 85 84  2  0
 88 87  1  0
 90 88  1  0
 90 91  1  0
 90 89  1  0
 92 95  1  1
 92 93  1  0
 94 92  1  0
M  ISO  4  12 100  20 100  54 101  55 101
M  END
>  <TORSDO>  (1) 
F 22

>  <SCORE>  (1) 
-10.111

>  <name>  (1) 
0

>  <ligand_id>  (1) 
0

>  <original_smiles>  (1) 
[H]c1c([H])c([H])c2c(c1[H])C([H])([H])C([H])([H])C([H])([H])C2([H])N([H])C(=O)C1([H])N(C(=O)C([H])(N([H])C(=O)C([H])(N([H])C([H])([H])[H])C([H])([H])[H])C(C([H])([H])[H])(C([H])([H])[H])C([H])([H])[H])C([H])([H])c2c([H])c(OC([H])([H])C([H])([H])[N+]([H])([H])C([H])(c3c([H])c([H])c(C([H])([H])C([H])([H])N([H])C(=O)N4C([H])([H])C([H])([H])C([H])([H])C([H])(n5nc(-c6c([H])c([H])c(Oc7c([H])c([H])c(F)c([H])c7F)c([H])c6[H])c(C(=O)N([H])[H])c5N([H])[H])C4([H])[H])c(F)c3[H])C([H])([H])[H])c([H])c([H])c2C1([H])[H]

>  <smiles>  (1) 
[H]c1c([H])c([H])c2c(c1[H])C([H])([H])C([H])([H])C([H])([H])C2([H])N([H])C(=O)C1([H])N(C(=O)C([H])(N([H])C(=O)C([H])(N([H])C([H])([H])[H])C([H])([H])[H])C(C([H])([H])[H])(C([H])([H])[H])C([H])([H])[H])C([H])([H])c2c([H])c(OC([H])([H])C([H])([H])[N+]([H])([H])C([H])(c3c([H])c([H])c(C([H])([H])C([H])([H])N([H])C(=O)N4C([H])([H])C([H])([H])C([H])([H])C([H])(n5nc(-c6c([H])c([H])c(Oc7c([H])c([H])c(F)c([H])c7F)c([H])c6[H])c(C(=O)N([H])[H])c5N([H])[H])C4([H])[H])c(F)c3[H])C([H])([H])[H])c([H])c([H])c2C1([H])[H]

$$$$
1:0:0
     RDKit          3D

 97 97  0  0  1  0  0  0  0  0999 V2000
  -26.5940  -11.9170   22.3190 C   0  0  0  0  0  3  0  0  0  0  0  0
  -25.7950  -13.2870   21.7310 C   0  0  0  0  0  3  0  0  0  0  0  0
  -25.3710   -9.9390   20.2340 C   0  0  0  0  0  2  0  0  0  0  0  0
  -26.6810  -10.3490   21.6420 C   0  0  0  0  0  3  0  0  0  0  0  0
  -24.9260  -13.4710   20.3040 C   0  0  0  0  0  1  0  0  0  0  0  0
  -24.3690  -11.5270   19.4850 C   0  0  0  0  0  1  0  0  0  0  0  0
  -23.3670  -11.0300   18.3840 C   0  0  0  0  0  1  0  0  0  0  0  0
  -25.5180  -16.3590   20.3830 C   0  0  0  0  0  1  0  0  0  0  0  0
  -25.9860  -15.3340   19.3430 C   0  0  0  0  0  1  0  0  0  0  0  0
  -27.6640  -16.4100   18.5660 N   0  0  0  0  0  2  0  0  0  0  0  0
  -28.1960  -15.5530   18.4120 H   0  0  0  0  0  0  0  0  0  0  0  0
  -28.0460  -16.7590   19.4310 H   0  0  0  0  0  0  0  0  0  0  0  0
  -28.6750  -17.6810   17.1800 C   0  0  0  0  0 15  0  0  0  0  0  0
  -30.2720  -19.3830   16.4300 C   0  0  0  0  0 15  0  0  0  0  0  0
  -31.8850  -20.4510   15.3950 O   0  0  0  0  0  1  0  0  0  0  0  0
  -32.5640  -27.9650   12.2200 C   0  0  0  0  0  0  0  0  0  0  0  0
  -32.4150  -21.6460   14.2330 C   0  0  0  0  0  0  0  0  0  0  0  0
  -31.5160  -26.0250   11.1600 C   0  0  0  0  0  3  0  0  0  0  0  0
  -32.3940  -23.6170   11.7460 C   0  0  0  0  0  0  0  0  0  0  0  0
  -33.6220  -25.5790   12.5650 C   0  0  0  0  0  2  0  0  0  0  0  0
  -33.1160  -24.0570   12.8500 C   0  0  0  0  0  0  0  0  0  0  0  0
  -33.1540  -23.0680   14.0470 C   0  0  0  0  0  3  0  0  0  0  0  0
  -32.1990  -21.3520   12.8510 C   0  0  0  0  0  3  0  0  0  0  0  0
  -32.0950  -22.2470   11.7300 C   0  0  0  0  0  3  0  0  0  0  0  0
  -31.9140  -24.5990   10.6520 C   0  0  0  0  0  2  0  0  0  0  0  0
  -32.6150  -26.5960   11.9960 N   0  0  0  0  0  0  0  0  0  0  0  0
  -31.6060  -28.6590   11.8300 O   0  0  0  0  0  0  0  0  0  0  0  0
  -30.1810  -25.9810   11.9520 C   0  0  0  0  0  0  0  0  0  0  0  0
  -29.0230  -25.9810   11.2650 N   0  0  0  0  0  0  0  0  0  0  0  0
  -30.2060  -25.9450   13.1850 O   0  0  0  0  0  0  0  0  0  0  0  0
  -29.0620  -26.0340   10.2570 H   0  0  0  0  0  0  0  0  0  0  0  0
  -25.4660  -25.8350   10.5470 C   0  0  0  0  0  0  0  0  0  0  0  0
  -27.6900  -25.8590   11.8690 C   0  0  0  0  0  3  0  0  0  0  0  0
  -27.3740  -24.3860   12.2170 C   0  0  0  0  0  2  0  0  0  0  0  0
  -26.6250  -23.6530   11.1030 C   0  0  0  0  0  2  0  0  0  0  0  0
  -25.2920  -24.3470   10.8060 C   0  0  0  0  0  2  0  0  0  0  0  0
  -26.6000  -26.5420   11.0320 C   0  0  0  0  0  0  0  0  0  0  0  0
  -26.7240  -27.9160   10.7400 C   0  0  0  0  0  3  0  0  0  0  0  0
  -25.7460  -28.5830    9.9780 C   0  0  0  0  0  3  0  0  0  0  0  0
  -24.6210  -27.8820    9.5100 C   0  0  0  0  0  3  0  0  0  0  0  0
  -24.4800  -26.5130    9.8000 C   0  0  0  0  0  3  0  0  0  0  0  0
  -33.6940  -28.7430   12.9620 C   0  0  0  0  0  3  0  0  0  0  0  0
  -33.8320  -30.0840   12.3400 N   0  0  0  0  0  0  0  0  0  0  0  0
  -34.7680  -30.4510   11.4520 C   0  0  0  0  0  0  0  0  0  0  0  0
  -35.6570  -29.6840   11.0790 O   0  0  0  0  0  0  0  0  0  0  0  0
  -33.1020  -30.7470   12.5530 H   0  0  0  0  0  0  0  0  0  0  0  0
  -34.0440  -31.8910    9.5060 C   0  0  0  0  0  1  0  0  0  0  0  0
  -34.7180  -31.8930   10.8890 C   0  0  0  0  0  3  0  0  0  0  0  0
  -36.6520  -32.8360   12.0780 C   0  0  0  0  0  1  0  0  0  0  0  0
  -36.0460  -32.5380   10.7830 N   0  0  0  0  0  0  0  0  0  0  0  0
  -35.9850  -33.4060   10.2560 H   0  0  0  0  0  0  0  0  0  0  0  0
  -33.4070  -28.9270   14.5060 C   0  0  1  0  0  0  0  0  0  0  0  0
  -32.0220  -29.5480   14.8140 C   0  0  0  0  0  1  0  0  0  0  0  0
  -33.4820  -27.5880   15.2640 C   0  0  0  0  0  1  0  0  0  0  0  0
  -34.4890  -29.8350   15.1370 C   0  0  0  0  0  1  0  0  0  0  0  0
  -28.5720  -10.1440   21.9050 C   0  0  0  0  0  1  0  0  0  0  0  0
  -31.0580  -10.1120   20.3650 C   0  0  0  0  0  1  0  0  0  0  0  0
  -32.5970  -10.5380   20.4960 C   0  0  0  0  0  2  0  0  0  0  0  0
  -32.9100  -11.7130   19.5100 C   0  0  0  0  0  2  0  0  0  0  0  0
  -31.0490  -12.9090   20.3140 C   0  0  0  0  0  0  0  0  0  0  0  0
  -30.5240  -11.3240   22.4290 C   0  0  0  0  0  3  0  0  0  0  0  0
  -30.5810   -9.3810   22.6510 C   0  0  0  0  0  3  0  0  0  0  0  0
  -29.8180   -8.2990   21.2030 C   0  0  0  0  0  1  0  0  0  0  0  0
  -29.2930   -9.3890   19.5840 C   0  0  0  0  0  2  0  0  0  0  0  0
  -29.2820  -11.2560   19.6770 C   0  0  0  0  0  2  0  0  0  0  0  0
  -30.0990  -12.0730   20.8980 N   0  0  0  0  0  0  0  0  0  0  0  0
  -31.8210  -13.6360   20.9040 O   0  0  0  0  0  0  0  0  0  0  0  0
  -31.6690  -12.4570   19.2240 N   0  0  0  0  0  0  0  0  0  0  0  0
  -31.8170  -13.1800   18.5320 H   0  0  0  0  0  0  0  0  0  0  0  0
  -27.8960   -9.0090   17.6740 C   0  0  0  0  0  3  0  0  0  0  0  0
  -27.0120   -8.0540   17.7450 C   0  0  0  0  0  3  0  0  0  0  0  0
  -26.8700   -8.4950   19.1880 C   0  0  0  0  0  3  0  0  0  0  0  0
  -28.2840   -9.0460   18.9450 N   0  0  2  0  0  4  0  0  0  0  0  0
  -28.0330   -7.9640   19.3370 N   0  0  0  0  0  2  0  0  0  0  0  0
  -24.5880   -8.2590   20.8480 C   0  0  0  0  0  3  0  0  0  0  0  0
  -24.4800   -8.0660   22.3370 C   0  0  0  0  0  2  0  0  0  0  0  0
  -23.8790   -6.9850   23.1490 C   0  0  0  0  0  3  0  0  0  0  0  0
  -23.3680   -5.7790   22.5860 C   0  0  0  0  0  0  0  0  0  0  0  0
  -23.4180   -5.8120   21.2200 C   0  0  0  0  0  2  0  0  0  0  0  0
  -23.4990   -7.1640   20.6940 C   0  0  0  0  0  2  0  0  0  0  0  0
  -22.7060   -4.7320   23.2240 O   0  0  0  0  0  0  0  0  0  0  0  0
  -21.5350   -4.9880   23.9110 C   0  0  0  0  0  0  0  0  0  0  0  0
  -20.5100   -5.8060   23.3790 C   0  0  0  0  0  3  0  0  0  0  0  0
  -19.3730   -6.1230   24.1520 C   0  0  0  0  0  3  0  0  0  0  0  0
  -19.2430   -5.6120   25.4570 C   0  0  0  0  0  0  0  0  0  0  0  0
  -20.2270   -4.7490   25.9710 C   0  0  0  0  0  3  0  0  0  0  0  0
  -21.3580   -4.4270   25.1960 C   0  0  0  0  0  0  0  0  0  0  0  0
  -22.2910   -3.5870   25.6990 F   0  0  0  0  0  0  0  0  0  0  0  0
  -18.1740   -5.9510   26.2200 F   0  0  0  0  0  0  0  0  0  0  0  0
  -26.0430   -7.3550   16.6270 C   0  0  0  0  0  0  0  0  0  0  0  0
  -24.6600   -7.2240   16.5930 N   0  0  0  0  0  0  0  0  0  0  0  0
  -26.5150   -6.9270   15.6420 O   0  0  0  0  0  0  0  0  0  0  0  0
  -24.1280   -7.5270   17.3990 H   0  0  0  0  0  0  0  0  0  0  0  0
  -24.1990   -6.7780   15.8140 H   0  0  0  0  0  0  0  0  0  0  0  0
  -28.4710   -9.7320   16.7130 N   0  0  0  0  0  0  0  0  0  0  0  0
  -28.6640   -9.1260   15.9210 H   0  0  0  0  0  0  0  0  0  0  0  0
  -29.3360  -10.1680   17.0140 H   0  0  0  0  0  0  0  0  0  0  0  0
  2  1  2  0
  3  4  1  0
  4 56  1  0
  4  1  1  0
  5  2  1  0
  7  6  1  0
  9  8  1  0
 10 12  1  0
 11 10  1  0
 17 15  1  0
 18 28  1  0
 18 26  1  0
 19 21  1  0
 20 21  1  0
 21 22  2  0
 22 17  1  0
 23 17  2  0
 24 19  2  0
 24 23  1  0
 25 18  1  0
 25 19  1  0
 26 16  1  0
 26 20  1  0
 27 16  2  0
 28 30  2  0
 29 28  1  0
 31 29  1  0
 32 36  1  0
 32 37  1  0
 33 29  1  0
 33 34  1  0
 35 34  1  0
 36 35  1  0
 37 33  1  0
 38 37  2  0
 39 38  1  0
 40 41  1  0
 40 39  2  0
 41 32  2  0
 42 16  1  0
 42 52  1  0
 43 46  1  0
 43 42  1  0
 44 43  1  0
 45 44  2  0
 48 47  1  0
 48 44  1  0
 50 48  1  0
 50 49  1  0
 51 50  1  0
 52 53  1  6
 52 55  1  0
 52 54  1  0
 57 58  1  0
 59 58  1  0
 60 66  1  0
 60 67  2  0
 61 62  2  0
 63 62  1  0
 64 65  1  0
 65 66  1  0
 66 61  1  0
 68 59  1  0
 68 60  1  0
 69 68  1  0
 70 95  1  0
 70 71  1  0
 70 73  1  0
 71 90  1  0
 71 72  1  0
 72 74  1  0
 73 72  1  0
 73 74  1  0
 73 64  1  1
 75  3  1  0
 75 76  1  0
 76 77  1  0
 78 77  2  0
 78 81  1  0
 79 78  1  0
 80 75  1  0
 80 79  1  0
 81 82  1  0
 82 87  1  0
 83 82  2  0
 83 84  1  0
 84 85  2  0
 85 86  1  0
 85 89  1  0
 87 88  1  0
 87 86  2  0
 91 90  1  0
 91 93  1  0
 92 90  2  0
 94 91  1  0
 95 97  1  0
 96 95  1  0
M  ISO  4  14 101  15 101  60 100  68 100
M  END
>  <TORSDO>  (2) 
F 24

>  <SCORE>  (2) 
25.307

>  <name>  (2) 
1

>  <ligand_id>  (2) 
1

>  <original_smiles>  (2) 
[H]c1c([H])c([H])c2c(c1[H])C([H])([H])C([H])([H])C([H])([H])C2([H])N([H])C(=O)C1([H])N(C(=O)C([H])(N([H])C(=O)C([H])(N([H])C([H])([H])[H])C([H])([H])[H])C(C([H])([H])[H])(C([H])([H])[H])C([H])([H])[H])C([H])([H])c2c([H])c(OC([H])([H])C([H])([H])[N+]([H])([H])C([H])(c3c([H])c([H])c(C([H])([H])C([H])([H])C([H])([H])C([H])([H])N([H])C(=O)N4C([H])([H])C([H])([H])C([H])([H])C([H])(n5nc(-c6c([H])c([H])c(Oc7c([H])c([H])c(F)c([H])c7F)c([H])c6[H])c(C(=O)N([H])[H])c5N([H])[H])C4([H])[H])c([H])c3C([H])([H])[H])C([H])([H])[H])c([H])c([H])c2C1([H])[H]

>  <smiles>  (2) 
[H]c1c([H])c([H])c2c(c1[H])C([H])([H])C([H])([H])C([H])([H])C2([H])N([H])C(=O)C1([H])N(C(=O)C([H])(N([H])C(=O)C([H])(N([H])C([H])([H])[H])C([H])([H])[H])C(C([H])([H])[H])(C([H])([H])[H])C([H])([H])[H])C([H])([H])c2c([H])c(OC([H])([H])C([H])([H])[N+]([H])([H])C([H])(c3c([H])c([H])c(C([H])([H])C([H])([H])C([H])([H])C([H])([H])N([H])C(=O)N4C([H])([H])C([H])([H])C([H])([H])C([H])(n5nc(-c6c([H])c([H])c(Oc7c([H])c([H])c(F)c([H])c7F)c([H])c6[H])c(C(=O)N([H])[H])c5N([H])[H])C4([H])[H])c([H])c3C([H])([H])[H])C([H])([H])[H])c([H])c([H])c2C1([H])[H]

$$$$
2:0:0
     RDKit          3D

 95 99  0  0  1  0  0  0  0  0999 V2000
  -28.7540  -17.9570   20.5190 C   0  0  0  0  0  3  0  0  0  0  0  0
  -28.4400  -19.3810   20.5220 C   0  0  0  0  0  3  0  0  0  0  0  0
  -29.8740  -18.6240   18.5460 C   0  0  0  0  0  3  0  0  0  0  0  0
  -29.5090  -17.2090   19.5730 C   0  0  0  0  0  3  0  0  0  0  0  0
  -28.8090  -20.4750   19.6230 C   0  0  0  0  0  0  0  0  0  0  0  0
  -29.6100  -20.3830   18.4350 C   0  0  0  0  0  3  0  0  0  0  0  0
  -28.2040  -21.8140   19.9120 C   0  0  0  0  0  0  0  0  0  0  0  0
  -27.0110  -21.9870   19.3640 N   0  0  0  0  0  0  0  0  0  0  0  0
  -28.7810  -22.6790   20.5680 O   0  0  0  0  0  0  0  0  0  0  0  0
  -26.6700  -21.2470   18.7690 H   0  0  0  0  0  0  0  0  0  0  0  0
  -26.4770  -22.8320   19.4840 H   0  0  0  0  0  0  0  0  0  0  0  0
  -29.5380  -15.1060   20.1220 C   0  0  0  0  0  2  0  0  0  0  0  0
  -29.1260  -14.8550   21.2580 O   0  0  0  0  0  1  0  0  0  0  0  0
  -30.5830  -12.9380   18.3660 C   0  0  0  0  0  2  0  0  0  0  0  0
  -31.9520  -12.9320   17.4810 C   0  0  0  0  0  2  0  0  0  0  0  0
  -32.9970  -13.9530   19.3620 C   0  0  0  0  0  0  0  0  0  0  0  0
  -31.7000  -12.5940   20.5700 C   0  0  0  0  0  3  0  0  0  0  0  0
  -30.3190  -11.4670   20.4910 C   0  0  0  0  0  3  0  0  0  0  0  0
  -28.9480  -11.5330   19.4710 C   0  0  0  0  0  2  0  0  0  0  0  0
  -28.4570  -13.1730   18.9050 C   0  0  0  0  0  2  0  0  0  0  0  0
  -30.0690  -14.7240   18.5380 C   0  0  0  0  0  2  0  0  0  0  0  0
  -31.7800  -14.1690   19.6640 N   0  0  0  0  0  2  0  0  0  0  0  0
  -33.8890  -13.8360   20.1730 O   0  0  0  0  0  0  0  0  0  0  0  0
  -33.1090  -13.5600   18.1010 N   0  0  0  0  0  0  0  0  0  0  0  0
  -34.0300  -13.2740   17.7940 H   0  0  0  0  0  0  0  0  0  0  0  0
  -26.3500  -13.9510   20.2770 C   0  0  0  0  0  0  0  0  0  0  0  0
  -25.2290  -13.2710   20.7100 C   0  0  0  0  0  0  0  0  0  0  0  0
  -25.4760  -11.8750   20.6710 C   0  0  0  0  0  0  0  0  0  0  0  0
  -27.2350  -13.0310   19.8380 N   0  0  0  0  0  0  0  0  0  0  0  0
  -26.6460  -11.7870   20.1350 N   0  0  0  0  0  0  0  0  0  0  0  0
  -24.6420  -10.6550   20.8520 C   0  0  0  0  0  0  0  0  0  0  0  0
  -24.9510   -9.6060   21.7590 C   0  0  0  0  0  3  0  0  0  0  0  0
  -24.0760   -8.5000   21.9250 C   0  0  0  0  0  3  0  0  0  0  0  0
  -22.8780   -8.4190   21.1710 C   0  0  0  0  0  0  0  0  0  0  0  0
  -22.6010   -9.4290   20.2300 C   0  0  0  0  0  3  0  0  0  0  0  0
  -23.4780  -10.5220   20.0690 C   0  0  0  0  0  3  0  0  0  0  0  0
  -21.9700   -7.3880   21.2380 O   0  0  0  0  0  0  0  0  0  0  0  0
  -21.7280   -6.7040   22.4040 C   0  0  0  0  0  0  0  0  0  0  0  0
  -21.2510   -7.3490   23.5660 C   0  0  0  0  0  3  0  0  0  0  0  0
  -20.9490   -6.5960   24.7190 C   0  0  0  0  0  3  0  0  0  0  0  0
  -21.1180   -5.1980   24.7120 C   0  0  0  0  0  0  0  0  0  0  0  0
  -21.5860   -4.5510   23.5540 C   0  0  0  0  0  3  0  0  0  0  0  0
  -21.8820   -5.3020   22.4030 C   0  0  0  0  0  0  0  0  0  0  0  0
  -22.3080   -4.6710   21.2830 F   0  0  0  0  0  0  0  0  0  0  0  0
  -20.8300   -4.4700   25.8190 F   0  0  0  0  0  0  0  0  0  0  0  0
  -23.8980  -13.8770   20.9160 C   0  0  0  0  0  0  0  0  0  0  0  0
  -23.0670  -13.2560   21.7420 N   0  0  0  0  0  0  0  0  0  0  0  0
  -23.6000  -14.9130   20.3280 O   0  0  0  0  0  0  0  0  0  0  0  0
  -23.3660  -12.4420   22.2600 H   0  0  0  0  0  0  0  0  0  0  0  0
  -22.1380  -13.6210   21.8960 H   0  0  0  0  0  0  0  0  0  0  0  0
  -26.6830  -15.2810   20.1020 N   0  0  0  0  0  0  0  0  0  0  0  0
  -26.0350  -16.0300   20.3190 H   0  0  0  0  0  0  0  0  0  0  0  0
  -27.5330  -15.6240   19.6790 H   0  0  0  0  0  0  0  0  0  0  0  0
  -29.7120  -22.2040   17.2710 C   0  0  0  0  0 15  0  0  0  0  0  0
  -29.3880  -24.2210   17.0080 O   0  0  0  0  0  1  0  0  0  0  0  0
  -26.2260  -29.7060   22.2760 C   0  0  0  0  0  0  0  0  0  0  0  0
  -28.5040  -25.6180   17.4650 C   0  0  0  0  0  0  0  0  0  0  0  0
  -24.9190  -28.6960   20.4650 C   0  0  0  0  0  3  0  0  0  0  0  0
  -26.2260  -27.6780   18.4050 C   0  0  0  0  0  0  0  0  0  0  0  0
  -27.4480  -29.0690   20.0300 C   0  0  0  0  0  2  0  0  0  0  0  0
  -27.4990  -27.8480   18.9540 C   0  0  0  0  0  0  0  0  0  0  0  0
  -28.5950  -26.8610   18.4660 C   0  0  0  0  0  3  0  0  0  0  0  0
  -27.1990  -25.8500   16.9240 C   0  0  0  0  0  3  0  0  0  0  0  0
  -26.1430  -26.7450   17.3540 C   0  0  0  0  0  3  0  0  0  0  0  0
  -24.9920  -28.4640   18.9210 C   0  0  0  0  0  2  0  0  0  0  0  0
  -26.2350  -29.1970   20.9820 N   0  0  0  0  0  0  0  0  0  0  0  0
  -25.2030  -29.6970   22.9900 O   0  0  0  0  0  0  0  0  0  0  0  0
  -24.4570  -27.3980   21.1850 C   0  0  0  0  0  0  0  0  0  0  0  0
  -23.1910  -26.9690   21.0070 N   0  0  0  0  0  0  0  0  0  0  0  0
  -25.2590  -26.7800   21.8890 O   0  0  0  0  0  0  0  0  0  0  0  0
  -22.5760  -27.5300   20.4350 H   0  0  0  0  0  0  0  0  0  0  0  0
  -20.2640  -24.8000   21.0480 C   0  0  0  0  0  0  0  0  0  0  0  0
  -22.6400  -25.7080   21.5280 C   0  0  0  0  0  3  0  0  0  0  0  0
  -23.1480  -24.5020   20.7010 C   0  0  0  0  0  2  0  0  0  0  0  0
  -22.1960  -24.1060   19.5700 C   0  0  0  0  0  2  0  0  0  0  0  0
  -20.8240  -23.7250   20.1320 C   0  0  0  0  0  2  0  0  0  0  0  0
  -21.1130  -25.7420   21.6900 C   0  0  0  0  0  0  0  0  0  0  0  0
  -20.5340  -26.7330   22.5110 C   0  0  0  0  0  3  0  0  0  0  0  0
  -19.1400  -26.7960   22.6910 C   0  0  0  0  0  3  0  0  0  0  0  0
  -18.3060  -25.8570   22.0590 C   0  0  0  0  0  3  0  0  0  0  0  0
  -18.8690  -24.8580   21.2440 C   0  0  0  0  0  3  0  0  0  0  0  0
  -27.4930  -30.3330   22.9350 C   0  0  0  0  0  3  0  0  0  0  0  0
  -27.0650  -31.2860   23.9870 N   0  0  0  0  0  0  0  0  0  0  0  0
  -27.1710  -32.6220   23.9230 C   0  0  0  0  0  0  0  0  0  0  0  0
  -27.6860  -33.1960   22.9630 O   0  0  0  0  0  0  0  0  0  0  0  0
  -26.5780  -30.8870   24.7760 H   0  0  0  0  0  0  0  0  0  0  0  0
  -25.2560  -34.0500   24.7440 C   0  0  0  0  0  1  0  0  0  0  0  0
  -26.6270  -33.4560   25.1070 C   0  0  0  0  0  3  0  0  0  0  0  0
  -28.7520  -34.0760   26.1800 C   0  0  0  0  0  1  0  0  0  0  0  0
  -27.5320  -34.5490   25.5310 N   0  0  0  0  0  0  0  0  0  0  0  0
  -27.0580  -35.1800   26.1710 H   0  0  0  0  0  0  0  0  0  0  0  0
  -28.4500  -29.2520   23.5790 C   0  0  1  0  0  0  0  0  0  0  0  0
  -27.7310  -28.2650   24.5290 C   0  0  0  0  0  1  0  0  0  0  0  0
  -29.1540  -28.4100   22.4920 C   0  0  0  0  0  1  0  0  0  0  0  0
  -29.5750  -29.9540   24.3780 C   0  0  0  0  0  1  0  0  0  0  0  0
  1  2  1  0
  3  4  1  0
  4  1  2  0
  5  7  1  0
  5  2  2  0
  6  3  2  0
  6  5  1  0
  7  9  2  0
  8 11  1  0
  8  7  1  0
 10  8  1  0
 12 13  1  0
 14 21  1  0
 15 24  1  0
 15 14  1  0
 16 22  1  0
 16 23  2  0
 18 17  2  0
 19 18  1  0
 20 19  1  0
 20 29  1  0
 21 12  1  0
 22 17  1  0
 24 16  1  0
 25 24  1  0
 26 27  2  0
 27 46  1  0
 28 27  1  0
 28 31  1  0
 29 30  1  0
 29 26  1  0
 30 28  2  0
 31 32  1  0
 32 33  2  0
 34 37  1  0
 34 33  1  0
 35 34  2  0
 36 35  1  0
 36 31  2  0
 37 38  1  0
 38 39  1  0
 39 40  2  0
 41 40  1  0
 41 45  1  0
 42 41  2  0
 43 38  2  0
 43 42  1  0
 44 43  1  0
 46 47  1  0
 47 50  1  0
 47 49  1  0
 48 46  2  0
 51 26  1  0
 51 52  1  0
 53 51  1  0
 55 57  1  0
 56 67  2  0
 57 62  1  0
 58 66  1  0
 58 68  1  0
 59 65  1  0
 59 61  1  0
 60 66  1  0
 61 60  1  0
 62 61  2  0
 63 64  1  0
 63 57  2  0
 64 59  2  0
 65 58  1  0
 66 56  1  0
 68 70  2  0
 69 68  1  0
 71 69  1  0
 72 81  2  0
 72 77  1  0
 73 69  1  0
 73 77  1  0
 74 73  1  0
 75 76  1  0
 75 74  1  0
 76 72  1  0
 77 78  2  0
 78 79  1  0
 80 79  2  0
 81 80  1  0
 82 56  1  0
 82 92  1  0
 82 83  1  0
 83 86  1  0
 84 83  1  0
 84 88  1  0
 85 84  2  0
 88 87  1  0
 88 90  1  0
 90 91  1  0
 90 89  1  0
 92 95  1  1
 92 93  1  0
 94 92  1  0
M  ISO  4  16 100  24 100  54 101  55 101
M  END
>  <TORSDO>  (3) 
F 21

>  <SCORE>  (3) 
-10.610

>  <name>  (3) 
2

>  <ligand_id>  (3) 
2

>  <original_smiles>  (3) 
[H]c1c([H])c([H])c2c(c1[H])C([H])([H])C([H])([H])C([H])([H])C2([H])N([H])C(=O)C1([H])N(C(=O)C([H])(N([H])C(=O)C([H])(N([H])C([H])([H])[H])C([H])([H])[H])C(C([H])([H])[H])(C([H])([H])[H])C([H])([H])[H])C([H])([H])c2c([H])c(OC([H])([H])c3c([H])c(C(=O)C([H])([H])C([H])([H])N([H])C(=O)N4C([H])([H])C([H])([H])C([H])([H])C([H])(n5nc(-c6c([H])c([H])c(Oc7c([H])c([H])c(F)c([H])c7F)c([H])c6[H])c(C(=O)N([H])[H])c5N([H])[H])C4([H])[H])c([H])c([H])c3C(=O)N([H])[H])c([H])c([H])c2C1([H])[H]

>  <smiles>  (3) 
[H]c1c([H])c([H])c2c(c1[H])C([H])([H])C([H])([H])C([H])([H])C2([H])N([H])C(=O)C1([H])N(C(=O)C([H])(N([H])C(=O)C([H])(N([H])C([H])([H])[H])C([H])([H])[H])C(C([H])([H])[H])(C([H])([H])[H])C([H])([H])[H])C([H])([H])c2c([H])c(OC([H])([H])c3c([H])c(C(=O)C([H])([H])C([H])([H])N([H])C(=O)N4C([H])([H])C([H])([H])C([H])([H])C([H])(n5nc(-c6c([H])c([H])c(Oc7c([H])c([H])c(F)c([H])c7F)c([H])c6[H])c(C(=O)N([H])[H])c5N([H])[H])C4([H])[H])c([H])c([H])c3C(=O)N([H])[H])c([H])c([H])c2C1([H])[H]

$$$$
3:0:0
     RDKit          3D

 96104  0  0  1  0  0  0  0  0999 V2000
  -28.5390  -21.3560   21.3270 C   0  0  0  0  0  0  0  0  0  0  0  0
  -28.1580  -21.7500   22.4370 O   0  0  0  0  0  0  0  0  0  0  0  0
  -30.0420  -19.9570   19.8550 C   0  0  0  0  0  3  0  0  0  0  0  0
  -31.0080  -18.9500   19.6760 C   0  0  0  0  0  3  0  0  0  0  0  0
  -31.0820  -18.5860   22.0750 C   0  0  0  0  0  3  0  0  0  0  0  0
  -29.5650  -20.2810   21.1470 C   0  0  0  0  0  0  0  0  0  0  0  0
  -31.5280  -18.2450   20.7820 C   0  0  0  0  0  0  0  0  0  0  0  0
  -30.1090  -19.5910   22.2600 C   0  0  0  0  0  0  0  0  0  0  0  0
  -29.6950  -19.8620   23.5220 F   0  0  0  0  0  0  0  0  0  0  0  0
  -33.9780  -17.6480   20.7250 C   0  0  0  0  0  1  0  0  0  0  0  0
  -32.5400  -17.1180   20.5780 C   0  0  0  0  0  3  0  0  0  0  0  0
  -32.8360  -15.3690   18.8010 C   0  0  0  0  0  0  0  0  0  0  0  0
  -32.1550  -13.1490   17.9830 C   0  0  0  0  0  2  0  0  0  0  0  0
  -30.9810  -13.2990   16.9900 C   0  0  0  0  0  2  0  0  0  0  0  0
  -29.6300  -13.3400   17.7310 C   0  0  0  0  0  2  0  0  0  0  0  0
  -29.6310  -14.3410   18.9130 C   0  0  0  0  0  3  0  0  0  0  0  0
  -30.8750  -14.1340   19.8000 C   0  0  0  0  0  2  0  0  0  0  0  0
  -32.0700  -14.2570   18.9450 N   0  0  0  0  0  0  0  0  0  0  0  0
  -33.8020  -15.4300   18.0390 O   0  0  0  0  0  0  0  0  0  0  0  0
  -32.3000  -16.5010   19.2700 N   0  0  0  0  0  0  0  0  0  0  0  0
  -32.3290  -17.2170   18.5610 H   0  0  0  0  0  0  0  0  0  0  0  0
  -27.7250  -15.2350   20.3920 C   0  0  0  0  0  0  0  0  0  0  0  0
  -26.5910  -14.6410   20.8750 C   0  0  0  0  0  0  0  0  0  0  0  0
  -26.6340  -13.2820   20.4300 C   0  0  0  0  0  0  0  0  0  0  0  0
  -28.4000  -14.2490   19.6880 N   0  0  0  0  0  0  0  0  0  0  0  0
  -27.7570  -13.0560   19.7610 N   0  0  0  0  0  0  0  0  0  0  0  0
  -25.6470  -12.2030   20.5480 C   0  0  0  0  0  0  0  0  0  0  0  0
  -25.9420  -11.0020   21.2300 C   0  0  0  0  0  3  0  0  0  0  0  0
  -24.9670   -9.9880   21.3430 C   0  0  0  0  0  3  0  0  0  0  0  0
  -23.6840  -10.1680   20.7750 C   0  0  0  0  0  0  0  0  0  0  0  0
  -23.4050  -11.3580   20.0790 C   0  0  0  0  0  3  0  0  0  0  0  0
  -24.3750  -12.3640   19.9620 C   0  0  0  0  0  3  0  0  0  0  0  0
  -22.6840   -9.2280   20.8140 O   0  0  0  0  0  0  0  0  0  0  0  0
  -22.4910   -8.4290   21.9140 C   0  0  0  0  0  0  0  0  0  0  0  0
  -22.2790   -8.9700   23.2000 C   0  0  0  0  0  3  0  0  0  0  0  0
  -22.0120   -8.1150   24.2880 C   0  0  0  0  0  3  0  0  0  0  0  0
  -21.9510   -6.7220   24.0910 C   0  0  0  0  0  0  0  0  0  0  0  0
  -22.1560   -6.1830   22.8090 C   0  0  0  0  0  3  0  0  0  0  0  0
  -22.4220   -7.0350   21.7230 C   0  0  0  0  0  0  0  0  0  0  0  0
  -22.5980   -6.5100   20.4880 F   0  0  0  0  0  0  0  0  0  0  0  0
  -21.6870   -5.9000   25.1340 F   0  0  0  0  0  0  0  0  0  0  0  0
  -25.4810  -15.3110   21.6350 C   0  0  0  0  0  0  0  0  0  0  0  0
  -24.8440  -14.5960   22.5540 N   0  0  0  0  0  0  0  0  0  0  0  0
  -25.2070  -16.4960   21.4470 O   0  0  0  0  0  0  0  0  0  0  0  0
  -25.0850  -13.6310   22.7280 H   0  0  0  0  0  0  0  0  0  0  0  0
  -24.1100  -15.0240   23.1020 H   0  0  0  0  0  0  0  0  0  0  0  0
  -28.2280  -16.5300   20.4660 N   0  0  0  0  0  0  0  0  0  0  0  0
  -27.7350  -17.2780   20.9380 H   0  0  0  0  0  0  0  0  0  0  0  0
  -29.0910  -16.8290   20.0370 H   0  0  0  0  0  0  0  0  0  0  0  0
  -27.9530  -22.0380   20.0520 C   0  0  0  0  0  0  0  0  0  0  0  0
  -28.4920  -23.2510   19.8570 N   0  0  0  0  0  0  0  0  0  0  0  0
  -27.0980  -21.5200   19.3260 O   0  0  0  0  0  0  0  0  0  0  0  0
  -29.1560  -23.5310   20.5640 H   0  0  0  0  0  0  0  0  0  0  0  0
  -28.1860  -24.2300   18.8100 C   0  0  0  0  0  2  0  0  0  0  0  0
  -28.5860  -25.6430   19.3170 C   0  0  0  0  0  2  0  0  0  0  0  0
  -28.3010  -26.7580   18.4580 O   0  0  0  0  0  0  0  0  0  0  0  0
  -24.9300  -31.2450   22.8920 C   0  0  0  0  0  0  0  0  0  0  0  0
  -27.1550  -27.4530   18.7720 C   0  0  0  0  0  0  0  0  0  0  0  0
  -23.5270  -30.1060   21.2110 C   0  0  0  0  0  3  0  0  0  0  0  0
  -24.7810  -28.8650   19.3690 C   0  0  0  0  0  0  0  0  0  0  0  0
  -26.0060  -30.5510   20.7510 C   0  0  0  0  0  2  0  0  0  0  0  0
  -26.0080  -29.3130   19.8780 C   0  0  0  0  0  0  0  0  0  0  0  0
  -27.2010  -28.6130   19.5770 C   0  0  0  0  0  3  0  0  0  0  0  0
  -25.9130  -27.0140   18.2690 C   0  0  0  0  0  3  0  0  0  0  0  0
  -24.7290  -27.7150   18.5610 C   0  0  0  0  0  3  0  0  0  0  0  0
  -23.5510  -29.6710   19.7210 C   0  0  0  0  0  2  0  0  0  0  0  0
  -24.8470  -30.6410   21.6740 N   0  0  0  0  0  0  0  0  0  0  0  0
  -23.9280  -31.3880   23.6040 O   0  0  0  0  0  0  0  0  0  0  0  0
  -23.0140  -28.9210   22.0590 C   0  0  0  0  0  0  0  0  0  0  0  0
  -21.7130  -28.6070   21.9290 N   0  0  0  0  0  0  0  0  0  0  0  0
  -23.7830  -28.2910   22.7890 O   0  0  0  0  0  0  0  0  0  0  0  0
  -21.1460  -29.1740   21.3170 H   0  0  0  0  0  0  0  0  0  0  0  0
  -18.5680  -26.8520   22.1690 C   0  0  0  0  0  0  0  0  0  0  0  0
  -21.0320  -27.5030   22.6020 C   0  0  0  0  0  3  0  0  0  0  0  0
  -21.3960  -26.1470   21.9530 C   0  0  0  0  0  2  0  0  0  0  0  0
  -20.4100  -25.7200   20.8600 C   0  0  0  0  0  2  0  0  0  0  0  0
  -18.9960  -25.5990   21.4280 C   0  0  0  0  0  2  0  0  0  0  0  0
  -19.5230  -27.7550   22.7040 C   0  0  0  0  0  0  0  0  0  0  0  0
  -19.0690  -28.9280   23.3440 C   0  0  0  0  0  3  0  0  0  0  0  0
  -17.6920  -29.2010   23.4620 C   0  0  0  0  0  3  0  0  0  0  0  0
  -16.7510  -28.2930   22.9440 C   0  0  0  0  0  3  0  0  0  0  0  0
  -17.1890  -27.1220   22.3000 C   0  0  0  0  0  3  0  0  0  0  0  0
  -26.2800  -31.8040   23.4360 C   0  0  0  0  0  3  0  0  0  0  0  0
  -26.0030  -33.1090   24.0470 N   0  0  0  0  0  0  0  0  0  0  0  0
  -26.2720  -34.2910   23.4750 C   0  0  0  0  0  0  0  0  0  0  0  0
  -26.8510  -34.3920   22.3920 O   0  0  0  0  0  0  0  0  0  0  0  0
  -25.4860  -33.1000   24.9130 H   0  0  0  0  0  0  0  0  0  0  0  0
  -24.5430  -36.1140   23.5790 C   0  0  0  0  0  1  0  0  0  0  0  0
  -25.8270  -35.5630   24.2200 C   0  0  0  0  0  3  0  0  0  0  0  0
  -28.0180  -36.2750   25.0730 C   0  0  0  0  0  1  0  0  0  0  0  0
  -26.8620  -36.6200   24.2500 N   0  0  0  0  0  0  0  0  0  0  0  0
  -26.4740  -37.4950   24.5930 H   0  0  0  0  0  0  0  0  0  0  0  0
  -26.9740  -30.8410   24.4770 C   0  0  1  0  0  0  0  0  0  0  0  0
  -26.0290  -30.3550   25.6000 C   0  0  0  0  0  1  0  0  0  0  0  0
  -27.5450  -29.5930   23.7680 C   0  0  0  0  0  1  0  0  0  0  0  0
  -28.1760  -31.5620   25.1350 C   0  0  0  0  0  1  0  0  0  0  0  0
  1  2  2  0
  3  6  1  0
  4  3  2  0
  4  7  1  0
  5  8  1  0
  6  1  1  0
  6  8  2  0
  7  5  2  0
  8  9  1  0
 11 10  1  0
 11  7  1  0
 12 18  1  0
 12 20  1  0
 13 18  1  0
 14 15  1  0
 14 13  1  0
 16 15  1  0
 16 25  1  0
 16 17  1  0
 18 17  1  0
 19 12  2  0
 20 11  1  0
 21 20  1  0
 22 47  1  0
 22 23  2  0
 23 42  1  0
 24 27  1  0
 24 23  1  0
 25 26  1  0
 25 22  1  0
 26 24  2  0
 27 28  1  0
 28 29  2  0
 30 33  1  0
 30 29  1  0
 31 30  2  0
 32 31  1  0
 32 27  2  0
 33 34  1  0
 34 35  1  0
 35 36  2  0
 37 36  1  0
 37 41  1  0
 38 37  2  0
 39 34  2  0
 39 38  1  0
 40 39  1  0
 42 43  1  0
 43 45  1  0
 43 46  1  0
 44 42  2  0
 47 48  1  0
 49 47  1  0
 50  1  1  0
 51 50  1  0
 51 53  1  0
 52 50  2  0
 54 55  1  0
 54 51  1  0
 56 58  1  0
 56 55  1  0
 57 68  2  0
 58 63  1  0
 59 67  1  0
 59 69  1  0
 60 66  1  0
 60 62  1  0
 61 67  1  0
 62 61  1  0
 63 62  2  0
 64 65  1  0
 64 58  2  0
 65 60  2  0
 66 59  1  0
 67 57  1  0
 69 71  2  0
 70 69  1  0
 72 70  1  0
 73 82  2  0
 73 78  1  0
 74 70  1  0
 74 78  1  0
 75 74  1  0
 76 77  1  0
 76 75  1  0
 77 73  1  0
 78 79  2  0
 79 80  1  0
 81 80  2  0
 82 81  1  0
 83 57  1  0
 83 84  1  0
 83 93  1  0
 84 87  1  0
 85 84  1  0
 85 89  1  0
 86 85  2  0
 89 88  1  0
 89 91  1  0
 91 92  1  0
 91 90  1  0
 93 96  1  1
 93 94  1  0
 95 93  1  0
M  ISO  4  12 100  20 100  55 101  56 101
M  END
>  <TORSDO>  (4) 
F 21

>  <SCORE>  (4) 
-2.792

>  <name>  (4) 
3

>  <ligand_id>  (4) 
3

>  <original_smiles>  (4) 
[H]c1c([H])c([H])c2c(c1[H])C([H])([H])C([H])([H])C([H])([H])C2([H])N([H])C(=O)C1([H])N(C(=O)C([H])(N([H])C(=O)C([H])(N([H])C([H])([H])[H])C([H])([H])[H])C(C([H])([H])[H])(C([H])([H])[H])C([H])([H])[H])C([H])([H])c2c([H])c(OC([H])([H])C([H])([H])N([H])C(=O)C(=O)c3c([H])c([H])c(C([H])(N([H])C(=O)N4C([H])([H])C([H])([H])C([H])([H])C([H])(n5nc(-c6c([H])c([H])c(Oc7c([H])c([H])c(F)c([H])c7F)c([H])c6[H])c(C(=O)N([H])[H])c5N([H])[H])C4([H])[H])C([H])([H])[H])c([H])c3F)c([H])c([H])c2C1([H])[H]

>  <smiles>  (4) 
[H]c1c([H])c([H])c2c(c1[H])C([H])([H])C([H])([H])C([H])([H])C2([H])N([H])C(=O)C1([H])N(C(=O)C([H])(N([H])C(=O)C([H])(N([H])C([H])([H])[H])C([H])([H])[H])C(C([H])([H])[H])(C([H])([H])[H])C([H])([H])[H])C([H])([H])c2c([H])c(OC([H])([H])C([H])([H])N([H])C(=O)C(=O)c3c([H])c([H])c(C([H])(N([H])C(=O)N4C([H])([H])C([H])([H])C([H])([H])C([H])(n5nc(-c6c([H])c([H])c(Oc7c([H])c([H])c(F)c([H])c7F)c([H])c6[H])c(C(=O)N([H])[H])c5N([H])[H])C4([H])[H])C([H])([H])[H])c([H])c3F)c([H])c([H])c2C1([H])[H]

$$$$
4:0:0
     RDKit          3D

 97105  0  0  1  0  0  0  0  0999 V2000
  -29.1160  -22.6490   19.2770 C   0  0  0  0  0  3  0  0  0  0  0  0
  -29.2150  -21.2770   18.9660 C   0  0  0  0  0  3  0  0  0  0  0  0
  -27.8560  -20.7540   20.9070 C   0  0  0  0  0  3  0  0  0  0  0  0
  -28.3650  -23.1020   20.3940 C   0  0  0  0  0  0  0  0  0  0  0  0
  -28.5820  -20.3130   19.7820 C   0  0  0  0  0  0  0  0  0  0  0  0
  -27.7330  -22.1240   21.2140 C   0  0  0  0  0  0  0  0  0  0  0  0
  -27.3790  -18.5320   18.4940 C   0  0  0  0  0  1  0  0  0  0  0  0
  -28.5550  -18.8180   19.4420 C   0  0  0  0  0  3  0  0  0  0  0  0
  -29.8070  -18.2870   18.8540 N   0  0  0  0  0  4  0  0  0  0  0  0
  -29.5270  -17.4610   18.3510 H   0  0  0  0  0  0  0  0  0  0  0  0
  -30.1690  -18.9400   18.1790 H   0  0  0  0  0  0  0  0  0  0  0  0
  -30.8770  -17.8430   19.7820 C   0  0  0  0  0  2  0  0  0  0  0  0
  -31.2510  -16.3810   19.4530 C   0  0  0  0  0  2  0  0  0  0  0  0
  -32.9000  -14.6210   19.9590 C   0  0  0  0  0  0  0  0  0  0  0  0
  -32.4890  -12.1880   19.8280 C   0  0  0  0  0  2  0  0  0  0  0  0
  -31.5880  -11.8460   18.6250 C   0  0  0  0  0  2  0  0  0  0  0  0
  -30.0970  -11.9670   18.9980 C   0  0  0  0  0  2  0  0  0  0  0  0
  -29.7750  -13.3070   19.7100 C   0  0  0  0  0  3  0  0  0  0  0  0
  -30.7820  -13.5600   20.8610 C   0  0  0  0  0  2  0  0  0  0  0  0
  -32.1360  -13.5410   20.2870 N   0  0  0  0  0  0  0  0  0  0  0  0
  -34.0280  -14.5210   19.4740 O   0  0  0  0  0  0  0  0  0  0  0  0
  -32.3940  -15.8430   20.2030 N   0  0  0  0  0  0  0  0  0  0  0  0
  -33.1320  -16.5260   20.3110 H   0  0  0  0  0  0  0  0  0  0  0  0
  -27.5960  -14.4600   20.4560 C   0  0  0  0  0  0  0  0  0  0  0  0
  -26.3690  -13.9560   20.7930 C   0  0  0  0  0  0  0  0  0  0  0  0
  -26.4820  -12.5360   20.6850 C   0  0  0  0  0  0  0  0  0  0  0  0
  -28.3930  -13.3580   20.1760 N   0  0  0  0  0  0  0  0  0  0  0  0
  -27.7230  -12.1960   20.3680 N   0  0  0  0  0  0  0  0  0  0  0  0
  -25.4670  -11.4830   20.8040 C   0  0  0  0  0  0  0  0  0  0  0  0
  -25.6450  -10.3830   21.6720 C   0  0  0  0  0  3  0  0  0  0  0  0
  -24.6500   -9.3890   21.7800 C   0  0  0  0  0  3  0  0  0  0  0  0
  -23.4610   -9.4890   21.0200 C   0  0  0  0  0  0  0  0  0  0  0  0
  -23.3000  -10.5720   20.1380 C   0  0  0  0  0  3  0  0  0  0  0  0
  -24.2940  -11.5580   20.0270 C   0  0  0  0  0  3  0  0  0  0  0  0
  -22.4510   -8.5570   21.0450 O   0  0  0  0  0  0  0  0  0  0  0  0
  -22.1900   -7.8080   22.1650 C   0  0  0  0  0  0  0  0  0  0  0  0
  -21.8650   -8.4050   23.4020 C   0  0  0  0  0  3  0  0  0  0  0  0
  -21.5350   -7.5970   24.5080 C   0  0  0  0  0  3  0  0  0  0  0  0
  -21.5210   -6.1960   24.3770 C   0  0  0  0  0  0  0  0  0  0  0  0
  -21.8410   -5.6000   23.1440 C   0  0  0  0  0  3  0  0  0  0  0  0
  -22.1710   -6.4040   22.0400 C   0  0  0  0  0  0  0  0  0  0  0  0
  -22.4560   -5.8260   20.8480 F   0  0  0  0  0  0  0  0  0  0  0  0
  -21.1960   -5.4190   25.4370 F   0  0  0  0  0  0  0  0  0  0  0  0
  -25.1260  -14.7460   21.0850 C   0  0  0  0  0  0  0  0  0  0  0  0
  -24.2370  -14.2110   21.9150 N   0  0  0  0  0  0  0  0  0  0  0  0
  -24.9600  -15.8680   20.6090 O   0  0  0  0  0  0  0  0  0  0  0  0
  -24.3830  -13.3020   22.3260 H   0  0  0  0  0  0  0  0  0  0  0  0
  -23.3980  -14.7260   22.1460 H   0  0  0  0  0  0  0  0  0  0  0  0
  -28.0930  -15.7550   20.3270 N   0  0  0  0  0  0  0  0  0  0  0  0
  -27.3530  -16.4510   20.2960 H   0  0  0  0  0  0  0  0  0  0  0  0
  -28.7130  -15.8580   19.5330 H   0  0  0  0  0  0  0  0  0  0  0  0
  -28.2930  -24.5760   20.6920 C   0  0  0  0  0  0  0  0  0  0  0  0
  -28.0380  -25.0420   21.8100 O   0  0  0  0  0  0  0  0  0  0  0  0
  -28.5750  -25.5480   19.5320 C   0  0  0  0  0  2  0  0  0  0  0  0
  -28.5440  -26.9140   19.9800 O   0  0  0  0  0  0  0  0  0  0  0  0
  -24.6890  -31.8300   23.3710 C   0  0  0  0  0  0  0  0  0  0  0  0
  -27.3390  -27.5820   20.0350 C   0  0  0  0  0  0  0  0  0  0  0  0
  -23.4850  -30.5320   21.6430 C   0  0  0  0  0  3  0  0  0  0  0  0
  -24.9390  -29.0800   20.1370 C   0  0  0  0  0  0  0  0  0  0  0  0
  -26.0110  -30.8980   21.4760 C   0  0  0  0  0  2  0  0  0  0  0  0
  -26.0940  -29.5690   20.7550 C   0  0  0  0  0  0  0  0  0  0  0  0
  -27.2950  -28.8280   20.7000 C   0  0  0  0  0  3  0  0  0  0  0  0
  -26.1610  -27.1030   19.4160 C   0  0  0  0  0  3  0  0  0  0  0  0
  -24.9670  -27.8450   19.4660 C   0  0  0  0  0  3  0  0  0  0  0  0
  -23.6960  -29.9350   20.2270 C   0  0  0  0  0  2  0  0  0  0  0  0
  -24.7460  -31.0990   22.2220 N   0  0  0  0  0  0  0  0  0  0  0  0
  -23.6060  -32.0720   23.9200 O   0  0  0  0  0  0  0  0  0  0  0  0
  -22.8290  -29.4570   22.5370 C   0  0  0  0  0  0  0  0  0  0  0  0
  -21.5070  -29.2770   22.3840 N   0  0  0  0  0  0  0  0  0  0  0  0
  -23.5060  -28.7880   23.3220 O   0  0  0  0  0  0  0  0  0  0  0  0
  -21.0220  -29.8710   21.7270 H   0  0  0  0  0  0  0  0  0  0  0  0
  -18.1310  -28.0540   22.7730 C   0  0  0  0  0  0  0  0  0  0  0  0
  -20.6840  -28.2940   23.0880 C   0  0  0  0  0  3  0  0  0  0  0  0
  -20.7960  -26.9000   22.4290 C   0  0  0  0  0  2  0  0  0  0  0  0
  -19.7050  -26.6370   21.3870 C   0  0  0  0  0  2  0  0  0  0  0  0
  -18.3160  -26.7450   22.0220 C   0  0  0  0  0  2  0  0  0  0  0  0
  -19.2440  -28.7890   23.2590 C   0  0  0  0  0  0  0  0  0  0  0  0
  -19.0180  -30.0180   23.9160 C   0  0  0  0  0  3  0  0  0  0  0  0
  -17.7120  -30.5090   24.0960 C   0  0  0  0  0  3  0  0  0  0  0  0
  -16.6130  -29.7680   23.6290 C   0  0  0  0  0  3  0  0  0  0  0  0
  -16.8230  -28.5420   22.9720 C   0  0  0  0  0  3  0  0  0  0  0  0
  -25.9740  -32.4190   24.0320 C   0  0  0  0  0  3  0  0  0  0  0  0
  -25.6910  -33.8170   24.3820 N   0  0  0  0  0  0  0  0  0  0  0  0
  -26.0680  -34.8740   23.6510 C   0  0  0  0  0  0  0  0  0  0  0  0
  -26.7620  -34.7740   22.6350 O   0  0  0  0  0  0  0  0  0  0  0  0
  -25.0850  -33.9720   25.1730 H   0  0  0  0  0  0  0  0  0  0  0  0
  -24.3860  -36.7060   23.2920 C   0  0  0  0  0  1  0  0  0  0  0  0
  -25.6010  -36.2640   24.1220 C   0  0  0  0  0  3  0  0  0  0  0  0
  -27.7390  -37.0840   25.0090 C   0  0  0  0  0  1  0  0  0  0  0  0
  -26.6580  -37.2970   24.0490 N   0  0  0  0  0  0  0  0  0  0  0  0
  -26.2690  -38.2210   24.2110 H   0  0  0  0  0  0  0  0  0  0  0  0
  -26.4460  -31.6110   25.3020 C   0  0  1  0  0  0  0  0  0  0  0  0
  -25.3180  -31.3480   26.3270 C   0  0  0  0  0  1  0  0  0  0  0  0
  -27.0380  -30.2430   24.8910 C   0  0  0  0  0  1  0  0  0  0  0  0
  -27.5760  -32.3820   26.0250 C   0  0  0  0  0  1  0  0  0  0  0  0
  -26.9610  -22.4580   22.2920 O   0  0  0  0  0  0  0  0  0  0  0  0
  -26.5540  -21.7090   22.7160 H   0  0  0  0  0  0  0  0  0  0  0  0
  1  4  1  0
  2  1  2  0
  2  5  1  0
  3  6  1  0
  4 52  1  0
  4  6  2  0
  5  3  2  0
  6 96  1  0
  8  7  1  0
  8  5  1  0
  9  8  1  0
  9 12  1  0
 10  9  1  0
 11  9  1  0
 13 12  1  0
 13 22  1  0
 14 22  1  0
 14 20  1  0
 15 20  1  0
 16 17  1  0
 16 15  1  0
 18 17  1  0
 18 27  1  0
 18 19  1  0
 20 19  1  0
 21 14  2  0
 22 23  1  0
 24 25  2  0
 25 44  1  0
 26 25  1  0
 26 29  1  0
 27 28  1  0
 27 24  1  0
 28 26  2  0
 29 30  1  0
 30 31  2  0
 32 35  1  0
 32 31  1  0
 33 32  2  0
 34 33  1  0
 34 29  2  0
 35 36  1  0
 36 37  1  0
 37 38  2  0
 39 38  1  0
 39 43  1  0
 40 39  2  0
 41 36  2  0
 41 40  1  0
 42 41  1  0
 44 45  1  0
 45 48  1  0
 45 47  1  0
 46 44  2  0
 49 24  1  0
 50 49  1  0
 51 49  1  0
 52 53  2  0
 54 55  1  0
 54 52  1  0
 55 57  1  0
 56 67  2  0
 57 62  1  0
 58 66  1  0
 58 68  1  0
 59 65  1  0
 59 61  1  0
 60 66  1  0
 61 60  1  0
 62 61  2  0
 63 64  1  0
 63 57  2  0
 64 59  2  0
 65 58  1  0
 66 56  1  0
 68 70  2  0
 69 68  1  0
 71 69  1  0
 72 81  2  0
 72 77  1  0
 73 69  1  0
 73 77  1  0
 74 73  1  0
 75 76  1  0
 75 74  1  0
 76 72  1  0
 77 78  2  0
 78 79  1  0
 80 79  2  0
 81 80  1  0
 82 56  1  0
 82 83  1  0
 82 92  1  0
 83 86  1  0
 84 88  1  0
 84 83  1  0
 85 84  2  0
 88 87  1  0
 90 88  1  0
 90 91  1  0
 90 89  1  0
 92 95  1  1
 92 93  1  0
 94 92  1  0
 96 97  1  0
M  ISO  4  14 100  22 100  54 101  55 101
M  END
>  <TORSDO>  (5) 
F 23

>  <SCORE>  (5) 
-10.705

>  <name>  (5) 
4

>  <ligand_id>  (5) 
4

>  <original_smiles>  (5) 
[H]Oc1c([H])c(C([H])(C([H])([H])[H])[N+]([H])([H])C([H])([H])C([H])([H])N([H])C(=O)N2C([H])([H])C([H])([H])C([H])([H])C([H])(n3nc(-c4c([H])c([H])c(Oc5c([H])c([H])c(F)c([H])c5F)c([H])c4[H])c(C(=O)N([H])[H])c3N([H])[H])C2([H])[H])c([H])c([H])c1C(=O)C([H])([H])Oc1c([H])c([H])c2c(c1[H])C([H])([H])N(C(=O)C([H])(N([H])C(=O)C([H])(N([H])C([H])([H])[H])C([H])([H])[H])C(C([H])([H])[H])(C([H])([H])[H])C([H])([H])[H])C([H])(C(=O)N([H])C1([H])c3c([H])c([H])c([H])c([H])c3C([H])([H])C([H])([H])C1([H])[H])C2([H])[H]

>  <smiles>  (5) 
[H]Oc1c([H])c(C([H])(C([H])([H])[H])[N+]([H])([H])C([H])([H])C([H])([H])N([H])C(=O)N2C([H])([H])C([H])([H])C([H])([H])C([H])(n3nc(-c4c([H])c([H])c(Oc5c([H])c([H])c(F)c([H])c5F)c([H])c4[H])c(C(=O)N([H])[H])c3N([H])[H])C2([H])[H])c([H])c([H])c1C(=O)C([H])([H])Oc1c([H])c([H])c2c(c1[H])C([H])([H])N(C(=O)C([H])(N([H])C(=O)C([H])(N([H])C([H])([H])[H])C([H])([H])[H])C(C([H])([H])[H])(C([H])([H])[H])C([H])([H])[H])C([H])(C(=O)N([H])C1([H])c3c([H])c([H])c([H])c([H])c3C([H])([H])C([H])([H])C1([H])[H])C2([H])[H]

$$$$
5:0:0
     RDKit          3D

101105  0  0  1  0  0  0  0  0999 V2000
  -25.7940  -18.4790   20.0280 C   0  0  0  0  0  3  0  0  0  0  0  0
  -25.4210  -19.9470   19.9240 C   0  0  0  0  0  3  0  0  0  0  0  0
  -27.6000  -18.8170   18.7590 C   0  0  0  0  0  3  0  0  0  0  0  0
  -26.9390  -17.7140   19.4710 C   0  0  0  0  0  0  0  0  0  0  0  0
  -26.0870  -21.0510   19.2010 C   0  0  0  0  0  0  0  0  0  0  0  0
  -27.2420  -20.2930   18.6250 C   0  0  0  0  0  0  0  0  0  0  0  0
  -25.7470  -22.8070   18.9310 C   0  0  0  0  0  0  0  0  0  0  0  0
  -25.8460  -23.1240   17.7420 O   0  0  0  0  0  0  0  0  0  0  0  0
  -25.2960  -24.3040   19.8240 C   0  0  0  0  0  2  0  0  0  0  0  0
  -25.3960  -25.9820   19.4300 O   0  0  0  0  0  0  0  0  0  0  0  0
  -27.2490  -31.3800   24.5800 C   0  0  0  0  0  0  0  0  0  0  0  0
  -25.1570  -27.0970   20.4040 C   0  0  0  0  0  0  0  0  0  0  0  0
  -25.4240  -29.7880   24.9140 C   0  0  0  0  0  3  0  0  0  0  0  0
  -24.4810  -28.6130   22.8310 C   0  0  0  0  0  0  0  0  0  0  0  0
  -26.0090  -30.5310   22.5050 C   0  0  0  0  0  2  0  0  0  0  0  0
  -25.4210  -29.1820   21.9620 C   0  0  0  0  0  0  0  0  0  0  0  0
  -25.7510  -28.4360   20.7280 C   0  0  0  0  0  3  0  0  0  0  0  0
  -24.1200  -26.7690   21.2710 C   0  0  0  0  0  3  0  0  0  0  0  0
  -23.8190  -27.4490   22.4550 C   0  0  0  0  0  3  0  0  0  0  0  0
  -24.1760  -29.2600   24.1730 C   0  0  0  0  0  2  0  0  0  0  0  0
  -26.2800  -30.6030   23.9970 N   0  0  0  0  0  0  0  0  0  0  0  0
  -27.4250  -31.3920   25.8100 O   0  0  0  0  0  0  0  0  0  0  0  0
  -26.1920  -28.6130   25.5750 C   0  0  0  0  0  0  0  0  0  0  0  0
  -25.9300  -28.3440   26.8680 N   0  0  0  0  0  0  0  0  0  0  0  0
  -27.0050  -27.9560   24.9190 O   0  0  0  0  0  0  0  0  0  0  0  0
  -25.2650  -28.9320   27.3500 H   0  0  0  0  0  0  0  0  0  0  0  0
  -26.0700  -26.8390   30.1670 C   0  0  0  0  0  0  0  0  0  0  0  0
  -26.5220  -27.2540   27.6530 C   0  0  0  0  0  3  0  0  0  0  0  0
  -25.7780  -25.9210   27.4080 C   0  0  0  0  0  2  0  0  0  0  0  0
  -24.6640  -25.6550   28.4260 C   0  0  0  0  0  2  0  0  0  0  0  0
  -25.2360  -25.6100   29.8470 C   0  0  0  0  0  2  0  0  0  0  0  0
  -26.6610  -27.6190   29.1380 C   0  0  0  0  0  0  0  0  0  0  0  0
  -27.4020  -28.7670   29.4910 C   0  0  0  0  0  3  0  0  0  0  0  0
  -27.5560  -29.1380   30.8410 C   0  0  0  0  0  3  0  0  0  0  0  0
  -26.9780  -28.3550   31.8550 C   0  0  0  0  0  3  0  0  0  0  0  0
  -26.2420  -27.2060   31.5190 C   0  0  0  0  0  3  0  0  0  0  0  0
  -28.1720  -32.3040   23.7360 C   0  0  0  0  0  3  0  0  0  0  0  0
  -29.6900  -31.8780   23.7940 C   0  0  1  0  0  0  0  0  0  0  0  0
  -30.2520  -31.7610   25.2310 C   0  0  0  0  0  1  0  0  0  0  0  0
  -29.9160  -30.5180   23.0970 C   0  0  0  0  0  1  0  0  0  0  0  0
  -30.5520  -32.9090   23.0280 C   0  0  0  0  0  1  0  0  0  0  0  0
  -28.0180  -33.6800   24.2450 N   0  0  0  0  0  0  0  0  0  0  0  0
  -27.5800  -34.7250   23.5290 C   0  0  0  0  0  0  0  0  0  0  0  0
  -27.3110  -34.6400   22.3290 O   0  0  0  0  0  0  0  0  0  0  0  0
  -28.1650  -33.8110   25.2350 H   0  0  0  0  0  0  0  0  0  0  0  0
  -25.9260  -36.4530   24.3270 C   0  0  0  0  0  1  0  0  0  0  0  0
  -27.4160  -36.0780   24.2560 C   0  0  0  0  0  3  0  0  0  0  0  0
  -29.6160  -37.0830   23.8290 C   0  0  0  0  0  1  0  0  0  0  0  0
  -28.1730  -37.1820   23.6270 N   0  0  0  0  0  0  0  0  0  0  0  0
  -27.8640  -38.0810   23.9860 H   0  0  0  0  0  0  0  0  0  0  0  0
  -29.1900  -20.5490   17.1850 C   0  0  0  0  0  1  0  0  0  0  0  0
  -28.0640  -21.0980   17.8580 O   0  0  0  0  0  0  0  0  0  0  0  0
  -27.2400  -15.9330   19.4150 C   0  0  0  0  0  2  0  0  0  0  0  0
  -26.1290  -15.4010   19.3100 O   0  0  0  0  0  1  0  0  0  0  0  0
  -28.6030  -14.4590   19.4600 C   0  0  0  0  0  2  0  0  0  0  0  0
  -31.5530  -14.8880   19.2860 N   0  0  0  0  0  2  0  0  0  0  0  0
  -27.9810  -13.3670   19.4940 O   0  0  0  0  0  0  0  0  0  0  0  0
  -31.7030  -15.8460   19.5710 H   0  0  0  0  0  0  0  0  0  0  0  0
  -32.8570  -14.4880   18.7070 C   0  0  0  0  0  2  0  0  0  0  0  0
  -33.6330  -15.6520   17.9840 C   0  0  0  0  0  2  0  0  0  0  0  0
  -33.0030  -17.0630   17.7150 C   0  0  0  0  0  2  0  0  0  0  0  0
  -32.4140  -17.4330   16.3100 C   0  0  0  0  0  2  0  0  0  0  0  0
  -33.3890  -18.0360   15.2420 C   0  0  0  0  0  2  0  0  0  0  0  0
  -33.6490  -17.6730   12.6870 C   0  0  0  0  0  0  0  0  0  0  0  0
  -35.8270  -17.2040   11.5490 C   0  0  0  0  0  2  0  0  0  0  0  0
  -35.8550  -15.7490   11.0020 C   0  0  0  0  0  2  0  0  0  0  0  0
  -36.0370  -14.7160   12.1090 C   0  0  0  0  0  2  0  0  0  0  0  0
  -35.0740  -15.0880   13.2780 C   0  0  0  0  0  3  0  0  0  0  0  0
  -35.5090  -16.4480   13.7300 C   0  0  0  0  0  2  0  0  0  0  0  0
  -34.9590  -17.3110   12.7360 N   0  0  0  0  0  0  0  0  0  0  0  0
  -33.0990  -17.9100   11.6100 O   0  0  0  0  0  0  0  0  0  0  0  0
  -32.9530  -17.7740   13.8500 N   0  0  0  0  0  0  0  0  0  0  0  0
  -31.9690  -17.9480   13.6970 H   0  0  0  0  0  0  0  0  0  0  0  0
  -34.4160  -13.0380   15.7800 C   0  0  0  0  0  3  0  0  0  0  0  0
  -35.8520  -12.2730   16.7160 C   0  0  0  0  0  0  0  0  0  0  0  0
  -37.5400  -12.9870   16.0810 C   0  0  0  0  0  3  0  0  0  0  0  0
  -35.3010  -14.3310   14.3630 N   0  0  0  0  0  1  0  0  0  0  0  0
  -37.2560  -14.1770   14.6840 N   0  0  0  0  0  1  0  0  0  0  0  0
  -38.8090  -13.1500   16.8150 C   0  0  0  0  0  0  0  0  0  0  0  0
  -39.4190  -14.3940   17.1650 C   0  0  0  0  0  3  0  0  0  0  0  0
  -40.6110  -14.4450   17.9190 C   0  0  0  0  0  3  0  0  0  0  0  0
  -41.2380  -13.2340   18.2800 C   0  0  0  0  0  0  0  0  0  0  0  0
  -40.6550  -12.0180   17.8960 C   0  0  0  0  0  3  0  0  0  0  0  0
  -39.4480  -11.9740   17.1900 C   0  0  0  0  0  3  0  0  0  0  0  0
  -42.4490  -13.1390   18.9160 O   0  0  0  0  0  0  0  0  0  0  0  0
  -42.9810  -14.1710   19.6390 C   0  0  0  0  0  0  0  0  0  0  0  0
  -42.2620  -14.8190   20.6660 C   0  0  0  0  0  3  0  0  0  0  0  0
  -42.8930  -15.8120   21.4420 C   0  0  0  0  0  3  0  0  0  0  0  0
  -44.2380  -16.1480   21.1990 C   0  0  0  0  0  0  0  0  0  0  0  0
  -44.9530  -15.5010   20.1770 C   0  0  0  0  0  3  0  0  0  0  0  0
  -44.3270  -14.5110   19.4030 C   0  0  0  0  0  0  0  0  0  0  0  0
  -45.0250  -13.8690   18.4360 F   0  0  0  0  0  0  0  0  0  0  0  0
  -44.8480  -17.0980   21.9470 F   0  0  0  0  0  0  0  0  0  0  0  0
  -35.9150  -11.1030   17.5400 C   0  0  0  0  0  0  0  0  0  0  0  0
  -36.6060  -11.2450   18.6580 N   0  0  0  0  0  0  0  0  0  0  0  0
  -35.4450  -10.0670   17.1040 O   0  0  0  0  0  0  0  0  0  0  0  0
  -36.9680  -12.1450   18.9380 H   0  0  0  0  0  0  0  0  0  0  0  0
  -36.7330  -10.4520   19.2730 H   0  0  0  0  0  0  0  0  0  0  0  0
  -33.1090  -12.8090   15.7360 N   0  0  0  0  0  0  0  0  0  0  0  0
  -32.6170  -12.2340   16.4090 H   0  0  0  0  0  0  0  0  0  0  0  0
  -32.4690  -13.3150   15.1360 H   0  0  0  0  0  0  0  0  0  0  0  0
  2  1  1  0
  3  4  1  0
  4  1  2  0
  5  2  2  0
  6  3  2  0
  6  5  1  0
  7  5  1  0
  7  9  1  0
  8  7  2  0
 10  9  1  0
 10 12  1  0
 11 22  2  0
 12 17  2  0
 12 18  1  0
 13 23  1  0
 14 20  1  0
 15 21  1  0
 16 15  1  0
 16 14  2  0
 17 16  1  0
 18 19  2  0
 19 14  1  0
 20 13  1  0
 21 11  1  0
 21 13  1  0
 23 24  1  0
 24 26  1  0
 25 23  2  0
 27 36  1  0
 28 24  1  0
 28 32  1  0
 29 28  1  0
 29 30  1  0
 30 31  1  0
 31 27  1  0
 32 33  1  0
 32 27  2  0
 33 34  2  0
 34 35  1  0
 36 35  2  0
 37 38  1  0
 37 42  1  0
 37 11  1  0
 38 39  1  1
 40 38  1  0
 41 38  1  0
 42 45  1  0
 43 42  1  0
 43 47  1  0
 44 43  2  0
 47 46  1  0
 49 48  1  0
 49 50  1  0
 49 47  1  0
 51 52  1  0
 52  6  1  0
 53  4  1  0
 54 53  1  0
 55 57  2  0
 56 58  1  0
 59 56  1  0
 60 59  1  0
 61 60  1  0
 62 61  1  0
 63 62  1  0
 64 70  1  0
 64 72  1  0
 65 70  1  0
 66 65  1  0
 66 67  1  0
 67 68  1  0
 68 69  1  0
 68 77  1  0
 70 69  1  0
 71 64  2  0
 72 63  1  0
 73 72  1  0
 74 75  2  0
 75 94  1  0
 76 78  1  0
 76 75  1  0
 76 79  1  0
 79 80  2  0
 79 84  1  0
 80 81  1  0
 81 82  2  0
 82 85  1  0
 83 82  1  0
 84 83  2  0
 85 86  1  0
 86 87  1  0
 87 88  2  0
 89 88  1  0
 89 93  1  0
 90 89  2  0
 91 86  2  0
 91 90  1  0
 92 91  1  0
 94 95  1  0
 95 97  1  0
 95 98  1  0
 96 94  2  0
 99 74  1  0
 99100  1  0
101 99  1  0
M  ISO  4   9 101  10 101  64 100  72 100
M  END
>  <TORSDO>  (6) 
F 26

>  <SCORE>  (6) 
-2.423

>  <name>  (6) 
5

>  <ligand_id>  (6) 
5

>  <original_smiles>  (6) 
[H]c1c([H])c([H])c2c(c1[H])C([H])([H])C([H])([H])C([H])([H])C2([H])N([H])C(=O)C1([H])N(C(=O)C([H])(N([H])C(=O)C([H])(N([H])C([H])([H])[H])C([H])([H])[H])C(C([H])([H])[H])(C([H])([H])[H])C([H])([H])[H])C([H])([H])c2c([H])c(OC([H])([H])C(=O)c3c([H])c([H])c(C(=O)C(=O)N([H])C([H])([H])C([H])([H])C([H])([H])C([H])([H])C([H])([H])N([H])C(=O)N4C([H])([H])C([H])([H])C([H])([H])C([H])(n5nc(-c6c([H])c([H])c(Oc7c([H])c([H])c(F)c([H])c7F)c([H])c6[H])c(C(=O)N([H])[H])c5N([H])[H])C4([H])[H])c([H])c3OC([H])([H])[H])c([H])c([H])c2C1([H])[H]

>  <smiles>  (6) 
[H]c1c([H])c([H])c2c(c1[H])C([H])([H])C([H])([H])C([H])([H])C2([H])N([H])C(=O)C1([H])N(C(=O)C([H])(N([H])C(=O)C([H])(N([H])C([H])([H])[H])C([H])([H])[H])C(C([H])([H])[H])(C([H])([H])[H])C([H])([H])[H])C([H])([H])c2c([H])c(OC([H])([H])C(=O)c3c([H])c([H])c(C(=O)C(=O)N([H])C([H])([H])C([H])([H])C([H])([H])C([H])([H])C([H])([H])N([H])C(=O)N4C([H])([H])C([H])([H])C([H])([H])C([H])(n5nc(-c6c([H])c([H])c(Oc7c([H])c([H])c(F)c([H])c7F)c([H])c6[H])c(C(=O)N([H])[H])c5N([H])[H])C4([H])[H])c([H])c3OC([H])([H])[H])c([H])c([H])c2C1([H])[H]

$$$$
6:0:0
     RDKit          3D

 95103  0  0  1  0  0  0  0  0999 V2000
  -31.4710  -22.4500   20.8650 C   0  0  0  0  0  3  0  0  0  0  0  0
  -31.7860  -23.7540   20.4290 C   0  0  0  0  0  3  0  0  0  0  0  0
  -29.1140  -23.0190   20.7820 C   0  0  0  0  0  3  0  0  0  0  0  0
  -30.1270  -22.0550   21.0510 C   0  0  0  0  0  0  0  0  0  0  0  0
  -29.4110  -24.3470   20.3740 C   0  0  0  0  0  0  0  0  0  0  0  0
  -30.7730  -24.7100   20.1950 C   0  0  0  0  0  0  0  0  0  0  0  0
  -28.3770  -20.5120   22.1560 C   0  0  0  0  0  1  0  0  0  0  0  0
  -29.8160  -20.6430   21.6130 C   0  0  0  0  0  3  0  0  0  0  0  0
  -30.1690  -19.5450   20.6640 N   0  0  0  0  0  4  0  0  0  0  0  0
  -29.7240  -19.7250   19.7780 H   0  0  0  0  0  0  0  0  0  0  0  0
  -31.1620  -19.6060   20.5110 H   0  0  0  0  0  0  0  0  0  0  0  0
  -29.8580  -18.1490   21.1010 C   0  0  0  0  0  2  0  0  0  0  0  0
  -30.6020  -17.0610   20.2750 C   0  0  0  0  0  2  0  0  0  0  0  0
  -30.9200  -14.5950   20.1200 C   0  0  0  0  0  0  0  0  0  0  0  0
  -30.5560  -12.4590   18.9470 C   0  0  0  0  0  2  0  0  0  0  0  0
  -29.5900  -12.6990   17.7690 C   0  0  0  0  0  2  0  0  0  0  0  0
  -28.1240  -12.5820   18.2240 C   0  0  0  0  0  2  0  0  0  0  0  0
  -27.8300  -13.3850   19.5200 C   0  0  0  0  0  3  0  0  0  0  0  0
  -28.9100  -13.1370   20.5980 C   0  0  0  0  0  2  0  0  0  0  0  0
  -30.2230  -13.4320   20.0040 N   0  0  0  0  0  0  0  0  0  0  0  0
  -32.0440  -14.7460   19.6350 O   0  0  0  0  0  0  0  0  0  0  0  0
  -30.2390  -15.6600   20.5920 N   0  0  0  0  0  0  0  0  0  0  0  0
  -29.3250  -15.4800   20.9850 H   0  0  0  0  0  0  0  0  0  0  0  0
  -25.4450  -13.9980   20.2590 C   0  0  0  0  0  0  0  0  0  0  0  0
  -24.3840  -13.2290   20.6550 C   0  0  0  0  0  0  0  0  0  0  0  0
  -24.8460  -11.8780   20.6350 C   0  0  0  0  0  0  0  0  0  0  0  0
  -26.4870  -13.1150   20.0230 N   0  0  0  0  0  0  0  0  0  0  0  0
  -26.1320  -11.8370   20.3070 N   0  0  0  0  0  0  0  0  0  0  0  0
  -24.1240  -10.6180   20.8540 C   0  0  0  0  0  0  0  0  0  0  0  0
  -24.5250   -9.7010   21.8530 C   0  0  0  0  0  3  0  0  0  0  0  0
  -23.8010   -8.5060   22.0580 C   0  0  0  0  0  3  0  0  0  0  0  0
  -22.6650   -8.2180   21.2650 C   0  0  0  0  0  0  0  0  0  0  0  0
  -22.2850   -9.1230   20.2580 C   0  0  0  0  0  3  0  0  0  0  0  0
  -23.0070  -10.3100   20.0510 C   0  0  0  0  0  3  0  0  0  0  0  0
  -21.9180   -7.0690   21.3730 O   0  0  0  0  0  0  0  0  0  0  0  0
  -21.7660   -6.4230   22.5730 C   0  0  0  0  0  0  0  0  0  0  0  0
  -21.2020   -7.0630   23.6990 C   0  0  0  0  0  3  0  0  0  0  0  0
  -20.9990   -6.3400   24.8920 C   0  0  0  0  0  3  0  0  0  0  0  0
  -21.3500   -4.9770   24.9580 C   0  0  0  0  0  0  0  0  0  0  0  0
  -21.9060   -4.3390   23.8360 C   0  0  0  0  0  3  0  0  0  0  0  0
  -22.1120   -5.0580   22.6470 C   0  0  0  0  0  0  0  0  0  0  0  0
  -22.6270   -4.4320   21.5620 F   0  0  0  0  0  0  0  0  0  0  0  0
  -21.1480   -4.2800   26.1000 F   0  0  0  0  0  0  0  0  0  0  0  0
  -22.9900  -13.7090   20.9390 C   0  0  0  0  0  0  0  0  0  0  0  0
  -22.2790  -13.0260   21.8310 N   0  0  0  0  0  0  0  0  0  0  0  0
  -22.5420  -14.7240   20.4070 O   0  0  0  0  0  0  0  0  0  0  0  0
  -22.6590  -12.2060   22.2800 H   0  0  0  0  0  0  0  0  0  0  0  0
  -21.3430  -13.3260   22.0620 H   0  0  0  0  0  0  0  0  0  0  0  0
  -25.6060  -15.3650   20.0600 N   0  0  0  0  0  0  0  0  0  0  0  0
  -24.8370  -16.0150   20.1760 H   0  0  0  0  0  0  0  0  0  0  0  0
  -26.4370  -15.7990   19.6810 H   0  0  0  0  0  0  0  0  0  0  0  0
  -31.1500  -25.9660   19.8090 O   0  0  0  0  0  0  0  0  0  0  0  0
  -32.0920  -26.1050   19.8380 H   0  0  0  0  0  0  0  0  0  0  0  0
  -28.2050  -25.2840   20.1480 C   0  0  0  0  0  2  0  0  0  0  0  0
  -28.4360  -26.6940   19.8970 O   0  0  0  0  0  0  0  0  0  0  0  0
  -24.5730  -31.7500   23.1230 C   0  0  0  0  0  0  0  0  0  0  0  0
  -27.2800  -27.4610   19.8740 C   0  0  0  0  0  0  0  0  0  0  0  0
  -23.3910  -30.3990   21.4270 C   0  0  0  0  0  3  0  0  0  0  0  0
  -24.8670  -28.9530   19.9340 C   0  0  0  0  0  0  0  0  0  0  0  0
  -25.9150  -30.8060   21.2410 C   0  0  0  0  0  2  0  0  0  0  0  0
  -26.0210  -29.4650   20.5420 C   0  0  0  0  0  0  0  0  0  0  0  0
  -27.2330  -28.7300   20.5020 C   0  0  0  0  0  3  0  0  0  0  0  0
  -26.1060  -26.9880   19.2380 C   0  0  0  0  0  3  0  0  0  0  0  0
  -24.9060  -27.7180   19.2730 C   0  0  0  0  0  3  0  0  0  0  0  0
  -23.6090  -29.7850   20.0190 C   0  0  0  0  0  2  0  0  0  0  0  0
  -24.6460  -30.9970   21.9890 N   0  0  0  0  0  0  0  0  0  0  0  0
  -23.4870  -31.9790   23.6730 O   0  0  0  0  0  0  0  0  0  0  0  0
  -22.7590  -29.3250   22.3430 C   0  0  0  0  0  0  0  0  0  0  0  0
  -21.4340  -29.1400   22.2250 N   0  0  0  0  0  0  0  0  0  0  0  0
  -23.4570  -28.6620   23.1170 O   0  0  0  0  0  0  0  0  0  0  0  0
  -20.9270  -29.7260   21.5760 H   0  0  0  0  0  0  0  0  0  0  0  0
  -18.0650  -27.9400   22.7540 C   0  0  0  0  0  0  0  0  0  0  0  0
  -20.6330  -28.1610   22.9610 C   0  0  0  0  0  3  0  0  0  0  0  0
  -20.7030  -26.7670   22.2950 C   0  0  0  0  0  2  0  0  0  0  0  0
  -19.5680  -26.5180   21.2970 C   0  0  0  0  0  2  0  0  0  0  0  0
  -18.2080  -26.6360   21.9890 C   0  0  0  0  0  2  0  0  0  0  0  0
  -19.2040  -28.6660   23.1960 C   0  0  0  0  0  0  0  0  0  0  0  0
  -19.0140  -29.8930   23.8680 C   0  0  0  0  0  3  0  0  0  0  0  0
  -17.7180  -30.3940   24.1010 C   0  0  0  0  0  3  0  0  0  0  0  0
  -16.5960  -29.6640   23.6740 C   0  0  0  0  0  3  0  0  0  0  0  0
  -16.7700  -28.4380   23.0060 C   0  0  0  0  0  3  0  0  0  0  0  0
  -25.8470  -32.3800   23.7660 C   0  0  0  0  0  3  0  0  0  0  0  0
  -25.5210  -33.7660   24.1260 N   0  0  0  0  0  0  0  0  0  0  0  0
  -25.8330  -34.8380   23.3850 C   0  0  0  0  0  0  0  0  0  0  0  0
  -26.4990  -34.7640   22.3480 O   0  0  0  0  0  0  0  0  0  0  0  0
  -24.9340  -33.9000   24.9360 H   0  0  0  0  0  0  0  0  0  0  0  0
  -24.0750  -36.6070   23.0790 C   0  0  0  0  0  1  0  0  0  0  0  0
  -25.3290  -36.2080   23.8730 C   0  0  0  0  0  3  0  0  0  0  0  0
  -27.4520  -37.1150   24.7080 C   0  0  0  0  0  1  0  0  0  0  0  0
  -26.3440  -37.2800   23.7710 N   0  0  0  0  0  0  0  0  0  0  0  0
  -25.9210  -38.1900   23.9340 H   0  0  0  0  0  0  0  0  0  0  0  0
  -26.3650  -31.5840   25.0270 C   0  0  1  0  0  0  0  0  0  0  0  0
  -25.2700  -31.3070   26.0820 C   0  0  0  0  0  1  0  0  0  0  0  0
  -26.9660  -30.2240   24.6010 C   0  0  0  0  0  1  0  0  0  0  0  0
  -27.4990  -32.3750   25.7200 C   0  0  0  0  0  1  0  0  0  0  0  0
  1  4  1  0
  2  1  2  0
  3  4  2  0
  4  8  1  0
  5  3  1  0
  6  5  2  0
  6  2  1  0
  8  7  1  0
  9 12  1  0
  9  8  1  0
 10  9  1  0
 11  9  1  0
 13 22  1  0
 13 12  1  0
 14 22  1  0
 15 20  1  0
 16 17  1  0
 16 15  1  0
 18 17  1  0
 18 27  1  0
 18 19  1  0
 20 14  1  0
 20 19  1  0
 21 14  2  0
 22 23  1  0
 24 25  2  0
 25 44  1  0
 26 25  1  0
 26 29  1  0
 27 24  1  0
 27 28  1  0
 28 26  2  0
 29 30  1  0
 30 31  2  0
 32 35  1  0
 32 31  1  0
 33 32  2  0
 34 33  1  0
 34 29  2  0
 35 36  1  0
 36 41  2  0
 36 37  1  0
 37 38  2  0
 38 39  1  0
 39 43  1  0
 40 39  2  0
 41 40  1  0
 42 41  1  0
 44 45  1  0
 45 48  1  0
 45 47  1  0
 46 44  2  0
 49 50  1  0
 49 24  1  0
 51 49  1  0
 52 53  1  0
 52  6  1  0
 54  5  1  0
 55 54  1  0
 56 67  2  0
 57 55  1  0
 57 62  1  0
 58 66  1  0
 58 68  1  0
 59 65  1  0
 59 61  1  0
 60 66  1  0
 61 60  1  0
 62 61  2  0
 63 64  1  0
 63 57  2  0
 64 59  2  0
 65 58  1  0
 66 56  1  0
 68 70  2  0
 69 68  1  0
 71 69  1  0
 72 81  2  0
 72 77  1  0
 73 69  1  0
 73 77  1  0
 74 73  1  0
 75 76  1  0
 75 74  1  0
 76 72  1  0
 77 78  2  0
 78 79  1  0
 80 79  2  0
 81 80  1  0
 82 56  1  0
 82 83  1  0
 82 92  1  0
 83 86  1  0
 84 88  1  0
 84 83  1  0
 85 84  2  0
 88 87  1  0
 90 88  1  0
 90 91  1  0
 90 89  1  0
 92 95  1  1
 92 93  1  0
 94 92  1  0
M  ISO  4  14 100  22 100  54 101  55 101
M  END
>  <TORSDO>  (7) 
F 22

>  <SCORE>  (7) 
-11.195

>  <name>  (7) 
6

>  <ligand_id>  (7) 
6

>  <original_smiles>  (7) 
[H]Oc1c([H])c([H])c(C([H])(C([H])([H])[H])[N+]([H])([H])C([H])([H])C([H])([H])N([H])C(=O)N2C([H])([H])C([H])([H])C([H])([H])C([H])(n3nc(-c4c([H])c([H])c(Oc5c([H])c([H])c(F)c([H])c5F)c([H])c4[H])c(C(=O)N([H])[H])c3N([H])[H])C2([H])[H])c([H])c1C([H])([H])Oc1c([H])c([H])c2c(c1[H])C([H])([H])N(C(=O)C([H])(N([H])C(=O)C([H])(N([H])C([H])([H])[H])C([H])([H])[H])C(C([H])([H])[H])(C([H])([H])[H])C([H])([H])[H])C([H])(C(=O)N([H])C1([H])c3c([H])c([H])c([H])c([H])c3C([H])([H])C([H])([H])C1([H])[H])C2([H])[H]

>  <smiles>  (7) 
[H]Oc1c([H])c([H])c(C([H])(C([H])([H])[H])[N+]([H])([H])C([H])([H])C([H])([H])N([H])C(=O)N2C([H])([H])C([H])([H])C([H])([H])C([H])(n3nc(-c4c([H])c([H])c(Oc5c([H])c([H])c(F)c([H])c5F)c([H])c4[H])c(C(=O)N([H])[H])c3N([H])[H])C2([H])[H])c([H])c1C([H])([H])Oc1c([H])c([H])c2c(c1[H])C([H])([H])N(C(=O)C([H])(N([H])C(=O)C([H])(N([H])C([H])([H])[H])C([H])([H])[H])C(C([H])([H])[H])(C([H])([H])[H])C([H])([H])[H])C([H])(C(=O)N([H])C1([H])c3c([H])c([H])c([H])c([H])c3C([H])([H])C([H])([H])C1([H])[H])C2([H])[H]

$$$$
7:0:0
     RDKit          3D

 98105  0  0  1  0  0  0  0  0999 V2000
  -26.5590  -23.0540   20.8460 C   0  0  0  0  0  2  0  0  0  0  0  0
  -27.9120  -23.1870   21.5860 C   0  0  0  0  0  2  0  0  0  0  0  0
  -28.4870  -21.8880   21.9590 N   0  0  0  0  0  0  0  0  0  0  0  0
  -29.3590  -22.0420   22.4700 H   0  0  0  0  0  0  0  0  0  0  0  0
  -28.7390  -20.9770   20.8360 C   0  0  0  0  0  2  0  0  0  0  0  0
  -29.4750  -19.7070   21.2820 C   0  0  0  0  0  2  0  0  0  0  0  0
  -29.6590  -18.7690   20.1540 N   0  0  0  0  0  4  0  0  0  0  0  0
  -30.4110  -19.1030   19.5720 H   0  0  0  0  0  0  0  0  0  0  0  0
  -28.8180  -18.7600   19.6010 H   0  0  0  0  0  0  0  0  0  0  0  0
  -29.9370  -17.3870   20.5820 C   0  0  0  0  0  2  0  0  0  0  0  0
  -30.8980  -16.6410   19.6420 C   0  0  0  0  0  2  0  0  0  0  0  0
  -31.3290  -14.2120   19.3140 C   0  0  0  0  0  0  0  0  0  0  0  0
  -31.0920  -11.7680   19.0500 C   0  0  0  0  0  2  0  0  0  0  0  0
  -30.0780  -11.4240   17.9430 C   0  0  0  0  0  2  0  0  0  0  0  0
  -28.6400  -11.4020   18.4950 C   0  0  0  0  0  2  0  0  0  0  0  0
  -28.3050  -12.6810   19.3050 C   0  0  0  0  0  3  0  0  0  0  0  0
  -29.4080  -12.9610   20.3490 C   0  0  0  0  0  2  0  0  0  0  0  0
  -30.7120  -13.0530   19.6490 N   0  0  0  0  0  0  0  0  0  0  0  0
  -32.2030  -14.3180   18.4460 O   0  0  0  0  0  0  0  0  0  0  0  0
  -30.9230  -15.2450   20.0500 N   0  0  0  0  0  0  0  0  0  0  0  0
  -30.3330  -14.9880   20.8290 H   0  0  0  0  0  0  0  0  0  0  0  0
  -26.1180  -13.5830   20.3370 C   0  0  0  0  0  0  0  0  0  0  0  0
  -24.9950  -12.9470   20.7980 C   0  0  0  0  0  0  0  0  0  0  0  0
  -25.2380  -11.5500   20.6280 C   0  0  0  0  0  0  0  0  0  0  0  0
  -26.9850  -12.5800   19.9290 N   0  0  0  0  0  0  0  0  0  0  0  0
  -26.4620  -11.3480   20.1550 N   0  0  0  0  0  0  0  0  0  0  0  0
  -24.3570  -10.3930   20.8380 C   0  0  0  0  0  0  0  0  0  0  0  0
  -24.6480   -9.4100   21.8090 C   0  0  0  0  0  3  0  0  0  0  0  0
  -23.7770   -8.3160   22.0030 C   0  0  0  0  0  3  0  0  0  0  0  0
  -22.6010   -8.2000   21.2240 C   0  0  0  0  0  0  0  0  0  0  0  0
  -22.3270   -9.1700   20.2440 C   0  0  0  0  0  3  0  0  0  0  0  0
  -23.1970  -10.2550   20.0480 C   0  0  0  0  0  3  0  0  0  0  0  0
  -21.7100   -7.1580   21.3240 O   0  0  0  0  0  0  0  0  0  0  0  0
  -21.4100   -6.5820   22.5330 C   0  0  0  0  0  0  0  0  0  0  0  0
  -20.9020   -7.3390   23.6120 C   0  0  0  0  0  3  0  0  0  0  0  0
  -20.5410   -6.6980   24.8130 C   0  0  0  0  0  3  0  0  0  0  0  0
  -20.6750   -5.3010   24.9350 C   0  0  0  0  0  0  0  0  0  0  0  0
  -21.1740   -4.5460   23.8600 C   0  0  0  0  0  3  0  0  0  0  0  0
  -21.5370   -5.1850   22.6610 C   0  0  0  0  0  0  0  0  0  0  0  0
  -21.9980   -4.4500   21.6210 F   0  0  0  0  0  0  0  0  0  0  0  0
  -20.3210   -4.6820   26.0860 F   0  0  0  0  0  0  0  0  0  0  0  0
  -23.7300  -13.5970   21.2800 C   0  0  0  0  0  0  0  0  0  0  0  0
  -23.0310  -12.9580   22.2130 N   0  0  0  0  0  0  0  0  0  0  0  0
  -23.3800  -14.7000   20.8660 O   0  0  0  0  0  0  0  0  0  0  0  0
  -23.3290  -12.0600   22.5620 H   0  0  0  0  0  0  0  0  0  0  0  0
  -22.1860  -13.3710   22.5810 H   0  0  0  0  0  0  0  0  0  0  0  0
  -26.4690  -14.9250   20.2160 N   0  0  0  0  0  0  0  0  0  0  0  0
  -25.8090  -15.6690   20.4110 H   0  0  0  0  0  0  0  0  0  0  0  0
  -27.3030  -15.2480   19.7440 H   0  0  0  0  0  0  0  0  0  0  0  0
  -26.4260  -23.9090   19.7150 O   0  0  0  0  0  0  0  0  0  0  0  0
  -27.3180  -23.6510   18.6330 C   0  0  0  0  0  2  0  0  0  0  0  0
  -27.1300  -24.7860   17.6110 C   0  0  0  0  0  3  0  0  0  0  0  0
  -25.7630  -24.7470   17.0380 N   0  0  0  0  0  4  0  0  0  0  0  0
  -25.6090  -25.5580   16.4610 H   0  0  0  0  0  0  0  0  0  0  0  0
  -25.0700  -24.7470   17.7670 H   0  0  0  0  0  0  0  0  0  0  0  0
  -25.6220  -23.9270   16.4700 H   0  0  0  0  0  0  0  0  0  0  0  0
  -27.4740  -26.1650   18.2130 C   0  0  0  0  0  2  0  0  0  0  0  0
  -27.0240  -27.2200   17.3590 O   0  0  0  0  0  0  0  0  0  0  0  0
  -25.1640  -30.7920   23.2050 C   0  0  0  0  0  0  0  0  0  0  0  0
  -26.0870  -28.0160   17.9670 C   0  0  0  0  0  0  0  0  0  0  0  0
  -23.3760  -30.4590   21.5280 C   0  0  0  0  0  3  0  0  0  0  0  0
  -24.1400  -29.5860   19.2570 C   0  0  0  0  0  0  0  0  0  0  0  0
  -25.8320  -30.5680   20.8190 C   0  0  0  0  0  2  0  0  0  0  0  0
  -25.4780  -29.6520   19.6680 C   0  0  0  0  0  0  0  0  0  0  0  0
  -26.4590  -28.8760   19.0190 C   0  0  0  0  0  3  0  0  0  0  0  0
  -24.7350  -27.9470   17.5660 C   0  0  0  0  0  3  0  0  0  0  0  0
  -23.7590  -28.7300   18.2090 C   0  0  0  0  0  3  0  0  0  0  0  0
  -23.1580  -30.4680   19.9920 C   0  0  0  0  0  2  0  0  0  0  0  0
  -24.8230  -30.5860   21.9020 N   0  0  0  0  0  0  0  0  0  0  0  0
  -24.2990  -30.9170   24.0820 O   0  0  0  0  0  0  0  0  0  0  0  0
  -22.7030  -29.1960   22.1130 C   0  0  0  0  0  0  0  0  0  0  0  0
  -21.3610  -29.1580   22.0590 N   0  0  0  0  0  0  0  0  0  0  0  0
  -23.3790  -28.2730   22.5740 O   0  0  0  0  0  0  0  0  0  0  0  0
  -20.8810  -29.9600   21.6730 H   0  0  0  0  0  0  0  0  0  0  0  0
  -17.9600  -27.9380   22.1260 C   0  0  0  0  0  0  0  0  0  0  0  0
  -20.5130  -28.0560   22.5100 C   0  0  0  0  0  3  0  0  0  0  0  0
  -20.6130  -26.8460   21.5510 C   0  0  0  0  0  2  0  0  0  0  0  0
  -19.5260  -26.8400   20.4700 C   0  0  0  0  0  2  0  0  0  0  0  0
  -18.1330  -26.8250   21.1060 C   0  0  0  0  0  2  0  0  0  0  0  0
  -19.0780  -28.5250   22.7750 C   0  0  0  0  0  0  0  0  0  0  0  0
  -18.8650  -29.5780   23.6910 C   0  0  0  0  0  3  0  0  0  0  0  0
  -17.5640  -30.0410   23.9630 C   0  0  0  0  0  3  0  0  0  0  0  0
  -16.4590  -29.4470   23.3280 C   0  0  0  0  0  3  0  0  0  0  0  0
  -16.6590  -28.3960   22.4160 C   0  0  0  0  0  3  0  0  0  0  0  0
  -26.6550  -30.9040   23.6520 C   0  0  0  0  0  3  0  0  0  0  0  0
  -26.7550  -32.0430   24.5740 N   0  0  0  0  0  0  0  0  0  0  0  0
  -27.2600  -33.2410   24.2500 C   0  0  0  0  0  0  0  0  0  0  0  0
  -27.7610  -33.4800   23.1480 O   0  0  0  0  0  0  0  0  0  0  0  0
  -26.3090  -31.9380   25.4750 H   0  0  0  0  0  0  0  0  0  0  0  0
  -26.0510  -35.3180   24.9830 C   0  0  0  0  0  1  0  0  0  0  0  0
  -27.1980  -34.3510   25.3170 C   0  0  0  0  0  3  0  0  0  0  0  0
  -29.5500  -34.3050   26.0170 C   0  0  0  0  0  1  0  0  0  0  0  0
  -28.4640  -35.1040   25.4550 N   0  0  0  0  0  0  0  0  0  0  0  0
  -28.3350  -35.9240   26.0430 H   0  0  0  0  0  0  0  0  0  0  0  0
  -27.2040  -29.5870   24.3250 C   0  0  1  0  0  0  0  0  0  0  0  0
  -26.3110  -29.0540   25.4710 C   0  0  0  0  0  1  0  0  0  0  0  0
  -27.3500  -28.4590   23.2760 C   0  0  0  0  0  1  0  0  0  0  0  0
  -28.6200  -29.8400   24.8950 C   0  0  0  0  0  1  0  0  0  0  0  0
  1  2  1  0
  2  3  1  0
  3  4  1  0
  5  6  1  0
  5  3  1  0
  7 10  1  0
  7  6  1  0
  8  7  1  0
  9  7  1  0
 11 20  1  0
 11 10  1  0
 12 18  1  0
 12 20  1  0
 13 18  1  0
 14 15  1  0
 14 13  1  0
 16 15  1  0
 16 25  1  0
 16 17  1  0
 18 17  1  0
 19 12  2  0
 20 21  1  0
 22 23  2  0
 23 42  1  0
 24 23  1  0
 24 27  1  0
 25 26  1  0
 25 22  1  0
 26 24  2  0
 27 28  1  0
 28 29  2  0
 30 33  1  0
 30 29  1  0
 31 30  2  0
 32 31  1  0
 32 27  2  0
 33 34  1  0
 34 39  2  0
 34 35  1  0
 35 36  2  0
 36 37  1  0
 37 41  1  0
 38 37  2  0
 39 38  1  0
 40 39  1  0
 42 43  1  0
 43 45  1  0
 43 46  1  0
 44 42  2  0
 47 22  1  0
 47 48  1  0
 49 47  1  0
 50  1  1  0
 51 50  1  0
 52 57  1  0
 52 51  1  0
 53 52  1  0
 53 55  1  0
 54 53  1  0
 56 53  1  0
 58 60  1  0
 58 57  1  0
 59 70  2  0
 60 65  1  0
 61 69  1  0
 61 71  1  0
 62 64  1  0
 62 68  1  0
 63 69  1  0
 64 63  1  0
 65 64  2  0
 66 60  2  0
 66 67  1  0
 67 62  2  0
 68 61  1  0
 69 59  1  0
 71 73  2  0
 72 71  1  0
 74 72  1  0
 75 84  2  0
 75 80  1  0
 76 72  1  0
 76 80  1  0
 77 76  1  0
 78 79  1  0
 78 77  1  0
 79 75  1  0
 80 81  2  0
 81 82  1  0
 83 82  2  0
 84 83  1  0
 85 59  1  0
 85 95  1  0
 85 86  1  0
 86 89  1  0
 87 86  1  0
 87 91  1  0
 88 87  2  0
 91 90  1  0
 91 93  1  0
 93 92  1  0
 93 94  1  0
 95 98  1  1
 95 96  1  0
 97 95  1  0
M  ISO  4  12 100  20 100  57 101  58 101
M  END
>  <TORSDO>  (8) 
F 28

>  <SCORE>  (8) 
-8.361

>  <name>  (8) 
7

>  <ligand_id>  (8) 
7

>  <original_smiles>  (8) 
[H]c1c([H])c([H])c2c(c1[H])C([H])([H])C([H])([H])C([H])([H])C2([H])N([H])C(=O)C1([H])N(C(=O)C([H])(N([H])C(=O)C([H])(N([H])C([H])([H])[H])C([H])([H])[H])C(C([H])([H])[H])(C([H])([H])[H])C([H])([H])[H])C([H])([H])c2c([H])c(OC([H])([H])C([H])(C([H])([H])OC([H])([H])C([H])([H])N([H])C([H])([H])C([H])([H])[N+]([H])([H])C([H])([H])C([H])([H])N([H])C(=O)N3C([H])([H])C([H])([H])C([H])([H])C([H])(n4nc(-c5c([H])c([H])c(Oc6c([H])c([H])c(F)c([H])c6F)c([H])c5[H])c(C(=O)N([H])[H])c4N([H])[H])C3([H])[H])[N+]([H])([H])[H])c([H])c([H])c2C1([H])[H]

>  <smiles>  (8) 
[H]c1c([H])c([H])c2c(c1[H])C([H])([H])C([H])([H])C([H])([H])C2([H])N([H])C(=O)C1([H])N(C(=O)C([H])(N([H])C(=O)C([H])(N([H])C([H])([H])[H])C([H])([H])[H])C(C([H])([H])[H])(C([H])([H])[H])C([H])([H])[H])C([H])([H])c2c([H])c(OC([H])([H])C([H])(C([H])([H])OC([H])([H])C([H])([H])N([H])C([H])([H])C([H])([H])[N+]([H])([H])C([H])([H])C([H])([H])N([H])C(=O)N3C([H])([H])C([H])([H])C([H])([H])C([H])(n4nc(-c5c([H])c([H])c(Oc6c([H])c([H])c(F)c([H])c6F)c([H])c5[H])c(C(=O)N([H])[H])c4N([H])[H])C3([H])[H])[N+]([H])([H])[H])c([H])c([H])c2C1([H])[H]

$$$$
8:0:0
     RDKit          3D

103111  0  0  1  0  0  0  0  0999 V2000
  -31.6530  -20.4270   21.2140 C   0  0  0  0  0  3  0  0  0  0  0  0
  -31.0270  -21.1380   22.2570 C   0  0  0  0  0  3  0  0  0  0  0  0
  -30.3090  -22.8170   20.6590 C   0  0  0  0  0  3  0  0  0  0  0  0
  -31.6370  -20.9170   19.8910 C   0  0  0  0  0  0  0  0  0  0  0  0
  -30.3420  -22.3480   21.9950 C   0  0  0  0  0  0  0  0  0  0  0  0
  -30.9700  -22.1390   19.6160 C   0  0  0  0  0  0  0  0  0  0  0  0
  -30.9510  -22.7520   18.2200 C   0  0  0  0  0  1  0  0  0  0  0  0
  -32.2950  -20.1120   18.8200 C   0  0  0  0  0  0  0  0  0  0  0  0
  -33.5250  -20.0100   18.7370 O   0  0  0  0  0  0  0  0  0  0  0  0
  -31.3640  -19.3520   17.8260 C   0  0  0  0  0  0  0  0  0  0  0  0
  -30.0880  -19.3210   18.2360 N   0  0  0  0  0  0  0  0  0  0  0  0
  -31.7770  -18.7850   16.8070 O   0  0  0  0  0  0  0  0  0  0  0  0
  -29.8710  -19.8910   19.0450 H   0  0  0  0  0  0  0  0  0  0  0  0
  -29.0420  -18.4530   17.7250 C   0  0  0  0  0  2  0  0  0  0  0  0
  -28.0480  -18.0670   18.8460 C   0  0  0  0  0  2  0  0  0  0  0  0
  -28.6270  -17.4100   20.1320 C   0  0  0  0  0  2  0  0  0  0  0  0
  -29.8570  -16.5210   19.8680 C   0  0  0  0  0  2  0  0  0  0  0  0
  -30.7900  -14.3870   20.4220 C   0  0  0  0  0  0  0  0  0  0  0  0
  -30.4550  -12.2490   19.2630 C   0  0  0  0  0  2  0  0  0  0  0  0
  -29.5210  -12.4740   18.0550 C   0  0  0  0  0  2  0  0  0  0  0  0
  -28.0400  -12.3890   18.4800 C   0  0  0  0  0  2  0  0  0  0  0  0
  -27.7130  -13.2460   19.7350 C   0  0  0  0  0  3  0  0  0  0  0  0
  -28.7510  -12.9730   20.8500 C   0  0  0  0  0  2  0  0  0  0  0  0
  -30.0960  -13.2270   20.3020 N   0  0  0  0  0  0  0  0  0  0  0  0
  -31.8930  -14.5820   19.9060 O   0  0  0  0  0  0  0  0  0  0  0  0
  -30.0530  -15.4290   20.8190 N   0  0  0  0  0  0  0  0  0  0  0  0
  -29.9780  -15.5900   21.8160 H   0  0  0  0  0  0  0  0  0  0  0  0
  -25.3120  -13.9090   20.4100 C   0  0  0  0  0  0  0  0  0  0  0  0
  -24.2310  -13.1550   20.7850 C   0  0  0  0  0  0  0  0  0  0  0  0
  -24.6720  -11.7980   20.7730 C   0  0  0  0  0  0  0  0  0  0  0  0
  -26.3480  -13.0080   20.2030 N   0  0  0  0  0  0  0  0  0  0  0  0
  -25.9620  -11.7330   20.4720 N   0  0  0  0  0  0  0  0  0  0  0  0
  -23.9260  -10.5510   20.9720 C   0  0  0  0  0  0  0  0  0  0  0  0
  -24.3550   -9.5820   21.9020 C   0  0  0  0  0  3  0  0  0  0  0  0
  -23.6100   -8.4000   22.1000 C   0  0  0  0  0  3  0  0  0  0  0  0
  -22.4230   -8.1800   21.3640 C   0  0  0  0  0  0  0  0  0  0  0  0
  -22.0140   -9.1400   20.4200 C   0  0  0  0  0  3  0  0  0  0  0  0
  -22.7590  -10.3130   20.2230 C   0  0  0  0  0  3  0  0  0  0  0  0
  -21.6470   -7.0500   21.4710 O   0  0  0  0  0  0  0  0  0  0  0  0
  -21.6130   -6.3010   22.6210 C   0  0  0  0  0  0  0  0  0  0  0  0
  -21.2460   -6.8600   23.8650 C   0  0  0  0  0  3  0  0  0  0  0  0
  -21.1440   -6.0370   25.0050 C   0  0  0  0  0  3  0  0  0  0  0  0
  -21.4150   -4.6600   24.9060 C   0  0  0  0  0  0  0  0  0  0  0  0
  -21.7800   -4.1010   23.6690 C   0  0  0  0  0  3  0  0  0  0  0  0
  -21.8730   -4.9180   22.5290 C   0  0  0  0  0  0  0  0  0  0  0  0
  -22.2000   -4.3690   21.3340 F   0  0  0  0  0  0  0  0  0  0  0  0
  -21.3230   -3.8690   26.0000 F   0  0  0  0  0  0  0  0  0  0  0  0
  -22.8410  -13.6560   21.0440 C   0  0  0  0  0  0  0  0  0  0  0  0
  -22.1110  -12.9850   21.9300 N   0  0  0  0  0  0  0  0  0  0  0  0
  -22.4080  -14.6690   20.4990 O   0  0  0  0  0  0  0  0  0  0  0  0
  -22.4860  -12.1730   22.3930 H   0  0  0  0  0  0  0  0  0  0  0  0
  -21.1740  -13.2890   22.1460 H   0  0  0  0  0  0  0  0  0  0  0  0
  -25.4860  -15.2730   20.2170 N   0  0  0  0  0  0  0  0  0  0  0  0
  -24.7120  -15.9260   20.2930 H   0  0  0  0  0  0  0  0  0  0  0  0
  -26.3450  -15.7080   19.9050 H   0  0  0  0  0  0  0  0  0  0  0  0
  -30.0930  -22.7530   24.5390 C   0  0  0  0  0  1  0  0  0  0  0  0
  -29.6360  -23.1430   23.1180 C   0  0  0  0  0  3  0  0  0  0  0  0
  -29.8020  -24.6070   22.9270 N   0  0  0  0  0  4  0  0  0  0  0  0
  -29.9750  -25.0400   23.8210 H   0  0  0  0  0  0  0  0  0  0  0  0
  -30.6410  -24.7250   22.3810 H   0  0  0  0  0  0  0  0  0  0  0  0
  -28.6590  -25.3000   22.2690 C   0  0  0  0  0  2  0  0  0  0  0  0
  -29.1060  -26.5100   21.4210 C   0  0  0  0  0  2  0  0  0  0  0  0
  -28.2850  -26.6090   20.2520 O   0  0  0  0  0  0  0  0  0  0  0  0
  -24.5250  -31.8820   23.2500 C   0  0  0  0  0  0  0  0  0  0  0  0
  -27.1430  -27.3750   20.3000 C   0  0  0  0  0  0  0  0  0  0  0  0
  -23.3080  -30.4690   21.6180 C   0  0  0  0  0  3  0  0  0  0  0  0
  -24.7530  -28.8850   20.2360 C   0  0  0  0  0  0  0  0  0  0  0  0
  -25.8320  -30.8000   21.4300 C   0  0  0  0  0  2  0  0  0  0  0  0
  -25.9040  -29.4130   20.8340 C   0  0  0  0  0  0  0  0  0  0  0  0
  -27.0960  -28.6640   20.8750 C   0  0  0  0  0  3  0  0  0  0  0  0
  -25.9820  -26.8580   19.6880 C   0  0  0  0  0  3  0  0  0  0  0  0
  -24.7850  -27.6020   19.6600 C   0  0  0  0  0  3  0  0  0  0  0  0
  -23.5180  -29.7590   20.2510 C   0  0  0  0  0  2  0  0  0  0  0  0
  -24.5730  -31.0670   22.1590 N   0  0  0  0  0  0  0  0  0  0  0  0
  -23.4470  -32.1790   23.7790 O   0  0  0  0  0  0  0  0  0  0  0  0
  -22.6360  -29.4770   22.5910 C   0  0  0  0  0  0  0  0  0  0  0  0
  -21.3100  -29.3200   22.4610 N   0  0  0  0  0  0  0  0  0  0  0  0
  -23.3040  -28.8490   23.4160 O   0  0  0  0  0  0  0  0  0  0  0  0
  -20.8360  -29.8680   21.7560 H   0  0  0  0  0  0  0  0  0  0  0  0
  -17.9100  -28.2160   22.9690 C   0  0  0  0  0  0  0  0  0  0  0  0
  -20.4720  -28.4120   23.2420 C   0  0  0  0  0  3  0  0  0  0  0  0
  -20.5410  -26.9740   22.6780 C   0  0  0  0  0  2  0  0  0  0  0  0
  -19.4330  -26.6690   21.6680 C   0  0  0  0  0  2  0  0  0  0  0  0
  -18.0540  -26.8550   22.3080 C   0  0  0  0  0  2  0  0  0  0  0  0
  -19.0460  -28.9530   23.3940 C   0  0  0  0  0  0  0  0  0  0  0  0
  -18.8590  -30.2290   23.9710 C   0  0  0  0  0  3  0  0  0  0  0  0
  -17.5670  -30.7640   24.1310 C   0  0  0  0  0  3  0  0  0  0  0  0
  -16.4450  -30.0230   23.7230 C   0  0  0  0  0  3  0  0  0  0  0  0
  -16.6160  -28.7510   23.1480 C   0  0  0  0  0  3  0  0  0  0  0  0
  -25.8210  -32.4980   23.8680 C   0  0  0  0  0  3  0  0  0  0  0  0
  -26.3320  -31.7240   25.1460 C   0  0  1  0  0  0  0  0  0  0  0  0
  -25.2370  -31.5020   26.2150 C   0  0  0  0  0  1  0  0  0  0  0  0
  -26.8990  -30.3380   24.7580 C   0  0  0  0  0  1  0  0  0  0  0  0
  -27.4930  -32.5070   25.8040 C   0  0  0  0  0  1  0  0  0  0  0  0
  -25.5310  -33.9010   24.1860 N   0  0  0  0  0  0  0  0  0  0  0  0
  -25.8790  -34.9420   23.4180 C   0  0  0  0  0  0  0  0  0  0  0  0
  -26.5510  -34.8200   22.3900 O   0  0  0  0  0  0  0  0  0  0  0  0
  -24.9340  -34.0710   24.9830 H   0  0  0  0  0  0  0  0  0  0  0  0
  -24.1740  -36.7530   23.0390 C   0  0  0  0  0  1  0  0  0  0  0  0
  -25.4060  -36.3390   23.8610 C   0  0  0  0  0  3  0  0  0  0  0  0
  -27.5510  -37.2020   24.6900 C   0  0  0  0  0  1  0  0  0  0  0  0
  -26.4520  -37.3790   23.7440 N   0  0  0  0  0  0  0  0  0  0  0  0
  -26.0560  -38.3040   23.8870 H   0  0  0  0  0  0  0  0  0  0  0  0
  1  2  1  0
  3  5  1  0
  4  1  2  0
  5  2  2  0
  5 57  1  0
  6  4  1  0
  6  3  2  0
  7  6  1  0
  8  4  1  0
  9  8  2  0
 10 11  1  0
 10  8  1  0
 11 13  1  0
 12 10  2  0
 14 11  1  0
 14 15  1  0
 15 16  1  0
 17 16  1  0
 17 26  1  0
 18 26  1  0
 19 24  1  0
 20 21  1  0
 20 19  1  0
 22 21  1  0
 22 31  1  0
 22 23  1  0
 24 18  1  0
 24 23  1  0
 25 18  2  0
 26 27  1  0
 28 29  2  0
 29 48  1  0
 30 29  1  0
 30 33  1  0
 31 28  1  0
 31 32  1  0
 32 30  2  0
 33 34  1  0
 34 35  2  0
 36 39  1  0
 36 35  1  0
 37 36  2  0
 38 37  1  0
 38 33  2  0
 39 40  1  0
 40 41  1  0
 41 42  2  0
 43 42  1  0
 43 47  1  0
 44 43  2  0
 45 40  2  0
 45 44  1  0
 46 45  1  0
 48 49  1  0
 49 52  1  0
 49 51  1  0
 50 48  2  0
 53 54  1  0
 53 28  1  0
 55 53  1  0
 57 56  1  0
 58 57  1  0
 58 59  1  0
 60 58  1  0
 61 58  1  0
 62 61  1  0
 63 65  1  0
 63 62  1  0
 64 75  2  0
 65 70  1  0
 66 74  1  0
 66 76  1  0
 67 73  1  0
 67 69  1  0
 68 74  1  0
 69 70  2  0
 69 68  1  0
 71 65  2  0
 72 71  1  0
 72 67  2  0
 73 66  1  0
 74 64  1  0
 76 78  2  0
 77 76  1  0
 79 77  1  0
 80 89  2  0
 80 85  1  0
 81 77  1  0
 81 85  1  0
 82 81  1  0
 83 84  1  0
 83 82  1  0
 84 80  1  0
 85 86  2  0
 86 87  1  0
 88 87  2  0
 89 88  1  0
 90 64  1  0
 90 95  1  0
 90 91  1  0
 91 94  1  1
 91 92  1  0
 93 91  1  0
 95 98  1  0
 96100  1  0
 96 95  1  0
 97 96  2  0
100 99  1  0
102100  1  0
102103  1  0
102101  1  0
M  ISO  4  18 100  26 100  62 101  63 101
M  END
>  <TORSDO>  (9) 
F 26

>  <SCORE>  (9) 
-12.508

>  <name>  (9) 
8

>  <ligand_id>  (9) 
8

>  <original_smiles>  (9) 
[H]c1c([H])c([H])c2c(c1[H])C([H])([H])C([H])([H])C([H])([H])C2([H])N([H])C(=O)C1([H])N(C(=O)C([H])(N([H])C(=O)C([H])(N([H])C([H])([H])[H])C([H])([H])[H])C(C([H])([H])[H])(C([H])([H])[H])C([H])([H])[H])C([H])([H])c2c([H])c(OC([H])([H])C([H])([H])[N+]([H])([H])C([H])(c3c([H])c([H])c(C(=O)C(=O)N([H])C([H])([H])C([H])([H])C([H])([H])C([H])([H])N([H])C(=O)N4C([H])([H])C([H])([H])C([H])([H])C([H])(n5nc(-c6c([H])c([H])c(Oc7c([H])c([H])c(F)c([H])c7F)c([H])c6[H])c(C(=O)N([H])[H])c5N([H])[H])C4([H])[H])c(C([H])([H])[H])c3[H])C([H])([H])[H])c([H])c([H])c2C1([H])[H]

>  <smiles>  (9) 
[H]c1c([H])c([H])c2c(c1[H])C([H])([H])C([H])([H])C([H])([H])C2([H])N([H])C(=O)C1([H])N(C(=O)C([H])(N([H])C(=O)C([H])(N([H])C([H])([H])[H])C([H])([H])[H])C(C([H])([H])[H])(C([H])([H])[H])C([H])([H])[H])C([H])([H])c2c([H])c(OC([H])([H])C([H])([H])[N+]([H])([H])C([H])(c3c([H])c([H])c(C(=O)C(=O)N([H])C([H])([H])C([H])([H])C([H])([H])C([H])([H])N([H])C(=O)N4C([H])([H])C([H])([H])C([H])([H])C([H])(n5nc(-c6c([H])c([H])c(Oc7c([H])c([H])c(F)c([H])c7F)c([H])c6[H])c(C(=O)N([H])[H])c5N([H])[H])C4([H])[H])c(C([H])([H])[H])c3[H])C([H])([H])[H])c([H])c([H])c2C1([H])[H]

$$$$
9:0:0
     RDKit          3D

 92 99  0  0  1  0  0  0  0  0999 V2000
  -25.7670  -21.4230   19.1670 C   0  0  0  0  0  2  0  0  0  0  0  0
  -24.7780  -19.1880   18.8910 C   0  0  0  0  0  1  0  0  0  0  0  0
  -25.9590  -19.9610   19.3410 N   0  0  1  0  0  4  0  0  0  0  0  0
  -26.0200  -19.7940   20.3340 H   0  0  0  0  0  0  0  0  0  0  0  0
  -27.2130  -19.4560   18.7130 C   0  0  0  0  0  2  0  0  0  0  0  0
  -28.5000  -20.1420   19.2260 C   0  0  0  0  0  2  0  0  0  0  0  0
  -29.7630  -19.2780   19.1420 C   0  0  0  0  0  2  0  0  0  0  0  0
  -29.6890  -17.9780   19.9480 C   0  0  0  0  0  2  0  0  0  0  0  0
  -31.0130  -17.2090   19.9020 C   0  0  0  0  0  2  0  0  0  0  0  0
  -31.4640  -14.7960   19.9250 C   0  0  0  0  0  0  0  0  0  0  0  0
  -31.1360  -12.4950   19.1400 C   0  0  0  0  0  2  0  0  0  0  0  0
  -30.1910  -12.5160   17.9190 C   0  0  0  0  0  2  0  0  0  0  0  0
  -28.7170  -12.4820   18.3620 C   0  0  0  0  0  2  0  0  0  0  0  0
  -28.3940  -13.5220   19.4670 C   0  0  0  0  0  3  0  0  0  0  0  0
  -29.4430  -13.4580   20.6030 C   0  0  0  0  0  2  0  0  0  0  0  0
  -30.7810  -13.6270   20.0060 N   0  0  0  0  0  0  0  0  0  0  0  0
  -32.5460  -14.9270   19.3440 O   0  0  0  0  0  0  0  0  0  0  0  0
  -30.7980  -15.8550   20.3840 N   0  0  0  0  0  0  0  0  0  0  0  0
  -29.9370  -15.6630   20.8740 H   0  0  0  0  0  0  0  0  0  0  0  0
  -26.0650  -14.3030   20.2410 C   0  0  0  0  0  0  0  0  0  0  0  0
  -24.9490  -13.6090   20.6320 C   0  0  0  0  0  0  0  0  0  0  0  0
  -25.3050  -12.2290   20.5740 C   0  0  0  0  0  0  0  0  0  0  0  0
  -27.0330  -13.3480   19.9760 N   0  0  0  0  0  0  0  0  0  0  0  0
  -26.5800  -12.0930   20.2310 N   0  0  0  0  0  0  0  0  0  0  0  0
  -24.4910  -11.0230   20.7720 C   0  0  0  0  0  0  0  0  0  0  0  0
  -24.8270  -10.0590   21.7500 C   0  0  0  0  0  3  0  0  0  0  0  0
  -24.0230   -8.9130   21.9310 C   0  0  0  0  0  3  0  0  0  0  0  0
  -22.8680   -8.7240   21.1340 C   0  0  0  0  0  0  0  0  0  0  0  0
  -22.5510   -9.6750   20.1470 C   0  0  0  0  0  3  0  0  0  0  0  0
  -23.3560  -10.8130   19.9660 C   0  0  0  0  0  3  0  0  0  0  0  0
  -22.0390   -7.6330   21.2240 O   0  0  0  0  0  0  0  0  0  0  0  0
  -21.8280   -6.9820   22.4140 C   0  0  0  0  0  0  0  0  0  0  0  0
  -21.3100   -7.6470   23.5470 C   0  0  0  0  0  3  0  0  0  0  0  0
  -21.0520   -6.9260   24.7290 C   0  0  0  0  0  3  0  0  0  0  0  0
  -21.2990   -5.5420   24.7790 C   0  0  0  0  0  0  0  0  0  0  0  0
  -21.8080   -4.8770   23.6480 C   0  0  0  0  0  3  0  0  0  0  0  0
  -22.0660   -5.5950   22.4670 C   0  0  0  0  0  0  0  0  0  0  0  0
  -22.5380   -4.9450   21.3760 F   0  0  0  0  0  0  0  0  0  0  0  0
  -21.0400   -4.8450   25.9100 F   0  0  0  0  0  0  0  0  0  0  0  0
  -23.6040  -14.1910   20.9530 C   0  0  0  0  0  0  0  0  0  0  0  0
  -22.8570  -13.5520   21.8500 N   0  0  0  0  0  0  0  0  0  0  0  0
  -23.2260  -15.2450   20.4440 O   0  0  0  0  0  0  0  0  0  0  0  0
  -23.1770  -12.7050   22.2940 H   0  0  0  0  0  0  0  0  0  0  0  0
  -21.9530  -13.9210   22.1050 H   0  0  0  0  0  0  0  0  0  0  0  0
  -26.3330  -15.6590   20.0750 N   0  0  0  0  0  0  0  0  0  0  0  0
  -25.6190  -16.3740   20.1580 H   0  0  0  0  0  0  0  0  0  0  0  0
  -27.2120  -16.0050   19.7150 H   0  0  0  0  0  0  0  0  0  0  0  0
  -26.5100  -22.2380   20.2420 C   0  0  0  0  0  2  0  0  0  0  0  0
  -27.3350  -23.3770   19.6300 C   0  0  0  0  0  2  0  0  0  0  0  0
  -28.0350  -24.2150   20.7040 C   0  0  0  0  0  2  0  0  0  0  0  0
  -28.9740  -25.2890   20.1140 C   0  0  0  0  0  2  0  0  0  0  0  0
  -28.8470  -26.5270   20.8130 O   0  0  0  0  0  0  0  0  0  0  0  0
  -24.8300  -31.7180   23.5050 C   0  0  0  0  0  0  0  0  0  0  0  0
  -27.6610  -27.2220   20.7000 C   0  0  0  0  0  0  0  0  0  0  0  0
  -23.7330  -30.2930   21.8110 C   0  0  0  0  0  3  0  0  0  0  0  0
  -25.2720  -28.7260   20.5250 C   0  0  0  0  0  0  0  0  0  0  0  0
  -26.2700  -30.6320   21.7930 C   0  0  0  0  0  2  0  0  0  0  0  0
  -26.3890  -29.2550   21.1830 C   0  0  0  0  0  0  0  0  0  0  0  0
  -27.5850  -28.5110   21.2680 C   0  0  0  0  0  3  0  0  0  0  0  0
  -26.5170  -26.7030   20.0450 C   0  0  0  0  0  3  0  0  0  0  0  0
  -25.3280  -27.4410   19.9630 C   0  0  0  0  0  3  0  0  0  0  0  0
  -24.0370  -29.5940   20.4610 C   0  0  0  0  0  2  0  0  0  0  0  0
  -24.9580  -30.8970   22.4270 N   0  0  0  0  0  0  0  0  0  0  0  0
  -23.7150  -32.0090   23.9580 O   0  0  0  0  0  0  0  0  0  0  0  0
  -23.0110  -29.2890   22.7360 C   0  0  0  0  0  0  0  0  0  0  0  0
  -21.6910  -29.1350   22.5330 N   0  0  0  0  0  0  0  0  0  0  0  0
  -23.6330  -28.6530   23.5910 O   0  0  0  0  0  0  0  0  0  0  0  0
  -21.2560  -29.6970   21.8150 H   0  0  0  0  0  0  0  0  0  0  0  0
  -18.2540  -28.0950   22.9040 C   0  0  0  0  0  0  0  0  0  0  0  0
  -20.8090  -28.2280   23.2640 C   0  0  0  0  0  3  0  0  0  0  0  0
  -20.8680  -26.8020   22.6710 C   0  0  0  0  0  2  0  0  0  0  0  0
  -19.7860  -26.5440   21.6170 C   0  0  0  0  0  2  0  0  0  0  0  0
  -18.3910  -26.7450   22.2160 C   0  0  0  0  0  2  0  0  0  0  0  0
  -19.3910  -28.7980   23.3810 C   0  0  0  0  0  0  0  0  0  0  0  0
  -19.2150  -30.0640   23.9790 C   0  0  0  0  0  3  0  0  0  0  0  0
  -17.9300  -30.6250   24.1090 C   0  0  0  0  0  3  0  0  0  0  0  0
  -16.8050  -29.9190   23.6480 C   0  0  0  0  0  3  0  0  0  0  0  0
  -16.9680  -28.6550   23.0530 C   0  0  0  0  0  3  0  0  0  0  0  0
  -26.0760  -32.3490   24.2020 C   0  0  0  0  0  3  0  0  0  0  0  0
  -26.4440  -31.6520   25.5700 C   0  0  1  0  0  0  0  0  0  0  0  0
  -25.2440  -31.5090   26.5350 C   0  0  0  0  0  1  0  0  0  0  0  0
  -27.0260  -30.2380   25.3270 C   0  0  0  0  0  1  0  0  0  0  0  0
  -27.5410  -32.4670   26.2940 C   0  0  0  0  0  1  0  0  0  0  0  0
  -25.7910  -33.7760   24.4010 N   0  0  0  0  0  0  0  0  0  0  0  0
  -26.2210  -34.7550   23.5940 C   0  0  0  0  0  0  0  0  0  0  0  0
  -26.9700  -34.5520   22.6340 O   0  0  0  0  0  0  0  0  0  0  0  0
  -25.1420  -34.0100   25.1380 H   0  0  0  0  0  0  0  0  0  0  0  0
  -24.5860  -36.5580   22.9580 C   0  0  0  0  0  1  0  0  0  0  0  0
  -25.7420  -36.1870   23.9000 C   0  0  0  0  0  3  0  0  0  0  0  0
  -27.8250  -37.0810   24.8410 C   0  0  0  0  0  1  0  0  0  0  0  0
  -26.8120  -37.2020   23.7950 N   0  0  0  0  0  0  0  0  0  0  0  0
  -26.4240  -38.1400   23.8380 H   0  0  0  0  0  0  0  0  0  0  0  0
  1  3  1  0
  1 48  1  0
  2  3  1  0
  3  4  1  1
  5  6  1  0
  5  3  1  0
  7  6  1  0
  7  8  1  0
  9  8  1  0
  9 18  1  0
 10 16  1  0
 10 18  1  0
 11 16  1  0
 12 13  1  0
 12 11  1  0
 14 13  1  0
 14 23  1  0
 14 15  1  0
 16 15  1  0
 17 10  2  0
 18 19  1  0
 20 21  2  0
 21 40  1  0
 22 21  1  0
 22 25  1  0
 23 24  1  0
 23 20  1  0
 24 22  2  0
 25 26  1  0
 26 27  2  0
 28 31  1  0
 28 27  1  0
 29 28  2  0
 30 29  1  0
 30 25  2  0
 31 32  1  0
 32 37  2  0
 32 33  1  0
 33 34  2  0
 34 35  1  0
 35 39  1  0
 36 35  2  0
 37 36  1  0
 38 37  1  0
 40 41  1  0
 41 44  1  0
 41 43  1  0
 42 40  2  0
 45 46  1  0
 45 20  1  0
 47 45  1  0
 49 48  1  0
 49 50  1  0
 51 50  1  0
 51 52  1  0
 53 64  2  0
 54 52  1  0
 54 59  1  0
 55 63  1  0
 55 65  1  0
 56 58  1  0
 57 63  1  0
 58 59  2  0
 58 57  1  0
 60 54  2  0
 61 60  1  0
 61 56  2  0
 62 56  1  0
 62 55  1  0
 63 53  1  0
 65 67  2  0
 66 65  1  0
 68 66  1  0
 69 78  2  0
 69 74  1  0
 70 66  1  0
 70 74  1  0
 71 70  1  0
 72 73  1  0
 72 71  1  0
 73 69  1  0
 74 75  2  0
 75 76  1  0
 77 76  2  0
 78 77  1  0
 79 53  1  0
 79 84  1  0
 79 80  1  0
 80 83  1  1
 80 81  1  0
 82 80  1  0
 84 87  1  0
 85 89  1  0
 85 84  1  0
 86 85  2  0
 89 88  1  0
 91 92  1  0
 91 89  1  0
 91 90  1  0
M  ISO  4  10 100  18 100  51 101  52 101
M  END
>  <TORSDO>  (10) 
F 26

>  <SCORE>  (10) 
-8.989

>  <name>  (10) 
9

>  <ligand_id>  (10) 
9

>  <original_smiles>  (10) 
[H]c1c([H])c([H])c2c(c1[H])C([H])([H])C([H])([H])C([H])([H])C2([H])N([H])C(=O)C1([H])N(C(=O)C([H])(N([H])C(=O)C([H])(N([H])C([H])([H])[H])C([H])([H])[H])C(C([H])([H])[H])(C([H])([H])[H])C([H])([H])[H])C([H])([H])c2c([H])c(OC([H])([H])C([H])([H])C([H])([H])C([H])([H])C([H])([H])[N+]([H])(C([H])([H])[H])C([H])([H])C([H])([H])C([H])([H])C([H])([H])C([H])([H])N([H])C(=O)N3C([H])([H])C([H])([H])C([H])([H])C([H])(n4nc(-c5c([H])c([H])c(Oc6c([H])c([H])c(F)c([H])c6F)c([H])c5[H])c(C(=O)N([H])[H])c4N([H])[H])C3([H])[H])c([H])c([H])c2C1([H])[H]

>  <smiles>  (10) 
[H]c1c([H])c([H])c2c(c1[H])C([H])([H])C([H])([H])C([H])([H])C2([H])N([H])C(=O)C1([H])N(C(=O)C([H])(N([H])C(=O)C([H])(N([H])C([H])([H])[H])C([H])([H])[H])C(C([H])([H])[H])(C([H])([H])[H])C([H])([H])[H])C([H])([H])c2c([H])c(OC([H])([H])C([H])([H])C([H])([H])C([H])([H])C([H])([H])[N+]([H])(C([H])([H])[H])C([H])([H])C([H])([H])C([H])([H])C([H])([H])C([H])([H])N([H])C(=O)N3C([H])([H])C([H])([H])C([H])([H])C([H])(n4nc(-c5c([H])c([H])c(Oc6c([H])c([H])c(F)c([H])c6F)c([H])c5[H])c(C(=O)N([H])[H])c4N([H])[H])C3([H])[H])c([H])c([H])c2C1([H])[H]

$$$$
10:0:0
     RDKit          3D

 96104  0  0  1  0  0  0  0  0999 V2000
  -27.9010  -20.8810   20.5180 C   0  0  0  0  0  3  0  0  0  0  0  0
  -26.4530  -22.1380   19.0650 C   0  0  0  0  0  3  0  0  0  0  0  0
  -27.9700  -21.9630   21.4120 C   0  0  0  0  0  3  0  0  0  0  0  0
  -26.5010  -23.2230   19.9610 C   0  0  0  0  0  3  0  0  0  0  0  0
  -27.1710  -20.9430   19.3100 C   0  0  0  0  0  0  0  0  0  0  0  0
  -27.2870  -23.1550   21.1340 C   0  0  0  0  0  0  0  0  0  0  0  0
  -26.0600  -18.7490   18.8760 C   0  0  0  0  0  1  0  0  0  0  0  0
  -26.6040  -20.1660   16.9430 C   0  0  0  0  0  1  0  0  0  0  0  0
  -27.1070  -19.7320   18.3460 C   0  0  1  0  0  0  0  0  0  0  0  0
  -28.5020  -19.0350   18.1210 C   0  0  0  0  0  2  0  0  0  0  0  0
  -28.9260  -17.7770   18.9380 C   0  0  0  0  0  2  0  0  0  0  0  0
  -29.7050  -18.0530   20.2380 C   0  0  0  0  0  2  0  0  0  0  0  0
  -30.8400  -17.0770   20.5180 C   0  0  0  0  0  2  0  0  0  0  0  0
  -31.0760  -14.6620   20.5290 C   0  0  0  0  0  0  0  0  0  0  0  0
  -30.7300  -12.5380   19.3730 C   0  0  0  0  0  2  0  0  0  0  0  0
  -29.8390  -12.8090   18.1460 C   0  0  0  0  0  2  0  0  0  0  0  0
  -28.3490  -12.7120   18.5310 C   0  0  0  0  0  2  0  0  0  0  0  0
  -27.9900  -13.5440   19.7970 C   0  0  0  0  0  3  0  0  0  0  0  0
  -29.0110  -13.2760   20.9280 C   0  0  0  0  0  2  0  0  0  0  0  0
  -30.3630  -13.5210   20.3980 N   0  0  0  0  0  0  0  0  0  0  0  0
  -32.2430  -14.7900   20.1490 O   0  0  0  0  0  0  0  0  0  0  0  0
  -30.3600  -15.7380   20.8460 N   0  0  0  0  0  0  0  0  0  0  0  0
  -29.3930  -15.6090   21.1020 H   0  0  0  0  0  0  0  0  0  0  0  0
  -25.5790  -14.1860   20.4620 C   0  0  0  0  0  0  0  0  0  0  0  0
  -24.4830  -13.4310   20.7870 C   0  0  0  0  0  0  0  0  0  0  0  0
  -24.9220  -12.0740   20.7420 C   0  0  0  0  0  0  0  0  0  0  0  0
  -26.6160  -13.2920   20.2380 N   0  0  0  0  0  0  0  0  0  0  0  0
  -26.2210  -12.0150   20.4660 N   0  0  0  0  0  0  0  0  0  0  0  0
  -24.1670  -10.8240   20.8910 C   0  0  0  0  0  0  0  0  0  0  0  0
  -24.5420   -9.8490   21.8410 C   0  0  0  0  0  3  0  0  0  0  0  0
  -23.7950   -8.6600   21.9780 C   0  0  0  0  0  3  0  0  0  0  0  0
  -22.6600   -8.4390   21.1620 C   0  0  0  0  0  0  0  0  0  0  0  0
  -22.3030   -9.4040   20.2030 C   0  0  0  0  0  3  0  0  0  0  0  0
  -23.0510  -10.5850   20.0640 C   0  0  0  0  0  3  0  0  0  0  0  0
  -21.8900   -7.3020   21.2090 O   0  0  0  0  0  0  0  0  0  0  0  0
  -21.7460   -6.5740   22.3620 C   0  0  0  0  0  0  0  0  0  0  0  0
  -21.2200   -7.1420   23.5420 C   0  0  0  0  0  3  0  0  0  0  0  0
  -21.0250   -6.3410   24.6840 C   0  0  0  0  0  3  0  0  0  0  0  0
  -21.3490   -4.9710   24.6470 C   0  0  0  0  0  0  0  0  0  0  0  0
  -21.8710   -4.4010   23.4720 C   0  0  0  0  0  3  0  0  0  0  0  0
  -22.0670   -5.2010   22.3320 C   0  0  0  0  0  0  0  0  0  0  0  0
  -22.5490   -4.6440   21.1940 F   0  0  0  0  0  0  0  0  0  0  0  0
  -21.1570   -4.1970   25.7400 F   0  0  0  0  0  0  0  0  0  0  0  0
  -23.0870  -13.9330   21.0320 C   0  0  0  0  0  0  0  0  0  0  0  0
  -22.3190  -13.2440   21.8710 N   0  0  0  0  0  0  0  0  0  0  0  0
  -22.6840  -14.9750   20.5170 O   0  0  0  0  0  0  0  0  0  0  0  0
  -22.6460  -12.4000   22.3160 H   0  0  0  0  0  0  0  0  0  0  0  0
  -21.3870  -13.5750   22.0750 H   0  0  0  0  0  0  0  0  0  0  0  0
  -25.7670  -15.5500   20.3230 N   0  0  0  0  0  0  0  0  0  0  0  0
  -25.0000  -16.2080   20.4020 H   0  0  0  0  0  0  0  0  0  0  0  0
  -26.6280  -15.9840   20.0240 H   0  0  0  0  0  0  0  0  0  0  0  0
  -27.4180  -24.2200   22.0360 N   0  0  0  0  0  0  0  0  0  0  0  0
  -28.1380  -24.1090   22.7450 H   0  0  0  0  0  0  0  0  0  0  0  0
  -27.3090  -25.5600   21.4710 C   0  0  0  0  0  2  0  0  0  0  0  0
  -28.6620  -26.1680   21.0040 C   0  0  0  0  0  2  0  0  0  0  0  0
  -28.5770  -27.1210   19.9330 O   0  0  0  0  0  0  0  0  0  0  0  0
  -24.5830  -31.9090   23.3250 C   0  0  0  0  0  0  0  0  0  0  0  0
  -27.4290  -27.8700   19.9330 C   0  0  0  0  0  0  0  0  0  0  0  0
  -23.4440  -30.5910   21.5650 C   0  0  0  0  0  3  0  0  0  0  0  0
  -24.9740  -29.2390   20.0360 C   0  0  0  0  0  0  0  0  0  0  0  0
  -25.9500  -31.0720   21.4280 C   0  0  0  0  0  2  0  0  0  0  0  0
  -26.0990  -29.7610   20.6910 C   0  0  0  0  0  0  0  0  0  0  0  0
  -27.3290  -29.0710   20.6620 C   0  0  0  0  0  3  0  0  0  0  0  0
  -26.3130  -27.3920   19.2200 C   0  0  0  0  0  3  0  0  0  0  0  0
  -25.0720  -28.0440   19.3030 C   0  0  0  0  0  3  0  0  0  0  0  0
  -23.6920  -30.0270   20.1400 C   0  0  0  0  0  2  0  0  0  0  0  0
  -24.6740  -31.2040   22.1640 N   0  0  0  0  0  0  0  0  0  0  0  0
  -23.4900  -32.0990   23.8740 O   0  0  0  0  0  0  0  0  0  0  0  0
  -22.8330  -29.4720   22.4380 C   0  0  0  0  0  0  0  0  0  0  0  0
  -21.5150  -29.2610   22.2980 N   0  0  0  0  0  0  0  0  0  0  0  0
  -23.5390  -28.8030   23.1980 O   0  0  0  0  0  0  0  0  0  0  0  0
  -21.0040  -29.8610   21.6640 H   0  0  0  0  0  0  0  0  0  0  0  0
  -18.1770  -27.9500   22.7100 C   0  0  0  0  0  0  0  0  0  0  0  0
  -20.7290  -28.2380   22.9880 C   0  0  0  0  0  3  0  0  0  0  0  0
  -20.8560  -26.8690   22.2860 C   0  0  0  0  0  2  0  0  0  0  0  0
  -19.7570  -26.6160   21.2490 C   0  0  0  0  0  2  0  0  0  0  0  0
  -18.3740  -26.6770   21.9020 C   0  0  0  0  0  2  0  0  0  0  0  0
  -19.2820  -28.6940   23.2020 C   0  0  0  0  0  0  0  0  0  0  0  0
  -19.0420  -29.8920   23.9100 C   0  0  0  0  0  3  0  0  0  0  0  0
  -17.7300  -30.3480   24.1290 C   0  0  0  0  0  3  0  0  0  0  0  0
  -16.6380  -29.6000   23.6540 C   0  0  0  0  0  3  0  0  0  0  0  0
  -16.8630  -28.4030   22.9510 C   0  0  0  0  0  3  0  0  0  0  0  0
  -25.8400  -32.5370   24.0030 C   0  0  0  0  0  3  0  0  0  0  0  0
  -25.5010  -33.9200   24.3620 N   0  0  0  0  0  0  0  0  0  0  0  0
  -25.8370  -34.9980   23.6400 C   0  0  0  0  0  0  0  0  0  0  0  0
  -26.5400  -34.9310   22.6270 O   0  0  0  0  0  0  0  0  0  0  0  0
  -24.8810  -34.0430   25.1480 H   0  0  0  0  0  0  0  0  0  0  0  0
  -24.0880  -36.7680   23.2790 C   0  0  0  0  0  1  0  0  0  0  0  0
  -25.3110  -36.3650   24.1180 C   0  0  0  0  0  3  0  0  0  0  0  0
  -27.4030  -37.2640   25.0370 C   0  0  0  0  0  1  0  0  0  0  0  0
  -26.3280  -37.4370   24.0640 N   0  0  0  0  0  0  0  0  0  0  0  0
  -25.9020  -38.3470   24.2180 H   0  0  0  0  0  0  0  0  0  0  0  0
  -26.3350  -31.7340   25.2680 C   0  0  1  0  0  0  0  0  0  0  0  0
  -25.2120  -31.4250   26.2840 C   0  0  0  0  0  1  0  0  0  0  0  0
  -26.9730  -30.3880   24.8470 C   0  0  0  0  0  1  0  0  0  0  0  0
  -27.4370  -32.5370   26.0010 C   0  0  0  0  0  1  0  0  0  0  0  0
  1  3  1  0
  2  5  1  0
  2  4  2  0
  4  6  1  0
  5  1  2  0
  6  3  2  0
  6 52  1  0
  9  8  1  6
  9  7  1  0
  9  5  1  0
 10  9  1  0
 10 11  1  0
 11 12  1  0
 12 13  1  0
 13 22  1  0
 14 22  1  0
 15 20  1  0
 16 17  1  0
 16 15  1  0
 18 17  1  0
 18 27  1  0
 18 19  1  0
 20 14  1  0
 20 19  1  0
 21 14  2  0
 22 23  1  0
 24 25  2  0
 25 44  1  0
 26 25  1  0
 26 29  1  0
 27 24  1  0
 27 28  1  0
 28 26  2  0
 29 30  1  0
 30 31  2  0
 32 35  1  0
 32 31  1  0
 33 32  2  0
 34 33  1  0
 34 29  2  0
 35 36  1  0
 36 37  1  0
 37 38  2  0
 39 38  1  0
 39 43  1  0
 40 39  2  0
 41 36  2  0
 41 40  1  0
 42 41  1  0
 44 45  1  0
 45 48  1  0
 45 47  1  0
 46 44  2  0
 49 50  1  0
 49 24  1  0
 51 49  1  0
 52 53  1  0
 54 52  1  0
 55 54  1  0
 56 55  1  0
 57 68  2  0
 58 56  1  0
 58 63  1  0
 59 67  1  0
 59 69  1  0
 60 66  1  0
 60 62  1  0
 61 67  1  0
 62 61  1  0
 63 62  2  0
 64 65  1  0
 64 58  2  0
 65 60  2  0
 66 59  1  0
 67 57  1  0
 69 71  2  0
 70 69  1  0
 72 70  1  0
 73 82  2  0
 73 78  1  0
 74 70  1  0
 74 78  1  0
 75 74  1  0
 76 77  1  0
 76 75  1  0
 77 73  1  0
 78 79  2  0
 79 80  1  0
 81 80  2  0
 82 81  1  0
 83 57  1  0
 83 84  1  0
 83 93  1  0
 84 87  1  0
 85 89  1  0
 85 84  1  0
 86 85  2  0
 89 88  1  0
 91 89  1  0
 91 92  1  0
 91 90  1  0
 93 96  1  1
 93 94  1  0
 95 93  1  0
M  ISO  4  14 100  22 100  55 101  56 101
M  END
>  <TORSDO>  (11) 
F 24

>  <SCORE>  (11) 
-11.715

>  <name>  (11) 
10

>  <ligand_id>  (11) 
10

>  <original_smiles>  (11) 
[H]c1c([H])c([H])c2c(c1[H])C([H])([H])C([H])([H])C([H])([H])C2([H])N([H])C(=O)C1([H])N(C(=O)C([H])(N([H])C(=O)C([H])(N([H])C([H])([H])[H])C([H])([H])[H])C(C([H])([H])[H])(C([H])([H])[H])C([H])([H])[H])C([H])([H])c2c([H])c(OC([H])([H])C([H])([H])N([H])c3c([H])c([H])c(C(C([H])([H])[H])(C([H])([H])[H])C([H])([H])C([H])([H])C([H])([H])C([H])([H])N([H])C(=O)N4C([H])([H])C([H])([H])C([H])([H])C([H])(n5nc(-c6c([H])c([H])c(Oc7c([H])c([H])c(F)c([H])c7F)c([H])c6[H])c(C(=O)N([H])[H])c5N([H])[H])C4([H])[H])c([H])c3[H])c([H])c([H])c2C1([H])[H]

>  <smiles>  (11) 
[H]c1c([H])c([H])c2c(c1[H])C([H])([H])C([H])([H])C([H])([H])C2([H])N([H])C(=O)C1([H])N(C(=O)C([H])(N([H])C(=O)C([H])(N([H])C([H])([H])[H])C([H])([H])[H])C(C([H])([H])[H])(C([H])([H])[H])C([H])([H])[H])C([H])([H])c2c([H])c(OC([H])([H])C([H])([H])N([H])c3c([H])c([H])c(C(C([H])([H])[H])(C([H])([H])[H])C([H])([H])C([H])([H])C([H])([H])C([H])([H])N([H])C(=O)N4C([H])([H])C([H])([H])C([H])([H])C([H])(n5nc(-c6c([H])c([H])c(Oc7c([H])c([H])c(F)c([H])c7F)c([H])c6[H])c(C(=O)N([H])[H])c5N([H])[H])C4([H])[H])c([H])c3[H])c([H])c([H])c2C1([H])[H]

$$$$
11:0:0
     RDKit          3D

 97105  0  0  1  0  0  0  0  0999 V2000
  -27.7320  -22.6010   17.4750 C   0  0  0  0  0  3  0  0  0  0  0  0
  -27.5720  -21.2010   17.5050 C   0  0  0  0  0  3  0  0  0  0  0  0
  -28.9740  -22.4960   19.5680 C   0  0  0  0  0  3  0  0  0  0  0  0
  -28.4180  -23.2690   18.5150 C   0  0  0  0  0  0  0  0  0  0  0  0
  -28.8150  -21.0890   19.6090 C   0  0  0  0  0  0  0  0  0  0  0  0
  -28.0990  -20.4480   18.5700 C   0  0  0  0  0  0  0  0  0  0  0  0
  -27.9120  -19.1040   18.5930 F   0  0  0  0  0  0  0  0  0  0  0  0
  -28.5390  -24.7630   18.4620 C   0  0  0  0  0  0  0  0  0  0  0  0
  -28.5400  -25.3980   17.4000 O   0  0  0  0  0  0  0  0  0  0  0  0
  -28.5990  -25.5220   19.8040 C   0  0  0  0  0  2  0  0  0  0  0  0
  -28.6340  -26.9490   19.6330 O   0  0  0  0  0  0  0  0  0  0  0  0
  -24.6270  -31.7620   23.0090 C   0  0  0  0  0  0  0  0  0  0  0  0
  -27.4230  -27.6080   19.6770 C   0  0  0  0  0  0  0  0  0  0  0  0
  -23.4640  -30.3920   21.3090 C   0  0  0  0  0  3  0  0  0  0  0  0
  -24.9650  -28.9990   19.7970 C   0  0  0  0  0  0  0  0  0  0  0  0
  -25.9680  -30.8780   21.1020 C   0  0  0  0  0  2  0  0  0  0  0  0
  -26.1080  -29.5470   20.3920 C   0  0  0  0  0  0  0  0  0  0  0  0
  -27.3420  -28.8630   20.3240 C   0  0  0  0  0  3  0  0  0  0  0  0
  -26.2570  -27.0720   19.0850 C   0  0  0  0  0  3  0  0  0  0  0  0
  -25.0340  -27.7600   19.1400 C   0  0  0  0  0  3  0  0  0  0  0  0
  -23.6870  -29.7980   19.8940 C   0  0  0  0  0  2  0  0  0  0  0  0
  -24.7040  -31.0230   21.8670 N   0  0  0  0  0  0  0  0  0  0  0  0
  -23.5410  -31.9530   23.5740 O   0  0  0  0  0  0  0  0  0  0  0  0
  -22.8730  -29.2910   22.2200 C   0  0  0  0  0  0  0  0  0  0  0  0
  -21.5490  -29.0840   22.1260 N   0  0  0  0  0  0  0  0  0  0  0  0
  -23.6010  -28.6310   22.9680 O   0  0  0  0  0  0  0  0  0  0  0  0
  -21.0210  -29.6730   21.4970 H   0  0  0  0  0  0  0  0  0  0  0  0
  -18.2230  -27.7770   22.6540 C   0  0  0  0  0  0  0  0  0  0  0  0
  -20.7820  -28.0800   22.8590 C   0  0  0  0  0  3  0  0  0  0  0  0
  -20.8980  -26.6920   22.1870 C   0  0  0  0  0  2  0  0  0  0  0  0
  -19.7690  -26.4080   21.1910 C   0  0  0  0  0  2  0  0  0  0  0  0
  -18.4070  -26.4790   21.8880 C   0  0  0  0  0  2  0  0  0  0  0  0
  -19.3380  -28.5370   23.0970 C   0  0  0  0  0  0  0  0  0  0  0  0
  -19.1120  -29.7560   23.7730 C   0  0  0  0  0  3  0  0  0  0  0  0
  -17.8030  -30.2140   24.0120 C   0  0  0  0  0  3  0  0  0  0  0  0
  -16.7020  -29.4500   23.5860 C   0  0  0  0  0  3  0  0  0  0  0  0
  -16.9130  -28.2340   22.9130 C   0  0  0  0  0  3  0  0  0  0  0  0
  -25.8920  -32.4170   23.6460 C   0  0  0  0  0  3  0  0  0  0  0  0
  -25.5260  -33.7820   24.0490 N   0  0  0  0  0  0  0  0  0  0  0  0
  -25.8090  -34.8840   23.3430 C   0  0  0  0  0  0  0  0  0  0  0  0
  -26.4800  -34.8610   22.3070 O   0  0  0  0  0  0  0  0  0  0  0  0
  -24.9360  -33.8710   24.8630 H   0  0  0  0  0  0  0  0  0  0  0  0
  -24.0010  -36.6100   23.0780 C   0  0  0  0  0  1  0  0  0  0  0  0
  -25.2610  -36.2240   23.8690 C   0  0  0  0  0  3  0  0  0  0  0  0
  -27.3590  -37.1590   24.7400 C   0  0  0  0  0  1  0  0  0  0  0  0
  -26.2460  -37.3260   23.8080 N   0  0  0  0  0  0  0  0  0  0  0  0
  -25.8010  -38.2180   24.0040 H   0  0  0  0  0  0  0  0  0  0  0  0
  -26.4590  -31.6060   24.8760 C   0  0  1  0  0  0  0  0  0  0  0  0
  -25.3950  -31.2770   25.9470 C   0  0  0  0  0  1  0  0  0  0  0  0
  -27.0850  -30.2720   24.4060 C   0  0  0  0  0  1  0  0  0  0  0  0
  -27.5910  -32.4100   25.5580 C   0  0  0  0  0  1  0  0  0  0  0  0
  -28.4930  -20.5890   22.0580 C   0  0  0  0  0  1  0  0  0  0  0  0
  -29.3480  -20.3000   20.8130 C   0  0  0  0  0  3  0  0  0  0  0  0
  -29.4430  -18.8360   20.5710 N   0  0  0  0  0  4  0  0  0  0  0  0
  -29.1470  -18.3630   21.4090 H   0  0  0  0  0  0  0  0  0  0  0  0
  -28.7770  -18.6180   19.8410 H   0  0  0  0  0  0  0  0  0  0  0  0
  -30.7810  -18.3050   20.2000 C   0  0  0  0  0  2  0  0  0  0  0  0
  -31.3850  -17.4140   21.3140 C   0  0  0  0  0  2  0  0  0  0  0  0
  -31.1120  -15.8960   21.1900 C   0  0  0  0  0  2  0  0  0  0  0  0
  -32.4810  -14.0850   20.0020 C   0  0  0  0  0  0  0  0  0  0  0  0
  -31.7980  -11.8800   19.1160 C   0  0  0  0  0  2  0  0  0  0  0  0
  -30.8420  -12.0280   17.9150 C   0  0  0  0  0  2  0  0  0  0  0  0
  -29.3810  -12.1730   18.3820 C   0  0  0  0  0  2  0  0  0  0  0  0
  -29.2250  -13.2240   19.5110 C   0  0  0  0  0  3  0  0  0  0  0  0
  -30.2680  -12.9710   20.6210 C   0  0  0  0  0  2  0  0  0  0  0  0
  -31.6070  -13.0370   20.0120 N   0  0  0  0  0  0  0  0  0  0  0  0
  -33.5200  -14.0620   19.3380 O   0  0  0  0  0  0  0  0  0  0  0  0
  -32.3110  -15.1110   20.8590 N   0  0  0  0  0  0  0  0  0  0  0  0
  -33.1700  -15.6290   20.9800 H   0  0  0  0  0  0  0  0  0  0  0  0
  -27.0740  -14.3270   20.3970 C   0  0  0  0  0  0  0  0  0  0  0  0
  -25.8680  -13.8000   20.7810 C   0  0  0  0  0  0  0  0  0  0  0  0
  -25.9900  -12.3850   20.6240 C   0  0  0  0  0  0  0  0  0  0  0  0
  -27.8650  -13.2450   20.0440 N   0  0  0  0  0  0  0  0  0  0  0  0
  -27.2170  -12.0680   20.2310 N   0  0  0  0  0  0  0  0  0  0  0  0
  -24.9950  -11.3160   20.7660 C   0  0  0  0  0  0  0  0  0  0  0  0
  -25.2410  -10.1850   21.5750 C   0  0  0  0  0  3  0  0  0  0  0  0
  -24.2610   -9.1770   21.7100 C   0  0  0  0  0  3  0  0  0  0  0  0
  -23.0220   -9.2980   21.0390 C   0  0  0  0  0  0  0  0  0  0  0  0
  -22.7930  -10.4160   20.2180 C   0  0  0  0  0  3  0  0  0  0  0  0
  -23.7700  -11.4150   20.0790 C   0  0  0  0  0  3  0  0  0  0  0  0
  -22.0200   -8.3610   21.0920 O   0  0  0  0  0  0  0  0  0  0  0  0
  -21.8600   -7.5390   22.1780 C   0  0  0  0  0  0  0  0  0  0  0  0
  -21.6580   -8.0510   23.4780 C   0  0  0  0  0  3  0  0  0  0  0  0
  -21.4280   -7.1720   24.5540 C   0  0  0  0  0  3  0  0  0  0  0  0
  -21.3920   -5.7820   24.3340 C   0  0  0  0  0  0  0  0  0  0  0  0
  -21.5910   -5.2700   23.0390 C   0  0  0  0  0  3  0  0  0  0  0  0
  -21.8220   -6.1460   21.9650 C   0  0  0  0  0  0  0  0  0  0  0  0
  -21.9900   -5.6470   20.7170 F   0  0  0  0  0  0  0  0  0  0  0  0
  -21.1640   -4.9370   25.3650 F   0  0  0  0  0  0  0  0  0  0  0  0
  -24.6360  -14.5680   21.1650 C   0  0  0  0  0  0  0  0  0  0  0  0
  -23.8230  -14.0140   22.0560 N   0  0  0  0  0  0  0  0  0  0  0  0
  -24.4120  -15.6880   20.7090 O   0  0  0  0  0  0  0  0  0  0  0  0
  -24.0240  -13.1110   22.4600 H   0  0  0  0  0  0  0  0  0  0  0  0
  -22.9860  -14.5040   22.3430 H   0  0  0  0  0  0  0  0  0  0  0  0
  -27.5510  -15.6310   20.2940 N   0  0  0  0  0  0  0  0  0  0  0  0
  -26.8950  -16.4000   20.3740 H   0  0  0  0  0  0  0  0  0  0  0  0
  -28.3480  -15.8490   19.7100 H   0  0  0  0  0  0  0  0  0  0  0  0
  1  2  2  0
  1  4  1  0
  2  6  1  0
  3  5  1  0
  4  3  2  0
  5 53  1  0
  6  7  1  0
  6  5  2  0
  8  4  1  0
  8 10  1  0
  9  8  2  0
 11 13  1  0
 11 10  1  0
 12 23  2  0
 13 18  1  0
 14 22  1  0
 14 24  1  0
 15 21  1  0
 15 17  1  0
 16 22  1  0
 17 16  1  0
 18 17  2  0
 19 20  1  0
 19 13  2  0
 20 15  2  0
 21 14  1  0
 22 12  1  0
 24 26  2  0
 25 24  1  0
 27 25  1  0
 28 37  2  0
 28 33  1  0
 29 25  1  0
 29 33  1  0
 30 29  1  0
 31 32  1  0
 31 30  1  0
 32 28  1  0
 33 34  2  0
 34 35  1  0
 36 35  2  0
 37 36  1  0
 38 12  1  0
 38 39  1  0
 38 48  1  0
 39 42  1  0
 40 44  1  0
 40 39  1  0
 41 40  2  0
 44 43  1  0
 46 44  1  0
 46 47  1  0
 46 45  1  0
 48 51  1  1
 48 49  1  0
 50 48  1  0
 53 52  1  0
 54 53  1  0
 54 55  1  0
 56 54  1  0
 57 54  1  0
 57 58  1  0
 59 58  1  0
 60 66  1  0
 60 68  1  0
 61 66  1  0
 62 63  1  0
 62 61  1  0
 64 63  1  0
 64 73  1  0
 64 65  1  0
 66 65  1  0
 67 60  2  0
 68 69  1  0
 68 59  1  0
 70 71  2  0
 71 90  1  0
 72 75  1  0
 72 71  1  0
 73 74  1  0
 73 70  1  0
 74 72  2  0
 75 76  1  0
 76 77  2  0
 78 81  1  0
 78 77  1  0
 79 78  2  0
 80 79  1  0
 80 75  2  0
 81 82  1  0
 82 83  1  0
 83 84  2  0
 85 84  1  0
 85 89  1  0
 86 85  2  0
 87 82  2  0
 87 86  1  0
 88 87  1  0
 90 91  1  0
 91 94  1  0
 91 93  1  0
 92 90  2  0
 95 96  1  0
 95 70  1  0
 97 95  1  0
M  ISO  4  10 101  11 101  60 100  68 100
M  END
>  <TORSDO>  (12) 
F 23

>  <SCORE>  (12) 
-9.951

>  <name>  (12) 
11

>  <ligand_id>  (12) 
11

>  <original_smiles>  (12) 
[H]c1c([H])c([H])c2c(c1[H])C([H])([H])C([H])([H])C([H])([H])C2([H])N([H])C(=O)C1([H])N(C(=O)C([H])(N([H])C(=O)C([H])(N([H])C([H])([H])[H])C([H])([H])[H])C(C([H])([H])[H])(C([H])([H])[H])C([H])([H])[H])C([H])([H])c2c([H])c(OC([H])([H])C(=O)c3c([H])c([H])c(F)c(C([H])(C([H])([H])[H])[N+]([H])([H])C([H])([H])C([H])([H])C([H])([H])N([H])C(=O)N4C([H])([H])C([H])([H])C([H])([H])C([H])(n5nc(-c6c([H])c([H])c(Oc7c([H])c([H])c(F)c([H])c7F)c([H])c6[H])c(C(=O)N([H])[H])c5N([H])[H])C4([H])[H])c3[H])c([H])c([H])c2C1([H])[H]

>  <smiles>  (12) 
[H]c1c([H])c([H])c2c(c1[H])C([H])([H])C([H])([H])C([H])([H])C2([H])N([H])C(=O)C1([H])N(C(=O)C([H])(N([H])C(=O)C([H])(N([H])C([H])([H])[H])C([H])([H])[H])C(C([H])([H])[H])(C([H])([H])[H])C([H])([H])[H])C([H])([H])c2c([H])c(OC([H])([H])C(=O)c3c([H])c([H])c(F)c(C([H])(C([H])([H])[H])[N+]([H])([H])C([H])([H])C([H])([H])C([H])([H])N([H])C(=O)N4C([H])([H])C([H])([H])C([H])([H])C([H])(n5nc(-c6c([H])c([H])c(Oc7c([H])c([H])c(F)c([H])c7F)c([H])c6[H])c(C(=O)N([H])[H])c5N([H])[H])C4([H])[H])c3[H])c([H])c([H])c2C1([H])[H]

$$$$
12:0:0
     RDKit          3D

102110  0  0  1  0  0  0  0  0999 V2000
  -29.6270  -21.9020   23.5300 C   0  0  0  0  0  3  0  0  0  0  0  0
  -29.9140  -20.6100   23.0540 C   0  0  0  0  0  3  0  0  0  0  0  0
  -29.9050  -22.7810   21.2780 C   0  0  0  0  0  3  0  0  0  0  0  0
  -29.5930  -22.9980   22.6370 C   0  0  0  0  0  0  0  0  0  0  0  0
  -30.1900  -20.3890   21.6890 C   0  0  0  0  0  0  0  0  0  0  0  0
  -30.2110  -21.4900   20.7970 C   0  0  0  0  0  0  0  0  0  0  0  0
  -30.5340  -21.3170   19.3210 C   0  0  0  0  0  1  0  0  0  0  0  0
  -28.8710  -24.5060   24.5960 C   0  0  0  0  0  1  0  0  0  0  0  0
  -29.2030  -24.4050   23.0970 C   0  0  0  0  0  3  0  0  0  0  0  0
  -30.2560  -25.3750   22.7190 N   0  0  0  0  0  4  0  0  0  0  0  0
  -30.7930  -25.6260   23.5330 H   0  0  0  0  0  0  0  0  0  0  0  0
  -30.8810  -24.8840   22.0990 H   0  0  0  0  0  0  0  0  0  0  0  0
  -29.7740  -26.5930   22.0170 C   0  0  0  0  0  2  0  0  0  0  0  0
  -29.4470  -27.7650   22.9640 C   0  0  0  0  0  2  0  0  0  0  0  0
  -28.2350  -28.3690   22.5180 O   0  0  0  0  0  0  0  0  0  0  0  0
  -28.0350  -32.0760   28.5940 C   0  0  0  0  0  0  0  0  0  0  0  0
  -27.4820  -28.9230   23.5210 C   0  0  0  0  0  0  0  0  0  0  0  0
  -25.9320  -30.9470   27.9390 C   0  0  0  0  0  3  0  0  0  0  0  0
  -25.8750  -30.0030   25.5680 C   0  0  0  0  0  0  0  0  0  0  0  0
  -27.6160  -31.6950   26.1710 C   0  0  0  0  0  2  0  0  0  0  0  0
  -27.1480  -30.5340   25.3220 C   0  0  0  0  0  0  0  0  0  0  0  0
  -27.9600  -29.9950   24.3050 C   0  0  0  0  0  3  0  0  0  0  0  0
  -26.1970  -28.4020   23.7650 C   0  0  0  0  0  3  0  0  0  0  0  0
  -25.3940  -28.9290   24.7970 C   0  0  0  0  0  3  0  0  0  0  0  0
  -25.0740  -30.6410   26.6820 C   0  0  0  0  0  2  0  0  0  0  0  0
  -27.2510  -31.5730   27.5990 N   0  0  0  0  0  0  0  0  0  0  0  0
  -27.6600  -32.0610   29.7740 O   0  0  0  0  0  0  0  0  0  0  0  0
  -26.0660  -29.6500   28.7690 C   0  0  0  0  0  0  0  0  0  0  0  0
  -25.0880  -29.4050   29.6560 N   0  0  0  0  0  0  0  0  0  0  0  0
  -27.0130  -28.8790   28.5890 O   0  0  0  0  0  0  0  0  0  0  0  0
  -24.3500  -30.0900   29.7460 H   0  0  0  0  0  0  0  0  0  0  0  0
  -23.1850  -27.9350   32.3510 C   0  0  0  0  0  0  0  0  0  0  0  0
  -24.9820  -28.2280   30.5170 C   0  0  0  0  0  3  0  0  0  0  0  0
  -24.2790  -27.0640   29.7830 C   0  0  0  0  0  2  0  0  0  0  0  0
  -22.7680  -27.0220   30.0270 C   0  0  0  0  0  2  0  0  0  0  0  0
  -22.4690  -26.8800   31.5230 C   0  0  0  0  0  2  0  0  0  0  0  0
  -24.3550  -28.5780   31.8710 C   0  0  0  0  0  0  0  0  0  0  0  0
  -24.9630  -29.5770   32.6640 C   0  0  0  0  0  3  0  0  0  0  0  0
  -24.4210  -29.9330   33.9130 C   0  0  0  0  0  3  0  0  0  0  0  0
  -23.2720  -29.2800   34.3910 C   0  0  0  0  0  3  0  0  0  0  0  0
  -22.6590  -28.2810   33.6140 C   0  0  0  0  0  3  0  0  0  0  0  0
  -29.4310  -32.7090   28.2950 C   0  0  0  0  0  3  0  0  0  0  0  0
  -30.6340  -31.7340   28.5960 C   0  0  1  0  0  0  0  0  0  0  0  0
  -30.5820  -31.0970   30.0050 C   0  0  0  0  0  1  0  0  0  0  0  0
  -30.6760  -30.5860   27.5600 C   0  0  0  0  0  1  0  0  0  0  0  0
  -31.9740  -32.4960   28.4610 C   0  0  0  0  0  1  0  0  0  0  0  0
  -29.5400  -33.9340   29.0980 N   0  0  0  0  0  0  0  0  0  0  0  0
  -29.3200  -35.1700   28.6290 C   0  0  0  0  0  0  0  0  0  0  0  0
  -29.0720  -35.4020   27.4420 O   0  0  0  0  0  0  0  0  0  0  0  0
  -29.6830  -33.8130   30.0890 H   0  0  0  0  0  0  0  0  0  0  0  0
  -27.9640  -36.7210   30.0690 C   0  0  0  0  0  1  0  0  0  0  0  0
  -29.3870  -36.3330   29.6370 C   0  0  0  0  0  3  0  0  0  0  0  0
  -31.5170  -37.2980   28.8910 C   0  0  0  0  0  1  0  0  0  0  0  0
  -30.0930  -37.5230   29.1140 N   0  0  0  0  0  0  0  0  0  0  0  0
  -29.9930  -38.3100   29.7510 H   0  0  0  0  0  0  0  0  0  0  0  0
  -30.4180  -18.9560   21.2290 C   0  0  0  0  0  2  0  0  0  0  0  0
  -31.9120  -18.5920   21.1240 C   0  0  0  0  0  2  0  0  0  0  0  0
  -32.1620  -17.2080   20.4720 C   0  0  0  0  0  3  0  0  0  0  0  0
  -32.2390  -16.1460   21.4970 N   0  0  0  0  0  4  0  0  0  0  0  0
  -33.0160  -16.2930   22.1200 H   0  0  0  0  0  0  0  0  0  0  0  0
  -32.3580  -15.2440   21.0710 H   0  0  0  0  0  0  0  0  0  0  0  0
  -31.4030  -16.1080   22.0520 H   0  0  0  0  0  0  0  0  0  0  0  0
  -33.4330  -17.1370   19.5690 C   0  0  0  0  0  2  0  0  0  0  0  0
  -34.0150  -17.3510   17.0560 C   0  0  0  0  0  0  0  0  0  0  0  0
  -36.2530  -17.0190   16.0720 C   0  0  0  0  0  2  0  0  0  0  0  0
  -36.3120  -15.7980   15.1310 C   0  0  0  0  0  2  0  0  0  0  0  0
  -36.6490  -14.5180   15.9150 C   0  0  0  0  0  2  0  0  0  0  0  0
  -35.7490  -14.3530   17.1610 C   0  0  0  0  0  3  0  0  0  0  0  0
  -35.7350  -15.6600   17.9810 C   0  0  0  0  0  2  0  0  0  0  0  0
  -35.2620  -16.7850   17.1460 N   0  0  0  0  0  0  0  0  0  0  0  0
  -33.6580  -17.8780   15.9950 O   0  0  0  0  0  0  0  0  0  0  0  0
  -33.2360  -17.5620   18.1680 N   0  0  0  0  0  0  0  0  0  0  0  0
  -35.6780  -11.9230   18.0220 C   0  0  0  0  0  0  0  0  0  0  0  0
  -36.4650  -11.2460   18.9160 C   0  0  0  0  0  0  0  0  0  0  0  0
  -37.4300  -12.1880   19.3840 C   0  0  0  0  0  0  0  0  0  0  0  0
  -36.1740  -13.2180   17.9820 N   0  0  0  0  0  0  0  0  0  0  0  0
  -37.2030  -13.3830   18.8540 N   0  0  0  0  0  0  0  0  0  0  0  0
  -38.5910  -12.0100   20.2660 C   0  0  0  0  0  0  0  0  0  0  0  0
  -38.7090  -12.7120   21.4860 C   0  0  0  0  0  3  0  0  0  0  0  0
  -39.8270  -12.5110   22.3240 C   0  0  0  0  0  3  0  0  0  0  0  0
  -40.8400  -11.5990   21.9470 C   0  0  0  0  0  0  0  0  0  0  0  0
  -40.7310  -10.9190   20.7210 C   0  0  0  0  0  3  0  0  0  0  0  0
  -39.6200  -11.1240   19.8860 C   0  0  0  0  0  3  0  0  0  0  0  0
  -41.9750  -11.3600   22.6840 O   0  0  0  0  0  0  0  0  0  0  0  0
  -41.9740  -11.4430   24.0540 C   0  0  0  0  0  0  0  0  0  0  0  0
  -41.0650  -10.7080   24.8440 C   0  0  0  0  0  3  0  0  0  0  0  0
  -41.1440  -10.7690   26.2510 C   0  0  0  0  0  3  0  0  0  0  0  0
  -42.1370  -11.5540   26.8660 C   0  0  0  0  0  0  0  0  0  0  0  0
  -43.0480  -12.2820   26.0820 C   0  0  0  0  0  3  0  0  0  0  0  0
  -42.9690  -12.2240   24.6790 C   0  0  0  0  0  0  0  0  0  0  0  0
  -43.8620  -12.9100   23.9250 F   0  0  0  0  0  0  0  0  0  0  0  0
  -42.2190  -11.6070   28.2160 F   0  0  0  0  0  0  0  0  0  0  0  0
  -36.3900   -9.7830   19.2460 C   0  0  0  0  0  0  0  0  0  0  0  0
  -36.8010   -9.4040   20.4520 N   0  0  0  0  0  0  0  0  0  0  0  0
  -35.9220   -8.9690   18.4500 O   0  0  0  0  0  0  0  0  0  0  0  0
  -37.1680  -10.0740   21.1110 H   0  0  0  0  0  0  0  0  0  0  0  0
  -36.7470   -8.4310   20.7190 H   0  0  0  0  0  0  0  0  0  0  0  0
  -34.5970  -11.5470   17.2310 N   0  0  0  0  0  0  0  0  0  0  0  0
  -34.2900  -10.5820   17.1750 H   0  0  0  0  0  0  0  0  0  0  0  0
  -34.1960  -12.1320   16.5090 H   0  0  0  0  0  0  0  0  0  0  0  0
  -32.4050  -19.9360   18.1380 C   0  0  0  0  0  1  0  0  0  0  0  0
  -32.0460  -18.4430   18.0440 C   0  0  0  0  0  2  0  0  0  0  0  0
  2  1  1  0
  3  4  1  0
  4  9  1  0
  4  1  2  0
  5  2  2  0
  6  3  2  0
  6  5  1  0
  7  6  1  0
  9  8  1  0
 10  9  1  0
 10 11  1  0
 12 10  1  0
 13 10  1  0
 13 14  1  0
 15 14  1  0
 15 17  1  0
 16 27  2  0
 17 23  2  0
 17 22  1  0
 18 28  1  0
 19 25  1  0
 20 26  1  0
 21 19  1  0
 21 20  1  0
 22 21  2  0
 23 24  1  0
 24 19  2  0
 25 18  1  0
 26 18  1  0
 26 16  1  0
 28 29  1  0
 29 31  1  0
 30 28  2  0
 32 41  1  0
 33 29  1  0
 33 37  1  0
 34 35  1  0
 34 33  1  0
 35 36  1  0
 36 32  1  0
 37 32  2  0
 37 38  1  0
 38 39  2  0
 39 40  1  0
 41 40  2  0
 42 16  1  0
 42 43  1  0
 42 47  1  0
 43 44  1  1
 45 43  1  0
 46 43  1  0
 47 50  1  0
 48 47  1  0
 48 52  1  0
 49 48  2  0
 52 51  1  0
 53 54  1  0
 54 52  1  0
 54 55  1  0
 56  5  1  0
 57 56  1  0
 58 63  1  0
 58 57  1  0
 58 59  1  0
 59 62  1  0
 59 60  1  0
 61 59  1  0
 64 70  1  0
 64 72  1  0
 65 70  1  0
 66 67  1  0
 66 65  1  0
 68 67  1  0
 68 69  1  0
 68 76  1  0
 70 69  1  0
 71 64  2  0
 72 63  1  0
 73 74  2  0
 74 93  1  0
 74 75  1  0
 75 78  1  0
 76 73  1  0
 76 77  1  0
 77 75  2  0
 78 79  1  0
 79 80  2  0
 81 80  1  0
 81 84  1  0
 82 81  2  0
 83 78  2  0
 83 82  1  0
 84 85  1  0
 85 90  2  0
 85 86  1  0
 86 87  2  0
 87 88  1  0
 88 92  1  0
 89 88  2  0
 90 89  1  0
 91 90  1  0
 93 94  1  0
 94 97  1  0
 94 96  1  0
 95 93  2  0
 98 73  1  0
 99 98  1  0
100 98  1  0
102101  1  0
102 72  1  0
M  ISO  4  14 101  15 101  64 100  72 100
M  END
>  <TORSDO>  (13) 
F 26

>  <SCORE>  (13) 
-1.058

>  <name>  (13) 
12

>  <ligand_id>  (13) 
12

>  <original_smiles>  (13) 
[H]c1c([H])c([H])c2c(c1[H])C([H])([H])C([H])([H])C([H])([H])C2([H])N([H])C(=O)C1([H])N(C(=O)C([H])(N([H])C(=O)C([H])(N([H])C([H])([H])[H])C([H])([H])[H])C(C([H])([H])[H])(C([H])([H])[H])C([H])([H])[H])C([H])([H])c2c([H])c(OC([H])([H])C([H])([H])[N+]([H])([H])C([H])(c3c([H])c([H])c(C([H])([H])C([H])([H])C([H])(C([H])([H])N(C(=O)N4C([H])([H])C([H])([H])C([H])([H])C([H])(n5nc(-c6c([H])c([H])c(Oc7c([H])c([H])c(F)c([H])c7F)c([H])c6[H])c(C(=O)N([H])[H])c5N([H])[H])C4([H])[H])C([H])([H])C([H])([H])[H])[N+]([H])([H])[H])c(C([H])([H])[H])c3[H])C([H])([H])[H])c([H])c([H])c2C1([H])[H]

>  <smiles>  (13) 
[H]c1c([H])c([H])c2c(c1[H])C([H])([H])C([H])([H])C([H])([H])C2([H])N([H])C(=O)C1([H])N(C(=O)C([H])(N([H])C(=O)C([H])(N([H])C([H])([H])[H])C([H])([H])[H])C(C([H])([H])[H])(C([H])([H])[H])C([H])([H])[H])C([H])([H])c2c([H])c(OC([H])([H])C([H])([H])[N+]([H])([H])C([H])(c3c([H])c([H])c(C([H])([H])C([H])([H])C([H])(C([H])([H])N(C(=O)N4C([H])([H])C([H])([H])C([H])([H])C([H])(n5nc(-c6c([H])c([H])c(Oc7c([H])c([H])c(F)c([H])c7F)c([H])c6[H])c(C(=O)N([H])[H])c5N([H])[H])C4([H])[H])C([H])([H])C([H])([H])[H])[N+]([H])([H])[H])c(C([H])([H])[H])c3[H])C([H])([H])[H])c([H])c([H])c2C1([H])[H]

$$$$
13:0:0
     RDKit          3D

 96104  0  0  1  0  0  0  0  0999 V2000
  -27.1510  -21.9060   21.5190 C   0  0  0  0  0  3  0  0  0  0  0  0
  -27.7770  -22.6510   19.2940 C   0  0  0  0  0  3  0  0  0  0  0  0
  -28.1630  -20.9320   21.4860 C   0  0  0  0  0  3  0  0  0  0  0  0
  -28.7860  -21.6630   19.2520 C   0  0  0  0  0  3  0  0  0  0  0  0
  -26.9370  -22.7780   20.4280 C   0  0  0  0  0  0  0  0  0  0  0  0
  -28.9900  -20.8070   20.3550 C   0  0  0  0  0  0  0  0  0  0  0  0
  -25.8970  -23.8610   20.5880 C   0  0  0  0  0  0  0  0  0  0  0  0
  -25.6410  -24.7520   19.6170 N   0  0  0  0  0  0  0  0  0  0  0  0
  -25.1780  -23.8430   21.5880 O   0  0  0  0  0  0  0  0  0  0  0  0
  -24.8060  -25.2900   19.7980 H   0  0  0  0  0  0  0  0  0  0  0  0
  -26.4710  -25.2890   18.5390 C   0  0  0  0  0  2  0  0  0  0  0  0
  -26.1710  -24.7360   17.1220 C   0  0  0  0  0  2  0  0  0  0  0  0
  -25.8160  -25.7380   15.9880 C   0  0  0  0  0  2  0  0  0  0  0  0
  -26.1630  -27.1050   16.2310 O   0  0  0  0  0  0  0  0  0  0  0  0
  -25.8820  -28.9290   23.0840 C   0  0  0  0  0  0  0  0  0  0  0  0
  -25.4610  -27.8170   17.1840 C   0  0  0  0  0  0  0  0  0  0  0  0
  -23.8740  -29.4720   21.7480 C   0  0  0  0  0  3  0  0  0  0  0  0
  -24.1210  -29.2400   19.2270 C   0  0  0  0  0  0  0  0  0  0  0  0
  -26.1790  -29.3520   20.6410 C   0  0  0  0  0  2  0  0  0  0  0  0
  -25.4780  -28.9260   19.3690 C   0  0  0  0  0  0  0  0  0  0  0  0
  -26.1540  -28.2260   18.3480 C   0  0  0  0  0  3  0  0  0  0  0  0
  -24.0830  -28.1220   17.0710 C   0  0  0  0  0  3  0  0  0  0  0  0
  -23.4160  -28.8340   18.0820 C   0  0  0  0  0  3  0  0  0  0  0  0
  -23.4720  -30.0100   20.3520 C   0  0  0  0  0  2  0  0  0  0  0  0
  -25.3470  -29.2140   21.8610 N   0  0  0  0  0  0  0  0  0  0  0  0
  -25.1810  -28.9270   24.1050 O   0  0  0  0  0  0  0  0  0  0  0  0
  -23.0050  -28.2360   22.0710 C   0  0  0  0  0  0  0  0  0  0  0  0
  -21.6750  -28.4150   22.0280 N   0  0  0  0  0  0  0  0  0  0  0  0
  -23.5250  -27.1450   22.3250 O   0  0  0  0  0  0  0  0  0  0  0  0
  -21.3320  -29.3410   21.8100 H   0  0  0  0  0  0  0  0  0  0  0  0
  -18.1580  -27.6550   21.6640 C   0  0  0  0  0  0  0  0  0  0  0  0
  -20.6610  -27.3870   22.2590 C   0  0  0  0  0  3  0  0  0  0  0  0
  -20.7030  -26.3030   21.1570 C   0  0  0  0  0  2  0  0  0  0  0  0
  -19.7360  -26.5790   20.0010 C   0  0  0  0  0  2  0  0  0  0  0  0
  -18.2950  -26.6710   20.5140 C   0  0  0  0  0  2  0  0  0  0  0  0
  -19.2730  -28.0030   22.4720 C   0  0  0  0  0  0  0  0  0  0  0  0
  -19.0990  -28.9460   23.5080 C   0  0  0  0  0  3  0  0  0  0  0  0
  -17.8450  -29.5390   23.7390 C   0  0  0  0  0  3  0  0  0  0  0  0
  -16.7410  -29.1810   22.9460 C   0  0  0  0  0  3  0  0  0  0  0  0
  -16.8980  -28.2380   21.9160 C   0  0  0  0  0  3  0  0  0  0  0  0
  -27.4020  -28.6200   23.2550 C   0  0  0  0  0  3  0  0  0  0  0  0
  -27.8500  -29.2820   24.4890 N   0  0  0  0  0  0  0  0  0  0  0  0
  -28.6000  -30.3900   24.5260 C   0  0  0  0  0  0  0  0  0  0  0  0
  -29.0510  -30.9280   23.5110 O   0  0  0  0  0  0  0  0  0  0  0  0
  -27.4740  -28.9250   25.3550 H   0  0  0  0  0  0  0  0  0  0  0  0
  -28.0050  -32.2400   26.1220 C   0  0  0  0  0  1  0  0  0  0  0  0
  -28.8950  -31.0050   25.9080 C   0  0  0  0  0  3  0  0  0  0  0  0
  -31.2070  -30.2190   26.1680 C   0  0  0  0  0  1  0  0  0  0  0  0
  -30.3160  -31.3730   26.0960 N   0  0  0  0  0  0  0  0  0  0  0  0
  -30.4390  -31.9250   26.9420 H   0  0  0  0  0  0  0  0  0  0  0  0
  -27.7230  -27.0740   23.2990 C   0  0  1  0  0  0  0  0  0  0  0  0
  -26.8630  -26.2850   24.3150 C   0  0  0  0  0  1  0  0  0  0  0  0
  -27.5130  -26.4370   21.9060 C   0  0  0  0  0  1  0  0  0  0  0  0
  -29.2090  -26.8590   23.6690 C   0  0  0  0  0  1  0  0  0  0  0  0
  -29.9970  -19.8810   20.4070 O   0  0  0  0  0  0  0  0  0  0  0  0
  -30.0160  -18.8740   19.4040 C   0  0  0  0  0  2  0  0  0  0  0  0
  -30.7380  -17.6990   20.0690 C   0  0  0  0  0  2  0  0  0  0  0  0
  -31.3380  -16.6480   19.1210 C   0  0  0  0  0  2  0  0  0  0  0  0
  -31.8170  -14.2050   19.4590 C   0  0  0  0  0  0  0  0  0  0  0  0
  -31.7890  -11.7690   19.8680 C   0  0  0  0  0  2  0  0  0  0  0  0
  -30.9130  -11.0380   18.8300 C   0  0  0  0  0  2  0  0  0  0  0  0
  -29.4330  -11.0320   19.2570 C   0  0  0  0  0  2  0  0  0  0  0  0
  -28.9270  -12.4440   19.6530 C   0  0  0  0  0  3  0  0  0  0  0  0
  -29.9040  -13.0920   20.6590 C   0  0  0  0  0  2  0  0  0  0  0  0
  -31.2540  -13.1240   20.0560 N   0  0  0  0  0  0  0  0  0  0  0  0
  -32.7970  -14.1550   18.7070 O   0  0  0  0  0  0  0  0  0  0  0  0
  -31.2330  -15.3580   19.7930 N   0  0  0  0  0  0  0  0  0  0  0  0
  -30.5140  -15.2770   20.4950 H   0  0  0  0  0  0  0  0  0  0  0  0
  -26.6950  -13.4220   20.4910 C   0  0  0  0  0  0  0  0  0  0  0  0
  -25.5280  -12.8240   20.8840 C   0  0  0  0  0  0  0  0  0  0  0  0
  -25.7490  -11.4160   20.7770 C   0  0  0  0  0  0  0  0  0  0  0  0
  -27.5650  -12.3860   20.1820 N   0  0  0  0  0  0  0  0  0  0  0  0
  -26.9980  -11.1730   20.4030 N   0  0  0  0  0  0  0  0  0  0  0  0
  -24.8270  -10.2860   20.9560 C   0  0  0  0  0  0  0  0  0  0  0  0
  -24.9680   -9.3780   22.0290 C   0  0  0  0  0  3  0  0  0  0  0  0
  -24.0600   -8.3080   22.1870 C   0  0  0  0  0  3  0  0  0  0  0  0
  -22.9950   -8.1440   21.2700 C   0  0  0  0  0  0  0  0  0  0  0  0
  -22.8710   -9.0360   20.1910 C   0  0  0  0  0  3  0  0  0  0  0  0
  -23.7800  -10.0960   20.0330 C   0  0  0  0  0  3  0  0  0  0  0  0
  -22.0780   -7.1220   21.3340 O   0  0  0  0  0  0  0  0  0  0  0  0
  -21.5180   -6.7300   22.5240 C   0  0  0  0  0  0  0  0  0  0  0  0
  -20.7960   -7.6280   23.3390 C   0  0  0  0  0  3  0  0  0  0  0  0
  -20.1780   -7.1680   24.5190 C   0  0  0  0  0  3  0  0  0  0  0  0
  -20.2700   -5.8100   24.8800 C   0  0  0  0  0  0  0  0  0  0  0  0
  -20.9860   -4.9130   24.0680 C   0  0  0  0  0  3  0  0  0  0  0  0
  -21.6060   -5.3710   22.8920 C   0  0  0  0  0  0  0  0  0  0  0  0
  -22.2750   -4.5000   22.1020 F   0  0  0  0  0  0  0  0  0  0  0  0
  -19.6690   -5.3660   26.0090 F   0  0  0  0  0  0  0  0  0  0  0  0
  -24.2440  -13.5140   21.2480 C   0  0  0  0  0  0  0  0  0  0  0  0
  -23.4660  -12.9290   22.1520 N   0  0  0  0  0  0  0  0  0  0  0  0
  -23.9490  -14.6070   20.7670 O   0  0  0  0  0  0  0  0  0  0  0  0
  -23.7140  -12.0390   22.5590 H   0  0  0  0  0  0  0  0  0  0  0  0
  -22.6080  -13.3740   22.4430 H   0  0  0  0  0  0  0  0  0  0  0  0
  -27.0860  -14.7520   20.3510 N   0  0  0  0  0  0  0  0  0  0  0  0
  -26.4460  -15.5250   20.4980 H   0  0  0  0  0  0  0  0  0  0  0  0
  -27.9850  -15.0470   19.9920 H   0  0  0  0  0  0  0  0  0  0  0  0
  2  5  1  0
  3  1  1  0
  4  2  2  0
  4  6  1  0
  5  7  1  0
  5  1  2  0
  6 55  1  0
  6  3  2  0
  7  9  2  0
  8 10  1  0
  8  7  1  0
 11  8  1  0
 12 11  1  0
 13 14  1  0
 13 12  1  0
 14 16  1  0
 15 26  2  0
 16 21  1  0
 17 25  1  0
 17 27  1  0
 18 20  1  0
 18 24  1  0
 19 25  1  0
 20 19  1  0
 21 20  2  0
 22 16  2  0
 22 23  1  0
 23 18  2  0
 24 17  1  0
 25 15  1  0
 27 29  2  0
 28 27  1  0
 30 28  1  0
 31 40  2  0
 31 36  1  0
 32 28  1  0
 32 36  1  0
 33 32  1  0
 34 35  1  0
 34 33  1  0
 35 31  1  0
 36 37  2  0
 37 38  1  0
 39 38  2  0
 40 39  1  0
 41 15  1  0
 41 51  1  0
 41 42  1  0
 42 43  1  0
 42 45  1  0
 43 47  1  0
 44 43  2  0
 47 49  1  0
 47 46  1  0
 49 48  1  0
 49 50  1  0
 51 54  1  1
 51 52  1  0
 53 51  1  0
 56 57  1  0
 56 55  1  0
 58 67  1  0
 58 57  1  0
 59 67  1  0
 59 65  1  0
 60 65  1  0
 61 62  1  0
 61 60  1  0
 63 62  1  0
 63 72  1  0
 63 64  1  0
 65 64  1  0
 66 59  2  0
 67 68  1  0
 69 70  2  0
 70 89  1  0
 71 70  1  0
 71 74  1  0
 72 73  1  0
 72 69  1  0
 73 71  2  0
 74 75  1  0
 75 76  2  0
 77 80  1  0
 77 76  1  0
 78 77  2  0
 79 78  1  0
 79 74  2  0
 80 81  1  0
 81 86  2  0
 81 82  1  0
 82 83  2  0
 83 84  1  0
 84 88  1  0
 85 84  2  0
 86 85  1  0
 87 86  1  0
 89 90  1  0
 90 93  1  0
 90 92  1  0
 91 89  2  0
 94 69  1  0
 94 95  1  0
 96 94  1  0
M  ISO  4  13 101  14 101  59 100  67 100
M  END
>  <TORSDO>  (14) 
F 24

>  <SCORE>  (14) 
-7.368

>  <name>  (14) 
13

>  <ligand_id>  (14) 
13

>  <original_smiles>  (14) 
[H]c1c([H])c([H])c2c(c1[H])C([H])([H])C([H])([H])C([H])([H])C2([H])N([H])C(=O)C1([H])N(C(=O)C([H])(N([H])C(=O)C([H])(N([H])C([H])([H])[H])C([H])([H])[H])C(C([H])([H])[H])(C([H])([H])[H])C([H])([H])[H])C([H])([H])c2c([H])c(OC([H])([H])C([H])([H])C([H])([H])N([H])C(=O)c3c([H])c([H])c(OC([H])([H])C([H])([H])C([H])([H])N([H])C(=O)N4C([H])([H])C([H])([H])C([H])([H])C([H])(n5nc(-c6c([H])c([H])c(Oc7c([H])c([H])c(F)c([H])c7F)c([H])c6[H])c(C(=O)N([H])[H])c5N([H])[H])C4([H])[H])c([H])c3[H])c([H])c([H])c2C1([H])[H]

>  <smiles>  (14) 
[H]c1c([H])c([H])c2c(c1[H])C([H])([H])C([H])([H])C([H])([H])C2([H])N([H])C(=O)C1([H])N(C(=O)C([H])(N([H])C(=O)C([H])(N([H])C([H])([H])[H])C([H])([H])[H])C(C([H])([H])[H])(C([H])([H])[H])C([H])([H])[H])C([H])([H])c2c([H])c(OC([H])([H])C([H])([H])C([H])([H])N([H])C(=O)c3c([H])c([H])c(OC([H])([H])C([H])([H])C([H])([H])N([H])C(=O)N4C([H])([H])C([H])([H])C([H])([H])C([H])(n5nc(-c6c([H])c([H])c(Oc7c([H])c([H])c(F)c([H])c7F)c([H])c6[H])c(C(=O)N([H])[H])c5N([H])[H])C4([H])[H])c([H])c3[H])c([H])c([H])c2C1([H])[H]

$$$$
14:0:0
     RDKit          3D

 91 99  0  0  1  0  0  0  0  0999 V2000
  -30.4420  -20.9550   23.1860 C   0  0  0  0  0  3  0  0  0  0  0  0
  -30.7250  -19.6620   22.7160 C   0  0  0  0  0  3  0  0  0  0  0  0
  -29.9430  -21.9360   22.3150 C   0  0  0  0  0  3  0  0  0  0  0  0
  -30.0420  -20.3430   20.4730 C   0  0  0  0  0  3  0  0  0  0  0  0
  -30.5430  -19.3360   21.3530 C   0  0  0  0  0  0  0  0  0  0  0  0
  -29.7210  -21.6600   20.9480 C   0  0  0  0  0  0  0  0  0  0  0  0
  -28.8540  -22.3900   18.6020 C   0  0  0  0  0  1  0  0  0  0  0  0
  -28.9840  -22.7370   20.1030 C   0  0  0  0  0  3  0  0  0  0  0  0
  -29.3980  -24.2480   20.3060 C   0  0  0  0  0  2  0  0  0  0  0  0
  -28.1530  -25.1870   20.3220 C   0  0  0  0  0  2  0  0  0  0  0  0
  -28.3730  -26.6260   20.2070 O   0  0  0  0  0  0  0  0  0  0  0  0
  -24.5690  -31.9010   23.2400 C   0  0  0  0  0  0  0  0  0  0  0  0
  -27.2230  -27.4150   20.1700 C   0  0  0  0  0  0  0  0  0  0  0  0
  -23.3790  -30.4970   21.6010 C   0  0  0  0  0  3  0  0  0  0  0  0
  -24.8400  -28.9700   20.1730 C   0  0  0  0  0  0  0  0  0  0  0  0
  -25.9110  -30.8480   21.4140 C   0  0  0  0  0  2  0  0  0  0  0  0
  -26.0010  -29.4790   20.7620 C   0  0  0  0  0  0  0  0  0  0  0  0
  -27.1960  -28.7090   20.7610 C   0  0  0  0  0  3  0  0  0  0  0  0
  -26.0400  -26.9550   19.5460 C   0  0  0  0  0  3  0  0  0  0  0  0
  -24.8550  -27.7090   19.5620 C   0  0  0  0  0  3  0  0  0  0  0  0
  -23.5950  -29.8250   20.2200 C   0  0  0  0  0  2  0  0  0  0  0  0
  -24.6390  -31.0950   22.1440 N   0  0  0  0  0  0  0  0  0  0  0  0
  -23.4840  -32.1720   23.7720 O   0  0  0  0  0  0  0  0  0  0  0  0
  -22.7300  -29.4700   22.5550 C   0  0  0  0  0  0  0  0  0  0  0  0
  -21.4060  -29.2800   22.4200 N   0  0  0  0  0  0  0  0  0  0  0  0
  -23.4140  -28.8470   23.3710 O   0  0  0  0  0  0  0  0  0  0  0  0
  -20.9170  -29.8420   21.7360 H   0  0  0  0  0  0  0  0  0  0  0  0
  -18.0240  -28.0800   22.9060 C   0  0  0  0  0  0  0  0  0  0  0  0
  -20.5850  -28.3360   23.1810 C   0  0  0  0  0  3  0  0  0  0  0  0
  -20.6880  -26.9050   22.5990 C   0  0  0  0  0  2  0  0  0  0  0  0
  -19.5860  -26.5910   21.5820 C   0  0  0  0  0  2  0  0  0  0  0  0
  -18.2040  -26.7340   22.2260 C   0  0  0  0  0  2  0  0  0  0  0  0
  -19.1440  -28.8390   23.3400 C   0  0  0  0  0  0  0  0  0  0  0  0
  -18.9220  -30.1010   23.9330 C   0  0  0  0  0  3  0  0  0  0  0  0
  -17.6160  -30.5990   24.1020 C   0  0  0  0  0  3  0  0  0  0  0  0
  -16.5130  -29.8330   23.6850 C   0  0  0  0  0  3  0  0  0  0  0  0
  -16.7190  -28.5750   23.0910 C   0  0  0  0  0  3  0  0  0  0  0  0
  -25.8500  -32.5330   23.8670 C   0  0  0  0  0  3  0  0  0  0  0  0
  -25.5380  -33.9300   24.1900 N   0  0  0  0  0  0  0  0  0  0  0  0
  -25.8770  -34.9770   23.4290 C   0  0  0  0  0  0  0  0  0  0  0  0
  -26.5570  -34.8660   22.4040 O   0  0  0  0  0  0  0  0  0  0  0  0
  -24.9350  -34.0880   24.9820 H   0  0  0  0  0  0  0  0  0  0  0  0
  -24.1510  -36.7680   23.0520 C   0  0  0  0  0  1  0  0  0  0  0  0
  -25.3870  -36.3690   23.8760 C   0  0  0  0  0  3  0  0  0  0  0  0
  -27.5120  -37.2550   24.7250 C   0  0  0  0  0  1  0  0  0  0  0  0
  -26.4190  -37.4230   23.7710 N   0  0  0  0  0  0  0  0  0  0  0  0
  -26.0120  -38.3440   23.9160 H   0  0  0  0  0  0  0  0  0  0  0  0
  -26.3580  -31.7670   25.1500 C   0  0  1  0  0  0  0  0  0  0  0  0
  -25.2580  -31.5300   26.2130 C   0  0  0  0  0  1  0  0  0  0  0  0
  -26.9450  -30.3900   24.7600 C   0  0  0  0  0  1  0  0  0  0  0  0
  -27.5040  -32.5650   25.8130 C   0  0  0  0  0  1  0  0  0  0  0  0
  -30.9010  -17.8980   20.9070 C   0  0  0  0  0  2  0  0  0  0  0  0
  -29.6870  -16.9480   20.8010 C   0  0  0  0  0  2  0  0  0  0  0  0
  -30.6920  -14.5670   20.5000 C   0  0  0  0  0  0  0  0  0  0  0  0
  -30.5000  -12.3990   19.3240 C   0  0  0  0  0  2  0  0  0  0  0  0
  -29.5520  -12.6190   18.1240 C   0  0  0  0  0  2  0  0  0  0  0  0
  -28.0680  -12.4740   18.5280 C   0  0  0  0  0  2  0  0  0  0  0  0
  -27.7270  -13.2670   19.8180 C   0  0  0  0  0  3  0  0  0  0  0  0
  -28.7770  -12.9790   20.9200 C   0  0  0  0  0  2  0  0  0  0  0  0
  -30.1030  -13.3410   20.3830 N   0  0  0  0  0  0  0  0  0  0  0  0
  -31.7930  -14.8360   20.0140 O   0  0  0  0  0  0  0  0  0  0  0  0
  -29.8740  -15.4940   21.0340 N   0  0  0  0  0  0  0  0  0  0  0  0
  -29.0690  -15.0550   21.4520 H   0  0  0  0  0  0  0  0  0  0  0  0
  -25.3070  -13.8880   20.4520 C   0  0  0  0  0  0  0  0  0  0  0  0
  -24.2310  -13.1240   20.8060 C   0  0  0  0  0  0  0  0  0  0  0  0
  -24.6920  -11.7700   20.8080 C   0  0  0  0  0  0  0  0  0  0  0  0
  -26.3620  -13.0040   20.2660 N   0  0  0  0  0  0  0  0  0  0  0  0
  -25.9900  -11.7250   20.5320 N   0  0  0  0  0  0  0  0  0  0  0  0
  -23.9620  -10.5120   21.0010 C   0  0  0  0  0  0  0  0  0  0  0  0
  -24.3820   -9.5540   21.9520 C   0  0  0  0  0  3  0  0  0  0  0  0
  -23.6530   -8.3600   22.1350 C   0  0  0  0  0  3  0  0  0  0  0  0
  -22.4900   -8.1150   21.3660 C   0  0  0  0  0  0  0  0  0  0  0  0
  -22.0900   -9.0590   20.4040 C   0  0  0  0  0  3  0  0  0  0  0  0
  -22.8200  -10.2450   20.2190 C   0  0  0  0  0  3  0  0  0  0  0  0
  -21.7350   -6.9710   21.4560 O   0  0  0  0  0  0  0  0  0  0  0  0
  -21.6740   -6.2370   22.6140 C   0  0  0  0  0  0  0  0  0  0  0  0
  -21.2340   -6.8040   23.8290 C   0  0  0  0  0  3  0  0  0  0  0  0
  -21.1170   -5.9990   24.9810 C   0  0  0  0  0  3  0  0  0  0  0  0
  -21.4310   -4.6290   24.9160 C   0  0  0  0  0  0  0  0  0  0  0  0
  -21.8650   -4.0610   23.7070 C   0  0  0  0  0  3  0  0  0  0  0  0
  -21.9810   -4.8630   22.5570 C   0  0  0  0  0  0  0  0  0  0  0  0
  -22.3790   -4.3060   21.3870 F   0  0  0  0  0  0  0  0  0  0  0  0
  -21.3150   -3.8540   26.0200 F   0  0  0  0  0  0  0  0  0  0  0  0
  -22.8260  -13.6040   21.0410 C   0  0  0  0  0  0  0  0  0  0  0  0
  -22.0810  -12.9250   21.9040 N   0  0  0  0  0  0  0  0  0  0  0  0
  -22.3980  -14.6180   20.4900 O   0  0  0  0  0  0  0  0  0  0  0  0
  -22.4350  -12.1010   22.3690 H   0  0  0  0  0  0  0  0  0  0  0  0
  -21.1410  -13.2340   22.1120 H   0  0  0  0  0  0  0  0  0  0  0  0
  -25.4700  -15.2570   20.2520 N   0  0  0  0  0  0  0  0  0  0  0  0
  -24.6910  -15.9030   20.3170 H   0  0  0  0  0  0  0  0  0  0  0  0
  -26.3220  -15.6970   19.9320 H   0  0  0  0  0  0  0  0  0  0  0  0
  2  1  1  0
  3  1  2  0
  4  6  2  0
  4  5  1  0
  5  2  2  0
  6  3  1  0
  8  7  1  0
  8  9  1  0
  8  6  1  0
  9 10  1  0
 11 10  1  0
 12 23  2  0
 13 11  1  0
 13 18  1  0
 14 22  1  0
 14 24  1  0
 15 21  1  0
 15 17  1  0
 16 22  1  0
 17 16  1  0
 18 17  2  0
 19 20  1  0
 19 13  2  0
 20 15  2  0
 21 14  1  0
 22 12  1  0
 24 26  2  0
 25 24  1  0
 27 25  1  0
 28 37  2  0
 28 33  1  0
 29 25  1  0
 29 33  1  0
 30 29  1  0
 31 32  1  0
 31 30  1  0
 32 28  1  0
 33 34  2  0
 34 35  1  0
 36 35  2  0
 37 36  1  0
 38 12  1  0
 38 39  1  0
 38 48  1  0
 39 42  1  0
 40 44  1  0
 40 39  1  0
 41 40  2  0
 44 43  1  0
 46 44  1  0
 46 47  1  0
 46 45  1  0
 48 51  1  1
 48 49  1  0
 50 48  1  0
 52  5  1  0
 53 52  1  0
 53 62  1  0
 54 62  1  0
 55 60  1  0
 56 57  1  0
 56 55  1  0
 58 57  1  0
 58 67  1  0
 58 59  1  0
 60 54  1  0
 60 59  1  0
 61 54  2  0
 62 63  1  0
 64 65  2  0
 65 66  1  0
 65 84  1  0
 66 69  1  0
 67 64  1  0
 67 68  1  0
 68 66  2  0
 69 70  1  0
 70 71  2  0
 72 75  1  0
 72 71  1  0
 73 72  2  0
 74 73  1  0
 74 69  2  0
 75 76  1  0
 76 77  1  0
 77 78  2  0
 79 78  1  0
 79 83  1  0
 80 79  2  0
 81 76  2  0
 81 80  1  0
 82 81  1  0
 84 85  1  0
 85 88  1  0
 85 87  1  0
 86 84  2  0
 89 90  1  0
 89 64  1  0
 91 89  1  0
M  ISO  4  10 101  11 101  54 100  62 100
M  END
>  <TORSDO>  (15) 
F 21

>  <SCORE>  (15) 
-13.485

>  <name>  (15) 
14

>  <ligand_id>  (15) 
14

>  <original_smiles>  (15) 
[H]c1c([H])c([H])c2c(c1[H])C([H])([H])C([H])([H])C([H])([H])C2([H])N([H])C(=O)C1([H])N(C(=O)C([H])(N([H])C(=O)C([H])(N([H])C([H])([H])[H])C([H])([H])[H])C(C([H])([H])[H])(C([H])([H])[H])C([H])([H])[H])C([H])([H])c2c([H])c(OC([H])([H])C([H])([H])C([H])(c3c([H])c([H])c([H])c(C([H])([H])C([H])([H])N([H])C(=O)N4C([H])([H])C([H])([H])C([H])([H])C([H])(n5nc(-c6c([H])c([H])c(Oc7c([H])c([H])c(F)c([H])c7F)c([H])c6[H])c(C(=O)N([H])[H])c5N([H])[H])C4([H])[H])c3[H])C([H])([H])[H])c([H])c([H])c2C1([H])[H]

>  <smiles>  (15) 
[H]c1c([H])c([H])c2c(c1[H])C([H])([H])C([H])([H])C([H])([H])C2([H])N([H])C(=O)C1([H])N(C(=O)C([H])(N([H])C(=O)C([H])(N([H])C([H])([H])[H])C([H])([H])[H])C(C([H])([H])[H])(C([H])([H])[H])C([H])([H])[H])C([H])([H])c2c([H])c(OC([H])([H])C([H])([H])C([H])(c3c([H])c([H])c([H])c(C([H])([H])C([H])([H])N([H])C(=O)N4C([H])([H])C([H])([H])C([H])([H])C([H])(n5nc(-c6c([H])c([H])c(Oc7c([H])c([H])c(F)c([H])c7F)c([H])c6[H])c(C(=O)N([H])[H])c5N([H])[H])C4([H])[H])c3[H])C([H])([H])[H])c([H])c([H])c2C1([H])[H]

$$$$
15:0:0
     RDKit          3D

101109  0  0  1  0  0  0  0  0999 V2000
  -29.4470  -19.5890   16.1970 C   0  0  0  0  0  3  0  0  0  0  0  0
  -29.8110  -20.6330   15.3300 C   0  0  0  0  0  3  0  0  0  0  0  0
  -29.0270  -21.2090   17.9670 C   0  0  0  0  0  3  0  0  0  0  0  0
  -29.0170  -19.8730   17.5120 C   0  0  0  0  0  0  0  0  0  0  0  0
  -29.4360  -22.2640   17.1150 C   0  0  0  0  0  0  0  0  0  0  0  0
  -29.8010  -21.9670   15.7760 C   0  0  0  0  0  0  0  0  0  0  0  0
  -27.7300  -17.6930   17.6930 C   0  0  0  0  0  1  0  0  0  0  0  0
  -28.5580  -18.7580   18.4480 C   0  0  0  0  0  3  0  0  0  0  0  0
  -29.7340  -18.2130   19.1730 N   0  0  0  0  0  4  0  0  0  0  0  0
  -30.4850  -18.0780   18.5140 H   0  0  0  0  0  0  0  0  0  0  0  0
  -30.0350  -18.9130   19.8310 H   0  0  0  0  0  0  0  0  0  0  0  0
  -29.5110  -16.9390   19.8830 C   0  0  0  0  0  2  0  0  0  0  0  0
  -30.5340  -16.6600   21.0060 C   0  0  0  0  0  2  0  0  0  0  0  0
  -31.1560  -14.3010   20.7080 C   0  0  0  0  0  0  0  0  0  0  0  0
  -30.7230  -12.3780   19.2470 C   0  0  0  0  0  2  0  0  0  0  0  0
  -29.7880  -12.8430   18.1090 C   0  0  0  0  0  2  0  0  0  0  0  0
  -28.3080  -12.7560   18.5290 C   0  0  0  0  0  2  0  0  0  0  0  0
  -28.0400  -13.3940   19.9170 C   0  0  0  0  0  3  0  0  0  0  0  0
  -29.0780  -12.9000   20.9530 C   0  0  0  0  0  2  0  0  0  0  0  0
  -30.4270  -13.1930   20.4320 N   0  0  0  0  0  0  0  0  0  0  0  0
  -32.2600  -14.5440   20.2100 O   0  0  0  0  0  0  0  0  0  0  0  0
  -30.4690  -15.2440   21.3610 N   0  0  0  0  0  0  0  0  0  0  0  0
  -29.6270  -14.9260   21.8170 H   0  0  0  0  0  0  0  0  0  0  0  0
  -25.6390  -14.0640   20.5770 C   0  0  0  0  0  0  0  0  0  0  0  0
  -24.5450  -13.3150   20.9200 C   0  0  0  0  0  0  0  0  0  0  0  0
  -24.9740  -11.9540   20.8840 C   0  0  0  0  0  0  0  0  0  0  0  0
  -26.6680  -13.1580   20.3590 N   0  0  0  0  0  0  0  0  0  0  0  0
  -26.2670  -11.8830   20.5950 N   0  0  0  0  0  0  0  0  0  0  0  0
  -24.2160  -10.7090   21.0460 C   0  0  0  0  0  0  0  0  0  0  0  0
  -24.6080   -9.7280   21.9820 C   0  0  0  0  0  3  0  0  0  0  0  0
  -23.8560   -8.5440   22.1330 C   0  0  0  0  0  3  0  0  0  0  0  0
  -22.6980   -8.3350   21.3460 C   0  0  0  0  0  0  0  0  0  0  0  0
  -22.3270   -9.3050   20.3980 C   0  0  0  0  0  3  0  0  0  0  0  0
  -23.0800  -10.4810   20.2460 C   0  0  0  0  0  3  0  0  0  0  0  0
  -21.9180   -7.2070   21.4090 O   0  0  0  0  0  0  0  0  0  0  0  0
  -21.8120   -6.4660   22.5600 C   0  0  0  0  0  0  0  0  0  0  0  0
  -21.3290   -7.0270   23.7630 C   0  0  0  0  0  3  0  0  0  0  0  0
  -21.1710   -6.2160   24.9040 C   0  0  0  0  0  3  0  0  0  0  0  0
  -21.4840   -4.8430   24.8410 C   0  0  0  0  0  0  0  0  0  0  0  0
  -21.9550   -4.2820   23.6430 C   0  0  0  0  0  3  0  0  0  0  0  0
  -22.1160   -5.0920   22.5040 C   0  0  0  0  0  0  0  0  0  0  0  0
  -22.5530   -4.5430   21.3450 F   0  0  0  0  0  0  0  0  0  0  0  0
  -21.3220   -4.0610   25.9340 F   0  0  0  0  0  0  0  0  0  0  0  0
  -23.1560  -13.8240   21.1780 C   0  0  0  0  0  0  0  0  0  0  0  0
  -22.4020  -13.1440   22.0350 N   0  0  0  0  0  0  0  0  0  0  0  0
  -22.7480  -14.8600   20.6540 O   0  0  0  0  0  0  0  0  0  0  0  0
  -22.7460  -12.3050   22.4810 H   0  0  0  0  0  0  0  0  0  0  0  0
  -21.4670  -13.4640   22.2440 H   0  0  0  0  0  0  0  0  0  0  0  0
  -25.8340  -15.4300   20.4200 N   0  0  0  0  0  0  0  0  0  0  0  0
  -25.0780  -16.0930   20.5470 H   0  0  0  0  0  0  0  0  0  0  0  0
  -26.6930  -15.8620   20.1190 H   0  0  0  0  0  0  0  0  0  0  0  0
  -28.2240  -24.1910   18.2900 C   0  0  0  0  0  1  0  0  0  0  0  0
  -29.5440  -23.6890   17.6660 C   0  0  0  0  0  3  0  0  0  0  0  0
  -30.6790  -23.7250   18.6180 N   0  0  0  0  0  4  0  0  0  0  0  0
  -30.4970  -23.0790   19.3690 H   0  0  0  0  0  0  0  0  0  0  0  0
  -31.4780  -23.3660   18.1210 H   0  0  0  0  0  0  0  0  0  0  0  0
  -31.0570  -25.0490   19.1700 C   0  0  0  0  0  2  0  0  0  0  0  0
  -30.8620  -25.0950   20.6970 C   0  0  0  0  0  2  0  0  0  0  0  0
  -30.6410  -26.4250   21.1600 O   0  0  0  0  0  0  0  0  0  0  0  0
  -25.9320  -30.9380   23.9380 C   0  0  0  0  0  0  0  0  0  0  0  0
  -29.3890  -26.9870   21.0240 C   0  0  0  0  0  0  0  0  0  0  0  0
  -25.1020  -29.5610   22.0600 C   0  0  0  0  0  3  0  0  0  0  0  0
  -26.8750  -28.2590   20.7800 C   0  0  0  0  0  0  0  0  0  0  0  0
  -27.5830  -30.1580   22.2440 C   0  0  0  0  0  2  0  0  0  0  0  0
  -27.8880  -28.8490   21.5470 C   0  0  0  0  0  0  0  0  0  0  0  0
  -29.1470  -28.2240   21.6600 C   0  0  0  0  0  3  0  0  0  0  0  0
  -28.3430  -26.3930   20.2790 C   0  0  0  0  0  3  0  0  0  0  0  0
  -27.0950  -27.0250   20.1510 C   0  0  0  0  0  3  0  0  0  0  0  0
  -25.5630  -29.0010   20.6890 C   0  0  0  0  0  2  0  0  0  0  0  0
  -26.2140  -30.2290   22.8080 N   0  0  0  0  0  0  0  0  0  0  0  0
  -24.7640  -31.0790   24.3290 O   0  0  0  0  0  0  0  0  0  0  0  0
  -24.4210  -28.4230   22.8520 C   0  0  0  0  0  0  0  0  0  0  0  0
  -23.1890  -28.0710   22.4510 N   0  0  0  0  0  0  0  0  0  0  0  0
  -25.0090  -27.8570   23.7770 O   0  0  0  0  0  0  0  0  0  0  0  0
  -22.7740  -28.5830   21.6840 H   0  0  0  0  0  0  0  0  0  0  0  0
  -20.0170  -26.3650   22.1710 C   0  0  0  0  0  0  0  0  0  0  0  0
  -22.3700  -27.0050   23.0260 C   0  0  0  0  0  3  0  0  0  0  0  0
  -22.8250  -25.6210   22.5110 C   0  0  0  0  0  2  0  0  0  0  0  0
  -22.0530  -25.1550   21.2740 C   0  0  0  0  0  2  0  0  0  0  0  0
  -20.5520  -25.0730   21.5760 C   0  0  0  0  0  2  0  0  0  0  0  0
  -20.8750  -27.2790   22.8380 C   0  0  0  0  0  0  0  0  0  0  0  0
  -20.3360  -28.4820   23.3420 C   0  0  0  0  0  3  0  0  0  0  0  0
  -18.9690  -28.7780   23.1890 C   0  0  0  0  0  3  0  0  0  0  0  0
  -18.1200  -27.8630   22.5430 C   0  0  0  0  0  3  0  0  0  0  0  0
  -18.6430  -26.6570   22.0410 C   0  0  0  0  0  3  0  0  0  0  0  0
  -27.0540  -31.6300   24.7720 C   0  0  0  0  0  3  0  0  0  0  0  0
  -27.3600  -30.8890   26.1300 C   0  0  1  0  0  0  0  0  0  0  0  0
  -26.1030  -30.6140   26.9870 C   0  0  0  0  0  1  0  0  0  0  0  0
  -28.0590  -29.5340   25.8630 C   0  0  0  0  0  1  0  0  0  0  0  0
  -28.3400  -31.7340   26.9770 C   0  0  0  0  0  1  0  0  0  0  0  0
  -26.6310  -33.0150   25.0180 N   0  0  0  0  0  0  0  0  0  0  0  0
  -27.0410  -34.0710   24.3040 C   0  0  0  0  0  0  0  0  0  0  0  0
  -27.8840  -33.9870   23.4040 O   0  0  0  0  0  0  0  0  0  0  0  0
  -25.9020  -33.1510   25.7030 H   0  0  0  0  0  0  0  0  0  0  0  0
  -25.3190  -35.7720   23.6230 C   0  0  0  0  0  1  0  0  0  0  0  0
  -26.4200  -35.4400   24.6420 C   0  0  0  0  0  3  0  0  0  0  0  0
  -28.3330  -36.4430   25.8070 C   0  0  0  0  0  1  0  0  0  0  0  0
  -27.4080  -36.5390   24.6820 N   0  0  0  0  0  0  0  0  0  0  0  0
  -26.9410  -37.4390   24.7290 H   0  0  0  0  0  0  0  0  0  0  0  0
  -30.1710  -22.9510   14.9070 O   0  0  0  0  0  0  0  0  0  0  0  0
  -30.2930  -22.6320   14.0170 H   0  0  0  0  0  0  0  0  0  0  0  0
  1  4  1  0
  2  6  1  0
  2  1  2  0
  4  3  2  0
  4  8  1  0
  5 53  1  0
  5  3  1  0
  6  5  2  0
  8  7  1  0
  8  9  1  0
  9 11  1  0
  9 12  1  0
 10  9  1  0
 12 13  1  0
 13 22  1  0
 14 22  1  0
 15 20  1  0
 16 17  1  0
 16 15  1  0
 18 17  1  0
 18 27  1  0
 18 19  1  0
 20 14  1  0
 20 19  1  0
 21 14  2  0
 22 23  1  0
 24 25  2  0
 25 44  1  0
 26 25  1  0
 26 29  1  0
 27 24  1  0
 27 28  1  0
 28 26  2  0
 29 30  1  0
 30 31  2  0
 32 35  1  0
 32 31  1  0
 33 32  2  0
 34 33  1  0
 34 29  2  0
 35 36  1  0
 36 37  1  0
 37 38  2  0
 39 38  1  0
 39 43  1  0
 40 39  2  0
 41 36  2  0
 41 40  1  0
 42 41  1  0
 44 45  1  0
 45 48  1  0
 45 47  1  0
 46 44  2  0
 49 50  1  0
 49 24  1  0
 51 49  1  0
 53 52  1  0
 53 54  1  0
 54 57  1  0
 54 55  1  0
 56 54  1  0
 57 58  1  0
 58 59  1  0
 60 71  2  0
 61 59  1  0
 61 66  1  0
 62 70  1  0
 62 72  1  0
 63 65  1  0
 64 70  1  0
 65 66  2  0
 65 64  1  0
 67 61  2  0
 68 67  1  0
 68 63  2  0
 69 63  1  0
 69 62  1  0
 70 60  1  0
 72 74  2  0
 73 72  1  0
 75 73  1  0
 76 81  1  0
 77 73  1  0
 78 77  1  0
 79 80  1  0
 79 78  1  0
 80 76  1  0
 81 77  1  0
 81 82  2  0
 83 82  1  0
 84 83  2  0
 85 76  2  0
 85 84  1  0
 86 60  1  0
 86 91  1  0
 86 87  1  0
 87 90  1  1
 87 88  1  0
 89 87  1  0
 91 94  1  0
 92 96  1  0
 92 91  1  0
 93 92  2  0
 96 95  1  0
 96 98  1  0
 98 99  1  0
 98 97  1  0
100  6  1  0
101100  1  0
M  ISO  4  14 100  22 100  58 101  59 101
M  END
>  <TORSDO>  (16) 
F 25

>  <SCORE>  (16) 
-9.972

>  <name>  (16) 
15

>  <ligand_id>  (16) 
15

>  <original_smiles>  (16) 
[H]Oc1c([H])c([H])c(C([H])(C([H])([H])[H])[N+]([H])([H])C([H])([H])C([H])([H])N([H])C(=O)N2C([H])([H])C([H])([H])C([H])([H])C([H])(n3nc(-c4c([H])c([H])c(Oc5c([H])c([H])c(F)c([H])c5F)c([H])c4[H])c(C(=O)N([H])[H])c3N([H])[H])C2([H])[H])c([H])c1C([H])(C([H])([H])[H])[N+]([H])([H])C([H])([H])C([H])([H])Oc1c([H])c([H])c2c(c1[H])C([H])([H])N(C(=O)C([H])(N([H])C(=O)C([H])(N([H])C([H])([H])[H])C([H])([H])[H])C(C([H])([H])[H])(C([H])([H])[H])C([H])([H])[H])C([H])(C(=O)N([H])C1([H])c3c([H])c([H])c([H])c([H])c3C([H])([H])C([H])([H])C1([H])[H])C2([H])[H]

>  <smiles>  (16) 
[H]Oc1c([H])c([H])c(C([H])(C([H])([H])[H])[N+]([H])([H])C([H])([H])C([H])([H])N([H])C(=O)N2C([H])([H])C([H])([H])C([H])([H])C([H])(n3nc(-c4c([H])c([H])c(Oc5c([H])c([H])c(F)c([H])c5F)c([H])c4[H])c(C(=O)N([H])[H])c3N([H])[H])C2([H])[H])c([H])c1C([H])(C([H])([H])[H])[N+]([H])([H])C([H])([H])C([H])([H])Oc1c([H])c([H])c2c(c1[H])C([H])([H])N(C(=O)C([H])(N([H])C(=O)C([H])(N([H])C([H])([H])[H])C([H])([H])[H])C(C([H])([H])[H])(C([H])([H])[H])C([H])([H])[H])C([H])(C(=O)N([H])C1([H])c3c([H])c([H])c([H])c([H])c3C([H])([H])C([H])([H])C1([H])[H])C2([H])[H]

$$$$
16:0:0
     RDKit          3D

 97105  0  0  1  0  0  0  0  0999 V2000
  -29.9310  -22.0130   20.1420 C   0  0  0  0  0  3  0  0  0  0  0  0
  -27.6600  -22.1690   21.0120 C   0  0  0  0  0  3  0  0  0  0  0  0
  -29.7150  -20.6570   19.8250 C   0  0  0  0  0  3  0  0  0  0  0  0
  -27.4530  -20.8070   20.7110 C   0  0  0  0  0  3  0  0  0  0  0  0
  -28.8890  -22.7900   20.6920 C   0  0  0  0  0  0  0  0  0  0  0  0
  -28.4630  -20.0480   20.0750 C   0  0  0  0  0  0  0  0  0  0  0  0
  -29.0680  -24.2510   20.8940 C   0  0  0  0  0  0  0  0  0  0  0  0
  -30.0000  -24.7630   21.5220 O   0  0  0  0  0  0  0  0  0  0  0  0
  -28.0350  -25.0980   20.1470 C   0  0  0  0  0  2  0  0  0  0  0  0
  -28.3030  -26.5070   20.1740 O   0  0  0  0  0  0  0  0  0  0  0  0
  -24.5270  -31.7400   23.1260 C   0  0  0  0  0  0  0  0  0  0  0  0
  -27.1560  -27.2690   20.0970 C   0  0  0  0  0  0  0  0  0  0  0  0
  -23.3210  -30.3280   21.4950 C   0  0  0  0  0  3  0  0  0  0  0  0
  -24.7730  -28.7860   20.0810 C   0  0  0  0  0  0  0  0  0  0  0  0
  -25.8490  -30.6840   21.2970 C   0  0  0  0  0  2  0  0  0  0  0  0
  -25.9320  -29.3090   20.6670 C   0  0  0  0  0  0  0  0  0  0  0  0
  -27.1290  -28.5610   20.6690 C   0  0  0  0  0  3  0  0  0  0  0  0
  -25.9800  -26.7730   19.4810 C   0  0  0  0  0  3  0  0  0  0  0  0
  -24.7930  -27.5180   19.4810 C   0  0  0  0  0  3  0  0  0  0  0  0
  -23.5300  -29.6450   20.1190 C   0  0  0  0  0  2  0  0  0  0  0  0
  -24.5840  -30.9310   22.0290 N   0  0  0  0  0  0  0  0  0  0  0  0
  -23.4450  -32.0200   23.6600 O   0  0  0  0  0  0  0  0  0  0  0  0
  -22.6660  -29.3130   22.4600 C   0  0  0  0  0  0  0  0  0  0  0  0
  -21.3410  -29.1390   22.3400 N   0  0  0  0  0  0  0  0  0  0  0  0
  -23.3500  -28.6860   23.2740 O   0  0  0  0  0  0  0  0  0  0  0  0
  -20.8550  -29.7010   21.6560 H   0  0  0  0  0  0  0  0  0  0  0  0
  -17.9590  -27.9750   22.8500 C   0  0  0  0  0  0  0  0  0  0  0  0
  -20.5200  -28.2130   23.1170 C   0  0  0  0  0  3  0  0  0  0  0  0
  -20.6090  -26.7770   22.5520 C   0  0  0  0  0  2  0  0  0  0  0  0
  -19.5020  -26.4530   21.5420 C   0  0  0  0  0  2  0  0  0  0  0  0
  -18.1210  -26.6200   22.1810 C   0  0  0  0  0  2  0  0  0  0  0  0
  -19.0850  -28.7290   23.2740 C   0  0  0  0  0  0  0  0  0  0  0  0
  -18.8810  -30.0000   23.8550 C   0  0  0  0  0  3  0  0  0  0  0  0
  -17.5810  -30.5140   24.0200 C   0  0  0  0  0  3  0  0  0  0  0  0
  -16.4690  -29.7560   23.6150 C   0  0  0  0  0  3  0  0  0  0  0  0
  -16.6590  -28.4890   23.0360 C   0  0  0  0  0  3  0  0  0  0  0  0
  -25.8150  -32.3720   23.7390 C   0  0  0  0  0  3  0  0  0  0  0  0
  -25.4920  -33.7570   24.1080 N   0  0  0  0  0  0  0  0  0  0  0  0
  -25.8290  -34.8350   23.3840 C   0  0  0  0  0  0  0  0  0  0  0  0
  -26.5170  -34.7660   22.3620 O   0  0  0  0  0  0  0  0  0  0  0  0
  -24.8830  -33.8840   24.9030 H   0  0  0  0  0  0  0  0  0  0  0  0
  -24.0980  -36.6260   23.0480 C   0  0  0  0  0  1  0  0  0  0  0  0
  -25.3250  -36.2060   23.8740 C   0  0  0  0  0  3  0  0  0  0  0  0
  -27.4420  -37.0670   24.7670 C   0  0  0  0  0  1  0  0  0  0  0  0
  -26.3530  -37.2670   23.8140 N   0  0  0  0  0  0  0  0  0  0  0  0
  -25.9420  -38.1780   23.9880 H   0  0  0  0  0  0  0  0  0  0  0  0
  -26.3660  -31.5760   24.9850 C   0  0  1  0  0  0  0  0  0  0  0  0
  -25.2950  -31.2890   26.0630 C   0  0  0  0  0  1  0  0  0  0  0  0
  -26.9640  -30.2200   24.5430 C   0  0  0  0  0  1  0  0  0  0  0  0
  -27.5150  -32.3710   25.6490 C   0  0  0  0  0  1  0  0  0  0  0  0
  -28.2110  -18.6050   19.6130 C   0  0  0  0  0  3  0  0  0  0  0  0
  -26.8670  -18.4890   18.8560 C   0  0  0  0  0  0  0  0  0  0  0  0
  -26.7500  -19.1600   17.7160 N   0  0  0  0  0  0  0  0  0  0  0  0
  -25.9340  -17.8110   19.2830 O   0  0  0  0  0  0  0  0  0  0  0  0
  -27.5050  -19.7540   17.4000 H   0  0  0  0  0  0  0  0  0  0  0  0
  -25.8930  -19.1110   17.1860 H   0  0  0  0  0  0  0  0  0  0  0  0
  -28.3710  -17.5570   20.7510 C   0  0  0  0  0  2  0  0  0  0  0  0
  -29.7220  -16.8090   20.7760 C   0  0  0  0  0  2  0  0  0  0  0  0
  -29.7810  -15.5580   19.8720 C   0  0  0  0  0  2  0  0  0  0  0  0
  -31.3130  -13.6370   19.4960 C   0  0  0  0  0  0  0  0  0  0  0  0
  -30.8870  -11.2660   18.9600 C   0  0  0  0  0  2  0  0  0  0  0  0
  -29.8630  -11.1600   17.8130 C   0  0  0  0  0  2  0  0  0  0  0  0
  -28.4230  -11.1900   18.3660 C   0  0  0  0  0  2  0  0  0  0  0  0
  -28.1920  -12.3660   19.3540 C   0  0  0  0  0  3  0  0  0  0  0  0
  -29.3140  -12.3910   20.4150 C   0  0  0  0  0  2  0  0  0  0  0  0
  -30.6000  -12.4990   19.7080 N   0  0  0  0  0  0  0  0  0  0  0  0
  -32.3260  -13.6670   18.7950 O   0  0  0  0  0  0  0  0  0  0  0  0
  -30.9530  -14.7300   20.1860 N   0  0  0  0  0  0  0  0  0  0  0  0
  -31.7550  -15.3200   20.3570 H   0  0  0  0  0  0  0  0  0  0  0  0
  -26.0140  -13.3380   20.3260 C   0  0  0  0  0  0  0  0  0  0  0  0
  -24.8810  -12.7360   20.8050 C   0  0  0  0  0  0  0  0  0  0  0  0
  -25.1080  -11.3280   20.7060 C   0  0  0  0  0  0  0  0  0  0  0  0
  -26.8680  -12.3050   19.9670 N   0  0  0  0  0  0  0  0  0  0  0  0
  -26.3310  -11.0910   20.2500 N   0  0  0  0  0  0  0  0  0  0  0  0
  -24.2110  -10.1940   20.9640 C   0  0  0  0  0  0  0  0  0  0  0  0
  -24.5890   -9.1320   21.8150 C   0  0  0  0  0  3  0  0  0  0  0  0
  -23.7020   -8.0610   22.0570 C   0  0  0  0  0  3  0  0  0  0  0  0
  -22.4230   -8.0460   21.4490 C   0  0  0  0  0  0  0  0  0  0  0  0
  -22.0630   -9.0950   20.5860 C   0  0  0  0  0  3  0  0  0  0  0  0
  -22.9480  -10.1570   20.3400 C   0  0  0  0  0  3  0  0  0  0  0  0
  -21.5050   -7.0350   21.6070 O   0  0  0  0  0  0  0  0  0  0  0  0
  -21.4930   -6.2470   22.7290 C   0  0  0  0  0  0  0  0  0  0  0  0
  -21.3340   -6.7920   24.0230 C   0  0  0  0  0  3  0  0  0  0  0  0
  -21.2550   -5.9390   25.1410 C   0  0  0  0  0  3  0  0  0  0  0  0
  -21.3270   -4.5430   24.9710 C   0  0  0  0  0  0  0  0  0  0  0  0
  -21.4830   -3.9980   23.6830 C   0  0  0  0  0  3  0  0  0  0  0  0
  -21.5650   -4.8480   22.5660 C   0  0  0  0  0  0  0  0  0  0  0  0
  -21.6910   -4.3190   21.3270 F   0  0  0  0  0  0  0  0  0  0  0  0
  -21.2460   -3.7220   26.0440 F   0  0  0  0  0  0  0  0  0  0  0  0
  -23.6200  -13.4220   21.2430 C   0  0  0  0  0  0  0  0  0  0  0  0
  -22.8950  -12.8300   22.1870 N   0  0  0  0  0  0  0  0  0  0  0  0
  -23.2890  -14.5140   20.7800 O   0  0  0  0  0  0  0  0  0  0  0  0
  -23.1790  -11.9440   22.5830 H   0  0  0  0  0  0  0  0  0  0  0  0
  -22.0510  -13.2700   22.5260 H   0  0  0  0  0  0  0  0  0  0  0  0
  -26.3770  -14.6650   20.1410 N   0  0  0  0  0  0  0  0  0  0  0  0
  -25.7460  -15.4310   20.3480 H   0  0  0  0  0  0  0  0  0  0  0  0
  -27.2220  -14.9600   19.6710 H   0  0  0  0  0  0  0  0  0  0  0  0
  1  5  1  0
  3  6  1  0
  3  1  2  0
  4  2  1  0
  5  7  1  0
  5  2  2  0
  6  4  2  0
  7  8  2  0
  9 10  1  0
  9  7  1  0
 11 22  2  0
 12 10  1  0
 12 17  1  0
 13 21  1  0
 13 23  1  0
 14 20  1  0
 14 16  1  0
 15 21  1  0
 16 17  2  0
 16 15  1  0
 18 12  2  0
 19 18  1  0
 19 14  2  0
 20 13  1  0
 21 11  1  0
 23 25  2  0
 24 23  1  0
 26 24  1  0
 27 36  2  0
 27 32  1  0
 28 24  1  0
 28 32  1  0
 29 28  1  0
 30 31  1  0
 30 29  1  0
 31 27  1  0
 32 33  2  0
 33 34  1  0
 35 34  2  0
 36 35  1  0
 37 11  1  0
 37 38  1  0
 37 47  1  0
 38 41  1  0
 39 43  1  0
 39 38  1  0
 40 39  2  0
 43 42  1  0
 45 43  1  0
 45 46  1  0
 45 44  1  0
 47 50  1  1
 47 48  1  0
 49 47  1  0
 51  6  1  0
 51 57  1  0
 52 54  2  0
 52 51  1  0
 53 52  1  0
 55 53  1  0
 56 53  1  0
 57 58  1  0
 59 68  1  0
 59 58  1  0
 60 66  1  0
 60 68  1  0
 61 66  1  0
 62 63  1  0
 62 61  1  0
 64 63  1  0
 64 73  1  0
 64 65  1  0
 66 65  1  0
 67 60  2  0
 68 69  1  0
 70 71  2  0
 71 90  1  0
 72 71  1  0
 72 75  1  0
 73 74  1  0
 73 70  1  0
 74 72  2  0
 75 76  1  0
 76 77  2  0
 78 81  1  0
 78 77  1  0
 79 78  2  0
 80 79  1  0
 80 75  2  0
 81 82  1  0
 82 83  1  0
 83 84  2  0
 85 84  1  0
 85 89  1  0
 86 85  2  0
 87 82  2  0
 87 86  1  0
 88 87  1  0
 90 91  1  0
 91 94  1  0
 91 93  1  0
 92 90  2  0
 95 70  1  0
 95 96  1  0
 97 95  1  0
M  ISO  4   9 101  10 101  60 100  68 100
M  END
>  <TORSDO>  (17) 
F 23

>  <SCORE>  (17) 
-10.789

>  <name>  (17) 
16

>  <ligand_id>  (17) 
16

>  <original_smiles>  (17) 
[H]c1c([H])c([H])c2c(c1[H])C([H])([H])C([H])([H])C([H])([H])C2([H])N([H])C(=O)C1([H])N(C(=O)C([H])(N([H])C(=O)C([H])(N([H])C([H])([H])[H])C([H])([H])[H])C(C([H])([H])[H])(C([H])([H])[H])C([H])([H])[H])C([H])([H])c2c([H])c(OC([H])([H])C(=O)c3c([H])c([H])c(C([H])(C(=O)N([H])[H])C([H])([H])C([H])([H])C([H])([H])N([H])C(=O)N4C([H])([H])C([H])([H])C([H])([H])C([H])(n5nc(-c6c([H])c([H])c(Oc7c([H])c([H])c(F)c([H])c7F)c([H])c6[H])c(C(=O)N([H])[H])c5N([H])[H])C4([H])[H])c([H])c3[H])c([H])c([H])c2C1([H])[H]

>  <smiles>  (17) 
[H]c1c([H])c([H])c2c(c1[H])C([H])([H])C([H])([H])C([H])([H])C2([H])N([H])C(=O)C1([H])N(C(=O)C([H])(N([H])C(=O)C([H])(N([H])C([H])([H])[H])C([H])([H])[H])C(C([H])([H])[H])(C([H])([H])[H])C([H])([H])[H])C([H])([H])c2c([H])c(OC([H])([H])C(=O)c3c([H])c([H])c(C([H])(C(=O)N([H])[H])C([H])([H])C([H])([H])C([H])([H])N([H])C(=O)N4C([H])([H])C([H])([H])C([H])([H])C([H])(n5nc(-c6c([H])c([H])c(Oc7c([H])c([H])c(F)c([H])c7F)c([H])c6[H])c(C(=O)N([H])[H])c5N([H])[H])C4([H])[H])c([H])c3[H])c([H])c([H])c2C1([H])[H]

$$$$
17:0:0
     RDKit          3D

 97102  0  0  1  0  0  0  0  0999 V2000
  -24.5710  -26.0790   23.9520 N   0  0  0  0  0  4  0  0  0  0  0  0
  -24.6110  -25.8210   24.9290 H   0  0  0  0  0  0  0  0  0  0  0  0
  -24.0960  -25.2910   23.5410 H   0  0  0  0  0  0  0  0  0  0  0  0
  -23.4810  -28.4330   24.9870 C   0  0  0  0  0  1  0  0  0  0  0  0
  -23.2320  -27.3600   23.9360 C   0  0  0  0  0  2  0  0  0  0  0  0
  -22.0020  -28.2660   22.5410 C   0  0  0  0  0  1  0  0  0  0  0  0
  -20.0050  -28.1680   20.5890 C   0  0  0  0  0  1  0  0  0  0  0  0
  -21.3420  -27.6920   20.9320 N   0  0  0  0  0  0  0  0  0  0  0  0
  -22.0620  -26.7930   19.5530 C   0  0  0  0  0  1  0  0  0  0  0  0
  -23.8980  -26.5710   18.7730 C   0  0  0  0  0  1  0  0  0  0  0  0
  -25.4310  -27.4570   18.4610 O   0  0  0  0  0  0  0  0  0  0  0  0
  -26.0970  -30.4020   23.0380 C   0  0  0  0  0  0  0  0  0  0  0  0
  -25.8590  -28.5230   17.6170 C   0  0  0  0  0  3  0  0  0  0  0  0
  -24.6980  -28.9530   21.5700 C   0  0  0  0  0  3  0  0  0  0  0  0
  -24.2440  -29.7090   19.2210 C   0  0  0  0  0  3  0  0  0  0  0  0
  -25.9970  -30.8010   20.5880 C   0  0  0  0  0  2  0  0  0  0  0  0
  -25.5680  -30.1010   19.3190 C   0  0  0  0  0  3  0  0  0  0  0  0
  -26.4380  -29.6030   18.3450 C   0  0  0  0  0  2  0  0  0  0  0  0
  -24.6580  -28.7620   17.0210 C   0  0  0  0  0  2  0  0  0  0  0  0
  -23.7400  -29.2360   17.9770 C   0  0  0  0  0  2  0  0  0  0  0  0
  -23.6200  -29.5660   20.5550 C   0  0  0  0  0  2  0  0  0  0  0  0
  -25.6560  -30.0400   21.8000 N   0  0  0  0  0  0  0  0  0  0  0  0
  -25.6530  -29.9380   24.1000 O   0  0  0  0  0  0  0  0  0  0  0  0
  -25.5050  -27.4530   21.2710 C   0  0  0  0  0  0  0  0  0  0  0  0
  -25.0100  -26.0740   20.7820 N   0  0  0  0  0  0  0  0  0  0  0  0
  -26.5960  -27.4130   21.7710 O   0  0  0  0  0  0  0  0  0  0  0  0
  -25.8220  -25.6240   20.3880 H   0  0  0  0  0  0  0  0  0  0  0  0
  -21.4220  -23.4890   20.6530 C   0  0  0  0  0  0  0  0  0  0  0  0
  -23.8260  -24.7850   21.0310 C   0  0  0  0  0  3  0  0  0  0  0  0
  -24.3440  -23.7720   20.0810 C   0  0  0  0  0  2  0  0  0  0  0  0
  -23.3180  -23.2460   19.1080 C   0  0  0  0  0  2  0  0  0  0  0  0
  -22.2320  -22.5180   19.8560 C   0  0  0  0  0  2  0  0  0  0  0  0
  -22.0970  -24.5650   21.3050 C   0  0  0  0  0  0  0  0  0  0  0  0
  -21.1350  -25.1670   22.2420 C   0  0  0  0  0  3  0  0  0  0  0  0
  -19.7210  -24.9970   22.2630 C   0  0  0  0  0  3  0  0  0  0  0  0
  -19.1520  -23.9800   21.5020 C   0  0  0  0  0  3  0  0  0  0  0  0
  -20.0360  -23.1970   20.7480 C   0  0  0  0  0  3  0  0  0  0  0  0
  -27.2220  -31.4510   23.1560 C   0  0  0  0  0  3  0  0  0  0  0  0
  -28.5150  -30.8670   23.8360 C   0  0  1  0  0  0  0  0  0  0  0  0
  -28.2910  -30.2510   25.2380 C   0  0  0  0  0  1  0  0  0  0  0  0
  -29.1920  -29.7980   22.9470 C   0  0  0  0  0  1  0  0  0  0  0  0
  -29.5480  -32.0010   23.9790 C   0  0  0  0  0  1  0  0  0  0  0  0
  -26.6990  -32.5900   23.9160 N   0  0  0  0  0  0  0  0  0  0  0  0
  -26.7030  -33.8560   23.4820 C   0  0  0  0  0  0  0  0  0  0  0  0
  -27.2160  -34.1930   22.4120 O   0  0  0  0  0  0  0  0  0  0  0  0
  -26.2450  -32.3830   24.7910 H   0  0  0  0  0  0  0  0  0  0  0  0
  -24.7780  -35.4510   23.7310 C   0  0  0  0  0  1  0  0  0  0  0  0
  -26.0610  -34.9180   24.3930 C   0  0  0  0  0  3  0  0  0  0  0  0
  -28.0900  -35.6530   25.5640 C   0  0  0  0  0  1  0  0  0  0  0  0
  -26.9680  -36.0430   24.7120 N   0  0  0  0  0  0  0  0  0  0  0  0
  -26.4640  -36.7910   25.1800 H   0  0  0  0  0  0  0  0  0  0  0  0
  -26.2700  -25.7550   23.4990 C   0  0  0  0  0  3  0  0  0  0  0  0
  -27.3470  -24.2560   22.8150 C   0  0  0  0  0  3  0  0  0  0  0  0
  -29.1450  -23.6870   22.6560 C   0  0  0  0  0  0  0  0  0  0  0  0
  -30.0020  -22.6510   21.8400 N   0  0  0  0  0  0  0  0  0  0  0  0
  -29.8440  -24.2880   23.4800 O   0  0  0  0  0  0  0  0  0  0  0  0
  -29.3970  -22.1930   21.1670 H   0  0  0  0  0  0  0  0  0  0  0  0
  -31.6780  -22.0160   21.6400 C   0  0  0  0  0  3  0  0  0  0  0  0
  -32.7790  -20.8510   20.5040 C   0  0  0  0  0  3  0  0  0  0  0  0
  -35.6860  -19.3640   19.9800 C   0  0  0  0  0  0  0  0  0  0  0  0
  -37.5510  -18.5600   18.2190 C   0  0  0  0  0  2  0  0  0  0  0  0
  -38.0010  -19.5470   17.0940 C   0  0  0  0  0  2  0  0  0  0  0  0
  -36.9740  -19.5780   15.9530 C   0  0  0  0  0  2  0  0  0  0  0  0
  -35.5390  -19.5740   16.5350 C   0  0  0  0  0  3  0  0  0  0  0  0
  -35.2830  -18.4800   17.5760 C   0  0  0  0  0  2  0  0  0  0  0  0
  -36.1100  -18.8500   18.7010 N   0  0  0  0  0  0  0  0  0  0  0  0
  -36.6770  -19.1940   20.7390 O   0  0  0  0  0  0  0  0  0  0  0  0
  -34.4120  -20.1210   20.5250 N   0  0  0  0  0  0  0  0  0  0  0  0
  -34.7190  -20.3120   21.4680 H   0  0  0  0  0  0  0  0  0  0  0  0
  -33.2840  -20.1430   15.5790 C   0  0  0  0  0  0  0  0  0  0  0  0
  -32.6830  -19.8230   14.3990 C   0  0  0  0  0  0  0  0  0  0  0  0
  -33.5950  -18.9730   13.6990 C   0  0  0  0  0  0  0  0  0  0  0  0
  -34.5120  -19.5190   15.5360 N   0  0  0  0  0  0  0  0  0  0  0  0
  -34.6750  -18.7440   14.4370 N   0  0  0  0  0  0  0  0  0  0  0  0
  -33.5370  -18.4190   12.3450 C   0  0  0  0  0  0  0  0  0  0  0  0
  -33.5930  -17.0280   12.1100 C   0  0  0  0  0  3  0  0  0  0  0  0
  -33.5120  -16.5270   10.7930 C   0  0  0  0  0  3  0  0  0  0  0  0
  -33.3680  -17.4180    9.7030 C   0  0  0  0  0  0  0  0  0  0  0  0
  -33.3360  -18.8010    9.9440 C   0  0  0  0  0  3  0  0  0  0  0  0
  -33.4230  -19.3010   11.2520 C   0  0  0  0  0  3  0  0  0  0  0  0
  -33.2990  -17.0230    8.3920 O   0  0  0  0  0  0  0  0  0  0  0  0
  -32.8180  -15.7890    8.0340 C   0  0  0  0  0  0  0  0  0  0  0  0
  -31.4840  -15.4060    8.2930 C   0  0  0  0  0  3  0  0  0  0  0  0
  -31.0120  -14.1570    7.8460 C   0  0  0  0  0  3  0  0  0  0  0  0
  -31.8660  -13.2940    7.1340 C   0  0  0  0  0  0  0  0  0  0  0  0
  -33.1940  -13.6750    6.8720 C   0  0  0  0  0  3  0  0  0  0  0  0
  -33.6670  -14.9210    7.3170 C   0  0  0  0  0  0  0  0  0  0  0  0
  -34.9410  -15.2950    7.0440 F   0  0  0  0  0  0  0  0  0  0  0  0
  -31.4110  -12.0960    6.6960 F   0  0  0  0  0  0  0  0  0  0  0  0
  -31.3720  -20.3590   13.9100 C   0  0  0  0  0  0  0  0  0  0  0  0
  -30.6080  -19.5420   13.1960 N   0  0  0  0  0  0  0  0  0  0  0  0
  -31.0020  -21.4930   14.2050 O   0  0  0  0  0  0  0  0  0  0  0  0
  -30.9100  -18.6040   12.9750 H   0  0  0  0  0  0  0  0  0  0  0  0
  -29.7080  -19.8570   12.8620 H   0  0  0  0  0  0  0  0  0  0  0  0
  -32.9180  -20.9250   16.6710 N   0  0  0  0  0  0  0  0  0  0  0  0
  -32.0510  -21.4510   16.7040 H   0  0  0  0  0  0  0  0  0  0  0  0
  -33.5150  -21.0960   17.4680 H   0  0  0  0  0  0  0  0  0  0  0  0
  1  2  1  0
  3  1  1  0
  5  1  1  0
  5  4  1  0
  7  8  1  0
  8  6  1  0
  9  8  1  0
 11 10  1  0
 12 23  2  0
 13 18  1  0
 13 11  1  0
 14 24  1  0
 14 22  1  0
 15 20  1  0
 15 17  1  0
 15 21  1  0
 16 22  1  0
 17 18  1  0
 17 16  1  0
 19 13  1  0
 19 20  1  0
 21 14  1  0
 22 12  1  0
 24 26  2  0
 25 24  1  0
 27 25  1  0
 28 37  2  0
 28 33  1  0
 29 25  1  0
 29 33  1  0
 30 29  1  0
 31 32  1  0
 31 30  1  0
 32 28  1  0
 33 34  2  0
 34 35  1  0
 36 35  2  0
 37 36  1  0
 38 12  1  0
 38 39  1  0
 38 43  1  0
 39 42  1  1
 39 40  1  0
 41 39  1  0
 43 46  1  0
 44 43  1  0
 44 48  1  0
 45 44  2  0
 48 47  1  0
 48 50  1  0
 50 51  1  0
 50 49  1  0
 52  1  1  0
 53 52  2  0
 54 53  1  0
 54 56  2  0
 55 54  1  0
 57 55  1  0
 58 55  1  0
 59 68  1  0
 59 58  2  0
 60 68  1  0
 60 67  2  0
 61 66  1  0
 62 61  1  0
 63 64  1  0
 63 62  1  0
 64 73  1  0
 64 65  1  0
 65 66  1  0
 66 60  1  0
 68 69  1  0
 70 95  1  0
 71 70  2  0
 72 71  1  0
 72 74  2  0
 73 70  1  0
 74 73  1  0
 75 72  1  0
 76 75  1  0
 77 76  2  0
 78 79  2  0
 78 77  1  0
 79 80  1  0
 80 75  2  0
 81 78  1  0
 82 83  1  0
 82 81  1  0
 84 83  2  0
 85 84  1  0
 86 85  2  0
 86 87  1  0
 87 82  2  0
 88 87  1  0
 89 85  1  0
 90 92  2  0
 90 71  1  0
 91 90  1  0
 93 91  1  0
 94 91  1  0
 95 96  1  0
 95 97  1  0
M  ISO  4  10 101  11 101  60 100  68 100
M  END
>  <TORSDO>  (18) 
F 26

>  <SCORE>  (18) 
-1.221

>  <name>  (18) 
17

>  <ligand_id>  (18) 
17

>  <original_smiles>  (18) 
[H]c1c([H])c([H])c2c(c1[H])C([H])([H])C([H])([H])C([H])([H])C2([H])N([H])C(=O)C1([H])N(C(=O)C([H])(N([H])C(=O)C([H])(N([H])C([H])([H])[H])C([H])([H])[H])C(C([H])([H])[H])(C([H])([H])[H])C([H])([H])[H])C([H])([H])c2c([H])c(OC([H])([H])C([H])([H])N(C([H])([H])[H])C([H])([H])C([H])(C([H])([H])[H])[N+]([H])([H])C([H])([H])C([H])([H])C(=O)N([H])C([H])([H])C([H])([H])N([H])C(=O)N3C([H])([H])C([H])([H])C([H])([H])C([H])(n4nc(-c5c([H])c([H])c(Oc6c([H])c([H])c(F)c([H])c6F)c([H])c5[H])c(C(=O)N([H])[H])c4N([H])[H])C3([H])[H])c([H])c([H])c2C1([H])[H]

>  <smiles>  (18) 
[H]c1c([H])c([H])c2c(c1[H])C([H])([H])C([H])([H])C([H])([H])C2([H])N([H])C(=O)C1([H])N(C(=O)C([H])(N([H])C(=O)C([H])(N([H])C([H])([H])[H])C([H])([H])[H])C(C([H])([H])[H])(C([H])([H])[H])C([H])([H])[H])C([H])([H])c2c([H])c(OC([H])([H])C([H])([H])N(C([H])([H])[H])C([H])([H])C([H])(C([H])([H])[H])[N+]([H])([H])C([H])([H])C([H])([H])C(=O)N([H])C([H])([H])C([H])([H])N([H])C(=O)N3C([H])([H])C([H])([H])C([H])([H])C([H])(n4nc(-c5c([H])c([H])c(Oc6c([H])c([H])c(F)c([H])c6F)c([H])c5[H])c(C(=O)N([H])[H])c4N([H])[H])C3([H])[H])c([H])c([H])c2C1([H])[H]

$$$$
18:0:0
     RDKit          3D

 98100  0  0  1  0  0  0  0  0999 V2000
  -30.2090  -18.0570   18.8490 C   0  0  0  0  0  3  0  0  0  0  0  0
  -29.8680  -17.2380   17.7320 C   0  0  0  0  0  2  0  0  0  0  0  0
  -27.8650  -18.3690   19.3620 C   0  0  0  0  0  2  0  0  0  0  0  0
  -27.8700  -18.2700   17.9920 C   0  0  0  0  0  2  0  0  0  0  0  0
  -29.2100  -18.5250   19.7710 C   0  0  0  0  0  0  0  0  0  0  0  0
  -28.6280  -16.4980   17.8060 C   0  0  0  0  0  2  0  0  0  0  0  0
  -28.5280  -13.6340   17.9860 C   0  0  0  0  0 15  0  0  0  0  0  0
  -27.9090  -20.5320   17.7450 C   0  0  0  0  0  2  0  0  0  0  0  0
  -28.6860  -20.7070   16.8060 O   0  0  0  0  0  0  0  0  0  0  0  0
  -27.2510  -22.6660   18.2820 C   0  0  0  0  0 15  0  0  0  0  0  0
  -27.5220  -24.8340   18.3480 O   0  0  0  0  0  1  0  0  0  0  0  0
  -25.1510  -31.9190   22.6790 C   0  0  0  0  0  0  0  0  0  0  0  0
  -26.8570  -26.4440   18.7520 C   0  0  0  0  0  0  0  0  0  0  0  0
  -23.7600  -30.7450   21.0470 C   0  0  0  0  0  3  0  0  0  0  0  0
  -24.9290  -29.0700   19.3210 C   0  0  0  0  0  0  0  0  0  0  0  0
  -26.3330  -30.5280   20.7210 C   0  0  0  0  0  2  0  0  0  0  0  0
  -26.2060  -29.1130   19.8640 C   0  0  0  0  0  0  0  0  0  0  0  0
  -27.1300  -27.8540   19.5450 C   0  0  0  0  0  3  0  0  0  0  0  0
  -25.5800  -26.8350   18.2240 C   0  0  0  0  0  3  0  0  0  0  0  0
  -24.6960  -27.9660   18.4750 C   0  0  0  0  0  3  0  0  0  0  0  0
  -23.8420  -30.1590   19.6000 C   0  0  0  0  0  2  0  0  0  0  0  0
  -25.1300  -31.1130   21.5360 N   0  0  0  0  0  0  0  0  0  0  0  0
  -24.1110  -32.2350   23.2980 O   0  0  0  0  0  0  0  0  0  0  0  0
  -23.0420  -29.7540   22.0070 C   0  0  0  0  0  0  0  0  0  0  0  0
  -21.6960  -29.6490   21.9640 N   0  0  0  0  0  0  0  0  0  0  0  0
  -23.7190  -29.0650   22.7710 O   0  0  0  0  0  0  0  0  0  0  0  0
  -21.1890  -30.2580   21.3370 H   0  0  0  0  0  0  0  0  0  0  0  0
  -18.3280  -28.4190   22.6420 C   0  0  0  0  0  0  0  0  0  0  0  0
  -20.9060  -28.6570   22.7130 C   0  0  0  0  0  3  0  0  0  0  0  0
  -20.9410  -27.2780   22.0130 C   0  0  0  0  0  2  0  0  0  0  0  0
  -19.7620  -27.0580   21.0600 C   0  0  0  0  0  2  0  0  0  0  0  0
  -18.4360  -27.1450   21.8180 C   0  0  0  0  0  2  0  0  0  0  0  0
  -19.4850  -29.1380   23.0460 C   0  0  0  0  0  0  0  0  0  0  0  0
  -19.3250  -30.3250   23.7920 C   0  0  0  0  0  3  0  0  0  0  0  0
  -18.0420  -30.8020   24.1230 C   0  0  0  0  0  3  0  0  0  0  0  0
  -16.9010  -30.0830   23.7270 C   0  0  0  0  0  3  0  0  0  0  0  0
  -17.0430  -28.8910   22.9920 C   0  0  0  0  0  3  0  0  0  0  0  0
  -26.4640  -32.4970   23.2970 C   0  0  0  0  0  3  0  0  0  0  0  0
  -26.1900  -33.8320   23.8870 N   0  0  0  0  0  0  0  0  0  0  0  0
  -26.5350  -35.0180   23.3640 C   0  0  0  0  0  0  0  0  0  0  0  0
  -27.1560  -35.1080   22.3010 O   0  0  0  0  0  0  0  0  0  0  0  0
  -25.6260  -33.8350   24.7260 H   0  0  0  0  0  0  0  0  0  0  0  0
  -24.8790  -36.9250   23.4990 C   0  0  0  0  0  1  0  0  0  0  0  0
  -26.1430  -36.3090   24.1240 C   0  0  0  0  0  3  0  0  0  0  0  0
  -28.3430  -36.9700   25.0040 C   0  0  0  0  0  1  0  0  0  0  0  0
  -27.2140  -37.3320   24.1520 N   0  0  0  0  0  0  0  0  0  0  0  0
  -26.8540  -38.2280   24.4640 H   0  0  0  0  0  0  0  0  0  0  0  0
  -27.0710  -31.5650   24.4220 C   0  0  1  0  0  0  0  0  0  0  0  0
  -26.0700  -31.2030   25.5460 C   0  0  0  0  0  1  0  0  0  0  0  0
  -27.5930  -30.2400   23.8290 C   0  0  0  0  0  1  0  0  0  0  0  0
  -28.2910  -32.2550   25.0750 C   0  0  0  0  0  1  0  0  0  0  0  0
  -28.3740  -19.6110   21.9850 C   0  0  0  0  0  1  0  0  0  0  0  0
  -29.5310  -19.4800   20.9370 C   0  0  0  0  0  3  0  0  0  0  0  0
  -30.7960  -19.1190   21.6230 N   0  0  0  0  0  4  0  0  0  0  0  0
  -31.0550  -19.9210   22.1670 H   0  0  0  0  0  0  0  0  0  0  0  0
  -30.5960  -18.3650   22.2590 H   0  0  0  0  0  0  0  0  0  0  0  0
  -32.0100  -18.7680   20.8300 C   0  0  0  0  0  2  0  0  0  0  0  0
  -32.6010  -17.3660   21.1980 C   0  0  0  0  0  2  0  0  0  0  0  0
  -31.9200  -16.6060   22.3640 C   0  0  0  0  0  2  0  0  0  0  0  0
  -31.9590  -15.0160   22.3300 C   0  0  0  0  0  2  0  0  0  0  0  0
  -31.0390  -13.2010   20.6910 C   0  0  0  0  0  0  0  0  0  0  0  0
  -30.7390  -11.2210   19.0860 C   0  0  0  0  0  3  0  0  0  0  0  0
  -29.5880  -10.4470   17.7620 C   0  0  0  0  0  3  0  0  0  0  0  0
  -27.6430  -10.6720   17.8810 C   0  0  0  0  0  1  0  0  0  0  0  0
  -26.9500  -11.8150   19.3610 C   0  0  0  0  0  1  0  0  0  0  0  0
  -28.2980  -12.6780   20.5780 C   0  0  0  0  0  1  0  0  0  0  0  0
  -30.0510  -12.3780   20.3020 N   0  0  0  0  0  0  0  0  0  0  0  0
  -32.1220  -13.0530   20.1490 O   0  0  0  0  0  0  0  0  0  0  0  0
  -30.8750  -14.2180   21.6050 N   0  0  0  0  0  0  0  0  0  0  0  0
  -29.9390  -14.3720   21.9630 H   0  0  0  0  0  0  0  0  0  0  0  0
  -24.7940  -11.8410   20.3810 C   0  0  0  0  0  0  0  0  0  0  0  0
  -23.8570  -11.0550   20.9190 C   0  0  0  0  0  0  0  0  0  0  0  0
  -24.2810   -9.6960   20.8080 C   0  0  0  0  0  0  0  0  0  0  0  0
  -25.8260  -11.0690   20.0160 N   0  0  0  0  0  0  0  0  0  0  0  0
  -25.5240   -9.7060   20.2420 N   0  0  0  0  0  0  0  0  0  0  0  0
  -23.4800   -8.4890   21.1900 C   0  0  0  0  0  0  0  0  0  0  0  0
  -23.9820   -7.4310   21.9880 C   0  0  0  0  0  3  0  0  0  0  0  0
  -23.1370   -6.3760   22.4310 C   0  0  0  0  0  3  0  0  0  0  0  0
  -21.7610   -6.3620   22.0940 C   0  0  0  0  0  0  0  0  0  0  0  0
  -21.2640   -7.4020   21.2910 C   0  0  0  0  0  3  0  0  0  0  0  0
  -22.1090   -8.4400   20.8460 C   0  0  0  0  0  3  0  0  0  0  0  0
  -20.8760   -5.3680   22.4450 O   0  0  0  0  0  0  0  0  0  0  0  0
  -21.1460   -4.4540   23.4350 C   0  0  0  0  0  0  0  0  0  0  0  0
  -21.2440   -4.8330   24.7910 C   0  0  0  0  0  3  0  0  0  0  0  0
  -21.4570   -3.8620   25.7890 C   0  0  0  0  0  3  0  0  0  0  0  0
  -21.5620   -2.5020   25.4320 C   0  0  0  0  0  0  0  0  0  0  0  0
  -21.4570   -2.1160   24.0840 C   0  0  0  0  0  3  0  0  0  0  0  0
  -21.2460   -3.0870   23.0900 C   0  0  0  0  0  0  0  0  0  0  0  0
  -21.1190   -2.7050   21.7980 F   0  0  0  0  0  0  0  0  0  0  0  0
  -21.7660   -1.5630   26.3890 F   0  0  0  0  0  0  0  0  0  0  0  0
  -22.5970  -11.6310   21.4410 C   0  0  0  0  0  0  0  0  0  0  0  0
  -22.0640  -11.0630   22.5030 N   0  0  0  0  0  0  0  0  0  0  0  0
  -22.1490  -12.6740   20.9590 O   0  0  0  0  0  0  0  0  0  0  0  0
  -22.4590  -10.2130   22.8950 H   0  0  0  0  0  0  0  0  0  0  0  0
  -21.2380  -11.4540   22.9310 H   0  0  0  0  0  0  0  0  0  0  0  0
  -24.8270  -13.2230   20.1870 N   0  0  0  0  0  0  0  0  0  0  0  0
  -24.0790  -13.8250   20.4970 H   0  0  0  0  0  0  0  0  0  0  0  0
  -25.6120  -13.7360   19.8070 H   0  0  0  0  0  0  0  0  0  0  0  0
  1  5  2  0
  2  6  1  0
  2  1  1  0
  3  5  1  0
  4  3  1  0
  5 53  1  0
  6  4  1  0
  9  8  2  0
 11 13  1  0
 12 23  2  0
 13 18  1  0
 14 22  1  0
 14 24  1  0
 15 21  1  0
 15 17  1  0
 16 22  1  0
 17 16  1  0
 18 17  2  0
 19 20  1  0
 19 13  2  0
 20 15  2  0
 21 14  1  0
 22 12  1  0
 24 26  2  0
 25 24  1  0
 27 25  1  0
 28 37  2  0
 28 33  1  0
 29 25  1  0
 29 33  1  0
 30 29  1  0
 31 32  1  0
 31 30  1  0
 32 28  1  0
 33 34  2  0
 34 35  1  0
 36 35  2  0
 37 36  1  0
 38 12  1  0
 38 39  1  0
 38 48  1  0
 39 42  1  0
 40 39  1  0
 40 44  1  0
 41 40  2  0
 44 43  1  0
 44 46  1  0
 46 47  1  0
 46 45  1  0
 48 51  1  1
 48 49  1  0
 50 48  1  0
 53 54  1  0
 53 52  1  0
 54 55  1  0
 54 56  1  0
 57 58  1  0
 57 54  1  0
 58 59  1  0
 60 59  1  0
 61 69  1  0
 62 67  1  0
 63 64  1  0
 63 62  2  0
 65 74  1  0
 67 66  1  0
 67 61  1  0
 68 61  2  0
 69 70  1  0
 69 60  1  0
 71 72  2  0
 72 91  1  0
 73 72  1  0
 73 76  1  0
 74 75  1  0
 74 71  1  0
 75 73  2  0
 76 77  1  0
 77 78  2  0
 79 78  1  0
 79 82  1  0
 80 79  2  0
 81 76  2  0
 81 80  1  0
 82 83  1  0
 83 84  1  0
 84 85  2  0
 86 85  1  0
 86 90  1  0
 87 86  2  0
 88 83  2  0
 88 87  1  0
 89 88  1  0
 91 92  1  0
 92 94  1  0
 92 95  1  0
 93 91  2  0
 96 71  1  0
 96 97  1  0
 98 96  1  0
M  ISO  4  10 101  11 101  61 100  69 100
M  END
>  <TORSDO>  (19) 
F 24

>  <SCORE>  (19) 
6.008

>  <name>  (19) 
18

>  <ligand_id>  (19) 
18

>  <original_smiles>  (19) 
[H]c1c([H])c([H])c2c(c1[H])C([H])([H])C([H])([H])C([H])([H])C2([H])N([H])C(=O)C1([H])N(C(=O)C([H])(N([H])C(=O)C([H])(N([H])C([H])([H])[H])C([H])([H])[H])C(C([H])([H])[H])(C([H])([H])[H])C([H])([H])[H])C([H])([H])c2c([H])c(OC([H])([H])C(=O)c3c([H])c(C([H])(C([H])([H])[H])[N+]([H])([H])C([H])([H])C([H])([H])C([H])([H])C([H])([H])N([H])C(=O)N4C([H])([H])C([H])([H])C([H])([H])C([H])(n5nc(-c6c([H])c([H])c(Oc7c([H])c([H])c(F)c([H])c7F)c([H])c6[H])c(C(=O)N([H])[H])c5N([H])[H])C4([H])[H])c([H])c([H])c3C([H])([H])[H])c([H])c([H])c2C1([H])[H]

>  <smiles>  (19) 
[H]c1c([H])c([H])c2c(c1[H])C([H])([H])C([H])([H])C([H])([H])C2([H])N([H])C(=O)C1([H])N(C(=O)C([H])(N([H])C(=O)C([H])(N([H])C([H])([H])[H])C([H])([H])[H])C(C([H])([H])[H])(C([H])([H])[H])C([H])([H])[H])C([H])([H])c2c([H])c(OC([H])([H])C(=O)c3c([H])c(C([H])(C([H])([H])[H])[N+]([H])([H])C([H])([H])C([H])([H])C([H])([H])C([H])([H])N([H])C(=O)N4C([H])([H])C([H])([H])C([H])([H])C([H])(n5nc(-c6c([H])c([H])c(Oc7c([H])c([H])c(F)c([H])c7F)c([H])c6[H])c(C(=O)N([H])[H])c5N([H])[H])C4([H])[H])c([H])c([H])c3C([H])([H])[H])c([H])c([H])c2C1([H])[H]

$$$$
19:0:0
     RDKit          3D

 99108  0  0  1  0  0  0  0  0999 V2000
  -28.9430  -23.4620   23.7170 C   0  0  0  0  0  2  0  0  0  0  0  0
  -30.6490  -23.2710   21.8430 C   0  0  0  0  0  2  0  0  0  0  0  0
  -28.0580  -23.7720   22.4990 C   0  0  0  0  0  2  0  0  0  0  0  0
  -30.1060  -24.6380   21.3640 C   0  0  0  0  0  2  0  0  0  0  0  0
  -30.3800  -23.0180   23.3430 C   0  0  0  0  0  3  0  0  0  0  0  0
  -28.6490  -24.8310   21.6370 N   0  0  1  0  0  4  0  0  0  0  0  0
  -28.5990  -25.6730   22.1950 H   0  0  0  0  0  0  0  0  0  0  0  0
  -30.6360  -21.5560   23.7920 C   0  0  0  0  0  2  0  0  0  0  0  0
  -31.8910  -20.8630   23.2220 C   0  0  0  0  0  2  0  0  0  0  0  0
  -32.1490  -20.0510   20.8260 C   0  0  0  0  0  3  0  0  0  0  0  0
  -30.7860  -18.7460   22.3690 C   0  0  0  0  0  3  0  0  0  0  0  0
  -31.8610  -19.1330   19.8000 C   0  0  0  0  0  3  0  0  0  0  0  0
  -30.5010  -17.8270   21.3440 C   0  0  0  0  0  3  0  0  0  0  0  0
  -31.6000  -19.8690   22.1120 C   0  0  0  0  0  0  0  0  0  0  0  0
  -31.0310  -18.0190   20.0500 C   0  0  0  0  0  0  0  0  0  0  0  0
  -30.6830  -17.0620   18.9210 C   0  0  0  0  0  3  0  0  0  0  0  0
  -31.0420  -14.6250   19.1310 C   0  0  0  0  0  0  0  0  0  0  0  0
  -30.9050  -12.1800   18.9330 C   0  0  0  0  0  2  0  0  0  0  0  0
  -29.9180  -11.8120   17.8100 C   0  0  0  0  0  2  0  0  0  0  0  0
  -28.4820  -11.7270   18.3610 C   0  0  0  0  0  2  0  0  0  0  0  0
  -28.0880  -12.9700   19.2020 C   0  0  0  0  0  3  0  0  0  0  0  0
  -29.1880  -13.3120   20.2320 C   0  0  0  0  0  2  0  0  0  0  0  0
  -30.4670  -13.4560   19.5140 N   0  0  0  0  0  0  0  0  0  0  0  0
  -32.0760  -14.6810   18.4630 O   0  0  0  0  0  0  0  0  0  0  0  0
  -30.3570  -15.7320   19.4300 N   0  0  0  0  0  0  0  0  0  0  0  0
  -29.5310  -15.6360   19.9970 H   0  0  0  0  0  0  0  0  0  0  0  0
  -25.8690  -13.7380   20.2590 C   0  0  0  0  0  0  0  0  0  0  0  0
  -24.7870  -13.0380   20.7240 C   0  0  0  0  0  0  0  0  0  0  0  0
  -25.1050  -11.6570   20.5490 C   0  0  0  0  0  0  0  0  0  0  0  0
  -26.7860  -12.7860   19.8400 N   0  0  0  0  0  0  0  0  0  0  0  0
  -26.3350  -11.5260   20.0680 N   0  0  0  0  0  0  0  0  0  0  0  0
  -24.2910  -10.4530   20.7610 C   0  0  0  0  0  0  0  0  0  0  0  0
  -24.7680   -9.3650   21.5250 C   0  0  0  0  0  3  0  0  0  0  0  0
  -23.9600   -8.2260   21.7310 C   0  0  0  0  0  3  0  0  0  0  0  0
  -22.6610   -8.1670   21.1740 C   0  0  0  0  0  0  0  0  0  0  0  0
  -22.1990   -9.2430   20.3960 C   0  0  0  0  0  3  0  0  0  0  0  0
  -23.0060  -10.3750   20.1890 C   0  0  0  0  0  3  0  0  0  0  0  0
  -21.8150   -7.0900   21.3000 O   0  0  0  0  0  0  0  0  0  0  0  0
  -21.6830   -6.4140   22.4850 C   0  0  0  0  0  0  0  0  0  0  0  0
  -21.2610   -7.0590   23.6690 C   0  0  0  0  0  3  0  0  0  0  0  0
  -21.0710   -6.3120   24.8480 C   0  0  0  0  0  3  0  0  0  0  0  0
  -21.2930   -4.9220   24.8450 C   0  0  0  0  0  0  0  0  0  0  0  0
  -21.7060   -4.2760   23.6680 C   0  0  0  0  0  3  0  0  0  0  0  0
  -21.8980   -5.0210   22.4900 C   0  0  0  0  0  0  0  0  0  0  0  0
  -22.2770   -4.3910   21.3520 F   0  0  0  0  0  0  0  0  0  0  0  0
  -21.1020   -4.2020   25.9770 F   0  0  0  0  0  0  0  0  0  0  0  0
  -23.4900  -13.6150   21.2120 C   0  0  0  0  0  0  0  0  0  0  0  0
  -22.7800  -12.8900   22.0700 N   0  0  0  0  0  0  0  0  0  0  0  0
  -23.1220  -14.7390   20.8740 O   0  0  0  0  0  0  0  0  0  0  0  0
  -23.0930  -11.9760   22.3640 H   0  0  0  0  0  0  0  0  0  0  0  0
  -21.9130  -13.2530   22.4390 H   0  0  0  0  0  0  0  0  0  0  0  0
  -26.1420  -15.0970   20.1420 N   0  0  0  0  0  0  0  0  0  0  0  0
  -25.4600  -15.8080   20.3850 H   0  0  0  0  0  0  0  0  0  0  0  0
  -26.9820  -15.4800   19.7300 H   0  0  0  0  0  0  0  0  0  0  0  0
  -29.8990  -18.8240   17.2030 C   0  0  0  0  0  1  0  0  0  0  0  0
  -29.5180  -17.6090   18.0600 C   0  0  0  0  0  2  0  0  0  0  0  0
  -27.8220  -25.0930   20.4230 C   0  0  0  0  0  2  0  0  0  0  0  0
  -28.4810  -26.0850   19.4350 C   0  0  0  0  0  2  0  0  0  0  0  0
  -27.5150  -26.6210   18.5250 O   0  0  0  0  0  0  0  0  0  0  0  0
  -25.6340  -30.7870   23.9890 C   0  0  0  0  0  0  0  0  0  0  0  0
  -26.5730  -27.4400   19.1000 C   0  0  0  0  0  0  0  0  0  0  0  0
  -23.8280  -30.1950   22.4010 C   0  0  0  0  0  3  0  0  0  0  0  0
  -24.5850  -29.0930   20.2280 C   0  0  0  0  0  0  0  0  0  0  0  0
  -26.2560  -30.3220   21.6210 C   0  0  0  0  0  2  0  0  0  0  0  0
  -25.9240  -29.2480   20.6070 C   0  0  0  0  0  0  0  0  0  0  0  0
  -26.9220  -28.4210   20.0530 C   0  0  0  0  0  3  0  0  0  0  0  0
  -25.2260  -27.3080   18.7070 C   0  0  0  0  0  3  0  0  0  0  0  0
  -24.2280  -28.1200   19.2770 C   0  0  0  0  0  3  0  0  0  0  0  0
  -23.5790  -30.0150   20.8800 C   0  0  0  0  0  2  0  0  0  0  0  0
  -25.2730  -30.4250   22.7250 N   0  0  0  0  0  0  0  0  0  0  0  0
  -24.7820  -30.9740   24.8680 O   0  0  0  0  0  0  0  0  0  0  0  0
  -23.2190  -28.9840   23.1460 C   0  0  0  0  0  0  0  0  0  0  0  0
  -21.9600  -28.6500   22.8150 N   0  0  0  0  0  0  0  0  0  0  0  0
  -23.8810  -28.3520   23.9740 O   0  0  0  0  0  0  0  0  0  0  0  0
  -21.4830  -29.2210   22.1310 H   0  0  0  0  0  0  0  0  0  0  0  0
  -19.0610  -26.5700   22.2600 C   0  0  0  0  0  0  0  0  0  0  0  0
  -21.2000  -27.5240   23.3570 C   0  0  0  0  0  3  0  0  0  0  0  0
  -21.8670  -26.1780   22.9940 C   0  0  0  0  0  2  0  0  0  0  0  0
  -21.3160  -25.5620   21.7040 C   0  0  0  0  0  2  0  0  0  0  0  0
  -19.8080  -25.3220   21.8250 C   0  0  0  0  0  2  0  0  0  0  0  0
  -19.7200  -27.6110   22.9660 C   0  0  0  0  0  0  0  0  0  0  0  0
  -18.9890  -28.7670   23.3170 C   0  0  0  0  0  3  0  0  0  0  0  0
  -17.6290  -28.8900   22.9780 C   0  0  0  0  0  3  0  0  0  0  0  0
  -16.9780  -27.8480   22.2940 C   0  0  0  0  0  3  0  0  0  0  0  0
  -17.6940  -26.6900   21.9400 C   0  0  0  0  0  3  0  0  0  0  0  0
  -27.1290  -31.0050   24.3850 C   0  0  0  0  0  3  0  0  0  0  0  0
  -27.2220  -32.3070   25.0570 N   0  0  0  0  0  0  0  0  0  0  0  0
  -27.7700  -33.4020   24.5170 C   0  0  0  0  0  0  0  0  0  0  0  0
  -28.3220  -33.4000   23.4120 O   0  0  0  0  0  0  0  0  0  0  0  0
  -26.7400  -32.3970   25.9390 H   0  0  0  0  0  0  0  0  0  0  0  0
  -26.5870  -35.6070   24.7540 C   0  0  0  0  0  1  0  0  0  0  0  0
  -27.6940  -34.7080   25.3280 C   0  0  0  0  0  3  0  0  0  0  0  0
  -30.0100  -34.7750   26.1410 C   0  0  0  0  0  1  0  0  0  0  0  0
  -28.9720  -35.4530   25.3660 N   0  0  0  0  0  0  0  0  0  0  0  0
  -28.8410  -36.3810   25.7570 H   0  0  0  0  0  0  0  0  0  0  0  0
  -27.7020  -29.8570   25.3020 C   0  0  1  0  0  0  0  0  0  0  0  0
  -26.8200  -29.5430   26.5330 C   0  0  0  0  0  1  0  0  0  0  0  0
  -27.8680  -28.5510   24.4900 C   0  0  0  0  0  1  0  0  0  0  0  0
  -29.1120  -30.2450   25.8090 C   0  0  0  0  0  1  0  0  0  0  0  0
  2  5  1  0
  3  1  1  0
  4  6  1  0
  4  2  1  0
  5  1  1  0
  5  8  1  0
  6  7  1  1
  6  3  1  0
  9  8  1  0
 10 14  1  0
 12 15  1  0
 12 10  2  0
 13 11  1  0
 14 11  2  0
 14  9  1  0
 15 13  2  0
 16 56  1  0
 16 25  1  0
 16 15  1  0
 17 25  1  0
 17 23  1  0
 18 23  1  0
 19 20  1  0
 19 18  1  0
 21 20  1  0
 21 30  1  0
 21 22  1  0
 23 22  1  0
 24 17  2  0
 25 26  1  0
 27 28  2  0
 28 47  1  0
 29 28  1  0
 29 32  1  0
 30 31  1  0
 30 27  1  0
 31 29  2  0
 32 33  1  0
 33 34  2  0
 35 38  1  0
 35 34  1  0
 36 35  2  0
 37 36  1  0
 37 32  2  0
 38 39  1  0
 39 44  2  0
 39 40  1  0
 40 41  2  0
 42 41  1  0
 42 46  1  0
 43 42  2  0
 44 43  1  0
 45 44  1  0
 47 48  1  0
 48 50  1  0
 48 51  1  0
 49 47  2  0
 52 27  1  0
 52 53  1  0
 54 52  1  0
 55 56  1  0
 57  6  1  0
 58 57  1  0
 59 61  1  0
 59 58  1  0
 60 71  2  0
 61 66  1  0
 62 70  1  0
 62 72  1  0
 63 65  1  0
 63 69  1  0
 64 70  1  0
 65 64  1  0
 66 65  2  0
 67 61  2  0
 67 68  1  0
 68 63  2  0
 69 62  1  0
 70 60  1  0
 72 74  2  0
 73 72  1  0
 75 73  1  0
 76 81  1  0
 77 73  1  0
 78 77  1  0
 79 80  1  0
 79 78  1  0
 80 76  1  0
 81 82  2  0
 81 77  1  0
 83 82  1  0
 84 83  2  0
 85 76  2  0
 85 84  1  0
 86 60  1  0
 86 87  1  0
 86 96  1  0
 87 90  1  0
 88 87  1  0
 88 92  1  0
 89 88  2  0
 92 91  1  0
 92 94  1  0
 94 95  1  0
 94 93  1  0
 96 99  1  1
 96 97  1  0
 98 96  1  0
M  ISO  4  17 100  25 100  58 101  59 101
M  END
>  <TORSDO>  (20) 
F 23

>  <SCORE>  (20) 
-9.649

>  <name>  (20) 
19

>  <ligand_id>  (20) 
19

>  <original_smiles>  (20) 
[H]c1c([H])c([H])c2c(c1[H])C([H])([H])C([H])([H])C([H])([H])C2([H])N([H])C(=O)C1([H])N(C(=O)C([H])(N([H])C(=O)C([H])(N([H])C([H])([H])[H])C([H])([H])[H])C(C([H])([H])[H])(C([H])([H])[H])C([H])([H])[H])C([H])([H])c2c([H])c(OC([H])([H])C([H])([H])[N+]3([H])C([H])([H])C([H])([H])C([H])(C([H])([H])C([H])([H])c4c([H])c([H])c(C([H])(N([H])C(=O)N5C([H])([H])C([H])([H])C([H])([H])C([H])(n6nc(-c7c([H])c([H])c(Oc8c([H])c([H])c(F)c([H])c8F)c([H])c7[H])c(C(=O)N([H])[H])c6N([H])[H])C5([H])[H])C([H])([H])C([H])([H])[H])c([H])c4[H])C([H])([H])C3([H])[H])c([H])c([H])c2C1([H])[H]

>  <smiles>  (20) 
[H]c1c([H])c([H])c2c(c1[H])C([H])([H])C([H])([H])C([H])([H])C2([H])N([H])C(=O)C1([H])N(C(=O)C([H])(N([H])C(=O)C([H])(N([H])C([H])([H])[H])C([H])([H])[H])C(C([H])([H])[H])(C([H])([H])[H])C([H])([H])[H])C([H])([H])c2c([H])c(OC([H])([H])C([H])([H])[N+]3([H])C([H])([H])C([H])([H])C([H])(C([H])([H])C([H])([H])c4c([H])c([H])c(C([H])(N([H])C(=O)N5C([H])([H])C([H])([H])C([H])([H])C([H])(n6nc(-c7c([H])c([H])c(Oc8c([H])c([H])c(F)c([H])c8F)c([H])c7[H])c(C(=O)N([H])[H])c6N([H])[H])C5([H])[H])C([H])([H])C([H])([H])[H])c([H])c4[H])C([H])([H])C3([H])[H])c([H])c([H])c2C1([H])[H]

$$$$
20:0:0
     RDKit          3D

 97105  0  0  1  0  0  0  0  0999 V2000
  -31.0070  -28.6730   15.2410 C   0  0  0  0  0  3  0  0  0  0  0  0
  -31.1120  -30.9970   14.5430 C   0  0  0  0  0  3  0  0  0  0  0  0
  -31.1130  -28.2560   13.8990 C   0  0  0  0  0  3  0  0  0  0  0  0
  -31.1910  -30.5790   13.2000 C   0  0  0  0  0  3  0  0  0  0  0  0
  -30.9950  -30.0430   15.5830 C   0  0  0  0  0  0  0  0  0  0  0  0
  -31.1770  -29.2080   12.8560 C   0  0  0  0  0  0  0  0  0  0  0  0
  -31.0090  -31.9510   17.2610 C   0  0  0  0  0  1  0  0  0  0  0  0
  -30.8230  -30.4380   17.0550 C   0  0  0  0  0  3  0  0  0  0  0  0
  -29.5400  -29.9760   17.6390 N   0  0  0  0  0  4  0  0  0  0  0  0
  -28.7990  -30.5420   17.2570 H   0  0  0  0  0  0  0  0  0  0  0  0
  -29.3980  -29.0310   17.3170 H   0  0  0  0  0  0  0  0  0  0  0  0
  -29.4980  -29.9660   19.1240 C   0  0  0  0  0  2  0  0  0  0  0  0
  -28.1770  -29.3990   19.7100 C   0  0  0  0  0  2  0  0  0  0  0  0
  -28.2700  -29.0420   21.0960 O   0  0  0  0  0  0  0  0  0  0  0  0
  -29.5840  -34.9520   24.8270 C   0  0  0  0  0  0  0  0  0  0  0  0
  -29.1670  -29.7810   21.8230 C   0  0  0  0  0  0  0  0  0  0  0  0
  -31.5650  -33.6390   24.1310 C   0  0  0  0  0  3  0  0  0  0  0  0
  -31.0800  -31.3090   23.2170 C   0  0  0  0  0  0  0  0  0  0  0  0
  -29.3110  -32.4970   24.5270 C   0  0  0  0  0  2  0  0  0  0  0  0
  -29.7130  -31.4820   23.4800 C   0  0  0  0  0  0  0  0  0  0  0  0
  -28.7490  -30.7270   22.7830 C   0  0  0  0  0  3  0  0  0  0  0  0
  -30.5420  -29.5940   21.5820 C   0  0  0  0  0  3  0  0  0  0  0  0
  -31.5020  -30.3650   22.2620 C   0  0  0  0  0  3  0  0  0  0  0  0
  -32.0440  -32.1680   24.0030 C   0  0  0  0  0  2  0  0  0  0  0  0
  -30.1120  -33.7400   24.4900 N   0  0  0  0  0  0  0  0  0  0  0  0
  -30.2950  -35.9640   24.8870 O   0  0  0  0  0  0  0  0  0  0  0  0
  -31.9290  -34.3920   22.8300 C   0  0  0  0  0  0  0  0  0  0  0  0
  -33.1280  -34.9940   22.8040 N   0  0  0  0  0  0  0  0  0  0  0  0
  -31.1570  -34.4020   21.8690 O   0  0  0  0  0  0  0  0  0  0  0  0
  -33.7030  -34.9430   23.6340 H   0  0  0  0  0  0  0  0  0  0  0  0
  -35.5000  -37.5700   21.9160 C   0  0  0  0  0  0  0  0  0  0  0  0
  -33.7000  -35.7310   21.6770 C   0  0  0  0  0  3  0  0  0  0  0  0
  -34.7900  -34.8950   20.9660 C   0  0  0  0  0  2  0  0  0  0  0  0
  -36.2000  -35.1740   21.4940 C   0  0  0  0  0  2  0  0  0  0  0  0
  -36.5570  -36.6540   21.3230 C   0  0  0  0  0  2  0  0  0  0  0  0
  -34.1610  -37.1300   22.0990 C   0  0  0  0  0  0  0  0  0  0  0  0
  -33.2280  -38.0080   22.6920 C   0  0  0  0  0  3  0  0  0  0  0  0
  -33.6090  -39.3010   23.0950 C   0  0  0  0  0  3  0  0  0  0  0  0
  -34.9310  -39.7370   22.8960 C   0  0  0  0  0  3  0  0  0  0  0  0
  -35.8700  -38.8740   22.3040 C   0  0  0  0  0  3  0  0  0  0  0  0
  -28.0720  -35.1170   25.1760 C   0  0  0  0  0  3  0  0  0  0  0  0
  -27.9910  -35.7050   26.5200 N   0  0  0  0  0  0  0  0  0  0  0  0
  -27.2240  -35.2300   27.5110 C   0  0  0  0  0  0  0  0  0  0  0  0
  -26.4470  -34.2820   27.3610 O   0  0  0  0  0  0  0  0  0  0  0  0
  -28.6440  -36.4450   26.7310 H   0  0  0  0  0  0  0  0  0  0  0  0
  -28.2270  -35.0680   29.8110 C   0  0  0  0  0  1  0  0  0  0  0  0
  -27.3370  -35.9140   28.8860 C   0  0  0  0  0  3  0  0  0  0  0  0
  -25.5960  -37.5470   29.4560 C   0  0  0  0  0  1  0  0  0  0  0  0
  -26.0290  -36.1550   29.5340 N   0  0  0  0  0  0  0  0  0  0  0  0
  -26.0580  -35.8840   30.5130 H   0  0  0  0  0  0  0  0  0  0  0  0
  -27.2850  -36.0010   24.1320 C   0  0  1  0  0  0  0  0  0  0  0  0
  -27.1510  -37.4840   24.5480 C   0  0  0  0  0  1  0  0  0  0  0  0
  -27.9790  -35.9590   22.7510 C   0  0  0  0  0  1  0  0  0  0  0  0
  -25.8620  -35.4280   23.9270 C   0  0  0  0  0  1  0  0  0  0  0  0
  -32.4670  -28.8080   10.7840 C   0  0  0  0  0  1  0  0  0  0  0  0
  -31.1920  -28.8310   11.4980 N   0  0  0  0  0  0  0  0  0  0  0  0
  -30.1480  -27.8920   11.0930 C   0  0  0  0  0  2  0  0  0  0  0  0
  -30.4710  -27.1730    9.7740 C   0  0  0  0  0  2  0  0  0  0  0  0
  -29.3050  -26.2640    9.3340 C   0  0  0  0  0  2  0  0  0  0  0  0
  -29.1630  -24.3830    7.8290 C   0  0  0  0  0  0  0  0  0  0  0  0
  -30.0300  -22.0730    7.7100 C   0  0  0  0  0  2  0  0  0  0  0  0
  -29.7530  -21.2770    8.9990 C   0  0  0  0  0  2  0  0  0  0  0  0
  -30.8700  -21.5130   10.0330 C   0  0  0  0  0  2  0  0  0  0  0  0
  -31.1740  -23.0190   10.2420 C   0  0  0  0  0  3  0  0  0  0  0  0
  -31.3670  -23.7310    8.8850 C   0  0  0  0  0  2  0  0  0  0  0  0
  -30.1680  -23.4960    8.0560 N   0  0  0  0  0  0  0  0  0  0  0  0
  -28.0810  -24.0540    7.3270 O   0  0  0  0  0  0  0  0  0  0  0  0
  -29.1100  -26.6120    6.9130 C   0  0  0  0  0  1  0  0  0  0  0  0
  -29.4780  -25.6880    7.9910 N   0  0  0  0  0  0  0  0  0  0  0  0
  -32.4070  -23.8750   12.3340 C   0  0  0  0  0  0  0  0  0  0  0  0
  -33.6930  -23.7050   12.7720 C   0  0  0  0  0  0  0  0  0  0  0  0
  -34.3440  -22.9130   11.7780 C   0  0  0  0  0  0  0  0  0  0  0  0
  -32.3260  -23.2130   11.1200 N   0  0  0  0  0  0  0  0  0  0  0  0
  -33.5200  -22.6740   10.7660 N   0  0  0  0  0  0  0  0  0  0  0  0
  -35.6870  -22.3180   11.7550 C   0  0  0  0  0  0  0  0  0  0  0  0
  -36.8410  -23.0900   12.0070 C   0  0  0  0  0  3  0  0  0  0  0  0
  -38.1200  -22.4920   11.9960 C   0  0  0  0  0  3  0  0  0  0  0  0
  -38.2530  -21.1070   11.7350 C   0  0  0  0  0  0  0  0  0  0  0  0
  -37.1010  -20.3480   11.4620 C   0  0  0  0  0  3  0  0  0  0  0  0
  -35.8310  -20.9450   11.4680 C   0  0  0  0  0  3  0  0  0  0  0  0
  -39.4560  -20.4450   11.6790 O   0  0  0  0  0  0  0  0  0  0  0  0
  -39.8680  -19.6160   12.6900 C   0  0  0  0  0  0  0  0  0  0  0  0
  -39.3550  -18.3100   12.8400 C   0  0  0  0  0  3  0  0  0  0  0  0
  -39.8580  -17.4670   13.8510 C   0  0  0  0  0  3  0  0  0  0  0  0
  -40.8790  -17.9240   14.7070 C   0  0  0  0  0  0  0  0  0  0  0  0
  -41.3950  -19.2230   14.5560 C   0  0  0  0  0  3  0  0  0  0  0  0
  -40.8930  -20.0660   13.5480 C   0  0  0  0  0  0  0  0  0  0  0  0
  -41.4080  -21.3090   13.3930 F   0  0  0  0  0  0  0  0  0  0  0  0
  -41.3670  -17.1130   15.6730 F   0  0  0  0  0  0  0  0  0  0  0  0
  -34.2620  -24.1620   14.0830 C   0  0  0  0  0  0  0  0  0  0  0  0
  -35.5550  -24.4680   14.1190 N   0  0  0  0  0  0  0  0  0  0  0  0
  -33.5500  -24.2980   15.0780 O   0  0  0  0  0  0  0  0  0  0  0  0
  -36.1340  -24.3770   13.2970 H   0  0  0  0  0  0  0  0  0  0  0  0
  -35.9700  -24.7970   14.9790 H   0  0  0  0  0  0  0  0  0  0  0  0
  -31.2970  -24.5160   12.8770 N   0  0  0  0  0  0  0  0  0  0  0  0
  -31.3200  -24.9390   13.7990 H   0  0  0  0  0  0  0  0  0  0  0  0
  -30.3690  -24.4810   12.4790 H   0  0  0  0  0  0  0  0  0  0  0  0
  1  5  1  0
  2  5  2  0
  3  1  2  0
  4  2  1  0
  5  8  1  0
  6  4  2  0
  6  3  1  0
  8  7  1  0
  8  9  1  0
  9 12  1  0
 10  9  1  0
 11  9  1  0
 12 13  1  0
 13 14  1  0
 14 16  1  0
 15 26  2  0
 16 21  1  0
 17 27  1  0
 17 25  1  0
 18 20  1  0
 18 24  1  0
 20 19  1  0
 21 20  2  0
 22 16  2  0
 22 23  1  0
 23 18  2  0
 24 17  1  0
 25 19  1  0
 25 15  1  0
 28 27  1  0
 28 30  1  0
 29 27  2  0
 31 36  2  0
 31 40  1  0
 32 36  1  0
 32 28  1  0
 33 34  1  0
 33 32  1  0
 35 34  1  0
 35 31  1  0
 36 37  1  0
 37 38  2  0
 39 38  1  0
 40 39  2  0
 41 15  1  0
 41 42  1  0
 42 45  1  0
 42 43  1  0
 43 47  1  0
 44 43  2  0
 47 49  1  0
 47 46  1  0
 48 49  1  0
 49 50  1  0
 51 52  1  1
 51 41  1  0
 53 51  1  0
 54 51  1  0
 55 56  1  0
 56  6  1  0
 57 56  1  0
 58 57  1  0
 59 58  1  0
 60 69  1  0
 60 66  1  0
 61 66  1  0
 61 62  1  0
 62 63  1  0
 63 64  1  0
 64 65  1  0
 64 73  1  0
 66 65  1  0
 67 60  2  0
 68 69  1  0
 69 59  1  0
 70 71  2  0
 70 95  1  0
 71 90  1  0
 72 71  1  0
 73 70  1  0
 74 73  1  0
 74 72  2  0
 75 72  1  0
 75 76  1  0
 77 76  2  0
 78 77  1  0
 79 80  1  0
 79 78  2  0
 80 75  2  0
 81 78  1  0
 81 82  1  0
 82 83  2  0
 82 87  1  0
 83 84  1  0
 84 85  2  0
 85 89  1  0
 86 85  1  0
 87 86  2  0
 88 87  1  0
 90 91  1  0
 90 92  2  0
 91 94  1  0
 93 91  1  0
 95 96  1  0
 97 95  1  0
M  ISO  4  13 101  14 101  60 100  69 100
M  END
>  <TORSDO>  (21) 
F 24

>  <SCORE>  (21) 
20.622

>  <name>  (21) 
20

>  <ligand_id>  (21) 
20

>  <original_smiles>  (21) 
[H]c1c([H])c([H])c2c(c1[H])C([H])([H])C([H])([H])C([H])([H])C2([H])N([H])C(=O)C1([H])N(C(=O)C([H])(N([H])C(=O)C([H])(N([H])C([H])([H])[H])C([H])([H])[H])C(C([H])([H])[H])(C([H])([H])[H])C([H])([H])[H])C([H])([H])c2c([H])c(OC([H])([H])C([H])([H])[N+]([H])([H])C([H])(c3c([H])c([H])c(N(C([H])([H])[H])C([H])([H])C([H])([H])C([H])([H])N(C(=O)N4C([H])([H])C([H])([H])C([H])([H])C([H])(n5nc(-c6c([H])c([H])c(Oc7c([H])c([H])c(F)c([H])c7F)c([H])c6[H])c(C(=O)N([H])[H])c5N([H])[H])C4([H])[H])C([H])([H])[H])c([H])c3[H])C([H])([H])[H])c([H])c([H])c2C1([H])[H]

>  <smiles>  (21) 
[H]c1c([H])c([H])c2c(c1[H])C([H])([H])C([H])([H])C([H])([H])C2([H])N([H])C(=O)C1([H])N(C(=O)C([H])(N([H])C(=O)C([H])(N([H])C([H])([H])[H])C([H])([H])[H])C(C([H])([H])[H])(C([H])([H])[H])C([H])([H])[H])C([H])([H])c2c([H])c(OC([H])([H])C([H])([H])[N+]([H])([H])C([H])(c3c([H])c([H])c(N(C([H])([H])[H])C([H])([H])C([H])([H])C([H])([H])N(C(=O)N4C([H])([H])C([H])([H])C([H])([H])C([H])(n5nc(-c6c([H])c([H])c(Oc7c([H])c([H])c(F)c([H])c7F)c([H])c6[H])c(C(=O)N([H])[H])c5N([H])[H])C4([H])[H])C([H])([H])[H])c([H])c3[H])C([H])([H])[H])c([H])c([H])c2C1([H])[H]

$$$$
21:0:0
     RDKit          3D

100108  0  0  1  0  0  0  0  0999 V2000
  -30.3420  -20.9120   21.7400 C   0  0  0  0  0  3  0  0  0  0  0  0
  -30.3190  -21.9710   23.9330 C   0  0  0  0  0  3  0  0  0  0  0  0
  -32.0480  -20.3440   23.3810 C   0  0  0  0  0  3  0  0  0  0  0  0
  -29.7560  -21.8310   22.6470 C   0  0  0  0  0  0  0  0  0  0  0  0
  -31.4830  -20.1550   22.0970 C   0  0  0  0  0  0  0  0  0  0  0  0
  -31.4670  -21.2450   24.2920 C   0  0  0  0  0  0  0  0  0  0  0  0
  -32.0150  -21.4110   25.5180 F   0  0  0  0  0  0  0  0  0  0  0  0
  -28.5430  -22.6290   22.3060 C   0  0  0  0  0  0  0  0  0  0  0  0
  -27.6630  -22.8940   23.1290 O   0  0  0  0  0  0  0  0  0  0  0  0
  -28.4610  -23.2460   20.9060 C   0  0  0  0  0  2  0  0  0  0  0  0
  -28.8500  -24.6670   21.0140 N   0  0  0  0  0  4  0  0  0  0  0  0
  -29.4730  -24.7720   21.8020 H   0  0  0  0  0  0  0  0  0  0  0  0
  -28.0210  -25.2000   21.2240 H   0  0  0  0  0  0  0  0  0  0  0  0
  -29.5240  -25.1860   19.8010 C   0  0  0  0  0  2  0  0  0  0  0  0
  -29.5370  -26.7220   19.7370 C   0  0  0  0  0  2  0  0  0  0  0  0
  -28.7160  -27.0790   18.6340 O   0  0  0  0  0  0  0  0  0  0  0  0
  -24.6070  -31.0200   22.9230 C   0  0  0  0  0  0  0  0  0  0  0  0
  -27.4860  -27.5900   18.9380 C   0  0  0  0  0  0  0  0  0  0  0  0
  -23.4390  -29.7860   21.1210 C   0  0  0  0  0  3  0  0  0  0  0  0
  -24.9390  -28.7120   19.3660 C   0  0  0  0  0  0  0  0  0  0  0  0
  -25.8790  -30.4960   20.8490 C   0  0  0  0  0  2  0  0  0  0  0  0
  -26.0680  -29.2760   19.9770 C   0  0  0  0  0  0  0  0  0  0  0  0
  -27.3460  -28.7180   19.7710 C   0  0  0  0  0  3  0  0  0  0  0  0
  -26.3470  -27.0280   18.3250 C   0  0  0  0  0  3  0  0  0  0  0  0
  -25.0690  -27.5800   18.5430 C   0  0  0  0  0  3  0  0  0  0  0  0
  -23.6120  -29.3860   19.6320 C   0  0  0  0  0  2  0  0  0  0  0  0
  -24.6610  -30.4420   21.6900 N   0  0  0  0  0  0  0  0  0  0  0  0
  -23.5520  -31.0580   23.5690 O   0  0  0  0  0  0  0  0  0  0  0  0
  -22.9880  -28.5410   21.9170 C   0  0  0  0  0  0  0  0  0  0  0  0
  -21.7260  -28.1290   21.7150 N   0  0  0  0  0  0  0  0  0  0  0  0
  -23.7700  -27.9520   22.6660 O   0  0  0  0  0  0  0  0  0  0  0  0
  -21.1460  -28.6690   21.0890 H   0  0  0  0  0  0  0  0  0  0  0  0
  -18.7030  -26.1570   21.7820 C   0  0  0  0  0  0  0  0  0  0  0  0
  -21.0970  -26.9590   22.3270 C   0  0  0  0  0  3  0  0  0  0  0  0
  -21.5810  -25.6530   21.6540 C   0  0  0  0  0  2  0  0  0  0  0  0
  -20.6690  -25.1880   20.5130 C   0  0  0  0  0  2  0  0  0  0  0  0
  -19.2450  -24.9550   21.0270 C   0  0  0  0  0  2  0  0  0  0  0  0
  -19.5730  -27.1060   22.3790 C   0  0  0  0  0  0  0  0  0  0  0  0
  -19.0170  -28.2250   23.0390 C   0  0  0  0  0  3  0  0  0  0  0  0
  -17.6230  -28.3980   23.1140 C   0  0  0  0  0  3  0  0  0  0  0  0
  -16.7670  -27.4470   22.5340 C   0  0  0  0  0  3  0  0  0  0  0  0
  -17.3050  -26.3310   21.8710 C   0  0  0  0  0  3  0  0  0  0  0  0
  -25.8630  -31.6860   23.5660 C   0  0  0  0  0  3  0  0  0  0  0  0
  -26.5440  -30.7900   24.6730 C   0  0  1  0  0  0  0  0  0  0  0  0
  -25.5590  -30.2670   25.7440 C   0  0  0  0  0  1  0  0  0  0  0  0
  -27.2360  -29.5640   24.0340 C   0  0  0  0  0  1  0  0  0  0  0  0
  -27.6520  -31.5970   25.3930 C   0  0  0  0  0  1  0  0  0  0  0  0
  -25.4370  -32.9750   24.1250 N   0  0  0  0  0  0  0  0  0  0  0  0
  -25.6620  -34.1650   23.5510 C   0  0  0  0  0  0  0  0  0  0  0  0
  -26.3230  -34.2960   22.5180 O   0  0  0  0  0  0  0  0  0  0  0  0
  -24.8470  -32.9410   24.9430 H   0  0  0  0  0  0  0  0  0  0  0  0
  -23.7900  -35.8400   23.4840 C   0  0  0  0  0  1  0  0  0  0  0  0
  -25.0620  -35.4080   24.2320 C   0  0  0  0  0  3  0  0  0  0  0  0
  -27.1130  -36.3110   25.2340 C   0  0  0  0  0  1  0  0  0  0  0  0
  -26.0020  -36.5460   24.3160 N   0  0  0  0  0  0  0  0  0  0  0  0
  -25.5210  -37.3910   24.6130 H   0  0  0  0  0  0  0  0  0  0  0  0
  -33.0030  -18.0780   21.6860 C   0  0  0  0  0  1  0  0  0  0  0  0
  -32.0670  -19.1530   21.0850 C   0  0  0  0  0  3  0  0  0  0  0  0
  -31.0150  -18.5860   20.1920 N   0  0  0  0  0  4  0  0  0  0  0  0
  -31.4260  -18.4310   19.2840 H   0  0  0  0  0  0  0  0  0  0  0  0
  -30.3450  -19.3290   20.0540 H   0  0  0  0  0  0  0  0  0  0  0  0
  -29.0040  -17.6330   21.4520 C   0  0  0  0  0  1  0  0  0  0  0  0
  -30.2490  -17.3570   20.5790 C   0  0  0  0  0  3  0  0  0  0  0  0
  -31.1480  -16.2210   21.1540 C   0  0  0  0  0  2  0  0  0  0  0  0
  -31.5650  -15.1480   20.1220 C   0  0  0  0  0  0  0  0  0  0  0  0
  -31.3480  -12.8690   19.1820 C   0  0  0  0  0  2  0  0  0  0  0  0
  -30.4070  -12.8370   17.9630 C   0  0  0  0  0  2  0  0  0  0  0  0
  -28.9380  -12.6800   18.4070 C   0  0  0  0  0  2  0  0  0  0  0  0
  -28.5460  -13.6960   19.5130 C   0  0  0  0  0  3  0  0  0  0  0  0
  -29.5910  -13.6700   20.6520 C   0  0  0  0  0  2  0  0  0  0  0  0
  -30.9160  -13.9560   20.0750 N   0  0  0  0  0  0  0  0  0  0  0  0
  -32.5340  -15.4010   19.3980 O   0  0  0  0  0  0  0  0  0  0  0  0
  -26.1690  -14.3480   20.2630 C   0  0  0  0  0  0  0  0  0  0  0  0
  -25.1010  -13.5910   20.6640 C   0  0  0  0  0  0  0  0  0  0  0  0
  -25.5400  -12.2350   20.6180 C   0  0  0  0  0  0  0  0  0  0  0  0
  -27.1970  -13.4510   20.0110 N   0  0  0  0  0  0  0  0  0  0  0  0
  -26.8200  -12.1750   20.2740 N   0  0  0  0  0  0  0  0  0  0  0  0
  -24.8010  -10.9810   20.8190 C   0  0  0  0  0  0  0  0  0  0  0  0
  -25.1390  -10.0880   21.8580 C   0  0  0  0  0  3  0  0  0  0  0  0
  -24.3950   -8.9030   22.0510 C   0  0  0  0  0  3  0  0  0  0  0  0
  -23.3040   -8.6020   21.2020 C   0  0  0  0  0  0  0  0  0  0  0  0
  -22.9900   -9.4860   20.1550 C   0  0  0  0  0  3  0  0  0  0  0  0
  -23.7310  -10.6630   19.9620 C   0  0  0  0  0  3  0  0  0  0  0  0
  -22.5460   -7.4600   21.2920 O   0  0  0  0  0  0  0  0  0  0  0  0
  -22.2490   -6.8950   22.5040 C   0  0  0  0  0  0  0  0  0  0  0  0
  -21.5660   -7.6100   23.5130 C   0  0  0  0  0  3  0  0  0  0  0  0
  -21.2090   -6.9630   24.7130 C   0  0  0  0  0  3  0  0  0  0  0  0
  -21.5260   -5.6060   24.9050 C   0  0  0  0  0  0  0  0  0  0  0  0
  -22.2030   -4.8920   23.8990 C   0  0  0  0  0  3  0  0  0  0  0  0
  -22.5590   -5.5340   22.7020 C   0  0  0  0  0  0  0  0  0  0  0  0
  -23.1880   -4.8350   21.7270 F   0  0  0  0  0  0  0  0  0  0  0  0
  -21.1790   -4.9850   26.0590 F   0  0  0  0  0  0  0  0  0  0  0  0
  -23.7210  -14.0920   20.9730 C   0  0  0  0  0  0  0  0  0  0  0  0
  -23.0190  -13.4370   21.8920 N   0  0  0  0  0  0  0  0  0  0  0  0
  -23.2720  -15.1010   20.4290 O   0  0  0  0  0  0  0  0  0  0  0  0
  -23.4000  -12.6280   22.3590 H   0  0  0  0  0  0  0  0  0  0  0  0
  -22.0880  -13.7530   22.1290 H   0  0  0  0  0  0  0  0  0  0  0  0
  -26.3370  -15.7140   20.0670 N   0  0  0  0  0  0  0  0  0  0  0  0
  -25.5580  -16.3550   20.1750 H   0  0  0  0  0  0  0  0  0  0  0  0
  -27.1510  -16.1540   19.6570 H   0  0  0  0  0  0  0  0  0  0  0  0
  1  5  2  0
  1  4  1  0
  2  6  1  0
  3  6  2  0
  4  2  2  0
  5  3  1  0
  6  7  1  0
  8  4  1  0
  8  9  2  0
 10 11  1  0
 10  8  1  0
 11 13  1  0
 11 12  1  0
 14 11  1  0
 15 14  1  0
 16 18  1  0
 16 15  1  0
 17 28  2  0
 18 23  1  0
 19 27  1  0
 19 29  1  0
 20 26  1  0
 20 22  1  0
 21 27  1  0
 22 21  1  0
 23 22  2  0
 24 25  1  0
 24 18  2  0
 25 20  2  0
 26 19  1  0
 27 17  1  0
 29 31  2  0
 30 29  1  0
 32 30  1  0
 33 42  2  0
 33 38  1  0
 34 30  1  0
 34 38  1  0
 35 34  1  0
 36 37  1  0
 36 35  1  0
 37 33  1  0
 38 39  2  0
 39 40  1  0
 41 40  2  0
 42 41  1  0
 43 17  1  0
 43 48  1  0
 43 44  1  0
 44 47  1  1
 44 45  1  0
 46 44  1  0
 48 51  1  0
 49 48  1  0
 49 53  1  0
 50 49  2  0
 53 52  1  0
 53 55  1  0
 55 56  1  0
 55 54  1  0
 58 57  1  0
 58  5  1  0
 59 63  1  0
 59 58  1  0
 60 59  1  0
 61 59  1  0
 63 64  1  0
 63 62  1  0
 65 64  1  0
 66 71  1  0
 67 68  1  0
 67 66  1  0
 69 68  1  0
 69 76  1  0
 69 70  1  0
 71 65  1  0
 71 70  1  0
 72 65  2  0
 73 74  2  0
 74 93  1  0
 75 74  1  0
 75 78  1  0
 76 73  1  0
 76 77  1  0
 77 75  2  0
 78 79  1  0
 79 80  2  0
 81 84  1  0
 81 80  1  0
 82 81  2  0
 83 82  1  0
 83 78  2  0
 84 85  1  0
 85 90  2  0
 85 86  1  0
 86 87  2  0
 87 88  1  0
 88 92  1  0
 89 88  2  0
 90 89  1  0
 91 90  1  0
 93 94  1  0
 94 97  1  0
 94 96  1  0
 95 93  2  0
 98 99  1  0
 98 73  1  0
100 98  1  0
M  ISO  4  15 101  16 101  64 100  65 100
M  END
>  <TORSDO>  (22) 
F 25

>  <SCORE>  (22) 
-7.023

>  <name>  (22) 
21

>  <ligand_id>  (22) 
21

>  <original_smiles>  (22) 
[H]c1c([H])c([H])c2c(c1[H])C([H])([H])C([H])([H])C([H])([H])C2([H])N([H])C(=O)C1([H])N(C(=O)C([H])(N([H])C(=O)C([H])(N([H])C([H])([H])[H])C([H])([H])[H])C(C([H])([H])[H])(C([H])([H])[H])C([H])([H])[H])C([H])([H])c2c([H])c(OC([H])([H])C([H])([H])[N+]([H])([H])C([H])([H])C(=O)c3c([H])c(F)c([H])c(C([H])(C([H])([H])[H])[N+]([H])([H])C([H])(C([H])([H])[H])C([H])([H])C(=O)N4C([H])([H])C([H])([H])C([H])([H])C([H])(n5nc(-c6c([H])c([H])c(Oc7c([H])c([H])c(F)c([H])c7F)c([H])c6[H])c(C(=O)N([H])[H])c5N([H])[H])C4([H])[H])c3[H])c([H])c([H])c2C1([H])[H]

>  <smiles>  (22) 
[H]c1c([H])c([H])c2c(c1[H])C([H])([H])C([H])([H])C([H])([H])C2([H])N([H])C(=O)C1([H])N(C(=O)C([H])(N([H])C(=O)C([H])(N([H])C([H])([H])[H])C([H])([H])[H])C(C([H])([H])[H])(C([H])([H])[H])C([H])([H])[H])C([H])([H])c2c([H])c(OC([H])([H])C([H])([H])[N+]([H])([H])C([H])([H])C(=O)c3c([H])c(F)c([H])c(C([H])(C([H])([H])[H])[N+]([H])([H])C([H])(C([H])([H])[H])C([H])([H])C(=O)N4C([H])([H])C([H])([H])C([H])([H])C([H])(n5nc(-c6c([H])c([H])c(Oc7c([H])c([H])c(F)c([H])c7F)c([H])c6[H])c(C(=O)N([H])[H])c5N([H])[H])C4([H])[H])c3[H])c([H])c([H])c2C1([H])[H]

$$$$
22:0:0
     RDKit          3D

 94102  0  0  1  0  0  0  0  0999 V2000
  -29.9370  -22.7610   21.0920 C   0  0  0  0  0  3  0  0  0  0  0  0
  -30.3290  -21.4690   21.4900 C   0  0  0  0  0  3  0  0  0  0  0  0
  -28.6690  -21.7910   19.2650 C   0  0  0  0  0  3  0  0  0  0  0  0
  -29.0930  -22.9320   19.9760 C   0  0  0  0  0  0  0  0  0  0  0  0
  -29.9030  -20.3130   20.7930 C   0  0  0  0  0  0  0  0  0  0  0  0
  -29.0340  -20.4840   19.6710 C   0  0  0  0  0  0  0  0  0  0  0  0
  -28.6920  -24.2870   19.5060 C   0  0  0  0  0  0  0  0  0  0  0  0
  -28.5030  -24.5440   18.3110 O   0  0  0  0  0  0  0  0  0  0  0  0
  -28.4440  -25.3570   20.5870 C   0  0  0  0  0  2  0  0  0  0  0  0
  -28.4710  -26.6820   20.0510 O   0  0  0  0  0  0  0  0  0  0  0  0
  -24.5460  -31.7280   23.1640 C   0  0  0  0  0  0  0  0  0  0  0  0
  -27.2750  -27.3580   20.0800 C   0  0  0  0  0  0  0  0  0  0  0  0
  -23.3760  -30.3400   21.4820 C   0  0  0  0  0  3  0  0  0  0  0  0
  -24.8630  -28.8230   20.0720 C   0  0  0  0  0  0  0  0  0  0  0  0
  -25.8980  -30.7220   21.3280 C   0  0  0  0  0  2  0  0  0  0  0  0
  -26.0050  -29.3580   20.6810 C   0  0  0  0  0  0  0  0  0  0  0  0
  -27.2170  -28.6340   20.6790 C   0  0  0  0  0  3  0  0  0  0  0  0
  -26.1170  -26.8230   19.4800 C   0  0  0  0  0  3  0  0  0  0  0  0
  -24.9110  -27.5530   19.4700 C   0  0  0  0  0  3  0  0  0  0  0  0
  -23.6140  -29.6730   20.1000 C   0  0  0  0  0  2  0  0  0  0  0  0
  -24.6240  -30.9430   22.0520 N   0  0  0  0  0  0  0  0  0  0  0  0
  -23.4550  -31.9910   23.6880 O   0  0  0  0  0  0  0  0  0  0  0  0
  -22.7120  -29.3060   22.4190 C   0  0  0  0  0  0  0  0  0  0  0  0
  -21.3860  -29.1400   22.2790 N   0  0  0  0  0  0  0  0  0  0  0  0
  -23.3850  -28.6540   23.2220 O   0  0  0  0  0  0  0  0  0  0  0  0
  -20.9060  -29.7150   21.6020 H   0  0  0  0  0  0  0  0  0  0  0  0
  -17.9950  -27.9810   22.7400 C   0  0  0  0  0  0  0  0  0  0  0  0
  -20.5560  -28.1940   23.0220 C   0  0  0  0  0  3  0  0  0  0  0  0
  -20.6400  -26.7770   22.4070 C   0  0  0  0  0  2  0  0  0  0  0  0
  -19.5340  -26.4980   21.3850 C   0  0  0  0  0  2  0  0  0  0  0  0
  -18.1530  -26.6470   22.0300 C   0  0  0  0  0  2  0  0  0  0  0  0
  -19.1250  -28.7140   23.1910 C   0  0  0  0  0  0  0  0  0  0  0  0
  -18.9260  -29.9660   23.8130 C   0  0  0  0  0  3  0  0  0  0  0  0
  -17.6300  -30.4840   23.9890 C   0  0  0  0  0  3  0  0  0  0  0  0
  -16.5140  -29.7480   23.5540 C   0  0  0  0  0  3  0  0  0  0  0  0
  -16.6970  -28.4980   22.9350 C   0  0  0  0  0  3  0  0  0  0  0  0
  -25.8190  -32.3540   23.8150 C   0  0  0  0  0  3  0  0  0  0  0  0
  -25.5040  -33.7500   24.1470 N   0  0  0  0  0  0  0  0  0  0  0  0
  -25.8500  -34.8050   23.3980 C   0  0  0  0  0  0  0  0  0  0  0  0
  -26.5420  -34.7060   22.3810 O   0  0  0  0  0  0  0  0  0  0  0  0
  -24.8920  -33.9000   24.9350 H   0  0  0  0  0  0  0  0  0  0  0  0
  -24.1220  -36.5930   23.0180 C   0  0  0  0  0  1  0  0  0  0  0  0
  -25.3510  -36.1900   23.8510 C   0  0  0  0  0  3  0  0  0  0  0  0
  -27.4710  -37.0740   24.7170 C   0  0  0  0  0  1  0  0  0  0  0  0
  -26.3810  -37.2470   23.7590 N   0  0  0  0  0  0  0  0  0  0  0  0
  -25.9710  -38.1640   23.9080 H   0  0  0  0  0  0  0  0  0  0  0  0
  -26.3110  -31.5720   25.0940 C   0  0  1  0  0  0  0  0  0  0  0  0
  -25.1980  -31.3230   26.1380 C   0  0  0  0  0  1  0  0  0  0  0  0
  -26.9030  -30.1990   24.6980 C   0  0  0  0  0  1  0  0  0  0  0  0
  -27.4480  -32.3600   25.7850 C   0  0  0  0  0  1  0  0  0  0  0  0
  -30.3460  -19.0020   21.3780 C   0  0  0  0  0  0  0  0  0  0  0  0
  -30.6970  -18.9120   22.5580 O   0  0  0  0  0  0  0  0  0  0  0  0
  -30.4270  -17.7560   20.4760 C   0  0  0  0  0  2  0  0  0  0  0  0
  -31.3870  -16.6480   20.9840 C   0  0  0  0  0  2  0  0  0  0  0  0
  -31.3640  -14.3210   20.0340 C   0  0  0  0  0  0  0  0  0  0  0  0
  -30.8910  -12.1550   18.9520 C   0  0  0  0  0  2  0  0  0  0  0  0
  -29.9230  -12.3650   17.7700 C   0  0  0  0  0  2  0  0  0  0  0  0
  -28.4590  -12.3290   18.2510 C   0  0  0  0  0  2  0  0  0  0  0  0
  -28.2110  -13.2410   19.4820 C   0  0  0  0  0  3  0  0  0  0  0  0
  -29.2840  -12.9940   20.5680 C   0  0  0  0  0  2  0  0  0  0  0  0
  -30.6110  -13.1920   19.9550 N   0  0  0  0  0  0  0  0  0  0  0  0
  -32.4260  -14.4720   19.4240 O   0  0  0  0  0  0  0  0  0  0  0  0
  -30.8370  -15.3020   20.7790 N   0  0  0  0  0  0  0  0  0  0  0  0
  -29.9760  -15.0770   21.2550 H   0  0  0  0  0  0  0  0  0  0  0  0
  -25.8990  -14.0280   20.2980 C   0  0  0  0  0  0  0  0  0  0  0  0
  -24.7870  -13.3380   20.6980 C   0  0  0  0  0  0  0  0  0  0  0  0
  -25.1320  -11.9540   20.6210 C   0  0  0  0  0  0  0  0  0  0  0  0
  -26.8590  -13.0700   20.0080 N   0  0  0  0  0  0  0  0  0  0  0  0
  -26.4010  -11.8160   20.2570 N   0  0  0  0  0  0  0  0  0  0  0  0
  -24.3130  -10.7520   20.8180 C   0  0  0  0  0  0  0  0  0  0  0  0
  -24.6970   -9.7370   21.7210 C   0  0  0  0  0  3  0  0  0  0  0  0
  -23.8840   -8.5970   21.9060 C   0  0  0  0  0  3  0  0  0  0  0  0
  -22.6730   -8.4670   21.1860 C   0  0  0  0  0  0  0  0  0  0  0  0
  -22.3060   -9.4700   20.2720 C   0  0  0  0  0  3  0  0  0  0  0  0
  -23.1180  -10.6000   20.0860 C   0  0  0  0  0  3  0  0  0  0  0  0
  -21.8320   -7.3830   21.2820 O   0  0  0  0  0  0  0  0  0  0  0  0
  -21.7470   -6.6380   22.4310 C   0  0  0  0  0  0  0  0  0  0  0  0
  -21.4040   -7.2170   23.6720 C   0  0  0  0  0  3  0  0  0  0  0  0
  -21.2600   -6.4030   24.8130 C   0  0  0  0  0  3  0  0  0  0  0  0
  -21.4480   -5.0120   24.7150 C   0  0  0  0  0  0  0  0  0  0  0  0
  -21.7840   -4.4320   23.4780 C   0  0  0  0  0  3  0  0  0  0  0  0
  -21.9300   -5.2440   22.3390 C   0  0  0  0  0  0  0  0  0  0  0  0
  -22.2330   -4.6770   21.1460 F   0  0  0  0  0  0  0  0  0  0  0  0
  -21.3020   -4.2280   25.8080 F   0  0  0  0  0  0  0  0  0  0  0  0
  -23.4460  -13.9220   21.0400 C   0  0  0  0  0  0  0  0  0  0  0  0
  -22.7060  -13.2740   21.9330 N   0  0  0  0  0  0  0  0  0  0  0  0
  -23.0670  -14.9860   20.5510 O   0  0  0  0  0  0  0  0  0  0  0  0
  -23.0240  -12.4120   22.3490 H   0  0  0  0  0  0  0  0  0  0  0  0
  -21.8080  -13.6470   22.2040 H   0  0  0  0  0  0  0  0  0  0  0  0
  -26.1700  -15.3840   20.1370 N   0  0  0  0  0  0  0  0  0  0  0  0
  -25.4590  -16.0940   20.2800 H   0  0  0  0  0  0  0  0  0  0  0  0
  -27.0330  -15.7550   19.7650 H   0  0  0  0  0  0  0  0  0  0  0  0
  -27.2860  -18.6350   19.6930 C   0  0  0  0  0  1  0  0  0  0  0  0
  -28.4020  -19.3290   18.8990 C   0  0  0  0  0  2  0  0  0  0  0  0
  1  2  1  0
  3  6  2  0
  3  4  1  0
  4  1  2  0
  5 51  1  0
  5  2  2  0
  6  5  1  0
  7  4  1  0
  7  9  1  0
  8  7  2  0
 10 12  1  0
 10  9  1  0
 11 22  2  0
 12 17  1  0
 13 21  1  0
 13 23  1  0
 14 20  1  0
 14 16  1  0
 15 21  1  0
 16 15  1  0
 17 16  2  0
 18 12  2  0
 19 18  1  0
 19 14  2  0
 20 13  1  0
 21 11  1  0
 23 25  2  0
 24 23  1  0
 26 24  1  0
 27 36  2  0
 27 32  1  0
 28 24  1  0
 28 32  1  0
 29 28  1  0
 30 31  1  0
 30 29  1  0
 31 27  1  0
 32 33  2  0
 33 34  1  0
 35 34  2  0
 36 35  1  0
 37 11  1  0
 37 38  1  0
 37 47  1  0
 38 41  1  0
 39 43  1  0
 39 38  1  0
 40 39  2  0
 43 42  1  0
 45 43  1  0
 45 46  1  0
 45 44  1  0
 47 50  1  1
 47 48  1  0
 49 47  1  0
 51 52  2  0
 53 54  1  0
 53 51  1  0
 55 63  1  0
 56 61  1  0
 57 58  1  0
 57 56  1  0
 59 58  1  0
 59 68  1  0
 59 60  1  0
 61 55  1  0
 61 60  1  0
 62 55  2  0
 63 54  1  0
 63 64  1  0
 65 66  2  0
 66 85  1  0
 67 66  1  0
 67 70  1  0
 68 69  1  0
 68 65  1  0
 69 67  2  0
 70 71  1  0
 71 72  2  0
 73 76  1  0
 73 72  1  0
 74 73  2  0
 75 74  1  0
 75 70  2  0
 76 77  1  0
 77 78  1  0
 78 79  2  0
 80 79  1  0
 80 84  1  0
 81 80  2  0
 82 77  2  0
 82 81  1  0
 83 82  1  0
 85 86  1  0
 86 89  1  0
 86 88  1  0
 87 85  2  0
 90 91  1  0
 90 65  1  0
 92 90  1  0
 94  6  1  0
 94 93  1  0
M  ISO  4   9 101  10 101  55 100  63 100
M  END
>  <TORSDO>  (23) 
F 22

>  <SCORE>  (23) 
-12.849

>  <name>  (23) 
22

>  <ligand_id>  (23) 
22

>  <original_smiles>  (23) 
[H]c1c([H])c([H])c2c(c1[H])C([H])([H])C([H])([H])C([H])([H])C2([H])N([H])C(=O)C1([H])N(C(=O)C([H])(N([H])C(=O)C([H])(N([H])C([H])([H])[H])C([H])([H])[H])C(C([H])([H])[H])(C([H])([H])[H])C([H])([H])[H])C([H])([H])c2c([H])c(OC([H])([H])C(=O)c3c([H])c([H])c(C(=O)C([H])([H])C([H])([H])N([H])C(=O)N4C([H])([H])C([H])([H])C([H])([H])C([H])(n5nc(-c6c([H])c([H])c(Oc7c([H])c([H])c(F)c([H])c7F)c([H])c6[H])c(C(=O)N([H])[H])c5N([H])[H])C4([H])[H])c(C([H])([H])C([H])([H])[H])c3[H])c([H])c([H])c2C1([H])[H]

>  <smiles>  (23) 
[H]c1c([H])c([H])c2c(c1[H])C([H])([H])C([H])([H])C([H])([H])C2([H])N([H])C(=O)C1([H])N(C(=O)C([H])(N([H])C(=O)C([H])(N([H])C([H])([H])[H])C([H])([H])[H])C(C([H])([H])[H])(C([H])([H])[H])C([H])([H])[H])C([H])([H])c2c([H])c(OC([H])([H])C(=O)c3c([H])c([H])c(C(=O)C([H])([H])C([H])([H])N([H])C(=O)N4C([H])([H])C([H])([H])C([H])([H])C([H])(n5nc(-c6c([H])c([H])c(Oc7c([H])c([H])c(F)c([H])c7F)c([H])c6[H])c(C(=O)N([H])[H])c5N([H])[H])C4([H])[H])c(C([H])([H])C([H])([H])[H])c3[H])c([H])c([H])c2C1([H])[H]

$$$$
23:0:0
     RDKit          3D

 98106  0  0  1  0  0  0  0  0999 V2000
  -27.1130  -20.7590   19.1910 C   0  0  0  0  0  1  0  0  0  0  0  0
  -27.8700  -22.0090   21.1810 C   0  0  0  0  0  1  0  0  0  0  0  0
  -28.3740  -21.3620   19.8570 C   0  0  1  0  0  0  0  0  0  0  0  0
  -30.0130  -20.0120   21.3670 C   0  0  0  0  0  3  0  0  0  0  0  0
  -30.5770  -18.2060   19.3080 C   0  0  0  0  0  3  0  0  0  0  0  0
  -30.8910  -18.9270   21.6090 C   0  0  0  0  0  0  0  0  0  0  0  0
  -29.3990  -20.2190   20.1020 C   0  0  0  0  0  0  0  0  0  0  0  0
  -31.1720  -17.9930   20.5680 C   0  0  0  0  0  0  0  0  0  0  0  0
  -29.7130  -19.2930   19.0710 C   0  0  0  0  0  0  0  0  0  0  0  0
  -31.4880  -18.7990   23.0060 C   0  0  0  0  0  1  0  0  0  0  0  0
  -29.1850  -19.4250   17.8300 F   0  0  0  0  0  0  0  0  0  0  0  0
  -33.4920  -17.0650   20.1180 C   0  0  0  0  0  1  0  0  0  0  0  0
  -32.1090  -16.7870   20.7360 C   0  0  0  0  0  3  0  0  0  0  0  0
  -31.8510  -14.5730   19.4220 C   0  0  0  0  0  0  0  0  0  0  0  0
  -31.3100  -12.3280   18.5210 C   0  0  0  0  0  2  0  0  0  0  0  0
  -30.2810  -12.4220   17.3790 C   0  0  0  0  0  2  0  0  0  0  0  0
  -28.8390  -12.4480   17.9360 C   0  0  0  0  0  2  0  0  0  0  0  0
  -28.6630  -13.4720   19.0880 C   0  0  0  0  0  3  0  0  0  0  0  0
  -29.7840  -13.3180   20.1350 C   0  0  0  0  0  2  0  0  0  0  0  0
  -31.0830  -13.4520   19.4440 N   0  0  0  0  0  0  0  0  0  0  0  0
  -32.8110  -14.7050   18.6550 O   0  0  0  0  0  0  0  0  0  0  0  0
  -31.5070  -15.5030   20.3370 N   0  0  0  0  0  0  0  0  0  0  0  0
  -30.7170  -15.2310   20.9070 H   0  0  0  0  0  0  0  0  0  0  0  0
  -26.4710  -14.3820   20.0870 C   0  0  0  0  0  0  0  0  0  0  0  0
  -25.3450  -13.7550   20.5540 C   0  0  0  0  0  0  0  0  0  0  0  0
  -25.5940  -12.3560   20.4240 C   0  0  0  0  0  0  0  0  0  0  0  0
  -27.3390  -13.3730   19.7030 N   0  0  0  0  0  0  0  0  0  0  0  0
  -26.8190  -12.1430   19.9610 N   0  0  0  0  0  0  0  0  0  0  0  0
  -24.7110  -11.2050   20.6540 C   0  0  0  0  0  0  0  0  0  0  0  0
  -25.0510  -10.1890   21.5770 C   0  0  0  0  0  3  0  0  0  0  0  0
  -24.1810   -9.0980   21.7950 C   0  0  0  0  0  3  0  0  0  0  0  0
  -22.9550   -9.0160   21.0890 C   0  0  0  0  0  0  0  0  0  0  0  0
  -22.6320  -10.0180   20.1530 C   0  0  0  0  0  3  0  0  0  0  0  0
  -23.5040  -11.1000   19.9340 C   0  0  0  0  0  3  0  0  0  0  0  0
  -22.0570   -7.9880   21.2220 O   0  0  0  0  0  0  0  0  0  0  0  0
  -21.8930   -7.3160   22.4090 C   0  0  0  0  0  0  0  0  0  0  0  0
  -21.5080   -7.9800   23.5950 C   0  0  0  0  0  3  0  0  0  0  0  0
  -21.2880   -7.2410   24.7740 C   0  0  0  0  0  3  0  0  0  0  0  0
  -21.4420   -5.8420   24.7680 C   0  0  0  0  0  0  0  0  0  0  0  0
  -21.8180   -5.1780   23.5870 C   0  0  0  0  0  3  0  0  0  0  0  0
  -22.0400   -5.9130   22.4100 C   0  0  0  0  0  0  0  0  0  0  0  0
  -22.3840   -5.2690   21.2700 F   0  0  0  0  0  0  0  0  0  0  0  0
  -21.2220   -5.1290   25.8980 F   0  0  0  0  0  0  0  0  0  0  0  0
  -24.0740  -14.4130   21.0060 C   0  0  0  0  0  0  0  0  0  0  0  0
  -23.3690  -13.8110   21.9580 N   0  0  0  0  0  0  0  0  0  0  0  0
  -23.7200  -15.4980   20.5440 O   0  0  0  0  0  0  0  0  0  0  0  0
  -23.6660  -12.9350   22.3550 H   0  0  0  0  0  0  0  0  0  0  0  0
  -22.5100  -14.2360   22.2890 H   0  0  0  0  0  0  0  0  0  0  0  0
  -26.8270  -15.7200   19.9420 N   0  0  0  0  0  0  0  0  0  0  0  0
  -26.1970  -16.4850   20.1650 H   0  0  0  0  0  0  0  0  0  0  0  0
  -27.7130  -16.0300   19.5650 H   0  0  0  0  0  0  0  0  0  0  0  0
  -28.9340  -22.4860   18.9170 C   0  0  0  0  0  2  0  0  0  0  0  0
  -31.0500  -23.2440   19.9940 C   0  0  0  0  0  1  0  0  0  0  0  0
  -29.6550  -23.5890   19.6180 N   0  0  1  0  0  4  0  0  0  0  0  0
  -29.1670  -23.6950   20.4970 H   0  0  0  0  0  0  0  0  0  0  0  0
  -29.5630  -24.9100   18.9240 C   0  0  0  0  0  2  0  0  0  0  0  0
  -28.1440  -25.5310   18.9900 C   0  0  0  0  0  2  0  0  0  0  0  0
  -28.1990  -26.8760   19.4920 O   0  0  0  0  0  0  0  0  0  0  0  0
  -24.5270  -31.7750   23.1580 C   0  0  0  0  0  0  0  0  0  0  0  0
  -27.0110  -27.5790   19.6040 C   0  0  0  0  0  0  0  0  0  0  0  0
  -23.2440  -30.5070   21.4680 C   0  0  0  0  0  3  0  0  0  0  0  0
  -24.6230  -29.0820   19.8650 C   0  0  0  0  0  0  0  0  0  0  0  0
  -25.7630  -30.8640   21.1950 C   0  0  0  0  0  2  0  0  0  0  0  0
  -25.8100  -29.5490   20.4430 C   0  0  0  0  0  0  0  0  0  0  0  0
  -27.0040  -28.8030   20.3150 C   0  0  0  0  0  3  0  0  0  0  0  0
  -25.8000  -27.1290   19.0260 C   0  0  0  0  0  3  0  0  0  0  0  0
  -24.6130  -27.8720   19.1560 C   0  0  0  0  0  3  0  0  0  0  0  0
  -23.3910  -29.9400   20.0310 C   0  0  0  0  0  2  0  0  0  0  0  0
  -24.5320  -31.0580   21.9970 N   0  0  0  0  0  0  0  0  0  0  0  0
  -23.4710  -32.0110   23.7600 O   0  0  0  0  0  0  0  0  0  0  0  0
  -22.6280  -29.4130   22.3700 C   0  0  0  0  0  0  0  0  0  0  0  0
  -21.2980  -29.2560   22.2930 N   0  0  0  0  0  0  0  0  0  0  0  0
  -23.3420  -28.7170   23.0960 O   0  0  0  0  0  0  0  0  0  0  0  0
  -20.7890  -29.8690   21.6730 H   0  0  0  0  0  0  0  0  0  0  0  0
  -17.9360  -28.0380   22.8220 C   0  0  0  0  0  0  0  0  0  0  0  0
  -20.5030  -28.2680   23.0230 C   0  0  0  0  0  3  0  0  0  0  0  0
  -20.5770  -26.8830   22.3420 C   0  0  0  0  0  2  0  0  0  0  0  0
  -19.4380  -26.6340   21.3480 C   0  0  0  0  0  2  0  0  0  0  0  0
  -18.0790  -26.7400   22.0450 C   0  0  0  0  0  2  0  0  0  0  0  0
  -19.0720  -28.7630   23.2650 C   0  0  0  0  0  0  0  0  0  0  0  0
  -18.8810  -29.9830   23.9470 C   0  0  0  0  0  3  0  0  0  0  0  0
  -17.5860  -30.4780   24.1950 C   0  0  0  0  0  3  0  0  0  0  0  0
  -16.4640  -29.7460   23.7700 C   0  0  0  0  0  3  0  0  0  0  0  0
  -16.6390  -28.5290   23.0890 C   0  0  0  0  0  3  0  0  0  0  0  0
  -25.8430  -32.3490   23.7670 C   0  0  0  0  0  3  0  0  0  0  0  0
  -25.5590  -33.7180   24.2200 N   0  0  0  0  0  0  0  0  0  0  0  0
  -25.8700  -34.8260   23.5370 C   0  0  0  0  0  0  0  0  0  0  0  0
  -26.5030  -34.8050   22.4770 O   0  0  0  0  0  0  0  0  0  0  0  0
  -24.9920  -33.8060   25.0500 H   0  0  0  0  0  0  0  0  0  0  0  0
  -24.1370  -36.6430   23.3910 C   0  0  0  0  0  1  0  0  0  0  0  0
  -25.4050  -36.1730   24.1210 C   0  0  0  0  0  3  0  0  0  0  0  0
  -27.5730  -36.9820   24.9410 C   0  0  0  0  0  1  0  0  0  0  0  0
  -26.4360  -37.2310   24.0610 N   0  0  0  0  0  0  0  0  0  0  0  0
  -26.0380  -38.1360   24.3010 H   0  0  0  0  0  0  0  0  0  0  0  0
  -26.4130  -31.4770   24.9520 C   0  0  1  0  0  0  0  0  0  0  0  0
  -25.3690  -31.1670   26.0520 C   0  0  0  0  0  1  0  0  0  0  0  0
  -26.9590  -30.1280   24.4250 C   0  0  0  0  0  1  0  0  0  0  0  0
  -27.6030  -32.2100   25.6180 C   0  0  0  0  0  1  0  0  0  0  0  0
  3  1  1  6
  3  7  1  0
  3  2  1  0
  4  6  1  0
  5  8  1  0
  6 10  1  0
  7  4  2  0
  8 13  1  0
  8  6  2  0
  9  5  2  0
  9  7  1  0
 11  9  1  0
 13 12  1  0
 14 20  1  0
 14 22  1  0
 15 20  1  0
 16 17  1  0
 16 15  1  0
 18 17  1  0
 18 27  1  0
 18 19  1  0
 20 19  1  0
 21 14  2  0
 22 13  1  0
 22 23  1  0
 24 25  2  0
 25 44  1  0
 26 25  1  0
 26 29  1  0
 27 28  1  0
 27 24  1  0
 28 26  2  0
 29 30  1  0
 30 31  2  0
 32 35  1  0
 32 31  1  0
 33 32  2  0
 34 33  1  0
 34 29  2  0
 35 36  1  0
 36 41  2  0
 36 37  1  0
 37 38  2  0
 39 38  1  0
 39 43  1  0
 40 39  2  0
 41 40  1  0
 42 41  1  0
 44 45  1  0
 45 48  1  0
 45 47  1  0
 46 44  2  0
 49 24  1  0
 49 50  1  0
 51 49  1  0
 52 54  1  0
 52  3  1  0
 54 53  1  0
 54 55  1  1
 56 57  1  0
 56 54  1  0
 57 58  1  0
 58 60  1  0
 59 70  2  0
 60 65  1  0
 61 69  1  0
 61 71  1  0
 62 68  1  0
 62 64  1  0
 63 69  1  0
 64 63  1  0
 65 64  2  0
 66 67  1  0
 66 60  2  0
 67 62  2  0
 68 61  1  0
 69 59  1  0
 71 73  2  0
 72 71  1  0
 74 72  1  0
 75 84  2  0
 75 80  1  0
 76 72  1  0
 76 80  1  0
 77 76  1  0
 78 79  1  0
 78 77  1  0
 79 75  1  0
 80 81  2  0
 81 82  1  0
 83 82  2  0
 84 83  1  0
 85 59  1  0
 85 86  1  0
 85 95  1  0
 86 89  1  0
 87 91  1  0
 87 86  1  0
 88 87  2  0
 91 90  1  0
 93 91  1  0
 93 94  1  0
 93 92  1  0
 95 98  1  1
 95 96  1  0
 97 95  1  0
M  ISO  4  14 100  22 100  57 101  58 101
M  END
>  <TORSDO>  (24) 
F 22

>  <SCORE>  (24) 
-10.754

>  <name>  (24) 
23

>  <ligand_id>  (24) 
23

>  <original_smiles>  (24) 
[H]c1c([H])c([H])c2c(c1[H])C([H])([H])C([H])([H])C([H])([H])C2([H])N([H])C(=O)C1([H])N(C(=O)C([H])(N([H])C(=O)C([H])(N([H])C([H])([H])[H])C([H])([H])[H])C(C([H])([H])[H])(C([H])([H])[H])C([H])([H])[H])C([H])([H])c2c([H])c(OC([H])([H])C([H])([H])[N+]([H])(C([H])([H])[H])C([H])([H])C(c3c([H])c(C([H])([H])[H])c(C([H])(N([H])C(=O)N4C([H])([H])C([H])([H])C([H])([H])C([H])(n5nc(-c6c([H])c([H])c(Oc7c([H])c([H])c(F)c([H])c7F)c([H])c6[H])c(C(=O)N([H])[H])c5N([H])[H])C4([H])[H])C([H])([H])[H])c([H])c3F)(C([H])([H])[H])C([H])([H])[H])c([H])c([H])c2C1([H])[H]

>  <smiles>  (24) 
[H]c1c([H])c([H])c2c(c1[H])C([H])([H])C([H])([H])C([H])([H])C2([H])N([H])C(=O)C1([H])N(C(=O)C([H])(N([H])C(=O)C([H])(N([H])C([H])([H])[H])C([H])([H])[H])C(C([H])([H])[H])(C([H])([H])[H])C([H])([H])[H])C([H])([H])c2c([H])c(OC([H])([H])C([H])([H])[N+]([H])(C([H])([H])[H])C([H])([H])C(c3c([H])c(C([H])([H])[H])c(C([H])(N([H])C(=O)N4C([H])([H])C([H])([H])C([H])([H])C([H])(n5nc(-c6c([H])c([H])c(Oc7c([H])c([H])c(F)c([H])c7F)c([H])c6[H])c(C(=O)N([H])[H])c5N([H])[H])C4([H])[H])C([H])([H])[H])c([H])c3F)(C([H])([H])[H])C([H])([H])[H])c([H])c([H])c2C1([H])[H]

$$$$
25:0:0
     RDKit          3D

100108  0  0  1  0  0  0  0  0999 V2000
  -31.9260  -22.0420   18.2990 C   0  0  0  0  0  3  0  0  0  0  0  0
  -31.6910  -23.4300   18.2710 C   0  0  0  0  0  3  0  0  0  0  0  0
  -29.9170  -23.1520   19.9130 C   0  0  0  0  0  3  0  0  0  0  0  0
  -31.1400  -21.1930   19.1070 C   0  0  0  0  0  0  0  0  0  0  0  0
  -30.1390  -21.7580   19.9510 C   0  0  0  0  0  0  0  0  0  0  0  0
  -30.6730  -23.9860   19.0670 C   0  0  0  0  0  0  0  0  0  0  0  0
  -31.4090  -19.7170   19.0620 C   0  0  0  0  0  0  0  0  0  0  0  0
  -30.3250  -18.9540   18.8820 N   0  0  0  0  0  0  0  0  0  0  0  0
  -32.5500  -19.2690   19.1830 O   0  0  0  0  0  0  0  0  0  0  0  0
  -29.4530  -19.4150   18.6650 H   0  0  0  0  0  0  0  0  0  0  0  0
  -30.2750  -17.5170   19.0750 C   0  0  0  0  0  2  0  0  0  0  0  0
  -30.5200  -17.1560   20.5580 C   0  0  0  0  0  2  0  0  0  0  0  0
  -31.0080  -14.7610   20.2860 C   0  0  0  0  0  0  0  0  0  0  0  0
  -30.7230  -12.6000   19.1660 C   0  0  0  0  0  2  0  0  0  0  0  0
  -29.7730  -12.7910   17.9670 C   0  0  0  0  0  2  0  0  0  0  0  0
  -28.2970  -12.6700   18.4010 C   0  0  0  0  0  2  0  0  0  0  0  0
  -27.9640  -13.5270   19.6500 C   0  0  0  0  0  3  0  0  0  0  0  0
  -29.0180  -13.3020   20.7590 C   0  0  0  0  0  2  0  0  0  0  0  0
  -30.3490  -13.5830   20.1890 N   0  0  0  0  0  0  0  0  0  0  0  0
  -32.1110  -14.9800   19.7790 O   0  0  0  0  0  0  0  0  0  0  0  0
  -30.2700  -15.7470   20.7970 N   0  0  0  0  0  0  0  0  0  0  0  0
  -29.3680  -15.4940   21.1710 H   0  0  0  0  0  0  0  0  0  0  0  0
  -25.5690  -14.1530   20.3650 C   0  0  0  0  0  0  0  0  0  0  0  0
  -24.4990  -13.3870   20.7440 C   0  0  0  0  0  0  0  0  0  0  0  0
  -24.9560  -12.0340   20.7140 C   0  0  0  0  0  0  0  0  0  0  0  0
  -26.6090  -13.2660   20.1330 N   0  0  0  0  0  0  0  0  0  0  0  0
  -26.2420  -11.9850   20.3960 N   0  0  0  0  0  0  0  0  0  0  0  0
  -24.2260  -10.7750   20.9130 C   0  0  0  0  0  0  0  0  0  0  0  0
  -24.6510   -9.8180   21.8590 C   0  0  0  0  0  3  0  0  0  0  0  0
  -23.9260   -8.6200   22.0400 C   0  0  0  0  0  3  0  0  0  0  0  0
  -22.7620   -8.3720   21.2740 C   0  0  0  0  0  0  0  0  0  0  0  0
  -22.3570   -9.3170   20.3160 C   0  0  0  0  0  3  0  0  0  0  0  0
  -23.0830  -10.5060   20.1330 C   0  0  0  0  0  3  0  0  0  0  0  0
  -22.0100   -7.2260   21.3650 O   0  0  0  0  0  0  0  0  0  0  0  0
  -21.9310   -6.5080   22.5310 C   0  0  0  0  0  0  0  0  0  0  0  0
  -21.4650   -7.0840   23.7330 C   0  0  0  0  0  3  0  0  0  0  0  0
  -21.3340   -6.2900   24.8920 C   0  0  0  0  0  3  0  0  0  0  0  0
  -21.6600   -4.9210   24.8490 C   0  0  0  0  0  0  0  0  0  0  0  0
  -22.1200   -4.3450   23.6510 C   0  0  0  0  0  3  0  0  0  0  0  0
  -22.2520   -5.1360   22.4970 C   0  0  0  0  0  0  0  0  0  0  0  0
  -22.6760   -4.5710   21.3400 F   0  0  0  0  0  0  0  0  0  0  0  0
  -21.5260   -4.1560   25.9580 F   0  0  0  0  0  0  0  0  0  0  0  0
  -23.1060  -13.8690   21.0290 C   0  0  0  0  0  0  0  0  0  0  0  0
  -22.3850  -13.1790   21.9060 N   0  0  0  0  0  0  0  0  0  0  0  0
  -22.6640  -14.8910   20.5080 O   0  0  0  0  0  0  0  0  0  0  0  0
  -22.7540  -12.3500   22.3480 H   0  0  0  0  0  0  0  0  0  0  0  0
  -21.4520  -13.4830   22.1350 H   0  0  0  0  0  0  0  0  0  0  0  0
  -25.7400  -15.5230   20.1830 N   0  0  0  0  0  0  0  0  0  0  0  0
  -24.9740  -16.1820   20.2760 H   0  0  0  0  0  0  0  0  0  0  0  0
  -26.5880  -15.9550   19.8320 H   0  0  0  0  0  0  0  0  0  0  0  0
  -29.3430  -20.9560   20.9330 C   0  0  0  0  0  0  0  0  0  0  0  0
  -29.8690  -20.4430   21.9260 O   0  0  0  0  0  0  0  0  0  0  0  0
  -27.8240  -20.7180   20.6490 C   0  0  0  0  0  0  0  0  0  0  0  0
  -27.4580  -20.9210   19.3840 N   0  0  0  0  0  0  0  0  0  0  0  0
  -27.0300  -20.3390   21.5140 O   0  0  0  0  0  0  0  0  0  0  0  0
  -28.1410  -21.2520   18.7170 H   0  0  0  0  0  0  0  0  0  0  0  0
  -26.4990  -20.7870   19.0990 H   0  0  0  0  0  0  0  0  0  0  0  0
  -30.4100  -25.4810   19.0740 C   0  0  0  0  0  2  0  0  0  0  0  0
  -28.9440  -25.8570   18.7970 C   0  0  0  0  0  2  0  0  0  0  0  0
  -28.7720  -27.1540   19.3430 O   0  0  0  0  0  0  0  0  0  0  0  0
  -24.7550  -31.6690   23.0100 C   0  0  0  0  0  0  0  0  0  0  0  0
  -27.5160  -27.7020   19.4490 C   0  0  0  0  0  0  0  0  0  0  0  0
  -23.5560  -30.3580   21.2870 C   0  0  0  0  0  3  0  0  0  0  0  0
  -25.0300  -29.0200   19.6910 C   0  0  0  0  0  0  0  0  0  0  0  0
  -26.0410  -30.8740   21.0330 C   0  0  0  0  0  2  0  0  0  0  0  0
  -26.1730  -29.5670   20.2830 C   0  0  0  0  0  0  0  0  0  0  0  0
  -27.4130  -28.9130   20.1640 C   0  0  0  0  0  3  0  0  0  0  0  0
  -26.3520  -27.1450   18.8680 C   0  0  0  0  0  3  0  0  0  0  0  0
  -25.1110  -27.8040   18.9880 C   0  0  0  0  0  3  0  0  0  0  0  0
  -23.7460  -29.8010   19.8480 C   0  0  0  0  0  2  0  0  0  0  0  0
  -24.8030  -30.9770   21.8370 N   0  0  0  0  0  0  0  0  0  0  0  0
  -23.6840  -31.8360   23.6100 O   0  0  0  0  0  0  0  0  0  0  0  0
  -22.9900  -29.2260   22.1750 C   0  0  0  0  0  0  0  0  0  0  0  0
  -21.6710  -28.9950   22.0760 N   0  0  0  0  0  0  0  0  0  0  0  0
  -23.7320  -28.5620   22.9040 O   0  0  0  0  0  0  0  0  0  0  0  0
  -21.1330  -29.5870   21.4600 H   0  0  0  0  0  0  0  0  0  0  0  0
  -18.3720  -27.6200   22.5850 C   0  0  0  0  0  0  0  0  0  0  0  0
  -20.9260  -27.9550   22.7840 C   0  0  0  0  0  3  0  0  0  0  0  0
  -21.0590  -26.5920   22.0670 C   0  0  0  0  0  2  0  0  0  0  0  0
  -19.9280  -26.3230   21.0690 C   0  0  0  0  0  2  0  0  0  0  0  0
  -18.5710  -26.3480   21.7760 C   0  0  0  0  0  2  0  0  0  0  0  0
  -19.4780  -28.3820   23.0440 C   0  0  0  0  0  0  0  0  0  0  0  0
  -19.2390  -29.5740   23.7620 C   0  0  0  0  0  3  0  0  0  0  0  0
  -17.9240  -30.0050   24.0230 C   0  0  0  0  0  3  0  0  0  0  0  0
  -16.8330  -29.2390   23.5800 C   0  0  0  0  0  3  0  0  0  0  0  0
  -17.0570  -28.0480   22.8660 C   0  0  0  0  0  3  0  0  0  0  0  0
  -26.0330  -32.3020   23.6450 C   0  0  0  0  0  3  0  0  0  0  0  0
  -25.6810  -33.6600   24.0810 N   0  0  0  0  0  0  0  0  0  0  0  0
  -25.9620  -34.7750   23.3920 C   0  0  0  0  0  0  0  0  0  0  0  0
  -26.6140  -34.7690   22.3450 O   0  0  0  0  0  0  0  0  0  0  0  0
  -25.0930  -33.7360   24.8980 H   0  0  0  0  0  0  0  0  0  0  0  0
  -24.1550  -36.5130   23.2080 C   0  0  0  0  0  1  0  0  0  0  0  0
  -25.4340  -36.1080   23.9570 C   0  0  0  0  0  3  0  0  0  0  0  0
  -27.5550  -37.0210   24.7910 C   0  0  0  0  0  1  0  0  0  0  0  0
  -26.4210  -37.2070   23.8890 N   0  0  0  0  0  0  0  0  0  0  0  0
  -25.9840  -38.0980   24.1110 H   0  0  0  0  0  0  0  0  0  0  0  0
  -26.6160  -31.4620   24.8470 C   0  0  1  0  0  0  0  0  0  0  0  0
  -25.5640  -31.1120   25.9260 C   0  0  0  0  0  1  0  0  0  0  0  0
  -27.2300  -30.1380   24.3350 C   0  0  0  0  0  1  0  0  0  0  0  0
  -27.7580  -32.2490   25.5320 C   0  0  0  0  0  1  0  0  0  0  0  0
  1  4  1  0
  2  1  2  0
  2  6  1  0
  3  5  1  0
  4  5  2  0
  5 51  1  0
  6 58  1  0
  6  3  2  0
  7  4  1  0
  7  9  2  0
  8  7  1  0
  8 11  1  0
 10  8  1  0
 11 12  1  0
 12 21  1  0
 13 21  1  0
 14 19  1  0
 15 16  1  0
 15 14  1  0
 17 16  1  0
 17 26  1  0
 17 18  1  0
 19 13  1  0
 19 18  1  0
 20 13  2  0
 21 22  1  0
 23 24  2  0
 24 43  1  0
 25 24  1  0
 25 28  1  0
 26 23  1  0
 26 27  1  0
 27 25  2  0
 28 29  1  0
 29 30  2  0
 31 34  1  0
 31 30  1  0
 32 31  2  0
 33 32  1  0
 33 28  2  0
 34 35  1  0
 35 36  1  0
 36 37  2  0
 38 37  1  0
 38 42  1  0
 39 38  2  0
 40 35  2  0
 40 39  1  0
 41 40  1  0
 43 44  1  0
 44 47  1  0
 44 46  1  0
 45 43  2  0
 48 49  1  0
 48 23  1  0
 50 48  1  0
 51 52  2  0
 53 51  1  0
 53 55  2  0
 54 53  1  0
 56 54  1  0
 57 54  1  0
 59 58  1  0
 59 60  1  0
 60 62  1  0
 61 72  2  0
 62 67  1  0
 63 71  1  0
 63 73  1  0
 64 70  1  0
 64 66  1  0
 65 71  1  0
 66 65  1  0
 67 66  2  0
 68 69  1  0
 68 62  2  0
 69 64  2  0
 70 63  1  0
 71 61  1  0
 73 75  2  0
 74 73  1  0
 76 74  1  0
 77 86  2  0
 77 82  1  0
 78 74  1  0
 78 82  1  0
 79 78  1  0
 80 81  1  0
 80 79  1  0
 81 77  1  0
 82 83  2  0
 83 84  1  0
 85 84  2  0
 86 85  1  0
 87 61  1  0
 87 88  1  0
 87 97  1  0
 88 91  1  0
 89 93  1  0
 89 88  1  0
 90 89  2  0
 93 92  1  0
 95 93  1  0
 95 96  1  0
 95 94  1  0
 97100  1  1
 97 98  1  0
 99 97  1  0
M  ISO  4  13 100  21 100  59 101  60 101
M  END
>  <TORSDO>  (25) 
F 23

>  <SCORE>  (25) 
-9.928

>  <name>  (25) 
25

>  <ligand_id>  (25) 
25

>  <original_smiles>  (25) 
[H]c1c([H])c([H])c2c(c1[H])C([H])([H])C([H])([H])C([H])([H])C2([H])N([H])C(=O)C1([H])N(C(=O)C([H])(N([H])C(=O)C([H])(N([H])C([H])([H])[H])C([H])([H])[H])C(C([H])([H])[H])(C([H])([H])[H])C([H])([H])[H])C([H])([H])c2c([H])c(OC([H])([H])C([H])([H])c3c([H])c([H])c(C(=O)N([H])C([H])([H])C([H])([H])N([H])C(=O)N4C([H])([H])C([H])([H])C([H])([H])C([H])(n5nc(-c6c([H])c([H])c(Oc7c([H])c([H])c(F)c([H])c7F)c([H])c6[H])c(C(=O)N([H])[H])c5N([H])[H])C4([H])[H])c(C(=O)C(=O)N([H])[H])c3[H])c([H])c([H])c2C1([H])[H]

>  <smiles>  (25) 
[H]c1c([H])c([H])c2c(c1[H])C([H])([H])C([H])([H])C([H])([H])C2([H])N([H])C(=O)C1([H])N(C(=O)C([H])(N([H])C(=O)C([H])(N([H])C([H])([H])[H])C([H])([H])[H])C(C([H])([H])[H])(C([H])([H])[H])C([H])([H])[H])C([H])([H])c2c([H])c(OC([H])([H])C([H])([H])c3c([H])c([H])c(C(=O)N([H])C([H])([H])C([H])([H])N([H])C(=O)N4C([H])([H])C([H])([H])C([H])([H])C([H])(n5nc(-c6c([H])c([H])c(Oc7c([H])c([H])c(F)c([H])c7F)c([H])c6[H])c(C(=O)N([H])[H])c5N([H])[H])C4([H])[H])c(C(=O)C(=O)N([H])[H])c3[H])c([H])c([H])c2C1([H])[H]

$$$$
26:0:0
     RDKit          3D

 95103  0  0  1  0  0  0  0  0999 V2000
  -28.5250  -20.8660   20.1390 C   0  0  0  0  0  3  0  0  0  0  0  0
  -28.5620  -22.2780   20.1390 C   0  0  0  0  0  3  0  0  0  0  0  0
  -30.6490  -20.8110   21.3000 C   0  0  0  0  0  3  0  0  0  0  0  0
  -29.5730  -20.1110   20.7090 C   0  0  0  0  0  0  0  0  0  0  0  0
  -29.6310  -22.9950   20.7310 C   0  0  0  0  0  0  0  0  0  0  0  0
  -30.6890  -22.2270   21.3100 C   0  0  0  0  0  0  0  0  0  0  0  0
  -31.7900  -22.8110   21.9370 N   0  0  0  0  0  0  0  0  0  0  0  0
  -32.6210  -22.2480   22.0890 H   0  0  0  0  0  0  0  0  0  0  0  0
  -32.0040  -23.7800   21.7050 H   0  0  0  0  0  0  0  0  0  0  0  0
  -29.4520  -18.6160   20.7550 C   0  0  0  0  0  0  0  0  0  0  0  0
  -28.3750  -18.0440   20.5780 O   0  0  0  0  0  0  0  0  0  0  0  0
  -30.7120  -17.7510   20.9660 C   0  0  0  0  0  2  0  0  0  0  0  0
  -30.9300  -16.6650   19.8730 C   0  0  0  0  0  2  0  0  0  0  0  0
  -31.1400  -14.1650   19.8140 C   0  0  0  0  0  0  0  0  0  0  0  0
  -30.7130  -11.8990   18.9560 C   0  0  0  0  0  2  0  0  0  0  0  0
  -29.7150  -12.0080   17.7860 C   0  0  0  0  0  2  0  0  0  0  0  0
  -28.2680  -11.9290   18.3120 C   0  0  0  0  0  2  0  0  0  0  0  0
  -28.0090  -12.9220   19.4780 C   0  0  0  0  0  3  0  0  0  0  0  0
  -29.1250  -12.8260   20.5460 C   0  0  0  0  0  2  0  0  0  0  0  0
  -30.4230  -13.0110   19.8780 N   0  0  0  0  0  0  0  0  0  0  0  0
  -32.2320  -14.2380   19.2430 O   0  0  0  0  0  0  0  0  0  0  0  0
  -30.5200  -15.2870   20.2430 N   0  0  0  0  0  0  0  0  0  0  0  0
  -29.6160  -15.1610   20.6730 H   0  0  0  0  0  0  0  0  0  0  0  0
  -25.7220  -13.6840   20.3820 C   0  0  0  0  0  0  0  0  0  0  0  0
  -24.6340  -12.9840   20.8270 C   0  0  0  0  0  0  0  0  0  0  0  0
  -24.9890  -11.6040   20.7380 C   0  0  0  0  0  0  0  0  0  0  0  0
  -26.6790  -12.7360   20.0570 N   0  0  0  0  0  0  0  0  0  0  0  0
  -26.2430  -11.4770   20.3240 N   0  0  0  0  0  0  0  0  0  0  0  0
  -24.1870  -10.3950   20.9680 C   0  0  0  0  0  0  0  0  0  0  0  0
  -24.5680   -9.4240   21.9200 C   0  0  0  0  0  3  0  0  0  0  0  0
  -23.7710   -8.2800   22.1350 C   0  0  0  0  0  3  0  0  0  0  0  0
  -22.5770   -8.0960   21.3980 C   0  0  0  0  0  0  0  0  0  0  0  0
  -22.2130   -9.0540   20.4330 C   0  0  0  0  0  3  0  0  0  0  0  0
  -23.0120  -10.1900   20.2170 C   0  0  0  0  0  3  0  0  0  0  0  0
  -21.7530   -7.0040   21.5180 O   0  0  0  0  0  0  0  0  0  0  0  0
  -21.6010   -6.3440   22.7130 C   0  0  0  0  0  0  0  0  0  0  0  0
  -21.1140   -6.9970   23.8660 C   0  0  0  0  0  3  0  0  0  0  0  0
  -20.9110   -6.2630   25.0520 C   0  0  0  0  0  3  0  0  0  0  0  0
  -21.1870   -4.8830   25.0860 C   0  0  0  0  0  0  0  0  0  0  0  0
  -21.6680   -4.2320   23.9370 C   0  0  0  0  0  3  0  0  0  0  0  0
  -21.8720   -4.9620   22.7520 C   0  0  0  0  0  0  0  0  0  0  0  0
  -22.3150   -4.3270   21.6400 F   0  0  0  0  0  0  0  0  0  0  0  0
  -20.9830   -4.1770   26.2240 F   0  0  0  0  0  0  0  0  0  0  0  0
  -23.3040  -13.5540   21.2250 C   0  0  0  0  0  0  0  0  0  0  0  0
  -22.6060  -12.9010   22.1500 N   0  0  0  0  0  0  0  0  0  0  0  0
  -22.8970  -14.6120   20.7490 O   0  0  0  0  0  0  0  0  0  0  0  0
  -22.9520  -12.0430   22.5530 H   0  0  0  0  0  0  0  0  0  0  0  0
  -21.7120  -13.2610   22.4530 H   0  0  0  0  0  0  0  0  0  0  0  0
  -25.9680  -15.0440   20.2100 N   0  0  0  0  0  0  0  0  0  0  0  0
  -25.2400  -15.7360   20.3510 H   0  0  0  0  0  0  0  0  0  0  0  0
  -26.8080  -15.4300   19.7990 H   0  0  0  0  0  0  0  0  0  0  0  0
  -29.6120  -24.5130   20.7030 C   0  0  0  0  0  0  0  0  0  0  0  0
  -30.5920  -25.2160   20.9840 O   0  0  0  0  0  0  0  0  0  0  0  0
  -28.2920  -25.2100   20.3150 C   0  0  0  0  0  2  0  0  0  0  0  0
  -28.4070  -26.6440   20.3730 O   0  0  0  0  0  0  0  0  0  0  0  0
  -24.5730  -31.8800   23.2730 C   0  0  0  0  0  0  0  0  0  0  0  0
  -27.2260  -27.3590   20.3250 C   0  0  0  0  0  0  0  0  0  0  0  0
  -23.3680  -30.4310   21.6710 C   0  0  0  0  0  3  0  0  0  0  0  0
  -24.8240  -28.8580   20.2920 C   0  0  0  0  0  0  0  0  0  0  0  0
  -25.8900  -30.7980   21.4510 C   0  0  0  0  0  2  0  0  0  0  0  0
  -25.9810  -29.4060   20.8570 C   0  0  0  0  0  0  0  0  0  0  0  0
  -27.1860  -28.6660   20.8640 C   0  0  0  0  0  3  0  0  0  0  0  0
  -26.0480  -26.8250   19.7510 C   0  0  0  0  0  3  0  0  0  0  0  0
  -24.8500  -27.5660   19.7370 C   0  0  0  0  0  3  0  0  0  0  0  0
  -23.5780  -29.7150   20.3110 C   0  0  0  0  0  2  0  0  0  0  0  0
  -24.6290  -31.0530   22.1910 N   0  0  0  0  0  0  0  0  0  0  0  0
  -23.4900  -32.1640   23.8060 O   0  0  0  0  0  0  0  0  0  0  0  0
  -22.7200  -29.4350   22.6600 C   0  0  0  0  0  0  0  0  0  0  0  0
  -21.4070  -29.1980   22.5000 N   0  0  0  0  0  0  0  0  0  0  0  0
  -23.3950  -28.8740   23.5270 O   0  0  0  0  0  0  0  0  0  0  0  0
  -20.9220  -29.7080   21.7740 H   0  0  0  0  0  0  0  0  0  0  0  0
  -18.0740  -27.8560   22.8740 C   0  0  0  0  0  0  0  0  0  0  0  0
  -20.5940  -28.2680   23.2830 C   0  0  0  0  0  3  0  0  0  0  0  0
  -20.8030  -26.8090   22.8130 C   0  0  0  0  0  2  0  0  0  0  0  0
  -19.7850  -26.3620   21.7610 C   0  0  0  0  0  2  0  0  0  0  0  0
  -18.3600  -26.4750   22.3100 C   0  0  0  0  0  2  0  0  0  0  0  0
  -19.1260  -28.7040   23.3170 C   0  0  0  0  0  0  0  0  0  0  0  0
  -18.8060  -29.9920   23.8000 C   0  0  0  0  0  3  0  0  0  0  0  0
  -17.4700  -30.4320   23.8510 C   0  0  0  0  0  3  0  0  0  0  0  0
  -16.4340  -29.5820   23.4310 C   0  0  0  0  0  3  0  0  0  0  0  0
  -16.7370  -28.2980   22.9440 C   0  0  0  0  0  3  0  0  0  0  0  0
  -25.8560  -32.5290   23.8780 C   0  0  0  0  0  3  0  0  0  0  0  0
  -25.5420  -33.9310   24.1750 N   0  0  0  0  0  0  0  0  0  0  0  0
  -25.8850  -34.9670   23.3980 C   0  0  0  0  0  0  0  0  0  0  0  0
  -26.5670  -34.8420   22.3770 O   0  0  0  0  0  0  0  0  0  0  0  0
  -24.9310  -34.1000   24.9600 H   0  0  0  0  0  0  0  0  0  0  0  0
  -24.1620  -36.7480   22.9770 C   0  0  0  0  0  1  0  0  0  0  0  0
  -25.3900  -36.3630   23.8180 C   0  0  0  0  0  3  0  0  0  0  0  0
  -27.5080  -37.2640   24.6720 C   0  0  0  0  0  1  0  0  0  0  0  0
  -26.4240  -37.4130   23.7030 N   0  0  0  0  0  0  0  0  0  0  0  0
  -26.0150  -38.3360   23.8230 H   0  0  0  0  0  0  0  0  0  0  0  0
  -26.3770  -31.7860   25.1690 C   0  0  1  0  0  0  0  0  0  0  0  0
  -25.2840  -31.5450   26.2360 C   0  0  0  0  0  1  0  0  0  0  0  0
  -26.9880  -30.4160   24.7920 C   0  0  0  0  0  1  0  0  0  0  0  0
  -27.5110  -32.6100   25.8280 C   0  0  0  0  0  1  0  0  0  0  0  0
  1  4  1  0
  2  1  2  0
  2  5  1  0
  3  6  1  0
  4 10  1  0
  4  3  2  0
  5  6  2  0
  6  7  1  0
  7  8  1  0
  9  7  1  0
 10 12  1  0
 11 10  2  0
 13 22  1  0
 13 12  1  0
 14 20  1  0
 14 22  1  0
 15 20  1  0
 16 17  1  0
 16 15  1  0
 18 17  1  0
 18 27  1  0
 18 19  1  0
 20 19  1  0
 21 14  2  0
 22 23  1  0
 24 25  2  0
 25 44  1  0
 26 25  1  0
 26 29  1  0
 27 28  1  0
 27 24  1  0
 28 26  2  0
 29 30  1  0
 30 31  2  0
 32 35  1  0
 32 31  1  0
 33 32  2  0
 34 33  1  0
 34 29  2  0
 35 36  1  0
 36 41  2  0
 36 37  1  0
 37 38  2  0
 38 39  1  0
 39 43  1  0
 40 39  2  0
 41 40  1  0
 42 41  1  0
 44 45  1  0
 45 48  1  0
 45 47  1  0
 46 44  2  0
 49 50  1  0
 49 24  1  0
 51 49  1  0
 52  5  1  0
 52 53  2  0
 54 55  1  0
 54 52  1  0
 56 67  2  0
 57 55  1  0
 57 62  1  0
 58 66  1  0
 58 68  1  0
 59 65  1  0
 59 61  1  0
 60 66  1  0
 61 62  2  0
 61 60  1  0
 63 57  2  0
 64 63  1  0
 64 59  2  0
 65 58  1  0
 66 56  1  0
 68 70  2  0
 69 68  1  0
 71 69  1  0
 72 81  2  0
 72 77  1  0
 73 69  1  0
 73 77  1  0
 74 73  1  0
 75 76  1  0
 75 74  1  0
 76 72  1  0
 77 78  2  0
 78 79  1  0
 80 79  2  0
 81 80  1  0
 82 56  1  0
 82 83  1  0
 82 92  1  0
 83 86  1  0
 84 88  1  0
 84 83  1  0
 85 84  2  0
 88 87  1  0
 90 88  1  0
 90 91  1  0
 90 89  1  0
 92 95  1  1
 92 93  1  0
 94 92  1  0
M  ISO  4  14 100  22 100  54 101  55 101
M  END
>  <TORSDO>  (26) 
F 22

>  <SCORE>  (26) 
-12.772

>  <name>  (26) 
26

>  <ligand_id>  (26) 
26

>  <original_smiles>  (26) 
[H]c1c([H])c([H])c2c(c1[H])C([H])([H])C([H])([H])C([H])([H])C2([H])N([H])C(=O)C1([H])N(C(=O)C([H])(N([H])C(=O)C([H])(N([H])C([H])([H])[H])C([H])([H])[H])C(C([H])([H])[H])(C([H])([H])[H])C([H])([H])[H])C([H])([H])c2c([H])c(OC([H])([H])C(=O)c3c([H])c([H])c(C(=O)C([H])([H])C([H])([H])N([H])C(=O)N4C([H])([H])C([H])([H])C([H])([H])C([H])(n5nc(-c6c([H])c([H])c(Oc7c([H])c([H])c(F)c([H])c7F)c([H])c6[H])c(C(=O)N([H])[H])c5N([H])[H])C4([H])[H])c([H])c3N([H])[H])c([H])c([H])c2C1([H])[H]

>  <smiles>  (26) 
[H]c1c([H])c([H])c2c(c1[H])C([H])([H])C([H])([H])C([H])([H])C2([H])N([H])C(=O)C1([H])N(C(=O)C([H])(N([H])C(=O)C([H])(N([H])C([H])([H])[H])C([H])([H])[H])C(C([H])([H])[H])(C([H])([H])[H])C([H])([H])[H])C([H])([H])c2c([H])c(OC([H])([H])C(=O)c3c([H])c([H])c(C(=O)C([H])([H])C([H])([H])N([H])C(=O)N4C([H])([H])C([H])([H])C([H])([H])C([H])(n5nc(-c6c([H])c([H])c(Oc7c([H])c([H])c(F)c([H])c7F)c([H])c6[H])c(C(=O)N([H])[H])c5N([H])[H])C4([H])[H])c([H])c3N([H])[H])c([H])c([H])c2C1([H])[H]

$$$$
27:0:0
     RDKit          3D

102110  0  0  1  0  0  0  0  0999 V2000
  -29.0920  -22.0170   20.3040 C   0  0  0  0  0  3  0  0  0  0  0  0
  -27.8730  -20.3680   18.9980 C   0  0  0  0  0  3  0  0  0  0  0  0
  -29.0130  -20.6930   19.7660 C   0  0  0  0  0  0  0  0  0  0  0  0
  -28.0520  -22.9770   20.1150 C   0  0  0  0  0  0  0  0  0  0  0  0
  -26.9150  -22.5900   19.3590 C   0  0  0  0  0  0  0  0  0  0  0  0
  -26.8380  -21.2960   18.8020 C   0  0  0  0  0  0  0  0  0  0  0  0
  -25.7500  -20.9400   18.0780 F   0  0  0  0  0  0  0  0  0  0  0  0
  -25.8400  -23.4550   19.1380 N   0  0  0  0  0  0  0  0  0  0  0  0
  -25.0450  -22.9990   18.7000 H   0  0  0  0  0  0  0  0  0  0  0  0
  -25.5330  -24.0100   19.9270 H   0  0  0  0  0  0  0  0  0  0  0  0
  -30.1290  -19.6200   19.9170 C   0  0  0  0  0  3  0  0  0  0  0  0
  -31.3090  -20.1390   20.6350 N   0  0  0  0  0  4  0  0  0  0  0  0
  -31.0940  -20.3360   21.5950 H   0  0  0  0  0  0  0  0  0  0  0  0
  -31.6380  -20.9770   20.1910 H   0  0  0  0  0  0  0  0  0  0  0  0
  -32.0660  -19.4800   20.6040 H   0  0  0  0  0  0  0  0  0  0  0  0
  -29.6500  -18.2420   20.5140 C   0  0  0  0  0  2  0  0  0  0  0  0
  -30.6900  -17.0880   20.3950 C   0  0  0  0  0  2  0  0  0  0  0  0
  -30.9340  -14.6270   20.4580 C   0  0  0  0  0  0  0  0  0  0  0  0
  -30.6270  -12.4390   19.3790 C   0  0  0  0  0  2  0  0  0  0  0  0
  -29.7170  -12.6380   18.1480 C   0  0  0  0  0  2  0  0  0  0  0  0
  -28.2310  -12.5370   18.5470 C   0  0  0  0  0  2  0  0  0  0  0  0
  -27.8760  -13.3930   19.7940 C   0  0  0  0  0  3  0  0  0  0  0  0
  -28.9080  -13.1920   20.9280 C   0  0  0  0  0  2  0  0  0  0  0  0
  -30.2440  -13.4570   20.3730 N   0  0  0  0  0  0  0  0  0  0  0  0
  -32.0940  -14.7420   20.0570 O   0  0  0  0  0  0  0  0  0  0  0  0
  -30.2190  -15.7310   20.7610 N   0  0  0  0  0  0  0  0  0  0  0  0
  -29.2620  -15.6060   21.0510 H   0  0  0  0  0  0  0  0  0  0  0  0
  -25.4670  -14.0280   20.4360 C   0  0  0  0  0  0  0  0  0  0  0  0
  -24.3840  -13.2690   20.7940 C   0  0  0  0  0  0  0  0  0  0  0  0
  -24.8330  -11.9140   20.7960 C   0  0  0  0  0  0  0  0  0  0  0  0
  -26.5100  -13.1350   20.2450 N   0  0  0  0  0  0  0  0  0  0  0  0
  -26.1310  -11.8590   20.5190 N   0  0  0  0  0  0  0  0  0  0  0  0
  -24.0930  -10.6610   20.9880 C   0  0  0  0  0  0  0  0  0  0  0  0
  -24.4990   -9.7030   21.9440 C   0  0  0  0  0  3  0  0  0  0  0  0
  -23.7580   -8.5140   22.1260 C   0  0  0  0  0  3  0  0  0  0  0  0
  -22.5980   -8.2770   21.3520 C   0  0  0  0  0  0  0  0  0  0  0  0
  -22.2130   -9.2220   20.3850 C   0  0  0  0  0  3  0  0  0  0  0  0
  -22.9530  -10.4030   20.2010 C   0  0  0  0  0  3  0  0  0  0  0  0
  -21.8300   -7.1400   21.4420 O   0  0  0  0  0  0  0  0  0  0  0  0
  -21.7620   -6.4080   22.5990 C   0  0  0  0  0  0  0  0  0  0  0  0
  -21.3160   -6.9750   23.8140 C   0  0  0  0  0  3  0  0  0  0  0  0
  -21.1960   -6.1690   24.9640 C   0  0  0  0  0  3  0  0  0  0  0  0
  -21.5100   -4.7980   24.9000 C   0  0  0  0  0  0  0  0  0  0  0  0
  -21.9500   -4.2310   23.6900 C   0  0  0  0  0  3  0  0  0  0  0  0
  -22.0730   -5.0340   22.5430 C   0  0  0  0  0  0  0  0  0  0  0  0
  -22.4760   -4.4780   21.3750 F   0  0  0  0  0  0  0  0  0  0  0  0
  -21.3890   -4.0220   26.0020 F   0  0  0  0  0  0  0  0  0  0  0  0
  -22.9850  -13.7620   21.0280 C   0  0  0  0  0  0  0  0  0  0  0  0
  -22.2360  -13.0880   21.8960 N   0  0  0  0  0  0  0  0  0  0  0  0
  -22.5660  -14.7800   20.4790 O   0  0  0  0  0  0  0  0  0  0  0  0
  -22.5890  -12.2630   22.3580 H   0  0  0  0  0  0  0  0  0  0  0  0
  -21.2970  -13.3990   22.0990 H   0  0  0  0  0  0  0  0  0  0  0  0
  -25.6460  -15.3920   20.2340 N   0  0  0  0  0  0  0  0  0  0  0  0
  -24.8810  -16.0540   20.3080 H   0  0  0  0  0  0  0  0  0  0  0  0
  -26.4980  -15.8100   19.8820 H   0  0  0  0  0  0  0  0  0  0  0  0
  -28.1220  -24.4080   20.7100 C   0  0  0  0  0  3  0  0  0  0  0  0
  -28.8200  -24.4490   22.0110 N   0  0  0  0  0  4  0  0  0  0  0  0
  -29.8020  -24.2650   21.9160 H   0  0  0  0  0  0  0  0  0  0  0  0
  -28.4150  -23.7880   22.6480 H   0  0  0  0  0  0  0  0  0  0  0  0
  -28.7250  -25.3670   22.4110 H   0  0  0  0  0  0  0  0  0  0  0  0
  -28.6870  -25.4880   19.7470 C   0  0  0  0  0  2  0  0  0  0  0  0
  -28.5690  -26.8110   20.3170 O   0  0  0  0  0  0  0  0  0  0  0  0
  -24.5710  -31.8880   23.3360 C   0  0  0  0  0  0  0  0  0  0  0  0
  -27.3650  -27.4940   20.2870 C   0  0  0  0  0  0  0  0  0  0  0  0
  -23.4340  -30.4940   21.6410 C   0  0  0  0  0  3  0  0  0  0  0  0
  -24.9490  -28.9840   20.2510 C   0  0  0  0  0  0  0  0  0  0  0  0
  -25.9630  -30.8750   21.5310 C   0  0  0  0  0  2  0  0  0  0  0  0
  -26.0830  -29.5110   20.8790 C   0  0  0  0  0  0  0  0  0  0  0  0
  -27.2920  -28.7720   20.8930 C   0  0  0  0  0  3  0  0  0  0  0  0
  -26.1990  -26.9830   19.6650 C   0  0  0  0  0  3  0  0  0  0  0  0
  -25.0030  -27.7200   19.6440 C   0  0  0  0  0  3  0  0  0  0  0  0
  -23.6950  -29.8310   20.2640 C   0  0  0  0  0  2  0  0  0  0  0  0
  -24.6730  -31.1000   22.2290 N   0  0  0  0  0  0  0  0  0  0  0  0
  -23.4690  -32.1430   23.8450 O   0  0  0  0  0  0  0  0  0  0  0  0
  -22.7610  -29.4560   22.5700 C   0  0  0  0  0  0  0  0  0  0  0  0
  -21.4380  -29.2830   22.4140 N   0  0  0  0  0  0  0  0  0  0  0  0
  -23.4270  -28.8120   23.3840 O   0  0  0  0  0  0  0  0  0  0  0  0
  -20.9640  -29.8510   21.7260 H   0  0  0  0  0  0  0  0  0  0  0  0
  -18.0450  -28.1310   22.8680 C   0  0  0  0  0  0  0  0  0  0  0  0
  -20.6050  -28.3320   23.1500 C   0  0  0  0  0  3  0  0  0  0  0  0
  -20.6850  -26.9220   22.5210 C   0  0  0  0  0  2  0  0  0  0  0  0
  -19.5760  -26.6560   21.4970 C   0  0  0  0  0  2  0  0  0  0  0  0
  -18.1970  -26.8020   22.1460 C   0  0  0  0  0  2  0  0  0  0  0  0
  -19.1770  -28.8550   23.3250 C   0  0  0  0  0  0  0  0  0  0  0  0
  -18.9830  -30.1000   23.9620 C   0  0  0  0  0  3  0  0  0  0  0  0
  -17.6880  -30.6200   24.1450 C   0  0  0  0  0  3  0  0  0  0  0  0
  -16.5700  -29.8930   23.7040 C   0  0  0  0  0  3  0  0  0  0  0  0
  -16.7490  -28.6500   23.0710 C   0  0  0  0  0  3  0  0  0  0  0  0
  -25.8280  -32.5280   24.0030 C   0  0  0  0  0  3  0  0  0  0  0  0
  -26.2720  -31.7880   25.3230 C   0  0  1  0  0  0  0  0  0  0  0  0
  -25.1220  -31.5830   26.3360 C   0  0  0  0  0  1  0  0  0  0  0  0
  -26.8690  -30.3980   24.9990 C   0  0  0  0  0  1  0  0  0  0  0  0
  -27.3840  -32.5990   26.0270 C   0  0  0  0  0  1  0  0  0  0  0  0
  -25.5140  -33.9380   24.2750 N   0  0  0  0  0  0  0  0  0  0  0  0
  -25.8880  -34.9640   23.4990 C   0  0  0  0  0  0  0  0  0  0  0  0
  -26.6060  -34.8250   22.5050 O   0  0  0  0  0  0  0  0  0  0  0  0
  -24.8830  -34.1190   25.0410 H   0  0  0  0  0  0  0  0  0  0  0  0
  -24.1830  -36.7500   23.0210 C   0  0  0  0  0  1  0  0  0  0  0  0
  -25.3900  -36.3680   23.8910 C   0  0  0  0  0  3  0  0  0  0  0  0
  -27.4930  -37.2770   24.7740 C   0  0  0  0  0  1  0  0  0  0  0  0
  -26.4300  -37.4130   23.7810 N   0  0  0  0  0  0  0  0  0  0  0  0
  -26.0230  -38.3390   23.8790 H   0  0  0  0  0  0  0  0  0  0  0  0
  2  3  1  0
  3 11  1  0
  3  1  2  0
  4  1  1  0
  4 56  1  0
  5  4  2  0
  6  2  2  0
  6  5  1  0
  7  6  1  0
  8  5  1  0
  8 10  1  0
  9  8  1  0
 11 16  1  0
 11 12  1  0
 12 13  1  0
 14 12  1  0
 15 12  1  0
 17 16  1  0
 17 26  1  0
 18 26  1  0
 19 24  1  0
 20 21  1  0
 20 19  1  0
 22 21  1  0
 22 31  1  0
 22 23  1  0
 24 18  1  0
 24 23  1  0
 25 18  2  0
 26 27  1  0
 28 29  2  0
 29 30  1  0
 29 48  1  0
 30 33  1  0
 31 28  1  0
 31 32  1  0
 32 30  2  0
 33 34  1  0
 34 35  2  0
 36 39  1  0
 36 35  1  0
 37 36  2  0
 38 37  1  0
 38 33  2  0
 39 40  1  0
 40 41  1  0
 41 42  2  0
 43 42  1  0
 43 47  1  0
 44 43  2  0
 45 40  2  0
 45 44  1  0
 46 45  1  0
 48 49  1  0
 49 52  1  0
 49 51  1  0
 50 48  2  0
 53 54  1  0
 53 28  1  0
 55 53  1  0
 56 61  1  0
 56 57  1  0
 57 60  1  0
 57 59  1  0
 58 57  1  0
 61 62  1  0
 63 74  2  0
 64 62  1  0
 64 69  1  0
 65 73  1  0
 65 75  1  0
 66 72  1  0
 66 68  1  0
 67 73  1  0
 68 69  2  0
 68 67  1  0
 70 64  2  0
 71 70  1  0
 71 66  2  0
 72 65  1  0
 73 63  1  0
 75 77  2  0
 76 75  1  0
 78 76  1  0
 79 88  2  0
 79 84  1  0
 80 76  1  0
 80 84  1  0
 81 80  1  0
 82 83  1  0
 82 81  1  0
 83 79  1  0
 84 85  2  0
 85 86  1  0
 87 86  2  0
 88 87  1  0
 89 63  1  0
 89 94  1  0
 89 90  1  0
 90 93  1  1
 90 91  1  0
 92 90  1  0
 94 97  1  0
 95 99  1  0
 95 94  1  0
 96 95  2  0
 99 98  1  0
101102  1  0
101 99  1  0
101100  1  0
M  ISO  4  18 100  26 100  61 101  62 101
M  END
>  <TORSDO>  (27) 
F 24

>  <SCORE>  (27) 
-13.193

>  <name>  (27) 
27

>  <ligand_id>  (27) 
27

>  <original_smiles>  (27) 
[H]c1c([H])c([H])c2c(c1[H])C([H])([H])C([H])([H])C([H])([H])C2([H])N([H])C(=O)C1([H])N(C(=O)C([H])(N([H])C(=O)C([H])(N([H])C([H])([H])[H])C([H])([H])[H])C(C([H])([H])[H])(C([H])([H])[H])C([H])([H])[H])C([H])([H])c2c([H])c(OC([H])([H])C([H])(c3c([H])c(C([H])(C([H])([H])C([H])([H])N([H])C(=O)N4C([H])([H])C([H])([H])C([H])([H])C([H])(n5nc(-c6c([H])c([H])c(Oc7c([H])c([H])c(F)c([H])c7F)c([H])c6[H])c(C(=O)N([H])[H])c5N([H])[H])C4([H])[H])[N+]([H])([H])[H])c([H])c(F)c3N([H])[H])[N+]([H])([H])[H])c([H])c([H])c2C1([H])[H]

>  <smiles>  (27) 
[H]c1c([H])c([H])c2c(c1[H])C([H])([H])C([H])([H])C([H])([H])C2([H])N([H])C(=O)C1([H])N(C(=O)C([H])(N([H])C(=O)C([H])(N([H])C([H])([H])[H])C([H])([H])[H])C(C([H])([H])[H])(C([H])([H])[H])C([H])([H])[H])C([H])([H])c2c([H])c(OC([H])([H])C([H])(c3c([H])c(C([H])(C([H])([H])C([H])([H])N([H])C(=O)N4C([H])([H])C([H])([H])C([H])([H])C([H])(n5nc(-c6c([H])c([H])c(Oc7c([H])c([H])c(F)c([H])c7F)c([H])c6[H])c(C(=O)N([H])[H])c5N([H])[H])C4([H])[H])[N+]([H])([H])[H])c([H])c(F)c3N([H])[H])[N+]([H])([H])[H])c([H])c([H])c2C1([H])[H]

$$$$
28:0:0
     RDKit          3D

 96104  0  0  1  0  0  0  0  0999 V2000
  -28.3360  -20.8300   20.1080 C   0  0  0  0  0  3  0  0  0  0  0  0
  -26.5010  -21.8400   18.8580 C   0  0  0  0  0  3  0  0  0  0  0  0
  -28.7070  -22.0950   20.5970 C   0  0  0  0  0  3  0  0  0  0  0  0
  -26.8870  -23.1070   19.3280 C   0  0  0  0  0  3  0  0  0  0  0  0
  -27.2300  -20.6910   19.2350 C   0  0  0  0  0  0  0  0  0  0  0  0
  -27.9950  -23.2400   20.1910 C   0  0  0  0  0  0  0  0  0  0  0  0
  -26.8180  -19.3560   18.7160 C   0  0  0  0  0  0  0  0  0  0  0  0
  -25.6420  -18.9780   18.6950 O   0  0  0  0  0  0  0  0  0  0  0  0
  -27.9470  -18.4770   18.1290 C   0  0  0  0  0  0  0  0  0  0  0  0
  -28.5480  -17.7280   19.0640 N   0  0  0  0  0  0  0  0  0  0  0  0
  -28.2930  -18.5260   16.9420 O   0  0  0  0  0  0  0  0  0  0  0  0
  -28.1550  -17.7560   19.9950 H   0  0  0  0  0  0  0  0  0  0  0  0
  -29.8670  -17.1390   18.8960 C   0  0  0  0  0  2  0  0  0  0  0  0
  -30.5990  -17.0880   20.2470 C   0  0  0  0  0  2  0  0  0  0  0  0
  -31.0500  -14.7510   20.8910 C   0  0  0  0  0  0  0  0  0  0  0  0
  -30.7920  -12.5450   19.8810 C   0  0  0  0  0  2  0  0  0  0  0  0
  -29.9600  -12.7310   18.5950 C   0  0  0  0  0  2  0  0  0  0  0  0
  -28.4530  -12.6280   18.9030 C   0  0  0  0  0  2  0  0  0  0  0  0
  -28.0190  -13.5220   20.0990 C   0  0  0  0  0  3  0  0  0  0  0  0
  -28.9860  -13.3720   21.3020 C   0  0  0  0  0  2  0  0  0  0  0  0
  -30.3630  -13.5880   20.8210 N   0  0  0  0  0  0  0  0  0  0  0  0
  -32.2480  -14.8560   20.6190 O   0  0  0  0  0  0  0  0  0  0  0  0
  -30.2740  -15.8390   20.9350 N   0  0  0  0  0  0  0  0  0  0  0  0
  -29.2990  -15.6690   21.1230 H   0  0  0  0  0  0  0  0  0  0  0  0
  -25.5800  -14.1650   20.6150 C   0  0  0  0  0  0  0  0  0  0  0  0
  -24.4770  -13.4110   20.9120 C   0  0  0  0  0  0  0  0  0  0  0  0
  -24.9190  -12.0500   20.9170 C   0  0  0  0  0  0  0  0  0  0  0  0
  -26.6300  -13.2660   20.4760 N   0  0  0  0  0  0  0  0  0  0  0  0
  -26.2300  -11.9920   20.7160 N   0  0  0  0  0  0  0  0  0  0  0  0
  -24.1640  -10.7960   21.0420 C   0  0  0  0  0  0  0  0  0  0  0  0
  -24.5160   -9.8200   21.9990 C   0  0  0  0  0  3  0  0  0  0  0  0
  -23.7610   -8.6310   22.1210 C   0  0  0  0  0  3  0  0  0  0  0  0
  -22.6410   -8.4150   21.2840 C   0  0  0  0  0  0  0  0  0  0  0  0
  -22.3050   -9.3820   20.3190 C   0  0  0  0  0  3  0  0  0  0  0  0
  -23.0610  -10.5600   20.1980 C   0  0  0  0  0  3  0  0  0  0  0  0
  -21.8650   -7.2810   21.3120 O   0  0  0  0  0  0  0  0  0  0  0  0
  -21.7340   -6.5300   22.4520 C   0  0  0  0  0  0  0  0  0  0  0  0
  -21.2410   -7.0800   23.6570 C   0  0  0  0  0  3  0  0  0  0  0  0
  -21.0580   -6.2540   24.7840 C   0  0  0  0  0  3  0  0  0  0  0  0
  -21.3590   -4.8810   24.7050 C   0  0  0  0  0  0  0  0  0  0  0  0
  -21.8410   -4.3320   23.5040 C   0  0  0  0  0  3  0  0  0  0  0  0
  -22.0260   -5.1550   22.3810 C   0  0  0  0  0  0  0  0  0  0  0  0
  -22.4740   -4.6190   21.2220 F   0  0  0  0  0  0  0  0  0  0  0  0
  -21.1680   -4.0840   25.7830 F   0  0  0  0  0  0  0  0  0  0  0  0
  -23.0680  -13.9040   21.0740 C   0  0  0  0  0  0  0  0  0  0  0  0
  -22.2600  -13.2150   21.8730 N   0  0  0  0  0  0  0  0  0  0  0  0
  -22.6910  -14.9390   20.5240 O   0  0  0  0  0  0  0  0  0  0  0  0
  -21.3100  -13.5230   22.0150 H   0  0  0  0  0  0  0  0  0  0  0  0
  -22.5670  -12.3680   22.3340 H   0  0  0  0  0  0  0  0  0  0  0  0
  -25.7790  -15.5290   20.4280 N   0  0  0  0  0  0  0  0  0  0  0  0
  -26.6330  -15.9130   20.0490 H   0  0  0  0  0  0  0  0  0  0  0  0
  -25.0000  -16.1780   20.3980 H   0  0  0  0  0  0  0  0  0  0  0  0
  -28.3840  -24.5580   20.7320 C   0  0  0  0  0  0  0  0  0  0  0  0
  -28.5460  -24.7690   21.9380 O   0  0  0  0  0  0  0  0  0  0  0  0
  -28.6800  -25.6480   19.7000 C   0  0  0  0  0  2  0  0  0  0  0  0
  -28.5260  -26.9300   20.3010 O   0  0  0  0  0  0  0  0  0  0  0  0
  -24.5670  -31.9630   23.3280 C   0  0  0  0  0  0  0  0  0  0  0  0
  -27.2950  -27.5430   20.3070 C   0  0  0  0  0  0  0  0  0  0  0  0
  -23.3930  -30.5430   21.6800 C   0  0  0  0  0  3  0  0  0  0  0  0
  -24.8720  -29.0020   20.2900 C   0  0  0  0  0  0  0  0  0  0  0  0
  -25.9150  -30.9140   21.5150 C   0  0  0  0  0  2  0  0  0  0  0  0
  -26.0130  -29.5390   20.8980 C   0  0  0  0  0  0  0  0  0  0  0  0
  -27.2200  -28.8120   20.9150 C   0  0  0  0  0  3  0  0  0  0  0  0
  -26.1310  -27.0060   19.7050 C   0  0  0  0  0  3  0  0  0  0  0  0
  -24.9250  -27.7300   19.6950 C   0  0  0  0  0  3  0  0  0  0  0  0
  -23.6220  -29.8520   20.3070 C   0  0  0  0  0  2  0  0  0  0  0  0
  -24.6430  -31.1520   22.2350 N   0  0  0  0  0  0  0  0  0  0  0  0
  -23.4770  -32.2370   23.8460 O   0  0  0  0  0  0  0  0  0  0  0  0
  -22.7340  -29.5230   22.6340 C   0  0  0  0  0  0  0  0  0  0  0  0
  -21.4120  -29.3410   22.4870 N   0  0  0  0  0  0  0  0  0  0  0  0
  -23.4070  -28.8990   23.4580 O   0  0  0  0  0  0  0  0  0  0  0  0
  -20.9340  -29.8950   21.7920 H   0  0  0  0  0  0  0  0  0  0  0  0
  -18.0270  -28.1810   22.9570 C   0  0  0  0  0  0  0  0  0  0  0  0
  -20.5840  -28.4080   23.2480 C   0  0  0  0  0  3  0  0  0  0  0  0
  -20.6760  -26.9790   22.6670 C   0  0  0  0  0  2  0  0  0  0  0  0
  -19.5780  -26.6710   21.6450 C   0  0  0  0  0  2  0  0  0  0  0  0
  -18.1940  -26.8300   22.2810 C   0  0  0  0  0  2  0  0  0  0  0  0
  -19.1500  -28.9300   23.3970 C   0  0  0  0  0  0  0  0  0  0  0  0
  -18.9410  -30.1950   23.9880 C   0  0  0  0  0  3  0  0  0  0  0  0
  -17.6420  -30.7120   24.1440 C   0  0  0  0  0  3  0  0  0  0  0  0
  -16.5330  -29.9590   23.7210 C   0  0  0  0  0  3  0  0  0  0  0  0
  -16.7250  -28.6960   23.1340 C   0  0  0  0  0  3  0  0  0  0  0  0
  -25.8410  -32.6050   23.9630 C   0  0  0  0  0  3  0  0  0  0  0  0
  -25.5280  -34.0100   24.2530 N   0  0  0  0  0  0  0  0  0  0  0  0
  -25.8910  -35.0440   23.4800 C   0  0  0  0  0  0  0  0  0  0  0  0
  -26.5940  -34.9140   22.4750 O   0  0  0  0  0  0  0  0  0  0  0  0
  -24.9070  -34.1850   25.0290 H   0  0  0  0  0  0  0  0  0  0  0  0
  -24.1860  -36.8350   23.0220 C   0  0  0  0  0  1  0  0  0  0  0  0
  -25.3940  -36.4450   23.8880 C   0  0  0  0  0  3  0  0  0  0  0  0
  -27.5020  -37.3360   24.7770 C   0  0  0  0  0  1  0  0  0  0  0  0
  -26.4370  -37.4900   23.7900 N   0  0  0  0  0  0  0  0  0  0  0  0
  -26.0320  -38.4150   23.9010 H   0  0  0  0  0  0  0  0  0  0  0  0
  -26.3250  -31.8590   25.2670 C   0  0  1  0  0  0  0  0  0  0  0  0
  -25.2050  -31.6350   26.3100 C   0  0  0  0  0  1  0  0  0  0  0  0
  -26.9210  -30.4790   24.9070 C   0  0  0  0  0  1  0  0  0  0  0  0
  -27.4580  -32.6690   25.9440 C   0  0  0  0  0  1  0  0  0  0  0  0
  1  3  1  0
  2  5  1  0
  2  4  2  0
  4  6  1  0
  5  1  2  0
  6  3  2  0
  6 53  1  0
  7  5  1  0
  8  7  2  0
  9  7  1  0
  9 10  1  0
 10 12  1  0
 11  9  2  0
 13 10  1  0
 13 14  1  0
 14 23  1  0
 15 23  1  0
 16 21  1  0
 17 18  1  0
 17 16  1  0
 19 18  1  0
 19 28  1  0
 19 20  1  0
 21 15  1  0
 21 20  1  0
 22 15  2  0
 23 24  1  0
 25 26  2  0
 26 27  1  0
 26 45  1  0
 27 30  1  0
 28 25  1  0
 28 29  1  0
 29 27  2  0
 30 31  1  0
 31 32  2  0
 33 36  1  0
 33 32  1  0
 34 33  2  0
 35 34  1  0
 35 30  2  0
 36 37  1  0
 37 38  1  0
 38 39  2  0
 40 39  1  0
 40 44  1  0
 41 40  2  0
 42 37  2  0
 42 41  1  0
 43 42  1  0
 45 46  1  0
 46 48  1  0
 46 49  1  0
 47 45  2  0
 50 25  1  0
 51 50  1  0
 52 50  1  0
 53 54  2  0
 55 56  1  0
 55 53  1  0
 56 58  1  0
 57 68  2  0
 58 63  1  0
 59 67  1  0
 59 69  1  0
 60 66  1  0
 60 62  1  0
 61 67  1  0
 62 63  2  0
 62 61  1  0
 64 58  2  0
 65 64  1  0
 65 60  2  0
 66 59  1  0
 67 57  1  0
 69 71  2  0
 70 69  1  0
 72 70  1  0
 73 82  2  0
 73 78  1  0
 74 70  1  0
 74 78  1  0
 75 74  1  0
 76 77  1  0
 76 75  1  0
 77 73  1  0
 78 79  2  0
 79 80  1  0
 81 80  2  0
 82 81  1  0
 83 57  1  0
 83 84  1  0
 83 93  1  0
 84 87  1  0
 85 89  1  0
 85 84  1  0
 86 85  2  0
 89 88  1  0
 91 89  1  0
 91 92  1  0
 91 90  1  0
 93 96  1  1
 93 94  1  0
 95 93  1  0
M  ISO  4  15 100  23 100  55 101  56 101
M  END
>  <TORSDO>  (28) 
F 22

>  <SCORE>  (28) 
-12.555

>  <name>  (28) 
28

>  <ligand_id>  (28) 
28

>  <original_smiles>  (28) 
[H]c1c([H])c([H])c2c(c1[H])C([H])([H])C([H])([H])C([H])([H])C2([H])N([H])C(=O)C1([H])N(C(=O)C([H])(N([H])C(=O)C([H])(N([H])C([H])([H])[H])C([H])([H])[H])C(C([H])([H])[H])(C([H])([H])[H])C([H])([H])[H])C([H])([H])c2c([H])c(OC([H])([H])C(=O)c3c([H])c([H])c(C(=O)C(=O)N([H])C([H])([H])C([H])([H])N([H])C(=O)N4C([H])([H])C([H])([H])C([H])([H])C([H])(n5nc(-c6c([H])c([H])c(Oc7c([H])c([H])c(F)c([H])c7F)c([H])c6[H])c(C(=O)N([H])[H])c5N([H])[H])C4([H])[H])c([H])c3[H])c([H])c([H])c2C1([H])[H]

>  <smiles>  (28) 
[H]c1c([H])c([H])c2c(c1[H])C([H])([H])C([H])([H])C([H])([H])C2([H])N([H])C(=O)C1([H])N(C(=O)C([H])(N([H])C(=O)C([H])(N([H])C([H])([H])[H])C([H])([H])[H])C(C([H])([H])[H])(C([H])([H])[H])C([H])([H])[H])C([H])([H])c2c([H])c(OC([H])([H])C(=O)c3c([H])c([H])c(C(=O)C(=O)N([H])C([H])([H])C([H])([H])N([H])C(=O)N4C([H])([H])C([H])([H])C([H])([H])C([H])(n5nc(-c6c([H])c([H])c(Oc7c([H])c([H])c(F)c([H])c7F)c([H])c6[H])c(C(=O)N([H])[H])c5N([H])[H])C4([H])[H])c([H])c3[H])c([H])c([H])c2C1([H])[H]

$$$$
29:0:0
     RDKit          3D

 94102  0  0  1  0  0  0  0  0999 V2000
  -30.4640  -20.8100   20.0160 C   0  0  0  0  0  3  0  0  0  0  0  0
  -30.3350  -22.1490   19.5840 C   0  0  0  0  0  3  0  0  0  0  0  0
  -29.7770  -21.4830   22.2440 C   0  0  0  0  0  3  0  0  0  0  0  0
  -30.1850  -20.4590   21.3560 C   0  0  0  0  0  0  0  0  0  0  0  0
  -29.9030  -23.1650   20.4670 C   0  0  0  0  0  0  0  0  0  0  0  0
  -29.6270  -22.8190   21.8140 C   0  0  0  0  0  0  0  0  0  0  0  0
  -30.3780  -19.0720   21.8970 C   0  0  0  0  0  0  0  0  0  0  0  0
  -30.5640  -18.8660   23.1000 O   0  0  0  0  0  0  0  0  0  0  0  0
  -30.2700  -17.8500   20.9570 C   0  0  0  0  0  2  0  0  0  0  0  0
  -31.3250  -16.7360   21.2180 C   0  0  0  0  0  2  0  0  0  0  0  0
  -31.3740  -14.4360   20.1620 C   0  0  0  0  0  0  0  0  0  0  0  0
  -30.9300  -12.3280   18.9530 C   0  0  0  0  0  2  0  0  0  0  0  0
  -29.9720  -12.5950   17.7730 C   0  0  0  0  0  2  0  0  0  0  0  0
  -28.5020  -12.5320   18.2340 C   0  0  0  0  0  2  0  0  0  0  0  0
  -28.2380  -13.3770   19.5100 C   0  0  0  0  0  3  0  0  0  0  0  0
  -29.2970  -13.0690   20.5930 C   0  0  0  0  0  2  0  0  0  0  0  0
  -30.6300  -13.3070   20.0090 N   0  0  0  0  0  0  0  0  0  0  0  0
  -32.4500  -14.6200   19.5870 O   0  0  0  0  0  0  0  0  0  0  0  0
  -30.8150  -15.3840   20.9350 N   0  0  0  0  0  0  0  0  0  0  0  0
  -29.9440  -15.1220   21.3740 H   0  0  0  0  0  0  0  0  0  0  0  0
  -25.8890  -14.1200   20.2590 C   0  0  0  0  0  0  0  0  0  0  0  0
  -24.7880  -13.4070   20.6530 C   0  0  0  0  0  0  0  0  0  0  0  0
  -25.1750  -12.0320   20.6200 C   0  0  0  0  0  0  0  0  0  0  0  0
  -26.8800  -13.1810   20.0120 N   0  0  0  0  0  0  0  0  0  0  0  0
  -26.4530  -11.9220   20.2850 N   0  0  0  0  0  0  0  0  0  0  0  0
  -24.3840  -10.8120   20.8330 C   0  0  0  0  0  0  0  0  0  0  0  0
  -24.7490   -9.8600   21.8090 C   0  0  0  0  0  3  0  0  0  0  0  0
  -23.9640   -8.7040   22.0090 C   0  0  0  0  0  3  0  0  0  0  0  0
  -22.8010   -8.4930   21.2320 C   0  0  0  0  0  0  0  0  0  0  0  0
  -22.4560   -9.4340   20.2450 C   0  0  0  0  0  3  0  0  0  0  0  0
  -23.2410  -10.5820   20.0450 C   0  0  0  0  0  3  0  0  0  0  0  0
  -21.9930   -7.3870   21.3370 O   0  0  0  0  0  0  0  0  0  0  0  0
  -21.8360   -6.7220   22.5260 C   0  0  0  0  0  0  0  0  0  0  0  0
  -21.3400   -7.3650   23.6810 C   0  0  0  0  0  3  0  0  0  0  0  0
  -21.1280   -6.6270   24.8630 C   0  0  0  0  0  3  0  0  0  0  0  0
  -21.4010   -5.2470   24.8900 C   0  0  0  0  0  0  0  0  0  0  0  0
  -21.8890   -4.6020   23.7390 C   0  0  0  0  0  3  0  0  0  0  0  0
  -22.1020   -5.3380   22.5590 C   0  0  0  0  0  0  0  0  0  0  0  0
  -22.5520   -4.7080   21.4470 F   0  0  0  0  0  0  0  0  0  0  0  0
  -21.1900   -4.5350   26.0220 F   0  0  0  0  0  0  0  0  0  0  0  0
  -23.4250  -13.9610   20.9530 C   0  0  0  0  0  0  0  0  0  0  0  0
  -22.6820  -13.3110   21.8420 N   0  0  0  0  0  0  0  0  0  0  0  0
  -23.0290  -15.0050   20.4340 O   0  0  0  0  0  0  0  0  0  0  0  0
  -23.0140  -12.4640   22.2810 H   0  0  0  0  0  0  0  0  0  0  0  0
  -21.7680  -13.6630   22.0850 H   0  0  0  0  0  0  0  0  0  0  0  0
  -26.1240  -15.4780   20.0740 N   0  0  0  0  0  0  0  0  0  0  0  0
  -25.3990  -16.1740   20.2080 H   0  0  0  0  0  0  0  0  0  0  0  0
  -26.9940  -15.8710   19.7330 H   0  0  0  0  0  0  0  0  0  0  0  0
  -29.8290  -24.5740   19.9610 C   0  0  0  0  0  0  0  0  0  0  0  0
  -30.7920  -25.1560   19.4460 O   0  0  0  0  0  0  0  0  0  0  0  0
  -28.4500  -25.2490   19.9930 C   0  0  0  0  0  2  0  0  0  0  0  0
  -28.5440  -26.6730   20.1650 O   0  0  0  0  0  0  0  0  0  0  0  0
  -24.5730  -31.7450   23.2010 C   0  0  0  0  0  0  0  0  0  0  0  0
  -27.3450  -27.3610   20.1450 C   0  0  0  0  0  0  0  0  0  0  0  0
  -23.4090  -30.2970   21.5710 C   0  0  0  0  0  3  0  0  0  0  0  0
  -24.9060  -28.8000   20.1540 C   0  0  0  0  0  0  0  0  0  0  0  0
  -25.9230  -30.7320   21.3640 C   0  0  0  0  0  2  0  0  0  0  0  0
  -26.0490  -29.3580   20.7380 C   0  0  0  0  0  0  0  0  0  0  0  0
  -27.2710  -28.6470   20.7310 C   0  0  0  0  0  3  0  0  0  0  0  0
  -26.1780  -26.8210   19.5520 C   0  0  0  0  0  3  0  0  0  0  0  0
  -24.9650  -27.5310   19.5590 C   0  0  0  0  0  3  0  0  0  0  0  0
  -23.6360  -29.6190   20.1950 C   0  0  0  0  0  2  0  0  0  0  0  0
  -24.6540  -30.9380   22.1050 N   0  0  0  0  0  0  0  0  0  0  0  0
  -23.4840  -31.9880   23.7390 O   0  0  0  0  0  0  0  0  0  0  0  0
  -22.7910  -29.2600   22.5370 C   0  0  0  0  0  0  0  0  0  0  0  0
  -21.4810  -29.0060   22.3840 N   0  0  0  0  0  0  0  0  0  0  0  0
  -23.4860  -28.6880   23.3810 O   0  0  0  0  0  0  0  0  0  0  0  0
  -20.9790  -29.5250   21.6770 H   0  0  0  0  0  0  0  0  0  0  0  0
  -18.1750  -27.6060   22.7810 C   0  0  0  0  0  0  0  0  0  0  0  0
  -20.6960  -28.0430   23.1540 C   0  0  0  0  0  3  0  0  0  0  0  0
  -20.9190  -26.6020   22.6380 C   0  0  0  0  0  2  0  0  0  0  0  0
  -19.8880  -26.1700   21.5910 C   0  0  0  0  0  2  0  0  0  0  0  0
  -18.4720  -26.2460   22.1680 C   0  0  0  0  0  2  0  0  0  0  0  0
  -19.2210  -28.4540   23.2300 C   0  0  0  0  0  0  0  0  0  0  0  0
  -18.8940  -29.7220   23.7590 C   0  0  0  0  0  3  0  0  0  0  0  0
  -17.5540  -30.1420   23.8480 C   0  0  0  0  0  3  0  0  0  0  0  0
  -16.5220  -29.2890   23.4180 C   0  0  0  0  0  3  0  0  0  0  0  0
  -16.8330  -28.0240   22.8890 C   0  0  0  0  0  3  0  0  0  0  0  0
  -25.8410  -32.4190   23.8140 C   0  0  0  0  0  3  0  0  0  0  0  0
  -25.4860  -33.8050   24.1480 N   0  0  0  0  0  0  0  0  0  0  0  0
  -25.7970  -34.8700   23.3980 C   0  0  0  0  0  0  0  0  0  0  0  0
  -26.4850  -34.7920   22.3750 O   0  0  0  0  0  0  0  0  0  0  0  0
  -24.8780  -33.9390   24.9420 H   0  0  0  0  0  0  0  0  0  0  0  0
  -24.0220  -36.6100   23.0240 C   0  0  0  0  0  1  0  0  0  0  0  0
  -25.2610  -36.2390   23.8550 C   0  0  0  0  0  3  0  0  0  0  0  0
  -27.3540  -37.1840   24.7230 C   0  0  0  0  0  1  0  0  0  0  0  0
  -26.2630  -37.3250   23.7630 N   0  0  0  0  0  0  0  0  0  0  0  0
  -25.8260  -38.2310   23.9100 H   0  0  0  0  0  0  0  0  0  0  0  0
  -26.3940  -31.6610   25.0830 C   0  0  1  0  0  0  0  0  0  0  0  0
  -25.3170  -31.3750   26.1540 C   0  0  0  0  0  1  0  0  0  0  0  0
  -27.0260  -30.3100   24.6740 C   0  0  0  0  0  1  0  0  0  0  0  0
  -27.5160  -32.4940   25.7450 C   0  0  0  0  0  1  0  0  0  0  0  0
  -29.2450  -23.7580   22.7300 O   0  0  0  0  0  0  0  0  0  0  0  0
  -29.0420  -23.3960   23.5880 H   0  0  0  0  0  0  0  0  0  0  0  0
  1  4  1  0
  2  1  2  0
  2  5  1  0
  4  7  1  0
  4  3  2  0
  5  6  2  0
  6  3  1  0
  6 93  1  0
  7  8  2  0
  9 10  1  0
  9  7  1  0
 11 19  1  0
 12 17  1  0
 13 14  1  0
 13 12  1  0
 15 14  1  0
 15 24  1  0
 15 16  1  0
 17 11  1  0
 17 16  1  0
 18 11  2  0
 19 10  1  0
 19 20  1  0
 21 22  2  0
 22 41  1  0
 23 22  1  0
 23 26  1  0
 24 21  1  0
 24 25  1  0
 25 23  2  0
 26 27  1  0
 27 28  2  0
 29 32  1  0
 29 28  1  0
 30 29  2  0
 31 30  1  0
 31 26  2  0
 32 33  1  0
 33 38  2  0
 33 34  1  0
 34 35  2  0
 35 36  1  0
 36 40  1  0
 37 36  2  0
 38 37  1  0
 39 38  1  0
 41 42  1  0
 42 45  1  0
 42 44  1  0
 43 41  2  0
 46 47  1  0
 46 21  1  0
 48 46  1  0
 49 51  1  0
 49  5  1  0
 50 49  2  0
 51 52  1  0
 53 64  2  0
 54 52  1  0
 54 59  1  0
 55 63  1  0
 55 65  1  0
 56 62  1  0
 56 58  1  0
 57 63  1  0
 58 57  1  0
 59 58  2  0
 60 61  1  0
 60 54  2  0
 61 56  2  0
 62 55  1  0
 63 53  1  0
 65 67  2  0
 66 65  1  0
 68 66  1  0
 69 78  2  0
 69 74  1  0
 70 66  1  0
 70 74  1  0
 71 70  1  0
 72 73  1  0
 72 71  1  0
 73 69  1  0
 74 75  2  0
 75 76  1  0
 77 76  2  0
 78 77  1  0
 79 53  1  0
 79 80  1  0
 79 89  1  0
 80 83  1  0
 81 85  1  0
 81 80  1  0
 82 81  2  0
 85 84  1  0
 87 85  1  0
 87 88  1  0
 87 86  1  0
 89 92  1  1
 89 90  1  0
 91 89  1  0
 93 94  1  0
M  ISO  4  11 100  19 100  51 101  52 101
M  END
>  <TORSDO>  (29) 
F 22

>  <SCORE>  (29) 
-12.412

>  <name>  (29) 
29

>  <ligand_id>  (29) 
29

>  <original_smiles>  (29) 
[H]Oc1c([H])c(C(=O)C([H])([H])C([H])([H])N([H])C(=O)N2C([H])([H])C([H])([H])C([H])([H])C([H])(n3nc(-c4c([H])c([H])c(Oc5c([H])c([H])c(F)c([H])c5F)c([H])c4[H])c(C(=O)N([H])[H])c3N([H])[H])C2([H])[H])c([H])c([H])c1C(=O)C([H])([H])Oc1c([H])c([H])c2c(c1[H])C([H])([H])N(C(=O)C([H])(N([H])C(=O)C([H])(N([H])C([H])([H])[H])C([H])([H])[H])C(C([H])([H])[H])(C([H])([H])[H])C([H])([H])[H])C([H])(C(=O)N([H])C1([H])c3c([H])c([H])c([H])c([H])c3C([H])([H])C([H])([H])C1([H])[H])C2([H])[H]

>  <smiles>  (29) 
[H]Oc1c([H])c(C(=O)C([H])([H])C([H])([H])N([H])C(=O)N2C([H])([H])C([H])([H])C([H])([H])C([H])(n3nc(-c4c([H])c([H])c(Oc5c([H])c([H])c(F)c([H])c5F)c([H])c4[H])c(C(=O)N([H])[H])c3N([H])[H])C2([H])[H])c([H])c([H])c1C(=O)C([H])([H])Oc1c([H])c([H])c2c(c1[H])C([H])([H])N(C(=O)C([H])(N([H])C(=O)C([H])(N([H])C([H])([H])[H])C([H])([H])[H])C(C([H])([H])[H])(C([H])([H])[H])C([H])([H])[H])C([H])(C(=O)N([H])C1([H])c3c([H])c([H])c([H])c([H])c3C([H])([H])C([H])([H])C1([H])[H])C2([H])[H]

$$$$
31:0:0
     RDKit          3D

100108  0  0  1  0  0  0  0  0999 V2000
  -30.9150  -21.1730   20.7390 C   0  0  0  0  0  3  0  0  0  0  0  0
  -29.3200  -20.4730   19.0390 C   0  0  0  0  0  3  0  0  0  0  0  0
  -31.0020  -22.4410   20.1360 C   0  0  0  0  0  3  0  0  0  0  0  0
  -29.3990  -21.7470   18.4400 C   0  0  0  0  0  3  0  0  0  0  0  0
  -30.0630  -20.1760   20.2050 C   0  0  0  0  0  0  0  0  0  0  0  0
  -30.2280  -22.7470   18.9940 C   0  0  0  0  0  0  0  0  0  0  0  0
  -30.2930  -24.1080   18.3640 C   0  0  0  0  0  0  0  0  0  0  0  0
  -30.5400  -25.1090   19.2130 N   0  0  0  0  0  0  0  0  0  0  0  0
  -30.0570  -24.2770   17.1660 O   0  0  0  0  0  0  0  0  0  0  0  0
  -30.6670  -24.8640   20.1840 H   0  0  0  0  0  0  0  0  0  0  0  0
  -30.4800  -26.5280   18.8940 C   0  0  0  0  0  2  0  0  0  0  0  0
  -29.0240  -26.9960   18.7990 C   0  0  0  0  0  2  0  0  0  0  0  0
  -28.3620  -26.7530   20.0380 O   0  0  0  0  0  0  0  0  0  0  0  0
  -24.6210  -31.8620   23.2740 C   0  0  0  0  0  0  0  0  0  0  0  0
  -27.1850  -27.4430   20.1330 C   0  0  0  0  0  0  0  0  0  0  0  0
  -23.3750  -30.4780   21.6400 C   0  0  0  0  0  3  0  0  0  0  0  0
  -24.7940  -28.9250   20.2000 C   0  0  0  0  0  0  0  0  0  0  0  0
  -25.8970  -30.8190   21.4100 C   0  0  0  0  0  2  0  0  0  0  0  0
  -25.9600  -29.4470   20.7760 C   0  0  0  0  0  0  0  0  0  0  0  0
  -27.1570  -28.7070   20.7530 C   0  0  0  0  0  3  0  0  0  0  0  0
  -26.0060  -26.9100   19.5720 C   0  0  0  0  0  3  0  0  0  0  0  0
  -24.8080  -27.6500   19.6030 C   0  0  0  0  0  3  0  0  0  0  0  0
  -23.5590  -29.7930   20.2580 C   0  0  0  0  0  2  0  0  0  0  0  0
  -24.6490  -31.0670   22.1670 N   0  0  0  0  0  0  0  0  0  0  0  0
  -23.5520  -32.1460   23.8290 O   0  0  0  0  0  0  0  0  0  0  0  0
  -22.7250  -29.4630   22.6070 C   0  0  0  0  0  0  0  0  0  0  0  0
  -21.4070  -29.2580   22.4590 N   0  0  0  0  0  0  0  0  0  0  0  0
  -23.4060  -28.8620   23.4420 O   0  0  0  0  0  0  0  0  0  0  0  0
  -20.9200  -29.7960   21.7560 H   0  0  0  0  0  0  0  0  0  0  0  0
  -18.0570  -27.9710   22.8590 C   0  0  0  0  0  0  0  0  0  0  0  0
  -20.5910  -28.3200   23.2290 C   0  0  0  0  0  3  0  0  0  0  0  0
  -20.7630  -26.8750   22.7080 C   0  0  0  0  0  2  0  0  0  0  0  0
  -19.7160  -26.4830   21.6610 C   0  0  0  0  0  2  0  0  0  0  0  0
  -18.3040  -26.6060   22.2410 C   0  0  0  0  0  2  0  0  0  0  0  0
  -19.1320  -28.7830   23.3080 C   0  0  0  0  0  0  0  0  0  0  0  0
  -18.8500  -30.0590   23.8420 C   0  0  0  0  0  3  0  0  0  0  0  0
  -17.5260  -30.5260   23.9320 C   0  0  0  0  0  3  0  0  0  0  0  0
  -16.4640  -29.7110   23.5040 C   0  0  0  0  0  3  0  0  0  0  0  0
  -16.7300  -28.4360   22.9730 C   0  0  0  0  0  3  0  0  0  0  0  0
  -25.9260  -32.4720   23.8780 C   0  0  0  0  0  3  0  0  0  0  0  0
  -25.6490  -33.8770   24.2000 N   0  0  0  0  0  0  0  0  0  0  0  0
  -25.9980  -34.9170   23.4300 C   0  0  0  0  0  0  0  0  0  0  0  0
  -26.6610  -34.7920   22.3970 O   0  0  0  0  0  0  0  0  0  0  0  0
  -25.0610  -34.0490   25.0030 H   0  0  0  0  0  0  0  0  0  0  0  0
  -24.2990  -36.7340   23.0700 C   0  0  0  0  0  1  0  0  0  0  0  0
  -25.5380  -36.3160   23.8790 C   0  0  0  0  0  3  0  0  0  0  0  0
  -27.6940  -37.1680   24.6880 C   0  0  0  0  0  1  0  0  0  0  0  0
  -26.5880  -37.3500   23.7520 N   0  0  0  0  0  0  0  0  0  0  0  0
  -26.1990  -38.2790   23.8980 H   0  0  0  0  0  0  0  0  0  0  0  0
  -26.4440  -31.6960   25.1520 C   0  0  1  0  0  0  0  0  0  0  0  0
  -25.3530  -31.4580   26.2210 C   0  0  0  0  0  1  0  0  0  0  0  0
  -27.0230  -30.3190   24.7530 C   0  0  0  0  0  1  0  0  0  0  0  0
  -27.5970  -32.4870   25.8140 C   0  0  0  0  0  1  0  0  0  0  0  0
  -29.9550  -18.8150   20.8150 C   0  0  0  0  0  0  0  0  0  0  0  0
  -29.0400  -18.0380   20.5140 O   0  0  0  0  0  0  0  0  0  0  0  0
  -30.6340  -18.9920   23.2530 C   0  0  0  0  0  1  0  0  0  0  0  0
  -30.9950  -18.4010   21.8780 C   0  0  0  0  0  3  0  0  0  0  0  0
  -30.9900  -16.9260   21.9080 N   0  0  0  0  0  4  0  0  0  0  0  0
  -31.0420  -16.6050   22.8610 H   0  0  0  0  0  0  0  0  0  0  0  0
  -30.0960  -16.6610   21.5160 H   0  0  0  0  0  0  0  0  0  0  0  0
  -32.0690  -16.2980   21.1170 C   0  0  0  0  0  2  0  0  0  0  0  0
  -32.1170  -14.7770   21.3240 C   0  0  0  0  0  2  0  0  0  0  0  0
  -30.8080  -13.7410   19.4820 C   0  0  0  0  0  0  0  0  0  0  0  0
  -30.0540  -11.7980   18.1780 C   0  0  0  0  0  2  0  0  0  0  0  0
  -28.9250  -12.0850   17.1780 C   0  0  0  0  0  2  0  0  0  0  0  0
  -27.5540  -11.9760   17.8670 C   0  0  0  0  0  2  0  0  0  0  0  0
  -27.4810  -12.8140   19.1670 C   0  0  0  0  0  3  0  0  0  0  0  0
  -28.6930  -12.5270   20.0810 C   0  0  0  0  0  2  0  0  0  0  0  0
  -29.9370  -12.7240   19.3100 N   0  0  0  0  0  0  0  0  0  0  0  0
  -31.5770  -14.1570   18.6090 O   0  0  0  0  0  0  0  0  0  0  0  0
  -30.9520  -14.0910   20.7660 N   0  0  0  0  0  0  0  0  0  0  0  0
  -30.3420  -13.6120   21.4150 H   0  0  0  0  0  0  0  0  0  0  0  0
  -25.2770  -13.5180   20.2980 C   0  0  0  0  0  0  0  0  0  0  0  0
  -24.2480  -12.7880   20.8300 C   0  0  0  0  0  0  0  0  0  0  0  0
  -24.6210  -11.4170   20.6850 C   0  0  0  0  0  0  0  0  0  0  0  0
  -26.2170  -12.5950   19.8680 N   0  0  0  0  0  0  0  0  0  0  0  0
  -25.8340  -11.3240   20.1550 N   0  0  0  0  0  0  0  0  0  0  0  0
  -23.8720  -10.1870   20.9690 C   0  0  0  0  0  0  0  0  0  0  0  0
  -24.3600   -9.2160   21.8710 C   0  0  0  0  0  3  0  0  0  0  0  0
  -23.6130   -8.0490   22.1410 C   0  0  0  0  0  3  0  0  0  0  0  0
  -22.3620   -7.8460   21.5110 C   0  0  0  0  0  0  0  0  0  0  0  0
  -21.8910   -8.8050   20.5960 C   0  0  0  0  0  3  0  0  0  0  0  0
  -22.6390   -9.9630   20.3250 C   0  0  0  0  0  3  0  0  0  0  0  0
  -21.5790   -6.7320   21.6930 O   0  0  0  0  0  0  0  0  0  0  0  0
  -21.5730   -6.0430   22.8790 C   0  0  0  0  0  0  0  0  0  0  0  0
  -21.2240   -6.6610   24.0990 C   0  0  0  0  0  3  0  0  0  0  0  0
  -21.1630   -5.8980   25.2820 C   0  0  0  0  0  3  0  0  0  0  0  0
  -21.4410   -4.5180   25.2470 C   0  0  0  0  0  0  0  0  0  0  0  0
  -21.7830   -3.9000   24.0320 C   0  0  0  0  0  3  0  0  0  0  0  0
  -21.8460   -4.6590   22.8510 C   0  0  0  0  0  0  0  0  0  0  0  0
  -22.1570   -4.0550   21.6790 F   0  0  0  0  0  0  0  0  0  0  0  0
  -21.3740   -3.7840   26.3810 F   0  0  0  0  0  0  0  0  0  0  0  0
  -22.9470  -13.3250   21.3550 C   0  0  0  0  0  0  0  0  0  0  0  0
  -22.3580  -12.6530   22.3380 N   0  0  0  0  0  0  0  0  0  0  0  0
  -22.4700  -14.3740   20.9270 O   0  0  0  0  0  0  0  0  0  0  0  0
  -22.7590  -11.8010   22.7030 H   0  0  0  0  0  0  0  0  0  0  0  0
  -21.4920  -12.9950   22.7310 H   0  0  0  0  0  0  0  0  0  0  0  0
  -25.4840  -14.8840   20.1280 N   0  0  0  0  0  0  0  0  0  0  0  0
  -24.7860  -15.5750   20.3810 H   0  0  0  0  0  0  0  0  0  0  0  0
  -26.2940  -15.2880   19.6730 H   0  0  0  0  0  0  0  0  0  0  0  0
  2  5  2  0
  3  1  2  0
  4  6  2  0
  4  2  1  0
  5  1  1  0
  5 54  1  0
  6  3  1  0
  7  6  1  0
  7  8  1  0
  8 10  1  0
  9  7  2  0
 11  8  1  0
 12 11  1  0
 12 13  1  0
 13 15  1  0
 14 25  2  0
 15 20  1  0
 16 24  1  0
 16 26  1  0
 17 23  1  0
 17 19  1  0
 18 24  1  0
 19 18  1  0
 20 19  2  0
 21 22  1  0
 21 15  2  0
 22 17  2  0
 23 16  1  0
 24 14  1  0
 26 28  2  0
 27 26  1  0
 29 27  1  0
 30 39  2  0
 30 35  1  0
 31 27  1  0
 31 35  1  0
 32 31  1  0
 33 34  1  0
 33 32  1  0
 34 30  1  0
 35 36  2  0
 36 37  1  0
 38 37  2  0
 39 38  1  0
 40 14  1  0
 40 41  1  0
 40 50  1  0
 41 44  1  0
 42 46  1  0
 42 41  1  0
 43 42  2  0
 46 45  1  0
 48 46  1  0
 48 49  1  0
 48 47  1  0
 50 53  1  1
 50 51  1  0
 52 50  1  0
 54 57  1  0
 55 54  2  0
 57 58  1  0
 57 56  1  0
 58 59  1  0
 60 58  1  0
 61 62  1  0
 61 58  1  0
 63 71  1  0
 64 69  1  0
 65 66  1  0
 65 64  1  0
 67 66  1  0
 67 76  1  0
 67 68  1  0
 69 63  1  0
 69 68  1  0
 70 63  2  0
 71 62  1  0
 71 72  1  0
 73 74  2  0
 74 93  1  0
 75 74  1  0
 75 78  1  0
 76 77  1  0
 76 73  1  0
 77 75  2  0
 78 79  1  0
 79 80  2  0
 81 84  1  0
 81 80  1  0
 82 81  2  0
 83 82  1  0
 83 78  2  0
 84 85  1  0
 85 86  1  0
 86 87  2  0
 88 87  1  0
 88 92  1  0
 89 88  2  0
 90 85  2  0
 90 89  1  0
 91 90  1  0
 93 94  1  0
 94 96  1  0
 94 97  1  0
 95 93  2  0
 98 73  1  0
 98 99  1  0
100 98  1  0
M  ISO  4  12 101  13 101  63 100  71 100
M  END
>  <TORSDO>  (30) 
F 24

>  <SCORE>  (30) 
-10.259

>  <name>  (30) 
31

>  <ligand_id>  (30) 
31

>  <original_smiles>  (30) 
[H]c1c([H])c([H])c2c(c1[H])C([H])([H])C([H])([H])C([H])([H])C2([H])N([H])C(=O)C1([H])N(C(=O)C([H])(N([H])C(=O)C([H])(N([H])C([H])([H])[H])C([H])([H])[H])C(C([H])([H])[H])(C([H])([H])[H])C([H])([H])[H])C([H])([H])c2c([H])c(OC([H])([H])C([H])([H])N([H])C(=O)c3c([H])c([H])c(C(=O)C([H])(C([H])([H])[H])[N+]([H])([H])C([H])([H])C([H])([H])N([H])C(=O)N4C([H])([H])C([H])([H])C([H])([H])C([H])(n5nc(-c6c([H])c([H])c(Oc7c([H])c([H])c(F)c([H])c7F)c([H])c6[H])c(C(=O)N([H])[H])c5N([H])[H])C4([H])[H])c([H])c3[H])c([H])c([H])c2C1([H])[H]

>  <smiles>  (30) 
[H]c1c([H])c([H])c2c(c1[H])C([H])([H])C([H])([H])C([H])([H])C2([H])N([H])C(=O)C1([H])N(C(=O)C([H])(N([H])C(=O)C([H])(N([H])C([H])([H])[H])C([H])([H])[H])C(C([H])([H])[H])(C([H])([H])[H])C([H])([H])[H])C([H])([H])c2c([H])c(OC([H])([H])C([H])([H])N([H])C(=O)c3c([H])c([H])c(C(=O)C([H])(C([H])([H])[H])[N+]([H])([H])C([H])([H])C([H])([H])N([H])C(=O)N4C([H])([H])C([H])([H])C([H])([H])C([H])(n5nc(-c6c([H])c([H])c(Oc7c([H])c([H])c(F)c([H])c7F)c([H])c6[H])c(C(=O)N([H])[H])c5N([H])[H])C4([H])[H])c([H])c3[H])c([H])c([H])c2C1([H])[H]

$$$$
32:0:0
     RDKit          3D

 98106  0  0  1  0  0  0  0  0999 V2000
  -30.2830  -22.0790   19.9330 C   0  0  0  0  0  3  0  0  0  0  0  0
  -30.0630  -23.4580   19.6900 C   0  0  0  0  0  3  0  0  0  0  0  0
  -27.9240  -21.7910   20.3330 C   0  0  0  0  0  3  0  0  0  0  0  0
  -29.2060  -21.2080   20.2240 C   0  0  0  0  0  0  0  0  0  0  0  0
  -27.6930  -23.1730   20.1040 C   0  0  0  0  0  0  0  0  0  0  0  0
  -28.7670  -24.0370   19.7380 C   0  0  0  0  0  0  0  0  0  0  0  0
  -29.3560  -19.7270   20.5020 C   0  0  0  0  0  0  0  0  0  0  0  0
  -28.5060  -19.1020   21.1420 O   0  0  0  0  0  0  0  0  0  0  0  0
  -30.5470  -18.9330   19.9170 C   0  0  0  0  0  2  0  0  0  0  0  0
  -31.2620  -17.9540   20.9070 C   0  0  0  0  0  2  0  0  0  0  0  0
  -30.6470  -16.5410   21.1260 C   0  0  0  0  0  2  0  0  0  0  0  0
  -31.5020  -14.5400   19.9030 C   0  0  0  0  0  0  0  0  0  0  0  0
  -31.0760  -12.3020   18.9770 C   0  0  0  0  0  2  0  0  0  0  0  0
  -30.1020  -12.4470   17.7910 C   0  0  0  0  0  2  0  0  0  0  0  0
  -28.6440  -12.3990   18.2870 C   0  0  0  0  0  2  0  0  0  0  0  0
  -28.3780  -13.3560   19.4800 C   0  0  0  0  0  3  0  0  0  0  0  0
  -29.4670  -13.2130   20.5660 C   0  0  0  0  0  2  0  0  0  0  0  0
  -30.7750  -13.3890   19.9200 N   0  0  0  0  0  0  0  0  0  0  0  0
  -32.6480  -14.6010   19.4590 O   0  0  0  0  0  0  0  0  0  0  0  0
  -30.7820  -15.6770   19.9500 N   0  0  0  0  0  0  0  0  0  0  0  0
  -31.0230  -16.2430   19.1510 H   0  0  0  0  0  0  0  0  0  0  0  0
  -26.0780  -14.1220   20.3420 C   0  0  0  0  0  0  0  0  0  0  0  0
  -24.9690  -13.4250   20.7330 C   0  0  0  0  0  0  0  0  0  0  0  0
  -25.3110  -12.0430   20.6220 C   0  0  0  0  0  0  0  0  0  0  0  0
  -27.0340  -13.1710   20.0220 N   0  0  0  0  0  0  0  0  0  0  0  0
  -26.5760  -11.9110   20.2460 N   0  0  0  0  0  0  0  0  0  0  0  0
  -24.4910  -10.8380   20.7990 C   0  0  0  0  0  0  0  0  0  0  0  0
  -24.8380   -9.8370   21.7340 C   0  0  0  0  0  3  0  0  0  0  0  0
  -24.0190   -8.6990   21.9000 C   0  0  0  0  0  3  0  0  0  0  0  0
  -22.8400   -8.5520   21.1310 C   0  0  0  0  0  0  0  0  0  0  0  0
  -22.5120   -9.5420   20.1860 C   0  0  0  0  0  3  0  0  0  0  0  0
  -23.3300  -10.6720   20.0190 C   0  0  0  0  0  3  0  0  0  0  0  0
  -22.0020   -7.4660   21.2040 O   0  0  0  0  0  0  0  0  0  0  0  0
  -21.8250   -6.7710   22.3730 C   0  0  0  0  0  0  0  0  0  0  0  0
  -21.3210   -7.3900   23.5380 C   0  0  0  0  0  3  0  0  0  0  0  0
  -21.0890   -6.6240   24.6980 C   0  0  0  0  0  3  0  0  0  0  0  0
  -21.3520   -5.2410   24.6930 C   0  0  0  0  0  0  0  0  0  0  0  0
  -21.8480   -4.6220   23.5310 C   0  0  0  0  0  3  0  0  0  0  0  0
  -22.0820   -5.3870   22.3750 C   0  0  0  0  0  0  0  0  0  0  0  0
  -22.5420   -4.7820   21.2530 F   0  0  0  0  0  0  0  0  0  0  0  0
  -21.1220   -4.5030   25.8040 F   0  0  0  0  0  0  0  0  0  0  0  0
  -23.6320  -14.0020   21.0980 C   0  0  0  0  0  0  0  0  0  0  0  0
  -22.9000  -13.3410   21.9860 N   0  0  0  0  0  0  0  0  0  0  0  0
  -23.2500  -15.0740   20.6280 O   0  0  0  0  0  0  0  0  0  0  0  0
  -23.2210  -12.4720   22.3870 H   0  0  0  0  0  0  0  0  0  0  0  0
  -22.0050  -13.7100   22.2700 H   0  0  0  0  0  0  0  0  0  0  0  0
  -26.3470  -15.4830   20.2140 N   0  0  0  0  0  0  0  0  0  0  0  0
  -25.6430  -16.1890   20.4020 H   0  0  0  0  0  0  0  0  0  0  0  0
  -27.2310  -15.8690   19.9080 H   0  0  0  0  0  0  0  0  0  0  0  0
  -26.2990  -23.6420   20.2830 C   0  0  0  0  0  0  0  0  0  0  0  0
  -25.9410  -24.2180   21.3140 O   0  0  0  0  0  0  0  0  0  0  0  0
  -25.2720  -23.3300   19.1440 C   0  0  0  0  0  0  0  0  0  0  0  0
  -25.8200  -23.1400   17.9430 N   0  0  0  0  0  0  0  0  0  0  0  0
  -24.0540  -23.2880   19.3250 O   0  0  0  0  0  0  0  0  0  0  0  0
  -26.8260  -23.1720   17.8460 H   0  0  0  0  0  0  0  0  0  0  0  0
  -25.2460  -22.9520   17.1350 H   0  0  0  0  0  0  0  0  0  0  0  0
  -28.5980  -25.5040   19.2450 C   0  0  0  0  0  2  0  0  0  0  0  0
  -28.3060  -26.5330   20.2160 O   0  0  0  0  0  0  0  0  0  0  0  0
  -24.5970  -31.7450   23.3550 C   0  0  0  0  0  0  0  0  0  0  0  0
  -27.1610  -27.3200   20.1370 C   0  0  0  0  0  0  0  0  0  0  0  0
  -23.3740  -30.4390   21.6470 C   0  0  0  0  0  3  0  0  0  0  0  0
  -24.8070  -28.9180   20.1750 C   0  0  0  0  0  0  0  0  0  0  0  0
  -25.9190  -30.7150   21.5090 C   0  0  0  0  0  2  0  0  0  0  0  0
  -25.9690  -29.3690   20.8110 C   0  0  0  0  0  0  0  0  0  0  0  0
  -27.1400  -28.5720   20.8030 C   0  0  0  0  0  3  0  0  0  0  0  0
  -25.9880  -26.9170   19.4570 C   0  0  0  0  0  3  0  0  0  0  0  0
  -24.8120  -27.6890   19.4990 C   0  0  0  0  0  3  0  0  0  0  0  0
  -23.5840  -29.8050   20.2460 C   0  0  0  0  0  2  0  0  0  0  0  0
  -24.6470  -30.9810   22.2260 N   0  0  0  0  0  0  0  0  0  0  0  0
  -23.5160  -32.0310   23.8890 O   0  0  0  0  0  0  0  0  0  0  0  0
  -22.6830  -29.4010   22.5600 C   0  0  0  0  0  0  0  0  0  0  0  0
  -21.3570  -29.2610   22.4090 N   0  0  0  0  0  0  0  0  0  0  0  0
  -23.3360  -28.7260   23.3600 O   0  0  0  0  0  0  0  0  0  0  0  0
  -20.8960  -29.8540   21.7300 H   0  0  0  0  0  0  0  0  0  0  0  0
  -17.9420  -28.1580   22.8400 C   0  0  0  0  0  0  0  0  0  0  0  0
  -20.5050  -28.3160   23.1300 C   0  0  0  0  0  3  0  0  0  0  0  0
  -20.5620  -26.9110   22.4850 C   0  0  0  0  0  2  0  0  0  0  0  0
  -19.4510  -26.6730   21.4570 C   0  0  0  0  0  2  0  0  0  0  0  0
  -18.0760  -26.8370   22.1030 C   0  0  0  0  0  2  0  0  0  0  0  0
  -19.0840  -28.8600   23.3100 C   0  0  0  0  0  0  0  0  0  0  0  0
  -18.9060  -30.1010   23.9540 C   0  0  0  0  0  3  0  0  0  0  0  0
  -17.6180  -30.6400   24.1350 C   0  0  0  0  0  3  0  0  0  0  0  0
  -16.4900  -29.9330   23.6830 C   0  0  0  0  0  3  0  0  0  0  0  0
  -16.6540  -28.6930   23.0410 C   0  0  0  0  0  3  0  0  0  0  0  0
  -25.8920  -32.3120   24.0130 C   0  0  0  0  0  3  0  0  0  0  0  0
  -25.6420  -33.7240   24.3300 N   0  0  0  0  0  0  0  0  0  0  0  0
  -26.0370  -34.7550   23.5700 C   0  0  0  0  0  0  0  0  0  0  0  0
  -26.7210  -34.6130   22.5520 O   0  0  0  0  0  0  0  0  0  0  0  0
  -25.0390  -33.9130   25.1170 H   0  0  0  0  0  0  0  0  0  0  0  0
  -24.3950  -36.6170   23.1760 C   0  0  0  0  0  1  0  0  0  0  0  0
  -25.6050  -36.1660   24.0090 C   0  0  0  0  0  3  0  0  0  0  0  0
  -27.7570  -36.9740   24.8750 C   0  0  0  0  0  1  0  0  0  0  0  0
  -26.6850  -37.1720   23.9040 N   0  0  0  0  0  0  0  0  0  0  0  0
  -26.3160  -38.1110   24.0230 H   0  0  0  0  0  0  0  0  0  0  0  0
  -26.3350  -31.5200   25.3050 C   0  0  1  0  0  0  0  0  0  0  0  0
  -25.1930  -31.3160   26.3280 C   0  0  0  0  0  1  0  0  0  0  0  0
  -26.8850  -30.1220   24.9330 C   0  0  0  0  0  1  0  0  0  0  0  0
  -27.4880  -32.2730   26.0100 C   0  0  0  0  0  1  0  0  0  0  0  0
  1  4  1  0
  2  6  1  0
  2  1  2  0
  4  3  2  0
  4  7  1  0
  5 50  1  0
  5  3  1  0
  6  5  2  0
  7  8  2  0
  9  7  1  0
  9 10  1  0
 10 11  1  0
 12 18  1  0
 12 20  1  0
 13 18  1  0
 14 15  1  0
 14 13  1  0
 16 15  1  0
 16 25  1  0
 16 17  1  0
 18 17  1  0
 19 12  2  0
 20 11  1  0
 21 20  1  0
 22 23  2  0
 23 42  1  0
 24 23  1  0
 24 27  1  0
 25 26  1  0
 25 22  1  0
 26 24  2  0
 27 28  1  0
 28 29  2  0
 30 33  1  0
 30 29  1  0
 31 30  2  0
 32 31  1  0
 32 27  2  0
 33 34  1  0
 34 39  2  0
 34 35  1  0
 35 36  2  0
 37 36  1  0
 37 41  1  0
 38 37  2  0
 39 38  1  0
 40 39  1  0
 42 43  1  0
 43 46  1  0
 43 45  1  0
 44 42  2  0
 47 22  1  0
 47 48  1  0
 49 47  1  0
 50 51  2  0
 52 54  2  0
 52 50  1  0
 53 52  1  0
 55 53  1  0
 56 53  1  0
 57  6  1  0
 57 58  1  0
 59 70  2  0
 60 58  1  0
 60 65  1  0
 61 69  1  0
 61 71  1  0
 62 68  1  0
 62 64  1  0
 63 69  1  0
 64 63  1  0
 65 64  2  0
 66 67  1  0
 66 60  2  0
 67 62  2  0
 68 61  1  0
 69 59  1  0
 71 73  2  0
 72 71  1  0
 74 72  1  0
 75 84  2  0
 75 80  1  0
 76 72  1  0
 76 80  1  0
 77 76  1  0
 78 79  1  0
 78 77  1  0
 79 75  1  0
 80 81  2  0
 81 82  1  0
 83 82  2  0
 84 83  1  0
 85 59  1  0
 85 86  1  0
 85 95  1  0
 86 89  1  0
 87 91  1  0
 87 86  1  0
 88 87  2  0
 91 90  1  0
 93 91  1  0
 93 94  1  0
 93 92  1  0
 95 98  1  1
 95 96  1  0
 97 95  1  0
M  ISO  4  12 100  20 100  57 101  58 101
M  END
>  <TORSDO>  (31) 
F 23

>  <SCORE>  (31) 
-12.141

>  <name>  (31) 
32

>  <ligand_id>  (31) 
32

>  <original_smiles>  (31) 
[H]c1c([H])c([H])c2c(c1[H])C([H])([H])C([H])([H])C([H])([H])C2([H])N([H])C(=O)C1([H])N(C(=O)C([H])(N([H])C(=O)C([H])(N([H])C([H])([H])[H])C([H])([H])[H])C(C([H])([H])[H])(C([H])([H])[H])C([H])([H])[H])C([H])([H])c2c([H])c(OC([H])([H])c3c([H])c([H])c(C(=O)C([H])([H])C([H])([H])C([H])([H])N([H])C(=O)N4C([H])([H])C([H])([H])C([H])([H])C([H])(n5nc(-c6c([H])c([H])c(Oc7c([H])c([H])c(F)c([H])c7F)c([H])c6[H])c(C(=O)N([H])[H])c5N([H])[H])C4([H])[H])c([H])c3C(=O)C(=O)N([H])[H])c([H])c([H])c2C1([H])[H]

>  <smiles>  (31) 
[H]c1c([H])c([H])c2c(c1[H])C([H])([H])C([H])([H])C([H])([H])C2([H])N([H])C(=O)C1([H])N(C(=O)C([H])(N([H])C(=O)C([H])(N([H])C([H])([H])[H])C([H])([H])[H])C(C([H])([H])[H])(C([H])([H])[H])C([H])([H])[H])C([H])([H])c2c([H])c(OC([H])([H])c3c([H])c([H])c(C(=O)C([H])([H])C([H])([H])C([H])([H])N([H])C(=O)N4C([H])([H])C([H])([H])C([H])([H])C([H])(n5nc(-c6c([H])c([H])c(Oc7c([H])c([H])c(F)c([H])c7F)c([H])c6[H])c(C(=O)N([H])[H])c5N([H])[H])C4([H])[H])c([H])c3C(=O)C(=O)N([H])[H])c([H])c([H])c2C1([H])[H]

$$$$
33:0:0
     RDKit          3D

100108  0  0  1  0  0  0  0  0999 V2000
  -28.8230  -24.2140   21.1890 C   0  0  0  0  0  3  0  0  0  0  0  0
  -28.5200  -22.8840   20.8550 C   0  0  0  0  0  3  0  0  0  0  0  0
  -31.1090  -23.8940   20.4040 C   0  0  0  0  0  3  0  0  0  0  0  0
  -30.1150  -24.7420   20.9560 C   0  0  0  0  0  0  0  0  0  0  0  0
  -30.7970  -22.5640   20.0480 C   0  0  0  0  0  0  0  0  0  0  0  0
  -29.5020  -22.0600   20.2800 C   0  0  0  0  0  0  0  0  0  0  0  0
  -31.7500  -21.7240   19.4680 N   0  0  0  0  0  0  0  0  0  0  0  0
  -32.6230  -22.1890   19.2390 H   0  0  0  0  0  0  0  0  0  0  0  0
  -31.4010  -21.2770   18.6260 H   0  0  0  0  0  0  0  0  0  0  0  0
  -30.4360  -26.1680   21.2800 C   0  0  0  0  0  0  0  0  0  0  0  0
  -31.5920  -26.6050   21.2960 O   0  0  0  0  0  0  0  0  0  0  0  0
  -29.2650  -27.1240   21.5750 C   0  0  0  0  0  2  0  0  0  0  0  0
  -28.3820  -27.1350   20.4550 O   0  0  0  0  0  0  0  0  0  0  0  0
  -24.5570  -32.2740   23.6540 C   0  0  0  0  0  0  0  0  0  0  0  0
  -27.2490  -27.9080   20.5310 C   0  0  0  0  0  0  0  0  0  0  0  0
  -23.3700  -30.9150   21.9590 C   0  0  0  0  0  3  0  0  0  0  0  0
  -24.8470  -29.3970   20.5340 C   0  0  0  0  0  0  0  0  0  0  0  0
  -25.8980  -31.2700   21.8120 C   0  0  0  0  0  2  0  0  0  0  0  0
  -25.9910  -29.9080   21.1590 C   0  0  0  0  0  0  0  0  0  0  0  0
  -27.1940  -29.1690   21.1690 C   0  0  0  0  0  3  0  0  0  0  0  0
  -26.0910  -27.4070   19.9030 C   0  0  0  0  0  3  0  0  0  0  0  0
  -24.8880  -28.1390   19.9080 C   0  0  0  0  0  3  0  0  0  0  0  0
  -23.6020  -30.2570   20.5720 C   0  0  0  0  0  2  0  0  0  0  0  0
  -24.6250  -31.4990   22.5350 N   0  0  0  0  0  0  0  0  0  0  0  0
  -23.4680  -32.5430   24.1810 O   0  0  0  0  0  0  0  0  0  0  0  0
  -22.6940  -29.8820   22.8860 C   0  0  0  0  0  0  0  0  0  0  0  0
  -21.3870  -29.6570   22.6760 N   0  0  0  0  0  0  0  0  0  0  0  0
  -23.3450  -29.2810   23.7450 O   0  0  0  0  0  0  0  0  0  0  0  0
  -20.9240  -30.1950   21.9560 H   0  0  0  0  0  0  0  0  0  0  0  0
  -18.0470  -28.2970   22.8980 C   0  0  0  0  0  0  0  0  0  0  0  0
  -20.5510  -28.7000   23.3990 C   0  0  0  0  0  3  0  0  0  0  0  0
  -20.7810  -27.2600   22.8820 C   0  0  0  0  0  2  0  0  0  0  0  0
  -19.7980  -26.8510   21.7810 C   0  0  0  0  0  2  0  0  0  0  0  0
  -18.3560  -26.9410   22.2870 C   0  0  0  0  0  2  0  0  0  0  0  0
  -19.0800  -29.1300   23.4050 C   0  0  0  0  0  0  0  0  0  0  0  0
  -18.7420  -30.3970   23.9270 C   0  0  0  0  0  3  0  0  0  0  0  0
  -17.4030  -30.8340   23.9510 C   0  0  0  0  0  3  0  0  0  0  0  0
  -16.3840  -29.9980   23.4630 C   0  0  0  0  0  3  0  0  0  0  0  0
  -16.7060  -28.7310   22.9440 C   0  0  0  0  0  3  0  0  0  0  0  0
  -25.8380  -32.8760   24.3120 C   0  0  0  0  0  3  0  0  0  0  0  0
  -26.2530  -32.1440   25.6470 C   0  0  1  0  0  0  0  0  0  0  0  0
  -25.0870  -31.9610   26.6440 C   0  0  0  0  0  1  0  0  0  0  0  0
  -26.8360  -30.7440   25.3420 C   0  0  0  0  0  1  0  0  0  0  0  0
  -27.3690  -32.9430   26.3610 C   0  0  0  0  0  1  0  0  0  0  0  0
  -25.5840  -34.3010   24.5560 N   0  0  0  0  0  0  0  0  0  0  0  0
  -26.0580  -35.2980   23.7970 C   0  0  0  0  0  0  0  0  0  0  0  0
  -26.8270  -35.1120   22.8500 O   0  0  0  0  0  0  0  0  0  0  0  0
  -24.9220  -34.5250   25.2850 H   0  0  0  0  0  0  0  0  0  0  0  0
  -24.5000  -37.1660   23.1700 C   0  0  0  0  0  1  0  0  0  0  0  0
  -25.6070  -36.7290   24.1430 C   0  0  0  0  0  3  0  0  0  0  0  0
  -27.6870  -37.5100   25.1850 C   0  0  0  0  0  1  0  0  0  0  0  0
  -26.7080  -37.7160   24.1220 N   0  0  0  0  0  0  0  0  0  0  0  0
  -26.3450  -38.6610   24.2060 H   0  0  0  0  0  0  0  0  0  0  0  0
  -29.2220  -20.7560   19.9680 O   0  0  0  0  0  0  0  0  0  0  0  0
  -28.8290  -19.9820   21.0960 C   0  0  0  0  0  2  0  0  0  0  0  0
  -29.1610  -18.5280   20.7660 C   0  0  0  0  0  2  0  0  0  0  0  0
  -30.5930  -18.3810   20.4140 N   0  0  0  0  0  4  0  0  0  0  0  0
  -30.7210  -18.6760   19.4480 H   0  0  0  0  0  0  0  0  0  0  0  0
  -31.1460  -19.0180   20.9670 H   0  0  0  0  0  0  0  0  0  0  0  0
  -31.1020  -17.0070   20.5930 C   0  0  0  0  0  2  0  0  0  0  0  0
  -32.4910  -16.8080   19.9630 C   0  0  0  0  0  2  0  0  0  0  0  0
  -33.1750  -15.5000   20.4020 C   0  0  0  0  0  2  0  0  0  0  0  0
  -32.3810  -13.2450   19.6640 C   0  0  0  0  0  0  0  0  0  0  0  0
  -31.8280  -10.8440   19.6590 C   0  0  0  0  0  2  0  0  0  0  0  0
  -30.8510  -10.4440   18.5430 C   0  0  0  0  0  2  0  0  0  0  0  0
  -29.3980  -10.6270   19.0150 C   0  0  0  0  0  2  0  0  0  0  0  0
  -29.1470  -12.0350   19.6120 C   0  0  0  0  0  3  0  0  0  0  0  0
  -30.2270  -12.3980   20.6560 C   0  0  0  0  0  2  0  0  0  0  0  0
  -31.5630  -12.2350   20.0470 N   0  0  0  0  0  0  0  0  0  0  0  0
  -33.2800  -13.1210   18.8260 O   0  0  0  0  0  0  0  0  0  0  0  0
  -32.2660  -14.3530   20.4090 N   0  0  0  0  0  0  0  0  0  0  0  0
  -31.5660  -14.3200   21.1360 H   0  0  0  0  0  0  0  0  0  0  0  0
  -27.0910  -13.2700   20.5540 C   0  0  0  0  0  0  0  0  0  0  0  0
  -25.8540  -12.8260   20.9420 C   0  0  0  0  0  0  0  0  0  0  0  0
  -25.8710  -11.4090   20.7620 C   0  0  0  0  0  0  0  0  0  0  0  0
  -27.7980  -12.1410   20.1700 N   0  0  0  0  0  0  0  0  0  0  0  0
  -27.0660  -11.0100   20.3480 N   0  0  0  0  0  0  0  0  0  0  0  0
  -24.7980  -10.4150   20.9060 C   0  0  0  0  0  0  0  0  0  0  0  0
  -24.9200   -9.3200   21.7880 C   0  0  0  0  0  3  0  0  0  0  0  0
  -23.8690   -8.3870   21.9220 C   0  0  0  0  0  3  0  0  0  0  0  0
  -22.6780   -8.5480   21.1740 C   0  0  0  0  0  0  0  0  0  0  0  0
  -22.5710   -9.6290   20.2810 C   0  0  0  0  0  3  0  0  0  0  0  0
  -23.6210  -10.5520   20.1450 C   0  0  0  0  0  3  0  0  0  0  0  0
  -21.6140   -7.6800   21.2210 O   0  0  0  0  0  0  0  0  0  0  0  0
  -21.3250   -6.9560   22.3500 C   0  0  0  0  0  0  0  0  0  0  0  0
  -21.0480   -7.5800   23.5860 C   0  0  0  0  0  3  0  0  0  0  0  0
  -20.6880   -6.8020   24.7040 C   0  0  0  0  0  3  0  0  0  0  0  0
  -20.5950   -5.4020   24.5870 C   0  0  0  0  0  0  0  0  0  0  0  0
  -20.8640   -4.7780   23.3560 C   0  0  0  0  0  3  0  0  0  0  0  0
  -21.2260   -5.5530   22.2400 C   0  0  0  0  0  0  0  0  0  0  0  0
  -21.4640   -4.9500   21.0510 F   0  0  0  0  0  0  0  0  0  0  0  0
  -20.2410   -4.6530   25.6580 F   0  0  0  0  0  0  0  0  0  0  0  0
  -24.6910  -13.6740   21.3660 C   0  0  0  0  0  0  0  0  0  0  0  0
  -23.8420  -13.1550   22.2470 N   0  0  0  0  0  0  0  0  0  0  0  0
  -24.5550  -14.8250   20.9550 O   0  0  0  0  0  0  0  0  0  0  0  0
  -23.9620  -12.2150   22.5970 H   0  0  0  0  0  0  0  0  0  0  0  0
  -23.0560  -13.7010   22.5710 H   0  0  0  0  0  0  0  0  0  0  0  0
  -27.6640  -14.5350   20.4750 N   0  0  0  0  0  0  0  0  0  0  0  0
  -27.1390  -15.3810   20.6770 H   0  0  0  0  0  0  0  0  0  0  0  0
  -28.5900  -14.7200   20.1090 H   0  0  0  0  0  0  0  0  0  0  0  0
  2  1  2  0
  3  4  2  0
  4  1  1  0
  4 10  1  0
  5  6  2  0
  5  3  1  0
  6  2  1  0
  7  5  1  0
  8  7  1  0
  9  7  1  0
 10 11  2  0
 10 12  1  0
 13 15  1  0
 13 12  1  0
 14 25  2  0
 15 20  1  0
 16 24  1  0
 16 26  1  0
 17 23  1  0
 17 19  1  0
 18 24  1  0
 19 20  2  0
 19 18  1  0
 21 22  1  0
 21 15  2  0
 22 17  2  0
 23 16  1  0
 24 14  1  0
 26 28  2  0
 27 26  1  0
 29 27  1  0
 30 39  2  0
 30 35  1  0
 31 27  1  0
 31 35  1  0
 32 31  1  0
 33 34  1  0
 33 32  1  0
 34 30  1  0
 35 36  2  0
 36 37  1  0
 38 37  2  0
 39 38  1  0
 40 14  1  0
 40 45  1  0
 40 41  1  0
 41 44  1  1
 41 42  1  0
 43 41  1  0
 45 48  1  0
 46 50  1  0
 46 45  1  0
 47 46  2  0
 50 49  1  0
 52 50  1  0
 52 53  1  0
 52 51  1  0
 54  6  1  0
 54 55  1  0
 56 55  1  0
 57 60  1  0
 57 56  1  0
 57 59  1  0
 58 57  1  0
 61 62  1  0
 61 60  1  0
 62 71  1  0
 63 69  1  0
 63 71  1  0
 64 69  1  0
 65 66  1  0
 65 64  1  0
 67 66  1  0
 67 76  1  0
 67 68  1  0
 69 68  1  0
 70 63  2  0
 71 72  1  0
 73 74  2  0
 74 93  1  0
 75 78  1  0
 75 74  1  0
 76 77  1  0
 76 73  1  0
 77 75  2  0
 78 79  1  0
 79 80  2  0
 81 84  1  0
 81 80  1  0
 82 81  2  0
 83 82  1  0
 83 78  2  0
 84 85  1  0
 85 86  1  0
 86 87  2  0
 88 87  1  0
 88 92  1  0
 89 88  2  0
 90 85  2  0
 90 89  1  0
 91 90  1  0
 93 94  1  0
 94 97  1  0
 94 96  1  0
 95 93  2  0
 98 73  1  0
 98 99  1  0
100 98  1  0
M  ISO  4  12 101  13 101  63 100  71 100
M  END
>  <TORSDO>  (32) 
F 26

>  <SCORE>  (32) 
-8.706

>  <name>  (32) 
33

>  <ligand_id>  (32) 
33

>  <original_smiles>  (32) 
[H]c1c([H])c([H])c2c(c1[H])C([H])([H])C([H])([H])C([H])([H])C2([H])N([H])C(=O)C1([H])N(C(=O)C([H])(N([H])C(=O)C([H])(N([H])C([H])([H])[H])C([H])([H])[H])C(C([H])([H])[H])(C([H])([H])[H])C([H])([H])[H])C([H])([H])c2c([H])c(OC([H])([H])C(=O)c3c([H])c([H])c(OC([H])([H])C([H])([H])[N+]([H])([H])C([H])([H])C([H])([H])C([H])([H])N([H])C(=O)N4C([H])([H])C([H])([H])C([H])([H])C([H])(n5nc(-c6c([H])c([H])c(Oc7c([H])c([H])c(F)c([H])c7F)c([H])c6[H])c(C(=O)N([H])[H])c5N([H])[H])C4([H])[H])c(N([H])[H])c3[H])c([H])c([H])c2C1([H])[H]

>  <smiles>  (32) 
[H]c1c([H])c([H])c2c(c1[H])C([H])([H])C([H])([H])C([H])([H])C2([H])N([H])C(=O)C1([H])N(C(=O)C([H])(N([H])C(=O)C([H])(N([H])C([H])([H])[H])C([H])([H])[H])C(C([H])([H])[H])(C([H])([H])[H])C([H])([H])[H])C([H])([H])c2c([H])c(OC([H])([H])C(=O)c3c([H])c([H])c(OC([H])([H])C([H])([H])[N+]([H])([H])C([H])([H])C([H])([H])C([H])([H])N([H])C(=O)N4C([H])([H])C([H])([H])C([H])([H])C([H])(n5nc(-c6c([H])c([H])c(Oc7c([H])c([H])c(F)c([H])c7F)c([H])c6[H])c(C(=O)N([H])[H])c5N([H])[H])C4([H])[H])c(N([H])[H])c3[H])c([H])c([H])c2C1([H])[H]

$$$$
34:0:0
     RDKit          3D

 95103  0  0  1  0  0  0  0  0999 V2000
  -27.4840  -22.1920   22.4250 C   0  0  0  0  0  1  0  0  0  0  0  0
  -28.1950  -22.2140   21.0620 C   0  0  0  0  0  3  0  0  0  0  0  0
  -28.3020  -19.6830   20.7020 C   0  0  0  0  0  3  0  0  0  0  0  0
  -29.0010  -18.4790   20.4560 C   0  0  0  0  0  3  0  0  0  0  0  0
  -30.3960  -20.9020   20.7190 C   0  0  0  0  0  3  0  0  0  0  0  0
  -28.9880  -20.9140   20.8310 C   0  0  0  0  0  0  0  0  0  0  0  0
  -30.4070  -18.4720   20.3050 C   0  0  0  0  0  0  0  0  0  0  0  0
  -31.0990  -19.7110   20.4340 C   0  0  0  0  0  0  0  0  0  0  0  0
  -32.6060  -19.8310   20.2490 C   0  0  0  0  0  1  0  0  0  0  0  0
  -30.9270  -16.9830   18.3620 C   0  0  0  0  0  1  0  0  0  0  0  0
  -31.1380  -17.1850   19.8760 C   0  0  0  0  0  3  0  0  0  0  0  0
  -31.5380  -14.8140   20.5020 C   0  0  0  0  0  0  0  0  0  0  0  0
  -31.1900  -12.6760   19.3580 C   0  0  0  0  0  2  0  0  0  0  0  0
  -30.3070  -12.9700   18.1260 C   0  0  0  0  0  2  0  0  0  0  0  0
  -28.8130  -12.8940   18.4980 C   0  0  0  0  0  2  0  0  0  0  0  0
  -28.4690  -13.7100   19.7740 C   0  0  0  0  0  3  0  0  0  0  0  0
  -29.4780  -13.4310   20.9140 C   0  0  0  0  0  2  0  0  0  0  0  0
  -30.8310  -13.6610   20.3910 N   0  0  0  0  0  0  0  0  0  0  0  0
  -32.7350  -14.8860   20.2140 O   0  0  0  0  0  0  0  0  0  0  0  0
  -30.7860  -15.9350   20.5860 N   0  0  0  0  0  0  0  0  0  0  0  0
  -29.8220  -15.8090   20.8470 H   0  0  0  0  0  0  0  0  0  0  0  0
  -26.0690  -14.4000   20.3880 C   0  0  0  0  0  0  0  0  0  0  0  0
  -24.9620  -13.6660   20.7200 C   0  0  0  0  0  0  0  0  0  0  0  0
  -25.3810  -12.2990   20.7200 C   0  0  0  0  0  0  0  0  0  0  0  0
  -27.0920  -13.4840   20.2030 N   0  0  0  0  0  0  0  0  0  0  0  0
  -26.6800  -12.2160   20.4630 N   0  0  0  0  0  0  0  0  0  0  0  0
  -24.6070  -11.0640   20.8890 C   0  0  0  0  0  0  0  0  0  0  0  0
  -24.9360  -10.1180   21.8860 C   0  0  0  0  0  3  0  0  0  0  0  0
  -24.1670   -8.9440   22.0420 C   0  0  0  0  0  3  0  0  0  0  0  0
  -23.0560   -8.7070   21.1970 C   0  0  0  0  0  0  0  0  0  0  0  0
  -22.7480   -9.6390   20.1900 C   0  0  0  0  0  3  0  0  0  0  0  0
  -23.5160  -10.8050   20.0340 C   0  0  0  0  0  3  0  0  0  0  0  0
  -22.2680   -7.5840   21.2580 O   0  0  0  0  0  0  0  0  0  0  0  0
  -22.0380   -6.9290   22.4420 C   0  0  0  0  0  0  0  0  0  0  0  0
  -21.4570   -7.5800   23.5520 C   0  0  0  0  0  3  0  0  0  0  0  0
  -21.1750   -6.8520   24.7260 C   0  0  0  0  0  3  0  0  0  0  0  0
  -21.4620   -5.4750   24.7880 C   0  0  0  0  0  0  0  0  0  0  0  0
  -22.0340   -4.8240   23.6800 C   0  0  0  0  0  3  0  0  0  0  0  0
  -22.3190   -5.5490   22.5090 C   0  0  0  0  0  0  0  0  0  0  0  0
  -22.8510   -4.9140   21.4380 F   0  0  0  0  0  0  0  0  0  0  0  0
  -21.1830   -4.7730   25.9110 F   0  0  0  0  0  0  0  0  0  0  0  0
  -23.5710  -14.1890   20.9280 C   0  0  0  0  0  0  0  0  0  0  0  0
  -22.7880  -13.5340   21.7790 N   0  0  0  0  0  0  0  0  0  0  0  0
  -23.1820  -15.2150   20.3690 O   0  0  0  0  0  0  0  0  0  0  0  0
  -23.1110  -12.7040   22.2530 H   0  0  0  0  0  0  0  0  0  0  0  0
  -21.8510  -13.8680   21.9580 H   0  0  0  0  0  0  0  0  0  0  0  0
  -26.2850  -15.7620   20.2040 N   0  0  0  0  0  0  0  0  0  0  0  0
  -25.5300  -16.4370   20.2730 H   0  0  0  0  0  0  0  0  0  0  0  0
  -27.1420  -16.1630   19.8470 H   0  0  0  0  0  0  0  0  0  0  0  0
  -29.0250  -23.4400   20.9520 N   0  0  0  0  0  4  0  0  0  0  0  0
  -29.4830  -23.5790   21.8400 H   0  0  0  0  0  0  0  0  0  0  0  0
  -29.7430  -23.2520   20.2690 H   0  0  0  0  0  0  0  0  0  0  0  0
  -28.3200  -24.6820   20.5320 C   0  0  0  0  0  2  0  0  0  0  0  0
  -29.0850  -25.9680   20.9370 C   0  0  0  0  0  2  0  0  0  0  0  0
  -28.8810  -27.0770   20.0570 O   0  0  0  0  0  0  0  0  0  0  0  0
  -24.6850  -31.8660   23.2840 C   0  0  0  0  0  0  0  0  0  0  0  0
  -27.6660  -27.7120   20.1280 C   0  0  0  0  0  0  0  0  0  0  0  0
  -23.6150  -30.4810   21.5350 C   0  0  0  0  0  3  0  0  0  0  0  0
  -25.1970  -29.0810   20.1110 C   0  0  0  0  0  0  0  0  0  0  0  0
  -26.1210  -30.9780   21.4520 C   0  0  0  0  0  2  0  0  0  0  0  0
  -26.3010  -29.6370   20.7720 C   0  0  0  0  0  0  0  0  0  0  0  0
  -27.5390  -28.9580   20.7820 C   0  0  0  0  0  3  0  0  0  0  0  0
  -26.5520  -27.1710   19.4550 C   0  0  0  0  0  3  0  0  0  0  0  0
  -25.3160  -27.8450   19.4520 C   0  0  0  0  0  3  0  0  0  0  0  0
  -23.9110  -29.8750   20.1370 C   0  0  0  0  0  2  0  0  0  0  0  0
  -24.8210  -31.1240   22.1490 N   0  0  0  0  0  0  0  0  0  0  0  0
  -23.5720  -32.0590   23.7940 O   0  0  0  0  0  0  0  0  0  0  0  0
  -22.9850  -29.3840   22.4240 C   0  0  0  0  0  0  0  0  0  0  0  0
  -21.6720  -29.1580   22.2540 N   0  0  0  0  0  0  0  0  0  0  0  0
  -23.6730  -28.7440   23.2220 O   0  0  0  0  0  0  0  0  0  0  0  0
  -21.1750  -29.7320   21.5880 H   0  0  0  0  0  0  0  0  0  0  0  0
  -18.3280  -27.8420   22.6260 C   0  0  0  0  0  0  0  0  0  0  0  0
  -20.8740  -28.1500   22.9520 C   0  0  0  0  0  3  0  0  0  0  0  0
  -21.0220  -26.7630   22.2830 C   0  0  0  0  0  2  0  0  0  0  0  0
  -19.9420  -26.4780   21.2360 C   0  0  0  0  0  2  0  0  0  0  0  0
  -18.5490  -26.5440   21.8710 C   0  0  0  0  0  2  0  0  0  0  0  0
  -19.4190  -28.6040   23.1210 C   0  0  0  0  0  0  0  0  0  0  0  0
  -19.1590  -29.8210   23.7860 C   0  0  0  0  0  3  0  0  0  0  0  0
  -17.8370  -30.2740   23.9650 C   0  0  0  0  0  3  0  0  0  0  0  0
  -16.7600  -29.5080   23.4880 C   0  0  0  0  0  3  0  0  0  0  0  0
  -17.0070  -28.2950   22.8220 C   0  0  0  0  0  3  0  0  0  0  0  0
  -25.9130  -32.5290   23.9820 C   0  0  0  0  0  3  0  0  0  0  0  0
  -25.5490  -33.9180   24.2920 N   0  0  0  0  0  0  0  0  0  0  0  0
  -25.8910  -34.9770   23.5480 C   0  0  0  0  0  0  0  0  0  0  0  0
  -26.6180  -34.8920   22.5520 O   0  0  0  0  0  0  0  0  0  0  0  0
  -24.9120  -34.0560   25.0620 H   0  0  0  0  0  0  0  0  0  0  0  0
  -24.1280  -36.7120   23.0960 C   0  0  0  0  0  1  0  0  0  0  0  0
  -25.3380  -36.3500   23.9710 C   0  0  0  0  0  3  0  0  0  0  0  0
  -27.4010  -37.3050   24.9030 C   0  0  0  0  0  1  0  0  0  0  0  0
  -26.3410  -37.4360   23.9080 N   0  0  0  0  0  0  0  0  0  0  0  0
  -25.8970  -38.3420   24.0350 H   0  0  0  0  0  0  0  0  0  0  0  0
  -26.3780  -31.7660   25.2830 C   0  0  1  0  0  0  0  0  0  0  0  0
  -25.2300  -31.4860   26.2800 C   0  0  0  0  0  1  0  0  0  0  0  0
  -27.0240  -30.4100   24.9150 C   0  0  0  0  0  1  0  0  0  0  0  0
  -27.4610  -32.5890   26.0170 C   0  0  0  0  0  1  0  0  0  0  0  0
  2  1  1  0
  3  6  1  0
  4  3  2  0
  5  6  2  0
  6  2  1  0
  7  8  2  0
  7  4  1  0
  8  5  1  0
  9  8  1  0
 11 10  1  0
 11  7  1  0
 11 20  1  0
 12 20  1  0
 13 18  1  0
 14 15  1  0
 14 13  1  0
 16 15  1  0
 16 25  1  0
 16 17  1  0
 18 12  1  0
 18 17  1  0
 19 12  2  0
 20 21  1  0
 22 23  2  0
 23 42  1  0
 24 23  1  0
 24 27  1  0
 25 22  1  0
 25 26  1  0
 26 24  2  0
 27 28  1  0
 28 29  2  0
 30 33  1  0
 30 29  1  0
 31 30  2  0
 32 31  1  0
 32 27  2  0
 33 34  1  0
 34 39  2  0
 34 35  1  0
 35 36  2  0
 36 37  1  0
 37 41  1  0
 38 37  2  0
 39 38  1  0
 40 39  1  0
 42 43  1  0
 43 46  1  0
 43 45  1  0
 44 42  2  0
 47 48  1  0
 47 22  1  0
 49 47  1  0
 50  2  1  0
 50 51  1  0
 52 50  1  0
 53 54  1  0
 53 50  1  0
 55 57  1  0
 55 54  1  0
 56 67  2  0
 57 62  1  0
 58 66  1  0
 58 68  1  0
 59 65  1  0
 59 61  1  0
 60 66  1  0
 61 62  2  0
 61 60  1  0
 63 57  2  0
 64 63  1  0
 64 59  2  0
 65 58  1  0
 66 56  1  0
 68 70  2  0
 69 68  1  0
 71 69  1  0
 72 81  2  0
 72 77  1  0
 73 69  1  0
 73 77  1  0
 74 73  1  0
 75 76  1  0
 75 74  1  0
 76 72  1  0
 77 78  2  0
 78 79  1  0
 80 79  2  0
 81 80  1  0
 82 56  1  0
 82 83  1  0
 82 92  1  0
 83 86  1  0
 84 88  1  0
 84 83  1  0
 85 84  2  0
 88 87  1  0
 90 88  1  0
 90 91  1  0
 90 89  1  0
 92 95  1  1
 92 93  1  0
 94 92  1  0
M  ISO  4  12 100  20 100  54 101  55 101
M  END
>  <TORSDO>  (33) 
F 21

>  <SCORE>  (33) 
-11.488

>  <name>  (33) 
34

>  <ligand_id>  (33) 
34

>  <original_smiles>  (33) 
[H]c1c([H])c([H])c2c(c1[H])C([H])([H])C([H])([H])C([H])([H])C2([H])N([H])C(=O)C1([H])N(C(=O)C([H])(N([H])C(=O)C([H])(N([H])C([H])([H])[H])C([H])([H])[H])C(C([H])([H])[H])(C([H])([H])[H])C([H])([H])[H])C([H])([H])c2c([H])c(OC([H])([H])C([H])([H])[N+]([H])([H])C([H])(c3c([H])c([H])c(C([H])(N([H])C(=O)N4C([H])([H])C([H])([H])C([H])([H])C([H])(n5nc(-c6c([H])c([H])c(Oc7c([H])c([H])c(F)c([H])c7F)c([H])c6[H])c(C(=O)N([H])[H])c5N([H])[H])C4([H])[H])C([H])([H])[H])c(C([H])([H])[H])c3[H])C([H])([H])[H])c([H])c([H])c2C1([H])[H]

>  <smiles>  (33) 
[H]c1c([H])c([H])c2c(c1[H])C([H])([H])C([H])([H])C([H])([H])C2([H])N([H])C(=O)C1([H])N(C(=O)C([H])(N([H])C(=O)C([H])(N([H])C([H])([H])[H])C([H])([H])[H])C(C([H])([H])[H])(C([H])([H])[H])C([H])([H])[H])C([H])([H])c2c([H])c(OC([H])([H])C([H])([H])[N+]([H])([H])C([H])(c3c([H])c([H])c(C([H])(N([H])C(=O)N4C([H])([H])C([H])([H])C([H])([H])C([H])(n5nc(-c6c([H])c([H])c(Oc7c([H])c([H])c(F)c([H])c7F)c([H])c6[H])c(C(=O)N([H])[H])c5N([H])[H])C4([H])[H])C([H])([H])[H])c(C([H])([H])[H])c3[H])C([H])([H])[H])c([H])c([H])c2C1([H])[H]

$$$$
35:0:0
     RDKit          3D

 96104  0  0  1  0  0  0  0  0999 V2000
  -29.4450  -23.6840   18.3040 C   0  0  0  0  0  1  0  0  0  0  0  0
  -30.6020  -23.1430   19.1660 C   0  0  0  0  0  3  0  0  0  0  0  0
  -29.1940  -19.6880   20.2100 C   0  0  0  0  0  3  0  0  0  0  0  0
  -31.4680  -19.3930   19.3890 C   0  0  0  0  0  3  0  0  0  0  0  0
  -29.2980  -21.0820   20.0060 C   0  0  0  0  0  3  0  0  0  0  0  0
  -31.5730  -20.7870   19.1960 C   0  0  0  0  0  3  0  0  0  0  0  0
  -30.2740  -18.8310   19.8900 C   0  0  0  0  0  0  0  0  0  0  0  0
  -30.4860  -21.6450   19.4860 C   0  0  0  0  0  0  0  0  0  0  0  0
  -30.1190  -17.3460   19.9520 C   0  0  0  0  0  0  0  0  0  0  0  0
  -29.8580  -16.7150   18.9190 O   0  0  0  0  0  0  0  0  0  0  0  0
  -30.2380  -16.6070   21.3540 C   0  0  0  0  0  0  0  0  0  0  0  0
  -30.0830  -17.3170   22.3590 O   0  0  0  0  0  0  0  0  0  0  0  0
  -30.4200  -15.2700   21.5350 N   0  0  0  0  0  2  0  0  0  0  0  0
  -30.9230  -14.4280   20.6030 C   0  0  0  0  0  0  0  0  0  0  0  0
  -30.5800  -12.3540   19.2710 C   0  0  0  0  0  2  0  0  0  0  0  0
  -29.6490  -12.6420   18.0770 C   0  0  0  0  0  2  0  0  0  0  0  0
  -28.1700  -12.5180   18.4950 C   0  0  0  0  0  2  0  0  0  0  0  0
  -27.8470  -13.3040   19.7930 C   0  0  0  0  0  3  0  0  0  0  0  0
  -28.8830  -12.9800   20.8930 C   0  0  0  0  0  2  0  0  0  0  0  0
  -30.2270  -13.2830   20.3560 N   0  0  0  0  0  0  0  0  0  0  0  0
  -31.9760  -14.6490   19.9990 O   0  0  0  0  0  0  0  0  0  0  0  0
  -25.4360  -13.9450   20.4390 C   0  0  0  0  0  0  0  0  0  0  0  0
  -24.3540  -13.1860   20.7960 C   0  0  0  0  0  0  0  0  0  0  0  0
  -24.8040  -11.8310   20.7920 C   0  0  0  0  0  0  0  0  0  0  0  0
  -26.4790  -13.0510   20.2420 N   0  0  0  0  0  0  0  0  0  0  0  0
  -26.0990  -11.7760   20.5070 N   0  0  0  0  0  0  0  0  0  0  0  0
  -24.0640  -10.5770   20.9880 C   0  0  0  0  0  0  0  0  0  0  0  0
  -24.4720   -9.6190   21.9420 C   0  0  0  0  0  3  0  0  0  0  0  0
  -23.7360   -8.4290   22.1240 C   0  0  0  0  0  3  0  0  0  0  0  0
  -22.5740   -8.1890   21.3510 C   0  0  0  0  0  0  0  0  0  0  0  0
  -22.1850   -9.1350   20.3870 C   0  0  0  0  0  3  0  0  0  0  0  0
  -22.9230  -10.3160   20.2040 C   0  0  0  0  0  3  0  0  0  0  0  0
  -21.8090   -7.0500   21.4410 O   0  0  0  0  0  0  0  0  0  0  0  0
  -21.7370   -6.3220   22.6020 C   0  0  0  0  0  0  0  0  0  0  0  0
  -21.2980   -6.8990   23.8150 C   0  0  0  0  0  3  0  0  0  0  0  0
  -21.1700   -6.0990   24.9680 C   0  0  0  0  0  3  0  0  0  0  0  0
  -21.4710   -4.7250   24.9100 C   0  0  0  0  0  0  0  0  0  0  0  0
  -21.9000   -4.1490   23.7020 C   0  0  0  0  0  3  0  0  0  0  0  0
  -22.0310   -4.9450   22.5520 C   0  0  0  0  0  0  0  0  0  0  0  0
  -22.4260   -4.3820   21.3840 F   0  0  0  0  0  0  0  0  0  0  0  0
  -21.3400   -3.9540   26.0150 F   0  0  0  0  0  0  0  0  0  0  0  0
  -22.9550  -13.6770   21.0370 C   0  0  0  0  0  0  0  0  0  0  0  0
  -22.2080  -12.9980   21.9000 N   0  0  0  0  0  0  0  0  0  0  0  0
  -22.5330  -14.6980   20.4960 O   0  0  0  0  0  0  0  0  0  0  0  0
  -22.5600  -12.1710   22.3600 H   0  0  0  0  0  0  0  0  0  0  0  0
  -21.2700  -13.3090   22.1040 H   0  0  0  0  0  0  0  0  0  0  0  0
  -25.6150  -15.3120   20.2460 N   0  0  0  0  0  0  0  0  0  0  0  0
  -24.8610  -15.9830   20.3500 H   0  0  0  0  0  0  0  0  0  0  0  0
  -26.4930  -15.7390   19.9770 H   0  0  0  0  0  0  0  0  0  0  0  0
  -30.9460  -24.0070   20.3280 N   0  0  0  0  0  4  0  0  0  0  0  0
  -31.8660  -23.7120   20.6100 H   0  0  0  0  0  0  0  0  0  0  0  0
  -31.0510  -24.9570   20.0130 H   0  0  0  0  0  0  0  0  0  0  0  0
  -30.1170  -23.9660   21.5620 C   0  0  0  0  0  2  0  0  0  0  0  0
  -28.7930  -24.7680   21.5090 C   0  0  0  0  0  2  0  0  0  0  0  0
  -28.9410  -26.3000   21.3930 C   0  0  0  0  0  2  0  0  0  0  0  0
  -28.4570  -26.7230   20.1170 O   0  0  0  0  0  0  0  0  0  0  0  0
  -24.6330  -31.8660   23.2380 C   0  0  0  0  0  0  0  0  0  0  0  0
  -27.2960  -27.4570   20.1530 C   0  0  0  0  0  0  0  0  0  0  0  0
  -23.4290  -30.4600   21.5920 C   0  0  0  0  0  3  0  0  0  0  0  0
  -24.8890  -28.9280   20.1690 C   0  0  0  0  0  0  0  0  0  0  0  0
  -25.9470  -30.8360   21.3930 C   0  0  0  0  0  2  0  0  0  0  0  0
  -26.0410  -29.4660   20.7560 C   0  0  0  0  0  0  0  0  0  0  0  0
  -27.2470  -28.7350   20.7520 C   0  0  0  0  0  3  0  0  0  0  0  0
  -26.1350  -26.9270   19.5600 C   0  0  0  0  0  3  0  0  0  0  0  0
  -24.9270  -27.6530   19.5740 C   0  0  0  0  0  3  0  0  0  0  0  0
  -23.6400  -29.7790   20.2130 C   0  0  0  0  0  2  0  0  0  0  0  0
  -24.6870  -31.0690   22.1340 N   0  0  0  0  0  0  0  0  0  0  0  0
  -23.5520  -32.1350   23.7800 O   0  0  0  0  0  0  0  0  0  0  0  0
  -22.7790  -29.4400   22.5530 C   0  0  0  0  0  0  0  0  0  0  0  0
  -21.4550  -29.2580   22.4250 N   0  0  0  0  0  0  0  0  0  0  0  0
  -23.4640  -28.8140   23.3680 O   0  0  0  0  0  0  0  0  0  0  0  0
  -20.9660  -29.8140   21.7360 H   0  0  0  0  0  0  0  0  0  0  0  0
  -18.0820  -28.0590   22.9090 C   0  0  0  0  0  0  0  0  0  0  0  0
  -20.6390  -28.3220   23.1950 C   0  0  0  0  0  3  0  0  0  0  0  0
  -20.7460  -26.8910   22.6200 C   0  0  0  0  0  2  0  0  0  0  0  0
  -19.6480  -26.5630   21.6030 C   0  0  0  0  0  2  0  0  0  0  0  0
  -18.2650  -26.7070   22.2390 C   0  0  0  0  0  2  0  0  0  0  0  0
  -19.1980  -28.8220   23.3440 C   0  0  0  0  0  0  0  0  0  0  0  0
  -18.9740  -30.0870   23.9300 C   0  0  0  0  0  3  0  0  0  0  0  0
  -17.6670  -30.5870   24.0890 C   0  0  0  0  0  3  0  0  0  0  0  0
  -16.5660  -29.8190   23.6720 C   0  0  0  0  0  3  0  0  0  0  0  0
  -16.7750  -28.5580   23.0860 C   0  0  0  0  0  3  0  0  0  0  0  0
  -25.9200  -32.4950   23.8580 C   0  0  0  0  0  3  0  0  0  0  0  0
  -25.6160  -33.8920   24.1920 N   0  0  0  0  0  0  0  0  0  0  0  0
  -25.9460  -34.9440   23.4310 C   0  0  0  0  0  0  0  0  0  0  0  0
  -26.6120  -34.8390   22.3970 O   0  0  0  0  0  0  0  0  0  0  0  0
  -25.0230  -34.0470   24.9940 H   0  0  0  0  0  0  0  0  0  0  0  0
  -24.2190  -36.7370   23.0760 C   0  0  0  0  0  1  0  0  0  0  0  0
  -25.4610  -36.3320   23.8870 C   0  0  0  0  0  3  0  0  0  0  0  0
  -27.5930  -37.2150   24.7230 C   0  0  0  0  0  1  0  0  0  0  0  0
  -26.4940  -37.3840   23.7760 N   0  0  0  0  0  0  0  0  0  0  0  0
  -26.0870  -38.3040   23.9220 H   0  0  0  0  0  0  0  0  0  0  0  0
  -26.4470  -31.7170   25.1270 C   0  0  1  0  0  0  0  0  0  0  0  0
  -25.3600  -31.4730   26.2000 C   0  0  0  0  0  1  0  0  0  0  0  0
  -27.0280  -30.3410   24.7240 C   0  0  0  0  0  1  0  0  0  0  0  0
  -27.6010  -32.5100   25.7860 C   0  0  0  0  0  1  0  0  0  0  0  0
  2  1  1  0
  2  8  1  0
  2 50  1  0
  4  7  1  0
  5  3  1  0
  6  4  2  0
  6  8  1  0
  7  9  1  0
  7  3  2  0
  8  5  2  0
  9 11  1  0
 10  9  2  0
 11 13  1  0
 11 12  2  0
 14 13  1  0
 15 20  1  0
 16 17  1  0
 16 15  1  0
 18 17  1  0
 18 25  1  0
 18 19  1  0
 20 14  1  0
 20 19  1  0
 21 14  2  0
 22 23  2  0
 23 42  1  0
 24 23  1  0
 24 27  1  0
 25 22  1  0
 25 26  1  0
 26 24  2  0
 27 28  1  0
 28 29  2  0
 30 33  1  0
 30 29  1  0
 31 30  2  0
 32 31  1  0
 32 27  2  0
 33 34  1  0
 34 35  1  0
 35 36  2  0
 37 36  1  0
 37 41  1  0
 38 37  2  0
 39 34  2  0
 39 38  1  0
 40 39  1  0
 42 43  1  0
 43 46  1  0
 43 45  1  0
 44 42  2  0
 47 48  1  0
 47 22  1  0
 49 47  1  0
 50 51  1  0
 50 53  1  0
 52 50  1  0
 54 53  1  0
 55 54  1  0
 56 58  1  0
 56 55  1  0
 57 68  2  0
 58 63  1  0
 59 67  1  0
 59 69  1  0
 60 66  1  0
 60 62  1  0
 61 67  1  0
 62 61  1  0
 63 62  2  0
 64 65  1  0
 64 58  2  0
 65 60  2  0
 66 59  1  0
 67 57  1  0
 69 71  2  0
 70 69  1  0
 72 70  1  0
 73 82  2  0
 73 78  1  0
 74 70  1  0
 74 78  1  0
 75 74  1  0
 76 77  1  0
 76 75  1  0
 77 73  1  0
 78 79  2  0
 79 80  1  0
 81 80  2  0
 82 81  1  0
 83 57  1  0
 83 84  1  0
 83 93  1  0
 84 87  1  0
 85 89  1  0
 85 84  1  0
 86 85  2  0
 89 88  1  0
 91 89  1  0
 91 92  1  0
 91 90  1  0
 93 96  1  1
 93 94  1  0
 95 93  1  0
M  ISO  4  13 100  14 100  55 101  56 101
M  END
>  <TORSDO>  (34) 
F 24

>  <SCORE>  (34) 
-12.870

>  <name>  (34) 
35

>  <ligand_id>  (34) 
35

>  <original_smiles>  (34) 
[H]c1c([H])c([H])c2c(c1[H])C([H])([H])C([H])([H])C([H])([H])C2([H])N([H])C(=O)C1([H])N(C(=O)C([H])(N([H])C(=O)C([H])(N([H])C([H])([H])[H])C([H])([H])[H])C(C([H])([H])[H])(C([H])([H])[H])C([H])([H])[H])C([H])([H])c2c([H])c(OC([H])([H])C([H])([H])C([H])([H])[N+]([H])([H])C([H])(c3c([H])c([H])c(C(=O)C(=O)[N-]C(=O)N4C([H])([H])C([H])([H])C([H])([H])C([H])(n5nc(-c6c([H])c([H])c(Oc7c([H])c([H])c(F)c([H])c7F)c([H])c6[H])c(C(=O)N([H])[H])c5N([H])[H])C4([H])[H])c([H])c3[H])C([H])([H])[H])c([H])c([H])c2C1([H])[H]

>  <smiles>  (34) 
[H]c1c([H])c([H])c2c(c1[H])C([H])([H])C([H])([H])C([H])([H])C2([H])N([H])C(=O)C1([H])N(C(=O)C([H])(N([H])C(=O)C([H])(N([H])C([H])([H])[H])C([H])([H])[H])C(C([H])([H])[H])(C([H])([H])[H])C([H])([H])[H])C([H])([H])c2c([H])c(OC([H])([H])C([H])([H])C([H])([H])[N+]([H])([H])C([H])(c3c([H])c([H])c(C(=O)C(=O)[N-]C(=O)N4C([H])([H])C([H])([H])C([H])([H])C([H])(n5nc(-c6c([H])c([H])c(Oc7c([H])c([H])c(F)c([H])c7F)c([H])c6[H])c(C(=O)N([H])[H])c5N([H])[H])C4([H])[H])c([H])c3[H])C([H])([H])[H])c([H])c([H])c2C1([H])[H]

$$$$
36:0:0
     RDKit          3D

 97105  0  0  1  0  0  0  0  0999 V2000
  -28.4010  -22.1440   21.2740 C   0  0  0  0  0  3  0  0  0  0  0  0
  -28.0840  -20.7900   21.0560 C   0  0  0  0  0  3  0  0  0  0  0  0
  -28.7640  -21.0160   18.7370 C   0  0  0  0  0  3  0  0  0  0  0  0
  -28.8560  -22.9760   20.2240 C   0  0  0  0  0  0  0  0  0  0  0  0
  -28.2280  -20.2240   19.7750 C   0  0  0  0  0  0  0  0  0  0  0  0
  -29.0910  -22.3780   18.9490 C   0  0  0  0  0  0  0  0  0  0  0  0
  -29.6900  -23.1440   17.7800 C   0  0  0  0  0  1  0  0  0  0  0  0
  -29.0910  -24.4250   20.5520 C   0  0  0  0  0  0  0  0  0  0  0  0
  -29.5660  -24.7880   21.6340 O   0  0  0  0  0  0  0  0  0  0  0  0
  -28.6240  -25.4830   19.5280 C   0  0  0  0  0  2  0  0  0  0  0  0
  -28.4810  -26.7780   20.1430 O   0  0  0  0  0  0  0  0  0  0  0  0
  -24.6660  -31.9130   23.2410 C   0  0  0  0  0  0  0  0  0  0  0  0
  -27.2730  -27.4500   20.1390 C   0  0  0  0  0  0  0  0  0  0  0  0
  -23.4410  -30.5120   21.6150 C   0  0  0  0  0  3  0  0  0  0  0  0
  -24.8750  -28.9660   20.1790 C   0  0  0  0  0  0  0  0  0  0  0  0
  -25.9670  -30.8580   21.3950 C   0  0  0  0  0  2  0  0  0  0  0  0
  -26.0390  -29.4860   20.7560 C   0  0  0  0  0  0  0  0  0  0  0  0
  -27.2340  -28.7340   20.7330 C   0  0  0  0  0  3  0  0  0  0  0  0
  -26.0780  -26.9410   19.5720 C   0  0  0  0  0  3  0  0  0  0  0  0
  -24.8890  -27.6950   19.5880 C   0  0  0  0  0  3  0  0  0  0  0  0
  -23.6330  -29.8280   20.2350 C   0  0  0  0  0  2  0  0  0  0  0  0
  -24.7110  -31.1090   22.1420 N   0  0  0  0  0  0  0  0  0  0  0  0
  -23.5910  -32.1910   23.7880 O   0  0  0  0  0  0  0  0  0  0  0  0
  -22.7980  -29.4950   22.5820 C   0  0  0  0  0  0  0  0  0  0  0  0
  -21.4720  -29.3100   22.4640 N   0  0  0  0  0  0  0  0  0  0  0  0
  -23.4880  -28.8730   23.3960 O   0  0  0  0  0  0  0  0  0  0  0  0
  -20.9790  -29.8560   21.7720 H   0  0  0  0  0  0  0  0  0  0  0  0
  -18.1040  -28.1110   22.9820 C   0  0  0  0  0  0  0  0  0  0  0  0
  -20.6610  -28.3760   23.2440 C   0  0  0  0  0  3  0  0  0  0  0  0
  -20.7640  -26.9400   22.6780 C   0  0  0  0  0  2  0  0  0  0  0  0
  -19.6600  -26.6120   21.6670 C   0  0  0  0  0  2  0  0  0  0  0  0
  -18.2800  -26.7590   22.3160 C   0  0  0  0  0  2  0  0  0  0  0  0
  -19.2230  -28.8770   23.4030 C   0  0  0  0  0  0  0  0  0  0  0  0
  -19.0020  -30.1440   23.9870 C   0  0  0  0  0  3  0  0  0  0  0  0
  -17.6970  -30.6440   24.1540 C   0  0  0  0  0  3  0  0  0  0  0  0
  -16.5920  -29.8750   23.7490 C   0  0  0  0  0  3  0  0  0  0  0  0
  -16.7970  -28.6100   23.1690 C   0  0  0  0  0  3  0  0  0  0  0  0
  -25.9620  -32.5400   23.8470 C   0  0  0  0  0  3  0  0  0  0  0  0
  -25.6570  -33.9350   24.1890 N   0  0  0  0  0  0  0  0  0  0  0  0
  -25.9750  -34.9920   23.4290 C   0  0  0  0  0  0  0  0  0  0  0  0
  -26.6290  -34.8970   22.3870 O   0  0  0  0  0  0  0  0  0  0  0  0
  -25.0780  -34.0870   25.0020 H   0  0  0  0  0  0  0  0  0  0  0  0
  -24.2400  -36.7850   23.1070 C   0  0  0  0  0  1  0  0  0  0  0  0
  -25.4910  -36.3760   23.9030 C   0  0  0  0  0  3  0  0  0  0  0  0
  -27.6320  -37.2580   24.7180 C   0  0  0  0  0  1  0  0  0  0  0  0
  -26.5200  -37.4300   23.7860 N   0  0  0  0  0  0  0  0  0  0  0  0
  -26.1150  -38.3480   23.9470 H   0  0  0  0  0  0  0  0  0  0  0  0
  -26.5010  -31.7590   25.1080 C   0  0  1  0  0  0  0  0  0  0  0  0
  -25.4240  -31.5050   26.1870 C   0  0  0  0  0  1  0  0  0  0  0  0
  -27.0930  -30.3930   24.6920 C   0  0  0  0  0  1  0  0  0  0  0  0
  -27.6520  -32.5580   25.7620 C   0  0  0  0  0  1  0  0  0  0  0  0
  -27.6670  -18.8260   19.5060 C   0  0  0  0  0  2  0  0  0  0  0  0
  -28.6200  -17.6840   19.1040 C   0  0  0  0  0  0  0  0  0  0  0  0
  -28.1610  -16.6920   18.5290 O   0  0  0  0  0  0  0  0  0  0  0  0
  -30.1320  -17.7350   19.4540 C   0  0  0  0  0  0  0  0  0  0  0  0
  -30.9110  -18.2870   18.6690 O   0  0  0  0  0  0  0  0  0  0  0  0
  -29.8590  -17.5050   21.9760 C   0  0  0  0  0  1  0  0  0  0  0  0
  -32.1460  -17.4000   20.9820 C   0  0  0  0  0  1  0  0  0  0  0  0
  -30.6620  -17.0250   20.7410 C   0  0  2  0  0  0  0  0  0  0  0  0
  -31.1560  -14.6100   19.9720 C   0  0  0  0  0  0  0  0  0  0  0  0
  -30.8330  -12.3910   18.9370 C   0  0  0  0  0  2  0  0  0  0  0  0
  -29.8480  -12.5290   17.7570 C   0  0  0  0  0  2  0  0  0  0  0  0
  -28.3880  -12.4310   18.2430 C   0  0  0  0  0  2  0  0  0  0  0  0
  -28.1020  -13.3540   19.4550 C   0  0  0  0  0  3  0  0  0  0  0  0
  -29.1810  -13.1570   20.5410 C   0  0  0  0  0  2  0  0  0  0  0  0
  -30.4960  -13.4240   19.9280 N   0  0  0  0  0  0  0  0  0  0  0  0
  -32.2050  -14.8250   19.3560 O   0  0  0  0  0  0  0  0  0  0  0  0
  -30.5040  -15.5570   20.6710 N   0  0  0  0  0  0  0  0  0  0  0  0
  -29.6970  -15.1980   21.1550 H   0  0  0  0  0  0  0  0  0  0  0  0
  -25.7660  -14.0920   20.2520 C   0  0  0  0  0  0  0  0  0  0  0  0
  -24.6760  -13.3760   20.6680 C   0  0  0  0  0  0  0  0  0  0  0  0
  -25.0640  -12.0000   20.6180 C   0  0  0  0  0  0  0  0  0  0  0  0
  -26.7530  -13.1550   19.9800 N   0  0  0  0  0  0  0  0  0  0  0  0
  -26.3350  -11.8940   20.2520 N   0  0  0  0  0  0  0  0  0  0  0  0
  -24.2870  -10.7740   20.8350 C   0  0  0  0  0  0  0  0  0  0  0  0
  -24.6870   -9.8060   21.7830 C   0  0  0  0  0  3  0  0  0  0  0  0
  -23.9160   -8.6420   21.9850 C   0  0  0  0  0  3  0  0  0  0  0  0
  -22.7300   -8.4370   21.2390 C   0  0  0  0  0  0  0  0  0  0  0  0
  -22.3490   -9.3930   20.2830 C   0  0  0  0  0  3  0  0  0  0  0  0
  -23.1190  -10.5490   20.0780 C   0  0  0  0  0  3  0  0  0  0  0  0
  -21.9310   -7.3270   21.3540 O   0  0  0  0  0  0  0  0  0  0  0  0
  -21.8170   -6.6390   22.5370 C   0  0  0  0  0  0  0  0  0  0  0  0
  -21.3830   -7.2660   23.7250 C   0  0  0  0  0  3  0  0  0  0  0  0
  -21.2150   -6.5080   24.9010 C   0  0  0  0  0  3  0  0  0  0  0  0
  -21.4690   -5.1230   24.8880 C   0  0  0  0  0  0  0  0  0  0  0  0
  -21.8960   -4.4960   23.7050 C   0  0  0  0  0  3  0  0  0  0  0  0
  -22.0650   -5.2520   22.5310 C   0  0  0  0  0  0  0  0  0  0  0  0
  -22.4550   -4.6390   21.3880 F   0  0  0  0  0  0  0  0  0  0  0  0
  -21.2980   -4.3920   26.0160 F   0  0  0  0  0  0  0  0  0  0  0  0
  -23.3150  -13.9190   20.9970 C   0  0  0  0  0  0  0  0  0  0  0  0
  -22.5970  -13.2640   21.9010 N   0  0  0  0  0  0  0  0  0  0  0  0
  -22.9010  -14.9590   20.4860 O   0  0  0  0  0  0  0  0  0  0  0  0
  -22.9480  -12.4190   22.3300 H   0  0  0  0  0  0  0  0  0  0  0  0
  -21.6860  -13.6100   22.1700 H   0  0  0  0  0  0  0  0  0  0  0  0
  -25.9990  -15.4510   20.0590 N   0  0  0  0  0  0  0  0  0  0  0  0
  -25.2610  -16.1380   20.1630 H   0  0  0  0  0  0  0  0  0  0  0  0
  -26.8170  -15.8110   19.5790 H   0  0  0  0  0  0  0  0  0  0  0  0
  2  1  1  0
  3  6  2  0
  3  5  1  0
  4  8  1  0
  4  1  2  0
  5  2  2  0
  6  4  1  0
  7  6  1  0
  8  9  2  0
 10 11  1  0
 10  8  1  0
 12 23  2  0
 13 11  1  0
 13 18  1  0
 14 22  1  0
 14 24  1  0
 15 21  1  0
 15 17  1  0
 16 22  1  0
 17 16  1  0
 18 17  2  0
 19 20  1  0
 19 13  2  0
 20 15  2  0
 21 14  1  0
 22 12  1  0
 24 26  2  0
 25 24  1  0
 27 25  1  0
 28 37  2  0
 28 33  1  0
 29 25  1  0
 29 33  1  0
 30 29  1  0
 31 32  1  0
 31 30  1  0
 32 28  1  0
 33 34  2  0
 34 35  1  0
 36 35  2  0
 37 36  1  0
 38 12  1  0
 38 39  1  0
 38 48  1  0
 39 42  1  0
 40 44  1  0
 40 39  1  0
 41 40  2  0
 44 43  1  0
 46 44  1  0
 46 47  1  0
 46 45  1  0
 48 51  1  1
 48 49  1  0
 50 48  1  0
 52  5  1  0
 53 55  1  0
 53 52  1  0
 54 53  2  0
 55 59  1  0
 56 55  2  0
 59 58  1  1
 59 57  1  0
 60 68  1  0
 61 66  1  0
 62 63  1  0
 62 61  1  0
 64 63  1  0
 64 73  1  0
 64 65  1  0
 66 60  1  0
 66 65  1  0
 67 60  2  0
 68 59  1  0
 68 69  1  0
 70 71  2  0
 71 90  1  0
 72 71  1  0
 72 75  1  0
 73 70  1  0
 73 74  1  0
 74 72  2  0
 75 76  1  0
 76 77  2  0
 78 81  1  0
 78 77  1  0
 79 78  2  0
 80 79  1  0
 80 75  2  0
 81 82  1  0
 82 83  1  0
 83 84  2  0
 85 84  1  0
 85 89  1  0
 86 85  2  0
 87 82  2  0
 87 86  1  0
 88 87  1  0
 90 91  1  0
 91 94  1  0
 91 93  1  0
 92 90  2  0
 95 96  1  0
 95 70  1  0
 97 95  1  0
M  ISO  4  10 101  11 101  60 100  68 100
M  END
>  <TORSDO>  (35) 
F 22

>  <SCORE>  (35) 
-12.727

>  <name>  (35) 
36

>  <ligand_id>  (35) 
36

>  <original_smiles>  (35) 
[H]c1c([H])c([H])c2c(c1[H])C([H])([H])C([H])([H])C([H])([H])C2([H])N([H])C(=O)C1([H])N(C(=O)C([H])(N([H])C(=O)C([H])(N([H])C([H])([H])[H])C([H])([H])[H])C(C([H])([H])[H])(C([H])([H])[H])C([H])([H])[H])C([H])([H])c2c([H])c(OC([H])([H])C(=O)c3c([H])c([H])c(C([H])([H])C(=O)C(=O)C(N([H])C(=O)N4C([H])([H])C([H])([H])C([H])([H])C([H])(n5nc(-c6c([H])c([H])c(Oc7c([H])c([H])c(F)c([H])c7F)c([H])c6[H])c(C(=O)N([H])[H])c5N([H])[H])C4([H])[H])(C([H])([H])[H])C([H])([H])[H])c([H])c3C([H])([H])[H])c([H])c([H])c2C1([H])[H]

>  <smiles>  (35) 
[H]c1c([H])c([H])c2c(c1[H])C([H])([H])C([H])([H])C([H])([H])C2([H])N([H])C(=O)C1([H])N(C(=O)C([H])(N([H])C(=O)C([H])(N([H])C([H])([H])[H])C([H])([H])[H])C(C([H])([H])[H])(C([H])([H])[H])C([H])([H])[H])C([H])([H])c2c([H])c(OC([H])([H])C(=O)c3c([H])c([H])c(C([H])([H])C(=O)C(=O)C(N([H])C(=O)N4C([H])([H])C([H])([H])C([H])([H])C([H])(n5nc(-c6c([H])c([H])c(Oc7c([H])c([H])c(F)c([H])c7F)c([H])c6[H])c(C(=O)N([H])[H])c5N([H])[H])C4([H])[H])(C([H])([H])[H])C([H])([H])[H])c([H])c3C([H])([H])[H])c([H])c([H])c2C1([H])[H]

$$$$
37:0:0
     RDKit          3D

 99107  0  0  1  0  0  0  0  0999 V2000
  -27.7160  -20.4980   20.8720 C   0  0  0  0  0  3  0  0  0  0  0  0
  -28.3150  -19.2610   20.5610 C   0  0  0  0  0  3  0  0  0  0  0  0
  -29.4950  -21.6610   19.6850 C   0  0  0  0  0  3  0  0  0  0  0  0
  -28.3160  -21.7100   20.4610 C   0  0  0  0  0  0  0  0  0  0  0  0
  -29.5240  -19.2110   19.8330 C   0  0  0  0  0  0  0  0  0  0  0  0
  -30.1060  -20.4240   19.3810 C   0  0  0  0  0  0  0  0  0  0  0  0
  -27.6900  -23.0210   20.8610 C   0  0  0  0  0  0  0  0  0  0  0  0
  -28.5370  -24.0300   21.0930 N   0  0  0  0  0  0  0  0  0  0  0  0
  -26.4770  -23.1030   21.0710 O   0  0  0  0  0  0  0  0  0  0  0  0
  -29.5130  -23.8600   20.9040 H   0  0  0  0  0  0  0  0  0  0  0  0
  -28.1930  -25.2720   21.7820 C   0  0  0  0  0  2  0  0  0  0  0  0
  -29.1130  -26.4470   21.3780 C   0  0  0  0  0  2  0  0  0  0  0  0
  -28.7490  -26.9970   20.1120 O   0  0  0  0  0  0  0  0  0  0  0  0
  -24.6740  -31.9000   23.3030 C   0  0  0  0  0  0  0  0  0  0  0  0
  -27.5810  -27.7150   20.1280 C   0  0  0  0  0  0  0  0  0  0  0  0
  -23.5760  -30.5290   21.5550 C   0  0  0  0  0  3  0  0  0  0  0  0
  -25.1340  -29.1090   20.1210 C   0  0  0  0  0  0  0  0  0  0  0  0
  -26.0880  -30.9920   21.4660 C   0  0  0  0  0  2  0  0  0  0  0  0
  -26.2440  -29.6520   20.7770 C   0  0  0  0  0  0  0  0  0  0  0  0
  -27.4720  -28.9580   20.7880 C   0  0  0  0  0  3  0  0  0  0  0  0
  -26.4600  -27.1810   19.4600 C   0  0  0  0  0  3  0  0  0  0  0  0
  -25.2320  -27.8690   19.4620 C   0  0  0  0  0  3  0  0  0  0  0  0
  -23.8590  -29.9170   20.1570 C   0  0  0  0  0  2  0  0  0  0  0  0
  -24.7940  -31.1520   22.1690 N   0  0  0  0  0  0  0  0  0  0  0  0
  -23.5650  -32.1110   23.8130 O   0  0  0  0  0  0  0  0  0  0  0  0
  -22.9310  -29.4470   22.4490 C   0  0  0  0  0  0  0  0  0  0  0  0
  -21.6110  -29.2550   22.2930 N   0  0  0  0  0  0  0  0  0  0  0  0
  -23.6140  -28.7820   23.2330 O   0  0  0  0  0  0  0  0  0  0  0  0
  -21.1240  -29.8450   21.6330 H   0  0  0  0  0  0  0  0  0  0  0  0
  -18.2310  -28.0560   22.7360 C   0  0  0  0  0  0  0  0  0  0  0  0
  -20.7950  -28.2650   22.9960 C   0  0  0  0  0  3  0  0  0  0  0  0
  -20.8760  -26.8860   22.3020 C   0  0  0  0  0  2  0  0  0  0  0  0
  -19.7580  -26.6580   21.2800 C   0  0  0  0  0  2  0  0  0  0  0  0
  -18.3840  -26.7640   21.9510 C   0  0  0  0  0  2  0  0  0  0  0  0
  -19.3630  -28.7670   23.2130 C   0  0  0  0  0  0  0  0  0  0  0  0
  -19.1670  -29.9820   23.9070 C   0  0  0  0  0  3  0  0  0  0  0  0
  -17.8700  -30.4800   24.1320 C   0  0  0  0  0  3  0  0  0  0  0  0
  -16.7520  -29.7640   23.6700 C   0  0  0  0  0  3  0  0  0  0  0  0
  -16.9330  -28.5520   22.9790 C   0  0  0  0  0  3  0  0  0  0  0  0
  -25.9150  -32.5430   23.9970 C   0  0  0  0  0  3  0  0  0  0  0  0
  -25.5660  -33.9320   24.3280 N   0  0  0  0  0  0  0  0  0  0  0  0
  -25.9080  -34.9970   23.5900 C   0  0  0  0  0  0  0  0  0  0  0  0
  -26.6230  -34.9170   22.5870 O   0  0  0  0  0  0  0  0  0  0  0  0
  -24.9330  -34.0690   25.1020 H   0  0  0  0  0  0  0  0  0  0  0  0
  -24.1610  -36.7580   23.1760 C   0  0  0  0  0  1  0  0  0  0  0  0
  -25.3740  -36.3700   24.0370 C   0  0  0  0  0  3  0  0  0  0  0  0
  -27.4430  -37.2980   24.9810 C   0  0  0  0  0  1  0  0  0  0  0  0
  -26.3890  -37.4440   23.9790 N   0  0  0  0  0  0  0  0  0  0  0  0
  -25.9570  -38.3550   24.1060 H   0  0  0  0  0  0  0  0  0  0  0  0
  -26.3850  -31.7620   25.2850 C   0  0  1  0  0  0  0  0  0  0  0  0
  -25.2430  -31.4760   26.2880 C   0  0  0  0  0  1  0  0  0  0  0  0
  -27.0190  -30.4040   24.8990 C   0  0  0  0  0  1  0  0  0  0  0  0
  -27.4770  -32.5700   26.0230 C   0  0  0  0  0  1  0  0  0  0  0  0
  -30.1470  -17.8840   19.5660 C   0  0  0  0  0  0  0  0  0  0  0  0
  -29.9720  -17.2650   18.5120 O   0  0  0  0  0  0  0  0  0  0  0  0
  -31.0420  -17.3510   20.6970 C   0  0  0  0  0  3  0  0  0  0  0  0
  -32.4450  -17.6120   20.3120 N   0  0  0  0  0  4  0  0  0  0  0  0
  -32.7240  -16.9660   19.5890 H   0  0  0  0  0  0  0  0  0  0  0  0
  -33.0620  -17.5070   21.0970 H   0  0  0  0  0  0  0  0  0  0  0  0
  -32.5290  -18.5500   19.9550 H   0  0  0  0  0  0  0  0  0  0  0  0
  -30.7150  -15.8790   21.1130 C   0  0  0  0  0  2  0  0  0  0  0  0
  -31.2610  -14.7430   20.2130 C   0  0  0  0  0  0  0  0  0  0  0  0
  -30.9620  -12.5560   19.1020 C   0  0  0  0  0  2  0  0  0  0  0  0
  -29.9880  -12.6960   17.9160 C   0  0  0  0  0  2  0  0  0  0  0  0
  -28.5230  -12.5660   18.3800 C   0  0  0  0  0  2  0  0  0  0  0  0
  -28.2100  -13.4540   19.6130 C   0  0  0  0  0  3  0  0  0  0  0  0
  -29.2860  -13.2510   20.7040 C   0  0  0  0  0  2  0  0  0  0  0  0
  -30.5950  -13.5620   20.1090 N   0  0  0  0  0  0  0  0  0  0  0  0
  -32.3080  -14.9560   19.5930 O   0  0  0  0  0  0  0  0  0  0  0  0
  -25.8530  -14.1100   20.4130 C   0  0  0  0  0  0  0  0  0  0  0  0
  -24.7770  -13.3570   20.8020 C   0  0  0  0  0  0  0  0  0  0  0  0
  -25.2000  -11.9940   20.7200 C   0  0  0  0  0  0  0  0  0  0  0  0
  -26.8640  -13.2070   20.1260 N   0  0  0  0  0  0  0  0  0  0  0  0
  -26.4750  -11.9290   20.3640 N   0  0  0  0  0  0  0  0  0  0  0  0
  -24.4480  -10.7460   20.9020 C   0  0  0  0  0  0  0  0  0  0  0  0
  -24.8010   -9.8070   21.8970 C   0  0  0  0  0  3  0  0  0  0  0  0
  -24.0510   -8.6220   22.0620 C   0  0  0  0  0  3  0  0  0  0  0  0
  -22.9330   -8.3690   21.2330 C   0  0  0  0  0  0  0  0  0  0  0  0
  -22.6020   -9.2950   20.2260 C   0  0  0  0  0  3  0  0  0  0  0  0
  -23.3530  -10.4700   20.0590 C   0  0  0  0  0  3  0  0  0  0  0  0
  -22.1620   -7.2350   21.3040 O   0  0  0  0  0  0  0  0  0  0  0  0
  -21.9170   -6.6070   22.4990 C   0  0  0  0  0  0  0  0  0  0  0  0
  -21.2440   -7.2530   23.5580 C   0  0  0  0  0  3  0  0  0  0  0  0
  -20.9540   -6.5480   24.7440 C   0  0  0  0  0  3  0  0  0  0  0  0
  -21.3250   -5.1960   24.8670 C   0  0  0  0  0  0  0  0  0  0  0  0
  -21.9890   -4.5470   23.8110 C   0  0  0  0  0  3  0  0  0  0  0  0
  -22.2820   -5.2510   22.6290 C   0  0  0  0  0  0  0  0  0  0  0  0
  -22.9040   -4.6160   21.6060 F   0  0  0  0  0  0  0  0  0  0  0  0
  -21.0400   -4.5150   26.0020 F   0  0  0  0  0  0  0  0  0  0  0  0
  -23.4020  -13.8610   21.1360 C   0  0  0  0  0  0  0  0  0  0  0  0
  -22.6890  -13.1670   22.0160 N   0  0  0  0  0  0  0  0  0  0  0  0
  -22.9690  -14.9060   20.6500 O   0  0  0  0  0  0  0  0  0  0  0  0
  -23.0470  -12.3180   22.4280 H   0  0  0  0  0  0  0  0  0  0  0  0
  -21.7670  -13.4880   22.2810 H   0  0  0  0  0  0  0  0  0  0  0  0
  -26.0520  -15.4800   20.2610 N   0  0  0  0  0  0  0  0  0  0  0  0
  -25.3040  -16.1530   20.3830 H   0  0  0  0  0  0  0  0  0  0  0  0
  -26.8900  -15.8880   19.8660 H   0  0  0  0  0  0  0  0  0  0  0  0
  -31.2830  -20.4240   18.6860 O   0  0  0  0  0  0  0  0  0  0  0  0
  -31.5380  -21.2940   18.3870 H   0  0  0  0  0  0  0  0  0  0  0  0
  2  1  1  0
  3  4  1  0
  4  7  1  0
  4  1  2  0
  5  2  2  0
  6  3  2  0
  6  5  1  0
  7  9  2  0
  7  8  1  0
  8 11  1  0
 10  8  1  0
 12 11  1  0
 13 15  1  0
 13 12  1  0
 14 25  2  0
 15 20  1  0
 16 24  1  0
 16 26  1  0
 17 23  1  0
 17 19  1  0
 18 24  1  0
 19 20  2  0
 19 18  1  0
 21 22  1  0
 21 15  2  0
 22 17  2  0
 23 16  1  0
 24 14  1  0
 26 28  2  0
 27 26  1  0
 29 27  1  0
 30 39  2  0
 30 35  1  0
 31 27  1  0
 31 35  1  0
 32 31  1  0
 33 34  1  0
 33 32  1  0
 34 30  1  0
 35 36  2  0
 36 37  1  0
 38 37  2  0
 39 38  1  0
 40 14  1  0
 40 41  1  0
 40 50  1  0
 41 44  1  0
 42 46  1  0
 42 41  1  0
 43 42  2  0
 46 45  1  0
 48 46  1  0
 48 49  1  0
 48 47  1  0
 50 53  1  1
 50 51  1  0
 52 50  1  0
 54  5  1  0
 54 56  1  0
 55 54  2  0
 56 61  1  0
 57 56  1  0
 57 59  1  0
 58 57  1  0
 60 57  1  0
 62 61  1  0
 63 68  1  0
 64 65  1  0
 64 63  1  0
 66 65  1  0
 66 73  1  0
 66 67  1  0
 68 62  1  0
 68 67  1  0
 69 62  2  0
 70 71  2  0
 71 90  1  0
 72 71  1  0
 72 75  1  0
 73 74  1  0
 73 70  1  0
 74 72  2  0
 75 76  1  0
 76 77  2  0
 78 81  1  0
 78 77  1  0
 79 78  2  0
 80 79  1  0
 80 75  2  0
 81 82  1  0
 82 87  2  0
 82 83  1  0
 83 84  2  0
 84 85  1  0
 85 89  1  0
 86 85  2  0
 87 86  1  0
 88 87  1  0
 90 91  1  0
 91 94  1  0
 91 93  1  0
 92 90  2  0
 95 96  1  0
 95 70  1  0
 97 95  1  0
 98  6  1  0
 99 98  1  0
M  ISO  4  12 101  13 101  61 100  62 100
M  END
>  <TORSDO>  (36) 
F 24

>  <SCORE>  (36) 
-12.095

>  <name>  (36) 
37

>  <ligand_id>  (36) 
37

>  <original_smiles>  (36) 
[H]Oc1c([H])c(C(=O)N([H])C([H])([H])C([H])([H])Oc2c([H])c([H])c3c(c2[H])C([H])([H])N(C(=O)C([H])(N([H])C(=O)C([H])(N([H])C([H])([H])[H])C([H])([H])[H])C(C([H])([H])[H])(C([H])([H])[H])C([H])([H])[H])C([H])(C(=O)N([H])C2([H])c4c([H])c([H])c([H])c([H])c4C([H])([H])C([H])([H])C2([H])[H])C3([H])[H])c([H])c([H])c1C(=O)C([H])(C([H])([H])C(=O)N1C([H])([H])C([H])([H])C([H])([H])C([H])(n2nc(-c3c([H])c([H])c(Oc4c([H])c([H])c(F)c([H])c4F)c([H])c3[H])c(C(=O)N([H])[H])c2N([H])[H])C1([H])[H])[N+]([H])([H])[H]

>  <smiles>  (36) 
[H]Oc1c([H])c(C(=O)N([H])C([H])([H])C([H])([H])Oc2c([H])c([H])c3c(c2[H])C([H])([H])N(C(=O)C([H])(N([H])C(=O)C([H])(N([H])C([H])([H])[H])C([H])([H])[H])C(C([H])([H])[H])(C([H])([H])[H])C([H])([H])[H])C([H])(C(=O)N([H])C2([H])c4c([H])c([H])c([H])c([H])c4C([H])([H])C([H])([H])C2([H])[H])C3([H])[H])c([H])c([H])c1C(=O)C([H])(C([H])([H])C(=O)N1C([H])([H])C([H])([H])C([H])([H])C([H])(n2nc(-c3c([H])c([H])c(Oc4c([H])c([H])c(F)c([H])c4F)c([H])c3[H])c(C(=O)N([H])[H])c2N([H])[H])C1([H])[H])[N+]([H])([H])[H]

$$$$
38:0:0
     RDKit          3D

 98 95  0  0  1  0  0  0  0  0999 V2000
  -19.7890  -25.5130   22.6900 C   0  0  0  0  0  3  0  0  0  0  0  0
  -20.2700  -29.1330   23.0100 C   0  0  0  0  0  3  0  0  0  0  0  0
  -21.1850  -25.6190   21.7280 C   0  0  0  0  0  2  0  0  0  0  0  0
  -22.2590  -27.6400   21.4850 C   0  0  0  0  0  2  0  0  0  0  0  0
  -19.0670  -26.8820   23.4570 C   0  0  0  0  0  0  0  0  0  0  0  0
  -21.6390  -29.0810   22.0550 C   0  0  0  0  0  3  0  0  0  0  0  0
  -17.9640  -26.4750   24.2070 O   0  0  0  0  0  0  0  0  0  0  0  0
  -17.6170  -27.2290   24.6770 H   0  0  0  0  0  0  0  0  0  0  0  0
  -21.8650  -23.7780   20.7940 C   0  0  0  0  0  2  0  0  0  0  0  0
  -21.0000  -22.9040   20.9110 O   0  0  0  0  0  0  0  0  0  0  0  0
  -23.4940  -22.9490   19.7700 C   0  0  0  0  0 15  0  0  0  0  0  0
  -24.9170  -21.6060   19.7540 N   0  0  0  0  0  2  0  0  0  0  0  0
  -24.3870  -20.7870   19.4970 H   0  0  0  0  0  0  0  0  0  0  0  0
  -25.0560  -21.4970   20.7440 H   0  0  0  0  0  0  0  0  0  0  0  0
  -26.7030  -21.1260   19.0940 C   0  0  0  0  0 15  0  0  0  0  0  0
  -28.5950  -20.0470   19.4620 C   0  0  0  0  0 15  0  0  0  0  0  0
  -32.1210  -19.1910   19.3550 C   0  0  0  0  0  0  0  0  0  0  0  0
  -34.8590  -19.1010   18.6280 C   0  0  0  0  0  2  0  0  0  0  0  0
  -35.5540  -20.3710   17.9980 C   0  0  0  0  0  2  0  0  0  0  0  0
  -34.9980  -20.6730   16.5940 C   0  0  0  0  0  2  0  0  0  0  0  0
  -33.4990  -20.3440   16.6060 C   0  0  0  0  0  3  0  0  0  0  0  0
  -33.2040  -18.9150   17.0290 C   0  0  0  0  0  2  0  0  0  0  0  0
  -33.2950  -19.0610   18.4430 N   0  0  0  0  0  0  0  0  0  0  0  0
  -32.7180  -18.8200   20.4260 O   0  0  0  0  0  0  0  0  0  0  0  0
  -30.5300  -19.7480   19.0690 N   0  0  0  0  0  2  0  0  0  0  0  0
  -30.5910  -20.0100   18.0870 H   0  0  0  0  0  0  0  0  0  0  0  0
  -31.5320  -21.1230   15.3040 C   0  0  0  0  0  0  0  0  0  0  0  0
  -31.2660  -21.1090   13.9710 C   0  0  0  0  0  0  0  0  0  0  0  0
  -32.3910  -20.4810   13.3500 C   0  0  0  0  0  0  0  0  0  0  0  0
  -32.7860  -20.5630   15.4080 N   0  0  0  0  0  0  0  0  0  0  0  0
  -33.2720  -20.0860   14.2500 N   0  0  0  0  0  0  0  0  0  0  0  0
  -32.7250  -20.2990   11.9450 C   0  0  0  0  0  0  0  0  0  0  0  0
  -33.0070  -19.0210   11.4150 C   0  0  0  0  0  3  0  0  0  0  0  0
  -33.3170  -18.8780   10.0470 C   0  0  0  0  0  3  0  0  0  0  0  0
  -33.3420  -20.0170    9.2060 C   0  0  0  0  0  0  0  0  0  0  0  0
  -33.0880  -21.2860    9.7510 C   0  0  0  0  0  3  0  0  0  0  0  0
  -32.7840  -21.4290   11.1120 C   0  0  0  0  0  3  0  0  0  0  0  0
  -33.6500  -19.9780    7.8700 O   0  0  0  0  0  0  0  0  0  0  0  0
  -33.4880  -18.8350    7.1310 C   0  0  0  0  0  0  0  0  0  0  0  0
  -32.2210  -18.2400    6.9450 C   0  0  0  0  0  3  0  0  0  0  0  0
  -32.0920  -17.1040    6.1220 C   0  0  0  0  0  3  0  0  0  0  0  0
  -33.2230  -16.5710    5.4750 C   0  0  0  0  0  0  0  0  0  0  0  0
  -34.4850  -17.1660    5.6560 C   0  0  0  0  0  3  0  0  0  0  0  0
  -34.6150  -18.2970    6.4810 C   0  0  0  0  0  0  0  0  0  0  0  0
  -35.8290  -18.8790    6.6370 F   0  0  0  0  0  0  0  0  0  0  0  0
  -33.0990  -15.4870    4.6750 F   0  0  0  0  0  0  0  0  0  0  0  0
  -30.0910  -21.7530   13.3090 C   0  0  0  0  0  0  0  0  0  0  0  0
  -29.6070  -21.1660   12.2220 N   0  0  0  0  0  0  0  0  0  0  0  0
  -29.5680  -22.7590   13.7870 O   0  0  0  0  0  0  0  0  0  0  0  0
  -30.0270  -20.3280   11.8460 H   0  0  0  0  0  0  0  0  0  0  0  0
  -28.8030  -21.5600   11.7540 H   0  0  0  0  0  0  0  0  0  0  0  0
  -30.8420  -21.5820   16.4270 N   0  0  0  0  0  0  0  0  0  0  0  0
  -30.0240  -22.1570   16.2540 H   0  0  0  0  0  0  0  0  0  0  0  0
  -31.3700  -21.9110   17.2250 H   0  0  0  0  0  0  0  0  0  0  0  0
  -22.3090  -30.2460   21.8150 O   0  0  0  0  0  0  0  0  0  0  0  0
  -21.8090  -31.0200   22.0490 H   0  0  0  0  0  0  0  0  0  0  0  0
  -24.2260  -27.8070   20.9260 C   0  0  0  0  0 15  0  0  0  0  0  0
  -25.7000  -26.6630   20.5580 O   0  0  0  0  0  1  0  0  0  0  0  0
  -26.7190  -29.2300   25.2280 C   0  0  0  0  0  0  0  0  0  0  0  0
  -27.1390  -26.6640   20.2060 C   0  0  0  0  0  3  0  0  0  0  0  0
  -25.5190  -29.4520   23.1330 C   0  0  0  0  0  3  0  0  0  0  0  0
  -26.7870  -29.0590   20.9200 C   0  0  0  0  0  3  0  0  0  0  0  0
  -27.9960  -28.9100   23.0990 C   0  0  0  0  0  2  0  0  0  0  0  0
  -27.6910  -28.3540   21.7180 C   0  0  0  0  0  3  0  0  0  0  0  0
  -28.0410  -27.0830   21.2450 C   0  0  0  0  0  2  0  0  0  0  0  0
  -27.1930  -27.4690   19.1130 C   0  0  0  0  0  2  0  0  0  0  0  0
  -26.6610  -28.7000   19.5400 C   0  0  0  0  0  2  0  0  0  0  0  0
  -25.8730  -29.9820   21.6900 C   0  0  0  0  0  2  0  0  0  0  0  0
  -26.7790  -29.2580   23.8750 N   0  0  0  0  0  0  0  0  0  0  0  0
  -25.6640  -29.4670   25.8390 O   0  0  0  0  0  0  0  0  0  0  0  0
  -24.8230  -28.0750   23.2970 C   0  0  0  0  0  0  0  0  0  0  0  0
  -23.6810  -27.8200   22.7770 N   0  0  0  0  0  0  0  0  0  0  0  0
  -25.2250  -27.1910   24.0340 O   0  0  0  0  0  0  0  0  0  0  0  0
  -23.2030  -28.5160   22.2230 H   0  0  0  0  0  0  0  0  0  0  0  0
  -20.5180  -26.9110   20.2720 C   0  0  0  0  0  2  0  0  0  0  0  0
  -23.2600  -26.4050   22.6320 C   0  0  0  0  0  2  0  0  0  0  0  0
  -24.1400  -25.2690   21.1490 C   0  0  0  0  0 15  0  0  0  0  0  0
  -23.1000  -25.2770   19.0360 C   0  0  0  0  0 15  0  0  0  0  0  0
  -21.2440  -26.0940   18.9050 C   0  0  0  0  0  1  0  0  0  0  0  0
  -21.7300  -27.0610   22.4130 C   0  0  0  0  0  3  0  0  0  0  0  0
  -20.8640  -28.0600   23.6210 C   0  0  0  0  0  1  0  0  0  0  0  0
  -19.3280  -28.7980   23.2970 C   0  0  0  0  0  3  0  0  0  0  0  0
  -18.4310  -28.6830   21.8290 C   0  0  0  0  0  3  0  0  0  0  0  0
  -18.9190  -27.8120   20.3760 C   0  0  0  0  0  3  0  0  0  0  0  0
  -27.9870  -28.9200   26.0550 C   0  0  0  0  0  3  0  0  0  0  0  0
  -28.4770  -30.2160   26.5300 N   0  0  0  0  0  0  0  0  0  0  0  0
  -29.6410  -30.7570   26.1600 C   0  0  0  0  0  0  0  0  0  0  0  0
  -30.4600  -30.1630   25.4530 O   0  0  0  0  0  0  0  0  0  0  0  0
  -27.8330  -30.7740   27.0710 H   0  0  0  0  0  0  0  0  0  0  0  0
  -30.0160  -33.1470   25.4710 C   0  0  0  0  0  1  0  0  0  0  0  0
  -29.9490  -32.1780   26.6630 C   0  0  0  0  0  3  0  0  0  0  0  0
  -31.1170  -31.5670   28.7320 C   0  0  0  0  0  1  0  0  0  0  0  0
  -31.1970  -32.2610   27.4500 N   0  0  0  0  0  0  0  0  0  0  0  0
  -31.4440  -33.2310   27.6310 H   0  0  0  0  0  0  0  0  0  0  0  0
  -27.7280  -27.9350   27.2570 C   0  0  1  0  0  0  0  0  0  0  0  0
  -26.5500  -28.3460   28.1700 C   0  0  0  0  0  1  0  0  0  0  0  0
  -27.4480  -26.4970   26.7580 C   0  0  0  0  0  1  0  0  0  0  0  0
  -29.0060  -27.8500   28.1200 C   0  0  0  0  0  1  0  0  0  0  0  0
  1  5  2  0
  2 82  1  0
  2 81  1  0
  3 80  1  0
  3  1  1  0
  4  6  1  0
  4 80  1  0
  5  7  1  0
  6 55  1  0
  6  2  1  0
  7  8  1  0
  9 10  2  0
 12 14  1  0
 13 12  1  0
 17 24  2  0
 19 18  1  0
 20 21  1  0
 20 19  1  0
 21 30  1  0
 21 22  1  0
 22 23  1  0
 23 18  1  0
 23 17  1  0
 25 17  1  0
 26 25  1  0
 27 30  1  0
 27 52  1  0
 28 27  2  0
 29 28  1  0
 29 31  2  0
 31 30  1  0
 32 29  1  0
 33 32  1  0
 34 33  2  0
 35 36  2  0
 35 34  1  0
 36 37  1  0
 37 32  2  0
 38 35  1  0
 39 38  1  0
 40 39  1  0
 41 40  2  0
 42 43  2  0
 42 41  1  0
 43 44  1  0
 44 45  1  0
 44 39  2  0
 46 42  1  0
 47 49  2  0
 47 28  1  0
 48 47  1  0
 50 48  1  0
 51 48  1  0
 52 54  1  0
 53 52  1  0
 55 56  1  0
 59 70  2  0
 60 58  1  0
 60 65  1  0
 61 71  1  0
 61 69  1  0
 62 67  1  0
 62 68  1  0
 62 64  1  0
 63 69  1  0
 64 65  1  0
 64 63  1  0
 66 67  1  0
 66 60  1  0
 68 61  1  0
 69 59  1  0
 71 73  2  0
 72 71  1  0
 74 72  1  0
 75 84  1  0
 76 72  1  0
 79 75  1  0
 80 76  1  0
 82 83  1  0
 82  5  1  0
 84 83  2  0
 85 59  1  0
 85 86  1  0
 85 95  1  0
 86 89  1  0
 87 86  1  0
 87 91  1  0
 88 87  2  0
 91 90  1  0
 91 93  1  0
 93 94  1  0
 93 92  1  0
 95 98  1  1
 95 96  1  0
 97 95  1  0
M  ISO  4  17 100  25 100  57 101  58 101
M  END
>  <TORSDO>  (37) 
F 24

>  <SCORE>  (37) 
-0.676

>  <name>  (37) 
38

>  <ligand_id>  (37) 
38

>  <original_smiles>  (37) 
[H]Oc1c([H])c(O[H])c(C([H])([H])Oc2c([H])c([H])c3c(c2[H])C([H])([H])N(C(=O)C([H])(N([H])C(=O)C([H])(N([H])C([H])([H])[H])C([H])([H])[H])C(C([H])([H])[H])(C([H])([H])[H])C([H])([H])[H])C([H])(C(=O)N([H])C2([H])c4c([H])c([H])c([H])c([H])c4C([H])([H])C([H])([H])C2([H])[H])C3([H])[H])c(C(=O)C([H])([H])[N+]([H])([H])C([H])([H])C([H])([H])N([H])C(=O)N2C([H])([H])C([H])([H])C([H])([H])C([H])(n3nc(-c4c([H])c([H])c(Oc5c([H])c([H])c(F)c([H])c5F)c([H])c4[H])c(C(=O)N([H])[H])c3N([H])[H])C2([H])[H])c1[H]

>  <smiles>  (37) 
[H]Oc1c([H])c(O[H])c(C([H])([H])Oc2c([H])c([H])c3c(c2[H])C([H])([H])N(C(=O)C([H])(N([H])C(=O)C([H])(N([H])C([H])([H])[H])C([H])([H])[H])C(C([H])([H])[H])(C([H])([H])[H])C([H])([H])[H])C([H])(C(=O)N([H])C2([H])c4c([H])c([H])c([H])c([H])c4C([H])([H])C([H])([H])C2([H])[H])C3([H])[H])c(C(=O)C([H])([H])[N+]([H])([H])C([H])([H])C([H])([H])N([H])C(=O)N2C([H])([H])C([H])([H])C([H])([H])C([H])(n3nc(-c4c([H])c([H])c(Oc5c([H])c([H])c(F)c([H])c5F)c([H])c4[H])c(C(=O)N([H])[H])c3N([H])[H])C2([H])[H])c1[H]

$$$$
39:0:0
     RDKit          3D

 97106  0  0  1  0  0  0  0  0999 V2000
  -29.0040  -22.6410   18.9810 C   0  0  0  0  0  3  0  0  0  0  0  0
  -28.9490  -23.9960   18.6030 C   0  0  0  0  0  3  0  0  0  0  0  0
  -31.3060  -22.9560   19.7110 C   0  0  0  0  0  3  0  0  0  0  0  0
  -30.1910  -22.1050   19.5310 C   0  0  0  0  0  0  0  0  0  0  0  0
  -30.0740  -24.8340   18.7610 C   0  0  0  0  0  0  0  0  0  0  0  0
  -31.2600  -24.3220   19.3330 C   0  0  0  0  0  0  0  0  0  0  0  0
  -30.3390  -20.6550   19.8520 C   0  0  0  0  0  0  0  0  0  0  0  0
  -31.4480  -20.1110   19.9470 O   0  0  0  0  0  0  0  0  0  0  0  0
  -29.0760  -19.8100   20.0910 C   0  0  0  0  0  2  0  0  0  0  0  0
  -30.8120  -14.4540   20.0610 C   0  0  0  0  0  0  0  0  0  0  0  0
  -30.4420  -12.3170   18.9190 C   0  0  0  0  0  2  0  0  0  0  0  0
  -29.4400  -12.5510   17.7700 C   0  0  0  0  0  2  0  0  0  0  0  0
  -27.9840  -12.4360   18.2700 C   0  0  0  0  0  2  0  0  0  0  0  0
  -27.7190  -13.2380   19.5750 C   0  0  0  0  0  3  0  0  0  0  0  0
  -28.8360  -12.9990   20.6160 C   0  0  0  0  0  2  0  0  0  0  0  0
  -30.1220  -13.2890   19.9710 N   0  0  0  0  0  0  0  0  0  0  0  0
  -31.9780  -14.5770   19.6770 O   0  0  0  0  0  0  0  0  0  0  0  0
  -29.9730  -16.3400   18.8770 C   0  0  0  0  0  2  0  0  0  0  0  0
  -29.9950  -16.3040   21.4070 C   0  0  0  0  0  2  0  0  0  0  0  0
  -29.1240  -17.6110   18.9470 C   0  0  0  0  0  2  0  0  0  0  0  0
  -29.2310  -17.6530   21.3690 C   0  0  0  0  0  2  0  0  0  0  0  0
  -30.0290  -15.5560   20.1320 N   0  0  0  0  0  0  0  0  0  0  0  0
  -29.5200  -18.3970   20.1260 N   0  0  2  0  0  4  0  0  0  0  0  0
  -30.5270  -18.5220   20.0800 H   0  0  0  0  0  0  0  0  0  0  0  0
  -25.3640  -13.8340   20.4280 C   0  0  0  0  0  0  0  0  0  0  0  0
  -24.3160  -13.0540   20.8370 C   0  0  0  0  0  0  0  0  0  0  0  0
  -24.7730  -11.7040   20.7550 C   0  0  0  0  0  0  0  0  0  0  0  0
  -26.3930  -12.9560   20.1220 N   0  0  0  0  0  0  0  0  0  0  0  0
  -26.0440  -11.6690   20.3770 N   0  0  0  0  0  0  0  0  0  0  0  0
  -24.0560  -10.4380   20.9560 C   0  0  0  0  0  0  0  0  0  0  0  0
  -24.5030   -9.4790   21.8930 C   0  0  0  0  0  3  0  0  0  0  0  0
  -23.7910   -8.2760   22.0830 C   0  0  0  0  0  3  0  0  0  0  0  0
  -22.6160   -8.0220   21.3370 C   0  0  0  0  0  0  0  0  0  0  0  0
  -22.1870   -8.9690   20.3900 C   0  0  0  0  0  3  0  0  0  0  0  0
  -22.9000  -10.1640   20.1990 C   0  0  0  0  0  3  0  0  0  0  0  0
  -21.8690   -6.8730   21.4390 O   0  0  0  0  0  0  0  0  0  0  0  0
  -21.7850   -6.1690   22.6120 C   0  0  0  0  0  0  0  0  0  0  0  0
  -21.3100   -6.7600   23.8040 C   0  0  0  0  0  3  0  0  0  0  0  0
  -21.1770   -5.9800   24.9720 C   0  0  0  0  0  3  0  0  0  0  0  0
  -21.5080   -4.6110   24.9450 C   0  0  0  0  0  0  0  0  0  0  0  0
  -21.9730   -4.0210   23.7570 C   0  0  0  0  0  3  0  0  0  0  0  0
  -22.1080   -4.7970   22.5930 C   0  0  0  0  0  0  0  0  0  0  0  0
  -22.5400   -4.2180   21.4460 F   0  0  0  0  0  0  0  0  0  0  0  0
  -21.3710   -3.8610   26.0640 F   0  0  0  0  0  0  0  0  0  0  0  0
  -22.9340  -13.5260   21.1870 C   0  0  0  0  0  0  0  0  0  0  0  0
  -22.2540  -12.8160   22.0810 N   0  0  0  0  0  0  0  0  0  0  0  0
  -22.4690  -14.5570   20.7050 O   0  0  0  0  0  0  0  0  0  0  0  0
  -22.6470  -11.9870   22.5000 H   0  0  0  0  0  0  0  0  0  0  0  0
  -21.3260  -13.1100   22.3540 H   0  0  0  0  0  0  0  0  0  0  0  0
  -25.5250  -15.2060   20.2670 N   0  0  0  0  0  0  0  0  0  0  0  0
  -24.7640  -15.8600   20.4080 H   0  0  0  0  0  0  0  0  0  0  0  0
  -26.3590  -15.6360   19.8890 H   0  0  0  0  0  0  0  0  0  0  0  0
  -33.5380  -24.6880   20.0170 C   0  0  0  0  0  1  0  0  0  0  0  0
  -32.3180  -25.1930   19.4880 O   0  0  0  0  0  0  0  0  0  0  0  0
  -29.9960  -26.2910   18.3110 C   0  0  0  0  0  2  0  0  0  0  0  0
  -29.5770  -27.2480   19.4400 C   0  0  0  0  0  2  0  0  0  0  0  0
  -28.4110  -26.7060   20.0390 O   0  0  0  0  0  0  0  0  0  0  0  0
  -24.6440  -31.8700   23.1660 C   0  0  0  0  0  0  0  0  0  0  0  0
  -27.2890  -27.4850   20.0450 C   0  0  0  0  0  0  0  0  0  0  0  0
  -23.4330  -30.4680   21.5280 C   0  0  0  0  0  3  0  0  0  0  0  0
  -24.8850  -28.9470   20.0900 C   0  0  0  0  0  0  0  0  0  0  0  0
  -25.9500  -30.8560   21.3020 C   0  0  0  0  0  2  0  0  0  0  0  0
  -26.0420  -29.4870   20.6620 C   0  0  0  0  0  0  0  0  0  0  0  0
  -27.2530  -28.7650   20.6410 C   0  0  0  0  0  3  0  0  0  0  0  0
  -26.1140  -26.9400   19.4920 C   0  0  0  0  0  3  0  0  0  0  0  0
  -24.9110  -27.6670   19.5050 C   0  0  0  0  0  3  0  0  0  0  0  0
  -23.6350  -29.7950   20.1440 C   0  0  0  0  0  2  0  0  0  0  0  0
  -24.6960  -31.0760   22.0590 N   0  0  0  0  0  0  0  0  0  0  0  0
  -23.5650  -32.1330   23.7140 O   0  0  0  0  0  0  0  0  0  0  0  0
  -22.7950  -29.4390   22.4870 C   0  0  0  0  0  0  0  0  0  0  0  0
  -21.4670  -29.2630   22.3800 N   0  0  0  0  0  0  0  0  0  0  0  0
  -23.4890  -28.8020   23.2840 O   0  0  0  0  0  0  0  0  0  0  0  0
  -20.9680  -29.8300   21.7080 H   0  0  0  0  0  0  0  0  0  0  0  0
  -18.0940  -28.0970   22.9300 C   0  0  0  0  0  0  0  0  0  0  0  0
  -20.6590  -28.3230   23.1550 C   0  0  0  0  0  3  0  0  0  0  0  0
  -20.7350  -26.9000   22.5580 C   0  0  0  0  0  2  0  0  0  0  0  0
  -19.6110  -26.6020   21.5610 C   0  0  0  0  0  2  0  0  0  0  0  0
  -18.2440  -26.7550   22.2330 C   0  0  0  0  0  2  0  0  0  0  0  0
  -19.2290  -28.8410   23.3480 C   0  0  0  0  0  0  0  0  0  0  0  0
  -19.0370  -30.1000   23.9590 C   0  0  0  0  0  3  0  0  0  0  0  0
  -17.7410  -30.6140   24.1530 C   0  0  0  0  0  3  0  0  0  0  0  0
  -16.6210  -29.8680   23.7520 C   0  0  0  0  0  3  0  0  0  0  0  0
  -16.7980  -28.6100   23.1460 C   0  0  0  0  0  3  0  0  0  0  0  0
  -25.9320  -32.5050   23.7770 C   0  0  0  0  0  3  0  0  0  0  0  0
  -25.6130  -33.8920   24.1390 N   0  0  0  0  0  0  0  0  0  0  0  0
  -25.9190  -34.9610   23.3920 C   0  0  0  0  0  0  0  0  0  0  0  0
  -26.5720  -34.8840   22.3480 O   0  0  0  0  0  0  0  0  0  0  0  0
  -25.0280  -34.0250   24.9520 H   0  0  0  0  0  0  0  0  0  0  0  0
  -24.1610  -36.7350   23.1000 C   0  0  0  0  0  1  0  0  0  0  0  0
  -25.4210  -36.3330   23.8830 C   0  0  0  0  0  3  0  0  0  0  0  0
  -27.5580  -37.2300   24.6930 C   0  0  0  0  0  1  0  0  0  0  0  0
  -26.4380  -37.4020   23.7730 N   0  0  0  0  0  0  0  0  0  0  0  0
  -26.0230  -38.3140   23.9460 H   0  0  0  0  0  0  0  0  0  0  0  0
  -26.4840  -31.7130   25.0250 C   0  0  1  0  0  0  0  0  0  0  0  0
  -25.4140  -31.4360   26.1080 C   0  0  0  0  0  1  0  0  0  0  0  0
  -27.0770  -30.3520   24.5870 C   0  0  0  0  0  1  0  0  0  0  0  0
  -27.6370  -32.5070   25.6830 C   0  0  0  0  0  1  0  0  0  0  0  0
  1  4  1  0
  2  5  1  0
  2  1  2  0
  4  3  2  0
  4  7  1  0
  5  6  2  0
  6 54  1  0
  6  3  1  0
  7  8  2  0
  7  9  1  0
  9 23  1  0
 10 22  1  0
 11 16  1  0
 12 13  1  0
 12 11  1  0
 14 13  1  0
 14 28  1  0
 14 15  1  0
 16 10  1  0
 16 15  1  0
 17 10  2  0
 18 20  1  0
 18 22  1  0
 20 23  1  0
 21 19  1  0
 22 19  1  0
 23 21  1  0
 23 24  1  6
 25 26  2  0
 26 45  1  0
 27 26  1  0
 27 30  1  0
 28 29  1  0
 28 25  1  0
 29 27  2  0
 30 31  1  0
 31 32  2  0
 33 36  1  0
 33 32  1  0
 34 33  2  0
 35 34  1  0
 35 30  2  0
 36 37  1  0
 37 38  1  0
 38 39  2  0
 40 39  1  0
 40 44  1  0
 41 40  2  0
 42 37  2  0
 42 41  1  0
 43 42  1  0
 45 46  1  0
 46 49  1  0
 46 48  1  0
 47 45  2  0
 50 51  1  0
 50 25  1  0
 52 50  1  0
 54 53  1  0
 55  5  1  0
 55 56  1  0
 56 57  1  0
 57 59  1  0
 58 69  2  0
 59 64  1  0
 60 68  1  0
 60 70  1  0
 61 67  1  0
 61 63  1  0
 62 68  1  0
 63 62  1  0
 64 63  2  0
 65 66  1  0
 65 59  2  0
 66 61  2  0
 67 60  1  0
 68 58  1  0
 70 72  2  0
 71 70  1  0
 73 71  1  0
 74 83  2  0
 74 79  1  0
 75 71  1  0
 75 79  1  0
 76 75  1  0
 77 78  1  0
 77 76  1  0
 78 74  1  0
 79 80  2  0
 80 81  1  0
 82 81  2  0
 83 82  1  0
 84 58  1  0
 84 85  1  0
 84 94  1  0
 85 88  1  0
 86 90  1  0
 86 85  1  0
 87 86  2  0
 90 89  1  0
 92 90  1  0
 92 93  1  0
 92 91  1  0
 94 97  1  1
 94 95  1  0
 96 94  1  0
M  ISO  4  10 100  22 100  56 101  57 101
M  END
>  <TORSDO>  (38) 
F 21

>  <SCORE>  (38) 
-13.098

>  <name>  (38) 
39

>  <ligand_id>  (38) 
39

>  <original_smiles>  (38) 
[H]c1c([H])c([H])c2c(c1[H])C([H])([H])C([H])([H])C([H])([H])C2([H])N([H])C(=O)C1([H])N(C(=O)C([H])(N([H])C(=O)C([H])(N([H])C([H])([H])[H])C([H])([H])[H])C(C([H])([H])[H])(C([H])([H])[H])C([H])([H])[H])C([H])([H])c2c([H])c(OC([H])([H])C([H])([H])c3c([H])c([H])c(C(=O)C([H])([H])[N+]4([H])C([H])([H])C([H])([H])N(C(=O)N5C([H])([H])C([H])([H])C([H])([H])C([H])(n6nc(-c7c([H])c([H])c(Oc8c([H])c([H])c(F)c([H])c8F)c([H])c7[H])c(C(=O)N([H])[H])c6N([H])[H])C5([H])[H])C([H])([H])C4([H])[H])c([H])c3OC([H])([H])[H])c([H])c([H])c2C1([H])[H]

>  <smiles>  (38) 
[H]c1c([H])c([H])c2c(c1[H])C([H])([H])C([H])([H])C([H])([H])C2([H])N([H])C(=O)C1([H])N(C(=O)C([H])(N([H])C(=O)C([H])(N([H])C([H])([H])[H])C([H])([H])[H])C(C([H])([H])[H])(C([H])([H])[H])C([H])([H])[H])C([H])([H])c2c([H])c(OC([H])([H])C([H])([H])c3c([H])c([H])c(C(=O)C([H])([H])[N+]4([H])C([H])([H])C([H])([H])N(C(=O)N5C([H])([H])C([H])([H])C([H])([H])C([H])(n6nc(-c7c([H])c([H])c(Oc8c([H])c([H])c(F)c([H])c8F)c([H])c7[H])c(C(=O)N([H])[H])c6N([H])[H])C5([H])[H])C([H])([H])C4([H])[H])c([H])c3OC([H])([H])[H])c([H])c([H])c2C1([H])[H]

$$$$
40:0:0
     RDKit          3D

102110  0  0  1  0  0  0  0  0999 V2000
  -27.3880  -21.0360   19.3420 C   0  0  0  0  0  3  0  0  0  0  0  0
  -28.2880  -20.8700   18.2730 C   0  0  0  0  0  3  0  0  0  0  0  0
  -27.4830  -22.1600   20.1820 C   0  0  0  0  0  3  0  0  0  0  0  0
  -29.4560  -22.9020   18.9640 C   0  0  0  0  0  3  0  0  0  0  0  0
  -29.3470  -21.7930   18.0820 C   0  0  0  0  0  0  0  0  0  0  0  0
  -28.4830  -23.1230   19.9680 C   0  0  0  0  0  0  0  0  0  0  0  0
  -30.3220  -21.6670   16.9440 C   0  0  0  0  0  0  0  0  0  0  0  0
  -30.9700  -22.6380   16.5330 O   0  0  0  0  0  0  0  0  0  0  0  0
  -30.5150  -20.2880   16.2420 C   0  0  0  0  0  0  0  0  0  0  0  0
  -31.2200  -19.4210   16.9810 N   0  0  0  0  0  0  0  0  0  0  0  0
  -30.0890  -20.0500   15.1040 O   0  0  0  0  0  0  0  0  0  0  0  0
  -31.5290  -19.7500   17.8850 H   0  0  0  0  0  0  0  0  0  0  0  0
  -31.6150  -18.0780   16.5830 C   0  0  0  0  0  2  0  0  0  0  0  0
  -31.7180  -17.1400   17.8130 C   0  0  0  0  0  2  0  0  0  0  0  0
  -30.3790  -16.6970   18.4550 C   0  0  0  0  0  2  0  0  0  0  0  0
  -29.9390  -17.4010   19.7570 C   0  0  0  0  0  2  0  0  0  0  0  0
  -30.5150  -16.8390   21.0930 C   0  0  0  0  0  2  0  0  0  0  0  0
  -31.0150  -14.3320   20.9720 C   0  0  0  0  0  0  0  0  0  0  0  0
  -30.6540  -12.4230   19.4820 C   0  0  0  0  0  2  0  0  0  0  0  0
  -29.7700  -12.9470   18.3360 C   0  0  0  0  0  2  0  0  0  0  0  0
  -28.2680  -12.8810   18.7090 C   0  0  0  0  0  2  0  0  0  0  0  0
  -27.9430  -13.4040   20.1380 C   0  0  0  0  0  3  0  0  0  0  0  0
  -28.9660  -12.8860   21.1750 C   0  0  0  0  0  2  0  0  0  0  0  0
  -30.3160  -13.2030   20.6800 N   0  0  0  0  0  0  0  0  0  0  0  0
  -32.2140  -14.4640   20.7110 O   0  0  0  0  0  0  0  0  0  0  0  0
  -30.2420  -15.3970   21.2750 N   0  0  0  0  0  0  0  0  0  0  0  0
  -29.2830  -15.1780   21.4990 H   0  0  0  0  0  0  0  0  0  0  0  0
  -25.4820  -13.9890   20.6190 C   0  0  0  0  0  0  0  0  0  0  0  0
  -24.3920  -13.2130   20.9260 C   0  0  0  0  0  0  0  0  0  0  0  0
  -24.8720  -11.8700   20.9870 C   0  0  0  0  0  0  0  0  0  0  0  0
  -26.5570  -13.1190   20.5150 N   0  0  0  0  0  0  0  0  0  0  0  0
  -26.1870  -11.8410   20.7930 N   0  0  0  0  0  0  0  0  0  0  0  0
  -24.1410  -10.6040   21.1550 C   0  0  0  0  0  0  0  0  0  0  0  0
  -24.5480   -9.6350   22.0980 C   0  0  0  0  0  3  0  0  0  0  0  0
  -23.8150   -8.4380   22.2580 C   0  0  0  0  0  3  0  0  0  0  0  0
  -22.6630   -8.2010   21.4720 C   0  0  0  0  0  0  0  0  0  0  0  0
  -22.2750   -9.1590   20.5200 C   0  0  0  0  0  3  0  0  0  0  0  0
  -23.0080  -10.3480   20.3580 C   0  0  0  0  0  3  0  0  0  0  0  0
  -21.9060   -7.0560   21.5390 O   0  0  0  0  0  0  0  0  0  0  0  0
  -21.8290   -6.3090   22.6890 C   0  0  0  0  0  0  0  0  0  0  0  0
  -21.4060   -6.8690   23.9150 C   0  0  0  0  0  3  0  0  0  0  0  0
  -21.2770   -6.0510   25.0550 C   0  0  0  0  0  3  0  0  0  0  0  0
  -21.5590   -4.6730   24.9690 C   0  0  0  0  0  0  0  0  0  0  0  0
  -21.9770   -4.1140   23.7490 C   0  0  0  0  0  3  0  0  0  0  0  0
  -22.1080   -4.9290   22.6120 C   0  0  0  0  0  0  0  0  0  0  0  0
  -22.4890   -4.3810   21.4330 F   0  0  0  0  0  0  0  0  0  0  0  0
  -21.4280   -3.8870   26.0630 F   0  0  0  0  0  0  0  0  0  0  0  0
  -22.9730  -13.6870   21.0490 C   0  0  0  0  0  0  0  0  0  0  0  0
  -22.1820  -13.0460   21.9080 N   0  0  0  0  0  0  0  0  0  0  0  0
  -22.5630  -14.6590   20.4190 O   0  0  0  0  0  0  0  0  0  0  0  0
  -22.5160  -12.2590   22.4430 H   0  0  0  0  0  0  0  0  0  0  0  0
  -21.2290  -13.3590   22.0310 H   0  0  0  0  0  0  0  0  0  0  0  0
  -25.6380  -15.3550   20.4020 N   0  0  0  0  0  0  0  0  0  0  0  0
  -24.8490  -15.9940   20.4270 H   0  0  0  0  0  0  0  0  0  0  0  0
  -26.4860  -15.7950   20.0690 H   0  0  0  0  0  0  0  0  0  0  0  0
  -28.3620  -24.4430   20.7300 C   0  0  0  0  0  3  0  0  0  0  0  0
  -28.7470  -24.3480   22.1540 N   0  0  0  0  0  4  0  0  0  0  0  0
  -29.7380  -24.2880   22.2980 H   0  0  0  0  0  0  0  0  0  0  0  0
  -28.3050  -23.5560   22.5820 H   0  0  0  0  0  0  0  0  0  0  0  0
  -28.4230  -25.1700   22.6310 H   0  0  0  0  0  0  0  0  0  0  0  0
  -29.0080  -25.6540   20.0290 C   0  0  0  0  0  2  0  0  0  0  0  0
  -28.7330  -26.8100   20.8100 O   0  0  0  0  0  0  0  0  0  0  0  0
  -24.6770  -32.0030   23.4260 C   0  0  0  0  0  0  0  0  0  0  0  0
  -27.4980  -27.4170   20.7440 C   0  0  0  0  0  0  0  0  0  0  0  0
  -23.5530  -30.4780   21.8410 C   0  0  0  0  0  3  0  0  0  0  0  0
  -25.0690  -28.8550   20.5950 C   0  0  0  0  0  0  0  0  0  0  0  0
  -26.0750  -30.8470   21.7220 C   0  0  0  0  0  2  0  0  0  0  0  0
  -26.1970  -29.4390   21.1830 C   0  0  0  0  0  0  0  0  0  0  0  0
  -27.4080  -28.7240   21.2600 C   0  0  0  0  0  3  0  0  0  0  0  0
  -26.3370  -26.8230   20.1830 C   0  0  0  0  0  3  0  0  0  0  0  0
  -25.1280  -27.5360   20.1160 C   0  0  0  0  0  3  0  0  0  0  0  0
  -23.8160  -29.6940   20.5300 C   0  0  0  0  0  2  0  0  0  0  0  0
  -24.7870  -31.1200   22.3940 N   0  0  0  0  0  0  0  0  0  0  0  0
  -23.5720  -32.3120   23.8910 O   0  0  0  0  0  0  0  0  0  0  0  0
  -22.8680  -29.5210   22.8420 C   0  0  0  0  0  0  0  0  0  0  0  0
  -21.5720  -29.2550   22.6140 N   0  0  0  0  0  0  0  0  0  0  0  0
  -23.5020  -29.0170   23.7720 O   0  0  0  0  0  0  0  0  0  0  0  0
  -21.1330  -29.7130   21.8280 H   0  0  0  0  0  0  0  0  0  0  0  0
  -18.2240  -27.9420   22.8920 C   0  0  0  0  0  0  0  0  0  0  0  0
  -20.7220  -28.3540   23.3880 C   0  0  0  0  0  3  0  0  0  0  0  0
  -20.9520  -26.8860   22.9660 C   0  0  0  0  0  2  0  0  0  0  0  0
  -19.9730  -26.4040   21.8930 C   0  0  0  0  0  2  0  0  0  0  0  0
  -18.5250  -26.5430   22.3740 C   0  0  0  0  0  2  0  0  0  0  0  0
  -19.2580  -28.7990   23.3470 C   0  0  0  0  0  0  0  0  0  0  0  0
  -18.9290  -30.1030   23.7730 C   0  0  0  0  0  3  0  0  0  0  0  0
  -17.5940  -30.5490   23.7620 C   0  0  0  0  0  3  0  0  0  0  0  0
  -16.5700  -29.6840   23.3390 C   0  0  0  0  0  3  0  0  0  0  0  0
  -16.8840  -28.3850   22.9000 C   0  0  0  0  0  3  0  0  0  0  0  0
  -25.9300  -32.6870   24.0520 C   0  0  0  0  0  3  0  0  0  0  0  0
  -26.4160  -31.9990   25.3850 C   0  0  1  0  0  0  0  0  0  0  0  0
  -25.2710  -31.7060   26.3890 C   0  0  0  0  0  1  0  0  0  0  0  0
  -27.1260  -30.6630   25.0730 C   0  0  0  0  0  1  0  0  0  0  0  0
  -27.4620  -32.9030   26.0860 C   0  0  0  0  0  1  0  0  0  0  0  0
  -25.5920  -34.0930   24.2960 N   0  0  0  0  0  0  0  0  0  0  0  0
  -25.9380  -35.1080   23.4960 C   0  0  0  0  0  0  0  0  0  0  0  0
  -26.6440  -34.9660   22.4930 O   0  0  0  0  0  0  0  0  0  0  0  0
  -24.9770  -34.2820   25.0750 H   0  0  0  0  0  0  0  0  0  0  0  0
  -24.1950  -36.8450   23.0000 C   0  0  0  0  0  1  0  0  0  0  0  0
  -25.4160  -36.5060   23.8670 C   0  0  0  0  0  3  0  0  0  0  0  0
  -27.5080  -37.4630   24.7240 C   0  0  0  0  0  1  0  0  0  0  0  0
  -26.4350  -37.5710   23.7400 N   0  0  0  0  0  0  0  0  0  0  0  0
  -26.0090  -38.4890   23.8400 H   0  0  0  0  0  0  0  0  0  0  0  0
  1  3  1  0
  2  1  2  0
  4  6  1  0
  5  2  1  0
  5  4  2  0
  6  3  2  0
  6 56  1  0
  7  5  1  0
  8  7  2  0
  9  7  1  0
  9 10  1  0
 10 12  1  0
 11  9  2  0
 13 10  1  0
 13 14  1  0
 14 15  1  0
 15 16  1  0
 16 17  1  0
 17 26  1  0
 18 26  1  0
 19 24  1  0
 20 21  1  0
 20 19  1  0
 22 21  1  0
 22 31  1  0
 22 23  1  0
 24 18  1  0
 24 23  1  0
 25 18  2  0
 26 27  1  0
 28 29  2  0
 29 30  1  0
 29 48  1  0
 30 33  1  0
 31 28  1  0
 31 32  1  0
 32 30  2  0
 33 34  1  0
 34 35  2  0
 36 39  1  0
 36 35  1  0
 37 36  2  0
 38 37  1  0
 38 33  2  0
 39 40  1  0
 40 41  1  0
 41 42  2  0
 43 42  1  0
 43 47  1  0
 44 43  2  0
 45 40  2  0
 45 44  1  0
 46 45  1  0
 48 49  1  0
 49 52  1  0
 49 51  1  0
 50 48  2  0
 53 54  1  0
 53 28  1  0
 55 53  1  0
 56 61  1  0
 56 57  1  0
 57 58  1  0
 57 59  1  0
 57 60  1  0
 61 62  1  0
 63 74  2  0
 64 62  1  0
 64 69  1  0
 65 73  1  0
 65 75  1  0
 66 68  1  0
 67 73  1  0
 68 69  2  0
 68 67  1  0
 70 64  2  0
 71 70  1  0
 71 66  2  0
 72 66  1  0
 72 65  1  0
 73 63  1  0
 75 77  2  0
 76 75  1  0
 78 76  1  0
 79 88  2  0
 79 84  1  0
 80 76  1  0
 81 80  1  0
 82 83  1  0
 82 81  1  0
 83 79  1  0
 84 80  1  0
 84 85  2  0
 86 85  1  0
 87 86  2  0
 88 87  1  0
 89 63  1  0
 89 94  1  0
 89 90  1  0
 90 93  1  1
 90 91  1  0
 92 90  1  0
 94 97  1  0
 95 99  1  0
 95 94  1  0
 96 95  2  0
 99 98  1  0
101102  1  0
101 99  1  0
101100  1  0
M  ISO  4  18 100  26 100  61 101  62 101
M  END
>  <TORSDO>  (39) 
F 26

>  <SCORE>  (39) 
-11.709

>  <name>  (39) 
40

>  <ligand_id>  (39) 
40

>  <original_smiles>  (39) 
[H]c1c([H])c([H])c2c(c1[H])C([H])([H])C([H])([H])C([H])([H])C2([H])N([H])C(=O)C1([H])N(C(=O)C([H])(N([H])C(=O)C([H])(N([H])C([H])([H])[H])C([H])([H])[H])C(C([H])([H])[H])(C([H])([H])[H])C([H])([H])[H])C([H])([H])c2c([H])c(OC([H])([H])C([H])(c3c([H])c([H])c([H])c(C(=O)C(=O)N([H])C([H])([H])C([H])([H])C([H])([H])C([H])([H])C([H])([H])N([H])C(=O)N4C([H])([H])C([H])([H])C([H])([H])C([H])(n5nc(-c6c([H])c([H])c(Oc7c([H])c([H])c(F)c([H])c7F)c([H])c6[H])c(C(=O)N([H])[H])c5N([H])[H])C4([H])[H])c3[H])[N+]([H])([H])[H])c([H])c([H])c2C1([H])[H]

>  <smiles>  (39) 
[H]c1c([H])c([H])c2c(c1[H])C([H])([H])C([H])([H])C([H])([H])C2([H])N([H])C(=O)C1([H])N(C(=O)C([H])(N([H])C(=O)C([H])(N([H])C([H])([H])[H])C([H])([H])[H])C(C([H])([H])[H])(C([H])([H])[H])C([H])([H])[H])C([H])([H])c2c([H])c(OC([H])([H])C([H])(c3c([H])c([H])c([H])c(C(=O)C(=O)N([H])C([H])([H])C([H])([H])C([H])([H])C([H])([H])C([H])([H])N([H])C(=O)N4C([H])([H])C([H])([H])C([H])([H])C([H])(n5nc(-c6c([H])c([H])c(Oc7c([H])c([H])c(F)c([H])c7F)c([H])c6[H])c(C(=O)N([H])[H])c5N([H])[H])C4([H])[H])c3[H])[N+]([H])([H])[H])c([H])c([H])c2C1([H])[H]

$$$$
41:0:0
     RDKit          3D

 97105  0  0  1  0  0  0  0  0999 V2000
  -31.8460  -21.9800   20.8150 C   0  0  0  0  0  3  0  0  0  0  0  0
  -31.5270  -23.3500   20.8500 C   0  0  0  0  0  3  0  0  0  0  0  0
  -29.9540  -21.5090   22.2630 C   0  0  0  0  0  3  0  0  0  0  0  0
  -31.0470  -21.0400   21.4990 C   0  0  0  0  0  0  0  0  0  0  0  0
  -30.4050  -23.8190   21.5730 C   0  0  0  0  0  0  0  0  0  0  0  0
  -29.6280  -22.8790   22.3100 C   0  0  0  0  0  0  0  0  0  0  0  0
  -28.5180  -23.2370   23.0790 N   0  0  0  0  0  0  0  0  0  0  0  0
  -28.1760  -22.5940   23.7860 H   0  0  0  0  0  0  0  0  0  0  0  0
  -28.4400  -24.2110   23.3630 H   0  0  0  0  0  0  0  0  0  0  0  0
  -31.3790  -19.5890   21.4030 C   0  0  0  0  0  0  0  0  0  0  0  0
  -32.4170  -19.1800   20.8760 O   0  0  0  0  0  0  0  0  0  0  0  0
  -30.3580  -18.5900   21.9640 C   0  0  0  0  0  2  0  0  0  0  0  0
  -30.2450  -17.2540   21.2100 C   0  0  0  0  0  2  0  0  0  0  0  0
  -31.3610  -16.2370   21.5110 C   0  0  0  0  0  2  0  0  0  0  0  0
  -31.2130  -14.1760   20.1020 C   0  0  0  0  0  0  0  0  0  0  0  0
  -30.7250  -12.0890   18.8810 C   0  0  0  0  0  2  0  0  0  0  0  0
  -29.7200  -12.3190   17.7370 C   0  0  0  0  0  2  0  0  0  0  0  0
  -28.2690  -12.2420   18.2510 C   0  0  0  0  0  2  0  0  0  0  0  0
  -28.0390  -13.1090   19.5150 C   0  0  0  0  0  3  0  0  0  0  0  0
  -29.1350  -12.8320   20.5670 C   0  0  0  0  0  2  0  0  0  0  0  0
  -30.4560  -13.0620   19.9460 N   0  0  0  0  0  0  0  0  0  0  0  0
  -32.1520  -14.4800   19.3590 O   0  0  0  0  0  0  0  0  0  0  0  0
  -30.8900  -14.9020   21.1750 N   0  0  0  0  0  0  0  0  0  0  0  0
  -30.1670  -14.5120   21.7630 H   0  0  0  0  0  0  0  0  0  0  0  0
  -25.7250  -13.8380   20.3870 C   0  0  0  0  0  0  0  0  0  0  0  0
  -24.6350  -13.1160   20.8000 C   0  0  0  0  0  0  0  0  0  0  0  0
  -25.0100  -11.7410   20.6970 C   0  0  0  0  0  0  0  0  0  0  0  0
  -26.7000  -12.9040   20.0640 N   0  0  0  0  0  0  0  0  0  0  0  0
  -26.2730  -11.6370   20.3020 N   0  0  0  0  0  0  0  0  0  0  0  0
  -24.2230  -10.5180   20.8970 C   0  0  0  0  0  0  0  0  0  0  0  0
  -24.6120   -9.5330   21.8330 C   0  0  0  0  0  3  0  0  0  0  0  0
  -23.8290   -8.3740   22.0170 C   0  0  0  0  0  3  0  0  0  0  0  0
  -22.6430   -8.1900   21.2660 C   0  0  0  0  0  0  0  0  0  0  0  0
  -22.2750   -9.1620   20.3200 C   0  0  0  0  0  3  0  0  0  0  0  0
  -23.0570  -10.3140   20.1340 C   0  0  0  0  0  3  0  0  0  0  0  0
  -21.8340   -7.0830   21.3600 O   0  0  0  0  0  0  0  0  0  0  0  0
  -21.6910   -6.3940   22.5370 C   0  0  0  0  0  0  0  0  0  0  0  0
  -21.1870   -7.0100   23.7040 C   0  0  0  0  0  3  0  0  0  0  0  0
  -20.9910   -6.2470   24.8730 C   0  0  0  0  0  3  0  0  0  0  0  0
  -21.2900   -4.8710   24.8760 C   0  0  0  0  0  0  0  0  0  0  0  0
  -21.7880   -4.2560   23.7130 C   0  0  0  0  0  3  0  0  0  0  0  0
  -21.9840   -5.0160   22.5470 C   0  0  0  0  0  0  0  0  0  0  0  0
  -22.4450   -4.4150   21.4240 F   0  0  0  0  0  0  0  0  0  0  0  0
  -21.0940   -4.1370   25.9960 F   0  0  0  0  0  0  0  0  0  0  0  0
  -23.2900  -13.6640   21.1810 C   0  0  0  0  0  0  0  0  0  0  0  0
  -22.5820  -12.9800   22.0740 N   0  0  0  0  0  0  0  0  0  0  0  0
  -22.8800  -14.7290   20.7230 O   0  0  0  0  0  0  0  0  0  0  0  0
  -22.9290  -12.1180   22.4660 H   0  0  0  0  0  0  0  0  0  0  0  0
  -21.6790  -13.3250   22.3720 H   0  0  0  0  0  0  0  0  0  0  0  0
  -25.9640  -15.2010   20.2440 N   0  0  0  0  0  0  0  0  0  0  0  0
  -25.2520  -15.8990   20.4280 H   0  0  0  0  0  0  0  0  0  0  0  0
  -26.8250  -15.5960   19.8880 H   0  0  0  0  0  0  0  0  0  0  0  0
  -30.1320  -25.2900   21.5730 C   0  0  0  0  0  0  0  0  0  0  0  0
  -29.7060  -25.9030   22.5610 O   0  0  0  0  0  0  0  0  0  0  0  0
  -30.3940  -26.0510   20.2650 C   0  0  0  0  0  2  0  0  0  0  0  0
  -29.3920  -27.1910   20.0270 C   0  0  0  0  0  2  0  0  0  0  0  0
  -28.1370  -26.6590   19.5980 O   0  0  0  0  0  0  0  0  0  0  0  0
  -24.5010  -31.7150   23.0780 C   0  0  0  0  0  0  0  0  0  0  0  0
  -27.0080  -27.4420   19.7070 C   0  0  0  0  0  0  0  0  0  0  0  0
  -23.2150  -30.4110   21.4080 C   0  0  0  0  0  3  0  0  0  0  0  0
  -24.6020  -28.9260   19.8640 C   0  0  0  0  0  0  0  0  0  0  0  0
  -25.7270  -30.7700   21.1310 C   0  0  0  0  0  2  0  0  0  0  0  0
  -25.7760  -29.4310   20.4310 C   0  0  0  0  0  0  0  0  0  0  0  0
  -26.9770  -28.7060   20.3480 C   0  0  0  0  0  3  0  0  0  0  0  0
  -25.8140  -26.9410   19.1460 C   0  0  0  0  0  3  0  0  0  0  0  0
  -24.6130  -27.6760   19.2170 C   0  0  0  0  0  3  0  0  0  0  0  0
  -23.3660  -29.7860   19.9920 C   0  0  0  0  0  2  0  0  0  0  0  0
  -24.5010  -30.9750   21.9330 N   0  0  0  0  0  0  0  0  0  0  0  0
  -23.4440  -31.9740   23.6700 O   0  0  0  0  0  0  0  0  0  0  0  0
  -22.5830  -29.3550   22.3420 C   0  0  0  0  0  0  0  0  0  0  0  0
  -21.2510  -29.2060   22.2520 N   0  0  0  0  0  0  0  0  0  0  0  0
  -23.2830  -28.6770   23.0970 O   0  0  0  0  0  0  0  0  0  0  0  0
  -20.7510  -29.8050   21.6130 H   0  0  0  0  0  0  0  0  0  0  0  0
  -17.8700  -28.0710   22.8110 C   0  0  0  0  0  0  0  0  0  0  0  0
  -20.4420  -28.2460   23.0000 C   0  0  0  0  0  3  0  0  0  0  0  0
  -20.4840  -26.8490   22.3390 C   0  0  0  0  0  2  0  0  0  0  0  0
  -19.3370  -26.6140   21.3520 C   0  0  0  0  0  2  0  0  0  0  0  0
  -17.9850  -26.7570   22.0560 C   0  0  0  0  0  2  0  0  0  0  0  0
  -19.0250  -28.7790   23.2410 C   0  0  0  0  0  0  0  0  0  0  0  0
  -18.8630  -30.0140   23.9050 C   0  0  0  0  0  3  0  0  0  0  0  0
  -17.5800  -30.5390   24.1470 C   0  0  0  0  0  3  0  0  0  0  0  0
  -16.4410  -29.8260   23.7350 C   0  0  0  0  0  3  0  0  0  0  0  0
  -16.5870  -28.5950   23.0720 C   0  0  0  0  0  3  0  0  0  0  0  0
  -25.8210  -32.2920   23.6850 C   0  0  0  0  0  3  0  0  0  0  0  0
  -25.5510  -33.6750   24.0960 N   0  0  0  0  0  0  0  0  0  0  0  0
  -25.8980  -34.7570   23.3870 C   0  0  0  0  0  0  0  0  0  0  0  0
  -26.5500  -34.6950   22.3420 O   0  0  0  0  0  0  0  0  0  0  0  0
  -24.9750  -33.8000   24.9150 H   0  0  0  0  0  0  0  0  0  0  0  0
  -24.2140  -36.6090   23.1430 C   0  0  0  0  0  1  0  0  0  0  0  0
  -25.4480  -36.1290   23.9250 C   0  0  0  0  0  3  0  0  0  0  0  0
  -27.6030  -36.9130   24.7990 C   0  0  0  0  0  1  0  0  0  0  0  0
  -26.5070  -37.1590   23.8660 N   0  0  0  0  0  0  0  0  0  0  0  0
  -26.1240  -38.0800   24.0620 H   0  0  0  0  0  0  0  0  0  0  0  0
  -26.3710  -31.4440   24.8970 C   0  0  1  0  0  0  0  0  0  0  0  0
  -25.3090  -31.1560   25.9840 C   0  0  0  0  0  1  0  0  0  0  0  0
  -26.9250  -30.0880   24.4020 C   0  0  0  0  0  1  0  0  0  0  0  0
  -27.5510  -32.1880   25.5650 C   0  0  0  0  0  1  0  0  0  0  0  0
  1  2  2  0
  1  4  1  0
  2  5  1  0
  3  6  1  0
  4  3  2  0
  5  6  2  0
  6  7  1  0
  7  9  1  0
  7  8  1  0
 10  4  1  0
 10 12  1  0
 11 10  2  0
 13 14  1  0
 13 12  1  0
 15 23  1  0
 16 21  1  0
 17 18  1  0
 17 16  1  0
 19 18  1  0
 19 28  1  0
 19 20  1  0
 21 15  1  0
 21 20  1  0
 22 15  2  0
 23 14  1  0
 23 24  1  0
 25 26  2  0
 26 45  1  0
 27 26  1  0
 27 30  1  0
 28 29  1  0
 28 25  1  0
 29 27  2  0
 30 31  1  0
 31 32  2  0
 33 36  1  0
 33 32  1  0
 34 33  2  0
 35 34  1  0
 35 30  2  0
 36 37  1  0
 37 42  2  0
 37 38  1  0
 38 39  2  0
 39 40  1  0
 40 44  1  0
 41 40  2  0
 42 41  1  0
 43 42  1  0
 45 46  1  0
 46 49  1  0
 46 48  1  0
 47 45  2  0
 50 25  1  0
 50 51  1  0
 52 50  1  0
 53  5  1  0
 53 54  2  0
 55 53  1  0
 56 55  1  0
 57 59  1  0
 57 56  1  0
 58 69  2  0
 59 64  1  0
 60 68  1  0
 60 70  1  0
 61 67  1  0
 61 63  1  0
 62 68  1  0
 63 62  1  0
 64 63  2  0
 65 66  1  0
 65 59  2  0
 66 61  2  0
 67 60  1  0
 68 58  1  0
 70 72  2  0
 71 70  1  0
 73 71  1  0
 74 83  2  0
 74 79  1  0
 75 71  1  0
 75 79  1  0
 76 75  1  0
 77 78  1  0
 77 76  1  0
 78 74  1  0
 79 80  2  0
 80 81  1  0
 82 81  2  0
 83 82  1  0
 84 58  1  0
 84 85  1  0
 84 94  1  0
 85 88  1  0
 86 90  1  0
 86 85  1  0
 87 86  2  0
 90 89  1  0
 92 90  1  0
 92 93  1  0
 92 91  1  0
 94 97  1  1
 94 95  1  0
 96 94  1  0
M  ISO  4  15 100  23 100  56 101  57 101
M  END
>  <TORSDO>  (40) 
F 24

>  <SCORE>  (40) 
-11.991

>  <name>  (40) 
41

>  <ligand_id>  (40) 
41

>  <original_smiles>  (40) 
[H]c1c([H])c([H])c2c(c1[H])C([H])([H])C([H])([H])C([H])([H])C2([H])N([H])C(=O)C1([H])N(C(=O)C([H])(N([H])C(=O)C([H])(N([H])C([H])([H])[H])C([H])([H])[H])C(C([H])([H])[H])(C([H])([H])[H])C([H])([H])[H])C([H])([H])c2c([H])c(OC([H])([H])C([H])([H])C(=O)c3c([H])c([H])c(C(=O)C([H])([H])C([H])([H])C([H])([H])N([H])C(=O)N4C([H])([H])C([H])([H])C([H])([H])C([H])(n5nc(-c6c([H])c([H])c(Oc7c([H])c([H])c(F)c([H])c7F)c([H])c6[H])c(C(=O)N([H])[H])c5N([H])[H])C4([H])[H])c([H])c3N([H])[H])c([H])c([H])c2C1([H])[H]

>  <smiles>  (40) 
[H]c1c([H])c([H])c2c(c1[H])C([H])([H])C([H])([H])C([H])([H])C2([H])N([H])C(=O)C1([H])N(C(=O)C([H])(N([H])C(=O)C([H])(N([H])C([H])([H])[H])C([H])([H])[H])C(C([H])([H])[H])(C([H])([H])[H])C([H])([H])[H])C([H])([H])c2c([H])c(OC([H])([H])C([H])([H])C(=O)c3c([H])c([H])c(C(=O)C([H])([H])C([H])([H])C([H])([H])N([H])C(=O)N4C([H])([H])C([H])([H])C([H])([H])C([H])(n5nc(-c6c([H])c([H])c(Oc7c([H])c([H])c(F)c([H])c7F)c([H])c6[H])c(C(=O)N([H])[H])c5N([H])[H])C4([H])[H])c([H])c3N([H])[H])c([H])c([H])c2C1([H])[H]

$$$$
42:0:0
     RDKit          3D

 93101  0  0  1  0  0  0  0  0999 V2000
  -30.1010  -20.3740   20.8200 C   0  0  0  0  0  3  0  0  0  0  0  0
  -30.0820  -21.8000   20.8120 C   0  0  0  0  0  3  0  0  0  0  0  0
  -28.2080  -20.3800   19.3480 C   0  0  0  0  0  3  0  0  0  0  0  0
  -29.1500  -19.6160   20.0950 C   0  0  0  0  0  0  0  0  0  0  0  0
  -29.1240  -22.5710   20.0900 C   0  0  0  0  0  0  0  0  0  0  0  0
  -28.1920  -21.8110   19.3100 C   0  0  0  0  0  0  0  0  0  0  0  0
  -27.2140  -22.4560   18.3870 C   0  0  0  0  0  3  0  0  0  0  0  0
  -26.3300  -21.8480   17.7740 O   0  0  0  0  0  0  0  0  0  0  0  0
  -29.0690  -18.0780   20.0910 C   0  0  0  0  0  0  0  0  0  0  0  0
  -28.0990  -17.4970   19.5920 O   0  0  0  0  0  0  0  0  0  0  0  0
  -30.1840  -17.1610   20.7010 C   0  0  0  0  0  2  0  0  0  0  0  0
  -30.6050  -14.6220   20.4320 C   0  0  0  0  0  0  0  0  0  0  0  0
  -30.3750  -12.4000   19.3620 C   0  0  0  0  0  2  0  0  0  0  0  0
  -29.4420  -12.5600   18.1420 C   0  0  0  0  0  2  0  0  0  0  0  0
  -27.9690  -12.3940   18.5650 C   0  0  0  0  0  2  0  0  0  0  0  0
  -27.6030  -13.2450   19.8110 C   0  0  0  0  0  3  0  0  0  0  0  0
  -28.6580  -13.0890   20.9290 C   0  0  0  0  0  2  0  0  0  0  0  0
  -29.9680  -13.4160   20.3500 N   0  0  0  0  0  0  0  0  0  0  0  0
  -31.7770  -14.7680   20.0750 O   0  0  0  0  0  0  0  0  0  0  0  0
  -29.8260  -15.6990   20.7250 N   0  0  0  0  0  0  0  0  0  0  0  0
  -28.8500  -15.5070   20.8910 H   0  0  0  0  0  0  0  0  0  0  0  0
  -25.2060  -13.8320   20.5220 C   0  0  0  0  0  0  0  0  0  0  0  0
  -24.1410  -13.0530   20.8910 C   0  0  0  0  0  0  0  0  0  0  0  0
  -24.6110  -11.7040   20.8620 C   0  0  0  0  0  0  0  0  0  0  0  0
  -26.2560  -12.9580   20.2910 N   0  0  0  0  0  0  0  0  0  0  0  0
  -25.9010  -11.6730   20.5550 N   0  0  0  0  0  0  0  0  0  0  0  0
  -23.8900  -10.4400   21.0500 C   0  0  0  0  0  0  0  0  0  0  0  0
  -24.3210   -9.4770   21.9910 C   0  0  0  0  0  3  0  0  0  0  0  0
  -23.6020   -8.2740   22.1660 C   0  0  0  0  0  3  0  0  0  0  0  0
  -22.4380   -8.0260   21.4030 C   0  0  0  0  0  0  0  0  0  0  0  0
  -22.0250   -8.9780   20.4540 C   0  0  0  0  0  3  0  0  0  0  0  0
  -22.7440  -10.1700   20.2760 C   0  0  0  0  0  3  0  0  0  0  0  0
  -21.6910   -6.8750   21.4890 O   0  0  0  0  0  0  0  0  0  0  0  0
  -21.6350   -6.1370   22.6450 C   0  0  0  0  0  0  0  0  0  0  0  0
  -21.1780   -6.6910   23.8600 C   0  0  0  0  0  3  0  0  0  0  0  0
  -21.0700   -5.8790   25.0070 C   0  0  0  0  0  3  0  0  0  0  0  0
  -21.4060   -4.5150   24.9400 C   0  0  0  0  0  0  0  0  0  0  0  0
  -21.8560   -3.9600   23.7300 C   0  0  0  0  0  3  0  0  0  0  0  0
  -21.9680   -4.7700   22.5850 C   0  0  0  0  0  0  0  0  0  0  0  0
  -22.3810   -4.2250   21.4150 F   0  0  0  0  0  0  0  0  0  0  0  0
  -21.2960   -3.7340   26.0390 F   0  0  0  0  0  0  0  0  0  0  0  0
  -22.7410  -13.5250   21.1570 C   0  0  0  0  0  0  0  0  0  0  0  0
  -22.0090  -12.8220   22.0140 N   0  0  0  0  0  0  0  0  0  0  0  0
  -22.3040  -14.5540   20.6430 O   0  0  0  0  0  0  0  0  0  0  0  0
  -22.3720  -11.9890   22.4550 H   0  0  0  0  0  0  0  0  0  0  0  0
  -21.0680  -13.1190   22.2340 H   0  0  0  0  0  0  0  0  0  0  0  0
  -25.3620  -15.2040   20.3390 N   0  0  0  0  0  0  0  0  0  0  0  0
  -24.5830  -15.8480   20.4320 H   0  0  0  0  0  0  0  0  0  0  0  0
  -26.1920  -15.6480   19.9620 H   0  0  0  0  0  0  0  0  0  0  0  0
  -29.2720  -24.1110   20.0880 C   0  0  0  0  0  0  0  0  0  0  0  0
  -30.3660  -24.6290   19.8450 O   0  0  0  0  0  0  0  0  0  0  0  0
  -28.0850  -25.0690   20.4760 C   0  0  0  0  0  2  0  0  0  0  0  0
  -28.3270  -26.5120   20.2300 O   0  0  0  0  0  0  0  0  0  0  0  0
  -24.5880  -31.9040   23.2350 C   0  0  0  0  0  0  0  0  0  0  0  0
  -27.2040  -27.3460   20.2010 C   0  0  0  0  0  0  0  0  0  0  0  0
  -23.3870  -30.4960   21.6010 C   0  0  0  0  0  3  0  0  0  0  0  0
  -24.8400  -28.9450   20.1860 C   0  0  0  0  0  0  0  0  0  0  0  0
  -25.9260  -30.8190   21.4220 C   0  0  0  0  0  2  0  0  0  0  0  0
  -26.0080  -29.4400   20.7810 C   0  0  0  0  0  0  0  0  0  0  0  0
  -27.1950  -28.6520   20.7780 C   0  0  0  0  0  3  0  0  0  0  0  0
  -26.0170  -26.9060   19.5730 C   0  0  0  0  0  3  0  0  0  0  0  0
  -24.8460  -27.6830   19.5750 C   0  0  0  0  0  3  0  0  0  0  0  0
  -23.6020  -29.8160   20.2250 C   0  0  0  0  0  2  0  0  0  0  0  0
  -24.6530  -31.0890   22.1420 N   0  0  0  0  0  0  0  0  0  0  0  0
  -23.5030  -32.1840   23.7660 O   0  0  0  0  0  0  0  0  0  0  0  0
  -22.7240  -29.4820   22.5610 C   0  0  0  0  0  0  0  0  0  0  0  0
  -21.3990  -29.3040   22.4290 N   0  0  0  0  0  0  0  0  0  0  0  0
  -23.3990  -28.8610   23.3850 O   0  0  0  0  0  0  0  0  0  0  0  0
  -20.9130  -29.8550   21.7340 H   0  0  0  0  0  0  0  0  0  0  0  0
  -18.0160  -28.1280   22.9260 C   0  0  0  0  0  0  0  0  0  0  0  0
  -20.5760  -28.3710   23.1990 C   0  0  0  0  0  3  0  0  0  0  0  0
  -20.6700  -26.9390   22.6250 C   0  0  0  0  0  2  0  0  0  0  0  0
  -19.5670  -26.6210   21.6100 C   0  0  0  0  0  2  0  0  0  0  0  0
  -18.1860  -26.7750   22.2530 C   0  0  0  0  0  2  0  0  0  0  0  0
  -19.1390  -28.8830   23.3570 C   0  0  0  0  0  0  0  0  0  0  0  0
  -18.9260  -30.1500   23.9450 C   0  0  0  0  0  3  0  0  0  0  0  0
  -17.6250  -30.6590   24.1080 C   0  0  0  0  0  3  0  0  0  0  0  0
  -16.5170  -29.8990   23.6970 C   0  0  0  0  0  3  0  0  0  0  0  0
  -16.7130  -28.6350   23.1110 C   0  0  0  0  0  3  0  0  0  0  0  0
  -25.8690  -32.5380   23.8580 C   0  0  0  0  0  3  0  0  0  0  0  0
  -25.5600  -33.9380   24.1820 N   0  0  0  0  0  0  0  0  0  0  0  0
  -25.9000  -34.9870   23.4220 C   0  0  0  0  0  0  0  0  0  0  0  0
  -26.5800  -34.8790   22.3970 O   0  0  0  0  0  0  0  0  0  0  0  0
  -24.9580  -34.0960   24.9770 H   0  0  0  0  0  0  0  0  0  0  0  0
  -24.1880  -36.7870   23.0350 C   0  0  0  0  0  1  0  0  0  0  0  0
  -25.4120  -36.3780   23.8690 C   0  0  0  0  0  3  0  0  0  0  0  0
  -27.5350  -37.2520   24.7420 C   0  0  0  0  0  1  0  0  0  0  0  0
  -26.4540  -37.4240   23.7740 N   0  0  0  0  0  0  0  0  0  0  0  0
  -26.0490  -38.3480   23.9130 H   0  0  0  0  0  0  0  0  0  0  0  0
  -26.3810  -31.7710   25.1390 C   0  0  1  0  0  0  0  0  0  0  0  0
  -25.2830  -31.5350   26.2030 C   0  0  0  0  0  1  0  0  0  0  0  0
  -26.9670  -30.3930   24.7550 C   0  0  0  0  0  1  0  0  0  0  0  0
  -27.5290  -32.5690   25.8030 C   0  0  0  0  0  1  0  0  0  0  0  0
  2  1  1  0
  3  4  1  0
  4  1  2  0
  5  2  2  0
  6  3  2  0
  6  5  1  0
  7  6  1  0
  8  7  2  0
  9  4  1  0
  9 11  1  0
 10  9  2  0
 11 20  1  0
 12 20  1  0
 13 18  1  0
 14 15  1  0
 14 13  1  0
 16 15  1  0
 16 25  1  0
 16 17  1  0
 18 12  1  0
 18 17  1  0
 19 12  2  0
 20 21  1  0
 22 23  2  0
 23 42  1  0
 24 23  1  0
 24 27  1  0
 25 22  1  0
 25 26  1  0
 26 24  2  0
 27 28  1  0
 28 29  2  0
 30 33  1  0
 30 29  1  0
 31 30  2  0
 32 31  1  0
 32 27  2  0
 33 34  1  0
 34 35  1  0
 35 36  2  0
 37 36  1  0
 37 41  1  0
 38 37  2  0
 39 34  2  0
 39 38  1  0
 40 39  1  0
 42 43  1  0
 43 46  1  0
 43 45  1  0
 44 42  2  0
 47 48  1  0
 47 22  1  0
 49 47  1  0
 50  5  1  0
 50 52  1  0
 51 50  2  0
 53 52  1  0
 54 65  2  0
 55 53  1  0
 55 60  1  0
 56 64  1  0
 56 66  1  0
 57 63  1  0
 57 59  1  0
 58 64  1  0
 59 58  1  0
 60 59  2  0
 61 62  1  0
 61 55  2  0
 62 57  2  0
 63 56  1  0
 64 54  1  0
 66 68  2  0
 67 66  1  0
 69 67  1  0
 70 79  2  0
 70 75  1  0
 71 67  1  0
 71 75  1  0
 72 71  1  0
 73 74  1  0
 73 72  1  0
 74 70  1  0
 75 76  2  0
 76 77  1  0
 78 77  2  0
 79 78  1  0
 80 54  1  0
 80 81  1  0
 80 90  1  0
 81 84  1  0
 82 86  1  0
 82 81  1  0
 83 82  2  0
 86 85  1  0
 88 86  1  0
 88 89  1  0
 88 87  1  0
 90 93  1  1
 90 91  1  0
 92 90  1  0
M  ISO  4  12 100  20 100  52 101  53 101
M  END
>  <TORSDO>  (41) 
F 21

>  <SCORE>  (41) 
-13.935

>  <name>  (41) 
42

>  <ligand_id>  (41) 
42

>  <original_smiles>  (41) 
[H]C(=O)c1c([H])c(C(=O)C([H])([H])N([H])C(=O)N2C([H])([H])C([H])([H])C([H])([H])C([H])(n3nc(-c4c([H])c([H])c(Oc5c([H])c([H])c(F)c([H])c5F)c([H])c4[H])c(C(=O)N([H])[H])c3N([H])[H])C2([H])[H])c([H])c([H])c1C(=O)C([H])([H])Oc1c([H])c([H])c2c(c1[H])C([H])([H])N(C(=O)C([H])(N([H])C(=O)C([H])(N([H])C([H])([H])[H])C([H])([H])[H])C(C([H])([H])[H])(C([H])([H])[H])C([H])([H])[H])C([H])(C(=O)N([H])C1([H])c3c([H])c([H])c([H])c([H])c3C([H])([H])C([H])([H])C1([H])[H])C2([H])[H]

>  <smiles>  (41) 
[H]C(=O)c1c([H])c(C(=O)C([H])([H])N([H])C(=O)N2C([H])([H])C([H])([H])C([H])([H])C([H])(n3nc(-c4c([H])c([H])c(Oc5c([H])c([H])c(F)c([H])c5F)c([H])c4[H])c(C(=O)N([H])[H])c3N([H])[H])C2([H])[H])c([H])c([H])c1C(=O)C([H])([H])Oc1c([H])c([H])c2c(c1[H])C([H])([H])N(C(=O)C([H])(N([H])C(=O)C([H])(N([H])C([H])([H])[H])C([H])([H])[H])C(C([H])([H])[H])(C([H])([H])[H])C([H])([H])[H])C([H])(C(=O)N([H])C1([H])c3c([H])c([H])c([H])c([H])c3C([H])([H])C([H])([H])C1([H])[H])C2([H])[H]

$$$$
43:0:0
     RDKit          3D

102110  0  0  1  0  0  0  0  0999 V2000
  -32.1530  -20.5200   20.9860 C   0  0  0  0  0  3  0  0  0  0  0  0
  -32.3100  -21.9060   21.1670 C   0  0  0  0  0  3  0  0  0  0  0  0
  -30.3060  -20.9410   19.4710 C   0  0  0  0  0  3  0  0  0  0  0  0
  -30.4230  -22.3340   19.6660 C   0  0  0  0  0  0  0  0  0  0  0  0
  -31.1550  -20.0320   20.1240 C   0  0  0  0  0  0  0  0  0  0  0  0
  -31.4640  -22.8340   20.5010 C   0  0  0  0  0  0  0  0  0  0  0  0
  -29.4530  -23.1730   18.8860 C   0  0  0  0  0  0  0  0  0  0  0  0
  -28.9450  -22.7130   17.8590 O   0  0  0  0  0  0  0  0  0  0  0  0
  -29.0540  -24.5820   19.3790 C   0  0  0  0  0  3  0  0  0  0  0  0
  -28.8550  -24.5600   20.8470 N   0  0  0  0  0  4  0  0  0  0  0  0
  -28.0570  -24.0100   21.1180 H   0  0  0  0  0  0  0  0  0  0  0  0
  -28.7530  -25.4940   21.2030 H   0  0  0  0  0  0  0  0  0  0  0  0
  -29.6790  -24.1490   21.2630 H   0  0  0  0  0  0  0  0  0  0  0  0
  -27.7830  -25.1110   18.6650 C   0  0  0  0  0  2  0  0  0  0  0  0
  -27.7880  -26.5170   18.8650 O   0  0  0  0  0  0  0  0  0  0  0  0
  -24.5220  -31.3700   22.7910 C   0  0  0  0  0  0  0  0  0  0  0  0
  -26.6110  -27.2180   19.0010 C   0  0  0  0  0  0  0  0  0  0  0  0
  -23.0850  -30.2460   21.1150 C   0  0  0  0  0  3  0  0  0  0  0  0
  -24.3080  -28.8080   19.3930 C   0  0  0  0  0  0  0  0  0  0  0  0
  -25.5960  -30.4960   20.7220 C   0  0  0  0  0  2  0  0  0  0  0  0
  -25.5350  -29.2070   19.9330 C   0  0  0  0  0  0  0  0  0  0  0  0
  -26.6810  -28.4140   19.7410 C   0  0  0  0  0  3  0  0  0  0  0  0
  -25.3690  -26.8260   18.4470 C   0  0  0  0  0  3  0  0  0  0  0  0
  -24.2170  -27.6180   18.6480 C   0  0  0  0  0  3  0  0  0  0  0  0
  -23.1270  -29.7190   19.6520 C   0  0  0  0  0  2  0  0  0  0  0  0
  -24.4250  -30.7110   21.6020 N   0  0  0  0  0  0  0  0  0  0  0  0
  -23.5130  -31.6350   23.4580 O   0  0  0  0  0  0  0  0  0  0  0  0
  -22.4540  -29.1580   22.0100 C   0  0  0  0  0  0  0  0  0  0  0  0
  -21.1150  -29.0770   21.9950 N   0  0  0  0  0  0  0  0  0  0  0  0
  -23.1620  -28.3940   22.6720 O   0  0  0  0  0  0  0  0  0  0  0  0
  -20.6060  -29.7430   21.4280 H   0  0  0  0  0  0  0  0  0  0  0  0
  -17.7210  -28.0390   22.6620 C   0  0  0  0  0  0  0  0  0  0  0  0
  -20.3050  -28.1030   22.7230 C   0  0  0  0  0  3  0  0  0  0  0  0
  -20.2550  -26.7510   21.9730 C   0  0  0  0  0  2  0  0  0  0  0  0
  -19.0490  -26.6240   21.0370 C   0  0  0  0  0  2  0  0  0  0  0  0
  -17.7400  -26.7740   21.8200 C   0  0  0  0  0  2  0  0  0  0  0  0
  -18.9260  -28.6700   23.0730 C   0  0  0  0  0  0  0  0  0  0  0  0
  -18.8520  -29.8620   23.8260 C   0  0  0  0  0  3  0  0  0  0  0  0
  -17.6070  -30.4210   24.1690 C   0  0  0  0  0  3  0  0  0  0  0  0
  -16.4180  -29.7830   23.7760 C   0  0  0  0  0  3  0  0  0  0  0  0
  -16.4770  -28.5940   23.0280 C   0  0  0  0  0  3  0  0  0  0  0  0
  -25.8980  -31.8440   23.3570 C   0  0  0  0  0  3  0  0  0  0  0  0
  -26.5060  -30.8550   24.4230 C   0  0  1  0  0  0  0  0  0  0  0  0
  -25.5240  -30.4860   25.5600 C   0  0  0  0  0  1  0  0  0  0  0  0
  -26.9630  -29.5400   23.7460 C   0  0  0  0  0  1  0  0  0  0  0  0
  -27.7680  -31.4820   25.0610 C   0  0  0  0  0  1  0  0  0  0  0  0
  -25.7010  -33.1780   23.9380 N   0  0  0  0  0  0  0  0  0  0  0  0
  -26.1110  -34.3220   23.3740 C   0  0  0  0  0  0  0  0  0  0  0  0
  -26.7690  -34.3550   22.3300 O   0  0  0  0  0  0  0  0  0  0  0  0
  -25.1250  -33.2310   24.7650 H   0  0  0  0  0  0  0  0  0  0  0  0
  -24.5560  -36.2960   23.3490 C   0  0  0  0  0  1  0  0  0  0  0  0
  -25.7340  -35.6360   24.0820 C   0  0  0  0  0  3  0  0  0  0  0  0
  -27.9100  -36.1580   25.0930 C   0  0  0  0  0  1  0  0  0  0  0  0
  -26.8570  -36.5950   24.1790 N   0  0  0  0  0  0  0  0  0  0  0  0
  -26.5270  -37.5070   24.4860 H   0  0  0  0  0  0  0  0  0  0  0  0
  -32.9360  -24.7300   20.7230 C   0  0  0  0  0  1  0  0  0  0  0  0
  -31.6110  -24.2000   20.6400 O   0  0  0  0  0  0  0  0  0  0  0  0
  -31.0180  -18.5500   19.8170 C   0  0  0  0  0  3  0  0  0  0  0  0
  -32.3260  -18.0390   19.3860 N   0  0  0  0  0  4  0  0  0  0  0  0
  -32.9890  -18.1180   20.1340 H   0  0  0  0  0  0  0  0  0  0  0  0
  -32.6560  -18.5940   18.6170 H   0  0  0  0  0  0  0  0  0  0  0  0
  -32.2670  -17.0830   19.0890 H   0  0  0  0  0  0  0  0  0  0  0  0
  -30.4020  -17.7010   20.9550 C   0  0  0  0  0  2  0  0  0  0  0  0
  -29.3910  -16.6890   20.3770 C   0  0  0  0  0  2  0  0  0  0  0  0
  -30.2600  -14.3970   20.5400 C   0  0  0  0  0  0  0  0  0  0  0  0
  -30.0820  -12.2280   19.4080 C   0  0  0  0  0  2  0  0  0  0  0  0
  -29.1200  -12.4210   18.2190 C   0  0  0  0  0  2  0  0  0  0  0  0
  -27.6580  -12.2000   18.6570 C   0  0  0  0  0  2  0  0  0  0  0  0
  -27.2900  -13.0050   19.9330 C   0  0  0  0  0  3  0  0  0  0  0  0
  -28.3660  -12.8210   21.0300 C   0  0  0  0  0  2  0  0  0  0  0  0
  -29.6760  -13.1750   20.4550 N   0  0  0  0  0  0  0  0  0  0  0  0
  -31.3490  -14.6760   20.0300 O   0  0  0  0  0  0  0  0  0  0  0  0
  -29.4390  -15.3590   20.9850 N   0  0  0  0  0  0  0  0  0  0  0  0
  -28.5850  -15.0340   21.4130 H   0  0  0  0  0  0  0  0  0  0  0  0
  -24.9240  -13.4940   20.8260 C   0  0  0  0  0  0  0  0  0  0  0  0
  -23.8730  -12.6690   21.1300 C   0  0  0  0  0  0  0  0  0  0  0  0
  -24.3320  -11.3390   20.8790 C   0  0  0  0  0  0  0  0  0  0  0  0
  -25.9570  -12.6610   20.4230 N   0  0  0  0  0  0  0  0  0  0  0  0
  -25.6070  -11.3520   20.5080 N   0  0  0  0  0  0  0  0  0  0  0  0
  -23.6140  -10.0580   20.9170 C   0  0  0  0  0  0  0  0  0  0  0  0
  -24.1230   -8.9470   21.6250 C   0  0  0  0  0  3  0  0  0  0  0  0
  -23.4020   -7.7340   21.6640 C   0  0  0  0  0  3  0  0  0  0  0  0
  -22.1600   -7.6220   20.9920 C   0  0  0  0  0  0  0  0  0  0  0  0
  -21.6710   -8.7250   20.2700 C   0  0  0  0  0  3  0  0  0  0  0  0
  -22.3920   -9.9310   20.2280 C   0  0  0  0  0  3  0  0  0  0  0  0
  -21.4070   -6.4760   20.9510 O   0  0  0  0  0  0  0  0  0  0  0  0
  -21.5040   -5.5160   21.9280 C   0  0  0  0  0  0  0  0  0  0  0  0
  -21.1880   -5.7900   23.2770 C   0  0  0  0  0  3  0  0  0  0  0  0
  -21.2350   -4.7570   24.2350 C   0  0  0  0  0  3  0  0  0  0  0  0
  -21.5870   -3.4520   23.8460 C   0  0  0  0  0  0  0  0  0  0  0  0
  -21.8970   -3.1750   22.5030 C   0  0  0  0  0  3  0  0  0  0  0  0
  -21.8540   -4.2060   21.5460 C   0  0  0  0  0  0  0  0  0  0  0  0
  -22.1340   -3.9290   20.2510 F   0  0  0  0  0  0  0  0  0  0  0  0
  -21.6250   -2.4600   24.7660 F   0  0  0  0  0  0  0  0  0  0  0  0
  -22.4910  -13.0930   21.5370 C   0  0  0  0  0  0  0  0  0  0  0  0
  -21.8090  -12.2800   22.3360 N   0  0  0  0  0  0  0  0  0  0  0  0
  -22.0280  -14.1800   21.1900 O   0  0  0  0  0  0  0  0  0  0  0  0
  -22.1960  -11.3980   22.6350 H   0  0  0  0  0  0  0  0  0  0  0  0
  -20.8860  -12.5440   22.6520 H   0  0  0  0  0  0  0  0  0  0  0  0
  -25.0780  -14.8760   20.8460 N   0  0  0  0  0  0  0  0  0  0  0  0
  -24.3100  -15.4950   21.0790 H   0  0  0  0  0  0  0  0  0  0  0  0
  -25.9120  -15.3710   20.5550 H   0  0  0  0  0  0  0  0  0  0  0  0
  1  2  1  0
  3  4  2  0
  3  5  1  0
  4  6  1  0
  5  1  2  0
  6 57  1  0
  6  2  2  0
  7  9  1  0
  7  4  1  0
  8  7  2  0
  9 14  1  0
  9 10  1  0
 10 11  1  0
 10 12  1  0
 10 13  1  0
 14 15  1  0
 15 17  1  0
 16 27  2  0
 17 22  1  0
 18 26  1  0
 18 28  1  0
 19 25  1  0
 19 21  1  0
 20 26  1  0
 21 20  1  0
 22 21  2  0
 23 24  1  0
 23 17  2  0
 24 19  2  0
 25 18  1  0
 26 16  1  0
 28 30  2  0
 29 28  1  0
 31 29  1  0
 32 41  2  0
 32 37  1  0
 33 29  1  0
 33 37  1  0
 34 33  1  0
 35 36  1  0
 35 34  1  0
 36 32  1  0
 37 38  2  0
 38 39  1  0
 40 39  2  0
 41 40  1  0
 42 16  1  0
 42 47  1  0
 42 43  1  0
 43 46  1  1
 43 44  1  0
 45 43  1  0
 47 50  1  0
 48 47  1  0
 48 52  1  0
 49 48  2  0
 52 51  1  0
 52 54  1  0
 54 55  1  0
 54 53  1  0
 57 56  1  0
 58  5  1  0
 58 63  1  0
 59 58  1  0
 59 60  1  0
 61 59  1  0
 62 59  1  0
 64 63  1  0
 64 73  1  0
 65 73  1  0
 66 71  1  0
 67 68  1  0
 67 66  1  0
 69 68  1  0
 69 78  1  0
 69 70  1  0
 71 65  1  0
 71 70  1  0
 72 65  2  0
 73 74  1  0
 75100  1  0
 75 76  2  0
 76 95  1  0
 77 80  1  0
 77 76  1  0
 78 79  1  0
 78 75  1  0
 79 77  2  0
 80 81  1  0
 81 82  2  0
 83 82  1  0
 84 83  2  0
 85 84  1  0
 85 80  2  0
 86 83  1  0
 86 87  1  0
 87 88  1  0
 88 89  2  0
 90 89  1  0
 90 94  1  0
 91 90  2  0
 92 87  2  0
 92 91  1  0
 93 92  1  0
 95 96  1  0
 96 98  1  0
 96 99  1  0
 97 95  2  0
100101  1  0
102100  1  0
M  ISO  4  14 101  15 101  65 100  73 100
M  END
>  <TORSDO>  (42) 
F 25

>  <SCORE>  (42) 
-9.810

>  <name>  (42) 
43

>  <ligand_id>  (42) 
43

>  <original_smiles>  (42) 
[H]c1c([H])c([H])c2c(c1[H])C([H])([H])C([H])([H])C([H])([H])C2([H])N([H])C(=O)C1([H])N(C(=O)C([H])(N([H])C(=O)C([H])(N([H])C([H])([H])[H])C([H])([H])[H])C(C([H])([H])[H])(C([H])([H])[H])C([H])([H])[H])C([H])([H])c2c([H])c(OC([H])([H])C([H])(C(=O)c3c([H])c(C([H])(C([H])([H])C([H])([H])N([H])C(=O)N4C([H])([H])C([H])([H])C([H])([H])C([H])(n5nc(-c6c([H])c([H])c(Oc7c([H])c([H])c(F)c([H])c7F)c([H])c6[H])c(C(=O)N([H])[H])c5N([H])[H])C4([H])[H])[N+]([H])([H])[H])c([H])c([H])c3OC([H])([H])[H])[N+]([H])([H])[H])c([H])c([H])c2C1([H])[H]

>  <smiles>  (42) 
[H]c1c([H])c([H])c2c(c1[H])C([H])([H])C([H])([H])C([H])([H])C2([H])N([H])C(=O)C1([H])N(C(=O)C([H])(N([H])C(=O)C([H])(N([H])C([H])([H])[H])C([H])([H])[H])C(C([H])([H])[H])(C([H])([H])[H])C([H])([H])[H])C([H])([H])c2c([H])c(OC([H])([H])C([H])(C(=O)c3c([H])c(C([H])(C([H])([H])C([H])([H])N([H])C(=O)N4C([H])([H])C([H])([H])C([H])([H])C([H])(n5nc(-c6c([H])c([H])c(Oc7c([H])c([H])c(F)c([H])c7F)c([H])c6[H])c(C(=O)N([H])[H])c5N([H])[H])C4([H])[H])[N+]([H])([H])[H])c([H])c([H])c3OC([H])([H])[H])[N+]([H])([H])[H])c([H])c([H])c2C1([H])[H]

$$$$
44:0:0
     RDKit          3D

105105  0  0  1  0  0  0  0  0999 V2000
  -23.1100  -24.8730   21.8190 C   0  0  0  0  0  2  0  0  0  0  0  0
  -22.3120  -25.3790   20.5790 N   0  0  0  0  0  0  0  0  0  0  0  0
  -22.9470  -26.0660   20.2020 H   0  0  0  0  0  0  0  0  0  0  0  0
  -23.0990  -23.8980   19.6850 C   0  0  0  0  0  1  0  0  0  0  0  0
  -24.8160  -22.6010   19.8060 C   0  0  0  0  0 15  0  0  0  0  0  0
  -25.7330  -20.6630   19.7480 C   0  0  0  0  0 15  0  0  0  0  0  0
  -27.5150  -19.4740   19.7120 C   0  0  0  0  0 15  0  0  0  0  0  0
  -29.6510  -16.6910   19.8850 C   0  0  0  0  0  0  0  0  0  0  0  0
  -30.6270  -14.1480   19.3460 C   0  0  0  0  0  2  0  0  0  0  0  0
  -29.9300  -13.4000   18.1640 C   0  0  0  0  0  2  0  0  0  0  0  0
  -28.5280  -12.9180   18.5710 C   0  0  0  0  0  2  0  0  0  0  0  0
  -27.8680  -13.9820   19.4770 C   0  0  0  0  0  3  0  0  0  0  0  0
  -28.7200  -14.4090   20.6570 C   0  0  0  0  0  2  0  0  0  0  0  0
  -29.6920  -15.2210   19.9890 N   0  0  0  0  0  0  0  0  0  0  0  0
  -30.8890  -16.9230   19.6860 O   0  0  0  0  0  0  0  0  0  0  0  0
  -28.3420  -17.7310   19.8890 N   0  0  0  0  0  2  0  0  0  0  0  0
  -27.5680  -17.1120   20.1080 H   0  0  0  0  0  0  0  0  0  0  0  0
  -25.5710  -14.5840   20.2260 C   0  0  0  0  0  0  0  0  0  0  0  0
  -24.5200  -13.8230   20.6370 C   0  0  0  0  0  0  0  0  0  0  0  0
  -24.9870  -12.4710   20.6370 C   0  0  0  0  0  0  0  0  0  0  0  0
  -26.5730  -13.6750   19.9660 N   0  0  0  0  0  0  0  0  0  0  0  0
  -26.2620  -12.4080   20.2980 N   0  0  0  0  0  0  0  0  0  0  0  0
  -24.2740  -11.2200   20.8580 C   0  0  0  0  0  0  0  0  0  0  0  0
  -24.6490  -10.3260   21.8850 C   0  0  0  0  0  3  0  0  0  0  0  0
  -23.9290   -9.1300   22.0800 C   0  0  0  0  0  3  0  0  0  0  0  0
  -22.8260   -8.8250   21.2450 C   0  0  0  0  0  0  0  0  0  0  0  0
  -22.4820   -9.7040   20.2030 C   0  0  0  0  0  3  0  0  0  0  0  0
  -23.2020  -10.8920   20.0080 C   0  0  0  0  0  3  0  0  0  0  0  0
  -22.0790   -7.6790   21.3460 O   0  0  0  0  0  0  0  0  0  0  0  0
  -21.7940   -7.1150   22.5630 C   0  0  0  0  0  0  0  0  0  0  0  0
  -21.1950   -7.8530   23.6060 C   0  0  0  0  0  3  0  0  0  0  0  0
  -20.8520   -7.2130   24.8140 C   0  0  0  0  0  3  0  0  0  0  0  0
  -21.1020   -5.8370   24.9780 C   0  0  0  0  0  0  0  0  0  0  0  0
  -21.6970   -5.1010   23.9380 C   0  0  0  0  0  3  0  0  0  0  0  0
  -22.0390   -5.7380   22.7340 C   0  0  0  0  0  0  0  0  0  0  0  0
  -22.5900   -5.0190   21.7270 F   0  0  0  0  0  0  0  0  0  0  0  0
  -20.7680   -5.2210   26.1360 F   0  0  0  0  0  0  0  0  0  0  0  0
  -23.1310  -14.3140   20.8970 C   0  0  0  0  0  0  0  0  0  0  0  0
  -22.4130  -13.6530   21.7940 N   0  0  0  0  0  0  0  0  0  0  0  0
  -22.6980  -15.3180   20.3340 O   0  0  0  0  0  0  0  0  0  0  0  0
  -22.7880  -12.8410   22.2650 H   0  0  0  0  0  0  0  0  0  0  0  0
  -21.4750  -13.9530   22.0120 H   0  0  0  0  0  0  0  0  0  0  0  0
  -25.7560  -15.9510   20.0110 N   0  0  0  0  0  0  0  0  0  0  0  0
  -24.9240  -16.5350   20.0230 H   0  0  0  0  0  0  0  0  0  0  0  0
  -26.3920  -16.2320   19.2760 H   0  0  0  0  0  0  0  0  0  0  0  0
  -20.7530  -26.7550   20.7230 C   0  0  0  0  0  2  0  0  0  0  0  0
  -18.5720  -26.2470   22.5990 C   0  0  0  0  0  2  0  0  0  0  0  0
  -18.6080  -26.4270   23.8480 O   0  0  0  0  0  1  0  0  0  0  0  0
  -17.1510  -25.5460   22.3570 C   0  0  0  0  0  2  0  0  0  0  0  0
  -16.2900  -25.6690   23.5600 N   0  0  0  0  0  4  0  0  0  0  0  0
  -16.8760  -25.4600   24.3520 H   0  0  0  0  0  0  0  0  0  0  0  0
  -15.4860  -25.0680   23.5430 H   0  0  0  0  0  0  0  0  0  0  0  0
  -16.0040  -26.6260   23.6690 H   0  0  0  0  0  0  0  0  0  0  0  0
  -22.7410  -23.4870   22.4400 C   0  0  0  0  0  2  0  0  0  0  0  0
  -23.8490  -22.8350   23.3020 C   0  0  0  0  0  2  0  0  0  0  0  0
  -25.2110  -22.5900   22.6220 C   0  0  0  0  0  2  0  0  0  0  0  0
  -26.0500  -23.8730   22.4450 C   0  0  0  0  0  2  0  0  0  0  0  0
  -27.3390  -23.6700   21.6310 C   0  0  0  0  0  2  0  0  0  0  0  0
  -27.9530  -24.9800   21.3050 N   0  0  0  0  0  4  0  0  0  0  0  0
  -28.9080  -24.9560   21.6220 H   0  0  0  0  0  0  0  0  0  0  0  0
  -27.4870  -25.6940   21.8370 H   0  0  0  0  0  0  0  0  0  0  0  0
  -27.9700  -25.3730   19.8740 C   0  0  0  0  0  2  0  0  0  0  0  0
  -27.3410  -26.7610   19.6330 C   0  0  0  0  0  2  0  0  0  0  0  0
  -27.5590  -27.2720   18.1940 C   0  0  0  0  0  2  0  0  0  0  0  0
  -27.5080  -28.6990   18.1430 O   0  0  0  0  0  0  0  0  0  0  0  0
  -24.5710  -31.7630   23.8150 C   0  0  0  0  0  0  0  0  0  0  0  0
  -26.3930  -29.3310   18.6460 C   0  0  0  0  0  0  0  0  0  0  0  0
  -23.0950  -31.3780   21.8880 C   0  0  0  0  0  3  0  0  0  0  0  0
  -24.1830  -30.7170   19.7080 C   0  0  0  0  0  0  0  0  0  0  0  0
  -25.5780  -31.7300   21.5310 C   0  0  0  0  0  2  0  0  0  0  0  0
  -25.4420  -30.8480   20.3060 C   0  0  0  0  0  0  0  0  0  0  0  0
  -26.5520  -30.1630   19.7730 C   0  0  0  0  0  3  0  0  0  0  0  0
  -25.1140  -29.1930   18.0610 C   0  0  0  0  0  3  0  0  0  0  0  0
  -24.0100  -29.8820   18.5890 C   0  0  0  0  0  3  0  0  0  0  0  0
  -23.0520  -31.4840   20.3380 C   0  0  0  0  0  2  0  0  0  0  0  0
  -24.4400  -31.6390   22.4640 N   0  0  0  0  0  0  0  0  0  0  0  0
  -23.5810  -31.7500   24.5620 O   0  0  0  0  0  0  0  0  0  0  0  0
  -22.6250  -29.9730   22.2640 C   0  0  0  0  0  0  0  0  0  0  0  0
  -21.3700  -29.7220   22.0210 N   0  0  0  0  0  0  0  0  0  0  0  0
  -23.3600  -29.1050   22.7270 O   0  0  0  0  0  0  0  0  0  0  0  0
  -20.7990  -30.4680   21.6450 H   0  0  0  0  0  0  0  0  0  0  0  0
  -17.8390  -28.8250   21.8220 C   0  0  0  0  0  0  0  0  0  0  0  0
  -20.6960  -28.5540   22.4940 C   0  0  0  0  0  2  0  0  0  0  0  0
  -21.0900  -26.6180   21.9160 C   0  0  0  0  0  1  0  0  0  0  0  0
  -19.1400  -25.7580   20.7330 C   0  0  0  0  0  1  0  0  0  0  0  0
  -17.7380  -27.3430   20.7040 C   0  0  0  0  0  1  0  0  0  0  0  0
  -19.1200  -29.3020   22.5760 C   0  0  0  0  0  0  0  0  0  0  0  0
  -18.9710  -30.0110   23.8360 C   0  0  0  0  0  3  0  0  0  0  0  0
  -17.7440  -30.3050   24.4630 C   0  0  0  0  0  3  0  0  0  0  0  0
  -16.5720  -29.8730   23.8330 C   0  0  0  0  0  3  0  0  0  0  0  0
  -16.6370  -29.1680   22.5860 C   0  0  0  0  0  3  0  0  0  0  0  0
  -25.9690  -31.9390   24.4800 C   0  0  0  0  0  3  0  0  0  0  0  0
  -25.9970  -33.2830   25.0710 N   0  0  0  0  0  0  0  0  0  0  0  0
  -26.6060  -34.3370   24.5150 C   0  0  0  0  0  0  0  0  0  0  0  0
  -27.2710  -34.2550   23.4790 O   0  0  0  0  0  0  0  0  0  0  0  0
  -25.4330  -33.4290   25.8950 H   0  0  0  0  0  0  0  0  0  0  0  0
  -25.4400  -36.5650   24.4640 C   0  0  0  0  0  1  0  0  0  0  0  0
  -26.4550  -35.6960   25.2220 C   0  0  0  0  0  3  0  0  0  0  0  0
  -28.6720  -35.7950   26.2730 C   0  0  0  0  0  1  0  0  0  0  0  0
  -27.7300  -36.4330   25.3570 N   0  0  0  0  0  0  0  0  0  0  0  0
  -27.5630  -37.3800   25.6870 H   0  0  0  0  0  0  0  0  0  0  0  0
  -26.2950  -30.8380   25.5620 C   0  0  1  0  0  0  0  0  0  0  0  0
  -25.1960  -30.6650   26.6350 C   0  0  0  0  0  1  0  0  0  0  0  0
  -26.5260  -29.4630   24.8900 C   0  0  0  0  0  1  0  0  0  0  0  0
  -27.6060  -31.1980   26.2930 C   0  0  0  0  0  1  0  0  0  0  0  0
  1 54  1  0
  2  1  1  0
  3  2  1  0
  4  2  1  0
  8 16  1  0
  8 14  1  0
  9 14  1  0
 10 11  1  0
 10  9  1  0
 12 11  1  0
 12 21  1  0
 12 13  1  0
 14 13  1  0
 15  8  2  0
 16 17  1  0
 18 19  2  0
 19 38  1  0
 20 19  1  0
 20 23  1  0
 21 18  1  0
 21 22  1  0
 22 20  2  0
 23 24  1  0
 24 25  2  0
 26 29  1  0
 26 25  1  0
 27 26  2  0
 28 27  1  0
 28 23  2  0
 29 30  1  0
 30 35  2  0
 30 31  1  0
 31 32  2  0
 32 33  1  0
 33 37  1  0
 34 33  2  0
 35 34  1  0
 36 35  1  0
 38 39  1  0
 39 42  1  0
 39 41  1  0
 40 38  2  0
 43 44  1  0
 43 18  1  0
 45 43  1  0
 46 85  1  0
 46 84  1  0
 47 48  1  0
 49 47  1  0
 49 50  1  0
 50 53  1  0
 50 51  1  0
 52 50  1  0
 54 55  1  0
 56 55  1  0
 57 56  1  0
 58 57  1  0
 59 60  1  0
 59 58  1  0
 59 61  1  0
 62 59  1  0
 63 62  1  0
 64 63  1  0
 65 64  1  0
 65 67  1  0
 66 77  2  0
 67 72  1  0
 68 78  1  0
 68 76  1  0
 69 71  1  0
 69 75  1  0
 70 76  1  0
 71 70  1  0
 72 71  2  0
 73 74  1  0
 73 67  2  0
 74 69  2  0
 75 68  1  0
 76 66  1  0
 78 80  2  0
 79 78  1  0
 79 83  1  0
 81 79  1  0
 82 87  2  0
 82 91  1  0
 83 87  1  0
 86 82  1  0
 87 88  1  0
 88 89  2  0
 90 89  1  0
 91 90  2  0
 92 66  1  0
 92 93  1  0
 92102  1  0
 93 96  1  0
 94 93  1  0
 94 98  1  0
 95 94  2  0
 98 97  1  0
 98100  1  0
100101  1  0
100 99  1  0
102105  1  1
102103  1  0
104102  1  0
M  ISO  4   8 100  16 100  64 101  65 101
M  END
>  <TORSDO>  (43) 
F 34

>  <SCORE>  (43) 
1.210

>  <name>  (43) 
44

>  <ligand_id>  (43) 
44

>  <original_smiles>  (43) 
[H]c1c([H])c([H])c2c(c1[H])C([H])([H])C([H])([H])C([H])([H])C2([H])N([H])C(=O)C1([H])N(C(=O)C([H])(N([H])C(=O)C([H])(N([H])C([H])([H])[H])C([H])([H])[H])C(C([H])([H])[H])(C([H])([H])[H])C([H])([H])[H])C([H])([H])c2c([H])c(OC([H])([H])C([H])([H])C([H])([H])[N+]([H])([H])C([H])([H])C([H])([H])C([H])([H])C([H])([H])C([H])([H])C([H])([H])[N+]([H])(C([H])([H])C(=O)C([H])([H])[N+]([H])([H])[H])C([H])([H])C([H])([H])C([H])([H])C([H])([H])N([H])C(=O)N3C([H])([H])C([H])([H])C([H])([H])C([H])(n4nc(-c5c([H])c([H])c(Oc6c([H])c([H])c(F)c([H])c6F)c([H])c5[H])c(C(=O)N([H])[H])c4N([H])[H])C3([H])[H])c([H])c([H])c2C1([H])[H]

>  <smiles>  (43) 
[H]c1c([H])c([H])c2c(c1[H])C([H])([H])C([H])([H])C([H])([H])C2([H])N([H])C(=O)C1([H])N(C(=O)C([H])(N([H])C(=O)C([H])(N([H])C([H])([H])[H])C([H])([H])[H])C(C([H])([H])[H])(C([H])([H])[H])C([H])([H])[H])C([H])([H])c2c([H])c(OC([H])([H])C([H])([H])C([H])([H])[N+]([H])([H])C([H])([H])C([H])([H])C([H])([H])C([H])([H])C([H])([H])C([H])([H])[N+]([H])(C([H])([H])C(=O)C([H])([H])[N+]([H])([H])[H])C([H])([H])C([H])([H])C([H])([H])C([H])([H])N([H])C(=O)N3C([H])([H])C([H])([H])C([H])([H])C([H])(n4nc(-c5c([H])c([H])c(Oc6c([H])c([H])c(F)c([H])c6F)c([H])c5[H])c(C(=O)N([H])[H])c4N([H])[H])C3([H])[H])c([H])c([H])c2C1([H])[H]

$$$$
45:0:0
     RDKit          3D

 94102  0  0  1  0  0  0  0  0999 V2000
  -29.0860  -21.4860   21.8010 C   0  0  0  0  0  3  0  0  0  0  0  0
  -28.8220  -22.5300   22.6900 C   0  0  0  0  0  3  0  0  0  0  0  0
  -29.2330  -21.7100   20.4190 C   0  0  0  0  0  0  0  0  0  0  0  0
  -28.7000  -23.8620   22.2590 C   0  0  0  0  0  0  0  0  0  0  0  0
  -28.8190  -24.2270   20.8800 C   0  0  0  0  0  0  0  0  0  0  0  0
  -29.0890  -23.1110   19.9650 C   0  0  0  0  0  0  0  0  0  0  0  0
  -28.4510  -24.8880   23.3650 C   0  0  0  0  0  1  0  0  0  0  0  0
  -29.5870  -20.4200   19.5840 C   0  0  0  0  0  0  0  0  0  0  0  0
  -30.0540  -20.5370   18.4450 O   0  0  0  0  0  0  0  0  0  0  0  0
  -29.3540  -18.8600   20.0990 C   0  0  0  0  0  0  0  0  0  0  0  0
  -28.2720  -18.5520   20.6110 O   0  0  0  0  0  0  0  0  0  0  0  0
  -30.4340  -17.6890   19.9240 C   0  0  0  0  0  2  0  0  0  0  0  0
  -30.7660  -15.0800   20.0260 C   0  0  0  0  0  0  0  0  0  0  0  0
  -30.5590  -12.7600   19.1230 C   0  0  0  0  0  2  0  0  0  0  0  0
  -29.6100  -12.7710   17.9040 C   0  0  0  0  0  2  0  0  0  0  0  0
  -28.1460  -12.6070   18.3590 C   0  0  0  0  0  2  0  0  0  0  0  0
  -27.7770  -13.5470   19.5380 C   0  0  0  0  0  3  0  0  0  0  0  0
  -28.8490  -13.5190   20.6510 C   0  0  0  0  0  2  0  0  0  0  0  0
  -30.1350  -13.8560   20.0260 N   0  0  0  0  0  0  0  0  0  0  0  0
  -31.9440  -15.1640   19.6710 O   0  0  0  0  0  0  0  0  0  0  0  0
  -30.0160  -16.2320   20.2010 N   0  0  0  0  0  0  0  0  0  0  0  0
  -29.0500  -16.1030   20.4640 H   0  0  0  0  0  0  0  0  0  0  0  0
  -25.4060  -14.1560   20.3040 C   0  0  0  0  0  0  0  0  0  0  0  0
  -24.3410  -13.3910   20.6960 C   0  0  0  0  0  0  0  0  0  0  0  0
  -24.7960  -12.0360   20.6660 C   0  0  0  0  0  0  0  0  0  0  0  0
  -26.4410  -13.2690   20.0560 N   0  0  0  0  0  0  0  0  0  0  0  0
  -26.0820  -11.9890   20.3370 N   0  0  0  0  0  0  0  0  0  0  0  0
  -24.0640  -10.7790   20.8770 C   0  0  0  0  0  0  0  0  0  0  0  0
  -24.4830   -9.8340   21.8390 C   0  0  0  0  0  3  0  0  0  0  0  0
  -23.7530   -8.6410   22.0360 C   0  0  0  0  0  3  0  0  0  0  0  0
  -22.5900   -8.3870   21.2710 C   0  0  0  0  0  0  0  0  0  0  0  0
  -22.1910   -9.3210   20.2990 C   0  0  0  0  0  3  0  0  0  0  0  0
  -22.9210  -10.5040   20.1010 C   0  0  0  0  0  3  0  0  0  0  0  0
  -21.8320   -7.2460   21.3750 O   0  0  0  0  0  0  0  0  0  0  0  0
  -21.7540   -6.5380   22.5480 C   0  0  0  0  0  0  0  0  0  0  0  0
  -21.2650   -7.1230   23.7360 C   0  0  0  0  0  3  0  0  0  0  0  0
  -21.1350   -6.3420   24.9030 C   0  0  0  0  0  3  0  0  0  0  0  0
  -21.4830   -4.9780   24.8800 C   0  0  0  0  0  0  0  0  0  0  0  0
  -21.9650   -4.3940   23.6960 C   0  0  0  0  0  3  0  0  0  0  0  0
  -22.0970   -5.1730   22.5330 C   0  0  0  0  0  0  0  0  0  0  0  0
  -22.5420   -4.5990   21.3880 F   0  0  0  0  0  0  0  0  0  0  0  0
  -21.3520   -4.2260   25.9980 F   0  0  0  0  0  0  0  0  0  0  0  0
  -22.9520  -13.8780   20.9870 C   0  0  0  0  0  0  0  0  0  0  0  0
  -22.2350  -13.1960   21.8730 N   0  0  0  0  0  0  0  0  0  0  0  0
  -22.5110  -14.9000   20.4630 O   0  0  0  0  0  0  0  0  0  0  0  0
  -22.6030  -12.3660   22.3150 H   0  0  0  0  0  0  0  0  0  0  0  0
  -21.3060  -13.5090   22.1130 H   0  0  0  0  0  0  0  0  0  0  0  0
  -25.5760  -15.5240   20.1150 N   0  0  0  0  0  0  0  0  0  0  0  0
  -24.8230  -16.1900   20.2490 H   0  0  0  0  0  0  0  0  0  0  0  0
  -26.4260  -15.9550   19.7730 H   0  0  0  0  0  0  0  0  0  0  0  0
  -28.0150  -23.3530   17.9140 C   0  0  0  0  0  1  0  0  0  0  0  0
  -29.2370  -23.4090   18.6360 O   0  0  0  0  0  0  0  0  0  0  0  0
  -28.6980  -25.8290   20.6570 C   0  0  0  0  0  2  0  0  0  0  0  0
  -28.5010  -26.6430   19.4330 O   0  0  0  0  0  0  0  0  0  0  0  0
  -24.6380  -31.6790   23.0070 C   0  0  0  0  0  0  0  0  0  0  0  0
  -27.4100  -27.5350   19.4960 C   0  0  0  0  0  0  0  0  0  0  0  0
  -23.4710  -30.3580   21.2800 C   0  0  0  0  0  3  0  0  0  0  0  0
  -24.9700  -29.0250   19.6820 C   0  0  0  0  0  0  0  0  0  0  0  0
  -25.9850  -30.8320   21.0670 C   0  0  0  0  0  2  0  0  0  0  0  0
  -26.1280  -29.5180   20.2990 C   0  0  0  0  0  0  0  0  0  0  0  0
  -27.3540  -28.7820   20.2050 C   0  0  0  0  0  3  0  0  0  0  0  0
  -26.2320  -27.1100   18.8540 C   0  0  0  0  0  3  0  0  0  0  0  0
  -25.0250  -27.8290   18.9490 C   0  0  0  0  0  3  0  0  0  0  0  0
  -23.6850  -29.8180   19.8400 C   0  0  0  0  0  2  0  0  0  0  0  0
  -24.7180  -30.9700   21.8410 N   0  0  0  0  0  0  0  0  0  0  0  0
  -23.5560  -31.8440   23.5880 O   0  0  0  0  0  0  0  0  0  0  0  0
  -22.8920  -29.2270   22.1620 C   0  0  0  0  0  0  0  0  0  0  0  0
  -21.5720  -28.9900   22.0600 N   0  0  0  0  0  0  0  0  0  0  0  0
  -23.6290  -28.5680   22.9030 O   0  0  0  0  0  0  0  0  0  0  0  0
  -21.0310  -29.5750   21.4390 H   0  0  0  0  0  0  0  0  0  0  0  0
  -18.2810  -27.5760   22.5720 C   0  0  0  0  0  0  0  0  0  0  0  0
  -20.8330  -27.9420   22.7680 C   0  0  0  0  0  3  0  0  0  0  0  0
  -20.9790  -26.5780   22.0560 C   0  0  0  0  0  2  0  0  0  0  0  0
  -19.8520  -26.2970   21.0550 C   0  0  0  0  0  2  0  0  0  0  0  0
  -18.4930  -26.3080   21.7610 C   0  0  0  0  0  2  0  0  0  0  0  0
  -19.3790  -28.3520   23.0310 C   0  0  0  0  0  0  0  0  0  0  0  0
  -19.1260  -29.5380   23.7520 C   0  0  0  0  0  3  0  0  0  0  0  0
  -17.8080  -29.9540   24.0140 C   0  0  0  0  0  3  0  0  0  0  0  0
  -16.7240  -29.1770   23.5700 C   0  0  0  0  0  3  0  0  0  0  0  0
  -16.9610  -27.9890   22.8560 C   0  0  0  0  0  3  0  0  0  0  0  0
  -25.8990  -32.3330   23.6500 C   0  0  0  0  0  3  0  0  0  0  0  0
  -25.5200  -33.6800   24.1040 N   0  0  0  0  0  0  0  0  0  0  0  0
  -25.7740  -34.8100   23.4290 C   0  0  0  0  0  0  0  0  0  0  0  0
  -26.4220  -34.8300   22.3790 O   0  0  0  0  0  0  0  0  0  0  0  0
  -24.9350  -33.7330   24.9240 H   0  0  0  0  0  0  0  0  0  0  0  0
  -23.9390  -36.5240   23.2680 C   0  0  0  0  0  1  0  0  0  0  0  0
  -25.2240  -36.1270   24.0130 C   0  0  0  0  0  3  0  0  0  0  0  0
  -27.3260  -37.0670   24.8650 C   0  0  0  0  0  1  0  0  0  0  0  0
  -26.1940  -37.2430   23.9600 N   0  0  0  0  0  0  0  0  0  0  0  0
  -25.7410  -38.1250   24.1860 H   0  0  0  0  0  0  0  0  0  0  0  0
  -26.4910  -31.4920   24.8480 C   0  0  1  0  0  0  0  0  0  0  0  0
  -25.4430  -31.1080   25.9200 C   0  0  0  0  0  1  0  0  0  0  0  0
  -27.1340  -30.1830   24.3330 C   0  0  0  0  0  1  0  0  0  0  0  0
  -27.6150  -32.2930   25.5440 C   0  0  0  0  0  1  0  0  0  0  0  0
  1  2  1  0
  3  1  2  0
  4  2  2  0
  4  7  1  0
  5  4  1  0
  6  3  1  0
  6  5  2  0
  8 10  1  0
  8  3  1  0
  9  8  2  0
 10 11  2  0
 12 10  1  0
 12 21  1  0
 13 19  1  0
 13 21  1  0
 14 19  1  0
 15 16  1  0
 15 14  1  0
 17 16  1  0
 17 26  1  0
 17 18  1  0
 19 18  1  0
 20 13  2  0
 21 22  1  0
 23 24  2  0
 24 43  1  0
 25 24  1  0
 25 28  1  0
 26 23  1  0
 26 27  1  0
 27 25  2  0
 28 29  1  0
 29 30  2  0
 31 34  1  0
 31 30  1  0
 32 31  2  0
 33 32  1  0
 33 28  2  0
 34 35  1  0
 35 36  1  0
 36 37  2  0
 38 37  1  0
 38 42  1  0
 39 38  2  0
 40 35  2  0
 40 39  1  0
 41 40  1  0
 43 44  1  0
 44 47  1  0
 44 46  1  0
 45 43  2  0
 48 49  1  0
 48 23  1  0
 50 48  1  0
 51 52  1  0
 52  6  1  0
 53  5  1  0
 54 56  1  0
 54 53  1  0
 55 66  2  0
 56 61  1  0
 57 65  1  0
 57 67  1  0
 58 64  1  0
 58 60  1  0
 59 65  1  0
 60 59  1  0
 61 60  2  0
 62 63  1  0
 62 56  2  0
 63 58  2  0
 64 57  1  0
 65 55  1  0
 67 69  2  0
 68 67  1  0
 70 68  1  0
 71 80  2  0
 71 76  1  0
 72 68  1  0
 72 76  1  0
 73 72  1  0
 74 75  1  0
 74 73  1  0
 75 71  1  0
 76 77  2  0
 77 78  1  0
 79 78  2  0
 80 79  1  0
 81 55  1  0
 81 82  1  0
 81 91  1  0
 82 85  1  0
 83 87  1  0
 83 82  1  0
 84 83  2  0
 87 86  1  0
 89 87  1  0
 89 90  1  0
 89 88  1  0
 91 94  1  1
 91 92  1  0
 93 91  1  0
M  ISO  4  13 100  21 100  53 101  54 101
M  END
>  <TORSDO>  (44) 
F 21

>  <SCORE>  (44) 
-12.235

>  <name>  (44) 
45

>  <ligand_id>  (44) 
45

>  <original_smiles>  (44) 
[H]c1c([H])c([H])c2c(c1[H])C([H])([H])C([H])([H])C([H])([H])C2([H])N([H])C(=O)C1([H])N(C(=O)C([H])(N([H])C(=O)C([H])(N([H])C([H])([H])[H])C([H])([H])[H])C(C([H])([H])[H])(C([H])([H])[H])C([H])([H])[H])C([H])([H])c2c([H])c(OC([H])([H])c3c(OC([H])([H])[H])c(C(=O)C(=O)C([H])([H])N([H])C(=O)N4C([H])([H])C([H])([H])C([H])([H])C([H])(n5nc(-c6c([H])c([H])c(Oc7c([H])c([H])c(F)c([H])c7F)c([H])c6[H])c(C(=O)N([H])[H])c5N([H])[H])C4([H])[H])c([H])c([H])c3C([H])([H])[H])c([H])c([H])c2C1([H])[H]

>  <smiles>  (44) 
[H]c1c([H])c([H])c2c(c1[H])C([H])([H])C([H])([H])C([H])([H])C2([H])N([H])C(=O)C1([H])N(C(=O)C([H])(N([H])C(=O)C([H])(N([H])C([H])([H])[H])C([H])([H])[H])C(C([H])([H])[H])(C([H])([H])[H])C([H])([H])[H])C([H])([H])c2c([H])c(OC([H])([H])c3c(OC([H])([H])[H])c(C(=O)C(=O)C([H])([H])N([H])C(=O)N4C([H])([H])C([H])([H])C([H])([H])C([H])(n5nc(-c6c([H])c([H])c(Oc7c([H])c([H])c(F)c([H])c7F)c([H])c6[H])c(C(=O)N([H])[H])c5N([H])[H])C4([H])[H])c([H])c([H])c3C([H])([H])[H])c([H])c([H])c2C1([H])[H]

$$$$
46:0:0
     RDKit          3D

106114  0  0  1  0  0  0  0  0999 V2000
  -32.4950  -19.3800   20.3480 N   0  0  1  0  0  4  0  0  0  0  0  0
  -33.1140  -20.1730   20.4090 H   0  0  0  0  0  0  0  0  0  0  0  0
  -31.6810  -19.6210   19.1230 C   0  0  0  0  0  2  0  0  0  0  0  0
  -29.3720  -22.7130   19.2730 C   0  0  0  0  0  3  0  0  0  0  0  0
  -31.6050  -23.4330   18.6400 C   0  0  0  0  0  3  0  0  0  0  0  0
  -29.8270  -21.3760   19.3330 C   0  0  0  0  0  3  0  0  0  0  0  0
  -32.0570  -22.1000   18.6910 C   0  0  0  0  0  3  0  0  0  0  0  0
  -30.2590  -23.7610   18.9270 C   0  0  0  0  0  0  0  0  0  0  0  0
  -31.1750  -21.0610   19.0480 C   0  0  0  0  0  0  0  0  0  0  0  0
  -29.8470  -25.2010   18.8860 C   0  0  0  0  0  0  0  0  0  0  0  0
  -30.6660  -26.1070   18.6800 O   0  0  0  0  0  0  0  0  0  0  0  0
  -28.3610  -25.5700   19.0650 C   0  0  0  0  0  2  0  0  0  0  0  0
  -28.2690  -26.9130   19.5440 O   0  0  0  0  0  0  0  0  0  0  0  0
  -24.4390  -31.7520   23.0370 C   0  0  0  0  0  0  0  0  0  0  0  0
  -27.0430  -27.5320   19.6310 C   0  0  0  0  0  0  0  0  0  0  0  0
  -23.1910  -30.4080   21.3760 C   0  0  0  0  0  3  0  0  0  0  0  0
  -24.6100  -28.9620   19.8270 C   0  0  0  0  0  0  0  0  0  0  0  0
  -25.6970  -30.8260   21.0960 C   0  0  0  0  0  2  0  0  0  0  0  0
  -25.7790  -29.4890   20.3890 C   0  0  0  0  0  0  0  0  0  0  0  0
  -26.9920  -28.7790   20.2890 C   0  0  0  0  0  3  0  0  0  0  0  0
  -25.8530  -27.0020   19.0800 C   0  0  0  0  0  3  0  0  0  0  0  0
  -24.6420  -27.7160   19.1740 C   0  0  0  0  0  3  0  0  0  0  0  0
  -23.3540  -29.7930   19.9590 C   0  0  0  0  0  2  0  0  0  0  0  0
  -24.4630  -31.0070   21.8960 N   0  0  0  0  0  0  0  0  0  0  0  0
  -23.3770  -31.9810   23.6320 O   0  0  0  0  0  0  0  0  0  0  0  0
  -22.5930  -29.3340   22.3120 C   0  0  0  0  0  0  0  0  0  0  0  0
  -21.2680  -29.1420   22.2280 N   0  0  0  0  0  0  0  0  0  0  0  0
  -23.3180  -28.6770   23.0650 O   0  0  0  0  0  0  0  0  0  0  0  0
  -20.7450  -29.7240   21.5890 H   0  0  0  0  0  0  0  0  0  0  0  0
  -17.9310  -27.8740   22.7870 C   0  0  0  0  0  0  0  0  0  0  0  0
  -20.4930  -28.1560   22.9810 C   0  0  0  0  0  3  0  0  0  0  0  0
  -20.5930  -26.7560   22.3330 C   0  0  0  0  0  2  0  0  0  0  0  0
  -19.4610  -26.4660   21.3440 C   0  0  0  0  0  2  0  0  0  0  0  0
  -18.1010  -26.5610   22.0420 C   0  0  0  0  0  2  0  0  0  0  0  0
  -19.0540  -28.6310   23.2140 C   0  0  0  0  0  0  0  0  0  0  0  0
  -18.8410  -29.8630   23.8690 C   0  0  0  0  0  3  0  0  0  0  0  0
  -17.5370  -30.3370   24.1050 C   0  0  0  0  0  3  0  0  0  0  0  0
  -16.4290  -29.5770   23.6940 C   0  0  0  0  0  3  0  0  0  0  0  0
  -16.6270  -28.3460   23.0420 C   0  0  0  0  0  3  0  0  0  0  0  0
  -25.7400  -32.3710   23.6380 C   0  0  0  0  0  3  0  0  0  0  0  0
  -25.4350  -33.7530   24.0270 N   0  0  0  0  0  0  0  0  0  0  0  0
  -25.7570  -34.8350   23.3060 C   0  0  0  0  0  0  0  0  0  0  0  0
  -26.4170  -34.7740   22.2650 O   0  0  0  0  0  0  0  0  0  0  0  0
  -24.8460  -33.8750   24.8380 H   0  0  0  0  0  0  0  0  0  0  0  0
  -24.0180  -36.6290   23.0370 C   0  0  0  0  0  1  0  0  0  0  0  0
  -25.2690  -36.2020   23.8210 C   0  0  0  0  0  3  0  0  0  0  0  0
  -27.4130  -37.0580   24.6580 C   0  0  0  0  0  1  0  0  0  0  0  0
  -26.2960  -37.2650   23.7400 N   0  0  0  0  0  0  0  0  0  0  0  0
  -25.8890  -38.1750   23.9390 H   0  0  0  0  0  0  0  0  0  0  0  0
  -26.3080  -31.5580   24.8650 C   0  0  1  0  0  0  0  0  0  0  0  0
  -25.2550  -31.2780   25.9650 C   0  0  0  0  0  1  0  0  0  0  0  0
  -26.8790  -30.1970   24.4020 C   0  0  0  0  0  1  0  0  0  0  0  0
  -27.4830  -32.3320   25.5100 C   0  0  0  0  0  1  0  0  0  0  0  0
  -31.6670  -19.3930   21.5940 C   0  0  0  0  0  2  0  0  0  0  0  0
  -32.2340  -20.3180   22.7010 C   0  0  0  0  0  2  0  0  0  0  0  0
  -31.2910  -20.5950   23.8980 C   0  0  0  0  0  2  0  0  0  0  0  0
  -30.1300  -21.4530   23.5860 N   0  0  0  0  0  4  0  0  0  0  0  0
  -30.4150  -22.3390   23.2090 H   0  0  0  0  0  0  0  0  0  0  0  0
  -29.6270  -21.6420   24.4380 H   0  0  0  0  0  0  0  0  0  0  0  0
  -29.4830  -21.0150   22.9560 H   0  0  0  0  0  0  0  0  0  0  0  0
  -33.3470  -18.1540   20.2530 C   0  0  0  0  0  3  0  0  0  0  0  0
  -34.4640  -18.2040   19.1750 C   0  0  0  0  0  3  0  0  0  0  0  0
  -35.6060  -17.1630   19.3400 C   0  0  0  0  0  2  0  0  0  0  0  0
  -35.3390  -15.8150   18.7760 N   0  0  0  0  0  4  0  0  0  0  0  0
  -36.2300  -15.3450   18.7080 H   0  0  0  0  0  0  0  0  0  0  0  0
  -35.0010  -15.8870   17.8290 H   0  0  0  0  0  0  0  0  0  0  0  0
  -34.4690  -14.9210   19.5690 C   0  0  0  0  0  2  0  0  0  0  0  0
  -33.1680  -14.6030   18.8200 C   0  0  0  0  0  2  0  0  0  0  0  0
  -31.1250  -14.1520   20.1450 C   0  0  0  0  0  0  0  0  0  0  0  0
  -30.1460  -12.2210   19.0750 C   0  0  0  0  0  2  0  0  0  0  0  0
  -29.2830  -12.7660   17.9390 C   0  0  0  0  0  2  0  0  0  0  0  0
  -27.8350  -12.7300   18.4260 C   0  0  0  0  0  2  0  0  0  0  0  0
  -27.6280  -13.4610   19.7820 C   0  0  0  0  0  3  0  0  0  0  0  0
  -28.7940  -13.2310   20.8100 C   0  0  0  0  0  2  0  0  0  0  0  0
  -30.1280  -13.2180   20.1520 N   0  0  0  0  0  0  0  0  0  0  0  0
  -31.0940  -15.3100   20.4810 O   0  0  0  0  0  0  0  0  0  0  0  0
  -32.2730  -13.7360   19.5890 N   0  0  0  0  0  0  0  0  0  0  0  0
  -32.3150  -12.7470   19.3930 H   0  0  0  0  0  0  0  0  0  0  0  0
  -25.2240  -14.0050   20.5780 C   0  0  0  0  0  0  0  0  0  0  0  0
  -24.1620  -13.2130   20.9240 C   0  0  0  0  0  0  0  0  0  0  0  0
  -24.6270  -11.8650   20.8260 C   0  0  0  0  0  0  0  0  0  0  0  0
  -26.2850  -13.1510   20.3100 N   0  0  0  0  0  0  0  0  0  0  0  0
  -25.9200  -11.8520   20.5100 N   0  0  0  0  0  0  0  0  0  0  0  0
  -23.9000  -10.5930   20.9710 C   0  0  0  0  0  0  0  0  0  0  0  0
  -24.3440   -9.5820   21.8520 C   0  0  0  0  0  3  0  0  0  0  0  0
  -23.6200   -8.3780   21.9920 C   0  0  0  0  0  3  0  0  0  0  0  0
  -22.4320   -8.1730   21.2510 C   0  0  0  0  0  0  0  0  0  0  0  0
  -22.0010   -9.1740   20.3600 C   0  0  0  0  0  3  0  0  0  0  0  0
  -22.7270  -10.3680   20.2190 C   0  0  0  0  0  3  0  0  0  0  0  0
  -21.6780   -7.0260   21.3030 O   0  0  0  0  0  0  0  0  0  0  0  0
  -21.6500   -6.2320   22.4220 C   0  0  0  0  0  0  0  0  0  0  0  0
  -21.2490   -6.7350   23.6800 C   0  0  0  0  0  3  0  0  0  0  0  0
  -21.1690   -5.8710   24.7900 C   0  0  0  0  0  3  0  0  0  0  0  0
  -21.4780   -4.5060   24.6430 C   0  0  0  0  0  0  0  0  0  0  0  0
  -21.8690   -4.0030   23.3910 C   0  0  0  0  0  3  0  0  0  0  0  0
  -21.9520   -4.8640   22.2830 C   0  0  0  0  0  0  0  0  0  0  0  0
  -22.3080   -4.3700   21.0720 F   0  0  0  0  0  0  0  0  0  0  0  0
  -21.3930   -3.6730   25.7070 F   0  0  0  0  0  0  0  0  0  0  0  0
  -22.7640  -13.6720   21.2390 C   0  0  0  0  0  0  0  0  0  0  0  0
  -22.0560  -12.9420   22.0920 N   0  0  0  0  0  0  0  0  0  0  0  0
  -22.3080  -14.7130   20.7670 O   0  0  0  0  0  0  0  0  0  0  0  0
  -22.4360  -12.0970   22.4920 H   0  0  0  0  0  0  0  0  0  0  0  0
  -21.1230  -13.2350   22.3440 H   0  0  0  0  0  0  0  0  0  0  0  0
  -25.3680  -15.3840   20.4490 N   0  0  0  0  0  0  0  0  0  0  0  0
  -24.5940  -16.0230   20.5960 H   0  0  0  0  0  0  0  0  0  0  0  0
  -26.2160  -15.8490   20.1500 H   0  0  0  0  0  0  0  0  0  0  0  0
  1  2  1  1
  1 54  1  0
  3  1  1  0
  4  6  1  0
  5  7  2  0
  5  8  1  0
  7  9  1  0
  8  4  2  0
  9  3  1  0
  9  6  2  0
 10  8  1  0
 10 12  1  0
 11 10  2  0
 12 13  1  0
 13 15  1  0
 14 25  2  0
 15 20  1  0
 16 24  1  0
 16 26  1  0
 17 23  1  0
 17 19  1  0
 18 24  1  0
 19 18  1  0
 20 19  2  0
 21 22  1  0
 21 15  2  0
 22 17  2  0
 23 16  1  0
 24 14  1  0
 26 28  2  0
 27 26  1  0
 29 27  1  0
 30 39  2  0
 30 35  1  0
 31 27  1  0
 31 35  1  0
 32 31  1  0
 33 34  1  0
 33 32  1  0
 34 30  1  0
 35 36  2  0
 36 37  1  0
 38 37  2  0
 39 38  1  0
 40 14  1  0
 40 41  1  0
 40 50  1  0
 41 44  1  0
 42 46  1  0
 42 41  1  0
 43 42  2  0
 46 45  1  0
 48 46  1  0
 48 49  1  0
 48 47  1  0
 50 53  1  1
 50 51  1  0
 52 50  1  0
 54 55  1  0
 55 56  1  0
 57 56  1  0
 57 59  1  0
 58 57  1  0
 60 57  1  0
 61  1  1  0
 62 63  1  0
 62 61  2  0
 64 63  1  0
 64 67  1  0
 65 64  1  0
 66 64  1  0
 68 67  1  0
 68 77  1  0
 69 75  1  0
 69 76  2  0
 70 75  1  0
 71 72  1  0
 71 70  1  0
 73 72  1  0
 73 82  1  0
 73 74  1  0
 75 74  1  0
 77 69  1  0
 78 77  1  0
 79 80  2  0
 80 99  1  0
 81 80  1  0
 81 84  1  0
 82 83  1  0
 82 79  1  0
 83 81  2  0
 84 85  1  0
 85 86  2  0
 87 90  1  0
 87 86  1  0
 88 87  2  0
 89 88  1  0
 89 84  2  0
 90 91  1  0
 91 92  1  0
 92 93  2  0
 94 93  1  0
 94 98  1  0
 95 94  2  0
 96 91  2  0
 96 95  1  0
 97 96  1  0
 99100  1  0
100103  1  0
100102  1  0
101 99  2  0
104 79  1  0
104105  1  0
106104  1  0
M  ISO  4  12 101  13 101  69 100  77 100
M  END
>  <TORSDO>  (45) 
F 30

>  <SCORE>  (45) 
-10.943

>  <name>  (45) 
46

>  <ligand_id>  (45) 
46

>  <original_smiles>  (45) 
[H]c1c([H])c([H])c2c(c1[H])C([H])([H])C([H])([H])C([H])([H])C2([H])N([H])C(=O)C1([H])N(C(=O)C([H])(N([H])C(=O)C([H])(N([H])C([H])([H])[H])C([H])([H])[H])C(C([H])([H])[H])(C([H])([H])[H])C([H])([H])[H])C([H])([H])c2c([H])c(OC([H])([H])C(=O)c3c([H])c([H])c(C([H])([H])[N+]([H])(C([H])([H])C([H])([H])C([H])([H])[N+]([H])([H])[H])C([H])([H])C([H])([H])C([H])([H])[N+]([H])([H])C([H])([H])C([H])([H])N([H])C(=O)N4C([H])([H])C([H])([H])C([H])([H])C([H])(n5nc(-c6c([H])c([H])c(Oc7c([H])c([H])c(F)c([H])c7F)c([H])c6[H])c(C(=O)N([H])[H])c5N([H])[H])C4([H])[H])c([H])c3[H])c([H])c([H])c2C1([H])[H]

>  <smiles>  (45) 
[H]c1c([H])c([H])c2c(c1[H])C([H])([H])C([H])([H])C([H])([H])C2([H])N([H])C(=O)C1([H])N(C(=O)C([H])(N([H])C(=O)C([H])(N([H])C([H])([H])[H])C([H])([H])[H])C(C([H])([H])[H])(C([H])([H])[H])C([H])([H])[H])C([H])([H])c2c([H])c(OC([H])([H])C(=O)c3c([H])c([H])c(C([H])([H])[N+]([H])(C([H])([H])C([H])([H])C([H])([H])[N+]([H])([H])[H])C([H])([H])C([H])([H])C([H])([H])[N+]([H])([H])C([H])([H])C([H])([H])N([H])C(=O)N4C([H])([H])C([H])([H])C([H])([H])C([H])(n5nc(-c6c([H])c([H])c(Oc7c([H])c([H])c(F)c([H])c7F)c([H])c6[H])c(C(=O)N([H])[H])c5N([H])[H])C4([H])[H])c([H])c3[H])c([H])c([H])c2C1([H])[H]

$$$$
47:0:0
     RDKit          3D

 93101  0  0  1  0  0  0  0  0999 V2000
  -27.4450  -22.0290   19.4040 C   0  0  0  0  0  3  0  0  0  0  0  0
  -26.9970  -20.7160   19.1840 C   0  0  0  0  0  3  0  0  0  0  0  0
  -29.0590  -19.7510   20.1180 C   0  0  0  0  0  0  0  0  0  0  0  0
  -28.6890  -22.2820   20.0220 C   0  0  0  0  0  0  0  0  0  0  0  0
  -27.7700  -19.5990   19.5500 C   0  0  0  0  0  0  0  0  0  0  0  0
  -29.4870  -21.1200   20.3710 C   0  0  0  0  0  0  0  0  0  0  0  0
  -27.2150  -18.3760   19.3800 F   0  0  0  0  0  0  0  0  0  0  0  0
  -30.6890  -21.3380   20.9550 F   0  0  0  0  0  0  0  0  0  0  0  0
  -29.8410  -18.4720   20.5250 C   0  0  0  0  0  0  0  0  0  0  0  0
  -30.4990  -18.4480   21.5710 O   0  0  0  0  0  0  0  0  0  0  0  0
  -30.9850  -17.3510   18.5170 C   0  0  0  0  0  1  0  0  0  0  0  0
  -29.8830  -17.1700   19.5820 C   0  0  0  0  0  3  0  0  0  0  0  0
  -30.6830  -14.6740   20.0490 C   0  0  0  0  0  0  0  0  0  0  0  0
  -30.4060  -12.4230   19.0370 C   0  0  0  0  0  2  0  0  0  0  0  0
  -29.4330  -12.5660   17.8470 C   0  0  0  0  0  2  0  0  0  0  0  0
  -27.9710  -12.4240   18.3180 C   0  0  0  0  0  2  0  0  0  0  0  0
  -27.6610  -13.2910   19.5680 C   0  0  0  0  0  3  0  0  0  0  0  0
  -28.7530  -13.1420   20.6530 C   0  0  0  0  0  2  0  0  0  0  0  0
  -30.0470  -13.4580   20.0300 N   0  0  0  0  0  0  0  0  0  0  0  0
  -31.8530  -14.7710   19.6710 O   0  0  0  0  0  0  0  0  0  0  0  0
  -29.8780  -15.7780   20.2160 N   0  0  0  0  0  0  0  0  0  0  0  0
  -28.9920  -15.5460   20.6370 H   0  0  0  0  0  0  0  0  0  0  0  0
  -25.3000  -13.9150   20.3650 C   0  0  0  0  0  0  0  0  0  0  0  0
  -24.2370  -13.1530   20.7670 C   0  0  0  0  0  0  0  0  0  0  0  0
  -24.6810  -11.7970   20.7210 C   0  0  0  0  0  0  0  0  0  0  0  0
  -26.3250  -13.0230   20.0960 N   0  0  0  0  0  0  0  0  0  0  0  0
  -25.9610  -11.7440   20.3730 N   0  0  0  0  0  0  0  0  0  0  0  0
  -23.9460  -10.5430   20.9320 C   0  0  0  0  0  0  0  0  0  0  0  0
  -24.3910   -9.5720   21.8570 C   0  0  0  0  0  3  0  0  0  0  0  0
  -23.6560   -8.3840   22.0570 C   0  0  0  0  0  3  0  0  0  0  0  0
  -22.4620   -8.1580   21.3300 C   0  0  0  0  0  0  0  0  0  0  0  0
  -22.0360   -9.1160   20.3940 C   0  0  0  0  0  3  0  0  0  0  0  0
  -22.7720  -10.2970   20.1930 C   0  0  0  0  0  3  0  0  0  0  0  0
  -21.6980   -7.0220   21.4390 O   0  0  0  0  0  0  0  0  0  0  0  0
  -21.6590   -6.2880   22.5970 C   0  0  0  0  0  0  0  0  0  0  0  0
  -21.2560   -6.8530   23.8260 C   0  0  0  0  0  3  0  0  0  0  0  0
  -21.1650   -6.0460   24.9760 C   0  0  0  0  0  3  0  0  0  0  0  0
  -21.4670   -4.6740   24.9000 C   0  0  0  0  0  0  0  0  0  0  0  0
  -21.8650   -4.1070   23.6760 C   0  0  0  0  0  3  0  0  0  0  0  0
  -21.9580   -4.9120   22.5270 C   0  0  0  0  0  0  0  0  0  0  0  0
  -22.3200   -4.3560   21.3460 F   0  0  0  0  0  0  0  0  0  0  0  0
  -21.3730   -3.8950   26.0030 F   0  0  0  0  0  0  0  0  0  0  0  0
  -22.8540  -13.6480   21.0820 C   0  0  0  0  0  0  0  0  0  0  0  0
  -22.1460  -12.9610   21.9700 N   0  0  0  0  0  0  0  0  0  0  0  0
  -22.4120  -14.6780   20.5750 O   0  0  0  0  0  0  0  0  0  0  0  0
  -22.5170  -12.1270   22.4020 H   0  0  0  0  0  0  0  0  0  0  0  0
  -21.2190  -13.2730   22.2230 H   0  0  0  0  0  0  0  0  0  0  0  0
  -25.4710  -15.2850   20.1800 N   0  0  0  0  0  0  0  0  0  0  0  0
  -24.7020  -15.9340   20.2980 H   0  0  0  0  0  0  0  0  0  0  0  0
  -26.2900  -15.7170   19.7760 H   0  0  0  0  0  0  0  0  0  0  0  0
  -29.1220  -23.7890   20.2800 C   0  0  0  0  0  3  0  0  0  0  0  0
  -28.0560  -24.9580   19.9990 C   0  0  0  0  0  3  0  0  0  0  0  0
  -28.3200  -26.4090   20.2330 O   0  0  0  0  0  0  0  0  0  0  0  0
  -24.6130  -31.8570   23.2400 C   0  0  0  0  0  0  0  0  0  0  0  0
  -27.2170  -27.2890   20.1740 C   0  0  0  0  0  0  0  0  0  0  0  0
  -23.4110  -30.4670   21.5960 C   0  0  0  0  0  3  0  0  0  0  0  0
  -24.8600  -28.9240   20.1650 C   0  0  0  0  0  0  0  0  0  0  0  0
  -25.9540  -30.7780   21.4190 C   0  0  0  0  0  2  0  0  0  0  0  0
  -26.0310  -29.4000   20.7680 C   0  0  0  0  0  0  0  0  0  0  0  0
  -27.2130  -28.5950   20.7630 C   0  0  0  0  0  3  0  0  0  0  0  0
  -26.0190  -26.8800   19.5400 C   0  0  0  0  0  3  0  0  0  0  0  0
  -24.8580  -27.6700   19.5430 C   0  0  0  0  0  3  0  0  0  0  0  0
  -23.6260  -29.8000   20.2120 C   0  0  0  0  0  2  0  0  0  0  0  0
  -24.6780  -31.0510   22.1410 N   0  0  0  0  0  0  0  0  0  0  0  0
  -23.5280  -32.1340   23.7730 O   0  0  0  0  0  0  0  0  0  0  0  0
  -22.7450  -29.4470   22.5490 C   0  0  0  0  0  0  0  0  0  0  0  0
  -21.4180  -29.2760   22.4220 N   0  0  0  0  0  0  0  0  0  0  0  0
  -23.4210  -28.8110   23.3620 O   0  0  0  0  0  0  0  0  0  0  0  0
  -20.9310  -29.8400   21.7390 H   0  0  0  0  0  0  0  0  0  0  0  0
  -18.0330  -28.1020   22.9260 C   0  0  0  0  0  0  0  0  0  0  0  0
  -20.5950  -28.3400   23.1900 C   0  0  0  0  0  3  0  0  0  0  0  0
  -20.6840  -26.9120   22.6040 C   0  0  0  0  0  2  0  0  0  0  0  0
  -19.5760  -26.6040   21.5930 C   0  0  0  0  0  2  0  0  0  0  0  0
  -18.1970  -26.7560   22.2410 C   0  0  0  0  0  2  0  0  0  0  0  0
  -19.1590  -28.8540   23.3570 C   0  0  0  0  0  0  0  0  0  0  0  0
  -18.9510  -30.1140   23.9580 C   0  0  0  0  0  3  0  0  0  0  0  0
  -17.6500  -30.6230   24.1320 C   0  0  0  0  0  3  0  0  0  0  0  0
  -16.5400  -29.8690   23.7160 C   0  0  0  0  0  3  0  0  0  0  0  0
  -16.7310  -28.6110   23.1190 C   0  0  0  0  0  3  0  0  0  0  0  0
  -25.8940  -32.4870   23.8680 C   0  0  0  0  0  3  0  0  0  0  0  0
  -26.4080  -31.7080   25.1410 C   0  0  1  0  0  0  0  0  0  0  0  0
  -25.3120  -31.4650   26.2050 C   0  0  0  0  0  1  0  0  0  0  0  0
  -26.9920  -30.3330   24.7430 C   0  0  0  0  0  1  0  0  0  0  0  0
  -27.5570  -32.4980   25.8090 C   0  0  0  0  0  1  0  0  0  0  0  0
  -25.5830  -33.8830   24.2070 N   0  0  0  0  0  0  0  0  0  0  0  0
  -25.9080  -34.9410   23.4520 C   0  0  0  0  0  0  0  0  0  0  0  0
  -26.5720  -34.8440   22.4160 O   0  0  0  0  0  0  0  0  0  0  0  0
  -24.9940  -34.0320   25.0130 H   0  0  0  0  0  0  0  0  0  0  0  0
  -24.1750  -36.7330   23.1170 C   0  0  0  0  0  1  0  0  0  0  0  0
  -25.4210  -36.3250   23.9200 C   0  0  0  0  0  3  0  0  0  0  0  0
  -27.5560  -37.2110   24.7490 C   0  0  0  0  0  1  0  0  0  0  0  0
  -26.4520  -37.3810   23.8090 N   0  0  0  0  0  0  0  0  0  0  0  0
  -26.0440  -38.3000   23.9620 H   0  0  0  0  0  0  0  0  0  0  0  0
  1  4  1  0
  2  1  2  0
  2  5  1  0
  3  6  1  0
  3  9  1  0
  4 51  1  0
  4  6  2  0
  5  3  2  0
  6  8  1  0
  7  5  1  0
  9 10  2  0
 12 11  1  0
 12 21  1  0
 12  9  1  0
 13 21  1  0
 14 19  1  0
 15 16  1  0
 15 14  1  0
 17 16  1  0
 17 26  1  0
 17 18  1  0
 19 13  1  0
 19 18  1  0
 20 13  2  0
 21 22  1  0
 23 24  2  0
 24 43  1  0
 25 24  1  0
 25 28  1  0
 26 23  1  0
 26 27  1  0
 27 25  2  0
 28 29  1  0
 29 30  2  0
 31 34  1  0
 31 30  1  0
 32 31  2  0
 33 32  1  0
 33 28  2  0
 34 35  1  0
 35 36  1  0
 36 37  2  0
 38 37  1  0
 38 42  1  0
 39 38  2  0
 40 35  2  0
 40 39  1  0
 41 40  1  0
 43 44  1  0
 44 47  1  0
 44 46  1  0
 45 43  2  0
 48 49  1  0
 48 23  1  0
 50 48  1  0
 52 53  1  0
 52 51  2  0
 54 65  2  0
 55 53  1  0
 55 60  1  0
 56 64  1  0
 56 66  1  0
 57 63  1  0
 57 59  1  0
 58 64  1  0
 59 58  1  0
 60 59  2  0
 61 62  1  0
 61 55  2  0
 62 57  2  0
 63 56  1  0
 64 54  1  0
 66 68  2  0
 67 66  1  0
 69 67  1  0
 70 79  2  0
 70 75  1  0
 71 67  1  0
 71 75  1  0
 72 71  1  0
 73 74  1  0
 73 72  1  0
 74 70  1  0
 75 76  2  0
 76 77  1  0
 78 77  2  0
 79 78  1  0
 80 54  1  0
 80 85  1  0
 80 81  1  0
 81 84  1  1
 81 82  1  0
 83 81  1  0
 85 88  1  0
 86 90  1  0
 86 85  1  0
 87 86  2  0
 90 89  1  0
 92 90  1  0
 92 93  1  0
 92 91  1  0
M  ISO  4  13 100  21 100  52 101  53 101
M  END
>  <TORSDO>  (46) 
F 20

>  <SCORE>  (46) 
-14.004

>  <name>  (46) 
47

>  <ligand_id>  (46) 
47

>  <original_smiles>  (46) 
[H]c1c([H])c([H])c2c(c1[H])C([H])([H])C([H])([H])C([H])([H])C2([H])N([H])C(=O)C1([H])N(C(=O)C([H])(N([H])C(=O)C([H])(N([H])C([H])([H])[H])C([H])([H])[H])C(C([H])([H])[H])(C([H])([H])[H])C([H])([H])[H])C([H])([H])c2c([H])c(OC([H])([H])C([H])([H])c3c([H])c([H])c(F)c(C(=O)C([H])(N([H])C(=O)N4C([H])([H])C([H])([H])C([H])([H])C([H])(n5nc(-c6c([H])c([H])c(Oc7c([H])c([H])c(F)c([H])c7F)c([H])c6[H])c(C(=O)N([H])[H])c5N([H])[H])C4([H])[H])C([H])([H])[H])c3F)c([H])c([H])c2C1([H])[H]

>  <smiles>  (46) 
[H]c1c([H])c([H])c2c(c1[H])C([H])([H])C([H])([H])C([H])([H])C2([H])N([H])C(=O)C1([H])N(C(=O)C([H])(N([H])C(=O)C([H])(N([H])C([H])([H])[H])C([H])([H])[H])C(C([H])([H])[H])(C([H])([H])[H])C([H])([H])[H])C([H])([H])c2c([H])c(OC([H])([H])C([H])([H])c3c([H])c([H])c(F)c(C(=O)C([H])(N([H])C(=O)N4C([H])([H])C([H])([H])C([H])([H])C([H])(n5nc(-c6c([H])c([H])c(Oc7c([H])c([H])c(F)c([H])c7F)c([H])c6[H])c(C(=O)N([H])[H])c5N([H])[H])C4([H])[H])C([H])([H])[H])c3F)c([H])c([H])c2C1([H])[H]

$$$$
48:0:0
     RDKit          3D

 94102  0  0  1  0  0  0  0  0999 V2000
  -29.8070  -22.5700   20.1710 C   0  0  0  0  0  3  0  0  0  0  0  0
  -30.0820  -21.1870   20.1080 C   0  0  0  0  0  3  0  0  0  0  0  0
  -27.4790  -22.1130   19.6670 C   0  0  0  0  0  3  0  0  0  0  0  0
  -28.4960  -23.0490   19.9660 C   0  0  0  0  0  0  0  0  0  0  0  0
  -29.0680  -20.2400   19.8120 C   0  0  0  0  0  0  0  0  0  0  0  0
  -27.7470  -20.7200   19.5640 C   0  0  0  0  0  0  0  0  0  0  0  0
  -28.1310  -24.4870   20.1770 C   0  0  0  0  0  0  0  0  0  0  0  0
  -27.1850  -24.8070   20.9050 O   0  0  0  0  0  0  0  0  0  0  0  0
  -28.9330  -25.5770   19.4220 C   0  0  0  0  0  2  0  0  0  0  0  0
  -28.8130  -26.8870   20.0250 O   0  0  0  0  0  0  0  0  0  0  0  0
  -24.7080  -31.6750   23.2960 C   0  0  0  0  0  0  0  0  0  0  0  0
  -27.6090  -27.5650   19.9880 C   0  0  0  0  0  0  0  0  0  0  0  0
  -23.6160  -30.3850   21.4920 C   0  0  0  0  0  3  0  0  0  0  0  0
  -25.1710  -29.0100   20.0110 C   0  0  0  0  0  0  0  0  0  0  0  0
  -26.1350  -30.8230   21.4380 C   0  0  0  0  0  2  0  0  0  0  0  0
  -26.2870  -29.5120   20.6910 C   0  0  0  0  0  0  0  0  0  0  0  0
  -27.5060  -28.7980   20.6750 C   0  0  0  0  0  3  0  0  0  0  0  0
  -26.4720  -27.0790   19.3010 C   0  0  0  0  0  3  0  0  0  0  0  0
  -25.2600  -27.7940   19.3140 C   0  0  0  0  0  3  0  0  0  0  0  0
  -23.9040  -29.8320   20.0700 C   0  0  0  0  0  2  0  0  0  0  0  0
  -24.8360  -30.9720   22.1350 N   0  0  0  0  0  0  0  0  0  0  0  0
  -23.5970  -31.8730   23.8070 O   0  0  0  0  0  0  0  0  0  0  0  0
  -22.9560  -29.2690   22.3330 C   0  0  0  0  0  0  0  0  0  0  0  0
  -21.6340  -29.0940   22.1630 N   0  0  0  0  0  0  0  0  0  0  0  0
  -23.6280  -28.5710   23.0960 O   0  0  0  0  0  0  0  0  0  0  0  0
  -21.1540  -29.7140   21.5270 H   0  0  0  0  0  0  0  0  0  0  0  0
  -18.2500  -27.8820   22.5250 C   0  0  0  0  0  0  0  0  0  0  0  0
  -20.8100  -28.0800   22.8200 C   0  0  0  0  0  3  0  0  0  0  0  0
  -20.8970  -26.7240   22.0820 C   0  0  0  0  0  2  0  0  0  0  0  0
  -19.7920  -26.5330   21.0380 C   0  0  0  0  0  2  0  0  0  0  0  0
  -18.4110  -26.6190   21.6950 C   0  0  0  0  0  2  0  0  0  0  0  0
  -19.3770  -28.5770   23.0380 C   0  0  0  0  0  0  0  0  0  0  0  0
  -19.1740  -29.7660   23.7710 C   0  0  0  0  0  3  0  0  0  0  0  0
  -17.8740  -30.2590   23.9980 C   0  0  0  0  0  3  0  0  0  0  0  0
  -16.7630  -29.5590   23.5010 C   0  0  0  0  0  3  0  0  0  0  0  0
  -16.9500  -28.3720   22.7700 C   0  0  0  0  0  3  0  0  0  0  0  0
  -25.9470  -32.2850   24.0240 C   0  0  0  0  0  3  0  0  0  0  0  0
  -25.6210  -33.6770   24.3600 N   0  0  0  0  0  0  0  0  0  0  0  0
  -26.0130  -34.7440   23.6500 C   0  0  0  0  0  0  0  0  0  0  0  0
  -26.7600  -34.6590   22.6700 O   0  0  0  0  0  0  0  0  0  0  0  0
  -24.9750  -33.8200   25.1210 H   0  0  0  0  0  0  0  0  0  0  0  0
  -24.3210  -36.5480   23.2050 C   0  0  0  0  0  1  0  0  0  0  0  0
  -25.4970  -36.1250   24.0970 C   0  0  0  0  0  3  0  0  0  0  0  0
  -27.5710  -36.9790   25.0970 C   0  0  0  0  0  1  0  0  0  0  0  0
  -26.5390  -37.1760   24.0820 N   0  0  0  0  0  0  0  0  0  0  0  0
  -26.1260  -38.0930   24.2250 H   0  0  0  0  0  0  0  0  0  0  0  0
  -26.3680  -31.4840   25.3160 C   0  0  1  0  0  0  0  0  0  0  0  0
  -25.1980  -31.2160   26.2910 C   0  0  0  0  0  1  0  0  0  0  0  0
  -26.9870  -30.1200   24.9320 C   0  0  0  0  0  1  0  0  0  0  0  0
  -27.4620  -32.2640   26.0830 C   0  0  0  0  0  1  0  0  0  0  0  0
  -29.3640  -18.7570   19.8630 C   0  0  0  0  0  0  0  0  0  0  0  0
  -28.5760  -17.9340   20.3370 O   0  0  0  0  0  0  0  0  0  0  0  0
  -30.6950  -18.2270   19.2840 C   0  0  0  0  0  2  0  0  0  0  0  0
  -31.5090  -17.3000   20.2360 C   0  0  0  0  0  2  0  0  0  0  0  0
  -31.6540  -14.8190   19.8210 C   0  0  0  0  0  0  0  0  0  0  0  0
  -31.2960  -12.5080   19.0310 C   0  0  0  0  0  2  0  0  0  0  0  0
  -30.3430  -12.5180   17.8200 C   0  0  0  0  0  2  0  0  0  0  0  0
  -28.8710  -12.4970   18.2750 C   0  0  0  0  0  2  0  0  0  0  0  0
  -28.5670  -13.5470   19.3770 C   0  0  0  0  0  3  0  0  0  0  0  0
  -29.6260  -13.4840   20.5000 C   0  0  0  0  0  2  0  0  0  0  0  0
  -30.9520  -13.6570   19.8840 N   0  0  0  0  0  0  0  0  0  0  0  0
  -32.7570  -14.9070   19.2750 O   0  0  0  0  0  0  0  0  0  0  0  0
  -31.0190  -15.9090   20.2920 N   0  0  0  0  0  0  0  0  0  0  0  0
  -30.1190  -15.7500   20.7210 H   0  0  0  0  0  0  0  0  0  0  0  0
  -26.2680  -14.3700   20.1920 C   0  0  0  0  0  0  0  0  0  0  0  0
  -25.1410  -13.6950   20.5780 C   0  0  0  0  0  0  0  0  0  0  0  0
  -25.4640  -12.3050   20.4940 C   0  0  0  0  0  0  0  0  0  0  0  0
  -27.2110  -13.3960   19.8990 N   0  0  0  0  0  0  0  0  0  0  0  0
  -26.7310  -12.1480   20.1370 N   0  0  0  0  0  0  0  0  0  0  0  0
  -24.6220  -11.1160   20.6780 C   0  0  0  0  0  0  0  0  0  0  0  0
  -24.9610  -10.1090   21.6090 C   0  0  0  0  0  3  0  0  0  0  0  0
  -24.1280   -8.9830   21.7800 C   0  0  0  0  0  3  0  0  0  0  0  0
  -22.9410   -8.8560   21.0210 C   0  0  0  0  0  0  0  0  0  0  0  0
  -22.6210   -9.8490   20.0780 C   0  0  0  0  0  3  0  0  0  0  0  0
  -23.4540  -10.9670   19.9050 C   0  0  0  0  0  3  0  0  0  0  0  0
  -22.0860   -7.7840   21.1010 O   0  0  0  0  0  0  0  0  0  0  0  0
  -21.9120   -7.0870   22.2690 C   0  0  0  0  0  0  0  0  0  0  0  0
  -21.4820   -7.7190   23.4560 C   0  0  0  0  0  3  0  0  0  0  0  0
  -21.2500   -6.9530   24.6170 C   0  0  0  0  0  3  0  0  0  0  0  0
  -21.4380   -5.5590   24.5900 C   0  0  0  0  0  0  0  0  0  0  0  0
  -21.8620   -4.9270   23.4070 C   0  0  0  0  0  3  0  0  0  0  0  0
  -22.0950   -5.6890   22.2500 C   0  0  0  0  0  0  0  0  0  0  0  0
  -22.4830   -5.0740   21.1060 F   0  0  0  0  0  0  0  0  0  0  0  0
  -21.2080   -4.8210   25.7020 F   0  0  0  0  0  0  0  0  0  0  0  0
  -23.8090  -14.2990   20.9200 C   0  0  0  0  0  0  0  0  0  0  0  0
  -23.0570  -13.6590   21.8090 N   0  0  0  0  0  0  0  0  0  0  0  0
  -23.4490  -15.3700   20.4330 O   0  0  0  0  0  0  0  0  0  0  0  0
  -23.3620  -12.7910   22.2210 H   0  0  0  0  0  0  0  0  0  0  0  0
  -22.1650  -14.0450   22.0820 H   0  0  0  0  0  0  0  0  0  0  0  0
  -26.5660  -15.7210   20.0460 N   0  0  0  0  0  0  0  0  0  0  0  0
  -25.8820  -16.4510   20.2110 H   0  0  0  0  0  0  0  0  0  0  0  0
  -27.4510  -16.0780   19.7080 H   0  0  0  0  0  0  0  0  0  0  0  0
  -25.5120  -20.2780   18.7510 C   0  0  0  0  0  1  0  0  0  0  0  0
  -26.7670  -19.8060   19.2280 O   0  0  0  0  0  0  0  0  0  0  0  0
  2  1  1  0
  3  4  1  0
  4  1  2  0
  4  7  1  0
  5 51  1  0
  5  2  2  0
  6  3  2  0
  6  5  1  0
  7  8  2  0
  9 10  1  0
  9  7  1  0
 11 22  2  0
 12 10  1  0
 12 17  1  0
 13 21  1  0
 13 23  1  0
 14 20  1  0
 14 16  1  0
 15 21  1  0
 16 15  1  0
 17 16  2  0
 18 19  1  0
 18 12  2  0
 19 14  2  0
 20 13  1  0
 21 11  1  0
 23 25  2  0
 24 23  1  0
 26 24  1  0
 27 36  2  0
 27 32  1  0
 28 24  1  0
 28 32  1  0
 29 28  1  0
 30 31  1  0
 30 29  1  0
 31 27  1  0
 32 33  2  0
 33 34  1  0
 35 34  2  0
 36 35  1  0
 37 11  1  0
 37 38  1  0
 37 47  1  0
 38 41  1  0
 39 43  1  0
 39 38  1  0
 40 39  2  0
 43 42  1  0
 45 43  1  0
 45 46  1  0
 45 44  1  0
 47 50  1  1
 47 48  1  0
 49 47  1  0
 51 52  2  0
 53 51  1  0
 53 54  1  0
 54 63  1  0
 55 61  1  0
 55 63  1  0
 56 61  1  0
 57 58  1  0
 57 56  1  0
 59 58  1  0
 59 68  1  0
 59 60  1  0
 61 60  1  0
 62 55  2  0
 63 64  1  0
 65 66  2  0
 66 85  1  0
 67 66  1  0
 67 70  1  0
 68 69  1  0
 68 65  1  0
 69 67  2  0
 70 71  1  0
 71 72  2  0
 73 76  1  0
 73 72  1  0
 74 73  2  0
 75 74  1  0
 75 70  2  0
 76 77  1  0
 77 78  1  0
 78 79  2  0
 80 79  1  0
 80 84  1  0
 81 80  2  0
 82 77  2  0
 82 81  1  0
 83 82  1  0
 85 86  1  0
 86 89  1  0
 86 88  1  0
 87 85  2  0
 90 65  1  0
 90 91  1  0
 92 90  1  0
 93 94  1  0
 94  6  1  0
M  ISO  4   9 101  10 101  55 100  63 100
M  END
>  <TORSDO>  (47) 
F 22

>  <SCORE>  (47) 
-11.438

>  <name>  (47) 
48

>  <ligand_id>  (47) 
48

>  <original_smiles>  (47) 
[H]c1c([H])c([H])c2c(c1[H])C([H])([H])C([H])([H])C([H])([H])C2([H])N([H])C(=O)C1([H])N(C(=O)C([H])(N([H])C(=O)C([H])(N([H])C([H])([H])[H])C([H])([H])[H])C(C([H])([H])[H])(C([H])([H])[H])C([H])([H])[H])C([H])([H])c2c([H])c(OC([H])([H])C(=O)c3c([H])c([H])c(C(=O)C([H])([H])C([H])([H])N([H])C(=O)N4C([H])([H])C([H])([H])C([H])([H])C([H])(n5nc(-c6c([H])c([H])c(Oc7c([H])c([H])c(F)c([H])c7F)c([H])c6[H])c(C(=O)N([H])[H])c5N([H])[H])C4([H])[H])c(OC([H])([H])[H])c3[H])c([H])c([H])c2C1([H])[H]

>  <smiles>  (47) 
[H]c1c([H])c([H])c2c(c1[H])C([H])([H])C([H])([H])C([H])([H])C2([H])N([H])C(=O)C1([H])N(C(=O)C([H])(N([H])C(=O)C([H])(N([H])C([H])([H])[H])C([H])([H])[H])C(C([H])([H])[H])(C([H])([H])[H])C([H])([H])[H])C([H])([H])c2c([H])c(OC([H])([H])C(=O)c3c([H])c([H])c(C(=O)C([H])([H])C([H])([H])N([H])C(=O)N4C([H])([H])C([H])([H])C([H])([H])C([H])(n5nc(-c6c([H])c([H])c(Oc7c([H])c([H])c(F)c([H])c7F)c([H])c6[H])c(C(=O)N([H])[H])c5N([H])[H])C4([H])[H])c(OC([H])([H])[H])c3[H])c([H])c([H])c2C1([H])[H]

$$$$
49:0:0
     RDKit          3D

 98106  0  0  1  0  0  0  0  0999 V2000
  -30.8400  -23.5830   21.2310 C   0  0  0  0  0  0  0  0  0  0  0  0
  -31.7520  -24.0630   20.5470 O   0  0  0  0  0  0  0  0  0  0  0  0
  -30.7680  -19.9180   20.1380 C   0  0  0  0  0  3  0  0  0  0  0  0
  -29.8160  -20.0540   22.3710 C   0  0  0  0  0  3  0  0  0  0  0  0
  -30.9690  -21.3160   20.1410 C   0  0  0  0  0  3  0  0  0  0  0  0
  -30.0030  -21.4520   22.3690 C   0  0  0  0  0  3  0  0  0  0  0  0
  -30.2030  -19.2680   21.2630 C   0  0  0  0  0  0  0  0  0  0  0  0
  -30.5830  -22.1050   21.2540 C   0  0  0  0  0  0  0  0  0  0  0  0
  -29.9260  -17.7960   21.3000 C   0  0  0  0  0  0  0  0  0  0  0  0
  -28.9520  -17.3160   21.8930 O   0  0  0  0  0  0  0  0  0  0  0  0
  -30.9250  -16.8490   20.6260 C   0  0  0  0  0  2  0  0  0  0  0  0
  -30.9400  -14.5090   19.8680 C   0  0  0  0  0  0  0  0  0  0  0  0
  -30.5360  -12.3360   18.7870 C   0  0  0  0  0  2  0  0  0  0  0  0
  -29.5200  -12.5030   17.6420 C   0  0  0  0  0  2  0  0  0  0  0  0
  -28.0850  -12.3520   18.1780 C   0  0  0  0  0  2  0  0  0  0  0  0
  -27.8210  -13.2300   19.4290 C   0  0  0  0  0  3  0  0  0  0  0  0
  -28.9510  -13.0750   20.4740 C   0  0  0  0  0  2  0  0  0  0  0  0
  -30.2390  -13.3490   19.8120 N   0  0  0  0  0  0  0  0  0  0  0  0
  -31.9430  -14.7240   19.1810 O   0  0  0  0  0  0  0  0  0  0  0  0
  -30.4530  -15.4620   20.6640 N   0  0  0  0  0  0  0  0  0  0  0  0
  -29.6330  -15.2750   21.2260 H   0  0  0  0  0  0  0  0  0  0  0  0
  -25.4840  -13.8250   20.3230 C   0  0  0  0  0  0  0  0  0  0  0  0
  -24.4500  -13.0460   20.7710 C   0  0  0  0  0  0  0  0  0  0  0  0
  -24.9110  -11.6970   20.6990 C   0  0  0  0  0  0  0  0  0  0  0  0
  -26.5100  -12.9480   20.0100 N   0  0  0  0  0  0  0  0  0  0  0  0
  -26.1720  -11.6630   20.2890 N   0  0  0  0  0  0  0  0  0  0  0  0
  -24.2080  -10.4290   20.9430 C   0  0  0  0  0  0  0  0  0  0  0  0
  -24.6240   -9.5360   21.9540 C   0  0  0  0  0  3  0  0  0  0  0  0
  -23.9200   -8.3340   22.1830 C   0  0  0  0  0  3  0  0  0  0  0  0
  -22.7870   -8.0160   21.3980 C   0  0  0  0  0  0  0  0  0  0  0  0
  -22.3910   -8.8960   20.3750 C   0  0  0  0  0  3  0  0  0  0  0  0
  -23.0960  -10.0900   20.1460 C   0  0  0  0  0  3  0  0  0  0  0  0
  -22.0590   -6.8590   21.5290 O   0  0  0  0  0  0  0  0  0  0  0  0
  -21.8440   -6.2790   22.7540 C   0  0  0  0  0  0  0  0  0  0  0  0
  -21.2040   -6.9710   23.8060 C   0  0  0  0  0  3  0  0  0  0  0  0
  -20.9420   -6.3150   25.0240 C   0  0  0  0  0  3  0  0  0  0  0  0
  -21.3090   -4.9660   25.1910 C   0  0  0  0  0  0  0  0  0  0  0  0
  -21.9420   -4.2730   24.1420 C   0  0  0  0  0  3  0  0  0  0  0  0
  -22.2060   -4.9280   22.9280 C   0  0  0  0  0  0  0  0  0  0  0  0
  -22.7970   -4.2500   21.9130 F   0  0  0  0  0  0  0  0  0  0  0  0
  -21.0500   -4.3310   26.3570 F   0  0  0  0  0  0  0  0  0  0  0  0
  -23.0780  -13.5160   21.1600 C   0  0  0  0  0  0  0  0  0  0  0  0
  -22.4420  -12.8280   22.1040 N   0  0  0  0  0  0  0  0  0  0  0  0
  -22.5810  -14.5240   20.6620 O   0  0  0  0  0  0  0  0  0  0  0  0
  -22.8640  -12.0120   22.5230 H   0  0  0  0  0  0  0  0  0  0  0  0
  -21.5260  -13.1220   22.4130 H   0  0  0  0  0  0  0  0  0  0  0  0
  -25.6330  -15.1960   20.1420 N   0  0  0  0  0  0  0  0  0  0  0  0
  -24.8840  -15.8590   20.3150 H   0  0  0  0  0  0  0  0  0  0  0  0
  -26.4820  -15.6310   19.8000 H   0  0  0  0  0  0  0  0  0  0  0  0
  -29.8930  -24.5220   22.0230 C   0  0  0  0  0  3  0  0  0  0  0  0
  -30.6010  -25.8000   22.2250 N   0  0  0  0  0  4  0  0  0  0  0  0
  -30.9010  -26.1610   21.3360 H   0  0  0  0  0  0  0  0  0  0  0  0
  -31.4270  -25.6240   22.7670 H   0  0  0  0  0  0  0  0  0  0  0  0
  -30.0330  -26.4760   22.6990 H   0  0  0  0  0  0  0  0  0  0  0  0
  -27.4220  -25.2250   22.2720 C   0  0  0  0  0  1  0  0  0  0  0  0
  -28.5140  -24.6910   21.3180 C   0  0  0  0  0  3  0  0  0  0  0  0
  -28.5670  -25.4290   19.9510 C   0  0  0  0  0  2  0  0  0  0  0  0
  -28.5670  -26.8600   20.0800 O   0  0  0  0  0  0  0  0  0  0  0  0
  -24.6110  -31.8540   23.2320 C   0  0  0  0  0  0  0  0  0  0  0  0
  -27.3640  -27.5420   20.0590 C   0  0  0  0  0  0  0  0  0  0  0  0
  -23.4510  -30.4690   21.5450 C   0  0  0  0  0  3  0  0  0  0  0  0
  -24.9420  -29.0080   20.0960 C   0  0  0  0  0  0  0  0  0  0  0  0
  -25.9710  -30.8850   21.3790 C   0  0  0  0  0  2  0  0  0  0  0  0
  -26.0850  -29.5330   20.7060 C   0  0  0  0  0  0  0  0  0  0  0  0
  -27.2980  -28.8070   20.6870 C   0  0  0  0  0  3  0  0  0  0  0  0
  -26.1920  -27.0340   19.4470 C   0  0  0  0  0  3  0  0  0  0  0  0
  -24.9870  -27.7560   19.4690 C   0  0  0  0  0  3  0  0  0  0  0  0
  -23.6890  -29.8480   20.1460 C   0  0  0  0  0  2  0  0  0  0  0  0
  -24.6950  -31.0840   22.1110 N   0  0  0  0  0  0  0  0  0  0  0  0
  -23.5190  -32.0870   23.7690 O   0  0  0  0  0  0  0  0  0  0  0  0
  -22.8170  -29.4030   22.4680 C   0  0  0  0  0  0  0  0  0  0  0  0
  -21.5020  -29.1810   22.3050 N   0  0  0  0  0  0  0  0  0  0  0  0
  -23.5040  -28.7840   23.2850 O   0  0  0  0  0  0  0  0  0  0  0  0
  -21.0100  -29.7430   21.6250 H   0  0  0  0  0  0  0  0  0  0  0  0
  -18.1550  -27.8610   22.6760 C   0  0  0  0  0  0  0  0  0  0  0  0
  -20.6950  -28.2040   23.0350 C   0  0  0  0  0  3  0  0  0  0  0  0
  -20.8680  -26.7860   22.4440 C   0  0  0  0  0  2  0  0  0  0  0  0
  -19.8080  -26.4360   21.3930 C   0  0  0  0  0  2  0  0  0  0  0  0
  -18.4010  -26.5250   21.9930 C   0  0  0  0  0  2  0  0  0  0  0  0
  -19.2340  -28.6560   23.1500 C   0  0  0  0  0  0  0  0  0  0  0  0
  -18.9560  -29.9020   23.7490 C   0  0  0  0  0  3  0  0  0  0  0  0
  -17.6300  -30.3600   23.8800 C   0  0  0  0  0  3  0  0  0  0  0  0
  -16.5650  -29.5630   23.4250 C   0  0  0  0  0  3  0  0  0  0  0  0
  -16.8270  -28.3160   22.8270 C   0  0  0  0  0  3  0  0  0  0  0  0
  -25.8770  -32.4960   23.8790 C   0  0  0  0  0  3  0  0  0  0  0  0
  -26.3750  -31.7260   25.1620 C   0  0  1  0  0  0  0  0  0  0  0  0
  -25.2640  -31.4690   26.2070 C   0  0  0  0  0  1  0  0  0  0  0  0
  -26.9880  -30.3590   24.7720 C   0  0  0  0  0  1  0  0  0  0  0  0
  -27.5000  -32.5340   25.8530 C   0  0  0  0  0  1  0  0  0  0  0  0
  -25.5470  -33.8900   24.2020 N   0  0  0  0  0  0  0  0  0  0  0  0
  -25.8980  -34.9440   23.4540 C   0  0  0  0  0  0  0  0  0  0  0  0
  -26.6020  -34.8450   22.4460 O   0  0  0  0  0  0  0  0  0  0  0  0
  -24.9160  -34.0400   24.9770 H   0  0  0  0  0  0  0  0  0  0  0  0
  -24.1780  -36.7310   23.0390 C   0  0  0  0  0  1  0  0  0  0  0  0
  -25.3890  -36.3280   23.8950 C   0  0  0  0  0  3  0  0  0  0  0  0
  -27.4820  -37.2280   24.8120 C   0  0  0  0  0  1  0  0  0  0  0  0
  -26.4180  -37.3860   23.8230 N   0  0  0  0  0  0  0  0  0  0  0  0
  -25.9990  -38.3030   23.9590 H   0  0  0  0  0  0  0  0  0  0  0  0
  1  8  1  0
  2  1  2  0
  3  5  2  0
  3  7  1  0
  5  8  1  0
  6  4  1  0
  7  9  1  0
  7  4  2  0
  8  6  2  0
  9 10  2  0
 11 20  1  0
 11  9  1  0
 12 20  1  0
 13 18  1  0
 14 15  1  0
 14 13  1  0
 16 15  1  0
 16 25  1  0
 16 17  1  0
 18 12  1  0
 18 17  1  0
 19 12  2  0
 20 21  1  0
 22 23  2  0
 23 42  1  0
 24 23  1  0
 24 27  1  0
 25 26  1  0
 25 22  1  0
 26 24  2  0
 27 28  1  0
 28 29  2  0
 30 33  1  0
 30 29  1  0
 31 30  2  0
 32 31  1  0
 32 27  2  0
 33 34  1  0
 34 39  2  0
 34 35  1  0
 35 36  2  0
 36 37  1  0
 37 41  1  0
 38 37  2  0
 39 38  1  0
 40 39  1  0
 42 43  1  0
 43 46  1  0
 43 45  1  0
 44 42  2  0
 47 48  1  0
 47 22  1  0
 49 47  1  0
 50  1  1  0
 50 51  1  0
 51 54  1  0
 51 53  1  0
 52 51  1  0
 56 50  1  0
 56 55  1  0
 57 58  1  0
 57 56  1  0
 59 70  2  0
 60 58  1  0
 60 65  1  0
 61 69  1  0
 61 71  1  0
 62 68  1  0
 62 64  1  0
 63 69  1  0
 64 63  1  0
 65 64  2  0
 66 67  1  0
 66 60  2  0
 67 62  2  0
 68 61  1  0
 69 59  1  0
 71 73  2  0
 72 71  1  0
 74 72  1  0
 75 84  2  0
 75 80  1  0
 76 72  1  0
 76 80  1  0
 77 76  1  0
 78 79  1  0
 78 77  1  0
 79 75  1  0
 80 81  2  0
 81 82  1  0
 83 82  2  0
 84 83  1  0
 85 59  1  0
 85 90  1  0
 85 86  1  0
 86 89  1  1
 86 87  1  0
 88 86  1  0
 90 93  1  0
 91 95  1  0
 91 90  1  0
 92 91  2  0
 95 94  1  0
 97 95  1  0
 97 98  1  0
 97 96  1  0
M  ISO  4  12 100  20 100  57 101  58 101
M  END
>  <TORSDO>  (48) 
F 23

>  <SCORE>  (48) 
-11.543

>  <name>  (48) 
49

>  <ligand_id>  (48) 
49

>  <original_smiles>  (48) 
[H]c1c([H])c([H])c2c(c1[H])C([H])([H])C([H])([H])C([H])([H])C2([H])N([H])C(=O)C1([H])N(C(=O)C([H])(N([H])C(=O)C([H])(N([H])C([H])([H])[H])C([H])([H])[H])C(C([H])([H])[H])(C([H])([H])[H])C([H])([H])[H])C([H])([H])c2c([H])c(OC([H])([H])C([H])(C([H])([H])[H])C([H])(C(=O)c3c([H])c([H])c(C(=O)C([H])([H])N([H])C(=O)N4C([H])([H])C([H])([H])C([H])([H])C([H])(n5nc(-c6c([H])c([H])c(Oc7c([H])c([H])c(F)c([H])c7F)c([H])c6[H])c(C(=O)N([H])[H])c5N([H])[H])C4([H])[H])c([H])c3[H])[N+]([H])([H])[H])c([H])c([H])c2C1([H])[H]

>  <smiles>  (48) 
[H]c1c([H])c([H])c2c(c1[H])C([H])([H])C([H])([H])C([H])([H])C2([H])N([H])C(=O)C1([H])N(C(=O)C([H])(N([H])C(=O)C([H])(N([H])C([H])([H])[H])C([H])([H])[H])C(C([H])([H])[H])(C([H])([H])[H])C([H])([H])[H])C([H])([H])c2c([H])c(OC([H])([H])C([H])(C([H])([H])[H])C([H])(C(=O)c3c([H])c([H])c(C(=O)C([H])([H])N([H])C(=O)N4C([H])([H])C([H])([H])C([H])([H])C([H])(n5nc(-c6c([H])c([H])c(Oc7c([H])c([H])c(F)c([H])c7F)c([H])c6[H])c(C(=O)N([H])[H])c5N([H])[H])C4([H])[H])c([H])c3[H])[N+]([H])([H])[H])c([H])c([H])c2C1([H])[H]

$$$$
50:0:0
     RDKit          3D

 97105  0  0  1  0  0  0  0  0999 V2000
  -26.9280  -18.8490   19.7470 C   0  0  0  0  0  3  0  0  0  0  0  0
  -25.8690  -19.4400   19.0550 C   0  0  0  0  0  3  0  0  0  0  0  0
  -28.3990  -20.6640   19.0420 C   0  0  0  0  0  3  0  0  0  0  0  0
  -28.2100  -19.4490   19.7360 C   0  0  0  0  0  0  0  0  0  0  0  0
  -26.0580  -20.6470   18.3310 C   0  0  0  0  0  0  0  0  0  0  0  0
  -27.3510  -21.2510   18.2840 C   0  0  0  0  0  0  0  0  0  0  0  0
  -24.8230  -21.2500   17.6650 C   0  0  0  0  0  1  0  0  0  0  0  0
  -29.3260  -18.7790   20.4510 C   0  0  0  0  0  0  0  0  0  0  0  0
  -29.9700  -19.2940   21.3740 O   0  0  0  0  0  0  0  0  0  0  0  0
  -29.6970  -17.3960   19.8870 C   0  0  0  0  0  2  0  0  0  0  0  0
  -30.5110  -16.4540   20.7860 C   0  0  0  0  0  2  0  0  0  0  0  0
  -31.1330  -14.0570   20.6170 C   0  0  0  0  0  0  0  0  0  0  0  0
  -30.8970  -11.6950   19.9910 C   0  0  0  0  0  2  0  0  0  0  0  0
  -30.0340  -11.6360   18.7100 C   0  0  0  0  0  2  0  0  0  0  0  0
  -28.5280  -11.6150   19.0470 C   0  0  0  0  0  2  0  0  0  0  0  0
  -28.1170  -12.7020   20.0740 C   0  0  0  0  0  3  0  0  0  0  0  0
  -29.0940  -12.7470   21.2660 C   0  0  0  0  0  2  0  0  0  0  0  0
  -30.4620  -12.8830   20.7190 N   0  0  0  0  0  0  0  0  0  0  0  0
  -32.3580  -14.1570   20.4520 O   0  0  0  0  0  0  0  0  0  0  0  0
  -30.3620  -15.0780   20.2980 N   0  0  0  0  0  0  0  0  0  0  0  0
  -29.8790  -14.9260   19.4200 H   0  0  0  0  0  0  0  0  0  0  0  0
  -25.7470  -13.5010   20.6630 C   0  0  0  0  0  0  0  0  0  0  0  0
  -24.6060  -12.8240   21.0060 C   0  0  0  0  0  0  0  0  0  0  0  0
  -24.9740  -11.4470   21.0470 C   0  0  0  0  0  0  0  0  0  0  0  0
  -26.7350  -12.5440   20.5050 N   0  0  0  0  0  0  0  0  0  0  0  0
  -26.2710  -11.3000   20.7970 N   0  0  0  0  0  0  0  0  0  0  0  0
  -24.1540  -10.2440   21.2460 C   0  0  0  0  0  0  0  0  0  0  0  0
  -24.5220   -9.2490   22.1770 C   0  0  0  0  0  3  0  0  0  0  0  0
  -23.7080   -8.1120   22.3640 C   0  0  0  0  0  3  0  0  0  0  0  0
  -22.5160   -7.9620   21.6150 C   0  0  0  0  0  0  0  0  0  0  0  0
  -22.1700   -8.9440   20.6710 C   0  0  0  0  0  3  0  0  0  0  0  0
  -22.9850  -10.0740   20.4820 C   0  0  0  0  0  3  0  0  0  0  0  0
  -21.6800   -6.8770   21.7090 O   0  0  0  0  0  0  0  0  0  0  0  0
  -21.6160   -6.1130   22.8480 C   0  0  0  0  0  0  0  0  0  0  0  0
  -21.2690   -6.6690   24.1010 C   0  0  0  0  0  3  0  0  0  0  0  0
  -21.1440   -5.8360   25.2300 C   0  0  0  0  0  3  0  0  0  0  0  0
  -21.3550   -4.4510   25.1090 C   0  0  0  0  0  0  0  0  0  0  0  0
  -21.6960   -3.8940   23.8640 C   0  0  0  0  0  3  0  0  0  0  0  0
  -21.8230   -4.7240   22.7360 C   0  0  0  0  0  0  0  0  0  0  0  0
  -22.1320   -4.1810   21.5360 F   0  0  0  0  0  0  0  0  0  0  0  0
  -21.2310   -3.6490   26.1930 F   0  0  0  0  0  0  0  0  0  0  0  0
  -23.2360  -13.4120   21.1890 C   0  0  0  0  0  0  0  0  0  0  0  0
  -22.4250  -12.8150   22.0590 N   0  0  0  0  0  0  0  0  0  0  0  0
  -22.8900  -14.4300   20.5970 O   0  0  0  0  0  0  0  0  0  0  0  0
  -22.7250  -12.0010   22.5730 H   0  0  0  0  0  0  0  0  0  0  0  0
  -21.4970  -13.1790   22.2130 H   0  0  0  0  0  0  0  0  0  0  0  0
  -26.0030  -14.8510   20.4450 N   0  0  0  0  0  0  0  0  0  0  0  0
  -25.2410  -15.5180   20.4620 H   0  0  0  0  0  0  0  0  0  0  0  0
  -26.8650  -15.2260   20.0720 H   0  0  0  0  0  0  0  0  0  0  0  0
  -26.9860  -23.7700   18.1160 C   0  0  0  0  0  1  0  0  0  0  0  0
  -27.6270  -22.5250   17.4550 C   0  0  0  0  0  3  0  0  0  0  0  0
  -29.0410  -22.6700   16.9870 N   0  0  0  0  0  4  0  0  0  0  0  0
  -29.4020  -21.7520   16.7910 H   0  0  0  0  0  0  0  0  0  0  0  0
  -28.9820  -23.1210   16.0890 H   0  0  0  0  0  0  0  0  0  0  0  0
  -30.0060  -23.4500   17.8190 C   0  0  0  0  0  2  0  0  0  0  0  0
  -30.6350  -24.6670   17.0920 C   0  0  0  0  0  2  0  0  0  0  0  0
  -30.5620  -25.8470   17.9120 O   0  0  0  0  0  0  0  0  0  0  0  0
  -25.9070  -28.5060   22.5930 C   0  0  0  0  0  0  0  0  0  0  0  0
  -29.3450  -26.4820   18.0800 C   0  0  0  0  0  0  0  0  0  0  0  0
  -25.1060  -28.3520   20.2590 C   0  0  0  0  0  3  0  0  0  0  0  0
  -26.8860  -27.8210   18.5130 C   0  0  0  0  0  0  0  0  0  0  0  0
  -27.5960  -28.6180   20.7710 C   0  0  0  0  0  2  0  0  0  0  0  0
  -27.8800  -27.8470   19.4990 C   0  0  0  0  0  0  0  0  0  0  0  0
  -29.1050  -27.1750   19.2930 C   0  0  0  0  0  3  0  0  0  0  0  0
  -28.3350  -26.4840   17.0930 C   0  0  0  0  0  3  0  0  0  0  0  0
  -27.1090  -27.1460   17.3030 C   0  0  0  0  0  3  0  0  0  0  0  0
  -25.6010  -28.5640   18.8060 C   0  0  0  0  0  2  0  0  0  0  0  0
  -26.2090  -28.4660   21.2610 N   0  0  0  0  0  0  0  0  0  0  0  0
  -24.7340  -28.4890   22.9850 O   0  0  0  0  0  0  0  0  0  0  0  0
  -24.3510  -27.0020   20.3310 C   0  0  0  0  0  0  0  0  0  0  0  0
  -23.1250  -26.9740   19.7820 N   0  0  0  0  0  0  0  0  0  0  0  0
  -24.8740  -26.0080   20.8470 O   0  0  0  0  0  0  0  0  0  0  0  0
  -22.7630  -27.8280   19.3800 H   0  0  0  0  0  0  0  0  0  0  0  0
  -19.9340  -25.8270   18.5480 C   0  0  0  0  0  0  0  0  0  0  0  0
  -22.2500  -25.8050   19.6960 C   0  0  0  0  0  3  0  0  0  0  0  0
  -22.7020  -24.8690   18.5590 C   0  0  0  0  0  2  0  0  0  0  0  0
  -21.9820  -25.1480   17.2360 C   0  0  0  0  0  2  0  0  0  0  0  0
  -20.4680  -24.9880   17.4000 C   0  0  0  0  0  2  0  0  0  0  0  0
  -20.7780  -26.2280   19.6170 C   0  0  0  0  0  0  0  0  0  0  0  0
  -20.2430  -27.0440   20.6410 C   0  0  0  0  0  3  0  0  0  0  0  0
  -18.8930  -27.4460   20.6150 C   0  0  0  0  0  3  0  0  0  0  0  0
  -18.0590  -27.0280   19.5680 C   0  0  0  0  0  3  0  0  0  0  0  0
  -18.5790  -26.2230   18.5340 C   0  0  0  0  0  3  0  0  0  0  0  0
  -27.0240  -28.6050   23.6790 C   0  0  0  0  0  3  0  0  0  0  0  0
  -26.5430  -29.5110   24.7330 N   0  0  0  0  0  0  0  0  0  0  0  0
  -26.9190  -30.7880   24.8620 C   0  0  0  0  0  0  0  0  0  0  0  0
  -27.7730  -31.3150   24.1480 O   0  0  0  0  0  0  0  0  0  0  0  0
  -25.8200  -29.1530   25.3380 H   0  0  0  0  0  0  0  0  0  0  0  0
  -25.1390  -32.5010   25.3390 C   0  0  0  0  0  1  0  0  0  0  0  0
  -26.2280  -31.6140   25.9610 C   0  0  0  0  0  3  0  0  0  0  0  0
  -28.0690  -31.6770   27.5920 C   0  0  0  0  0  1  0  0  0  0  0  0
  -27.1670  -32.4540   26.7430 N   0  0  0  0  0  0  0  0  0  0  0  0
  -26.6540  -33.1010   27.3390 H   0  0  0  0  0  0  0  0  0  0  0  0
  -27.4170  -27.2000   24.2870 C   0  0  1  0  0  0  0  0  0  0  0  0
  -26.2080  -26.3790   24.7820 C   0  0  0  0  0  1  0  0  0  0  0  0
  -28.1730  -26.3460   23.2420 C   0  0  0  0  0  1  0  0  0  0  0  0
  -28.3750  -27.3980   25.4860 C   0  0  0  0  0  1  0  0  0  0  0  0
  2  1  2  0
  3  4  2  0
  4  1  1  0
  4  8  1  0
  5  2  1  0
  6  5  2  0
  6  3  1  0
  7  5  1  0
  8  9  2  0
 10  8  1  0
 10 11  1  0
 12 18  1  0
 13 18  1  0
 14 15  1  0
 14 13  1  0
 16 15  1  0
 16 25  1  0
 16 17  1  0
 18 17  1  0
 19 12  2  0
 20 12  1  0
 20 11  1  0
 21 20  1  0
 22 23  2  0
 23 24  1  0
 23 42  1  0
 24 27  1  0
 25 22  1  0
 25 26  1  0
 26 24  2  0
 27 28  1  0
 28 29  2  0
 30 33  1  0
 30 29  1  0
 31 30  2  0
 32 31  1  0
 32 27  2  0
 33 34  1  0
 34 35  1  0
 35 36  2  0
 37 36  1  0
 37 41  1  0
 38 37  2  0
 39 34  2  0
 39 38  1  0
 40 39  1  0
 42 43  1  0
 43 46  1  0
 43 45  1  0
 44 42  2  0
 47 48  1  0
 47 22  1  0
 49 47  1  0
 51 50  1  0
 51  6  1  0
 52 51  1  0
 52 55  1  0
 53 52  1  0
 54 52  1  0
 56 55  1  0
 56 57  1  0
 57 59  1  0
 58 69  2  0
 59 64  1  0
 60 70  1  0
 60 68  1  0
 61 67  1  0
 61 63  1  0
 62 68  1  0
 63 62  1  0
 64 63  2  0
 65 66  1  0
 65 59  2  0
 66 61  2  0
 67 60  1  0
 68 58  1  0
 70 72  2  0
 71 70  1  0
 73 71  1  0
 74 79  1  0
 75 71  1  0
 76 75  1  0
 77 78  1  0
 77 76  1  0
 78 74  1  0
 79 75  1  0
 79 80  2  0
 81 80  1  0
 82 81  2  0
 83 74  2  0
 83 82  1  0
 84 58  1  0
 84 94  1  0
 84 85  1  0
 85 86  1  0
 85 88  1  0
 86 90  1  0
 87 86  2  0
 90 89  1  0
 90 92  1  0
 92 93  1  0
 92 91  1  0
 94 95  1  1
 94 97  1  0
 96 94  1  0
M  ISO  4  12 100  20 100  56 101  57 101
M  END
>  <TORSDO>  (49) 
F 23

>  <SCORE>  (49) 
-8.343

>  <name>  (49) 
50

>  <ligand_id>  (49) 
50

>  <original_smiles>  (49) 
[H]c1c([H])c([H])c2c(c1[H])C([H])([H])C([H])([H])C([H])([H])C2([H])N([H])C(=O)C1([H])N(C(=O)C([H])(N([H])C(=O)C([H])(N([H])C([H])([H])[H])C([H])([H])[H])C(C([H])([H])[H])(C([H])([H])[H])C([H])([H])[H])C([H])([H])c2c([H])c(OC([H])([H])C([H])([H])[N+]([H])([H])C([H])(c3c([H])c(C(=O)C([H])([H])C([H])([H])N([H])C(=O)N4C([H])([H])C([H])([H])C([H])([H])C([H])(n5nc(-c6c([H])c([H])c(Oc7c([H])c([H])c(F)c([H])c7F)c([H])c6[H])c(C(=O)N([H])[H])c5N([H])[H])C4([H])[H])c([H])c([H])c3C([H])([H])[H])C([H])([H])[H])c([H])c([H])c2C1([H])[H]

>  <smiles>  (49) 
[H]c1c([H])c([H])c2c(c1[H])C([H])([H])C([H])([H])C([H])([H])C2([H])N([H])C(=O)C1([H])N(C(=O)C([H])(N([H])C(=O)C([H])(N([H])C([H])([H])[H])C([H])([H])[H])C(C([H])([H])[H])(C([H])([H])[H])C([H])([H])[H])C([H])([H])c2c([H])c(OC([H])([H])C([H])([H])[N+]([H])([H])C([H])(c3c([H])c(C(=O)C([H])([H])C([H])([H])N([H])C(=O)N4C([H])([H])C([H])([H])C([H])([H])C([H])(n5nc(-c6c([H])c([H])c(Oc7c([H])c([H])c(F)c([H])c7F)c([H])c6[H])c(C(=O)N([H])[H])c5N([H])[H])C4([H])[H])c([H])c([H])c3C([H])([H])[H])C([H])([H])[H])c([H])c([H])c2C1([H])[H]

$$$$
51:0:0
     RDKit          3D

106114  0  0  1  0  0  0  0  0999 V2000
  -34.0830  -25.7070   15.0470 C   0  0  0  0  0  3  0  0  0  0  0  0
  -34.5930  -23.3270   14.9940 C   0  0  0  0  0  3  0  0  0  0  0  0
  -35.2760  -25.9520   15.7530 C   0  0  0  0  0  3  0  0  0  0  0  0
  -35.7820  -23.5690   15.7110 C   0  0  0  0  0  3  0  0  0  0  0  0
  -33.7030  -24.3860   14.7090 C   0  0  0  0  0  0  0  0  0  0  0  0
  -36.1000  -24.8760   16.1450 C   0  0  0  0  0  0  0  0  0  0  0  0
  -32.3580  -24.1010   14.1010 C   0  0  0  0  0  0  0  0  0  0  0  0
  -31.3420  -24.6400   14.7790 N   0  0  0  0  0  0  0  0  0  0  0  0
  -32.2150  -23.3180   13.1580 O   0  0  0  0  0  0  0  0  0  0  0  0
  -31.6100  -25.2650   15.5260 H   0  0  0  0  0  0  0  0  0  0  0  0
  -29.9330  -24.2770   14.7080 C   0  0  0  0  0  2  0  0  0  0  0  0
  -29.2800  -24.6010   16.0610 C   0  0  0  0  0  2  0  0  0  0  0  0
  -29.4200  -23.5220   17.1430 C   0  0  0  0  0  2  0  0  0  0  0  0
  -29.0660  -24.1880   18.3490 O   0  0  0  0  0  0  0  0  0  0  0  0
  -30.0390  -28.9320   23.5130 C   0  0  0  0  0  0  0  0  0  0  0  0
  -30.0110  -24.8350   19.1120 C   0  0  0  0  0  0  0  0  0  0  0  0
  -32.1010  -28.1660   22.3780 C   0  0  0  0  0  3  0  0  0  0  0  0
  -31.8290  -26.1680   20.8160 C   0  0  0  0  0  0  0  0  0  0  0  0
  -30.0390  -26.6590   22.4970 C   0  0  0  0  0  2  0  0  0  0  0  0
  -30.4820  -26.0580   21.1800 C   0  0  0  0  0  0  0  0  0  0  0  0
  -29.5730  -25.3970   20.3310 C   0  0  0  0  0  3  0  0  0  0  0  0
  -31.3730  -24.9570   18.7510 C   0  0  0  0  0  3  0  0  0  0  0  0
  -32.2790  -25.6250   19.5980 C   0  0  0  0  0  3  0  0  0  0  0  0
  -32.7410  -26.8800   21.7890 C   0  0  0  0  0  2  0  0  0  0  0  0
  -30.6780  -27.9600   22.8040 N   0  0  0  0  0  0  0  0  0  0  0  0
  -30.6270  -29.9700   23.8500 O   0  0  0  0  0  0  0  0  0  0  0  0
  -32.2720  -29.3120   21.3570 C   0  0  0  0  0  0  0  0  0  0  0  0
  -33.0150  -29.0390   20.2720 N   0  0  0  0  0  0  0  0  0  0  0  0
  -31.7210  -30.4020   21.5300 O   0  0  0  0  0  0  0  0  0  0  0  0
  -33.4380  -28.1230   20.2060 H   0  0  0  0  0  0  0  0  0  0  0  0
  -34.8580  -29.4030   17.1870 C   0  0  0  0  0  0  0  0  0  0  0  0
  -33.2820  -29.9520   19.1610 C   0  0  0  0  0  3  0  0  0  0  0  0
  -32.1370  -29.9120   18.1240 C   0  0  0  0  0  2  0  0  0  0  0  0
  -32.3840  -28.9130   16.9890 C   0  0  0  0  0  2  0  0  0  0  0  0
  -33.6770  -29.2560   16.2440 C   0  0  0  0  0  2  0  0  0  0  0  0
  -34.6720  -29.7140   18.5590 C   0  0  0  0  0  0  0  0  0  0  0  0
  -35.8020  -29.8010   19.4010 C   0  0  0  0  0  3  0  0  0  0  0  0
  -37.0970  -29.5880   18.8930 C   0  0  0  0  0  3  0  0  0  0  0  0
  -37.2770  -29.2970   17.5300 C   0  0  0  0  0  3  0  0  0  0  0  0
  -36.1610  -29.2100   16.6790 C   0  0  0  0  0  3  0  0  0  0  0  0
  -28.5500  -28.7780   23.9550 C   0  0  0  0  0  3  0  0  0  0  0  0
  -28.4260  -29.3570   25.2990 N   0  0  0  0  0  0  0  0  0  0  0  0
  -28.1530  -28.6540   26.4070 C   0  0  0  0  0  0  0  0  0  0  0  0
  -27.9050  -27.4440   26.3890 O   0  0  0  0  0  0  0  0  0  0  0  0
  -28.6690  -30.3320   25.3940 H   0  0  0  0  0  0  0  0  0  0  0  0
  -29.6070  -29.6920   28.1750 C   0  0  0  0  0  1  0  0  0  0  0  0
  -28.1570  -29.4120   27.7470 C   0  0  0  0  0  3  0  0  0  0  0  0
  -26.0090  -28.9520   28.8440 C   0  0  0  0  0  1  0  0  0  0  0  0
  -27.4470  -28.6960   28.8290 N   0  0  0  0  0  0  0  0  0  0  0  0
  -27.8240  -28.9510   29.7390 H   0  0  0  0  0  0  0  0  0  0  0  0
  -27.5330  -29.4570   22.9570 C   0  0  1  0  0  0  0  0  0  0  0  0
  -27.5390  -31.0020   23.0180 C   0  0  0  0  0  1  0  0  0  0  0  0
  -27.8370  -29.0420   21.4980 C   0  0  0  0  0  1  0  0  0  0  0  0
  -26.0960  -28.9710   23.2630 C   0  0  0  0  0  1  0  0  0  0  0  0
  -37.3110  -25.1010   17.0480 C   0  0  0  0  0  2  0  0  0  0  0  0
  -36.9730  -25.6650   18.4500 C   0  0  0  0  0  2  0  0  0  0  0  0
  -35.8120  -25.3880   20.6010 C   0  0  0  0  0  1  0  0  0  0  0  0
  -36.0940  -24.7840   19.2750 N   0  0  2  0  0  4  0  0  0  0  0  0
  -35.2010  -24.7920   18.8060 H   0  0  0  0  0  0  0  0  0  0  0  0
  -36.5480  -23.3660   19.4000 C   0  0  0  0  0  2  0  0  0  0  0  0
  -37.9020  -23.1880   20.1240 C   0  0  0  0  0  2  0  0  0  0  0  0
  -39.0340  -22.5950   19.2460 C   0  0  0  0  0  2  0  0  0  0  0  0
  -38.5690  -21.5160   18.3440 N   0  0  0  0  0  4  0  0  0  0  0  0
  -37.6560  -21.2240   18.6600 H   0  0  0  0  0  0  0  0  0  0  0  0
  -38.4540  -21.8900   17.4150 H   0  0  0  0  0  0  0  0  0  0  0  0
  -39.4140  -20.3030   18.2950 C   0  0  0  0  0  2  0  0  0  0  0  0
  -38.7710  -19.1780   17.4600 C   0  0  0  0  0  2  0  0  0  0  0  0
  -38.4110  -17.9080   18.2710 C   0  0  0  0  0  2  0  0  0  0  0  0
  -36.2210  -16.8130   18.8640 C   0  0  0  0  0  0  0  0  0  0  0  0
  -34.1620  -15.4550   18.8550 C   0  0  0  0  0  2  0  0  0  0  0  0
  -34.4350  -14.0860   18.2010 C   0  0  0  0  0  2  0  0  0  0  0  0
  -34.3090  -14.1580   16.6660 C   0  0  0  0  0  2  0  0  0  0  0  0
  -35.0950  -15.3460   16.0570 C   0  0  0  0  0  3  0  0  0  0  0  0
  -34.7620  -16.6470   16.8200 C   0  0  0  0  0  2  0  0  0  0  0  0
  -35.0700  -16.4380   18.2510 N   0  0  0  0  0  0  0  0  0  0  0  0
  -36.5490  -16.4530   19.9990 O   0  0  0  0  0  0  0  0  0  0  0  0
  -36.9980  -17.5890   18.1000 N   0  0  0  0  0  0  0  0  0  0  0  0
  -36.5740  -17.8750   17.2300 H   0  0  0  0  0  0  0  0  0  0  0  0
  -35.5880  -15.0250   13.5450 C   0  0  0  0  0  0  0  0  0  0  0  0
  -34.8760  -15.3650   12.4260 C   0  0  0  0  0  0  0  0  0  0  0  0
  -33.6950  -16.0180   12.8910 C   0  0  0  0  0  0  0  0  0  0  0  0
  -34.8410  -15.4820   14.6230 N   0  0  0  0  0  0  0  0  0  0  0  0
  -33.7190  -16.1240   14.2140 N   0  0  0  0  0  0  0  0  0  0  0  0
  -32.5160  -16.4980   12.1590 C   0  0  0  0  0  0  0  0  0  0  0  0
  -32.2870  -17.8750   11.9480 C   0  0  0  0  0  3  0  0  0  0  0  0
  -31.1550  -18.3120   11.2260 C   0  0  0  0  0  3  0  0  0  0  0  0
  -30.2400  -17.3670   10.7030 C   0  0  0  0  0  0  0  0  0  0  0  0
  -30.4620  -15.9970   10.9340 C   0  0  0  0  0  3  0  0  0  0  0  0
  -31.5850  -15.5660   11.6580 C   0  0  0  0  0  3  0  0  0  0  0  0
  -29.0990  -17.6980   10.0120 O   0  0  0  0  0  0  0  0  0  0  0  0
  -29.1540  -18.2520    8.7580 C   0  0  0  0  0  0  0  0  0  0  0  0
  -29.5270  -17.4980    7.6250 C   0  0  0  0  0  3  0  0  0  0  0  0
  -29.5010  -18.0880    6.3440 C   0  0  0  0  0  3  0  0  0  0  0  0
  -29.0950  -19.4280    6.1960 C   0  0  0  0  0  0  0  0  0  0  0  0
  -28.7190  -20.1790    7.3220 C   0  0  0  0  0  3  0  0  0  0  0  0
  -28.7460  -19.5920    8.5990 C   0  0  0  0  0  0  0  0  0  0  0  0
  -28.3630  -20.3150    9.6790 F   0  0  0  0  0  0  0  0  0  0  0  0
  -29.0630  -19.9940    4.9650 F   0  0  0  0  0  0  0  0  0  0  0  0
  -35.2220  -15.0180   11.0060 C   0  0  0  0  0  0  0  0  0  0  0  0
  -35.2280  -16.0050   10.1150 N   0  0  0  0  0  0  0  0  0  0  0  0
  -35.5390  -13.8730   10.6870 O   0  0  0  0  0  0  0  0  0  0  0  0
  -34.9910  -16.9500   10.3770 H   0  0  0  0  0  0  0  0  0  0  0  0
  -35.4750  -15.8100    9.1550 H   0  0  0  0  0  0  0  0  0  0  0  0
  -36.7930  -14.3530   13.7350 N   0  0  0  0  0  0  0  0  0  0  0  0
  -37.2960  -13.9340   12.9600 H   0  0  0  0  0  0  0  0  0  0  0  0
  -37.1710  -14.0960   14.6380 H   0  0  0  0  0  0  0  0  0  0  0  0
  1  3  1  0
  2  4  2  0
  3  6  2  0
  4  6  1  0
  5  2  1  0
  5  1  2  0
  6 55  1  0
  7  5  1  0
  7  8  1  0
  8 10  1  0
  9  7  2  0
 11  8  1  0
 11 12  1  0
 12 13  1  0
 13 14  1  0
 14 16  1  0
 15 26  2  0
 16 21  1  0
 17 27  1  0
 17 25  1  0
 18 20  1  0
 18 24  1  0
 19 25  1  0
 20 19  1  0
 21 20  2  0
 22 16  2  0
 22 23  1  0
 23 18  2  0
 24 17  1  0
 25 15  1  0
 27 29  2  0
 28 27  1  0
 30 28  1  0
 31 36  1  0
 32 28  1  0
 33 32  1  0
 34 33  1  0
 35 34  1  0
 35 31  1  0
 36 32  1  0
 36 37  2  0
 38 37  1  0
 39 38  2  0
 40 31  2  0
 40 39  1  0
 41 15  1  0
 41 42  1  0
 42 45  1  0
 42 43  1  0
 43 47  1  0
 44 43  2  0
 47 46  1  0
 47 49  1  0
 49 48  1  0
 49 50  1  0
 51 52  1  6
 51 54  1  0
 51 41  1  0
 53 51  1  0
 55 56  1  0
 56 58  1  0
 58 60  1  0
 58 57  1  0
 58 59  1  6
 60 61  1  0
 62 61  1  0
 63 64  1  0
 63 62  1  0
 65 63  1  0
 66 63  1  0
 67 68  1  0
 67 66  1  0
 69 76  2  0
 71 70  1  0
 72 71  1  0
 73 82  1  0
 73 72  1  0
 73 74  1  0
 74 75  1  0
 75 70  1  0
 75 69  1  0
 77 68  1  0
 77 69  1  0
 78 77  1  0
 79104  1  0
 79 82  1  0
 80 81  1  0
 80 79  2  0
 81 83  2  0
 83 82  1  0
 84 81  1  0
 85 84  1  0
 86 85  2  0
 87 88  2  0
 87 86  1  0
 88 89  1  0
 89 84  2  0
 90 87  1  0
 91 90  1  0
 92 91  2  0
 93 92  1  0
 94 93  2  0
 94 95  1  0
 95 96  2  0
 96 91  1  0
 96 97  1  0
 98 94  1  0
 99 80  1  0
100102  1  0
100 99  1  0
101 99  2  0
103100  1  0
104106  1  0
105104  1  0
M  ISO  4  13 101  14 101  69 100  77 100
M  END
>  <TORSDO>  (50) 
F 30

>  <SCORE>  (50) 
-3.223

>  <name>  (50) 
51

>  <ligand_id>  (50) 
51

>  <original_smiles>  (50) 
[H]c1c([H])c([H])c2c(c1[H])C([H])([H])C([H])([H])C([H])([H])C2([H])N([H])C(=O)C1([H])N(C(=O)C([H])(N([H])C(=O)C([H])(N([H])C([H])([H])[H])C([H])([H])[H])C(C([H])([H])[H])(C([H])([H])[H])C([H])([H])[H])C([H])([H])c2c([H])c(OC([H])([H])C([H])([H])C([H])([H])N([H])C(=O)c3c([H])c([H])c(C([H])([H])C([H])([H])[N+]([H])(C([H])([H])[H])C([H])([H])C([H])([H])C([H])([H])[N+]([H])([H])C([H])([H])C([H])([H])C([H])([H])N([H])C(=O)N4C([H])([H])C([H])([H])C([H])([H])C([H])(n5nc(-c6c([H])c([H])c(Oc7c([H])c([H])c(F)c([H])c7F)c([H])c6[H])c(C(=O)N([H])[H])c5N([H])[H])C4([H])[H])c([H])c3[H])c([H])c([H])c2C1([H])[H]

>  <smiles>  (50) 
[H]c1c([H])c([H])c2c(c1[H])C([H])([H])C([H])([H])C([H])([H])C2([H])N([H])C(=O)C1([H])N(C(=O)C([H])(N([H])C(=O)C([H])(N([H])C([H])([H])[H])C([H])([H])[H])C(C([H])([H])[H])(C([H])([H])[H])C([H])([H])[H])C([H])([H])c2c([H])c(OC([H])([H])C([H])([H])C([H])([H])N([H])C(=O)c3c([H])c([H])c(C([H])([H])C([H])([H])[N+]([H])(C([H])([H])[H])C([H])([H])C([H])([H])C([H])([H])[N+]([H])([H])C([H])([H])C([H])([H])C([H])([H])N([H])C(=O)N4C([H])([H])C([H])([H])C([H])([H])C([H])(n5nc(-c6c([H])c([H])c(Oc7c([H])c([H])c(F)c([H])c7F)c([H])c6[H])c(C(=O)N([H])[H])c5N([H])[H])C4([H])[H])c([H])c3[H])c([H])c([H])c2C1([H])[H]

$$$$
52:0:0
     RDKit          3D

 95103  0  0  1  0  0  0  0  0999 V2000
  -28.3510  -19.8680   21.2750 C   0  0  0  0  0  3  0  0  0  0  0  0
  -28.0130  -21.2030   20.9800 C   0  0  0  0  0  3  0  0  0  0  0  0
  -29.9310  -19.8700   19.4410 C   0  0  0  0  0  3  0  0  0  0  0  0
  -29.3080  -19.1730   20.5040 C   0  0  0  0  0  0  0  0  0  0  0  0
  -28.6140  -21.9030   19.9070 C   0  0  0  0  0  0  0  0  0  0  0  0
  -29.5800  -21.2050   19.1200 C   0  0  0  0  0  0  0  0  0  0  0  0
  -30.1910  -21.7490   17.9870 N   0  0  0  0  0  0  0  0  0  0  0  0
  -29.7470  -22.5130   17.4890 H   0  0  0  0  0  0  0  0  0  0  0  0
  -30.6860  -21.1220   17.3590 H   0  0  0  0  0  0  0  0  0  0  0  0
  -29.5690  -17.7250   20.8170 C   0  0  0  0  0  0  0  0  0  0  0  0
  -28.9600  -17.1320   21.7160 O   0  0  0  0  0  0  0  0  0  0  0  0
  -30.6050  -16.9240   20.0040 C   0  0  0  0  0  2  0  0  0  0  0  0
  -31.0450  -14.4970   19.5930 C   0  0  0  0  0  0  0  0  0  0  0  0
  -30.6420  -12.3070   18.5370 C   0  0  0  0  0  2  0  0  0  0  0  0
  -29.5770  -12.4800   17.4330 C   0  0  0  0  0  2  0  0  0  0  0  0
  -28.1550  -12.3640   18.0180 C   0  0  0  0  0  2  0  0  0  0  0  0
  -27.9530  -13.2420   19.2810 C   0  0  0  0  0  3  0  0  0  0  0  0
  -29.1130  -13.0320   20.2810 C   0  0  0  0  0  2  0  0  0  0  0  0
  -30.3800  -13.3110   19.5780 N   0  0  0  0  0  0  0  0  0  0  0  0
  -32.0700  -14.7110   18.9410 O   0  0  0  0  0  0  0  0  0  0  0  0
  -30.4180  -15.4850   20.2400 N   0  0  0  0  0  0  0  0  0  0  0  0
  -29.6110  -15.2450   20.8000 H   0  0  0  0  0  0  0  0  0  0  0  0
  -25.6810  -13.8990   20.3030 C   0  0  0  0  0  0  0  0  0  0  0  0
  -24.6330  -13.1470   20.7600 C   0  0  0  0  0  0  0  0  0  0  0  0
  -25.0270  -11.7830   20.6000 C   0  0  0  0  0  0  0  0  0  0  0  0
  -26.6530  -12.9940   19.9020 N   0  0  0  0  0  0  0  0  0  0  0  0
  -26.2680  -11.7140   20.1350 N   0  0  0  0  0  0  0  0  0  0  0  0
  -24.2760  -10.5400   20.8110 C   0  0  0  0  0  0  0  0  0  0  0  0
  -24.7030   -9.5670   21.7410 C   0  0  0  0  0  3  0  0  0  0  0  0
  -23.9540   -8.3880   21.9400 C   0  0  0  0  0  3  0  0  0  0  0  0
  -22.7620   -8.1730   21.2080 C   0  0  0  0  0  0  0  0  0  0  0  0
  -22.3520   -9.1340   20.2670 C   0  0  0  0  0  3  0  0  0  0  0  0
  -23.1030  -10.3050   20.0670 C   0  0  0  0  0  3  0  0  0  0  0  0
  -21.9830   -7.0450   21.3150 O   0  0  0  0  0  0  0  0  0  0  0  0
  -21.8280   -6.3900   22.5100 C   0  0  0  0  0  0  0  0  0  0  0  0
  -21.2940   -7.0320   23.6480 C   0  0  0  0  0  3  0  0  0  0  0  0
  -21.0850   -6.3030   24.8360 C   0  0  0  0  0  3  0  0  0  0  0  0
  -21.4010   -4.9310   24.8850 C   0  0  0  0  0  0  0  0  0  0  0  0
  -21.9280   -4.2890   23.7510 C   0  0  0  0  0  3  0  0  0  0  0  0
  -22.1380   -5.0160   22.5660 C   0  0  0  0  0  0  0  0  0  0  0  0
  -22.6260   -4.3870   21.4700 F   0  0  0  0  0  0  0  0  0  0  0  0
  -21.1950   -4.2280   26.0230 F   0  0  0  0  0  0  0  0  0  0  0  0
  -23.3000  -13.6580   21.2270 C   0  0  0  0  0  0  0  0  0  0  0  0
  -22.6620  -12.9480   22.1510 N   0  0  0  0  0  0  0  0  0  0  0  0
  -22.8410  -14.7210   20.8110 O   0  0  0  0  0  0  0  0  0  0  0  0
  -23.0500  -12.0880   22.5080 H   0  0  0  0  0  0  0  0  0  0  0  0
  -21.7730  -13.2710   22.5060 H   0  0  0  0  0  0  0  0  0  0  0  0
  -25.8810  -15.2710   20.1800 N   0  0  0  0  0  0  0  0  0  0  0  0
  -25.1640  -15.9430   20.4280 H   0  0  0  0  0  0  0  0  0  0  0  0
  -26.7100  -15.7010   19.7920 H   0  0  0  0  0  0  0  0  0  0  0  0
  -28.0770  -23.2890   19.6540 C   0  0  0  0  0  0  0  0  0  0  0  0
  -26.8730  -23.5470   19.7650 O   0  0  0  0  0  0  0  0  0  0  0  0
  -29.0290  -24.4460   19.3050 C   0  0  0  0  0  2  0  0  0  0  0  0
  -28.9630  -25.6080   20.3250 C   0  0  0  0  0  2  0  0  0  0  0  0
  -28.9200  -26.9070   19.7140 O   0  0  0  0  0  0  0  0  0  0  0  0
  -24.6650  -31.5180   23.0660 C   0  0  0  0  0  0  0  0  0  0  0  0
  -27.6910  -27.5250   19.7480 C   0  0  0  0  0  0  0  0  0  0  0  0
  -23.5870  -30.1230   21.3280 C   0  0  0  0  0  3  0  0  0  0  0  0
  -25.1730  -28.8000   19.8300 C   0  0  0  0  0  0  0  0  0  0  0  0
  -26.0710  -30.7110   21.1740 C   0  0  0  0  0  2  0  0  0  0  0  0
  -26.2780  -29.3950   20.4530 C   0  0  0  0  0  0  0  0  0  0  0  0
  -27.5420  -28.7680   20.4030 C   0  0  0  0  0  3  0  0  0  0  0  0
  -26.5690  -26.9350   19.1290 C   0  0  0  0  0  3  0  0  0  0  0  0
  -25.3130  -27.5700   19.1650 C   0  0  0  0  0  3  0  0  0  0  0  0
  -23.8600  -29.5440   19.9140 C   0  0  0  0  0  2  0  0  0  0  0  0
  -24.7910  -30.7970   21.9160 N   0  0  0  0  0  0  0  0  0  0  0  0
  -23.5620  -31.6650   23.6120 O   0  0  0  0  0  0  0  0  0  0  0  0
  -23.0190  -28.9960   22.2200 C   0  0  0  0  0  0  0  0  0  0  0  0
  -21.7190  -28.7030   22.0590 N   0  0  0  0  0  0  0  0  0  0  0  0
  -23.7460  -28.3880   23.0100 O   0  0  0  0  0  0  0  0  0  0  0  0
  -21.1900  -29.2520   21.3950 H   0  0  0  0  0  0  0  0  0  0  0  0
  -18.4600  -27.1900   22.4250 C   0  0  0  0  0  0  0  0  0  0  0  0
  -20.9810  -27.6530   22.7600 C   0  0  0  0  0  3  0  0  0  0  0  0
  -21.2160  -26.2740   22.1040 C   0  0  0  0  0  2  0  0  0  0  0  0
  -20.1620  -25.9230   21.0480 C   0  0  0  0  0  2  0  0  0  0  0  0
  -18.7650  -25.9060   21.6710 C   0  0  0  0  0  2  0  0  0  0  0  0
  -19.5010  -28.0190   22.9220 C   0  0  0  0  0  0  0  0  0  0  0  0
  -19.1650  -29.2200   23.5820 C   0  0  0  0  0  3  0  0  0  0  0  0
  -17.8200  -29.5960   23.7500 C   0  0  0  0  0  3  0  0  0  0  0  0
  -16.7930  -28.7640   23.2740 C   0  0  0  0  0  3  0  0  0  0  0  0
  -17.1140  -27.5610   22.6180 C   0  0  0  0  0  3  0  0  0  0  0  0
  -25.8920  -32.2130   23.7360 C   0  0  0  0  0  3  0  0  0  0  0  0
  -25.4860  -33.5780   24.0930 N   0  0  0  0  0  0  0  0  0  0  0  0
  -25.7620  -34.6680   23.3630 C   0  0  0  0  0  0  0  0  0  0  0  0
  -26.4550  -34.6340   22.3430 O   0  0  0  0  0  0  0  0  0  0  0  0
  -24.8680  -33.6740   24.8850 H   0  0  0  0  0  0  0  0  0  0  0  0
  -23.9240  -36.3490   23.0120 C   0  0  0  0  0  1  0  0  0  0  0  0
  -25.1730  -36.0090   23.8410 C   0  0  0  0  0  3  0  0  0  0  0  0
  -27.2240  -37.0180   24.7380 C   0  0  0  0  0  1  0  0  0  0  0  0
  -26.1350  -37.1310   23.7710 N   0  0  0  0  0  0  0  0  0  0  0  0
  -25.6650  -38.0190   23.9250 H   0  0  0  0  0  0  0  0  0  0  0  0
  -26.4290  -31.4410   25.0020 C   0  0  1  0  0  0  0  0  0  0  0  0
  -25.3280  -31.0930   26.0310 C   0  0  0  0  0  1  0  0  0  0  0  0
  -27.1190  -30.1220   24.5830 C   0  0  0  0  0  1  0  0  0  0  0  0
  -27.5030  -32.2920   25.7200 C   0  0  0  0  0  1  0  0  0  0  0  0
  2  1  1  0
  3  4  1  0
  4 10  1  0
  4  1  2  0
  5  2  2  0
  6  3  2  0
  6  5  1  0
  7  6  1  0
  8  7  1  0
  9  7  1  0
 10 11  2  0
 12 21  1  0
 12 10  1  0
 13 21  1  0
 14 19  1  0
 15 16  1  0
 15 14  1  0
 17 16  1  0
 17 26  1  0
 17 18  1  0
 19 13  1  0
 19 18  1  0
 20 13  2  0
 21 22  1  0
 23 24  2  0
 24 43  1  0
 25 24  1  0
 25 28  1  0
 26 27  1  0
 26 23  1  0
 27 25  2  0
 28 29  1  0
 29 30  2  0
 31 34  1  0
 31 30  1  0
 32 31  2  0
 33 32  1  0
 33 28  2  0
 34 35  1  0
 35 40  2  0
 35 36  1  0
 36 37  2  0
 37 38  1  0
 38 42  1  0
 39 38  2  0
 40 39  1  0
 41 40  1  0
 43 44  1  0
 44 47  1  0
 44 46  1  0
 45 43  2  0
 48 23  1  0
 48 49  1  0
 50 48  1  0
 51 52  2  0
 51  5  1  0
 53 51  1  0
 53 54  1  0
 55 57  1  0
 55 54  1  0
 56 67  2  0
 57 62  1  0
 58 66  1  0
 58 68  1  0
 59 65  1  0
 59 61  1  0
 60 66  1  0
 61 60  1  0
 62 61  2  0
 63 64  1  0
 63 57  2  0
 64 59  2  0
 65 58  1  0
 66 56  1  0
 68 70  2  0
 69 68  1  0
 71 69  1  0
 72 81  2  0
 72 77  1  0
 73 69  1  0
 73 77  1  0
 74 73  1  0
 75 76  1  0
 75 74  1  0
 76 72  1  0
 77 78  2  0
 78 79  1  0
 80 79  2  0
 81 80  1  0
 82 56  1  0
 82 83  1  0
 82 92  1  0
 83 86  1  0
 84 88  1  0
 84 83  1  0
 85 84  2  0
 88 87  1  0
 90 88  1  0
 90 91  1  0
 90 89  1  0
 92 95  1  1
 92 93  1  0
 94 92  1  0
M  ISO  4  13 100  21 100  54 101  55 101
M  END
>  <TORSDO>  (51) 
F 22

>  <SCORE>  (51) 
-10.781

>  <name>  (51) 
52

>  <ligand_id>  (51) 
52

>  <original_smiles>  (51) 
[H]c1c([H])c([H])c2c(c1[H])C([H])([H])C([H])([H])C([H])([H])C2([H])N([H])C(=O)C1([H])N(C(=O)C([H])(N([H])C(=O)C([H])(N([H])C([H])([H])[H])C([H])([H])[H])C(C([H])([H])[H])(C([H])([H])[H])C([H])([H])[H])C([H])([H])c2c([H])c(OC([H])([H])C([H])([H])C(=O)c3c([H])c([H])c(C(=O)C([H])([H])N([H])C(=O)N4C([H])([H])C([H])([H])C([H])([H])C([H])(n5nc(-c6c([H])c([H])c(Oc7c([H])c([H])c(F)c([H])c7F)c([H])c6[H])c(C(=O)N([H])[H])c5N([H])[H])C4([H])[H])c([H])c3N([H])[H])c([H])c([H])c2C1([H])[H]

>  <smiles>  (51) 
[H]c1c([H])c([H])c2c(c1[H])C([H])([H])C([H])([H])C([H])([H])C2([H])N([H])C(=O)C1([H])N(C(=O)C([H])(N([H])C(=O)C([H])(N([H])C([H])([H])[H])C([H])([H])[H])C(C([H])([H])[H])(C([H])([H])[H])C([H])([H])[H])C([H])([H])c2c([H])c(OC([H])([H])C([H])([H])C(=O)c3c([H])c([H])c(C(=O)C([H])([H])N([H])C(=O)N4C([H])([H])C([H])([H])C([H])([H])C([H])(n5nc(-c6c([H])c([H])c(Oc7c([H])c([H])c(F)c([H])c7F)c([H])c6[H])c(C(=O)N([H])[H])c5N([H])[H])C4([H])[H])c([H])c3N([H])[H])c([H])c([H])c2C1([H])[H]

$$$$
53:0:0
     RDKit          3D

 99107  0  0  1  0  0  0  0  0999 V2000
  -29.0900  -21.0040   22.1360 C   0  0  0  0  0  3  0  0  0  0  0  0
  -28.2780  -22.2200   20.1870 C   0  0  0  0  0  3  0  0  0  0  0  0
  -29.9530  -20.2500   21.3150 C   0  0  0  0  0  3  0  0  0  0  0  0
  -29.1650  -21.5050   19.3710 C   0  0  0  0  0  3  0  0  0  0  0  0
  -28.2500  -21.9980   21.5800 C   0  0  0  0  0  0  0  0  0  0  0  0
  -29.9710  -20.4840   19.9170 C   0  0  0  0  0  0  0  0  0  0  0  0
  -32.2050  -19.4350   19.1670 C   0  0  0  0  0  1  0  0  0  0  0  0
  -30.6810  -19.5370   18.9610 C   0  0  0  0  0  3  0  0  0  0  0  0
  -29.9420  -18.2560   19.0380 N   0  0  0  0  0  4  0  0  0  0  0  0
  -29.8380  -17.9980   20.0020 H   0  0  0  0  0  0  0  0  0  0  0  0
  -29.0200  -18.4580   18.6800 H   0  0  0  0  0  0  0  0  0  0  0  0
  -30.4680  -17.1100   18.2740 C   0  0  0  0  0  2  0  0  0  0  0  0
  -31.3990  -16.2260   19.1180 C   0  0  0  0  0  2  0  0  0  0  0  0
  -31.3280  -14.4390   20.7470 C   0  0  0  0  0  0  0  0  0  0  0  0
  -30.9380  -12.2380   19.8120 C   0  0  0  0  0  2  0  0  0  0  0  0
  -30.1180  -12.4440   18.5230 C   0  0  0  0  0  2  0  0  0  0  0  0
  -28.6080  -12.4220   18.8390 C   0  0  0  0  0  2  0  0  0  0  0  0
  -28.2140  -13.3440   20.0260 C   0  0  0  0  0  3  0  0  0  0  0  0
  -29.1930  -13.1800   21.2200 C   0  0  0  0  0  2  0  0  0  0  0  0
  -30.5650  -13.3230   20.7240 N   0  0  0  0  0  0  0  0  0  0  0  0
  -32.5540  -14.4380   20.7360 O   0  0  0  0  0  0  0  0  0  0  0  0
  -30.7000  -15.4860   20.1830 N   0  0  0  0  0  0  0  0  0  0  0  0
  -29.6970  -15.4080   20.1340 H   0  0  0  0  0  0  0  0  0  0  0  0
  -25.8030  -14.0810   20.5560 C   0  0  0  0  0  0  0  0  0  0  0  0
  -24.6680  -13.3620   20.8330 C   0  0  0  0  0  0  0  0  0  0  0  0
  -25.0590  -11.9870   20.8370 C   0  0  0  0  0  0  0  0  0  0  0  0
  -26.8150  -13.1410   20.4100 N   0  0  0  0  0  0  0  0  0  0  0  0
  -26.3660  -11.8780   20.6390 N   0  0  0  0  0  0  0  0  0  0  0  0
  -24.2490  -10.7650   20.9580 C   0  0  0  0  0  0  0  0  0  0  0  0
  -24.5840   -9.7530   21.8830 C   0  0  0  0  0  3  0  0  0  0  0  0
  -23.7870   -8.5960   21.9990 C   0  0  0  0  0  3  0  0  0  0  0  0
  -22.6350   -8.4450   21.1870 C   0  0  0  0  0  0  0  0  0  0  0  0
  -22.3180   -9.4470   20.2530 C   0  0  0  0  0  3  0  0  0  0  0  0
  -23.1170  -10.5960   20.1370 C   0  0  0  0  0  3  0  0  0  0  0  0
  -21.8150   -7.3460   21.2120 O   0  0  0  0  0  0  0  0  0  0  0  0
  -21.7010   -6.5550   22.3280 C   0  0  0  0  0  0  0  0  0  0  0  0
  -21.2950   -7.0820   23.5730 C   0  0  0  0  0  3  0  0  0  0  0  0
  -21.1270   -6.2230   24.6800 C   0  0  0  0  0  3  0  0  0  0  0  0
  -21.3520   -4.8430   24.5410 C   0  0  0  0  0  0  0  0  0  0  0  0
  -21.7480   -4.3160   23.2980 C   0  0  0  0  0  3  0  0  0  0  0  0
  -21.9190   -5.1710   22.1950 C   0  0  0  0  0  0  0  0  0  0  0  0
  -22.2820   -4.6560   20.9950 F   0  0  0  0  0  0  0  0  0  0  0  0
  -21.1830   -4.0150   25.5990 F   0  0  0  0  0  0  0  0  0  0  0  0
  -23.2800  -13.9150   20.9870 C   0  0  0  0  0  0  0  0  0  0  0  0
  -22.4510  -13.2630   21.7990 N   0  0  0  0  0  0  0  0  0  0  0  0
  -22.9360  -14.9540   20.4280 O   0  0  0  0  0  0  0  0  0  0  0  0
  -22.7390  -12.4190   22.2700 H   0  0  0  0  0  0  0  0  0  0  0  0
  -21.5170  -13.6160   21.9470 H   0  0  0  0  0  0  0  0  0  0  0  0
  -26.0510  -15.4410   20.3970 N   0  0  0  0  0  0  0  0  0  0  0  0
  -25.3120  -16.1360   20.4380 H   0  0  0  0  0  0  0  0  0  0  0  0
  -26.9440  -15.8430   20.1500 H   0  0  0  0  0  0  0  0  0  0  0  0
  -27.3080  -22.7930   22.4830 C   0  0  0  0  0  2  0  0  0  0  0  0
  -26.9440  -24.2300   22.0230 C   0  0  0  0  0  2  0  0  0  0  0  0
  -27.4670  -26.5870   22.5170 C   0  0  0  0  0  1  0  0  0  0  0  0
  -28.0240  -25.2650   22.1610 N   0  0  2  0  0  4  0  0  0  0  0  0
  -28.5280  -25.0090   23.0030 H   0  0  0  0  0  0  0  0  0  0  0  0
  -29.0840  -25.3310   21.0960 C   0  0  0  0  0  2  0  0  0  0  0  0
  -28.6490  -25.7810   19.6730 C   0  0  0  0  0  2  0  0  0  0  0  0
  -28.6470  -27.2070   19.5250 O   0  0  0  0  0  0  0  0  0  0  0  0
  -24.6200  -31.8410   23.0590 C   0  0  0  0  0  0  0  0  0  0  0  0
  -27.4320  -27.8510   19.5550 C   0  0  0  0  0  0  0  0  0  0  0  0
  -23.4640  -30.5030   21.3350 C   0  0  0  0  0  3  0  0  0  0  0  0
  -24.9650  -29.1810   19.7610 C   0  0  0  0  0  0  0  0  0  0  0  0
  -25.9470  -31.0450   21.1040 C   0  0  0  0  0  2  0  0  0  0  0  0
  -26.1010  -29.7320   20.3570 C   0  0  0  0  0  0  0  0  0  0  0  0
  -27.3470  -29.0790   20.2370 C   0  0  0  0  0  3  0  0  0  0  0  0
  -26.2780  -27.3260   18.9280 C   0  0  0  0  0  3  0  0  0  0  0  0
  -25.0410  -27.9750   19.0470 C   0  0  0  0  0  3  0  0  0  0  0  0
  -23.6800  -29.9540   19.9010 C   0  0  0  0  0  2  0  0  0  0  0  0
  -24.6980  -31.1340   21.8960 N   0  0  0  0  0  0  0  0  0  0  0  0
  -23.5410  -31.9950   23.6470 O   0  0  0  0  0  0  0  0  0  0  0  0
  -22.8940  -29.3660   22.2160 C   0  0  0  0  0  0  0  0  0  0  0  0
  -21.5770  -29.1230   22.1090 N   0  0  0  0  0  0  0  0  0  0  0  0
  -23.6350  -28.7080   22.9530 O   0  0  0  0  0  0  0  0  0  0  0  0
  -21.0330  -29.7000   21.4810 H   0  0  0  0  0  0  0  0  0  0  0  0
  -18.2920  -27.7150   22.6270 C   0  0  0  0  0  0  0  0  0  0  0  0
  -20.8420  -28.0820   22.8230 C   0  0  0  0  0  3  0  0  0  0  0  0
  -20.9940  -26.7120   22.1190 C   0  0  0  0  0  2  0  0  0  0  0  0
  -19.8630  -26.4120   21.1340 C   0  0  0  0  0  2  0  0  0  0  0  0
  -18.5100  -26.4270   21.8520 C   0  0  0  0  0  2  0  0  0  0  0  0
  -19.3880  -28.4950   23.0780 C   0  0  0  0  0  0  0  0  0  0  0  0
  -19.1350  -29.6930   23.7800 C   0  0  0  0  0  3  0  0  0  0  0  0
  -17.8150  -30.1090   24.0310 C   0  0  0  0  0  3  0  0  0  0  0  0
  -16.7330  -29.3250   23.5940 C   0  0  0  0  0  3  0  0  0  0  0  0
  -16.9720  -28.1290   22.8950 C   0  0  0  0  0  3  0  0  0  0  0  0
  -25.8800  -32.5050   23.6970 C   0  0  0  0  0  3  0  0  0  0  0  0
  -26.4530  -31.6930   24.9220 C   0  0  1  0  0  0  0  0  0  0  0  0
  -25.3880  -31.3530   25.9910 C   0  0  0  0  0  1  0  0  0  0  0  0
  -27.0830  -30.3600   24.4610 C   0  0  0  0  0  1  0  0  0  0  0  0
  -27.5920  -32.4950   25.6000 C   0  0  0  0  0  1  0  0  0  0  0  0
  -25.5180  -33.8710   24.1000 N   0  0  0  0  0  0  0  0  0  0  0  0
  -25.8030  -34.9680   23.3830 C   0  0  0  0  0  0  0  0  0  0  0  0
  -26.4710  -34.9330   22.3430 O   0  0  0  0  0  0  0  0  0  0  0  0
  -24.9170  -33.9730   24.9100 H   0  0  0  0  0  0  0  0  0  0  0  0
  -23.9930  -36.6880   23.1150 C   0  0  0  0  0  1  0  0  0  0  0  0
  -25.2570  -36.3100   23.9030 C   0  0  0  0  0  3  0  0  0  0  0  0
  -27.3580  -37.2440   24.7660 C   0  0  0  0  0  1  0  0  0  0  0  0
  -26.2430  -37.4120   23.8360 N   0  0  0  0  0  0  0  0  0  0  0  0
  -25.7940  -38.3020   24.0400 H   0  0  0  0  0  0  0  0  0  0  0  0
  2  5  2  0
  3  1  2  0
  4  6  2  0
  4  2  1  0
  5  1  1  0
  5 52  1  0
  6  3  1  0
  8  9  1  0
  8  7  1  0
  8  6  1  0
  9 10  1  0
 11  9  1  0
 12  9  1  0
 12 13  1  0
 13 22  1  0
 15 20  1  0
 16 17  1  0
 16 15  1  0
 18 17  1  0
 18 27  1  0
 18 19  1  0
 20 14  1  0
 20 19  1  0
 21 14  2  0
 22 14  1  0
 23 22  1  0
 24 25  2  0
 25 26  1  0
 25 44  1  0
 26 29  1  0
 27 24  1  0
 27 28  1  0
 28 26  2  0
 29 30  1  0
 30 31  2  0
 32 35  1  0
 32 31  1  0
 33 32  2  0
 34 33  1  0
 34 29  2  0
 35 36  1  0
 36 37  1  0
 37 38  2  0
 39 38  1  0
 39 43  1  0
 40 39  2  0
 41 36  2  0
 41 40  1  0
 42 41  1  0
 44 45  1  0
 45 48  1  0
 45 47  1  0
 46 44  2  0
 49 50  1  0
 49 24  1  0
 51 49  1  0
 53 55  1  0
 53 52  1  0
 55 54  1  0
 55 56  1  1
 57 55  1  0
 58 57  1  0
 59 61  1  0
 59 58  1  0
 60 71  2  0
 61 66  1  0
 62 70  1  0
 62 72  1  0
 63 69  1  0
 63 65  1  0
 64 70  1  0
 65 64  1  0
 66 65  2  0
 67 68  1  0
 67 61  2  0
 68 63  2  0
 69 62  1  0
 70 60  1  0
 72 74  2  0
 73 72  1  0
 75 73  1  0
 76 85  2  0
 76 81  1  0
 77 73  1  0
 77 81  1  0
 78 77  1  0
 79 80  1  0
 79 78  1  0
 80 76  1  0
 81 82  2  0
 82 83  1  0
 84 83  2  0
 85 84  1  0
 86 60  1  0
 86 91  1  0
 86 87  1  0
 87 90  1  1
 87 88  1  0
 89 87  1  0
 91 94  1  0
 92 96  1  0
 92 91  1  0
 93 92  2  0
 96 95  1  0
 98 96  1  0
 98 99  1  0
 98 97  1  0
M  ISO  4  14 100  22 100  58 101  59 101
M  END
>  <TORSDO>  (52) 
F 25

>  <SCORE>  (52) 
-10.048

>  <name>  (52) 
53

>  <ligand_id>  (52) 
53

>  <original_smiles>  (52) 
[H]c1c([H])c([H])c2c(c1[H])C([H])([H])C([H])([H])C([H])([H])C2([H])N([H])C(=O)C1([H])N(C(=O)C([H])(N([H])C(=O)C([H])(N([H])C([H])([H])[H])C([H])([H])[H])C(C([H])([H])[H])(C([H])([H])[H])C([H])([H])[H])C([H])([H])c2c([H])c(OC([H])([H])C([H])([H])[N+]([H])(C([H])([H])[H])C([H])([H])C([H])([H])c3c([H])c([H])c(C([H])(C([H])([H])[H])[N+]([H])([H])C([H])([H])C([H])([H])N([H])C(=O)N4C([H])([H])C([H])([H])C([H])([H])C([H])(n5nc(-c6c([H])c([H])c(Oc7c([H])c([H])c(F)c([H])c7F)c([H])c6[H])c(C(=O)N([H])[H])c5N([H])[H])C4([H])[H])c([H])c3[H])c([H])c([H])c2C1([H])[H]

>  <smiles>  (52) 
[H]c1c([H])c([H])c2c(c1[H])C([H])([H])C([H])([H])C([H])([H])C2([H])N([H])C(=O)C1([H])N(C(=O)C([H])(N([H])C(=O)C([H])(N([H])C([H])([H])[H])C([H])([H])[H])C(C([H])([H])[H])(C([H])([H])[H])C([H])([H])[H])C([H])([H])c2c([H])c(OC([H])([H])C([H])([H])[N+]([H])(C([H])([H])[H])C([H])([H])C([H])([H])c3c([H])c([H])c(C([H])(C([H])([H])[H])[N+]([H])([H])C([H])([H])C([H])([H])N([H])C(=O)N4C([H])([H])C([H])([H])C([H])([H])C([H])(n5nc(-c6c([H])c([H])c(Oc7c([H])c([H])c(F)c([H])c7F)c([H])c6[H])c(C(=O)N([H])[H])c5N([H])[H])C4([H])[H])c([H])c3[H])c([H])c([H])c2C1([H])[H]

$$$$
54:0:0
     RDKit          3D

 98106  0  0  1  0  0  0  0  0999 V2000
  -31.0110  -19.6170   20.8110 C   0  0  0  0  0  3  0  0  0  0  0  0
  -28.8230  -20.5650   20.3960 C   0  0  0  0  0  3  0  0  0  0  0  0
  -29.6520  -19.3780   20.5250 C   0  0  0  0  0  0  0  0  0  0  0  0
  -31.5460  -20.9210   20.9260 C   0  0  0  0  0  0  0  0  0  0  0  0
  -29.3270  -21.9280   20.4840 C   0  0  0  0  0  0  0  0  0  0  0  0
  -30.7290  -22.0710   20.7070 C   0  0  0  0  0  0  0  0  0  0  0  0
  -31.3810  -23.4540   20.6440 C   0  0  0  0  0  1  0  0  0  0  0  0
  -33.0070  -20.9940   21.2420 C   0  0  0  0  0  0  0  0  0  0  0  0
  -33.8660  -21.1000   20.3590 O   0  0  0  0  0  0  0  0  0  0  0  0
  -33.4440  -20.8150   22.7240 C   0  0  0  0  0  0  0  0  0  0  0  0
  -32.8270  -19.8090   23.3420 N   0  0  0  0  0  0  0  0  0  0  0  0
  -34.3190  -21.4980   23.2630 O   0  0  0  0  0  0  0  0  0  0  0  0
  -32.1340  -19.2710   22.8430 H   0  0  0  0  0  0  0  0  0  0  0  0
  -33.0550  -19.5740   24.2950 H   0  0  0  0  0  0  0  0  0  0  0  0
  -29.1770  -17.8960   20.3900 C   0  0  0  0  0  0  0  0  0  0  0  0
  -27.9830  -17.6090   20.2660 O   0  0  0  0  0  0  0  0  0  0  0  0
  -30.2220  -16.6900   20.3850 C   0  0  0  0  0  2  0  0  0  0  0  0
  -30.4160  -14.1380   19.9570 C   0  0  0  0  0  0  0  0  0  0  0  0
  -30.0520  -11.9560   18.8150 C   0  0  0  0  0  2  0  0  0  0  0  0
  -28.9900  -12.1520   17.7110 C   0  0  0  0  0  2  0  0  0  0  0  0
  -27.5700  -11.9710   18.2850 C   0  0  0  0  0  2  0  0  0  0  0  0
  -27.3530  -12.7650   19.6020 C   0  0  0  0  0  3  0  0  0  0  0  0
  -28.5230  -12.5700   20.5890 C   0  0  0  0  0  2  0  0  0  0  0  0
  -29.7550  -12.9370   19.8810 N   0  0  0  0  0  0  0  0  0  0  0  0
  -31.5600  -14.2490   19.5090 O   0  0  0  0  0  0  0  0  0  0  0  0
  -29.7120  -15.2570   20.3410 N   0  0  0  0  0  0  0  0  0  0  0  0
  -28.7530  -15.1260   20.6250 H   0  0  0  0  0  0  0  0  0  0  0  0
  -25.0440  -13.3270   20.5650 C   0  0  0  0  0  0  0  0  0  0  0  0
  -24.0230  -12.5410   21.0220 C   0  0  0  0  0  0  0  0  0  0  0  0
  -24.4890  -11.1930   20.9260 C   0  0  0  0  0  0  0  0  0  0  0  0
  -26.0650  -12.4600   20.2150 N   0  0  0  0  0  0  0  0  0  0  0  0
  -25.7440  -11.1690   20.4940 N   0  0  0  0  0  0  0  0  0  0  0  0
  -23.7920   -9.9230   21.1670 C   0  0  0  0  0  0  0  0  0  0  0  0
  -24.2760   -8.9790   22.0990 C   0  0  0  0  0  3  0  0  0  0  0  0
  -23.5770   -7.7740   22.3260 C   0  0  0  0  0  3  0  0  0  0  0  0
  -22.3790   -7.5040   21.6210 C   0  0  0  0  0  0  0  0  0  0  0  0
  -21.9150   -8.4370   20.6780 C   0  0  0  0  0  3  0  0  0  0  0  0
  -22.6140   -9.6340   20.4490 C   0  0  0  0  0  3  0  0  0  0  0  0
  -21.6480   -6.3500   21.7570 O   0  0  0  0  0  0  0  0  0  0  0  0
  -21.6500   -5.6290   22.9250 C   0  0  0  0  0  0  0  0  0  0  0  0
  -21.2070   -6.1860   24.1440 C   0  0  0  0  0  3  0  0  0  0  0  0
  -21.1600   -5.3900   25.3050 C   0  0  0  0  0  3  0  0  0  0  0  0
  -21.5460   -4.0380   25.2490 C   0  0  0  0  0  0  0  0  0  0  0  0
  -21.9830   -3.4800   24.0340 C   0  0  0  0  0  3  0  0  0  0  0  0
  -22.0320   -4.2730   22.8760 C   0  0  0  0  0  0  0  0  0  0  0  0
  -22.4320   -3.7250   21.7030 F   0  0  0  0  0  0  0  0  0  0  0  0
  -21.4940   -3.2690   26.3630 F   0  0  0  0  0  0  0  0  0  0  0  0
  -22.6560  -13.0040   21.4340 C   0  0  0  0  0  0  0  0  0  0  0  0
  -22.0210  -12.2940   22.3600 N   0  0  0  0  0  0  0  0  0  0  0  0
  -22.1620  -14.0310   20.9690 O   0  0  0  0  0  0  0  0  0  0  0  0
  -22.4340  -11.4630   22.7560 H   0  0  0  0  0  0  0  0  0  0  0  0
  -21.1070  -12.5860   22.6770 H   0  0  0  0  0  0  0  0  0  0  0  0
  -25.1810  -14.7030   20.3970 N   0  0  0  0  0  0  0  0  0  0  0  0
  -24.4180  -15.3440   20.5890 H   0  0  0  0  0  0  0  0  0  0  0  0
  -25.9930  -15.1660   20.0060 H   0  0  0  0  0  0  0  0  0  0  0  0
  -28.4340  -23.2210   20.1880 C   0  0  0  0  0  2  0  0  0  0  0  0
  -28.3450  -24.4770   21.2010 C   0  0  0  0  0  2  0  0  0  0  0  0
  -28.5770  -25.8840   20.7500 O   0  0  0  0  0  0  0  0  0  0  0  0
  -24.8700  -31.5600   23.3210 C   0  0  0  0  0  0  0  0  0  0  0  0
  -27.4920  -26.7690   20.6460 C   0  0  0  0  0  0  0  0  0  0  0  0
  -23.7160  -30.1280   21.6720 C   0  0  0  0  0  3  0  0  0  0  0  0
  -25.1950  -28.4610   20.4110 C   0  0  0  0  0  0  0  0  0  0  0  0
  -26.2730  -30.3560   21.6290 C   0  0  0  0  0  2  0  0  0  0  0  0
  -26.3450  -28.9440   21.0510 C   0  0  0  0  0  0  0  0  0  0  0  0
  -27.5020  -28.1100   21.1480 C   0  0  0  0  0  3  0  0  0  0  0  0
  -26.3250  -26.3370   19.9870 C   0  0  0  0  0  3  0  0  0  0  0  0
  -25.1890  -27.1640   19.8670 C   0  0  0  0  0  3  0  0  0  0  0  0
  -23.9910  -29.3800   20.3390 C   0  0  0  0  0  2  0  0  0  0  0  0
  -24.9680  -30.7010   22.2640 N   0  0  0  0  0  0  0  0  0  0  0  0
  -23.7670  -31.8960   23.7770 O   0  0  0  0  0  0  0  0  0  0  0  0
  -22.9600  -29.1790   22.6330 C   0  0  0  0  0  0  0  0  0  0  0  0
  -21.6300  -29.0830   22.4720 N   0  0  0  0  0  0  0  0  0  0  0  0
  -23.5740  -28.5290   23.4850 O   0  0  0  0  0  0  0  0  0  0  0  0
  -21.1950  -29.6590   21.7650 H   0  0  0  0  0  0  0  0  0  0  0  0
  -18.1640  -28.1620   22.9470 C   0  0  0  0  0  0  0  0  0  0  0  0
  -20.7330  -28.2160   23.2390 C   0  0  0  0  0  3  0  0  0  0  0  0
  -20.7230  -26.7780   22.6690 C   0  0  0  0  0  2  0  0  0  0  0  0
  -19.6080  -26.5430   21.6440 C   0  0  0  0  0  2  0  0  0  0  0  0
  -18.2370  -26.8020   22.2760 C   0  0  0  0  0  2  0  0  0  0  0  0
  -19.3370  -28.8320   23.3850 C   0  0  0  0  0  0  0  0  0  0  0  0
  -19.2160  -30.1100   23.9740 C   0  0  0  0  0  3  0  0  0  0  0  0
  -17.9550  -30.7150   24.1270 C   0  0  0  0  0  3  0  0  0  0  0  0
  -16.7950  -30.0420   23.7050 C   0  0  0  0  0  3  0  0  0  0  0  0
  -16.9010  -28.7680   23.1210 C   0  0  0  0  0  3  0  0  0  0  0  0
  -26.1340  -32.1790   23.9940 C   0  0  0  0  0  3  0  0  0  0  0  0
  -25.8240  -33.5790   24.3190 N   0  0  0  0  0  0  0  0  0  0  0  0
  -26.1820  -34.6310   23.5720 C   0  0  0  0  0  0  0  0  0  0  0  0
  -26.8750  -34.5250   22.5560 O   0  0  0  0  0  0  0  0  0  0  0  0
  -25.2100  -33.7360   25.1050 H   0  0  0  0  0  0  0  0  0  0  0  0
  -24.4750  -36.4390   23.1860 C   0  0  0  0  0  1  0  0  0  0  0  0
  -25.6940  -36.0220   24.0220 C   0  0  0  0  0  3  0  0  0  0  0  0
  -27.8100  -36.8990   24.9090 C   0  0  0  0  0  1  0  0  0  0  0  0
  -26.7360  -37.0680   23.9350 N   0  0  0  0  0  0  0  0  0  0  0  0
  -26.3320  -37.9910   24.0660 H   0  0  0  0  0  0  0  0  0  0  0  0
  -26.5980  -31.3990   25.2860 C   0  0  1  0  0  0  0  0  0  0  0  0
  -25.4600  -31.1520   26.3040 C   0  0  0  0  0  1  0  0  0  0  0  0
  -27.2000  -30.0250   24.9130 C   0  0  0  0  0  1  0  0  0  0  0  0
  -27.7180  -32.1900   26.0040 C   0  0  0  0  0  1  0  0  0  0  0  0
  1  4  1  0
  2  5  2  0
  2  3  1  0
  3  1  2  0
  4  8  1  0
  5  6  1  0
  6  4  2  0
  7  6  1  0
  8 10  1  0
  9  8  2  0
 10 12  2  0
 10 11  1  0
 11 14  1  0
 13 11  1  0
 15  3  1  0
 16 15  2  0
 17 15  1  0
 18 26  1  0
 19 24  1  0
 20 21  1  0
 20 19  1  0
 22 21  1  0
 22 31  1  0
 22 23  1  0
 24 18  1  0
 24 23  1  0
 25 18  2  0
 26 17  1  0
 26 27  1  0
 28 29  2  0
 29 48  1  0
 30 29  1  0
 30 33  1  0
 31 32  1  0
 31 28  1  0
 32 30  2  0
 33 34  1  0
 34 35  2  0
 36 39  1  0
 36 35  1  0
 37 36  2  0
 38 37  1  0
 38 33  2  0
 39 40  1  0
 40 41  1  0
 41 42  2  0
 43 42  1  0
 43 47  1  0
 44 43  2  0
 45 40  2  0
 45 44  1  0
 46 45  1  0
 48 49  1  0
 49 52  1  0
 49 51  1  0
 50 48  2  0
 53 28  1  0
 53 54  1  0
 55 53  1  0
 56  5  1  0
 56 57  1  0
 58 57  1  0
 59 70  2  0
 60 58  1  0
 60 65  1  0
 61 69  1  0
 61 71  1  0
 62 64  1  0
 63 69  1  0
 64 65  2  0
 64 63  1  0
 66 60  2  0
 67 66  1  0
 67 62  2  0
 68 62  1  0
 68 61  1  0
 69 59  1  0
 71 73  2  0
 72 71  1  0
 74 72  1  0
 75 84  2  0
 75 80  1  0
 76 72  1  0
 76 80  1  0
 77 76  1  0
 78 79  1  0
 78 77  1  0
 79 75  1  0
 80 81  2  0
 81 82  1  0
 83 82  2  0
 84 83  1  0
 85 59  1  0
 85 86  1  0
 85 95  1  0
 86 89  1  0
 87 91  1  0
 87 86  1  0
 88 87  2  0
 91 90  1  0
 93 91  1  0
 93 94  1  0
 93 92  1  0
 95 98  1  1
 95 96  1  0
 97 95  1  0
M  ISO  4  18 100  26 100  57 101  58 101
M  END
>  <TORSDO>  (53) 
F 22

>  <SCORE>  (53) 
-11.513

>  <name>  (53) 
54

>  <ligand_id>  (53) 
54

>  <original_smiles>  (53) 
[H]c1c([H])c([H])c2c(c1[H])C([H])([H])C([H])([H])C([H])([H])C2([H])N([H])C(=O)C1([H])N(C(=O)C([H])(N([H])C(=O)C([H])(N([H])C([H])([H])[H])C([H])([H])[H])C(C([H])([H])[H])(C([H])([H])[H])C([H])([H])[H])C([H])([H])c2c([H])c(OC([H])([H])C([H])([H])c3c([H])c(C(=O)C([H])([H])N([H])C(=O)N4C([H])([H])C([H])([H])C([H])([H])C([H])(n5nc(-c6c([H])c([H])c(Oc7c([H])c([H])c(F)c([H])c7F)c([H])c6[H])c(C(=O)N([H])[H])c5N([H])[H])C4([H])[H])c([H])c(C(=O)C(=O)N([H])[H])c3C([H])([H])[H])c([H])c([H])c2C1([H])[H]

>  <smiles>  (53) 
[H]c1c([H])c([H])c2c(c1[H])C([H])([H])C([H])([H])C([H])([H])C2([H])N([H])C(=O)C1([H])N(C(=O)C([H])(N([H])C(=O)C([H])(N([H])C([H])([H])[H])C([H])([H])[H])C(C([H])([H])[H])(C([H])([H])[H])C([H])([H])[H])C([H])([H])c2c([H])c(OC([H])([H])C([H])([H])c3c([H])c(C(=O)C([H])([H])N([H])C(=O)N4C([H])([H])C([H])([H])C([H])([H])C([H])(n5nc(-c6c([H])c([H])c(Oc7c([H])c([H])c(F)c([H])c7F)c([H])c6[H])c(C(=O)N([H])[H])c5N([H])[H])C4([H])[H])c([H])c(C(=O)C(=O)N([H])[H])c3C([H])([H])[H])c([H])c([H])c2C1([H])[H]

$$$$
55:0:0
     RDKit          3D

 97105  0  0  1  0  0  0  0  0999 V2000
  -30.7010  -23.0360   22.3590 C   0  0  0  0  0  3  0  0  0  0  0  0
  -30.9250  -21.7270   21.8800 C   0  0  0  0  0  3  0  0  0  0  0  0
  -29.7780  -23.8860   21.7140 C   0  0  0  0  0  3  0  0  0  0  0  0
  -29.2970  -22.1130   20.1140 C   0  0  0  0  0  3  0  0  0  0  0  0
  -30.2160  -21.2540   20.7520 C   0  0  0  0  0  0  0  0  0  0  0  0
  -29.0640  -23.4210   20.5870 C   0  0  0  0  0  0  0  0  0  0  0  0
  -30.4390  -19.8800   20.1880 C   0  0  0  0  0  0  0  0  0  0  0  0
  -30.6430  -18.8880   21.0610 N   0  0  0  0  0  0  0  0  0  0  0  0
  -30.3470  -19.6820   18.9730 O   0  0  0  0  0  0  0  0  0  0  0  0
  -30.6830  -19.1160   22.0440 H   0  0  0  0  0  0  0  0  0  0  0  0
  -30.7040  -17.4880   20.6570 C   0  0  0  0  0  2  0  0  0  0  0  0
  -30.8300  -16.5170   21.8490 C   0  0  0  0  0  2  0  0  0  0  0  0
  -30.7640  -14.3750   20.5640 C   0  0  0  0  0  0  0  0  0  0  0  0
  -30.3870  -12.3090   19.2710 C   0  0  0  0  0  2  0  0  0  0  0  0
  -29.4450  -12.5570   18.0790 C   0  0  0  0  0  2  0  0  0  0  0  0
  -27.9710  -12.4220   18.5070 C   0  0  0  0  0  2  0  0  0  0  0  0
  -27.6450  -13.2380   19.7860 C   0  0  0  0  0  3  0  0  0  0  0  0
  -28.6930  -12.9680   20.8900 C   0  0  0  0  0  2  0  0  0  0  0  0
  -30.0350  -13.2500   20.3450 N   0  0  0  0  0  0  0  0  0  0  0  0
  -31.7870  -14.6510   19.9310 O   0  0  0  0  0  0  0  0  0  0  0  0
  -30.3020  -15.1900   21.5220 N   0  0  0  0  0  0  0  0  0  0  0  0
  -29.4820  -14.8830   22.0270 H   0  0  0  0  0  0  0  0  0  0  0  0
  -25.2380  -13.8520   20.4780 C   0  0  0  0  0  0  0  0  0  0  0  0
  -24.1670  -13.0830   20.8430 C   0  0  0  0  0  0  0  0  0  0  0  0
  -24.6240  -11.7310   20.8170 C   0  0  0  0  0  0  0  0  0  0  0  0
  -26.2860  -12.9680   20.2540 N   0  0  0  0  0  0  0  0  0  0  0  0
  -25.9170  -11.6870   20.5140 N   0  0  0  0  0  0  0  0  0  0  0  0
  -23.8940  -10.4700   21.0110 C   0  0  0  0  0  0  0  0  0  0  0  0
  -24.3340   -9.4970   21.9340 C   0  0  0  0  0  3  0  0  0  0  0  0
  -23.6080   -8.2990   22.1130 C   0  0  0  0  0  3  0  0  0  0  0  0
  -22.4250   -8.0690   21.3710 C   0  0  0  0  0  0  0  0  0  0  0  0
  -22.0030   -9.0320   20.4370 C   0  0  0  0  0  3  0  0  0  0  0  0
  -22.7310  -10.2190   20.2560 C   0  0  0  0  0  3  0  0  0  0  0  0
  -21.6690   -6.9260   21.4620 O   0  0  0  0  0  0  0  0  0  0  0  0
  -21.6430   -6.1680   22.6050 C   0  0  0  0  0  0  0  0  0  0  0  0
  -21.2710   -6.7130   23.8540 C   0  0  0  0  0  3  0  0  0  0  0  0
  -21.1920   -5.8820   24.9890 C   0  0  0  0  0  3  0  0  0  0  0  0
  -21.4760   -4.5080   24.8770 C   0  0  0  0  0  0  0  0  0  0  0  0
  -21.8420   -3.9620   23.6350 C   0  0  0  0  0  3  0  0  0  0  0  0
  -21.9250   -4.7910   22.5010 C   0  0  0  0  0  0  0  0  0  0  0  0
  -22.2570   -4.2560   21.3010 F   0  0  0  0  0  0  0  0  0  0  0  0
  -21.3920   -3.7080   25.9660 F   0  0  0  0  0  0  0  0  0  0  0  0
  -22.7700  -13.5630   21.1100 C   0  0  0  0  0  0  0  0  0  0  0  0
  -22.0390  -12.8740   21.9790 N   0  0  0  0  0  0  0  0  0  0  0  0
  -22.3360  -14.5870   20.5830 O   0  0  0  0  0  0  0  0  0  0  0  0
  -22.4060  -12.0510   22.4320 H   0  0  0  0  0  0  0  0  0  0  0  0
  -21.1000  -13.1750   22.1970 H   0  0  0  0  0  0  0  0  0  0  0  0
  -25.4090  -15.2210   20.3010 N   0  0  0  0  0  0  0  0  0  0  0  0
  -24.6490  -15.8830   20.4170 H   0  0  0  0  0  0  0  0  0  0  0  0
  -26.2750  -15.6590   20.0100 H   0  0  0  0  0  0  0  0  0  0  0  0
  -27.9940  -24.2630   19.9040 C   0  0  0  0  0  3  0  0  0  0  0  0
  -26.8350  -24.3680   20.8110 N   0  0  0  0  0  4  0  0  0  0  0  0
  -27.0740  -24.8990   21.6310 H   0  0  0  0  0  0  0  0  0  0  0  0
  -26.5480  -23.4510   21.1040 H   0  0  0  0  0  0  0  0  0  0  0  0
  -26.0550  -24.8140   20.3590 H   0  0  0  0  0  0  0  0  0  0  0  0
  -28.4930  -25.6140   19.3160 C   0  0  0  0  0  2  0  0  0  0  0  0
  -28.3260  -26.7540   20.1660 O   0  0  0  0  0  0  0  0  0  0  0  0
  -24.5460  -31.9180   23.2270 C   0  0  0  0  0  0  0  0  0  0  0  0
  -27.1420  -27.4670   20.1220 C   0  0  0  0  0  0  0  0  0  0  0  0
  -23.3170  -30.5220   21.5960 C   0  0  0  0  0  3  0  0  0  0  0  0
  -24.7500  -28.9800   20.1590 C   0  0  0  0  0  0  0  0  0  0  0  0
  -25.8420  -30.8610   21.3860 C   0  0  0  0  0  2  0  0  0  0  0  0
  -25.9110  -29.4880   20.7530 C   0  0  0  0  0  0  0  0  0  0  0  0
  -27.1000  -28.7310   20.7520 C   0  0  0  0  0  3  0  0  0  0  0  0
  -25.9640  -26.9870   19.4970 C   0  0  0  0  0  3  0  0  0  0  0  0
  -24.7700  -27.7250   19.5320 C   0  0  0  0  0  3  0  0  0  0  0  0
  -23.5110  -29.8420   20.2150 C   0  0  0  0  0  2  0  0  0  0  0  0
  -24.5860  -31.1150   22.1280 N   0  0  0  0  0  0  0  0  0  0  0  0
  -23.4710  -32.1990   23.7740 O   0  0  0  0  0  0  0  0  0  0  0  0
  -22.6670  -29.5040   22.5610 C   0  0  0  0  0  0  0  0  0  0  0  0
  -21.3390  -29.3340   22.4460 N   0  0  0  0  0  0  0  0  0  0  0  0
  -23.3520  -28.8700   23.3680 O   0  0  0  0  0  0  0  0  0  0  0  0
  -20.8470  -29.8970   21.7660 H   0  0  0  0  0  0  0  0  0  0  0  0
  -17.9600  -28.1750   22.9690 C   0  0  0  0  0  0  0  0  0  0  0  0
  -20.5210  -28.4060   23.2250 C   0  0  0  0  0  3  0  0  0  0  0  0
  -20.6050  -26.9730   22.6520 C   0  0  0  0  0  2  0  0  0  0  0  0
  -19.4940  -26.6590   21.6440 C   0  0  0  0  0  2  0  0  0  0  0  0
  -18.1190  -26.8210   22.2960 C   0  0  0  0  0  2  0  0  0  0  0  0
  -19.0880  -28.9260   23.3910 C   0  0  0  0  0  0  0  0  0  0  0  0
  -18.8870  -30.1950   23.9770 C   0  0  0  0  0  3  0  0  0  0  0  0
  -17.5900  -30.7110   24.1480 C   0  0  0  0  0  3  0  0  0  0  0  0
  -16.4750  -29.9560   23.7440 C   0  0  0  0  0  3  0  0  0  0  0  0
  -16.6610  -28.6900   23.1600 C   0  0  0  0  0  3  0  0  0  0  0  0
  -25.8440  -32.5390   23.8330 C   0  0  0  0  0  3  0  0  0  0  0  0
  -25.5460  -33.9350   24.1750 N   0  0  0  0  0  0  0  0  0  0  0  0
  -25.8740  -34.9880   23.4130 C   0  0  0  0  0  0  0  0  0  0  0  0
  -26.5310  -34.8860   22.3730 O   0  0  0  0  0  0  0  0  0  0  0  0
  -24.9640  -34.0900   24.9840 H   0  0  0  0  0  0  0  0  0  0  0  0
  -24.1450  -36.7840   23.0870 C   0  0  0  0  0  1  0  0  0  0  0  0
  -25.3970  -36.3760   23.8810 C   0  0  0  0  0  3  0  0  0  0  0  0
  -27.5480  -37.2490   24.6780 C   0  0  0  0  0  1  0  0  0  0  0  0
  -26.4310  -37.4260   23.7550 N   0  0  0  0  0  0  0  0  0  0  0  0
  -26.0300  -38.3460   23.9150 H   0  0  0  0  0  0  0  0  0  0  0  0
  -26.3780  -31.7540   25.0940 C   0  0  1  0  0  0  0  0  0  0  0  0
  -25.3000  -31.5130   26.1770 C   0  0  0  0  0  1  0  0  0  0  0  0
  -26.9510  -30.3780   24.6830 C   0  0  0  0  0  1  0  0  0  0  0  0
  -27.5420  -32.5400   25.7440 C   0  0  0  0  0  1  0  0  0  0  0  0
  2  1  1  0
  3  1  2  0
  4  6  2  0
  4  5  1  0
  5  2  2  0
  6  3  1  0
  7  5  1  0
  7  8  1  0
  8 10  1  0
  9  7  2  0
 11  8  1  0
 11 12  1  0
 13 21  1  0
 14 19  1  0
 15 16  1  0
 15 14  1  0
 17 16  1  0
 17 26  1  0
 17 18  1  0
 19 13  1  0
 19 18  1  0
 20 13  2  0
 21 12  1  0
 21 22  1  0
 23 24  2  0
 24 43  1  0
 25 24  1  0
 25 28  1  0
 26 23  1  0
 26 27  1  0
 27 25  2  0
 28 29  1  0
 29 30  2  0
 31 34  1  0
 31 30  1  0
 32 31  2  0
 33 32  1  0
 33 28  2  0
 34 35  1  0
 35 36  1  0
 36 37  2  0
 38 37  1  0
 38 42  1  0
 39 38  2  0
 40 35  2  0
 40 39  1  0
 41 40  1  0
 43 44  1  0
 44 47  1  0
 44 46  1  0
 45 43  2  0
 48 49  1  0
 48 23  1  0
 50 48  1  0
 51 56  1  0
 51  6  1  0
 51 52  1  0
 52 54  1  0
 52 53  1  0
 55 52  1  0
 56 57  1  0
 58 69  2  0
 59 57  1  0
 59 64  1  0
 60 68  1  0
 60 70  1  0
 61 67  1  0
 61 63  1  0
 62 68  1  0
 63 62  1  0
 64 63  2  0
 65 66  1  0
 65 59  2  0
 66 61  2  0
 67 60  1  0
 68 58  1  0
 70 72  2  0
 71 70  1  0
 73 71  1  0
 74 83  2  0
 74 79  1  0
 75 71  1  0
 75 79  1  0
 76 75  1  0
 77 78  1  0
 77 76  1  0
 78 74  1  0
 79 80  2  0
 80 81  1  0
 82 81  2  0
 83 82  1  0
 84 58  1  0
 84 85  1  0
 84 94  1  0
 85 88  1  0
 86 90  1  0
 86 85  1  0
 87 86  2  0
 90 89  1  0
 92 90  1  0
 92 93  1  0
 92 91  1  0
 94 97  1  1
 94 95  1  0
 96 94  1  0
M  ISO  4  13 100  21 100  56 101  57 101
M  END
>  <TORSDO>  (54) 
F 22

>  <SCORE>  (54) 
-13.407

>  <name>  (54) 
55

>  <ligand_id>  (54) 
55

>  <original_smiles>  (54) 
[H]c1c([H])c([H])c2c(c1[H])C([H])([H])C([H])([H])C([H])([H])C2([H])N([H])C(=O)C1([H])N(C(=O)C([H])(N([H])C(=O)C([H])(N([H])C([H])([H])[H])C([H])([H])[H])C(C([H])([H])[H])(C([H])([H])[H])C([H])([H])[H])C([H])([H])c2c([H])c(OC([H])([H])C([H])(c3c([H])c([H])c([H])c(C(=O)N([H])C([H])([H])C([H])([H])N([H])C(=O)N4C([H])([H])C([H])([H])C([H])([H])C([H])(n5nc(-c6c([H])c([H])c(Oc7c([H])c([H])c(F)c([H])c7F)c([H])c6[H])c(C(=O)N([H])[H])c5N([H])[H])C4([H])[H])c3[H])[N+]([H])([H])[H])c([H])c([H])c2C1([H])[H]

>  <smiles>  (54) 
[H]c1c([H])c([H])c2c(c1[H])C([H])([H])C([H])([H])C([H])([H])C2([H])N([H])C(=O)C1([H])N(C(=O)C([H])(N([H])C(=O)C([H])(N([H])C([H])([H])[H])C([H])([H])[H])C(C([H])([H])[H])(C([H])([H])[H])C([H])([H])[H])C([H])([H])c2c([H])c(OC([H])([H])C([H])(c3c([H])c([H])c([H])c(C(=O)N([H])C([H])([H])C([H])([H])N([H])C(=O)N4C([H])([H])C([H])([H])C([H])([H])C([H])(n5nc(-c6c([H])c([H])c(Oc7c([H])c([H])c(F)c([H])c7F)c([H])c6[H])c(C(=O)N([H])[H])c5N([H])[H])C4([H])[H])c3[H])[N+]([H])([H])[H])c([H])c([H])c2C1([H])[H]

$$$$
56:0:0
     RDKit          3D

101109  0  0  1  0  0  0  0  0999 V2000
  -26.1800  -23.3610   19.6580 C   0  0  0  0  0  3  0  0  0  0  0  0
  -28.2760  -22.1230   19.4970 C   0  0  0  0  0  3  0  0  0  0  0  0
  -26.2780  -21.2680   18.4160 C   0  0  0  0  0  3  0  0  0  0  0  0
  -27.5610  -23.2700   19.9170 C   0  0  0  0  0  0  0  0  0  0  0  0
  -25.5380  -22.3610   18.9070 C   0  0  0  0  0  0  0  0  0  0  0  0
  -27.6580  -21.1250   18.6970 C   0  0  0  0  0  0  0  0  0  0  0  0
  -24.0630  -22.4810   18.5860 C   0  0  0  0  0  1  0  0  0  0  0  0
  -28.2360  -24.3860   20.6270 C   0  0  0  0  0  0  0  0  0  0  0  0
  -28.4950  -24.3610   21.8340 O   0  0  0  0  0  0  0  0  0  0  0  0
  -28.6590  -25.5860   19.7540 C   0  0  0  0  0  2  0  0  0  0  0  0
  -28.5010  -26.8340   20.4400 O   0  0  0  0  0  0  0  0  0  0  0  0
  -24.5400  -31.9570   23.3450 C   0  0  0  0  0  0  0  0  0  0  0  0
  -27.2910  -27.4990   20.3940 C   0  0  0  0  0  0  0  0  0  0  0  0
  -23.3840  -30.5340   21.6820 C   0  0  0  0  0  3  0  0  0  0  0  0
  -24.8820  -28.9810   20.3250 C   0  0  0  0  0  0  0  0  0  0  0  0
  -25.9130  -30.8970   21.5560 C   0  0  0  0  0  2  0  0  0  0  0  0
  -26.0160  -29.5170   20.9440 C   0  0  0  0  0  0  0  0  0  0  0  0
  -27.2170  -28.7780   20.9850 C   0  0  0  0  0  3  0  0  0  0  0  0
  -26.1350  -26.9730   19.7680 C   0  0  0  0  0  3  0  0  0  0  0  0
  -24.9340  -27.7040   19.7430 C   0  0  0  0  0  3  0  0  0  0  0  0
  -23.6370  -29.8390   20.3180 C   0  0  0  0  0  2  0  0  0  0  0  0
  -24.6280  -31.1490   22.2510 N   0  0  0  0  0  0  0  0  0  0  0  0
  -23.4450  -32.2270   23.8550 O   0  0  0  0  0  0  0  0  0  0  0  0
  -22.7130  -29.5170   22.6350 C   0  0  0  0  0  0  0  0  0  0  0  0
  -21.3910  -29.3350   22.4820 N   0  0  0  0  0  0  0  0  0  0  0  0
  -23.3800  -28.8940   23.4640 O   0  0  0  0  0  0  0  0  0  0  0  0
  -20.9160  -29.8960   21.7880 H   0  0  0  0  0  0  0  0  0  0  0  0
  -17.9920  -28.1990   22.9510 C   0  0  0  0  0  0  0  0  0  0  0  0
  -20.5530  -28.4070   23.2410 C   0  0  0  0  0  3  0  0  0  0  0  0
  -20.6310  -26.9780   22.6520 C   0  0  0  0  0  2  0  0  0  0  0  0
  -19.5270  -26.6850   21.6300 C   0  0  0  0  0  2  0  0  0  0  0  0
  -18.1450  -26.8520   22.2660 C   0  0  0  0  0  2  0  0  0  0  0  0
  -19.1220  -28.9380   23.3940 C   0  0  0  0  0  0  0  0  0  0  0  0
  -18.9240  -30.2040   23.9880 C   0  0  0  0  0  3  0  0  0  0  0  0
  -17.6270  -30.7270   24.1480 C   0  0  0  0  0  3  0  0  0  0  0  0
  -16.5110  -29.9870   23.7220 C   0  0  0  0  0  3  0  0  0  0  0  0
  -16.6950  -28.7240   23.1300 C   0  0  0  0  0  3  0  0  0  0  0  0
  -25.8060  -32.5990   23.9950 C   0  0  0  0  0  3  0  0  0  0  0  0
  -26.2720  -31.8620   25.3090 C   0  0  1  0  0  0  0  0  0  0  0  0
  -25.1420  -31.6520   26.3430 C   0  0  0  0  0  1  0  0  0  0  0  0
  -26.8680  -30.4780   24.9720 C   0  0  0  0  0  1  0  0  0  0  0  0
  -27.3960  -32.6740   25.9950 C   0  0  0  0  0  1  0  0  0  0  0  0
  -25.4970  -34.0080   24.2740 N   0  0  0  0  0  0  0  0  0  0  0  0
  -25.8690  -35.0360   23.5000 C   0  0  0  0  0  0  0  0  0  0  0  0
  -26.5820  -34.9010   22.5010 O   0  0  0  0  0  0  0  0  0  0  0  0
  -24.8800  -34.1880   25.0530 H   0  0  0  0  0  0  0  0  0  0  0  0
  -24.1860  -36.8320   22.9960 C   0  0  0  0  0  1  0  0  0  0  0  0
  -25.3700  -36.4380   23.8930 C   0  0  0  0  0  3  0  0  0  0  0  0
  -27.4560  -37.3210   24.8370 C   0  0  0  0  0  1  0  0  0  0  0  0
  -26.4180  -37.4780   23.8220 N   0  0  0  0  0  0  0  0  0  0  0  0
  -26.0150  -38.4070   23.9180 H   0  0  0  0  0  0  0  0  0  0  0  0
  -27.6240  -18.7120   17.7620 C   0  0  0  0  0  1  0  0  0  0  0  0
  -28.4630  -19.9790   18.0460 C   0  0  0  0  0  3  0  0  0  0  0  0
  -29.8120  -19.7300   18.6330 N   0  0  0  0  0  0  0  0  0  0  0  0
  -30.1080  -18.3970   19.2090 C   0  0  0  0  0  2  0  0  0  0  0  0
  -29.4430  -18.1080   20.5730 C   0  0  0  0  0  2  0  0  0  0  0  0
  -30.2610  -17.1180   21.4510 C   0  0  0  0  0  2  0  0  0  0  0  0
  -30.8020  -14.7560   20.6820 C   0  0  0  0  0  0  0  0  0  0  0  0
  -30.6470  -12.6000   19.4950 C   0  0  0  0  0  2  0  0  0  0  0  0
  -29.7320  -12.7900   18.2660 C   0  0  0  0  0  2  0  0  0  0  0  0
  -28.2420  -12.6330   18.6390 C   0  0  0  0  0  2  0  0  0  0  0  0
  -27.8520  -13.4500   19.8990 C   0  0  0  0  0  3  0  0  0  0  0  0
  -28.8670  -13.1960   21.0350 C   0  0  0  0  0  2  0  0  0  0  0  0
  -30.2030  -13.5500   20.5220 N   0  0  0  0  0  0  0  0  0  0  0  0
  -31.9420  -15.0120   20.2850 O   0  0  0  0  0  0  0  0  0  0  0  0
  -29.9860  -15.7020   21.1850 N   0  0  0  0  0  0  0  0  0  0  0  0
  -29.0690  -15.3690   21.4430 H   0  0  0  0  0  0  0  0  0  0  0  0
  -25.4190  -14.0350   20.5020 C   0  0  0  0  0  0  0  0  0  0  0  0
  -24.3460  -13.2500   20.8340 C   0  0  0  0  0  0  0  0  0  0  0  0
  -24.8290  -11.9060   20.8350 C   0  0  0  0  0  0  0  0  0  0  0  0
  -26.4840  -13.1650   20.3240 N   0  0  0  0  0  0  0  0  0  0  0  0
  -26.1290  -11.8810   20.5810 N   0  0  0  0  0  0  0  0  0  0  0  0
  -24.1140  -10.6340   21.0080 C   0  0  0  0  0  0  0  0  0  0  0  0
  -24.5100   -9.6900   21.9830 C   0  0  0  0  0  3  0  0  0  0  0  0
  -23.7990   -8.4830   22.1400 C   0  0  0  0  0  3  0  0  0  0  0  0
  -22.6760   -8.2100   21.3230 C   0  0  0  0  0  0  0  0  0  0  0  0
  -22.2980   -9.1410   20.3400 C   0  0  0  0  0  3  0  0  0  0  0  0
  -23.0120  -10.3420   20.1810 C   0  0  0  0  0  3  0  0  0  0  0  0
  -21.9400   -7.0530   21.3870 O   0  0  0  0  0  0  0  0  0  0  0  0
  -21.8160   -6.3420   22.5530 C   0  0  0  0  0  0  0  0  0  0  0  0
  -21.2610   -6.9140   23.7180 C   0  0  0  0  0  3  0  0  0  0  0  0
  -21.0890   -6.1280   24.8750 C   0  0  0  0  0  3  0  0  0  0  0  0
  -21.4610   -4.7690   24.8650 C   0  0  0  0  0  0  0  0  0  0  0  0
  -22.0100   -4.1980   23.7050 C   0  0  0  0  0  3  0  0  0  0  0  0
  -22.1840   -4.9810   22.5500 C   0  0  0  0  0  0  0  0  0  0  0  0
  -22.6940   -4.4200   21.4280 F   0  0  0  0  0  0  0  0  0  0  0  0
  -21.2890   -4.0110   25.9730 F   0  0  0  0  0  0  0  0  0  0  0  0
  -22.9320  -13.7100   21.0440 C   0  0  0  0  0  0  0  0  0  0  0  0
  -22.1840  -13.0200   21.8980 N   0  0  0  0  0  0  0  0  0  0  0  0
  -22.4940  -14.7160   20.4870 O   0  0  0  0  0  0  0  0  0  0  0  0
  -22.5480  -12.2060   22.3700 H   0  0  0  0  0  0  0  0  0  0  0  0
  -21.2350  -13.3110   22.0830 H   0  0  0  0  0  0  0  0  0  0  0  0
  -25.5670  -15.4070   20.3180 N   0  0  0  0  0  0  0  0  0  0  0  0
  -24.7780  -16.0410   20.3860 H   0  0  0  0  0  0  0  0  0  0  0  0
  -26.4140  -15.8580   19.9990 H   0  0  0  0  0  0  0  0  0  0  0  0
  -30.8670  -20.0470   17.6500 C   0  0  0  0  0  2  0  0  0  0  0  0
  -31.1360  -21.5610   17.5060 C   0  0  0  0  0  2  0  0  0  0  0  0
  -31.9700  -21.8810   16.3370 N   0  0  0  0  0  4  0  0  0  0  0  0
  -32.8510  -21.4040   16.3830 H   0  0  0  0  0  0  0  0  0  0  0  0
  -32.1520  -22.8690   16.3050 H   0  0  0  0  0  0  0  0  0  0  0  0
  -31.5010  -21.6260   15.4870 H   0  0  0  0  0  0  0  0  0  0  0  0
  1  4  1  0
  2  4  2  0
  3  6  2  0
  3  5  1  0
  4  8  1  0
  5  1  2  0
  6  2  1  0
  7  5  1  0
  8  9  2  0
 10 11  1  0
 10  8  1  0
 12 23  2  0
 13 11  1  0
 13 18  1  0
 14 22  1  0
 14 24  1  0
 15 17  1  0
 16 22  1  0
 17 18  2  0
 17 16  1  0
 19 13  2  0
 20 19  1  0
 20 15  2  0
 21 15  1  0
 21 14  1  0
 22 12  1  0
 24 26  2  0
 25 24  1  0
 27 25  1  0
 28 37  2  0
 28 33  1  0
 29 25  1  0
 29 33  1  0
 30 29  1  0
 31 32  1  0
 31 30  1  0
 32 28  1  0
 33 34  2  0
 34 35  1  0
 36 35  2  0
 37 36  1  0
 38 12  1  0
 38 43  1  0
 38 39  1  0
 39 42  1  1
 39 40  1  0
 41 39  1  0
 43 46  1  0
 44 48  1  0
 44 43  1  0
 45 44  2  0
 48 47  1  0
 50 48  1  0
 50 51  1  0
 50 49  1  0
 53 52  1  0
 53 54  1  0
 53  6  1  0
 54 55  1  0
 55 56  1  0
 56 57  1  0
 58 66  1  0
 59 64  1  0
 60 61  1  0
 60 59  1  0
 62 61  1  0
 62 71  1  0
 62 63  1  0
 64 58  1  0
 64 63  1  0
 65 58  2  0
 66 67  1  0
 66 57  1  0
 68 69  2  0
 69 70  1  0
 69 88  1  0
 70 73  1  0
 71 68  1  0
 71 72  1  0
 72 70  2  0
 73 74  1  0
 74 75  2  0
 76 79  1  0
 76 75  1  0
 77 76  2  0
 78 77  1  0
 78 73  2  0
 79 80  1  0
 80 81  1  0
 81 82  2  0
 83 82  1  0
 83 87  1  0
 84 83  2  0
 85 80  2  0
 85 84  1  0
 86 85  1  0
 88 89  1  0
 89 92  1  0
 89 91  1  0
 90 88  2  0
 93 94  1  0
 93 68  1  0
 95 93  1  0
 96 54  1  0
 97 96  1  0
 98 99  1  0
 98 97  1  0
100 98  1  0
101 98  1  0
M  ISO  4  10 101  11 101  58 100  66 100
M  END
>  <TORSDO>  (55) 
F 26

>  <SCORE>  (55) 
-12.306

>  <name>  (55) 
56

>  <ligand_id>  (55) 
56

>  <original_smiles>  (55) 
[H]c1c([H])c([H])c2c(c1[H])C([H])([H])C([H])([H])C([H])([H])C2([H])N([H])C(=O)C1([H])N(C(=O)C([H])(N([H])C(=O)C([H])(N([H])C([H])([H])[H])C([H])([H])[H])C(C([H])([H])[H])(C([H])([H])[H])C([H])([H])[H])C([H])([H])c2c([H])c(OC([H])([H])C(=O)c3c([H])c(C([H])([H])[H])c([H])c(C([H])(N(C([H])([H])C([H])([H])C([H])([H])N([H])C(=O)N4C([H])([H])C([H])([H])C([H])([H])C([H])(n5nc(-c6c([H])c([H])c(Oc7c([H])c([H])c(F)c([H])c7F)c([H])c6[H])c(C(=O)N([H])[H])c5N([H])[H])C4([H])[H])C([H])([H])C([H])([H])[N+]([H])([H])[H])C([H])([H])[H])c3[H])c([H])c([H])c2C1([H])[H]

>  <smiles>  (55) 
[H]c1c([H])c([H])c2c(c1[H])C([H])([H])C([H])([H])C([H])([H])C2([H])N([H])C(=O)C1([H])N(C(=O)C([H])(N([H])C(=O)C([H])(N([H])C([H])([H])[H])C([H])([H])[H])C(C([H])([H])[H])(C([H])([H])[H])C([H])([H])[H])C([H])([H])c2c([H])c(OC([H])([H])C(=O)c3c([H])c(C([H])([H])[H])c([H])c(C([H])(N(C([H])([H])C([H])([H])C([H])([H])N([H])C(=O)N4C([H])([H])C([H])([H])C([H])([H])C([H])(n5nc(-c6c([H])c([H])c(Oc7c([H])c([H])c(F)c([H])c7F)c([H])c6[H])c(C(=O)N([H])[H])c5N([H])[H])C4([H])[H])C([H])([H])C([H])([H])[N+]([H])([H])[H])C([H])([H])[H])c3[H])c([H])c([H])c2C1([H])[H]

$$$$
57:0:0
     RDKit          3D

 95103  0  0  1  0  0  0  0  0999 V2000
  -29.3570  -21.2740   22.2390 C   0  0  0  0  0  0  0  0  0  0  0  0
  -28.6760  -21.5630   21.1260 N   0  0  0  0  0  0  0  0  0  0  0  0
  -29.6510  -22.1070   23.0990 O   0  0  0  0  0  0  0  0  0  0  0  0
  -28.5240  -20.7910   20.4920 H   0  0  0  0  0  0  0  0  0  0  0  0
  -31.0300  -19.5480   23.0160 C   0  0  0  0  0  3  0  0  0  0  0  0
  -29.1880  -18.8330   21.5860 C   0  0  0  0  0  3  0  0  0  0  0  0
  -31.5780  -18.2520   22.9530 C   0  0  0  0  0  3  0  0  0  0  0  0
  -29.7390  -17.5390   21.5180 C   0  0  0  0  0  3  0  0  0  0  0  0
  -29.8570  -19.8590   22.2940 C   0  0  0  0  0  0  0  0  0  0  0  0
  -30.9530  -17.2580   22.1720 C   0  0  0  0  0  0  0  0  0  0  0  0
  -31.6310  -15.9220   21.9540 C   0  0  0  0  0  2  0  0  0  0  0  0
  -31.6720  -15.6060   20.4460 C   0  0  0  0  0  2  0  0  0  0  0  0
  -32.0550  -13.7610   18.9350 C   0  0  0  0  0  0  0  0  0  0  0  0
  -31.1880  -11.6820   17.9340 C   0  0  0  0  0  2  0  0  0  0  0  0
  -30.0210  -11.9090   16.9590 C   0  0  0  0  0  2  0  0  0  0  0  0
  -28.6830  -11.9350   17.7170 C   0  0  0  0  0  2  0  0  0  0  0  0
  -28.7110  -12.9030   18.9270 C   0  0  0  0  0  3  0  0  0  0  0  0
  -29.9610  -12.6540   19.8030 C   0  0  0  0  0  2  0  0  0  0  0  0
  -31.1680  -12.7330   18.9610 N   0  0  0  0  0  0  0  0  0  0  0  0
  -32.8010  -13.9830   17.9730 O   0  0  0  0  0  0  0  0  0  0  0  0
  -33.6980  -14.2750   20.6110 C   0  0  0  0  0  1  0  0  0  0  0  0
  -32.3080  -14.3200   20.1380 N   0  0  0  0  0  0  0  0  0  0  0  0
  -26.7700  -13.8060   20.3640 C   0  0  0  0  0  0  0  0  0  0  0  0
  -25.6530  -13.2020   20.8770 C   0  0  0  0  0  0  0  0  0  0  0  0
  -25.7370  -11.8280   20.4920 C   0  0  0  0  0  0  0  0  0  0  0  0
  -27.4770  -12.8090   19.7090 N   0  0  0  0  0  0  0  0  0  0  0  0
  -26.8680  -11.6010   19.8370 N   0  0  0  0  0  0  0  0  0  0  0  0
  -24.7790  -10.7280   20.6620 C   0  0  0  0  0  0  0  0  0  0  0  0
  -25.0570   -9.6300   21.5060 C   0  0  0  0  0  3  0  0  0  0  0  0
  -24.1140   -8.5940   21.6680 C   0  0  0  0  0  3  0  0  0  0  0  0
  -22.8740   -8.6500   20.9870 C   0  0  0  0  0  0  0  0  0  0  0  0
  -22.6110   -9.7340   20.1320 C   0  0  0  0  0  3  0  0  0  0  0  0
  -23.5540  -10.7620   19.9670 C   0  0  0  0  0  3  0  0  0  0  0  0
  -21.9080   -7.6760   21.0630 O   0  0  0  0  0  0  0  0  0  0  0  0
  -21.5400   -7.1190   22.2610 C   0  0  0  0  0  0  0  0  0  0  0  0
  -21.2690   -7.9100   23.4000 C   0  0  0  0  0  3  0  0  0  0  0  0
  -20.8270   -7.3010   24.5910 C   0  0  0  0  0  3  0  0  0  0  0  0
  -20.6440   -5.9060   24.6440 C   0  0  0  0  0  0  0  0  0  0  0  0
  -20.9080   -5.1170   23.5110 C   0  0  0  0  0  3  0  0  0  0  0  0
  -21.3520   -5.7230   22.3210 C   0  0  0  0  0  0  0  0  0  0  0  0
  -21.5840   -4.9610   21.2260 F   0  0  0  0  0  0  0  0  0  0  0  0
  -20.2120   -5.3220   25.7860 F   0  0  0  0  0  0  0  0  0  0  0  0
  -24.5230  -13.8760   21.6010 C   0  0  0  0  0  0  0  0  0  0  0  0
  -23.9000  -13.1820   22.5480 N   0  0  0  0  0  0  0  0  0  0  0  0
  -24.2150  -15.0430   21.3630 O   0  0  0  0  0  0  0  0  0  0  0  0
  -24.1650  -12.2310   22.7580 H   0  0  0  0  0  0  0  0  0  0  0  0
  -23.1480  -13.6090   23.0690 H   0  0  0  0  0  0  0  0  0  0  0  0
  -27.2360  -15.1170   20.3870 N   0  0  0  0  0  0  0  0  0  0  0  0
  -26.7280  -15.8650   20.8470 H   0  0  0  0  0  0  0  0  0  0  0  0
  -28.0910  -15.4310   19.9450 H   0  0  0  0  0  0  0  0  0  0  0  0
  -28.2580  -22.8760   20.6630 C   0  0  0  0  0  2  0  0  0  0  0  0
  -29.3060  -23.4800   19.7100 C   0  0  0  0  0  2  0  0  0  0  0  0
  -28.6970  -24.5120   18.7600 C   0  0  0  0  0  2  0  0  0  0  0  0
  -29.7400  -25.3150   17.9490 C   0  0  0  0  0  2  0  0  0  0  0  0
  -29.1480  -26.3170   17.1150 O   0  0  0  0  0  0  0  0  0  0  0  0
  -25.3910  -28.2830   22.8160 C   0  0  0  0  0  0  0  0  0  0  0  0
  -27.9670  -26.8080   17.6060 C   0  0  0  0  0  0  0  0  0  0  0  0
  -24.1080  -27.9470   20.7260 C   0  0  0  0  0  3  0  0  0  0  0  0
  -25.4970  -27.7090   18.6030 C   0  0  0  0  0  0  0  0  0  0  0  0
  -26.5640  -28.6600   20.6550 C   0  0  0  0  0  2  0  0  0  0  0  0
  -26.6700  -27.9290   19.3350 C   0  0  0  0  0  0  0  0  0  0  0  0
  -27.9140  -27.4750   18.8480 C   0  0  0  0  0  3  0  0  0  0  0  0
  -26.7880  -26.6210   16.8600 C   0  0  0  0  0  3  0  0  0  0  0  0
  -25.5470  -27.0490   17.3630 C   0  0  0  0  0  3  0  0  0  0  0  0
  -24.2080  -28.2210   19.2020 C   0  0  0  0  0  2  0  0  0  0  0  0
  -25.3770  -28.2780   21.4530 N   0  0  0  0  0  0  0  0  0  0  0  0
  -24.3610  -28.0620   23.4660 O   0  0  0  0  0  0  0  0  0  0  0  0
  -23.6440  -26.4890   20.9400 C   0  0  0  0  0  0  0  0  0  0  0  0
  -22.4330  -26.1710   20.4550 N   0  0  0  0  0  0  0  0  0  0  0  0
  -24.3750  -25.6680   21.5020 O   0  0  0  0  0  0  0  0  0  0  0  0
  -21.8920  -26.9010   20.0120 H   0  0  0  0  0  0  0  0  0  0  0  0
  -19.6090  -24.2480   19.2830 C   0  0  0  0  0  0  0  0  0  0  0  0
  -21.8040  -24.8520   20.5090 C   0  0  0  0  0  3  0  0  0  0  0  0
  -22.4970  -23.8650   19.5410 C   0  0  0  0  0  2  0  0  0  0  0  0
  -21.8350  -23.8080   18.1610 C   0  0  0  0  0  2  0  0  0  0  0  0
  -20.3680  -23.3890   18.2850 C   0  0  0  0  0  2  0  0  0  0  0  0
  -20.2860  -24.9480   20.3170 C   0  0  0  0  0  0  0  0  0  0  0  0
  -19.5370  -25.7640   21.1940 C   0  0  0  0  0  3  0  0  0  0  0  0
  -18.1410  -25.8810   21.0540 C   0  0  0  0  0  3  0  0  0  0  0  0
  -17.4750  -25.1730   20.0390 C   0  0  0  0  0  3  0  0  0  0  0  0
  -18.2080  -24.3570   19.1590 C   0  0  0  0  0  3  0  0  0  0  0  0
  -26.6930  -28.5940   23.6190 C   0  0  0  0  0  3  0  0  0  0  0  0
  -26.4020  -29.7240   24.5120 N   0  0  0  0  0  0  0  0  0  0  0  0
  -26.8320  -30.9780   24.3170 C   0  0  0  0  0  0  0  0  0  0  0  0
  -27.5870  -31.2920   23.3920 O   0  0  0  0  0  0  0  0  0  0  0  0
  -25.7490  -29.5520   25.2630 H   0  0  0  0  0  0  0  0  0  0  0  0
  -25.2480  -32.9010   24.6460 C   0  0  0  0  0  1  0  0  0  0  0  0
  -26.3490  -32.0560   25.3060 C   0  0  0  0  0  3  0  0  0  0  0  0
  -28.4010  -32.2450   26.6400 C   0  0  0  0  0  1  0  0  0  0  0  0
  -27.4330  -32.9370   25.7920 N   0  0  0  0  0  0  0  0  0  0  0  0
  -27.0510  -33.7170   26.3190 H   0  0  0  0  0  0  0  0  0  0  0  0
  -27.2310  -27.3560   24.4360 C   0  0  1  0  0  0  0  0  0  0  0  0
  -26.1450  -26.6560   25.2870 C   0  0  0  0  0  1  0  0  0  0  0  0
  -27.8380  -26.2990   23.4850 C   0  0  0  0  0  1  0  0  0  0  0  0
  -28.3670  -27.8060   25.3840 C   0  0  0  0  0  1  0  0  0  0  0  0
  1  9  1  0
  1  3  2  0
  2  1  1  0
  4  2  1  0
  6  9  1  0
  7  5  1  0
  8  6  2  0
  8 10  1  0
  9  5  2  0
 10  7  2  0
 11 10  1  0
 12 11  1  0
 13 19  1  0
 13 22  1  0
 14 19  1  0
 15 16  1  0
 15 14  1  0
 17 16  1  0
 17 26  1  0
 17 18  1  0
 19 18  1  0
 20 13  2  0
 22 12  1  0
 22 21  1  0
 23 48  1  0
 23 24  2  0
 24 43  1  0
 25 28  1  0
 25 24  1  0
 26 27  1  0
 26 23  1  0
 27 25  2  0
 28 29  1  0
 29 30  2  0
 31 34  1  0
 31 30  1  0
 32 31  2  0
 33 32  1  0
 33 28  2  0
 34 35  1  0
 35 40  2  0
 35 36  1  0
 36 37  2  0
 37 38  1  0
 38 42  1  0
 39 38  2  0
 40 39  1  0
 41 40  1  0
 43 44  1  0
 44 46  1  0
 44 47  1  0
 45 43  2  0
 48 49  1  0
 50 48  1  0
 51  2  1  0
 52 51  1  0
 53 52  1  0
 54 53  1  0
 55 57  1  0
 55 54  1  0
 56 67  2  0
 57 62  1  0
 58 68  1  0
 58 66  1  0
 59 65  1  0
 59 61  1  0
 60 66  1  0
 61 60  1  0
 62 61  2  0
 63 64  1  0
 63 57  2  0
 64 59  2  0
 65 58  1  0
 66 56  1  0
 68 70  2  0
 69 68  1  0
 71 69  1  0
 72 77  1  0
 73 69  1  0
 74 73  1  0
 75 76  1  0
 75 74  1  0
 76 72  1  0
 77 73  1  0
 77 78  2  0
 79 78  1  0
 80 79  2  0
 81 72  2  0
 81 80  1  0
 82 56  1  0
 82 92  1  0
 82 83  1  0
 83 86  1  0
 84 83  1  0
 84 88  1  0
 85 84  2  0
 88 87  1  0
 88 90  1  0
 90 91  1  0
 90 89  1  0
 92 93  1  1
 92 95  1  0
 94 92  1  0
M  ISO  4  13 100  22 100  54 101  55 101
M  END
>  <TORSDO>  (56) 
F 23

>  <SCORE>  (56) 
-3.734

>  <name>  (56) 
57

>  <ligand_id>  (56) 
57

>  <original_smiles>  (56) 
[H]c1c([H])c([H])c2c(c1[H])C([H])([H])C([H])([H])C([H])([H])C2([H])N([H])C(=O)C1([H])N(C(=O)C([H])(N([H])C(=O)C([H])(N([H])C([H])([H])[H])C([H])([H])[H])C(C([H])([H])[H])(C([H])([H])[H])C([H])([H])[H])C([H])([H])c2c([H])c(OC([H])([H])C([H])([H])C([H])([H])C([H])([H])N([H])C(=O)c3c([H])c([H])c(C([H])([H])C([H])([H])N(C(=O)N4C([H])([H])C([H])([H])C([H])([H])C([H])(n5nc(-c6c([H])c([H])c(Oc7c([H])c([H])c(F)c([H])c7F)c([H])c6[H])c(C(=O)N([H])[H])c5N([H])[H])C4([H])[H])C([H])([H])[H])c([H])c3[H])c([H])c([H])c2C1([H])[H]

>  <smiles>  (56) 
[H]c1c([H])c([H])c2c(c1[H])C([H])([H])C([H])([H])C([H])([H])C2([H])N([H])C(=O)C1([H])N(C(=O)C([H])(N([H])C(=O)C([H])(N([H])C([H])([H])[H])C([H])([H])[H])C(C([H])([H])[H])(C([H])([H])[H])C([H])([H])[H])C([H])([H])c2c([H])c(OC([H])([H])C([H])([H])C([H])([H])C([H])([H])N([H])C(=O)c3c([H])c([H])c(C([H])([H])C([H])([H])N(C(=O)N4C([H])([H])C([H])([H])C([H])([H])C([H])(n5nc(-c6c([H])c([H])c(Oc7c([H])c([H])c(F)c([H])c7F)c([H])c6[H])c(C(=O)N([H])[H])c5N([H])[H])C4([H])[H])C([H])([H])[H])c([H])c3[H])c([H])c([H])c2C1([H])[H]

$$$$
58:0:0
     RDKit          3D

 98106  0  0  1  0  0  0  0  0999 V2000
  -28.9200  -21.7730   20.1040 C   0  0  0  0  0  3  0  0  0  0  0  0
  -30.5090  -23.5810   19.7480 C   0  0  0  0  0  3  0  0  0  0  0  0
  -31.2860  -21.2650   19.8160 C   0  0  0  0  0  3  0  0  0  0  0  0
  -29.1830  -23.1540   19.9680 C   0  0  0  0  0  0  0  0  0  0  0  0
  -29.9630  -20.8240   20.0400 C   0  0  0  0  0  0  0  0  0  0  0  0
  -31.5580  -22.6410   19.6660 C   0  0  0  0  0  0  0  0  0  0  0  0
  -32.9830  -23.1060   19.4400 C   0  0  0  0  0  1  0  0  0  0  0  0
  -28.0670  -24.1200   20.1640 C   0  0  0  0  0  0  0  0  0  0  0  0
  -27.2200  -23.9460   21.0460 O   0  0  0  0  0  0  0  0  0  0  0  0
  -27.9450  -25.3050   19.1810 C   0  0  0  0  0  2  0  0  0  0  0  0
  -27.9690  -26.5790   19.8460 O   0  0  0  0  0  0  0  0  0  0  0  0
  -24.6620  -31.7890   23.3560 C   0  0  0  0  0  0  0  0  0  0  0  0
  -26.8260  -27.3530   19.9140 C   0  0  0  0  0  0  0  0  0  0  0  0
  -23.2770  -30.5590   21.7190 C   0  0  0  0  0  3  0  0  0  0  0  0
  -24.5400  -29.0100   20.1420 C   0  0  0  0  0  0  0  0  0  0  0  0
  -25.8040  -30.7620   21.3910 C   0  0  0  0  0  2  0  0  0  0  0  0
  -25.7600  -29.4200   20.6930 C   0  0  0  0  0  0  0  0  0  0  0  0
  -26.9000  -28.5940   20.5860 C   0  0  0  0  0  3  0  0  0  0  0  0
  -25.5860  -26.9670   19.3480 C   0  0  0  0  0  3  0  0  0  0  0  0
  -24.4470  -27.7800   19.4730 C   0  0  0  0  0  3  0  0  0  0  0  0
  -23.3630  -29.9430   20.2980 C   0  0  0  0  0  2  0  0  0  0  0  0
  -24.6050  -31.0480   22.2150 N   0  0  0  0  0  0  0  0  0  0  0  0
  -23.6330  -32.1030   23.9700 O   0  0  0  0  0  0  0  0  0  0  0  0
  -22.6100  -29.5330   22.6610 C   0  0  0  0  0  0  0  0  0  0  0  0
  -21.2880  -29.3500   22.5080 N   0  0  0  0  0  0  0  0  0  0  0  0
  -23.2790  -28.9040   23.4850 O   0  0  0  0  0  0  0  0  0  0  0  0
  -20.8110  -29.9130   21.8170 H   0  0  0  0  0  0  0  0  0  0  0  0
  -17.9390  -28.0340   22.8120 C   0  0  0  0  0  0  0  0  0  0  0  0
  -20.4570  -28.4100   23.2580 C   0  0  0  0  0  3  0  0  0  0  0  0
  -20.6580  -26.9620   22.7520 C   0  0  0  0  0  2  0  0  0  0  0  0
  -19.6480  -26.5550   21.6760 C   0  0  0  0  0  2  0  0  0  0  0  0
  -18.2170  -26.6670   22.2110 C   0  0  0  0  0  2  0  0  0  0  0  0
  -18.9920  -28.8600   23.2890 C   0  0  0  0  0  0  0  0  0  0  0  0
  -18.6810  -30.1360   23.8050 C   0  0  0  0  0  3  0  0  0  0  0  0
  -17.3490  -30.5890   23.8520 C   0  0  0  0  0  3  0  0  0  0  0  0
  -16.3090  -29.7610   23.3920 C   0  0  0  0  0  3  0  0  0  0  0  0
  -16.6050  -28.4870   22.8770 C   0  0  0  0  0  3  0  0  0  0  0  0
  -26.0210  -32.2980   23.9340 C   0  0  0  0  0  3  0  0  0  0  0  0
  -26.5670  -31.4050   25.1140 C   0  0  1  0  0  0  0  0  0  0  0  0
  -25.5260  -31.1330   26.2230 C   0  0  0  0  0  1  0  0  0  0  0  0
  -27.0550  -30.0390   24.5780 C   0  0  0  0  0  1  0  0  0  0  0  0
  -27.7930  -32.0880   25.7660 C   0  0  0  0  0  1  0  0  0  0  0  0
  -25.8200  -33.6840   24.3770 N   0  0  0  0  0  0  0  0  0  0  0  0
  -26.1820  -34.7650   23.6740 C   0  0  0  0  0  0  0  0  0  0  0  0
  -26.7930  -34.6950   22.6040 O   0  0  0  0  0  0  0  0  0  0  0  0
  -25.2780  -33.8160   25.2190 H   0  0  0  0  0  0  0  0  0  0  0  0
  -24.5580  -36.6810   23.5280 C   0  0  0  0  0  1  0  0  0  0  0  0
  -25.8040  -36.1450   24.2490 C   0  0  0  0  0  3  0  0  0  0  0  0
  -28.0240  -36.8350   25.0410 C   0  0  0  0  0  1  0  0  0  0  0  0
  -26.8980  -37.1370   24.1620 N   0  0  0  0  0  0  0  0  0  0  0  0
  -26.5580  -38.0680   24.3900 H   0  0  0  0  0  0  0  0  0  0  0  0
  -29.6350  -19.3800   20.1740 C   0  0  0  0  0  0  0  0  0  0  0  0
  -28.6990  -18.8760   19.5480 O   0  0  0  0  0  0  0  0  0  0  0  0
  -30.4010  -18.5840   21.2480 C   0  0  0  0  0  3  0  0  0  0  0  0
  -29.8580  -19.0580   22.5370 N   0  0  0  0  0  4  0  0  0  0  0  0
  -28.8570  -18.9530   22.5470 H   0  0  0  0  0  0  0  0  0  0  0  0
  -30.0660  -20.0340   22.6590 H   0  0  0  0  0  0  0  0  0  0  0  0
  -30.2500  -18.5550   23.3120 H   0  0  0  0  0  0  0  0  0  0  0  0
  -30.2250  -17.0490   21.1020 C   0  0  0  0  0  2  0  0  0  0  0  0
  -31.3230  -16.3120   20.2970 C   0  0  0  0  0  2  0  0  0  0  0  0
  -31.7510  -13.8650   19.8850 C   0  0  0  0  0  0  0  0  0  0  0  0
  -31.3810  -11.5230   19.1870 C   0  0  0  0  0  2  0  0  0  0  0  0
  -30.4160  -11.4700   17.9850 C   0  0  0  0  0  2  0  0  0  0  0  0
  -28.9460  -11.4860   18.4500 C   0  0  0  0  0  2  0  0  0  0  0  0
  -28.6580  -12.6190   19.4690 C   0  0  0  0  0  3  0  0  0  0  0  0
  -29.7090  -12.5830   20.6020 C   0  0  0  0  0  2  0  0  0  0  0  0
  -31.0520  -12.7070   19.9950 N   0  0  0  0  0  0  0  0  0  0  0  0
  -32.7720  -13.9960   19.2000 O   0  0  0  0  0  0  0  0  0  0  0  0
  -31.1890  -14.8820   20.5480 N   0  0  0  0  0  0  0  0  0  0  0  0
  -30.4320  -14.6040   21.1560 H   0  0  0  0  0  0  0  0  0  0  0  0
  -26.3840  -13.5490   20.2580 C   0  0  0  0  0  0  0  0  0  0  0  0
  -25.2400  -12.9250   20.6820 C   0  0  0  0  0  0  0  0  0  0  0  0
  -25.5200  -11.5260   20.6480 C   0  0  0  0  0  0  0  0  0  0  0  0
  -27.2960  -12.5360   19.9960 N   0  0  0  0  0  0  0  0  0  0  0  0
  -26.7780  -11.3150   20.2840 N   0  0  0  0  0  0  0  0  0  0  0  0
  -24.6460  -10.3700   20.8820 C   0  0  0  0  0  0  0  0  0  0  0  0
  -24.9430   -9.4130   21.8760 C   0  0  0  0  0  3  0  0  0  0  0  0
  -24.0800   -8.3170   22.0950 C   0  0  0  0  0  3  0  0  0  0  0  0
  -22.9050   -8.1730   21.3190 C   0  0  0  0  0  0  0  0  0  0  0  0
  -22.6260   -9.1170   20.3140 C   0  0  0  0  0  3  0  0  0  0  0  0
  -23.4880  -10.2050   20.0950 C   0  0  0  0  0  3  0  0  0  0  0  0
  -22.0210   -7.1280   21.4420 O   0  0  0  0  0  0  0  0  0  0  0  0
  -21.8180   -6.4960   22.6420 C   0  0  0  0  0  0  0  0  0  0  0  0
  -21.3750   -7.1930   23.7880 C   0  0  0  0  0  3  0  0  0  0  0  0
  -21.1130   -6.4920   24.9820 C   0  0  0  0  0  3  0  0  0  0  0  0
  -21.2850   -5.0960   25.0320 C   0  0  0  0  0  0  0  0  0  0  0  0
  -21.7220   -4.3990   23.8910 C   0  0  0  0  0  3  0  0  0  0  0  0
  -21.9850   -5.0980   22.6990 C   0  0  0  0  0  0  0  0  0  0  0  0
  -22.3860   -4.4200   21.5970 F   0  0  0  0  0  0  0  0  0  0  0  0
  -21.0270   -4.4200   26.1750 F   0  0  0  0  0  0  0  0  0  0  0  0
  -23.9280  -13.5830   21.0070 C   0  0  0  0  0  0  0  0  0  0  0  0
  -23.1650  -13.0080   21.9300 N   0  0  0  0  0  0  0  0  0  0  0  0
  -23.5930  -14.6390   20.4750 O   0  0  0  0  0  0  0  0  0  0  0  0
  -23.4470  -12.1510   22.3820 H   0  0  0  0  0  0  0  0  0  0  0  0
  -22.2850  -13.4320   22.1860 H   0  0  0  0  0  0  0  0  0  0  0  0
  -26.7170  -14.8850   20.0590 N   0  0  0  0  0  0  0  0  0  0  0  0
  -26.0310  -15.6260   20.1520 H   0  0  0  0  0  0  0  0  0  0  0  0
  -27.5890  -15.2000   19.6500 H   0  0  0  0  0  0  0  0  0  0  0  0
  2  4  1  0
  3  5  2  0
  4  1  2  0
  4  8  1  0
  5  1  1  0
  5 52  1  0
  6  2  2  0
  6  3  1  0
  7  6  1  0
  8  9  2  0
 10 11  1  0
 10  8  1  0
 11 13  1  0
 12 23  2  0
 13 18  1  0
 14 22  1  0
 14 24  1  0
 15 21  1  0
 15 17  1  0
 16 22  1  0
 17 16  1  0
 18 17  2  0
 19 20  1  0
 19 13  2  0
 20 15  2  0
 21 14  1  0
 22 12  1  0
 24 26  2  0
 25 24  1  0
 27 25  1  0
 28 37  2  0
 28 33  1  0
 29 25  1  0
 29 33  1  0
 30 29  1  0
 31 32  1  0
 31 30  1  0
 32 28  1  0
 33 34  2  0
 34 35  1  0
 36 35  2  0
 37 36  1  0
 38 12  1  0
 38 43  1  0
 38 39  1  0
 39 42  1  1
 39 40  1  0
 41 39  1  0
 43 46  1  0
 44 48  1  0
 44 43  1  0
 45 44  2  0
 48 47  1  0
 50 48  1  0
 50 51  1  0
 50 49  1  0
 52 54  1  0
 53 52  2  0
 54 59  1  0
 54 55  1  0
 55 56  1  0
 55 57  1  0
 55 58  1  0
 60 69  1  0
 60 59  1  0
 61 67  1  0
 61 69  1  0
 62 67  1  0
 63 64  1  0
 63 62  1  0
 65 64  1  0
 65 74  1  0
 65 66  1  0
 67 66  1  0
 68 61  2  0
 69 70  1  0
 71 72  2  0
 72 91  1  0
 73 72  1  0
 73 76  1  0
 74 71  1  0
 74 75  1  0
 75 73  2  0
 76 77  1  0
 77 78  2  0
 79 82  1  0
 79 78  1  0
 80 79  2  0
 81 80  1  0
 81 76  2  0
 82 83  1  0
 83 88  2  0
 83 84  1  0
 84 85  2  0
 85 86  1  0
 86 90  1  0
 87 86  2  0
 88 87  1  0
 89 88  1  0
 91 92  1  0
 92 95  1  0
 92 94  1  0
 93 91  2  0
 96 97  1  0
 96 71  1  0
 98 96  1  0
M  ISO  4  10 101  11 101  61 100  69 100
M  END
>  <TORSDO>  (57) 
F 23

>  <SCORE>  (57) 
-11.054

>  <name>  (57) 
58

>  <ligand_id>  (57) 
58

>  <original_smiles>  (57) 
[H]c1c([H])c([H])c2c(c1[H])C([H])([H])C([H])([H])C([H])([H])C2([H])N([H])C(=O)C1([H])N(C(=O)C([H])(N([H])C(=O)C([H])(N([H])C([H])([H])[H])C([H])([H])[H])C(C([H])([H])[H])(C([H])([H])[H])C([H])([H])[H])C([H])([H])c2c([H])c(OC([H])([H])C(=O)c3c([H])c(C(=O)C([H])(C([H])([H])C([H])([H])N([H])C(=O)N4C([H])([H])C([H])([H])C([H])([H])C([H])(n5nc(-c6c([H])c([H])c(Oc7c([H])c([H])c(F)c([H])c7F)c([H])c6[H])c(C(=O)N([H])[H])c5N([H])[H])C4([H])[H])[N+]([H])([H])[H])c([H])c(C([H])([H])[H])c3[H])c([H])c([H])c2C1([H])[H]

>  <smiles>  (57) 
[H]c1c([H])c([H])c2c(c1[H])C([H])([H])C([H])([H])C([H])([H])C2([H])N([H])C(=O)C1([H])N(C(=O)C([H])(N([H])C(=O)C([H])(N([H])C([H])([H])[H])C([H])([H])[H])C(C([H])([H])[H])(C([H])([H])[H])C([H])([H])[H])C([H])([H])c2c([H])c(OC([H])([H])C(=O)c3c([H])c(C(=O)C([H])(C([H])([H])C([H])([H])N([H])C(=O)N4C([H])([H])C([H])([H])C([H])([H])C([H])(n5nc(-c6c([H])c([H])c(Oc7c([H])c([H])c(F)c([H])c7F)c([H])c6[H])c(C(=O)N([H])[H])c5N([H])[H])C4([H])[H])[N+]([H])([H])[H])c([H])c(C([H])([H])[H])c3[H])c([H])c([H])c2C1([H])[H]

$$$$
59:0:0
     RDKit          3D

 98106  0  0  1  0  0  0  0  0999 V2000
  -31.3130  -22.9620   19.5410 C   0  0  0  0  0  3  0  0  0  0  0  0
  -31.6530  -21.7440   20.1610 C   0  0  0  0  0  3  0  0  0  0  0  0
  -29.2930  -21.2150   20.4020 C   0  0  0  0  0  3  0  0  0  0  0  0
  -29.9610  -23.3110   19.3230 C   0  0  0  0  0  0  0  0  0  0  0  0
  -30.6500  -20.8470   20.5900 C   0  0  0  0  0  0  0  0  0  0  0  0
  -28.9470  -22.4250   19.7670 C   0  0  0  0  0  0  0  0  0  0  0  0
  -31.9670  -19.6600   22.4330 C   0  0  0  0  0  1  0  0  0  0  0  0
  -31.0600  -19.4970   21.2010 C   0  0  0  0  0  3  0  0  0  0  0  0
  -29.8810  -18.6830   21.5530 N   0  0  0  0  0  4  0  0  0  0  0  0
  -29.7570  -18.6700   22.5520 H   0  0  0  0  0  0  0  0  0  0  0  0
  -29.0950  -19.1760   21.1650 H   0  0  0  0  0  0  0  0  0  0  0  0
  -29.8210  -17.3140   21.0050 C   0  0  0  0  0  2  0  0  0  0  0  0
  -30.7770  -16.3270   21.7040 C   0  0  0  0  0  2  0  0  0  0  0  0
  -30.8510  -14.2330   20.3320 C   0  0  0  0  0  0  0  0  0  0  0  0
  -30.4400  -12.1900   19.0080 C   0  0  0  0  0  2  0  0  0  0  0  0
  -29.4500  -12.4530   17.8590 C   0  0  0  0  0  2  0  0  0  0  0  0
  -27.9900  -12.3380   18.3380 C   0  0  0  0  0  2  0  0  0  0  0  0
  -27.7240  -13.1430   19.6360 C   0  0  0  0  0  3  0  0  0  0  0  0
  -28.8020  -12.8160   20.6930 C   0  0  0  0  0  2  0  0  0  0  0  0
  -30.1300  -13.1060   20.1120 N   0  0  0  0  0  0  0  0  0  0  0  0
  -31.8290  -14.5730   19.6560 O   0  0  0  0  0  0  0  0  0  0  0  0
  -30.4100  -14.9610   21.3600 N   0  0  0  0  0  0  0  0  0  0  0  0
  -29.6440  -14.5540   21.8780 H   0  0  0  0  0  0  0  0  0  0  0  0
  -25.3510  -13.7970   20.4030 C   0  0  0  0  0  0  0  0  0  0  0  0
  -24.2810  -13.0450   20.8050 C   0  0  0  0  0  0  0  0  0  0  0  0
  -24.7170  -11.6850   20.7660 C   0  0  0  0  0  0  0  0  0  0  0  0
  -26.3770  -12.8980   20.1480 N   0  0  0  0  0  0  0  0  0  0  0  0
  -25.9970  -11.6230   20.4190 N   0  0  0  0  0  0  0  0  0  0  0  0
  -23.9780  -10.4360   20.9820 C   0  0  0  0  0  0  0  0  0  0  0  0
  -24.4170   -9.4710   21.9150 C   0  0  0  0  0  3  0  0  0  0  0  0
  -23.6800   -8.2840   22.1190 C   0  0  0  0  0  3  0  0  0  0  0  0
  -22.4910   -8.0540   21.3870 C   0  0  0  0  0  0  0  0  0  0  0  0
  -22.0700   -9.0070   20.4440 C   0  0  0  0  0  3  0  0  0  0  0  0
  -22.8070  -10.1860   20.2390 C   0  0  0  0  0  3  0  0  0  0  0  0
  -21.7240   -6.9190   21.5000 O   0  0  0  0  0  0  0  0  0  0  0  0
  -21.6810   -6.1940   22.6640 C   0  0  0  0  0  0  0  0  0  0  0  0
  -21.2900   -6.7720   23.8910 C   0  0  0  0  0  3  0  0  0  0  0  0
  -21.1930   -5.9720   25.0460 C   0  0  0  0  0  3  0  0  0  0  0  0
  -21.4780   -4.5950   24.9780 C   0  0  0  0  0  0  0  0  0  0  0  0
  -21.8640   -4.0170   23.7550 C   0  0  0  0  0  3  0  0  0  0  0  0
  -21.9630   -4.8140   22.6020 C   0  0  0  0  0  0  0  0  0  0  0  0
  -22.3160   -4.2480   21.4220 F   0  0  0  0  0  0  0  0  0  0  0  0
  -21.3780   -3.8250   26.0860 F   0  0  0  0  0  0  0  0  0  0  0  0
  -22.9000  -13.5470   21.1160 C   0  0  0  0  0  0  0  0  0  0  0  0
  -22.1880  -12.8690   22.0080 N   0  0  0  0  0  0  0  0  0  0  0  0
  -22.4640  -14.5760   20.6040 O   0  0  0  0  0  0  0  0  0  0  0  0
  -22.5530  -12.0360   22.4460 H   0  0  0  0  0  0  0  0  0  0  0  0
  -21.2610  -13.1870   22.2570 H   0  0  0  0  0  0  0  0  0  0  0  0
  -25.5330  -15.1630   20.2150 N   0  0  0  0  0  0  0  0  0  0  0  0
  -24.7760  -15.8260   20.3310 H   0  0  0  0  0  0  0  0  0  0  0  0
  -26.3710  -15.5810   19.8310 H   0  0  0  0  0  0  0  0  0  0  0  0
  -29.6580  -24.5620   18.5740 C   0  0  0  0  0  0  0  0  0  0  0  0
  -28.9300  -24.6030   17.5760 O   0  0  0  0  0  0  0  0  0  0  0  0
  -30.3100  -25.8430   19.1010 C   0  0  0  0  0  2  0  0  0  0  0  0
  -29.3210  -27.0190   19.1830 C   0  0  0  0  0  2  0  0  0  0  0  0
  -28.3680  -26.7190   20.1900 O   0  0  0  0  0  0  0  0  0  0  0  0
  -24.5650  -31.8830   23.2230 C   0  0  0  0  0  0  0  0  0  0  0  0
  -27.2260  -27.4690   20.1580 C   0  0  0  0  0  0  0  0  0  0  0  0
  -23.3610  -30.4750   21.5810 C   0  0  0  0  0  3  0  0  0  0  0  0
  -24.8220  -28.9360   20.1630 C   0  0  0  0  0  0  0  0  0  0  0  0
  -25.8830  -30.8480   21.3830 C   0  0  0  0  0  2  0  0  0  0  0  0
  -25.9740  -29.4770   20.7490 C   0  0  0  0  0  0  0  0  0  0  0  0
  -27.1820  -28.7480   20.7490 C   0  0  0  0  0  3  0  0  0  0  0  0
  -26.0620  -26.9270   19.5790 C   0  0  0  0  0  3  0  0  0  0  0  0
  -24.8580  -27.6570   19.5760 C   0  0  0  0  0  3  0  0  0  0  0  0
  -23.5740  -29.7880   20.2040 C   0  0  0  0  0  2  0  0  0  0  0  0
  -24.6220  -31.0830   22.1210 N   0  0  0  0  0  0  0  0  0  0  0  0
  -23.4830  -32.1560   23.7620 O   0  0  0  0  0  0  0  0  0  0  0  0
  -22.7100  -29.4590   22.5450 C   0  0  0  0  0  0  0  0  0  0  0  0
  -21.3850  -29.2780   22.4160 N   0  0  0  0  0  0  0  0  0  0  0  0
  -23.3920  -28.8350   23.3620 O   0  0  0  0  0  0  0  0  0  0  0  0
  -20.8990  -29.8320   21.7240 H   0  0  0  0  0  0  0  0  0  0  0  0
  -18.0080  -28.0950   22.9090 C   0  0  0  0  0  0  0  0  0  0  0  0
  -20.5660  -28.3450   23.1860 C   0  0  0  0  0  3  0  0  0  0  0  0
  -20.6650  -26.9130   22.6140 C   0  0  0  0  0  2  0  0  0  0  0  0
  -19.5640  -26.5910   21.5980 C   0  0  0  0  0  2  0  0  0  0  0  0
  -18.1820  -26.7420   22.2390 C   0  0  0  0  0  2  0  0  0  0  0  0
  -19.1290  -28.8530   23.3400 C   0  0  0  0  0  0  0  0  0  0  0  0
  -18.9120  -30.1200   23.9270 C   0  0  0  0  0  3  0  0  0  0  0  0
  -17.6100  -30.6270   24.0890 C   0  0  0  0  0  3  0  0  0  0  0  0
  -16.5040  -29.8650   23.6740 C   0  0  0  0  0  3  0  0  0  0  0  0
  -16.7040  -28.6000   23.0900 C   0  0  0  0  0  3  0  0  0  0  0  0
  -25.8510  -32.5140   23.8430 C   0  0  0  0  0  3  0  0  0  0  0  0
  -25.5450  -33.9130   24.1680 N   0  0  0  0  0  0  0  0  0  0  0  0
  -25.8910  -34.9620   23.4100 C   0  0  0  0  0  0  0  0  0  0  0  0
  -26.5740  -34.8530   22.3860 O   0  0  0  0  0  0  0  0  0  0  0  0
  -24.9430  -34.0720   24.9620 H   0  0  0  0  0  0  0  0  0  0  0  0
  -24.1780  -36.7620   23.0230 C   0  0  0  0  0  1  0  0  0  0  0  0
  -25.4030  -36.3520   23.8570 C   0  0  0  0  0  3  0  0  0  0  0  0
  -27.5300  -37.2250   24.7210 C   0  0  0  0  0  1  0  0  0  0  0  0
  -26.4430  -37.4000   23.7600 N   0  0  0  0  0  0  0  0  0  0  0  0
  -26.0390  -38.3220   23.9030 H   0  0  0  0  0  0  0  0  0  0  0  0
  -26.3710  -31.7440   25.1200 C   0  0  1  0  0  0  0  0  0  0  0  0
  -25.2790  -31.5090   26.1890 C   0  0  0  0  0  1  0  0  0  0  0  0
  -26.9510  -30.3650   24.7260 C   0  0  0  0  0  1  0  0  0  0  0  0
  -27.5230  -32.5380   25.7790 C   0  0  0  0  0  1  0  0  0  0  0  0
  -27.6170  -22.7160   19.6130 O   0  0  0  0  0  0  0  0  0  0  0  0
  -27.0340  -22.0590   19.9800 H   0  0  0  0  0  0  0  0  0  0  0  0
  1  2  1  0
  2  5  2  0
  3  5  1  0
  4  1  2  0
  4  6  1  0
  5  8  1  0
  6  3  2  0
  8  9  1  0
  8  7  1  0
  9 10  1  0
 11  9  1  0
 12  9  1  0
 12 13  1  0
 14 22  1  0
 15 20  1  0
 16 17  1  0
 16 15  1  0
 18 17  1  0
 18 27  1  0
 18 19  1  0
 20 14  1  0
 20 19  1  0
 21 14  2  0
 22 13  1  0
 22 23  1  0
 24 25  2  0
 25 44  1  0
 26 25  1  0
 26 29  1  0
 27 24  1  0
 27 28  1  0
 28 26  2  0
 29 30  1  0
 30 31  2  0
 32 35  1  0
 32 31  1  0
 33 32  2  0
 34 33  1  0
 34 29  2  0
 35 36  1  0
 36 37  1  0
 37 38  2  0
 39 38  1  0
 39 43  1  0
 40 39  2  0
 41 36  2  0
 41 40  1  0
 42 41  1  0
 44 45  1  0
 45 48  1  0
 45 47  1  0
 46 44  2  0
 49 50  1  0
 49 24  1  0
 51 49  1  0
 52 54  1  0
 52  4  1  0
 53 52  2  0
 54 55  1  0
 55 56  1  0
 57 68  2  0
 58 56  1  0
 58 63  1  0
 59 67  1  0
 59 69  1  0
 60 66  1  0
 60 62  1  0
 61 67  1  0
 62 61  1  0
 63 62  2  0
 64 58  2  0
 65 64  1  0
 65 60  2  0
 66 59  1  0
 67 57  1  0
 69 71  2  0
 70 69  1  0
 72 70  1  0
 73 82  2  0
 73 78  1  0
 74 70  1  0
 74 78  1  0
 75 74  1  0
 76 77  1  0
 76 75  1  0
 77 73  1  0
 78 79  2  0
 79 80  1  0
 81 80  2  0
 82 81  1  0
 83 57  1  0
 83 84  1  0
 83 93  1  0
 84 87  1  0
 85 89  1  0
 85 84  1  0
 86 85  2  0
 89 88  1  0
 91 89  1  0
 91 92  1  0
 91 90  1  0
 93 96  1  1
 93 94  1  0
 95 93  1  0
 97  6  1  0
 97 98  1  0
M  ISO  4  14 100  22 100  55 101  56 101
M  END
>  <TORSDO>  (58) 
F 24

>  <SCORE>  (58) 
-12.910

>  <name>  (58) 
59

>  <ligand_id>  (58) 
59

>  <original_smiles>  (58) 
[H]Oc1c([H])c(C([H])(C([H])([H])[H])[N+]([H])([H])C([H])([H])C([H])([H])N([H])C(=O)N2C([H])([H])C([H])([H])C([H])([H])C([H])(n3nc(-c4c([H])c([H])c(Oc5c([H])c([H])c(F)c([H])c5F)c([H])c4[H])c(C(=O)N([H])[H])c3N([H])[H])C2([H])[H])c([H])c([H])c1C(=O)C([H])([H])C([H])([H])Oc1c([H])c([H])c2c(c1[H])C([H])([H])N(C(=O)C([H])(N([H])C(=O)C([H])(N([H])C([H])([H])[H])C([H])([H])[H])C(C([H])([H])[H])(C([H])([H])[H])C([H])([H])[H])C([H])(C(=O)N([H])C1([H])c3c([H])c([H])c([H])c([H])c3C([H])([H])C([H])([H])C1([H])[H])C2([H])[H]

>  <smiles>  (58) 
[H]Oc1c([H])c(C([H])(C([H])([H])[H])[N+]([H])([H])C([H])([H])C([H])([H])N([H])C(=O)N2C([H])([H])C([H])([H])C([H])([H])C([H])(n3nc(-c4c([H])c([H])c(Oc5c([H])c([H])c(F)c([H])c5F)c([H])c4[H])c(C(=O)N([H])[H])c3N([H])[H])C2([H])[H])c([H])c([H])c1C(=O)C([H])([H])C([H])([H])Oc1c([H])c([H])c2c(c1[H])C([H])([H])N(C(=O)C([H])(N([H])C(=O)C([H])(N([H])C([H])([H])[H])C([H])([H])[H])C(C([H])([H])[H])(C([H])([H])[H])C([H])([H])[H])C([H])(C(=O)N([H])C1([H])c3c([H])c([H])c([H])c([H])c3C([H])([H])C([H])([H])C1([H])[H])C2([H])[H]

$$$$
60:0:0
     RDKit          3D

 99107  0  0  1  0  0  0  0  0999 V2000
  -29.2810  -22.6640   22.1520 C   0  0  0  0  0  3  0  0  0  0  0  0
  -27.2490  -21.8490   20.4240 C   0  0  0  0  0  3  0  0  0  0  0  0
  -28.9960  -21.2850   22.0210 C   0  0  0  0  0  0  0  0  0  0  0  0
  -28.0660  -20.8730   21.0260 C   0  0  0  0  0  0  0  0  0  0  0  0
  -27.4460  -23.2230   20.6540 C   0  0  0  0  0  0  0  0  0  0  0  0
  -28.5600  -23.6470   21.4440 C   0  0  0  0  0  0  0  0  0  0  0  0
  -26.4010  -24.1530   20.0440 C   0  0  0  0  0  1  0  0  0  0  0  0
  -29.6510  -20.3390   22.9640 C   0  0  0  0  0  3  0  0  0  0  0  0
  -30.4110  -20.6830   23.8660 O   0  0  0  0  0  0  0  0  0  0  0  0
  -27.9220  -19.4740   20.5280 C   0  0  0  0  0  0  0  0  0  0  0  0
  -26.8280  -18.9170   20.3990 O   0  0  0  0  0  0  0  0  0  0  0  0
  -29.2120  -18.7560   20.0900 C   0  0  0  0  0  2  0  0  0  0  0  0
  -30.2870  -19.7590   19.8090 N   0  0  0  0  0  4  0  0  0  0  0  0
  -30.2880  -20.3940   20.5930 H   0  0  0  0  0  0  0  0  0  0  0  0
  -30.0360  -20.3080   18.9960 H   0  0  0  0  0  0  0  0  0  0  0  0
  -31.6770  -19.2670   19.6110 C   0  0  0  0  0  2  0  0  0  0  0  0
  -31.9800  -17.9760   20.3760 C   0  0  0  0  0  2  0  0  0  0  0  0
  -33.0560  -17.0780   19.7670 C   0  0  0  0  0  2  0  0  0  0  0  0
  -33.3020  -14.6290   19.7950 C   0  0  0  0  0  0  0  0  0  0  0  0
  -32.5000  -12.6420   18.6220 C   0  0  0  0  0  2  0  0  0  0  0  0
  -31.5680  -13.1130   17.4820 C   0  0  0  0  0  2  0  0  0  0  0  0
  -30.1220  -13.3400   17.9640 C   0  0  0  0  0  2  0  0  0  0  0  0
  -30.0440  -14.1820   19.2620 C   0  0  0  0  0  3  0  0  0  0  0  0
  -31.0430  -13.6400   20.3110 C   0  0  0  0  0  2  0  0  0  0  0  0
  -32.3940  -13.6290   19.6990 N   0  0  0  0  0  0  0  0  0  0  0  0
  -34.4280  -14.6270   19.2980 O   0  0  0  0  0  0  0  0  0  0  0  0
  -32.7520  -15.7460   20.2430 N   0  0  0  0  0  0  0  0  0  0  0  0
  -31.8280  -15.6220   20.6390 H   0  0  0  0  0  0  0  0  0  0  0  0
  -27.8870  -15.3250   20.0970 C   0  0  0  0  0  0  0  0  0  0  0  0
  -26.6690  -14.8100   20.4610 C   0  0  0  0  0  0  0  0  0  0  0  0
  -26.7790  -13.3920   20.3240 C   0  0  0  0  0  0  0  0  0  0  0  0
  -28.6740  -14.2280   19.7740 N   0  0  0  0  0  0  0  0  0  0  0  0
  -28.0100  -13.0580   19.9690 N   0  0  0  0  0  0  0  0  0  0  0  0
  -25.7690  -12.3300   20.4500 C   0  0  0  0  0  0  0  0  0  0  0  0
  -25.9680  -11.2220   21.3000 C   0  0  0  0  0  3  0  0  0  0  0  0
  -24.9740  -10.2260   21.4240 C   0  0  0  0  0  3  0  0  0  0  0  0
  -23.7660  -10.3390   20.6990 C   0  0  0  0  0  0  0  0  0  0  0  0
  -23.5850  -11.4310   19.8310 C   0  0  0  0  0  3  0  0  0  0  0  0
  -24.5750  -12.4150   19.7030 C   0  0  0  0  0  3  0  0  0  0  0  0
  -22.7550   -9.4120   20.7400 O   0  0  0  0  0  0  0  0  0  0  0  0
  -22.5000   -8.6820   21.8750 C   0  0  0  0  0  0  0  0  0  0  0  0
  -22.2150   -9.2980   23.1120 C   0  0  0  0  0  3  0  0  0  0  0  0
  -21.8900   -8.5090   24.2360 C   0  0  0  0  0  3  0  0  0  0  0  0
  -21.8350   -7.1090   24.1180 C   0  0  0  0  0  0  0  0  0  0  0  0
  -22.1070   -6.4920   22.8830 C   0  0  0  0  0  3  0  0  0  0  0  0
  -22.4360   -7.2780   21.7660 C   0  0  0  0  0  0  0  0  0  0  0  0
  -22.6780   -6.6810   20.5750 F   0  0  0  0  0  0  0  0  0  0  0  0
  -21.5170   -6.3510   25.1930 F   0  0  0  0  0  0  0  0  0  0  0  0
  -25.4330  -15.5900   20.8130 C   0  0  0  0  0  0  0  0  0  0  0  0
  -24.5760  -15.0290   21.6640 N   0  0  0  0  0  0  0  0  0  0  0  0
  -25.2390  -16.7200   20.3700 O   0  0  0  0  0  0  0  0  0  0  0  0
  -24.7480  -14.1090   22.0380 H   0  0  0  0  0  0  0  0  0  0  0  0
  -23.7370  -15.5200   21.9430 H   0  0  0  0  0  0  0  0  0  0  0  0
  -28.3990  -16.6120   19.9850 N   0  0  0  0  0  0  0  0  0  0  0  0
  -27.8460  -17.4500   20.1150 H   0  0  0  0  0  0  0  0  0  0  0  0
  -29.2950  -16.7810   19.5410 H   0  0  0  0  0  0  0  0  0  0  0  0
  -29.0010  -25.1130   21.6320 C   0  0  0  0  0  2  0  0  0  0  0  0
  -28.8720  -25.9800   20.3480 C   0  0  0  0  0  2  0  0  0  0  0  0
  -29.2170  -27.3940   20.4080 O   0  0  0  0  0  0  0  0  0  0  0  0
  -24.8100  -32.0030   23.3940 C   0  0  0  0  0  0  0  0  0  0  0  0
  -28.0900  -28.1530   20.1720 C   0  0  0  0  0  0  0  0  0  0  0  0
  -23.8830  -30.6400   21.5730 C   0  0  0  0  0  3  0  0  0  0  0  0
  -25.5620  -29.3990   20.1070 C   0  0  0  0  0  0  0  0  0  0  0  0
  -26.3530  -31.2660   21.5770 C   0  0  0  0  0  2  0  0  0  0  0  0
  -26.6190  -29.9860   20.8170 C   0  0  0  0  0  0  0  0  0  0  0  0
  -27.8920  -29.3750   20.8460 C   0  0  0  0  0  3  0  0  0  0  0  0
  -27.0390  -27.6140   19.3950 C   0  0  0  0  0  3  0  0  0  0  0  0
  -25.7690  -28.2130   19.3850 C   0  0  0  0  0  3  0  0  0  0  0  0
  -24.2260  -30.0990   20.1560 C   0  0  0  0  0  2  0  0  0  0  0  0
  -25.0290  -31.3190   22.2380 N   0  0  0  0  0  0  0  0  0  0  0  0
  -23.6660  -32.1210   23.8630 O   0  0  0  0  0  0  0  0  0  0  0  0
  -23.2830  -29.4900   22.4140 C   0  0  0  0  0  0  0  0  0  0  0  0
  -21.9790  -29.3300   22.2270 N   0  0  0  0  0  0  0  0  0  0  0  0
  -23.9720  -28.7750   23.1420 O   0  0  0  0  0  0  0  0  0  0  0  0
  -21.5400  -30.0650   21.6870 H   0  0  0  0  0  0  0  0  0  0  0  0
  -18.6440  -27.6780   22.5670 C   0  0  0  0  0  0  0  0  0  0  0  0
  -21.0930  -28.2190   22.4790 C   0  0  0  0  0  3  0  0  0  0  0  0
  -21.4100  -26.7940   22.0080 C   0  0  0  0  0  2  0  0  0  0  0  0
  -20.2860  -26.3390   21.0500 C   0  0  0  0  0  2  0  0  0  0  0  0
  -18.8890  -26.4340   21.7080 C   0  0  0  0  0  2  0  0  0  0  0  0
  -19.7150  -28.4740   23.0330 C   0  0  0  0  0  0  0  0  0  0  0  0
  -19.4610  -29.6090   23.8330 C   0  0  0  0  0  3  0  0  0  0  0  0
  -18.1360  -29.9680   24.1350 C   0  0  0  0  0  3  0  0  0  0  0  0
  -17.0660  -29.1950   23.6430 C   0  0  0  0  0  3  0  0  0  0  0  0
  -17.3230  -28.0450   22.8770 C   0  0  0  0  0  3  0  0  0  0  0  0
  -25.9780  -32.7000   24.1540 C   0  0  0  0  0  3  0  0  0  0  0  0
  -26.3010  -32.0280   25.5420 C   0  0  1  0  0  0  0  0  0  0  0  0
  -25.0580  -31.8240   26.4370 C   0  0  0  0  0  1  0  0  0  0  0  0
  -26.9740  -30.6510   25.3420 C   0  0  0  0  0  1  0  0  0  0  0  0
  -27.3140  -32.9030   26.3120 C   0  0  0  0  0  1  0  0  0  0  0  0
  -25.6010  -34.1090   24.3170 N   0  0  0  0  0  0  0  0  0  0  0  0
  -26.0150  -35.1030   23.5160 C   0  0  0  0  0  0  0  0  0  0  0  0
  -26.8210  -34.9300   22.5970 O   0  0  0  0  0  0  0  0  0  0  0  0
  -24.9140  -34.3150   25.0260 H   0  0  0  0  0  0  0  0  0  0  0  0
  -24.3230  -36.8080   22.7900 C   0  0  0  0  0  1  0  0  0  0  0  0
  -25.4520  -36.5120   23.7890 C   0  0  0  0  0  3  0  0  0  0  0  0
  -27.4580  -37.5050   24.7980 C   0  0  0  0  0  1  0  0  0  0  0  0
  -26.4790  -37.5760   23.7170 N   0  0  0  0  0  0  0  0  0  0  0  0
  -26.0470  -38.4970   23.7330 H   0  0  0  0  0  0  0  0  0  0  0  0
  2  5  2  0
  2  4  1  0
  3  1  1  0
  3  8  1  0
  4  3  2  0
  5  6  1  0
  6 57  1  0
  6  1  2  0
  7  5  1  0
  8  9  2  0
 10  4  1  0
 11 10  2  0
 12 10  1  0
 13 12  1  0
 13 14  1  0
 15 13  1  0
 16 13  1  0
 16 17  1  0
 18 27  1  0
 18 17  1  0
 19 27  1  0
 20 25  1  0
 21 22  1  0
 21 20  1  0
 23 22  1  0
 23 32  1  0
 23 24  1  0
 25 19  1  0
 25 24  1  0
 26 19  2  0
 27 28  1  0
 29 30  2  0
 30 49  1  0
 31 34  1  0
 31 30  1  0
 32 33  1  0
 32 29  1  0
 33 31  2  0
 34 35  1  0
 35 36  2  0
 37 40  1  0
 37 36  1  0
 38 37  2  0
 39 38  1  0
 39 34  2  0
 40 41  1  0
 41 42  1  0
 42 43  2  0
 44 43  1  0
 44 48  1  0
 45 44  2  0
 46 41  2  0
 46 45  1  0
 47 46  1  0
 49 50  1  0
 50 53  1  0
 50 52  1  0
 51 49  2  0
 54 29  1  0
 54 55  1  0
 56 54  1  0
 58 59  1  0
 58 57  1  0
 60 71  2  0
 61 59  1  0
 61 66  1  0
 62 70  1  0
 62 72  1  0
 63 69  1  0
 63 65  1  0
 64 70  1  0
 65 66  2  0
 65 64  1  0
 67 61  2  0
 68 67  1  0
 68 63  2  0
 69 62  1  0
 70 60  1  0
 72 74  2  0
 73 72  1  0
 75 73  1  0
 76 85  2  0
 76 81  1  0
 77 73  1  0
 77 81  1  0
 78 77  1  0
 79 80  1  0
 79 78  1  0
 80 76  1  0
 81 82  2  0
 82 83  1  0
 84 83  2  0
 85 84  1  0
 86 60  1  0
 86 91  1  0
 86 87  1  0
 87 90  1  1
 87 88  1  0
 89 87  1  0
 91 94  1  0
 92 96  1  0
 92 91  1  0
 93 92  2  0
 96 95  1  0
 98 99  1  0
 98 96  1  0
 98 97  1  0
M  ISO  4  19 100  27 100  58 101  59 101
M  END
>  <TORSDO>  (59) 
F 25

>  <SCORE>  (59) 
-5.784

>  <name>  (59) 
60

>  <ligand_id>  (59) 
60

>  <original_smiles>  (59) 
[H]C(=O)c1c([H])c(C([H])([H])C([H])([H])Oc2c([H])c([H])c3c(c2[H])C([H])([H])N(C(=O)C([H])(N([H])C(=O)C([H])(N([H])C([H])([H])[H])C([H])([H])[H])C(C([H])([H])[H])(C([H])([H])[H])C([H])([H])[H])C([H])(C(=O)N([H])C2([H])c4c([H])c([H])c([H])c([H])c4C([H])([H])C([H])([H])C2([H])[H])C3([H])[H])c(C([H])([H])[H])c([H])c1C(=O)C([H])([H])[N+]([H])([H])C([H])([H])C([H])([H])C([H])([H])N([H])C(=O)N1C([H])([H])C([H])([H])C([H])([H])C([H])(n2nc(-c3c([H])c([H])c(Oc4c([H])c([H])c(F)c([H])c4F)c([H])c3[H])c(C(=O)N([H])[H])c2N([H])[H])C1([H])[H]

>  <smiles>  (59) 
[H]C(=O)c1c([H])c(C([H])([H])C([H])([H])Oc2c([H])c([H])c3c(c2[H])C([H])([H])N(C(=O)C([H])(N([H])C(=O)C([H])(N([H])C([H])([H])[H])C([H])([H])[H])C(C([H])([H])[H])(C([H])([H])[H])C([H])([H])[H])C([H])(C(=O)N([H])C2([H])c4c([H])c([H])c([H])c([H])c4C([H])([H])C([H])([H])C2([H])[H])C3([H])[H])c(C([H])([H])[H])c([H])c1C(=O)C([H])([H])[N+]([H])([H])C([H])([H])C([H])([H])C([H])([H])N([H])C(=O)N1C([H])([H])C([H])([H])C([H])([H])C([H])(n2nc(-c3c([H])c([H])c(Oc4c([H])c([H])c(F)c([H])c4F)c([H])c3[H])c(C(=O)N([H])[H])c2N([H])[H])C1([H])[H]

$$$$
61:0:0
     RDKit          3D

 98106  0  0  1  0  0  0  0  0999 V2000
  -28.6360  -22.7110   22.0220 C   0  0  0  0  0  3  0  0  0  0  0  0
  -28.5200  -21.3610   21.6540 C   0  0  0  0  0  3  0  0  0  0  0  0
  -27.5790  -22.0460   19.5180 C   0  0  0  0  0  3  0  0  0  0  0  0
  -28.2550  -23.7370   21.1340 C   0  0  0  0  0  0  0  0  0  0  0  0
  -28.0450  -21.0140   20.3690 C   0  0  0  0  0  0  0  0  0  0  0  0
  -27.6490  -23.3980   19.8980 C   0  0  0  0  0  0  0  0  0  0  0  0
  -26.5940  -19.1140   19.5410 C   0  0  0  0  0  1  0  0  0  0  0  0
  -28.0290  -19.5650   19.8660 C   0  0  0  0  0  3  0  0  0  0  0  0
  -28.6740  -18.5780   20.7710 N   0  0  0  0  0  4  0  0  0  0  0  0
  -28.5360  -18.8600   21.7290 H   0  0  0  0  0  0  0  0  0  0  0  0
  -28.1600  -17.7230   20.6380 H   0  0  0  0  0  0  0  0  0  0  0  0
  -30.1000  -18.2350   20.5300 C   0  0  0  0  0  2  0  0  0  0  0  0
  -30.4670  -16.9660   21.3290 C   0  0  0  0  0  2  0  0  0  0  0  0
  -31.8090  -16.2960   20.9680 C   0  0  0  0  0  2  0  0  0  0  0  0
  -32.3180  -13.8670   20.8420 C   0  0  0  0  0  0  0  0  0  0  0  0
  -31.8510  -11.6030   19.9830 C   0  0  0  0  0  2  0  0  0  0  0  0
  -31.0070  -11.6870   18.6960 C   0  0  0  0  0  2  0  0  0  0  0  0
  -29.5050  -11.8060   19.0120 C   0  0  0  0  0  2  0  0  0  0  0  0
  -29.2090  -12.9020   20.0640 C   0  0  0  0  0  3  0  0  0  0  0  0
  -30.1240  -12.7160   21.2930 C   0  0  0  0  0  2  0  0  0  0  0  0
  -31.5310  -12.7610   20.8380 N   0  0  0  0  0  0  0  0  0  0  0  0
  -33.4120  -13.9390   20.2710 O   0  0  0  0  0  0  0  0  0  0  0  0
  -31.7590  -14.9170   21.4480 N   0  0  0  0  0  0  0  0  0  0  0  0
  -30.9590  -14.6900   22.0230 H   0  0  0  0  0  0  0  0  0  0  0  0
  -26.9310  -13.9790   20.6040 C   0  0  0  0  0  0  0  0  0  0  0  0
  -25.7090  -13.4360   20.8860 C   0  0  0  0  0  0  0  0  0  0  0  0
  -25.8940  -12.0180   20.8640 C   0  0  0  0  0  0  0  0  0  0  0  0
  -27.7970  -12.9080   20.4400 N   0  0  0  0  0  0  0  0  0  0  0  0
  -27.1660  -11.7230   20.6420 N   0  0  0  0  0  0  0  0  0  0  0  0
  -24.9210  -10.9250   20.9850 C   0  0  0  0  0  0  0  0  0  0  0  0
  -25.1160   -9.8640   21.8990 C   0  0  0  0  0  3  0  0  0  0  0  0
  -24.1630   -8.8300   22.0080 C   0  0  0  0  0  3  0  0  0  0  0  0
  -22.9980   -8.8490   21.2040 C   0  0  0  0  0  0  0  0  0  0  0  0
  -22.8200   -9.8970   20.2820 C   0  0  0  0  0  3  0  0  0  0  0  0
  -23.7720  -10.9230   20.1710 C   0  0  0  0  0  3  0  0  0  0  0  0
  -22.0300   -7.8750   21.2240 O   0  0  0  0  0  0  0  0  0  0  0  0
  -21.7910   -7.1200   22.3450 C   0  0  0  0  0  0  0  0  0  0  0  0
  -21.4800   -7.7110   23.5890 C   0  0  0  0  0  3  0  0  0  0  0  0
  -21.1710   -6.8980   24.6980 C   0  0  0  0  0  3  0  0  0  0  0  0
  -21.1660   -5.4970   24.5660 C   0  0  0  0  0  0  0  0  0  0  0  0
  -21.4720   -4.9070   23.3270 C   0  0  0  0  0  3  0  0  0  0  0  0
  -21.7810   -5.7160   22.2190 C   0  0  0  0  0  0  0  0  0  0  0  0
  -22.0510   -5.1410   21.0220 F   0  0  0  0  0  0  0  0  0  0  0  0
  -20.8630   -4.7160   25.6290 F   0  0  0  0  0  0  0  0  0  0  0  0
  -24.4160  -14.1790   21.0710 C   0  0  0  0  0  0  0  0  0  0  0  0
  -23.5230  -13.6570   21.9030 N   0  0  0  0  0  0  0  0  0  0  0  0
  -24.2120  -15.2560   20.5120 O   0  0  0  0  0  0  0  0  0  0  0  0
  -23.6990  -12.7830   22.3770 H   0  0  0  0  0  0  0  0  0  0  0  0
  -22.6510  -14.1390   22.0640 H   0  0  0  0  0  0  0  0  0  0  0  0
  -27.3800  -15.2900   20.4480 N   0  0  0  0  0  0  0  0  0  0  0  0
  -26.7070  -16.0430   20.3470 H   0  0  0  0  0  0  0  0  0  0  0  0
  -28.2710  -15.4960   20.0160 H   0  0  0  0  0  0  0  0  0  0  0  0
  -28.5670  -25.1300   21.5230 C   0  0  0  0  0  0  0  0  0  0  0  0
  -28.1560  -25.6690   22.5550 O   0  0  0  0  0  0  0  0  0  0  0  0
  -29.5470  -25.8420   20.5780 C   0  0  0  0  0  2  0  0  0  0  0  0
  -29.4720  -27.2570   20.7480 O   0  0  0  0  0  0  0  0  0  0  0  0
  -24.8570  -31.8990   23.4700 C   0  0  0  0  0  0  0  0  0  0  0  0
  -28.2280  -27.8280   20.6250 C   0  0  0  0  0  0  0  0  0  0  0  0
  -23.9800  -30.4610   21.6580 C   0  0  0  0  0  3  0  0  0  0  0  0
  -25.7190  -29.0900   20.3980 C   0  0  0  0  0  0  0  0  0  0  0  0
  -26.4720  -31.0290   21.7890 C   0  0  0  0  0  2  0  0  0  0  0  0
  -26.7450  -29.6960   21.1330 C   0  0  0  0  0  0  0  0  0  0  0  0
  -28.0000  -29.0710   21.2440 C   0  0  0  0  0  3  0  0  0  0  0  0
  -27.1860  -27.2280   19.8830 C   0  0  0  0  0  3  0  0  0  0  0  0
  -25.9320  -27.8500   19.7740 C   0  0  0  0  0  3  0  0  0  0  0  0
  -24.4070  -29.8360   20.3060 C   0  0  0  0  0  2  0  0  0  0  0  0
  -25.1110  -31.1440   22.3650 N   0  0  0  0  0  0  0  0  0  0  0  0
  -23.7010  -32.0670   23.8780 O   0  0  0  0  0  0  0  0  0  0  0  0
  -23.3020  -29.3690   22.5110 C   0  0  0  0  0  0  0  0  0  0  0  0
  -22.0050  -29.1360   22.2620 N   0  0  0  0  0  0  0  0  0  0  0  0
  -23.9430  -28.7310   23.3480 O   0  0  0  0  0  0  0  0  0  0  0  0
  -21.5580  -29.6860   21.5410 H   0  0  0  0  0  0  0  0  0  0  0  0
  -18.6390  -27.8630   22.4970 C   0  0  0  0  0  0  0  0  0  0  0  0
  -21.1750  -28.1300   22.9180 C   0  0  0  0  0  3  0  0  0  0  0  0
  -21.3210  -26.7540   22.2280 C   0  0  0  0  0  2  0  0  0  0  0  0
  -20.2850  -26.5310   21.1270 C   0  0  0  0  0  2  0  0  0  0  0  0
  -18.8740  -26.5840   21.7130 C   0  0  0  0  0  2  0  0  0  0  0  0
  -19.7230  -28.5990   23.0500 C   0  0  0  0  0  0  0  0  0  0  0  0
  -19.4540  -29.7970   23.7460 C   0  0  0  0  0  3  0  0  0  0  0  0
  -18.1300  -30.2570   23.8940 C   0  0  0  0  0  3  0  0  0  0  0  0
  -17.0610  -29.5220   23.3500 C   0  0  0  0  0  3  0  0  0  0  0  0
  -17.3170  -28.3280   22.6530 C   0  0  0  0  0  3  0  0  0  0  0  0
  -26.0040  -32.6070   24.2600 C   0  0  0  0  0  3  0  0  0  0  0  0
  -25.5830  -33.9930   24.5010 N   0  0  0  0  0  0  0  0  0  0  0  0
  -25.9500  -35.0380   23.7440 C   0  0  0  0  0  0  0  0  0  0  0  0
  -26.7460  -34.9420   22.8060 O   0  0  0  0  0  0  0  0  0  0  0  0
  -24.8880  -34.1400   25.2170 H   0  0  0  0  0  0  0  0  0  0  0  0
  -24.1620  -36.6980   23.1360 C   0  0  0  0  0  1  0  0  0  0  0  0
  -25.3330  -36.4070   24.0870 C   0  0  0  0  0  3  0  0  0  0  0  0
  -27.3310  -37.4410   25.0690 C   0  0  0  0  0  1  0  0  0  0  0  0
  -26.3040  -37.5210   24.0330 N   0  0  0  0  0  0  0  0  0  0  0  0
  -25.8330  -38.4160   24.1230 H   0  0  0  0  0  0  0  0  0  0  0  0
  -26.3630  -31.8870   25.6200 C   0  0  1  0  0  0  0  0  0  0  0  0
  -25.1310  -31.5590   26.4960 C   0  0  0  0  0  1  0  0  0  0  0  0
  -27.1210  -30.5650   25.3540 C   0  0  0  0  0  1  0  0  0  0  0  0
  -27.3110  -32.7830   26.4530 C   0  0  0  0  0  1  0  0  0  0  0  0
  -27.1370  -24.3320   19.0330 O   0  0  0  0  0  0  0  0  0  0  0  0
  -26.8860  -25.1680   19.4150 H   0  0  0  0  0  0  0  0  0  0  0  0
  2  1  1  0
  3  6  2  0
  3  5  1  0
  4 53  1  0
  4  1  2  0
  5  2  2  0
  6  4  1  0
  8  7  1  0
  8  5  1  0
  8  9  1  0
  9 10  1  0
 11  9  1  0
 12  9  1  0
 12 13  1  0
 14 13  1  0
 14 23  1  0
 15 23  1  0
 16 21  1  0
 17 18  1  0
 17 16  1  0
 19 18  1  0
 19 28  1  0
 19 20  1  0
 21 15  1  0
 21 20  1  0
 22 15  2  0
 23 24  1  0
 25 26  2  0
 26 45  1  0
 27 26  1  0
 27 30  1  0
 28 25  1  0
 28 29  1  0
 29 27  2  0
 30 31  1  0
 31 32  2  0
 33 36  1  0
 33 32  1  0
 34 33  2  0
 35 34  1  0
 35 30  2  0
 36 37  1  0
 37 38  1  0
 38 39  2  0
 40 39  1  0
 40 44  1  0
 41 40  2  0
 42 37  2  0
 42 41  1  0
 43 42  1  0
 45 46  1  0
 46 49  1  0
 46 48  1  0
 47 45  2  0
 50 25  1  0
 51 50  1  0
 52 50  1  0
 53 54  2  0
 55 56  1  0
 55 53  1  0
 57 68  2  0
 58 56  1  0
 58 63  1  0
 59 67  1  0
 59 69  1  0
 60 62  1  0
 61 67  1  0
 62 63  2  0
 62 61  1  0
 64 58  2  0
 65 64  1  0
 65 60  2  0
 66 60  1  0
 66 59  1  0
 67 57  1  0
 69 71  2  0
 70 69  1  0
 72 70  1  0
 73 82  2  0
 73 78  1  0
 74 70  1  0
 74 78  1  0
 75 74  1  0
 76 77  1  0
 76 75  1  0
 77 73  1  0
 78 79  2  0
 79 80  1  0
 81 80  2  0
 82 81  1  0
 83 57  1  0
 83 84  1  0
 83 93  1  0
 84 87  1  0
 85 89  1  0
 85 84  1  0
 86 85  2  0
 89 88  1  0
 91 89  1  0
 91 92  1  0
 91 90  1  0
 93 96  1  1
 93 94  1  0
 95 93  1  0
 97 98  1  0
 97  6  1  0
M  ISO  4  15 100  23 100  55 101  56 101
M  END
>  <TORSDO>  (60) 
F 24

>  <SCORE>  (60) 
-11.119

>  <name>  (60) 
61

>  <ligand_id>  (60) 
61

>  <original_smiles>  (60) 
[H]Oc1c([H])c(C([H])(C([H])([H])[H])[N+]([H])([H])C([H])([H])C([H])([H])C([H])([H])N([H])C(=O)N2C([H])([H])C([H])([H])C([H])([H])C([H])(n3nc(-c4c([H])c([H])c(Oc5c([H])c([H])c(F)c([H])c5F)c([H])c4[H])c(C(=O)N([H])[H])c3N([H])[H])C2([H])[H])c([H])c([H])c1C(=O)C([H])([H])Oc1c([H])c([H])c2c(c1[H])C([H])([H])N(C(=O)C([H])(N([H])C(=O)C([H])(N([H])C([H])([H])[H])C([H])([H])[H])C(C([H])([H])[H])(C([H])([H])[H])C([H])([H])[H])C([H])(C(=O)N([H])C1([H])c3c([H])c([H])c([H])c([H])c3C([H])([H])C([H])([H])C1([H])[H])C2([H])[H]

>  <smiles>  (60) 
[H]Oc1c([H])c(C([H])(C([H])([H])[H])[N+]([H])([H])C([H])([H])C([H])([H])C([H])([H])N([H])C(=O)N2C([H])([H])C([H])([H])C([H])([H])C([H])(n3nc(-c4c([H])c([H])c(Oc5c([H])c([H])c(F)c([H])c5F)c([H])c4[H])c(C(=O)N([H])[H])c3N([H])[H])C2([H])[H])c([H])c([H])c1C(=O)C([H])([H])Oc1c([H])c([H])c2c(c1[H])C([H])([H])N(C(=O)C([H])(N([H])C(=O)C([H])(N([H])C([H])([H])[H])C([H])([H])[H])C(C([H])([H])[H])(C([H])([H])[H])C([H])([H])[H])C([H])(C(=O)N([H])C1([H])c3c([H])c([H])c([H])c([H])c3C([H])([H])C([H])([H])C1([H])[H])C2([H])[H]

$$$$
62:0:0
     RDKit          3D

 95103  0  0  1  0  0  0  0  0999 V2000
  -29.8670  -22.8510   21.0430 C   0  0  0  0  0  3  0  0  0  0  0  0
  -30.3430  -21.5550   21.3480 C   0  0  0  0  0  3  0  0  0  0  0  0
  -30.9850  -22.7460   18.8880 C   0  0  0  0  0  3  0  0  0  0  0  0
  -30.1950  -23.4630   19.8130 C   0  0  0  0  0  0  0  0  0  0  0  0
  -31.1480  -20.8370   20.4300 C   0  0  0  0  0  0  0  0  0  0  0  0
  -31.4480  -21.4460   19.1820 C   0  0  0  0  0  0  0  0  0  0  0  0
  -32.2220  -20.8030   18.2590 O   0  0  0  0  0  0  0  0  0  0  0  0
  -32.3660  -21.3050   17.4630 H   0  0  0  0  0  0  0  0  0  0  0  0
  -33.1770  -19.7270   21.4150 C   0  0  0  0  0  1  0  0  0  0  0  0
  -31.7860  -19.4830   20.8060 C   0  0  0  0  0  3  0  0  0  0  0  0
  -30.9640  -18.5580   21.7440 C   0  0  0  0  0  2  0  0  0  0  0  0
  -29.6720  -17.9700   21.1470 C   0  0  0  0  0  2  0  0  0  0  0  0
  -29.8880  -16.7860   20.1790 C   0  0  0  0  0  2  0  0  0  0  0  0
  -30.6940  -14.4490   20.3430 C   0  0  0  0  0  0  0  0  0  0  0  0
  -30.3740  -12.3010   19.1920 C   0  0  0  0  0  2  0  0  0  0  0  0
  -29.4310  -12.5540   17.9970 C   0  0  0  0  0  2  0  0  0  0  0  0
  -27.9560  -12.4360   18.4290 C   0  0  0  0  0  2  0  0  0  0  0  0
  -27.6430  -13.2510   19.7120 C   0  0  0  0  0  3  0  0  0  0  0  0
  -28.7000  -12.9770   20.8090 C   0  0  0  0  0  2  0  0  0  0  0  0
  -30.0310  -13.2650   20.2480 N   0  0  0  0  0  0  0  0  0  0  0  0
  -31.8000  -14.6530   19.8330 O   0  0  0  0  0  0  0  0  0  0  0  0
  -29.9510  -15.4640   20.8190 N   0  0  0  0  0  0  0  0  0  0  0  0
  -29.1270  -15.1770   21.3240 H   0  0  0  0  0  0  0  0  0  0  0  0
  -25.2460  -13.8830   20.4050 C   0  0  0  0  0  0  0  0  0  0  0  0
  -24.1750  -13.1220   20.7870 C   0  0  0  0  0  0  0  0  0  0  0  0
  -24.6300  -11.7680   20.7770 C   0  0  0  0  0  0  0  0  0  0  0  0
  -26.2880  -12.9950   20.1900 N   0  0  0  0  0  0  0  0  0  0  0  0
  -25.9190  -11.7170   20.4670 N   0  0  0  0  0  0  0  0  0  0  0  0
  -23.8990  -10.5110   20.9850 C   0  0  0  0  0  0  0  0  0  0  0  0
  -24.3410   -9.5450   21.9160 C   0  0  0  0  0  3  0  0  0  0  0  0
  -23.6100   -8.3530   22.1100 C   0  0  0  0  0  3  0  0  0  0  0  0
  -22.4260   -8.1170   21.3740 C   0  0  0  0  0  0  0  0  0  0  0  0
  -22.0050   -9.0720   20.4320 C   0  0  0  0  0  3  0  0  0  0  0  0
  -22.7350  -10.2550   20.2350 C   0  0  0  0  0  3  0  0  0  0  0  0
  -21.6650   -6.9770   21.4800 O   0  0  0  0  0  0  0  0  0  0  0  0
  -21.6390   -6.2330   22.6320 C   0  0  0  0  0  0  0  0  0  0  0  0
  -21.2590   -6.7930   23.8720 C   0  0  0  0  0  3  0  0  0  0  0  0
  -21.1800   -5.9760   25.0170 C   0  0  0  0  0  3  0  0  0  0  0  0
  -21.4690   -4.6010   24.9240 C   0  0  0  0  0  0  0  0  0  0  0  0
  -21.8400   -4.0410   23.6890 C   0  0  0  0  0  3  0  0  0  0  0  0
  -21.9220   -4.8550   22.5460 C   0  0  0  0  0  0  0  0  0  0  0  0
  -22.2590   -4.3060   21.3530 F   0  0  0  0  0  0  0  0  0  0  0  0
  -21.3850   -3.8140   26.0220 F   0  0  0  0  0  0  0  0  0  0  0  0
  -22.7800  -13.6090   21.0580 C   0  0  0  0  0  0  0  0  0  0  0  0
  -22.0540  -12.9260   21.9370 N   0  0  0  0  0  0  0  0  0  0  0  0
  -22.3420  -14.6250   20.5240 O   0  0  0  0  0  0  0  0  0  0  0  0
  -22.4250  -12.1000   22.3850 H   0  0  0  0  0  0  0  0  0  0  0  0
  -21.1180  -13.2300   22.1640 H   0  0  0  0  0  0  0  0  0  0  0  0
  -25.4200  -15.2510   20.2060 N   0  0  0  0  0  0  0  0  0  0  0  0
  -24.6590  -15.9160   20.2840 H   0  0  0  0  0  0  0  0  0  0  0  0
  -26.2770  -15.6700   19.8690 H   0  0  0  0  0  0  0  0  0  0  0  0
  -29.8350  -24.8820   19.5170 C   0  0  0  0  0  0  0  0  0  0  0  0
  -30.6250  -25.6540   18.9600 O   0  0  0  0  0  0  0  0  0  0  0  0
  -28.4100  -25.3610   19.8400 C   0  0  0  0  0  2  0  0  0  0  0  0
  -28.4110  -26.7670   20.1340 O   0  0  0  0  0  0  0  0  0  0  0  0
  -24.5800  -31.8990   23.2450 C   0  0  0  0  0  0  0  0  0  0  0  0
  -27.2080  -27.4450   20.1560 C   0  0  0  0  0  0  0  0  0  0  0  0
  -23.3650  -30.4940   21.6120 C   0  0  0  0  0  3  0  0  0  0  0  0
  -24.8080  -28.9490   20.1890 C   0  0  0  0  0  0  0  0  0  0  0  0
  -25.8890  -30.8490   21.3990 C   0  0  0  0  0  2  0  0  0  0  0  0
  -25.9700  -29.4750   20.7640 C   0  0  0  0  0  0  0  0  0  0  0  0
  -27.1710  -28.7300   20.7440 C   0  0  0  0  0  3  0  0  0  0  0  0
  -26.0170  -26.9250   19.5940 C   0  0  0  0  0  3  0  0  0  0  0  0
  -24.8250  -27.6710   19.6080 C   0  0  0  0  0  3  0  0  0  0  0  0
  -23.5670  -29.8100   20.2350 C   0  0  0  0  0  2  0  0  0  0  0  0
  -24.6310  -31.0950   22.1440 N   0  0  0  0  0  0  0  0  0  0  0  0
  -23.5020  -32.1720   23.7890 O   0  0  0  0  0  0  0  0  0  0  0  0
  -22.7200  -29.4740   22.5770 C   0  0  0  0  0  0  0  0  0  0  0  0
  -21.3970  -29.2880   22.4530 N   0  0  0  0  0  0  0  0  0  0  0  0
  -23.4070  -28.8530   23.3930 O   0  0  0  0  0  0  0  0  0  0  0  0
  -20.9030  -29.8420   21.7670 H   0  0  0  0  0  0  0  0  0  0  0  0
  -18.0270  -28.0840   22.9520 C   0  0  0  0  0  0  0  0  0  0  0  0
  -20.5830  -28.3520   23.2280 C   0  0  0  0  0  3  0  0  0  0  0  0
  -20.6920  -26.9170   22.6610 C   0  0  0  0  0  2  0  0  0  0  0  0
  -19.5930  -26.5840   21.6460 C   0  0  0  0  0  2  0  0  0  0  0  0
  -18.2100  -26.7310   22.2860 C   0  0  0  0  0  2  0  0  0  0  0  0
  -19.1430  -28.8520   23.3800 C   0  0  0  0  0  0  0  0  0  0  0  0
  -18.9190  -30.1200   23.9600 C   0  0  0  0  0  3  0  0  0  0  0  0
  -17.6120  -30.6180   24.1180 C   0  0  0  0  0  3  0  0  0  0  0  0
  -16.5110  -29.8470   23.7070 C   0  0  0  0  0  3  0  0  0  0  0  0
  -16.7200  -28.5820   23.1300 C   0  0  0  0  0  3  0  0  0  0  0  0
  -25.8710  -32.5320   23.8550 C   0  0  0  0  0  3  0  0  0  0  0  0
  -25.5650  -33.9310   24.1790 N   0  0  0  0  0  0  0  0  0  0  0  0
  -25.9010  -34.9790   23.4160 C   0  0  0  0  0  0  0  0  0  0  0  0
  -26.5730  -34.8710   22.3860 O   0  0  0  0  0  0  0  0  0  0  0  0
  -24.9700  -34.0900   24.9790 H   0  0  0  0  0  0  0  0  0  0  0  0
  -24.1790  -36.7730   23.0470 C   0  0  0  0  0  1  0  0  0  0  0  0
  -25.4150  -36.3690   23.8680 C   0  0  0  0  0  3  0  0  0  0  0  0
  -27.5510  -37.2460   24.7030 C   0  0  0  0  0  1  0  0  0  0  0  0
  -26.4490  -37.4210   23.7600 N   0  0  0  0  0  0  0  0  0  0  0  0
  -26.0450  -38.3410   23.9120 H   0  0  0  0  0  0  0  0  0  0  0  0
  -26.3950  -31.7640   25.1290 C   0  0  1  0  0  0  0  0  0  0  0  0
  -25.3090  -31.5310   26.2050 C   0  0  0  0  0  1  0  0  0  0  0  0
  -26.9740  -30.3860   24.7350 C   0  0  0  0  0  1  0  0  0  0  0  0
  -27.5510  -32.5600   25.7800 C   0  0  0  0  0  1  0  0  0  0  0  0
  1  2  1  0
  3  6  2  0
  3  4  1  0
  4  1  2  0
  5 10  1  0
  5  2  2  0
  6  5  1  0
  7  6  1  0
  8  7  1  0
 10  9  1  0
 10 11  1  0
 12 11  1  0
 13 22  1  0
 13 12  1  0
 14 22  1  0
 15 20  1  0
 16 17  1  0
 16 15  1  0
 18 17  1  0
 18 27  1  0
 18 19  1  0
 20 14  1  0
 20 19  1  0
 21 14  2  0
 22 23  1  0
 24 25  2  0
 25 44  1  0
 26 25  1  0
 26 29  1  0
 27 24  1  0
 27 28  1  0
 28 26  2  0
 29 30  1  0
 30 31  2  0
 32 35  1  0
 32 31  1  0
 33 32  2  0
 34 33  1  0
 34 29  2  0
 35 36  1  0
 36 37  1  0
 37 38  2  0
 39 38  1  0
 39 43  1  0
 40 39  2  0
 41 36  2  0
 41 40  1  0
 42 41  1  0
 44 45  1  0
 45 48  1  0
 45 47  1  0
 46 44  2  0
 49 50  1  0
 49 24  1  0
 51 49  1  0
 52  4  1  0
 52 54  1  0
 53 52  2  0
 54 55  1  0
 55 57  1  0
 56 67  2  0
 57 62  1  0
 58 66  1  0
 58 68  1  0
 59 65  1  0
 59 61  1  0
 60 66  1  0
 61 60  1  0
 62 61  2  0
 63 64  1  0
 63 57  2  0
 64 59  2  0
 65 58  1  0
 66 56  1  0
 68 70  2  0
 69 68  1  0
 71 69  1  0
 72 81  2  0
 72 77  1  0
 73 69  1  0
 73 77  1  0
 74 73  1  0
 75 76  1  0
 75 74  1  0
 76 72  1  0
 77 78  2  0
 78 79  1  0
 80 79  2  0
 81 80  1  0
 82 56  1  0
 82 83  1  0
 82 92  1  0
 83 86  1  0
 84 88  1  0
 84 83  1  0
 85 84  2  0
 88 87  1  0
 90 88  1  0
 90 91  1  0
 90 89  1  0
 92 95  1  1
 92 93  1  0
 94 92  1  0
M  ISO  4  14 100  22 100  54 101  55 101
M  END
>  <TORSDO>  (61) 
F 23

>  <SCORE>  (61) 
-13.055

>  <name>  (61) 
62

>  <ligand_id>  (61) 
62

>  <original_smiles>  (61) 
[H]Oc1c([H])c(C(=O)C([H])([H])Oc2c([H])c([H])c3c(c2[H])C([H])([H])N(C(=O)C([H])(N([H])C(=O)C([H])(N([H])C([H])([H])[H])C([H])([H])[H])C(C([H])([H])[H])(C([H])([H])[H])C([H])([H])[H])C([H])(C(=O)N([H])C2([H])c4c([H])c([H])c([H])c([H])c4C([H])([H])C([H])([H])C2([H])[H])C3([H])[H])c([H])c([H])c1C([H])(C([H])([H])[H])C([H])([H])C([H])([H])C([H])([H])N([H])C(=O)N1C([H])([H])C([H])([H])C([H])([H])C([H])(n2nc(-c3c([H])c([H])c(Oc4c([H])c([H])c(F)c([H])c4F)c([H])c3[H])c(C(=O)N([H])[H])c2N([H])[H])C1([H])[H]

>  <smiles>  (61) 
[H]Oc1c([H])c(C(=O)C([H])([H])Oc2c([H])c([H])c3c(c2[H])C([H])([H])N(C(=O)C([H])(N([H])C(=O)C([H])(N([H])C([H])([H])[H])C([H])([H])[H])C(C([H])([H])[H])(C([H])([H])[H])C([H])([H])[H])C([H])(C(=O)N([H])C2([H])c4c([H])c([H])c([H])c([H])c4C([H])([H])C([H])([H])C2([H])[H])C3([H])[H])c([H])c([H])c1C([H])(C([H])([H])[H])C([H])([H])C([H])([H])C([H])([H])N([H])C(=O)N1C([H])([H])C([H])([H])C([H])([H])C([H])(n2nc(-c3c([H])c([H])c(Oc4c([H])c([H])c(F)c([H])c4F)c([H])c3[H])c(C(=O)N([H])[H])c2N([H])[H])C1([H])[H]

$$$$
63:0:0
     RDKit          3D

 98106  0  0  1  0  0  0  0  0999 V2000
  -28.0580  -22.0550   19.4240 C   0  0  0  0  0  3  0  0  0  0  0  0
  -27.7600  -20.6870   19.2350 C   0  0  0  0  0  3  0  0  0  0  0  0
  -30.0020  -21.4090   20.7100 C   0  0  0  0  0  3  0  0  0  0  0  0
  -29.1700  -22.4800   20.1870 C   0  0  0  0  0  0  0  0  0  0  0  0
  -28.5570  -19.6510   19.7860 C   0  0  0  0  0  0  0  0  0  0  0  0
  -29.7390  -19.9870   20.5210 C   0  0  0  0  0  0  0  0  0  0  0  0
  -28.0460  -18.2380   19.6890 C   0  0  0  0  0  0  0  0  0  0  0  0
  -27.7230  -17.6030   20.7010 O   0  0  0  0  0  0  0  0  0  0  0  0
  -27.9770  -17.5110   18.3030 C   0  0  0  0  0  0  0  0  0  0  0  0
  -27.2620  -16.3840   18.3330 N   0  0  0  0  0  0  0  0  0  0  0  0
  -28.5630  -17.8980   17.2900 O   0  0  0  0  0  0  0  0  0  0  0  0
  -26.8380  -16.0870   19.2120 H   0  0  0  0  0  0  0  0  0  0  0  0
  -27.1750  -15.7970   17.5190 H   0  0  0  0  0  0  0  0  0  0  0  0
  -29.4180  -24.0100   20.4180 C   0  0  0  0  0  0  0  0  0  0  0  0
  -30.4510  -24.4030   20.9700 O   0  0  0  0  0  0  0  0  0  0  0  0
  -28.3270  -25.1000   19.9890 C   0  0  0  0  0  2  0  0  0  0  0  0
  -28.6190  -26.5750   20.1190 O   0  0  0  0  0  0  0  0  0  0  0  0
  -24.7400  -31.7950   23.3830 C   0  0  0  0  0  0  0  0  0  0  0  0
  -27.5130  -27.4570   20.0940 C   0  0  0  0  0  0  0  0  0  0  0  0
  -23.5980  -30.4710   21.6400 C   0  0  0  0  0  3  0  0  0  0  0  0
  -25.1120  -29.0460   20.1450 C   0  0  0  0  0  0  0  0  0  0  0  0
  -26.1380  -30.8480   21.5290 C   0  0  0  0  0  2  0  0  0  0  0  0
  -26.2650  -29.5110   20.7950 C   0  0  0  0  0  0  0  0  0  0  0  0
  -27.4660  -28.7310   20.7590 C   0  0  0  0  0  3  0  0  0  0  0  0
  -26.3330  -27.0730   19.4120 C   0  0  0  0  0  3  0  0  0  0  0  0
  -25.1510  -27.8330   19.4470 C   0  0  0  0  0  3  0  0  0  0  0  0
  -23.8540  -29.8860   20.2260 C   0  0  0  0  0  2  0  0  0  0  0  0
  -24.8420  -31.0540   22.2400 N   0  0  0  0  0  0  0  0  0  0  0  0
  -23.6410  -32.0100   23.9160 O   0  0  0  0  0  0  0  0  0  0  0  0
  -22.9490  -29.3800   22.5260 C   0  0  0  0  0  0  0  0  0  0  0  0
  -21.6340  -29.1610   22.3520 N   0  0  0  0  0  0  0  0  0  0  0  0
  -23.6270  -28.7370   23.3300 O   0  0  0  0  0  0  0  0  0  0  0  0
  -21.1440  -29.7400   21.6880 H   0  0  0  0  0  0  0  0  0  0  0  0
  -18.3120  -27.7590   22.6380 C   0  0  0  0  0  0  0  0  0  0  0  0
  -20.8340  -28.1530   23.0480 C   0  0  0  0  0  3  0  0  0  0  0  0
  -21.0470  -26.7500   22.4360 C   0  0  0  0  0  2  0  0  0  0  0  0
  -20.0200  -26.3990   21.3540 C   0  0  0  0  0  2  0  0  0  0  0  0
  -18.6020  -26.4450   21.9290 C   0  0  0  0  0  2  0  0  0  0  0  0
  -19.3610  -28.5680   23.1500 C   0  0  0  0  0  0  0  0  0  0  0  0
  -19.0410  -29.7940   23.7700 C   0  0  0  0  0  3  0  0  0  0  0  0
  -17.7020  -30.2150   23.8840 C   0  0  0  0  0  3  0  0  0  0  0  0
  -16.6670  -29.4040   23.3880 C   0  0  0  0  0  3  0  0  0  0  0  0
  -16.9710  -28.1790   22.7700 C   0  0  0  0  0  3  0  0  0  0  0  0
  -25.9950  -32.4220   24.0610 C   0  0  0  0  0  3  0  0  0  0  0  0
  -25.6570  -33.8040   24.4230 N   0  0  0  0  0  0  0  0  0  0  0  0
  -26.0790  -34.8910   23.7640 C   0  0  0  0  0  0  0  0  0  0  0  0
  -26.8610  -34.8330   22.8100 O   0  0  0  0  0  0  0  0  0  0  0  0
  -24.9790  -33.9240   25.1590 H   0  0  0  0  0  0  0  0  0  0  0  0
  -24.4300  -36.7360   23.2950 C   0  0  0  0  0  1  0  0  0  0  0  0
  -25.5500  -36.2610   24.2350 C   0  0  0  0  0  3  0  0  0  0  0  0
  -27.5730  -37.0540   25.3830 C   0  0  0  0  0  1  0  0  0  0  0  0
  -26.6000  -37.3000   24.3200 N   0  0  0  0  0  0  0  0  0  0  0  0
  -26.1860  -38.2160   24.4770 H   0  0  0  0  0  0  0  0  0  0  0  0
  -26.4780  -31.6190   25.3310 C   0  0  1  0  0  0  0  0  0  0  0  0
  -25.3570  -31.3550   26.3620 C   0  0  0  0  0  1  0  0  0  0  0  0
  -27.0770  -30.2510   24.9280 C   0  0  0  0  0  1  0  0  0  0  0  0
  -27.6060  -32.4010   26.0460 C   0  0  0  0  0  1  0  0  0  0  0  0
  -30.5910  -18.8790   21.2120 C   0  0  0  0  0  0  0  0  0  0  0  0
  -30.9430  -19.0090   22.3880 O   0  0  0  0  0  0  0  0  0  0  0  0
  -31.0980  -17.5760   20.4470 C   0  0  0  0  0  2  0  0  0  0  0  0
  -31.3600  -15.0260   20.7400 C   0  0  0  0  0  0  0  0  0  0  0  0
  -31.1280  -12.7520   19.7610 C   0  0  0  0  0  2  0  0  0  0  0  0
  -30.2520  -12.8120   18.4940 C   0  0  0  0  0  2  0  0  0  0  0  0
  -28.7660  -12.6570   18.8650 C   0  0  0  0  0  2  0  0  0  0  0  0
  -28.3370  -13.5880   20.0340 C   0  0  0  0  0  3  0  0  0  0  0  0
  -29.3500  -13.5260   21.2030 C   0  0  0  0  0  2  0  0  0  0  0  0
  -30.6820  -13.8320   20.6690 N   0  0  0  0  0  0  0  0  0  0  0  0
  -32.5480  -15.0850   20.4220 O   0  0  0  0  0  0  0  0  0  0  0  0
  -30.6540  -16.1940   20.9150 N   0  0  0  0  0  0  0  0  0  0  0  0
  -29.6830  -16.1110   21.1710 H   0  0  0  0  0  0  0  0  0  0  0  0
  -25.9390  -14.2100   20.7170 C   0  0  0  0  0  0  0  0  0  0  0  0
  -24.8370  -13.4480   20.9930 C   0  0  0  0  0  0  0  0  0  0  0  0
  -25.2640  -12.0870   20.9150 C   0  0  0  0  0  0  0  0  0  0  0  0
  -26.9680  -13.3150   20.4700 N   0  0  0  0  0  0  0  0  0  0  0  0
  -26.5660  -12.0300   20.6510 N   0  0  0  0  0  0  0  0  0  0  0  0
  -24.4970  -10.8360   21.0180 C   0  0  0  0  0  0  0  0  0  0  0  0
  -24.8460   -9.8220   21.9370 C   0  0  0  0  0  3  0  0  0  0  0  0
  -24.0800   -8.6390   22.0230 C   0  0  0  0  0  3  0  0  0  0  0  0
  -22.9490   -8.4640   21.1960 C   0  0  0  0  0  0  0  0  0  0  0  0
  -22.6160   -9.4660   20.2690 C   0  0  0  0  0  3  0  0  0  0  0  0
  -23.3820  -10.6390   20.1780 C   0  0  0  0  0  3  0  0  0  0  0  0
  -22.1580   -7.3400   21.2030 O   0  0  0  0  0  0  0  0  0  0  0  0
  -21.9630   -6.6030   22.3430 C   0  0  0  0  0  0  0  0  0  0  0  0
  -21.3980   -7.1680   23.5090 C   0  0  0  0  0  3  0  0  0  0  0  0
  -21.1580   -6.3630   24.6380 C   0  0  0  0  0  3  0  0  0  0  0  0
  -21.4620   -4.9890   24.6000 C   0  0  0  0  0  0  0  0  0  0  0  0
  -22.0160   -4.4200   23.4390 C   0  0  0  0  0  3  0  0  0  0  0  0
  -22.2620   -5.2240   22.3150 C   0  0  0  0  0  0  0  0  0  0  0  0
  -22.7780   -4.6700   21.1900 F   0  0  0  0  0  0  0  0  0  0  0  0
  -21.2210   -4.2120   25.6810 F   0  0  0  0  0  0  0  0  0  0  0  0
  -23.4440  -13.9560   21.2360 C   0  0  0  0  0  0  0  0  0  0  0  0
  -22.6630  -13.2600   22.0550 N   0  0  0  0  0  0  0  0  0  0  0  0
  -23.0550  -15.0120   20.7390 O   0  0  0  0  0  0  0  0  0  0  0  0
  -22.9800  -12.4090   22.4980 H   0  0  0  0  0  0  0  0  0  0  0  0
  -21.7290  -13.5920   22.2540 H   0  0  0  0  0  0  0  0  0  0  0  0
  -26.1360  -15.5840   20.6360 N   0  0  0  0  0  0  0  0  0  0  0  0
  -25.3850  -16.1890   20.9510 H   0  0  0  0  0  0  0  0  0  0  0  0
  -27.0490  -16.0000   20.8140 H   0  0  0  0  0  0  0  0  0  0  0  0
  1  4  1  0
  2  1  2  0
  2  5  1  0
  4 14  1  0
  4  3  2  0
  5  6  2  0
  6  3  1  0
  6 58  1  0
  7  5  1  0
  7  8  2  0
  9 10  1  0
  9  7  1  0
 10 12  1  0
 11  9  2  0
 13 10  1  0
 14 15  2  0
 16 17  1  0
 16 14  1  0
 18 29  2  0
 19 17  1  0
 19 24  1  0
 20 28  1  0
 20 30  1  0
 21 27  1  0
 21 23  1  0
 22 28  1  0
 23 22  1  0
 24 23  2  0
 25 26  1  0
 25 19  2  0
 26 21  2  0
 27 20  1  0
 28 18  1  0
 30 32  2  0
 31 30  1  0
 33 31  1  0
 34 43  2  0
 34 39  1  0
 35 31  1  0
 35 39  1  0
 36 35  1  0
 37 38  1  0
 37 36  1  0
 38 34  1  0
 39 40  2  0
 40 41  1  0
 42 41  2  0
 43 42  1  0
 44 18  1  0
 44 45  1  0
 44 54  1  0
 45 48  1  0
 46 50  1  0
 46 45  1  0
 47 46  2  0
 50 49  1  0
 50 52  1  0
 52 53  1  0
 52 51  1  0
 54 57  1  1
 54 55  1  0
 56 54  1  0
 58 59  2  0
 60 69  1  0
 60 58  1  0
 61 69  1  0
 62 67  1  0
 63 64  1  0
 63 62  1  0
 65 64  1  0
 65 74  1  0
 65 66  1  0
 67 61  1  0
 67 66  1  0
 68 61  2  0
 69 70  1  0
 71 72  2  0
 72 91  1  0
 73 72  1  0
 73 76  1  0
 74 75  1  0
 74 71  1  0
 75 73  2  0
 76 77  1  0
 77 78  2  0
 79 82  1  0
 79 78  1  0
 80 79  2  0
 81 80  1  0
 81 76  2  0
 82 83  1  0
 83 84  1  0
 84 85  2  0
 86 85  1  0
 86 90  1  0
 87 86  2  0
 88 83  2  0
 88 87  1  0
 89 88  1  0
 91 92  1  0
 92 95  1  0
 92 94  1  0
 93 91  2  0
 96 71  1  0
 96 98  1  0
 96 97  1  0
M  ISO  4  16 101  17 101  61 100  69 100
M  END
>  <TORSDO>  (62) 
F 22

>  <SCORE>  (62) 
-11.715

>  <name>  (62) 
63

>  <ligand_id>  (62) 
63

>  <original_smiles>  (62) 
[H]c1c([H])c([H])c2c(c1[H])C([H])([H])C([H])([H])C([H])([H])C2([H])N([H])C(=O)C1([H])N(C(=O)C([H])(N([H])C(=O)C([H])(N([H])C([H])([H])[H])C([H])([H])[H])C(C([H])([H])[H])(C([H])([H])[H])C([H])([H])[H])C([H])([H])c2c([H])c(OC([H])([H])C(=O)c3c([H])c([H])c(C(=O)C(=O)N([H])[H])c(C(=O)C([H])([H])N([H])C(=O)N4C([H])([H])C([H])([H])C([H])([H])C([H])(n5nc(-c6c([H])c([H])c(Oc7c([H])c([H])c(F)c([H])c7F)c([H])c6[H])c(C(=O)N([H])[H])c5N([H])[H])C4([H])[H])c3[H])c([H])c([H])c2C1([H])[H]

>  <smiles>  (62) 
[H]c1c([H])c([H])c2c(c1[H])C([H])([H])C([H])([H])C([H])([H])C2([H])N([H])C(=O)C1([H])N(C(=O)C([H])(N([H])C(=O)C([H])(N([H])C([H])([H])[H])C([H])([H])[H])C(C([H])([H])[H])(C([H])([H])[H])C([H])([H])[H])C([H])([H])c2c([H])c(OC([H])([H])C(=O)c3c([H])c([H])c(C(=O)C(=O)N([H])[H])c(C(=O)C([H])([H])N([H])C(=O)N4C([H])([H])C([H])([H])C([H])([H])C([H])(n5nc(-c6c([H])c([H])c(Oc7c([H])c([H])c(F)c([H])c7F)c([H])c6[H])c(C(=O)N([H])[H])c5N([H])[H])C4([H])[H])c3[H])c([H])c([H])c2C1([H])[H]

$$$$
64:0:0
     RDKit          3D

105103  0  0  1  0  0  0  0  0999 V2000
  -27.7420  -24.8230   21.9960 C   0  0  0  0  0  3  0  0  0  0  0  0
  -26.5050  -22.8390   21.2900 C   0  0  0  0  0  3  0  0  0  0  0  0
  -28.7000  -23.2940   20.3510 C   0  0  0  0  0  3  0  0  0  0  0  0
  -26.5910  -24.0050   22.0890 C   0  0  0  0  0  0  0  0  0  0  0  0
  -28.8010  -24.4860   21.1380 C   0  0  0  0  0  0  0  0  0  0  0  0
  -27.5350  -22.4700   20.3970 C   0  0  0  0  0  0  0  0  0  0  0  0
  -25.4760  -24.4520   22.9770 C   0  0  0  0  0  0  0  0  0  0  0  0
  -25.6100  -25.3970   23.7650 O   0  0  0  0  0  0  0  0  0  0  0  0
  -24.1000  -23.7250   22.9100 C   0  0  0  0  0  0  0  0  0  0  0  0
  -23.1420  -24.4360   22.3120 N   0  0  0  0  0  0  0  0  0  0  0  0
  -23.8980  -22.6070   23.3890 O   0  0  0  0  0  0  0  0  0  0  0  0
  -23.3450  -25.3730   21.9780 H   0  0  0  0  0  0  0  0  0  0  0  0
  -22.2100  -24.0630   22.2120 H   0  0  0  0  0  0  0  0  0  0  0  0
  -27.4060  -21.7850   17.9440 C   0  0  0  0  0  1  0  0  0  0  0  0
  -27.2380  -21.3180   19.3940 C   0  0  0  0  0  3  0  0  0  0  0  0
  -27.8600  -19.9750   19.6110 N   0  0  0  0  0  4  0  0  0  0  0  0
  -28.5180  -19.8200   18.8610 H   0  0  0  0  0  0  0  0  0  0  0  0
  -28.3600  -19.9830   20.4850 H   0  0  0  0  0  0  0  0  0  0  0  0
  -26.8490  -18.8670   19.6420 C   0  0  0  0  0  2  0  0  0  0  0  0
  -27.3520  -17.3940   19.4630 C   0  0  0  0  0  2  0  0  0  0  0  0
  -26.5930  -16.4910   20.4920 C   0  0  0  0  0  2  0  0  0  0  0  0
  -31.3820  -11.4740   21.0470 C   0  0  0  0  0  0  0  0  0  0  0  0
  -31.8300  -10.0120   20.6640 C   0  0  0  0  0  1  0  0  0  0  0  0
  -31.5550  -10.5440   18.8880 C   0  0  0  0  0  1  0  0  0  0  0  0
  -31.0420  -12.2180   18.6470 C   0  0  0  0  0  2  0  0  0  0  0  0
  -30.4330  -13.2680   20.0160 C   0  0  0  0  0  2  0  0  0  0  0  0
  -31.0490  -12.7860   21.7380 C   0  0  0  0  0  1  0  0  0  0  0  0
  -31.5890  -11.1490   21.9670 N   0  0  0  0  0  1  0  0  0  0  0  0
  -32.6980  -12.0220   20.5770 O   0  0  0  0  0  1  0  0  0  0  0  0
  -27.2970  -13.9720   22.3880 C   0  0  0  0  0 15  0  0  0  0  0  0
  -27.0000  -13.3880   18.3070 C   0  0  0  0  0 15  0  0  0  0  0  0
  -28.6910  -12.0450   22.4920 C   0  0  0  0  0 15  0  0  0  0  0  0
  -28.6060  -11.5060   18.7810 C   0  0  0  0  0 15  0  0  0  0  0  0
  -26.3260  -14.9160   20.3900 C   0  0  0  0  0  1  0  0  0  0  0  0
  -29.6570  -11.1160   20.7890 N   0  0  0  0  0 15  0  0  0  0  0  0
  -28.0180  -13.4270   20.2150 C   0  0  0  0  0  0  0  0  0  0  0  0
  -26.6220  -12.4410   20.5740 C   0  0  0  0  0  2  0  0  0  0  0  0
  -26.9980  -11.1350   20.9830 C   0  0  0  0  0  1  0  0  0  0  0  0
  -28.9160  -13.1920   20.4500 N   0  0  0  0  0  2  0  0  0  0  0  0
  -27.5290  -12.3510   20.6530 N   0  0  0  0  0  0  0  0  0  0  0  0
  -25.8110  -10.1380   21.0710 C   0  0  0  0  0  3  0  0  0  0  0  0
  -25.6610   -9.4270   22.2830 C   0  0  0  0  0  3  0  0  0  0  0  0
  -24.6520   -8.4530   22.4800 C   0  0  0  0  0  3  0  0  0  0  0  0
  -23.7060   -8.1630   21.4720 C   0  0  0  0  0  0  0  0  0  0  0  0
  -23.8300   -8.8490   20.2470 C   0  0  0  0  0  3  0  0  0  0  0  0
  -24.8890   -9.7660   20.0340 C   0  0  0  0  0  3  0  0  0  0  0  0
  -22.7170   -7.2020   21.5810 O   0  0  0  0  0  0  0  0  0  0  0  0
  -22.2340   -6.7760   22.7990 C   0  0  0  0  0  0  0  0  0  0  0  0
  -21.6580   -7.6830   23.7160 C   0  0  0  0  0  3  0  0  0  0  0  0
  -21.1140   -7.2200   24.9320 C   0  0  0  0  0  3  0  0  0  0  0  0
  -21.1310   -5.8470   25.2340 C   0  0  0  0  0  0  0  0  0  0  0  0
  -21.6890   -4.9330   24.3220 C   0  0  0  0  0  3  0  0  0  0  0  0
  -22.2330   -5.3940   23.1070 C   0  0  0  0  0  0  0  0  0  0  0  0
  -22.7520   -4.5040   22.2290 F   0  0  0  0  0  0  0  0  0  0  0  0
  -20.6040   -5.4000   26.3990 F   0  0  0  0  0  0  0  0  0  0  0  0
  -24.9700  -12.6630   20.3500 C   0  0  0  0  0  0  0  0  0  0  0  0
  -24.1520  -12.6310   21.3910 N   0  0  0  0  0  0  0  0  0  0  0  0
  -24.4670  -13.1520   19.3200 O   0  0  0  0  0  0  0  0  0  0  0  0
  -24.5010  -12.3390   22.2900 H   0  0  0  0  0  0  0  0  0  0  0  0
  -23.1720  -12.8300   21.2710 H   0  0  0  0  0  0  0  0  0  0  0  0
  -28.5550  -14.6630   19.5590 N   0  0  0  0  0  4  0  0  0  0  0  0
  -27.9040  -15.2770   19.0940 H   0  0  0  0  0  0  0  0  0  0  0  0
  -29.5190  -14.9400   19.4770 H   0  0  0  0  0  0  0  0  0  0  0  0
  -30.0400  -25.3930   21.1600 C   0  0  0  0  0  2  0  0  0  0  0  0
  -29.8470  -26.8300   21.2010 O   0  0  0  0  0  0  0  0  0  0  0  0
  -25.2370  -31.6950   23.4280 C   0  0  0  0  0  0  0  0  0  0  0  0
  -28.6430  -27.4380   20.9060 C   0  0  0  0  0  0  0  0  0  0  0  0
  -24.4150  -30.1720   21.6630 C   0  0  0  0  0  3  0  0  0  0  0  0
  -26.1760  -28.7590   20.4800 C   0  0  0  0  0  0  0  0  0  0  0  0
  -26.8970  -30.7470   21.8220 C   0  0  0  0  0  2  0  0  0  0  0  0
  -27.1840  -29.3860   21.2210 C   0  0  0  0  0  0  0  0  0  0  0  0
  -28.4250  -28.7390   21.4140 C   0  0  0  0  0  3  0  0  0  0  0  0
  -27.6200  -26.8250   20.1500 C   0  0  0  0  0  3  0  0  0  0  0  0
  -26.3960  -27.4840   19.9270 C   0  0  0  0  0  3  0  0  0  0  0  0
  -24.8780  -29.5150   20.3320 C   0  0  0  0  0  2  0  0  0  0  0  0
  -25.5250  -30.8910   22.3650 N   0  0  0  0  0  0  0  0  0  0  0  0
  -24.0660  -31.8680   23.7950 O   0  0  0  0  0  0  0  0  0  0  0  0
  -23.7240  -29.1070   22.5500 C   0  0  0  0  0  0  0  0  0  0  0  0
  -22.4440  -28.8230   22.2570 N   0  0  0  0  0  0  0  0  0  0  0  0
  -24.3380  -28.5400   23.4570 O   0  0  0  0  0  0  0  0  0  0  0  0
  -21.9980  -29.3480   21.5180 H   0  0  0  0  0  0  0  0  0  0  0  0
  -19.1040  -27.4500   22.4550 C   0  0  0  0  0  0  0  0  0  0  0  0
  -21.6180  -27.8200   22.9310 C   0  0  0  0  0  3  0  0  0  0  0  0
  -21.8280  -26.4170   22.3150 C   0  0  0  0  0  2  0  0  0  0  0  0
  -20.8220  -26.0820   21.2070 C   0  0  0  0  0  2  0  0  0  0  0  0
  -19.3930  -26.1390   21.7480 C   0  0  0  0  0  2  0  0  0  0  0  0
  -20.1460  -28.2490   22.9980 C   0  0  0  0  0  0  0  0  0  0  0  0
  -19.8160  -29.4770   23.6130 C   0  0  0  0  0  3  0  0  0  0  0  0
  -18.4770  -29.9060   23.6910 C   0  0  0  0  0  3  0  0  0  0  0  0
  -17.4500  -29.1050   23.1600 C   0  0  0  0  0  3  0  0  0  0  0  0
  -17.7630  -27.8780   22.5500 C   0  0  0  0  0  3  0  0  0  0  0  0
  -26.3510  -32.4560   24.2130 C   0  0  0  0  0  3  0  0  0  0  0  0
  -25.9100  -33.8480   24.3840 N   0  0  0  0  0  0  0  0  0  0  0  0
  -26.2960  -34.8710   23.6100 C   0  0  0  0  0  0  0  0  0  0  0  0
  -27.1280  -34.7480   22.7050 O   0  0  0  0  0  0  0  0  0  0  0  0
  -25.1900  -34.0110   25.0720 H   0  0  0  0  0  0  0  0  0  0  0  0
  -24.5250  -36.5010   22.8710 C   0  0  0  0  0  1  0  0  0  0  0  0
  -25.6590  -36.2480   23.8770 C   0  0  0  0  0  3  0  0  0  0  0  0
  -27.6000  -37.3450   24.9060 C   0  0  0  0  0  1  0  0  0  0  0  0
  -26.6240  -37.3660   23.8200 N   0  0  0  0  0  0  0  0  0  0  0  0
  -26.1410  -38.2590   23.8420 H   0  0  0  0  0  0  0  0  0  0  0  0
  -26.6810  -31.8050   25.6120 C   0  0  1  0  0  0  0  0  0  0  0  0
  -25.4360  -31.5640   26.4990 C   0  0  0  0  0  1  0  0  0  0  0  0
  -27.3980  -30.4490   25.4240 C   0  0  0  0  0  1  0  0  0  0  0  0
  -27.6500  -32.7200   26.3990 C   0  0  0  0  0  1  0  0  0  0  0  0
  1  4  1  0
  2  4  2  0
  3  6  2  0
  3  5  1  0
  4  7  1  0
  5 64  1  0
  5  1  2  0
  6  2  1  0
  7  8  2  0
  9  7  1  0
  9 11  2  0
 10  9  1  0
 12 10  1  0
 13 10  1  0
 15 14  1  0
 15 16  1  0
 15  6  1  0
 16 19  1  0
 16 18  1  0
 17 16  1  0
 20 19  1  0
 20 21  1  0
 22 27  1  0
 22 28  1  0
 23 22  1  0
 25 24  1  0
 25 26  1  0
 26 39  1  0
 29 22  1  0
 34 21  1  0
 36 39  1  0
 36 40  1  0
 37 40  1  0
 40 38  1  0
 41 42  1  0
 42 43  2  0
 44 47  1  0
 44 43  1  0
 45 44  2  0
 46 45  1  0
 46 41  2  0
 47 48  1  0
 48 53  2  0
 48 49  1  0
 49 50  2  0
 50 51  1  0
 51 55  1  0
 52 51  2  0
 53 52  1  0
 54 53  1  0
 56 37  1  0
 56 57  1  0
 57 59  1  0
 58 56  2  0
 60 57  1  0
 61 36  2  0
 62 61  1  0
 63 61  1  0
 64 65  1  0
 66 77  2  0
 67 65  1  0
 67 72  1  0
 68 76  1  0
 68 78  1  0
 69 71  1  0
 70 76  1  0
 71 72  2  0
 71 70  1  0
 73 67  2  0
 74 73  1  0
 74 69  2  0
 75 69  1  0
 75 68  1  0
 76 66  1  0
 78 80  2  0
 79 78  1  0
 81 79  1  0
 82 91  2  0
 82 87  1  0
 83 79  1  0
 83 87  1  0
 84 83  1  0
 85 86  1  0
 85 84  1  0
 86 82  1  0
 87 88  2  0
 88 89  1  0
 90 89  2  0
 91 90  1  0
 92 66  1  0
 92 93  1  0
 92102  1  0
 93 96  1  0
 94 98  1  0
 94 93  1  0
 95 94  2  0
 98 97  1  0
100101  1  0
100 98  1  0
100 99  1  0
102105  1  1
102103  1  0
104102  1  0
M  ISO  4  22 100  35 100  64 101  65 101
M  END
>  <TORSDO>  (63) 
F 24

>  <SCORE>  (63) 
-5.810

>  <name>  (63) 
64

>  <ligand_id>  (63) 
64

>  <original_smiles>  (63) 
[H]c1c([H])c([H])c2c(c1[H])C([H])([H])C([H])([H])C([H])([H])C2([H])N([H])C(=O)C1([H])N(C(=O)C([H])(N([H])C(=O)C([H])(N([H])C([H])([H])[H])C([H])([H])[H])C(C([H])([H])[H])(C([H])([H])[H])C([H])([H])[H])C([H])([H])c2c([H])c(OC([H])([H])c3c([H])c(C(=O)C(=O)N([H])[H])c([H])c(C([H])(C([H])([H])[H])[N+]([H])([H])C([H])([H])C([H])([H])C([H])([H])C4([H])C([H])([H])C([H])([H])N(C(=O)N5C([H])([H])C([H])([H])C([H])([H])C([H])(n6nc(-c7c([H])c([H])c(Oc8c([H])c([H])c(F)c([H])c8F)c([H])c7[H])c(C(=O)N([H])[H])c6N([H])[H])C5([H])[H])C([H])([H])C4([H])[H])c3[H])c([H])c([H])c2C1([H])[H]

>  <smiles>  (63) 
[H]c1c([H])c([H])c2c(c1[H])C([H])([H])C([H])([H])C([H])([H])C2([H])N([H])C(=O)C1([H])N(C(=O)C([H])(N([H])C(=O)C([H])(N([H])C([H])([H])[H])C([H])([H])[H])C(C([H])([H])[H])(C([H])([H])[H])C([H])([H])[H])C([H])([H])c2c([H])c(OC([H])([H])c3c([H])c(C(=O)C(=O)N([H])[H])c([H])c(C([H])(C([H])([H])[H])[N+]([H])([H])C([H])([H])C([H])([H])C([H])([H])C4([H])C([H])([H])C([H])([H])N(C(=O)N5C([H])([H])C([H])([H])C([H])([H])C([H])(n6nc(-c7c([H])c([H])c(Oc8c([H])c([H])c(F)c([H])c8F)c([H])c7[H])c(C(=O)N([H])[H])c6N([H])[H])C5([H])[H])C([H])([H])C4([H])[H])c3[H])c([H])c([H])c2C1([H])[H]

$$$$
65:0:0
     RDKit          3D

102110  0  0  1  0  0  0  0  0999 V2000
  -31.2420  -20.3330   19.6690 C   0  0  0  0  0  3  0  0  0  0  0  0
  -32.2420  -21.5070   17.7910 C   0  0  0  0  0  3  0  0  0  0  0  0
  -31.6040  -19.0990   19.0850 C   0  0  0  0  0  3  0  0  0  0  0  0
  -32.6480  -20.2810   17.2320 C   0  0  0  0  0  3  0  0  0  0  0  0
  -31.5860  -21.5510   19.0430 C   0  0  0  0  0  0  0  0  0  0  0  0
  -32.3530  -19.0690   17.8860 C   0  0  0  0  0  0  0  0  0  0  0  0
  -32.4530  -23.9130   19.4640 C   0  0  0  0  0  1  0  0  0  0  0  0
  -31.3350  -22.8830   19.7580 C   0  0  0  0  0  3  0  0  0  0  0  0
  -29.9790  -23.4170   19.4750 N   0  0  0  0  0  4  0  0  0  0  0  0
  -29.8300  -23.4140   18.4780 H   0  0  0  0  0  0  0  0  0  0  0  0
  -29.3080  -22.7770   19.8690 H   0  0  0  0  0  0  0  0  0  0  0  0
  -29.7350  -24.7730   20.0430 C   0  0  0  0  0  2  0  0  0  0  0  0
  -28.2980  -25.2890   19.8890 C   0  0  0  0  0  2  0  0  0  0  0  0
  -28.2730  -26.6180   20.4220 O   0  0  0  0  0  0  0  0  0  0  0  0
  -24.5970  -31.9370   23.3590 C   0  0  0  0  0  0  0  0  0  0  0  0
  -27.0970  -27.3370   20.3970 C   0  0  0  0  0  0  0  0  0  0  0  0
  -23.3450  -30.5260   21.7580 C   0  0  0  0  0  3  0  0  0  0  0  0
  -24.7460  -28.9120   20.3710 C   0  0  0  0  0  0  0  0  0  0  0  0
  -25.8780  -30.8050   21.5480 C   0  0  0  0  0  2  0  0  0  0  0  0
  -25.9190  -29.4150   20.9470 C   0  0  0  0  0  0  0  0  0  0  0  0
  -27.0940  -28.6330   20.9610 C   0  0  0  0  0  3  0  0  0  0  0  0
  -25.9000  -26.8410   19.8280 C   0  0  0  0  0  3  0  0  0  0  0  0
  -24.7330  -27.6250   19.8080 C   0  0  0  0  0  3  0  0  0  0  0  0
  -23.5290  -29.8080   20.3960 C   0  0  0  0  0  2  0  0  0  0  0  0
  -24.6250  -31.1060   22.2790 N   0  0  0  0  0  0  0  0  0  0  0  0
  -23.5260  -32.2580   23.8920 O   0  0  0  0  0  0  0  0  0  0  0  0
  -22.6690  -29.5510   22.7480 C   0  0  0  0  0  0  0  0  0  0  0  0
  -21.3510  -29.3530   22.5800 N   0  0  0  0  0  0  0  0  0  0  0  0
  -23.3250  -28.9730   23.6180 O   0  0  0  0  0  0  0  0  0  0  0  0
  -20.8850  -29.8650   21.8440 H   0  0  0  0  0  0  0  0  0  0  0  0
  -17.9800  -28.1110   22.9610 C   0  0  0  0  0  0  0  0  0  0  0  0
  -20.5100  -28.4510   23.3670 C   0  0  0  0  0  3  0  0  0  0  0  0
  -20.6790  -26.9870   22.8990 C   0  0  0  0  0  2  0  0  0  0  0  0
  -19.6480  -26.5660   21.8480 C   0  0  0  0  0  2  0  0  0  0  0  0
  -18.2270  -26.7230   22.3960 C   0  0  0  0  0  2  0  0  0  0  0  0
  -19.0540  -28.9300   23.4020 C   0  0  0  0  0  0  0  0  0  0  0  0
  -18.7720  -30.2250   23.8840 C   0  0  0  0  0  3  0  0  0  0  0  0
  -17.4490  -30.7040   23.9360 C   0  0  0  0  0  3  0  0  0  0  0  0
  -16.3890  -29.8830   23.5130 C   0  0  0  0  0  3  0  0  0  0  0  0
  -16.6550  -28.5900   23.0300 C   0  0  0  0  0  3  0  0  0  0  0  0
  -25.9040  -32.5440   23.9590 C   0  0  0  0  0  3  0  0  0  0  0  0
  -26.4160  -31.7750   25.2380 C   0  0  1  0  0  0  0  0  0  0  0  0
  -25.3240  -31.5680   26.3140 C   0  0  0  0  0  1  0  0  0  0  0  0
  -26.9710  -30.3830   24.8540 C   0  0  0  0  0  1  0  0  0  0  0  0
  -27.5880  -32.5530   25.8820 C   0  0  0  0  0  1  0  0  0  0  0  0
  -25.6330  -33.9530   24.2740 N   0  0  0  0  0  0  0  0  0  0  0  0
  -25.9650  -34.9860   23.4880 C   0  0  0  0  0  0  0  0  0  0  0  0
  -26.6050  -34.8510   22.4420 O   0  0  0  0  0  0  0  0  0  0  0  0
  -25.0640  -34.1330   25.0880 H   0  0  0  0  0  0  0  0  0  0  0  0
  -24.2580  -36.8010   23.1490 C   0  0  0  0  0  1  0  0  0  0  0  0
  -25.5150  -36.3890   23.9330 C   0  0  0  0  0  3  0  0  0  0  0  0
  -27.6900  -37.2470   24.6840 C   0  0  0  0  0  1  0  0  0  0  0  0
  -26.5620  -37.4210   23.7720 N   0  0  0  0  0  0  0  0  0  0  0  0
  -26.1780  -38.3500   23.9160 H   0  0  0  0  0  0  0  0  0  0  0  0
  -32.8490  -17.8680   17.3650 N   0  0  0  0  0  0  0  0  0  0  0  0
  -33.2580  -17.9610   16.4380 H   0  0  0  0  0  0  0  0  0  0  0  0
  -33.7280  -17.1900   18.3210 C   0  0  0  0  0  2  0  0  0  0  0  0
  -34.3600  -15.8760   17.8180 C   0  0  0  0  0  2  0  0  0  0  0  0
  -34.9150  -15.1000   19.0270 C   0  0  0  0  0  0  0  0  0  0  0  0
  -34.2460  -14.0090   19.4070 N   0  0  0  0  0  0  0  0  0  0  0  0
  -35.8610  -15.5530   19.6820 O   0  0  0  0  0  0  0  0  0  0  0  0
  -33.4640  -13.7680   18.8120 H   0  0  0  0  0  0  0  0  0  0  0  0
  -34.1640  -13.5480   20.7960 C   0  0  0  0  0  2  0  0  0  0  0  0
  -32.7930  -12.9020   21.1350 C   0  0  0  0  0  2  0  0  0  0  0  0
  -30.9680  -13.9930   19.8850 C   0  0  0  0  0  0  0  0  0  0  0  0
  -30.2500  -12.1980   18.4210 C   0  0  0  0  0  2  0  0  0  0  0  0
  -29.1040  -12.3880   17.4190 C   0  0  0  0  0  2  0  0  0  0  0  0
  -27.7310  -12.3050   18.0910 C   0  0  0  0  0  2  0  0  0  0  0  0
  -27.6230  -13.1390   19.3930 C   0  0  0  0  0  3  0  0  0  0  0  0
  -28.8070  -12.8060   20.3420 C   0  0  0  0  0  2  0  0  0  0  0  0
  -30.0800  -13.0110   19.6320 N   0  0  0  0  0  0  0  0  0  0  0  0
  -31.4490  -14.7060   19.0170 O   0  0  0  0  0  0  0  0  0  0  0  0
  -31.6490  -13.8340   21.0310 N   0  0  0  0  0  0  0  0  0  0  0  0
  -31.9270  -14.7330   21.4070 H   0  0  0  0  0  0  0  0  0  0  0  0
  -25.3190  -13.8300   20.3380 C   0  0  0  0  0  0  0  0  0  0  0  0
  -24.2590  -13.0870   20.8110 C   0  0  0  0  0  0  0  0  0  0  0  0
  -24.6630  -11.7240   20.7210 C   0  0  0  0  0  0  0  0  0  0  0  0
  -26.3120  -12.9170   20.0190 N   0  0  0  0  0  0  0  0  0  0  0  0
  -25.9220  -11.6450   20.3060 N   0  0  0  0  0  0  0  0  0  0  0  0
  -23.9060  -10.4820   20.9550 C   0  0  0  0  0  0  0  0  0  0  0  0
  -24.3880   -9.4830   21.8330 C   0  0  0  0  0  3  0  0  0  0  0  0
  -23.6330   -8.3100   22.0630 C   0  0  0  0  0  3  0  0  0  0  0  0
  -22.3890   -8.1280   21.4170 C   0  0  0  0  0  0  0  0  0  0  0  0
  -21.9230   -9.1150   20.5290 C   0  0  0  0  0  3  0  0  0  0  0  0
  -22.6770  -10.2780   20.2950 C   0  0  0  0  0  3  0  0  0  0  0  0
  -21.6020   -7.0080   21.5690 O   0  0  0  0  0  0  0  0  0  0  0  0
  -21.6240   -6.2570   22.7210 C   0  0  0  0  0  0  0  0  0  0  0  0
  -21.3430   -6.8210   23.9840 C   0  0  0  0  0  3  0  0  0  0  0  0
  -21.3140   -6.0010   25.1320 C   0  0  0  0  0  3  0  0  0  0  0  0
  -21.5540   -4.6180   25.0210 C   0  0  0  0  0  0  0  0  0  0  0  0
  -21.8270   -4.0550   23.7620 C   0  0  0  0  0  3  0  0  0  0  0  0
  -21.8590   -4.8690   22.6170 C   0  0  0  0  0  0  0  0  0  0  0  0
  -22.1020   -4.3120   21.4050 F   0  0  0  0  0  0  0  0  0  0  0  0
  -21.5200   -3.8330   26.1230 F   0  0  0  0  0  0  0  0  0  0  0  0
  -22.9150  -13.6080   21.2350 C   0  0  0  0  0  0  0  0  0  0  0  0
  -22.2540  -12.9330   22.1720 N   0  0  0  0  0  0  0  0  0  0  0  0
  -22.4570  -14.6450   20.7650 O   0  0  0  0  0  0  0  0  0  0  0  0
  -22.6330  -12.0970   22.5930 H   0  0  0  0  0  0  0  0  0  0  0  0
  -21.3660  -13.2860   22.4950 H   0  0  0  0  0  0  0  0  0  0  0  0
  -25.5190  -15.1930   20.1410 N   0  0  0  0  0  0  0  0  0  0  0  0
  -24.8190  -15.9140   20.3000 H   0  0  0  0  0  0  0  0  0  0  0  0
  -26.3870  -15.5610   19.7700 H   0  0  0  0  0  0  0  0  0  0  0  0
  2  5  1  0
  3  1  1  0
  4  2  2  0
  4  6  1  0
  5  1  2  0
  5  8  1  0
  6  3  2  0
  8  7  1  0
  9  8  1  0
  9 11  1  0
  9 12  1  0
 10  9  1  0
 13 12  1  0
 13 14  1  0
 15 26  2  0
 16 14  1  0
 16 21  1  0
 17 25  1  0
 17 27  1  0
 18 24  1  0
 18 20  1  0
 19 25  1  0
 20 21  2  0
 20 19  1  0
 22 16  2  0
 23 22  1  0
 23 18  2  0
 24 17  1  0
 25 15  1  0
 27 29  2  0
 28 27  1  0
 30 28  1  0
 31 40  2  0
 31 36  1  0
 32 28  1  0
 32 36  1  0
 33 32  1  0
 34 35  1  0
 34 33  1  0
 35 31  1  0
 36 37  2  0
 37 38  1  0
 39 38  2  0
 40 39  1  0
 41 15  1  0
 41 46  1  0
 41 42  1  0
 42 45  1  1
 42 43  1  0
 44 42  1  0
 46 49  1  0
 47 51  1  0
 47 46  1  0
 48 47  2  0
 51 50  1  0
 53 54  1  0
 53 51  1  0
 53 52  1  0
 55  6  1  0
 55 57  1  0
 56 55  1  0
 58 57  1  0
 58 59  1  0
 59 60  1  0
 59 61  2  0
 60 63  1  0
 62 60  1  0
 63 64  1  0
 65 73  1  0
 66 71  1  0
 67 68  1  0
 67 66  1  0
 69 68  1  0
 69 78  1  0
 69 70  1  0
 71 65  1  0
 71 70  1  0
 72 65  2  0
 73 64  1  0
 73 74  1  0
 75 76  2  0
 76 95  1  0
 77 76  1  0
 77 80  1  0
 78 79  1  0
 78 75  1  0
 79 77  2  0
 80 81  1  0
 81 82  2  0
 83 86  1  0
 83 82  1  0
 84 83  2  0
 85 84  1  0
 85 80  2  0
 86 87  1  0
 87 88  1  0
 88 89  2  0
 90 89  1  0
 90 94  1  0
 91 90  2  0
 92 87  2  0
 92 91  1  0
 93 92  1  0
 95 96  1  0
 96 99  1  0
 96 98  1  0
 97 95  2  0
100101  1  0
100 75  1  0
102100  1  0
M  ISO  4  13 101  14 101  65 100  73 100
M  END
>  <TORSDO>  (64) 
F 26

>  <SCORE>  (64) 
-11.239

>  <name>  (64) 
65

>  <ligand_id>  (64) 
65

>  <original_smiles>  (64) 
[H]c1c([H])c([H])c2c(c1[H])C([H])([H])C([H])([H])C([H])([H])C2([H])N([H])C(=O)C1([H])N(C(=O)C([H])(N([H])C(=O)C([H])(N([H])C([H])([H])[H])C([H])([H])[H])C(C([H])([H])[H])(C([H])([H])[H])C([H])([H])[H])C([H])([H])c2c([H])c(OC([H])([H])C([H])([H])[N+]([H])([H])C([H])(c3c([H])c([H])c(N([H])C([H])([H])C([H])([H])C(=O)N([H])C([H])([H])C([H])([H])N([H])C(=O)N4C([H])([H])C([H])([H])C([H])([H])C([H])(n5nc(-c6c([H])c([H])c(Oc7c([H])c([H])c(F)c([H])c7F)c([H])c6[H])c(C(=O)N([H])[H])c5N([H])[H])C4([H])[H])c([H])c3[H])C([H])([H])[H])c([H])c([H])c2C1([H])[H]

>  <smiles>  (64) 
[H]c1c([H])c([H])c2c(c1[H])C([H])([H])C([H])([H])C([H])([H])C2([H])N([H])C(=O)C1([H])N(C(=O)C([H])(N([H])C(=O)C([H])(N([H])C([H])([H])[H])C([H])([H])[H])C(C([H])([H])[H])(C([H])([H])[H])C([H])([H])[H])C([H])([H])c2c([H])c(OC([H])([H])C([H])([H])[N+]([H])([H])C([H])(c3c([H])c([H])c(N([H])C([H])([H])C([H])([H])C(=O)N([H])C([H])([H])C([H])([H])N([H])C(=O)N4C([H])([H])C([H])([H])C([H])([H])C([H])(n5nc(-c6c([H])c([H])c(Oc7c([H])c([H])c(F)c([H])c7F)c([H])c6[H])c(C(=O)N([H])[H])c5N([H])[H])C4([H])[H])c([H])c3[H])C([H])([H])[H])c([H])c([H])c2C1([H])[H]

$$$$
66:0:0
     RDKit          3D

 95103  0  0  1  0  0  0  0  0999 V2000
  -31.7220  -21.5720   21.8940 C   0  0  0  0  0  1  0  0  0  0  0  0
  -30.2690  -21.1110   21.6460 C   0  0  0  0  0  3  0  0  0  0  0  0
  -29.7850  -18.6230   21.2590 C   0  0  0  0  0  3  0  0  0  0  0  0
  -30.1860  -17.5890   19.0860 C   0  0  0  0  0  3  0  0  0  0  0  0
  -30.7170  -19.9390   19.4280 C   0  0  0  0  0  3  0  0  0  0  0  0
  -29.7700  -17.4770   20.4300 C   0  0  0  0  0  0  0  0  0  0  0  0
  -30.2500  -19.8640   20.7610 C   0  0  0  0  0  0  0  0  0  0  0  0
  -30.6700  -18.8110   18.5910 C   0  0  0  0  0  0  0  0  0  0  0  0
  -31.0950  -18.9020   17.3080 F   0  0  0  0  0  0  0  0  0  0  0  0
  -29.3410  -16.1180   20.9760 C   0  0  0  0  0  2  0  0  0  0  0  0
  -30.7780  -14.3260   20.0850 C   0  0  0  0  0  0  0  0  0  0  0  0
  -30.3470  -12.1800   18.9300 C   0  0  0  0  0  2  0  0  0  0  0  0
  -29.3490  -12.3390   17.7690 C   0  0  0  0  0  2  0  0  0  0  0  0
  -27.9000  -12.2170   18.2760 C   0  0  0  0  0  2  0  0  0  0  0  0
  -27.6320  -13.1150   19.5100 C   0  0  0  0  0  3  0  0  0  0  0  0
  -28.7310  -12.9180   20.5790 C   0  0  0  0  0  2  0  0  0  0  0  0
  -30.0370  -13.1910   19.9550 N   0  0  0  0  0  0  0  0  0  0  0  0
  -31.7950  -14.5280   19.4100 O   0  0  0  0  0  0  0  0  0  0  0  0
  -31.5180  -15.6590   21.9720 C   0  0  0  0  0  1  0  0  0  0  0  0
  -30.4500  -15.1560   21.1050 N   0  0  0  0  0  0  0  0  0  0  0  0
  -25.2950  -13.8000   20.3490 C   0  0  0  0  0  0  0  0  0  0  0  0
  -24.2300  -13.0600   20.7830 C   0  0  0  0  0  0  0  0  0  0  0  0
  -24.6490  -11.6940   20.7300 C   0  0  0  0  0  0  0  0  0  0  0  0
  -26.3000  -12.8880   20.0610 N   0  0  0  0  0  0  0  0  0  0  0  0
  -25.9160  -11.6160   20.3450 N   0  0  0  0  0  0  0  0  0  0  0  0
  -23.9020  -10.4530   20.9620 C   0  0  0  0  0  0  0  0  0  0  0  0
  -24.3370   -9.4960   21.9050 C   0  0  0  0  0  3  0  0  0  0  0  0
  -23.5910   -8.3180   22.1240 C   0  0  0  0  0  3  0  0  0  0  0  0
  -22.3960   -8.0900   21.4010 C   0  0  0  0  0  0  0  0  0  0  0  0
  -21.9810   -9.0350   20.4450 C   0  0  0  0  0  3  0  0  0  0  0  0
  -22.7280  -10.2040   20.2250 C   0  0  0  0  0  3  0  0  0  0  0  0
  -21.6200   -6.9630   21.5280 O   0  0  0  0  0  0  0  0  0  0  0  0
  -21.5600   -6.2630   22.7070 C   0  0  0  0  0  0  0  0  0  0  0  0
  -21.1420   -6.8660   23.9130 C   0  0  0  0  0  3  0  0  0  0  0  0
  -21.0280   -6.0920   25.0850 C   0  0  0  0  0  3  0  0  0  0  0  0
  -21.3210   -4.7140   25.0510 C   0  0  0  0  0  0  0  0  0  0  0  0
  -21.7300   -4.1110   23.8490 C   0  0  0  0  0  3  0  0  0  0  0  0
  -21.8480   -4.8840   22.6800 C   0  0  0  0  0  0  0  0  0  0  0  0
  -22.2240   -4.2920   21.5190 F   0  0  0  0  0  0  0  0  0  0  0  0
  -21.2040   -3.9680   26.1740 F   0  0  0  0  0  0  0  0  0  0  0  0
  -22.8630  -13.5740   21.1340 C   0  0  0  0  0  0  0  0  0  0  0  0
  -22.1680  -12.8960   22.0410 N   0  0  0  0  0  0  0  0  0  0  0  0
  -22.4250  -14.6140   20.6410 O   0  0  0  0  0  0  0  0  0  0  0  0
  -22.5360  -12.0540   22.4590 H   0  0  0  0  0  0  0  0  0  0  0  0
  -21.2510  -13.2200   22.3170 H   0  0  0  0  0  0  0  0  0  0  0  0
  -25.4850  -15.1650   20.1560 N   0  0  0  0  0  0  0  0  0  0  0  0
  -24.7340  -15.8330   20.2980 H   0  0  0  0  0  0  0  0  0  0  0  0
  -26.3080  -15.5800   19.7380 H   0  0  0  0  0  0  0  0  0  0  0  0
  -29.4150  -22.1500   21.0120 N   0  0  0  0  0  4  0  0  0  0  0  0
  -29.7280  -22.2600   20.0630 H   0  0  0  0  0  0  0  0  0  0  0  0
  -28.4790  -21.7770   20.9680 H   0  0  0  0  0  0  0  0  0  0  0  0
  -29.3500  -23.4940   21.6380 C   0  0  0  0  0  2  0  0  0  0  0  0
  -28.7630  -24.5320   20.6530 C   0  0  0  0  0  2  0  0  0  0  0  0
  -28.7670  -25.9780   21.1770 C   0  0  0  0  0  2  0  0  0  0  0  0
  -28.5040  -26.8550   20.0810 O   0  0  0  0  0  0  0  0  0  0  0  0
  -24.5930  -31.9020   23.2250 C   0  0  0  0  0  0  0  0  0  0  0  0
  -27.3200  -27.5420   20.1420 C   0  0  0  0  0  0  0  0  0  0  0  0
  -23.4120  -30.5000   21.5610 C   0  0  0  0  0  3  0  0  0  0  0  0
  -24.8980  -28.9840   20.1430 C   0  0  0  0  0  0  0  0  0  0  0  0
  -25.9280  -30.9010   21.3720 C   0  0  0  0  0  2  0  0  0  0  0  0
  -26.0400  -29.5300   20.7420 C   0  0  0  0  0  0  0  0  0  0  0  0
  -27.2530  -28.8130   20.7490 C   0  0  0  0  0  3  0  0  0  0  0  0
  -26.1700  -26.9970   19.5390 C   0  0  0  0  0  3  0  0  0  0  0  0
  -24.9540  -27.7110   19.5420 C   0  0  0  0  0  3  0  0  0  0  0  0
  -23.6400  -29.8240   20.1800 C   0  0  0  0  0  2  0  0  0  0  0  0
  -24.6630  -31.1150   22.1140 N   0  0  0  0  0  0  0  0  0  0  0  0
  -23.5060  -32.1560   23.7600 O   0  0  0  0  0  0  0  0  0  0  0  0
  -22.7640  -29.4670   22.5090 C   0  0  0  0  0  0  0  0  0  0  0  0
  -21.4380  -29.2910   22.3840 N   0  0  0  0  0  0  0  0  0  0  0  0
  -23.4500  -28.8250   23.3080 O   0  0  0  0  0  0  0  0  0  0  0  0
  -20.9450  -29.8590   21.7090 H   0  0  0  0  0  0  0  0  0  0  0  0
  -18.0590  -28.1240   22.9000 C   0  0  0  0  0  0  0  0  0  0  0  0
  -20.6240  -28.3440   23.1440 C   0  0  0  0  0  3  0  0  0  0  0  0
  -20.7020  -26.9280   22.5280 C   0  0  0  0  0  2  0  0  0  0  0  0
  -19.5830  -26.6430   21.5220 C   0  0  0  0  0  2  0  0  0  0  0  0
  -18.2110  -26.7890   22.1890 C   0  0  0  0  0  2  0  0  0  0  0  0
  -19.1940  -28.8610   23.3340 C   0  0  0  0  0  0  0  0  0  0  0  0
  -18.9980  -30.1110   23.9580 C   0  0  0  0  0  3  0  0  0  0  0  0
  -17.7020  -30.6260   24.1520 C   0  0  0  0  0  3  0  0  0  0  0  0
  -16.5830  -29.8840   23.7360 C   0  0  0  0  0  3  0  0  0  0  0  0
  -16.7630  -28.6340   23.1160 C   0  0  0  0  0  3  0  0  0  0  0  0
  -25.8690  -32.5390   23.8590 C   0  0  0  0  0  3  0  0  0  0  0  0
  -25.5540  -33.9380   24.1770 N   0  0  0  0  0  0  0  0  0  0  0  0
  -25.9030  -34.9850   23.4190 C   0  0  0  0  0  0  0  0  0  0  0  0
  -26.5970  -34.8780   22.4030 O   0  0  0  0  0  0  0  0  0  0  0  0
  -24.9430  -34.0950   24.9660 H   0  0  0  0  0  0  0  0  0  0  0  0
  -24.1900  -36.7800   23.0050 C   0  0  0  0  0  1  0  0  0  0  0  0
  -25.4050  -36.3760   23.8560 C   0  0  0  0  0  3  0  0  0  0  0  0
  -27.5160  -37.2590   24.7500 C   0  0  0  0  0  1  0  0  0  0  0  0
  -26.4440  -37.4250   23.7710 N   0  0  0  0  0  0  0  0  0  0  0  0
  -26.0370  -38.3470   23.9040 H   0  0  0  0  0  0  0  0  0  0  0  0
  -26.3770  -31.7730   25.1410 C   0  0  1  0  0  0  0  0  0  0  0  0
  -25.2750  -31.5200   26.1960 C   0  0  0  0  0  1  0  0  0  0  0  0
  -26.9820  -30.4030   24.7520 C   0  0  0  0  0  1  0  0  0  0  0  0
  -27.5170  -32.5750   25.8130 C   0  0  0  0  0  1  0  0  0  0  0  0
  2  1  1  0
  4  6  1  0
  5  7  2  0
  6 10  1  0
  6  3  2  0
  7  3  1  0
  7  2  1  0
  8  4  2  0
  8  5  1  0
  9  8  1  0
 10 20  1  0
 11 20  1  0
 12 17  1  0
 13 14  1  0
 13 12  1  0
 15 14  1  0
 15 24  1  0
 15 16  1  0
 17 11  1  0
 17 16  1  0
 18 11  2  0
 20 19  1  0
 21 22  2  0
 22 41  1  0
 23 22  1  0
 23 26  1  0
 24 25  1  0
 24 21  1  0
 25 23  2  0
 26 27  1  0
 27 28  2  0
 29 32  1  0
 29 28  1  0
 30 29  2  0
 31 30  1  0
 31 26  2  0
 32 33  1  0
 33 34  1  0
 34 35  2  0
 36 35  1  0
 36 40  1  0
 37 36  2  0
 38 33  2  0
 38 37  1  0
 39 38  1  0
 41 42  1  0
 42 45  1  0
 42 44  1  0
 43 41  2  0
 46 47  1  0
 46 21  1  0
 48 46  1  0
 49 52  1  0
 49  2  1  0
 50 49  1  0
 51 49  1  0
 53 54  1  0
 53 52  1  0
 55 57  1  0
 55 54  1  0
 56 67  2  0
 57 62  1  0
 58 66  1  0
 58 68  1  0
 59 65  1  0
 59 61  1  0
 60 66  1  0
 61 62  2  0
 61 60  1  0
 63 64  1  0
 63 57  2  0
 64 59  2  0
 65 58  1  0
 66 56  1  0
 68 70  2  0
 69 68  1  0
 71 69  1  0
 72 81  2  0
 72 77  1  0
 73 69  1  0
 73 77  1  0
 74 73  1  0
 75 76  1  0
 75 74  1  0
 76 72  1  0
 77 78  2  0
 78 79  1  0
 80 79  2  0
 81 80  1  0
 82 56  1  0
 82 83  1  0
 82 92  1  0
 83 86  1  0
 84 88  1  0
 84 83  1  0
 85 84  2  0
 88 87  1  0
 90 88  1  0
 90 91  1  0
 90 89  1  0
 92 95  1  1
 92 93  1  0
 94 92  1  0
M  ISO  4  11 100  20 100  54 101  55 101
M  END
>  <TORSDO>  (65) 
F 22

>  <SCORE>  (65) 
-12.728

>  <name>  (65) 
66

>  <ligand_id>  (65) 
66

>  <original_smiles>  (65) 
[H]c1c([H])c([H])c2c(c1[H])C([H])([H])C([H])([H])C([H])([H])C2([H])N([H])C(=O)C1([H])N(C(=O)C([H])(N([H])C(=O)C([H])(N([H])C([H])([H])[H])C([H])([H])[H])C(C([H])([H])[H])(C([H])([H])[H])C([H])([H])[H])C([H])([H])c2c([H])c(OC([H])([H])C([H])([H])C([H])([H])[N+]([H])([H])C([H])(c3c([H])c(F)c([H])c(C([H])([H])N(C(=O)N4C([H])([H])C([H])([H])C([H])([H])C([H])(n5nc(-c6c([H])c([H])c(Oc7c([H])c([H])c(F)c([H])c7F)c([H])c6[H])c(C(=O)N([H])[H])c5N([H])[H])C4([H])[H])C([H])([H])[H])c3[H])C([H])([H])[H])c([H])c([H])c2C1([H])[H]

>  <smiles>  (65) 
[H]c1c([H])c([H])c2c(c1[H])C([H])([H])C([H])([H])C([H])([H])C2([H])N([H])C(=O)C1([H])N(C(=O)C([H])(N([H])C(=O)C([H])(N([H])C([H])([H])[H])C([H])([H])[H])C(C([H])([H])[H])(C([H])([H])[H])C([H])([H])[H])C([H])([H])c2c([H])c(OC([H])([H])C([H])([H])C([H])([H])[N+]([H])([H])C([H])(c3c([H])c(F)c([H])c(C([H])([H])N(C(=O)N4C([H])([H])C([H])([H])C([H])([H])C([H])(n5nc(-c6c([H])c([H])c(Oc7c([H])c([H])c(F)c([H])c7F)c([H])c6[H])c(C(=O)N([H])[H])c5N([H])[H])C4([H])[H])C([H])([H])[H])c3[H])C([H])([H])[H])c([H])c([H])c2C1([H])[H]

$$$$
67:0:0
     RDKit          3D

 95103  0  0  1  0  0  0  0  0999 V2000
  -32.3800  -23.6380   19.6510 C   0  0  0  0  0  1  0  0  0  0  0  0
  -31.2160  -23.4290   20.6320 C   0  0  0  0  0  3  0  0  0  0  0  0
  -30.6680  -19.7620   21.7090 C   0  0  0  0  0  3  0  0  0  0  0  0
  -29.9180  -19.9940   19.4130 C   0  0  0  0  0  3  0  0  0  0  0  0
  -30.9520  -21.1460   21.7520 C   0  0  0  0  0  3  0  0  0  0  0  0
  -30.2180  -21.3740   19.4500 C   0  0  0  0  0  3  0  0  0  0  0  0
  -30.1660  -19.1610   20.5310 C   0  0  0  0  0  0  0  0  0  0  0  0
  -30.7530  -21.9640   20.6180 C   0  0  0  0  0  0  0  0  0  0  0  0
  -29.8730  -17.6880   20.4380 C   0  0  0  0  0  0  0  0  0  0  0  0
  -29.2070  -17.2020   19.5170 O   0  0  0  0  0  0  0  0  0  0  0  0
  -30.4450  -16.7550   21.5290 C   0  0  0  0  0  2  0  0  0  0  0  0
  -30.6790  -14.4450   20.5670 C   0  0  0  0  0  0  0  0  0  0  0  0
  -30.3720  -12.3230   19.3390 C   0  0  0  0  0  2  0  0  0  0  0  0
  -29.4300  -12.5490   18.1390 C   0  0  0  0  0  2  0  0  0  0  0  0
  -27.9530  -12.4190   18.5630 C   0  0  0  0  0  2  0  0  0  0  0  0
  -27.6210  -13.2410   19.8360 C   0  0  0  0  0  3  0  0  0  0  0  0
  -28.6670  -12.9720   20.9410 C   0  0  0  0  0  2  0  0  0  0  0  0
  -30.0000  -13.2800   20.3920 N   0  0  0  0  0  0  0  0  0  0  0  0
  -31.7560  -14.6950   20.0190 O   0  0  0  0  0  0  0  0  0  0  0  0
  -30.0550  -15.3510   21.3330 N   0  0  0  0  0  0  0  0  0  0  0  0
  -29.1650  -15.0730   21.7160 H   0  0  0  0  0  0  0  0  0  0  0  0
  -25.2170  -13.8640   20.5180 C   0  0  0  0  0  0  0  0  0  0  0  0
  -24.1430  -13.0990   20.8870 C   0  0  0  0  0  0  0  0  0  0  0  0
  -24.5990  -11.7450   20.8680 C   0  0  0  0  0  0  0  0  0  0  0  0
  -26.2610  -12.9770   20.3030 N   0  0  0  0  0  0  0  0  0  0  0  0
  -25.8910  -11.6990   20.5700 N   0  0  0  0  0  0  0  0  0  0  0  0
  -23.8680  -10.4860   21.0640 C   0  0  0  0  0  0  0  0  0  0  0  0
  -24.3070   -9.5130   21.9870 C   0  0  0  0  0  3  0  0  0  0  0  0
  -23.5780   -8.3180   22.1700 C   0  0  0  0  0  3  0  0  0  0  0  0
  -22.3950   -8.0880   21.4300 C   0  0  0  0  0  0  0  0  0  0  0  0
  -21.9740   -9.0510   20.4940 C   0  0  0  0  0  3  0  0  0  0  0  0
  -22.7040  -10.2370   20.3100 C   0  0  0  0  0  3  0  0  0  0  0  0
  -21.6360   -6.9470   21.5220 O   0  0  0  0  0  0  0  0  0  0  0  0
  -21.6170   -6.1860   22.6630 C   0  0  0  0  0  0  0  0  0  0  0  0
  -21.2510   -6.7280   23.9140 C   0  0  0  0  0  3  0  0  0  0  0  0
  -21.1770   -5.8950   25.0490 C   0  0  0  0  0  3  0  0  0  0  0  0
  -21.4590   -4.5200   24.9330 C   0  0  0  0  0  0  0  0  0  0  0  0
  -21.8190   -3.9780   23.6860 C   0  0  0  0  0  3  0  0  0  0  0  0
  -21.8940   -4.8090   22.5540 C   0  0  0  0  0  0  0  0  0  0  0  0
  -22.2200   -4.2760   21.3510 F   0  0  0  0  0  0  0  0  0  0  0  0
  -21.3810   -3.7170   26.0200 F   0  0  0  0  0  0  0  0  0  0  0  0
  -22.7450  -13.5820   21.1470 C   0  0  0  0  0  0  0  0  0  0  0  0
  -22.0100  -12.8940   22.0130 N   0  0  0  0  0  0  0  0  0  0  0  0
  -22.3130  -14.6040   20.6170 O   0  0  0  0  0  0  0  0  0  0  0  0
  -22.3690  -12.0640   22.4620 H   0  0  0  0  0  0  0  0  0  0  0  0
  -21.0710  -13.2000   22.2290 H   0  0  0  0  0  0  0  0  0  0  0  0
  -25.3890  -15.2320   20.3290 N   0  0  0  0  0  0  0  0  0  0  0  0
  -24.6260  -15.8950   20.4220 H   0  0  0  0  0  0  0  0  0  0  0  0
  -26.2420  -15.6570   19.9850 H   0  0  0  0  0  0  0  0  0  0  0  0
  -30.1320  -24.4050   20.3520 N   0  0  0  0  0  4  0  0  0  0  0  0
  -30.5290  -25.1050   19.7470 H   0  0  0  0  0  0  0  0  0  0  0  0
  -29.3970  -23.9580   19.8260 H   0  0  0  0  0  0  0  0  0  0  0  0
  -29.5480  -25.1260   21.5160 C   0  0  0  0  0  2  0  0  0  0  0  0
  -29.2350  -26.6040   21.1920 C   0  0  0  0  0  2  0  0  0  0  0  0
  -28.3780  -26.6700   20.0530 O   0  0  0  0  0  0  0  0  0  0  0  0
  -24.6120  -31.8820   23.2230 C   0  0  0  0  0  0  0  0  0  0  0  0
  -27.2490  -27.4540   20.1300 C   0  0  0  0  0  0  0  0  0  0  0  0
  -23.3960  -30.4780   21.5880 C   0  0  0  0  0  3  0  0  0  0  0  0
  -24.8440  -28.9420   20.1570 C   0  0  0  0  0  0  0  0  0  0  0  0
  -25.9150  -30.8470   21.3680 C   0  0  0  0  0  2  0  0  0  0  0  0
  -26.0020  -29.4720   20.7390 C   0  0  0  0  0  0  0  0  0  0  0  0
  -27.2080  -28.7360   20.7320 C   0  0  0  0  0  3  0  0  0  0  0  0
  -26.0800  -26.9430   19.5340 C   0  0  0  0  0  3  0  0  0  0  0  0
  -24.8760  -27.6720   19.5540 C   0  0  0  0  0  3  0  0  0  0  0  0
  -23.5960  -29.7950   20.2090 C   0  0  0  0  0  2  0  0  0  0  0  0
  -24.6600  -31.0830   22.1190 N   0  0  0  0  0  0  0  0  0  0  0  0
  -23.5360  -32.1520   23.7720 O   0  0  0  0  0  0  0  0  0  0  0  0
  -22.7530  -29.4560   22.5540 C   0  0  0  0  0  0  0  0  0  0  0  0
  -21.4280  -29.2760   22.4390 N   0  0  0  0  0  0  0  0  0  0  0  0
  -23.4450  -28.8280   23.3600 O   0  0  0  0  0  0  0  0  0  0  0  0
  -20.9320  -29.8380   21.7610 H   0  0  0  0  0  0  0  0  0  0  0  0
  -18.0570  -28.0860   22.9610 C   0  0  0  0  0  0  0  0  0  0  0  0
  -20.6170  -28.3380   23.2150 C   0  0  0  0  0  3  0  0  0  0  0  0
  -20.7130  -26.9080   22.6350 C   0  0  0  0  0  2  0  0  0  0  0  0
  -19.6030  -26.5900   21.6280 C   0  0  0  0  0  2  0  0  0  0  0  0
  -18.2260  -26.7360   22.2830 C   0  0  0  0  0  2  0  0  0  0  0  0
  -19.1810  -28.8440   23.3840 C   0  0  0  0  0  0  0  0  0  0  0  0
  -18.9700  -30.1090   23.9760 C   0  0  0  0  0  3  0  0  0  0  0  0
  -17.6680  -30.6130   24.1520 C   0  0  0  0  0  3  0  0  0  0  0  0
  -16.5580  -29.8520   23.7450 C   0  0  0  0  0  3  0  0  0  0  0  0
  -16.7550  -28.5900   23.1550 C   0  0  0  0  0  3  0  0  0  0  0  0
  -25.9040  -32.5120   23.8320 C   0  0  0  0  0  3  0  0  0  0  0  0
  -25.5960  -33.9060   24.1740 N   0  0  0  0  0  0  0  0  0  0  0  0
  -25.9210  -34.9640   23.4180 C   0  0  0  0  0  0  0  0  0  0  0  0
  -26.5820  -34.8680   22.3800 O   0  0  0  0  0  0  0  0  0  0  0  0
  -25.0110  -34.0560   24.9820 H   0  0  0  0  0  0  0  0  0  0  0  0
  -24.1840  -36.7480   23.0850 C   0  0  0  0  0  1  0  0  0  0  0  0
  -25.4330  -36.3470   23.8850 C   0  0  0  0  0  3  0  0  0  0  0  0
  -27.5780  -37.2270   24.6960 C   0  0  0  0  0  1  0  0  0  0  0  0
  -26.4610  -37.4050   23.7720 N   0  0  0  0  0  0  0  0  0  0  0  0
  -26.0540  -38.3210   23.9410 H   0  0  0  0  0  0  0  0  0  0  0  0
  -26.4410  -31.7310   25.0930 C   0  0  1  0  0  0  0  0  0  0  0  0
  -25.3650  -31.4810   26.1740 C   0  0  0  0  0  1  0  0  0  0  0  0
  -27.0200  -30.3600   24.6740 C   0  0  0  0  0  1  0  0  0  0  0  0
  -27.6000  -32.5220   25.7460 C   0  0  0  0  0  1  0  0  0  0  0  0
  2  1  1  0
  3  5  1  0
  4  6  2  0
  4  7  1  0
  6  8  1  0
  7  3  2  0
  8  2  1  0
  8  5  2  0
  9  7  1  0
  9 11  1  0
 10  9  2  0
 12 20  1  0
 13 18  1  0
 14 15  1  0
 14 13  1  0
 16 15  1  0
 16 25  1  0
 16 17  1  0
 18 12  1  0
 18 17  1  0
 19 12  2  0
 20 11  1  0
 20 21  1  0
 22 23  2  0
 23 42  1  0
 24 23  1  0
 24 27  1  0
 25 22  1  0
 25 26  1  0
 26 24  2  0
 27 28  1  0
 28 29  2  0
 30 33  1  0
 30 29  1  0
 31 30  2  0
 32 31  1  0
 32 27  2  0
 33 34  1  0
 34 35  1  0
 35 36  2  0
 37 36  1  0
 37 41  1  0
 38 37  2  0
 39 34  2  0
 39 38  1  0
 40 39  1  0
 42 43  1  0
 43 46  1  0
 43 45  1  0
 44 42  2  0
 47 48  1  0
 47 22  1  0
 49 47  1  0
 50  2  1  0
 50 53  1  0
 51 50  1  0
 52 50  1  0
 54 53  1  0
 55 57  1  0
 55 54  1  0
 56 67  2  0
 57 62  1  0
 58 66  1  0
 58 68  1  0
 59 65  1  0
 59 61  1  0
 60 66  1  0
 61 60  1  0
 62 61  2  0
 63 64  1  0
 63 57  2  0
 64 59  2  0
 65 58  1  0
 66 56  1  0
 68 70  2  0
 69 68  1  0
 71 69  1  0
 72 81  2  0
 72 77  1  0
 73 69  1  0
 73 77  1  0
 74 73  1  0
 75 76  1  0
 75 74  1  0
 76 72  1  0
 77 78  2  0
 78 79  1  0
 80 79  2  0
 81 80  1  0
 82 56  1  0
 82 83  1  0
 82 92  1  0
 83 86  1  0
 84 88  1  0
 84 83  1  0
 85 84  2  0
 88 87  1  0
 90 88  1  0
 90 91  1  0
 90 89  1  0
 92 95  1  1
 92 93  1  0
 94 92  1  0
M  ISO  4  12 100  20 100  54 101  55 101
M  END
>  <TORSDO>  (66) 
F 22

>  <SCORE>  (66) 
-13.381

>  <name>  (66) 
67

>  <ligand_id>  (66) 
67

>  <original_smiles>  (66) 
[H]c1c([H])c([H])c2c(c1[H])C([H])([H])C([H])([H])C([H])([H])C2([H])N([H])C(=O)C1([H])N(C(=O)C([H])(N([H])C(=O)C([H])(N([H])C([H])([H])[H])C([H])([H])[H])C(C([H])([H])[H])(C([H])([H])[H])C([H])([H])[H])C([H])([H])c2c([H])c(OC([H])([H])C([H])([H])[N+]([H])([H])C([H])(c3c([H])c([H])c(C(=O)C([H])([H])N([H])C(=O)N4C([H])([H])C([H])([H])C([H])([H])C([H])(n5nc(-c6c([H])c([H])c(Oc7c([H])c([H])c(F)c([H])c7F)c([H])c6[H])c(C(=O)N([H])[H])c5N([H])[H])C4([H])[H])c([H])c3[H])C([H])([H])[H])c([H])c([H])c2C1([H])[H]

>  <smiles>  (66) 
[H]c1c([H])c([H])c2c(c1[H])C([H])([H])C([H])([H])C([H])([H])C2([H])N([H])C(=O)C1([H])N(C(=O)C([H])(N([H])C(=O)C([H])(N([H])C([H])([H])[H])C([H])([H])[H])C(C([H])([H])[H])(C([H])([H])[H])C([H])([H])[H])C([H])([H])c2c([H])c(OC([H])([H])C([H])([H])[N+]([H])([H])C([H])(c3c([H])c([H])c(C(=O)C([H])([H])N([H])C(=O)N4C([H])([H])C([H])([H])C([H])([H])C([H])(n5nc(-c6c([H])c([H])c(Oc7c([H])c([H])c(F)c([H])c7F)c([H])c6[H])c(C(=O)N([H])[H])c5N([H])[H])C4([H])[H])c([H])c3[H])C([H])([H])[H])c([H])c([H])c2C1([H])[H]

$$$$
68:0:0
     RDKit          3D

 93101  0  0  1  0  0  0  0  0999 V2000
  -28.1310  -19.6660   20.4160 C   0  0  0  0  0  3  0  0  0  0  0  0
  -27.1780  -20.6940   20.5790 C   0  0  0  0  0  3  0  0  0  0  0  0
  -29.8350  -21.3800   20.1660 C   0  0  0  0  0  3  0  0  0  0  0  0
  -29.5010  -19.9660   20.2490 C   0  0  0  0  0  0  0  0  0  0  0  0
  -28.8820  -22.4650   20.3020 C   0  0  0  0  0  0  0  0  0  0  0  0
  -27.5430  -22.0620   20.5860 C   0  0  0  0  0  0  0  0  0  0  0  0
  -26.5420  -22.9640   20.9330 N   0  0  0  0  0  0  0  0  0  0  0  0
  -25.8000  -22.6200   21.5380 H   0  0  0  0  0  0  0  0  0  0  0  0
  -26.8410  -23.8910   21.2150 H   0  0  0  0  0  0  0  0  0  0  0  0
  -30.5400  -18.8090   20.3210 C   0  0  0  0  0  0  0  0  0  0  0  0
  -31.5980  -18.9700   20.9360 O   0  0  0  0  0  0  0  0  0  0  0  0
  -30.3850  -17.4290   19.5390 C   0  0  0  0  0  2  0  0  0  0  0  0
  -31.0510  -14.9630   20.1530 C   0  0  0  0  0  0  0  0  0  0  0  0
  -30.8010  -12.6650   19.2480 C   0  0  0  0  0  2  0  0  0  0  0  0
  -29.8740  -12.7640   18.0180 C   0  0  0  0  0  2  0  0  0  0  0  0
  -28.3990  -12.6260   18.4430 C   0  0  0  0  0  2  0  0  0  0  0  0
  -28.0390  -13.5220   19.6590 C   0  0  0  0  0  3  0  0  0  0  0  0
  -29.1000  -13.4550   20.7810 C   0  0  0  0  0  2  0  0  0  0  0  0
  -30.4090  -13.7460   20.1750 N   0  0  0  0  0  0  0  0  0  0  0  0
  -32.2230  -15.0390   19.7830 O   0  0  0  0  0  0  0  0  0  0  0  0
  -30.2780  -16.0980   20.2850 N   0  0  0  0  0  0  0  0  0  0  0  0
  -29.3510  -15.9190   20.6440 H   0  0  0  0  0  0  0  0  0  0  0  0
  -25.6700  -14.1600   20.3990 C   0  0  0  0  0  0  0  0  0  0  0  0
  -24.5870  -13.4100   20.7770 C   0  0  0  0  0  0  0  0  0  0  0  0
  -25.0170  -12.0480   20.7360 C   0  0  0  0  0  0  0  0  0  0  0  0
  -26.6910  -13.2560   20.1550 N   0  0  0  0  0  0  0  0  0  0  0  0
  -26.3050  -11.9790   20.4140 N   0  0  0  0  0  0  0  0  0  0  0  0
  -24.2620  -10.8030   20.9230 C   0  0  0  0  0  0  0  0  0  0  0  0
  -24.6430   -9.8400   21.8840 C   0  0  0  0  0  3  0  0  0  0  0  0
  -23.8820   -8.6640   22.0610 C   0  0  0  0  0  3  0  0  0  0  0  0
  -22.7270   -8.4430   21.2770 C   0  0  0  0  0  0  0  0  0  0  0  0
  -22.3680   -9.3900   20.3030 C   0  0  0  0  0  3  0  0  0  0  0  0
  -23.1280  -10.5580   20.1240 C   0  0  0  0  0  3  0  0  0  0  0  0
  -21.9450   -7.3150   21.3590 O   0  0  0  0  0  0  0  0  0  0  0  0
  -21.8140   -6.6100   22.5300 C   0  0  0  0  0  0  0  0  0  0  0  0
  -21.2980   -7.2030   23.7020 C   0  0  0  0  0  3  0  0  0  0  0  0
  -21.1180   -6.4270   24.8640 C   0  0  0  0  0  3  0  0  0  0  0  0
  -21.4430   -5.0590   24.8540 C   0  0  0  0  0  0  0  0  0  0  0  0
  -21.9540   -4.4640   23.6880 C   0  0  0  0  0  3  0  0  0  0  0  0
  -22.1370   -5.2380   22.5280 C   0  0  0  0  0  0  0  0  0  0  0  0
  -22.6100   -4.6540   21.4020 F   0  0  0  0  0  0  0  0  0  0  0  0
  -21.2630   -4.3120   25.9710 F   0  0  0  0  0  0  0  0  0  0  0  0
  -23.2050  -13.9240   21.0570 C   0  0  0  0  0  0  0  0  0  0  0  0
  -22.4640  -13.2410   21.9230 N   0  0  0  0  0  0  0  0  0  0  0  0
  -22.7890  -14.9620   20.5490 O   0  0  0  0  0  0  0  0  0  0  0  0
  -22.8100  -12.4000   22.3640 H   0  0  0  0  0  0  0  0  0  0  0  0
  -21.5360  -13.5630   22.1480 H   0  0  0  0  0  0  0  0  0  0  0  0
  -25.8670  -15.5270   20.2170 N   0  0  0  0  0  0  0  0  0  0  0  0
  -25.1090  -16.1990   20.2940 H   0  0  0  0  0  0  0  0  0  0  0  0
  -26.6960  -15.9250   19.8000 H   0  0  0  0  0  0  0  0  0  0  0  0
  -29.3390  -24.0040   20.2370 C   0  0  0  0  0  3  0  0  0  0  0  0
  -28.2990  -25.1750   19.8450 C   0  0  0  0  0  3  0  0  0  0  0  0
  -28.5940  -26.6400   19.9260 O   0  0  0  0  0  0  0  0  0  0  0  0
  -24.6460  -31.7150   23.2150 C   0  0  0  0  0  0  0  0  0  0  0  0
  -27.4790  -27.5050   19.8790 C   0  0  0  0  0  0  0  0  0  0  0  0
  -23.5300  -30.4180   21.4360 C   0  0  0  0  0  3  0  0  0  0  0  0
  -25.0670  -29.0520   19.9250 C   0  0  0  0  0  0  0  0  0  0  0  0
  -26.0550  -30.8530   21.3280 C   0  0  0  0  0  2  0  0  0  0  0  0
  -26.2070  -29.5270   20.5840 C   0  0  0  0  0  0  0  0  0  0  0  0
  -27.4170  -28.7660   20.5530 C   0  0  0  0  0  3  0  0  0  0  0  0
  -26.3160  -27.1080   19.1730 C   0  0  0  0  0  3  0  0  0  0  0  0
  -25.1250  -27.8520   19.2060 C   0  0  0  0  0  3  0  0  0  0  0  0
  -23.8030  -29.8780   20.0100 C   0  0  0  0  0  2  0  0  0  0  0  0
  -24.7640  -31.0040   22.0560 N   0  0  0  0  0  0  0  0  0  0  0  0
  -23.5390  -31.9060   23.7440 O   0  0  0  0  0  0  0  0  0  0  0  0
  -22.8820  -29.3000   22.2890 C   0  0  0  0  0  0  0  0  0  0  0  0
  -21.5610  -29.1090   22.1300 N   0  0  0  0  0  0  0  0  0  0  0  0
  -23.5660  -28.6140   23.0550 O   0  0  0  0  0  0  0  0  0  0  0  0
  -21.0680  -29.7140   21.4900 H   0  0  0  0  0  0  0  0  0  0  0  0
  -18.1930  -27.8490   22.5450 C   0  0  0  0  0  0  0  0  0  0  0  0
  -20.7560  -28.0890   22.8060 C   0  0  0  0  0  3  0  0  0  0  0  0
  -20.8540  -26.7320   22.0720 C   0  0  0  0  0  2  0  0  0  0  0  0
  -19.7350  -26.5160   21.0450 C   0  0  0  0  0  2  0  0  0  0  0  0
  -18.3630  -26.5830   21.7210 C   0  0  0  0  0  2  0  0  0  0  0  0
  -19.3170  -28.5620   23.0410 C   0  0  0  0  0  0  0  0  0  0  0  0
  -19.1010  -29.7490   23.7750 C   0  0  0  0  0  3  0  0  0  0  0  0
  -17.7970  -30.2240   24.0130 C   0  0  0  0  0  3  0  0  0  0  0  0
  -16.6900  -29.5070   23.5280 C   0  0  0  0  0  3  0  0  0  0  0  0
  -16.8900  -28.3200   22.8020 C   0  0  0  0  0  3  0  0  0  0  0  0
  -25.8890  -32.3340   23.9230 C   0  0  0  0  0  3  0  0  0  0  0  0
  -25.5510  -33.7200   24.2830 N   0  0  0  0  0  0  0  0  0  0  0  0
  -25.8720  -34.7940   23.5480 C   0  0  0  0  0  0  0  0  0  0  0  0
  -26.5560  -34.7230   22.5230 O   0  0  0  0  0  0  0  0  0  0  0  0
  -24.9390  -33.8460   25.0760 H   0  0  0  0  0  0  0  0  0  0  0  0
  -24.1010  -36.5560   23.2220 C   0  0  0  0  0  1  0  0  0  0  0  0
  -25.3540  -36.1660   24.0250 C   0  0  0  0  0  3  0  0  0  0  0  0
  -27.4680  -37.0970   24.8620 C   0  0  0  0  0  1  0  0  0  0  0  0
  -26.3630  -37.2440   23.9190 N   0  0  0  0  0  0  0  0  0  0  0  0
  -25.9380  -38.1560   24.0660 H   0  0  0  0  0  0  0  0  0  0  0  0
  -26.3420  -31.5170   25.1950 C   0  0  1  0  0  0  0  0  0  0  0  0
  -25.1970  -31.2390   26.1950 C   0  0  0  0  0  1  0  0  0  0  0  0
  -26.9410  -30.1520   24.7790 C   0  0  0  0  0  1  0  0  0  0  0  0
  -27.4570  -32.2860   25.9430 C   0  0  0  0  0  1  0  0  0  0  0  0
  1  2  1  0
  2  6  2  0
  3  4  1  0
  3  5  2  0
  4 10  1  0
  4  1  2  0
  5  6  1  0
  6  7  1  0
  7  9  1  0
  7  8  1  0
 10 11  2  0
 12 21  1  0
 12 10  1  0
 13 19  1  0
 13 21  1  0
 14 19  1  0
 15 16  1  0
 15 14  1  0
 17 16  1  0
 17 26  1  0
 17 18  1  0
 19 18  1  0
 20 13  2  0
 21 22  1  0
 23 24  2  0
 24 43  1  0
 25 24  1  0
 25 28  1  0
 26 23  1  0
 26 27  1  0
 27 25  2  0
 28 29  1  0
 29 30  2  0
 31 34  1  0
 31 30  1  0
 32 31  2  0
 33 32  1  0
 33 28  2  0
 34 35  1  0
 35 36  1  0
 36 37  2  0
 38 37  1  0
 38 42  1  0
 39 38  2  0
 40 35  2  0
 40 39  1  0
 41 40  1  0
 43 44  1  0
 44 47  1  0
 44 46  1  0
 45 43  2  0
 48 49  1  0
 48 23  1  0
 50 48  1  0
 51  5  1  0
 52 53  1  0
 52 51  2  0
 54 65  2  0
 55 53  1  0
 55 60  1  0
 56 64  1  0
 56 66  1  0
 57 63  1  0
 57 59  1  0
 58 64  1  0
 59 58  1  0
 60 59  2  0
 61 62  1  0
 61 55  2  0
 62 57  2  0
 63 56  1  0
 64 54  1  0
 66 68  2  0
 67 66  1  0
 69 67  1  0
 70 79  2  0
 70 75  1  0
 71 67  1  0
 71 75  1  0
 72 71  1  0
 73 74  1  0
 73 72  1  0
 74 70  1  0
 75 76  2  0
 76 77  1  0
 78 77  2  0
 79 78  1  0
 80 54  1  0
 80 81  1  0
 80 90  1  0
 81 84  1  0
 82 86  1  0
 82 81  1  0
 83 82  2  0
 86 85  1  0
 88 86  1  0
 88 89  1  0
 88 87  1  0
 90 93  1  1
 90 91  1  0
 92 90  1  0
M  ISO  4  13 100  21 100  52 101  53 101
M  END
>  <TORSDO>  (67) 
F 21

>  <SCORE>  (67) 
-12.477

>  <name>  (67) 
68

>  <ligand_id>  (67) 
68

>  <original_smiles>  (67) 
[H]c1c([H])c([H])c2c(c1[H])C([H])([H])C([H])([H])C([H])([H])C2([H])N([H])C(=O)C1([H])N(C(=O)C([H])(N([H])C(=O)C([H])(N([H])C([H])([H])[H])C([H])([H])[H])C(C([H])([H])[H])(C([H])([H])[H])C([H])([H])[H])C([H])([H])c2c([H])c(OC([H])([H])C([H])([H])c3c([H])c(C(=O)C([H])([H])N([H])C(=O)N4C([H])([H])C([H])([H])C([H])([H])C([H])(n5nc(-c6c([H])c([H])c(Oc7c([H])c([H])c(F)c([H])c7F)c([H])c6[H])c(C(=O)N([H])[H])c5N([H])[H])C4([H])[H])c([H])c([H])c3N([H])[H])c([H])c([H])c2C1([H])[H]

>  <smiles>  (67) 
[H]c1c([H])c([H])c2c(c1[H])C([H])([H])C([H])([H])C([H])([H])C2([H])N([H])C(=O)C1([H])N(C(=O)C([H])(N([H])C(=O)C([H])(N([H])C([H])([H])[H])C([H])([H])[H])C(C([H])([H])[H])(C([H])([H])[H])C([H])([H])[H])C([H])([H])c2c([H])c(OC([H])([H])C([H])([H])c3c([H])c(C(=O)C([H])([H])N([H])C(=O)N4C([H])([H])C([H])([H])C([H])([H])C([H])(n5nc(-c6c([H])c([H])c(Oc7c([H])c([H])c(F)c([H])c7F)c([H])c6[H])c(C(=O)N([H])[H])c5N([H])[H])C4([H])[H])c([H])c([H])c3N([H])[H])c([H])c([H])c2C1([H])[H]

$$$$
69:0:0
     RDKit          3D

 94102  0  0  1  0  0  0  0  0999 V2000
  -29.6950  -19.9050   20.4370 C   0  0  0  0  0  3  0  0  0  0  0  0
  -28.3130  -18.2800   19.2740 C   0  0  0  0  0  3  0  0  0  0  0  0
  -29.5010  -18.5380   19.9840 C   0  0  0  0  0  0  0  0  0  0  0  0
  -28.7550  -20.9810   20.1880 C   0  0  0  0  0  0  0  0  0  0  0  0
  -27.5760  -20.6220   19.4890 C   0  0  0  0  0  0  0  0  0  0  0  0
  -27.3680  -19.2970   19.0340 C   0  0  0  0  0  0  0  0  0  0  0  0
  -26.2370  -18.9940   18.3540 F   0  0  0  0  0  0  0  0  0  0  0  0
  -26.5940  -21.5470   19.2700 O   0  0  0  0  0  0  0  0  0  0  0  0
  -26.8050  -22.3870   19.6580 H   0  0  0  0  0  0  0  0  0  0  0  0
  -28.9000  -22.4450   20.7920 C   0  0  0  0  0  2  0  0  0  0  0  0
  -28.6940  -23.8050   19.9390 C   0  0  0  0  0  3  0  0  0  0  0  0
  -28.2820  -25.1360   20.7480 C   0  0  0  0  0  3  0  0  0  0  0  0
  -28.4070  -26.5060   20.1790 O   0  0  0  0  0  0  0  0  0  0  0  0
  -24.5640  -31.8360   23.2340 C   0  0  0  0  0  0  0  0  0  0  0  0
  -27.2830  -27.3440   20.1780 C   0  0  0  0  0  0  0  0  0  0  0  0
  -23.4110  -30.4570   21.5420 C   0  0  0  0  0  3  0  0  0  0  0  0
  -24.9080  -28.9350   20.1300 C   0  0  0  0  0  0  0  0  0  0  0  0
  -25.9500  -30.7990   21.4230 C   0  0  0  0  0  2  0  0  0  0  0  0
  -26.0580  -29.4280   20.7600 C   0  0  0  0  0  0  0  0  0  0  0  0
  -27.2520  -28.6460   20.7690 C   0  0  0  0  0  3  0  0  0  0  0  0
  -26.1130  -26.8980   19.5320 C   0  0  0  0  0  3  0  0  0  0  0  0
  -24.9370  -27.6760   19.5050 C   0  0  0  0  0  3  0  0  0  0  0  0
  -23.6640  -29.8010   20.1590 C   0  0  0  0  0  2  0  0  0  0  0  0
  -24.6590  -31.0480   22.1240 N   0  0  0  0  0  0  0  0  0  0  0  0
  -23.4660  -32.0970   23.7480 O   0  0  0  0  0  0  0  0  0  0  0  0
  -22.7330  -29.4210   22.4700 C   0  0  0  0  0  0  0  0  0  0  0  0
  -21.4040  -29.2680   22.3380 N   0  0  0  0  0  0  0  0  0  0  0  0
  -23.4010  -28.7590   23.2690 O   0  0  0  0  0  0  0  0  0  0  0  0
  -20.9240  -29.8530   21.6670 H   0  0  0  0  0  0  0  0  0  0  0  0
  -18.0010  -28.1490   22.8420 C   0  0  0  0  0  0  0  0  0  0  0  0
  -20.5710  -28.3190   23.0770 C   0  0  0  0  0  3  0  0  0  0  0  0
  -20.6190  -26.9150   22.4320 C   0  0  0  0  0  2  0  0  0  0  0  0
  -19.4900  -26.6770   21.4230 C   0  0  0  0  0  2  0  0  0  0  0  0
  -18.1250  -26.8310   22.0990 C   0  0  0  0  0  2  0  0  0  0  0  0
  -19.1500  -28.8560   23.2880 C   0  0  0  0  0  0  0  0  0  0  0  0
  -18.9790  -30.0950   23.9440 C   0  0  0  0  0  3  0  0  0  0  0  0
  -17.6930  -30.6260   24.1580 C   0  0  0  0  0  3  0  0  0  0  0  0
  -16.5590  -29.9150   23.7280 C   0  0  0  0  0  3  0  0  0  0  0  0
  -16.7140  -28.6780   23.0760 C   0  0  0  0  0  3  0  0  0  0  0  0
  -25.8260  -32.4680   23.9000 C   0  0  0  0  0  3  0  0  0  0  0  0
  -25.5130  -33.8710   24.2080 N   0  0  0  0  0  0  0  0  0  0  0  0
  -25.8800  -34.9160   23.4550 C   0  0  0  0  0  0  0  0  0  0  0  0
  -26.5860  -34.8010   22.4500 O   0  0  0  0  0  0  0  0  0  0  0  0
  -24.8900  -34.0340   24.9860 H   0  0  0  0  0  0  0  0  0  0  0  0
  -24.1820  -36.7210   23.0220 C   0  0  0  0  0  1  0  0  0  0  0  0
  -25.3850  -36.3110   23.8840 C   0  0  0  0  0  3  0  0  0  0  0  0
  -27.4890  -37.1880   24.8010 C   0  0  0  0  0  1  0  0  0  0  0  0
  -26.4300  -37.3550   23.8090 N   0  0  0  0  0  0  0  0  0  0  0  0
  -26.0250  -38.2800   23.9290 H   0  0  0  0  0  0  0  0  0  0  0  0
  -26.2890  -31.7040   25.2010 C   0  0  1  0  0  0  0  0  0  0  0  0
  -25.1560  -31.4820   26.2290 C   0  0  0  0  0  1  0  0  0  0  0  0
  -26.8790  -30.3200   24.8440 C   0  0  0  0  0  1  0  0  0  0  0  0
  -27.4190  -32.4980   25.9000 C   0  0  0  0  0  1  0  0  0  0  0  0
  -30.5840  -17.3830   20.1030 C   0  0  0  0  0  3  0  0  0  0  0  0
  -30.8740  -14.7830   20.3950 C   0  0  0  0  0  0  0  0  0  0  0  0
  -30.6340  -12.5040   19.4340 C   0  0  0  0  0  2  0  0  0  0  0  0
  -29.7290  -12.5840   18.1860 C   0  0  0  0  0  2  0  0  0  0  0  0
  -28.2470  -12.4480   18.5860 C   0  0  0  0  0  2  0  0  0  0  0  0
  -27.8600  -13.3600   19.7810 C   0  0  0  0  0  3  0  0  0  0  0  0
  -28.8930  -13.2800   20.9250 C   0  0  0  0  0  2  0  0  0  0  0  0
  -30.2080  -13.5840   20.3490 N   0  0  0  0  0  0  0  0  0  0  0  0
  -32.0870  -14.8130   20.1800 O   0  0  0  0  0  0  0  0  0  0  0  0
  -30.1320  -15.9530   20.4140 N   0  0  0  0  0  0  0  0  0  0  0  0
  -29.1460  -15.8340   20.5790 H   0  0  0  0  0  0  0  0  0  0  0  0
  -25.4640  -13.9860   20.4490 C   0  0  0  0  0  0  0  0  0  0  0  0
  -24.3830  -13.2290   20.8080 C   0  0  0  0  0  0  0  0  0  0  0  0
  -24.8320  -11.8740   20.8100 C   0  0  0  0  0  0  0  0  0  0  0  0
  -26.5040  -13.0930   20.2500 N   0  0  0  0  0  0  0  0  0  0  0  0
  -26.1300  -11.8190   20.5310 N   0  0  0  0  0  0  0  0  0  0  0  0
  -24.0880  -10.6220   21.0020 C   0  0  0  0  0  0  0  0  0  0  0  0
  -24.4890   -9.6630   21.9580 C   0  0  0  0  0  3  0  0  0  0  0  0
  -23.7450   -8.4770   22.1380 C   0  0  0  0  0  3  0  0  0  0  0  0
  -22.5860   -8.2410   21.3600 C   0  0  0  0  0  0  0  0  0  0  0  0
  -22.2050   -9.1880   20.3930 C   0  0  0  0  0  3  0  0  0  0  0  0
  -22.9500  -10.3650   20.2120 C   0  0  0  0  0  3  0  0  0  0  0  0
  -21.8170   -7.1060   21.4490 O   0  0  0  0  0  0  0  0  0  0  0  0
  -21.7380   -6.3780   22.6090 C   0  0  0  0  0  0  0  0  0  0  0  0
  -21.2830   -6.9480   23.8180 C   0  0  0  0  0  3  0  0  0  0  0  0
  -21.1510   -6.1460   24.9690 C   0  0  0  0  0  3  0  0  0  0  0  0
  -21.4650   -4.7740   24.9120 C   0  0  0  0  0  0  0  0  0  0  0  0
  -21.9140   -4.2040   23.7090 C   0  0  0  0  0  3  0  0  0  0  0  0
  -22.0470   -5.0040   22.5590 C   0  0  0  0  0  0  0  0  0  0  0  0
  -22.4600   -4.4440   21.3960 F   0  0  0  0  0  0  0  0  0  0  0  0
  -21.3310   -4.0030   26.0160 F   0  0  0  0  0  0  0  0  0  0  0  0
  -22.9840  -13.7250   21.0370 C   0  0  0  0  0  0  0  0  0  0  0  0
  -22.2290  -13.0560   21.9010 N   0  0  0  0  0  0  0  0  0  0  0  0
  -22.5680  -14.7420   20.4820 O   0  0  0  0  0  0  0  0  0  0  0  0
  -22.5780  -12.2340   22.3710 H   0  0  0  0  0  0  0  0  0  0  0  0
  -21.2900  -13.3710   22.0950 H   0  0  0  0  0  0  0  0  0  0  0  0
  -25.6410  -15.3510   20.2500 N   0  0  0  0  0  0  0  0  0  0  0  0
  -24.8710  -16.0070   20.3160 H   0  0  0  0  0  0  0  0  0  0  0  0
  -26.4840  -15.7700   19.8850 H   0  0  0  0  0  0  0  0  0  0  0  0
  -31.9800  -18.7300   18.3230 C   0  0  0  0  0  1  0  0  0  0  0  0
  -31.4200  -17.3750   18.7870 C   0  0  0  0  0  2  0  0  0  0  0  0
  2  3  1  0
  3 54  1  0
  3  1  2  0
  4  1  1  0
  4 10  1  0
  5  4  2  0
  6  2  2  0
  6  5  1  0
  7  6  1  0
  8  5  1  0
  8  9  1  0
 11 12  2  0
 11 10  1  0
 13 12  1  0
 14 25  2  0
 15 13  1  0
 15 20  1  0
 16 24  1  0
 16 26  1  0
 17 23  1  0
 17 19  1  0
 18 24  1  0
 19 20  2  0
 19 18  1  0
 21 15  2  0
 22 21  1  0
 22 17  2  0
 23 16  1  0
 24 14  1  0
 26 28  2  0
 27 26  1  0
 29 27  1  0
 30 39  2  0
 30 35  1  0
 31 27  1  0
 31 35  1  0
 32 31  1  0
 33 34  1  0
 33 32  1  0
 34 30  1  0
 35 36  2  0
 36 37  1  0
 38 37  2  0
 39 38  1  0
 40 14  1  0
 40 41  1  0
 40 50  1  0
 41 44  1  0
 42 46  1  0
 42 41  1  0
 43 42  2  0
 46 45  1  0
 48 46  1  0
 48 49  1  0
 48 47  1  0
 50 53  1  1
 50 51  1  0
 52 50  1  0
 54 94  1  0
 54 63  1  0
 55 63  1  0
 56 61  1  0
 57 58  1  0
 57 56  1  0
 59 58  1  0
 59 68  1  0
 59 60  1  0
 61 55  1  0
 61 60  1  0
 62 55  2  0
 63 64  1  0
 65 66  2  0
 66 67  1  0
 66 85  1  0
 67 70  1  0
 68 65  1  0
 68 69  1  0
 69 67  2  0
 70 71  1  0
 71 72  2  0
 73 76  1  0
 73 72  1  0
 74 73  2  0
 75 74  1  0
 75 70  2  0
 76 77  1  0
 77 78  1  0
 78 79  2  0
 80 79  1  0
 80 84  1  0
 81 80  2  0
 82 77  2  0
 82 81  1  0
 83 82  1  0
 85 86  1  0
 86 89  1  0
 86 88  1  0
 87 85  2  0
 90 91  1  0
 90 65  1  0
 92 90  1  0
 93 94  1  0
M  ISO  4  12 101  13 101  55 100  63 100
M  END
>  <TORSDO>  (68) 
F 22

>  <SCORE>  (68) 
-13.363

>  <name>  (68) 
69

>  <ligand_id>  (68) 
69

>  <original_smiles>  (68) 
[H]Oc1c(F)c([H])c(C([H])(N([H])C(=O)N2C([H])([H])C([H])([H])C([H])([H])C([H])(n3nc(-c4c([H])c([H])c(Oc5c([H])c([H])c(F)c([H])c5F)c([H])c4[H])c(C(=O)N([H])[H])c3N([H])[H])C2([H])[H])C([H])([H])C([H])([H])[H])c([H])c1C([H])([H])C([H])([H])C([H])([H])Oc1c([H])c([H])c2c(c1[H])C([H])([H])N(C(=O)C([H])(N([H])C(=O)C([H])(N([H])C([H])([H])[H])C([H])([H])[H])C(C([H])([H])[H])(C([H])([H])[H])C([H])([H])[H])C([H])(C(=O)N([H])C1([H])c3c([H])c([H])c([H])c([H])c3C([H])([H])C([H])([H])C1([H])[H])C2([H])[H]

>  <smiles>  (68) 
[H]Oc1c(F)c([H])c(C([H])(N([H])C(=O)N2C([H])([H])C([H])([H])C([H])([H])C([H])(n3nc(-c4c([H])c([H])c(Oc5c([H])c([H])c(F)c([H])c5F)c([H])c4[H])c(C(=O)N([H])[H])c3N([H])[H])C2([H])[H])C([H])([H])C([H])([H])[H])c([H])c1C([H])([H])C([H])([H])C([H])([H])Oc1c([H])c([H])c2c(c1[H])C([H])([H])N(C(=O)C([H])(N([H])C(=O)C([H])(N([H])C([H])([H])[H])C([H])([H])[H])C(C([H])([H])[H])(C([H])([H])[H])C([H])([H])[H])C([H])(C(=O)N([H])C1([H])c3c([H])c([H])c([H])c([H])c3C([H])([H])C([H])([H])C1([H])[H])C2([H])[H]

$$$$
70:0:0
     RDKit          3D

 99107  0  0  1  0  0  0  0  0999 V2000
  -29.8350  -22.9680   21.1210 C   0  0  0  0  0  2  0  0  0  0  0  0
  -31.0510  -19.6290   22.5090 C   0  0  0  0  0  3  0  0  0  0  0  0
  -30.8530  -21.0110   22.3510 C   0  0  0  0  0  3  0  0  0  0  0  0
  -29.3910  -20.5730   20.4470 C   0  0  0  0  0  3  0  0  0  0  0  0
  -30.4350  -18.7120   21.6280 C   0  0  0  0  0  0  0  0  0  0  0  0
  -30.0320  -21.4830   21.3100 C   0  0  0  0  0  0  0  0  0  0  0  0
  -29.5820  -19.1750   20.5920 C   0  0  0  0  0  0  0  0  0  0  0  0
  -28.4200  -18.7160   18.5310 C   0  0  0  0  0  1  0  0  0  0  0  0
  -29.0020  -18.2500   19.7430 O   0  0  0  0  0  0  0  0  0  0  0  0
  -30.6900  -17.2650   21.8240 C   0  0  0  0  0  0  0  0  0  0  0  0
  -30.2080  -16.5890   22.7420 O   0  0  0  0  0  0  0  0  0  0  0  0
  -31.5470  -16.5870   20.7530 C   0  0  0  0  0  2  0  0  0  0  0  0
  -31.3430  -14.3970   19.6010 C   0  0  0  0  0  0  0  0  0  0  0  0
  -30.8630  -12.1730   18.6560 C   0  0  0  0  0  2  0  0  0  0  0  0
  -29.8020  -12.2420   17.5450 C   0  0  0  0  0  2  0  0  0  0  0  0
  -28.3820  -12.1670   18.1390 C   0  0  0  0  0  2  0  0  0  0  0  0
  -28.1730  -13.1700   19.3040 C   0  0  0  0  0  3  0  0  0  0  0  0
  -29.3280  -13.0690   20.3230 C   0  0  0  0  0  2  0  0  0  0  0  0
  -30.6090  -13.2580   19.6100 N   0  0  0  0  0  0  0  0  0  0  0  0
  -32.2320  -14.6440   18.7810 O   0  0  0  0  0  0  0  0  0  0  0  0
  -31.0690  -15.2220   20.6060 N   0  0  0  0  0  0  0  0  0  0  0  0
  -30.3460  -14.9450   21.2550 H   0  0  0  0  0  0  0  0  0  0  0  0
  -25.9710  -13.9220   20.4130 C   0  0  0  0  0  0  0  0  0  0  0  0
  -24.8880  -13.2170   20.8620 C   0  0  0  0  0  0  0  0  0  0  0  0
  -25.1930  -11.8400   20.6360 C   0  0  0  0  0  0  0  0  0  0  0  0
  -26.8750  -12.9780   19.9490 N   0  0  0  0  0  0  0  0  0  0  0  0
  -26.4150  -11.7140   20.1360 N   0  0  0  0  0  0  0  0  0  0  0  0
  -24.3690  -10.6370   20.8150 C   0  0  0  0  0  0  0  0  0  0  0  0
  -24.7730   -9.5850   21.6680 C   0  0  0  0  0  3  0  0  0  0  0  0
  -23.9580   -8.4470   21.8370 C   0  0  0  0  0  3  0  0  0  0  0  0
  -22.7220   -8.3500   21.1540 C   0  0  0  0  0  0  0  0  0  0  0  0
  -22.3340   -9.3900   20.2890 C   0  0  0  0  0  3  0  0  0  0  0  0
  -23.1500  -10.5210   20.1190 C   0  0  0  0  0  3  0  0  0  0  0  0
  -21.8760   -7.2720   21.2360 O   0  0  0  0  0  0  0  0  0  0  0  0
  -21.7280   -6.5620   22.4010 C   0  0  0  0  0  0  0  0  0  0  0  0
  -21.3340   -7.1820   23.6080 C   0  0  0  0  0  3  0  0  0  0  0  0
  -21.1250   -6.4030   24.7630 C   0  0  0  0  0  3  0  0  0  0  0  0
  -21.3000   -5.0070   24.7140 C   0  0  0  0  0  0  0  0  0  0  0  0
  -21.6850   -4.3880   23.5110 C   0  0  0  0  0  3  0  0  0  0  0  0
  -21.8950   -5.1630   22.3580 C   0  0  0  0  0  0  0  0  0  0  0  0
  -22.2460   -4.5580   21.1970 F   0  0  0  0  0  0  0  0  0  0  0  0
  -21.0910   -4.2570   25.8220 F   0  0  0  0  0  0  0  0  0  0  0  0
  -23.6010  -13.7890   21.3860 C   0  0  0  0  0  0  0  0  0  0  0  0
  -22.9440  -13.0860   22.3010 N   0  0  0  0  0  0  0  0  0  0  0  0
  -23.1950  -14.8910   21.0200 O   0  0  0  0  0  0  0  0  0  0  0  0
  -23.2860  -12.1910   22.6180 H   0  0  0  0  0  0  0  0  0  0  0  0
  -22.0850  -13.4480   22.6910 H   0  0  0  0  0  0  0  0  0  0  0  0
  -26.2580  -15.2820   20.3450 N   0  0  0  0  0  0  0  0  0  0  0  0
  -25.5980  -15.9880   20.6530 H   0  0  0  0  0  0  0  0  0  0  0  0
  -27.1260  -15.6690   19.9970 H   0  0  0  0  0  0  0  0  0  0  0  0
  -29.1830  -23.6160   22.3540 C   0  0  0  0  0  2  0  0  0  0  0  0
  -28.6900  -25.0440   22.0870 C   0  0  0  0  0  2  0  0  0  0  0  0
  -29.8210  -25.9720   21.8010 N   0  0  2  0  0  4  0  0  0  0  0  0
  -30.6490  -25.4790   22.1040 H   0  0  0  0  0  0  0  0  0  0  0  0
  -30.1210  -26.9120   24.1090 C   0  0  0  0  0  1  0  0  0  0  0  0
  -29.8220  -27.2080   22.6310 C   0  0  0  0  0  2  0  0  0  0  0  0
  -30.0670  -26.2150   20.3480 C   0  0  0  0  0  2  0  0  0  0  0  0
  -29.2480  -27.3760   19.7560 C   0  0  0  0  0  2  0  0  0  0  0  0
  -28.0130  -26.8610   19.2560 O   0  0  0  0  0  0  0  0  0  0  0  0
  -24.4060  -31.7160   23.0220 C   0  0  0  0  0  0  0  0  0  0  0  0
  -26.8690  -27.6090   19.4310 C   0  0  0  0  0  0  0  0  0  0  0  0
  -23.0790  -30.4180   21.3800 C   0  0  0  0  0  3  0  0  0  0  0  0
  -24.4330  -29.0150   19.7350 C   0  0  0  0  0  0  0  0  0  0  0  0
  -25.5630  -30.8600   20.9960 C   0  0  0  0  0  2  0  0  0  0  0  0
  -25.6180  -29.5410   20.2590 C   0  0  0  0  0  0  0  0  0  0  0  0
  -26.8340  -28.8560   20.0990 C   0  0  0  0  0  3  0  0  0  0  0  0
  -25.6650  -27.0850   18.9120 C   0  0  0  0  0  3  0  0  0  0  0  0
  -24.4480  -27.7830   19.0550 C   0  0  0  0  0  3  0  0  0  0  0  0
  -23.1810  -29.8360   19.9430 C   0  0  0  0  0  2  0  0  0  0  0  0
  -24.3720  -31.0080   21.8590 N   0  0  0  0  0  0  0  0  0  0  0  0
  -23.3730  -31.9280   23.6710 O   0  0  0  0  0  0  0  0  0  0  0  0
  -22.5250  -29.3190   22.3140 C   0  0  0  0  0  0  0  0  0  0  0  0
  -21.2060  -29.0840   22.2370 N   0  0  0  0  0  0  0  0  0  0  0  0
  -23.2750  -28.6810   23.0590 O   0  0  0  0  0  0  0  0  0  0  0  0
  -20.6610  -29.6510   21.6030 H   0  0  0  0  0  0  0  0  0  0  0  0
  -17.9240  -27.6760   22.7550 C   0  0  0  0  0  0  0  0  0  0  0  0
  -20.4670  -28.0720   22.9890 C   0  0  0  0  0  3  0  0  0  0  0  0
  -20.6420  -26.6730   22.3570 C   0  0  0  0  0  2  0  0  0  0  0  0
  -19.5390  -26.3220   21.3530 C   0  0  0  0  0  2  0  0  0  0  0  0
  -18.1640  -26.3630   22.0290 C   0  0  0  0  0  2  0  0  0  0  0  0
  -19.0050  -28.4860   23.1920 C   0  0  0  0  0  0  0  0  0  0  0  0
  -18.7270  -29.7140   23.8310 C   0  0  0  0  0  3  0  0  0  0  0  0
  -17.3990  -30.1330   24.0380 C   0  0  0  0  0  3  0  0  0  0  0  0
  -16.3320  -29.3200   23.6190 C   0  0  0  0  0  3  0  0  0  0  0  0
  -16.5960  -28.0920   22.9830 C   0  0  0  0  0  3  0  0  0  0  0  0
  -25.7370  -32.3140   23.5800 C   0  0  0  0  0  3  0  0  0  0  0  0
  -26.3550  -31.4680   24.7600 C   0  0  1  0  0  0  0  0  0  0  0  0
  -25.3440  -31.1340   25.8800 C   0  0  0  0  0  1  0  0  0  0  0  0
  -26.9280  -30.1330   24.2280 C   0  0  0  0  0  1  0  0  0  0  0  0
  -27.5340  -32.2370   25.4010 C   0  0  0  0  0  1  0  0  0  0  0  0
  -25.4550  -33.6880   24.0150 N   0  0  0  0  0  0  0  0  0  0  0  0
  -25.8010  -34.7860   23.3300 C   0  0  0  0  0  0  0  0  0  0  0  0
  -26.4640  -34.7470   22.2890 O   0  0  0  0  0  0  0  0  0  0  0  0
  -24.8650  -33.7940   24.8250 H   0  0  0  0  0  0  0  0  0  0  0  0
  -24.1090  -36.6320   23.1010 C   0  0  0  0  0  1  0  0  0  0  0  0
  -25.3360  -36.1450   23.8870 C   0  0  0  0  0  3  0  0  0  0  0  0
  -27.4840  -36.9200   24.7890 C   0  0  0  0  0  1  0  0  0  0  0  0
  -26.3880  -37.1840   23.8610 N   0  0  0  0  0  0  0  0  0  0  0  0
  -25.9980  -38.0950   24.0850 H   0  0  0  0  0  0  0  0  0  0  0  0
  1  6  1  0
  1 51  1  0
  3  2  1  0
  4  7  2  0
  4  6  1  0
  5 10  1  0
  5  2  2  0
  6  3  2  0
  7  5  1  0
  8  9  1  0
  9  7  1  0
 10 11  2  0
 12 10  1  0
 13 19  1  0
 13 21  1  0
 14 19  1  0
 15 16  1  0
 15 14  1  0
 17 16  1  0
 17 26  1  0
 17 18  1  0
 19 18  1  0
 20 13  2  0
 21 12  1  0
 21 22  1  0
 23 24  2  0
 24 43  1  0
 25 28  1  0
 25 24  1  0
 26 27  1  0
 26 23  1  0
 27 25  2  0
 28 29  1  0
 29 30  2  0
 31 34  1  0
 31 30  1  0
 32 31  2  0
 33 32  1  0
 33 28  2  0
 34 35  1  0
 35 36  1  0
 36 37  2  0
 38 37  1  0
 38 42  1  0
 39 38  2  0
 40 35  2  0
 40 39  1  0
 41 40  1  0
 43 44  1  0
 44 46  1  0
 44 47  1  0
 45 43  2  0
 48 23  1  0
 48 49  1  0
 50 48  1  0
 52 51  1  0
 53 52  1  0
 53 54  1  1
 53 56  1  0
 56 55  1  0
 57 53  1  0
 58 57  1  0
 59 61  1  0
 59 58  1  0
 60 71  2  0
 61 66  1  0
 62 70  1  0
 62 72  1  0
 63 69  1  0
 63 65  1  0
 64 70  1  0
 65 64  1  0
 66 65  2  0
 67 68  1  0
 67 61  2  0
 68 63  2  0
 69 62  1  0
 70 60  1  0
 72 74  2  0
 73 72  1  0
 75 73  1  0
 76 85  2  0
 76 81  1  0
 77 73  1  0
 77 81  1  0
 78 77  1  0
 79 80  1  0
 79 78  1  0
 80 76  1  0
 81 82  2  0
 82 83  1  0
 84 83  2  0
 85 84  1  0
 86 60  1  0
 86 91  1  0
 86 87  1  0
 87 90  1  1
 87 88  1  0
 89 87  1  0
 91 94  1  0
 92 96  1  0
 92 91  1  0
 93 92  2  0
 96 95  1  0
 98 96  1  0
 98 99  1  0
 98 97  1  0
M  ISO  4  13 100  21 100  58 101  59 101
M  END
>  <TORSDO>  (69) 
F 26

>  <SCORE>  (69) 
-11.151

>  <name>  (69) 
70

>  <ligand_id>  (69) 
70

>  <original_smiles>  (69) 
[H]c1c([H])c([H])c2c(c1[H])C([H])([H])C([H])([H])C([H])([H])C2([H])N([H])C(=O)C1([H])N(C(=O)C([H])(N([H])C(=O)C([H])(N([H])C([H])([H])[H])C([H])([H])[H])C(C([H])([H])[H])(C([H])([H])[H])C([H])([H])[H])C([H])([H])c2c([H])c(OC([H])([H])C([H])([H])[N+]([H])(C([H])([H])C([H])([H])[H])C([H])([H])C([H])([H])C([H])([H])c3c([H])c([H])c(C(=O)C([H])([H])N([H])C(=O)N4C([H])([H])C([H])([H])C([H])([H])C([H])(n5nc(-c6c([H])c([H])c(Oc7c([H])c([H])c(F)c([H])c7F)c([H])c6[H])c(C(=O)N([H])[H])c5N([H])[H])C4([H])[H])c(OC([H])([H])[H])c3[H])c([H])c([H])c2C1([H])[H]

>  <smiles>  (69) 
[H]c1c([H])c([H])c2c(c1[H])C([H])([H])C([H])([H])C([H])([H])C2([H])N([H])C(=O)C1([H])N(C(=O)C([H])(N([H])C(=O)C([H])(N([H])C([H])([H])[H])C([H])([H])[H])C(C([H])([H])[H])(C([H])([H])[H])C([H])([H])[H])C([H])([H])c2c([H])c(OC([H])([H])C([H])([H])[N+]([H])(C([H])([H])C([H])([H])[H])C([H])([H])C([H])([H])C([H])([H])c3c([H])c([H])c(C(=O)C([H])([H])N([H])C(=O)N4C([H])([H])C([H])([H])C([H])([H])C([H])(n5nc(-c6c([H])c([H])c(Oc7c([H])c([H])c(F)c([H])c7F)c([H])c6[H])c(C(=O)N([H])[H])c5N([H])[H])C4([H])[H])c(OC([H])([H])[H])c3[H])c([H])c([H])c2C1([H])[H]

$$$$
71:0:0
     RDKit          3D

 93101  0  0  1  0  0  0  0  0999 V2000
  -28.6580  -20.7090   18.6810 C   0  0  0  0  0  3  0  0  0  0  0  0
  -28.3300  -20.9600   21.0750 C   0  0  0  0  0  3  0  0  0  0  0  0
  -28.8080  -22.1040   18.5610 C   0  0  0  0  0  3  0  0  0  0  0  0
  -28.4780  -22.3580   20.9530 C   0  0  0  0  0  3  0  0  0  0  0  0
  -28.4310  -20.1150   19.9470 C   0  0  0  0  0  0  0  0  0  0  0  0
  -28.7260  -22.9490   19.6910 C   0  0  0  0  0  0  0  0  0  0  0  0
  -28.2890  -18.6380   20.1470 C   0  0  0  0  0  0  0  0  0  0  0  0
  -27.7570  -18.1420   21.1440 O   0  0  0  0  0  0  0  0  0  0  0  0
  -28.8420  -17.6860   19.0860 C   0  0  0  0  0  2  0  0  0  0  0  0
  -30.1510  -16.9870   19.4790 C   0  0  0  0  0  2  0  0  0  0  0  0
  -30.0230  -15.9870   20.6430 C   0  0  0  0  0  2  0  0  0  0  0  0
  -31.6330  -14.2500   19.8770 C   0  0  0  0  0  0  0  0  0  0  0  0
  -31.2790  -11.9990   18.9370 C   0  0  0  0  0  2  0  0  0  0  0  0
  -30.3130  -12.0340   17.7330 C   0  0  0  0  0  2  0  0  0  0  0  0
  -28.8340  -12.0340   18.1860 C   0  0  0  0  0  2  0  0  0  0  0  0
  -28.5400  -13.0370   19.3340 C   0  0  0  0  0  3  0  0  0  0  0  0
  -29.5980  -12.8630   20.4450 C   0  0  0  0  0  2  0  0  0  0  0  0
  -30.9210  -13.0970   19.8450 N   0  0  0  0  0  0  0  0  0  0  0  0
  -32.6690  -14.4200   19.2270 O   0  0  0  0  0  0  0  0  0  0  0  0
  -31.2380  -15.1720   20.7710 N   0  0  0  0  0  0  0  0  0  0  0  0
  -32.0220  -15.7280   21.0800 H   0  0  0  0  0  0  0  0  0  0  0  0
  -26.1920  -13.8550   20.0270 C   0  0  0  0  0  0  0  0  0  0  0  0
  -25.0840  -13.1940   20.4710 C   0  0  0  0  0  0  0  0  0  0  0  0
  -25.4390  -11.8080   20.4890 C   0  0  0  0  0  0  0  0  0  0  0  0
  -27.1740  -12.8920   19.8410 N   0  0  0  0  0  0  0  0  0  0  0  0
  -26.7160  -11.6550   20.1610 N   0  0  0  0  0  0  0  0  0  0  0  0
  -24.6180  -10.6190   20.7420 C   0  0  0  0  0  0  0  0  0  0  0  0
  -24.9150   -9.7330   21.7990 C   0  0  0  0  0  3  0  0  0  0  0  0
  -24.1050   -8.6040   22.0330 C   0  0  0  0  0  3  0  0  0  0  0  0
  -22.9830   -8.3520   21.2100 C   0  0  0  0  0  0  0  0  0  0  0  0
  -22.7020   -9.2240   20.1440 C   0  0  0  0  0  3  0  0  0  0  0  0
  -23.5130  -10.3470   19.9090 C   0  0  0  0  0  3  0  0  0  0  0  0
  -22.1540   -7.2650   21.3480 O   0  0  0  0  0  0  0  0  0  0  0  0
  -21.8800   -6.7240   22.5780 C   0  0  0  0  0  0  0  0  0  0  0  0
  -21.2740   -7.4790   23.6050 C   0  0  0  0  0  3  0  0  0  0  0  0
  -20.9470   -6.8660   24.8310 C   0  0  0  0  0  3  0  0  0  0  0  0
  -21.2150   -5.4970   25.0290 C   0  0  0  0  0  0  0  0  0  0  0  0
  -21.8170   -4.7430   24.0050 C   0  0  0  0  0  3  0  0  0  0  0  0
  -22.1440   -5.3560   22.7820 C   0  0  0  0  0  0  0  0  0  0  0  0
  -22.7020   -4.6190   21.7930 F   0  0  0  0  0  0  0  0  0  0  0  0
  -20.8950   -4.9050   26.2050 F   0  0  0  0  0  0  0  0  0  0  0  0
  -23.7380  -13.7940   20.7560 C   0  0  0  0  0  0  0  0  0  0  0  0
  -22.9870  -13.2130   21.6820 N   0  0  0  0  0  0  0  0  0  0  0  0
  -23.3670  -14.8250   20.1950 O   0  0  0  0  0  0  0  0  0  0  0  0
  -23.2960  -12.3780   22.1580 H   0  0  0  0  0  0  0  0  0  0  0  0
  -22.0880  -13.6090   21.9170 H   0  0  0  0  0  0  0  0  0  0  0  0
  -26.4350  -15.1900   19.7440 N   0  0  0  0  0  0  0  0  0  0  0  0
  -25.6370  -15.8040   19.6410 H   0  0  0  0  0  0  0  0  0  0  0  0
  -27.1940  -15.4320   19.1220 H   0  0  0  0  0  0  0  0  0  0  0  0
  -28.9390  -24.4180   19.5030 C   0  0  0  0  0  0  0  0  0  0  0  0
  -29.4550  -24.8860   18.4790 O   0  0  0  0  0  0  0  0  0  0  0  0
  -28.5100  -25.3770   20.6230 C   0  0  0  0  0  2  0  0  0  0  0  0
  -28.6230  -26.7420   20.1950 O   0  0  0  0  0  0  0  0  0  0  0  0
  -24.7060  -31.7340   23.3250 C   0  0  0  0  0  0  0  0  0  0  0  0
  -27.4430  -27.4420   20.1710 C   0  0  0  0  0  0  0  0  0  0  0  0
  -23.5470  -30.3990   21.5890 C   0  0  0  0  0  3  0  0  0  0  0  0
  -25.0420  -28.9210   20.1530 C   0  0  0  0  0  0  0  0  0  0  0  0
  -26.0710  -30.7800   21.4750 C   0  0  0  0  0  2  0  0  0  0  0  0
  -26.1790  -29.4400   20.7850 C   0  0  0  0  0  0  0  0  0  0  0  0
  -27.3860  -28.7120   20.7810 C   0  0  0  0  0  3  0  0  0  0  0  0
  -26.2930  -26.9240   19.5380 C   0  0  0  0  0  3  0  0  0  0  0  0
  -25.0930  -27.6640   19.5220 C   0  0  0  0  0  3  0  0  0  0  0  0
  -23.7950  -29.7730   20.1900 C   0  0  0  0  0  2  0  0  0  0  0  0
  -24.7900  -30.9810   22.1910 N   0  0  0  0  0  0  0  0  0  0  0  0
  -23.6110  -31.9840   23.8450 O   0  0  0  0  0  0  0  0  0  0  0  0
  -22.8690  -29.3440   22.4890 C   0  0  0  0  0  0  0  0  0  0  0  0
  -21.5510  -29.1600   22.3080 N   0  0  0  0  0  0  0  0  0  0  0  0
  -23.5270  -28.6930   23.3060 O   0  0  0  0  0  0  0  0  0  0  0  0
  -21.0830  -29.7350   21.6200 H   0  0  0  0  0  0  0  0  0  0  0  0
  -18.1690  -27.9440   22.6500 C   0  0  0  0  0  0  0  0  0  0  0  0
  -20.7130  -28.1920   23.0180 C   0  0  0  0  0  3  0  0  0  0  0  0
  -20.8400  -26.7850   22.3920 C   0  0  0  0  0  2  0  0  0  0  0  0
  -19.7750  -26.5030   21.3290 C   0  0  0  0  0  2  0  0  0  0  0  0
  -18.3700  -26.6220   21.9280 C   0  0  0  0  0  2  0  0  0  0  0  0
  -19.2690  -28.6890   23.1470 C   0  0  0  0  0  0  0  0  0  0  0  0
  -19.0290  -29.9280   23.7770 C   0  0  0  0  0  3  0  0  0  0  0  0
  -17.7180  -30.4230   23.9170 C   0  0  0  0  0  3  0  0  0  0  0  0
  -16.6300  -29.6730   23.4380 C   0  0  0  0  0  3  0  0  0  0  0  0
  -16.8560  -28.4350   22.8110 C   0  0  0  0  0  3  0  0  0  0  0  0
  -25.9780  -32.3360   24.0040 C   0  0  0  0  0  3  0  0  0  0  0  0
  -25.6840  -33.7360   24.3370 N   0  0  0  0  0  0  0  0  0  0  0  0
  -26.0560  -34.7880   23.5970 C   0  0  0  0  0  0  0  0  0  0  0  0
  -26.7600  -34.6820   22.5880 O   0  0  0  0  0  0  0  0  0  0  0  0
  -25.0720  -33.8940   25.1240 H   0  0  0  0  0  0  0  0  0  0  0  0
  -24.3630  -36.5990   23.1890 C   0  0  0  0  0  1  0  0  0  0  0  0
  -25.5680  -36.1790   24.0450 C   0  0  0  0  0  3  0  0  0  0  0  0
  -27.6770  -37.0260   24.9690 C   0  0  0  0  0  1  0  0  0  0  0  0
  -26.6170  -37.2200   23.9820 N   0  0  0  0  0  0  0  0  0  0  0  0
  -26.2160  -38.1430   24.1280 H   0  0  0  0  0  0  0  0  0  0  0  0
  -26.4340  -31.5390   25.2870 C   0  0  1  0  0  0  0  0  0  0  0  0
  -25.2900  -31.2930   26.2990 C   0  0  0  0  0  1  0  0  0  0  0  0
  -27.0210  -30.1630   24.8970 C   0  0  0  0  0  1  0  0  0  0  0  0
  -27.5660  -32.3070   26.0090 C   0  0  0  0  0  1  0  0  0  0  0  0
  1  5  1  0
  3  1  2  0
  3  6  1  0
  4  2  1  0
  5  7  1  0
  5  2  2  0
  6  4  2  0
  7  8  2  0
  9 10  1  0
  9  7  1  0
 10 11  1  0
 11 20  1  0
 12 20  1  0
 13 18  1  0
 14 15  1  0
 14 13  1  0
 16 15  1  0
 16 25  1  0
 16 17  1  0
 18 12  1  0
 18 17  1  0
 19 12  2  0
 20 21  1  0
 22 23  2  0
 23 24  1  0
 23 42  1  0
 24 27  1  0
 25 22  1  0
 25 26  1  0
 26 24  2  0
 27 28  1  0
 28 29  2  0
 30 33  1  0
 30 29  1  0
 31 30  2  0
 32 31  1  0
 32 27  2  0
 33 34  1  0
 34 39  2  0
 34 35  1  0
 35 36  2  0
 36 37  1  0
 37 41  1  0
 38 37  2  0
 39 38  1  0
 40 39  1  0
 42 43  1  0
 43 46  1  0
 43 45  1  0
 44 42  2  0
 47 22  1  0
 48 47  1  0
 49 47  1  0
 50  6  1  0
 50 52  1  0
 51 50  2  0
 53 52  1  0
 54 65  2  0
 55 53  1  0
 55 60  1  0
 56 64  1  0
 56 66  1  0
 57 63  1  0
 57 59  1  0
 58 64  1  0
 59 58  1  0
 60 59  2  0
 61 55  2  0
 62 61  1  0
 62 57  2  0
 63 56  1  0
 64 54  1  0
 66 68  2  0
 67 66  1  0
 69 67  1  0
 70 79  2  0
 70 75  1  0
 71 67  1  0
 71 75  1  0
 72 71  1  0
 73 74  1  0
 73 72  1  0
 74 70  1  0
 75 76  2  0
 76 77  1  0
 78 77  2  0
 79 78  1  0
 80 54  1  0
 80 81  1  0
 80 90  1  0
 81 84  1  0
 82 86  1  0
 82 81  1  0
 83 82  2  0
 86 85  1  0
 88 86  1  0
 88 89  1  0
 88 87  1  0
 90 93  1  1
 90 91  1  0
 92 90  1  0
M  ISO  4  12 100  20 100  52 101  53 101
M  END
>  <TORSDO>  (70) 
F 22

>  <SCORE>  (70) 
-11.586

>  <name>  (70) 
71

>  <ligand_id>  (70) 
71

>  <original_smiles>  (70) 
[H]c1c([H])c([H])c2c(c1[H])C([H])([H])C([H])([H])C([H])([H])C2([H])N([H])C(=O)C1([H])N(C(=O)C([H])(N([H])C(=O)C([H])(N([H])C([H])([H])[H])C([H])([H])[H])C(C([H])([H])[H])(C([H])([H])[H])C([H])([H])[H])C([H])([H])c2c([H])c(OC([H])([H])C(=O)c3c([H])c([H])c(C(=O)C([H])([H])C([H])([H])C([H])([H])N([H])C(=O)N4C([H])([H])C([H])([H])C([H])([H])C([H])(n5nc(-c6c([H])c([H])c(Oc7c([H])c([H])c(F)c([H])c7F)c([H])c6[H])c(C(=O)N([H])[H])c5N([H])[H])C4([H])[H])c([H])c3[H])c([H])c([H])c2C1([H])[H]

>  <smiles>  (70) 
[H]c1c([H])c([H])c2c(c1[H])C([H])([H])C([H])([H])C([H])([H])C2([H])N([H])C(=O)C1([H])N(C(=O)C([H])(N([H])C(=O)C([H])(N([H])C([H])([H])[H])C([H])([H])[H])C(C([H])([H])[H])(C([H])([H])[H])C([H])([H])[H])C([H])([H])c2c([H])c(OC([H])([H])C(=O)c3c([H])c([H])c(C(=O)C([H])([H])C([H])([H])C([H])([H])N([H])C(=O)N4C([H])([H])C([H])([H])C([H])([H])C([H])(n5nc(-c6c([H])c([H])c(Oc7c([H])c([H])c(F)c([H])c7F)c([H])c6[H])c(C(=O)N([H])[H])c5N([H])[H])C4([H])[H])c([H])c3[H])c([H])c([H])c2C1([H])[H]

$$$$
72:0:0
     RDKit          3D

 95103  0  0  1  0  0  0  0  0999 V2000
  -29.1010  -23.0540   23.0000 C   0  0  0  0  0  3  0  0  0  0  0  0
  -31.2970  -23.5770   22.0770 C   0  0  0  0  0  3  0  0  0  0  0  0
  -29.6010  -21.8370   23.5090 C   0  0  0  0  0  3  0  0  0  0  0  0
  -31.7810  -22.3340   22.5300 C   0  0  0  0  0  3  0  0  0  0  0  0
  -29.9330  -23.8960   22.2310 C   0  0  0  0  0  0  0  0  0  0  0  0
  -30.9130  -21.4270   23.1820 C   0  0  0  0  0  0  0  0  0  0  0  0
  -31.3100  -19.9930   23.3630 C   0  0  0  0  0  0  0  0  0  0  0  0
  -31.3620  -19.3430   22.1980 N   0  0  0  0  0  0  0  0  0  0  0  0
  -31.4100  -19.4690   24.4740 O   0  0  0  0  0  0  0  0  0  0  0  0
  -31.2240  -19.9390   21.3910 H   0  0  0  0  0  0  0  0  0  0  0  0
  -31.3160  -17.9080   21.9400 C   0  0  0  0  0  2  0  0  0  0  0  0
  -30.3240  -17.6270   20.7920 C   0  0  0  0  0  2  0  0  0  0  0  0
  -30.8190  -16.6380   19.7190 C   0  0  0  0  0  2  0  0  0  0  0  0
  -30.7760  -14.2450   19.1590 C   0  0  0  0  0  0  0  0  0  0  0  0
  -30.4120  -11.9030   18.5170 C   0  0  0  0  0  2  0  0  0  0  0  0
  -29.3230  -11.8040   17.4310 C   0  0  0  0  0  2  0  0  0  0  0  0
  -27.9350  -11.6890   18.0820 C   0  0  0  0  0  2  0  0  0  0  0  0
  -27.6890  -12.7900   19.1470 C   0  0  0  0  0  3  0  0  0  0  0  0
  -28.8850  -12.8790   20.1280 C   0  0  0  0  0  2  0  0  0  0  0  0
  -30.1250  -13.0710   19.3540 N   0  0  0  0  0  0  0  0  0  0  0  0
  -31.6610  -14.3960   18.3170 O   0  0  0  0  0  0  0  0  0  0  0  0
  -30.4110  -15.2520   19.9590 N   0  0  0  0  0  0  0  0  0  0  0  0
  -29.8000  -15.0440   20.7370 H   0  0  0  0  0  0  0  0  0  0  0  0
  -25.5210  -13.5020   20.3380 C   0  0  0  0  0  0  0  0  0  0  0  0
  -24.4800  -12.7730   20.8560 C   0  0  0  0  0  0  0  0  0  0  0  0
  -24.8240  -11.4000   20.6590 C   0  0  0  0  0  0  0  0  0  0  0  0
  -26.4270  -12.5740   19.8540 N   0  0  0  0  0  0  0  0  0  0  0  0
  -26.0190  -11.3030   20.0950 N   0  0  0  0  0  0  0  0  0  0  0  0
  -24.0450  -10.1800   20.9050 C   0  0  0  0  0  0  0  0  0  0  0  0
  -24.5500   -9.1410   21.7160 C   0  0  0  0  0  3  0  0  0  0  0  0
  -23.7810   -7.9840   21.9570 C   0  0  0  0  0  3  0  0  0  0  0  0
  -22.4900   -7.8570   21.3880 C   0  0  0  0  0  0  0  0  0  0  0  0
  -22.0030   -8.8830   20.5560 C   0  0  0  0  0  3  0  0  0  0  0  0
  -22.7740  -10.0320   20.3130 C   0  0  0  0  0  3  0  0  0  0  0  0
  -21.6820   -6.7550   21.5420 O   0  0  0  0  0  0  0  0  0  0  0  0
  -21.6100   -6.0790   22.7340 C   0  0  0  0  0  0  0  0  0  0  0  0
  -21.2500   -6.7260   23.9360 C   0  0  0  0  0  3  0  0  0  0  0  0
  -21.1200   -5.9800   25.1250 C   0  0  0  0  0  3  0  0  0  0  0  0
  -21.3390   -4.5900   25.1120 C   0  0  0  0  0  0  0  0  0  0  0  0
  -21.6910   -3.9430   23.9130 C   0  0  0  0  0  3  0  0  0  0  0  0
  -21.8230   -4.6860   22.7280 C   0  0  0  0  0  0  0  0  0  0  0  0
  -22.1430   -4.0560   21.5720 F   0  0  0  0  0  0  0  0  0  0  0  0
  -21.2040   -3.8700   26.2500 F   0  0  0  0  0  0  0  0  0  0  0  0
  -23.2060  -13.3200   21.4290 C   0  0  0  0  0  0  0  0  0  0  0  0
  -22.6400  -12.6480   22.4260 N   0  0  0  0  0  0  0  0  0  0  0  0
  -22.7240  -14.3800   21.0250 O   0  0  0  0  0  0  0  0  0  0  0  0
  -23.0460  -11.7890   22.7750 H   0  0  0  0  0  0  0  0  0  0  0  0
  -21.7890  -12.9950   22.8500 H   0  0  0  0  0  0  0  0  0  0  0  0
  -25.7610  -14.8680   20.2220 N   0  0  0  0  0  0  0  0  0  0  0  0
  -25.0840  -15.5630   20.5110 H   0  0  0  0  0  0  0  0  0  0  0  0
  -26.5790  -15.2700   19.7870 H   0  0  0  0  0  0  0  0  0  0  0  0
  -29.3800  -24.9340   21.3640 C   0  0  0  0  0  3  0  0  0  0  0  0
  -28.3800  -24.5910   20.5180 C   0  0  0  0  0  3  0  0  0  0  0  0
  -27.3700  -24.9050   19.4110 C   0  0  0  0  0  2  0  0  0  0  0  0
  -27.3610  -26.2670   18.9790 O   0  0  0  0  0  0  0  0  0  0  0  0
  -25.2810  -31.2760   23.5390 C   0  0  0  0  0  0  0  0  0  0  0  0
  -26.3370  -27.0980   19.3610 C   0  0  0  0  0  0  0  0  0  0  0  0
  -23.5390  -30.4750   21.9720 C   0  0  0  0  0  3  0  0  0  0  0  0
  -24.3600  -28.9780   20.0810 C   0  0  0  0  0  0  0  0  0  0  0  0
  -26.0140  -30.3720   21.3400 C   0  0  0  0  0  2  0  0  0  0  0  0
  -25.6830  -29.1590   20.5000 C   0  0  0  0  0  0  0  0  0  0  0  0
  -26.6720  -28.2210   20.1410 C   0  0  0  0  0  3  0  0  0  0  0  0
  -24.9970  -26.9230   18.9470 C   0  0  0  0  0  3  0  0  0  0  0  0
  -24.0090  -27.8570   19.3110 C   0  0  0  0  0  3  0  0  0  0  0  0
  -23.3650  -30.0400   20.4920 C   0  0  0  0  0  2  0  0  0  0  0  0
  -24.9740  -30.7070   22.3410 N   0  0  0  0  0  0  0  0  0  0  0  0
  -24.3900  -31.6450   24.3150 O   0  0  0  0  0  0  0  0  0  0  0  0
  -22.8410  -29.4350   22.8750 C   0  0  0  0  0  0  0  0  0  0  0  0
  -21.5110  -29.3130   22.7270 N   0  0  0  0  0  0  0  0  0  0  0  0
  -23.4890  -28.7390   23.6620 O   0  0  0  0  0  0  0  0  0  0  0  0
  -21.0520  -29.9250   22.0660 H   0  0  0  0  0  0  0  0  0  0  0  0
  -18.1640  -27.9670   22.8530 C   0  0  0  0  0  0  0  0  0  0  0  0
  -20.6480  -28.3750   23.4380 C   0  0  0  0  0  3  0  0  0  0  0  0
  -20.8910  -26.9220   22.9660 C   0  0  0  0  0  2  0  0  0  0  0  0
  -19.9510  -26.4860   21.8390 C   0  0  0  0  0  2  0  0  0  0  0  0
  -18.4900  -26.5930   22.2880 C   0  0  0  0  0  2  0  0  0  0  0  0
  -19.1810  -28.8090   23.3780 C   0  0  0  0  0  0  0  0  0  0  0  0
  -18.8280  -30.0920   23.8570 C   0  0  0  0  0  3  0  0  0  0  0  0
  -17.4930  -30.5320   23.8170 C   0  0  0  0  0  3  0  0  0  0  0  0
  -16.4880  -29.6880   23.3110 C   0  0  0  0  0  3  0  0  0  0  0  0
  -16.8240  -28.4080   22.8340 C   0  0  0  0  0  3  0  0  0  0  0  0
  -26.7630  -31.5100   23.9800 C   0  0  0  0  0  3  0  0  0  0  0  0
  -26.8240  -32.8250   24.6260 N   0  0  0  0  0  0  0  0  0  0  0  0
  -27.3290  -33.9260   24.0550 C   0  0  0  0  0  0  0  0  0  0  0  0
  -27.8630  -33.9210   22.9410 O   0  0  0  0  0  0  0  0  0  0  0  0
  -26.3510  -32.9160   25.5130 H   0  0  0  0  0  0  0  0  0  0  0  0
  -26.0660  -36.0820   24.2920 C   0  0  0  0  0  1  0  0  0  0  0  0
  -27.2270  -35.2420   24.8470 C   0  0  0  0  0  3  0  0  0  0  0  0
  -29.5570  -35.4230   25.5880 C   0  0  0  0  0  1  0  0  0  0  0  0
  -28.4720  -36.0370   24.8280 N   0  0  0  0  0  0  0  0  0  0  0  0
  -28.3120  -36.9710   25.1910 H   0  0  0  0  0  0  0  0  0  0  0  0
  -27.3090  -30.3840   24.9420 C   0  0  1  0  0  0  0  0  0  0  0  0
  -26.3940  -30.1150   26.1580 C   0  0  0  0  0  1  0  0  0  0  0  0
  -27.4920  -29.0490   24.1780 C   0  0  0  0  0  1  0  0  0  0  0  0
  -28.6990  -30.7890   25.4800 C   0  0  0  0  0  1  0  0  0  0  0  0
  1  3  1  0
  2  5  1  0
  2  4  2  0
  4  6  1  0
  5  1  2  0
  6  7  1  0
  6  3  2  0
  7  9  2  0
  8  7  1  0
 10  8  1  0
 11  8  1  0
 12 11  1  0
 13 22  1  0
 13 12  1  0
 14 20  1  0
 14 22  1  0
 15 20  1  0
 16 17  1  0
 16 15  1  0
 18 17  1  0
 18 27  1  0
 18 19  1  0
 20 19  1  0
 21 14  2  0
 22 23  1  0
 24 25  2  0
 25 44  1  0
 26 25  1  0
 26 29  1  0
 27 28  1  0
 27 24  1  0
 28 26  2  0
 29 30  1  0
 30 31  2  0
 32 35  1  0
 32 31  1  0
 33 32  2  0
 34 33  1  0
 34 29  2  0
 35 36  1  0
 36 37  1  0
 37 38  2  0
 39 38  1  0
 39 43  1  0
 40 39  2  0
 41 36  2  0
 41 40  1  0
 42 41  1  0
 44 45  1  0
 45 47  1  0
 45 48  1  0
 46 44  2  0
 49 24  1  0
 49 50  1  0
 51 49  1  0
 52  5  1  0
 53 52  2  0
 54 53  1  0
 55 57  1  0
 55 54  1  0
 56 67  2  0
 57 62  1  0
 58 66  1  0
 58 68  1  0
 59 65  1  0
 59 61  1  0
 60 66  1  0
 61 60  1  0
 62 61  2  0
 63 64  1  0
 63 57  2  0
 64 59  2  0
 65 58  1  0
 66 56  1  0
 68 70  2  0
 69 68  1  0
 71 69  1  0
 72 77  1  0
 73 69  1  0
 74 73  1  0
 75 76  1  0
 75 74  1  0
 76 72  1  0
 77 73  1  0
 77 78  2  0
 79 78  1  0
 80 79  2  0
 81 72  2  0
 81 80  1  0
 82 56  1  0
 82 83  1  0
 82 92  1  0
 83 86  1  0
 84 83  1  0
 84 88  1  0
 85 84  2  0
 88 87  1  0
 90 88  1  0
 90 91  1  0
 90 89  1  0
 92 95  1  1
 92 93  1  0
 94 92  1  0
M  ISO  4  14 100  22 100  54 101  55 101
M  END
>  <TORSDO>  (71) 
F 22

>  <SCORE>  (71) 
-8.965

>  <name>  (71) 
72

>  <ligand_id>  (71) 
72

>  <original_smiles>  (71) 
[H]C(=C([H])C([H])([H])Oc1c([H])c([H])c2c(c1[H])C([H])([H])N(C(=O)C([H])(N([H])C(=O)C([H])(N([H])C([H])([H])[H])C([H])([H])[H])C(C([H])([H])[H])(C([H])([H])[H])C([H])([H])[H])C([H])(C(=O)N([H])C1([H])c3c([H])c([H])c([H])c([H])c3C([H])([H])C([H])([H])C1([H])[H])C2([H])[H])c1c([H])c([H])c(C(=O)N([H])C([H])([H])C([H])([H])C([H])([H])N([H])C(=O)N2C([H])([H])C([H])([H])C([H])([H])C([H])(n3nc(-c4c([H])c([H])c(Oc5c([H])c([H])c(F)c([H])c5F)c([H])c4[H])c(C(=O)N([H])[H])c3N([H])[H])C2([H])[H])c([H])c1[H]

>  <smiles>  (71) 
[H]C(=C([H])C([H])([H])Oc1c([H])c([H])c2c(c1[H])C([H])([H])N(C(=O)C([H])(N([H])C(=O)C([H])(N([H])C([H])([H])[H])C([H])([H])[H])C(C([H])([H])[H])(C([H])([H])[H])C([H])([H])[H])C([H])(C(=O)N([H])C1([H])c3c([H])c([H])c([H])c([H])c3C([H])([H])C([H])([H])C1([H])[H])C2([H])[H])c1c([H])c([H])c(C(=O)N([H])C([H])([H])C([H])([H])C([H])([H])N([H])C(=O)N2C([H])([H])C([H])([H])C([H])([H])C([H])(n3nc(-c4c([H])c([H])c(Oc5c([H])c([H])c(F)c([H])c5F)c([H])c4[H])c(C(=O)N([H])[H])c3N([H])[H])C2([H])[H])c([H])c1[H]

$$$$
73:0:0
     RDKit          3D

103111  0  0  1  0  0  0  0  0999 V2000
  -28.6730  -21.7790   21.5050 C   0  0  0  0  0  3  0  0  0  0  0  0
  -27.9470  -23.6560   20.1380 C   0  0  0  0  0  3  0  0  0  0  0  0
  -29.5380  -22.6320   22.2190 C   0  0  0  0  0  3  0  0  0  0  0  0
  -28.7940  -24.5120   20.8670 C   0  0  0  0  0  3  0  0  0  0  0  0
  -27.8920  -22.2770   20.4350 C   0  0  0  0  0  0  0  0  0  0  0  0
  -29.6150  -24.0020   21.8940 C   0  0  0  0  0  0  0  0  0  0  0  0
  -30.5380  -24.9060   22.6600 C   0  0  0  0  0  0  0  0  0  0  0  0
  -31.2310  -25.8350   21.9840 N   0  0  0  0  0  0  0  0  0  0  0  0
  -30.6570  -24.7710   23.8780 O   0  0  0  0  0  0  0  0  0  0  0  0
  -31.8030  -26.4550   22.5410 H   0  0  0  0  0  0  0  0  0  0  0  0
  -31.3330  -26.0150   20.5330 C   0  0  0  0  0  2  0  0  0  0  0  0
  -30.6720  -27.3270   20.0950 C   0  0  0  0  0  2  0  0  0  0  0  0
  -29.9190  -27.8560   21.1860 O   0  0  0  0  0  0  0  0  0  0  0  0
  -24.6500  -32.1150   23.2980 C   0  0  0  0  0  0  0  0  0  0  0  0
  -28.6360  -28.2820   20.9430 C   0  0  0  0  0  0  0  0  0  0  0  0
  -24.0720  -30.5080   21.5050 C   0  0  0  0  0  3  0  0  0  0  0  0
  -26.0350  -29.2610   20.4610 C   0  0  0  0  0  0  0  0  0  0  0  0
  -26.4710  -31.3380   21.7890 C   0  0  0  0  0  2  0  0  0  0  0  0
  -26.9300  -30.0040   21.2420 C   0  0  0  0  0  0  0  0  0  0  0  0
  -28.2250  -29.5110   21.4970 C   0  0  0  0  0  3  0  0  0  0  0  0
  -27.7150  -27.5250   20.1850 C   0  0  0  0  0  3  0  0  0  0  0  0
  -26.4190  -28.0140   19.9370 C   0  0  0  0  0  3  0  0  0  0  0  0
  -24.6730  -29.8680   20.2240 C   0  0  0  0  0  2  0  0  0  0  0  0
  -25.0670  -31.3390   22.2570 N   0  0  0  0  0  0  0  0  0  0  0  0
  -23.4520  -32.1830   23.6040 O   0  0  0  0  0  0  0  0  0  0  0  0
  -23.4380  -29.3880   22.3610 C   0  0  0  0  0  0  0  0  0  0  0  0
  -22.1440  -29.1160   22.1260 N   0  0  0  0  0  0  0  0  0  0  0  0
  -24.1110  -28.7670   23.1890 O   0  0  0  0  0  0  0  0  0  0  0  0
  -21.6600  -29.6800   21.4410 H   0  0  0  0  0  0  0  0  0  0  0  0
  -18.7860  -27.8530   22.5470 C   0  0  0  0  0  0  0  0  0  0  0  0
  -21.3510  -28.0760   22.7790 C   0  0  0  0  0  3  0  0  0  0  0  0
  -21.4340  -26.7420   22.0010 C   0  0  0  0  0  2  0  0  0  0  0  0
  -20.3010  -26.5650   20.9840 C   0  0  0  0  0  2  0  0  0  0  0  0
  -18.9400  -26.6120   21.6850 C   0  0  0  0  0  2  0  0  0  0  0  0
  -19.9180  -28.5500   23.0480 C   0  0  0  0  0  0  0  0  0  0  0  0
  -19.7210  -29.7180   23.8160 C   0  0  0  0  0  3  0  0  0  0  0  0
  -18.4230  -30.1890   24.0870 C   0  0  0  0  0  3  0  0  0  0  0  0
  -17.3050  -29.4880   23.6010 C   0  0  0  0  0  3  0  0  0  0  0  0
  -17.4880  -28.3220   22.8380 C   0  0  0  0  0  3  0  0  0  0  0  0
  -25.6540  -32.9730   24.1320 C   0  0  0  0  0  3  0  0  0  0  0  0
  -25.0740  -34.3150   24.2720 N   0  0  0  0  0  0  0  0  0  0  0  0
  -25.4260  -35.3770   23.5340 C   0  0  0  0  0  0  0  0  0  0  0  0
  -26.3360  -35.3400   22.7000 O   0  0  0  0  0  0  0  0  0  0  0  0
  -24.2830  -34.4040   24.8940 H   0  0  0  0  0  0  0  0  0  0  0  0
  -23.6020  -36.8590   22.6380 C   0  0  0  0  0  1  0  0  0  0  0  0
  -24.6440  -36.6870   23.7540 C   0  0  0  0  0  3  0  0  0  0  0  0
  -26.4260  -37.8760   24.9520 C   0  0  0  0  0  1  0  0  0  0  0  0
  -25.5100  -37.8840   23.8150 N   0  0  0  0  0  0  0  0  0  0  0  0
  -24.9490  -38.7300   23.8660 H   0  0  0  0  0  0  0  0  0  0  0  0
  -25.9780  -32.3520   25.5460 C   0  0  1  0  0  0  0  0  0  0  0  0
  -24.7250  -31.8840   26.3220 C   0  0  0  0  0  1  0  0  0  0  0  0
  -26.9270  -31.1370   25.4030 C   0  0  0  0  0  1  0  0  0  0  0  0
  -26.7220  -33.3920   26.4180 C   0  0  0  0  0  1  0  0  0  0  0  0
  -26.9840  -21.4040   19.6350 C   0  0  0  0  0  0  0  0  0  0  0  0
  -25.8970  -21.7870   19.1950 O   0  0  0  0  0  0  0  0  0  0  0  0
  -27.4710  -19.9990   19.2790 C   0  0  0  0  0  2  0  0  0  0  0  0
  -28.6440  -20.0370   18.2800 C   0  0  0  0  0  2  0  0  0  0  0  0
  -28.7800  -18.9030   16.0180 C   0  0  0  0  0  1  0  0  0  0  0  0
  -28.8830  -18.6930   17.5410 C   0  0  0  0  0  3  0  0  0  0  0  0
  -30.1850  -18.0480   17.8760 N   0  0  0  0  0  4  0  0  0  0  0  0
  -30.2060  -17.1500   17.3960 H   0  0  0  0  0  0  0  0  0  0  0  0
  -30.9290  -18.6030   17.4860 H   0  0  0  0  0  0  0  0  0  0  0  0
  -30.4700  -17.8490   19.3170 C   0  0  0  0  0  2  0  0  0  0  0  0
  -31.7460  -17.0330   19.6290 C   0  0  0  0  0  2  0  0  0  0  0  0
  -31.4510  -15.6510   20.2320 C   0  0  0  0  0  2  0  0  0  0  0  0
  -32.7190  -13.6180   19.3720 C   0  0  0  0  0  0  0  0  0  0  0  0
  -32.0360  -11.2700   19.0000 C   0  0  0  0  0  2  0  0  0  0  0  0
  -30.9600  -11.1950   17.8990 C   0  0  0  0  0  2  0  0  0  0  0  0
  -29.5480  -11.4590   18.4650 C   0  0  0  0  0  2  0  0  0  0  0  0
  -29.4970  -12.7130   19.3760 C   0  0  0  0  0  3  0  0  0  0  0  0
  -30.6380  -12.6200   20.4170 C   0  0  0  0  0  2  0  0  0  0  0  0
  -31.9060  -12.5710   19.6750 N   0  0  0  0  0  0  0  0  0  0  0  0
  -33.6790  -13.5200   18.6040 O   0  0  0  0  0  0  0  0  0  0  0  0
  -32.5940  -14.7260   20.1200 N   0  0  0  0  0  0  0  0  0  0  0  0
  -33.4760  -15.2150   20.1650 H   0  0  0  0  0  0  0  0  0  0  0  0
  -27.5640  -14.0030   20.4790 C   0  0  0  0  0  0  0  0  0  0  0  0
  -26.3340  -13.6010   20.9260 C   0  0  0  0  0  0  0  0  0  0  0  0
  -26.2650  -12.1960   20.6770 C   0  0  0  0  0  0  0  0  0  0  0  0
  -28.1890  -12.8600   20.0080 N   0  0  0  0  0  0  0  0  0  0  0  0
  -27.4110  -11.7610   20.1690 N   0  0  0  0  0  0  0  0  0  0  0  0
  -25.1560  -11.2480   20.8340 C   0  0  0  0  0  0  0  0  0  0  0  0
  -25.3590   -9.9650   21.3850 C   0  0  0  0  0  3  0  0  0  0  0  0
  -24.2760   -9.0730   21.5410 C   0  0  0  0  0  3  0  0  0  0  0  0
  -22.9740   -9.4660   21.1510 C   0  0  0  0  0  0  0  0  0  0  0  0
  -22.7810  -10.7360   20.5800 C   0  0  0  0  0  3  0  0  0  0  0  0
  -23.8620  -11.6200   20.4200 C   0  0  0  0  0  3  0  0  0  0  0  0
  -21.8680   -8.6560   21.2400 O   0  0  0  0  0  0  0  0  0  0  0  0
  -21.7830   -7.6510   22.1710 C   0  0  0  0  0  0  0  0  0  0  0  0
  -21.9840   -7.8920   23.5470 C   0  0  0  0  0  3  0  0  0  0  0  0
  -21.8200   -6.8460   24.4760 C   0  0  0  0  0  3  0  0  0  0  0  0
  -21.4460   -5.5630   24.0340 C   0  0  0  0  0  0  0  0  0  0  0  0
  -21.2420   -5.3220   22.6640 C   0  0  0  0  0  3  0  0  0  0  0  0
  -21.4060   -6.3640   21.7350 C   0  0  0  0  0  0  0  0  0  0  0  0
  -21.1870   -6.1320   20.4180 F   0  0  0  0  0  0  0  0  0  0  0  0
  -21.2820   -4.5580   24.9270 F   0  0  0  0  0  0  0  0  0  0  0  0
  -25.2370  -14.4800   21.4530 C   0  0  0  0  0  0  0  0  0  0  0  0
  -24.3900  -13.9480   22.3250 N   0  0  0  0  0  0  0  0  0  0  0  0
  -25.1630  -15.6650   21.1260 O   0  0  0  0  0  0  0  0  0  0  0  0
  -24.4550  -12.9780   22.5970 H   0  0  0  0  0  0  0  0  0  0  0  0
  -23.6540  -14.5160   22.7230 H   0  0  0  0  0  0  0  0  0  0  0  0
  -28.1900  -15.2470   20.3900 N   0  0  0  0  0  0  0  0  0  0  0  0
  -27.4460  -15.9390   20.4280 H   0  0  0  0  0  0  0  0  0  0  0  0
  -28.6520  -15.2940   19.4890 H   0  0  0  0  0  0  0  0  0  0  0  0
  1  3  1  0
  2  5  1  0
  2  4  2  0
  4  6  1  0
  5  1  2  0
  6  3  2  0
  6  7  1  0
  7  9  2  0
  8 10  1  0
  8  7  1  0
 11  8  1  0
 12 11  1  0
 12 13  1  0
 14 25  2  0
 15 13  1  0
 15 20  1  0
 16 24  1  0
 16 26  1  0
 17 19  1  0
 18 24  1  0
 19 20  2  0
 19 18  1  0
 21 15  2  0
 22 21  1  0
 22 17  2  0
 23 17  1  0
 23 16  1  0
 24 14  1  0
 26 28  2  0
 27 26  1  0
 29 27  1  0
 30 39  2  0
 30 35  1  0
 31 27  1  0
 31 35  1  0
 32 31  1  0
 33 34  1  0
 33 32  1  0
 34 30  1  0
 35 36  2  0
 36 37  1  0
 38 37  2  0
 39 38  1  0
 40 14  1  0
 40 41  1  0
 40 50  1  0
 41 44  1  0
 42 46  1  0
 42 41  1  0
 43 42  2  0
 46 45  1  0
 46 48  1  0
 48 49  1  0
 48 47  1  0
 50 51  1  1
 50 53  1  0
 52 50  1  0
 54  5  1  0
 55 54  2  0
 56 54  1  0
 57 56  1  0
 59 58  1  0
 59 60  1  0
 59 57  1  0
 60 63  1  0
 61 60  1  0
 62 60  1  0
 63 64  1  0
 64 65  1  0
 66 72  1  0
 66 74  1  0
 67 72  1  0
 68 69  1  0
 68 67  1  0
 70 69  1  0
 70 79  1  0
 70 71  1  0
 72 71  1  0
 73 66  2  0
 74 75  1  0
 74 65  1  0
 76 77  2  0
 77 96  1  0
 78 81  1  0
 78 77  1  0
 79 80  1  0
 79 76  1  0
 80 78  2  0
 81 82  1  0
 82 83  2  0
 84 87  1  0
 84 83  1  0
 85 84  2  0
 86 85  1  0
 86 81  2  0
 87 88  1  0
 88 89  1  0
 89 90  2  0
 91 90  1  0
 91 95  1  0
 92 91  2  0
 93 88  2  0
 93 92  1  0
 94 93  1  0
 96 97  1  0
 97 99  1  0
 97100  1  0
 98 96  2  0
101102  1  0
101 76  1  0
103101  1  0
M  ISO  4  12 101  13 101  66 100  74 100
M  END
>  <TORSDO>  (72) 
F 27

>  <SCORE>  (72) 
-6.528

>  <name>  (72) 
73

>  <ligand_id>  (72) 
73

>  <original_smiles>  (72) 
[H]c1c([H])c([H])c2c(c1[H])C([H])([H])C([H])([H])C([H])([H])C2([H])N([H])C(=O)C1([H])N(C(=O)C([H])(N([H])C(=O)C([H])(N([H])C([H])([H])[H])C([H])([H])[H])C(C([H])([H])[H])(C([H])([H])[H])C([H])([H])[H])C([H])([H])c2c([H])c(OC([H])([H])C([H])([H])N([H])C(=O)c3c([H])c([H])c(C(=O)C([H])([H])C([H])([H])C([H])(C([H])([H])[H])[N+]([H])([H])C([H])([H])C([H])([H])C([H])([H])N([H])C(=O)N4C([H])([H])C([H])([H])C([H])([H])C([H])(n5nc(-c6c([H])c([H])c(Oc7c([H])c([H])c(F)c([H])c7F)c([H])c6[H])c(C(=O)N([H])[H])c5N([H])[H])C4([H])[H])c([H])c3[H])c([H])c([H])c2C1([H])[H]

>  <smiles>  (72) 
[H]c1c([H])c([H])c2c(c1[H])C([H])([H])C([H])([H])C([H])([H])C2([H])N([H])C(=O)C1([H])N(C(=O)C([H])(N([H])C(=O)C([H])(N([H])C([H])([H])[H])C([H])([H])[H])C(C([H])([H])[H])(C([H])([H])[H])C([H])([H])[H])C([H])([H])c2c([H])c(OC([H])([H])C([H])([H])N([H])C(=O)c3c([H])c([H])c(C(=O)C([H])([H])C([H])([H])C([H])(C([H])([H])[H])[N+]([H])([H])C([H])([H])C([H])([H])C([H])([H])N([H])C(=O)N4C([H])([H])C([H])([H])C([H])([H])C([H])(n5nc(-c6c([H])c([H])c(Oc7c([H])c([H])c(F)c([H])c7F)c([H])c6[H])c(C(=O)N([H])[H])c5N([H])[H])C4([H])[H])c([H])c3[H])c([H])c([H])c2C1([H])[H]

$$$$
74:0:0
     RDKit          3D

 96104  0  0  1  0  0  0  0  0999 V2000
  -27.4020  -21.5090   20.6510 C   0  0  0  0  0  3  0  0  0  0  0  0
  -26.4420  -22.3330   20.0670 C   0  0  0  0  0  3  0  0  0  0  0  0
  -29.0800  -23.2240   20.2540 C   0  0  0  0  0  3  0  0  0  0  0  0
  -28.7610  -21.8810   20.6360 C   0  0  0  0  0  0  0  0  0  0  0  0
  -26.7990  -23.5570   19.4720 C   0  0  0  0  0  0  0  0  0  0  0  0
  -28.1060  -24.1150   19.6860 C   0  0  0  0  0  0  0  0  0  0  0  0
  -25.8050  -24.0690   18.4750 C   0  0  0  0  0  0  0  0  0  0  0  0
  -24.5630  -24.2280   18.9170 N   0  0  0  0  0  0  0  0  0  0  0  0
  -26.1240  -24.3060   17.3110 O   0  0  0  0  0  0  0  0  0  0  0  0
  -24.3420  -24.0140   19.8780 H   0  0  0  0  0  0  0  0  0  0  0  0
  -23.8360  -24.5490   18.2970 H   0  0  0  0  0  0  0  0  0  0  0  0
  -29.7890  -20.8250   20.9910 C   0  0  0  0  0  0  0  0  0  0  0  0
  -30.9190  -21.0910   21.4110 O   0  0  0  0  0  0  0  0  0  0  0  0
  -29.3860  -19.3430   20.7110 C   0  0  0  0  0  2  0  0  0  0  0  0
  -30.3740  -18.1880   21.0660 C   0  0  0  0  0  2  0  0  0  0  0  0
  -29.7630  -16.7730   20.7820 C   0  0  0  0  0  2  0  0  0  0  0  0
  -31.0700  -14.6880   20.4280 C   0  0  0  0  0  0  0  0  0  0  0  0
  -30.7270  -12.5150   19.2990 C   0  0  0  0  0  2  0  0  0  0  0  0
  -29.7910  -12.6770   18.0860 C   0  0  0  0  0  2  0  0  0  0  0  0
  -28.3190  -12.5410   18.5150 C   0  0  0  0  0  2  0  0  0  0  0  0
  -27.9750  -13.4230   19.7460 C   0  0  0  0  0  3  0  0  0  0  0  0
  -29.0260  -13.2590   20.8680 C   0  0  0  0  0  2  0  0  0  0  0  0
  -30.3550  -13.5340   20.2970 N   0  0  0  0  0  0  0  0  0  0  0  0
  -32.1470  -14.8720   19.8580 O   0  0  0  0  0  0  0  0  0  0  0  0
  -30.5880  -15.6400   21.2490 N   0  0  0  0  0  0  0  0  0  0  0  0
  -31.3280  -15.9840   21.8450 H   0  0  0  0  0  0  0  0  0  0  0  0
  -25.5890  -14.0580   20.4700 C   0  0  0  0  0  0  0  0  0  0  0  0
  -24.5110  -13.3000   20.8370 C   0  0  0  0  0  0  0  0  0  0  0  0
  -24.9500  -11.9420   20.7940 C   0  0  0  0  0  0  0  0  0  0  0  0
  -26.6200  -13.1630   20.2270 N   0  0  0  0  0  0  0  0  0  0  0  0
  -26.2370  -11.8840   20.4780 N   0  0  0  0  0  0  0  0  0  0  0  0
  -24.2040  -10.6900   20.9800 C   0  0  0  0  0  0  0  0  0  0  0  0
  -24.5840   -9.7410   21.9540 C   0  0  0  0  0  3  0  0  0  0  0  0
  -23.8420   -8.5530   22.1250 C   0  0  0  0  0  3  0  0  0  0  0  0
  -22.7050   -8.3040   21.3200 C   0  0  0  0  0  0  0  0  0  0  0  0
  -22.3450   -9.2400   20.3350 C   0  0  0  0  0  3  0  0  0  0  0  0
  -23.0870  -10.4200   20.1630 C   0  0  0  0  0  3  0  0  0  0  0  0
  -21.9380   -7.1660   21.3980 O   0  0  0  0  0  0  0  0  0  0  0  0
  -21.7870   -6.4790   22.5760 C   0  0  0  0  0  0  0  0  0  0  0  0
  -21.1990   -7.0720   23.7160 C   0  0  0  0  0  3  0  0  0  0  0  0
  -20.9980   -6.3060   24.8810 C   0  0  0  0  0  3  0  0  0  0  0  0
  -21.3780   -4.9510   24.9090 C   0  0  0  0  0  0  0  0  0  0  0  0
  -21.9590   -4.3580   23.7750 C   0  0  0  0  0  3  0  0  0  0  0  0
  -22.1600   -5.1200   22.6110 C   0  0  0  0  0  0  0  0  0  0  0  0
  -22.7020   -4.5390   21.5130 F   0  0  0  0  0  0  0  0  0  0  0  0
  -21.1790   -4.2130   26.0270 F   0  0  0  0  0  0  0  0  0  0  0  0
  -23.1220  -13.7960   21.1180 C   0  0  0  0  0  0  0  0  0  0  0  0
  -22.3850  -13.1070   21.9800 N   0  0  0  0  0  0  0  0  0  0  0  0
  -22.6980  -14.8310   20.6040 O   0  0  0  0  0  0  0  0  0  0  0  0
  -22.7350  -12.2690   22.4210 H   0  0  0  0  0  0  0  0  0  0  0  0
  -21.4500  -13.4220   22.2040 H   0  0  0  0  0  0  0  0  0  0  0  0
  -25.7730  -15.4280   20.3030 N   0  0  0  0  0  0  0  0  0  0  0  0
  -25.0120  -16.0880   20.4190 H   0  0  0  0  0  0  0  0  0  0  0  0
  -26.6260  -15.8600   19.9740 H   0  0  0  0  0  0  0  0  0  0  0  0
  -28.5610  -25.5260   19.1510 C   0  0  0  0  0  2  0  0  0  0  0  0
  -28.4930  -26.7310   20.0080 O   0  0  0  0  0  0  0  0  0  0  0  0
  -24.6890  -31.9570   23.2370 C   0  0  0  0  0  0  0  0  0  0  0  0
  -27.3720  -27.5660   20.0140 C   0  0  0  0  0  0  0  0  0  0  0  0
  -23.5120  -30.5980   21.5480 C   0  0  0  0  0  3  0  0  0  0  0  0
  -24.9850  -29.1300   20.0870 C   0  0  0  0  0  0  0  0  0  0  0  0
  -26.0510  -30.9470   21.4050 C   0  0  0  0  0  2  0  0  0  0  0  0
  -26.1450  -29.5960   20.7210 C   0  0  0  0  0  0  0  0  0  0  0  0
  -27.3340  -28.8090   20.7110 C   0  0  0  0  0  3  0  0  0  0  0  0
  -26.2090  -27.2100   19.3130 C   0  0  0  0  0  3  0  0  0  0  0  0
  -25.0120  -27.9250   19.3850 C   0  0  0  0  0  3  0  0  0  0  0  0
  -23.7420  -29.9830   20.1480 C   0  0  0  0  0  2  0  0  0  0  0  0
  -24.7680  -31.1820   22.1180 N   0  0  0  0  0  0  0  0  0  0  0  0
  -23.5980  -32.2060   23.7690 O   0  0  0  0  0  0  0  0  0  0  0  0
  -22.8640  -29.5330   22.4630 C   0  0  0  0  0  0  0  0  0  0  0  0
  -21.5420  -29.3370   22.3190 N   0  0  0  0  0  0  0  0  0  0  0  0
  -23.5480  -28.8890   23.2640 O   0  0  0  0  0  0  0  0  0  0  0  0
  -21.0480  -29.9150   21.6530 H   0  0  0  0  0  0  0  0  0  0  0  0
  -18.1720  -28.1220   22.8040 C   0  0  0  0  0  0  0  0  0  0  0  0
  -20.7330  -28.3640   23.0540 C   0  0  0  0  0  3  0  0  0  0  0  0
  -20.8240  -26.9600   22.4130 C   0  0  0  0  0  2  0  0  0  0  0  0
  -19.7100  -26.6850   21.3980 C   0  0  0  0  0  2  0  0  0  0  0  0
  -18.3370  -26.8040   22.0660 C   0  0  0  0  0  2  0  0  0  0  0  0
  -19.2970  -28.8620   23.2530 C   0  0  0  0  0  0  0  0  0  0  0  0
  -19.0890  -30.0990   23.9020 C   0  0  0  0  0  3  0  0  0  0  0  0
  -17.7870  -30.5960   24.1030 C   0  0  0  0  0  3  0  0  0  0  0  0
  -16.6760  -29.8520   23.6670 C   0  0  0  0  0  3  0  0  0  0  0  0
  -16.8690  -28.6170   23.0250 C   0  0  0  0  0  3  0  0  0  0  0  0
  -25.9610  -32.5850   23.8810 C   0  0  0  0  0  3  0  0  0  0  0  0
  -25.6490  -33.9830   24.2030 N   0  0  0  0  0  0  0  0  0  0  0  0
  -25.9750  -35.0310   23.4340 C   0  0  0  0  0  0  0  0  0  0  0  0
  -26.6430  -34.9220   22.4020 O   0  0  0  0  0  0  0  0  0  0  0  0
  -25.0550  -34.1450   25.0030 H   0  0  0  0  0  0  0  0  0  0  0  0
  -24.2400  -36.8130   23.0640 C   0  0  0  0  0  1  0  0  0  0  0  0
  -25.4810  -36.4200   23.8820 C   0  0  0  0  0  3  0  0  0  0  0  0
  -27.6030  -37.3240   24.7240 C   0  0  0  0  0  1  0  0  0  0  0  0
  -26.5110  -37.4750   23.7650 N   0  0  0  0  0  0  0  0  0  0  0  0
  -26.1010  -38.3960   23.8920 H   0  0  0  0  0  0  0  0  0  0  0  0
  -26.4500  -31.8130   25.1680 C   0  0  1  0  0  0  0  0  0  0  0  0
  -25.3330  -31.5660   26.2080 C   0  0  0  0  0  1  0  0  0  0  0  0
  -27.0490  -30.4380   24.7910 C   0  0  0  0  0  1  0  0  0  0  0  0
  -27.5820  -32.6100   25.8580 C   0  0  0  0  0  1  0  0  0  0  0  0
  2  1  2  0
  3  4  2  0
  4  1  1  0
  4 12  1  0
  5  6  2  0
  5  2  1  0
  6  3  1  0
  7  8  1  0
  7  5  1  0
  8 10  1  0
  9  7  2  0
 11  8  1  0
 12 13  2  0
 14 12  1  0
 14 15  1  0
 16 15  1  0
 16 25  1  0
 17 25  1  0
 18 23  1  0
 19 20  1  0
 19 18  1  0
 21 20  1  0
 21 30  1  0
 21 22  1  0
 23 17  1  0
 23 22  1  0
 24 17  2  0
 25 26  1  0
 27 28  2  0
 28 47  1  0
 29 28  1  0
 29 32  1  0
 30 27  1  0
 30 31  1  0
 31 29  2  0
 32 33  1  0
 33 34  2  0
 35 38  1  0
 35 34  1  0
 36 35  2  0
 37 36  1  0
 37 32  2  0
 38 39  1  0
 39 44  2  0
 39 40  1  0
 40 41  2  0
 41 42  1  0
 42 46  1  0
 43 42  2  0
 44 43  1  0
 45 44  1  0
 47 48  1  0
 48 51  1  0
 48 50  1  0
 49 47  2  0
 52 53  1  0
 52 27  1  0
 54 52  1  0
 55  6  1  0
 55 56  1  0
 56 58  1  0
 57 68  2  0
 58 63  1  0
 59 67  1  0
 59 69  1  0
 60 66  1  0
 60 62  1  0
 61 67  1  0
 62 61  1  0
 63 62  2  0
 64 65  1  0
 64 58  2  0
 65 60  2  0
 66 59  1  0
 67 57  1  0
 69 71  2  0
 70 69  1  0
 72 70  1  0
 73 82  2  0
 73 78  1  0
 74 70  1  0
 74 78  1  0
 75 74  1  0
 76 77  1  0
 76 75  1  0
 77 73  1  0
 78 79  2  0
 79 80  1  0
 81 80  2  0
 82 81  1  0
 83 57  1  0
 83 84  1  0
 83 93  1  0
 84 87  1  0
 85 89  1  0
 85 84  1  0
 86 85  2  0
 89 88  1  0
 91 89  1  0
 91 92  1  0
 91 90  1  0
 93 96  1  1
 93 94  1  0
 95 93  1  0
M  ISO  4  17 100  25 100  55 101  56 101
M  END
>  <TORSDO>  (73) 
F 22

>  <SCORE>  (73) 
-12.818

>  <name>  (73) 
74

>  <ligand_id>  (73) 
74

>  <original_smiles>  (73) 
[H]c1c([H])c([H])c2c(c1[H])C([H])([H])C([H])([H])C([H])([H])C2([H])N([H])C(=O)C1([H])N(C(=O)C([H])(N([H])C(=O)C([H])(N([H])C([H])([H])[H])C([H])([H])[H])C(C([H])([H])[H])(C([H])([H])[H])C([H])([H])[H])C([H])([H])c2c([H])c(OC([H])([H])c3c([H])c(C(=O)C([H])([H])C([H])([H])C([H])([H])N([H])C(=O)N4C([H])([H])C([H])([H])C([H])([H])C([H])(n5nc(-c6c([H])c([H])c(Oc7c([H])c([H])c(F)c([H])c7F)c([H])c6[H])c(C(=O)N([H])[H])c5N([H])[H])C4([H])[H])c([H])c([H])c3C(=O)N([H])[H])c([H])c([H])c2C1([H])[H]

>  <smiles>  (73) 
[H]c1c([H])c([H])c2c(c1[H])C([H])([H])C([H])([H])C([H])([H])C2([H])N([H])C(=O)C1([H])N(C(=O)C([H])(N([H])C(=O)C([H])(N([H])C([H])([H])[H])C([H])([H])[H])C(C([H])([H])[H])(C([H])([H])[H])C([H])([H])[H])C([H])([H])c2c([H])c(OC([H])([H])c3c([H])c(C(=O)C([H])([H])C([H])([H])C([H])([H])N([H])C(=O)N4C([H])([H])C([H])([H])C([H])([H])C([H])(n5nc(-c6c([H])c([H])c(Oc7c([H])c([H])c(F)c([H])c7F)c([H])c6[H])c(C(=O)N([H])[H])c5N([H])[H])C4([H])[H])c([H])c([H])c3C(=O)N([H])[H])c([H])c([H])c2C1([H])[H]

$$$$
75:0:0
     RDKit          3D

106114  0  0  1  0  0  0  0  0999 V2000
  -27.2120  -21.7180   20.4980 C   0  0  0  0  0  3  0  0  0  0  0  0
  -28.6010  -23.7200   20.5670 C   0  0  0  0  0  3  0  0  0  0  0  0
  -28.1660  -21.0850   19.6770 C   0  0  0  0  0  3  0  0  0  0  0  0
  -29.5330  -23.1050   19.7120 C   0  0  0  0  0  3  0  0  0  0  0  0
  -27.4160  -23.0430   20.9300 C   0  0  0  0  0  0  0  0  0  0  0  0
  -29.3280  -21.7800   19.2610 C   0  0  0  0  0  0  0  0  0  0  0  0
  -26.4070  -23.7390   21.7880 C   0  0  0  0  0  0  0  0  0  0  0  0
  -25.3030  -24.2780   21.2350 N   0  0  0  0  0  0  0  0  0  0  0  0
  -26.6370  -23.8370   22.9910 O   0  0  0  0  0  0  0  0  0  0  0  0
  -24.7090  -24.7430   21.9110 H   0  0  0  0  0  0  0  0  0  0  0  0
  -24.8240  -24.3660   19.8370 C   0  0  0  0  0  2  0  0  0  0  0  0
  -25.9310  -24.3690   18.7720 C   0  0  0  0  0  2  0  0  0  0  0  0
  -25.9750  -25.5880   17.9400 N   0  0  0  0  0  4  0  0  0  0  0  0
  -25.0780  -25.7730   17.5150 H   0  0  0  0  0  0  0  0  0  0  0  0
  -26.1760  -26.3670   18.5490 H   0  0  0  0  0  0  0  0  0  0  0  0
  -27.0720  -25.5260   16.9430 C   0  0  0  0  0  2  0  0  0  0  0  0
  -26.7060  -26.0960   15.5700 C   0  0  0  0  0  2  0  0  0  0  0  0
  -26.7760  -27.5050   15.6680 O   0  0  0  0  0  0  0  0  0  0  0  0
  -25.6330  -29.4370   22.4090 C   0  0  0  0  0  0  0  0  0  0  0  0
  -25.9300  -28.0990   16.5680 C   0  0  0  0  0  0  0  0  0  0  0  0
  -23.7320  -29.7620   20.8600 C   0  0  0  0  0  3  0  0  0  0  0  0
  -24.2610  -29.4370   18.3940 C   0  0  0  0  0  0  0  0  0  0  0  0
  -26.1450  -29.7820   20.0050 C   0  0  0  0  0  2  0  0  0  0  0  0
  -25.6170  -29.2570   18.6910 C   0  0  0  0  0  0  0  0  0  0  0  0
  -26.4570  -28.5930   17.7790 C   0  0  0  0  0  3  0  0  0  0  0  0
  -24.5620  -28.2910   16.2750 C   0  0  0  0  0  3  0  0  0  0  0  0
  -23.7250  -28.9490   17.1910 C   0  0  0  0  0  3  0  0  0  0  0  0
  -23.4360  -30.1940   19.4030 C   0  0  0  0  0  2  0  0  0  0  0  0
  -25.2010  -29.6330   21.1330 N   0  0  0  0  0  0  0  0  0  0  0  0
  -24.8390  -29.4140   23.3570 O   0  0  0  0  0  0  0  0  0  0  0  0
  -22.9330  -28.4730   21.1570 C   0  0  0  0  0  0  0  0  0  0  0  0
  -21.5960  -28.5900   21.1850 N   0  0  0  0  0  0  0  0  0  0  0  0
  -23.5090  -27.3950   21.3210 O   0  0  0  0  0  0  0  0  0  0  0  0
  -21.1910  -29.5070   21.0510 H   0  0  0  0  0  0  0  0  0  0  0  0
  -18.0850  -27.7540   21.1840 C   0  0  0  0  0  0  0  0  0  0  0  0
  -20.6450  -27.5030   21.4160 C   0  0  0  0  0  3  0  0  0  0  0  0
  -20.5620  -26.5590   20.1930 C   0  0  0  0  0  2  0  0  0  0  0  0
  -19.4500  -26.9470   19.2140 C   0  0  0  0  0  2  0  0  0  0  0  0
  -18.0870  -26.9250   19.9110 C   0  0  0  0  0  2  0  0  0  0  0  0
  -19.2870  -28.0360   21.8840 C   0  0  0  0  0  0  0  0  0  0  0  0
  -19.2320  -28.8420   23.0410 C   0  0  0  0  0  3  0  0  0  0  0  0
  -18.0070  -29.3610   23.5000 C   0  0  0  0  0  3  0  0  0  0  0  0
  -16.8170  -29.0660   22.8100 C   0  0  0  0  0  3  0  0  0  0  0  0
  -16.8570  -28.2620   21.6580 C   0  0  0  0  0  3  0  0  0  0  0  0
  -27.1500  -29.2600   22.7390 C   0  0  0  0  0  3  0  0  0  0  0  0
  -27.4210  -30.0200   23.9660 N   0  0  0  0  0  0  0  0  0  0  0  0
  -28.0390  -31.2070   24.0010 C   0  0  0  0  0  0  0  0  0  0  0  0
  -28.5060  -31.7490   22.9950 O   0  0  0  0  0  0  0  0  0  0  0  0
  -27.0140  -29.6620   24.8180 H   0  0  0  0  0  0  0  0  0  0  0  0
  -27.0960  -33.0100   25.4680 C   0  0  0  0  0  1  0  0  0  0  0  0
  -28.1570  -31.9050   25.3700 C   0  0  0  0  0  3  0  0  0  0  0  0
  -30.5310  -31.4620   25.8100 C   0  0  0  0  0  1  0  0  0  0  0  0
  -29.4980  -32.4760   25.6220 N   0  0  0  0  0  0  0  0  0  0  0  0
  -29.4870  -33.0760   26.4430 H   0  0  0  0  0  0  0  0  0  0  0  0
  -27.5830  -27.7520   22.8960 C   0  0  1  0  0  0  0  0  0  0  0  0
  -26.6880  -26.9520   23.8720 C   0  0  0  0  0  1  0  0  0  0  0  0
  -27.5610  -27.0210   21.5320 C   0  0  0  0  0  1  0  0  0  0  0  0
  -29.0410  -27.6840   23.4000 C   0  0  0  0  0  1  0  0  0  0  0  0
  -30.3730  -21.1590   18.3360 C   0  0  0  0  0  2  0  0  0  0  0  0
  -29.8810  -20.4970   17.1280 N   0  0  0  0  0  0  0  0  0  0  0  0
  -29.1260  -21.0760   16.7680 H   0  0  0  0  0  0  0  0  0  0  0  0
  -29.3740  -19.1250   17.2820 C   0  0  0  0  0  2  0  0  0  0  0  0
  -30.3150  -18.0990   16.6400 C   0  0  0  0  0  2  0  0  0  0  0  0
  -31.4430  -17.8310   17.5420 N   0  0  0  0  0  4  0  0  0  0  0  0
  -32.2800  -17.8170   16.9860 H   0  0  0  0  0  0  0  0  0  0  0  0
  -31.4810  -18.6310   18.1550 H   0  0  0  0  0  0  0  0  0  0  0  0
  -31.3890  -16.5760   18.3160 C   0  0  0  0  0  2  0  0  0  0  0  0
  -31.2860  -16.8040   19.8510 C   0  0  0  0  0  2  0  0  0  0  0  0
  -31.8300  -14.4580   20.3550 C   0  0  0  0  0  0  0  0  0  0  0  0
  -31.3870  -12.3800   19.1550 C   0  0  0  0  0  2  0  0  0  0  0  0
  -30.4860  -12.7390   17.9520 C   0  0  0  0  0  2  0  0  0  0  0  0
  -28.9990  -12.7130   18.3490 C   0  0  0  0  0  2  0  0  0  0  0  0
  -28.7160  -13.5360   19.6320 C   0  0  0  0  0  3  0  0  0  0  0  0
  -29.7180  -13.1550   20.7510 C   0  0  0  0  0  2  0  0  0  0  0  0
  -31.0840  -13.3370   20.2250 N   0  0  0  0  0  0  0  0  0  0  0  0
  -32.9920  -14.5670   19.9530 O   0  0  0  0  0  0  0  0  0  0  0  0
  -31.0870  -15.5470   20.5720 N   0  0  0  0  0  0  0  0  0  0  0  0
  -30.1800  -15.3960   20.9890 H   0  0  0  0  0  0  0  0  0  0  0  0
  -26.3680  -14.3560   20.2920 C   0  0  0  0  0  0  0  0  0  0  0  0
  -25.2280  -13.6750   20.6320 C   0  0  0  0  0  0  0  0  0  0  0  0
  -25.5700  -12.2890   20.5930 C   0  0  0  0  0  0  0  0  0  0  0  0
  -27.3340  -13.3840   20.0730 N   0  0  0  0  0  0  0  0  0  0  0  0
  -26.8540  -12.1380   20.3060 N   0  0  0  0  0  0  0  0  0  0  0  0
  -24.7360  -11.0910   20.7520 C   0  0  0  0  0  0  0  0  0  0  0  0
  -25.0650  -10.0820   21.6820 C   0  0  0  0  0  3  0  0  0  0  0  0
  -24.2390   -8.9480   21.8280 C   0  0  0  0  0  3  0  0  0  0  0  0
  -23.0660   -8.8210   21.0480 C   0  0  0  0  0  0  0  0  0  0  0  0
  -22.7530   -9.8190   20.1090 C   0  0  0  0  0  3  0  0  0  0  0  0
  -23.5790  -10.9450   19.9600 C   0  0  0  0  0  3  0  0  0  0  0  0
  -22.2150   -7.7440   21.1080 O   0  0  0  0  0  0  0  0  0  0  0  0
  -22.0280   -7.0400   22.2700 C   0  0  0  0  0  0  0  0  0  0  0  0
  -21.5640   -7.6570   23.4520 C   0  0  0  0  0  3  0  0  0  0  0  0
  -21.3190   -6.8790   24.6030 C   0  0  0  0  0  3  0  0  0  0  0  0
  -21.5310   -5.4890   24.5700 C   0  0  0  0  0  0  0  0  0  0  0  0
  -21.9860   -4.8710   23.3910 C   0  0  0  0  0  3  0  0  0  0  0  0
  -22.2330   -5.6450   22.2450 C   0  0  0  0  0  0  0  0  0  0  0  0
  -22.6530   -5.0430   21.1060 F   0  0  0  0  0  0  0  0  0  0  0  0
  -21.2880   -4.7400   25.6720 F   0  0  0  0  0  0  0  0  0  0  0  0
  -23.8750  -14.2720   20.8870 C   0  0  0  0  0  0  0  0  0  0  0  0
  -23.0770  -13.6340   21.7430 N   0  0  0  0  0  0  0  0  0  0  0  0
  -23.5290  -15.3300   20.3670 O   0  0  0  0  0  0  0  0  0  0  0  0
  -23.3720  -12.7770   22.1900 H   0  0  0  0  0  0  0  0  0  0  0  0
  -22.1700  -14.0190   21.9650 H   0  0  0  0  0  0  0  0  0  0  0  0
  -26.6540  -15.7050   20.1340 N   0  0  0  0  0  0  0  0  0  0  0  0
  -25.9430  -16.4220   20.2420 H   0  0  0  0  0  0  0  0  0  0  0  0
  -27.5430  -16.0780   19.8300 H   0  0  0  0  0  0  0  0  0  0  0  0
  1  5  1  0
  2  5  2  0
  3  1  2  0
  4  2  1  0
  5  7  1  0
  6  3  1  0
  6  4  2  0
  7  9  2  0
  8  7  1  0
  8 10  1  0
 11  8  1  0
 12 11  1  0
 13 15  1  0
 13 12  1  0
 14 13  1  0
 16 13  1  0
 17 18  1  0
 17 16  1  0
 18 20  1  0
 19 30  2  0
 20 25  1  0
 21 29  1  0
 21 31  1  0
 22 24  1  0
 22 28  1  0
 23 29  1  0
 24 23  1  0
 25 24  2  0
 26 20  2  0
 26 27  1  0
 27 22  2  0
 28 21  1  0
 29 19  1  0
 31 32  1  0
 31 33  2  0
 34 32  1  0
 35 44  2  0
 35 40  1  0
 36 32  1  0
 36 40  1  0
 37 36  1  0
 38 39  1  0
 38 37  1  0
 39 35  1  0
 40 41  2  0
 41 42  1  0
 43 42  2  0
 44 43  1  0
 45 19  1  0
 45 55  1  0
 45 46  1  0
 46 47  1  0
 46 49  1  0
 47 51  1  0
 48 47  2  0
 51 50  1  0
 51 53  1  0
 53 52  1  0
 53 54  1  0
 55 58  1  1
 55 56  1  0
 57 55  1  0
 59  6  1  0
 60 62  1  0
 60 59  1  0
 61 60  1  0
 63 62  1  0
 63 64  1  0
 64 66  1  0
 64 67  1  0
 65 64  1  0
 67 68  1  0
 68 77  1  0
 69 77  1  0
 70 75  1  0
 71 72  1  0
 71 70  1  0
 73 72  1  0
 73 82  1  0
 73 74  1  0
 75 69  1  0
 75 74  1  0
 76 69  2  0
 77 78  1  0
 79 80  2  0
 80 99  1  0
 81 80  1  0
 81 84  1  0
 82 79  1  0
 82 83  1  0
 83 81  2  0
 84 85  1  0
 85 86  2  0
 87 90  1  0
 87 86  1  0
 88 87  2  0
 89 88  1  0
 89 84  2  0
 90 91  1  0
 91 92  1  0
 92 93  2  0
 94 93  1  0
 94 98  1  0
 95 94  2  0
 96 91  2  0
 96 95  1  0
 97 96  1  0
 99100  1  0
100103  1  0
100102  1  0
101 99  2  0
104105  1  0
104 79  1  0
106104  1  0
M  ISO  4  17 101  18 101  69 100  77 100
M  END
>  <TORSDO>  (74) 
F 29

>  <SCORE>  (74) 
-6.542

>  <name>  (74) 
75

>  <ligand_id>  (74) 
75

>  <original_smiles>  (74) 
[H]c1c([H])c([H])c2c(c1[H])C([H])([H])C([H])([H])C([H])([H])C2([H])N([H])C(=O)C1([H])N(C(=O)C([H])(N([H])C(=O)C([H])(N([H])C([H])([H])[H])C([H])([H])[H])C(C([H])([H])[H])(C([H])([H])[H])C([H])([H])[H])C([H])([H])c2c([H])c(OC([H])([H])C([H])([H])[N+]([H])([H])C([H])([H])C([H])([H])N([H])C(=O)c3c([H])c([H])c(C([H])([H])N([H])C([H])([H])C([H])([H])[N+]([H])([H])C([H])([H])C([H])([H])N([H])C(=O)N4C([H])([H])C([H])([H])C([H])([H])C([H])(n5nc(-c6c([H])c([H])c(Oc7c([H])c([H])c(F)c([H])c7F)c([H])c6[H])c(C(=O)N([H])[H])c5N([H])[H])C4([H])[H])c([H])c3[H])c([H])c([H])c2C1([H])[H]

>  <smiles>  (74) 
[H]c1c([H])c([H])c2c(c1[H])C([H])([H])C([H])([H])C([H])([H])C2([H])N([H])C(=O)C1([H])N(C(=O)C([H])(N([H])C(=O)C([H])(N([H])C([H])([H])[H])C([H])([H])[H])C(C([H])([H])[H])(C([H])([H])[H])C([H])([H])[H])C([H])([H])c2c([H])c(OC([H])([H])C([H])([H])[N+]([H])([H])C([H])([H])C([H])([H])N([H])C(=O)c3c([H])c([H])c(C([H])([H])N([H])C([H])([H])C([H])([H])[N+]([H])([H])C([H])([H])C([H])([H])N([H])C(=O)N4C([H])([H])C([H])([H])C([H])([H])C([H])(n5nc(-c6c([H])c([H])c(Oc7c([H])c([H])c(F)c([H])c7F)c([H])c6[H])c(C(=O)N([H])[H])c5N([H])[H])C4([H])[H])c([H])c3[H])c([H])c([H])c2C1([H])[H]

$$$$
76:0:0
     RDKit          3D

 96104  0  0  1  0  0  0  0  0999 V2000
  -29.8130  -22.1570   21.9960 C   0  0  0  0  0  3  0  0  0  0  0  0
  -29.5480  -20.2680   20.4850 C   0  0  0  0  0  3  0  0  0  0  0  0
  -29.1870  -23.0410   21.0560 C   0  0  0  0  0  0  0  0  0  0  0  0
  -30.0300  -20.7730   21.7060 C   0  0  0  0  0  0  0  0  0  0  0  0
  -28.7440  -22.4820   19.8290 C   0  0  0  0  0  0  0  0  0  0  0  0
  -28.8900  -21.1110   19.5660 C   0  0  0  0  0  0  0  0  0  0  0  0
  -28.3930  -20.6030   18.4110 F   0  0  0  0  0  0  0  0  0  0  0  0
  -28.1630  -23.2410   18.8430 O   0  0  0  0  0  0  0  0  0  0  0  0
  -27.8530  -22.7110   18.1080 H   0  0  0  0  0  0  0  0  0  0  0  0
  -29.5020  -18.8740   23.3100 C   0  0  0  0  0  1  0  0  0  0  0  0
  -30.6080  -19.7790   22.7360 C   0  0  0  0  0  3  0  0  0  0  0  0
  -31.8920  -18.9420   22.3420 C   0  0  0  0  0  2  0  0  0  0  0  0
  -31.9060  -17.8720   21.1840 C   0  0  0  0  0  2  0  0  0  0  0  0
  -31.7200  -16.3560   21.5770 C   0  0  0  0  0  2  0  0  0  0  0  0
  -32.5300  -14.6880   19.7110 C   0  0  0  0  0  0  0  0  0  0  0  0
  -31.8110  -12.6100   18.5520 C   0  0  0  0  0  2  0  0  0  0  0  0
  -30.8210  -12.8970   17.4020 C   0  0  0  0  0  2  0  0  0  0  0  0
  -29.3680  -12.9880   17.9300 C   0  0  0  0  0  2  0  0  0  0  0  0
  -29.2450  -13.8770   19.1970 C   0  0  0  0  0  3  0  0  0  0  0  0
  -30.3220  -13.5140   20.2450 C   0  0  0  0  0  2  0  0  0  0  0  0
  -31.6460  -13.6420   19.6060 N   0  0  0  0  0  0  0  0  0  0  0  0
  -33.4710  -14.8020   18.9250 O   0  0  0  0  0  0  0  0  0  0  0  0
  -32.6190  -15.3980   20.8610 N   0  0  0  0  0  0  0  0  0  0  0  0
  -33.5880  -15.6520   20.9920 H   0  0  0  0  0  0  0  0  0  0  0  0
  -27.0120  -14.8160   20.0470 C   0  0  0  0  0  0  0  0  0  0  0  0
  -25.8540  -14.2150   20.4600 C   0  0  0  0  0  0  0  0  0  0  0  0
  -26.0910  -12.8100   20.3780 C   0  0  0  0  0  0  0  0  0  0  0  0
  -27.8940  -13.7910   19.7590 N   0  0  0  0  0  0  0  0  0  0  0  0
  -27.3490  -12.5740   20.0120 N   0  0  0  0  0  0  0  0  0  0  0  0
  -25.1860  -11.6740   20.5800 C   0  0  0  0  0  0  0  0  0  0  0  0
  -25.4680  -10.6740   21.5440 C   0  0  0  0  0  3  0  0  0  0  0  0
  -24.5690   -9.6060   21.7500 C   0  0  0  0  0  3  0  0  0  0  0  0
  -23.3790   -9.5220   20.9920 C   0  0  0  0  0  0  0  0  0  0  0  0
  -23.1190  -10.4970   20.0150 C   0  0  0  0  0  3  0  0  0  0  0  0
  -24.0120  -11.5630   19.8050 C   0  0  0  0  0  3  0  0  0  0  0  0
  -22.4570   -8.5040   21.1030 O   0  0  0  0  0  0  0  0  0  0  0  0
  -22.1930   -7.8950   22.3040 C   0  0  0  0  0  0  0  0  0  0  0  0
  -21.7450   -8.6310   23.4210 C   0  0  0  0  0  3  0  0  0  0  0  0
  -21.4120   -7.9650   24.6180 C   0  0  0  0  0  3  0  0  0  0  0  0
  -21.5120   -6.5640   24.6970 C   0  0  0  0  0  0  0  0  0  0  0  0
  -21.9470   -5.8260   23.5810 C   0  0  0  0  0  3  0  0  0  0  0  0
  -22.2820   -6.4910   22.3870 C   0  0  0  0  0  0  0  0  0  0  0  0
  -22.6820   -5.7720   21.3130 F   0  0  0  0  0  0  0  0  0  0  0  0
  -21.1850   -5.9240   25.8430 F   0  0  0  0  0  0  0  0  0  0  0  0
  -24.5690  -14.8970   20.8340 C   0  0  0  0  0  0  0  0  0  0  0  0
  -23.8240  -14.3050   21.7610 N   0  0  0  0  0  0  0  0  0  0  0  0
  -24.2380  -15.9740   20.3440 O   0  0  0  0  0  0  0  0  0  0  0  0
  -24.1050  -13.4260   22.1650 H   0  0  0  0  0  0  0  0  0  0  0  0
  -22.9640  -14.7450   22.0610 H   0  0  0  0  0  0  0  0  0  0  0  0
  -27.3830  -16.1470   19.8640 N   0  0  0  0  0  0  0  0  0  0  0  0
  -26.7800  -16.9460   20.0280 H   0  0  0  0  0  0  0  0  0  0  0  0
  -28.2970  -16.4120   19.5180 H   0  0  0  0  0  0  0  0  0  0  0  0
  -29.0760  -24.5300   21.3480 C   0  0  0  0  0  0  0  0  0  0  0  0
  -29.7130  -25.0700   22.2610 O   0  0  0  0  0  0  0  0  0  0  0  0
  -28.0040  -25.3670   20.5690 C   0  0  0  0  0  2  0  0  0  0  0  0
  -28.4280  -26.6030   19.9050 O   0  0  0  0  0  0  0  0  0  0  0  0
  -24.5740  -31.6300   23.0970 C   0  0  0  0  0  0  0  0  0  0  0  0
  -27.3230  -27.4350   19.7750 C   0  0  0  0  0  0  0  0  0  0  0  0
  -23.3900  -30.2300   21.4410 C   0  0  0  0  0  3  0  0  0  0  0  0
  -24.8740  -28.8700   19.8610 C   0  0  0  0  0  0  0  0  0  0  0  0
  -25.8870  -30.7410   21.1680 C   0  0  0  0  0  2  0  0  0  0  0  0
  -26.0290  -29.4090   20.4490 C   0  0  0  0  0  0  0  0  0  0  0  0
  -27.2620  -28.7100   20.3890 C   0  0  0  0  0  3  0  0  0  0  0  0
  -26.1670  -26.9420   19.1250 C   0  0  0  0  0  3  0  0  0  0  0  0
  -24.9500  -27.6480   19.1730 C   0  0  0  0  0  3  0  0  0  0  0  0
  -23.5750  -29.6380   20.0180 C   0  0  0  0  0  2  0  0  0  0  0  0
  -24.6390  -30.8770   21.9600 N   0  0  0  0  0  0  0  0  0  0  0  0
  -23.4990  -31.8140   23.6860 O   0  0  0  0  0  0  0  0  0  0  0  0
  -22.8460  -29.1230   22.3730 C   0  0  0  0  0  0  0  0  0  0  0  0
  -21.5470  -28.8120   22.2360 N   0  0  0  0  0  0  0  0  0  0  0  0
  -23.5890  -28.5520   23.1740 O   0  0  0  0  0  0  0  0  0  0  0  0
  -21.0060  -29.3220   21.5500 H   0  0  0  0  0  0  0  0  0  0  0  0
  -18.3310  -27.2170   22.6150 C   0  0  0  0  0  0  0  0  0  0  0  0
  -20.8230  -27.7860   22.9850 C   0  0  0  0  0  3  0  0  0  0  0  0
  -21.1260  -26.3770   22.4270 C   0  0  0  0  0  2  0  0  0  0  0  0
  -20.1120  -25.9170   21.3760 C   0  0  0  0  0  2  0  0  0  0  0  0
  -18.6990  -25.8950   21.9640 C   0  0  0  0  0  2  0  0  0  0  0  0
  -19.3290  -28.1130   23.0800 C   0  0  0  0  0  0  0  0  0  0  0  0
  -18.9350  -29.3450   23.6450 C   0  0  0  0  0  3  0  0  0  0  0  0
  -17.5740  -29.6840   23.7560 C   0  0  0  0  0  3  0  0  0  0  0  0
  -16.5880  -28.7850   23.3100 C   0  0  0  0  0  3  0  0  0  0  0  0
  -16.9670  -27.5540   22.7450 C   0  0  0  0  0  3  0  0  0  0  0  0
  -25.8390  -32.3140   23.6940 C   0  0  0  0  0  3  0  0  0  0  0  0
  -25.4800  -33.6970   24.0340 N   0  0  0  0  0  0  0  0  0  0  0  0
  -25.8390  -34.7710   23.3180 C   0  0  0  0  0  0  0  0  0  0  0  0
  -26.5790  -34.7050   22.3320 O   0  0  0  0  0  0  0  0  0  0  0  0
  -24.8260  -33.8240   24.7940 H   0  0  0  0  0  0  0  0  0  0  0  0
  -24.1060  -36.5300   22.8660 C   0  0  0  0  0  1  0  0  0  0  0  0
  -25.2900  -36.1390   23.7650 C   0  0  0  0  0  3  0  0  0  0  0  0
  -27.3420  -37.0300   24.7740 C   0  0  0  0  0  1  0  0  0  0  0  0
  -26.3090  -37.2120   23.7570 N   0  0  0  0  0  0  0  0  0  0  0  0
  -25.8770  -38.1220   23.9030 H   0  0  0  0  0  0  0  0  0  0  0  0
  -26.4160  -31.5600   24.9540 C   0  0  1  0  0  0  0  0  0  0  0  0
  -25.3540  -31.2530   26.0360 C   0  0  0  0  0  1  0  0  0  0  0  0
  -27.0640  -30.2180   24.5380 C   0  0  0  0  0  1  0  0  0  0  0  0
  -27.5400  -32.4060   25.5990 C   0  0  0  0  0  1  0  0  0  0  0  0
  2  4  2  0
  3 53  1  0
  3  1  2  0
  4  1  1  0
  4 11  1  0
  5  3  1  0
  6  5  2  0
  6  2  1  0
  7  6  1  0
  8  5  1  0
  9  8  1  0
 11 10  1  0
 12 11  1  0
 13 14  1  0
 13 12  1  0
 15 23  1  0
 16 21  1  0
 17 18  1  0
 17 16  1  0
 19 18  1  0
 19 28  1  0
 19 20  1  0
 21 15  1  0
 21 20  1  0
 22 15  2  0
 23 24  1  0
 23 14  1  0
 25 26  2  0
 26 45  1  0
 27 26  1  0
 27 30  1  0
 28 29  1  0
 28 25  1  0
 29 27  2  0
 30 31  1  0
 31 32  2  0
 33 36  1  0
 33 32  1  0
 34 33  2  0
 35 34  1  0
 35 30  2  0
 36 37  1  0
 37 42  2  0
 37 38  1  0
 38 39  2  0
 39 40  1  0
 40 44  1  0
 41 40  2  0
 42 41  1  0
 43 42  1  0
 45 46  1  0
 46 49  1  0
 46 48  1  0
 47 45  2  0
 50 51  1  0
 50 25  1  0
 52 50  1  0
 53 54  2  0
 55 53  1  0
 56 55  1  0
 57 68  2  0
 58 56  1  0
 58 63  1  0
 59 67  1  0
 59 69  1  0
 60 66  1  0
 60 62  1  0
 61 67  1  0
 62 61  1  0
 63 62  2  0
 64 65  1  0
 64 58  2  0
 65 60  2  0
 66 59  1  0
 67 57  1  0
 69 71  2  0
 70 69  1  0
 72 70  1  0
 73 82  2  0
 73 78  1  0
 74 70  1  0
 74 78  1  0
 75 74  1  0
 76 77  1  0
 76 75  1  0
 77 73  1  0
 78 79  2  0
 79 80  1  0
 81 80  2  0
 82 81  1  0
 83 57  1  0
 83 84  1  0
 83 93  1  0
 84 87  1  0
 85 89  1  0
 85 84  1  0
 86 85  2  0
 89 88  1  0
 91 89  1  0
 91 92  1  0
 91 90  1  0
 93 96  1  1
 93 94  1  0
 95 93  1  0
M  ISO  4  15 100  23 100  55 101  56 101
M  END
>  <TORSDO>  (75) 
F 23

>  <SCORE>  (75) 
-6.519

>  <name>  (75) 
76

>  <ligand_id>  (75) 
76

>  <original_smiles>  (75) 
[H]Oc1c(F)c([H])c(C([H])(C([H])([H])[H])C([H])([H])C([H])([H])C([H])([H])N([H])C(=O)N2C([H])([H])C([H])([H])C([H])([H])C([H])(n3nc(-c4c([H])c([H])c(Oc5c([H])c([H])c(F)c([H])c5F)c([H])c4[H])c(C(=O)N([H])[H])c3N([H])[H])C2([H])[H])c([H])c1C(=O)C([H])([H])Oc1c([H])c([H])c2c(c1[H])C([H])([H])N(C(=O)C([H])(N([H])C(=O)C([H])(N([H])C([H])([H])[H])C([H])([H])[H])C(C([H])([H])[H])(C([H])([H])[H])C([H])([H])[H])C([H])(C(=O)N([H])C1([H])c3c([H])c([H])c([H])c([H])c3C([H])([H])C([H])([H])C1([H])[H])C2([H])[H]

>  <smiles>  (75) 
[H]Oc1c(F)c([H])c(C([H])(C([H])([H])[H])C([H])([H])C([H])([H])C([H])([H])N([H])C(=O)N2C([H])([H])C([H])([H])C([H])([H])C([H])(n3nc(-c4c([H])c([H])c(Oc5c([H])c([H])c(F)c([H])c5F)c([H])c4[H])c(C(=O)N([H])[H])c3N([H])[H])C2([H])[H])c([H])c1C(=O)C([H])([H])Oc1c([H])c([H])c2c(c1[H])C([H])([H])N(C(=O)C([H])(N([H])C(=O)C([H])(N([H])C([H])([H])[H])C([H])([H])[H])C(C([H])([H])[H])(C([H])([H])[H])C([H])([H])[H])C([H])(C(=O)N([H])C1([H])c3c([H])c([H])c([H])c([H])c3C([H])([H])C([H])([H])C1([H])[H])C2([H])[H]

$$$$
77:0:0
     RDKit          3D

 96104  0  0  1  0  0  0  0  0999 V2000
  -27.4480  -20.9440   21.1750 C   0  0  0  0  0  3  0  0  0  0  0  0
  -27.7790  -19.6900   20.6260 C   0  0  0  0  0  3  0  0  0  0  0  0
  -29.0670  -22.0180   19.6990 C   0  0  0  0  0  3  0  0  0  0  0  0
  -28.1090  -22.1100   20.7310 C   0  0  0  0  0  0  0  0  0  0  0  0
  -28.7630  -19.5980   19.6180 C   0  0  0  0  0  0  0  0  0  0  0  0
  -29.3800  -20.7710   19.1300 C   0  0  0  0  0  0  0  0  0  0  0  0
  -30.3010  -20.7120   18.1400 F   0  0  0  0  0  0  0  0  0  0  0  0
  -27.7330  -23.4490   21.2810 C   0  0  0  0  0  0  0  0  0  0  0  0
  -28.7600  -24.2270   21.6340 N   0  0  0  0  0  0  0  0  0  0  0  0
  -26.5540  -23.8020   21.3190 O   0  0  0  0  0  0  0  0  0  0  0  0
  -29.6690  -23.7920   21.6820 H   0  0  0  0  0  0  0  0  0  0  0  0
  -28.7270  -25.6780   21.5370 C   0  0  0  0  0  2  0  0  0  0  0  0
  -29.0870  -26.0640   20.0930 C   0  0  0  0  0  2  0  0  0  0  0  0
  -28.9610  -27.4580   19.8780 O   0  0  0  0  0  0  0  0  0  0  0  0
  -24.6760  -31.9290   23.3120 C   0  0  0  0  0  0  0  0  0  0  0  0
  -27.7020  -28.0000   19.9360 C   0  0  0  0  0  0  0  0  0  0  0  0
  -23.5960  -30.5820   21.5360 C   0  0  0  0  0  3  0  0  0  0  0  0
  -25.1800  -29.2670   20.0290 C   0  0  0  0  0  0  0  0  0  0  0  0
  -26.0770  -31.1550   21.4030 C   0  0  0  0  0  2  0  0  0  0  0  0
  -26.2810  -29.8460   20.6720 C   0  0  0  0  0  0  0  0  0  0  0  0
  -27.5390  -29.2190   20.6250 C   0  0  0  0  0  3  0  0  0  0  0  0
  -26.5820  -27.4190   19.2940 C   0  0  0  0  0  3  0  0  0  0  0  0
  -25.3220  -28.0480   19.3460 C   0  0  0  0  0  3  0  0  0  0  0  0
  -23.8720  -30.0180   20.1120 C   0  0  0  0  0  2  0  0  0  0  0  0
  -24.8010  -31.2310   22.1480 N   0  0  0  0  0  0  0  0  0  0  0  0
  -23.5730  -32.0730   23.8550 O   0  0  0  0  0  0  0  0  0  0  0  0
  -23.0100  -29.4430   22.3990 C   0  0  0  0  0  0  0  0  0  0  0  0
  -21.7050  -29.1760   22.2280 N   0  0  0  0  0  0  0  0  0  0  0  0
  -23.7230  -28.8070   23.1770 O   0  0  0  0  0  0  0  0  0  0  0  0
  -21.1830  -29.7500   21.5790 H   0  0  0  0  0  0  0  0  0  0  0  0
  -18.4180  -27.7290   22.5750 C   0  0  0  0  0  0  0  0  0  0  0  0
  -20.9510  -28.1200   22.8990 C   0  0  0  0  0  3  0  0  0  0  0  0
  -21.1470  -26.7580   22.1920 C   0  0  0  0  0  2  0  0  0  0  0  0
  -20.0730  -26.4630   21.1410 C   0  0  0  0  0  2  0  0  0  0  0  0
  -18.6830  -26.4600   21.7810 C   0  0  0  0  0  2  0  0  0  0  0  0
  -19.4820  -28.5160   23.0860 C   0  0  0  0  0  0  0  0  0  0  0  0
  -19.1790  -29.7050   23.7890 C   0  0  0  0  0  3  0  0  0  0  0  0
  -17.8440  -30.1080   23.9810 C   0  0  0  0  0  3  0  0  0  0  0  0
  -16.7940  -29.3160   23.4820 C   0  0  0  0  0  3  0  0  0  0  0  0
  -17.0810  -28.1260   22.7890 C   0  0  0  0  0  3  0  0  0  0  0  0
  -25.9070  -32.5880   24.0110 C   0  0  0  0  0  3  0  0  0  0  0  0
  -25.5310  -33.9600   24.3720 N   0  0  0  0  0  0  0  0  0  0  0  0
  -25.8710  -35.0500   23.6670 C   0  0  0  0  0  0  0  0  0  0  0  0
  -26.6020  -35.0050   22.6750 O   0  0  0  0  0  0  0  0  0  0  0  0
  -24.8860  -34.0660   25.1420 H   0  0  0  0  0  0  0  0  0  0  0  0
  -24.1110  -36.7940   23.2480 C   0  0  0  0  0  1  0  0  0  0  0  0
  -25.3030  -36.4020   24.1380 C   0  0  0  0  0  3  0  0  0  0  0  0
  -27.3390  -37.3170   25.1540 C   0  0  0  0  0  1  0  0  0  0  0  0
  -26.3040  -37.4920   24.1370 N   0  0  0  0  0  0  0  0  0  0  0  0
  -25.8580  -38.3920   24.2900 H   0  0  0  0  0  0  0  0  0  0  0  0
  -26.4070  -31.7940   25.2800 C   0  0  1  0  0  0  0  0  0  0  0  0
  -25.2710  -31.4100   26.2580 C   0  0  0  0  0  1  0  0  0  0  0  0
  -27.1290  -30.4950   24.8510 C   0  0  0  0  0  1  0  0  0  0  0  0
  -27.4470  -32.6400   26.0530 C   0  0  0  0  0  1  0  0  0  0  0  0
  -29.1490  -18.2790   19.0730 C   0  0  0  0  0  0  0  0  0  0  0  0
  -29.1290  -17.9820   17.8730 O   0  0  0  0  0  0  0  0  0  0  0  0
  -29.6490  -17.2580   20.0960 C   0  0  0  0  0  2  0  0  0  0  0  0
  -31.1860  -17.0820   20.0530 C   0  0  0  0  0  2  0  0  0  0  0  0
  -32.0410  -14.7730   19.8550 C   0  0  0  0  0  0  0  0  0  0  0  0
  -31.6320  -12.4940   19.0170 C   0  0  0  0  0  2  0  0  0  0  0  0
  -30.6950  -12.5350   17.7960 C   0  0  0  0  0  2  0  0  0  0  0  0
  -29.2200  -12.5290   18.2290 C   0  0  0  0  0  2  0  0  0  0  0  0
  -28.9160  -13.5770   19.3290 C   0  0  0  0  0  3  0  0  0  0  0  0
  -29.9530  -13.4960   20.4700 C   0  0  0  0  0  2  0  0  0  0  0  0
  -31.3060  -13.6300   19.8910 N   0  0  0  0  0  0  0  0  0  0  0  0
  -33.0530  -14.9170   19.1670 O   0  0  0  0  0  0  0  0  0  0  0  0
  -31.5650  -15.7770   20.6020 N   0  0  0  0  0  0  0  0  0  0  0  0
  -31.9460  -15.7920   21.5430 H   0  0  0  0  0  0  0  0  0  0  0  0
  -26.5840  -14.4130   20.0390 C   0  0  0  0  0  0  0  0  0  0  0  0
  -25.4600  -13.7530   20.4490 C   0  0  0  0  0  0  0  0  0  0  0  0
  -25.7950  -12.3640   20.4400 C   0  0  0  0  0  0  0  0  0  0  0  0
  -27.5470  -13.4390   19.8240 N   0  0  0  0  0  0  0  0  0  0  0  0
  -27.0720  -12.2000   20.1120 N   0  0  0  0  0  0  0  0  0  0  0  0
  -24.9570  -11.1810   20.6670 C   0  0  0  0  0  0  0  0  0  0  0  0
  -25.2470  -10.2630   21.6980 C   0  0  0  0  0  3  0  0  0  0  0  0
  -24.4160   -9.1450   21.9130 C   0  0  0  0  0  3  0  0  0  0  0  0
  -23.2810   -8.9340   21.0920 C   0  0  0  0  0  0  0  0  0  0  0  0
  -23.0120   -9.8400   20.0530 C   0  0  0  0  0  3  0  0  0  0  0  0
  -23.8440  -10.9500   19.8390 C   0  0  0  0  0  3  0  0  0  0  0  0
  -22.4400   -7.8530   21.2040 O   0  0  0  0  0  0  0  0  0  0  0  0
  -22.1550   -7.2870   22.4210 C   0  0  0  0  0  0  0  0  0  0  0  0
  -21.5630   -8.0290   23.4660 C   0  0  0  0  0  3  0  0  0  0  0  0
  -21.2240   -7.3920   24.6770 C   0  0  0  0  0  3  0  0  0  0  0  0
  -21.4680   -6.0160   24.8410 C   0  0  0  0  0  0  0  0  0  0  0  0
  -22.0540   -5.2730   23.8000 C   0  0  0  0  0  3  0  0  0  0  0  0
  -22.3920   -5.9090   22.5920 C   0  0  0  0  0  0  0  0  0  0  0  0
  -22.9370   -5.1860   21.5840 F   0  0  0  0  0  0  0  0  0  0  0  0
  -21.1370   -5.4030   26.0010 F   0  0  0  0  0  0  0  0  0  0  0  0
  -24.1170  -14.3660   20.7280 C   0  0  0  0  0  0  0  0  0  0  0  0
  -23.3530  -13.7740   21.6380 N   0  0  0  0  0  0  0  0  0  0  0  0
  -23.7620  -15.4090   20.1770 O   0  0  0  0  0  0  0  0  0  0  0  0
  -23.6580  -12.9340   22.1050 H   0  0  0  0  0  0  0  0  0  0  0  0
  -22.4490  -14.1610   21.8660 H   0  0  0  0  0  0  0  0  0  0  0  0
  -26.8450  -15.7560   19.8060 N   0  0  0  0  0  0  0  0  0  0  0  0
  -26.0690  -16.4090   19.8040 H   0  0  0  0  0  0  0  0  0  0  0  0
  -27.6170  -16.0650   19.2260 H   0  0  0  0  0  0  0  0  0  0  0  0
  2  1  2  0
  3  4  2  0
  4  1  1  0
  4  8  1  0
  5  2  1  0
  6  5  2  0
  6  3  1  0
  7  6  1  0
  8 10  2  0
  8  9  1  0
  9 11  1  0
 12  9  1  0
 13 12  1  0
 14 16  1  0
 14 13  1  0
 15 26  2  0
 16 21  1  0
 17 25  1  0
 17 27  1  0
 18 24  1  0
 18 20  1  0
 19 25  1  0
 20 19  1  0
 21 20  2  0
 22 23  1  0
 22 16  2  0
 23 18  2  0
 24 17  1  0
 25 15  1  0
 27 29  2  0
 28 27  1  0
 30 28  1  0
 31 40  2  0
 31 36  1  0
 32 28  1  0
 32 36  1  0
 33 32  1  0
 34 35  1  0
 34 33  1  0
 35 31  1  0
 36 37  2  0
 37 38  1  0
 39 38  2  0
 40 39  1  0
 41 15  1  0
 41 42  1  0
 41 51  1  0
 42 45  1  0
 43 47  1  0
 43 42  1  0
 44 43  2  0
 47 46  1  0
 49 47  1  0
 49 50  1  0
 49 48  1  0
 51 54  1  1
 51 52  1  0
 53 51  1  0
 55  5  1  0
 55 57  1  0
 56 55  2  0
 58 57  1  0
 58 67  1  0
 59 65  1  0
 59 67  1  0
 60 65  1  0
 61 62  1  0
 61 60  1  0
 63 62  1  0
 63 72  1  0
 63 64  1  0
 65 64  1  0
 66 59  2  0
 67 68  1  0
 69 70  2  0
 70 89  1  0
 71 70  1  0
 71 74  1  0
 72 69  1  0
 72 73  1  0
 73 71  2  0
 74 75  1  0
 75 76  2  0
 77 80  1  0
 77 76  1  0
 78 77  2  0
 79 78  1  0
 79 74  2  0
 80 81  1  0
 81 86  2  0
 81 82  1  0
 82 83  2  0
 83 84  1  0
 84 88  1  0
 85 84  2  0
 86 85  1  0
 87 86  1  0
 89 90  1  0
 90 93  1  0
 90 92  1  0
 91 89  2  0
 94 69  1  0
 95 94  1  0
 96 94  1  0
M  ISO  4  13 101  14 101  59 100  67 100
M  END
>  <TORSDO>  (76) 
F 22

>  <SCORE>  (76) 
-9.865

>  <name>  (76) 
77

>  <ligand_id>  (76) 
77

>  <original_smiles>  (76) 
[H]c1c([H])c([H])c2c(c1[H])C([H])([H])C([H])([H])C([H])([H])C2([H])N([H])C(=O)C1([H])N(C(=O)C([H])(N([H])C(=O)C([H])(N([H])C([H])([H])[H])C([H])([H])[H])C(C([H])([H])[H])(C([H])([H])[H])C([H])([H])[H])C([H])([H])c2c([H])c(OC([H])([H])C([H])([H])N([H])C(=O)c3c([H])c([H])c(C(=O)C([H])([H])C([H])([H])N([H])C(=O)N4C([H])([H])C([H])([H])C([H])([H])C([H])(n5nc(-c6c([H])c([H])c(Oc7c([H])c([H])c(F)c([H])c7F)c([H])c6[H])c(C(=O)N([H])[H])c5N([H])[H])C4([H])[H])c(F)c3[H])c([H])c([H])c2C1([H])[H]

>  <smiles>  (76) 
[H]c1c([H])c([H])c2c(c1[H])C([H])([H])C([H])([H])C([H])([H])C2([H])N([H])C(=O)C1([H])N(C(=O)C([H])(N([H])C(=O)C([H])(N([H])C([H])([H])[H])C([H])([H])[H])C(C([H])([H])[H])(C([H])([H])[H])C([H])([H])[H])C([H])([H])c2c([H])c(OC([H])([H])C([H])([H])N([H])C(=O)c3c([H])c([H])c(C(=O)C([H])([H])C([H])([H])N([H])C(=O)N4C([H])([H])C([H])([H])C([H])([H])C([H])(n5nc(-c6c([H])c([H])c(Oc7c([H])c([H])c(F)c([H])c7F)c([H])c6[H])c(C(=O)N([H])[H])c5N([H])[H])C4([H])[H])c(F)c3[H])c([H])c([H])c2C1([H])[H]

$$$$
78:0:0
     RDKit          3D

 96103  0  0  1  0  0  0  0  0999 V2000
  -29.2040  -11.8410   19.6160 C   0  0  0  0  0  2  0  0  0  0  0  0
  -28.4880  -10.4650   19.0810 C   0  0  0  0  0  0  0  0  0  0  0  0
  -27.9330   -8.8690   17.2400 C   0  0  0  0  0  1  0  0  0  0  0  0
  -28.5440  -10.0730   17.7950 N   0  0  0  0  0  0  0  0  0  0  0  0
  -28.0250   -9.6480   19.8900 O   0  0  0  0  0  0  0  0  0  0  0  0
  -29.0060  -10.6930   17.1400 H   0  0  0  0  0  0  0  0  0  0  0  0
  -29.5210  -11.2270   21.0110 N   0  0  0  0  0  4  0  0  0  0  0  0
  -28.9230  -11.6480   21.7000 H   0  0  0  0  0  0  0  0  0  0  0  0
  -29.1200  -10.2980   20.8630 H   0  0  0  0  0  0  0  0  0  0  0  0
  -30.9180  -11.0620   21.5490 C   0  0  0  0  0  2  0  0  0  0  0  0
  -31.3390  -12.1030   22.6590 C   0  0  0  0  0  2  0  0  0  0  0  0
  -31.7310  -14.1350   21.1860 C   0  0  0  0  0  0  0  0  0  0  0  0
  -31.1180  -13.3380   18.9010 C   0  0  0  0  0  2  0  0  0  0  0  0
  -29.7520  -13.2320   17.6200 C   0  0  0  0  0  3  0  0  0  0  0  0
  -27.9360  -13.4370   18.1670 C   0  0  0  0  0  0  0  0  0  0  0  0
  -27.6120  -13.7690   19.9950 C   0  0  0  0  0  0  0  0  0  0  0  0
  -29.0680  -13.8900   21.2220 C   0  0  0  0  0  3  0  0  0  0  0  0
  -30.7070  -13.6800   20.5690 N   0  0  0  0  0  0  0  0  0  0  0  0
  -32.5010  -14.9120   20.6330 O   0  0  0  0  0  0  0  0  0  0  0  0
  -32.0550  -13.3280   22.2080 N   0  0  0  0  0  0  0  0  0  0  0  0
  -32.9280  -13.5380   22.6700 H   0  0  0  0  0  0  0  0  0  0  0  0
  -25.3430  -14.0280   20.8020 C   0  0  0  0  0  0  0  0  0  0  0  0
  -24.3520  -13.1620   21.0890 C   0  0  0  0  0  0  0  0  0  0  0  0
  -24.8990  -11.8450   21.0100 C   0  0  0  0  0  0  0  0  0  0  0  0
  -26.4170  -13.2390   20.5200 N   0  0  0  0  0  0  0  0  0  0  0  0
  -26.1920  -11.9200   20.7200 N   0  0  0  0  0  0  0  0  0  0  0  0
  -24.2340  -10.5450   21.1400 C   0  0  0  0  0  0  0  0  0  0  0  0
  -24.6520   -9.5760   22.0780 C   0  0  0  0  0  3  0  0  0  0  0  0
  -23.9340   -8.3680   22.2230 C   0  0  0  0  0  3  0  0  0  0  0  0
  -22.7880   -8.1220   21.4280 C   0  0  0  0  0  0  0  0  0  0  0  0
  -22.3990   -9.0780   20.4740 C   0  0  0  0  0  3  0  0  0  0  0  0
  -23.1170  -10.2740   20.3260 C   0  0  0  0  0  3  0  0  0  0  0  0
  -22.0390   -6.9720   21.4850 O   0  0  0  0  0  0  0  0  0  0  0  0
  -21.9110   -6.2510   22.6430 C   0  0  0  0  0  0  0  0  0  0  0  0
  -21.3690   -6.8180   23.8180 C   0  0  0  0  0  3  0  0  0  0  0  0
  -21.1900   -6.0190   24.9660 C   0  0  0  0  0  3  0  0  0  0  0  0
  -21.5420   -4.6560   24.9370 C   0  0  0  0  0  0  0  0  0  0  0  0
  -22.0760   -4.0890   23.7670 C   0  0  0  0  0  3  0  0  0  0  0  0
  -22.2540   -4.8850   22.6220 C   0  0  0  0  0  0  0  0  0  0  0  0
  -22.7480   -4.3300   21.4880 F   0  0  0  0  0  0  0  0  0  0  0  0
  -21.3640   -3.8870   26.0370 F   0  0  0  0  0  0  0  0  0  0  0  0
  -22.9480  -13.5820   21.3220 C   0  0  0  0  0  0  0  0  0  0  0  0
  -22.2430  -12.8630   22.1790 N   0  0  0  0  0  0  0  0  0  0  0  0
  -22.5040  -14.6010   20.7930 O   0  0  0  0  0  0  0  0  0  0  0  0
  -22.6390  -12.0470   22.6240 H   0  0  0  0  0  0  0  0  0  0  0  0
  -21.2930  -13.1240   22.3930 H   0  0  0  0  0  0  0  0  0  0  0  0
  -25.3930  -15.4210   20.7270 N   0  0  0  0  0  0  0  0  0  0  0  0
  -24.5660  -15.9910   20.8700 H   0  0  0  0  0  0  0  0  0  0  0  0
  -26.2030  -15.9620   20.4560 H   0  0  0  0  0  0  0  0  0  0  0  0
  -29.1700  -14.7300   18.8960 C   0  0  0  0  0  2  0  0  0  0  0  0
  -28.4780  -16.4570   19.4640 C   0  0  0  0  0  2  0  0  0  0  0  0
  -28.8730  -18.3260   19.3600 C   0  0  0  0  0  3  0  0  0  0  0  0
  -28.0840  -20.0270   19.7520 C   0  0  0  0  0  3  0  0  0  0  0  0
  -28.5220  -21.8930   19.7890 C   0  0  0  0  0  3  0  0  0  0  0  0
  -27.6990  -23.6070   20.0180 C   0  0  0  0  0  3  0  0  0  0  0  0
  -28.0670  -25.3000   20.1840 O   0  0  0  0  0  0  0  0  0  0  0  0
  -24.6200  -31.6310   23.0970 C   0  0  0  0  0  0  0  0  0  0  0  0
  -27.1590  -26.5370   20.1690 C   0  0  0  0  0  0  0  0  0  0  0  0
  -23.4750  -30.2210   21.4490 C   0  0  0  0  0  3  0  0  0  0  0  0
  -24.9420  -28.5690   20.0860 C   0  0  0  0  0  0  0  0  0  0  0  0
  -26.0590  -30.3520   21.3980 C   0  0  0  0  0  2  0  0  0  0  0  0
  -26.1270  -28.9210   20.7440 C   0  0  0  0  0  0  0  0  0  0  0  0
  -27.2340  -27.9260   20.7570 C   0  0  0  0  0  3  0  0  0  0  0  0
  -25.9450  -26.3900   19.4720 C   0  0  0  0  0  3  0  0  0  0  0  0
  -24.8870  -27.3310   19.4330 C   0  0  0  0  0  3  0  0  0  0  0  0
  -23.7450  -29.5240   20.0880 C   0  0  0  0  0  2  0  0  0  0  0  0
  -24.7420  -30.7690   22.0320 N   0  0  0  0  0  0  0  0  0  0  0  0
  -23.5130  -31.9380   23.5710 O   0  0  0  0  0  0  0  0  0  0  0  0
  -22.7380  -29.2450   22.4050 C   0  0  0  0  0  0  0  0  0  0  0  0
  -21.4060  -29.1100   22.2630 N   0  0  0  0  0  0  0  0  0  0  0  0
  -23.3750  -28.6100   23.2490 O   0  0  0  0  0  0  0  0  0  0  0  0
  -20.9440  -29.6700   21.5590 H   0  0  0  0  0  0  0  0  0  0  0  0
  -17.9910  -27.9700   22.7470 C   0  0  0  0  0  0  0  0  0  0  0  0
  -20.5560  -28.1890   23.0260 C   0  0  0  0  0  3  0  0  0  0  0  0
  -20.6330  -26.7560   22.4510 C   0  0  0  0  0  2  0  0  0  0  0  0
  -19.5330  -26.4550   21.4280 C   0  0  0  0  0  2  0  0  0  0  0  0
  -18.1490  -26.6220   22.0640 C   0  0  0  0  0  2  0  0  0  0  0  0
  -19.1210  -28.7120   23.1840 C   0  0  0  0  0  0  0  0  0  0  0  0
  -18.9180  -29.9710   23.7900 C   0  0  0  0  0  3  0  0  0  0  0  0
  -17.6210  -30.4900   23.9580 C   0  0  0  0  0  3  0  0  0  0  0  0
  -16.5070  -29.7470   23.5320 C   0  0  0  0  0  3  0  0  0  0  0  0
  -16.6920  -28.4880   22.9340 C   0  0  0  0  0  3  0  0  0  0  0  0
  -25.8660  -32.2900   23.7620 C   0  0  0  0  0  3  0  0  0  0  0  0
  -26.3320  -31.5410   25.0710 C   0  0  1  0  0  0  0  0  0  0  0  0
  -25.2000  -31.3220   26.1030 C   0  0  0  0  0  1  0  0  0  0  0  0
  -26.9290  -30.1560   24.7390 C   0  0  0  0  0  1  0  0  0  0  0  0
  -27.4590  -32.3480   25.7610 C   0  0  0  0  0  1  0  0  0  0  0  0
  -25.5240  -33.6900   24.0840 N   0  0  0  0  0  0  0  0  0  0  0  0
  -25.8780  -34.7580   23.3560 C   0  0  0  0  0  0  0  0  0  0  0  0
  -26.5840  -34.6700   22.3500 O   0  0  0  0  0  0  0  0  0  0  0  0
  -24.8960  -33.8310   24.8620 H   0  0  0  0  0  0  0  0  0  0  0  0
  -24.1610  -36.5620   22.9680 C   0  0  0  0  0  1  0  0  0  0  0  0
  -25.3720  -36.1420   23.8160 C   0  0  0  0  0  3  0  0  0  0  0  0
  -27.4660  -37.0320   24.7440 C   0  0  0  0  0  1  0  0  0  0  0  0
  -26.4060  -37.1990   23.7540 N   0  0  0  0  0  0  0  0  0  0  0  0
  -25.9920  -38.1190   23.8860 H   0  0  0  0  0  0  0  0  0  0  0  0
  1  7  1  0
  2  1  1  0
  2  5  2  0
  3  4  1  0
  4  2  1  0
  6  4  1  0
  7 10  1  0
  7  8  1  0
  9  7  1  0
 10 11  1  0
 12 20  1  0
 13 18  1  0
 14 15  2  3
 14 13  1  0
 15 50  1  0
 15 16  1  0
 16 25  1  0
 16 17  2  0
 18 12  1  0
 18 17  1  0
 19 12  2  0
 20 11  1  0
 20 21  1  0
 22 23  2  0
 23 42  1  0
 24 23  1  0
 24 27  1  0
 25 26  1  0
 25 22  1  0
 26 24  2  0
 27 28  1  0
 28 29  2  0
 30 33  1  0
 30 29  1  0
 31 30  2  0
 32 31  1  0
 32 27  2  0
 33 34  1  0
 34 35  1  0
 35 36  2  0
 37 36  1  0
 37 41  1  0
 38 37  2  0
 39 34  2  0
 39 38  1  0
 40 39  1  0
 42 43  1  0
 43 46  1  0
 43 45  1  0
 44 42  2  0
 47 22  1  0
 47 48  1  0
 49 47  1  0
 50 51  1  0
 52 51  1  0
 52 53  2  0
 53 54  1  0
 54 55  2  0
 55 56  1  0
 57 68  2  0
 58 56  1  0
 58 63  1  0
 59 67  1  0
 59 69  1  0
 60 66  1  0
 60 62  1  0
 61 67  1  0
 62 63  2  0
 62 61  1  0
 64 58  2  0
 65 64  1  0
 65 60  2  0
 66 59  1  0
 67 57  1  0
 69 71  2  0
 70 69  1  0
 72 70  1  0
 73 82  2  0
 73 78  1  0
 74 70  1  0
 74 78  1  0
 75 74  1  0
 76 77  1  0
 76 75  1  0
 77 73  1  0
 78 79  2  0
 79 80  1  0
 81 80  2  0
 82 81  1  0
 83 57  1  0
 83 88  1  0
 83 84  1  0
 84 87  1  1
 84 85  1  0
 86 84  1  0
 88 91  1  0
 89 93  1  0
 89 88  1  0
 90 89  2  0
 93 92  1  0
 95 93  1  0
 95 96  1  0
 95 94  1  0
M  ISO  4  12 100  20 100  55 101  56 101
M  END
>  <TORSDO>  (77) 
F 26

>  <SCORE>  (77) 
-11.580

>  <name>  (77) 
78

>  <ligand_id>  (77) 
78

>  <original_smiles>  (77) 
[H]c1c([H])c([H])c2c(c1[H])C([H])([H])C([H])([H])C([H])([H])C2([H])N([H])C(=O)C1([H])N(C(=O)C([H])(N([H])C(=O)C([H])(N([H])C([H])([H])[H])C([H])([H])[H])C(C([H])([H])[H])(C([H])([H])[H])C([H])([H])[H])C([H])([H])c2c([H])c(OC([H])([H])C([H])([H])C([H])([H])C([H])([H])C([H])([H])C([H])([H])C([H])(C(=O)N([H])C([H])([H])[H])[N+]([H])([H])C([H])([H])C([H])([H])N([H])C(=O)N3C([H])([H])C([H])([H])C([H])([H])C([H])(n4nc(-c5c([H])c([H])c(Oc6c([H])c([H])c(F)c([H])c6F)c([H])c5[H])c(C(=O)N([H])[H])c4N([H])[H])C3([H])[H])c([H])c([H])c2C1([H])[H]

>  <smiles>  (77) 
[H]c1c([H])c([H])c2c(c1[H])C([H])([H])C([H])([H])C([H])([H])C2([H])N([H])C(=O)C1([H])N(C(=O)C([H])(N([H])C(=O)C([H])(N([H])C([H])([H])[H])C([H])([H])[H])C(C([H])([H])[H])(C([H])([H])[H])C([H])([H])[H])C([H])([H])c2c([H])c(OC([H])([H])C([H])([H])C([H])([H])C([H])([H])C([H])([H])C([H])([H])C([H])(C(=O)N([H])C([H])([H])[H])[N+]([H])([H])C([H])([H])C([H])([H])N([H])C(=O)N3C([H])([H])C([H])([H])C([H])([H])C([H])(n4nc(-c5c([H])c([H])c(Oc6c([H])c([H])c(F)c([H])c6F)c([H])c5[H])c(C(=O)N([H])[H])c4N([H])[H])C3([H])[H])c([H])c([H])c2C1([H])[H]

$$$$
79:0:0
     RDKit          3D

100108  0  0  1  0  0  0  0  0999 V2000
  -27.0400  -23.0020   22.0360 C   0  0  0  0  0  3  0  0  0  0  0  0
  -29.4280  -23.3290   22.3890 C   0  0  0  0  0  3  0  0  0  0  0  0
  -26.7830  -24.2620   22.6100 C   0  0  0  0  0  3  0  0  0  0  0  0
  -29.1740  -24.5860   22.9630 C   0  0  0  0  0  3  0  0  0  0  0  0
  -28.3710  -22.5660   21.8530 C   0  0  0  0  0  0  0  0  0  0  0  0
  -27.8570  -25.0950   22.9810 C   0  0  0  0  0  0  0  0  0  0  0  0
  -27.6060  -26.5500   23.2330 C   0  0  0  0  0  0  0  0  0  0  0  0
  -28.1460  -27.4210   22.3620 N   0  0  0  0  0  0  0  0  0  0  0  0
  -26.8780  -26.9120   24.1550 O   0  0  0  0  0  0  0  0  0  0  0  0
  -27.9270  -28.3920   22.5300 H   0  0  0  0  0  0  0  0  0  0  0  0
  -29.0680  -27.1560   21.2450 C   0  0  0  0  0  2  0  0  0  0  0  0
  -28.4660  -26.3660   20.0490 C   0  0  0  0  0  2  0  0  0  0  0  0
  -28.0050  -27.1870   18.9870 O   0  0  0  0  0  0  0  0  0  0  0  0
  -24.4060  -31.7900   23.0030 C   0  0  0  0  0  0  0  0  0  0  0  0
  -26.8170  -27.8190   19.2300 C   0  0  0  0  0  0  0  0  0  0  0  0
  -23.0590  -30.5200   21.3580 C   0  0  0  0  0  3  0  0  0  0  0  0
  -24.3870  -29.1760   19.6460 C   0  0  0  0  0  0  0  0  0  0  0  0
  -25.5290  -30.9980   20.9290 C   0  0  0  0  0  2  0  0  0  0  0  0
  -25.5800  -29.7000   20.1570 C   0  0  0  0  0  0  0  0  0  0  0  0
  -26.7990  -29.0310   19.9440 C   0  0  0  0  0  3  0  0  0  0  0  0
  -25.6140  -27.2880   18.7220 C   0  0  0  0  0  3  0  0  0  0  0  0
  -24.3940  -27.9640   18.9290 C   0  0  0  0  0  3  0  0  0  0  0  0
  -23.1320  -29.9780   19.9030 C   0  0  0  0  0  2  0  0  0  0  0  0
  -24.3550  -31.1090   21.8230 N   0  0  0  0  0  0  0  0  0  0  0  0
  -23.3840  -31.9720   23.6790 O   0  0  0  0  0  0  0  0  0  0  0  0
  -22.5380  -29.3900   22.2730 C   0  0  0  0  0  0  0  0  0  0  0  0
  -21.2180  -29.1510   22.2290 N   0  0  0  0  0  0  0  0  0  0  0  0
  -23.3140  -28.7350   22.9730 O   0  0  0  0  0  0  0  0  0  0  0  0
  -20.6490  -29.7380   21.6360 H   0  0  0  0  0  0  0  0  0  0  0  0
  -17.9610  -27.7060   22.8100 C   0  0  0  0  0  0  0  0  0  0  0  0
  -20.5080  -28.1100   22.9720 C   0  0  0  0  0  3  0  0  0  0  0  0
  -20.6680  -26.7330   22.2870 C   0  0  0  0  0  2  0  0  0  0  0  0
  -19.5330  -26.4090   21.3100 C   0  0  0  0  0  2  0  0  0  0  0  0
  -18.1830  -26.4200   22.0330 C   0  0  0  0  0  2  0  0  0  0  0  0
  -19.0520  -28.5080   23.2380 C   0  0  0  0  0  0  0  0  0  0  0  0
  -18.7890  -29.7120   23.9250 C   0  0  0  0  0  3  0  0  0  0  0  0
  -17.4680  -30.1160   24.1910 C   0  0  0  0  0  3  0  0  0  0  0  0
  -16.3910  -29.3100   23.7800 C   0  0  0  0  0  3  0  0  0  0  0  0
  -16.6390  -28.1070   23.0970 C   0  0  0  0  0  3  0  0  0  0  0  0
  -25.7400  -32.3910   23.5480 C   0  0  0  0  0  3  0  0  0  0  0  0
  -25.4440  -33.7390   24.0520 N   0  0  0  0  0  0  0  0  0  0  0  0
  -25.6960  -34.8730   23.3840 C   0  0  0  0  0  0  0  0  0  0  0  0
  -26.2750  -34.8930   22.2940 O   0  0  0  0  0  0  0  0  0  0  0  0
  -24.9220  -33.7950   24.9140 H   0  0  0  0  0  0  0  0  0  0  0  0
  -23.9180  -36.6510   23.3680 C   0  0  0  0  0  1  0  0  0  0  0  0
  -25.2290  -36.1930   24.0260 C   0  0  0  0  0  3  0  0  0  0  0  0
  -27.4150  -37.0310   24.7670 C   0  0  0  0  0  1  0  0  0  0  0  0
  -26.2340  -37.2750   23.9430 N   0  0  0  0  0  0  0  0  0  0  0  0
  -25.8290  -38.1640   24.2240 H   0  0  0  0  0  0  0  0  0  0  0  0
  -26.4110  -31.5070   24.6680 C   0  0  1  0  0  0  0  0  0  0  0  0
  -25.4540  -31.1400   25.8260 C   0  0  0  0  0  1  0  0  0  0  0  0
  -26.9560  -30.1900   24.0680 C   0  0  0  0  0  1  0  0  0  0  0  0
  -27.6240  -32.2550   25.2710 C   0  0  0  0  0  1  0  0  0  0  0  0
  -28.7150  -21.4210   21.0030 C   0  0  0  0  0  3  0  0  0  0  0  0
  -27.8720  -20.7390   20.2070 C   0  0  0  0  0  3  0  0  0  0  0  0
  -28.4110  -19.7240   19.3320 C   0  0  0  0  0  0  0  0  0  0  0  0
  -27.5800  -18.6880   19.2040 N   0  0  0  0  0  0  0  0  0  0  0  0
  -29.5030  -19.7890   18.7640 O   0  0  0  0  0  0  0  0  0  0  0  0
  -26.6980  -18.7350   19.6980 H   0  0  0  0  0  0  0  0  0  0  0  0
  -27.8530  -17.4800   18.4340 C   0  0  0  0  0  2  0  0  0  0  0  0
  -29.0260  -16.6480   18.9950 C   0  0  0  0  0  2  0  0  0  0  0  0
  -28.9680  -16.3630   20.5240 C   0  0  0  0  0  2  0  0  0  0  0  0
  -30.6830  -14.6100   20.2830 C   0  0  0  0  0  0  0  0  0  0  0  0
  -30.3770  -12.4650   19.1090 C   0  0  0  0  0  2  0  0  0  0  0  0
  -29.4060  -12.6220   17.9220 C   0  0  0  0  0  2  0  0  0  0  0  0
  -27.9470  -12.4370   18.3840 C   0  0  0  0  0  2  0  0  0  0  0  0
  -27.6040  -13.2830   19.6350 C   0  0  0  0  0  3  0  0  0  0  0  0
  -28.6860  -13.1180   20.7280 C   0  0  0  0  0  2  0  0  0  0  0  0
  -29.9950  -13.4450   20.1360 N   0  0  0  0  0  0  0  0  0  0  0  0
  -31.7820  -14.8120   19.7570 O   0  0  0  0  0  0  0  0  0  0  0  0
  -30.9360  -16.3070   21.9900 C   0  0  0  0  0  1  0  0  0  0  0  0
  -30.1030  -15.5690   21.0380 N   0  0  0  0  0  0  0  0  0  0  0  0
  -25.2140  -13.8490   20.4080 C   0  0  0  0  0  0  0  0  0  0  0  0
  -24.1680  -13.0520   20.7890 C   0  0  0  0  0  0  0  0  0  0  0  0
  -24.6540  -11.7100   20.7290 C   0  0  0  0  0  0  0  0  0  0  0  0
  -26.2680  -12.9880   20.1420 N   0  0  0  0  0  0  0  0  0  0  0  0
  -25.9370  -11.6980   20.3930 N   0  0  0  0  0  0  0  0  0  0  0  0
  -23.9580  -10.4330   20.9160 C   0  0  0  0  0  0  0  0  0  0  0  0
  -24.3910   -9.4920   21.8760 C   0  0  0  0  0  3  0  0  0  0  0  0
  -23.6950   -8.2750   22.0490 C   0  0  0  0  0  3  0  0  0  0  0  0
  -22.5540   -7.9940   21.2600 C   0  0  0  0  0  0  0  0  0  0  0  0
  -22.1420   -8.9250   20.2900 C   0  0  0  0  0  3  0  0  0  0  0  0
  -22.8380  -10.1320   20.1160 C   0  0  0  0  0  3  0  0  0  0  0  0
  -21.8310   -6.8280   21.3410 O   0  0  0  0  0  0  0  0  0  0  0  0
  -21.7140   -6.1340   22.5180 C   0  0  0  0  0  0  0  0  0  0  0  0
  -21.1760   -6.7260   23.6820 C   0  0  0  0  0  3  0  0  0  0  0  0
  -21.0100   -5.9550   24.8510 C   0  0  0  0  0  3  0  0  0  0  0  0
  -21.3730   -4.5950   24.8550 C   0  0  0  0  0  0  0  0  0  0  0  0
  -21.9060   -4.0040   23.6960 C   0  0  0  0  0  3  0  0  0  0  0  0
  -22.0730   -4.7720   22.5300 C   0  0  0  0  0  0  0  0  0  0  0  0
  -22.5670   -4.1910   21.4090 F   0  0  0  0  0  0  0  0  0  0  0  0
  -21.2070   -3.8530   25.9750 F   0  0  0  0  0  0  0  0  0  0  0  0
  -22.7680  -13.4990   21.0980 C   0  0  0  0  0  0  0  0  0  0  0  0
  -22.0740  -12.7790   21.9710 N   0  0  0  0  0  0  0  0  0  0  0  0
  -22.2980  -14.5230   20.6000 O   0  0  0  0  0  0  0  0  0  0  0  0
  -22.4660  -11.9510   22.3960 H   0  0  0  0  0  0  0  0  0  0  0  0
  -21.1370  -13.0590   22.2220 H   0  0  0  0  0  0  0  0  0  0  0  0
  -25.3460  -15.2240   20.2480 N   0  0  0  0  0  0  0  0  0  0  0  0
  -24.5690  -15.8590   20.3910 H   0  0  0  0  0  0  0  0  0  0  0  0
  -26.1910  -15.6850   19.9420 H   0  0  0  0  0  0  0  0  0  0  0  0
  1  3  1  0
  2  4  2  0
  3  6  2  0
  4  6  1  0
  5  1  2  0
  5  2  1  0
  6  7  1  0
  7  9  2  0
  8 10  1  0
  8  7  1  0
 11  8  1  0
 12 11  1  0
 13 15  1  0
 13 12  1  0
 14 25  2  0
 15 20  1  0
 16 24  1  0
 16 26  1  0
 17 23  1  0
 17 19  1  0
 18 24  1  0
 19 18  1  0
 20 19  2  0
 21 22  1  0
 21 15  2  0
 22 17  2  0
 23 16  1  0
 24 14  1  0
 26 28  2  0
 27 26  1  0
 29 27  1  0
 30 39  2  0
 30 35  1  0
 31 27  1  0
 31 35  1  0
 32 31  1  0
 33 34  1  0
 33 32  1  0
 34 30  1  0
 35 36  2  0
 36 37  1  0
 38 37  2  0
 39 38  1  0
 40 14  1  0
 40 41  1  0
 40 50  1  0
 41 44  1  0
 42 46  1  0
 42 41  1  0
 43 42  2  0
 46 45  1  0
 48 46  1  0
 48 49  1  0
 48 47  1  0
 50 53  1  1
 50 51  1  0
 52 50  1  0
 54  5  1  0
 55 54  2  0
 56 55  1  0
 57 56  1  0
 57 59  1  0
 58 56  2  0
 60 61  1  0
 60 57  1  0
 61 62  1  0
 62 72  1  0
 63 72  1  0
 64 69  1  0
 65 66  1  0
 65 64  1  0
 67 66  1  0
 67 76  1  0
 67 68  1  0
 69 63  1  0
 69 68  1  0
 70 63  2  0
 72 71  1  0
 73 74  2  0
 74 93  1  0
 75 74  1  0
 75 78  1  0
 76 77  1  0
 76 73  1  0
 77 75  2  0
 78 79  1  0
 79 80  2  0
 81 84  1  0
 81 80  1  0
 82 81  2  0
 83 82  1  0
 83 78  2  0
 84 85  1  0
 85 90  2  0
 85 86  1  0
 86 87  2  0
 87 88  1  0
 88 92  1  0
 89 88  2  0
 90 89  1  0
 91 90  1  0
 93 94  1  0
 94 97  1  0
 94 96  1  0
 95 93  2  0
 98 99  1  0
 98 73  1  0
100 98  1  0
M  ISO  4  12 101  13 101  63 100  72 100
M  END
>  <TORSDO>  (78) 
F 24

>  <SCORE>  (78) 
-11.244

>  <name>  (78) 
79

>  <ligand_id>  (78) 
79

>  <original_smiles>  (78) 
[H]C(C(=O)N([H])C([H])([H])C([H])([H])C([H])([H])N(C(=O)N1C([H])([H])C([H])([H])C([H])([H])C([H])(n2nc(-c3c([H])c([H])c(Oc4c([H])c([H])c(F)c([H])c4F)c([H])c3[H])c(C(=O)N([H])[H])c2N([H])[H])C1([H])[H])C([H])([H])[H])=C([H])c1c([H])c([H])c(C(=O)N([H])C([H])([H])C([H])([H])Oc2c([H])c([H])c3c(c2[H])C([H])([H])N(C(=O)C([H])(N([H])C(=O)C([H])(N([H])C([H])([H])[H])C([H])([H])[H])C(C([H])([H])[H])(C([H])([H])[H])C([H])([H])[H])C([H])(C(=O)N([H])C2([H])c4c([H])c([H])c([H])c([H])c4C([H])([H])C([H])([H])C2([H])[H])C3([H])[H])c([H])c1[H]

>  <smiles>  (78) 
[H]C(C(=O)N([H])C([H])([H])C([H])([H])C([H])([H])N(C(=O)N1C([H])([H])C([H])([H])C([H])([H])C([H])(n2nc(-c3c([H])c([H])c(Oc4c([H])c([H])c(F)c([H])c4F)c([H])c3[H])c(C(=O)N([H])[H])c2N([H])[H])C1([H])[H])C([H])([H])[H])=C([H])c1c([H])c([H])c(C(=O)N([H])C([H])([H])C([H])([H])Oc2c([H])c([H])c3c(c2[H])C([H])([H])N(C(=O)C([H])(N([H])C(=O)C([H])(N([H])C([H])([H])[H])C([H])([H])[H])C(C([H])([H])[H])(C([H])([H])[H])C([H])([H])[H])C([H])(C(=O)N([H])C2([H])c4c([H])c([H])c([H])c([H])c4C([H])([H])C([H])([H])C2([H])[H])C3([H])[H])c([H])c1[H]

$$$$
80:0:0
     RDKit          3D

100108  0  0  1  0  0  0  0  0999 V2000
  -27.6880  -19.8830   19.3660 C   0  0  0  0  0  3  0  0  0  0  0  0
  -29.5660  -20.6230   18.0010 C   0  0  0  0  0  3  0  0  0  0  0  0
  -27.8550  -21.0010   20.2040 C   0  0  0  0  0  3  0  0  0  0  0  0
  -29.7280  -21.7430   18.8360 C   0  0  0  0  0  3  0  0  0  0  0  0
  -28.5670  -19.6710   18.2860 C   0  0  0  0  0  0  0  0  0  0  0  0
  -28.9010  -21.9260   19.9740 C   0  0  0  0  0  0  0  0  0  0  0  0
  -28.5440  -18.3780   17.5540 C   0  0  0  0  0  0  0  0  0  0  0  0
  -28.0220  -18.2360   16.4420 O   0  0  0  0  0  0  0  0  0  0  0  0
  -29.2790  -17.2050   18.2780 C   0  0  0  0  0  0  0  0  0  0  0  0
  -30.4660  -17.5910   18.7740 N   0  0  0  0  0  0  0  0  0  0  0  0
  -28.8160  -16.0640   18.3760 O   0  0  0  0  0  0  0  0  0  0  0  0
  -30.7050  -18.5590   18.5940 H   0  0  0  0  0  0  0  0  0  0  0  0
  -31.4070  -16.8240   19.5720 C   0  0  0  0  0  2  0  0  0  0  0  0
  -30.9580  -16.7590   21.0560 C   0  0  0  0  0  2  0  0  0  0  0  0
  -31.2650  -14.3260   21.2160 C   0  0  0  0  0  0  0  0  0  0  0  0
  -30.9000  -12.3610   19.8240 C   0  0  0  0  0  2  0  0  0  0  0  0
  -30.0970  -12.8250   18.5910 C   0  0  0  0  0  2  0  0  0  0  0  0
  -28.5840  -12.7670   18.8770 C   0  0  0  0  0  2  0  0  0  0  0  0
  -28.1970  -13.4610   20.2120 C   0  0  0  0  0  3  0  0  0  0  0  0
  -29.1270  -13.0130   21.3640 C   0  0  0  0  0  2  0  0  0  0  0  0
  -30.5210  -13.2280   20.9430 N   0  0  0  0  0  0  0  0  0  0  0  0
  -32.4680  -14.4280   20.9720 O   0  0  0  0  0  0  0  0  0  0  0  0
  -30.5280  -15.4170   21.4380 N   0  0  0  0  0  0  0  0  0  0  0  0
  -29.5450  -15.2770   21.6150 H   0  0  0  0  0  0  0  0  0  0  0  0
  -25.7780  -14.1640   20.7470 C   0  0  0  0  0  0  0  0  0  0  0  0
  -24.6400  -13.4320   20.9480 C   0  0  0  0  0  0  0  0  0  0  0  0
  -25.0290  -12.0620   20.8490 C   0  0  0  0  0  0  0  0  0  0  0  0
  -26.7910  -13.2400   20.5400 N   0  0  0  0  0  0  0  0  0  0  0  0
  -26.3380  -11.9670   20.6620 N   0  0  0  0  0  0  0  0  0  0  0  0
  -24.2220  -10.8350   20.8640 C   0  0  0  0  0  0  0  0  0  0  0  0
  -24.5690   -9.7330   21.6750 C   0  0  0  0  0  3  0  0  0  0  0  0
  -23.7680   -8.5720   21.6850 C   0  0  0  0  0  3  0  0  0  0  0  0
  -22.6050   -8.5050   20.8800 C   0  0  0  0  0  0  0  0  0  0  0  0
  -22.2770   -9.5960   20.0560 C   0  0  0  0  0  3  0  0  0  0  0  0
  -23.0790  -10.7490   20.0440 C   0  0  0  0  0  3  0  0  0  0  0  0
  -21.7830   -7.4070   20.8060 O   0  0  0  0  0  0  0  0  0  0  0  0
  -21.6850   -6.5090   21.8390 C   0  0  0  0  0  0  0  0  0  0  0  0
  -21.2700   -6.9010   23.1300 C   0  0  0  0  0  3  0  0  0  0  0  0
  -21.1150   -5.9340   24.1430 C   0  0  0  0  0  3  0  0  0  0  0  0
  -21.3660   -4.5770   23.8670 C   0  0  0  0  0  0  0  0  0  0  0  0
  -21.7730   -4.1840   22.5800 C   0  0  0  0  0  3  0  0  0  0  0  0
  -21.9290   -5.1480   21.5690 C   0  0  0  0  0  0  0  0  0  0  0  0
  -22.3020   -4.7610   20.3250 F   0  0  0  0  0  0  0  0  0  0  0  0
  -21.2080   -3.6470   24.8380 F   0  0  0  0  0  0  0  0  0  0  0  0
  -23.2510  -13.9720   21.1280 C   0  0  0  0  0  0  0  0  0  0  0  0
  -22.4220  -13.2800   21.9040 N   0  0  0  0  0  0  0  0  0  0  0  0
  -22.9070  -15.0370   20.6200 O   0  0  0  0  0  0  0  0  0  0  0  0
  -22.7130  -12.4160   22.3360 H   0  0  0  0  0  0  0  0  0  0  0  0
  -21.4860  -13.6240   22.0700 H   0  0  0  0  0  0  0  0  0  0  0  0
  -26.0360  -15.5310   20.7030 N   0  0  0  0  0  0  0  0  0  0  0  0
  -25.2990  -16.2200   20.8060 H   0  0  0  0  0  0  0  0  0  0  0  0
  -26.9410  -15.9350   20.5050 H   0  0  0  0  0  0  0  0  0  0  0  0
  -28.9070  -22.7580   22.4170 C   0  0  0  0  0  1  0  0  0  0  0  0
  -29.1280  -23.1060   20.9320 C   0  0  0  0  0  3  0  0  0  0  0  0
  -30.4990  -23.6360   20.7750 N   0  0  0  0  0  4  0  0  0  0  0  0
  -30.9590  -23.6520   21.6710 H   0  0  0  0  0  0  0  0  0  0  0  0
  -30.9880  -22.9620   20.2080 H   0  0  0  0  0  0  0  0  0  0  0  0
  -30.5970  -24.9600   20.1200 C   0  0  0  0  0  2  0  0  0  0  0  0
  -30.2130  -26.1090   21.0570 C   0  0  0  0  0  2  0  0  0  0  0  0
  -29.9230  -27.2450   20.2610 O   0  0  0  0  0  0  0  0  0  0  0  0
  -25.1340  -31.4630   23.3100 C   0  0  0  0  0  0  0  0  0  0  0  0
  -28.6240  -27.6770   20.2540 C   0  0  0  0  0  0  0  0  0  0  0  0
  -24.2530  -29.9540   21.5540 C   0  0  0  0  0  3  0  0  0  0  0  0
  -26.0090  -28.7220   20.1770 C   0  0  0  0  0  0  0  0  0  0  0  0
  -26.6830  -30.7370   21.5020 C   0  0  0  0  0  2  0  0  0  0  0  0
  -27.0250  -29.4230   20.8350 C   0  0  0  0  0  0  0  0  0  0  0  0
  -28.3330  -28.9100   20.8680 C   0  0  0  0  0  3  0  0  0  0  0  0
  -27.5930  -26.9620   19.6030 C   0  0  0  0  0  3  0  0  0  0  0  0
  -26.2850  -27.4850   19.5630 C   0  0  0  0  0  3  0  0  0  0  0  0
  -24.6390  -29.3630   20.1720 C   0  0  0  0  0  2  0  0  0  0  0  0
  -25.3700  -30.7310   22.1840 N   0  0  0  0  0  0  0  0  0  0  0  0
  -23.9980  -31.5370   23.7970 O   0  0  0  0  0  0  0  0  0  0  0  0
  -23.7300  -28.8070   22.4450 C   0  0  0  0  0  0  0  0  0  0  0  0
  -22.5750  -28.2390   22.0650 N   0  0  0  0  0  0  0  0  0  0  0  0
  -24.3690  -28.4270   23.4290 O   0  0  0  0  0  0  0  0  0  0  0  0
  -22.1090  -28.6120   21.2490 H   0  0  0  0  0  0  0  0  0  0  0  0
  -19.7430  -26.0090   21.8540 C   0  0  0  0  0  0  0  0  0  0  0  0
  -21.9100  -27.1150   22.7240 C   0  0  0  0  0  3  0  0  0  0  0  0
  -22.6100  -25.7790   22.3830 C   0  0  0  0  0  2  0  0  0  0  0  0
  -21.9900  -25.0680   21.1760 C   0  0  0  0  0  2  0  0  0  0  0  0
  -20.5110  -24.7690   21.4290 C   0  0  0  0  0  2  0  0  0  0  0  0
  -20.4010  -27.1180   22.4470 C   0  0  0  0  0  0  0  0  0  0  0  0
  -19.6450  -28.2620   22.7870 C   0  0  0  0  0  3  0  0  0  0  0  0
  -18.2580  -28.3040   22.5510 C   0  0  0  0  0  3  0  0  0  0  0  0
  -17.6090  -27.1960   21.9790 C   0  0  0  0  0  3  0  0  0  0  0  0
  -18.3500  -26.0520   21.6350 C   0  0  0  0  0  3  0  0  0  0  0  0
  -26.2740  -32.2600   24.0240 C   0  0  0  0  0  3  0  0  0  0  0  0
  -25.7830  -33.6250   24.2500 N   0  0  0  0  0  0  0  0  0  0  0  0
  -26.1040  -34.6820   23.4920 C   0  0  0  0  0  0  0  0  0  0  0  0
  -26.9130  -34.6190   22.5630 O   0  0  0  0  0  0  0  0  0  0  0  0
  -25.0770  -33.7410   24.9620 H   0  0  0  0  0  0  0  0  0  0  0  0
  -24.2780  -36.2700   22.8140 C   0  0  0  0  0  1  0  0  0  0  0  0
  -25.4170  -36.0230   23.8170 C   0  0  0  0  0  3  0  0  0  0  0  0
  -27.3000  -37.1460   24.9210 C   0  0  0  0  0  1  0  0  0  0  0  0
  -26.3430  -37.1750   23.8160 N   0  0  0  0  0  0  0  0  0  0  0  0
  -25.8290  -38.0510   23.8640 H   0  0  0  0  0  0  0  0  0  0  0  0
  -26.7390  -31.6010   25.3800 C   0  0  1  0  0  0  0  0  0  0  0  0
  -25.5690  -31.1850   26.3010 C   0  0  0  0  0  1  0  0  0  0  0  0
  -27.5990  -30.3460   25.1080 C   0  0  0  0  0  1  0  0  0  0  0  0
  -27.6340  -32.5900   26.1640 C   0  0  0  0  0  1  0  0  0  0  0  0
  1  3  1  0
  2  5  1  0
  2  4  2  0
  4  6  1  0
  5  1  2  0
  6  3  2  0
  6 54  1  0
  7  9  1  0
  7  5  1  0
  8  7  2  0
  9 11  2  0
  9 10  1  0
 10 13  1  0
 12 10  1  0
 13 14  1  0
 14 23  1  0
 15 23  1  0
 16 21  1  0
 17 18  1  0
 17 16  1  0
 19 18  1  0
 19 28  1  0
 19 20  1  0
 21 15  1  0
 21 20  1  0
 22 15  2  0
 23 24  1  0
 25 26  2  0
 26 45  1  0
 27 30  1  0
 27 26  1  0
 28 29  1  0
 28 25  1  0
 29 27  2  0
 30 31  1  0
 31 32  2  0
 33 32  1  0
 34 33  2  0
 35 34  1  0
 35 30  2  0
 36 33  1  0
 36 37  1  0
 37 38  1  0
 38 39  2  0
 40 39  1  0
 40 44  1  0
 41 40  2  0
 42 37  2  0
 42 41  1  0
 43 42  1  0
 45 46  1  0
 46 49  1  0
 46 48  1  0
 47 45  2  0
 50 25  1  0
 50 51  1  0
 52 50  1  0
 54 53  1  0
 55 54  1  0
 55 56  1  0
 57 55  1  0
 58 55  1  0
 58 59  1  0
 60 59  1  0
 61 72  2  0
 62 60  1  0
 62 67  1  0
 63 71  1  0
 63 73  1  0
 64 66  1  0
 65 71  1  0
 66 67  2  0
 66 65  1  0
 68 62  2  0
 69 68  1  0
 69 64  2  0
 70 64  1  0
 70 63  1  0
 71 61  1  0
 73 75  2  0
 74 73  1  0
 76 74  1  0
 77 82  1  0
 78 74  1  0
 79 78  1  0
 80 81  1  0
 80 79  1  0
 81 77  1  0
 82 78  1  0
 82 83  2  0
 84 83  1  0
 85 84  2  0
 86 77  2  0
 86 85  1  0
 87 61  1  0
 87 88  1  0
 87 97  1  0
 88 91  1  0
 89 93  1  0
 89 88  1  0
 90 89  2  0
 93 92  1  0
 95 93  1  0
 95 96  1  0
 95 94  1  0
 97100  1  1
 97 98  1  0
 99 97  1  0
M  ISO  4  15 100  23 100  59 101  60 101
M  END
>  <TORSDO>  (79) 
F 24

>  <SCORE>  (79) 
-9.187

>  <name>  (79) 
80

>  <ligand_id>  (79) 
80

>  <original_smiles>  (79) 
[H]c1c([H])c([H])c2c(c1[H])C([H])([H])C([H])([H])C([H])([H])C2([H])N([H])C(=O)C1([H])N(C(=O)C([H])(N([H])C(=O)C([H])(N([H])C([H])([H])[H])C([H])([H])[H])C(C([H])([H])[H])(C([H])([H])[H])C([H])([H])[H])C([H])([H])c2c([H])c(OC([H])([H])C([H])([H])[N+]([H])([H])C([H])(c3c([H])c([H])c(C(=O)C(=O)N([H])C([H])([H])C([H])([H])N([H])C(=O)N4C([H])([H])C([H])([H])C([H])([H])C([H])(n5nc(-c6c([H])c([H])c(Oc7c([H])c([H])c(F)c([H])c7F)c([H])c6[H])c(C(=O)N([H])[H])c5N([H])[H])C4([H])[H])c([H])c3[H])C([H])([H])[H])c([H])c([H])c2C1([H])[H]

>  <smiles>  (79) 
[H]c1c([H])c([H])c2c(c1[H])C([H])([H])C([H])([H])C([H])([H])C2([H])N([H])C(=O)C1([H])N(C(=O)C([H])(N([H])C(=O)C([H])(N([H])C([H])([H])[H])C([H])([H])[H])C(C([H])([H])[H])(C([H])([H])[H])C([H])([H])[H])C([H])([H])c2c([H])c(OC([H])([H])C([H])([H])[N+]([H])([H])C([H])(c3c([H])c([H])c(C(=O)C(=O)N([H])C([H])([H])C([H])([H])N([H])C(=O)N4C([H])([H])C([H])([H])C([H])([H])C([H])(n5nc(-c6c([H])c([H])c(Oc7c([H])c([H])c(F)c([H])c7F)c([H])c6[H])c(C(=O)N([H])[H])c5N([H])[H])C4([H])[H])c([H])c3[H])C([H])([H])[H])c([H])c([H])c2C1([H])[H]

$$$$
81:0:0
     RDKit          3D

103111  0  0  1  0  0  0  0  0999 V2000
  -33.5990  -23.7330   18.9260 C   0  0  0  0  0  3  0  0  0  0  0  0
  -32.9120  -24.9350   18.6870 C   0  0  0  0  0  3  0  0  0  0  0  0
  -31.4730  -22.5480   18.9540 C   0  0  0  0  0  3  0  0  0  0  0  0
  -32.8800  -22.5370   19.1220 C   0  0  0  0  0  0  0  0  0  0  0  0
  -30.7610  -23.7490   18.7320 C   0  0  0  0  0  0  0  0  0  0  0  0
  -31.5020  -24.9640   18.6380 C   0  0  0  0  0  0  0  0  0  0  0  0
  -29.2510  -23.6950   18.6310 C   0  0  0  0  0  0  0  0  0  0  0  0
  -28.6340  -22.8300   19.4300 N   0  0  0  0  0  0  0  0  0  0  0  0
  -28.6160  -24.4410   17.8860 O   0  0  0  0  0  0  0  0  0  0  0  0
  -29.1640  -22.2430   20.0540 H   0  0  0  0  0  0  0  0  0  0  0  0
  -27.6260  -22.7790   19.4340 H   0  0  0  0  0  0  0  0  0  0  0  0
  -33.6040  -21.2990   19.5460 C   0  0  0  0  0  0  0  0  0  0  0  0
  -34.7830  -21.0690   19.2560 O   0  0  0  0  0  0  0  0  0  0  0  0
  -32.8070  -20.3210   20.4470 C   0  0  0  0  0  0  0  0  0  0  0  0
  -32.2930  -19.3110   19.7380 N   0  0  0  0  0  0  0  0  0  0  0  0
  -32.5760  -20.5280   21.6440 O   0  0  0  0  0  0  0  0  0  0  0  0
  -32.5980  -19.2610   18.7750 H   0  0  0  0  0  0  0  0  0  0  0  0
  -31.0970  -18.5560   20.0910 C   0  0  0  0  0  2  0  0  0  0  0  0
  -31.3090  -17.4700   21.1590 C   0  0  0  0  0  2  0  0  0  0  0  0
  -30.0200  -16.6270   21.2890 C   0  0  0  0  0  2  0  0  0  0  0  0
  -30.6960  -14.3800   20.4830 C   0  0  0  0  0  0  0  0  0  0  0  0
  -30.3120  -12.3400   19.1610 C   0  0  0  0  0  2  0  0  0  0  0  0
  -29.3280  -12.6350   18.0100 C   0  0  0  0  0  2  0  0  0  0  0  0
  -27.8710  -12.4890   18.4850 C   0  0  0  0  0  2  0  0  0  0  0  0
  -27.5940  -13.2630   19.8010 C   0  0  0  0  0  3  0  0  0  0  0  0
  -28.6710  -12.9290   20.8590 C   0  0  0  0  0  2  0  0  0  0  0  0
  -29.9990  -13.2340   20.2850 N   0  0  0  0  0  0  0  0  0  0  0  0
  -31.6830  -14.6980   19.8110 O   0  0  0  0  0  0  0  0  0  0  0  0
  -30.1850  -15.1830   21.4230 N   0  0  0  0  0  0  0  0  0  0  0  0
  -29.4830  -14.7310   21.9920 H   0  0  0  0  0  0  0  0  0  0  0  0
  -25.2020  -13.8720   20.5550 C   0  0  0  0  0  0  0  0  0  0  0  0
  -24.1420  -13.0940   20.9390 C   0  0  0  0  0  0  0  0  0  0  0  0
  -24.6020  -11.7440   20.8830 C   0  0  0  0  0  0  0  0  0  0  0  0
  -26.2450  -12.9920   20.2980 N   0  0  0  0  0  0  0  0  0  0  0  0
  -25.8860  -11.7080   20.5480 N   0  0  0  0  0  0  0  0  0  0  0  0
  -23.8810  -10.4790   21.0720 C   0  0  0  0  0  0  0  0  0  0  0  0
  -24.3430   -9.4970   21.9780 C   0  0  0  0  0  3  0  0  0  0  0  0
  -23.6240   -8.2940   22.1560 C   0  0  0  0  0  3  0  0  0  0  0  0
  -22.4310   -8.0670   21.4300 C   0  0  0  0  0  0  0  0  0  0  0  0
  -21.9880   -9.0390   20.5160 C   0  0  0  0  0  3  0  0  0  0  0  0
  -22.7060  -10.2330   20.3360 C   0  0  0  0  0  3  0  0  0  0  0  0
  -21.6820   -6.9170   21.5190 O   0  0  0  0  0  0  0  0  0  0  0  0
  -21.6760   -6.1480   22.6550 C   0  0  0  0  0  0  0  0  0  0  0  0
  -21.2960   -6.6740   23.9100 C   0  0  0  0  0  3  0  0  0  0  0  0
  -21.2410   -5.8300   25.0380 C   0  0  0  0  0  3  0  0  0  0  0  0
  -21.5520   -4.4640   24.9110 C   0  0  0  0  0  0  0  0  0  0  0  0
  -21.9230   -3.9380   23.6620 C   0  0  0  0  0  3  0  0  0  0  0  0
  -21.9830   -4.7780   22.5360 C   0  0  0  0  0  0  0  0  0  0  0  0
  -22.3200   -4.2620   21.3300 F   0  0  0  0  0  0  0  0  0  0  0  0
  -21.4920   -3.6530   25.9930 F   0  0  0  0  0  0  0  0  0  0  0  0
  -22.7490  -13.5670   21.2450 C   0  0  0  0  0  0  0  0  0  0  0  0
  -22.0330  -12.8670   22.1170 N   0  0  0  0  0  0  0  0  0  0  0  0
  -22.3020  -14.6000   20.7470 O   0  0  0  0  0  0  0  0  0  0  0  0
  -22.3930  -12.0270   22.5480 H   0  0  0  0  0  0  0  0  0  0  0  0
  -21.1050  -13.1850   22.3610 H   0  0  0  0  0  0  0  0  0  0  0  0
  -25.3560  -15.2450   20.3900 N   0  0  0  0  0  0  0  0  0  0  0  0
  -24.5900  -15.8920   20.5450 H   0  0  0  0  0  0  0  0  0  0  0  0
  -26.1940  -15.7030   20.0540 H   0  0  0  0  0  0  0  0  0  0  0  0
  -30.8830  -26.2170   18.6460 N   0  0  0  0  0  0  0  0  0  0  0  0
  -29.9130  -26.1550   18.3350 H   0  0  0  0  0  0  0  0  0  0  0  0
  -30.9070  -26.7270   20.0140 C   0  0  0  0  0  2  0  0  0  0  0  0
  -29.6540  -27.5360   20.3380 C   0  0  0  0  0  2  0  0  0  0  0  0
  -28.4640  -26.7680   20.1280 O   0  0  0  0  0  0  0  0  0  0  0  0
  -24.5590  -31.8630   23.2220 C   0  0  0  0  0  0  0  0  0  0  0  0
  -27.2810  -27.4730   20.1900 C   0  0  0  0  0  0  0  0  0  0  0  0
  -23.3640  -30.4400   21.5790 C   0  0  0  0  0  3  0  0  0  0  0  0
  -24.8350  -28.8960   20.1790 C   0  0  0  0  0  0  0  0  0  0  0  0
  -25.8740  -30.8340   21.3800 C   0  0  0  0  0  2  0  0  0  0  0  0
  -25.9710  -29.4590   20.7670 C   0  0  0  0  0  0  0  0  0  0  0  0
  -27.1830  -28.7540   20.7840 C   0  0  0  0  0  3  0  0  0  0  0  0
  -26.1220  -26.9030   19.6180 C   0  0  0  0  0  3  0  0  0  0  0  0
  -24.9010  -27.6110   19.6060 C   0  0  0  0  0  3  0  0  0  0  0  0
  -23.5800  -29.7380   20.2090 C   0  0  0  0  0  2  0  0  0  0  0  0
  -24.6170  -31.0610   22.1210 N   0  0  0  0  0  0  0  0  0  0  0  0
  -23.4760  -32.1360   23.7560 O   0  0  0  0  0  0  0  0  0  0  0  0
  -22.7130  -29.4280   22.5470 C   0  0  0  0  0  0  0  0  0  0  0  0
  -21.3900  -29.2510   22.4170 N   0  0  0  0  0  0  0  0  0  0  0  0
  -23.3950  -28.8040   23.3640 O   0  0  0  0  0  0  0  0  0  0  0  0
  -20.9020  -29.8100   21.7300 H   0  0  0  0  0  0  0  0  0  0  0  0
  -18.0080  -28.0990   22.9260 C   0  0  0  0  0  0  0  0  0  0  0  0
  -20.5690  -28.3180   23.1870 C   0  0  0  0  0  3  0  0  0  0  0  0
  -20.6500  -26.8910   22.6000 C   0  0  0  0  0  2  0  0  0  0  0  0
  -19.5370  -26.5890   21.5890 C   0  0  0  0  0  2  0  0  0  0  0  0
  -18.1620  -26.7520   22.2410 C   0  0  0  0  0  2  0  0  0  0  0  0
  -19.1390  -28.8430   23.3540 C   0  0  0  0  0  0  0  0  0  0  0  0
  -18.9410  -30.1080   23.9500 C   0  0  0  0  0  3  0  0  0  0  0  0
  -17.6440  -30.6270   24.1240 C   0  0  0  0  0  3  0  0  0  0  0  0
  -16.5280  -29.8780   23.7150 C   0  0  0  0  0  3  0  0  0  0  0  0
  -16.7100  -28.6170   23.1200 C   0  0  0  0  0  3  0  0  0  0  0  0
  -25.8440  -32.4980   23.8440 C   0  0  0  0  0  3  0  0  0  0  0  0
  -26.3650  -31.7280   25.1200 C   0  0  1  0  0  0  0  0  0  0  0  0
  -25.2730  -31.4820   26.1860 C   0  0  0  0  0  1  0  0  0  0  0  0
  -26.9580  -30.3570   24.7210 C   0  0  0  0  0  1  0  0  0  0  0  0
  -27.5100  -32.5280   25.7850 C   0  0  0  0  0  1  0  0  0  0  0  0
  -25.5350  -33.8960   24.1690 N   0  0  0  0  0  0  0  0  0  0  0  0
  -25.8780  -34.9450   23.4100 C   0  0  0  0  0  0  0  0  0  0  0  0
  -26.5600  -34.8400   22.3870 O   0  0  0  0  0  0  0  0  0  0  0  0
  -24.9330  -34.0550   24.9640 H   0  0  0  0  0  0  0  0  0  0  0  0
  -24.1610  -36.7400   23.0180 C   0  0  0  0  0  1  0  0  0  0  0  0
  -25.3840  -36.3340   23.8560 C   0  0  0  0  0  3  0  0  0  0  0  0
  -27.5040  -37.2130   24.7280 C   0  0  0  0  0  1  0  0  0  0  0  0
  -26.4210  -37.3850   23.7630 N   0  0  0  0  0  0  0  0  0  0  0  0
  -26.0140  -38.3060   23.9070 H   0  0  0  0  0  0  0  0  0  0  0  0
  1  4  1  0
  2  1  2  0
  3  4  2  0
  4 12  1  0
  5  3  1  0
  6 59  1  0
  6  2  1  0
  6  5  2  0
  7  5  1  0
  7  8  1  0
  8 11  1  0
  8 10  1  0
  9  7  2  0
 12 14  1  0
 13 12  2  0
 14 16  2  0
 15 18  1  0
 15 14  1  0
 17 15  1  0
 18 19  1  0
 19 20  1  0
 20 29  1  0
 21 29  1  0
 22 27  1  0
 23 24  1  0
 23 22  1  0
 25 24  1  0
 25 34  1  0
 25 26  1  0
 27 21  1  0
 27 26  1  0
 28 21  2  0
 29 30  1  0
 31 32  2  0
 32 51  1  0
 33 32  1  0
 33 36  1  0
 34 35  1  0
 34 31  1  0
 35 33  2  0
 36 37  1  0
 37 38  2  0
 39 42  1  0
 39 38  1  0
 40 39  2  0
 41 40  1  0
 41 36  2  0
 42 43  1  0
 43 44  1  0
 44 45  2  0
 46 45  1  0
 46 50  1  0
 47 46  2  0
 48 43  2  0
 48 47  1  0
 49 48  1  0
 51 52  1  0
 52 55  1  0
 52 54  1  0
 53 51  2  0
 56 57  1  0
 56 31  1  0
 58 56  1  0
 59 61  1  0
 60 59  1  0
 61 62  1  0
 63 65  1  0
 63 62  1  0
 64 75  2  0
 65 70  1  0
 66 74  1  0
 66 76  1  0
 67 73  1  0
 67 69  1  0
 68 74  1  0
 69 70  2  0
 69 68  1  0
 71 65  2  0
 72 71  1  0
 72 67  2  0
 73 66  1  0
 74 64  1  0
 76 78  2  0
 77 76  1  0
 79 77  1  0
 80 89  2  0
 80 85  1  0
 81 77  1  0
 81 85  1  0
 82 81  1  0
 83 84  1  0
 83 82  1  0
 84 80  1  0
 85 86  2  0
 86 87  1  0
 88 87  2  0
 89 88  1  0
 90 64  1  0
 90 95  1  0
 90 91  1  0
 91 94  1  1
 91 92  1  0
 93 91  1  0
 95 98  1  0
 96100  1  0
 96 95  1  0
 97 96  2  0
100 99  1  0
102100  1  0
102103  1  0
102101  1  0
M  ISO  4  21 100  29 100  62 101  63 101
M  END
>  <TORSDO>  (80) 
F 25

>  <SCORE>  (80) 
-12.349

>  <name>  (80) 
81

>  <ligand_id>  (80) 
81

>  <original_smiles>  (80) 
[H]c1c([H])c([H])c2c(c1[H])C([H])([H])C([H])([H])C([H])([H])C2([H])N([H])C(=O)C1([H])N(C(=O)C([H])(N([H])C(=O)C([H])(N([H])C([H])([H])[H])C([H])([H])[H])C(C([H])([H])[H])(C([H])([H])[H])C([H])([H])[H])C([H])([H])c2c([H])c(OC([H])([H])C([H])([H])N([H])c3c([H])c([H])c(C(=O)C(=O)N([H])C([H])([H])C([H])([H])C([H])([H])N([H])C(=O)N4C([H])([H])C([H])([H])C([H])([H])C([H])(n5nc(-c6c([H])c([H])c(Oc7c([H])c([H])c(F)c([H])c7F)c([H])c6[H])c(C(=O)N([H])[H])c5N([H])[H])C4([H])[H])c([H])c3C(=O)N([H])[H])c([H])c([H])c2C1([H])[H]

>  <smiles>  (80) 
[H]c1c([H])c([H])c2c(c1[H])C([H])([H])C([H])([H])C([H])([H])C2([H])N([H])C(=O)C1([H])N(C(=O)C([H])(N([H])C(=O)C([H])(N([H])C([H])([H])[H])C([H])([H])[H])C(C([H])([H])[H])(C([H])([H])[H])C([H])([H])[H])C([H])([H])c2c([H])c(OC([H])([H])C([H])([H])N([H])c3c([H])c([H])c(C(=O)C(=O)N([H])C([H])([H])C([H])([H])C([H])([H])N([H])C(=O)N4C([H])([H])C([H])([H])C([H])([H])C([H])(n5nc(-c6c([H])c([H])c(Oc7c([H])c([H])c(F)c([H])c7F)c([H])c6[H])c(C(=O)N([H])[H])c5N([H])[H])C4([H])[H])c([H])c3C(=O)N([H])[H])c([H])c([H])c2C1([H])[H]

$$$$
82:0:0
     RDKit          3D

104112  0  0  1  0  0  0  0  0999 V2000
  -30.5180  -21.1070   19.9020 C   0  0  0  0  0  3  0  0  0  0  0  0
  -30.3580  -21.6510   21.1770 C   0  0  0  0  0  3  0  0  0  0  0  0
  -28.2170  -21.7100   19.3320 C   0  0  0  0  0  0  0  0  0  0  0  0
  -29.4550  -21.0930   18.9770 C   0  0  0  0  0  0  0  0  0  0  0  0
  -29.1330  -22.2150   21.5730 C   0  0  0  0  0  0  0  0  0  0  0  0
  -28.0390  -22.2310   20.6540 C   0  0  0  0  0  0  0  0  0  0  0  0
  -26.6890  -22.8100   21.1090 C   0  0  0  0  0  1  0  0  0  0  0  0
  -27.1150  -21.7840   18.3240 C   0  0  0  0  0  0  0  0  0  0  0  0
  -26.7020  -23.1770   17.8510 C   0  0  0  0  0  1  0  0  0  0  0  0
  -26.5570  -20.7920   17.8530 O   0  0  0  0  0  0  0  0  0  0  0  0
  -30.4030  -21.3570   16.6310 C   0  0  0  0  0  1  0  0  0  0  0  0
  -29.7180  -20.4070   17.6230 C   0  0  0  0  0  3  0  0  0  0  0  0
  -30.4770  -19.1440   17.8070 N   0  0  0  0  0  4  0  0  0  0  0  0
  -30.7790  -18.8190   16.9020 H   0  0  0  0  0  0  0  0  0  0  0  0
  -31.3060  -19.3200   18.3510 H   0  0  0  0  0  0  0  0  0  0  0  0
  -29.6930  -18.0610   18.4400 C   0  0  0  0  0  2  0  0  0  0  0  0
  -30.2510  -17.6110   19.8080 C   0  0  0  0  0  2  0  0  0  0  0  0
  -29.2730  -16.6420   20.5120 C   0  0  0  0  0  2  0  0  0  0  0  0
  -30.5190  -14.5470   20.3520 C   0  0  0  0  0  0  0  0  0  0  0  0
  -30.2010  -12.4900   19.0520 C   0  0  0  0  0  2  0  0  0  0  0  0
  -29.1870  -12.7850   17.9270 C   0  0  0  0  0  2  0  0  0  0  0  0
  -27.7350  -12.6040   18.4160 C   0  0  0  0  0  2  0  0  0  0  0  0
  -27.4640  -13.3240   19.7650 C   0  0  0  0  0  3  0  0  0  0  0  0
  -28.5790  -13.0010   20.7890 C   0  0  0  0  0  2  0  0  0  0  0  0
  -29.8830  -13.3600   20.1930 N   0  0  0  0  0  0  0  0  0  0  0  0
  -31.5440  -14.8620   19.7370 O   0  0  0  0  0  0  0  0  0  0  0  0
  -29.8500  -15.4300   21.0970 N   0  0  0  0  0  0  0  0  0  0  0  0
  -29.2380  -14.9740   21.7590 H   0  0  0  0  0  0  0  0  0  0  0  0
  -25.0700  -13.8410   20.5770 C   0  0  0  0  0  0  0  0  0  0  0  0
  -24.0450  -13.0250   20.9710 C   0  0  0  0  0  0  0  0  0  0  0  0
  -24.5510  -11.6890   20.8870 C   0  0  0  0  0  0  0  0  0  0  0  0
  -26.1360  -13.0020   20.2850 N   0  0  0  0  0  0  0  0  0  0  0  0
  -25.8270  -11.7020   20.5260 N   0  0  0  0  0  0  0  0  0  0  0  0
  -23.8790  -10.4000   21.0770 C   0  0  0  0  0  0  0  0  0  0  0  0
  -24.3550   -9.4520   22.0120 C   0  0  0  0  0  3  0  0  0  0  0  0
  -23.6820   -8.2240   22.1880 C   0  0  0  0  0  3  0  0  0  0  0  0
  -22.5220   -7.9330   21.4320 C   0  0  0  0  0  0  0  0  0  0  0  0
  -22.0670   -8.8710   20.4880 C   0  0  0  0  0  3  0  0  0  0  0  0
  -22.7390  -10.0920   20.3090 C   0  0  0  0  0  3  0  0  0  0  0  0
  -21.8210   -6.7550   21.5160 O   0  0  0  0  0  0  0  0  0  0  0  0
  -21.7630   -6.0350   22.6820 C   0  0  0  0  0  0  0  0  0  0  0  0
  -21.2520   -6.5900   23.8770 C   0  0  0  0  0  3  0  0  0  0  0  0
  -21.1460   -5.7920   25.0340 C   0  0  0  0  0  3  0  0  0  0  0  0
  -21.5430   -4.4420   24.9960 C   0  0  0  0  0  0  0  0  0  0  0  0
  -22.0470   -3.8870   23.8070 C   0  0  0  0  0  3  0  0  0  0  0  0
  -22.1540   -4.6810   22.6530 C   0  0  0  0  0  0  0  0  0  0  0  0
  -22.6220   -4.1360   21.5040 F   0  0  0  0  0  0  0  0  0  0  0  0
  -21.4330   -3.6740   26.1060 F   0  0  0  0  0  0  0  0  0  0  0  0
  -22.6450  -13.4430   21.3130 C   0  0  0  0  0  0  0  0  0  0  0  0
  -21.9800  -12.7110   22.1980 N   0  0  0  0  0  0  0  0  0  0  0  0
  -22.1480  -14.4590   20.8290 O   0  0  0  0  0  0  0  0  0  0  0  0
  -22.3900  -11.8870   22.6120 H   0  0  0  0  0  0  0  0  0  0  0  0
  -21.0420  -12.9810   22.4610 H   0  0  0  0  0  0  0  0  0  0  0  0
  -25.1760  -15.2220   20.4290 N   0  0  0  0  0  0  0  0  0  0  0  0
  -24.3860  -15.8370   20.5890 H   0  0  0  0  0  0  0  0  0  0  0  0
  -25.9980  -15.7120   20.1010 H   0  0  0  0  0  0  0  0  0  0  0  0
  -29.8700  -22.1290   24.0380 C   0  0  0  0  0  1  0  0  0  0  0  0
  -29.0860  -22.8960   22.9540 C   0  0  0  0  0  3  0  0  0  0  0  0
  -29.5880  -24.2870   22.8500 N   0  0  0  0  0  4  0  0  0  0  0  0
  -29.4360  -24.7320   23.7430 H   0  0  0  0  0  0  0  0  0  0  0  0
  -30.5820  -24.2540   22.6930 H   0  0  0  0  0  0  0  0  0  0  0  0
  -28.9500  -25.0970   21.7810 C   0  0  0  0  0  2  0  0  0  0  0  0
  -29.4860  -26.5290   21.6870 C   0  0  0  0  0  2  0  0  0  0  0  0
  -29.1450  -27.0120   20.3880 O   0  0  0  0  0  0  0  0  0  0  0  0
  -24.9030  -31.8320   23.3720 C   0  0  0  0  0  0  0  0  0  0  0  0
  -27.9320  -27.6470   20.3540 C   0  0  0  0  0  0  0  0  0  0  0  0
  -23.8400  -30.3640   21.6840 C   0  0  0  0  0  3  0  0  0  0  0  0
  -25.4360  -28.9410   20.2980 C   0  0  0  0  0  0  0  0  0  0  0  0
  -26.3310  -30.9100   21.5560 C   0  0  0  0  0  2  0  0  0  0  0  0
  -26.5300  -29.5540   20.9210 C   0  0  0  0  0  0  0  0  0  0  0  0
  -27.7820  -28.9140   20.9510 C   0  0  0  0  0  3  0  0  0  0  0  0
  -26.8320  -27.0360   19.7180 C   0  0  0  0  0  3  0  0  0  0  0  0
  -25.5780  -27.6780   19.6960 C   0  0  0  0  0  3  0  0  0  0  0  0
  -24.1320  -29.7050   20.3110 C   0  0  0  0  0  2  0  0  0  0  0  0
  -25.0410  -31.0500   22.2630 N   0  0  0  0  0  0  0  0  0  0  0  0
  -23.7930  -32.0270   23.8830 O   0  0  0  0  0  0  0  0  0  0  0  0
  -23.2360  -29.2960   22.6200 C   0  0  0  0  0  0  0  0  0  0  0  0
  -21.9400  -29.0020   22.4300 N   0  0  0  0  0  0  0  0  0  0  0  0
  -23.9330  -28.7280   23.4670 O   0  0  0  0  0  0  0  0  0  0  0  0
  -21.4390  -29.5150   21.7170 H   0  0  0  0  0  0  0  0  0  0  0  0
  -18.6760  -27.4830   22.7170 C   0  0  0  0  0  0  0  0  0  0  0  0
  -21.1670  -28.0070   23.1670 C   0  0  0  0  0  3  0  0  0  0  0  0
  -21.4570  -26.5810   22.6450 C   0  0  0  0  0  2  0  0  0  0  0  0
  -20.4720  -26.1220   21.5630 C   0  0  0  0  0  2  0  0  0  0  0  0
  -19.0360  -26.1420   22.0950 C   0  0  0  0  0  2  0  0  0  0  0  0
  -19.6770  -28.3650   23.2040 C   0  0  0  0  0  0  0  0  0  0  0  0
  -19.2880  -29.6130   23.7380 C   0  0  0  0  0  3  0  0  0  0  0  0
  -17.9320  -29.9840   23.7870 C   0  0  0  0  0  3  0  0  0  0  0  0
  -16.9440  -29.1020   23.3180 C   0  0  0  0  0  3  0  0  0  0  0  0
  -17.3160  -27.8530   22.7880 C   0  0  0  0  0  3  0  0  0  0  0  0
  -26.1300  -32.5430   24.0280 C   0  0  0  0  0  3  0  0  0  0  0  0
  -26.6280  -31.8320   25.3460 C   0  0  1  0  0  0  0  0  0  0  0  0
  -25.5050  -31.5670   26.3740 C   0  0  0  0  0  1  0  0  0  0  0  0
  -27.2930  -30.4740   25.0170 C   0  0  0  0  0  1  0  0  0  0  0  0
  -27.7160  -32.6980   26.0300 C   0  0  0  0  0  1  0  0  0  0  0  0
  -25.7430  -33.9330   24.3010 N   0  0  0  0  0  0  0  0  0  0  0  0
  -26.0650  -34.9740   23.5220 C   0  0  0  0  0  0  0  0  0  0  0  0
  -26.7920  -34.8720   22.5290 O   0  0  0  0  0  0  0  0  0  0  0  0
  -25.1050  -34.0820   25.0670 H   0  0  0  0  0  0  0  0  0  0  0  0
  -24.2710  -36.6650   23.0300 C   0  0  0  0  0  1  0  0  0  0  0  0
  -25.4920  -36.3500   23.9070 C   0  0  0  0  0  3  0  0  0  0  0  0
  -27.5440  -37.3620   24.8010 C   0  0  0  0  0  1  0  0  0  0  0  0
  -26.4780  -37.4480   23.8070 N   0  0  0  0  0  0  0  0  0  0  0  0
  -26.0200  -38.3490   23.9150 H   0  0  0  0  0  0  0  0  0  0  0  0
  1  2  1  0
  2  5  2  0
  3  6  2  0
  4  3  1  0
  4  1  2  0
  5 58  1  0
  6  7  1  0
  6  5  1  0
  8  3  1  0
  9  8  1  0
 10  8  2  0
 12 11  1  0
 12 13  1  0
 12  4  1  0
 13 15  1  0
 13 16  1  0
 14 13  1  0
 16 17  1  0
 17 18  1  0
 18 27  1  0
 19 27  1  0
 20 25  1  0
 21 22  1  0
 21 20  1  0
 23 22  1  0
 23 32  1  0
 23 24  1  0
 25 19  1  0
 25 24  1  0
 26 19  2  0
 27 28  1  0
 29 30  2  0
 30 49  1  0
 31 30  1  0
 31 34  1  0
 32 33  1  0
 32 29  1  0
 33 31  2  0
 34 35  1  0
 35 36  2  0
 37 40  1  0
 37 36  1  0
 38 37  2  0
 39 38  1  0
 39 34  2  0
 40 41  1  0
 41 42  1  0
 42 43  2  0
 44 43  1  0
 44 48  1  0
 45 44  2  0
 46 41  2  0
 46 45  1  0
 47 46  1  0
 49 50  1  0
 50 53  1  0
 50 52  1  0
 51 49  2  0
 54 29  1  0
 54 55  1  0
 56 54  1  0
 58 57  1  0
 59 58  1  0
 59 60  1  0
 61 59  1  0
 62 59  1  0
 63 62  1  0
 64 63  1  0
 65 76  2  0
 66 64  1  0
 66 71  1  0
 67 75  1  0
 67 77  1  0
 68 74  1  0
 68 70  1  0
 69 75  1  0
 70 71  2  0
 70 69  1  0
 72 66  2  0
 73 72  1  0
 73 68  2  0
 74 67  1  0
 75 65  1  0
 77 79  2  0
 78 77  1  0
 80 78  1  0
 81 90  2  0
 81 86  1  0
 82 78  1  0
 82 86  1  0
 83 82  1  0
 84 85  1  0
 84 83  1  0
 85 81  1  0
 86 87  2  0
 87 88  1  0
 89 88  2  0
 90 89  1  0
 91 65  1  0
 91 96  1  0
 91 92  1  0
 92 95  1  1
 92 93  1  0
 94 92  1  0
 96 99  1  0
 97101  1  0
 97 96  1  0
 98 97  2  0
101100  1  0
103101  1  0
103104  1  0
103102  1  0
M  ISO  4  19 100  27 100  63 101  64 101
M  END
>  <TORSDO>  (81) 
F 26

>  <SCORE>  (81) 
-11.938

>  <name>  (81) 
82

>  <ligand_id>  (81) 
82

>  <original_smiles>  (81) 
[H]c1c([H])c([H])c2c(c1[H])C([H])([H])C([H])([H])C([H])([H])C2([H])N([H])C(=O)C1([H])N(C(=O)C([H])(N([H])C(=O)C([H])(N([H])C([H])([H])[H])C([H])([H])[H])C(C([H])([H])[H])(C([H])([H])[H])C([H])([H])[H])C([H])([H])c2c([H])c(OC([H])([H])C([H])([H])[N+]([H])([H])C([H])(c3c([H])c([H])c(C([H])(C([H])([H])[H])[N+]([H])([H])C([H])([H])C([H])([H])C([H])([H])N([H])C(=O)N4C([H])([H])C([H])([H])C([H])([H])C([H])(n5nc(-c6c([H])c([H])c(Oc7c([H])c([H])c(F)c([H])c7F)c([H])c6[H])c(C(=O)N([H])[H])c5N([H])[H])C4([H])[H])c(C(=O)C([H])([H])[H])c3C([H])([H])[H])C([H])([H])[H])c([H])c([H])c2C1([H])[H]

>  <smiles>  (81) 
[H]c1c([H])c([H])c2c(c1[H])C([H])([H])C([H])([H])C([H])([H])C2([H])N([H])C(=O)C1([H])N(C(=O)C([H])(N([H])C(=O)C([H])(N([H])C([H])([H])[H])C([H])([H])[H])C(C([H])([H])[H])(C([H])([H])[H])C([H])([H])[H])C([H])([H])c2c([H])c(OC([H])([H])C([H])([H])[N+]([H])([H])C([H])(c3c([H])c([H])c(C([H])(C([H])([H])[H])[N+]([H])([H])C([H])([H])C([H])([H])C([H])([H])N([H])C(=O)N4C([H])([H])C([H])([H])C([H])([H])C([H])(n5nc(-c6c([H])c([H])c(Oc7c([H])c([H])c(F)c([H])c7F)c([H])c6[H])c(C(=O)N([H])[H])c5N([H])[H])C4([H])[H])c(C(=O)C([H])([H])[H])c3C([H])([H])[H])C([H])([H])[H])c([H])c([H])c2C1([H])[H]

$$$$
83:0:0
     RDKit          3D

102110  0  0  1  0  0  0  0  0999 V2000
  -30.4870  -20.5580   23.7010 C   0  0  0  0  0  3  0  0  0  0  0  0
  -29.2790  -20.4270   22.9940 C   0  0  0  0  0  3  0  0  0  0  0  0
  -30.9980  -22.5700   22.4230 C   0  0  0  0  0  3  0  0  0  0  0  0
  -31.3690  -21.6040   23.3800 C   0  0  0  0  0  0  0  0  0  0  0  0
  -28.9290  -21.3500   21.9870 C   0  0  0  0  0  0  0  0  0  0  0  0
  -29.7750  -22.4610   21.7060 C   0  0  0  0  0  0  0  0  0  0  0  0
  -27.6190  -21.1050   21.2540 C   0  0  0  0  0  1  0  0  0  0  0  0
  -27.9690  -24.0630   20.8170 C   0  0  0  0  0  1  0  0  0  0  0  0
  -29.3900  -23.4930   20.6200 C   0  0  0  0  0  3  0  0  0  0  0  0
  -30.4050  -24.5560   20.4130 N   0  0  0  0  0  4  0  0  0  0  0  0
  -31.3060  -24.1510   20.6150 H   0  0  0  0  0  0  0  0  0  0  0  0
  -30.4210  -24.7860   19.4260 H   0  0  0  0  0  0  0  0  0  0  0  0
  -30.2120  -25.8060   21.1970 C   0  0  0  0  0  2  0  0  0  0  0  0
  -31.0570  -26.9690   20.6420 C   0  0  0  0  0  2  0  0  0  0  0  0
  -30.5680  -28.2130   21.1280 O   0  0  0  0  0  0  0  0  0  0  0  0
  -25.0940  -31.8580   23.7490 C   0  0  0  0  0  0  0  0  0  0  0  0
  -29.2390  -28.5330   20.9470 C   0  0  0  0  0  0  0  0  0  0  0  0
  -24.5460  -30.3130   21.8900 C   0  0  0  0  0  3  0  0  0  0  0  0
  -26.5400  -29.3170   20.6630 C   0  0  0  0  0  0  0  0  0  0  0  0
  -26.8780  -31.3410   22.0910 C   0  0  0  0  0  2  0  0  0  0  0  0
  -27.4160  -30.0890   21.4320 C   0  0  0  0  0  0  0  0  0  0  0  0
  -28.7620  -29.7020   21.5760 C   0  0  0  0  0  3  0  0  0  0  0  0
  -28.3390  -27.7620   20.1670 C   0  0  0  0  0  3  0  0  0  0  0  0
  -26.9930  -28.1480   20.0340 C   0  0  0  0  0  3  0  0  0  0  0  0
  -25.1180  -29.8100   20.5390 C   0  0  0  0  0  2  0  0  0  0  0  0
  -25.5100  -31.1870   22.6370 N   0  0  0  0  0  0  0  0  0  0  0  0
  -23.9170  -31.7990   24.1280 O   0  0  0  0  0  0  0  0  0  0  0  0
  -24.0630  -29.0930   22.7040 C   0  0  0  0  0  0  0  0  0  0  0  0
  -22.8670  -28.5850   22.3650 N   0  0  0  0  0  0  0  0  0  0  0  0
  -24.7670  -28.6090   23.5940 O   0  0  0  0  0  0  0  0  0  0  0  0
  -22.3490  -29.0470   21.6310 H   0  0  0  0  0  0  0  0  0  0  0  0
  -19.9060  -26.5230   22.2580 C   0  0  0  0  0  0  0  0  0  0  0  0
  -22.2260  -27.4130   22.9630 C   0  0  0  0  0  3  0  0  0  0  0  0
  -22.7970  -26.1050   22.3680 C   0  0  0  0  0  2  0  0  0  0  0  0
  -21.9890  -25.5820   21.1780 C   0  0  0  0  0  2  0  0  0  0  0  0
  -20.5370  -25.3160   21.5860 C   0  0  0  0  0  2  0  0  0  0  0  0
  -20.7000  -27.5150   22.8900 C   0  0  0  0  0  0  0  0  0  0  0  0
  -20.0640  -28.6330   23.4700 C   0  0  0  0  0  3  0  0  0  0  0  0
  -18.6640  -28.7680   23.4300 C   0  0  0  0  0  3  0  0  0  0  0  0
  -17.8800  -27.7740   22.8190 C   0  0  0  0  0  3  0  0  0  0  0  0
  -18.5000  -26.6530   22.2380 C   0  0  0  0  0  3  0  0  0  0  0  0
  -26.0700  -32.7470   24.5810 C   0  0  0  0  0  3  0  0  0  0  0  0
  -26.3830  -32.1570   26.0110 C   0  0  1  0  0  0  0  0  0  0  0  0
  -25.1190  -31.7880   26.8200 C   0  0  0  0  0  1  0  0  0  0  0  0
  -27.2620  -30.8870   25.8960 C   0  0  0  0  0  1  0  0  0  0  0  0
  -27.1860  -33.1870   26.8380 C   0  0  0  0  0  1  0  0  0  0  0  0
  -25.4730  -34.0840   24.6820 N   0  0  0  0  0  0  0  0  0  0  0  0
  -25.8010  -35.1210   23.8990 C   0  0  0  0  0  0  0  0  0  0  0  0
  -26.6970  -35.0690   23.0530 O   0  0  0  0  0  0  0  0  0  0  0  0
  -24.6870  -34.1840   25.3060 H   0  0  0  0  0  0  0  0  0  0  0  0
  -23.9180  -36.5280   22.9980 C   0  0  0  0  0  1  0  0  0  0  0  0
  -25.0010  -36.4260   24.0840 C   0  0  0  0  0  3  0  0  0  0  0  0
  -26.7470  -37.7410   25.2000 C   0  0  0  0  0  1  0  0  0  0  0  0
  -25.8430  -37.6410   24.0560 N   0  0  0  0  0  0  0  0  0  0  0  0
  -25.2640  -38.4770   24.0420 H   0  0  0  0  0  0  0  0  0  0  0  0
  -32.7670  -21.6060   23.9730 C   0  0  0  0  0  2  0  0  0  0  0  0
  -33.6150  -20.4860   23.3390 C   0  0  0  0  0  2  0  0  0  0  0  0
  -34.7010  -21.1510   21.1180 C   0  0  0  0  0  1  0  0  0  0  0  0
  -33.5130  -20.4340   21.7930 C   0  0  0  0  0  3  0  0  0  0  0  0
  -33.4330  -19.0350   21.3290 N   0  0  0  0  0  4  0  0  0  0  0  0
  -33.7140  -19.0100   20.3610 H   0  0  0  0  0  0  0  0  0  0  0  0
  -34.1150  -18.4880   21.8310 H   0  0  0  0  0  0  0  0  0  0  0  0
  -32.1030  -18.3740   21.4000 C   0  0  0  0  0  2  0  0  0  0  0  0
  -32.3040  -16.9810   20.8090 C   0  0  0  0  0  2  0  0  0  0  0  0
  -31.6280  -14.7400   20.3600 C   0  0  0  0  0  0  0  0  0  0  0  0
  -30.9960  -12.7210   19.1580 C   0  0  0  0  0  2  0  0  0  0  0  0
  -30.1410  -13.0710   17.9310 C   0  0  0  0  0  2  0  0  0  0  0  0
  -28.6580  -13.0200   18.3230 C   0  0  0  0  0  2  0  0  0  0  0  0
  -28.3420  -13.8330   19.6110 C   0  0  0  0  0  3  0  0  0  0  0  0
  -29.3760  -13.5970   20.7420 C   0  0  0  0  0  2  0  0  0  0  0  0
  -30.7280  -13.7380   20.1870 N   0  0  0  0  0  0  0  0  0  0  0  0
  -32.7550  -14.6690   19.8680 O   0  0  0  0  0  0  0  0  0  0  0  0
  -31.2830  -15.9110   20.9210 N   0  0  0  0  0  0  0  0  0  0  0  0
  -30.3510  -16.0880   21.2610 H   0  0  0  0  0  0  0  0  0  0  0  0
  -25.9310  -14.4990   20.2020 C   0  0  0  0  0  0  0  0  0  0  0  0
  -24.8370  -13.7640   20.5600 C   0  0  0  0  0  0  0  0  0  0  0  0
  -25.2740  -12.4030   20.6160 C   0  0  0  0  0  0  0  0  0  0  0  0
  -26.9700  -13.5960   20.0570 N   0  0  0  0  0  0  0  0  0  0  0  0
  -26.5770  -12.3310   20.3680 N   0  0  0  0  0  0  0  0  0  0  0  0
  -24.5130  -11.1630   20.8330 C   0  0  0  0  0  0  0  0  0  0  0  0
  -24.9000  -10.2210   21.8130 C   0  0  0  0  0  3  0  0  0  0  0  0
  -24.1450   -9.0450   22.0190 C   0  0  0  0  0  3  0  0  0  0  0  0
  -22.9870   -8.8010   21.2410 C   0  0  0  0  0  0  0  0  0  0  0  0
  -22.6140   -9.7310   20.2530 C   0  0  0  0  0  3  0  0  0  0  0  0
  -23.3690  -10.8990   20.0490 C   0  0  0  0  0  3  0  0  0  0  0  0
  -22.2050   -7.6770   21.3540 O   0  0  0  0  0  0  0  0  0  0  0  0
  -22.0970   -6.9900   22.5370 C   0  0  0  0  0  0  0  0  0  0  0  0
  -21.6750   -7.6190   23.7300 C   0  0  0  0  0  3  0  0  0  0  0  0
  -21.5150   -6.8610   24.9070 C   0  0  0  0  0  3  0  0  0  0  0  0
  -21.7590   -5.4740   24.8920 C   0  0  0  0  0  0  0  0  0  0  0  0
  -22.1680   -4.8460   23.7040 C   0  0  0  0  0  3  0  0  0  0  0  0
  -22.3330   -5.6000   22.5300 C   0  0  0  0  0  0  0  0  0  0  0  0
  -22.7080   -4.9830   21.3830 F   0  0  0  0  0  0  0  0  0  0  0  0
  -21.5950   -4.7450   26.0210 F   0  0  0  0  0  0  0  0  0  0  0  0
  -23.4340  -14.2730   20.7490 C   0  0  0  0  0  0  0  0  0  0  0  0
  -22.6650  -13.6440   21.6300 N   0  0  0  0  0  0  0  0  0  0  0  0
  -23.0300  -15.2710   20.1510 O   0  0  0  0  0  0  0  0  0  0  0  0
  -22.9970  -12.8370   22.1370 H   0  0  0  0  0  0  0  0  0  0  0  0
  -21.7260  -13.9730   21.8070 H   0  0  0  0  0  0  0  0  0  0  0  0
  -26.1310  -15.8570   19.9630 N   0  0  0  0  0  0  0  0  0  0  0  0
  -25.3830  -16.5400   20.0210 H   0  0  0  0  0  0  0  0  0  0  0  0
  -27.0170  -16.2610   19.6970 H   0  0  0  0  0  0  0  0  0  0  0  0
  2  1  2  0
  3  4  2  0
  4  1  1  0
  4 56  1  0
  5  2  1  0
  6  5  2  0
  6  3  1  0
  7  5  1  0
  9  8  1  0
  9  6  1  0
 10 11  1  0
 10  9  1  0
 10 13  1  0
 12 10  1  0
 14 15  1  0
 14 13  1  0
 16 27  2  0
 17 15  1  0
 17 22  1  0
 18 26  1  0
 18 28  1  0
 19 21  1  0
 20 26  1  0
 21 22  2  0
 21 20  1  0
 23 17  2  0
 24 23  1  0
 24 19  2  0
 25 19  1  0
 25 18  1  0
 26 16  1  0
 28 30  2  0
 29 28  1  0
 31 29  1  0
 32 37  1  0
 33 29  1  0
 34 33  1  0
 35 36  1  0
 35 34  1  0
 36 32  1  0
 37 33  1  0
 37 38  2  0
 39 38  1  0
 40 39  2  0
 41 32  2  0
 41 40  1  0
 42 16  1  0
 42 47  1  0
 42 43  1  0
 43 44  1  1
 43 46  1  0
 45 43  1  0
 47 50  1  0
 48 52  1  0
 48 47  1  0
 49 48  2  0
 52 51  1  0
 54 52  1  0
 54 53  1  0
 55 54  1  0
 57 56  1  0
 59 58  1  0
 59 57  1  0
 60 63  1  0
 60 59  1  0
 60 62  1  0
 61 60  1  0
 64 73  1  0
 64 63  1  0
 65 73  1  0
 66 71  1  0
 67 68  1  0
 67 66  1  0
 69 68  1  0
 69 78  1  0
 69 70  1  0
 71 65  1  0
 71 70  1  0
 72 65  2  0
 73 74  1  0
 75 76  2  0
 76 77  1  0
 76 95  1  0
 77 80  1  0
 78 75  1  0
 78 79  1  0
 79 77  2  0
 80 81  1  0
 81 82  2  0
 83 86  1  0
 83 82  1  0
 84 83  2  0
 85 84  1  0
 85 80  2  0
 86 87  1  0
 87 88  1  0
 88 89  2  0
 90 89  1  0
 90 94  1  0
 91 90  2  0
 92 87  2  0
 92 91  1  0
 93 92  1  0
 95 96  1  0
 96 99  1  0
 96 98  1  0
 97 95  2  0
100101  1  0
100 75  1  0
102100  1  0
M  ISO  4  14 101  15 101  65 100  73 100
M  END
>  <TORSDO>  (82) 
F 26

>  <SCORE>  (82) 
-4.963

>  <name>  (82) 
83

>  <ligand_id>  (82) 
83

>  <original_smiles>  (82) 
[H]c1c([H])c([H])c2c(c1[H])C([H])([H])C([H])([H])C([H])([H])C2([H])N([H])C(=O)C1([H])N(C(=O)C([H])(N([H])C(=O)C([H])(N([H])C([H])([H])[H])C([H])([H])[H])C(C([H])([H])[H])(C([H])([H])[H])C([H])([H])[H])C([H])([H])c2c([H])c(OC([H])([H])C([H])([H])[N+]([H])([H])C([H])(c3c([H])c(C([H])([H])C([H])([H])C([H])(C([H])([H])[H])[N+]([H])([H])C([H])([H])C([H])([H])N([H])C(=O)N4C([H])([H])C([H])([H])C([H])([H])C([H])(n5nc(-c6c([H])c([H])c(Oc7c([H])c([H])c(F)c([H])c7F)c([H])c6[H])c(C(=O)N([H])[H])c5N([H])[H])C4([H])[H])c([H])c([H])c3C([H])([H])[H])C([H])([H])[H])c([H])c([H])c2C1([H])[H]

>  <smiles>  (82) 
[H]c1c([H])c([H])c2c(c1[H])C([H])([H])C([H])([H])C([H])([H])C2([H])N([H])C(=O)C1([H])N(C(=O)C([H])(N([H])C(=O)C([H])(N([H])C([H])([H])[H])C([H])([H])[H])C(C([H])([H])[H])(C([H])([H])[H])C([H])([H])[H])C([H])([H])c2c([H])c(OC([H])([H])C([H])([H])[N+]([H])([H])C([H])(c3c([H])c(C([H])([H])C([H])([H])C([H])(C([H])([H])[H])[N+]([H])([H])C([H])([H])C([H])([H])N([H])C(=O)N4C([H])([H])C([H])([H])C([H])([H])C([H])(n5nc(-c6c([H])c([H])c(Oc7c([H])c([H])c(F)c([H])c7F)c([H])c6[H])c(C(=O)N([H])[H])c5N([H])[H])C4([H])[H])c([H])c([H])c3C([H])([H])[H])C([H])([H])[H])c([H])c([H])c2C1([H])[H]

$$$$
84:0:0
     RDKit          3D

 94102  0  0  1  0  0  0  0  0999 V2000
  -28.7630  -21.1360   20.2400 C   0  0  0  0  0  3  0  0  0  0  0  0
  -30.5040  -22.8180   20.3830 C   0  0  0  0  0  3  0  0  0  0  0  0
  -29.1290  -22.5470   20.2680 C   0  0  0  0  0  0  0  0  0  0  0  0
  -29.7100  -20.0280   20.3650 C   0  0  0  0  0  0  0  0  0  0  0  0
  -31.4620  -21.7850   20.4590 C   0  0  0  0  0  0  0  0  0  0  0  0
  -31.0800  -20.4190   20.4520 C   0  0  0  0  0  0  0  0  0  0  0  0
  -32.9300  -22.1760   20.5190 C   0  0  0  0  0  1  0  0  0  0  0  0
  -28.1710  -23.7640   20.0620 C   0  0  0  0  0  0  0  0  0  0  0  0
  -27.1910  -23.6590   19.3160 O   0  0  0  0  0  0  0  0  0  0  0  0
  -28.3460  -25.1380   20.8720 C   0  0  0  0  0  2  0  0  0  0  0  0
  -28.3680  -26.4510   20.1530 O   0  0  0  0  0  0  0  0  0  0  0  0
  -24.5980  -31.8770   23.2210 C   0  0  0  0  0  0  0  0  0  0  0  0
  -27.2480  -27.3000   20.1990 C   0  0  0  0  0  0  0  0  0  0  0  0
  -23.4190  -30.4760   21.5660 C   0  0  0  0  0  3  0  0  0  0  0  0
  -24.8870  -28.9220   20.1610 C   0  0  0  0  0  0  0  0  0  0  0  0
  -25.9610  -30.7950   21.4120 C   0  0  0  0  0  2  0  0  0  0  0  0
  -26.0520  -29.4120   20.7690 C   0  0  0  0  0  0  0  0  0  0  0  0
  -27.2380  -28.6140   20.7740 C   0  0  0  0  0  3  0  0  0  0  0  0
  -26.0630  -26.8640   19.5760 C   0  0  0  0  0  3  0  0  0  0  0  0
  -24.8980  -27.6540   19.5550 C   0  0  0  0  0  3  0  0  0  0  0  0
  -23.6510  -29.8000   20.1890 C   0  0  0  0  0  2  0  0  0  0  0  0
  -24.6780  -31.0670   22.1230 N   0  0  0  0  0  0  0  0  0  0  0  0
  -23.5090  -32.1500   23.7430 O   0  0  0  0  0  0  0  0  0  0  0  0
  -22.7460  -29.4590   22.5180 C   0  0  0  0  0  0  0  0  0  0  0  0
  -21.4200  -29.2870   22.3840 N   0  0  0  0  0  0  0  0  0  0  0  0
  -23.4170  -28.8250   23.3370 O   0  0  0  0  0  0  0  0  0  0  0  0
  -20.9350  -29.8480   21.6980 H   0  0  0  0  0  0  0  0  0  0  0  0
  -18.0320  -28.1180   22.8770 C   0  0  0  0  0  0  0  0  0  0  0  0
  -20.5940  -28.3500   23.1470 C   0  0  0  0  0  3  0  0  0  0  0  0
  -20.6800  -26.9240   22.5530 C   0  0  0  0  0  2  0  0  0  0  0  0
  -19.5730  -26.6250   21.5380 C   0  0  0  0  0  2  0  0  0  0  0  0
  -18.1940  -26.7750   22.1870 C   0  0  0  0  0  2  0  0  0  0  0  0
  -19.1590  -28.8650   23.3140 C   0  0  0  0  0  0  0  0  0  0  0  0
  -18.9520  -30.1220   23.9210 C   0  0  0  0  0  3  0  0  0  0  0  0
  -17.6520  -30.6310   24.0990 C   0  0  0  0  0  3  0  0  0  0  0  0
  -16.5400  -29.8810   23.6770 C   0  0  0  0  0  3  0  0  0  0  0  0
  -16.7320  -28.6280   23.0700 C   0  0  0  0  0  3  0  0  0  0  0  0
  -25.8710  -32.5130   23.8600 C   0  0  0  0  0  3  0  0  0  0  0  0
  -25.5550  -33.9130   24.1830 N   0  0  0  0  0  0  0  0  0  0  0  0
  -25.8920  -34.9640   23.4250 C   0  0  0  0  0  0  0  0  0  0  0  0
  -26.5680  -34.8590   22.3990 O   0  0  0  0  0  0  0  0  0  0  0  0
  -24.9580  -34.0700   24.9810 H   0  0  0  0  0  0  0  0  0  0  0  0
  -24.1700  -36.7570   23.0460 C   0  0  0  0  0  1  0  0  0  0  0  0
  -25.4000  -36.3530   23.8760 C   0  0  0  0  0  3  0  0  0  0  0  0
  -27.5180  -37.2420   24.7420 C   0  0  0  0  0  1  0  0  0  0  0  0
  -26.4330  -37.4060   23.7780 N   0  0  0  0  0  0  0  0  0  0  0  0
  -26.0250  -38.3270   23.9150 H   0  0  0  0  0  0  0  0  0  0  0  0
  -26.3680  -31.7460   25.1470 C   0  0  1  0  0  0  0  0  0  0  0  0
  -25.2600  -31.5120   26.1980 C   0  0  0  0  0  1  0  0  0  0  0  0
  -26.9580  -30.3690   24.7670 C   0  0  0  0  0  1  0  0  0  0  0  0
  -27.5080  -32.5440   25.8230 C   0  0  0  0  0  1  0  0  0  0  0  0
  -29.2680  -18.5100   20.4010 C   0  0  0  0  0  0  0  0  0  0  0  0
  -28.0710  -18.2020   20.3500 O   0  0  0  0  0  0  0  0  0  0  0  0
  -30.3020  -17.2930   20.5200 C   0  0  0  0  0  2  0  0  0  0  0  0
  -30.5600  -14.7240   20.2480 C   0  0  0  0  0  0  0  0  0  0  0  0
  -30.3210  -12.4810   19.1840 C   0  0  0  0  0  2  0  0  0  0  0  0
  -29.3580  -12.6150   17.9840 C   0  0  0  0  0  2  0  0  0  0  0  0
  -27.8960  -12.4380   18.4450 C   0  0  0  0  0  2  0  0  0  0  0  0
  -27.5600  -13.2860   19.7020 C   0  0  0  0  0  3  0  0  0  0  0  0
  -28.6450  -13.1520   20.7930 C   0  0  0  0  0  2  0  0  0  0  0  0
  -29.9260  -13.5070   20.1740 N   0  0  0  0  0  0  0  0  0  0  0  0
  -31.7320  -14.8340   19.8800 O   0  0  0  0  0  0  0  0  0  0  0  0
  -29.8130  -15.8460   20.5370 N   0  0  0  0  0  0  0  0  0  0  0  0
  -28.8460  -15.7070   20.7920 H   0  0  0  0  0  0  0  0  0  0  0  0
  -25.1920  -13.8650   20.5000 C   0  0  0  0  0  0  0  0  0  0  0  0
  -24.1350  -13.0850   20.8850 C   0  0  0  0  0  0  0  0  0  0  0  0
  -24.5970  -11.7350   20.8160 C   0  0  0  0  0  0  0  0  0  0  0  0
  -26.2280  -12.9900   20.2210 N   0  0  0  0  0  0  0  0  0  0  0  0
  -25.8790  -11.7010   20.4720 N   0  0  0  0  0  0  0  0  0  0  0  0
  -23.8750  -10.4680   21.0030 C   0  0  0  0  0  0  0  0  0  0  0  0
  -24.3170   -9.4970   21.9290 C   0  0  0  0  0  3  0  0  0  0  0  0
  -23.6000   -8.2950   22.1050 C   0  0  0  0  0  3  0  0  0  0  0  0
  -22.4230   -8.0550   21.3540 C   0  0  0  0  0  0  0  0  0  0  0  0
  -21.9980   -9.0160   20.4190 C   0  0  0  0  0  3  0  0  0  0  0  0
  -22.7180  -10.2090   20.2420 C   0  0  0  0  0  3  0  0  0  0  0  0
  -21.6740   -6.9080   21.4420 O   0  0  0  0  0  0  0  0  0  0  0  0
  -21.6170   -6.1700   22.5970 C   0  0  0  0  0  0  0  0  0  0  0  0
  -21.1380   -6.7160   23.8060 C   0  0  0  0  0  3  0  0  0  0  0  0
  -21.0320   -5.9030   24.9520 C   0  0  0  0  0  3  0  0  0  0  0  0
  -21.3920   -4.5430   24.8870 C   0  0  0  0  0  0  0  0  0  0  0  0
  -21.8620   -3.9950   23.6800 C   0  0  0  0  0  3  0  0  0  0  0  0
  -21.9700   -4.8060   22.5370 C   0  0  0  0  0  0  0  0  0  0  0  0
  -22.4050   -4.2690   21.3730 F   0  0  0  0  0  0  0  0  0  0  0  0
  -21.2800   -3.7590   25.9850 F   0  0  0  0  0  0  0  0  0  0  0  0
  -22.7470  -13.5560   21.2010 C   0  0  0  0  0  0  0  0  0  0  0  0
  -22.0380  -12.8400   22.0670 N   0  0  0  0  0  0  0  0  0  0  0  0
  -22.3000  -14.5960   20.7180 O   0  0  0  0  0  0  0  0  0  0  0  0
  -22.4130  -12.0010   22.4830 H   0  0  0  0  0  0  0  0  0  0  0  0
  -21.1070  -13.1360   22.3210 H   0  0  0  0  0  0  0  0  0  0  0  0
  -25.3490  -15.2390   20.3460 N   0  0  0  0  0  0  0  0  0  0  0  0
  -24.5750  -15.8790   20.4830 H   0  0  0  0  0  0  0  0  0  0  0  0
  -26.1800  -15.6960   19.9930 H   0  0  0  0  0  0  0  0  0  0  0  0
  -32.0960  -19.5060   20.5150 O   0  0  0  0  0  0  0  0  0  0  0  0
  -32.9540  -19.9170   20.4490 H   0  0  0  0  0  0  0  0  0  0  0  0
  1  3  2  0
  1  4  1  0
  2  5  2  0
  3  2  1  0
  4 52  1  0
  4  6  2  0
  5  7  1  0
  6  5  1  0
  6 93  1  0
  8  3  1  0
  8 10  1  0
  9  8  2  0
 11 13  1  0
 11 10  1  0
 12 23  2  0
 13 18  1  0
 14 22  1  0
 14 24  1  0
 15 21  1  0
 15 17  1  0
 16 22  1  0
 17 18  2  0
 17 16  1  0
 19 13  2  0
 20 19  1  0
 20 15  2  0
 21 14  1  0
 22 12  1  0
 24 26  2  0
 25 24  1  0
 27 25  1  0
 28 37  2  0
 28 33  1  0
 29 25  1  0
 29 33  1  0
 30 29  1  0
 31 32  1  0
 31 30  1  0
 32 28  1  0
 33 34  2  0
 34 35  1  0
 36 35  2  0
 37 36  1  0
 38 12  1  0
 38 39  1  0
 38 48  1  0
 39 42  1  0
 40 44  1  0
 40 39  1  0
 41 40  2  0
 44 43  1  0
 46 44  1  0
 46 47  1  0
 46 45  1  0
 48 51  1  1
 48 49  1  0
 50 48  1  0
 52 54  1  0
 53 52  2  0
 54 63  1  0
 55 63  1  0
 56 61  1  0
 57 58  1  0
 57 56  1  0
 59 58  1  0
 59 68  1  0
 59 60  1  0
 61 55  1  0
 61 60  1  0
 62 55  2  0
 63 64  1  0
 65 66  2  0
 66 85  1  0
 67 66  1  0
 67 70  1  0
 68 69  1  0
 68 65  1  0
 69 67  2  0
 70 71  1  0
 71 72  2  0
 73 76  1  0
 73 72  1  0
 74 73  2  0
 75 74  1  0
 75 70  2  0
 76 77  1  0
 77 78  1  0
 78 79  2  0
 80 79  1  0
 80 84  1  0
 81 80  2  0
 82 77  2  0
 82 81  1  0
 83 82  1  0
 85 86  1  0
 86 89  1  0
 86 88  1  0
 87 85  2  0
 90 91  1  0
 90 65  1  0
 92 90  1  0
 94 93  1  0
M  ISO  4  10 101  11 101  55 100  63 100
M  END
>  <TORSDO>  (83) 
F 21

>  <SCORE>  (83) 
-13.890

>  <name>  (83) 
84

>  <ligand_id>  (83) 
84

>  <original_smiles>  (83) 
[H]Oc1c(C(=O)C([H])([H])N([H])C(=O)N2C([H])([H])C([H])([H])C([H])([H])C([H])(n3nc(-c4c([H])c([H])c(Oc5c([H])c([H])c(F)c([H])c5F)c([H])c4[H])c(C(=O)N([H])[H])c3N([H])[H])C2([H])[H])c([H])c(C(=O)C([H])([H])Oc2c([H])c([H])c3c(c2[H])C([H])([H])N(C(=O)C([H])(N([H])C(=O)C([H])(N([H])C([H])([H])[H])C([H])([H])[H])C(C([H])([H])[H])(C([H])([H])[H])C([H])([H])[H])C([H])(C(=O)N([H])C2([H])c4c([H])c([H])c([H])c([H])c4C([H])([H])C([H])([H])C2([H])[H])C3([H])[H])c([H])c1C([H])([H])[H]

>  <smiles>  (83) 
[H]Oc1c(C(=O)C([H])([H])N([H])C(=O)N2C([H])([H])C([H])([H])C([H])([H])C([H])(n3nc(-c4c([H])c([H])c(Oc5c([H])c([H])c(F)c([H])c5F)c([H])c4[H])c(C(=O)N([H])[H])c3N([H])[H])C2([H])[H])c([H])c(C(=O)C([H])([H])Oc2c([H])c([H])c3c(c2[H])C([H])([H])N(C(=O)C([H])(N([H])C(=O)C([H])(N([H])C([H])([H])[H])C([H])([H])[H])C(C([H])([H])[H])(C([H])([H])[H])C([H])([H])[H])C([H])(C(=O)N([H])C2([H])c4c([H])c([H])c([H])c([H])c4C([H])([H])C([H])([H])C2([H])[H])C3([H])[H])c([H])c1C([H])([H])[H]

$$$$
85:0:0
     RDKit          3D

 97105  0  0  1  0  0  0  0  0999 V2000
  -27.8260  -20.5540   20.5330 C   0  0  0  0  0  3  0  0  0  0  0  0
  -26.8800  -21.5940   20.5610 C   0  0  0  0  0  3  0  0  0  0  0  0
  -29.6080  -22.1990   20.7710 C   0  0  0  0  0  3  0  0  0  0  0  0
  -29.2060  -20.8370   20.6370 C   0  0  0  0  0  0  0  0  0  0  0  0
  -28.6590  -23.2620   20.8330 C   0  0  0  0  0  0  0  0  0  0  0  0
  -27.2870  -22.9350   20.7060 C   0  0  0  0  0  0  0  0  0  0  0  0
  -26.3350  -23.9120   20.7270 O   0  0  0  0  0  0  0  0  0  0  0  0
  -25.4500  -23.5720   20.6360 H   0  0  0  0  0  0  0  0  0  0  0  0
  -30.2320  -19.7330   20.6050 C   0  0  0  0  0  0  0  0  0  0  0  0
  -31.4420  -19.9720   20.5260 O   0  0  0  0  0  0  0  0  0  0  0  0
  -29.7540  -18.2580   20.6820 C   0  0  0  0  0  2  0  0  0  0  0  0
  -30.9020  -17.2040   20.7530 C   0  0  0  0  0  2  0  0  0  0  0  0
  -31.1730  -14.7350   20.4120 C   0  0  0  0  0  0  0  0  0  0  0  0
  -30.8830  -12.5350   19.3390 C   0  0  0  0  0  2  0  0  0  0  0  0
  -29.9650  -12.7050   18.1110 C   0  0  0  0  0  2  0  0  0  0  0  0
  -28.4820  -12.5960   18.5190 C   0  0  0  0  0  2  0  0  0  0  0  0
  -28.1310  -13.4820   19.7450 C   0  0  0  0  0  3  0  0  0  0  0  0
  -29.1640  -13.2920   20.8790 C   0  0  0  0  0  2  0  0  0  0  0  0
  -30.4970  -13.5580   20.3230 N   0  0  0  0  0  0  0  0  0  0  0  0
  -32.3200  -14.8830   19.9810 O   0  0  0  0  0  0  0  0  0  0  0  0
  -30.4490  -15.7980   20.8280 N   0  0  0  0  0  0  0  0  0  0  0  0
  -29.5060  -15.6130   21.1320 H   0  0  0  0  0  0  0  0  0  0  0  0
  -25.7450  -14.1510   20.4340 C   0  0  0  0  0  0  0  0  0  0  0  0
  -24.6520  -13.4040   20.7840 C   0  0  0  0  0  0  0  0  0  0  0  0
  -25.0760  -12.0410   20.7420 C   0  0  0  0  0  0  0  0  0  0  0  0
  -26.7670  -13.2430   20.2060 N   0  0  0  0  0  0  0  0  0  0  0  0
  -26.3670  -11.9690   20.4510 N   0  0  0  0  0  0  0  0  0  0  0  0
  -24.3130  -10.7960   20.9100 C   0  0  0  0  0  0  0  0  0  0  0  0
  -24.6610   -9.8450   21.8940 C   0  0  0  0  0  3  0  0  0  0  0  0
  -23.9010   -8.6650   22.0480 C   0  0  0  0  0  3  0  0  0  0  0  0
  -22.7810   -8.4290   21.2170 C   0  0  0  0  0  0  0  0  0  0  0  0
  -22.4540   -9.3670   20.2230 C   0  0  0  0  0  3  0  0  0  0  0  0
  -23.2130  -10.5380   20.0680 C   0  0  0  0  0  3  0  0  0  0  0  0
  -22.0020   -7.2970   21.2770 O   0  0  0  0  0  0  0  0  0  0  0  0
  -21.8150   -6.6130   22.4520 C   0  0  0  0  0  0  0  0  0  0  0  0
  -21.2150   -7.2170   23.5780 C   0  0  0  0  0  3  0  0  0  0  0  0
  -20.9780   -6.4570   24.7400 C   0  0  0  0  0  3  0  0  0  0  0  0
  -21.3330   -5.0950   24.7780 C   0  0  0  0  0  0  0  0  0  0  0  0
  -21.9270   -4.4910   23.6550 C   0  0  0  0  0  3  0  0  0  0  0  0
  -22.1650   -5.2480   22.4940 C   0  0  0  0  0  0  0  0  0  0  0  0
  -22.7170   -4.6570   21.4080 F   0  0  0  0  0  0  0  0  0  0  0  0
  -21.0980   -4.3630   25.8910 F   0  0  0  0  0  0  0  0  0  0  0  0
  -23.2640  -13.9160   21.0450 C   0  0  0  0  0  0  0  0  0  0  0  0
  -22.5110  -13.2360   21.9030 N   0  0  0  0  0  0  0  0  0  0  0  0
  -22.8570  -14.9540   20.5230 O   0  0  0  0  0  0  0  0  0  0  0  0
  -22.8490  -12.3950   22.3470 H   0  0  0  0  0  0  0  0  0  0  0  0
  -21.5800  -13.5620   22.1220 H   0  0  0  0  0  0  0  0  0  0  0  0
  -25.9510  -15.5170   20.2720 N   0  0  0  0  0  0  0  0  0  0  0  0
  -25.2000  -16.1910   20.3820 H   0  0  0  0  0  0  0  0  0  0  0  0
  -26.8090  -15.9350   19.9370 H   0  0  0  0  0  0  0  0  0  0  0  0
  -29.0630  -24.7350   21.0960 C   0  0  0  0  0  3  0  0  0  0  0  0
  -30.3000  -24.8490   21.8940 N   0  0  0  0  0  4  0  0  0  0  0  0
  -31.0950  -24.5160   21.3790 H   0  0  0  0  0  0  0  0  0  0  0  0
  -30.2210  -24.3320   22.7510 H   0  0  0  0  0  0  0  0  0  0  0  0
  -30.4600  -25.8170   22.1150 H   0  0  0  0  0  0  0  0  0  0  0  0
  -29.1530  -25.6400   19.8410 C   0  0  0  0  0  2  0  0  0  0  0  0
  -29.0190  -27.0360   20.2080 O   0  0  0  0  0  0  0  0  0  0  0  0
  -24.7460  -31.8390   23.3290 C   0  0  0  0  0  0  0  0  0  0  0  0
  -27.7860  -27.6710   20.1870 C   0  0  0  0  0  0  0  0  0  0  0  0
  -23.7090  -30.4590   21.5610 C   0  0  0  0  0  3  0  0  0  0  0  0
  -25.3140  -29.0710   20.1540 C   0  0  0  0  0  0  0  0  0  0  0  0
  -26.2220  -30.9490   21.5240 C   0  0  0  0  0  2  0  0  0  0  0  0
  -26.4150  -29.6160   20.8250 C   0  0  0  0  0  0  0  0  0  0  0  0
  -27.6510  -28.9260   20.8340 C   0  0  0  0  0  3  0  0  0  0  0  0
  -26.6510  -27.1430   19.5210 C   0  0  0  0  0  3  0  0  0  0  0  0
  -25.4290  -27.8340   19.5030 C   0  0  0  0  0  3  0  0  0  0  0  0
  -24.0280  -29.8650   20.1650 C   0  0  0  0  0  2  0  0  0  0  0  0
  -24.9080  -31.0960   22.1970 N   0  0  0  0  0  0  0  0  0  0  0  0
  -23.6230  -32.0280   23.8170 O   0  0  0  0  0  0  0  0  0  0  0  0
  -23.0650  -29.3560   22.4330 C   0  0  0  0  0  0  0  0  0  0  0  0
  -21.7550  -29.1310   22.2430 N   0  0  0  0  0  0  0  0  0  0  0  0
  -23.7430  -28.7100   23.2360 O   0  0  0  0  0  0  0  0  0  0  0  0
  -21.2690  -29.7150   21.5770 H   0  0  0  0  0  0  0  0  0  0  0  0
  -18.4040  -27.8240   22.5850 C   0  0  0  0  0  0  0  0  0  0  0  0
  -20.9490  -28.1190   22.9240 C   0  0  0  0  0  3  0  0  0  0  0  0
  -21.0950  -26.7370   22.2440 C   0  0  0  0  0  2  0  0  0  0  0  0
  -20.0190  -26.4660   21.1870 C   0  0  0  0  0  2  0  0  0  0  0  0
  -18.6240  -26.5330   21.8150 C   0  0  0  0  0  2  0  0  0  0  0  0
  -19.4960  -28.5760   23.0930 C   0  0  0  0  0  0  0  0  0  0  0  0
  -19.2380  -29.7870   23.7710 C   0  0  0  0  0  3  0  0  0  0  0  0
  -17.9180  -30.2450   23.9500 C   0  0  0  0  0  3  0  0  0  0  0  0
  -16.8400  -29.4880   23.4590 C   0  0  0  0  0  3  0  0  0  0  0  0
  -17.0840  -28.2790   22.7830 C   0  0  0  0  0  3  0  0  0  0  0  0
  -25.9590  -32.5070   24.0490 C   0  0  0  0  0  3  0  0  0  0  0  0
  -25.5880  -33.8960   24.3470 N   0  0  0  0  0  0  0  0  0  0  0  0
  -25.9410  -34.9520   23.6030 C   0  0  0  0  0  0  0  0  0  0  0  0
  -26.6850  -34.8640   22.6230 O   0  0  0  0  0  0  0  0  0  0  0  0
  -24.9380  -34.0380   25.1060 H   0  0  0  0  0  0  0  0  0  0  0  0
  -24.1760  -36.6800   23.1250 C   0  0  0  0  0  1  0  0  0  0  0  0
  -25.3800  -36.3270   24.0150 C   0  0  0  0  0  3  0  0  0  0  0  0
  -27.4210  -37.3030   24.9710 C   0  0  0  0  0  1  0  0  0  0  0  0
  -26.3820  -37.4150   23.9510 N   0  0  0  0  0  0  0  0  0  0  0  0
  -25.9360  -38.3230   24.0540 H   0  0  0  0  0  0  0  0  0  0  0  0
  -26.3950  -31.7520   25.3650 C   0  0  1  0  0  0  0  0  0  0  0  0
  -25.2280  -31.4780   26.3430 C   0  0  0  0  0  1  0  0  0  0  0  0
  -27.0500  -30.3950   25.0230 C   0  0  0  0  0  1  0  0  0  0  0  0
  -27.4640  -32.5810   26.1160 C   0  0  0  0  0  1  0  0  0  0  0  0
  1  2  2  0
  1  4  1  0
  2  6  1  0
  3  5  1  0
  4  3  2  0
  5 51  1  0
  6  7  1  0
  6  5  2  0
  8  7  1  0
  9  4  1  0
  9 11  1  0
 10  9  2  0
 11 12  1  0
 12 21  1  0
 13 21  1  0
 14 19  1  0
 15 16  1  0
 15 14  1  0
 17 16  1  0
 17 26  1  0
 17 18  1  0
 19 13  1  0
 19 18  1  0
 20 13  2  0
 21 22  1  0
 23 24  2  0
 24 43  1  0
 25 24  1  0
 25 28  1  0
 26 23  1  0
 26 27  1  0
 27 25  2  0
 28 29  1  0
 29 30  2  0
 31 34  1  0
 31 30  1  0
 32 31  2  0
 33 32  1  0
 33 28  2  0
 34 35  1  0
 35 40  2  0
 35 36  1  0
 36 37  2  0
 37 38  1  0
 38 42  1  0
 39 38  2  0
 40 39  1  0
 41 40  1  0
 43 44  1  0
 44 47  1  0
 44 46  1  0
 45 43  2  0
 48 49  1  0
 48 23  1  0
 50 48  1  0
 51 56  1  0
 51 52  1  0
 52 55  1  0
 52 54  1  0
 53 52  1  0
 56 57  1  0
 58 69  2  0
 59 57  1  0
 59 64  1  0
 60 68  1  0
 60 70  1  0
 61 67  1  0
 61 63  1  0
 62 68  1  0
 63 64  2  0
 63 62  1  0
 65 59  2  0
 66 65  1  0
 66 61  2  0
 67 60  1  0
 68 58  1  0
 70 72  2  0
 71 70  1  0
 73 71  1  0
 74 83  2  0
 74 79  1  0
 75 71  1  0
 75 79  1  0
 76 75  1  0
 77 78  1  0
 77 76  1  0
 78 74  1  0
 79 80  2  0
 80 81  1  0
 82 81  2  0
 83 82  1  0
 84 58  1  0
 84 85  1  0
 84 94  1  0
 85 88  1  0
 86 90  1  0
 86 85  1  0
 87 86  2  0
 90 89  1  0
 92 90  1  0
 92 93  1  0
 92 91  1  0
 94 97  1  1
 94 95  1  0
 96 94  1  0
M  ISO  4  13 100  21 100  56 101  57 101
M  END
>  <TORSDO>  (84) 
F 23

>  <SCORE>  (84) 
-12.116

>  <name>  (84) 
85

>  <ligand_id>  (84) 
85

>  <original_smiles>  (84) 
[H]Oc1c([H])c([H])c(C(=O)C([H])([H])C([H])([H])N([H])C(=O)N2C([H])([H])C([H])([H])C([H])([H])C([H])(n3nc(-c4c([H])c([H])c(Oc5c([H])c([H])c(F)c([H])c5F)c([H])c4[H])c(C(=O)N([H])[H])c3N([H])[H])C2([H])[H])c([H])c1C([H])(C([H])([H])Oc1c([H])c([H])c2c(c1[H])C([H])([H])N(C(=O)C([H])(N([H])C(=O)C([H])(N([H])C([H])([H])[H])C([H])([H])[H])C(C([H])([H])[H])(C([H])([H])[H])C([H])([H])[H])C([H])(C(=O)N([H])C1([H])c3c([H])c([H])c([H])c([H])c3C([H])([H])C([H])([H])C1([H])[H])C2([H])[H])[N+]([H])([H])[H]

>  <smiles>  (84) 
[H]Oc1c([H])c([H])c(C(=O)C([H])([H])C([H])([H])N([H])C(=O)N2C([H])([H])C([H])([H])C([H])([H])C([H])(n3nc(-c4c([H])c([H])c(Oc5c([H])c([H])c(F)c([H])c5F)c([H])c4[H])c(C(=O)N([H])[H])c3N([H])[H])C2([H])[H])c([H])c1C([H])(C([H])([H])Oc1c([H])c([H])c2c(c1[H])C([H])([H])N(C(=O)C([H])(N([H])C(=O)C([H])(N([H])C([H])([H])[H])C([H])([H])[H])C(C([H])([H])[H])(C([H])([H])[H])C([H])([H])[H])C([H])(C(=O)N([H])C1([H])c3c([H])c([H])c([H])c([H])c3C([H])([H])C([H])([H])C1([H])[H])C2([H])[H])[N+]([H])([H])[H]

$$$$
86:0:0
     RDKit          3D

 96104  0  0  1  0  0  0  0  0999 V2000
  -30.7250  -20.4970   18.4550 C   0  0  0  0  0  3  0  0  0  0  0  0
  -31.3410  -21.7460   18.2460 C   0  0  0  0  0  3  0  0  0  0  0  0
  -30.2710  -21.1150   20.7580 C   0  0  0  0  0  3  0  0  0  0  0  0
  -30.1780  -20.1810   19.7120 C   0  0  0  0  0  0  0  0  0  0  0  0
  -31.4080  -22.7190   19.2780 C   0  0  0  0  0  0  0  0  0  0  0  0
  -30.8730  -22.3700   20.5480 C   0  0  0  0  0  0  0  0  0  0  0  0
  -30.9120  -23.2340   21.5900 F   0  0  0  0  0  0  0  0  0  0  0  0
  -33.2740  -24.2740   19.9270 C   0  0  0  0  0  1  0  0  0  0  0  0
  -32.5350  -24.3040   17.5810 C   0  0  0  0  0  1  0  0  0  0  0  0
  -32.0230  -24.1190   19.0330 C   0  0  1  0  0  0  0  0  0  0  0  0
  -31.0190  -25.2740   19.3740 C   0  0  0  0  0  2  0  0  0  0  0  0
  -28.7590  -24.3360   18.4910 C   0  0  0  0  0  1  0  0  0  0  0  0
  -29.7760  -25.4870   18.4620 C   0  0  0  0  0  3  0  0  0  0  0  0
  -29.0690  -26.8330   18.7420 C   0  0  0  0  0  2  0  0  0  0  0  0
  -28.4660  -26.8750   20.0370 O   0  0  0  0  0  0  0  0  0  0  0  0
  -24.5920  -31.9280   23.2380 C   0  0  0  0  0  0  0  0  0  0  0  0
  -27.2830  -27.5700   20.0860 C   0  0  0  0  0  0  0  0  0  0  0  0
  -23.3900  -30.5230   21.5910 C   0  0  0  0  0  3  0  0  0  0  0  0
  -24.8560  -29.0120   20.1470 C   0  0  0  0  0  0  0  0  0  0  0  0
  -25.9070  -30.9120   21.3860 C   0  0  0  0  0  2  0  0  0  0  0  0
  -26.0070  -29.5490   20.7400 C   0  0  0  0  0  0  0  0  0  0  0  0
  -27.2210  -28.8280   20.7210 C   0  0  0  0  0  3  0  0  0  0  0  0
  -26.1170  -27.0310   19.5050 C   0  0  0  0  0  3  0  0  0  0  0  0
  -24.9030  -27.7480   19.5320 C   0  0  0  0  0  3  0  0  0  0  0  0
  -23.5980  -29.8470   20.2080 C   0  0  0  0  0  2  0  0  0  0  0  0
  -24.6470  -31.1370   22.1290 N   0  0  0  0  0  0  0  0  0  0  0  0
  -23.5110  -32.1850   23.7870 O   0  0  0  0  0  0  0  0  0  0  0  0
  -22.7520  -29.4920   22.5480 C   0  0  0  0  0  0  0  0  0  0  0  0
  -21.4300  -29.2990   22.4230 N   0  0  0  0  0  0  0  0  0  0  0  0
  -23.4450  -28.8670   23.3580 O   0  0  0  0  0  0  0  0  0  0  0  0
  -20.9330  -29.8560   21.7410 H   0  0  0  0  0  0  0  0  0  0  0  0
  -18.0660  -28.0820   22.9300 C   0  0  0  0  0  0  0  0  0  0  0  0
  -20.6250  -28.3500   23.1870 C   0  0  0  0  0  3  0  0  0  0  0  0
  -20.7310  -26.9260   22.5930 C   0  0  0  0  0  2  0  0  0  0  0  0
  -19.6240  -26.6080   21.5840 C   0  0  0  0  0  2  0  0  0  0  0  0
  -18.2460  -26.7410   22.2380 C   0  0  0  0  0  2  0  0  0  0  0  0
  -19.1840  -28.8460   23.3600 C   0  0  0  0  0  0  0  0  0  0  0  0
  -18.9630  -30.1030   23.9640 C   0  0  0  0  0  3  0  0  0  0  0  0
  -17.6580  -30.5950   24.1450 C   0  0  0  0  0  3  0  0  0  0  0  0
  -16.5540  -29.8280   23.7310 C   0  0  0  0  0  3  0  0  0  0  0  0
  -16.7600  -28.5740   23.1290 C   0  0  0  0  0  3  0  0  0  0  0  0
  -25.8750  -32.5640   23.8570 C   0  0  0  0  0  3  0  0  0  0  0  0
  -25.5630  -33.9620   24.1820 N   0  0  0  0  0  0  0  0  0  0  0  0
  -25.8990  -35.0130   23.4200 C   0  0  0  0  0  0  0  0  0  0  0  0
  -26.5740  -34.9050   22.3920 O   0  0  0  0  0  0  0  0  0  0  0  0
  -24.9680  -34.1180   24.9810 H   0  0  0  0  0  0  0  0  0  0  0  0
  -24.1750  -36.8030   23.0450 C   0  0  0  0  0  1  0  0  0  0  0  0
  -25.4060  -36.4000   23.8700 C   0  0  0  0  0  3  0  0  0  0  0  0
  -27.5300  -37.2840   24.7280 C   0  0  0  0  0  1  0  0  0  0  0  0
  -26.4390  -37.4550   23.7720 N   0  0  0  0  0  0  0  0  0  0  0  0
  -26.0300  -38.3740   23.9190 H   0  0  0  0  0  0  0  0  0  0  0  0
  -26.3990  -31.7980   25.1330 C   0  0  1  0  0  0  0  0  0  0  0  0
  -25.3100  -31.5530   26.2030 C   0  0  0  0  0  1  0  0  0  0  0  0
  -26.9920  -30.4260   24.7390 C   0  0  0  0  0  1  0  0  0  0  0  0
  -27.5440  -32.6010   25.7930 C   0  0  0  0  0  1  0  0  0  0  0  0
  -29.4360  -18.8770   19.9270 C   0  0  0  0  0  2  0  0  0  0  0  0
  -30.2790  -17.7600   20.5690 C   0  0  0  0  0  2  0  0  0  0  0  0
  -29.3660  -16.5570   20.8510 C   0  0  0  0  0  2  0  0  0  0  0  0
  -30.6560  -14.4870   20.5360 C   0  0  0  0  0  0  0  0  0  0  0  0
  -30.3910  -12.3890   19.2720 C   0  0  0  0  0  2  0  0  0  0  0  0
  -29.4500  -12.6710   18.0840 C   0  0  0  0  0  2  0  0  0  0  0  0
  -27.9750  -12.5060   18.4980 C   0  0  0  0  0  2  0  0  0  0  0  0
  -27.6380  -13.2810   19.8000 C   0  0  0  0  0  3  0  0  0  0  0  0
  -28.6830  -12.9670   20.8970 C   0  0  0  0  0  2  0  0  0  0  0  0
  -30.0260  -13.2960   20.3700 N   0  0  0  0  0  0  0  0  0  0  0  0
  -31.6880  -14.8120   19.9390 O   0  0  0  0  0  0  0  0  0  0  0  0
  -30.0020  -15.3340   21.3380 N   0  0  0  0  0  0  0  0  0  0  0  0
  -29.4020  -14.8350   21.9800 H   0  0  0  0  0  0  0  0  0  0  0  0
  -25.2160  -13.8750   20.4620 C   0  0  0  0  0  0  0  0  0  0  0  0
  -24.1550  -13.0940   20.8270 C   0  0  0  0  0  0  0  0  0  0  0  0
  -24.6320  -11.7480   20.8120 C   0  0  0  0  0  0  0  0  0  0  0  0
  -26.2770  -13.0040   20.2540 N   0  0  0  0  0  0  0  0  0  0  0  0
  -25.9250  -11.7200   20.5170 N   0  0  0  0  0  0  0  0  0  0  0  0
  -23.9210  -10.4770   21.0070 C   0  0  0  0  0  0  0  0  0  0  0  0
  -24.3480   -9.5320   21.9650 C   0  0  0  0  0  3  0  0  0  0  0  0
  -23.6380   -8.3250   22.1460 C   0  0  0  0  0  3  0  0  0  0  0  0
  -22.4880   -8.0560   21.3650 C   0  0  0  0  0  0  0  0  0  0  0  0
  -22.0800   -8.9910   20.3980 C   0  0  0  0  0  3  0  0  0  0  0  0
  -22.7910  -10.1900   20.2160 C   0  0  0  0  0  3  0  0  0  0  0  0
  -21.7520   -6.9000   21.4540 O   0  0  0  0  0  0  0  0  0  0  0  0
  -21.6790   -6.1790   22.6180 C   0  0  0  0  0  0  0  0  0  0  0  0
  -21.1830   -6.7440   23.8140 C   0  0  0  0  0  3  0  0  0  0  0  0
  -21.0600   -5.9490   24.9700 C   0  0  0  0  0  3  0  0  0  0  0  0
  -21.4230   -4.5890   24.9330 C   0  0  0  0  0  0  0  0  0  0  0  0
  -21.9130   -4.0240   23.7430 C   0  0  0  0  0  3  0  0  0  0  0  0
  -22.0390   -4.8180   22.5880 C   0  0  0  0  0  0  0  0  0  0  0  0
  -22.4910   -4.2620   21.4380 F   0  0  0  0  0  0  0  0  0  0  0  0
  -21.2990   -3.8230   26.0410 F   0  0  0  0  0  0  0  0  0  0  0  0
  -22.7490  -13.5550   21.0840 C   0  0  0  0  0  0  0  0  0  0  0  0
  -22.0230  -12.8530   21.9480 N   0  0  0  0  0  0  0  0  0  0  0  0
  -22.3020  -14.5710   20.5540 O   0  0  0  0  0  0  0  0  0  0  0  0
  -22.3970  -12.0300   22.3950 H   0  0  0  0  0  0  0  0  0  0  0  0
  -21.0820  -13.1470   22.1670 H   0  0  0  0  0  0  0  0  0  0  0  0
  -25.3610  -15.2460   20.2760 N   0  0  0  0  0  0  0  0  0  0  0  0
  -24.5800  -15.8850   20.3680 H   0  0  0  0  0  0  0  0  0  0  0  0
  -26.2060  -15.7010   19.9520 H   0  0  0  0  0  0  0  0  0  0  0  0
  1  4  1  0
  2  1  2  0
  2  5  1  0
  4 56  1  0
  4  3  2  0
  5  6  2  0
  6  3  1  0
  6  7  1  0
 10  9  1  6
 10  5  1  0
 10 11  1  0
 10  8  1  0
 13 12  1  0
 13 14  1  0
 13 11  1  0
 14 15  1  0
 15 17  1  0
 16 27  2  0
 17 22  1  0
 18 26  1  0
 18 28  1  0
 19 25  1  0
 19 21  1  0
 20 26  1  0
 21 20  1  0
 22 21  2  0
 23 24  1  0
 23 17  2  0
 24 19  2  0
 25 18  1  0
 26 16  1  0
 28 30  2  0
 29 28  1  0
 31 29  1  0
 32 41  2  0
 32 37  1  0
 33 29  1  0
 33 37  1  0
 34 33  1  0
 35 36  1  0
 35 34  1  0
 36 32  1  0
 37 38  2  0
 38 39  1  0
 40 39  2  0
 41 40  1  0
 42 16  1  0
 42 43  1  0
 42 52  1  0
 43 46  1  0
 44 48  1  0
 44 43  1  0
 45 44  2  0
 48 47  1  0
 50 48  1  0
 50 51  1  0
 50 49  1  0
 52 55  1  1
 52 53  1  0
 54 52  1  0
 56 57  1  0
 57 58  1  0
 58 67  1  0
 59 67  1  0
 60 65  1  0
 61 62  1  0
 61 60  1  0
 63 62  1  0
 63 72  1  0
 63 64  1  0
 65 59  1  0
 65 64  1  0
 66 59  2  0
 67 68  1  0
 69 70  2  0
 70 89  1  0
 71 70  1  0
 71 74  1  0
 72 69  1  0
 72 73  1  0
 73 71  2  0
 74 75  1  0
 75 76  2  0
 77 80  1  0
 77 76  1  0
 78 77  2  0
 79 78  1  0
 79 74  2  0
 80 81  1  0
 81 82  1  0
 82 83  2  0
 84 83  1  0
 84 88  1  0
 85 84  2  0
 86 81  2  0
 86 85  1  0
 87 86  1  0
 89 90  1  0
 90 93  1  0
 90 92  1  0
 91 89  2  0
 94 95  1  0
 94 69  1  0
 96 94  1  0
M  ISO  4  14 101  15 101  59 100  67 100
M  END
>  <TORSDO>  (85) 
F 23

>  <SCORE>  (85) 
-12.865

>  <name>  (85) 
86

>  <ligand_id>  (85) 
86

>  <original_smiles>  (85) 
[H]c1c([H])c([H])c2c(c1[H])C([H])([H])C([H])([H])C([H])([H])C2([H])N([H])C(=O)C1([H])N(C(=O)C([H])(N([H])C(=O)C([H])(N([H])C([H])([H])[H])C([H])([H])[H])C(C([H])([H])[H])(C([H])([H])[H])C([H])([H])[H])C([H])([H])c2c([H])c(OC([H])([H])C([H])(C([H])([H])[H])C([H])([H])C(c3c([H])c([H])c(C([H])([H])C([H])([H])C([H])([H])N([H])C(=O)N4C([H])([H])C([H])([H])C([H])([H])C([H])(n5nc(-c6c([H])c([H])c(Oc7c([H])c([H])c(F)c([H])c7F)c([H])c6[H])c(C(=O)N([H])[H])c5N([H])[H])C4([H])[H])c([H])c3F)(C([H])([H])[H])C([H])([H])[H])c([H])c([H])c2C1([H])[H]

>  <smiles>  (85) 
[H]c1c([H])c([H])c2c(c1[H])C([H])([H])C([H])([H])C([H])([H])C2([H])N([H])C(=O)C1([H])N(C(=O)C([H])(N([H])C(=O)C([H])(N([H])C([H])([H])[H])C([H])([H])[H])C(C([H])([H])[H])(C([H])([H])[H])C([H])([H])[H])C([H])([H])c2c([H])c(OC([H])([H])C([H])(C([H])([H])[H])C([H])([H])C(c3c([H])c([H])c(C([H])([H])C([H])([H])C([H])([H])N([H])C(=O)N4C([H])([H])C([H])([H])C([H])([H])C([H])(n5nc(-c6c([H])c([H])c(Oc7c([H])c([H])c(F)c([H])c7F)c([H])c6[H])c(C(=O)N([H])[H])c5N([H])[H])C4([H])[H])c([H])c3F)(C([H])([H])[H])C([H])([H])[H])c([H])c([H])c2C1([H])[H]

$$$$
87:0:0
     RDKit          3D

 96104  0  0  1  0  0  0  0  0999 V2000
  -28.2850  -19.9620   21.1340 C   0  0  0  0  0  3  0  0  0  0  0  0
  -27.3270  -20.0790   20.1240 C   0  0  0  0  0  3  0  0  0  0  0  0
  -28.8450  -22.3370   20.8170 C   0  0  0  0  0  3  0  0  0  0  0  0
  -29.0450  -21.0910   21.4990 C   0  0  0  0  0  0  0  0  0  0  0  0
  -27.8890  -22.4640   19.7490 C   0  0  0  0  0  0  0  0  0  0  0  0
  -27.1000  -21.3060   19.4650 C   0  0  0  0  0  0  0  0  0  0  0  0
  -25.9480  -21.3390   18.4630 C   0  0  0  0  0  1  0  0  0  0  0  0
  -27.8740  -23.6840   18.8150 C   0  0  0  0  0  0  0  0  0  0  0  0
  -28.3210  -23.5830   17.6810 O   0  0  0  0  0  0  0  0  0  0  0  0
  -27.2940  -25.0670   19.2790 C   0  0  0  0  0  2  0  0  0  0  0  0
  -27.3450  -26.1480   18.2520 O   0  0  0  0  0  0  0  0  0  0  0  0
  -24.6920  -31.0140   22.7550 C   0  0  0  0  0  0  0  0  0  0  0  0
  -26.3660  -27.1080   18.4680 C   0  0  0  0  0  0  0  0  0  0  0  0
  -23.1170  -30.0280   21.1200 C   0  0  0  0  0  3  0  0  0  0  0  0
  -24.1830  -28.7810   19.1620 C   0  0  0  0  0  0  0  0  0  0  0  0
  -25.5930  -30.3200   20.5280 C   0  0  0  0  0  2  0  0  0  0  0  0
  -25.4590  -29.0970   19.6240 C   0  0  0  0  0  0  0  0  0  0  0  0
  -26.5610  -28.2570   19.2900 C   0  0  0  0  0  3  0  0  0  0  0  0
  -25.0760  -26.8780   17.9430 C   0  0  0  0  0  3  0  0  0  0  0  0
  -23.9910  -27.6950   18.2940 C   0  0  0  0  0  3  0  0  0  0  0  0
  -23.0340  -29.6670   19.6120 C   0  0  0  0  0  2  0  0  0  0  0  0
  -24.4950  -30.4610   21.5220 N   0  0  0  0  0  0  0  0  0  0  0  0
  -23.7480  -31.1960   23.5330 O   0  0  0  0  0  0  0  0  0  0  0  0
  -22.5850  -28.8450   21.9620 C   0  0  0  0  0  0  0  0  0  0  0  0
  -21.2590  -28.6310   21.9350 N   0  0  0  0  0  0  0  0  0  0  0  0
  -23.3550  -28.1300   22.6120 O   0  0  0  0  0  0  0  0  0  0  0  0
  -20.6850  -29.2690   21.4000 H   0  0  0  0  0  0  0  0  0  0  0  0
  -18.0020  -27.1020   22.3610 C   0  0  0  0  0  0  0  0  0  0  0  0
  -20.5390  -27.5490   22.6170 C   0  0  0  0  0  3  0  0  0  0  0  0
  -20.7420  -26.1950   21.8960 C   0  0  0  0  0  2  0  0  0  0  0  0
  -19.6460  -25.8830   20.8730 C   0  0  0  0  0  2  0  0  0  0  0  0
  -18.2740  -25.8470   21.5490 C   0  0  0  0  0  2  0  0  0  0  0  0
  -19.0640  -27.9090   22.8510 C   0  0  0  0  0  0  0  0  0  0  0  0
  -18.7540  -29.0860   23.5690 C   0  0  0  0  0  3  0  0  0  0  0  0
  -17.4170  -29.4550   23.8030 C   0  0  0  0  0  3  0  0  0  0  0  0
  -16.3710  -28.6450   23.3300 C   0  0  0  0  0  3  0  0  0  0  0  0
  -16.6640  -27.4700   22.6140 C   0  0  0  0  0  3  0  0  0  0  0  0
  -26.1090  -31.4650   23.2290 C   0  0  0  0  0  3  0  0  0  0  0  0
  -25.9600  -32.7730   23.8870 N   0  0  0  0  0  0  0  0  0  0  0  0
  -26.3320  -33.9420   23.3490 C   0  0  0  0  0  0  0  0  0  0  0  0
  -26.9140  -34.0230   22.2650 O   0  0  0  0  0  0  0  0  0  0  0  0
  -25.4460  -32.7830   24.7540 H   0  0  0  0  0  0  0  0  0  0  0  0
  -24.8250  -35.9500   23.5020 C   0  0  0  0  0  1  0  0  0  0  0  0
  -26.0130  -35.2200   24.1470 C   0  0  0  0  0  3  0  0  0  0  0  0
  -28.2420  -35.6380   25.0910 C   0  0  0  0  0  1  0  0  0  0  0  0
  -27.1580  -36.1490   24.2560 N   0  0  0  0  0  0  0  0  0  0  0  0
  -26.8600  -37.0440   24.6330 H   0  0  0  0  0  0  0  0  0  0  0  0
  -26.7980  -30.4280   24.2000 C   0  0  1  0  0  0  0  0  0  0  0  0
  -25.9110  -30.0090   25.3930 C   0  0  0  0  0  1  0  0  0  0  0  0
  -27.1970  -29.1470   23.4320 C   0  0  0  0  0  1  0  0  0  0  0  0
  -28.1020  -31.0320   24.7710 C   0  0  0  0  0  1  0  0  0  0  0  0
  -29.9950  -20.9410   22.6300 C   0  0  0  0  0  0  0  0  0  0  0  0
  -29.8340  -21.5160   23.7120 O   0  0  0  0  0  0  0  0  0  0  0  0
  -31.1940  -19.9640   22.4580 C   0  0  0  0  0  2  0  0  0  0  0  0
  -31.0320  -18.6050   23.2020 C   0  0  0  0  0  2  0  0  0  0  0  0
  -31.8890  -17.3930   22.6970 C   0  0  0  0  0  2  0  0  0  0  0  0
  -31.2650  -16.5660   21.5450 C   0  0  0  0  0  2  0  0  0  0  0  0
  -31.5420  -15.0350   21.6110 C   0  0  0  0  0  2  0  0  0  0  0  0
  -31.7980  -13.6160   19.4110 C   0  0  0  0  0  0  0  0  0  0  0  0
  -31.0990  -11.3470   18.7790 C   0  0  0  0  0  2  0  0  0  0  0  0
  -29.9980  -11.2980   17.7020 C   0  0  0  0  0  2  0  0  0  0  0  0
  -28.5940  -11.3890   18.3230 C   0  0  0  0  0  2  0  0  0  0  0  0
  -28.4740  -12.5690   19.3190 C   0  0  0  0  0  3  0  0  0  0  0  0
  -29.6480  -12.5600   20.3280 C   0  0  0  0  0  2  0  0  0  0  0  0
  -30.9540  -12.5570   19.6170 N   0  0  0  0  0  0  0  0  0  0  0  0
  -32.5430  -13.6650   18.4270 O   0  0  0  0  0  0  0  0  0  0  0  0
  -32.0700  -14.5400   20.3410 N   0  0  0  0  0  0  0  0  0  0  0  0
  -32.8350  -15.1140   20.0210 H   0  0  0  0  0  0  0  0  0  0  0  0
  -26.4100  -13.6130   20.4760 C   0  0  0  0  0  0  0  0  0  0  0  0
  -25.2510  -13.0560   20.9460 C   0  0  0  0  0  0  0  0  0  0  0  0
  -25.3640  -11.6450   20.7470 C   0  0  0  0  0  0  0  0  0  0  0  0
  -27.1660  -12.5570   19.9850 N   0  0  0  0  0  0  0  0  0  0  0  0
  -26.5390  -11.3650   20.1930 N   0  0  0  0  0  0  0  0  0  0  0  0
  -24.4040  -10.5610   20.9750 C   0  0  0  0  0  0  0  0  0  0  0  0
  -24.7460   -9.4090   21.7110 C   0  0  0  0  0  3  0  0  0  0  0  0
  -23.7850   -8.3890   21.9190 C   0  0  0  0  0  3  0  0  0  0  0  0
  -22.4810   -8.5280   21.3920 C   0  0  0  0  0  0  0  0  0  0  0  0
  -22.1690   -9.6660   20.6290 C   0  0  0  0  0  3  0  0  0  0  0  0
  -23.1190  -10.6700   20.4190 C   0  0  0  0  0  3  0  0  0  0  0  0
  -21.5080   -7.5690   21.5070 O   0  0  0  0  0  0  0  0  0  0  0  0
  -21.4490   -6.7250   22.5910 C   0  0  0  0  0  0  0  0  0  0  0  0
  -21.4280   -7.2140   23.9120 C   0  0  0  0  0  3  0  0  0  0  0  0
  -21.3030   -6.3180   24.9920 C   0  0  0  0  0  3  0  0  0  0  0  0
  -21.1940   -4.9340   24.7530 C   0  0  0  0  0  0  0  0  0  0  0  0
  -21.2110   -4.4470   23.4340 C   0  0  0  0  0  3  0  0  0  0  0  0
  -21.3300   -5.3410   22.3550 C   0  0  0  0  0  0  0  0  0  0  0  0
  -21.3190   -4.8700   21.0860 F   0  0  0  0  0  0  0  0  0  0  0  0
  -21.0610   -4.0730   25.7860 F   0  0  0  0  0  0  0  0  0  0  0  0
  -24.0770  -13.7950   21.5020 C   0  0  0  0  0  0  0  0  0  0  0  0
  -23.3980  -13.2160   22.4930 N   0  0  0  0  0  0  0  0  0  0  0  0
  -23.7860  -14.9190   21.1040 O   0  0  0  0  0  0  0  0  0  0  0  0
  -23.6690  -12.3070   22.8370 H   0  0  0  0  0  0  0  0  0  0  0  0
  -22.6090  -13.6930   22.9100 H   0  0  0  0  0  0  0  0  0  0  0  0
  -26.8600  -14.9300   20.3880 N   0  0  0  0  0  0  0  0  0  0  0  0
  -26.2590  -15.6950   20.6500 H   0  0  0  0  0  0  0  0  0  0  0  0
  -27.6840  -15.2430   19.8900 H   0  0  0  0  0  0  0  0  0  0  0  0
  1  4  1  0
  2  1  2  0
  3  4  2  0
  4 52  1  0
  5  3  1  0
  6  5  2  0
  6  2  1  0
  7  6  1  0
  8 10  1  0
  8  5  1  0
  9  8  2  0
 11 13  1  0
 11 10  1  0
 12 23  2  0
 13 18  1  0
 14 22  1  0
 14 24  1  0
 15 21  1  0
 15 17  1  0
 16 22  1  0
 17 16  1  0
 18 17  2  0
 19 20  1  0
 19 13  2  0
 20 15  2  0
 21 14  1  0
 22 12  1  0
 24 26  2  0
 25 24  1  0
 27 25  1  0
 28 37  2  0
 28 33  1  0
 29 25  1  0
 29 33  1  0
 30 29  1  0
 31 32  1  0
 31 30  1  0
 32 28  1  0
 33 34  2  0
 34 35  1  0
 36 35  2  0
 37 36  1  0
 38 12  1  0
 38 39  1  0
 38 48  1  0
 39 42  1  0
 40 39  1  0
 40 44  1  0
 41 40  2  0
 44 43  1  0
 44 46  1  0
 46 47  1  0
 46 45  1  0
 48 51  1  1
 48 49  1  0
 50 48  1  0
 52 53  2  0
 54 52  1  0
 54 55  1  0
 56 55  1  0
 57 58  1  0
 57 56  1  0
 59 65  1  0
 59 67  1  0
 60 65  1  0
 61 62  1  0
 61 60  1  0
 63 62  1  0
 63 72  1  0
 63 64  1  0
 65 64  1  0
 66 59  2  0
 67 58  1  0
 68 67  1  0
 69 70  2  0
 70 89  1  0
 71 70  1  0
 71 74  1  0
 72 73  1  0
 72 69  1  0
 73 71  2  0
 74 75  1  0
 75 76  2  0
 77 80  1  0
 77 76  1  0
 78 77  2  0
 79 78  1  0
 79 74  2  0
 80 81  1  0
 81 82  1  0
 82 83  2  0
 84 83  1  0
 84 88  1  0
 85 84  2  0
 86 81  2  0
 86 85  1  0
 87 86  1  0
 89 90  1  0
 90 92  1  0
 90 93  1  0
 91 89  2  0
 94 69  1  0
 94 95  1  0
 96 94  1  0
M  ISO  4  10 101  11 101  59 100  67 100
M  END
>  <TORSDO>  (86) 
F 24

>  <SCORE>  (86) 
-6.976

>  <name>  (86) 
87

>  <ligand_id>  (86) 
87

>  <original_smiles>  (86) 
[H]c1c([H])c([H])c2c(c1[H])C([H])([H])C([H])([H])C([H])([H])C2([H])N([H])C(=O)C1([H])N(C(=O)C([H])(N([H])C(=O)C([H])(N([H])C([H])([H])[H])C([H])([H])[H])C(C([H])([H])[H])(C([H])([H])[H])C([H])([H])[H])C([H])([H])c2c([H])c(OC([H])([H])C(=O)c3c([H])c(C(=O)C([H])([H])C([H])([H])C([H])([H])C([H])([H])C([H])([H])N([H])C(=O)N4C([H])([H])C([H])([H])C([H])([H])C([H])(n5nc(-c6c([H])c([H])c(Oc7c([H])c([H])c(F)c([H])c7F)c([H])c6[H])c(C(=O)N([H])[H])c5N([H])[H])C4([H])[H])c([H])c([H])c3C([H])([H])[H])c([H])c([H])c2C1([H])[H]

>  <smiles>  (86) 
[H]c1c([H])c([H])c2c(c1[H])C([H])([H])C([H])([H])C([H])([H])C2([H])N([H])C(=O)C1([H])N(C(=O)C([H])(N([H])C(=O)C([H])(N([H])C([H])([H])[H])C([H])([H])[H])C(C([H])([H])[H])(C([H])([H])[H])C([H])([H])[H])C([H])([H])c2c([H])c(OC([H])([H])C(=O)c3c([H])c(C(=O)C([H])([H])C([H])([H])C([H])([H])C([H])([H])C([H])([H])N([H])C(=O)N4C([H])([H])C([H])([H])C([H])([H])C([H])(n5nc(-c6c([H])c([H])c(Oc7c([H])c([H])c(F)c([H])c7F)c([H])c6[H])c(C(=O)N([H])[H])c5N([H])[H])C4([H])[H])c([H])c([H])c3C([H])([H])[H])c([H])c([H])c2C1([H])[H]

$$$$
88:0:0
     RDKit          3D

 96104  0  0  1  0  0  0  0  0999 V2000
  -32.5520  -19.3910   21.3880 C   0  0  0  0  0  3  0  0  0  0  0  0
  -31.5990  -18.3880   21.6100 C   0  0  0  0  0  3  0  0  0  0  0  0
  -32.2530  -20.4250   20.4980 C   0  0  0  0  0  3  0  0  0  0  0  0
  -30.3220  -18.4050   20.9870 C   0  0  0  0  0  0  0  0  0  0  0  0
  -29.9140  -19.6630   20.3860 C   0  0  0  0  0  0  0  0  0  0  0  0
  -30.9510  -20.5480   19.9750 C   0  0  0  0  0  0  0  0  0  0  0  0
  -31.6320  -21.7540   18.0380 C   0  0  0  0  0  1  0  0  0  0  0  0
  -30.6780  -21.5430   19.0690 O   0  0  0  0  0  0  0  0  0  0  0  0
  -30.6120  -16.0860   20.2890 C   0  0  0  0  0  3  0  0  0  0  0  0
  -29.7560  -16.9880   20.8620 C   0  0  0  0  0  0  0  0  0  0  0  0
  -30.9020  -14.6400   20.0840 C   0  0  0  0  0  0  0  0  0  0  0  0
  -30.3890  -12.4290   19.1560 C   0  0  0  0  0  2  0  0  0  0  0  0
  -29.4660  -12.5660   17.9360 C   0  0  0  0  0  2  0  0  0  0  0  0
  -28.0090  -12.4320   18.4020 C   0  0  0  0  0  2  0  0  0  0  0  0
  -27.6830  -13.3430   19.6200 C   0  0  0  0  0  3  0  0  0  0  0  0
  -28.7730  -13.3140   20.7140 C   0  0  0  0  0  2  0  0  0  0  0  0
  -30.0670  -13.5520   20.0770 N   0  0  0  0  0  0  0  0  0  0  0  0
  -32.0520  -14.4710   19.6910 O   0  0  0  0  0  0  0  0  0  0  0  0
  -25.3370  -13.9150   20.4730 C   0  0  0  0  0  0  0  0  0  0  0  0
  -24.2820  -13.1360   20.8610 C   0  0  0  0  0  0  0  0  0  0  0  0
  -24.7360  -11.7840   20.7800 C   0  0  0  0  0  0  0  0  0  0  0  0
  -26.3650  -13.0400   20.1680 N   0  0  0  0  0  0  0  0  0  0  0  0
  -26.0120  -11.7500   20.4180 N   0  0  0  0  0  0  0  0  0  0  0  0
  -24.0100  -10.5210   20.9720 C   0  0  0  0  0  0  0  0  0  0  0  0
  -24.4490   -9.5450   21.8920 C   0  0  0  0  0  3  0  0  0  0  0  0
  -23.7210   -8.3490   22.0720 C   0  0  0  0  0  3  0  0  0  0  0  0
  -22.5370   -8.1200   21.3310 C   0  0  0  0  0  0  0  0  0  0  0  0
  -22.1160   -9.0840   20.3970 C   0  0  0  0  0  3  0  0  0  0  0  0
  -22.8460  -10.2710   20.2160 C   0  0  0  0  0  3  0  0  0  0  0  0
  -21.7780   -6.9760   21.4160 O   0  0  0  0  0  0  0  0  0  0  0  0
  -21.7120   -6.2460   22.5750 C   0  0  0  0  0  0  0  0  0  0  0  0
  -21.2530   -6.8070   23.7870 C   0  0  0  0  0  3  0  0  0  0  0  0
  -21.1330   -6.0010   24.9360 C   0  0  0  0  0  3  0  0  0  0  0  0
  -21.4630   -4.6330   24.8740 C   0  0  0  0  0  0  0  0  0  0  0  0
  -21.9190   -4.0730   23.6680 C   0  0  0  0  0  3  0  0  0  0  0  0
  -22.0400   -4.8770   22.5220 C   0  0  0  0  0  0  0  0  0  0  0  0
  -22.4580   -4.3270   21.3570 F   0  0  0  0  0  0  0  0  0  0  0  0
  -21.3450   -3.8550   25.9760 F   0  0  0  0  0  0  0  0  0  0  0  0
  -22.9000  -13.6170   21.1970 C   0  0  0  0  0  0  0  0  0  0  0  0
  -22.1990  -12.9080   22.0740 N   0  0  0  0  0  0  0  0  0  0  0  0
  -22.4520  -14.6590   20.7180 O   0  0  0  0  0  0  0  0  0  0  0  0
  -22.5780  -12.0710   22.4920 H   0  0  0  0  0  0  0  0  0  0  0  0
  -21.2730  -13.2150   22.3390 H   0  0  0  0  0  0  0  0  0  0  0  0
  -25.5080  -15.2890   20.3310 N   0  0  0  0  0  0  0  0  0  0  0  0
  -24.7660  -15.9500   20.5280 H   0  0  0  0  0  0  0  0  0  0  0  0
  -26.3870  -15.7340   20.1000 H   0  0  0  0  0  0  0  0  0  0  0  0
  -28.5800  -16.7120   21.4370 O   0  0  0  0  0  0  0  0  0  0  0  0
  -28.3070  -17.4840   21.9170 H   0  0  0  0  0  0  0  0  0  0  0  0
  -28.4400  -20.1370   20.2390 C   0  0  0  0  0  2  0  0  0  0  0  0
  -28.1160  -21.6950   20.0390 C   0  0  0  0  0  2  0  0  0  0  0  0
  -28.6840  -22.6620   21.0510 N   0  0  0  0  0  4  0  0  0  0  0  0
  -29.5370  -22.2220   21.3600 H   0  0  0  0  0  0  0  0  0  0  0  0
  -28.0820  -22.7020   21.8600 H   0  0  0  0  0  0  0  0  0  0  0  0
  -29.0940  -24.0640   20.6310 C   0  0  0  0  0  3  0  0  0  0  0  0
  -27.9680  -25.1450   20.5300 C   0  0  0  0  0  3  0  0  0  0  0  0
  -28.3470  -26.5630   20.3410 O   0  0  0  0  0  0  0  0  0  0  0  0
  -24.6000  -31.9250   23.3070 C   0  0  0  0  0  0  0  0  0  0  0  0
  -27.2650  -27.4360   20.2450 C   0  0  0  0  0  0  0  0  0  0  0  0
  -23.4270  -30.5270   21.6490 C   0  0  0  0  0  3  0  0  0  0  0  0
  -24.9040  -29.0210   20.2150 C   0  0  0  0  0  0  0  0  0  0  0  0
  -25.9640  -30.8840   21.4900 C   0  0  0  0  0  2  0  0  0  0  0  0
  -26.0620  -29.5150   20.8310 C   0  0  0  0  0  0  0  0  0  0  0  0
  -27.2500  -28.7300   20.8430 C   0  0  0  0  0  3  0  0  0  0  0  0
  -26.0990  -27.0150   19.5660 C   0  0  0  0  0  3  0  0  0  0  0  0
  -24.9250  -27.7770   19.5750 C   0  0  0  0  0  3  0  0  0  0  0  0
  -23.6580  -29.8770   20.2610 C   0  0  0  0  0  2  0  0  0  0  0  0
  -24.6810  -31.1250   22.2060 N   0  0  0  0  0  0  0  0  0  0  0  0
  -23.5090  -32.1850   23.8330 O   0  0  0  0  0  0  0  0  0  0  0  0
  -22.7730  -29.4870   22.5910 C   0  0  0  0  0  0  0  0  0  0  0  0
  -21.4500  -29.2960   22.4520 N   0  0  0  0  0  0  0  0  0  0  0  0
  -23.4530  -28.8570   23.4050 O   0  0  0  0  0  0  0  0  0  0  0  0
  -20.9670  -29.8540   21.7630 H   0  0  0  0  0  0  0  0  0  0  0  0
  -18.0750  -28.0900   22.9300 C   0  0  0  0  0  0  0  0  0  0  0  0
  -20.6320  -28.3490   23.2080 C   0  0  0  0  0  3  0  0  0  0  0  0
  -20.7410  -26.9260   22.6130 C   0  0  0  0  0  2  0  0  0  0  0  0
  -19.6400  -26.6150   21.5960 C   0  0  0  0  0  2  0  0  0  0  0  0
  -18.2560  -26.7490   22.2380 C   0  0  0  0  0  2  0  0  0  0  0  0
  -19.1920  -28.8480   23.3700 C   0  0  0  0  0  0  0  0  0  0  0  0
  -18.9720  -30.1030   23.9770 C   0  0  0  0  0  3  0  0  0  0  0  0
  -17.6660  -30.6000   24.1510 C   0  0  0  0  0  3  0  0  0  0  0  0
  -16.5620  -29.8380   23.7270 C   0  0  0  0  0  3  0  0  0  0  0  0
  -16.7680  -28.5860   23.1200 C   0  0  0  0  0  3  0  0  0  0  0  0
  -25.8690  -32.5690   23.9430 C   0  0  0  0  0  3  0  0  0  0  0  0
  -25.5580  -33.9750   24.2340 N   0  0  0  0  0  0  0  0  0  0  0  0
  -25.9040  -35.0100   23.4550 C   0  0  0  0  0  0  0  0  0  0  0  0
  -26.5950  -34.8790   22.4400 O   0  0  0  0  0  0  0  0  0  0  0  0
  -24.9580  -34.1490   25.0270 H   0  0  0  0  0  0  0  0  0  0  0  0
  -24.1900  -36.7920   23.0180 C   0  0  0  0  0  1  0  0  0  0  0  0
  -25.4100  -36.4070   23.8690 C   0  0  0  0  0  3  0  0  0  0  0  0
  -27.5210  -37.3090   24.7350 C   0  0  0  0  0  1  0  0  0  0  0  0
  -26.4450  -37.4580   23.7560 N   0  0  0  0  0  0  0  0  0  0  0  0
  -26.0390  -38.3810   23.8710 H   0  0  0  0  0  0  0  0  0  0  0  0
  -26.3540  -31.8240   25.2470 C   0  0  1  0  0  0  0  0  0  0  0  0
  -25.2340  -31.6050   26.2890 C   0  0  0  0  0  1  0  0  0  0  0  0
  -26.9480  -30.4410   24.8950 C   0  0  0  0  0  1  0  0  0  0  0  0
  -27.4860  -32.6330   25.9210 C   0  0  0  0  0  1  0  0  0  0  0  0
  1  2  1  0
  3  1  2  0
  4  2  2  0
  5  4  1  0
  6  5  2  0
  6  3  1  0
  7  8  1  0
  8  6  1  0
  9 10  2  0
 10  4  1  0
 10 47  1  0
 11  9  1  0
 12 17  1  0
 13 14  1  0
 13 12  1  0
 15 14  1  0
 15 22  1  0
 15 16  1  0
 17 11  1  0
 17 16  1  0
 18 11  2  0
 19 20  2  0
 20 39  1  0
 21 20  1  0
 21 24  1  0
 22 23  1  0
 22 19  1  0
 23 21  2  0
 24 25  1  0
 25 26  2  0
 27 30  1  0
 27 26  1  0
 28 27  2  0
 29 28  1  0
 29 24  2  0
 30 31  1  0
 31 32  1  0
 32 33  2  0
 34 33  1  0
 34 38  1  0
 35 34  2  0
 36 31  2  0
 36 35  1  0
 37 36  1  0
 39 40  1  0
 40 43  1  0
 40 42  1  0
 41 39  2  0
 44 19  1  0
 44 45  1  0
 46 44  1  0
 47 48  1  0
 49  5  1  0
 50 49  1  0
 50 51  1  0
 51 52  1  0
 51 53  1  0
 54 51  1  0
 55 54  2  0
 56 55  1  0
 57 68  2  0
 58 56  1  0
 58 63  1  0
 59 67  1  0
 59 69  1  0
 60 66  1  0
 60 62  1  0
 61 67  1  0
 62 63  2  0
 62 61  1  0
 64 65  1  0
 64 58  2  0
 65 60  2  0
 66 59  1  0
 67 57  1  0
 69 71  2  0
 70 69  1  0
 72 70  1  0
 73 82  2  0
 73 78  1  0
 74 70  1  0
 74 78  1  0
 75 74  1  0
 76 77  1  0
 76 75  1  0
 77 73  1  0
 78 79  2  0
 79 80  1  0
 81 80  2  0
 82 81  1  0
 83 57  1  0
 83 84  1  0
 83 93  1  0
 84 87  1  0
 85 89  1  0
 85 84  1  0
 86 85  2  0
 89 88  1  0
 91 89  1  0
 91 92  1  0
 91 90  1  0
 93 96  1  1
 93 94  1  0
 95 93  1  0
M  ISO  4   9 100  11 100  55 101  56 101
M  END
>  <TORSDO>  (87) 
F 24

>  <SCORE>  (87) 
-12.985

>  <name>  (87) 
88

>  <ligand_id>  (87) 
88

>  <original_smiles>  (87) 
[H]OC(=C([H])C(=O)N1C([H])([H])C([H])([H])C([H])([H])C([H])(n2nc(-c3c([H])c([H])c(Oc4c([H])c([H])c(F)c([H])c4F)c([H])c3[H])c(C(=O)N([H])[H])c2N([H])[H])C1([H])[H])c1c([H])c([H])c([H])c(OC([H])([H])[H])c1C([H])([H])C([H])([H])[N+]([H])([H])C([H])([H])C([H])([H])Oc1c([H])c([H])c2c(c1[H])C([H])([H])N(C(=O)C([H])(N([H])C(=O)C([H])(N([H])C([H])([H])[H])C([H])([H])[H])C(C([H])([H])[H])(C([H])([H])[H])C([H])([H])[H])C([H])(C(=O)N([H])C1([H])c3c([H])c([H])c([H])c([H])c3C([H])([H])C([H])([H])C1([H])[H])C2([H])[H]

>  <smiles>  (87) 
[H]OC(=C([H])C(=O)N1C([H])([H])C([H])([H])C([H])([H])C([H])(n2nc(-c3c([H])c([H])c(Oc4c([H])c([H])c(F)c([H])c4F)c([H])c3[H])c(C(=O)N([H])[H])c2N([H])[H])C1([H])[H])c1c([H])c([H])c([H])c(OC([H])([H])[H])c1C([H])([H])C([H])([H])[N+]([H])([H])C([H])([H])C([H])([H])Oc1c([H])c([H])c2c(c1[H])C([H])([H])N(C(=O)C([H])(N([H])C(=O)C([H])(N([H])C([H])([H])[H])C([H])([H])[H])C(C([H])([H])[H])(C([H])([H])[H])C([H])([H])[H])C([H])(C(=O)N([H])C1([H])c3c([H])c([H])c([H])c([H])c3C([H])([H])C([H])([H])C1([H])[H])C2([H])[H]

$$$$
89:0:0
     RDKit          3D

100108  0  0  1  0  0  0  0  0999 V2000
  -28.6810  -21.3070   19.3710 C   0  0  0  0  0  3  0  0  0  0  0  0
  -28.8410  -22.5690   19.9610 C   0  0  0  0  0  3  0  0  0  0  0  0
  -26.2670  -21.6020   19.4030 C   0  0  0  0  0  3  0  0  0  0  0  0
  -27.3920  -20.8020   19.1090 C   0  0  0  0  0  0  0  0  0  0  0  0
  -27.7220  -23.3790   20.2530 C   0  0  0  0  0  0  0  0  0  0  0  0
  -26.4190  -22.8940   19.9570 C   0  0  0  0  0  0  0  0  0  0  0  0
  -25.1560  -23.7230   20.1760 C   0  0  0  0  0  1  0  0  0  0  0  0
  -27.2650  -19.5390   16.9440 C   0  0  0  0  0  1  0  0  0  0  0  0
  -27.2090  -19.4300   18.4730 C   0  0  0  0  0  3  0  0  0  0  0  0
  -28.2120  -18.4470   18.9220 N   0  0  0  0  0  4  0  0  0  0  0  0
  -27.8690  -17.5430   18.6350 H   0  0  0  0  0  0  0  0  0  0  0  0
  -29.0700  -18.6140   18.4260 H   0  0  0  0  0  0  0  0  0  0  0  0
  -28.5200  -18.3350   20.3660 C   0  0  0  0  0  2  0  0  0  0  0  0
  -29.1710  -16.9610   20.5880 C   0  0  0  0  0  2  0  0  0  0  0  0
  -30.4250  -16.8650   21.4750 C   0  0  0  0  0  2  0  0  0  0  0  0
  -31.1610  -14.6970   20.5690 C   0  0  0  0  0  0  0  0  0  0  0  0
  -30.8350  -12.5390   19.4170 C   0  0  0  0  0  2  0  0  0  0  0  0
  -29.9420  -12.7070   18.1770 C   0  0  0  0  0  2  0  0  0  0  0  0
  -28.4560  -12.5640   18.5640 C   0  0  0  0  0  2  0  0  0  0  0  0
  -28.0700  -13.4770   19.7530 C   0  0  0  0  0  3  0  0  0  0  0  0
  -29.0810  -13.3230   20.9160 C   0  0  0  0  0  2  0  0  0  0  0  0
  -30.4570  -13.5500   20.4130 N   0  0  0  0  0  0  0  0  0  0  0  0
  -32.0920  -15.0510   19.8390 O   0  0  0  0  0  0  0  0  0  0  0  0
  -30.7480  -15.4420   21.6030 N   0  0  0  0  0  0  0  0  0  0  0  0
  -30.1920  -14.9340   22.2760 H   0  0  0  0  0  0  0  0  0  0  0  0
  -25.6720  -14.1290   20.4580 C   0  0  0  0  0  0  0  0  0  0  0  0
  -24.5850  -13.3800   20.8100 C   0  0  0  0  0  0  0  0  0  0  0  0
  -24.9990  -12.0160   20.7100 C   0  0  0  0  0  0  0  0  0  0  0  0
  -26.6970  -13.2310   20.1980 N   0  0  0  0  0  0  0  0  0  0  0  0
  -26.2880  -11.9520   20.3960 N   0  0  0  0  0  0  0  0  0  0  0  0
  -24.2310  -10.7730   20.8360 C   0  0  0  0  0  0  0  0  0  0  0  0
  -24.5880   -9.7850   21.7790 C   0  0  0  0  0  3  0  0  0  0  0  0
  -23.8290   -8.6040   21.9000 C   0  0  0  0  0  3  0  0  0  0  0  0
  -22.6980   -8.4010   21.0770 C   0  0  0  0  0  0  0  0  0  0  0  0
  -22.3570   -9.3770   20.1250 C   0  0  0  0  0  3  0  0  0  0  0  0
  -23.1160  -10.5520   20.0010 C   0  0  0  0  0  3  0  0  0  0  0  0
  -21.9170   -7.2710   21.1030 O   0  0  0  0  0  0  0  0  0  0  0  0
  -21.7180   -6.5600   22.2580 C   0  0  0  0  0  0  0  0  0  0  0  0
  -21.1380   -7.1510   23.4010 C   0  0  0  0  0  3  0  0  0  0  0  0
  -20.8780   -6.3700   24.5460 C   0  0  0  0  0  3  0  0  0  0  0  0
  -21.1920   -4.9990   24.5470 C   0  0  0  0  0  0  0  0  0  0  0  0
  -21.7680   -4.4070   23.4090 C   0  0  0  0  0  3  0  0  0  0  0  0
  -22.0250   -5.1870   22.2660 C   0  0  0  0  0  0  0  0  0  0  0  0
  -22.5570   -4.6060   21.1670 F   0  0  0  0  0  0  0  0  0  0  0  0
  -20.9400   -4.2470   25.6440 F   0  0  0  0  0  0  0  0  0  0  0  0
  -23.2030  -13.8850   21.1000 C   0  0  0  0  0  0  0  0  0  0  0  0
  -22.4590  -13.1910   21.9540 N   0  0  0  0  0  0  0  0  0  0  0  0
  -22.7930  -14.9360   20.6060 O   0  0  0  0  0  0  0  0  0  0  0  0
  -22.8020  -12.3370   22.3690 H   0  0  0  0  0  0  0  0  0  0  0  0
  -21.5340  -13.5260   22.1940 H   0  0  0  0  0  0  0  0  0  0  0  0
  -25.8640  -15.4960   20.2940 N   0  0  0  0  0  0  0  0  0  0  0  0
  -24.9700  -15.9720   20.2770 H   0  0  0  0  0  0  0  0  0  0  0  0
  -26.3750  -15.6700   19.4390 H   0  0  0  0  0  0  0  0  0  0  0  0
  -27.9810  -24.7660   20.8390 C   0  0  0  0  0  3  0  0  0  0  0  0
  -28.6980  -24.6250   22.1260 N   0  0  0  0  0  4  0  0  0  0  0  0
  -28.1580  -24.0520   22.7500 H   0  0  0  0  0  0  0  0  0  0  0  0
  -28.8420  -25.5250   22.5550 H   0  0  0  0  0  0  0  0  0  0  0  0
  -29.5950  -24.1850   22.0110 H   0  0  0  0  0  0  0  0  0  0  0  0
  -28.7590  -25.6630   19.8430 C   0  0  0  0  0  2  0  0  0  0  0  0
  -28.6970  -27.0420   20.2170 O   0  0  0  0  0  0  0  0  0  0  0  0
  -24.6390  -31.9150   23.3860 C   0  0  0  0  0  0  0  0  0  0  0  0
  -27.4840  -27.7020   20.1800 C   0  0  0  0  0  0  0  0  0  0  0  0
  -23.5210  -30.5840   21.6270 C   0  0  0  0  0  3  0  0  0  0  0  0
  -25.0540  -29.1500   20.1820 C   0  0  0  0  0  0  0  0  0  0  0  0
  -26.0430  -30.9960   21.5420 C   0  0  0  0  0  2  0  0  0  0  0  0
  -26.1770  -29.6640   20.8380 C   0  0  0  0  0  0  0  0  0  0  0  0
  -27.3900  -28.9470   20.8380 C   0  0  0  0  0  3  0  0  0  0  0  0
  -26.3370  -27.1940   19.5210 C   0  0  0  0  0  3  0  0  0  0  0  0
  -25.1280  -27.9120   19.5210 C   0  0  0  0  0  3  0  0  0  0  0  0
  -23.7930  -29.9820   20.2220 C   0  0  0  0  0  2  0  0  0  0  0  0
  -24.7520  -31.1750   22.2470 N   0  0  0  0  0  0  0  0  0  0  0  0
  -23.5360  -32.1410   23.8990 O   0  0  0  0  0  0  0  0  0  0  0  0
  -22.8600  -29.4960   22.5090 C   0  0  0  0  0  0  0  0  0  0  0  0
  -21.5390  -29.3180   22.3450 N   0  0  0  0  0  0  0  0  0  0  0  0
  -23.5300  -28.8160   23.2900 O   0  0  0  0  0  0  0  0  0  0  0  0
  -21.0600  -29.9180   21.6870 H   0  0  0  0  0  0  0  0  0  0  0  0
  -18.1480  -28.1360   22.7530 C   0  0  0  0  0  0  0  0  0  0  0  0
  -20.7110  -28.3250   23.0270 C   0  0  0  0  0  3  0  0  0  0  0  0
  -20.7890  -26.9540   22.3120 C   0  0  0  0  0  2  0  0  0  0  0  0
  -19.6670  -26.7400   21.2910 C   0  0  0  0  0  2  0  0  0  0  0  0
  -18.2940  -26.8500   21.9580 C   0  0  0  0  0  2  0  0  0  0  0  0
  -19.2850  -28.8370   23.2410 C   0  0  0  0  0  0  0  0  0  0  0  0
  -19.0910  -30.0470   23.9380 C   0  0  0  0  0  3  0  0  0  0  0  0
  -17.7980  -30.5590   24.1510 C   0  0  0  0  0  3  0  0  0  0  0  0
  -16.6770  -29.8500   23.6810 C   0  0  0  0  0  3  0  0  0  0  0  0
  -16.8540  -28.6380   22.9880 C   0  0  0  0  0  3  0  0  0  0  0  0
  -25.8880  -32.5320   24.0840 C   0  0  0  0  0  3  0  0  0  0  0  0
  -25.5560  -33.9200   24.4310 N   0  0  0  0  0  0  0  0  0  0  0  0
  -25.9250  -34.9920   23.7150 C   0  0  0  0  0  0  0  0  0  0  0  0
  -26.6450  -34.9170   22.7180 O   0  0  0  0  0  0  0  0  0  0  0  0
  -24.9210  -34.0510   25.2050 H   0  0  0  0  0  0  0  0  0  0  0  0
  -24.2050  -36.7830   23.3130 C   0  0  0  0  0  1  0  0  0  0  0  0
  -25.4050  -36.3670   24.1790 C   0  0  0  0  0  3  0  0  0  0  0  0
  -27.4870  -37.2440   25.1440 C   0  0  0  0  0  1  0  0  0  0  0  0
  -26.4370  -37.4250   24.1440 N   0  0  0  0  0  0  0  0  0  0  0  0
  -26.0220  -38.3420   24.2860 H   0  0  0  0  0  0  0  0  0  0  0  0
  -26.3470  -31.7280   25.3620 C   0  0  1  0  0  0  0  0  0  0  0  0
  -25.2000  -31.4350   26.3590 C   0  0  0  0  0  1  0  0  0  0  0  0
  -26.9710  -30.3720   24.9530 C   0  0  0  0  0  1  0  0  0  0  0  0
  -27.4510  -32.5140   26.1090 C   0  0  0  0  0  1  0  0  0  0  0  0
  1  2  1  0
  2  5  2  0
  3  6  2  0
  4  1  2  0
  4  3  1  0
  5 54  1  0
  6  7  1  0
  6  5  1  0
  9  8  1  0
  9 10  1  0
  9  4  1  0
 10 13  1  0
 11 10  1  0
 12 10  1  0
 13 14  1  0
 14 15  1  0
 15 24  1  0
 16 24  1  0
 17 22  1  0
 18 19  1  0
 18 17  1  0
 20 19  1  0
 20 29  1  0
 20 21  1  0
 22 16  1  0
 22 21  1  0
 23 16  2  0
 24 25  1  0
 26 27  2  0
 27 46  1  0
 28 27  1  0
 28 31  1  0
 29 30  1  0
 29 26  1  0
 30 28  2  0
 31 32  1  0
 32 33  2  0
 34 37  1  0
 34 33  1  0
 35 34  2  0
 36 35  1  0
 36 31  2  0
 37 38  1  0
 38 43  2  0
 38 39  1  0
 39 40  2  0
 40 41  1  0
 41 45  1  0
 42 41  2  0
 43 42  1  0
 44 43  1  0
 46 47  1  0
 47 50  1  0
 47 49  1  0
 48 46  2  0
 51 26  1  0
 52 51  1  0
 53 51  1  0
 54 59  1  0
 54 55  1  0
 55 57  1  0
 55 56  1  0
 58 55  1  0
 59 60  1  0
 61 72  2  0
 62 60  1  0
 62 67  1  0
 63 71  1  0
 63 73  1  0
 64 70  1  0
 64 66  1  0
 65 71  1  0
 66 67  2  0
 66 65  1  0
 68 62  2  0
 69 68  1  0
 69 64  2  0
 70 63  1  0
 71 61  1  0
 73 75  2  0
 74 73  1  0
 76 74  1  0
 77 86  2  0
 77 82  1  0
 78 74  1  0
 78 82  1  0
 79 78  1  0
 80 81  1  0
 80 79  1  0
 81 77  1  0
 82 83  2  0
 83 84  1  0
 85 84  2  0
 86 85  1  0
 87 61  1  0
 87 88  1  0
 87 97  1  0
 88 91  1  0
 89 93  1  0
 89 88  1  0
 90 89  2  0
 93 92  1  0
 95 93  1  0
 95 96  1  0
 95 94  1  0
 97100  1  1
 97 98  1  0
 99 97  1  0
M  ISO  4  16 100  24 100  59 101  60 101
M  END
>  <TORSDO>  (88) 
F 24

>  <SCORE>  (88) 
-12.195

>  <name>  (88) 
89

>  <ligand_id>  (88) 
89

>  <original_smiles>  (88) 
[H]c1c([H])c([H])c2c(c1[H])C([H])([H])C([H])([H])C([H])([H])C2([H])N([H])C(=O)C1([H])N(C(=O)C([H])(N([H])C(=O)C([H])(N([H])C([H])([H])[H])C([H])([H])[H])C(C([H])([H])[H])(C([H])([H])[H])C([H])([H])[H])C([H])([H])c2c([H])c(OC([H])([H])C([H])(c3c([H])c([H])c(C([H])(C([H])([H])[H])[N+]([H])([H])C([H])([H])C([H])([H])C([H])([H])N([H])C(=O)N4C([H])([H])C([H])([H])C([H])([H])C([H])(n5nc(-c6c([H])c([H])c(Oc7c([H])c([H])c(F)c([H])c7F)c([H])c6[H])c(C(=O)N([H])[H])c5N([H])[H])C4([H])[H])c([H])c3C([H])([H])[H])[N+]([H])([H])[H])c([H])c([H])c2C1([H])[H]

>  <smiles>  (88) 
[H]c1c([H])c([H])c2c(c1[H])C([H])([H])C([H])([H])C([H])([H])C2([H])N([H])C(=O)C1([H])N(C(=O)C([H])(N([H])C(=O)C([H])(N([H])C([H])([H])[H])C([H])([H])[H])C(C([H])([H])[H])(C([H])([H])[H])C([H])([H])[H])C([H])([H])c2c([H])c(OC([H])([H])C([H])(c3c([H])c([H])c(C([H])(C([H])([H])[H])[N+]([H])([H])C([H])([H])C([H])([H])C([H])([H])N([H])C(=O)N4C([H])([H])C([H])([H])C([H])([H])C([H])(n5nc(-c6c([H])c([H])c(Oc7c([H])c([H])c(F)c([H])c7F)c([H])c6[H])c(C(=O)N([H])[H])c5N([H])[H])C4([H])[H])c([H])c3C([H])([H])[H])[N+]([H])([H])[H])c([H])c([H])c2C1([H])[H]

$$$$
90:0:0
     RDKit          3D

 94102  0  0  1  0  0  0  0  0999 V2000
  -29.6540  -23.6160   21.7860 C   0  0  0  0  0  3  0  0  0  0  0  0
  -30.0680  -22.2980   21.4840 C   0  0  0  0  0  3  0  0  0  0  0  0
  -28.5180  -23.7580   19.6470 C   0  0  0  0  0  3  0  0  0  0  0  0
  -28.8900  -24.3650   20.8660 C   0  0  0  0  0  0  0  0  0  0  0  0
  -29.7220  -21.6940   20.2520 C   0  0  0  0  0  0  0  0  0  0  0  0
  -28.9330  -22.4410   19.3400 C   0  0  0  0  0  0  0  0  0  0  0  0
  -28.5800  -21.9060   18.1450 F   0  0  0  0  0  0  0  0  0  0  0  0
  -31.7920  -20.3510   19.7060 C   0  0  0  0  0  1  0  0  0  0  0  0
  -30.2600  -20.2970   19.8790 C   0  0  0  0  0  3  0  0  0  0  0  0
  -29.8850  -19.2450   20.8630 N   0  0  0  0  0  4  0  0  0  0  0  0
  -30.5150  -19.3050   21.6450 H   0  0  0  0  0  0  0  0  0  0  0  0
  -28.9640  -19.4600   21.2070 H   0  0  0  0  0  0  0  0  0  0  0  0
  -29.8560  -17.8380   20.3610 C   0  0  0  0  0  2  0  0  0  0  0  0
  -30.2300  -16.8140   21.4680 C   0  0  0  0  0  2  0  0  0  0  0  0
  -30.6140  -14.4820   20.5050 C   0  0  0  0  0  0  0  0  0  0  0  0
  -30.3320  -12.3400   19.2980 C   0  0  0  0  0  2  0  0  0  0  0  0
  -29.3720  -12.5610   18.1090 C   0  0  0  0  0  2  0  0  0  0  0  0
  -27.8960  -12.4300   18.5410 C   0  0  0  0  0  2  0  0  0  0  0  0
  -27.5770  -13.2360   19.8300 C   0  0  0  0  0  3  0  0  0  0  0  0
  -28.6410  -12.9720   20.9180 C   0  0  0  0  0  2  0  0  0  0  0  0
  -29.9620  -13.2980   20.3480 N   0  0  0  0  0  0  0  0  0  0  0  0
  -31.7130  -14.7280   20.0010 O   0  0  0  0  0  0  0  0  0  0  0  0
  -29.9000  -15.4170   21.1550 N   0  0  0  0  0  0  0  0  0  0  0  0
  -29.0090  -15.0930   21.5030 H   0  0  0  0  0  0  0  0  0  0  0  0
  -25.1890  -13.8470   20.5690 C   0  0  0  0  0  0  0  0  0  0  0  0
  -24.1240  -13.0750   20.9470 C   0  0  0  0  0  0  0  0  0  0  0  0
  -24.5820  -11.7230   20.9080 C   0  0  0  0  0  0  0  0  0  0  0  0
  -26.2290  -12.9640   20.3200 N   0  0  0  0  0  0  0  0  0  0  0  0
  -25.8680  -11.6820   20.5820 N   0  0  0  0  0  0  0  0  0  0  0  0
  -23.8580  -10.4630   21.1050 C   0  0  0  0  0  0  0  0  0  0  0  0
  -24.3230   -9.4800   22.0060 C   0  0  0  0  0  3  0  0  0  0  0  0
  -23.6010   -8.2790   22.1920 C   0  0  0  0  0  3  0  0  0  0  0  0
  -22.4010   -8.0560   21.4750 C   0  0  0  0  0  0  0  0  0  0  0  0
  -21.9550   -9.0280   20.5630 C   0  0  0  0  0  3  0  0  0  0  0  0
  -22.6760  -10.2190   20.3750 C   0  0  0  0  0  3  0  0  0  0  0  0
  -21.6460   -6.9110   21.5700 O   0  0  0  0  0  0  0  0  0  0  0  0
  -21.6570   -6.1340   22.7010 C   0  0  0  0  0  0  0  0  0  0  0  0
  -21.3260   -6.6580   23.9700 C   0  0  0  0  0  3  0  0  0  0  0  0
  -21.2840   -5.8070   25.0930 C   0  0  0  0  0  3  0  0  0  0  0  0
  -21.5590   -4.4350   24.9490 C   0  0  0  0  0  0  0  0  0  0  0  0
  -21.8830   -3.9110   23.6850 C   0  0  0  0  0  3  0  0  0  0  0  0
  -21.9290   -4.7580   22.5650 C   0  0  0  0  0  0  0  0  0  0  0  0
  -22.2200   -4.2430   21.3450 F   0  0  0  0  0  0  0  0  0  0  0  0
  -21.5100   -3.6160   26.0260 F   0  0  0  0  0  0  0  0  0  0  0  0
  -22.7300  -13.5510   21.2370 C   0  0  0  0  0  0  0  0  0  0  0  0
  -22.0160  -12.8540   22.1160 N   0  0  0  0  0  0  0  0  0  0  0  0
  -22.2840  -14.5760   20.7230 O   0  0  0  0  0  0  0  0  0  0  0  0
  -22.3910  -12.0240   22.5490 H   0  0  0  0  0  0  0  0  0  0  0  0
  -21.0810  -13.1510   22.3530 H   0  0  0  0  0  0  0  0  0  0  0  0
  -25.3520  -15.2200   20.3970 N   0  0  0  0  0  0  0  0  0  0  0  0
  -24.5790  -15.8670   20.5100 H   0  0  0  0  0  0  0  0  0  0  0  0
  -26.1900  -15.6640   20.0430 H   0  0  0  0  0  0  0  0  0  0  0  0
  -28.4300  -25.7800   21.2290 C   0  0  0  0  0  2  0  0  0  0  0  0
  -28.3680  -26.6930   20.1250 O   0  0  0  0  0  0  0  0  0  0  0  0
  -24.6070  -31.8960   23.2280 C   0  0  0  0  0  0  0  0  0  0  0  0
  -27.2310  -27.4630   20.1310 C   0  0  0  0  0  0  0  0  0  0  0  0
  -23.3890  -30.4890   21.5960 C   0  0  0  0  0  3  0  0  0  0  0  0
  -24.8360  -28.9500   20.1630 C   0  0  0  0  0  0  0  0  0  0  0  0
  -25.9130  -30.8520   21.3800 C   0  0  0  0  0  2  0  0  0  0  0  0
  -25.9960  -29.4820   20.7400 C   0  0  0  0  0  0  0  0  0  0  0  0
  -27.2010  -28.7440   20.7230 C   0  0  0  0  0  3  0  0  0  0  0  0
  -26.0600  -26.9420   19.5480 C   0  0  0  0  0  3  0  0  0  0  0  0
  -24.8610  -27.6770   19.5640 C   0  0  0  0  0  3  0  0  0  0  0  0
  -23.5910  -29.8070   20.2160 C   0  0  0  0  0  2  0  0  0  0  0  0
  -24.6540  -31.0940   22.1270 N   0  0  0  0  0  0  0  0  0  0  0  0
  -23.5300  -32.1700   23.7760 O   0  0  0  0  0  0  0  0  0  0  0  0
  -22.7450  -29.4700   22.5660 C   0  0  0  0  0  0  0  0  0  0  0  0
  -21.4180  -29.2900   22.4540 N   0  0  0  0  0  0  0  0  0  0  0  0
  -23.4360  -28.8450   23.3740 O   0  0  0  0  0  0  0  0  0  0  0  0
  -20.9190  -29.8580   21.7840 H   0  0  0  0  0  0  0  0  0  0  0  0
  -18.0510  -28.0870   22.9720 C   0  0  0  0  0  0  0  0  0  0  0  0
  -20.6090  -28.3520   23.2320 C   0  0  0  0  0  3  0  0  0  0  0  0
  -20.7100  -26.9180   22.6630 C   0  0  0  0  0  2  0  0  0  0  0  0
  -19.6070  -26.5880   21.6540 C   0  0  0  0  0  2  0  0  0  0  0  0
  -18.2280  -26.7330   22.3030 C   0  0  0  0  0  2  0  0  0  0  0  0
  -19.1710  -28.8530   23.3930 C   0  0  0  0  0  0  0  0  0  0  0  0
  -18.9530  -30.1190   23.9780 C   0  0  0  0  0  3  0  0  0  0  0  0
  -17.6470  -30.6200   24.1460 C   0  0  0  0  0  3  0  0  0  0  0  0
  -16.5430  -29.8500   23.7410 C   0  0  0  0  0  3  0  0  0  0  0  0
  -16.7450  -28.5860   23.1600 C   0  0  0  0  0  3  0  0  0  0  0  0
  -25.8990  -32.5270   23.8360 C   0  0  0  0  0  3  0  0  0  0  0  0
  -25.5900  -33.9220   24.1790 N   0  0  0  0  0  0  0  0  0  0  0  0
  -25.9100  -34.9800   23.4210 C   0  0  0  0  0  0  0  0  0  0  0  0
  -26.5670  -34.8850   22.3810 O   0  0  0  0  0  0  0  0  0  0  0  0
  -25.0040  -34.0700   24.9880 H   0  0  0  0  0  0  0  0  0  0  0  0
  -24.1680  -36.7650   23.1020 C   0  0  0  0  0  1  0  0  0  0  0  0
  -25.4210  -36.3620   23.8930 C   0  0  0  0  0  3  0  0  0  0  0  0
  -27.5690  -37.2490   24.6880 C   0  0  0  0  0  1  0  0  0  0  0  0
  -26.4460  -37.4230   23.7710 N   0  0  0  0  0  0  0  0  0  0  0  0
  -26.0360  -38.3370   23.9420 H   0  0  0  0  0  0  0  0  0  0  0  0
  -26.4410  -31.7500   25.0980 C   0  0  1  0  0  0  0  0  0  0  0  0
  -25.3700  -31.5030   26.1850 C   0  0  0  0  0  1  0  0  0  0  0  0
  -27.0240  -30.3770   24.6860 C   0  0  0  0  0  1  0  0  0  0  0  0
  -27.5990  -32.5450   25.7460 C   0  0  0  0  0  1  0  0  0  0  0  0
  2  1  1  0
  3  4  1  0
  4 53  1  0
  4  1  2  0
  5  2  2  0
  6  3  2  0
  6  5  1  0
  7  6  1  0
  9  8  1  0
  9  5  1  0
  9 10  1  0
 10 12  1  0
 10 11  1  0
 13 10  1  0
 13 14  1  0
 15 23  1  0
 16 21  1  0
 17 18  1  0
 17 16  1  0
 19 18  1  0
 19 28  1  0
 19 20  1  0
 21 15  1  0
 21 20  1  0
 22 15  2  0
 23 14  1  0
 23 24  1  0
 25 26  2  0
 26 45  1  0
 27 26  1  0
 27 30  1  0
 28 25  1  0
 28 29  1  0
 29 27  2  0
 30 31  1  0
 31 32  2  0
 33 36  1  0
 33 32  1  0
 34 33  2  0
 35 34  1  0
 35 30  2  0
 36 37  1  0
 37 38  1  0
 38 39  2  0
 40 39  1  0
 40 44  1  0
 41 40  2  0
 42 37  2  0
 42 41  1  0
 43 42  1  0
 45 46  1  0
 46 49  1  0
 46 48  1  0
 47 45  2  0
 50 51  1  0
 50 25  1  0
 52 50  1  0
 54 56  1  0
 54 53  1  0
 55 66  2  0
 56 61  1  0
 57 65  1  0
 57 67  1  0
 58 64  1  0
 58 60  1  0
 59 65  1  0
 60 59  1  0
 61 60  2  0
 62 63  1  0
 62 56  2  0
 63 58  2  0
 64 57  1  0
 65 55  1  0
 67 69  2  0
 68 67  1  0
 70 68  1  0
 71 80  2  0
 71 76  1  0
 72 68  1  0
 72 76  1  0
 73 72  1  0
 74 75  1  0
 74 73  1  0
 75 71  1  0
 76 77  2  0
 77 78  1  0
 79 78  2  0
 80 79  1  0
 81 55  1  0
 81 82  1  0
 81 91  1  0
 82 85  1  0
 83 87  1  0
 83 82  1  0
 84 83  2  0
 87 86  1  0
 89 87  1  0
 89 90  1  0
 89 88  1  0
 91 94  1  1
 91 92  1  0
 93 91  1  0
M  ISO  4  15 100  23 100  53 101  54 101
M  END
>  <TORSDO>  (89) 
F 21

>  <SCORE>  (89) 
-13.711

>  <name>  (89) 
90

>  <ligand_id>  (89) 
90

>  <original_smiles>  (89) 
[H]c1c([H])c([H])c2c(c1[H])C([H])([H])C([H])([H])C([H])([H])C2([H])N([H])C(=O)C1([H])N(C(=O)C([H])(N([H])C(=O)C([H])(N([H])C([H])([H])[H])C([H])([H])[H])C(C([H])([H])[H])(C([H])([H])[H])C([H])([H])[H])C([H])([H])c2c([H])c(OC([H])([H])c3c([H])c([H])c(C([H])(C([H])([H])[H])[N+]([H])([H])C([H])([H])C([H])([H])N([H])C(=O)N4C([H])([H])C([H])([H])C([H])([H])C([H])(n5nc(-c6c([H])c([H])c(Oc7c([H])c([H])c(F)c([H])c7F)c([H])c6[H])c(C(=O)N([H])[H])c5N([H])[H])C4([H])[H])c(F)c3[H])c([H])c([H])c2C1([H])[H]

>  <smiles>  (89) 
[H]c1c([H])c([H])c2c(c1[H])C([H])([H])C([H])([H])C([H])([H])C2([H])N([H])C(=O)C1([H])N(C(=O)C([H])(N([H])C(=O)C([H])(N([H])C([H])([H])[H])C([H])([H])[H])C(C([H])([H])[H])(C([H])([H])[H])C([H])([H])[H])C([H])([H])c2c([H])c(OC([H])([H])c3c([H])c([H])c(C([H])(C([H])([H])[H])[N+]([H])([H])C([H])([H])C([H])([H])N([H])C(=O)N4C([H])([H])C([H])([H])C([H])([H])C([H])(n5nc(-c6c([H])c([H])c(Oc7c([H])c([H])c(F)c([H])c7F)c([H])c6[H])c(C(=O)N([H])[H])c5N([H])[H])C4([H])[H])c(F)c3[H])c([H])c([H])c2C1([H])[H]

$$$$
91:0:0
     RDKit          3D

 98106  0  0  1  0  0  0  0  0999 V2000
  -28.9590  -22.8020   20.4380 C   0  0  0  0  0  3  0  0  0  0  0  0
  -31.6270  -23.5530   20.0580 C   0  0  0  0  0  3  0  0  0  0  0  0
  -29.2940  -24.1950   20.4560 C   0  0  0  0  0  0  0  0  0  0  0  0
  -29.9420  -21.7880   20.2370 C   0  0  0  0  0  0  0  0  0  0  0  0
  -30.6560  -24.5540   20.2810 C   0  0  0  0  0  0  0  0  0  0  0  0
  -31.2790  -22.1900   20.0470 C   0  0  0  0  0  0  0  0  0  0  0  0
  -32.2430  -21.2560   19.8430 F   0  0  0  0  0  0  0  0  0  0  0  0
  -31.0760  -25.8850   20.3290 N   0  0  0  0  0  0  0  0  0  0  0  0
  -31.8980  -26.1470   19.7980 H   0  0  0  0  0  0  0  0  0  0  0  0
  -30.3410  -26.5900   20.2820 H   0  0  0  0  0  0  0  0  0  0  0  0
  -29.6110  -20.2800   20.1320 C   0  0  0  0  0  2  0  0  0  0  0  0
  -29.9010  -19.4190   21.4030 C   0  0  0  0  0  2  0  0  0  0  0  0
  -30.5460  -17.9860   21.2630 C   0  0  0  0  0  3  0  0  0  0  0  0
  -31.9870  -18.0700   20.9430 N   0  0  0  0  0  4  0  0  0  0  0  0
  -32.1570  -18.5170   20.0600 H   0  0  0  0  0  0  0  0  0  0  0  0
  -32.3870  -17.1460   20.9050 H   0  0  0  0  0  0  0  0  0  0  0  0
  -32.4660  -18.5840   21.6620 H   0  0  0  0  0  0  0  0  0  0  0  0
  -29.8140  -16.9730   20.3290 C   0  0  0  0  0  2  0  0  0  0  0  0
  -30.6270  -14.5500   20.2810 C   0  0  0  0  0  0  0  0  0  0  0  0
  -30.3690  -12.3790   19.1360 C   0  0  0  0  0  2  0  0  0  0  0  0
  -29.3980  -12.5830   17.9510 C   0  0  0  0  0  2  0  0  0  0  0  0
  -27.9270  -12.4450   18.3990 C   0  0  0  0  0  2  0  0  0  0  0  0
  -27.6110  -13.2670   19.6770 C   0  0  0  0  0  3  0  0  0  0  0  0
  -28.6840  -13.0220   20.7660 C   0  0  0  0  0  2  0  0  0  0  0  0
  -30.0010  -13.3410   20.1860 N   0  0  0  0  0  0  0  0  0  0  0  0
  -31.7380  -14.7780   19.7940 O   0  0  0  0  0  0  0  0  0  0  0  0
  -29.8510  -15.5490   20.7510 N   0  0  0  0  0  0  0  0  0  0  0  0
  -29.0080  -15.2190   21.1960 H   0  0  0  0  0  0  0  0  0  0  0  0
  -25.2230  -13.8800   20.4200 C   0  0  0  0  0  0  0  0  0  0  0  0
  -24.1560  -13.1140   20.8070 C   0  0  0  0  0  0  0  0  0  0  0  0
  -24.6130  -11.7590   20.7720 C   0  0  0  0  0  0  0  0  0  0  0  0
  -26.2630  -12.9960   20.1760 N   0  0  0  0  0  0  0  0  0  0  0  0
  -25.8990  -11.7160   20.4440 N   0  0  0  0  0  0  0  0  0  0  0  0
  -23.8840  -10.4990   20.9770 C   0  0  0  0  0  0  0  0  0  0  0  0
  -24.3260   -9.5350   21.9100 C   0  0  0  0  0  3  0  0  0  0  0  0
  -23.6010   -8.3390   22.1050 C   0  0  0  0  0  3  0  0  0  0  0  0
  -22.4190   -8.0990   21.3640 C   0  0  0  0  0  0  0  0  0  0  0  0
  -21.9950   -9.0520   20.4220 C   0  0  0  0  0  3  0  0  0  0  0  0
  -22.7200  -10.2390   20.2260 C   0  0  0  0  0  3  0  0  0  0  0  0
  -21.6620   -6.9580   21.4680 O   0  0  0  0  0  0  0  0  0  0  0  0
  -21.6240   -6.2220   22.6250 C   0  0  0  0  0  0  0  0  0  0  0  0
  -21.2110   -6.7830   23.8520 C   0  0  0  0  0  3  0  0  0  0  0  0
  -21.1220   -5.9720   25.0020 C   0  0  0  0  0  3  0  0  0  0  0  0
  -21.4340   -4.6010   24.9230 C   0  0  0  0  0  0  0  0  0  0  0  0
  -21.8410   -4.0400   23.7000 C   0  0  0  0  0  3  0  0  0  0  0  0
  -21.9310   -4.8480   22.5530 C   0  0  0  0  0  0  0  0  0  0  0  0
  -22.3030   -4.2980   21.3700 F   0  0  0  0  0  0  0  0  0  0  0  0
  -21.3410   -3.8200   26.0250 F   0  0  0  0  0  0  0  0  0  0  0  0
  -22.7620  -13.5960   21.0990 C   0  0  0  0  0  0  0  0  0  0  0  0
  -22.0450  -12.9040   21.9800 N   0  0  0  0  0  0  0  0  0  0  0  0
  -22.3170  -14.6180   20.5820 O   0  0  0  0  0  0  0  0  0  0  0  0
  -22.4190  -12.0780   22.4230 H   0  0  0  0  0  0  0  0  0  0  0  0
  -21.1120  -13.2060   22.2150 H   0  0  0  0  0  0  0  0  0  0  0  0
  -25.3900  -15.2490   20.2310 N   0  0  0  0  0  0  0  0  0  0  0  0
  -24.6210  -15.9040   20.3300 H   0  0  0  0  0  0  0  0  0  0  0  0
  -26.2290  -15.6730   19.8580 H   0  0  0  0  0  0  0  0  0  0  0  0
  -28.1790  -25.2480   20.7050 C   0  0  0  0  0  2  0  0  0  0  0  0
  -28.3770  -26.6040   20.1980 O   0  0  0  0  0  0  0  0  0  0  0  0
  -24.5880  -31.8740   23.2350 C   0  0  0  0  0  0  0  0  0  0  0  0
  -27.2400  -27.3990   20.1700 C   0  0  0  0  0  0  0  0  0  0  0  0
  -23.3970  -30.4710   21.5850 C   0  0  0  0  0  3  0  0  0  0  0  0
  -24.8590  -28.9420   20.1620 C   0  0  0  0  0  0  0  0  0  0  0  0
  -25.9300  -30.8250   21.4050 C   0  0  0  0  0  2  0  0  0  0  0  0
  -26.0200  -29.4550   20.7570 C   0  0  0  0  0  0  0  0  0  0  0  0
  -27.2180  -28.6950   20.7490 C   0  0  0  0  0  3  0  0  0  0  0  0
  -26.0650  -26.9230   19.5490 C   0  0  0  0  0  3  0  0  0  0  0  0
  -24.8810  -27.6810   19.5460 C   0  0  0  0  0  3  0  0  0  0  0  0
  -23.6150  -29.7990   20.2050 C   0  0  0  0  0  2  0  0  0  0  0  0
  -24.6560  -31.0740   22.1320 N   0  0  0  0  0  0  0  0  0  0  0  0
  -23.5030  -32.1430   23.7680 O   0  0  0  0  0  0  0  0  0  0  0  0
  -22.7410  -29.4480   22.5410 C   0  0  0  0  0  0  0  0  0  0  0  0
  -21.4170  -29.2600   22.4050 N   0  0  0  0  0  0  0  0  0  0  0  0
  -23.4200  -28.8250   23.3610 O   0  0  0  0  0  0  0  0  0  0  0  0
  -20.9310  -29.8180   21.7180 H   0  0  0  0  0  0  0  0  0  0  0  0
  -18.0460  -28.0370   22.8720 C   0  0  0  0  0  0  0  0  0  0  0  0
  -20.6000  -28.3150   23.1660 C   0  0  0  0  0  3  0  0  0  0  0  0
  -20.7170  -26.8840   22.5930 C   0  0  0  0  0  2  0  0  0  0  0  0
  -19.6280  -26.5510   21.5680 C   0  0  0  0  0  2  0  0  0  0  0  0
  -18.2400  -26.6880   22.1990 C   0  0  0  0  0  2  0  0  0  0  0  0
  -19.1560  -28.8070   23.3120 C   0  0  0  0  0  0  0  0  0  0  0  0
  -18.9240  -30.0700   23.9010 C   0  0  0  0  0  3  0  0  0  0  0  0
  -17.6150  -30.5630   24.0510 C   0  0  0  0  0  3  0  0  0  0  0  0
  -16.5190  -29.7910   23.6290 C   0  0  0  0  0  3  0  0  0  0  0  0
  -16.7360  -28.5280   23.0490 C   0  0  0  0  0  3  0  0  0  0  0  0
  -25.8680  -32.5090   23.8650 C   0  0  0  0  0  3  0  0  0  0  0  0
  -26.3760  -31.7480   25.1500 C   0  0  1  0  0  0  0  0  0  0  0  0
  -25.2760  -31.5180   26.2120 C   0  0  0  0  0  1  0  0  0  0  0  0
  -26.9590  -30.3680   24.7690 C   0  0  0  0  0  1  0  0  0  0  0  0
  -27.5230  -32.5460   25.8140 C   0  0  0  0  0  1  0  0  0  0  0  0
  -25.5570  -33.9110   24.1800 N   0  0  0  0  0  0  0  0  0  0  0  0
  -25.9080  -34.9570   23.4210 C   0  0  0  0  0  0  0  0  0  0  0  0
  -26.5950  -34.8460   22.4020 O   0  0  0  0  0  0  0  0  0  0  0  0
  -24.9460  -34.0730   24.9670 H   0  0  0  0  0  0  0  0  0  0  0  0
  -24.1970  -36.7550   23.0230 C   0  0  0  0  0  1  0  0  0  0  0  0
  -25.4180  -36.3490   23.8630 C   0  0  0  0  0  3  0  0  0  0  0  0
  -27.5380  -37.2230   24.7410 C   0  0  0  0  0  1  0  0  0  0  0  0
  -26.4580  -37.3950   23.7710 N   0  0  0  0  0  0  0  0  0  0  0  0
  -26.0530  -38.3190   23.9070 H   0  0  0  0  0  0  0  0  0  0  0  0
  1  3  1  0
  2  5  1  0
  3 57  1  0
  4  1  2  0
  5  8  1  0
  5  3  2  0
  6  2  2  0
  6  4  1  0
  7  6  1  0
  9  8  1  0
 10  8  1  0
 11  4  1  0
 11 12  1  0
 13 18  1  0
 13 12  1  0
 14 13  1  0
 14 17  1  0
 15 14  1  0
 16 14  1  0
 18 27  1  0
 19 27  1  0
 20 25  1  0
 21 22  1  0
 21 20  1  0
 23 22  1  0
 23 32  1  0
 23 24  1  0
 25 19  1  0
 25 24  1  0
 26 19  2  0
 27 28  1  0
 29 30  2  0
 30 49  1  0
 31 30  1  0
 31 34  1  0
 32 29  1  0
 32 33  1  0
 33 31  2  0
 34 35  1  0
 35 36  2  0
 37 40  1  0
 37 36  1  0
 38 37  2  0
 39 38  1  0
 39 34  2  0
 40 41  1  0
 41 42  1  0
 42 43  2  0
 44 43  1  0
 44 48  1  0
 45 44  2  0
 46 41  2  0
 46 45  1  0
 47 46  1  0
 49 50  1  0
 50 53  1  0
 50 52  1  0
 51 49  2  0
 54 55  1  0
 54 29  1  0
 56 54  1  0
 58 57  1  0
 59 70  2  0
 60 58  1  0
 60 65  1  0
 61 69  1  0
 61 71  1  0
 62 68  1  0
 62 64  1  0
 63 69  1  0
 64 63  1  0
 65 64  2  0
 66 60  2  0
 67 66  1  0
 67 62  2  0
 68 61  1  0
 69 59  1  0
 71 73  2  0
 72 71  1  0
 74 72  1  0
 75 84  2  0
 75 80  1  0
 76 72  1  0
 76 80  1  0
 77 76  1  0
 78 79  1  0
 78 77  1  0
 79 75  1  0
 80 81  2  0
 81 82  1  0
 83 82  2  0
 84 83  1  0
 85 59  1  0
 85 90  1  0
 85 86  1  0
 86 89  1  1
 86 87  1  0
 88 86  1  0
 90 93  1  0
 91 95  1  0
 91 90  1  0
 92 91  2  0
 95 94  1  0
 97 95  1  0
 97 98  1  0
 97 96  1  0
M  ISO  4  19 100  27 100  57 101  58 101
M  END
>  <TORSDO>  (90) 
F 23

>  <SCORE>  (90) 
-13.101

>  <name>  (90) 
91

>  <ligand_id>  (90) 
91

>  <original_smiles>  (90) 
[H]c1c([H])c([H])c2c(c1[H])C([H])([H])C([H])([H])C([H])([H])C2([H])N([H])C(=O)C1([H])N(C(=O)C([H])(N([H])C(=O)C([H])(N([H])C([H])([H])[H])C([H])([H])[H])C(C([H])([H])[H])(C([H])([H])[H])C([H])([H])[H])C([H])([H])c2c([H])c(OC([H])([H])c3c([H])c(C([H])([H])C([H])([H])C([H])(C([H])([H])N([H])C(=O)N4C([H])([H])C([H])([H])C([H])([H])C([H])(n5nc(-c6c([H])c([H])c(Oc7c([H])c([H])c(F)c([H])c7F)c([H])c6[H])c(C(=O)N([H])[H])c5N([H])[H])C4([H])[H])[N+]([H])([H])[H])c(F)c([H])c3N([H])[H])c([H])c([H])c2C1([H])[H]

>  <smiles>  (90) 
[H]c1c([H])c([H])c2c(c1[H])C([H])([H])C([H])([H])C([H])([H])C2([H])N([H])C(=O)C1([H])N(C(=O)C([H])(N([H])C(=O)C([H])(N([H])C([H])([H])[H])C([H])([H])[H])C(C([H])([H])[H])(C([H])([H])[H])C([H])([H])[H])C([H])([H])c2c([H])c(OC([H])([H])c3c([H])c(C([H])([H])C([H])([H])C([H])(C([H])([H])N([H])C(=O)N4C([H])([H])C([H])([H])C([H])([H])C([H])(n5nc(-c6c([H])c([H])c(Oc7c([H])c([H])c(F)c([H])c7F)c([H])c6[H])c(C(=O)N([H])[H])c5N([H])[H])C4([H])[H])[N+]([H])([H])[H])c(F)c([H])c3N([H])[H])c([H])c([H])c2C1([H])[H]

$$$$
92:0:0
     RDKit          3D

101109  0  0  1  0  0  0  0  0999 V2000
  -26.0720  -20.8460   19.6480 C   0  0  0  0  0  3  0  0  0  0  0  0
  -25.8660  -22.1280   19.1100 C   0  0  0  0  0  3  0  0  0  0  0  0
  -27.3350  -21.5830   17.2490 C   0  0  0  0  0  3  0  0  0  0  0  0
  -26.8980  -19.9110   18.9880 C   0  0  0  0  0  0  0  0  0  0  0  0
  -26.4820  -22.5000   17.8930 C   0  0  0  0  0  0  0  0  0  0  0  0
  -27.5180  -20.2900   17.7730 C   0  0  0  0  0  0  0  0  0  0  0  0
  -28.2710  -19.4150   17.0660 F   0  0  0  0  0  0  0  0  0  0  0  0
  -27.0090  -18.5450   19.5740 C   0  0  0  0  0  0  0  0  0  0  0  0
  -26.0480  -17.7650   19.5430 O   0  0  0  0  0  0  0  0  0  0  0  0
  -28.3060  -18.1170   20.3340 C   0  0  0  0  0  0  0  0  0  0  0  0
  -29.4460  -18.3220   19.6620 N   0  0  0  0  0  0  0  0  0  0  0  0
  -28.2710  -17.5670   21.4400 O   0  0  0  0  0  0  0  0  0  0  0  0
  -29.3380  -18.7570   18.7500 H   0  0  0  0  0  0  0  0  0  0  0  0
  -30.7160  -17.6720   19.9260 C   0  0  0  0  0  2  0  0  0  0  0  0
  -30.5270  -16.1640   19.7320 C   0  0  0  0  0  2  0  0  0  0  0  0
  -32.0800  -14.3120   19.5530 C   0  0  0  0  0  0  0  0  0  0  0  0
  -31.6760  -11.9170   19.1290 C   0  0  0  0  0  2  0  0  0  0  0  0
  -30.6850  -11.7050   17.9670 C   0  0  0  0  0  2  0  0  0  0  0  0
  -29.2250  -11.7640   18.4590 C   0  0  0  0  0  2  0  0  0  0  0  0
  -28.9510  -13.0070   19.3470 C   0  0  0  0  0  3  0  0  0  0  0  0
  -30.0340  -13.1200   20.4460 C   0  0  0  0  0  2  0  0  0  0  0  0
  -31.3480  -13.1910   19.7820 N   0  0  0  0  0  0  0  0  0  0  0  0
  -33.1150  -14.3270   18.8820 O   0  0  0  0  0  0  0  0  0  0  0  0
  -31.6880  -15.4150   20.1940 N   0  0  0  0  0  0  0  0  0  0  0  0
  -32.4640  -16.0250   20.4030 H   0  0  0  0  0  0  0  0  0  0  0  0
  -26.7430  -14.0170   20.2180 C   0  0  0  0  0  0  0  0  0  0  0  0
  -25.5880  -13.4330   20.6610 C   0  0  0  0  0  0  0  0  0  0  0  0
  -25.8040  -12.0230   20.5860 C   0  0  0  0  0  0  0  0  0  0  0  0
  -27.6030  -12.9720   19.9110 N   0  0  0  0  0  0  0  0  0  0  0  0
  -27.0420  -11.7670   20.1850 N   0  0  0  0  0  0  0  0  0  0  0  0
  -24.8870  -10.9000   20.8130 C   0  0  0  0  0  0  0  0  0  0  0  0
  -25.1780   -9.8880   21.7550 C   0  0  0  0  0  3  0  0  0  0  0  0
  -24.2720   -8.8280   21.9700 C   0  0  0  0  0  3  0  0  0  0  0  0
  -23.0590   -8.7740   21.2450 C   0  0  0  0  0  0  0  0  0  0  0  0
  -22.7840   -9.7700   20.2910 C   0  0  0  0  0  3  0  0  0  0  0  0
  -23.6890  -10.8230   20.0740 C   0  0  0  0  0  3  0  0  0  0  0  0
  -22.1290   -7.7700   21.3700 O   0  0  0  0  0  0  0  0  0  0  0  0
  -21.9660   -7.0830   22.5470 C   0  0  0  0  0  0  0  0  0  0  0  0
  -21.6260   -7.7380   23.7510 C   0  0  0  0  0  3  0  0  0  0  0  0
  -21.4000   -6.9870   24.9220 C   0  0  0  0  0  3  0  0  0  0  0  0
  -21.5030   -5.5840   24.8880 C   0  0  0  0  0  0  0  0  0  0  0  0
  -21.8370   -4.9290   23.6900 C   0  0  0  0  0  3  0  0  0  0  0  0
  -22.0650   -5.6780   22.5210 C   0  0  0  0  0  0  0  0  0  0  0  0
  -22.3660   -5.0410   21.3640 F   0  0  0  0  0  0  0  0  0  0  0  0
  -21.2790   -4.8600   26.0110 F   0  0  0  0  0  0  0  0  0  0  0  0
  -24.3120  -14.1360   21.0310 C   0  0  0  0  0  0  0  0  0  0  0  0
  -23.5490  -13.5710   21.9600 N   0  0  0  0  0  0  0  0  0  0  0  0
  -24.0100  -15.2200   20.5310 O   0  0  0  0  0  0  0  0  0  0  0  0
  -23.8040  -12.6910   22.3820 H   0  0  0  0  0  0  0  0  0  0  0  0
  -22.6940  -14.0220   22.2520 H   0  0  0  0  0  0  0  0  0  0  0  0
  -27.1230  -15.3430   20.0200 N   0  0  0  0  0  0  0  0  0  0  0  0
  -26.4310  -16.0800   20.1030 H   0  0  0  0  0  0  0  0  0  0  0  0
  -27.9040  -15.5950   19.4300 H   0  0  0  0  0  0  0  0  0  0  0  0
  -24.9420  -24.5400   17.8030 C   0  0  0  0  0  1  0  0  0  0  0  0
  -26.1790  -23.8340   17.2110 C   0  0  0  0  0  3  0  0  0  0  0  0
  -27.3680  -24.7180   17.0840 N   0  0  0  0  0  4  0  0  0  0  0  0
  -28.0440  -24.2170   16.5280 H   0  0  0  0  0  0  0  0  0  0  0  0
  -27.0960  -25.5180   16.5330 H   0  0  0  0  0  0  0  0  0  0  0  0
  -28.0590  -25.1490   18.3290 C   0  0  0  0  0  2  0  0  0  0  0  0
  -28.5500  -26.6120   18.2720 C   0  0  0  0  0  2  0  0  0  0  0  0
  -28.4300  -27.2650   19.5460 O   0  0  0  0  0  0  0  0  0  0  0  0
  -24.7640  -31.9930   23.4630 C   0  0  0  0  0  0  0  0  0  0  0  0
  -27.2310  -27.9010   19.7950 C   0  0  0  0  0  0  0  0  0  0  0  0
  -23.4520  -30.6850   21.8280 C   0  0  0  0  0  3  0  0  0  0  0  0
  -24.8100  -29.3060   20.1830 C   0  0  0  0  0  0  0  0  0  0  0  0
  -25.9470  -31.1270   21.4510 C   0  0  0  0  0  2  0  0  0  0  0  0
  -26.0050  -29.8090   20.7120 C   0  0  0  0  0  0  0  0  0  0  0  0
  -27.2170  -29.1020   20.5370 C   0  0  0  0  0  3  0  0  0  0  0  0
  -26.0050  -27.4040   19.2970 C   0  0  0  0  0  3  0  0  0  0  0  0
  -24.7990  -28.0900   19.4920 C   0  0  0  0  0  3  0  0  0  0  0  0
  -23.5580  -30.1210   20.3900 C   0  0  0  0  0  2  0  0  0  0  0  0
  -24.7440  -31.2780   22.3050 N   0  0  0  0  0  0  0  0  0  0  0  0
  -23.7250  -32.1940   24.1100 O   0  0  0  0  0  0  0  0  0  0  0  0
  -22.9090  -29.5710   22.7530 C   0  0  0  0  0  0  0  0  0  0  0  0
  -21.6490  -29.1660   22.5290 N   0  0  0  0  0  0  0  0  0  0  0  0
  -23.6250  -29.0750   23.6290 O   0  0  0  0  0  0  0  0  0  0  0  0
  -21.1290  -29.6250   21.7950 H   0  0  0  0  0  0  0  0  0  0  0  0
  -18.6010  -27.2330   22.6170 C   0  0  0  0  0  0  0  0  0  0  0  0
  -20.9430  -28.1150   23.2590 C   0  0  0  0  0  3  0  0  0  0  0  0
  -21.4650  -26.7120   22.8700 C   0  0  0  0  0  2  0  0  0  0  0  0
  -20.6660  -26.0560   21.7400 C   0  0  0  0  0  2  0  0  0  0  0  0
  -19.1920  -25.9220   22.1250 C   0  0  0  0  0  2  0  0  0  0  0  0
  -19.4240  -28.2660   23.1360 C   0  0  0  0  0  0  0  0  0  0  0  0
  -18.8260  -29.4750   23.5500 C   0  0  0  0  0  3  0  0  0  0  0  0
  -17.4340  -29.6580   23.4550 C   0  0  0  0  0  3  0  0  0  0  0  0
  -16.6210  -28.6250   22.9550 C   0  0  0  0  0  3  0  0  0  0  0  0
  -17.2050  -27.4160   22.5430 C   0  0  0  0  0  3  0  0  0  0  0  0
  -26.0840  -32.6130   24.0170 C   0  0  0  0  0  3  0  0  0  0  0  0
  -25.8030  -34.0130   24.3570 N   0  0  0  0  0  0  0  0  0  0  0  0
  -26.1010  -35.0580   23.5730 C   0  0  0  0  0  0  0  0  0  0  0  0
  -26.7140  -34.9430   22.5080 O   0  0  0  0  0  0  0  0  0  0  0  0
  -25.2530  -34.1790   25.1860 H   0  0  0  0  0  0  0  0  0  0  0  0
  -24.3670  -36.8580   23.2980 C   0  0  0  0  0  1  0  0  0  0  0  0
  -25.6460  -36.4500   24.0460 C   0  0  0  0  0  3  0  0  0  0  0  0
  -27.8290  -37.3260   24.7550 C   0  0  0  0  0  1  0  0  0  0  0  0
  -26.6790  -37.4950   23.8710 N   0  0  0  0  0  0  0  0  0  0  0  0
  -26.2860  -38.4190   24.0310 H   0  0  0  0  0  0  0  0  0  0  0  0
  -26.6590  -31.8390   25.2650 C   0  0  1  0  0  0  0  0  0  0  0  0
  -25.6110  -31.5790   26.3710 C   0  0  0  0  0  1  0  0  0  0  0  0
  -27.2430  -30.4720   24.8380 C   0  0  0  0  0  1  0  0  0  0  0  0
  -27.8250  -32.6410   25.8870 C   0  0  0  0  0  1  0  0  0  0  0  0
  2  1  1  0
  3  6  2  0
  3  5  1  0
  4  8  1  0
  4  1  2  0
  5  2  2  0
  6  4  1  0
  7  6  1  0
  8 10  1  0
  9  8  2  0
 10 12  2  0
 11 14  1  0
 11 10  1  0
 13 11  1  0
 15 14  1  0
 15 24  1  0
 16 22  1  0
 16 24  1  0
 17 22  1  0
 18 19  1  0
 18 17  1  0
 20 19  1  0
 20 29  1  0
 20 21  1  0
 22 21  1  0
 23 16  2  0
 24 25  1  0
 26 27  2  0
 27 46  1  0
 28 27  1  0
 28 31  1  0
 29 30  1  0
 29 26  1  0
 30 28  2  0
 31 32  1  0
 32 33  2  0
 34 37  1  0
 34 33  1  0
 35 34  2  0
 36 35  1  0
 36 31  2  0
 37 38  1  0
 38 39  1  0
 39 40  2  0
 41 40  1  0
 41 45  1  0
 42 41  2  0
 43 38  2  0
 43 42  1  0
 44 43  1  0
 46 47  1  0
 47 50  1  0
 47 49  1  0
 48 46  2  0
 51 52  1  0
 51 26  1  0
 53 51  1  0
 55 54  1  0
 55  5  1  0
 56 55  1  0
 56 59  1  0
 57 56  1  0
 58 56  1  0
 60 59  1  0
 60 61  1  0
 61 63  1  0
 62 73  2  0
 63 68  1  0
 64 72  1  0
 64 74  1  0
 65 71  1  0
 65 67  1  0
 66 72  1  0
 67 66  1  0
 68 67  2  0
 69 70  1  0
 69 63  2  0
 70 65  2  0
 71 64  1  0
 72 62  1  0
 74 76  2  0
 75 74  1  0
 77 75  1  0
 78 83  1  0
 79 75  1  0
 80 79  1  0
 81 82  1  0
 81 80  1  0
 82 78  1  0
 83 79  1  0
 83 84  2  0
 85 84  1  0
 86 85  2  0
 87 78  2  0
 87 86  1  0
 88 62  1  0
 88 89  1  0
 88 98  1  0
 89 92  1  0
 90 94  1  0
 90 89  1  0
 91 90  2  0
 94 93  1  0
 96 97  1  0
 96 94  1  0
 96 95  1  0
 98101  1  1
 98 99  1  0
100 98  1  0
M  ISO  4  16 100  24 100  60 101  61 101
M  END
>  <TORSDO>  (91) 
F 24

>  <SCORE>  (91) 
-8.767

>  <name>  (91) 
92

>  <ligand_id>  (91) 
92

>  <original_smiles>  (91) 
[H]c1c([H])c([H])c2c(c1[H])C([H])([H])C([H])([H])C([H])([H])C2([H])N([H])C(=O)C1([H])N(C(=O)C([H])(N([H])C(=O)C([H])(N([H])C([H])([H])[H])C([H])([H])[H])C(C([H])([H])[H])(C([H])([H])[H])C([H])([H])[H])C([H])([H])c2c([H])c(OC([H])([H])C([H])([H])[N+]([H])([H])C([H])(c3c([H])c([H])c(C(=O)C(=O)N([H])C([H])([H])C([H])([H])N([H])C(=O)N4C([H])([H])C([H])([H])C([H])([H])C([H])(n5nc(-c6c([H])c([H])c(Oc7c([H])c([H])c(F)c([H])c7F)c([H])c6[H])c(C(=O)N([H])[H])c5N([H])[H])C4([H])[H])c(F)c3[H])C([H])([H])[H])c([H])c([H])c2C1([H])[H]

>  <smiles>  (91) 
[H]c1c([H])c([H])c2c(c1[H])C([H])([H])C([H])([H])C([H])([H])C2([H])N([H])C(=O)C1([H])N(C(=O)C([H])(N([H])C(=O)C([H])(N([H])C([H])([H])[H])C([H])([H])[H])C(C([H])([H])[H])(C([H])([H])[H])C([H])([H])[H])C([H])([H])c2c([H])c(OC([H])([H])C([H])([H])[N+]([H])([H])C([H])(c3c([H])c([H])c(C(=O)C(=O)N([H])C([H])([H])C([H])([H])N([H])C(=O)N4C([H])([H])C([H])([H])C([H])([H])C([H])(n5nc(-c6c([H])c([H])c(Oc7c([H])c([H])c(F)c([H])c7F)c([H])c6[H])c(C(=O)N([H])[H])c5N([H])[H])C4([H])[H])c(F)c3[H])C([H])([H])[H])c([H])c([H])c2C1([H])[H]

$$$$
93:0:0
     RDKit          3D

 93 94  0  0  1  0  0  0  0  0999 V2000
  -27.6080  -27.9390   18.4570 C   0  0  0  0  0  3  0  0  0  0  0  0
  -26.4780  -29.2660   18.5980 C   0  0  0  0  0  3  0  0  0  0  0  0
  -25.8800  -27.1810   21.7900 C   0  0  2  0  0  0  0  0  0  0  0  0
  -27.7470  -26.6090   19.5940 C   0  0  0  0  0  1  0  0  0  0  0  0
  -25.1520  -29.4650   19.7200 C   0  0  0  0  0  1  0  0  0  0  0  0
  -25.3220  -28.5140   21.6830 C   0  0  2  0  0  0  0  0  0  0  0  0
  -28.6960  -24.5520   19.3590 C   0  0  0  0  0  2  0  0  0  0  0  0
  -29.6420  -24.6930   18.5780 O   0  0  0  0  0  0  0  0  0  0  0  0
  -28.6750  -22.3550   19.7760 C   0  0  0  0  0 15  0  0  0  0  0  0
  -29.5250  -20.1450   19.6340 C   0  0  0  0  0 15  0  0  0  0  0  0
  -30.0680  -16.3470   19.8170 C   0  0  0  0  0  0  0  0  0  0  0  0
  -30.2780  -13.5580   19.0950 C   0  0  0  0  0  2  0  0  0  0  0  0
  -29.4120  -12.7340   18.0650 C   0  0  0  0  0  2  0  0  0  0  0  0
  -28.1480  -12.1570   18.6970 C   0  0  0  0  0  2  0  0  0  0  0  0
  -27.5810  -13.1830   19.6860 C   0  0  0  0  0  3  0  0  0  0  0  0
  -28.6400  -13.8910   20.6240 C   0  0  0  0  0  2  0  0  0  0  0  0
  -29.5760  -14.8220   19.7950 N   0  0  0  0  0  0  0  0  0  0  0  0
  -31.2940  -16.0650   19.6610 O   0  0  0  0  0  0  0  0  0  0  0  0
  -29.4340  -18.0290   19.8250 N   0  0  0  0  0  2  0  0  0  0  0  0
  -28.4500  -17.8740   20.0100 H   0  0  0  0  0  0  0  0  0  0  0  0
  -25.2790  -13.5620   20.6570 C   0  0  0  0  0  0  0  0  0  0  0  0
  -24.2590  -12.7510   21.0630 C   0  0  0  0  0  0  0  0  0  0  0  0
  -24.7420  -11.4110   20.9340 C   0  0  0  0  0  0  0  0  0  0  0  0
  -26.3280  -12.7380   20.3110 N   0  0  0  0  0  0  0  0  0  0  0  0
  -26.0150  -11.4210   20.5210 N   0  0  0  0  0  0  0  0  0  0  0  0
  -24.0240  -10.1340   21.1260 C   0  0  0  0  0  0  0  0  0  0  0  0
  -24.4800   -9.1550   22.0360 C   0  0  0  0  0  3  0  0  0  0  0  0
  -23.7560   -7.9580   22.2300 C   0  0  0  0  0  3  0  0  0  0  0  0
  -22.5540   -7.7270   21.5180 C   0  0  0  0  0  0  0  0  0  0  0  0
  -22.1110   -8.6960   20.5980 C   0  0  0  0  0  3  0  0  0  0  0  0
  -22.8380   -9.8850   20.4040 C   0  0  0  0  0  3  0  0  0  0  0  0
  -21.8010   -6.5810   21.6210 O   0  0  0  0  0  0  0  0  0  0  0  0
  -21.7410   -5.8590   22.7890 C   0  0  0  0  0  0  0  0  0  0  0  0
  -21.2850   -6.4320   23.9960 C   0  0  0  0  0  3  0  0  0  0  0  0
  -21.1700   -5.6360   25.1530 C   0  0  0  0  0  3  0  0  0  0  0  0
  -21.5070   -4.2700   25.1060 C   0  0  0  0  0  0  0  0  0  0  0  0
  -21.9600   -3.6970   23.9030 C   0  0  0  0  0  3  0  0  0  0  0  0
  -22.0710   -4.4890   22.7480 C   0  0  0  0  0  0  0  0  0  0  0  0
  -22.4840   -3.9270   21.5860 F   0  0  0  0  0  0  0  0  0  0  0  0
  -21.3930   -3.5040   26.2160 F   0  0  0  0  0  0  0  0  0  0  0  0
  -22.8820  -13.2020   21.4490 C   0  0  0  0  0  0  0  0  0  0  0  0
  -22.2320  -12.4810   22.3560 N   0  0  0  0  0  0  0  0  0  0  0  0
  -22.3990  -14.2370   20.9890 O   0  0  0  0  0  0  0  0  0  0  0  0
  -22.6420  -11.6450   22.7480 H   0  0  0  0  0  0  0  0  0  0  0  0
  -21.3130  -12.7690   22.6610 H   0  0  0  0  0  0  0  0  0  0  0  0
  -25.4020  -14.9410   20.5140 N   0  0  0  0  0  0  0  0  0  0  0  0
  -24.6340  -15.5800   20.6920 H   0  0  0  0  0  0  0  0  0  0  0  0
  -26.2150  -15.3920   20.1140 H   0  0  0  0  0  0  0  0  0  0  0  0
  -25.4200  -28.7880   23.0430 O   0  0  0  0  0  0  0  0  0  0  0  0
  -24.5690  -29.1410   23.3880 H   0  0  0  0  0  0  0  0  0  0  0  0
  -23.8740  -28.1810   18.5170 C   0  0  0  0  0 15  0  0  0  0  0  0
  -23.0770  -26.4370   19.9140 C   0  0  0  0  0 15  0  0  0  0  0  0
  -24.3530  -25.4340   21.1960 O   0  0  0  0  0  0  0  0  0  0  0  0
  -24.9710  -31.7060   23.5010 C   0  0  0  0  0  0  0  0  0  0  0  0
  -25.9490  -25.1140   21.6950 C   0  0  0  0  0  2  0  0  0  0  0  0
  -23.4420  -30.3310   21.8750 C   0  0  0  0  0  3  0  0  0  0  0  0
  -25.2680  -27.3510   20.1560 C   0  0  0  0  0  3  0  0  0  0  0  0
  -26.7840  -30.1100   21.9630 C   0  0  0  0  0  1  0  0  0  0  0  0
  -27.0810  -28.1560   21.3730 C   0  0  0  0  0  3  0  0  0  0  0  0
  -27.4070  -26.5200   22.3830 C   0  0  0  0  0  2  0  0  0  0  0  0
  -25.2330  -25.0030   20.2650 C   0  0  0  0  0  3  0  0  0  0  0  0
  -25.1810  -26.1260   19.2250 C   0  0  0  0  0  2  0  0  0  0  0  0
  -23.1730  -28.6670   20.9930 C   0  0  0  0  0  1  0  0  0  0  0  0
  -25.1050  -30.9560   22.3170 N   0  0  0  0  0  0  0  0  0  0  0  0
  -23.8780  -32.1100   23.9480 O   0  0  0  0  0  0  0  0  0  0  0  0
  -22.4270  -29.8810   23.0350 C   0  0  0  0  0  0  0  0  0  0  0  0
  -21.1650  -29.5390   22.7230 N   0  0  0  0  0  0  0  0  0  0  0  0
  -22.8280  -29.5370   24.1450 O   0  0  0  0  0  0  0  0  0  0  0  0
  -20.8180  -29.7920   21.8090 H   0  0  0  0  0  0  0  0  0  0  0  0
  -17.8130  -28.2760   23.0370 C   0  0  0  0  0  0  0  0  0  0  0  0
  -20.2990  -28.6890   23.5690 C   0  0  0  0  0  3  0  0  0  0  0  0
  -20.4940  -27.1780   23.2880 C   0  0  0  0  0  2  0  0  0  0  0  0
  -19.5650  -26.6440   22.1940 C   0  0  0  0  0  2  0  0  0  0  0  0
  -18.1020  -26.8460   22.6040 C   0  0  0  0  0  2  0  0  0  0  0  0
  -18.8470  -29.1370   23.4860 C   0  0  0  0  0  0  0  0  0  0  0  0
  -18.5390  -30.4600   23.8620 C   0  0  0  0  0  3  0  0  0  0  0  0
  -17.2210  -30.9380   23.7770 C   0  0  0  0  0  3  0  0  0  0  0  0
  -16.1940  -30.0830   23.3410 C   0  0  0  0  0  3  0  0  0  0  0  0
  -16.4870  -28.7540   22.9810 C   0  0  0  0  0  3  0  0  0  0  0  0
  -26.2070  -32.0970   24.3760 C   0  0  0  0  0  3  0  0  0  0  0  0
  -26.0510  -33.5290   24.6880 N   0  0  0  0  0  0  0  0  0  0  0  0
  -26.5030  -34.5190   23.9120 C   0  0  0  0  0  0  0  0  0  0  0  0
  -27.1270  -34.3060   22.8710 O   0  0  0  0  0  0  0  0  0  0  0  0
  -25.4830  -33.7700   25.4860 H   0  0  0  0  0  0  0  0  0  0  0  0
  -25.0400  -36.5410   23.5820 C   0  0  0  0  0  1  0  0  0  0  0  0
  -26.2360  -35.9690   24.3610 C   0  0  0  0  0  3  0  0  0  0  0  0
  -28.5020  -36.5270   25.1140 C   0  0  0  0  0  1  0  0  0  0  0  0
  -27.4110  -36.8510   24.1990 N   0  0  0  0  0  0  0  0  0  0  0  0
  -27.1550  -37.8250   24.3410 H   0  0  0  0  0  0  0  0  0  0  0  0
  -26.4340  -31.2980   25.7390 C   0  0  1  0  0  0  0  0  0  0  0  0
  -25.1810  -31.2180   26.6440 C   0  0  0  0  0  1  0  0  0  0  0  0
  -26.9370  -29.8430   25.5910 C   0  0  0  0  0  1  0  0  0  0  0  0
  -27.5860  -31.9890   26.5150 C   0  0  0  0  0  1  0  0  0  0  0  0
  1  2  2  0
  1  4  1  0
  2  5  1  0
  3 60  1  6
  6  3  1  0
  6 49  1  1
  8  7  2  0
 11 19  1  0
 12 17  1  0
 13 14  1  0
 13 12  1  0
 15 14  1  0
 15 24  1  0
 15 16  1  0
 17 11  1  0
 17 16  1  0
 18 11  2  0
 19 20  1  0
 21 22  2  0
 22 41  1  0
 23 22  1  0
 23 26  1  0
 24 25  1  0
 24 21  1  0
 25 23  2  0
 26 27  1  0
 27 28  2  0
 29 32  1  0
 29 28  1  0
 30 29  2  0
 31 30  1  0
 31 26  2  0
 32 33  1  0
 33 34  1  0
 34 35  2  0
 36 35  1  0
 36 40  1  0
 37 36  2  0
 38 33  2  0
 38 37  1  0
 39 38  1  0
 41 42  1  0
 42 45  1  0
 42 44  1  0
 43 41  2  0
 46 21  1  0
 46 47  1  0
 48 46  1  0
 49 50  1  0
 53 55  1  0
 54 65  2  0
 56 63  1  0
 56 64  1  0
 56 66  1  0
 57 62  1  0
 57  6  1  0
 57  3  1  0
 58 64  1  0
 59  6  1  0
 59  3  1  0
 59 60  1  0
 61 62  1  0
 61 53  1  0
 61 55  1  0
 64 54  1  0
 66 68  2  0
 67 66  1  0
 69 67  1  0
 70 75  1  0
 71 67  1  0
 72 71  1  0
 73 74  1  0
 73 72  1  0
 74 70  1  0
 75 71  1  0
 75 76  2  0
 77 76  1  0
 78 77  2  0
 79 70  2  0
 79 78  1  0
 80 54  1  0
 80 81  1  0
 80 90  1  0
 81 84  1  0
 82 86  1  0
 82 81  1  0
 83 82  2  0
 86 85  1  0
 88 89  1  0
 88 86  1  0
 88 87  1  0
 90 93  1  1
 90 91  1  0
 92 90  1  0
M  ISO  4  11 100  19 100  52 101  53 101
M  END
>  <TORSDO>  (92) 
F 22

>  <SCORE>  (92) 
-14.248

>  <name>  (92) 
93

>  <ligand_id>  (92) 
93

>  <original_smiles>  (92) 
[H]Oc1c([H])c(C(=O)C([H])([H])C([H])([H])N([H])C(=O)N2C([H])([H])C([H])([H])C([H])([H])C([H])(n3nc(-c4c([H])c([H])c(Oc5c([H])c([H])c(F)c([H])c5F)c([H])c4[H])c(C(=O)N([H])[H])c3N([H])[H])C2([H])[H])c([H])c([H])c1C([H])([H])C([H])([H])Oc1c([H])c([H])c2c(c1[H])C([H])([H])N(C(=O)C([H])(N([H])C(=O)C([H])(N([H])C([H])([H])[H])C([H])([H])[H])C(C([H])([H])[H])(C([H])([H])[H])C([H])([H])[H])C([H])(C(=O)N([H])C1([H])c3c([H])c([H])c([H])c([H])c3C([H])([H])C([H])([H])C1([H])[H])C2([H])[H]

>  <smiles>  (92) 
[H]Oc1c([H])c(C(=O)C([H])([H])C([H])([H])N([H])C(=O)N2C([H])([H])C([H])([H])C([H])([H])C([H])(n3nc(-c4c([H])c([H])c(Oc5c([H])c([H])c(F)c([H])c5F)c([H])c4[H])c(C(=O)N([H])[H])c3N([H])[H])C2([H])[H])c([H])c([H])c1C([H])([H])C([H])([H])Oc1c([H])c([H])c2c(c1[H])C([H])([H])N(C(=O)C([H])(N([H])C(=O)C([H])(N([H])C([H])([H])[H])C([H])([H])[H])C(C([H])([H])[H])(C([H])([H])[H])C([H])([H])[H])C([H])(C(=O)N([H])C1([H])c3c([H])c([H])c([H])c([H])c3C([H])([H])C([H])([H])C1([H])[H])C2([H])[H]

$$$$
94:0:0
     RDKit          3D

 97105  0  0  1  0  0  0  0  0999 V2000
  -30.5750  -20.5200   19.0210 C   0  0  0  0  0  3  0  0  0  0  0  0
  -31.4030  -19.3930   19.1640 C   0  0  0  0  0  3  0  0  0  0  0  0
  -29.0720  -19.6010   20.6840 C   0  0  0  0  0  3  0  0  0  0  0  0
  -29.4150  -20.6520   19.8080 C   0  0  0  0  0  0  0  0  0  0  0  0
  -31.1080  -18.3490   20.0780 C   0  0  0  0  0  0  0  0  0  0  0  0
  -29.8930  -18.4570   20.8280 C   0  0  0  0  0  0  0  0  0  0  0  0
  -28.5470  -21.8750   19.7010 C   0  0  0  0  0  0  0  0  0  0  0  0
  -29.1790  -22.9940   19.3230 N   0  0  0  0  0  0  0  0  0  0  0  0
  -27.3500  -21.8440   19.9920 O   0  0  0  0  0  0  0  0  0  0  0  0
  -30.1720  -22.9140   19.1560 H   0  0  0  0  0  0  0  0  0  0  0  0
  -28.5800  -24.3150   19.1340 C   0  0  0  0  0  2  0  0  0  0  0  0
  -28.4420  -25.0780   20.4640 C   0  0  0  0  0  2  0  0  0  0  0  0
  -28.4990  -26.4920   20.2670 O   0  0  0  0  0  0  0  0  0  0  0  0
  -24.6400  -31.6930   23.1790 C   0  0  0  0  0  0  0  0  0  0  0  0
  -27.3090  -27.1800   20.2450 C   0  0  0  0  0  0  0  0  0  0  0  0
  -23.4510  -30.2660   21.5430 C   0  0  0  0  0  3  0  0  0  0  0  0
  -24.9180  -28.6820   20.1850 C   0  0  0  0  0  0  0  0  0  0  0  0
  -25.9810  -30.6070   21.3810 C   0  0  0  0  0  2  0  0  0  0  0  0
  -26.0680  -29.2200   20.7760 C   0  0  0  0  0  0  0  0  0  0  0  0
  -27.2670  -28.4790   20.7960 C   0  0  0  0  0  3  0  0  0  0  0  0
  -26.1420  -26.6440   19.6590 C   0  0  0  0  0  3  0  0  0  0  0  0
  -24.9480  -27.3920   19.6250 C   0  0  0  0  0  3  0  0  0  0  0  0
  -23.6800  -29.5500   20.1860 C   0  0  0  0  0  2  0  0  0  0  0  0
  -24.7080  -30.8710   22.0930 N   0  0  0  0  0  0  0  0  0  0  0  0
  -23.5510  -31.9840   23.6940 O   0  0  0  0  0  0  0  0  0  0  0  0
  -22.7740  -29.2720   22.5140 C   0  0  0  0  0  0  0  0  0  0  0  0
  -21.4540  -29.0900   22.3570 N   0  0  0  0  0  0  0  0  0  0  0  0
  -23.4360  -28.6660   23.3610 O   0  0  0  0  0  0  0  0  0  0  0  0
  -20.9850  -29.6300   21.6420 H   0  0  0  0  0  0  0  0  0  0  0  0
  -18.0640  -27.9170   22.7850 C   0  0  0  0  0  0  0  0  0  0  0  0
  -20.6130  -28.1750   23.1280 C   0  0  0  0  0  3  0  0  0  0  0  0
  -20.7280  -26.7290   22.5910 C   0  0  0  0  0  2  0  0  0  0  0  0
  -19.6550  -26.3830   21.5530 C   0  0  0  0  0  2  0  0  0  0  0  0
  -18.2560  -26.5490   22.1520 C   0  0  0  0  0  2  0  0  0  0  0  0
  -19.1720  -28.6870   23.2280 C   0  0  0  0  0  0  0  0  0  0  0  0
  -18.9400  -29.9680   23.7770 C   0  0  0  0  0  3  0  0  0  0  0  0
  -17.6330  -30.4770   23.8900 C   0  0  0  0  0  3  0  0  0  0  0  0
  -16.5380  -29.7040   23.4650 C   0  0  0  0  0  3  0  0  0  0  0  0
  -16.7550  -28.4260   22.9180 C   0  0  0  0  0  3  0  0  0  0  0  0
  -25.9190  -32.3260   23.8110 C   0  0  0  0  0  3  0  0  0  0  0  0
  -25.5960  -33.7150   24.1670 N   0  0  0  0  0  0  0  0  0  0  0  0
  -25.8970  -34.7820   23.4140 C   0  0  0  0  0  0  0  0  0  0  0  0
  -26.5480  -34.7010   22.3680 O   0  0  0  0  0  0  0  0  0  0  0  0
  -25.0160  -33.8500   24.9810 H   0  0  0  0  0  0  0  0  0  0  0  0
  -24.1290  -36.5460   23.1230 C   0  0  0  0  0  1  0  0  0  0  0  0
  -25.3970  -36.1560   23.8980 C   0  0  0  0  0  3  0  0  0  0  0  0
  -27.5290  -37.0780   24.6950 C   0  0  0  0  0  1  0  0  0  0  0  0
  -26.4080  -37.2280   23.7700 N   0  0  0  0  0  0  0  0  0  0  0  0
  -25.9880  -38.1410   23.9260 H   0  0  0  0  0  0  0  0  0  0  0  0
  -26.4450  -31.5350   25.0700 C   0  0  1  0  0  0  0  0  0  0  0  0
  -25.3520  -31.2450   26.1250 C   0  0  0  0  0  1  0  0  0  0  0  0
  -27.0610  -30.1840   24.6420 C   0  0  0  0  0  1  0  0  0  0  0  0
  -27.5770  -32.3360   25.7570 C   0  0  0  0  0  1  0  0  0  0  0  0
  -29.4370  -17.5060   21.7430 N   0  0  0  0  0  0  0  0  0  0  0  0
  -28.4890  -17.5890   22.1000 H   0  0  0  0  0  0  0  0  0  0  0  0
  -29.7300  -16.5410   21.6600 H   0  0  0  0  0  0  0  0  0  0  0  0
  -32.1790  -17.2860   20.1940 C   0  0  0  0  0  0  0  0  0  0  0  0
  -33.2070  -17.3360   19.5060 O   0  0  0  0  0  0  0  0  0  0  0  0
  -32.0720  -16.0990   21.1760 C   0  0  0  0  0  2  0  0  0  0  0  0
  -31.5120  -14.1120   19.7610 C   0  0  0  0  0  0  0  0  0  0  0  0
  -30.9520  -11.9370   18.7380 C   0  0  0  0  0  2  0  0  0  0  0  0
  -29.9370  -12.0910   17.5920 C   0  0  0  0  0  2  0  0  0  0  0  0
  -28.4970  -12.0670   18.1370 C   0  0  0  0  0  2  0  0  0  0  0  0
  -28.2960  -13.0350   19.3330 C   0  0  0  0  0  3  0  0  0  0  0  0
  -29.4110  -12.8520   20.3840 C   0  0  0  0  0  2  0  0  0  0  0  0
  -30.7150  -13.0130   19.7120 N   0  0  0  0  0  0  0  0  0  0  0  0
  -32.4920  -14.2580   19.0290 O   0  0  0  0  0  0  0  0  0  0  0  0
  -31.2050  -15.0040   20.7140 N   0  0  0  0  0  0  0  0  0  0  0  0
  -30.3890  -14.7990   21.2680 H   0  0  0  0  0  0  0  0  0  0  0  0
  -26.0440  -13.8530   20.2780 C   0  0  0  0  0  0  0  0  0  0  0  0
  -24.9380  -13.1770   20.7190 C   0  0  0  0  0  0  0  0  0  0  0  0
  -25.2500  -11.7890   20.5990 C   0  0  0  0  0  0  0  0  0  0  0  0
  -26.9670  -12.8810   19.9240 N   0  0  0  0  0  0  0  0  0  0  0  0
  -26.4960  -11.6320   20.1700 N   0  0  0  0  0  0  0  0  0  0  0  0
  -24.4160  -10.5990   20.8130 C   0  0  0  0  0  0  0  0  0  0  0  0
  -24.7620   -9.6150   21.7660 C   0  0  0  0  0  3  0  0  0  0  0  0
  -23.9350   -8.4900   21.9660 C   0  0  0  0  0  3  0  0  0  0  0  0
  -22.7460   -8.3400   21.2130 C   0  0  0  0  0  0  0  0  0  0  0  0
  -22.4170   -9.3110   20.2510 C   0  0  0  0  0  3  0  0  0  0  0  0
  -23.2440  -10.4280   20.0490 C   0  0  0  0  0  3  0  0  0  0  0  0
  -21.8950   -7.2680   21.3220 O   0  0  0  0  0  0  0  0  0  0  0  0
  -21.7000   -6.6200   22.5160 C   0  0  0  0  0  0  0  0  0  0  0  0
  -21.2030   -7.2920   23.6550 C   0  0  0  0  0  3  0  0  0  0  0  0
  -20.9530   -6.5740   24.8410 C   0  0  0  0  0  3  0  0  0  0  0  0
  -21.1890   -5.1860   24.8890 C   0  0  0  0  0  0  0  0  0  0  0  0
  -21.6790   -4.5170   23.7540 C   0  0  0  0  0  3  0  0  0  0  0  0
  -21.9310   -5.2310   22.5710 C   0  0  0  0  0  0  0  0  0  0  0  0
  -22.3830   -4.5770   21.4740 F   0  0  0  0  0  0  0  0  0  0  0  0
  -20.9410   -4.4950   26.0260 F   0  0  0  0  0  0  0  0  0  0  0  0
  -23.6290  -13.7820   21.1380 C   0  0  0  0  0  0  0  0  0  0  0  0
  -22.9220  -13.1360   22.0600 N   0  0  0  0  0  0  0  0  0  0  0  0
  -23.2470  -14.8600   20.6850 O   0  0  0  0  0  0  0  0  0  0  0  0
  -23.2440  -12.2620   22.4500 H   0  0  0  0  0  0  0  0  0  0  0  0
  -22.0450  -13.5220   22.3830 H   0  0  0  0  0  0  0  0  0  0  0  0
  -26.3370  -15.2060   20.1320 N   0  0  0  0  0  0  0  0  0  0  0  0
  -25.6620  -15.9340   20.3410 H   0  0  0  0  0  0  0  0  0  0  0  0
  -27.2050  -15.5670   19.7570 H   0  0  0  0  0  0  0  0  0  0  0  0
  1  2  2  0
  1  4  1  0
  2  5  1  0
  3  6  1  0
  4  3  2  0
  5 57  1  0
  5  6  2  0
  6 54  1  0
  7  4  1  0
  7  9  2  0
  8  7  1  0
 10  8  1  0
 11  8  1  0
 11 12  1  0
 13 12  1  0
 14 25  2  0
 15 13  1  0
 15 20  1  0
 16 24  1  0
 16 26  1  0
 17 23  1  0
 17 19  1  0
 18 24  1  0
 19 20  2  0
 19 18  1  0
 21 15  2  0
 22 21  1  0
 22 17  2  0
 23 16  1  0
 24 14  1  0
 26 28  2  0
 27 26  1  0
 29 27  1  0
 30 39  2  0
 30 35  1  0
 31 27  1  0
 31 35  1  0
 32 31  1  0
 33 34  1  0
 33 32  1  0
 34 30  1  0
 35 36  2  0
 36 37  1  0
 38 37  2  0
 39 38  1  0
 40 14  1  0
 40 41  1  0
 40 50  1  0
 41 44  1  0
 42 46  1  0
 42 41  1  0
 43 42  2  0
 46 45  1  0
 48 46  1  0
 48 49  1  0
 48 47  1  0
 50 53  1  1
 50 51  1  0
 52 50  1  0
 54 55  1  0
 56 54  1  0
 57 59  1  0
 58 57  2  0
 60 68  1  0
 61 66  1  0
 62 63  1  0
 62 61  1  0
 64 63  1  0
 64 73  1  0
 64 65  1  0
 66 60  1  0
 66 65  1  0
 67 60  2  0
 68 59  1  0
 68 69  1  0
 70 71  2  0
 71 90  1  0
 72 71  1  0
 72 75  1  0
 73 74  1  0
 73 70  1  0
 74 72  2  0
 75 76  1  0
 76 77  2  0
 78 81  1  0
 78 77  1  0
 79 78  2  0
 80 79  1  0
 80 75  2  0
 81 82  1  0
 82 87  2  0
 82 83  1  0
 83 84  2  0
 84 85  1  0
 85 89  1  0
 86 85  2  0
 87 86  1  0
 88 87  1  0
 90 91  1  0
 91 94  1  0
 91 93  1  0
 92 90  2  0
 95 70  1  0
 95 96  1  0
 97 95  1  0
M  ISO  4  12 101  13 101  60 100  68 100
M  END
>  <TORSDO>  (93) 
F 22

>  <SCORE>  (93) 
-12.214

>  <name>  (93) 
94

>  <ligand_id>  (93) 
94

>  <original_smiles>  (93) 
[H]c1c([H])c([H])c2c(c1[H])C([H])([H])C([H])([H])C([H])([H])C2([H])N([H])C(=O)C1([H])N(C(=O)C([H])(N([H])C(=O)C([H])(N([H])C([H])([H])[H])C([H])([H])[H])C(C([H])([H])[H])(C([H])([H])[H])C([H])([H])[H])C([H])([H])c2c([H])c(OC([H])([H])C([H])([H])N([H])C(=O)c3c([H])c([H])c(C(=O)C([H])([H])N([H])C(=O)N4C([H])([H])C([H])([H])C([H])([H])C([H])(n5nc(-c6c([H])c([H])c(Oc7c([H])c([H])c(F)c([H])c7F)c([H])c6[H])c(C(=O)N([H])[H])c5N([H])[H])C4([H])[H])c(N([H])[H])c3[H])c([H])c([H])c2C1([H])[H]

>  <smiles>  (93) 
[H]c1c([H])c([H])c2c(c1[H])C([H])([H])C([H])([H])C([H])([H])C2([H])N([H])C(=O)C1([H])N(C(=O)C([H])(N([H])C(=O)C([H])(N([H])C([H])([H])[H])C([H])([H])[H])C(C([H])([H])[H])(C([H])([H])[H])C([H])([H])[H])C([H])([H])c2c([H])c(OC([H])([H])C([H])([H])N([H])C(=O)c3c([H])c([H])c(C(=O)C([H])([H])N([H])C(=O)N4C([H])([H])C([H])([H])C([H])([H])C([H])(n5nc(-c6c([H])c([H])c(Oc7c([H])c([H])c(F)c([H])c7F)c([H])c6[H])c(C(=O)N([H])[H])c5N([H])[H])C4([H])[H])c(N([H])[H])c3[H])c([H])c([H])c2C1([H])[H]

$$$$
95:0:0
     RDKit          3D

 97105  0  0  1  0  0  0  0  0999 V2000
  -27.2740  -21.1970   18.3780 C   0  0  0  0  0  3  0  0  0  0  0  0
  -25.5100  -22.3600   19.5990 C   0  0  0  0  0  3  0  0  0  0  0  0
  -28.0970  -22.3320   18.4850 C   0  0  0  0  0  3  0  0  0  0  0  0
  -26.3260  -23.4940   19.6950 C   0  0  0  0  0  3  0  0  0  0  0  0
  -25.9900  -21.1930   18.9740 C   0  0  0  0  0  0  0  0  0  0  0  0
  -27.6440  -23.4730   19.1830 C   0  0  0  0  0  0  0  0  0  0  0  0
  -28.5560  -24.6330   19.3310 C   0  0  0  0  0  0  0  0  0  0  0  0
  -29.4600  -24.8910   18.5250 O   0  0  0  0  0  0  0  0  0  0  0  0
  -28.3690  -25.5180   20.5660 C   0  0  0  0  0  2  0  0  0  0  0  0
  -28.2820  -26.8760   20.1780 O   0  0  0  0  0  0  0  0  0  0  0  0
  -24.5380  -31.9920   23.3340 C   0  0  0  0  0  0  0  0  0  0  0  0
  -27.0620  -27.4950   20.2800 C   0  0  0  0  0  0  0  0  0  0  0  0
  -23.2680  -30.5820   21.7410 C   0  0  0  0  0  3  0  0  0  0  0  0
  -24.6640  -28.9810   20.3330 C   0  0  0  0  0  0  0  0  0  0  0  0
  -25.7860  -30.9010   21.4800 C   0  0  0  0  0  2  0  0  0  0  0  0
  -25.8370  -29.5150   20.8800 C   0  0  0  0  0  0  0  0  0  0  0  0
  -27.0340  -28.7780   20.8520 C   0  0  0  0  0  3  0  0  0  0  0  0
  -25.8730  -26.9520   19.7410 C   0  0  0  0  0  3  0  0  0  0  0  0
  -24.6730  -27.6920   19.7680 C   0  0  0  0  0  3  0  0  0  0  0  0
  -23.4350  -29.8610   20.3770 C   0  0  0  0  0  2  0  0  0  0  0  0
  -24.5490  -31.1730   22.2440 N   0  0  0  0  0  0  0  0  0  0  0  0
  -23.4750  -32.2990   23.8910 O   0  0  0  0  0  0  0  0  0  0  0  0
  -22.6140  -29.5970   22.7350 C   0  0  0  0  0  0  0  0  0  0  0  0
  -21.3090  -29.3420   22.5500 N   0  0  0  0  0  0  0  0  0  0  0  0
  -23.2800  -29.0620   23.6250 O   0  0  0  0  0  0  0  0  0  0  0  0
  -20.8340  -29.8320   21.8060 H   0  0  0  0  0  0  0  0  0  0  0  0
  -17.9970  -27.9560   22.8870 C   0  0  0  0  0  0  0  0  0  0  0  0
  -20.4980  -28.4170   23.3370 C   0  0  0  0  0  3  0  0  0  0  0  0
  -20.7440  -26.9530   22.9050 C   0  0  0  0  0  2  0  0  0  0  0  0
  -19.7570  -26.4670   21.8420 C   0  0  0  0  0  2  0  0  0  0  0  0
  -18.3160  -26.5710   22.3560 C   0  0  0  0  0  2  0  0  0  0  0  0
  -19.0230  -28.8280   23.3350 C   0  0  0  0  0  0  0  0  0  0  0  0
  -18.6770  -30.1210   23.7840 C   0  0  0  0  0  3  0  0  0  0  0  0
  -17.3350  -30.5430   23.7980 C   0  0  0  0  0  3  0  0  0  0  0  0
  -16.3200  -29.6670   23.3730 C   0  0  0  0  0  3  0  0  0  0  0  0
  -16.6520  -28.3780   22.9200 C   0  0  0  0  0  3  0  0  0  0  0  0
  -25.8530  -32.6010   23.9150 C   0  0  0  0  0  3  0  0  0  0  0  0
  -25.5830  -34.0090   24.2330 N   0  0  0  0  0  0  0  0  0  0  0  0
  -25.9200  -35.0420   23.4480 C   0  0  0  0  0  0  0  0  0  0  0  0
  -26.5620  -34.9090   22.4030 O   0  0  0  0  0  0  0  0  0  0  0  0
  -25.0090  -34.1890   25.0440 H   0  0  0  0  0  0  0  0  0  0  0  0
  -24.2140  -36.8590   23.1140 C   0  0  0  0  0  1  0  0  0  0  0  0
  -25.4710  -36.4460   23.8950 C   0  0  0  0  0  3  0  0  0  0  0  0
  -27.6490  -37.3000   24.6400 C   0  0  0  0  0  1  0  0  0  0  0  0
  -26.5190  -37.4770   23.7310 N   0  0  0  0  0  0  0  0  0  0  0  0
  -26.1370  -38.4070   23.8800 H   0  0  0  0  0  0  0  0  0  0  0  0
  -26.3890  -31.8310   25.1840 C   0  0  1  0  0  0  0  0  0  0  0  0
  -25.3070  -31.5770   26.2590 C   0  0  0  0  0  1  0  0  0  0  0  0
  -26.9850  -30.4640   24.7790 C   0  0  0  0  0  1  0  0  0  0  0  0
  -27.5360  -32.6360   25.8420 C   0  0  0  0  0  1  0  0  0  0  0  0
  -25.1120  -19.9970   18.9670 C   0  0  0  0  0  0  0  0  0  0  0  0
  -23.8820  -20.0940   18.8590 O   0  0  0  0  0  0  0  0  0  0  0  0
  -25.7520  -18.5990   19.1590 C   0  0  0  0  0  0  0  0  0  0  0  0
  -27.0040  -18.5900   19.6630 N   0  0  0  0  0  0  0  0  0  0  0  0
  -25.1200  -17.5710   18.8910 O   0  0  0  0  0  0  0  0  0  0  0  0
  -27.4610  -19.4700   19.8660 H   0  0  0  0  0  0  0  0  0  0  0  0
  -27.6970  -17.3310   19.8860 C   0  0  0  0  0  2  0  0  0  0  0  0
  -29.1820  -17.3480   20.2970 C   0  0  0  0  0  2  0  0  0  0  0  0
  -29.4630  -15.9680   20.9480 C   0  0  0  0  0  2  0  0  0  0  0  0
  -31.2260  -14.2940   20.1660 C   0  0  0  0  0  0  0  0  0  0  0  0
  -30.9600  -11.9020   19.5990 C   0  0  0  0  0  2  0  0  0  0  0  0
  -30.0150  -11.7120   18.3930 C   0  0  0  0  0  2  0  0  0  0  0  0
  -28.5450  -11.6390   18.8520 C   0  0  0  0  0  2  0  0  0  0  0  0
  -28.1810  -12.7940   19.8170 C   0  0  0  0  0  3  0  0  0  0  0  0
  -29.2350  -12.8800   20.9520 C   0  0  0  0  0  2  0  0  0  0  0  0
  -30.5490  -13.1160   20.3300 N   0  0  0  0  0  0  0  0  0  0  0  0
  -32.2850  -14.3510   19.5400 O   0  0  0  0  0  0  0  0  0  0  0  0
  -30.8130  -15.4200   20.7870 N   0  0  0  0  0  0  0  0  0  0  0  0
  -31.5320  -16.1300   20.7860 H   0  0  0  0  0  0  0  0  0  0  0  0
  -25.8880  -13.6310   20.6440 C   0  0  0  0  0  0  0  0  0  0  0  0
  -24.7560  -12.9780   21.0350 C   0  0  0  0  0  0  0  0  0  0  0  0
  -25.0560  -11.5890   20.9070 C   0  0  0  0  0  0  0  0  0  0  0  0
  -26.8210  -12.6550   20.3360 N   0  0  0  0  0  0  0  0  0  0  0  0
  -26.3200  -11.4140   20.5420 N   0  0  0  0  0  0  0  0  0  0  0  0
  -24.1960  -10.4140   21.0490 C   0  0  0  0  0  0  0  0  0  0  0  0
  -24.5480   -9.3470   21.9040 C   0  0  0  0  0  3  0  0  0  0  0  0
  -23.6980   -8.2310   22.0390 C   0  0  0  0  0  3  0  0  0  0  0  0
  -22.4830   -8.1760   21.3150 C   0  0  0  0  0  0  0  0  0  0  0  0
  -22.1490   -9.2290   20.4470 C   0  0  0  0  0  3  0  0  0  0  0  0
  -22.9990  -10.3380   20.3120 C   0  0  0  0  0  3  0  0  0  0  0  0
  -21.6060   -7.1190   21.3640 O   0  0  0  0  0  0  0  0  0  0  0  0
  -21.5410   -6.2920   22.4550 C   0  0  0  0  0  0  0  0  0  0  0  0
  -21.2270   -6.7810   23.7420 C   0  0  0  0  0  3  0  0  0  0  0  0
  -21.1070   -5.8840   24.8240 C   0  0  0  0  0  3  0  0  0  0  0  0
  -21.2890   -4.5030   24.6170 C   0  0  0  0  0  0  0  0  0  0  0  0
  -21.5930   -4.0150   23.3340 C   0  0  0  0  0  3  0  0  0  0  0  0
  -21.7170   -4.9090   22.2550 C   0  0  0  0  0  0  0  0  0  0  0  0
  -21.9940   -4.4330   21.0160 F   0  0  0  0  0  0  0  0  0  0  0  0
  -21.1630   -3.6410   25.6520 F   0  0  0  0  0  0  0  0  0  0  0  0
  -23.4380  -13.6030   21.3970 C   0  0  0  0  0  0  0  0  0  0  0  0
  -22.6740  -12.9460   22.2600 N   0  0  0  0  0  0  0  0  0  0  0  0
  -23.1010  -14.7020   20.9550 O   0  0  0  0  0  0  0  0  0  0  0  0
  -22.9620  -12.0520   22.6320 H   0  0  0  0  0  0  0  0  0  0  0  0
  -21.7930  -13.3400   22.5580 H   0  0  0  0  0  0  0  0  0  0  0  0
  -26.1940  -14.9670   20.4850 N   0  0  0  0  0  0  0  0  0  0  0  0
  -25.5610  -15.7380   20.6850 H   0  0  0  0  0  0  0  0  0  0  0  0
  -27.0400  -15.2710   20.0260 H   0  0  0  0  0  0  0  0  0  0  0  0
  1  3  2  0
  1  5  1  0
  2  4  1  0
  3  6  1  0
  5  2  2  0
  6  7  1  0
  6  4  2  0
  7  9  1  0
  8  7  2  0
 10 12  1  0
 10  9  1  0
 11 22  2  0
 12 17  1  0
 13 21  1  0
 13 23  1  0
 14 20  1  0
 14 16  1  0
 15 21  1  0
 16 15  1  0
 17 16  2  0
 18 19  1  0
 18 12  2  0
 19 14  2  0
 20 13  1  0
 21 11  1  0
 23 25  2  0
 24 23  1  0
 26 24  1  0
 27 36  2  0
 27 32  1  0
 28 24  1  0
 29 28  1  0
 30 31  1  0
 30 29  1  0
 31 27  1  0
 32 28  1  0
 32 33  2  0
 33 34  1  0
 35 34  2  0
 36 35  1  0
 37 11  1  0
 37 38  1  0
 37 47  1  0
 38 41  1  0
 39 43  1  0
 39 38  1  0
 40 39  2  0
 43 42  1  0
 45 46  1  0
 45 43  1  0
 45 44  1  0
 47 50  1  1
 47 48  1  0
 49 47  1  0
 51  5  1  0
 51 53  1  0
 52 51  2  0
 53 54  1  0
 54 56  1  0
 54 57  1  0
 55 53  2  0
 57 58  1  0
 58 59  1  0
 60 66  1  0
 60 68  1  0
 61 66  1  0
 62 63  1  0
 62 61  1  0
 64 63  1  0
 64 73  1  0
 64 65  1  0
 66 65  1  0
 67 60  2  0
 68 59  1  0
 69 68  1  0
 70 71  2  0
 71 90  1  0
 72 71  1  0
 72 75  1  0
 73 74  1  0
 73 70  1  0
 74 72  2  0
 75 76  1  0
 76 77  2  0
 78 81  1  0
 78 77  1  0
 79 78  2  0
 80 79  1  0
 80 75  2  0
 81 82  1  0
 82 83  1  0
 83 84  2  0
 85 84  1  0
 85 89  1  0
 86 85  2  0
 87 82  2  0
 87 86  1  0
 88 87  1  0
 90 91  1  0
 91 94  1  0
 91 93  1  0
 92 90  2  0
 95 70  1  0
 95 96  1  0
 97 95  1  0
M  ISO  4   9 101  10 101  60 100  68 100
M  END
>  <TORSDO>  (94) 
F 23

>  <SCORE>  (94) 
-9.046

>  <name>  (94) 
95

>  <ligand_id>  (94) 
95

>  <original_smiles>  (94) 
[H]c1c([H])c([H])c2c(c1[H])C([H])([H])C([H])([H])C([H])([H])C2([H])N([H])C(=O)C1([H])N(C(=O)C([H])(N([H])C(=O)C([H])(N([H])C([H])([H])[H])C([H])([H])[H])C(C([H])([H])[H])(C([H])([H])[H])C([H])([H])[H])C([H])([H])c2c([H])c(OC([H])([H])C(=O)c3c([H])c([H])c(C(=O)C(=O)N([H])C([H])([H])C([H])([H])C([H])([H])N([H])C(=O)N4C([H])([H])C([H])([H])C([H])([H])C([H])(n5nc(-c6c([H])c([H])c(Oc7c([H])c([H])c(F)c([H])c7F)c([H])c6[H])c(C(=O)N([H])[H])c5N([H])[H])C4([H])[H])c([H])c3[H])c([H])c([H])c2C1([H])[H]

>  <smiles>  (94) 
[H]c1c([H])c([H])c2c(c1[H])C([H])([H])C([H])([H])C([H])([H])C2([H])N([H])C(=O)C1([H])N(C(=O)C([H])(N([H])C(=O)C([H])(N([H])C([H])([H])[H])C([H])([H])[H])C(C([H])([H])[H])(C([H])([H])[H])C([H])([H])[H])C([H])([H])c2c([H])c(OC([H])([H])C(=O)c3c([H])c([H])c(C(=O)C(=O)N([H])C([H])([H])C([H])([H])C([H])([H])N([H])C(=O)N4C([H])([H])C([H])([H])C([H])([H])C([H])(n5nc(-c6c([H])c([H])c(Oc7c([H])c([H])c(F)c([H])c7F)c([H])c6[H])c(C(=O)N([H])[H])c5N([H])[H])C4([H])[H])c([H])c3[H])c([H])c([H])c2C1([H])[H]

$$$$
96:0:0
     RDKit          3D

 97106  0  0  1  0  0  0  0  0999 V2000
  -30.1400  -20.9470   20.4040 C   0  0  0  0  0  3  0  0  0  0  0  0
  -30.1420  -22.3420   20.1870 C   0  0  0  0  0  3  0  0  0  0  0  0
  -27.9150  -20.8090   19.4510 C   0  0  0  0  0  3  0  0  0  0  0  0
  -29.0440  -20.1500   19.9940 C   0  0  0  0  0  0  0  0  0  0  0  0
  -29.0470  -22.9870   19.5590 C   0  0  0  0  0  0  0  0  0  0  0  0
  -27.9160  -22.2040   19.2190 C   0  0  0  0  0  0  0  0  0  0  0  0
  -28.3360  -24.6790   17.8680 C   0  0  0  0  0  2  0  0  0  0  0  0
  -27.0150  -23.9010   17.6770 C   0  0  0  0  0  2  0  0  0  0  0  0
  -29.0520  -24.4990   19.2310 C   0  0  2  0  0  0  0  0  0  0  0  0
  -30.4910  -25.0490   19.0800 C   0  0  0  0  0  1  0  0  0  0  0  0
  -25.5310  -22.6960   19.3470 C   0  0  0  0  0  1  0  0  0  0  0  0
  -26.7970  -22.8080   18.6240 N   0  0  0  0  0  0  0  0  0  0  0  0
  -29.0200  -18.6550   20.1460 C   0  0  0  0  0  0  0  0  0  0  0  0
  -27.9710  -18.0230   20.3050 O   0  0  0  0  0  0  0  0  0  0  0  0
  -30.3450  -17.8740   19.9990 C   0  0  0  0  0  2  0  0  0  0  0  0
  -30.4400  -17.3090   22.5350 C   0  0  0  0  0  1  0  0  0  0  0  0
  -30.7200  -16.8300   21.1010 C   0  0  0  0  0  3  0  0  0  0  0  0
  -30.7670  -14.4670   20.2400 C   0  0  0  0  0  0  0  0  0  0  0  0
  -30.3670  -12.3270   19.0790 C   0  0  0  0  0  2  0  0  0  0  0  0
  -29.3870  -12.5580   17.9110 C   0  0  0  0  0  2  0  0  0  0  0  0
  -27.9270  -12.4420   18.3910 C   0  0  0  0  0  2  0  0  0  0  0  0
  -27.6530  -13.2780   19.6710 C   0  0  0  0  0  3  0  0  0  0  0  0
  -28.7440  -13.0360   20.7410 C   0  0  0  0  0  2  0  0  0  0  0  0
  -30.0530  -13.3130   20.1250 N   0  0  0  0  0  0  0  0  0  0  0  0
  -31.8580  -14.6330   19.6920 O   0  0  0  0  0  0  0  0  0  0  0  0
  -30.1620  -15.4770   20.8930 N   0  0  0  0  0  0  0  0  0  0  0  0
  -29.2630  -15.2780   21.3060 H   0  0  0  0  0  0  0  0  0  0  0  0
  -25.2960  -13.9220   20.4730 C   0  0  0  0  0  0  0  0  0  0  0  0
  -24.2250  -13.1670   20.8720 C   0  0  0  0  0  0  0  0  0  0  0  0
  -24.6580  -11.8070   20.8100 C   0  0  0  0  0  0  0  0  0  0  0  0
  -26.3140  -13.0240   20.1970 N   0  0  0  0  0  0  0  0  0  0  0  0
  -25.9350  -11.7450   20.4550 N   0  0  0  0  0  0  0  0  0  0  0  0
  -23.9120  -10.5560   21.0140 C   0  0  0  0  0  0  0  0  0  0  0  0
  -24.3600   -9.5740   21.9230 C   0  0  0  0  0  3  0  0  0  0  0  0
  -23.6170   -8.3890   22.1160 C   0  0  0  0  0  3  0  0  0  0  0  0
  -22.4160   -8.1790   21.3980 C   0  0  0  0  0  0  0  0  0  0  0  0
  -21.9890   -9.1500   20.4760 C   0  0  0  0  0  3  0  0  0  0  0  0
  -22.7310  -10.3270   20.2810 C   0  0  0  0  0  3  0  0  0  0  0  0
  -21.6440   -7.0480   21.5020 O   0  0  0  0  0  0  0  0  0  0  0  0
  -21.6160   -6.2970   22.6490 C   0  0  0  0  0  0  0  0  0  0  0  0
  -21.2340   -6.8480   23.8910 C   0  0  0  0  0  3  0  0  0  0  0  0
  -21.1520   -6.0230   25.0310 C   0  0  0  0  0  3  0  0  0  0  0  0
  -21.4420   -4.6500   24.9290 C   0  0  0  0  0  0  0  0  0  0  0  0
  -21.8190   -4.1000   23.6910 C   0  0  0  0  0  3  0  0  0  0  0  0
  -21.9040   -4.9210   22.5550 C   0  0  0  0  0  0  0  0  0  0  0  0
  -22.2450   -4.3810   21.3600 F   0  0  0  0  0  0  0  0  0  0  0  0
  -21.3550   -3.8560   26.0220 F   0  0  0  0  0  0  0  0  0  0  0  0
  -22.8490  -13.6690   21.1970 C   0  0  0  0  0  0  0  0  0  0  0  0
  -22.1410  -12.9750   22.0820 N   0  0  0  0  0  0  0  0  0  0  0  0
  -22.4120  -14.7060   20.7040 O   0  0  0  0  0  0  0  0  0  0  0  0
  -22.5150  -12.1400   22.5050 H   0  0  0  0  0  0  0  0  0  0  0  0
  -21.2170  -13.2880   22.3410 H   0  0  0  0  0  0  0  0  0  0  0  0
  -25.4760  -15.2920   20.3060 N   0  0  0  0  0  0  0  0  0  0  0  0
  -24.7130  -15.9470   20.4280 H   0  0  0  0  0  0  0  0  0  0  0  0
  -26.3280  -15.7370   19.9820 H   0  0  0  0  0  0  0  0  0  0  0  0
  -28.3560  -25.2960   20.3760 C   0  0  0  0  0  2  0  0  0  0  0  0
  -28.4350  -26.7320   20.2410 O   0  0  0  0  0  0  0  0  0  0  0  0
  -24.5450  -31.9060   23.2470 C   0  0  0  0  0  0  0  0  0  0  0  0
  -27.2550  -27.4480   20.2400 C   0  0  0  0  0  0  0  0  0  0  0  0
  -23.3710  -30.4830   21.6050 C   0  0  0  0  0  3  0  0  0  0  0  0
  -24.8510  -28.9440   20.2160 C   0  0  0  0  0  0  0  0  0  0  0  0
  -25.8990  -30.8560   21.4360 C   0  0  0  0  0  2  0  0  0  0  0  0
  -26.0020  -29.4810   20.8060 C   0  0  0  0  0  0  0  0  0  0  0  0
  -27.2100  -28.7440   20.8060 C   0  0  0  0  0  3  0  0  0  0  0  0
  -26.0790  -26.9280   19.6570 C   0  0  0  0  0  3  0  0  0  0  0  0
  -24.8840  -27.6650   19.6410 C   0  0  0  0  0  3  0  0  0  0  0  0
  -23.6030  -29.7970   20.2340 C   0  0  0  0  0  2  0  0  0  0  0  0
  -24.6230  -31.0960   22.1540 N   0  0  0  0  0  0  0  0  0  0  0  0
  -23.4540  -32.1770   23.7690 O   0  0  0  0  0  0  0  0  0  0  0  0
  -22.7140  -29.4640   22.5630 C   0  0  0  0  0  0  0  0  0  0  0  0
  -21.3940  -29.2640   22.4090 N   0  0  0  0  0  0  0  0  0  0  0  0
  -23.3870  -28.8550   23.3980 O   0  0  0  0  0  0  0  0  0  0  0  0
  -20.9110  -29.8060   21.7070 H   0  0  0  0  0  0  0  0  0  0  0  0
  -18.0240  -28.0420   22.8520 C   0  0  0  0  0  0  0  0  0  0  0  0
  -20.5720  -28.3280   23.1750 C   0  0  0  0  0  3  0  0  0  0  0  0
  -20.7020  -26.8910   22.6180 C   0  0  0  0  0  2  0  0  0  0  0  0
  -19.6240  -26.5450   21.5860 C   0  0  0  0  0  2  0  0  0  0  0  0
  -18.2280  -26.6850   22.1990 C   0  0  0  0  0  2  0  0  0  0  0  0
  -19.1260  -28.8200   23.2960 C   0  0  0  0  0  0  0  0  0  0  0  0
  -18.8830  -30.0890   23.8660 C   0  0  0  0  0  3  0  0  0  0  0  0
  -17.5710  -30.5820   23.9960 C   0  0  0  0  0  3  0  0  0  0  0  0
  -16.4820  -29.8000   23.5700 C   0  0  0  0  0  3  0  0  0  0  0  0
  -16.7100  -28.5330   23.0040 C   0  0  0  0  0  3  0  0  0  0  0  0
  -25.8180  -32.5500   23.8780 C   0  0  0  0  0  3  0  0  0  0  0  0
  -26.3220  -31.7960   25.1700 C   0  0  1  0  0  0  0  0  0  0  0  0
  -25.2140  -31.5610   26.2220 C   0  0  0  0  0  1  0  0  0  0  0  0
  -26.9210  -30.4200   24.7980 C   0  0  0  0  0  1  0  0  0  0  0  0
  -27.4530  -32.6080   25.8430 C   0  0  0  0  0  1  0  0  0  0  0  0
  -25.4970  -33.9500   24.1860 N   0  0  0  0  0  0  0  0  0  0  0  0
  -25.8390  -34.9940   23.4220 C   0  0  0  0  0  0  0  0  0  0  0  0
  -26.5320  -34.8840   22.4060 O   0  0  0  0  0  0  0  0  0  0  0  0
  -24.8850  -34.1100   24.9730 H   0  0  0  0  0  0  0  0  0  0  0  0
  -24.1130  -36.7770   23.0050 C   0  0  0  0  0  1  0  0  0  0  0  0
  -25.3340  -36.3840   23.8520 C   0  0  0  0  0  3  0  0  0  0  0  0
  -27.4420  -37.2870   24.7320 C   0  0  0  0  0  1  0  0  0  0  0  0
  -26.3660  -37.4410   23.7570 N   0  0  0  0  0  0  0  0  0  0  0  0
  -25.9500  -38.3600   23.8870 H   0  0  0  0  0  0  0  0  0  0  0  0
  2  1  1  0
  3  4  1  0
  4 13  1  0
  4  1  2  0
  5  2  2  0
  6  3  2  0
  6  5  1  0
  7  9  1  0
  8  7  1  0
  8 12  1  0
  9 10  1  6
  9  5  1  0
  9 56  1  0
 12  6  1  0
 12 11  1  0
 13 14  2  0
 15 13  1  0
 15 17  1  0
 17 16  1  0
 18 26  1  0
 19 24  1  0
 20 21  1  0
 20 19  1  0
 22 21  1  0
 22 31  1  0
 22 23  1  0
 24 18  1  0
 24 23  1  0
 25 18  2  0
 26 17  1  0
 26 27  1  0
 28 29  2  0
 29 48  1  0
 30 29  1  0
 30 33  1  0
 31 32  1  0
 31 28  1  0
 32 30  2  0
 33 34  1  0
 34 35  2  0
 36 39  1  0
 36 35  1  0
 37 36  2  0
 38 37  1  0
 38 33  2  0
 39 40  1  0
 40 41  1  0
 41 42  2  0
 43 42  1  0
 43 47  1  0
 44 43  2  0
 45 40  2  0
 45 44  1  0
 46 45  1  0
 48 49  1  0
 49 52  1  0
 49 51  1  0
 50 48  2  0
 53 54  1  0
 53 28  1  0
 55 53  1  0
 57 56  1  0
 58 69  2  0
 59 57  1  0
 59 64  1  0
 60 68  1  0
 60 70  1  0
 61 67  1  0
 61 63  1  0
 62 68  1  0
 63 64  2  0
 63 62  1  0
 65 59  2  0
 66 65  1  0
 66 61  2  0
 67 60  1  0
 68 58  1  0
 70 72  2  0
 71 70  1  0
 73 71  1  0
 74 83  2  0
 74 79  1  0
 75 71  1  0
 75 79  1  0
 76 75  1  0
 77 78  1  0
 77 76  1  0
 78 74  1  0
 79 80  2  0
 80 81  1  0
 82 81  2  0
 83 82  1  0
 84 58  1  0
 84 89  1  0
 84 85  1  0
 85 88  1  1
 85 86  1  0
 87 85  1  0
 89 92  1  0
 90 94  1  0
 90 89  1  0
 91 90  2  0
 94 93  1  0
 96 94  1  0
 96 97  1  0
 96 95  1  0
M  ISO  4  18 100  26 100  56 101  57 101
M  END
>  <TORSDO>  (95) 
F 20

>  <SCORE>  (95) 
-14.175

>  <name>  (95) 
96

>  <ligand_id>  (95) 
96

>  <original_smiles>  (95) 
[H]c1c([H])c([H])c2c(c1[H])C([H])([H])C([H])([H])C([H])([H])C2([H])N([H])C(=O)C1([H])N(C(=O)C([H])(N([H])C(=O)C([H])(N([H])C([H])([H])[H])C([H])([H])[H])C(C([H])([H])[H])(C([H])([H])[H])C([H])([H])[H])C([H])([H])c2c([H])c(OC([H])([H])C3(C([H])([H])[H])c4c([H])c([H])c(C(=O)C([H])([H])C([H])(N([H])C(=O)N5C([H])([H])C([H])([H])C([H])([H])C([H])(n6nc(-c7c([H])c([H])c(Oc8c([H])c([H])c(F)c([H])c8F)c([H])c7[H])c(C(=O)N([H])[H])c6N([H])[H])C5([H])[H])C([H])([H])[H])c([H])c4N(C([H])([H])[H])C([H])([H])C3([H])[H])c([H])c([H])c2C1([H])[H]

>  <smiles>  (95) 
[H]c1c([H])c([H])c2c(c1[H])C([H])([H])C([H])([H])C([H])([H])C2([H])N([H])C(=O)C1([H])N(C(=O)C([H])(N([H])C(=O)C([H])(N([H])C([H])([H])[H])C([H])([H])[H])C(C([H])([H])[H])(C([H])([H])[H])C([H])([H])[H])C([H])([H])c2c([H])c(OC([H])([H])C3(C([H])([H])[H])c4c([H])c([H])c(C(=O)C([H])([H])C([H])(N([H])C(=O)N5C([H])([H])C([H])([H])C([H])([H])C([H])(n6nc(-c7c([H])c([H])c(Oc8c([H])c([H])c(F)c([H])c8F)c([H])c7[H])c(C(=O)N([H])[H])c6N([H])[H])C5([H])[H])C([H])([H])[H])c([H])c4N(C([H])([H])[H])C([H])([H])C3([H])[H])c([H])c([H])c2C1([H])[H]

$$$$
97:0:0
     RDKit          3D

102105  0  0  1  0  0  0  0  0999 V2000
  -25.9770  -19.0220   18.6680 C   0  0  0  0  0  3  0  0  0  0  0  0
  -27.2150  -18.4380   20.5490 C   0  0  0  0  0  3  0  0  0  0  0  0
  -26.8690  -20.1630   18.4090 C   0  0  0  0  0  3  0  0  0  0  0  0
  -28.1030  -19.5820   20.2960 C   0  0  0  0  0  3  0  0  0  0  0  0
  -26.0740  -18.0580   19.7490 C   0  0  0  0  0  0  0  0  0  0  0  0
  -28.0020  -20.5470   19.2150 C   0  0  0  0  0  0  0  0  0  0  0  0
  -24.8690  -16.9790   20.1240 C   0  0  0  0  0  0  0  0  0  0  0  0
  -23.7440  -17.4460   19.9330 O   0  0  0  0  0  0  0  0  0  0  0  0
  -23.7810  -13.8630   19.2660 C   0  0  0  0  0 15  0  0  0  0  0  0
  -26.4250  -14.6340   21.8470 C   0  0  0  0  0 15  0  0  0  0  0  0
  -25.9550  -10.9390   20.6830 C   0  0  0  0  0  1  0  0  0  0  0  0
  -24.8450  -15.3950   20.5550 C   0  0  0  0  0  1  0  0  0  0  0  0
  -24.2690  -11.7000   19.3590 C   0  0  0  0  0  2  0  0  0  0  0  0
  -27.0900  -12.5720   21.8070 C   0  0  0  0  0  1  0  0  0  0  0  0
  -23.5270  -10.7290   18.4700 C   0  0  0  0  0  1  0  0  0  0  0  0
  -29.0750  -13.3330   23.3160 C   0  0  0  0  0  1  0  0  0  0  0  0
  -28.7270  -12.6210   22.0000 C   0  0  0  0  0  3  0  0  0  0  0  0
  -30.4180  -12.7730   19.7560 C   0  0  0  0  0  0  0  0  0  0  0  0
  -30.2420  -10.9130   18.0280 C   0  0  0  0  0  2  0  0  0  0  0  0
  -29.0140  -11.0350   17.0380 C   0  0  0  0  0  2  0  0  0  0  0  0
  -27.5900  -11.1380   17.6550 C   0  0  0  0  0  2  0  0  0  0  0  0
  -27.7400  -11.9850   18.8940 C   0  0  0  0  0  3  0  0  0  0  0  0
  -28.7440  -11.1130   19.7100 C   0  0  0  0  0  2  0  0  0  0  0  0
  -29.9990  -11.5800   19.3140 N   0  0  0  0  0  0  0  0  0  0  0  0
  -31.3010  -13.3570   19.0840 O   0  0  0  0  0  0  0  0  0  0  0  0
  -29.7060  -13.2280   20.8990 N   0  0  0  0  0  0  0  0  0  0  0  0
  -29.9920  -14.1650   21.1380 H   0  0  0  0  0  0  0  0  0  0  0  0
  -25.8850  -13.0670   19.8970 C   0  0  0  0  0  0  0  0  0  0  0  0
  -24.4370  -12.5380   21.0960 C   0  0  0  0  0  0  0  0  0  0  0  0
  -24.4240  -11.3300   21.5780 C   0  0  0  0  0  2  0  0  0  0  0  0
  -26.4060  -12.4700   19.4090 N   0  0  0  0  0  2  0  0  0  0  0  0
  -25.0660  -12.3420   20.7200 N   0  0  2  0  0  4  0  0  0  0  0  0
  -23.6410  -10.0150   21.4130 C   0  0  0  0  0  3  0  0  0  0  0  0
  -24.1510   -8.8700   22.0790 C   0  0  0  0  0  3  0  0  0  0  0  0
  -23.3700   -7.7110   22.2880 C   0  0  0  0  0  3  0  0  0  0  0  0
  -22.0380   -7.6580   21.8250 C   0  0  0  0  0  0  0  0  0  0  0  0
  -21.5660   -8.7310   21.0370 C   0  0  0  0  0  3  0  0  0  0  0  0
  -22.3580   -9.8850   20.8190 C   0  0  0  0  0  3  0  0  0  0  0  0
  -21.1810   -6.6050   22.0710 O   0  0  0  0  0  0  0  0  0  0  0  0
  -21.3250   -5.7870   23.1720 C   0  0  0  0  0  0  0  0  0  0  0  0
  -21.2500   -6.2820   24.4940 C   0  0  0  0  0  3  0  0  0  0  0  0
  -21.3460   -5.3970   25.5910 C   0  0  0  0  0  3  0  0  0  0  0  0
  -21.5070   -4.0150   25.3690 C   0  0  0  0  0  0  0  0  0  0  0  0
  -21.5720   -3.5180   24.0560 C   0  0  0  0  0  3  0  0  0  0  0  0
  -21.4750   -4.4000   22.9640 C   0  0  0  0  0  0  0  0  0  0  0  0
  -21.5150   -3.9060   21.7030 F   0  0  0  0  0  0  0  0  0  0  0  0
  -21.5960   -3.1630   26.4190 F   0  0  0  0  0  0  0  0  0  0  0  0
  -22.9240  -13.0960   21.6320 C   0  0  0  0  0  0  0  0  0  0  0  0
  -22.3350  -12.5090   22.6710 N   0  0  0  0  0  0  0  0  0  0  0  0
  -22.2740  -14.0090   21.1120 O   0  0  0  0  0  0  0  0  0  0  0  0
  -22.7650  -11.7410   23.1630 H   0  0  0  0  0  0  0  0  0  0  0  0
  -21.4400  -12.8510   22.9890 H   0  0  0  0  0  0  0  0  0  0  0  0
  -26.5730  -14.2120   19.2370 N   0  0  0  0  0  4  0  0  0  0  0  0
  -26.5270  -15.1420   19.6170 H   0  0  0  0  0  0  0  0  0  0  0  0
  -27.2900  -14.0990   18.5380 H   0  0  0  0  0  0  0  0  0  0  0  0
  -29.1760  -21.7330   18.8860 C   0  0  0  0  0  3  0  0  0  0  0  0
  -30.0190  -21.1980   17.8070 N   0  0  0  0  0  4  0  0  0  0  0  0
  -29.5260  -21.2030   16.9330 H   0  0  0  0  0  0  0  0  0  0  0  0
  -30.3020  -20.2570   18.0140 H   0  0  0  0  0  0  0  0  0  0  0  0
  -30.8470  -21.7620   17.7080 H   0  0  0  0  0  0  0  0  0  0  0  0
  -29.0610  -23.4230   18.6340 C   0  0  0  0  0  2  0  0  0  0  0  0
  -30.1110  -24.6340   18.8280 O   0  0  0  0  0  0  0  0  0  0  0  0
  -28.0540  -29.7890   23.6380 C   0  0  0  0  0  0  0  0  0  0  0  0
  -29.5910  -25.9540   19.0750 C   0  0  0  0  0  0  0  0  0  0  0  0
  -26.6590  -29.2730   21.6870 C   0  0  0  0  0  3  0  0  0  0  0  0
  -27.8110  -28.1090   19.7240 C   0  0  0  0  0  0  0  0  0  0  0  0
  -29.2220  -29.0870   21.5120 C   0  0  0  0  0  2  0  0  0  0  0  0
  -29.0270  -28.0230   20.4160 C   0  0  0  0  0  0  0  0  0  0  0  0
  -29.9390  -26.9430   20.0930 C   0  0  0  0  0  3  0  0  0  0  0  0
  -28.4790  -26.2760   18.2880 C   0  0  0  0  0  3  0  0  0  0  0  0
  -27.5680  -27.2690   18.6400 C   0  0  0  0  0  3  0  0  0  0  0  0
  -26.7810  -29.1330   20.1520 C   0  0  0  0  0  2  0  0  0  0  0  0
  -28.0030  -29.3860   22.3340 N   0  0  0  0  0  0  0  0  0  0  0  0
  -27.0230  -30.0540   24.2780 O   0  0  0  0  0  0  0  0  0  0  0  0
  -25.8060  -28.1080   22.2550 C   0  0  0  0  0  0  0  0  0  0  0  0
  -24.4820  -28.1460   22.0230 N   0  0  0  0  0  0  0  0  0  0  0  0
  -26.3410  -27.1890   22.8820 O   0  0  0  0  0  0  0  0  0  0  0  0
  -24.1120  -28.9390   21.5160 H   0  0  0  0  0  0  0  0  0  0  0  0
  -20.9860  -27.2080   21.8690 C   0  0  0  0  0  0  0  0  0  0  0  0
  -23.5070  -27.1370   22.4460 C   0  0  0  0  0  3  0  0  0  0  0  0
  -23.5700  -25.8830   21.5420 C   0  0  0  0  0  2  0  0  0  0  0  0
  -22.5770  -25.9290   20.3750 C   0  0  0  0  0  2  0  0  0  0  0  0
  -21.1430  -26.0540   20.8940 C   0  0  0  0  0  2  0  0  0  0  0  0
  -22.0970  -27.7260   22.5860 C   0  0  0  0  0  0  0  0  0  0  0  0
  -21.8990  -28.8210   23.4550 C   0  0  0  0  0  3  0  0  0  0  0  0
  -20.6240  -29.3940   23.6130 C   0  0  0  0  0  3  0  0  0  0  0  0
  -19.5260  -28.8690   22.9090 C   0  0  0  0  0  3  0  0  0  0  0  0
  -19.7070  -27.7770   22.0430 C   0  0  0  0  0  3  0  0  0  0  0  0
  -29.4100  -29.9530   24.3820 C   0  0  0  0  0  3  0  0  0  0  0  0
  -29.3750  -31.2410   25.0940 N   0  0  0  0  0  0  0  0  0  0  0  0
  -29.9550  -32.3700   24.6650 C   0  0  0  0  0  0  0  0  0  0  0  0
  -30.6450  -32.4160   23.6420 O   0  0  0  0  0  0  0  0  0  0  0  0
  -28.7820  -31.2880   25.9100 H   0  0  0  0  0  0  0  0  0  0  0  0
  -28.6730  -34.5300   24.8330 C   0  0  0  0  0  1  0  0  0  0  0  0
  -29.7410  -33.6470   25.5010 C   0  0  0  0  0  3  0  0  0  0  0  0
  -31.9480  -33.7710   26.5700 C   0  0  0  0  0  1  0  0  0  0  0  0
  -30.9780  -34.4350   25.7030 N   0  0  0  0  0  0  0  0  0  0  0  0
  -30.7650  -35.3440   26.1020 H   0  0  0  0  0  0  0  0  0  0  0  0
  -29.7060  -28.7770   25.3920 C   0  0  1  0  0  0  0  0  0  0  0  0
  -28.5500  -28.5000   26.3820 C   0  0  0  0  0  1  0  0  0  0  0  0
  -30.0000  -27.4590   24.6390 C   0  0  0  0  0  1  0  0  0  0  0  0
  -30.9770  -29.1020   26.2120 C   0  0  0  0  0  1  0  0  0  0  0  0
  1  5  1  0
  3  1  2  0
  3  6  1  0
  4  2  1  0
  5  7  1  0
  5  2  2  0
  6  4  2  0
  7 12  1  0
  8  7  2  0
 32 11  1  1
 13 32  1  0
 14 17  1  0
 15 13  1  0
 17 16  1  0
 18 26  1  0
 19 24  1  0
 20 21  1  0
 20 19  1  0
 21 22  1  0
 22 31  1  0
 22 23  1  0
 24 23  1  0
 24 18  1  0
 25 18  2  0
 26 27  1  0
 26 17  1  0
 28 32  1  0
 29 30  2  0
 29 48  1  0
 31 28  1  0
 32 29  1  0
 33 34  1  0
 34 35  2  0
 36 39  1  0
 36 35  1  0
 37 36  2  0
 38 37  1  0
 38 33  2  0
 39 40  1  0
 40 41  1  0
 41 42  2  0
 43 42  1  0
 43 47  1  0
 44 43  2  0
 45 40  2  0
 45 44  1  0
 46 45  1  0
 48 49  1  0
 49 52  1  0
 49 51  1  0
 50 48  2  0
 53 54  1  0
 53 28  2  0
 55 53  1  0
 56 61  1  0
 56  6  1  0
 57 59  1  0
 57 56  1  0
 58 57  1  0
 60 57  1  0
 61 62  1  0
 62 64  1  0
 63 74  2  0
 64 69  1  0
 65 75  1  0
 65 73  1  0
 66 72  1  0
 66 68  1  0
 67 73  1  0
 68 67  1  0
 69 68  2  0
 70 71  1  0
 70 64  2  0
 71 66  2  0
 72 65  1  0
 73 63  1  0
 75 77  2  0
 76 75  1  0
 78 76  1  0
 79 88  2  0
 79 84  1  0
 80 76  1  0
 80 84  1  0
 81 80  1  0
 82 83  1  0
 82 81  1  0
 83 79  1  0
 84 85  2  0
 85 86  1  0
 87 86  2  0
 88 87  1  0
 89 63  1  0
 89 90  1  0
 89 99  1  0
 90 93  1  0
 91 90  1  0
 91 95  1  0
 92 91  2  0
 95 94  1  0
 95 97  1  0
 97 98  1  0
 97 96  1  0
 99102  1  1
 99100  1  0
101 99  1  0
M  ISO  4  18 100  26 100  61 101  62 101
M  END
>  <TORSDO>  (96) 
F 22

>  <SCORE>  (96) 
5.597

>  <name>  (96) 
97

>  <ligand_id>  (96) 
97

>  <original_smiles>  (96) 
[H]c1c([H])c([H])c2c(c1[H])C([H])([H])C([H])([H])C([H])([H])C2([H])N([H])C(=O)C1([H])N(C(=O)C([H])(N([H])C(=O)C([H])(N([H])C([H])([H])[H])C([H])([H])[H])C(C([H])([H])[H])(C([H])([H])[H])C([H])([H])[H])C([H])([H])c2c([H])c(OC([H])([H])C([H])(c3c([H])c([H])c(C(=O)c4c([H])c(C([H])([H])[H])c([H])c(C([H])(N([H])C(=O)N5C([H])([H])C([H])([H])C([H])([H])C([H])(n6nc(-c7c([H])c([H])c(Oc8c([H])c([H])c(F)c([H])c8F)c([H])c7[H])c(C(=O)N([H])[H])c6N([H])[H])C5([H])[H])C([H])([H])[H])c4[H])c([H])c3[H])[N+]([H])([H])[H])c([H])c([H])c2C1([H])[H]

>  <smiles>  (96) 
[H]c1c([H])c([H])c2c(c1[H])C([H])([H])C([H])([H])C([H])([H])C2([H])N([H])C(=O)C1([H])N(C(=O)C([H])(N([H])C(=O)C([H])(N([H])C([H])([H])[H])C([H])([H])[H])C(C([H])([H])[H])(C([H])([H])[H])C([H])([H])[H])C([H])([H])c2c([H])c(OC([H])([H])C([H])(c3c([H])c([H])c(C(=O)c4c([H])c(C([H])([H])[H])c([H])c(C([H])(N([H])C(=O)N5C([H])([H])C([H])([H])C([H])([H])C([H])(n6nc(-c7c([H])c([H])c(Oc8c([H])c([H])c(F)c([H])c8F)c([H])c7[H])c(C(=O)N([H])[H])c6N([H])[H])C5([H])[H])C([H])([H])[H])c4[H])c([H])c3[H])[N+]([H])([H])[H])c([H])c([H])c2C1([H])[H]

$$$$
98:0:0
     RDKit          3D

 97105  0  0  1  0  0  0  0  0999 V2000
  -31.1780  -21.2040   23.3520 C   0  0  0  0  0  3  0  0  0  0  0  0
  -31.3260  -19.8050   23.2970 C   0  0  0  0  0  3  0  0  0  0  0  0
  -29.9660  -21.1550   21.2480 C   0  0  0  0  0  3  0  0  0  0  0  0
  -30.4970  -21.8960   22.3300 C   0  0  0  0  0  0  0  0  0  0  0  0
  -30.8020  -19.0590   22.2170 C   0  0  0  0  0  0  0  0  0  0  0  0
  -30.1120  -19.7550   21.1900 C   0  0  0  0  0  0  0  0  0  0  0  0
  -30.2840  -23.3810   22.4450 C   0  0  0  0  0  0  0  0  0  0  0  0
  -30.0420  -24.0450   21.3090 N   0  0  0  0  0  0  0  0  0  0  0  0
  -30.3800  -23.9460   23.5370 O   0  0  0  0  0  0  0  0  0  0  0  0
  -30.0110  -23.5130   20.4510 H   0  0  0  0  0  0  0  0  0  0  0  0
  -29.8090  -25.4840   21.2360 C   0  0  0  0  0  2  0  0  0  0  0  0
  -28.8900  -25.8510   20.0610 C   0  0  0  0  0  2  0  0  0  0  0  0
  -28.8570  -27.2740   19.9630 O   0  0  0  0  0  0  0  0  0  0  0  0
  -24.6220  -31.9220   23.2420 C   0  0  0  0  0  0  0  0  0  0  0  0
  -27.6190  -27.8710   19.9800 C   0  0  0  0  0  0  0  0  0  0  0  0
  -23.5340  -30.5120   21.5230 C   0  0  0  0  0  3  0  0  0  0  0  0
  -25.1080  -29.1610   20.0400 C   0  0  0  0  0  0  0  0  0  0  0  0
  -26.0210  -31.0820   21.3590 C   0  0  0  0  0  2  0  0  0  0  0  0
  -26.2160  -29.7540   20.6580 C   0  0  0  0  0  0  0  0  0  0  0  0
  -27.4740  -29.1170   20.6220 C   0  0  0  0  0  3  0  0  0  0  0  0
  -26.4960  -27.2830   19.3550 C   0  0  0  0  0  3  0  0  0  0  0  0
  -25.2410  -27.9240   19.3860 C   0  0  0  0  0  3  0  0  0  0  0  0
  -23.8000  -29.9160   20.1150 C   0  0  0  0  0  2  0  0  0  0  0  0
  -24.7420  -31.1850   22.1020 N   0  0  0  0  0  0  0  0  0  0  0  0
  -23.5210  -32.0830   23.7860 O   0  0  0  0  0  0  0  0  0  0  0  0
  -22.9620  -29.3980   22.4300 C   0  0  0  0  0  0  0  0  0  0  0  0
  -21.6480  -29.1430   22.3080 N   0  0  0  0  0  0  0  0  0  0  0  0
  -23.6930  -28.7680   23.1970 O   0  0  0  0  0  0  0  0  0  0  0  0
  -21.1140  -29.7120   21.6640 H   0  0  0  0  0  0  0  0  0  0  0  0
  -18.3560  -27.7380   22.7800 C   0  0  0  0  0  0  0  0  0  0  0  0
  -20.9010  -28.1160   23.0280 C   0  0  0  0  0  3  0  0  0  0  0  0
  -21.0680  -26.7320   22.3580 C   0  0  0  0  0  2  0  0  0  0  0  0
  -19.9650  -26.4160   21.3430 C   0  0  0  0  0  2  0  0  0  0  0  0
  -18.5900  -26.4450   22.0170 C   0  0  0  0  0  2  0  0  0  0  0  0
  -19.4410  -28.5300   23.2410 C   0  0  0  0  0  0  0  0  0  0  0  0
  -19.1680  -29.7420   23.9120 C   0  0  0  0  0  3  0  0  0  0  0  0
  -17.8430  -30.1600   24.1300 C   0  0  0  0  0  3  0  0  0  0  0  0
  -16.7710  -29.3650   23.6870 C   0  0  0  0  0  3  0  0  0  0  0  0
  -17.0300  -28.1550   23.0170 C   0  0  0  0  0  3  0  0  0  0  0  0
  -25.8540  -32.6180   23.9010 C   0  0  0  0  0  3  0  0  0  0  0  0
  -25.4720  -34.0070   24.1920 N   0  0  0  0  0  0  0  0  0  0  0  0
  -25.8130  -35.0620   23.4420 C   0  0  0  0  0  0  0  0  0  0  0  0
  -26.5520  -34.9730   22.4570 O   0  0  0  0  0  0  0  0  0  0  0  0
  -24.8220  -34.1480   24.9510 H   0  0  0  0  0  0  0  0  0  0  0  0
  -24.0460  -36.7820   22.9500 C   0  0  0  0  0  1  0  0  0  0  0  0
  -25.2450  -36.4350   23.8470 C   0  0  0  0  0  3  0  0  0  0  0  0
  -27.2920  -37.4030   24.7970 C   0  0  0  0  0  1  0  0  0  0  0  0
  -26.2420  -37.5260   23.7880 N   0  0  0  0  0  0  0  0  0  0  0  0
  -25.7940  -38.4300   23.9060 H   0  0  0  0  0  0  0  0  0  0  0  0
  -26.3550  -31.8900   25.2070 C   0  0  1  0  0  0  0  0  0  0  0  0
  -25.2320  -31.6110   26.2330 C   0  0  0  0  0  1  0  0  0  0  0  0
  -27.0220  -30.5400   24.8550 C   0  0  0  0  0  1  0  0  0  0  0  0
  -27.4340  -32.7500   25.9060 C   0  0  0  0  0  1  0  0  0  0  0  0
  -29.5440  -19.0980   20.1380 O   0  0  0  0  0  0  0  0  0  0  0  0
  -29.5920  -18.1530   20.2160 H   0  0  0  0  0  0  0  0  0  0  0  0
  -30.5650  -16.9860   23.6170 C   0  0  0  0  0  1  0  0  0  0  0  0
  -30.9160  -17.5260   22.2220 C   0  0  0  0  0  3  0  0  0  0  0  0
  -32.2940  -16.9910   21.7550 C   0  0  0  0  0  2  0  0  0  0  0  0
  -32.3440  -16.5050   20.2930 C   0  0  0  0  0  2  0  0  0  0  0  0
  -31.8920  -14.2790   19.2700 C   0  0  0  0  0  0  0  0  0  0  0  0
  -31.4060  -11.9460   18.6250 C   0  0  0  0  0  2  0  0  0  0  0  0
  -30.3420  -11.8650   17.5140 C   0  0  0  0  0  2  0  0  0  0  0  0
  -28.9230  -11.8790   18.1110 C   0  0  0  0  0  2  0  0  0  0  0  0
  -28.7210  -13.0280   19.1340 C   0  0  0  0  0  3  0  0  0  0  0  0
  -29.8740  -13.0540   20.1590 C   0  0  0  0  0  2  0  0  0  0  0  0
  -31.1500  -13.1530   19.4230 N   0  0  0  0  0  0  0  0  0  0  0  0
  -32.8200  -14.3820   18.4620 O   0  0  0  0  0  0  0  0  0  0  0  0
  -31.5940  -15.2620   20.1260 N   0  0  0  0  0  0  0  0  0  0  0  0
  -30.8370  -15.0790   20.7680 H   0  0  0  0  0  0  0  0  0  0  0  0
  -26.5790  -13.9460   20.2300 C   0  0  0  0  0  0  0  0  0  0  0  0
  -25.4580  -13.3220   20.7100 C   0  0  0  0  0  0  0  0  0  0  0  0
  -25.6770  -11.9220   20.5270 C   0  0  0  0  0  0  0  0  0  0  0  0
  -27.4190  -12.9340   19.7920 N   0  0  0  0  0  0  0  0  0  0  0  0
  -26.8850  -11.7070   20.0240 N   0  0  0  0  0  0  0  0  0  0  0  0
  -24.7850  -10.7770   20.7510 C   0  0  0  0  0  0  0  0  0  0  0  0
  -25.1510   -9.7110   21.6010 C   0  0  0  0  0  3  0  0  0  0  0  0
  -24.2700   -8.6290   21.8120 C   0  0  0  0  0  3  0  0  0  0  0  0
  -23.0070   -8.6080   21.1750 C   0  0  0  0  0  0  0  0  0  0  0  0
  -22.6570   -9.6620   20.3110 C   0  0  0  0  0  3  0  0  0  0  0  0
  -23.5370  -10.7350   20.0980 C   0  0  0  0  0  3  0  0  0  0  0  0
  -22.0960   -7.5870   21.3010 O   0  0  0  0  0  0  0  0  0  0  0  0
  -21.9890   -6.8570   22.4580 C   0  0  0  0  0  0  0  0  0  0  0  0
  -21.7080   -7.4670   23.7000 C   0  0  0  0  0  3  0  0  0  0  0  0
  -21.5360   -6.6730   24.8510 C   0  0  0  0  0  3  0  0  0  0  0  0
  -21.6350   -5.2710   24.7610 C   0  0  0  0  0  0  0  0  0  0  0  0
  -21.9100   -4.6620   23.5240 C   0  0  0  0  0  3  0  0  0  0  0  0
  -22.0820   -5.4540   22.3750 C   0  0  0  0  0  0  0  0  0  0  0  0
  -22.3260   -4.8600   21.1820 F   0  0  0  0  0  0  0  0  0  0  0  0
  -21.4630   -4.5080   25.8660 F   0  0  0  0  0  0  0  0  0  0  0  0
  -24.2130  -13.9860   21.2220 C   0  0  0  0  0  0  0  0  0  0  0  0
  -23.5260  -13.3570   22.1690 N   0  0  0  0  0  0  0  0  0  0  0  0
  -23.8660  -15.0950   20.8160 O   0  0  0  0  0  0  0  0  0  0  0  0
  -23.8230  -12.4570   22.5160 H   0  0  0  0  0  0  0  0  0  0  0  0
  -22.6940  -13.7820   22.5520 H   0  0  0  0  0  0  0  0  0  0  0  0
  -26.9450  -15.2840   20.1110 N   0  0  0  0  0  0  0  0  0  0  0  0
  -26.3220  -16.0420   20.3650 H   0  0  0  0  0  0  0  0  0  0  0  0
  -27.8030  -15.6030   19.6770 H   0  0  0  0  0  0  0  0  0  0  0  0
  2  1  1  0
  3  4  1  0
  4  7  1  0
  4  1  2  0
  5 57  1  0
  5  2  2  0
  6  3  2  0
  6  5  1  0
  7  9  2  0
  8  7  1  0
 10  8  1  0
 11  8  1  0
 12 11  1  0
 13 15  1  0
 13 12  1  0
 14 25  2  0
 15 20  1  0
 16 24  1  0
 16 26  1  0
 17 23  1  0
 17 19  1  0
 18 24  1  0
 19 18  1  0
 20 19  2  0
 21 22  1  0
 21 15  2  0
 22 17  2  0
 23 16  1  0
 24 14  1  0
 26 28  2  0
 27 26  1  0
 29 27  1  0
 30 39  2  0
 30 35  1  0
 31 27  1  0
 31 35  1  0
 32 31  1  0
 33 34  1  0
 33 32  1  0
 34 30  1  0
 35 36  2  0
 36 37  1  0
 38 37  2  0
 39 38  1  0
 40 14  1  0
 40 41  1  0
 40 50  1  0
 41 44  1  0
 42 46  1  0
 42 41  1  0
 43 42  2  0
 46 45  1  0
 48 46  1  0
 48 49  1  0
 48 47  1  0
 50 53  1  1
 50 51  1  0
 52 50  1  0
 54 55  1  0
 54  6  1  0
 57 56  1  0
 58 57  1  0
 59 58  1  0
 60 66  1  0
 60 68  1  0
 61 66  1  0
 62 63  1  0
 62 61  1  0
 64 63  1  0
 64 73  1  0
 64 65  1  0
 66 65  1  0
 67 60  2  0
 68 59  1  0
 68 69  1  0
 70 71  2  0
 71 90  1  0
 72 71  1  0
 72 75  1  0
 73 74  1  0
 73 70  1  0
 74 72  2  0
 75 76  1  0
 76 77  2  0
 78 81  1  0
 78 77  1  0
 79 78  2  0
 80 79  1  0
 80 75  2  0
 81 82  1  0
 82 83  1  0
 83 84  2  0
 85 84  1  0
 85 89  1  0
 86 85  2  0
 87 82  2  0
 87 86  1  0
 88 87  1  0
 90 91  1  0
 91 93  1  0
 91 94  1  0
 92 90  2  0
 95 70  1  0
 95 96  1  0
 97 95  1  0
M  ISO  4  12 101  13 101  60 100  68 100
M  END
>  <TORSDO>  (97) 
F 23

>  <SCORE>  (97) 
-8.657

>  <name>  (97) 
98

>  <ligand_id>  (97) 
98

>  <original_smiles>  (97) 
[H]Oc1c([H])c(C(=O)N([H])C([H])([H])C([H])([H])Oc2c([H])c([H])c3c(c2[H])C([H])([H])N(C(=O)C([H])(N([H])C(=O)C([H])(N([H])C([H])([H])[H])C([H])([H])[H])C(C([H])([H])[H])(C([H])([H])[H])C([H])([H])[H])C([H])(C(=O)N([H])C2([H])c4c([H])c([H])c([H])c([H])c4C([H])([H])C([H])([H])C2([H])[H])C3([H])[H])c([H])c([H])c1C([H])(C([H])([H])[H])C([H])([H])C([H])([H])N([H])C(=O)N1C([H])([H])C([H])([H])C([H])([H])C([H])(n2nc(-c3c([H])c([H])c(Oc4c([H])c([H])c(F)c([H])c4F)c([H])c3[H])c(C(=O)N([H])[H])c2N([H])[H])C1([H])[H]

>  <smiles>  (97) 
[H]Oc1c([H])c(C(=O)N([H])C([H])([H])C([H])([H])Oc2c([H])c([H])c3c(c2[H])C([H])([H])N(C(=O)C([H])(N([H])C(=O)C([H])(N([H])C([H])([H])[H])C([H])([H])[H])C(C([H])([H])[H])(C([H])([H])[H])C([H])([H])[H])C([H])(C(=O)N([H])C2([H])c4c([H])c([H])c([H])c([H])c4C([H])([H])C([H])([H])C2([H])[H])C3([H])[H])c([H])c([H])c1C([H])(C([H])([H])[H])C([H])([H])C([H])([H])N([H])C(=O)N1C([H])([H])C([H])([H])C([H])([H])C([H])(n2nc(-c3c([H])c([H])c(Oc4c([H])c([H])c(F)c([H])c4F)c([H])c3[H])c(C(=O)N([H])[H])c2N([H])[H])C1([H])[H]

$$$$
