0:0:0
     RDKit          3D

101109  0  0  1  0  0  0  0  0999 V2000
  -30.3870  -22.0040   15.6770 N   0  0  0  0  0  4  0  0  0  0  0  0
  -30.9320  -22.5980   15.0720 H   0  0  0  0  0  0  0  0  0  0  0  0
  -29.5630  -22.5280   15.9220 H   0  0  0  0  0  0  0  0  0  0  0  0
  -31.2190  -21.7570   16.8740 C   0  0  0  0  0  2  0  0  0  0  0  0
  -31.9820  -24.6180   19.3240 C   0  0  0  0  0  3  0  0  0  0  0  0
  -29.6340  -24.0260   19.5210 C   0  0  0  0  0  3  0  0  0  0  0  0
  -32.1430  -23.6380   18.3230 C   0  0  0  0  0  3  0  0  0  0  0  0
  -29.7920  -23.0410   18.5320 C   0  0  0  0  0  3  0  0  0  0  0  0
  -30.7250  -24.8240   19.9300 C   0  0  0  0  0  0  0  0  0  0  0  0
  -31.0480  -22.8430   17.9220 C   0  0  0  0  0  0  0  0  0  0  0  0
  -30.5530  -25.8920   20.9310 C   0  0  0  0  0  3  0  0  0  0  0  0
  -29.4910  -26.7160   20.9960 C   0  0  0  0  0  3  0  0  0  0  0  0
  -28.5110  -26.6700   20.0420 O   0  0  0  0  0  0  0  0  0  0  0  0
  -24.6000  -31.7530   23.2180 C   0  0  0  0  0  0  0  0  0  0  0  0
  -27.3590  -27.4050   20.1520 C   0  0  0  0  0  0  0  0  0  0  0  0
  -23.4390  -30.3600   21.5330 C   0  0  0  0  0  3  0  0  0  0  0  0
  -24.9380  -28.8510   20.1320 C   0  0  0  0  0  0  0  0  0  0  0  0
  -25.9590  -30.7560   21.3870 C   0  0  0  0  0  2  0  0  0  0  0  0
  -26.0730  -29.3920   20.7470 C   0  0  0  0  0  0  0  0  0  0  0  0
  -27.2900  -28.6810   20.7560 C   0  0  0  0  0  3  0  0  0  0  0  0
  -26.2080  -26.8660   19.5440 C   0  0  0  0  0  3  0  0  0  0  0  0
  -24.9960  -27.5820   19.5290 C   0  0  0  0  0  3  0  0  0  0  0  0
  -23.6840  -29.6930   20.1520 C   0  0  0  0  0  2  0  0  0  0  0  0
  -24.6830  -30.9690   22.1060 N   0  0  0  0  0  0  0  0  0  0  0  0
  -23.5060  -32.0090   23.7390 O   0  0  0  0  0  0  0  0  0  0  0  0
  -22.7780  -29.3220   22.4670 C   0  0  0  0  0  0  0  0  0  0  0  0
  -21.4580  -29.1410   22.3150 N   0  0  0  0  0  0  0  0  0  0  0  0
  -23.4510  -28.6830   23.2810 O   0  0  0  0  0  0  0  0  0  0  0  0
  -20.9790  -29.7090   21.6290 H   0  0  0  0  0  0  0  0  0  0  0  0
  -18.0740  -27.9450   22.7330 C   0  0  0  0  0  0  0  0  0  0  0  0
  -20.6270  -28.1910   23.0540 C   0  0  0  0  0  3  0  0  0  0  0  0
  -20.7370  -26.7710   22.4540 C   0  0  0  0  0  2  0  0  0  0  0  0
  -19.6520  -26.4690   21.4160 C   0  0  0  0  0  2  0  0  0  0  0  0
  -18.2600  -26.6060   22.0390 C   0  0  0  0  0  2  0  0  0  0  0  0
  -19.1870  -28.6970   23.1950 C   0  0  0  0  0  0  0  0  0  0  0  0
  -18.9610  -29.9520   23.8010 C   0  0  0  0  0  3  0  0  0  0  0  0
  -17.6550  -30.4540   23.9520 C   0  0  0  0  0  3  0  0  0  0  0  0
  -16.5560  -29.6990   23.5060 C   0  0  0  0  0  3  0  0  0  0  0  0
  -16.7670  -28.4460   22.9030 C   0  0  0  0  0  3  0  0  0  0  0  0
  -25.8700  -32.3820   23.8730 C   0  0  0  0  0  3  0  0  0  0  0  0
  -25.5410  -33.7700   24.2260 N   0  0  0  0  0  0  0  0  0  0  0  0
  -25.9050  -34.8420   23.5090 C   0  0  0  0  0  0  0  0  0  0  0  0
  -26.6240  -34.7660   22.5090 O   0  0  0  0  0  0  0  0  0  0  0  0
  -24.9080  -33.9020   25.0010 H   0  0  0  0  0  0  0  0  0  0  0  0
  -24.2020  -36.6450   23.1030 C   0  0  0  0  0  1  0  0  0  0  0  0
  -25.3900  -36.2150   23.9780 C   0  0  0  0  0  3  0  0  0  0  0  0
  -27.4700  -37.0690   24.9660 C   0  0  0  0  0  1  0  0  0  0  0  0
  -26.4290  -37.2690   23.9610 N   0  0  0  0  0  0  0  0  0  0  0  0
  -26.0150  -38.1850   24.1120 H   0  0  0  0  0  0  0  0  0  0  0  0
  -26.3760  -31.5870   25.1370 C   0  0  1  0  0  0  0  0  0  0  0  0
  -25.2660  -31.2890   26.1710 C   0  0  0  0  0  1  0  0  0  0  0  0
  -27.0030  -30.2380   24.7140 C   0  0  0  0  0  1  0  0  0  0  0  0
  -27.4920  -32.3900   25.8490 C   0  0  0  0  0  1  0  0  0  0  0  0
  -30.0180  -20.7910   14.9090 C   0  0  0  0  0  2  0  0  0  0  0  0
  -28.6660  -20.1470   15.3180 C   0  0  0  0  0  2  0  0  0  0  0  0
  -28.5030  -19.6210   16.7670 C   0  0  0  0  0  2  0  0  0  0  0  0
  -29.3170  -18.4200   17.0800 N   0  0  0  0  0  4  0  0  0  0  0  0
  -29.1890  -17.7370   16.3480 H   0  0  0  0  0  0  0  0  0  0  0  0
  -30.2950  -18.6490   17.1050 H   0  0  0  0  0  0  0  0  0  0  0  0
  -28.9640  -17.7780   18.3660 C   0  0  0  0  0  2  0  0  0  0  0  0
  -30.0170  -16.7450   18.8140 C   0  0  0  0  0  2  0  0  0  0  0  0
  -31.0530  -17.2710   19.8390 C   0  0  0  0  0  2  0  0  0  0  0  0
  -30.8280  -16.8150   21.3050 C   0  0  0  0  0  2  0  0  0  0  0  0
  -31.2430  -14.3500   21.0870 C   0  0  0  0  0  0  0  0  0  0  0  0
  -30.9290  -12.2790   19.8090 C   0  0  0  0  0  2  0  0  0  0  0  0
  -30.0980  -12.6380   18.5590 C   0  0  0  0  0  2  0  0  0  0  0  0
  -28.5870  -12.5720   18.8660 C   0  0  0  0  0  2  0  0  0  0  0  0
  -28.2020  -13.3400   20.1590 C   0  0  0  0  0  3  0  0  0  0  0  0
  -29.1540  -12.9690   21.3200 C   0  0  0  0  0  2  0  0  0  0  0  0
  -30.5370  -13.2130   20.8730 N   0  0  0  0  0  0  0  0  0  0  0  0
  -32.4260  -14.4930   20.7660 O   0  0  0  0  0  0  0  0  0  0  0  0
  -30.4870  -15.3960   21.4430 N   0  0  0  0  0  0  0  0  0  0  0  0
  -29.5320  -15.1830   21.6940 H   0  0  0  0  0  0  0  0  0  0  0  0
  -25.7940  -14.0720   20.7080 C   0  0  0  0  0  0  0  0  0  0  0  0
  -24.6550  -13.3490   20.9430 C   0  0  0  0  0  0  0  0  0  0  0  0
  -25.0360  -11.9760   20.8640 C   0  0  0  0  0  0  0  0  0  0  0  0
  -26.8010  -13.1350   20.5100 N   0  0  0  0  0  0  0  0  0  0  0  0
  -26.3410  -11.8680   20.6570 N   0  0  0  0  0  0  0  0  0  0  0  0
  -24.2230  -10.7550   20.9160 C   0  0  0  0  0  0  0  0  0  0  0  0
  -24.5210   -9.7100   21.8150 C   0  0  0  0  0  3  0  0  0  0  0  0
  -23.7140   -8.5510   21.8590 C   0  0  0  0  0  3  0  0  0  0  0  0
  -22.5980   -8.4330   20.9980 C   0  0  0  0  0  0  0  0  0  0  0  0
  -22.3200   -9.4680   20.0860 C   0  0  0  0  0  3  0  0  0  0  0  0
  -23.1260  -10.6180   20.0410 C   0  0  0  0  0  3  0  0  0  0  0  0
  -21.7720   -7.3360   20.9530 O   0  0  0  0  0  0  0  0  0  0  0  0
  -21.5590   -6.5500   22.0580 C   0  0  0  0  0  0  0  0  0  0  0  0
  -21.0240   -7.0740   23.2540 C   0  0  0  0  0  3  0  0  0  0  0  0
  -20.7570   -6.2170   24.3410 C   0  0  0  0  0  3  0  0  0  0  0  0
  -21.0160   -4.8380   24.2290 C   0  0  0  0  0  0  0  0  0  0  0  0
  -21.5430   -4.3130   23.0360 C   0  0  0  0  0  3  0  0  0  0  0  0
  -21.8110   -5.1660   21.9530 C   0  0  0  0  0  0  0  0  0  0  0  0
  -22.3000   -4.6530   20.7980 F   0  0  0  0  0  0  0  0  0  0  0  0
  -20.7530   -4.0130   25.2700 F   0  0  0  0  0  0  0  0  0  0  0  0
  -23.2720  -13.9000   21.1350 C   0  0  0  0  0  0  0  0  0  0  0  0
  -22.4420  -13.2100   21.9090 N   0  0  0  0  0  0  0  0  0  0  0  0
  -22.9350  -14.9740   20.6380 O   0  0  0  0  0  0  0  0  0  0  0  0
  -22.7230  -12.3390   22.3350 H   0  0  0  0  0  0  0  0  0  0  0  0
  -21.5090  -13.5580   22.0780 H   0  0  0  0  0  0  0  0  0  0  0  0
  -26.0540  -15.4370   20.6280 N   0  0  0  0  0  0  0  0  0  0  0  0
  -25.3170  -16.1260   20.7250 H   0  0  0  0  0  0  0  0  0  0  0  0
  -26.9520  -15.8480   20.4150 H   0  0  0  0  0  0  0  0  0  0  0  0
  1  3  1  0
  1  4  1  0
  2  1  1  0
  4 10  1  0
  5  9  1  0
  6  9  2  0
  7  5  2  0
  8  6  1  0
  9 11  1  0
 10  7  1  0
 10  8  2  0
 11 12  2  0
 13 15  1  0
 13 12  1  0
 14 25  2  0
 15 20  1  0
 16 24  1  0
 16 26  1  0
 17 23  1  0
 17 19  1  0
 18 24  1  0
 19 20  2  0
 19 18  1  0
 21 15  2  0
 22 21  1  0
 22 17  2  0
 23 16  1  0
 24 14  1  0
 26 28  2  0
 27 26  1  0
 29 27  1  0
 30 39  2  0
 30 35  1  0
 31 27  1  0
 31 35  1  0
 32 31  1  0
 33 34  1  0
 33 32  1  0
 34 30  1  0
 35 36  2  0
 36 37  1  0
 38 37  2  0
 39 38  1  0
 40 14  1  0
 40 41  1  0
 40 50  1  0
 41 44  1  0
 42 46  1  0
 42 41  1  0
 43 42  2  0
 46 45  1  0
 48 46  1  0
 48 49  1  0
 48 47  1  0
 50 53  1  1
 50 51  1  0
 52 50  1  0
 54 55  1  0
 54  1  1  0
 55 56  1  0
 56 57  1  0
 57 59  1  0
 57 60  1  0
 58 57  1  0
 60 61  1  0
 61 62  1  0
 62 63  1  0
 63 72  1  0
 64 72  1  0
 65 70  1  0
 66 67  1  0
 66 65  1  0
 68 67  1  0
 68 77  1  0
 68 69  1  0
 70 64  1  0
 70 69  1  0
 71 64  2  0
 72 73  1  0
 74 75  2  0
 75 94  1  0
 76 79  1  0
 76 75  1  0
 77 78  1  0
 77 74  1  0
 78 76  2  0
 79 80  1  0
 80 81  2  0
 82 81  1  0
 83 82  2  0
 84 83  1  0
 84 79  2  0
 85 82  1  0
 85 86  1  0
 86 87  1  0
 87 88  2  0
 89 88  1  0
 89 93  1  0
 90 89  2  0
 91 86  2  0
 91 90  1  0
 92 91  1  0
 94 95  1  0
 95 98  1  0
 95 97  1  0
 96 94  2  0
 99 74  1  0
 99100  1  0
101 99  1  0
M  ISO  4  12 101  13 101  64 100  72 100
M  END
>  <TORSDO>  (1) 
F 27

>  <SCORE>  (1) 
-10.524

>  <name>  (1) 
0

>  <ligand_id>  (1) 
0

>  <original_smiles>  (1) 
[H]C(Oc1c([H])c([H])c2c(c1[H])C([H])([H])N(C(=O)C([H])(N([H])C(=O)C([H])(N([H])C([H])([H])[H])C([H])([H])[H])C(C([H])([H])[H])(C([H])([H])[H])C([H])([H])[H])C([H])(C(=O)N([H])C1([H])c3c([H])c([H])c([H])c([H])c3C([H])([H])C([H])([H])C1([H])[H])C2([H])[H])=C([H])c1c([H])c([H])c(C([H])([H])[N+]([H])([H])C([H])([H])C([H])([H])C([H])([H])[N+]([H])([H])C([H])([H])C([H])([H])C([H])([H])C([H])([H])N([H])C(=O)N2C([H])([H])C([H])([H])C([H])([H])C([H])(n3nc(-c4c([H])c([H])c(Oc5c([H])c([H])c(F)c([H])c5F)c([H])c4[H])c(C(=O)N([H])[H])c3N([H])[H])C2([H])[H])c([H])c1[H]

>  <smiles>  (1) 
[H]C(Oc1c([H])c([H])c2c(c1[H])C([H])([H])N(C(=O)C([H])(N([H])C(=O)C([H])(N([H])C([H])([H])[H])C([H])([H])[H])C(C([H])([H])[H])(C([H])([H])[H])C([H])([H])[H])C([H])(C(=O)N([H])C1([H])c3c([H])c([H])c([H])c([H])c3C([H])([H])C([H])([H])C1([H])[H])C2([H])[H])=C([H])c1c([H])c([H])c(C([H])([H])[N+]([H])([H])C([H])([H])C([H])([H])C([H])([H])[N+]([H])([H])C([H])([H])C([H])([H])C([H])([H])C([H])([H])N([H])C(=O)N2C([H])([H])C([H])([H])C([H])([H])C([H])(n3nc(-c4c([H])c([H])c(Oc5c([H])c([H])c(F)c([H])c5F)c([H])c4[H])c(C(=O)N([H])[H])c3N([H])[H])C2([H])[H])c([H])c1[H]

$$$$
1:0:0
     RDKit          3D

102110  0  0  1  0  0  0  0  0999 V2000
  -32.4940  -21.4180   20.7500 C   0  0  0  0  0  3  0  0  0  0  0  0
  -30.5770  -22.8310   21.2490 C   0  0  0  0  0  3  0  0  0  0  0  0
  -32.5620  -21.0390   22.1040 C   0  0  0  0  0  3  0  0  0  0  0  0
  -30.6120  -22.4090   22.5920 C   0  0  0  0  0  3  0  0  0  0  0  0
  -31.5220  -22.3430   20.3230 C   0  0  0  0  0  0  0  0  0  0  0  0
  -31.6220  -21.5310   23.0360 C   0  0  0  0  0  0  0  0  0  0  0  0
  -31.5290  -22.8530   18.9170 C   0  0  0  0  0  0  0  0  0  0  0  0
  -31.9020  -24.1320   18.8260 N   0  0  0  0  0  0  0  0  0  0  0  0
  -31.2080  -22.1430   17.9640 O   0  0  0  0  0  0  0  0  0  0  0  0
  -32.1880  -24.5640   19.6940 H   0  0  0  0  0  0  0  0  0  0  0  0
  -31.8280  -25.0000   17.6560 C   0  0  0  0  0  2  0  0  0  0  0  0
  -30.6650  -25.9990   17.7850 C   0  0  0  0  0  2  0  0  0  0  0  0
  -30.5670  -26.6590   19.1750 C   0  0  0  0  0  2  0  0  0  0  0  0
  -29.3610  -27.5830   19.3220 C   0  0  0  0  0  2  0  0  0  0  0  0
  -28.1420  -26.8410   19.2200 O   0  0  0  0  0  0  0  0  0  0  0  0
  -24.4640  -31.6510   22.9800 C   0  0  0  0  0  0  0  0  0  0  0  0
  -26.9770  -27.5540   19.4070 C   0  0  0  0  0  0  0  0  0  0  0  0
  -23.1700  -30.3940   21.2780 C   0  0  0  0  0  3  0  0  0  0  0  0
  -24.5510  -28.9830   19.6630 C   0  0  0  0  0  0  0  0  0  0  0  0
  -25.6710  -30.7930   20.9840 C   0  0  0  0  0  2  0  0  0  0  0  0
  -25.7230  -29.4810   20.2380 C   0  0  0  0  0  0  0  0  0  0  0  0
  -26.9300  -28.7770   20.1170 C   0  0  0  0  0  3  0  0  0  0  0  0
  -25.7840  -27.0460   18.8500 C   0  0  0  0  0  3  0  0  0  0  0  0
  -24.5700  -27.7580   18.9690 C   0  0  0  0  0  3  0  0  0  0  0  0
  -23.3090  -29.8260   19.8370 C   0  0  0  0  0  2  0  0  0  0  0  0
  -24.4570  -30.9540   21.8080 N   0  0  0  0  0  0  0  0  0  0  0  0
  -23.4150  -31.8730   23.5980 O   0  0  0  0  0  0  0  0  0  0  0  0
  -22.5680  -29.2960   22.1810 C   0  0  0  0  0  0  0  0  0  0  0  0
  -21.2320  -29.1540   22.1300 N   0  0  0  0  0  0  0  0  0  0  0  0
  -23.2900  -28.5790   22.8790 O   0  0  0  0  0  0  0  0  0  0  0  0
  -20.7140  -29.7870   21.5370 H   0  0  0  0  0  0  0  0  0  0  0  0
  -17.8690  -27.9920   22.7340 C   0  0  0  0  0  0  0  0  0  0  0  0
  -20.4440  -28.1620   22.8570 C   0  0  0  0  0  3  0  0  0  0  0  0
  -20.4680  -26.7950   22.1330 C   0  0  0  0  0  2  0  0  0  0  0  0
  -19.2920  -26.6020   21.1700 C   0  0  0  0  0  2  0  0  0  0  0  0
  -17.9600  -26.7140   21.9200 C   0  0  0  0  0  2  0  0  0  0  0  0
  -19.0350  -28.6810   23.1620 C   0  0  0  0  0  0  0  0  0  0  0  0
  -18.8930  -29.8840   23.8860 C   0  0  0  0  0  3  0  0  0  0  0  0
  -17.6170  -30.3970   24.1860 C   0  0  0  0  0  3  0  0  0  0  0  0
  -16.4660  -29.7020   23.7780 C   0  0  0  0  0  3  0  0  0  0  0  0
  -16.5940  -28.5010   23.0560 C   0  0  0  0  0  3  0  0  0  0  0  0
  -25.7860  -32.2180   23.5900 C   0  0  0  0  0  3  0  0  0  0  0  0
  -25.5080  -33.5810   24.0560 N   0  0  0  0  0  0  0  0  0  0  0  0
  -25.8370  -34.6940   23.3860 C   0  0  0  0  0  0  0  0  0  0  0  0
  -26.4800  -34.6780   22.3340 O   0  0  0  0  0  0  0  0  0  0  0  0
  -24.9350  -33.6690   24.8830 H   0  0  0  0  0  0  0  0  0  0  0  0
  -24.1230  -36.5270   23.2390 C   0  0  0  0  0  1  0  0  0  0  0  0
  -25.3790  -36.0410   23.9800 C   0  0  0  0  0  3  0  0  0  0  0  0
  -27.5410  -36.8260   24.8370 C   0  0  0  0  0  1  0  0  0  0  0  0
  -26.4230  -37.0870   23.9340 N   0  0  0  0  0  0  0  0  0  0  0  0
  -26.0320  -37.9960   24.1680 H   0  0  0  0  0  0  0  0  0  0  0  0
  -26.3660  -31.3310   24.7600 C   0  0  1  0  0  0  0  0  0  0  0  0
  -25.3330  -31.0090   25.8650 C   0  0  0  0  0  1  0  0  0  0  0  0
  -26.9040  -29.9900   24.2100 C   0  0  0  0  0  1  0  0  0  0  0  0
  -27.5650  -32.0530   25.4200 C   0  0  0  0  0  1  0  0  0  0  0  0
  -31.9150  -22.4260   25.3780 C   0  0  0  0  0  1  0  0  0  0  0  0
  -31.7430  -21.1630   24.5140 C   0  0  0  0  0  3  0  0  0  0  0  0
  -30.5910  -20.2720   25.0420 C   0  0  0  0  0  2  0  0  0  0  0  0
  -29.9370  -19.2810   24.0500 C   0  0  0  0  0  2  0  0  0  0  0  0
  -30.8900  -18.3620   23.3750 N   0  0  0  0  0  4  0  0  0  0  0  0
  -31.6340  -18.1270   24.0110 H   0  0  0  0  0  0  0  0  0  0  0  0
  -31.2980  -18.8390   22.5910 H   0  0  0  0  0  0  0  0  0  0  0  0
  -30.2710  -17.1020   22.8900 C   0  0  0  0  0  2  0  0  0  0  0  0
  -30.9710  -16.5040   21.6430 C   0  0  0  0  0  2  0  0  0  0  0  0
  -30.4140  -14.6900   19.9650 C   0  0  0  0  0  0  0  0  0  0  0  0
  -30.0420  -12.5490   18.7760 C   0  0  0  0  0  2  0  0  0  0  0  0
  -28.9790  -12.6320   17.6650 C   0  0  0  0  0  2  0  0  0  0  0  0
  -27.5830  -12.3540   18.2460 C   0  0  0  0  0  2  0  0  0  0  0  0
  -27.2890  -13.2310   19.4860 C   0  0  0  0  0  3  0  0  0  0  0  0
  -28.4530  -13.2050   20.5080 C   0  0  0  0  0  2  0  0  0  0  0  0
  -29.7210  -13.5280   19.8270 N   0  0  0  0  0  0  0  0  0  0  0  0
  -31.2250  -15.0970   19.1300 O   0  0  0  0  0  0  0  0  0  0  0  0
  -30.2770  -15.2930   21.1650 N   0  0  0  0  0  0  0  0  0  0  0  0
  -29.6690  -14.8290   21.8250 H   0  0  0  0  0  0  0  0  0  0  0  0
  -24.9830  -13.6840   20.5400 C   0  0  0  0  0  0  0  0  0  0  0  0
  -23.9990  -12.8430   20.9780 C   0  0  0  0  0  0  0  0  0  0  0  0
  -24.4970  -11.5190   20.7930 C   0  0  0  0  0  0  0  0  0  0  0  0
  -26.0180  -12.8670   20.1080 N   0  0  0  0  0  0  0  0  0  0  0  0
  -25.7370  -11.5560   20.3210 N   0  0  0  0  0  0  0  0  0  0  0  0
  -23.8410  -10.2180   20.9860 C   0  0  0  0  0  0  0  0  0  0  0  0
  -24.3470   -9.2660   21.8990 C   0  0  0  0  0  3  0  0  0  0  0  0
  -23.6900   -8.0310   22.0820 C   0  0  0  0  0  3  0  0  0  0  0  0
  -22.5100   -7.7370   21.3560 C   0  0  0  0  0  0  0  0  0  0  0  0
  -22.0210   -8.6800   20.4360 C   0  0  0  0  0  3  0  0  0  0  0  0
  -22.6780   -9.9080   20.2500 C   0  0  0  0  0  3  0  0  0  0  0  0
  -21.8250   -6.5490   21.4510 O   0  0  0  0  0  0  0  0  0  0  0  0
  -21.7560   -5.8480   22.6290 C   0  0  0  0  0  0  0  0  0  0  0  0
  -21.2100   -6.4120   23.8020 C   0  0  0  0  0  3  0  0  0  0  0  0
  -21.0890   -5.6300   24.9690 C   0  0  0  0  0  3  0  0  0  0  0  0
  -21.5070   -4.2870   24.9640 C   0  0  0  0  0  0  0  0  0  0  0  0
  -22.0510   -3.7210   23.7970 C   0  0  0  0  0  3  0  0  0  0  0  0
  -22.1680   -4.4980   22.6310 C   0  0  0  0  0  0  0  0  0  0  0  0
  -22.6700   -3.9410   21.5020 F   0  0  0  0  0  0  0  0  0  0  0  0
  -21.3880   -3.5360   26.0830 F   0  0  0  0  0  0  0  0  0  0  0  0
  -22.6320  -13.2400   21.4590 C   0  0  0  0  0  0  0  0  0  0  0  0
  -22.0570  -12.4640   22.3680 N   0  0  0  0  0  0  0  0  0  0  0  0
  -22.0910  -14.2740   21.0680 O   0  0  0  0  0  0  0  0  0  0  0  0
  -22.5120  -11.6270   22.7000 H   0  0  0  0  0  0  0  0  0  0  0  0
  -21.1440  -12.7050   22.7260 H   0  0  0  0  0  0  0  0  0  0  0  0
  -25.0670  -15.0700   20.4500 N   0  0  0  0  0  0  0  0  0  0  0  0
  -24.2940  -15.6640   20.7400 H   0  0  0  0  0  0  0  0  0  0  0  0
  -25.8290  -15.5890   20.0350 H   0  0  0  0  0  0  0  0  0  0  0  0
  1  3  1  0
  2  4  2  0
  3  6  2  0
  4  6  1  0
  5  1  2  0
  5  2  1  0
  6 57  1  0
  7  5  1  0
  8  7  1  0
  8 10  1  0
  9  7  2  0
 11 12  1  0
 11  8  1  0
 12 13  1  0
 13 14  1  0
 15 14  1  0
 15 17  1  0
 16 27  2  0
 17 22  1  0
 18 26  1  0
 18 28  1  0
 19 25  1  0
 19 21  1  0
 20 26  1  0
 21 20  1  0
 22 21  2  0
 23 24  1  0
 23 17  2  0
 24 19  2  0
 25 18  1  0
 26 16  1  0
 28 30  2  0
 29 28  1  0
 31 29  1  0
 32 41  2  0
 32 37  1  0
 33 29  1  0
 33 37  1  0
 34 33  1  0
 35 36  1  0
 35 34  1  0
 36 32  1  0
 37 38  2  0
 38 39  1  0
 40 39  2  0
 41 40  1  0
 42 16  1  0
 42 43  1  0
 42 52  1  0
 43 46  1  0
 44 48  1  0
 44 43  1  0
 45 44  2  0
 48 47  1  0
 50 48  1  0
 50 51  1  0
 50 49  1  0
 52 55  1  1
 52 53  1  0
 54 52  1  0
 57 58  1  0
 57 56  1  0
 59 58  1  0
 60 61  1  0
 60 59  1  0
 62 60  1  0
 63 60  1  0
 64 63  1  0
 65 73  1  0
 66 71  1  0
 67 68  1  0
 67 66  1  0
 69 68  1  0
 69 78  1  0
 69 70  1  0
 71 65  1  0
 71 70  1  0
 72 65  2  0
 73 64  1  0
 73 74  1  0
 75 76  2  0
 76 95  1  0
 77 76  1  0
 77 80  1  0
 78 79  1  0
 78 75  1  0
 79 77  2  0
 80 81  1  0
 81 82  2  0
 83 86  1  0
 83 82  1  0
 84 83  2  0
 85 84  1  0
 85 80  2  0
 86 87  1  0
 87 92  2  0
 87 88  1  0
 88 89  2  0
 90 89  1  0
 90 94  1  0
 91 90  2  0
 92 91  1  0
 93 92  1  0
 95 96  1  0
 96 98  1  0
 96 99  1  0
 97 95  2  0
100 75  1  0
100101  1  0
102100  1  0
M  ISO  4  14 101  15 101  65 100  73 100
M  END
>  <TORSDO>  (2) 
F 27

>  <SCORE>  (2) 
-7.841

>  <name>  (2) 
1

>  <ligand_id>  (2) 
1

>  <original_smiles>  (2) 
[H]c1c([H])c([H])c2c(c1[H])C([H])([H])C([H])([H])C([H])([H])C2([H])N([H])C(=O)C1([H])N(C(=O)C([H])(N([H])C(=O)C([H])(N([H])C([H])([H])[H])C([H])([H])[H])C(C([H])([H])[H])(C([H])([H])[H])C([H])([H])[H])C([H])([H])c2c([H])c(OC([H])([H])C([H])([H])C([H])([H])C([H])([H])N([H])C(=O)c3c([H])c([H])c(C([H])(C([H])([H])[H])C([H])([H])C([H])([H])[N+]([H])([H])C([H])([H])C([H])([H])N([H])C(=O)N4C([H])([H])C([H])([H])C([H])([H])C([H])(n5nc(-c6c([H])c([H])c(Oc7c([H])c([H])c(F)c([H])c7F)c([H])c6[H])c(C(=O)N([H])[H])c5N([H])[H])C4([H])[H])c([H])c3[H])c([H])c([H])c2C1([H])[H]

>  <smiles>  (2) 
[H]c1c([H])c([H])c2c(c1[H])C([H])([H])C([H])([H])C([H])([H])C2([H])N([H])C(=O)C1([H])N(C(=O)C([H])(N([H])C(=O)C([H])(N([H])C([H])([H])[H])C([H])([H])[H])C(C([H])([H])[H])(C([H])([H])[H])C([H])([H])[H])C([H])([H])c2c([H])c(OC([H])([H])C([H])([H])C([H])([H])C([H])([H])N([H])C(=O)c3c([H])c([H])c(C([H])(C([H])([H])[H])C([H])([H])C([H])([H])[N+]([H])([H])C([H])([H])C([H])([H])N([H])C(=O)N4C([H])([H])C([H])([H])C([H])([H])C([H])(n5nc(-c6c([H])c([H])c(Oc7c([H])c([H])c(F)c([H])c7F)c([H])c6[H])c(C(=O)N([H])[H])c5N([H])[H])C4([H])[H])c([H])c3[H])c([H])c([H])c2C1([H])[H]

$$$$
2:0:0
     RDKit          3D

102110  0  0  1  0  0  0  0  0999 V2000
  -32.3940  -22.4610   20.8740 C   0  0  0  0  0  3  0  0  0  0  0  0
  -32.2350  -21.1340   21.3050 C   0  0  0  0  0  3  0  0  0  0  0  0
  -32.9420  -21.6650   18.6390 C   0  0  0  0  0  3  0  0  0  0  0  0
  -32.7350  -22.7390   19.5320 C   0  0  0  0  0  0  0  0  0  0  0  0
  -32.3830  -20.0590   20.4020 C   0  0  0  0  0  0  0  0  0  0  0  0
  -32.7790  -20.3300   19.0640 C   0  0  0  0  0  0  0  0  0  0  0  0
  -32.7980  -24.1550   19.0360 C   0  0  0  0  0  0  0  0  0  0  0  0
  -33.1640  -25.0610   19.9470 N   0  0  0  0  0  0  0  0  0  0  0  0
  -32.5270  -24.4370   17.8680 O   0  0  0  0  0  0  0  0  0  0  0  0
  -33.4450  -24.7120   20.8530 H   0  0  0  0  0  0  0  0  0  0  0  0
  -33.0510  -26.5050   19.7970 C   0  0  0  0  0  2  0  0  0  0  0  0
  -31.5910  -26.9870   19.9200 C   0  0  0  0  0  2  0  0  0  0  0  0
  -30.8160  -26.4140   21.1240 C   0  0  0  0  0  2  0  0  0  0  0  0
  -29.4980  -27.1540   21.3620 C   0  0  0  0  0  2  0  0  0  0  0  0
  -28.4900  -26.7550   20.4260 O   0  0  0  0  0  0  0  0  0  0  0  0
  -24.5610  -31.9590   23.2820 C   0  0  0  0  0  0  0  0  0  0  0  0
  -27.3210  -27.4890   20.4170 C   0  0  0  0  0  0  0  0  0  0  0  0
  -23.3900  -30.5110   21.6430 C   0  0  0  0  0  3  0  0  0  0  0  0
  -24.8860  -28.9330   20.3030 C   0  0  0  0  0  0  0  0  0  0  0  0
  -25.9050  -30.8890   21.4880 C   0  0  0  0  0  2  0  0  0  0  0  0
  -26.0110  -29.4980   20.9100 C   0  0  0  0  0  0  0  0  0  0  0  0
  -27.2160  -28.7840   20.9800 C   0  0  0  0  0  3  0  0  0  0  0  0
  -26.1790  -26.9280   19.8050 C   0  0  0  0  0  3  0  0  0  0  0  0
  -24.9600  -27.6400   19.7500 C   0  0  0  0  0  3  0  0  0  0  0  0
  -23.6330  -29.7810   20.2890 C   0  0  0  0  0  2  0  0  0  0  0  0
  -24.6340  -31.1360   22.1980 N   0  0  0  0  0  0  0  0  0  0  0  0
  -23.4690  -32.2460   23.7910 O   0  0  0  0  0  0  0  0  0  0  0  0
  -22.7190  -29.5200   22.6170 C   0  0  0  0  0  0  0  0  0  0  0  0
  -21.3970  -29.3460   22.4700 N   0  0  0  0  0  0  0  0  0  0  0  0
  -23.3840  -28.9090   23.4570 O   0  0  0  0  0  0  0  0  0  0  0  0
  -20.9230  -29.8910   21.7630 H   0  0  0  0  0  0  0  0  0  0  0  0
  -18.0010  -28.2200   22.9430 C   0  0  0  0  0  0  0  0  0  0  0  0
  -20.5590  -28.4330   23.2450 C   0  0  0  0  0  3  0  0  0  0  0  0
  -20.6430  -26.9940   22.6880 C   0  0  0  0  0  2  0  0  0  0  0  0
  -19.5470  -26.6770   21.6640 C   0  0  0  0  0  2  0  0  0  0  0  0
  -18.1610  -26.8570   22.2900 C   0  0  0  0  0  2  0  0  0  0  0  0
  -19.1280  -28.9660   23.3770 C   0  0  0  0  0  0  0  0  0  0  0  0
  -18.9270  -30.2430   23.9450 C   0  0  0  0  0  3  0  0  0  0  0  0
  -17.6300  -30.7720   24.0840 C   0  0  0  0  0  3  0  0  0  0  0  0
  -16.5170  -30.0220   23.6670 C   0  0  0  0  0  3  0  0  0  0  0  0
  -16.7030  -28.7480   23.1020 C   0  0  0  0  0  3  0  0  0  0  0  0
  -25.8360  -32.6010   23.9160 C   0  0  0  0  0  3  0  0  0  0  0  0
  -25.5230  -34.0040   24.2150 N   0  0  0  0  0  0  0  0  0  0  0  0
  -25.8850  -35.0430   23.4510 C   0  0  0  0  0  0  0  0  0  0  0  0
  -26.5920  -34.9210   22.4460 O   0  0  0  0  0  0  0  0  0  0  0  0
  -24.9010  -34.1740   24.9920 H   0  0  0  0  0  0  0  0  0  0  0  0
  -24.1840  -36.8360   22.9960 C   0  0  0  0  0  1  0  0  0  0  0  0
  -25.3860  -36.4390   23.8680 C   0  0  0  0  0  3  0  0  0  0  0  0
  -27.4880  -37.3230   24.7770 C   0  0  0  0  0  1  0  0  0  0  0  0
  -26.4280  -37.4840   23.7840 N   0  0  0  0  0  0  0  0  0  0  0  0
  -26.0220  -38.4090   23.9010 H   0  0  0  0  0  0  0  0  0  0  0  0
  -26.3350  -31.8500   25.2110 C   0  0  1  0  0  0  0  0  0  0  0  0
  -25.2230  -31.6150   26.2590 C   0  0  0  0  0  1  0  0  0  0  0  0
  -26.9390  -30.4740   24.8410 C   0  0  0  0  0  1  0  0  0  0  0  0
  -27.4660  -32.6610   25.8870 C   0  0  0  0  0  1  0  0  0  0  0  0
  -32.1410  -18.6790   20.9100 C   0  0  0  0  0  0  0  0  0  0  0  0
  -32.8780  -17.7190   20.6680 O   0  0  0  0  0  0  0  0  0  0  0  0
  -30.9100  -18.4530   21.8020 C   0  0  0  0  0  2  0  0  0  0  0  0
  -29.5730  -19.0840   21.3340 C   0  0  0  0  0  2  0  0  0  0  0  0
  -28.9730  -18.5830   20.0050 C   0  0  0  0  0  2  0  0  0  0  0  0
  -28.6100  -17.0890   19.9900 C   0  0  0  0  0  2  0  0  0  0  0  0
  -29.7220  -16.2040   19.4070 C   0  0  0  0  0  2  0  0  0  0  0  0
  -30.8590  -14.1650   19.8940 C   0  0  0  0  0  0  0  0  0  0  0  0
  -30.4310  -11.9500   18.9310 C   0  0  0  0  0  2  0  0  0  0  0  0
  -29.4110  -12.0890   17.7800 C   0  0  0  0  0  2  0  0  0  0  0  0
  -27.9620  -12.0290   18.3080 C   0  0  0  0  0  2  0  0  0  0  0  0
  -27.7270  -12.9670   19.5220 C   0  0  0  0  0  3  0  0  0  0  0  0
  -28.8490  -12.8040   20.5730 C   0  0  0  0  0  2  0  0  0  0  0  0
  -30.1440  -13.0130   19.8980 N   0  0  0  0  0  0  0  0  0  0  0  0
  -31.9410  -14.3040   19.3180 O   0  0  0  0  0  0  0  0  0  0  0  0
  -30.2090  -15.2250   20.3710 N   0  0  0  0  0  0  0  0  0  0  0  0
  -30.7200  -15.6650   21.1240 H   0  0  0  0  0  0  0  0  0  0  0  0
  -25.4350  -13.7050   20.4290 C   0  0  0  0  0  0  0  0  0  0  0  0
  -24.3550  -12.9890   20.8690 C   0  0  0  0  0  0  0  0  0  0  0  0
  -24.7330  -11.6140   20.7850 C   0  0  0  0  0  0  0  0  0  0  0  0
  -26.4040  -12.7680   20.1070 N   0  0  0  0  0  0  0  0  0  0  0  0
  -25.9900  -11.5040   20.3760 N   0  0  0  0  0  0  0  0  0  0  0  0
  -23.9540  -10.3930   21.0130 C   0  0  0  0  0  0  0  0  0  0  0  0
  -24.4010   -9.3880   21.9010 C   0  0  0  0  0  3  0  0  0  0  0  0
  -23.6250   -8.2310   22.1200 C   0  0  0  0  0  3  0  0  0  0  0  0
  -22.3870   -8.0690   21.4550 C   0  0  0  0  0  0  0  0  0  0  0  0
  -21.9560   -9.0640   20.5580 C   0  0  0  0  0  3  0  0  0  0  0  0
  -22.7330  -10.2120   20.3350 C   0  0  0  0  0  3  0  0  0  0  0  0
  -21.5780   -6.9660   21.5870 O   0  0  0  0  0  0  0  0  0  0  0  0
  -21.5830   -6.2010   22.7240 C   0  0  0  0  0  0  0  0  0  0  0  0
  -21.2940   -6.7510   23.9930 C   0  0  0  0  0  3  0  0  0  0  0  0
  -21.2350   -5.9160   25.1270 C   0  0  0  0  0  3  0  0  0  0  0  0
  -21.4640   -4.5330   24.9950 C   0  0  0  0  0  0  0  0  0  0  0  0
  -21.7500   -3.9830   23.7330 C   0  0  0  0  0  3  0  0  0  0  0  0
  -21.8060   -4.8150   22.6010 C   0  0  0  0  0  0  0  0  0  0  0  0
  -22.0590   -4.2750   21.3840 F   0  0  0  0  0  0  0  0  0  0  0  0
  -21.4010   -3.7290   26.0840 F   0  0  0  0  0  0  0  0  0  0  0  0
  -23.0160  -13.5400   21.2630 C   0  0  0  0  0  0  0  0  0  0  0  0
  -22.3300  -12.8760   22.1850 N   0  0  0  0  0  0  0  0  0  0  0  0
  -22.5920  -14.5950   20.7890 O   0  0  0  0  0  0  0  0  0  0  0  0
  -22.6850  -12.0190   22.5850 H   0  0  0  0  0  0  0  0  0  0  0  0
  -21.4320  -13.2280   22.4900 H   0  0  0  0  0  0  0  0  0  0  0  0
  -25.6670  -15.0660   20.2600 N   0  0  0  0  0  0  0  0  0  0  0  0
  -24.9700  -15.7730   20.4600 H   0  0  0  0  0  0  0  0  0  0  0  0
  -26.5410  -15.4530   19.9280 H   0  0  0  0  0  0  0  0  0  0  0  0
  -32.9750  -19.3340   18.1470 O   0  0  0  0  0  0  0  0  0  0  0  0
  -33.3390  -19.6350   17.3200 H   0  0  0  0  0  0  0  0  0  0  0  0
  1  2  1  0
  3  6  2  0
  3  4  1  0
  4  1  2  0
  5 56  1  0
  5  2  2  0
  6  5  1  0
  7  4  1  0
  7  8  1  0
  8 10  1  0
  9  7  2  0
 11 12  1  0
 11  8  1  0
 12 13  1  0
 13 14  1  0
 15 14  1  0
 16 27  2  0
 17 15  1  0
 17 22  1  0
 18 26  1  0
 18 28  1  0
 19 21  1  0
 20 26  1  0
 21 22  2  0
 21 20  1  0
 23 17  2  0
 24 23  1  0
 24 19  2  0
 25 19  1  0
 25 18  1  0
 26 16  1  0
 28 30  2  0
 29 28  1  0
 31 29  1  0
 32 41  2  0
 32 37  1  0
 33 29  1  0
 33 37  1  0
 34 33  1  0
 35 36  1  0
 35 34  1  0
 36 32  1  0
 37 38  2  0
 38 39  1  0
 40 39  2  0
 41 40  1  0
 42 16  1  0
 42 43  1  0
 42 52  1  0
 43 46  1  0
 44 48  1  0
 44 43  1  0
 45 44  2  0
 48 47  1  0
 50 48  1  0
 50 51  1  0
 50 49  1  0
 52 55  1  1
 52 53  1  0
 54 52  1  0
 56 58  1  0
 57 56  2  0
 59 58  1  0
 60 59  1  0
 61 60  1  0
 62 61  1  0
 62 71  1  0
 63 69  1  0
 63 71  1  0
 64 69  1  0
 65 66  1  0
 65 64  1  0
 67 66  1  0
 67 76  1  0
 67 68  1  0
 69 68  1  0
 70 63  2  0
 71 72  1  0
 73 74  2  0
 74 93  1  0
 75 74  1  0
 75 78  1  0
 76 77  1  0
 76 73  1  0
 77 75  2  0
 78 79  1  0
 79 80  2  0
 81 84  1  0
 81 80  1  0
 82 81  2  0
 83 82  1  0
 83 78  2  0
 84 85  1  0
 85 86  1  0
 86 87  2  0
 88 87  1  0
 88 92  1  0
 89 88  2  0
 90 85  2  0
 90 89  1  0
 91 90  1  0
 93 94  1  0
 94 97  1  0
 94 96  1  0
 95 93  2  0
 98 73  1  0
 98 99  1  0
100 98  1  0
101  6  1  0
102101  1  0
M  ISO  4  14 101  15 101  63 100  71 100
M  END
>  <TORSDO>  (3) 
F 28

>  <SCORE>  (3) 
-11.286

>  <name>  (3) 
2

>  <ligand_id>  (3) 
2

>  <original_smiles>  (3) 
[H]Oc1c([H])c(C(=O)N([H])C([H])([H])C([H])([H])C([H])([H])C([H])([H])Oc2c([H])c([H])c3c(c2[H])C([H])([H])N(C(=O)C([H])(N([H])C(=O)C([H])(N([H])C([H])([H])[H])C([H])([H])[H])C(C([H])([H])[H])(C([H])([H])[H])C([H])([H])[H])C([H])(C(=O)N([H])C2([H])c4c([H])c([H])c([H])c([H])c4C([H])([H])C([H])([H])C2([H])[H])C3([H])[H])c([H])c([H])c1C(=O)C([H])([H])C([H])([H])C([H])([H])C([H])([H])C([H])([H])N([H])C(=O)N1C([H])([H])C([H])([H])C([H])([H])C([H])(n2nc(-c3c([H])c([H])c(Oc4c([H])c([H])c(F)c([H])c4F)c([H])c3[H])c(C(=O)N([H])[H])c2N([H])[H])C1([H])[H]

>  <smiles>  (3) 
[H]Oc1c([H])c(C(=O)N([H])C([H])([H])C([H])([H])C([H])([H])C([H])([H])Oc2c([H])c([H])c3c(c2[H])C([H])([H])N(C(=O)C([H])(N([H])C(=O)C([H])(N([H])C([H])([H])[H])C([H])([H])[H])C(C([H])([H])[H])(C([H])([H])[H])C([H])([H])[H])C([H])(C(=O)N([H])C2([H])c4c([H])c([H])c([H])c([H])c4C([H])([H])C([H])([H])C2([H])[H])C3([H])[H])c([H])c([H])c1C(=O)C([H])([H])C([H])([H])C([H])([H])C([H])([H])C([H])([H])N([H])C(=O)N1C([H])([H])C([H])([H])C([H])([H])C([H])(n2nc(-c3c([H])c([H])c(Oc4c([H])c([H])c(F)c([H])c4F)c([H])c3[H])c(C(=O)N([H])[H])c2N([H])[H])C1([H])[H]

$$$$
3:0:0
     RDKit          3D

 98105  0  0  1  0  0  0  0  0999 V2000
  -31.9470  -23.0350   17.5410 C   0  0  0  0  0  2  0  0  0  0  0  0
  -31.3750  -24.0060   18.5850 C   0  0  0  0  0  2  0  0  0  0  0  0
  -32.3550  -25.1430   18.9470 C   0  0  0  0  0  2  0  0  0  0  0  0
  -31.8030  -26.0760   19.9550 N   0  0  0  0  0  4  0  0  0  0  0  0
  -32.5540  -26.6710   20.2750 H   0  0  0  0  0  0  0  0  0  0  0  0
  -31.4990  -25.5420   20.7530 H   0  0  0  0  0  0  0  0  0  0  0  0
  -30.7110  -26.9570   19.4690 C   0  0  0  0  0  2  0  0  0  0  0  0
  -29.6640  -27.2550   20.5580 C   0  0  0  0  0  2  0  0  0  0  0  0
  -28.3990  -26.7080   20.1510 O   0  0  0  0  0  0  0  0  0  0  0  0
  -24.5630  -31.8840   23.2490 C   0  0  0  0  0  0  0  0  0  0  0  0
  -27.2470  -27.4710   20.2150 C   0  0  0  0  0  0  0  0  0  0  0  0
  -23.3490  -30.4740   21.6060 C   0  0  0  0  0  3  0  0  0  0  0  0
  -24.8120  -28.9230   20.2000 C   0  0  0  0  0  0  0  0  0  0  0  0
  -25.8670  -30.8410   21.4170 C   0  0  0  0  0  2  0  0  0  0  0  0
  -25.9560  -29.4670   20.7960 C   0  0  0  0  0  0  0  0  0  0  0  0
  -27.1620  -28.7470   20.8200 C   0  0  0  0  0  3  0  0  0  0  0  0
  -26.0810  -26.9280   19.6290 C   0  0  0  0  0  3  0  0  0  0  0  0
  -24.8660  -27.6420   19.6200 C   0  0  0  0  0  3  0  0  0  0  0  0
  -23.5620  -29.7710   20.2350 C   0  0  0  0  0  2  0  0  0  0  0  0
  -24.6080  -31.0810   22.1490 N   0  0  0  0  0  0  0  0  0  0  0  0
  -23.4830  -32.1660   23.7860 O   0  0  0  0  0  0  0  0  0  0  0  0
  -22.6930  -29.4680   22.5740 C   0  0  0  0  0  0  0  0  0  0  0  0
  -21.3670  -29.3030   22.4500 N   0  0  0  0  0  0  0  0  0  0  0  0
  -23.3720  -28.8360   23.3870 O   0  0  0  0  0  0  0  0  0  0  0  0
  -20.8810  -29.8630   21.7630 H   0  0  0  0  0  0  0  0  0  0  0  0
  -17.9800  -28.1660   22.9630 C   0  0  0  0  0  0  0  0  0  0  0  0
  -20.5410  -28.3790   23.2240 C   0  0  0  0  0  3  0  0  0  0  0  0
  -20.6150  -26.9460   22.6490 C   0  0  0  0  0  2  0  0  0  0  0  0
  -19.5050  -26.6440   21.6370 C   0  0  0  0  0  2  0  0  0  0  0  0
  -18.1290  -26.8140   22.2860 C   0  0  0  0  0  2  0  0  0  0  0  0
  -19.1130  -28.9090   23.3890 C   0  0  0  0  0  0  0  0  0  0  0  0
  -18.9220  -30.1760   23.9780 C   0  0  0  0  0  3  0  0  0  0  0  0
  -17.6280  -30.7050   24.1480 C   0  0  0  0  0  3  0  0  0  0  0  0
  -16.5070  -29.9590   23.7420 C   0  0  0  0  0  3  0  0  0  0  0  0
  -16.6830  -28.6910   23.1570 C   0  0  0  0  0  3  0  0  0  0  0  0
  -25.8560  -32.5050   23.8670 C   0  0  0  0  0  3  0  0  0  0  0  0
  -25.5600  -33.9050   24.1970 N   0  0  0  0  0  0  0  0  0  0  0  0
  -25.9060  -34.9530   23.4390 C   0  0  0  0  0  0  0  0  0  0  0  0
  -26.5800  -34.8480   22.4120 O   0  0  0  0  0  0  0  0  0  0  0  0
  -24.9640  -34.0650   24.9940 H   0  0  0  0  0  0  0  0  0  0  0  0
  -24.1940  -36.7590   23.0760 C   0  0  0  0  0  1  0  0  0  0  0  0
  -25.4250  -36.3440   23.8960 C   0  0  0  0  0  3  0  0  0  0  0  0
  -27.5640  -37.2100   24.7360 C   0  0  0  0  0  1  0  0  0  0  0  0
  -26.4650  -37.3910   23.7930 N   0  0  0  0  0  0  0  0  0  0  0  0
  -26.0640  -38.3140   23.9460 H   0  0  0  0  0  0  0  0  0  0  0  0
  -26.3820  -31.7250   25.1350 C   0  0  1  0  0  0  0  0  0  0  0  0
  -25.2950  -31.4870   26.2100 C   0  0  0  0  0  1  0  0  0  0  0  0
  -26.9600  -30.3460   24.7330 C   0  0  0  0  0  1  0  0  0  0  0  0
  -27.5420  -32.5110   25.7920 C   0  0  0  0  0  1  0  0  0  0  0  0
  -30.8860  -22.0630   16.9920 C   0  0  0  0  0  2  0  0  0  0  0  0
  -31.5100  -20.9050   16.1980 C   0  0  0  0  0  2  0  0  0  0  0  0
  -30.4810  -20.0410   15.4350 C   0  0  0  0  0  2  0  0  0  0  0  0
  -30.3460  -18.0690   13.9580 C   0  0  0  0  0  1  0  0  0  0  0  0
  -31.0050  -18.6810   15.1350 N   0  0  2  0  0  4  0  0  0  0  0  0
  -31.9720  -18.8060   14.8800 H   0  0  0  0  0  0  0  0  0  0  0  0
  -30.9720  -17.7830   16.3200 C   0  0  0  0  0  2  0  0  0  0  0  0
  -32.2180  -16.8770   16.4210 C   0  0  0  0  0  2  0  0  0  0  0  0
  -32.2400  -16.1120   17.7570 C   0  0  0  0  0  2  0  0  0  0  0  0
  -33.4520  -15.1840   17.9650 C   0  0  0  0  0  2  0  0  0  0  0  0
  -33.5660  -14.6120   19.4000 C   0  0  0  0  0  2  0  0  0  0  0  0
  -31.2560  -14.1720   20.3120 C   0  0  0  0  0  0  0  0  0  0  0  0
  -30.3600  -12.1360   19.3560 C   0  0  0  0  0  2  0  0  0  0  0  0
  -29.5410  -12.5700   18.1420 C   0  0  0  0  0  2  0  0  0  0  0  0
  -28.0680  -12.5600   18.5560 C   0  0  0  0  0  2  0  0  0  0  0  0
  -27.7860  -13.3800   19.8440 C   0  0  0  0  0  3  0  0  0  0  0  0
  -28.9060  -13.2460   20.9390 C   0  0  0  0  0  2  0  0  0  0  0  0
  -30.2710  -13.2230   20.3340 N   0  0  0  0  0  0  0  0  0  0  0  0
  -31.2030  -15.3230   20.6600 O   0  0  0  0  0  0  0  0  0  0  0  0
  -32.4250  -13.7720   19.7780 N   0  0  0  0  0  0  0  0  0  0  0  0
  -32.4740  -12.7990   19.5130 H   0  0  0  0  0  0  0  0  0  0  0  0
  -25.3370  -13.9450   20.4860 C   0  0  0  0  0  0  0  0  0  0  0  0
  -24.2640  -13.1620   20.8290 C   0  0  0  0  0  0  0  0  0  0  0  0
  -24.7440  -11.8160   20.8330 C   0  0  0  0  0  0  0  0  0  0  0  0
  -26.4170  -13.0870   20.3220 N   0  0  0  0  0  0  0  0  0  0  0  0
  -26.0520  -11.7980   20.5810 N   0  0  0  0  0  0  0  0  0  0  0  0
  -24.0190  -10.5460   21.0160 C   0  0  0  0  0  0  0  0  0  0  0  0
  -24.4370   -9.5890   21.9660 C   0  0  0  0  0  3  0  0  0  0  0  0
  -23.7180   -8.3870   22.1430 C   0  0  0  0  0  3  0  0  0  0  0  0
  -22.5600   -8.1330   21.3700 C   0  0  0  0  0  0  0  0  0  0  0  0
  -22.1570   -9.0770   20.4110 C   0  0  0  0  0  3  0  0  0  0  0  0
  -22.8790  -10.2710   20.2310 C   0  0  0  0  0  3  0  0  0  0  0  0
  -21.8150   -6.9800   21.4540 O   0  0  0  0  0  0  0  0  0  0  0  0
  -21.7570   -6.2400   22.6090 C   0  0  0  0  0  0  0  0  0  0  0  0
  -21.3250   -6.8000   23.8310 C   0  0  0  0  0  3  0  0  0  0  0  0
  -21.2150   -5.9870   24.9770 C   0  0  0  0  0  3  0  0  0  0  0  0
  -21.5280   -4.6160   24.9020 C   0  0  0  0  0  0  0  0  0  0  0  0
  -21.9470   -4.0560   23.6840 C   0  0  0  0  0  3  0  0  0  0  0  0
  -22.0600   -4.8650   22.5400 C   0  0  0  0  0  0  0  0  0  0  0  0
  -22.4470   -4.3150   21.3630 F   0  0  0  0  0  0  0  0  0  0  0  0
  -21.4160   -3.8340   26.0010 F   0  0  0  0  0  0  0  0  0  0  0  0
  -22.8490  -13.6250   21.0470 C   0  0  0  0  0  0  0  0  0  0  0  0
  -22.1040  -12.9310   21.9010 N   0  0  0  0  0  0  0  0  0  0  0  0
  -22.4100  -14.6340   20.4970 O   0  0  0  0  0  0  0  0  0  0  0  0
  -22.4690  -12.1120   22.3640 H   0  0  0  0  0  0  0  0  0  0  0  0
  -21.1590  -13.2260   22.0940 H   0  0  0  0  0  0  0  0  0  0  0  0
  -25.4820  -15.3130   20.2820 N   0  0  0  0  0  0  0  0  0  0  0  0
  -24.7050  -15.9620   20.3470 H   0  0  0  0  0  0  0  0  0  0  0  0
  -26.3500  -15.7610   20.0170 H   0  0  0  0  0  0  0  0  0  0  0  0
  1  2  1  0
  2  3  1  0
  3  4  1  0
  4  5  1  0
  4  6  1  0
  7  4  1  0
  7  8  1  0
  9 11  1  0
  9  8  1  0
 10 21  2  0
 11 16  1  0
 12 20  1  0
 12 22  1  0
 13 19  1  0
 13 15  1  0
 14 20  1  0
 15 16  2  0
 15 14  1  0
 17 11  2  0
 18 17  1  0
 18 13  2  0
 19 12  1  0
 20 10  1  0
 22 24  2  0
 23 22  1  0
 25 23  1  0
 26 35  2  0
 26 31  1  0
 27 23  1  0
 27 31  1  0
 28 27  1  0
 29 30  1  0
 29 28  1  0
 30 26  1  0
 31 32  2  0
 32 33  1  0
 34 33  2  0
 35 34  1  0
 36 10  1  0
 36 37  1  0
 36 46  1  0
 37 40  1  0
 38 42  1  0
 38 37  1  0
 39 38  2  0
 42 41  1  0
 44 42  1  0
 44 45  1  0
 44 43  1  0
 46 49  1  1
 46 47  1  0
 48 46  1  0
 50  1  1  0
 51 50  1  0
 52 51  1  0
 53 54  1  0
 54 52  1  0
 54 56  1  0
 54 55  1  6
 56 57  1  0
 57 58  1  0
 58 59  1  0
 59 60  1  0
 60 69  1  0
 61 67  1  0
 61 68  2  0
 62 67  1  0
 63 64  1  0
 63 62  1  0
 65 64  1  0
 65 74  1  0
 65 66  1  0
 67 66  1  0
 69 61  1  0
 70 69  1  0
 71 72  2  0
 72 73  1  0
 72 91  1  0
 73 76  1  0
 74 71  1  0
 74 75  1  0
 75 73  2  0
 76 77  1  0
 77 78  2  0
 79 82  1  0
 79 78  1  0
 80 79  2  0
 81 80  1  0
 81 76  2  0
 82 83  1  0
 83 84  1  0
 84 85  2  0
 86 85  1  0
 86 90  1  0
 87 86  2  0
 88 83  2  0
 88 87  1  0
 89 88  1  0
 91 92  1  0
 92 95  1  0
 92 94  1  0
 93 91  2  0
 96 97  1  0
 96 71  1  0
 98 96  1  0
M  ISO  4   8 101   9 101  61 100  69 100
M  END
>  <TORSDO>  (4) 
F 30

>  <SCORE>  (4) 
-10.607

>  <name>  (4) 
3

>  <ligand_id>  (4) 
3

>  <original_smiles>  (4) 
[H]c1c([H])c([H])c2c(c1[H])C([H])([H])C([H])([H])C([H])([H])C2([H])N([H])C(=O)C1([H])N(C(=O)C([H])(N([H])C(=O)C([H])(N([H])C([H])([H])[H])C([H])([H])[H])C(C([H])([H])[H])(C([H])([H])[H])C([H])([H])[H])C([H])([H])c2c([H])c(OC([H])([H])C([H])([H])[N+]([H])([H])C([H])([H])C([H])([H])C([H])([H])C([H])([H])C([H])([H])C([H])([H])[N+]([H])(C([H])([H])[H])C([H])([H])C([H])([H])C([H])([H])C([H])([H])C([H])([H])N([H])C(=O)N3C([H])([H])C([H])([H])C([H])([H])C([H])(n4nc(-c5c([H])c([H])c(Oc6c([H])c([H])c(F)c([H])c6F)c([H])c5[H])c(C(=O)N([H])[H])c4N([H])[H])C3([H])[H])c([H])c([H])c2C1([H])[H]

>  <smiles>  (4) 
[H]c1c([H])c([H])c2c(c1[H])C([H])([H])C([H])([H])C([H])([H])C2([H])N([H])C(=O)C1([H])N(C(=O)C([H])(N([H])C(=O)C([H])(N([H])C([H])([H])[H])C([H])([H])[H])C(C([H])([H])[H])(C([H])([H])[H])C([H])([H])[H])C([H])([H])c2c([H])c(OC([H])([H])C([H])([H])[N+]([H])([H])C([H])([H])C([H])([H])C([H])([H])C([H])([H])C([H])([H])C([H])([H])[N+]([H])(C([H])([H])[H])C([H])([H])C([H])([H])C([H])([H])C([H])([H])C([H])([H])N([H])C(=O)N3C([H])([H])C([H])([H])C([H])([H])C([H])(n4nc(-c5c([H])c([H])c(Oc6c([H])c([H])c(F)c([H])c6F)c([H])c5[H])c(C(=O)N([H])[H])c4N([H])[H])C3([H])[H])c([H])c([H])c2C1([H])[H]

$$$$
4:0:0
     RDKit          3D

100107  0  0  1  0  0  0  0  0999 V2000
  -25.5030  -21.0630   18.3440 C   0  0  0  0  0  3  0  0  0  0  0  0
  -26.5660  -20.0850   18.7010 N   0  0  0  0  0  4  0  0  0  0  0  0
  -26.7370  -20.1270   19.6930 H   0  0  0  0  0  0  0  0  0  0  0  0
  -26.1980  -19.1660   18.5180 H   0  0  0  0  0  0  0  0  0  0  0  0
  -27.8460  -20.1710   17.9590 C   0  0  0  0  0  2  0  0  0  0  0  0
  -28.8390  -19.1120   18.4720 C   0  0  0  0  0  2  0  0  0  0  0  0
  -30.2180  -19.1530   17.7810 C   0  0  0  0  0  2  0  0  0  0  0  0
  -31.1390  -17.9940   18.2100 C   0  0  0  0  0  2  0  0  0  0  0  0
  -31.6130  -18.0420   19.6820 C   0  0  0  0  0  2  0  0  0  0  0  0
  -32.3150  -15.6740   20.0170 C   0  0  0  0  0  0  0  0  0  0  0  0
  -32.2380  -13.2460   19.6140 C   0  0  0  0  0  2  0  0  0  0  0  0
  -31.3870  -12.9860   18.3530 C   0  0  0  0  0  2  0  0  0  0  0  0
  -29.8920  -12.8780   18.7110 C   0  0  0  0  0  2  0  0  0  0  0  0
  -29.4090  -14.0580   19.5950 C   0  0  0  0  0  3  0  0  0  0  0  0
  -30.3720  -14.2670   20.7860 C   0  0  0  0  0  2  0  0  0  0  0  0
  -31.7320  -14.4700   20.2490 N   0  0  0  0  0  0  0  0  0  0  0  0
  -33.4160  -15.8130   19.4730 O   0  0  0  0  0  0  0  0  0  0  0  0
  -31.5300  -16.7200   20.2910 N   0  0  0  0  0  0  0  0  0  0  0  0
  -30.6880  -16.5110   20.8080 H   0  0  0  0  0  0  0  0  0  0  0  0
  -27.0190  -14.7970   20.2220 C   0  0  0  0  0  0  0  0  0  0  0  0
  -25.9100  -14.0850   20.5890 C   0  0  0  0  0  0  0  0  0  0  0  0
  -26.3070  -12.7140   20.5980 C   0  0  0  0  0  0  0  0  0  0  0  0
  -28.0310  -13.8640   20.0390 N   0  0  0  0  0  0  0  0  0  0  0  0
  -27.6000  -12.6060   20.3160 N   0  0  0  0  0  0  0  0  0  0  0  0
  -25.5210  -11.4910   20.7990 C   0  0  0  0  0  0  0  0  0  0  0  0
  -25.7890  -10.6080   21.8670 C   0  0  0  0  0  3  0  0  0  0  0  0
  -25.0090   -9.4470   22.0510 C   0  0  0  0  0  3  0  0  0  0  0  0
  -23.9460   -9.1600   21.1620 C   0  0  0  0  0  0  0  0  0  0  0  0
  -23.6960  -10.0310   20.0870 C   0  0  0  0  0  3  0  0  0  0  0  0
  -24.4760  -11.1830   19.9030 C   0  0  0  0  0  3  0  0  0  0  0  0
  -23.1500   -8.0430   21.2480 O   0  0  0  0  0  0  0  0  0  0  0  0
  -22.7250   -7.5530   22.4570 C   0  0  0  0  0  0  0  0  0  0  0  0
  -21.9710   -8.3390   23.3550 C   0  0  0  0  0  3  0  0  0  0  0  0
  -21.4970   -7.7750   24.5560 C   0  0  0  0  0  3  0  0  0  0  0  0
  -21.7640   -6.4250   24.8550 C   0  0  0  0  0  0  0  0  0  0  0  0
  -22.5100   -5.6400   23.9600 C   0  0  0  0  0  3  0  0  0  0  0  0
  -22.9870   -6.2030   22.7620 C   0  0  0  0  0  0  0  0  0  0  0  0
  -23.6880   -5.4360   21.8920 F   0  0  0  0  0  0  0  0  0  0  0  0
  -21.3010   -5.8800   26.0050 F   0  0  0  0  0  0  0  0  0  0  0  0
  -24.5310  -14.6350   20.8210 C   0  0  0  0  0  0  0  0  0  0  0  0
  -23.7700  -14.0290   21.7270 N   0  0  0  0  0  0  0  0  0  0  0  0
  -24.1320  -15.6350   20.2260 O   0  0  0  0  0  0  0  0  0  0  0  0
  -24.0980  -13.2220   22.2330 H   0  0  0  0  0  0  0  0  0  0  0  0
  -22.8430  -14.3850   21.9160 H   0  0  0  0  0  0  0  0  0  0  0  0
  -27.2480  -16.1510   20.0080 N   0  0  0  0  0  0  0  0  0  0  0  0
  -26.4960  -16.8290   20.0510 H   0  0  0  0  0  0  0  0  0  0  0  0
  -28.1110  -16.5160   19.6290 H   0  0  0  0  0  0  0  0  0  0  0  0
  -25.4940  -22.2770   19.3150 C   0  0  0  0  0  2  0  0  0  0  0  0
  -26.3810  -23.4610   18.8850 C   0  0  0  0  0  2  0  0  0  0  0  0
  -27.0440  -24.1680   20.0830 C   0  0  0  0  0  2  0  0  0  0  0  0
  -27.9610  -25.3440   19.6980 C   0  0  0  0  0  2  0  0  0  0  0  0
  -28.9870  -25.0330   18.5870 C   0  0  0  0  0  2  0  0  0  0  0  0
  -29.7480  -26.2680   18.0590 C   0  0  0  0  0  2  0  0  0  0  0  0
  -29.0160  -26.9560   17.0440 O   0  0  0  0  0  0  0  0  0  0  0  0
  -24.9010  -30.0770   21.9400 C   0  0  0  0  0  0  0  0  0  0  0  0
  -27.7670  -27.3830   17.4120 C   0  0  0  0  0  0  0  0  0  0  0  0
  -23.7160  -28.9440   20.0850 C   0  0  0  0  0  3  0  0  0  0  0  0
  -25.1730  -28.2230   18.1190 C   0  0  0  0  0  0  0  0  0  0  0  0
  -26.0580  -29.9090   19.7420 C   0  0  0  0  0  2  0  0  0  0  0  0
  -26.2890  -28.8190   18.7180 C   0  0  0  0  0  0  0  0  0  0  0  0
  -27.5920  -28.4030   18.3720 C   0  0  0  0  0  3  0  0  0  0  0  0
  -26.6390  -26.7990   16.8000 C   0  0  0  0  0  3  0  0  0  0  0  0
  -25.3410  -27.2040   17.1620 C   0  0  0  0  0  3  0  0  0  0  0  0
  -23.8150  -28.7340   18.5480 C   0  0  0  0  0  2  0  0  0  0  0  0
  -24.9180  -29.6450   20.6490 N   0  0  0  0  0  0  0  0  0  0  0  0
  -23.8940  -29.9420   22.6490 O   0  0  0  0  0  0  0  0  0  0  0  0
  -23.4340  -27.5810   20.7540 C   0  0  0  0  0  0  0  0  0  0  0  0
  -22.2520  -27.0080   20.4720 N   0  0  0  0  0  0  0  0  0  0  0  0
  -24.2730  -27.0500   21.4880 O   0  0  0  0  0  0  0  0  0  0  0  0
  -21.6140  -27.5120   19.8720 H   0  0  0  0  0  0  0  0  0  0  0  0
  -19.5690  -24.6020   20.2270 C   0  0  0  0  0  0  0  0  0  0  0  0
  -21.7880  -25.7100   20.9570 C   0  0  0  0  0  3  0  0  0  0  0  0
  -22.4910  -24.5520   20.2120 C   0  0  0  0  0  2  0  0  0  0  0  0
  -21.7080  -24.0550   18.9930 C   0  0  0  0  0  2  0  0  0  0  0  0
  -20.3200  -23.5640   19.4120 C   0  0  0  0  0  2  0  0  0  0  0  0
  -20.2570  -25.6190   20.9400 C   0  0  0  0  0  0  0  0  0  0  0  0
  -19.5090  -26.5790   21.6550 C   0  0  0  0  0  3  0  0  0  0  0  0
  -18.1030  -26.5340   21.6670 C   0  0  0  0  0  3  0  0  0  0  0  0
  -17.4270  -25.5180   20.9700 C   0  0  0  0  0  3  0  0  0  0  0  0
  -18.1610  -24.5520   20.2570 C   0  0  0  0  0  3  0  0  0  0  0  0
  -26.1360  -30.7860   22.5800 C   0  0  0  0  0  3  0  0  0  0  0  0
  -25.6430  -31.9560   23.3180 N   0  0  0  0  0  0  0  0  0  0  0  0
  -25.7100  -33.2180   22.8740 C   0  0  0  0  0  0  0  0  0  0  0  0
  -26.2680  -33.5270   21.8170 O   0  0  0  0  0  0  0  0  0  0  0  0
  -25.1280  -31.7720   24.1670 H   0  0  0  0  0  0  0  0  0  0  0  0
  -23.6980  -34.7020   23.1290 C   0  0  0  0  0  1  0  0  0  0  0  0
  -25.0550  -34.3120   23.7380 C   0  0  0  0  0  3  0  0  0  0  0  0
  -27.0800  -35.2910   24.7230 C   0  0  0  0  0  1  0  0  0  0  0  0
  -25.8950  -35.5190   23.8980 N   0  0  0  0  0  0  0  0  0  0  0  0
  -25.3620  -36.2790   24.3110 H   0  0  0  0  0  0  0  0  0  0  0  0
  -26.9750  -29.8390   23.5230 C   0  0  1  0  0  0  0  0  0  0  0  0
  -26.1170  -29.0590   24.5450 C   0  0  0  0  0  1  0  0  0  0  0  0
  -27.7700  -28.8070   22.6910 C   0  0  0  0  0  1  0  0  0  0  0  0
  -28.0160  -30.6720   24.3090 C   0  0  0  0  0  1  0  0  0  0  0  0
  -24.1110  -20.3740   18.2760 C   0  0  0  0  0  2  0  0  0  0  0  0
  -24.0050  -19.0060   18.9660 C   0  0  0  0  0  0  0  0  0  0  0  0
  -23.3560  -18.9380   20.1230 N   0  0  0  0  0  0  0  0  0  0  0  0
  -24.5040  -18.0090   18.4520 O   0  0  0  0  0  0  0  0  0  0  0  0
  -22.9600  -19.7680   20.5430 H   0  0  0  0  0  0  0  0  0  0  0  0
  -23.2470  -18.0480   20.5940 H   0  0  0  0  0  0  0  0  0  0  0  0
  1 95  1  0
  1  2  1  0
  1 48  1  0
  2  3  1  0
  4  2  1  0
  5  6  1  0
  5  2  1  0
  7  8  1  0
  7  6  1  0
  8  9  1  0
  9 18  1  0
 10 16  1  0
 10 18  1  0
 11 16  1  0
 12 13  1  0
 12 11  1  0
 14 13  1  0
 14 23  1  0
 14 15  1  0
 16 15  1  0
 17 10  2  0
 18 19  1  0
 20 21  2  0
 21 22  1  0
 21 40  1  0
 22 25  1  0
 23 20  1  0
 23 24  1  0
 24 22  2  0
 25 26  1  0
 26 27  2  0
 28 31  1  0
 28 27  1  0
 29 28  2  0
 30 29  1  0
 30 25  2  0
 31 32  1  0
 32 37  2  0
 32 33  1  0
 33 34  2  0
 34 35  1  0
 35 39  1  0
 36 35  2  0
 37 36  1  0
 38 37  1  0
 40 41  1  0
 41 44  1  0
 41 43  1  0
 42 40  2  0
 45 46  1  0
 45 20  1  0
 47 45  1  0
 49 48  1  0
 49 50  1  0
 51 50  1  0
 52 51  1  0
 53 52  1  0
 54 56  1  0
 54 53  1  0
 55 66  2  0
 56 61  1  0
 57 65  1  0
 57 67  1  0
 58 64  1  0
 58 60  1  0
 59 65  1  0
 60 59  1  0
 61 60  2  0
 62 63  1  0
 62 56  2  0
 63 58  2  0
 64 57  1  0
 65 55  1  0
 67 69  2  0
 68 67  1  0
 70 68  1  0
 71 80  2  0
 71 76  1  0
 72 68  1  0
 73 72  1  0
 74 75  1  0
 74 73  1  0
 75 71  1  0
 76 72  1  0
 76 77  2  0
 77 78  1  0
 79 78  2  0
 80 79  1  0
 81 55  1  0
 81 82  1  0
 81 91  1  0
 82 85  1  0
 83 82  1  0
 83 87  1  0
 84 83  2  0
 87 86  1  0
 87 89  1  0
 89 90  1  0
 89 88  1  0
 91 94  1  1
 91 92  1  0
 93 91  1  0
 95 96  1  0
 96 97  1  0
 97 99  1  0
 97100  1  0
 98 96  2  0
M  ISO  4  10 100  18 100  53 101  54 101
M  END
>  <TORSDO>  (5) 
F 30

>  <SCORE>  (5) 
0.529

>  <name>  (5) 
4

>  <ligand_id>  (5) 
4

>  <original_smiles>  (5) 
[H]c1c([H])c([H])c2c(c1[H])C([H])([H])C([H])([H])C([H])([H])C2([H])N([H])C(=O)C1([H])N(C(=O)C([H])(N([H])C(=O)C([H])(N([H])C([H])([H])[H])C([H])([H])[H])C(C([H])([H])[H])(C([H])([H])[H])C([H])([H])[H])C([H])([H])c2c([H])c(OC([H])([H])C([H])([H])C([H])([H])C([H])([H])C([H])([H])C([H])([H])C([H])(C([H])([H])C(=O)N([H])[H])[N+]([H])([H])C([H])([H])C([H])([H])C([H])([H])C([H])([H])C([H])([H])N([H])C(=O)N3C([H])([H])C([H])([H])C([H])([H])C([H])(n4nc(-c5c([H])c([H])c(Oc6c([H])c([H])c(F)c([H])c6F)c([H])c5[H])c(C(=O)N([H])[H])c4N([H])[H])C3([H])[H])c([H])c([H])c2C1([H])[H]

>  <smiles>  (5) 
[H]c1c([H])c([H])c2c(c1[H])C([H])([H])C([H])([H])C([H])([H])C2([H])N([H])C(=O)C1([H])N(C(=O)C([H])(N([H])C(=O)C([H])(N([H])C([H])([H])[H])C([H])([H])[H])C(C([H])([H])[H])(C([H])([H])[H])C([H])([H])[H])C([H])([H])c2c([H])c(OC([H])([H])C([H])([H])C([H])([H])C([H])([H])C([H])([H])C([H])([H])C([H])(C([H])([H])C(=O)N([H])[H])[N+]([H])([H])C([H])([H])C([H])([H])C([H])([H])C([H])([H])C([H])([H])N([H])C(=O)N3C([H])([H])C([H])([H])C([H])([H])C([H])(n4nc(-c5c([H])c([H])c(Oc6c([H])c([H])c(F)c([H])c6F)c([H])c5[H])c(C(=O)N([H])[H])c4N([H])[H])C3([H])[H])c([H])c([H])c2C1([H])[H]

$$$$
5:0:0
     RDKit          3D

 98106  0  0  1  0  0  0  0  0999 V2000
  -29.7010  -22.4790   22.4410 C   0  0  0  0  0  0  0  0  0  0  0  0
  -28.0830  -24.0220   21.3660 C   0  0  0  0  0  0  0  0  0  0  0  0
  -29.1740  -22.9890   21.1080 C   0  0  0  0  0  2  0  0  0  0  0  0
  -29.8920  -23.5420   23.5340 C   0  0  0  0  0  2  0  0  0  0  0  0
  -29.7660  -24.9890   23.0020 C   0  0  0  0  0  2  0  0  0  0  0  0
  -28.4880  -25.2810   22.1540 C   0  0  2  0  0  0  0  0  0  0  0  0
  -29.9240  -21.2340   22.5860 N   0  0  0  0  0  0  0  0  0  0  0  0
  -26.9180  -23.8330   21.0020 O   0  0  0  0  0  0  0  0  0  0  0  0
  -27.3390  -25.5800   23.0440 N   0  0  0  0  0  4  0  0  0  0  0  0
  -27.1390  -24.7960   23.6420 H   0  0  0  0  0  0  0  0  0  0  0  0
  -26.5240  -25.7200   22.4670 H   0  0  0  0  0  0  0  0  0  0  0  0
  -27.4860  -26.3960   23.6130 H   0  0  0  0  0  0  0  0  0  0  0  0
  -28.7670  -26.4680   21.1780 C   0  0  0  0  0  2  0  0  0  0  0  0
  -27.9010  -26.4930   20.0390 O   0  0  0  0  0  0  0  0  0  0  0  0
  -24.5070  -31.8850   23.2370 C   0  0  0  0  0  0  0  0  0  0  0  0
  -26.7940  -27.3020   20.1170 C   0  0  0  0  0  0  0  0  0  0  0  0
  -23.1480  -30.4910   21.7080 C   0  0  0  0  0  3  0  0  0  0  0  0
  -24.4530  -28.8620   20.2440 C   0  0  0  0  0  0  0  0  0  0  0  0
  -25.6620  -30.7550   21.3440 C   0  0  0  0  0  2  0  0  0  0  0  0
  -25.6590  -29.3640   20.7510 C   0  0  0  0  0  0  0  0  0  0  0  0
  -26.8340  -28.5890   20.6970 C   0  0  0  0  0  3  0  0  0  0  0  0
  -25.5820  -26.8130   19.5930 C   0  0  0  0  0  3  0  0  0  0  0  0
  -24.4060  -27.5810   19.6670 C   0  0  0  0  0  3  0  0  0  0  0  0
  -23.2440  -29.7630   20.3400 C   0  0  0  0  0  2  0  0  0  0  0  0
  -24.4610  -31.0570   22.1550 N   0  0  0  0  0  0  0  0  0  0  0  0
  -23.4740  -32.2150   23.8340 O   0  0  0  0  0  0  0  0  0  0  0  0
  -22.5200  -29.5210   22.7340 C   0  0  0  0  0  0  0  0  0  0  0  0
  -21.2080  -29.2700   22.5940 N   0  0  0  0  0  0  0  0  0  0  0  0
  -23.2130  -28.9910   23.6080 O   0  0  0  0  0  0  0  0  0  0  0  0
  -20.7120  -29.7500   21.8560 H   0  0  0  0  0  0  0  0  0  0  0  0
  -17.9240  -27.8200   22.9780 C   0  0  0  0  0  0  0  0  0  0  0  0
  -20.4130  -28.3610   23.4160 C   0  0  0  0  0  3  0  0  0  0  0  0
  -20.6940  -26.8860   23.0480 C   0  0  0  0  0  2  0  0  0  0  0  0
  -19.7220  -26.3290   22.0030 C   0  0  0  0  0  2  0  0  0  0  0  0
  -18.2790  -26.4190   22.5090 C   0  0  0  0  0  2  0  0  0  0  0  0
  -18.9270  -28.7370   23.3880 C   0  0  0  0  0  0  0  0  0  0  0  0
  -18.5460  -30.0390   23.7800 C   0  0  0  0  0  3  0  0  0  0  0  0
  -17.1930  -30.4270   23.7710 C   0  0  0  0  0  3  0  0  0  0  0  0
  -16.2020  -29.5090   23.3780 C   0  0  0  0  0  3  0  0  0  0  0  0
  -16.5680  -28.2090   22.9870 C   0  0  0  0  0  3  0  0  0  0  0  0
  -25.8550  -32.4750   23.7590 C   0  0  0  0  0  3  0  0  0  0  0  0
  -26.4480  -31.6800   24.9880 C   0  0  1  0  0  0  0  0  0  0  0  0
  -25.4250  -31.4410   26.1220 C   0  0  0  0  0  1  0  0  0  0  0  0
  -26.9850  -30.3020   24.5350 C   0  0  0  0  0  1  0  0  0  0  0  0
  -27.6510  -32.4520   25.5800 C   0  0  0  0  0  1  0  0  0  0  0  0
  -25.6140  -33.8790   24.1130 N   0  0  0  0  0  0  0  0  0  0  0  0
  -25.9540  -34.9250   23.3470 C   0  0  0  0  0  0  0  0  0  0  0  0
  -26.5760  -34.8040   22.2880 O   0  0  0  0  0  0  0  0  0  0  0  0
  -25.0610  -34.0500   24.9400 H   0  0  0  0  0  0  0  0  0  0  0  0
  -24.2820  -36.7810   23.0710 C   0  0  0  0  0  1  0  0  0  0  0  0
  -25.5370  -36.3250   23.8330 C   0  0  0  0  0  3  0  0  0  0  0  0
  -27.7360  -37.1200   24.5840 C   0  0  0  0  0  1  0  0  0  0  0  0
  -26.6040  -37.3390   23.6870 N   0  0  0  0  0  0  0  0  0  0  0  0
  -26.2390  -38.2720   23.8590 H   0  0  0  0  0  0  0  0  0  0  0  0
  -30.4050  -20.7150   23.8540 C   0  0  0  0  0  2  0  0  0  0  0  0
  -30.5040  -19.1850   23.7750 C   0  0  0  0  0  2  0  0  0  0  0  0
  -31.1550  -18.7010   22.4720 C   0  0  0  0  0  2  0  0  0  0  0  0
  -31.0600  -17.1850   22.2800 C   0  0  0  0  0  2  0  0  0  0  0  0
  -31.7560  -16.7460   20.9840 C   0  0  0  0  0  2  0  0  0  0  0  0
  -32.0680  -15.2450   20.9440 C   0  0  0  0  0  2  0  0  0  0  0  0
  -30.7440  -14.0070   19.2400 C   0  0  0  0  0  0  0  0  0  0  0  0
  -30.1640  -11.8440   18.2310 C   0  0  0  0  0  2  0  0  0  0  0  0
  -29.0410  -11.8750   17.1860 C   0  0  0  0  0  2  0  0  0  0  0  0
  -27.6700  -11.7510   17.8700 C   0  0  0  0  0  2  0  0  0  0  0  0
  -27.4920  -12.7720   19.0220 C   0  0  0  0  0  3  0  0  0  0  0  0
  -28.7020  -12.7510   19.9820 C   0  0  0  0  0  2  0  0  0  0  0  0
  -29.9430  -12.9190   19.2040 N   0  0  0  0  0  0  0  0  0  0  0  0
  -31.4620  -14.3720   18.3030 O   0  0  0  0  0  0  0  0  0  0  0  0
  -30.9300  -14.4550   20.4850 N   0  0  0  0  0  0  0  0  0  0  0  0
  -30.3450  -14.0390   21.1960 H   0  0  0  0  0  0  0  0  0  0  0  0
  -25.2930  -13.4730   20.1670 C   0  0  0  0  0  0  0  0  0  0  0  0
  -24.2680  -12.7400   20.7050 C   0  0  0  0  0  0  0  0  0  0  0  0
  -24.6450  -11.3700   20.5600 C   0  0  0  0  0  0  0  0  0  0  0  0
  -26.2340  -12.5510   19.7330 N   0  0  0  0  0  0  0  0  0  0  0  0
  -25.8550  -11.2780   20.0220 N   0  0  0  0  0  0  0  0  0  0  0  0
  -23.9000  -10.1380   20.8490 C   0  0  0  0  0  0  0  0  0  0  0  0
  -24.3730   -9.1890   21.7820 C   0  0  0  0  0  3  0  0  0  0  0  0
  -23.6300   -8.0210   22.0560 C   0  0  0  0  0  3  0  0  0  0  0  0
  -22.3980   -7.7940   21.3990 C   0  0  0  0  0  0  0  0  0  0  0  0
  -21.9420   -8.7300   20.4540 C   0  0  0  0  0  3  0  0  0  0  0  0
  -22.6860   -9.8890   20.1780 C   0  0  0  0  0  3  0  0  0  0  0  0
  -21.6210   -6.6750   21.5830 O   0  0  0  0  0  0  0  0  0  0  0  0
  -21.5560   -6.0360   22.7950 C   0  0  0  0  0  0  0  0  0  0  0  0
  -21.1340   -6.7010   23.9660 C   0  0  0  0  0  3  0  0  0  0  0  0
  -21.0140   -5.9880   25.1770 C   0  0  0  0  0  3  0  0  0  0  0  0
  -21.3050   -4.6120   25.2140 C   0  0  0  0  0  0  0  0  0  0  0  0
  -21.7200   -3.9470   24.0470 C   0  0  0  0  0  3  0  0  0  0  0  0
  -21.8410   -4.6570   22.8400 C   0  0  0  0  0  0  0  0  0  0  0  0
  -22.2200   -4.0060   21.7140 F   0  0  0  0  0  0  0  0  0  0  0  0
  -21.1840   -3.9250   26.3740 F   0  0  0  0  0  0  0  0  0  0  0  0
  -22.9700  -13.2730   21.2380 C   0  0  0  0  0  0  0  0  0  0  0  0
  -22.3920  -12.6050   22.2290 N   0  0  0  0  0  0  0  0  0  0  0  0
  -22.4840  -14.3190   20.8060 O   0  0  0  0  0  0  0  0  0  0  0  0
  -22.8010  -11.7590   22.5960 H   0  0  0  0  0  0  0  0  0  0  0  0
  -21.5270  -12.9450   22.6270 H   0  0  0  0  0  0  0  0  0  0  0  0
  -25.4950  -14.8380   19.9940 N   0  0  0  0  0  0  0  0  0  0  0  0
  -24.8010  -15.5270   20.2620 H   0  0  0  0  0  0  0  0  0  0  0  0
  -26.3050  -15.2460   19.5440 H   0  0  0  0  0  0  0  0  0  0  0  0
  1  7  2  0
  1  4  1  0
  2  6  1  0
  3  2  1  0
  3  1  1  0
  5  4  1  0
  6 13  1  6
  6  5  1  0
  6  9  1  0
  7 55  1  0
  8  2  2  0
  9 12  1  0
  9 10  1  0
 11  9  1  0
 14 16  1  0
 14 13  1  0
 15 26  2  0
 16 21  1  0
 17 25  1  0
 17 27  1  0
 18 24  1  0
 18 20  1  0
 19 25  1  0
 20 19  1  0
 21 20  2  0
 22 23  1  0
 22 16  2  0
 23 18  2  0
 24 17  1  0
 25 15  1  0
 27 29  2  0
 28 27  1  0
 30 28  1  0
 31 40  2  0
 31 36  1  0
 32 28  1  0
 33 32  1  0
 34 35  1  0
 34 33  1  0
 35 31  1  0
 36 32  1  0
 36 37  2  0
 38 37  1  0
 39 38  2  0
 40 39  1  0
 41 15  1  0
 41 46  1  0
 41 42  1  0
 42 45  1  1
 42 43  1  0
 44 42  1  0
 46 49  1  0
 47 51  1  0
 47 46  1  0
 48 47  2  0
 51 50  1  0
 53 51  1  0
 53 54  1  0
 53 52  1  0
 56 55  1  0
 57 56  1  0
 58 57  1  0
 59 58  1  0
 60 59  1  0
 61 69  1  0
 62 67  1  0
 63 64  1  0
 63 62  1  0
 65 64  1  0
 65 74  1  0
 65 66  1  0
 67 61  1  0
 67 66  1  0
 68 61  2  0
 69 60  1  0
 69 70  1  0
 71 72  2  0
 72 91  1  0
 73 72  1  0
 73 76  1  0
 74 75  1  0
 74 71  1  0
 75 73  2  0
 76 77  1  0
 77 78  2  0
 79 82  1  0
 79 78  1  0
 80 79  2  0
 81 80  1  0
 81 76  2  0
 82 83  1  0
 83 88  2  0
 83 84  1  0
 84 85  2  0
 85 86  1  0
 86 90  1  0
 87 86  2  0
 88 87  1  0
 89 88  1  0
 91 92  1  0
 92 94  1  0
 92 95  1  0
 93 91  2  0
 96 71  1  0
 96 97  1  0
 98 96  1  0
M  ISO  4  13 101  14 101  61 100  69 100
M  END
>  <TORSDO>  (6) 
F 24

>  <SCORE>  (6) 
-9.833

>  <name>  (6) 
5

>  <ligand_id>  (6) 
5

>  <original_smiles>  (6) 
[H]c1c([H])c([H])c2c(c1[H])C([H])([H])C([H])([H])C([H])([H])C2([H])N([H])C(=O)C1([H])N(C(=O)C([H])(N([H])C(=O)C([H])(N([H])C([H])([H])[H])C([H])([H])[H])C(C([H])([H])[H])(C([H])([H])[H])C([H])([H])[H])C([H])([H])c2c([H])c(OC([H])([H])C3([N+]([H])([H])[H])C(=O)C([H])([H])C(=NC([H])([H])C([H])([H])C([H])([H])C([H])([H])C([H])([H])C([H])([H])N([H])C(=O)N4C([H])([H])C([H])([H])C([H])([H])C([H])(n5nc(-c6c([H])c([H])c(Oc7c([H])c([H])c(F)c([H])c7F)c([H])c6[H])c(C(=O)N([H])[H])c5N([H])[H])C4([H])[H])C([H])([H])C3([H])[H])c([H])c([H])c2C1([H])[H]

>  <smiles>  (6) 
[H]c1c([H])c([H])c2c(c1[H])C([H])([H])C([H])([H])C([H])([H])C2([H])N([H])C(=O)C1([H])N(C(=O)C([H])(N([H])C(=O)C([H])(N([H])C([H])([H])[H])C([H])([H])[H])C(C([H])([H])[H])(C([H])([H])[H])C([H])([H])[H])C([H])([H])c2c([H])c(OC([H])([H])C3([N+]([H])([H])[H])C(=O)C([H])([H])C(=NC([H])([H])C([H])([H])C([H])([H])C([H])([H])C([H])([H])C([H])([H])N([H])C(=O)N4C([H])([H])C([H])([H])C([H])([H])C([H])(n5nc(-c6c([H])c([H])c(Oc7c([H])c([H])c(F)c([H])c7F)c([H])c6[H])c(C(=O)N([H])[H])c5N([H])[H])C4([H])[H])C([H])([H])C3([H])[H])c([H])c([H])c2C1([H])[H]

$$$$
6:0:0
     RDKit          3D

101109  0  0  1  0  0  0  0  0999 V2000
  -29.9000  -21.4770   18.2380 C   0  0  0  0  0  3  0  0  0  0  0  0
  -30.5450  -22.5950   17.6750 C   0  0  0  0  0  3  0  0  0  0  0  0
  -29.9860  -22.5400   20.4210 C   0  0  0  0  0  3  0  0  0  0  0  0
  -29.6190  -21.4370   19.6240 C   0  0  0  0  0  0  0  0  0  0  0  0
  -30.9020  -23.7010   18.4740 C   0  0  0  0  0  0  0  0  0  0  0  0
  -30.5960  -23.6880   19.8590 C   0  0  0  0  0  0  0  0  0  0  0  0
  -31.6190  -24.8700   17.8140 C   0  0  0  0  0  1  0  0  0  0  0  0
  -30.9180  -24.8700   20.7740 C   0  0  0  0  0  2  0  0  0  0  0  0
  -29.7710  -25.2560   21.7320 C   0  0  0  0  0  2  0  0  0  0  0  0
  -29.1520  -26.6260   21.4470 C   0  0  0  0  0  2  0  0  0  0  0  0
  -28.3340  -26.5260   20.2820 O   0  0  0  0  0  0  0  0  0  0  0  0
  -24.5620  -31.7630   23.2680 C   0  0  0  0  0  0  0  0  0  0  0  0
  -27.2050  -27.3080   20.2680 C   0  0  0  0  0  0  0  0  0  0  0  0
  -23.3570  -30.3700   21.6100 C   0  0  0  0  0  3  0  0  0  0  0  0
  -24.8140  -28.8060   20.2170 C   0  0  0  0  0  0  0  0  0  0  0  0
  -25.8830  -30.7080   21.4460 C   0  0  0  0  0  2  0  0  0  0  0  0
  -25.9600  -29.3340   20.8240 C   0  0  0  0  0  0  0  0  0  0  0  0
  -27.1540  -28.5940   20.8510 C   0  0  0  0  0  3  0  0  0  0  0  0
  -26.0530  -26.7920   19.6400 C   0  0  0  0  0  3  0  0  0  0  0  0
  -24.8540  -27.5310   19.6190 C   0  0  0  0  0  3  0  0  0  0  0  0
  -23.5750  -29.6750   20.2380 C   0  0  0  0  0  2  0  0  0  0  0  0
  -24.6160  -30.9630   22.1670 N   0  0  0  0  0  0  0  0  0  0  0  0
  -23.4800  -32.0520   23.7960 O   0  0  0  0  0  0  0  0  0  0  0  0
  -22.6830  -29.3610   22.5670 C   0  0  0  0  0  0  0  0  0  0  0  0
  -21.3560  -29.2150   22.4380 N   0  0  0  0  0  0  0  0  0  0  0  0
  -23.3510  -28.7180   23.3820 O   0  0  0  0  0  0  0  0  0  0  0  0
  -20.8780  -29.7870   21.7560 H   0  0  0  0  0  0  0  0  0  0  0  0
  -17.9510  -28.1240   22.9430 C   0  0  0  0  0  0  0  0  0  0  0  0
  -20.5170  -28.2960   23.2040 C   0  0  0  0  0  3  0  0  0  0  0  0
  -20.5680  -26.8670   22.6160 C   0  0  0  0  0  2  0  0  0  0  0  0
  -19.4510  -26.5900   21.6030 C   0  0  0  0  0  2  0  0  0  0  0  0
  -18.0780  -26.7760   22.2550 C   0  0  0  0  0  2  0  0  0  0  0  0
  -19.0960  -28.8440   23.3760 C   0  0  0  0  0  0  0  0  0  0  0  0
  -18.9230  -30.1080   23.9790 C   0  0  0  0  0  3  0  0  0  0  0  0
  -17.6370  -30.6550   24.1520 C   0  0  0  0  0  3  0  0  0  0  0  0
  -16.5060  -29.9320   23.7340 C   0  0  0  0  0  3  0  0  0  0  0  0
  -16.6640  -28.6670   23.1390 C   0  0  0  0  0  3  0  0  0  0  0  0
  -25.8520  -32.3760   23.9010 C   0  0  0  0  0  3  0  0  0  0  0  0
  -26.3460  -31.6030   25.1870 C   0  0  1  0  0  0  0  0  0  0  0  0
  -25.2380  -31.3840   26.2440 C   0  0  0  0  0  1  0  0  0  0  0  0
  -26.9140  -30.2150   24.8060 C   0  0  0  0  0  1  0  0  0  0  0  0
  -27.4980  -32.3870   25.8610 C   0  0  0  0  0  1  0  0  0  0  0  0
  -25.5600  -33.7800   24.2170 N   0  0  0  0  0  0  0  0  0  0  0  0
  -25.9200  -34.8210   23.4530 C   0  0  0  0  0  0  0  0  0  0  0  0
  -26.6040  -34.6980   22.4330 O   0  0  0  0  0  0  0  0  0  0  0  0
  -24.9450  -33.9490   25.0000 H   0  0  0  0  0  0  0  0  0  0  0  0
  -24.2200  -36.6360   23.0650 C   0  0  0  0  0  1  0  0  0  0  0  0
  -25.4460  -36.2190   23.8920 C   0  0  0  0  0  3  0  0  0  0  0  0
  -27.5850  -37.0830   24.7370 C   0  0  0  0  0  1  0  0  0  0  0  0
  -26.4950  -37.2570   23.7800 N   0  0  0  0  0  0  0  0  0  0  0  0
  -26.0980  -38.1830   23.9160 H   0  0  0  0  0  0  0  0  0  0  0  0
  -28.9280  -20.2340   20.2790 C   0  0  0  0  0  3  0  0  0  0  0  0
  -29.6840  -18.9930   20.0110 N   0  0  0  0  0  4  0  0  0  0  0  0
  -29.7020  -18.8080   19.0210 H   0  0  0  0  0  0  0  0  0  0  0  0
  -30.6330  -19.1910   20.2850 H   0  0  0  0  0  0  0  0  0  0  0  0
  -29.2550  -17.7650   20.7140 C   0  0  0  0  0  2  0  0  0  0  0  0
  -30.4520  -16.8230   20.9110 C   0  0  0  0  0  2  0  0  0  0  0  0
  -30.6920  -14.4110   20.6580 C   0  0  0  0  0  0  0  0  0  0  0  0
  -30.3580  -12.2540   19.5460 C   0  0  0  0  0  2  0  0  0  0  0  0
  -29.4470  -12.4720   18.3220 C   0  0  0  0  0  2  0  0  0  0  0  0
  -27.9640  -12.3510   18.7230 C   0  0  0  0  0  2  0  0  0  0  0  0
  -27.6060  -13.1980   19.9740 C   0  0  0  0  0  3  0  0  0  0  0  0
  -28.6460  -13.0000   21.1020 C   0  0  0  0  0  2  0  0  0  0  0  0
  -29.9870  -13.2580   20.5500 N   0  0  0  0  0  0  0  0  0  0  0  0
  -31.8030  -14.5790   20.1500 O   0  0  0  0  0  0  0  0  0  0  0  0
  -30.0430  -15.4480   21.1950 N   0  0  0  0  0  0  0  0  0  0  0  0
  -29.1370  -15.2750   21.6050 H   0  0  0  0  0  0  0  0  0  0  0  0
  -25.1970  -13.7990   20.6690 C   0  0  0  0  0  0  0  0  0  0  0  0
  -24.1240  -13.0210   21.0140 C   0  0  0  0  0  0  0  0  0  0  0  0
  -24.5840  -11.6700   20.9690 C   0  0  0  0  0  0  0  0  0  0  0  0
  -26.2460  -12.9200   20.4340 N   0  0  0  0  0  0  0  0  0  0  0  0
  -25.8770  -11.6350   20.6720 N   0  0  0  0  0  0  0  0  0  0  0  0
  -23.8550  -10.4070   21.1380 C   0  0  0  0  0  0  0  0  0  0  0  0
  -24.2960   -9.4110   22.0340 C   0  0  0  0  0  3  0  0  0  0  0  0
  -23.5670   -8.2130   22.1880 C   0  0  0  0  0  3  0  0  0  0  0  0
  -22.3820   -8.0020   21.4480 C   0  0  0  0  0  0  0  0  0  0  0  0
  -21.9610   -8.9890   20.5390 C   0  0  0  0  0  3  0  0  0  0  0  0
  -22.6900  -10.1780   20.3820 C   0  0  0  0  0  3  0  0  0  0  0  0
  -21.6190   -6.8610   21.5160 O   0  0  0  0  0  0  0  0  0  0  0  0
  -21.6090   -6.0700   22.6360 C   0  0  0  0  0  0  0  0  0  0  0  0
  -21.2350   -6.5770   23.9000 C   0  0  0  0  0  3  0  0  0  0  0  0
  -21.1640   -5.7120   25.0110 C   0  0  0  0  0  3  0  0  0  0  0  0
  -21.4610   -4.3440   24.8600 C   0  0  0  0  0  0  0  0  0  0  0  0
  -21.8270   -3.8390   23.6010 C   0  0  0  0  0  3  0  0  0  0  0  0
  -21.8980   -4.6980   22.4920 C   0  0  0  0  0  0  0  0  0  0  0  0
  -22.2310   -4.2000   21.2770 F   0  0  0  0  0  0  0  0  0  0  0  0
  -21.3870   -3.5130   25.9260 F   0  0  0  0  0  0  0  0  0  0  0  0
  -22.7260  -13.5010   21.2790 C   0  0  0  0  0  0  0  0  0  0  0  0
  -21.9900  -12.8010   22.1360 N   0  0  0  0  0  0  0  0  0  0  0  0
  -22.2940  -14.5290   20.7610 O   0  0  0  0  0  0  0  0  0  0  0  0
  -22.3510  -11.9700   22.5780 H   0  0  0  0  0  0  0  0  0  0  0  0
  -21.0530  -13.1100   22.3560 H   0  0  0  0  0  0  0  0  0  0  0  0
  -25.3560  -15.1710   20.5100 N   0  0  0  0  0  0  0  0  0  0  0  0
  -24.5680  -15.8050   20.6060 H   0  0  0  0  0  0  0  0  0  0  0  0
  -26.1880  -15.6270   20.1600 H   0  0  0  0  0  0  0  0  0  0  0  0
  -27.3950  -20.1640   20.0130 C   0  0  0  0  0  2  0  0  0  0  0  0
  -26.8950  -20.4070   18.5730 C   0  0  0  0  0  2  0  0  0  0  0  0
  -25.4390  -20.6500   18.5340 N   0  0  0  0  0  4  0  0  0  0  0  0
  -24.9230  -19.8680   18.9020 H   0  0  0  0  0  0  0  0  0  0  0  0
  -25.1380  -20.8050   17.5880 H   0  0  0  0  0  0  0  0  0  0  0  0
  -25.1980  -21.4650   19.0690 H   0  0  0  0  0  0  0  0  0  0  0  0
  1  4  1  0
  2  1  2  0
  2  5  1  0
  4 52  1  0
  4  3  2  0
  5  6  2  0
  6  3  1  0
  6  8  1  0
  7  5  1  0
  8  9  1  0
 10  9  1  0
 11 10  1  0
 12 23  2  0
 13 11  1  0
 13 18  1  0
 14 22  1  0
 14 24  1  0
 15 21  1  0
 15 17  1  0
 16 22  1  0
 17 18  2  0
 17 16  1  0
 19 13  2  0
 20 19  1  0
 20 15  2  0
 21 14  1  0
 22 12  1  0
 24 26  2  0
 25 24  1  0
 27 25  1  0
 28 37  2  0
 28 33  1  0
 29 25  1  0
 29 33  1  0
 30 29  1  0
 31 32  1  0
 31 30  1  0
 32 28  1  0
 33 34  2  0
 34 35  1  0
 36 35  2  0
 37 36  1  0
 38 12  1  0
 38 43  1  0
 38 39  1  0
 39 42  1  1
 39 40  1  0
 41 39  1  0
 43 46  1  0
 44 48  1  0
 44 43  1  0
 45 44  2  0
 48 47  1  0
 50 48  1  0
 50 51  1  0
 50 49  1  0
 52 96  1  0
 53 52  1  0
 53 55  1  0
 53 56  1  0
 54 53  1  0
 56 57  1  0
 57 66  1  0
 58 66  1  0
 59 64  1  0
 60 61  1  0
 60 59  1  0
 62 61  1  0
 62 71  1  0
 62 63  1  0
 64 58  1  0
 64 63  1  0
 65 58  2  0
 66 67  1  0
 68 69  2  0
 69 88  1  0
 70 69  1  0
 70 73  1  0
 71 68  1  0
 71 72  1  0
 72 70  2  0
 73 74  1  0
 74 75  2  0
 76 79  1  0
 76 75  1  0
 77 76  2  0
 78 77  1  0
 78 73  2  0
 79 80  1  0
 80 81  1  0
 81 82  2  0
 83 82  1  0
 83 87  1  0
 84 83  2  0
 85 80  2  0
 85 84  1  0
 86 85  1  0
 88 89  1  0
 89 92  1  0
 89 91  1  0
 90 88  2  0
 93 94  1  0
 93 68  1  0
 95 93  1  0
 97 96  1  0
 98 97  1  0
 98 99  1  0
 98101  1  0
100 98  1  0
M  ISO  4  10 101  11 101  58 100  66 100
M  END
>  <TORSDO>  (7) 
F 26

>  <SCORE>  (7) 
-12.039

>  <name>  (7) 
6

>  <ligand_id>  (7) 
6

>  <original_smiles>  (7) 
[H]c1c([H])c([H])c2c(c1[H])C([H])([H])C([H])([H])C([H])([H])C2([H])N([H])C(=O)C1([H])N(C(=O)C([H])(N([H])C(=O)C([H])(N([H])C([H])([H])[H])C([H])([H])[H])C(C([H])([H])[H])(C([H])([H])[H])C([H])([H])[H])C([H])([H])c2c([H])c(OC([H])([H])C([H])([H])C([H])([H])c3c([H])c(C([H])(C([H])([H])C([H])([H])[N+]([H])([H])[H])[N+]([H])([H])C([H])([H])C([H])([H])N([H])C(=O)N4C([H])([H])C([H])([H])C([H])([H])C([H])(n5nc(-c6c([H])c([H])c(Oc7c([H])c([H])c(F)c([H])c7F)c([H])c6[H])c(C(=O)N([H])[H])c5N([H])[H])C4([H])[H])c([H])c([H])c3C([H])([H])[H])c([H])c([H])c2C1([H])[H]

>  <smiles>  (7) 
[H]c1c([H])c([H])c2c(c1[H])C([H])([H])C([H])([H])C([H])([H])C2([H])N([H])C(=O)C1([H])N(C(=O)C([H])(N([H])C(=O)C([H])(N([H])C([H])([H])[H])C([H])([H])[H])C(C([H])([H])[H])(C([H])([H])[H])C([H])([H])[H])C([H])([H])c2c([H])c(OC([H])([H])C([H])([H])C([H])([H])c3c([H])c(C([H])(C([H])([H])C([H])([H])[N+]([H])([H])[H])[N+]([H])([H])C([H])([H])C([H])([H])N([H])C(=O)N4C([H])([H])C([H])([H])C([H])([H])C([H])(n5nc(-c6c([H])c([H])c(Oc7c([H])c([H])c(F)c([H])c7F)c([H])c6[H])c(C(=O)N([H])[H])c5N([H])[H])C4([H])[H])c([H])c([H])c3C([H])([H])[H])c([H])c([H])c2C1([H])[H]

$$$$
7:0:0
     RDKit          3D

104112  0  0  1  0  0  0  0  0999 V2000
  -32.4120  -21.7230   15.7680 C   0  0  0  0  0  3  0  0  0  0  0  0
  -33.1470  -20.8690   16.6050 C   0  0  0  0  0  3  0  0  0  0  0  0
  -31.0240  -21.8460   15.9420 C   0  0  0  0  0  3  0  0  0  0  0  0
  -32.4850  -20.1330   17.6020 C   0  0  0  0  0  3  0  0  0  0  0  0
  -30.3420  -21.1330   16.9580 C   0  0  0  0  0  0  0  0  0  0  0  0
  -31.0870  -20.2420   17.7890 C   0  0  0  0  0  0  0  0  0  0  0  0
  -30.4720  -19.3590   18.8750 C   0  0  0  0  0  2  0  0  0  0  0  0
  -30.6690  -19.9610   20.2070 N   0  0  0  0  0  4  0  0  0  0  0  0
  -30.1360  -20.8080   20.2850 H   0  0  0  0  0  0  0  0  0  0  0  0
  -31.6420  -20.2040   20.2870 H   0  0  0  0  0  0  0  0  0  0  0  0
  -30.3330  -19.0770   21.3390 C   0  0  0  0  0  2  0  0  0  0  0  0
  -31.0130  -19.5460   22.6360 C   0  0  0  0  0  2  0  0  0  0  0  0
  -32.5530  -19.4790   22.5470 C   0  0  0  0  0  2  0  0  0  0  0  0
  -33.2610  -19.4070   23.9130 C   0  0  0  0  0  2  0  0  0  0  0  0
  -32.9270  -18.1490   24.7370 C   0  0  0  0  0  2  0  0  0  0  0  0
  -33.0090  -16.8680   23.9290 C   0  0  0  0  0  3  0  0  0  0  0  0
  -31.9660  -16.0600   23.6780 C   0  0  0  0  0  3  0  0  0  0  0  0
  -32.0750  -14.7760   22.8830 C   0  0  0  0  0  2  0  0  0  0  0  0
  -30.8770  -14.2330   20.7830 C   0  0  0  0  0  0  0  0  0  0  0  0
  -30.4010  -12.2910   19.3540 C   0  0  0  0  0  2  0  0  0  0  0  0
  -29.4600  -12.5420   18.1690 C   0  0  0  0  0  2  0  0  0  0  0  0
  -27.9960  -12.3780   18.6070 C   0  0  0  0  0  2  0  0  0  0  0  0
  -27.6650  -13.2080   19.8730 C   0  0  0  0  0  3  0  0  0  0  0  0
  -28.7080  -12.9770   20.9890 C   0  0  0  0  0  2  0  0  0  0  0  0
  -30.0580  -13.2120   20.4450 N   0  0  0  0  0  0  0  0  0  0  0  0
  -31.7570  -14.6850   20.0440 O   0  0  0  0  0  0  0  0  0  0  0  0
  -30.8760  -14.4730   22.1010 N   0  0  0  0  0  0  0  0  0  0  0  0
  -30.1150  -14.0430   22.6050 H   0  0  0  0  0  0  0  0  0  0  0  0
  -25.2600  -13.8170   20.5690 C   0  0  0  0  0  0  0  0  0  0  0  0
  -24.1850  -13.0440   20.9180 C   0  0  0  0  0  0  0  0  0  0  0  0
  -24.6400  -11.6910   20.8730 C   0  0  0  0  0  0  0  0  0  0  0  0
  -26.3040  -12.9350   20.3390 N   0  0  0  0  0  0  0  0  0  0  0  0
  -25.9330  -11.6500   20.5770 N   0  0  0  0  0  0  0  0  0  0  0  0
  -23.9060  -10.4300   21.0400 C   0  0  0  0  0  0  0  0  0  0  0  0
  -24.3610   -9.4210   21.9180 C   0  0  0  0  0  3  0  0  0  0  0  0
  -23.6290   -8.2250   22.0750 C   0  0  0  0  0  3  0  0  0  0  0  0
  -22.4270   -8.0290   21.3550 C   0  0  0  0  0  0  0  0  0  0  0  0
  -21.9910   -9.0260   20.4650 C   0  0  0  0  0  3  0  0  0  0  0  0
  -22.7240  -10.2140   20.3050 C   0  0  0  0  0  3  0  0  0  0  0  0
  -21.6640   -6.8880   21.4240 O   0  0  0  0  0  0  0  0  0  0  0  0
  -21.6860   -6.0740   22.5280 C   0  0  0  0  0  0  0  0  0  0  0  0
  -21.4010   -6.5640   23.8210 C   0  0  0  0  0  3  0  0  0  0  0  0
  -21.3660   -5.6790   24.9180 C   0  0  0  0  0  3  0  0  0  0  0  0
  -21.6040   -4.3060   24.7230 C   0  0  0  0  0  0  0  0  0  0  0  0
  -21.8820   -3.8150   23.4350 C   0  0  0  0  0  3  0  0  0  0  0  0
  -21.9190   -4.6960   22.3400 C   0  0  0  0  0  0  0  0  0  0  0  0
  -22.1660   -4.2150   21.0980 F   0  0  0  0  0  0  0  0  0  0  0  0
  -21.5630   -3.4540   25.7740 F   0  0  0  0  0  0  0  0  0  0  0  0
  -22.7870  -13.5240   21.1840 C   0  0  0  0  0  0  0  0  0  0  0  0
  -22.0510  -12.8230   22.0390 N   0  0  0  0  0  0  0  0  0  0  0  0
  -22.3560  -14.5560   20.6700 O   0  0  0  0  0  0  0  0  0  0  0  0
  -22.4110  -11.9880   22.4760 H   0  0  0  0  0  0  0  0  0  0  0  0
  -21.1130  -13.1270   22.2600 H   0  0  0  0  0  0  0  0  0  0  0  0
  -25.4330  -15.1890   20.4100 N   0  0  0  0  0  0  0  0  0  0  0  0
  -24.6730  -15.8500   20.5230 H   0  0  0  0  0  0  0  0  0  0  0  0
  -26.2970  -15.6240   20.1070 H   0  0  0  0  0  0  0  0  0  0  0  0
  -28.8260  -21.3330   17.0670 C   0  0  0  0  0  2  0  0  0  0  0  0
  -28.3760  -22.8100   17.1440 C   0  0  0  0  0  2  0  0  0  0  0  0
  -28.9010  -23.4930   18.3460 N   0  0  0  0  0  4  0  0  0  0  0  0
  -29.9070  -23.4020   18.3630 H   0  0  0  0  0  0  0  0  0  0  0  0
  -28.5270  -23.0240   19.1540 H   0  0  0  0  0  0  0  0  0  0  0  0
  -28.5630  -24.9310   18.4470 C   0  0  0  0  0  2  0  0  0  0  0  0
  -28.4530  -25.3750   19.9190 C   0  0  0  0  0  2  0  0  0  0  0  0
  -28.4420  -26.7950   20.0550 O   0  0  0  0  0  0  0  0  0  0  0  0
  -24.6100  -31.8700   23.2100 C   0  0  0  0  0  0  0  0  0  0  0  0
  -27.2370  -27.4630   20.0730 C   0  0  0  0  0  0  0  0  0  0  0  0
  -23.3990  -30.4940   21.5500 C   0  0  0  0  0  3  0  0  0  0  0  0
  -24.8430  -28.9650   20.1180 C   0  0  0  0  0  0  0  0  0  0  0  0
  -25.9270  -30.8430   21.3620 C   0  0  0  0  0  2  0  0  0  0  0  0
  -26.0030  -29.4820   20.7050 C   0  0  0  0  0  0  0  0  0  0  0  0
  -27.2030  -28.7410   20.6750 C   0  0  0  0  0  3  0  0  0  0  0  0
  -26.0480  -26.9460   19.5040 C   0  0  0  0  0  3  0  0  0  0  0  0
  -24.8570  -27.6950   19.5200 C   0  0  0  0  0  3  0  0  0  0  0  0
  -23.6050  -29.8280   20.1660 C   0  0  0  0  0  2  0  0  0  0  0  0
  -24.6630  -31.0810   22.1000 N   0  0  0  0  0  0  0  0  0  0  0  0
  -23.5280  -32.1470   23.7460 O   0  0  0  0  0  0  0  0  0  0  0  0
  -22.7380  -29.4680   22.4980 C   0  0  0  0  0  0  0  0  0  0  0  0
  -21.4100  -29.3030   22.3710 N   0  0  0  0  0  0  0  0  0  0  0  0
  -23.4160  -28.8230   23.3020 O   0  0  0  0  0  0  0  0  0  0  0  0
  -20.9250  -29.8750   21.6940 H   0  0  0  0  0  0  0  0  0  0  0  0
  -18.0270  -28.1350   22.8480 C   0  0  0  0  0  0  0  0  0  0  0  0
  -20.5860  -28.3660   23.1310 C   0  0  0  0  0  3  0  0  0  0  0  0
  -20.6770  -26.9400   22.5400 C   0  0  0  0  0  2  0  0  0  0  0  0
  -19.5760  -26.6380   21.5190 C   0  0  0  0  0  2  0  0  0  0  0  0
  -18.1950  -26.7910   22.1600 C   0  0  0  0  0  2  0  0  0  0  0  0
  -19.1520  -28.8820   23.2900 C   0  0  0  0  0  0  0  0  0  0  0  0
  -18.9440  -30.1410   23.8940 C   0  0  0  0  0  3  0  0  0  0  0  0
  -17.6450  -30.6570   24.0550 C   0  0  0  0  0  3  0  0  0  0  0  0
  -16.5350  -29.9070   23.6310 C   0  0  0  0  0  3  0  0  0  0  0  0
  -16.7260  -28.6470   23.0370 C   0  0  0  0  0  3  0  0  0  0  0  0
  -25.8990  -32.4830   23.8390 C   0  0  0  0  0  3  0  0  0  0  0  0
  -25.5860  -33.8640   24.2320 N   0  0  0  0  0  0  0  0  0  0  0  0
  -25.9020  -34.9470   23.5120 C   0  0  0  0  0  0  0  0  0  0  0  0
  -26.5590  -34.8900   22.4680 O   0  0  0  0  0  0  0  0  0  0  0  0
  -25.0030  -33.9830   25.0480 H   0  0  0  0  0  0  0  0  0  0  0  0
  -24.1490  -36.7310   23.2640 C   0  0  0  0  0  1  0  0  0  0  0  0
  -25.4110  -36.3110   24.0330 C   0  0  0  0  0  3  0  0  0  0  0  0
  -27.5590  -37.1800   24.8450 C   0  0  0  0  0  1  0  0  0  0  0  0
  -26.4310  -37.3780   23.9380 N   0  0  0  0  0  0  0  0  0  0  0  0
  -26.0200  -38.2860   24.1370 H   0  0  0  0  0  0  0  0  0  0  0  0
  -26.4450  -31.6610   25.0720 C   0  0  1  0  0  0  0  0  0  0  0  0
  -25.3710  -31.3710   26.1460 C   0  0  0  0  0  1  0  0  0  0  0  0
  -27.0270  -30.3060   24.6070 C   0  0  0  0  0  1  0  0  0  0  0  0
  -27.6030  -32.4360   25.7450 C   0  0  0  0  0  1  0  0  0  0  0  0
  1  3  2  0
  1  2  1  0
  2  4  2  0
  3  5  1  0
  4  6  1  0
  5 57  1  0
  5  6  2  0
  6  7  1  0
  7  8  1  0
  8  9  1  0
  8 10  1  0
  8 11  1  0
 11 12  1  0
 13 12  1  0
 13 14  1  0
 14 15  1  0
 16 15  1  0
 17 16  2  0
 18 17  1  0
 19 27  1  0
 20 25  1  0
 21 22  1  0
 21 20  1  0
 23 22  1  0
 23 32  1  0
 23 24  1  0
 25 19  1  0
 25 24  1  0
 26 19  2  0
 27 28  1  0
 27 18  1  0
 29 30  2  0
 30 49  1  0
 31 30  1  0
 31 34  1  0
 32 29  1  0
 32 33  1  0
 33 31  2  0
 34 35  1  0
 35 36  2  0
 37 40  1  0
 37 36  1  0
 38 37  2  0
 39 38  1  0
 39 34  2  0
 40 41  1  0
 41 42  1  0
 42 43  2  0
 44 43  1  0
 44 48  1  0
 45 44  2  0
 46 41  2  0
 46 45  1  0
 47 46  1  0
 49 50  1  0
 50 53  1  0
 50 52  1  0
 51 49  2  0
 54 55  1  0
 54 29  1  0
 56 54  1  0
 57 58  1  0
 58 59  1  0
 59 60  1  0
 59 62  1  0
 59 61  1  0
 62 63  1  0
 63 64  1  0
 64 66  1  0
 65 76  2  0
 66 71  1  0
 67 75  1  0
 67 77  1  0
 68 74  1  0
 68 70  1  0
 69 75  1  0
 70 69  1  0
 71 70  2  0
 72 73  1  0
 72 66  2  0
 73 68  2  0
 74 67  1  0
 75 65  1  0
 77 79  2  0
 78 77  1  0
 80 78  1  0
 81 90  2  0
 81 86  1  0
 82 78  1  0
 82 86  1  0
 83 82  1  0
 84 85  1  0
 84 83  1  0
 85 81  1  0
 86 87  2  0
 87 88  1  0
 89 88  2  0
 90 89  1  0
 91 65  1  0
 91 92  1  0
 91101  1  0
 92 95  1  0
 93 97  1  0
 93 92  1  0
 94 93  2  0
 97 96  1  0
 99 97  1  0
 99100  1  0
 99 98  1  0
101104  1  1
101102  1  0
103101  1  0
M  ISO  4  19 100  27 100  63 101  64 101
M  END
>  <TORSDO>  (8) 
F 30

>  <SCORE>  (8) 
9.431

>  <name>  (8) 
7

>  <ligand_id>  (8) 
7

>  <original_smiles>  (8) 
[H]C(=C([H])C([H])([H])C([H])([H])C([H])([H])C([H])([H])C([H])([H])[N+]([H])([H])C([H])([H])c1c([H])c([H])c([H])c([H])c1C([H])([H])C([H])([H])[N+]([H])([H])C([H])([H])C([H])([H])Oc1c([H])c([H])c2c(c1[H])C([H])([H])N(C(=O)C([H])(N([H])C(=O)C([H])(N([H])C([H])([H])[H])C([H])([H])[H])C(C([H])([H])[H])(C([H])([H])[H])C([H])([H])[H])C([H])(C(=O)N([H])C1([H])c3c([H])c([H])c([H])c([H])c3C([H])([H])C([H])([H])C1([H])[H])C2([H])[H])C([H])([H])N([H])C(=O)N1C([H])([H])C([H])([H])C([H])([H])C([H])(n2nc(-c3c([H])c([H])c(Oc4c([H])c([H])c(F)c([H])c4F)c([H])c3[H])c(C(=O)N([H])[H])c2N([H])[H])C1([H])[H]

>  <smiles>  (8) 
[H]C(=C([H])C([H])([H])C([H])([H])C([H])([H])C([H])([H])C([H])([H])[N+]([H])([H])C([H])([H])c1c([H])c([H])c([H])c([H])c1C([H])([H])C([H])([H])[N+]([H])([H])C([H])([H])C([H])([H])Oc1c([H])c([H])c2c(c1[H])C([H])([H])N(C(=O)C([H])(N([H])C(=O)C([H])(N([H])C([H])([H])[H])C([H])([H])[H])C(C([H])([H])[H])(C([H])([H])[H])C([H])([H])[H])C([H])(C(=O)N([H])C1([H])c3c([H])c([H])c([H])c([H])c3C([H])([H])C([H])([H])C1([H])[H])C2([H])[H])C([H])([H])N([H])C(=O)N1C([H])([H])C([H])([H])C([H])([H])C([H])(n2nc(-c3c([H])c([H])c(Oc4c([H])c([H])c(F)c([H])c4F)c([H])c3[H])c(C(=O)N([H])[H])c2N([H])[H])C1([H])[H]

$$$$
8:0:0
     RDKit          3D

 98106  0  0  1  0  0  0  0  0999 V2000
  -30.4510  -22.9160   21.4280 C   0  0  0  0  0  3  0  0  0  0  0  0
  -30.0740  -24.0870   20.7380 C   0  0  0  0  0  3  0  0  0  0  0  0
  -28.3960  -21.8440   20.7150 C   0  0  0  0  0  3  0  0  0  0  0  0
  -29.6290  -21.7710   21.4000 C   0  0  0  0  0  0  0  0  0  0  0  0
  -28.0060  -23.0130   20.0180 C   0  0  0  0  0  0  0  0  0  0  0  0
  -28.8640  -24.1530   20.0130 C   0  0  0  0  0  0  0  0  0  0  0  0
  -26.7050  -22.9750   19.2740 C   0  0  0  0  0  0  0  0  0  0  0  0
  -25.6310  -22.7220   20.0110 N   0  0  0  0  0  0  0  0  0  0  0  0
  -26.6430  -23.1490   18.0590 O   0  0  0  0  0  0  0  0  0  0  0  0
  -25.7200  -22.5870   21.0080 H   0  0  0  0  0  0  0  0  0  0  0  0
  -24.7180  -22.6880   19.5830 H   0  0  0  0  0  0  0  0  0  0  0  0
  -30.0400  -20.5180   22.1270 C   0  0  0  0  0  0  0  0  0  0  0  0
  -29.8170  -19.3600   21.4840 N   0  0  0  0  0  0  0  0  0  0  0  0
  -30.5580  -20.5780   23.2430 O   0  0  0  0  0  0  0  0  0  0  0  0
  -29.4390  -19.4320   20.5500 H   0  0  0  0  0  0  0  0  0  0  0  0
  -29.8220  -18.0330   22.1060 C   0  0  0  0  0  2  0  0  0  0  0  0
  -31.0610  -17.1620   21.8050 C   0  0  0  0  0  2  0  0  0  0  0  0
  -30.8780  -16.1650   20.6450 C   0  0  0  0  0  2  0  0  0  0  0  0
  -31.9280  -14.0710   19.9150 C   0  0  0  0  0  0  0  0  0  0  0  0
  -31.3160  -11.8910   18.9450 C   0  0  0  0  0  2  0  0  0  0  0  0
  -30.3520  -12.0530   17.7570 C   0  0  0  0  0  2  0  0  0  0  0  0
  -28.8920  -12.1020   18.2470 C   0  0  0  0  0  2  0  0  0  0  0  0
  -28.6840  -13.1110   19.4110 C   0  0  0  0  0  3  0  0  0  0  0  0
  -29.7570  -12.9150   20.5070 C   0  0  0  0  0  2  0  0  0  0  0  0
  -31.0870  -13.0040   19.8790 N   0  0  0  0  0  0  0  0  0  0  0  0
  -32.9420  -14.1590   19.2220 O   0  0  0  0  0  0  0  0  0  0  0  0
  -31.7070  -14.9780   20.8700 N   0  0  0  0  0  0  0  0  0  0  0  0
  -32.5820  -15.2470   21.2950 H   0  0  0  0  0  0  0  0  0  0  0  0
  -26.4380  -14.0470   20.2670 C   0  0  0  0  0  0  0  0  0  0  0  0
  -25.2850  -13.4320   20.6720 C   0  0  0  0  0  0  0  0  0  0  0  0
  -25.5340  -12.0280   20.5800 C   0  0  0  0  0  0  0  0  0  0  0  0
  -27.3280  -13.0290   19.9550 N   0  0  0  0  0  0  0  0  0  0  0  0
  -26.7870  -11.8070   20.1990 N   0  0  0  0  0  0  0  0  0  0  0  0
  -24.6350  -10.8830   20.7750 C   0  0  0  0  0  0  0  0  0  0  0  0
  -24.9440   -9.8500   21.6870 C   0  0  0  0  0  3  0  0  0  0  0  0
  -24.0540   -8.7700   21.8740 C   0  0  0  0  0  3  0  0  0  0  0  0
  -22.8420   -8.7150   21.1450 C   0  0  0  0  0  0  0  0  0  0  0  0
  -22.5500   -9.7340   20.2210 C   0  0  0  0  0  3  0  0  0  0  0  0
  -23.4400  -10.8050   20.0340 C   0  0  0  0  0  3  0  0  0  0  0  0
  -21.9300   -7.6910   21.2390 O   0  0  0  0  0  0  0  0  0  0  0  0
  -21.7630   -6.9810   22.4010 C   0  0  0  0  0  0  0  0  0  0  0  0
  -21.4180   -7.6100   23.6170 C   0  0  0  0  0  3  0  0  0  0  0  0
  -21.1870   -6.8350   24.7710 C   0  0  0  0  0  3  0  0  0  0  0  0
  -21.2920   -5.4330   24.7110 C   0  0  0  0  0  0  0  0  0  0  0  0
  -21.6300   -4.8030   23.5010 C   0  0  0  0  0  3  0  0  0  0  0  0
  -21.8620   -5.5760   22.3480 C   0  0  0  0  0  0  0  0  0  0  0  0
  -22.1660   -4.9620   21.1790 F   0  0  0  0  0  0  0  0  0  0  0  0
  -21.0650   -4.6880   25.8190 F   0  0  0  0  0  0  0  0  0  0  0  0
  -23.9910  -14.1040   21.0330 C   0  0  0  0  0  0  0  0  0  0  0  0
  -23.2220  -13.5070   21.9360 N   0  0  0  0  0  0  0  0  0  0  0  0
  -23.6780  -15.1930   20.5520 O   0  0  0  0  0  0  0  0  0  0  0  0
  -23.4900  -12.6300   22.3540 H   0  0  0  0  0  0  0  0  0  0  0  0
  -22.3520  -13.9400   22.2130 H   0  0  0  0  0  0  0  0  0  0  0  0
  -26.7920  -15.3860   20.1170 N   0  0  0  0  0  0  0  0  0  0  0  0
  -26.1240  -16.1300   20.2860 H   0  0  0  0  0  0  0  0  0  0  0  0
  -27.6740  -15.7160   19.7520 H   0  0  0  0  0  0  0  0  0  0  0  0
  -28.5790  -25.4500   19.2390 C   0  0  0  0  0  2  0  0  0  0  0  0
  -28.3910  -26.6100   20.0690 O   0  0  0  0  0  0  0  0  0  0  0  0
  -24.5860  -31.7710   23.1690 C   0  0  0  0  0  0  0  0  0  0  0  0
  -27.1990  -27.3140   20.0630 C   0  0  0  0  0  0  0  0  0  0  0  0
  -23.3690  -30.3890   21.5190 C   0  0  0  0  0  3  0  0  0  0  0  0
  -24.8100  -28.8500   20.0930 C   0  0  0  0  0  0  0  0  0  0  0  0
  -25.9010  -30.7250   21.3280 C   0  0  0  0  0  2  0  0  0  0  0  0
  -25.9730  -29.3550   20.6860 C   0  0  0  0  0  0  0  0  0  0  0  0
  -27.1630  -28.5920   20.6750 C   0  0  0  0  0  3  0  0  0  0  0  0
  -26.0080  -26.8320   19.4700 C   0  0  0  0  0  3  0  0  0  0  0  0
  -24.8220  -27.5840   19.4900 C   0  0  0  0  0  3  0  0  0  0  0  0
  -23.5760  -29.7190   20.1370 C   0  0  0  0  0  2  0  0  0  0  0  0
  -24.6380  -30.9760   22.0640 N   0  0  0  0  0  0  0  0  0  0  0  0
  -23.5060  -32.0480   23.7090 O   0  0  0  0  0  0  0  0  0  0  0  0
  -22.7080  -29.3660   22.4700 C   0  0  0  0  0  0  0  0  0  0  0  0
  -21.3830  -29.1920   22.3400 N   0  0  0  0  0  0  0  0  0  0  0  0
  -23.3860  -28.7330   23.2840 O   0  0  0  0  0  0  0  0  0  0  0  0
  -20.8950  -29.7590   21.6610 H   0  0  0  0  0  0  0  0  0  0  0  0
  -18.0030  -28.0090   22.8010 C   0  0  0  0  0  0  0  0  0  0  0  0
  -20.5580  -28.2580   23.1050 C   0  0  0  0  0  3  0  0  0  0  0  0
  -20.6630  -26.8240   22.5340 C   0  0  0  0  0  2  0  0  0  0  0  0
  -19.5720  -26.5030   21.5080 C   0  0  0  0  0  2  0  0  0  0  0  0
  -18.1830  -26.6560   22.1340 C   0  0  0  0  0  2  0  0  0  0  0  0
  -19.1190  -28.7680   23.2430 C   0  0  0  0  0  0  0  0  0  0  0  0
  -18.8960  -30.0360   23.8230 C   0  0  0  0  0  3  0  0  0  0  0  0
  -17.5910  -30.5430   23.9680 C   0  0  0  0  0  3  0  0  0  0  0  0
  -16.4900  -29.7790   23.5460 C   0  0  0  0  0  3  0  0  0  0  0  0
  -16.6970  -28.5140   22.9650 C   0  0  0  0  0  3  0  0  0  0  0  0
  -25.8770  -32.3900   23.7910 C   0  0  0  0  0  3  0  0  0  0  0  0
  -25.5760  -33.7830   24.1420 N   0  0  0  0  0  0  0  0  0  0  0  0
  -25.9090  -34.8440   23.3970 C   0  0  0  0  0  0  0  0  0  0  0  0
  -26.5740  -34.7570   22.3610 O   0  0  0  0  0  0  0  0  0  0  0  0
  -24.9890  -33.9270   24.9500 H   0  0  0  0  0  0  0  0  0  0  0  0
  -24.1790  -36.6450   23.0800 C   0  0  0  0  0  1  0  0  0  0  0  0
  -25.4240  -36.2260   23.8780 C   0  0  0  0  0  3  0  0  0  0  0  0
  -27.5650  -37.0960   24.7080 C   0  0  0  0  0  1  0  0  0  0  0  0
  -26.4560  -37.2810   23.7760 N   0  0  0  0  0  0  0  0  0  0  0  0
  -26.0490  -38.1960   23.9470 H   0  0  0  0  0  0  0  0  0  0  0  0
  -26.3990  -31.5970   25.0520 C   0  0  1  0  0  0  0  0  0  0  0  0
  -25.3130  -31.3420   26.1230 C   0  0  0  0  0  1  0  0  0  0  0  0
  -26.9800  -30.2280   24.6320 C   0  0  0  0  0  1  0  0  0  0  0  0
  -27.5470  -32.3810   25.7290 C   0  0  0  0  0  1  0  0  0  0  0  0
  2  1  2  0
  3  4  2  0
  4  1  1  0
  4 12  1  0
  5  3  1  0
  6  5  2  0
  6  2  1  0
  7  8  1  0
  7  5  1  0
  8 10  1  0
  9  7  2  0
 11  8  1  0
 12 14  2  0
 13 16  1  0
 13 12  1  0
 15 13  1  0
 17 16  1  0
 18 27  1  0
 18 17  1  0
 19 27  1  0
 20 25  1  0
 21 22  1  0
 21 20  1  0
 23 22  1  0
 23 32  1  0
 23 24  1  0
 25 19  1  0
 25 24  1  0
 26 19  2  0
 27 28  1  0
 29 30  2  0
 30 49  1  0
 31 30  1  0
 31 34  1  0
 32 33  1  0
 32 29  1  0
 33 31  2  0
 34 35  1  0
 35 36  2  0
 37 40  1  0
 37 36  1  0
 38 37  2  0
 39 38  1  0
 39 34  2  0
 40 41  1  0
 41 42  1  0
 42 43  2  0
 44 43  1  0
 44 48  1  0
 45 44  2  0
 46 41  2  0
 46 45  1  0
 47 46  1  0
 49 50  1  0
 50 53  1  0
 50 52  1  0
 51 49  2  0
 54 29  1  0
 54 55  1  0
 56 54  1  0
 57  6  1  0
 57 58  1  0
 59 70  2  0
 60 58  1  0
 60 65  1  0
 61 69  1  0
 61 71  1  0
 62 68  1  0
 62 64  1  0
 63 69  1  0
 64 63  1  0
 65 64  2  0
 66 67  1  0
 66 60  2  0
 67 62  2  0
 68 61  1  0
 69 59  1  0
 71 73  2  0
 72 71  1  0
 74 72  1  0
 75 84  2  0
 75 80  1  0
 76 72  1  0
 76 80  1  0
 77 76  1  0
 78 79  1  0
 78 77  1  0
 79 75  1  0
 80 81  2  0
 81 82  1  0
 83 82  2  0
 84 83  1  0
 85 59  1  0
 85 86  1  0
 85 95  1  0
 86 89  1  0
 87 91  1  0
 87 86  1  0
 88 87  2  0
 91 90  1  0
 93 91  1  0
 93 94  1  0
 93 92  1  0
 95 98  1  1
 95 96  1  0
 97 95  1  0
M  ISO  4  19 100  27 100  57 101  58 101
M  END
>  <TORSDO>  (9) 
F 22

>  <SCORE>  (9) 
-12.108

>  <name>  (9) 
8

>  <ligand_id>  (9) 
8

>  <original_smiles>  (9) 
[H]c1c([H])c([H])c2c(c1[H])C([H])([H])C([H])([H])C([H])([H])C2([H])N([H])C(=O)C1([H])N(C(=O)C([H])(N([H])C(=O)C([H])(N([H])C([H])([H])[H])C([H])([H])[H])C(C([H])([H])[H])(C([H])([H])[H])C([H])([H])[H])C([H])([H])c2c([H])c(OC([H])([H])c3c([H])c([H])c(C(=O)N([H])C([H])([H])C([H])([H])C([H])([H])N([H])C(=O)N4C([H])([H])C([H])([H])C([H])([H])C([H])(n5nc(-c6c([H])c([H])c(Oc7c([H])c([H])c(F)c([H])c7F)c([H])c6[H])c(C(=O)N([H])[H])c5N([H])[H])C4([H])[H])c([H])c3C(=O)N([H])[H])c([H])c([H])c2C1([H])[H]

>  <smiles>  (9) 
[H]c1c([H])c([H])c2c(c1[H])C([H])([H])C([H])([H])C([H])([H])C2([H])N([H])C(=O)C1([H])N(C(=O)C([H])(N([H])C(=O)C([H])(N([H])C([H])([H])[H])C([H])([H])[H])C(C([H])([H])[H])(C([H])([H])[H])C([H])([H])[H])C([H])([H])c2c([H])c(OC([H])([H])c3c([H])c([H])c(C(=O)N([H])C([H])([H])C([H])([H])C([H])([H])N([H])C(=O)N4C([H])([H])C([H])([H])C([H])([H])C([H])(n5nc(-c6c([H])c([H])c(Oc7c([H])c([H])c(F)c([H])c7F)c([H])c6[H])c(C(=O)N([H])[H])c5N([H])[H])C4([H])[H])c([H])c3C(=O)N([H])[H])c([H])c([H])c2C1([H])[H]

$$$$
9:0:0
     RDKit          3D

 96104  0  0  1  0  0  0  0  0999 V2000
  -26.9230  -21.2850   20.0560 C   0  0  0  0  0  3  0  0  0  0  0  0
  -29.2740  -21.6160   19.4850 C   0  0  0  0  0  3  0  0  0  0  0  0
  -27.0750  -19.9010   19.8970 C   0  0  0  0  0  3  0  0  0  0  0  0
  -29.4270  -20.2290   19.3130 C   0  0  0  0  0  3  0  0  0  0  0  0
  -28.0200  -22.1430   19.8590 C   0  0  0  0  0  0  0  0  0  0  0  0
  -28.3290  -19.3660   19.5290 C   0  0  0  0  0  0  0  0  0  0  0  0
  -27.1010  -17.2130   19.1680 C   0  0  0  0  0  1  0  0  0  0  0  0
  -28.4780  -17.8680   19.3710 C   0  0  0  0  0  3  0  0  0  0  0  0
  -29.3610  -17.6010   18.2200 N   0  0  0  0  0  4  0  0  0  0  0  0
  -28.8780  -16.9480   17.6050 H   0  0  0  0  0  0  0  0  0  0  0  0
  -29.4320  -18.4620   17.7030 H   0  0  0  0  0  0  0  0  0  0  0  0
  -30.7390  -17.1190   18.4860 C   0  0  0  0  0  2  0  0  0  0  0  0
  -30.9060  -16.5200   19.8940 C   0  0  0  0  0  2  0  0  0  0  0  0
  -32.7830  -14.7990   20.0590 C   0  0  0  0  0  0  0  0  0  0  0  0
  -32.8560  -12.4660   20.8660 C   0  0  0  0  0  2  0  0  0  0  0  0
  -32.0970  -11.4990   19.9260 C   0  0  0  0  0  2  0  0  0  0  0  0
  -30.5780  -11.4980   20.1880 C   0  0  0  0  0  2  0  0  0  0  0  0
  -29.9990  -12.9300   20.3280 C   0  0  0  0  0  3  0  0  0  0  0  0
  -30.8650  -13.7050   21.3440 C   0  0  0  0  0  2  0  0  0  0  0  0
  -32.2260  -13.7950   20.7930 N   0  0  0  0  0  0  0  0  0  0  0  0
  -33.8570  -14.6670   19.4650 O   0  0  0  0  0  0  0  0  0  0  0  0
  -32.2690  -16.0370   20.1760 N   0  0  0  0  0  0  0  0  0  0  0  0
  -32.9660  -16.7300   19.9360 H   0  0  0  0  0  0  0  0  0  0  0  0
  -27.6970  -13.9360   20.9050 C   0  0  0  0  0  0  0  0  0  0  0  0
  -26.4910  -13.3500   21.1970 C   0  0  0  0  0  0  0  0  0  0  0  0
  -26.7170  -11.9430   21.1390 C   0  0  0  0  0  0  0  0  0  0  0  0
  -28.5890  -12.8920   20.7100 N   0  0  0  0  0  0  0  0  0  0  0  0
  -27.9950  -11.6870   20.8950 N   0  0  0  0  0  0  0  0  0  0  0  0
  -25.7810  -10.8140   21.2410 C   0  0  0  0  0  0  0  0  0  0  0  0
  -25.8900   -9.8570   22.2740 C   0  0  0  0  0  3  0  0  0  0  0  0
  -24.9680   -8.7910   22.3620 C   0  0  0  0  0  3  0  0  0  0  0  0
  -23.9230   -8.6750   21.4150 C   0  0  0  0  0  0  0  0  0  0  0  0
  -23.8360   -9.6150   20.3720 C   0  0  0  0  0  3  0  0  0  0  0  0
  -24.7570  -10.6710   20.2830 C   0  0  0  0  0  3  0  0  0  0  0  0
  -22.9980   -7.6590   21.4090 O   0  0  0  0  0  0  0  0  0  0  0  0
  -22.4620   -7.1680   22.5730 C   0  0  0  0  0  0  0  0  0  0  0  0
  -21.7550   -7.9920   23.4740 C   0  0  0  0  0  3  0  0  0  0  0  0
  -21.1570   -7.4320   24.6210 C   0  0  0  0  0  3  0  0  0  0  0  0
  -21.2650   -6.0510   24.8690 C   0  0  0  0  0  0  0  0  0  0  0  0
  -21.9660   -5.2270   23.9700 C   0  0  0  0  0  3  0  0  0  0  0  0
  -22.5630   -5.7850   22.8240 C   0  0  0  0  0  0  0  0  0  0  0  0
  -23.2190   -4.9850   21.9500 F   0  0  0  0  0  0  0  0  0  0  0  0
  -20.6870   -5.5090   25.9660 F   0  0  0  0  0  0  0  0  0  0  0  0
  -25.1830  -14.0500   21.4110 C   0  0  0  0  0  0  0  0  0  0  0  0
  -24.3030  -13.4670   22.2190 N   0  0  0  0  0  0  0  0  0  0  0  0
  -24.9530  -15.1460   20.9010 O   0  0  0  0  0  0  0  0  0  0  0  0
  -24.5000  -12.5830   22.6620 H   0  0  0  0  0  0  0  0  0  0  0  0
  -23.4230  -13.9220   22.4070 H   0  0  0  0  0  0  0  0  0  0  0  0
  -28.1090  -15.2550   20.7460 N   0  0  0  0  0  0  0  0  0  0  0  0
  -27.2850  -15.8450   20.6560 H   0  0  0  0  0  0  0  0  0  0  0  0
  -28.6400  -15.3080   19.8830 H   0  0  0  0  0  0  0  0  0  0  0  0
  -27.8130  -23.6350   19.9620 C   0  0  0  0  0  2  0  0  0  0  0  0
  -28.2680  -24.3020   18.6550 C   0  0  0  0  0  2  0  0  0  0  0  0
  -27.4040  -25.4970   18.2490 C   0  0  0  0  0  2  0  0  0  0  0  0
  -28.0440  -26.3620   17.1320 C   0  0  0  0  0  2  0  0  0  0  0  0
  -27.1840  -27.3160   16.5040 O   0  0  0  0  0  0  0  0  0  0  0  0
  -25.1540  -29.7820   22.8650 C   0  0  0  0  0  0  0  0  0  0  0  0
  -26.1840  -27.8030   17.2950 C   0  0  0  0  0  0  0  0  0  0  0  0
  -23.3460  -29.1700   21.2950 C   0  0  0  0  0  3  0  0  0  0  0  0
  -24.0620  -28.7370   18.8880 C   0  0  0  0  0  0  0  0  0  0  0  0
  -25.6220  -29.9430   20.4280 C   0  0  0  0  0  2  0  0  0  0  0  0
  -25.3840  -29.0610   19.2220 C   0  0  0  0  0  0  0  0  0  0  0  0
  -26.4560  -28.5810   18.4380 C   0  0  0  0  0  3  0  0  0  0  0  0
  -24.8500  -27.5340   16.9400 C   0  0  0  0  0  3  0  0  0  0  0  0
  -23.7840  -27.9740   17.7420 C   0  0  0  0  0  3  0  0  0  0  0  0
  -22.9760  -29.2680   19.7920 C   0  0  0  0  0  2  0  0  0  0  0  0
  -24.7480  -29.6200   21.5770 N   0  0  0  0  0  0  0  0  0  0  0  0
  -24.3720  -29.6050   23.8100 O   0  0  0  0  0  0  0  0  0  0  0  0
  -23.0570  -27.7330   21.7820 C   0  0  0  0  0  0  0  0  0  0  0  0
  -21.8040  -27.2830   21.6070 N   0  0  0  0  0  0  0  0  0  0  0  0
  -23.9530  -27.0420   22.2720 O   0  0  0  0  0  0  0  0  0  0  0  0
  -21.1250  -27.9130   21.2060 H   0  0  0  0  0  0  0  0  0  0  0  0
  -19.0410  -25.0050   21.1580 C   0  0  0  0  0  0  0  0  0  0  0  0
  -21.3150  -25.9500   21.9440 C   0  0  0  0  0  3  0  0  0  0  0  0
  -21.9660  -24.8780   21.0430 C   0  0  0  0  0  2  0  0  0  0  0  0
  -21.1300  -24.5420   19.8020 C   0  0  0  0  0  2  0  0  0  0  0  0
  -19.7350  -24.0510   20.1990 C   0  0  0  0  0  2  0  0  0  0  0  0
  -19.7820  -25.9090   21.9650 C   0  0  0  0  0  0  0  0  0  0  0  0
  -19.0860  -26.7970   22.8140 C   0  0  0  0  0  3  0  0  0  0  0  0
  -17.6790  -26.7930   22.8640 C   0  0  0  0  0  3  0  0  0  0  0  0
  -16.9500  -25.8890   22.0710 C   0  0  0  0  0  3  0  0  0  0  0  0
  -17.6320  -24.9960   21.2250 C   0  0  0  0  0  3  0  0  0  0  0  0
  -26.6100  -30.2290   23.2110 C   0  0  0  0  0  3  0  0  0  0  0  0
  -26.5160  -31.4030   24.0850 N   0  0  0  0  0  0  0  0  0  0  0  0
  -26.8460  -32.6510   23.7230 C   0  0  0  0  0  0  0  0  0  0  0  0
  -27.3350  -32.9210   22.6230 O   0  0  0  0  0  0  0  0  0  0  0  0
  -26.0760  -31.2660   24.9840 H   0  0  0  0  0  0  0  0  0  0  0  0
  -25.3390  -34.5680   24.3320 C   0  0  0  0  0  1  0  0  0  0  0  0
  -26.5920  -33.7770   24.7420 C   0  0  0  0  0  3  0  0  0  0  0  0
  -28.9100  -34.0680   25.5020 C   0  0  0  0  0  1  0  0  0  0  0  0
  -27.7400  -34.7000   24.8970 N   0  0  0  0  0  0  0  0  0  0  0  0
  -27.4780  -35.4980   25.4700 H   0  0  0  0  0  0  0  0  0  0  0  0
  -27.4570  -29.0880   23.8930 C   0  0  1  0  0  0  0  0  0  0  0  0
  -26.7590  -28.4360   25.1100 C   0  0  0  0  0  1  0  0  0  0  0  0
  -27.7810  -27.9690   22.8770 C   0  0  0  0  0  1  0  0  0  0  0  0
  -28.8140  -29.6570   24.3690 C   0  0  0  0  0  1  0  0  0  0  0  0
  2  5  1  0
  3  1  1  0
  4  2  2  0
  4  6  1  0
  5 52  1  0
  5  1  2  0
  6  3  2  0
  8  7  1  0
  8  6  1  0
  9 12  1  0
  9  8  1  0
 10  9  1  0
 11  9  1  0
 12 13  1  0
 13 22  1  0
 14 22  1  0
 14 20  1  0
 16 17  1  0
 16 15  1  0
 18 17  1  0
 18 27  1  0
 18 19  1  0
 20 15  1  0
 20 19  1  0
 21 14  2  0
 23 22  1  0
 24 25  2  0
 25 44  1  0
 26 25  1  0
 26 29  1  0
 27 28  1  0
 27 24  1  0
 28 26  2  0
 29 30  1  0
 30 31  2  0
 32 31  1  0
 33 32  2  0
 34 33  1  0
 34 29  2  0
 35 32  1  0
 35 36  1  0
 36 41  2  0
 36 37  1  0
 37 38  2  0
 38 39  1  0
 39 43  1  0
 40 39  2  0
 41 40  1  0
 42 41  1  0
 44 45  1  0
 45 48  1  0
 45 47  1  0
 46 44  2  0
 49 24  1  0
 50 49  1  0
 51 49  1  0
 53 52  1  0
 54 53  1  0
 55 54  1  0
 56 55  1  0
 56 58  1  0
 57 68  2  0
 58 63  1  0
 59 67  1  0
 59 69  1  0
 60 62  1  0
 60 66  1  0
 61 67  1  0
 62 61  1  0
 63 62  2  0
 64 58  2  0
 64 65  1  0
 65 60  2  0
 66 59  1  0
 67 57  1  0
 69 71  2  0
 70 69  1  0
 72 70  1  0
 73 82  2  0
 73 78  1  0
 74 70  1  0
 74 78  1  0
 75 74  1  0
 76 77  1  0
 76 75  1  0
 77 73  1  0
 78 79  2  0
 79 80  1  0
 81 80  2  0
 82 81  1  0
 83 57  1  0
 83 93  1  0
 83 84  1  0
 84 87  1  0
 85 84  1  0
 85 89  1  0
 86 85  2  0
 89 88  1  0
 89 91  1  0
 91 92  1  0
 91 90  1  0
 93 96  1  1
 93 94  1  0
 95 93  1  0
M  ISO  4  14 100  22 100  55 101  56 101
M  END
>  <TORSDO>  (10) 
F 24

>  <SCORE>  (10) 
-7.163

>  <name>  (10) 
9

>  <ligand_id>  (10) 
9

>  <original_smiles>  (10) 
[H]c1c([H])c([H])c2c(c1[H])C([H])([H])C([H])([H])C([H])([H])C2([H])N([H])C(=O)C1([H])N(C(=O)C([H])(N([H])C(=O)C([H])(N([H])C([H])([H])[H])C([H])([H])[H])C(C([H])([H])[H])(C([H])([H])[H])C([H])([H])[H])C([H])([H])c2c([H])c(OC([H])([H])C([H])([H])C([H])([H])C([H])([H])c3c([H])c([H])c(C([H])(C([H])([H])[H])[N+]([H])([H])C([H])([H])C([H])([H])N([H])C(=O)N4C([H])([H])C([H])([H])C([H])([H])C([H])(n5nc(-c6c([H])c([H])c(Oc7c([H])c([H])c(F)c([H])c7F)c([H])c6[H])c(C(=O)N([H])[H])c5N([H])[H])C4([H])[H])c([H])c3[H])c([H])c([H])c2C1([H])[H]

>  <smiles>  (10) 
[H]c1c([H])c([H])c2c(c1[H])C([H])([H])C([H])([H])C([H])([H])C2([H])N([H])C(=O)C1([H])N(C(=O)C([H])(N([H])C(=O)C([H])(N([H])C([H])([H])[H])C([H])([H])[H])C(C([H])([H])[H])(C([H])([H])[H])C([H])([H])[H])C([H])([H])c2c([H])c(OC([H])([H])C([H])([H])C([H])([H])C([H])([H])c3c([H])c([H])c(C([H])(C([H])([H])[H])[N+]([H])([H])C([H])([H])C([H])([H])N([H])C(=O)N4C([H])([H])C([H])([H])C([H])([H])C([H])(n5nc(-c6c([H])c([H])c(Oc7c([H])c([H])c(F)c([H])c7F)c([H])c6[H])c(C(=O)N([H])[H])c5N([H])[H])C4([H])[H])c([H])c3[H])c([H])c([H])c2C1([H])[H]

$$$$
10:0:0
     RDKit          3D

109118  0  0  1  0  0  0  0  0999 V2000
  -34.1470  -25.1880   17.9450 C   0  0  0  0  0  2  0  0  0  0  0  0
  -33.2810  -24.3470   17.1950 C   0  0  0  0  0  2  0  0  0  0  0  0
  -32.4720  -26.1710   19.1690 C   0  0  0  0  0  3  0  0  0  0  0  0
  -33.7410  -25.6380   19.2180 C   0  0  0  0  0  3  0  0  0  0  0  0
  -31.9040  -24.3250   17.5300 C   0  0  0  0  0  3  0  0  0  0  0  0
  -31.5310  -25.5020   18.3500 C   0  0  0  0  0  0  0  0  0  0  0  0
  -34.0290  -24.7290   20.3900 C   0  0  0  0  0  0  0  0  0  0  0  0
  -32.9520  -24.1400   20.9730 N   0  0  0  0  0  0  0  0  0  0  0  0
  -35.1830  -24.2970   20.5720 O   0  0  0  0  0  0  0  0  0  0  0  0
  -32.0970  -24.6550   20.8270 H   0  0  0  0  0  0  0  0  0  0  0  0
  -32.7970  -22.7040   20.8980 C   0  0  0  0  0  2  0  0  0  0  0  0
  -31.3800  -22.3700   20.4010 C   0  0  0  0  0  2  0  0  0  0  0  0
  -30.2420  -22.4960   21.4300 C   0  0  0  0  0  2  0  0  0  0  0  0
  -28.8810  -22.3970   20.8040 N   0  0  0  0  0  4  0  0  0  0  0  0
  -28.3790  -21.8400   21.4820 H   0  0  0  0  0  0  0  0  0  0  0  0
  -28.9040  -21.8590   19.9540 H   0  0  0  0  0  0  0  0  0  0  0  0
  -28.0270  -23.6310   20.6680 C   0  0  0  0  0  2  0  0  0  0  0  0
  -27.7030  -24.2850   19.2670 C   0  0  0  0  0  2  0  0  0  0  0  0
  -27.8610  -25.7550   19.3430 O   0  0  0  0  0  0  0  0  0  0  0  0
  -24.8560  -30.7240   22.9430 C   0  0  0  0  0  0  0  0  0  0  0  0
  -26.7200  -26.5590   19.2970 C   0  0  0  0  0  0  0  0  0  0  0  0
  -23.4360  -29.8710   21.0840 C   0  0  0  0  0  3  0  0  0  0  0  0
  -24.6070  -28.4750   19.2990 C   0  0  0  0  0  0  0  0  0  0  0  0
  -25.9780  -29.9430   20.8880 C   0  0  0  0  0  2  0  0  0  0  0  0
  -25.8360  -28.7840   19.9270 C   0  0  0  0  0  0  0  0  0  0  0  0
  -26.8550  -27.8520   19.8970 C   0  0  0  0  0  3  0  0  0  0  0  0
  -25.5590  -26.3460   18.4910 C   0  0  0  0  0  3  0  0  0  0  0  0
  -24.4660  -27.2710   18.5590 C   0  0  0  0  0  3  0  0  0  0  0  0
  -23.5040  -29.3910   19.6160 C   0  0  0  0  0  2  0  0  0  0  0  0
  -24.7600  -30.1780   21.7060 N   0  0  0  0  0  0  0  0  0  0  0  0
  -23.8160  -31.0400   23.6130 O   0  0  0  0  0  0  0  0  0  0  0  0
  -22.6060  -28.8320   21.9150 C   0  0  0  0  0  0  0  0  0  0  0  0
  -21.2620  -28.9130   21.8750 N   0  0  0  0  0  0  0  0  0  0  0  0
  -23.1810  -27.9190   22.5300 O   0  0  0  0  0  0  0  0  0  0  0  0
  -20.8440  -29.6940   21.3730 H   0  0  0  0  0  0  0  0  0  0  0  0
  -17.7610  -28.1990   22.4380 C   0  0  0  0  0  0  0  0  0  0  0  0
  -20.3220  -27.9720   22.5320 C   0  0  0  0  0  3  0  0  0  0  0  0
  -20.1370  -26.6950   21.6890 C   0  0  0  0  0  2  0  0  0  0  0  0
  -18.9560  -26.7770   20.7170 C   0  0  0  0  0  2  0  0  0  0  0  0
  -17.6560  -27.0060   21.4820 C   0  0  0  0  0  2  0  0  0  0  0  0
  -19.0040  -28.6550   22.9140 C   0  0  0  0  0  0  0  0  0  0  0  0
  -19.0660  -29.7680   23.7740 C   0  0  0  0  0  3  0  0  0  0  0  0
  -17.8880  -30.4500   24.1430 C   0  0  0  0  0  3  0  0  0  0  0  0
  -16.6400  -30.0020   23.6550 C   0  0  0  0  0  3  0  0  0  0  0  0
  -16.5890  -28.8620   22.8250 C   0  0  0  0  0  3  0  0  0  0  0  0
  -26.2140  -31.0360   23.6160 C   0  0  0  0  0  3  0  0  0  0  0  0
  -26.1170  -32.3790   24.2270 N   0  0  0  0  0  0  0  0  0  0  0  0
  -26.6210  -33.5030   23.6820 C   0  0  0  0  0  0  0  0  0  0  0  0
  -27.2920  -33.4960   22.6540 O   0  0  0  0  0  0  0  0  0  0  0  0
  -25.5210  -32.4530   25.0400 H   0  0  0  0  0  0  0  0  0  0  0  0
  -25.2330  -35.5890   23.7110 C   0  0  0  0  0  1  0  0  0  0  0  0
  -26.3680  -34.8370   24.4210 C   0  0  0  0  0  3  0  0  0  0  0  0
  -28.5870  -35.1860   25.4010 C   0  0  0  0  0  1  0  0  0  0  0  0
  -27.5660  -35.7080   24.4960 N   0  0  0  0  0  0  0  0  0  0  0  0
  -27.3110  -36.6390   24.8310 H   0  0  0  0  0  0  0  0  0  0  0  0
  -26.6260  -29.9640   24.6860 C   0  0  1  0  0  0  0  0  0  0  0  0
  -25.5160  -29.7160   25.7210 C   0  0  0  0  0  1  0  0  0  0  0  0
  -26.9640  -28.6020   24.0440 C   0  0  0  0  0  1  0  0  0  0  0  0
  -27.9120  -30.4070   25.4090 C   0  0  0  0  0  1  0  0  0  0  0  0
  -30.3390  -26.1140   18.4870 O   0  0  0  0  0  0  0  0  0  0  0  0
  -30.3790  -26.8230   19.1350 H   0  0  0  0  0  0  0  0  0  0  0  0
  -30.9250  -23.2290   16.8720 C   0  0  0  0  0  3  0  0  0  0  0  0
  -30.6080  -25.1380   15.0440 C   0  0  0  0  0  1  0  0  0  0  0  0
  -30.5940  -23.6510   15.4100 C   0  0  0  0  0  2  0  0  0  0  0  0
  -30.9480  -21.5900   16.8150 C   0  0  0  0  0  2  0  0  0  0  0  0
  -31.8390  -20.4700   17.5600 C   0  0  0  0  0  2  0  0  0  0  0  0
  -31.2020  -15.1070   20.4240 C   0  0  0  0  0  0  0  0  0  0  0  0
  -30.9310  -12.6730   20.1640 C   0  0  0  0  0  2  0  0  0  0  0  0
  -30.1350  -12.2200   18.9170 C   0  0  0  0  0  2  0  0  0  0  0  0
  -28.6300  -12.1220   19.2190 C   0  0  0  0  0  2  0  0  0  0  0  0
  -28.0750  -13.3290   20.0220 C   0  0  0  0  0  3  0  0  0  0  0  0
  -29.0330  -13.7520   21.1680 C   0  0  0  0  0  2  0  0  0  0  0  0
  -30.3670  -13.9920   20.5530 N   0  0  0  0  0  0  0  0  0  0  0  0
  -32.4020  -14.9420   20.6490 O   0  0  0  0  0  0  0  0  0  0  0  0
  -30.5570  -16.5960   18.3710 C   0  0  0  0  0  2  0  0  0  0  0  0
  -31.8340  -17.4830   20.0760 C   0  0  0  0  0  2  0  0  0  0  0  0
  -31.0740  -17.9170   17.5300 C   0  0  0  0  0  2  0  0  0  0  0  0
  -31.4230  -18.9790   19.6500 C   0  0  0  0  0  2  0  0  0  0  0  0
  -30.8970  -16.3640   19.8230 N   0  0  0  0  0  0  0  0  0  0  0  0
  -31.0430  -19.2540   18.2140 N   0  0  1  0  0  4  0  0  0  0  0  0
  -30.0710  -19.5440   18.2250 H   0  0  0  0  0  0  0  0  0  0  0  0
  -25.6700  -13.9780   20.5950 C   0  0  0  0  0  0  0  0  0  0  0  0
  -24.5510  -13.2460   20.8840 C   0  0  0  0  0  0  0  0  0  0  0  0
  -24.9670  -11.8750   20.9040 C   0  0  0  0  0  0  0  0  0  0  0  0
  -26.6960  -13.0630   20.4550 N   0  0  0  0  0  0  0  0  0  0  0  0
  -26.2810  -11.7930   20.7080 N   0  0  0  0  0  0  0  0  0  0  0  0
  -24.1760  -10.6420   21.0360 C   0  0  0  0  0  0  0  0  0  0  0  0
  -24.4680   -9.6790   22.0340 C   0  0  0  0  0  3  0  0  0  0  0  0
  -23.6770   -8.5110   22.1660 C   0  0  0  0  0  3  0  0  0  0  0  0
  -22.5860   -8.2930   21.2960 C   0  0  0  0  0  0  0  0  0  0  0  0
  -22.3170   -9.2260   20.2860 C   0  0  0  0  0  3  0  0  0  0  0  0
  -23.1040  -10.3840   20.1480 C   0  0  0  0  0  3  0  0  0  0  0  0
  -21.7870   -7.1760   21.3350 O   0  0  0  0  0  0  0  0  0  0  0  0
  -21.5660   -6.4870   22.5040 C   0  0  0  0  0  0  0  0  0  0  0  0
  -20.9910   -7.1060   23.6310 C   0  0  0  0  0  3  0  0  0  0  0  0
  -20.7180   -6.3470   24.7940 C   0  0  0  0  0  3  0  0  0  0  0  0
  -21.0140   -4.9650   24.8140 C   0  0  0  0  0  0  0  0  0  0  0  0
  -21.5820   -4.3530   23.6810 C   0  0  0  0  0  3  0  0  0  0  0  0
  -21.8520   -5.1120   22.5350 C   0  0  0  0  0  0  0  0  0  0  0  0
  -22.3810   -4.5040   21.4370 F   0  0  0  0  0  0  0  0  0  0  0  0
  -20.7470   -4.2370   25.9170 F   0  0  0  0  0  0  0  0  0  0  0  0
  -23.1530  -13.7730   21.0270 C   0  0  0  0  0  0  0  0  0  0  0  0
  -22.3390  -13.1260   21.8540 N   0  0  0  0  0  0  0  0  0  0  0  0
  -22.7910  -14.7900   20.4420 O   0  0  0  0  0  0  0  0  0  0  0  0
  -22.6340  -12.2990   22.3490 H   0  0  0  0  0  0  0  0  0  0  0  0
  -21.3910  -13.4810   22.0170 H   0  0  0  0  0  0  0  0  0  0  0  0
  -25.9170  -15.3320   20.4130 N   0  0  0  0  0  0  0  0  0  0  0  0
  -25.2420  -16.0760   20.4220 H   0  0  0  0  0  0  0  0  0  0  0  0
  -26.8380  -15.6430   20.1290 H   0  0  0  0  0  0  0  0  0  0  0  0
  1  4  1  0
  2  5  1  0
  2  1  1  0
  3  4  1  0
  4  7  1  0
  5 62  1  0
  5  6  1  0
  6 60  1  0
  6  3  2  0
  7  9  2  0
  7  8  1  0
 10  8  1  0
 11  8  1  0
 12 11  1  0
 12 13  1  0
 14 13  1  0
 14 15  1  0
 16 14  1  0
 17 14  1  0
 18 19  1  0
 18 17  1  0
 20 31  2  0
 21 19  1  0
 21 26  1  0
 22 30  1  0
 22 32  1  0
 23 29  1  0
 23 25  1  0
 24 30  1  0
 25 24  1  0
 26 25  2  0
 27 28  1  0
 27 21  2  0
 28 23  2  0
 29 22  1  0
 30 20  1  0
 32 34  2  0
 33 32  1  0
 35 33  1  0
 36 45  2  0
 36 41  1  0
 37 33  1  0
 37 41  1  0
 38 37  1  0
 39 40  1  0
 39 38  1  0
 40 36  1  0
 41 42  2  0
 42 43  1  0
 44 43  2  0
 45 44  1  0
 46 20  1  0
 46 47  1  0
 46 56  1  0
 47 50  1  0
 48 47  1  0
 48 52  1  0
 49 48  2  0
 52 51  1  0
 52 54  1  0
 54 55  1  0
 54 53  1  0
 56 59  1  1
 56 57  1  0
 58 56  1  0
 60 61  1  0
 62 64  1  0
 63 64  1  0
 65 62  1  0
 65 66  1  0
 66 80  1  0
 67 73  1  0
 67 74  2  0
 68 73  1  0
 69 70  1  0
 69 68  1  0
 71 70  1  0
 71 85  1  0
 71 72  1  0
 73 72  1  0
 75 79  1  0
 77 80  1  0
 77 75  1  0
 78 76  1  0
 79 76  1  0
 79 67  1  0
 80 81  1  1
 80 78  1  0
 82 83  2  0
 83 84  1  0
 83102  1  0
 84 87  1  0
 85 82  1  0
 85 86  1  0
 86 84  2  0
 87 88  1  0
 88 89  2  0
 90 93  1  0
 90 89  1  0
 91 90  2  0
 92 91  1  0
 92 87  2  0
 93 94  1  0
 94 99  2  0
 94 95  1  0
 95 96  2  0
 96 97  1  0
 97101  1  0
 98 97  2  0
 99 98  1  0
100 99  1  0
102103  1  0
103106  1  0
103105  1  0
104102  2  0
107108  1  0
107 82  1  0
109107  1  0
M  ISO  4  18 101  19 101  67 100  79 100
M  END
>  <TORSDO>  (11) 
F 28

>  <SCORE>  (11) 
-8.568

>  <name>  (11) 
10

>  <ligand_id>  (11) 
10

>  <original_smiles>  (11) 
[H]Oc1c([H])c(C(=O)N([H])C([H])([H])C([H])([H])C([H])([H])[N+]([H])([H])C([H])([H])C([H])([H])Oc2c([H])c([H])c3c(c2[H])C([H])([H])N(C(=O)C([H])(N([H])C(=O)C([H])(N([H])C([H])([H])[H])C([H])([H])[H])C(C([H])([H])[H])(C([H])([H])[H])C([H])([H])[H])C([H])(C(=O)N([H])C2([H])c4c([H])c([H])c([H])c([H])c4C([H])([H])C([H])([H])C2([H])[H])C3([H])[H])c([H])c([H])c1C([H])(C([H])([H])C([H])([H])[H])C([H])([H])C([H])([H])[N+]1([H])C([H])([H])C([H])([H])N(C(=O)N2C([H])([H])C([H])([H])C([H])([H])C([H])(n3nc(-c4c([H])c([H])c(Oc5c([H])c([H])c(F)c([H])c5F)c([H])c4[H])c(C(=O)N([H])[H])c3N([H])[H])C2([H])[H])C([H])([H])C1([H])[H]

>  <smiles>  (11) 
[H]Oc1c([H])c(C(=O)N([H])C([H])([H])C([H])([H])C([H])([H])[N+]([H])([H])C([H])([H])C([H])([H])Oc2c([H])c([H])c3c(c2[H])C([H])([H])N(C(=O)C([H])(N([H])C(=O)C([H])(N([H])C([H])([H])[H])C([H])([H])[H])C(C([H])([H])[H])(C([H])([H])[H])C([H])([H])[H])C([H])(C(=O)N([H])C2([H])c4c([H])c([H])c([H])c([H])c4C([H])([H])C([H])([H])C2([H])[H])C3([H])[H])c([H])c([H])c1C([H])(C([H])([H])C([H])([H])[H])C([H])([H])C([H])([H])[N+]1([H])C([H])([H])C([H])([H])N(C(=O)N2C([H])([H])C([H])([H])C([H])([H])C([H])(n3nc(-c4c([H])c([H])c(Oc5c([H])c([H])c(F)c([H])c5F)c([H])c4[H])c(C(=O)N([H])[H])c3N([H])[H])C2([H])[H])C([H])([H])C1([H])[H]

$$$$
11:0:0
     RDKit          3D

 93 98  0  0  1  0  0  0  0  0999 V2000
  -24.9950  -27.7360   21.9190 C   0  0  0  0  0  1  0  0  0  0  0  0
  -24.3210  -30.0190   19.8870 C   0  0  0  0  0  2  0  0  0  0  0  0
  -24.3370  -29.9270   18.2100 C   0  0  0  0  0  0  0  0  0  0  0  0
  -23.4480  -30.5280   17.6020 O   0  0  0  0  0  0  0  0  0  0  0  0
  -25.4580  -29.1570   17.3240 C   0  0  0  0  0  2  0  0  0  0  0  0
  -25.3250  -27.6350   16.6980 C   0  0  0  0  0  2  0  0  0  0  0  0
  -25.8310  -26.3350   17.3210 O   0  0  0  0  0  0  0  0  0  0  0  0
  -23.2970  -30.1880   22.7870 C   0  0  0  0  0  0  0  0  0  0  0  0
  -25.0110  -25.9210   18.2630 C   0  0  0  0  0  0  0  0  0  0  0  0
  -21.5840  -28.8730   21.3200 C   0  0  0  0  0  3  0  0  0  0  0  0
  -22.7560  -27.2200   18.8640 C   0  0  0  0  0  0  0  0  0  0  0  0
  -24.5400  -28.5230   21.0290 C   0  0  1  0  0  0  0  0  0  0  0  0
  -24.3060  -27.5170   19.5270 C   0  0  0  0  0  0  0  0  0  0  0  0
  -25.3360  -26.7410   19.2940 C   0  0  0  0  0  3  0  0  0  0  0  0
  -23.7350  -25.5100   17.7910 C   0  0  0  0  0  3  0  0  0  0  0  0
  -22.5500  -26.1630   18.0810 C   0  0  0  0  0  3  0  0  0  0  0  0
  -21.2690  -27.9010   19.7290 C   0  0  0  0  0  2  0  0  0  0  0  0
  -23.1720  -29.1560   21.8700 N   0  0  0  0  0  0  0  0  0  0  0  0
  -22.3150  -30.7040   23.3430 O   0  0  0  0  0  0  0  0  0  0  0  0
  -20.8330  -28.2490   22.4310 C   0  0  0  0  0  0  0  0  0  0  0  0
  -19.5310  -28.1590   22.2770 N   0  0  0  0  0  0  0  0  0  0  0  0
  -21.4560  -27.7220   23.3450 O   0  0  0  0  0  0  0  0  0  0  0  0
  -19.0810  -28.5880   21.4820 H   0  0  0  0  0  0  0  0  0  0  0  0
  -16.2450  -27.0070   22.9080 C   0  0  0  0  0  0  0  0  0  0  0  0
  -18.7750  -27.2330   23.0780 C   0  0  0  0  0  3  0  0  0  0  0  0
  -18.8760  -25.8150   22.4780 C   0  0  0  0  0  2  0  0  0  0  0  0
  -17.7390  -25.5010   21.5090 C   0  0  0  0  0  2  0  0  0  0  0  0
  -16.3850  -25.6620   22.2120 C   0  0  0  0  0  2  0  0  0  0  0  0
  -17.3750  -27.7600   23.2890 C   0  0  0  0  0  0  0  0  0  0  0  0
  -17.2120  -29.0290   23.8830 C   0  0  0  0  0  3  0  0  0  0  0  0
  -15.9250  -29.5390   24.1210 C   0  0  0  0  0  3  0  0  0  0  0  0
  -14.7980  -28.7780   23.7730 C   0  0  0  0  0  3  0  0  0  0  0  0
  -14.9580  -27.5180   23.1690 C   0  0  0  0  0  3  0  0  0  0  0  0
  -24.6930  -30.7380   23.2110 C   0  0  0  0  0  3  0  0  0  0  0  0
  -25.2990  -29.9100   24.4100 C   0  0  1  0  0  0  0  0  0  0  0  0
  -24.3080  -29.7390   25.5850 C   0  0  0  0  0  1  0  0  0  0  0  0
  -25.7440  -28.4970   24.0140 C   0  0  0  0  0  1  0  0  0  0  0  0
  -26.5840  -30.5890   24.9290 C   0  0  0  0  0  1  0  0  0  0  0  0
  -24.5830  -32.1630   23.6190 N   0  0  0  0  0  0  0  0  0  0  0  0
  -25.0490  -33.2330   22.9560 C   0  0  0  0  0  0  0  0  0  0  0  0
  -25.6400  -33.1400   21.8780 O   0  0  0  0  0  0  0  0  0  0  0  0
  -24.0500  -32.3330   24.4590 H   0  0  0  0  0  0  0  0  0  0  0  0
  -23.6100  -35.3130   22.9280 C   0  0  0  0  0  1  0  0  0  0  0  0
  -24.8230  -34.6310   23.5850 C   0  0  0  0  0  3  0  0  0  0  0  0
  -27.1200  -35.1140   24.3200 C   0  0  0  0  0  1  0  0  0  0  0  0
  -25.9950  -35.5300   23.4880 N   0  0  0  0  0  0  0  0  0  0  0  0
  -25.7440  -36.4810   23.7460 H   0  0  0  0  0  0  0  0  0  0  0  0
  -26.0100  -25.8430   21.7990 C   0  0  0  0  0 15  0  0  0  0  0  0
  -24.8860  -23.4060   20.7250 C   0  0  0  0  0  1  0  0  0  0  0  0
  -26.3070  -23.9070   21.0220 C   0  0  0  0  0  2  0  0  0  0  0  0
  -27.3680  -22.3620   21.2010 N   0  0  0  0  0  4  0  0  0  0  0  0
  -28.3020  -22.7240   21.1130 H   0  0  0  0  0  0  0  0  0  0  0  0
  -27.2660  -22.1660   22.1840 H   0  0  0  0  0  0  0  0  0  0  0  0
  -27.5890  -20.6140   20.5450 C   0  0  0  0  0  1  0  0  0  0  0  0
  -28.8160  -18.9250   20.6500 C   0  0  0  0  0  1  0  0  0  0  0  0
  -29.9110  -15.7190   20.0830 C   0  0  0  0  0  0  0  0  0  0  0  0
  -30.2690  -13.1280   19.1890 C   0  0  0  0  0  2  0  0  0  0  0  0
  -29.4190  -12.5340   18.0120 C   0  0  0  0  0  2  0  0  0  0  0  0
  -28.0260  -12.1020   18.4930 C   0  0  0  0  0  2  0  0  0  0  0  0
  -27.4780  -13.1380   19.4950 C   0  0  0  0  0  3  0  0  0  0  0  0
  -28.4680  -13.5220   20.6110 C   0  0  0  0  0  2  0  0  0  0  0  0
  -29.5410  -14.2800   19.9460 N   0  0  0  0  0  0  0  0  0  0  0  0
  -31.1570  -15.6970   19.8900 O   0  0  0  0  0  0  0  0  0  0  0  0
  -28.9980  -17.0700   20.2720 N   0  0  0  0  0  0  0  0  0  0  0  0
  -28.0520  -16.7140   20.2530 H   0  0  0  0  0  0  0  0  0  0  0  0
  -25.1670  -13.7010   20.3180 C   0  0  0  0  0  0  0  0  0  0  0  0
  -24.1120  -12.9390   20.7240 C   0  0  0  0  0  0  0  0  0  0  0  0
  -24.5630  -11.5830   20.6810 C   0  0  0  0  0  0  0  0  0  0  0  0
  -26.1800  -12.8090   20.0340 N   0  0  0  0  0  0  0  0  0  0  0  0
  -25.8430  -11.5280   20.3250 N   0  0  0  0  0  0  0  0  0  0  0  0
  -23.8290  -10.3330   20.8940 C   0  0  0  0  0  0  0  0  0  0  0  0
  -24.2570   -9.3740   21.8380 C   0  0  0  0  0  3  0  0  0  0  0  0
  -23.5170   -8.1890   22.0390 C   0  0  0  0  0  3  0  0  0  0  0  0
  -22.3370   -7.9550   21.2940 C   0  0  0  0  0  0  0  0  0  0  0  0
  -21.9290   -8.9020   20.3380 C   0  0  0  0  0  3  0  0  0  0  0  0
  -22.6690  -10.0780   20.1360 C   0  0  0  0  0  3  0  0  0  0  0  0
  -21.5670   -6.8240   21.4040 O   0  0  0  0  0  0  0  0  0  0  0  0
  -21.4860   -6.1200   22.5790 C   0  0  0  0  0  0  0  0  0  0  0  0
  -21.0400   -6.7200   23.7780 C   0  0  0  0  0  3  0  0  0  0  0  0
  -20.9060   -5.9430   24.9450 C   0  0  0  0  0  3  0  0  0  0  0  0
  -21.2080   -4.5680   24.9160 C   0  0  0  0  0  0  0  0  0  0  0  0
  -21.6470   -3.9690   23.7230 C   0  0  0  0  0  3  0  0  0  0  0  0
  -21.7830   -4.7430   22.5570 C   0  0  0  0  0  0  0  0  0  0  0  0
  -22.1860   -4.1560   21.4050 F   0  0  0  0  0  0  0  0  0  0  0  0
  -21.0710   -3.8200   26.0350 F   0  0  0  0  0  0  0  0  0  0  0  0
  -22.7320  -13.4380   21.0240 C   0  0  0  0  0  0  0  0  0  0  0  0
  -22.0180  -12.7670   21.9180 N   0  0  0  0  0  0  0  0  0  0  0  0
  -22.3000  -14.4650   20.5010 O   0  0  0  0  0  0  0  0  0  0  0  0
  -22.3820  -11.9380   22.3640 H   0  0  0  0  0  0  0  0  0  0  0  0
  -21.0910  -13.0850   22.1610 H   0  0  0  0  0  0  0  0  0  0  0  0
  -25.3440  -15.0710   20.1300 N   0  0  0  0  0  0  0  0  0  0  0  0
  -24.5770  -15.7250   20.2420 H   0  0  0  0  0  0  0  0  0  0  0  0
  -26.1470  -15.4740   19.6670 H   0  0  0  0  0  0  0  0  0  0  0  0
  2 12  1  0
  3  2  1  0
  4  3  2  0
  5  3  1  0
  6  7  1  0
  6  5  1  0
  7  9  1  0
  8 19  2  0
  9 14  1  0
 10 18  1  0
 10 20  1  0
 11 13  1  0
 11 17  1  0
 12 18  1  0
 12  1  1  1
 13 12  1  0
 14 13  2  0
 15 16  1  0
 15  9  2  0
 16 11  2  0
 17 10  1  0
 18  8  1  0
 20 22  2  0
 21 20  1  0
 23 21  1  0
 24 33  2  0
 24 29  1  0
 25 21  1  0
 25 29  1  0
 26 25  1  0
 27 28  1  0
 27 26  1  0
 28 24  1  0
 29 30  2  0
 30 31  1  0
 32 31  2  0
 33 32  1  0
 34  8  1  0
 34 39  1  0
 34 35  1  0
 35 38  1  1
 35 36  1  0
 37 35  1  0
 39 42  1  0
 40 44  1  0
 40 39  1  0
 41 40  2  0
 44 43  1  0
 46 44  1  0
 46 47  1  0
 46 45  1  0
 49 50  1  0
 50 51  1  0
 51 53  1  0
 52 51  1  0
 54 51  1  0
 56 64  1  0
 57 62  1  0
 58 59  1  0
 58 57  1  0
 60 59  1  0
 60 69  1  0
 60 61  1  0
 62 56  1  0
 62 61  1  0
 63 56  2  0
 64 55  1  0
 65 64  1  0
 66 67  2  0
 67 86  1  0
 68 67  1  0
 68 71  1  0
 69 66  1  0
 69 70  1  0
 70 68  2  0
 71 72  1  0
 72 73  2  0
 74 77  1  0
 74 73  1  0
 75 74  2  0
 76 75  1  0
 76 71  2  0
 77 78  1  0
 78 79  1  0
 79 80  2  0
 81 80  1  0
 81 85  1  0
 82 81  2  0
 83 78  2  0
 83 82  1  0
 84 83  1  0
 86 87  1  0
 87 90  1  0
 87 89  1  0
 88 86  2  0
 91 92  1  0
 91 66  1  0
 93 91  1  0
M  ISO  4   6 101   7 101  56 100  64 100
M  END
>  <TORSDO>  (12) 
F 25

>  <SCORE>  (12) 
-9.195

>  <name>  (12) 
11

>  <ligand_id>  (12) 
11

>  <original_smiles>  (12) 
[H]c1c([H])c([H])c2c(c1[H])C([H])([H])C([H])([H])C([H])([H])C2([H])N([H])C(=O)C1([H])N(C(=O)C([H])(N([H])C(=O)C([H])(N([H])C([H])([H])[H])C([H])([H])[H])C(C([H])([H])[H])(C([H])([H])[H])C([H])([H])[H])C([H])([H])c2c([H])c(OC([H])([H])C([H])([H])C(=O)C([H])([H])C([H])([H])C([H])([H])C([H])(C([H])([H])[H])[N+]([H])([H])C([H])([H])C([H])([H])N([H])C(=O)N3C([H])([H])C([H])([H])C([H])([H])C([H])(n4nc(-c5c([H])c([H])c(Oc6c([H])c([H])c(F)c([H])c6F)c([H])c5[H])c(C(=O)N([H])[H])c4N([H])[H])C3([H])[H])c([H])c([H])c2C1([H])[H]

>  <smiles>  (12) 
[H]c1c([H])c([H])c2c(c1[H])C([H])([H])C([H])([H])C([H])([H])C2([H])N([H])C(=O)C1([H])N(C(=O)C([H])(N([H])C(=O)C([H])(N([H])C([H])([H])[H])C([H])([H])[H])C(C([H])([H])[H])(C([H])([H])[H])C([H])([H])[H])C([H])([H])c2c([H])c(OC([H])([H])C([H])([H])C(=O)C([H])([H])C([H])([H])C([H])([H])C([H])(C([H])([H])[H])[N+]([H])([H])C([H])([H])C([H])([H])N([H])C(=O)N3C([H])([H])C([H])([H])C([H])([H])C([H])(n4nc(-c5c([H])c([H])c(Oc6c([H])c([H])c(F)c([H])c6F)c([H])c5[H])c(C(=O)N([H])[H])c4N([H])[H])C3([H])[H])c([H])c([H])c2C1([H])[H]

$$$$
12:0:0
     RDKit          3D

 97104  0  0  1  0  0  0  0  0999 V2000
  -24.5230  -23.7040   20.7990 C   0  0  0  0  0  2  0  0  0  0  0  0
  -24.0420  -22.7410   19.6930 C   0  0  0  0  0  2  0  0  0  0  0  0
  -25.0100  -22.6310   18.4940 C   0  0  0  0  0  2  0  0  0  0  0  0
  -25.4830  -21.2040   18.1560 C   0  0  0  0  0  2  0  0  0  0  0  0
  -26.2660  -20.5910   19.2500 N   0  0  0  0  0  4  0  0  0  0  0  0
  -25.6320  -20.2770   19.9650 H   0  0  0  0  0  0  0  0  0  0  0  0
  -26.8680  -21.2940   19.6450 H   0  0  0  0  0  0  0  0  0  0  0  0
  -27.1260  -19.4720   18.8140 C   0  0  0  0  0  2  0  0  0  0  0  0
  -27.7820  -18.7140   19.9890 C   0  0  0  0  0  2  0  0  0  0  0  0
  -28.7920  -17.6760   19.4710 C   0  0  0  0  0  2  0  0  0  0  0  0
  -29.3460  -16.7210   20.5470 C   0  0  0  0  0  2  0  0  0  0  0  0
  -31.1740  -14.9250   20.3880 C   0  0  0  0  0  0  0  0  0  0  0  0
  -30.9960  -12.6520   19.4990 C   0  0  0  0  0  2  0  0  0  0  0  0
  -30.1150  -12.6890   18.2330 C   0  0  0  0  0  2  0  0  0  0  0  0
  -28.6220  -12.5430   18.6030 C   0  0  0  0  0  2  0  0  0  0  0  0
  -28.1940  -13.5050   19.7460 C   0  0  0  0  0  3  0  0  0  0  0  0
  -29.1970  -13.4470   20.9240 C   0  0  0  0  0  2  0  0  0  0  0  0
  -30.5230  -13.7330   20.3730 N   0  0  0  0  0  0  0  0  0  0  0  0
  -32.3810  -15.0250   20.1790 O   0  0  0  0  0  0  0  0  0  0  0  0
  -30.4570  -15.9750   19.9630 N   0  0  0  0  0  0  0  0  0  0  0  0
  -31.0710  -16.6000   19.4620 H   0  0  0  0  0  0  0  0  0  0  0  0
  -25.7730  -14.1420   20.3450 C   0  0  0  0  0  0  0  0  0  0  0  0
  -24.6890  -13.3810   20.6860 C   0  0  0  0  0  0  0  0  0  0  0  0
  -25.1500  -12.0300   20.7090 C   0  0  0  0  0  0  0  0  0  0  0  0
  -26.8250  -13.2520   20.1810 N   0  0  0  0  0  0  0  0  0  0  0  0
  -26.4510  -11.9790   20.4590 N   0  0  0  0  0  0  0  0  0  0  0  0
  -24.4160  -10.7730   20.8980 C   0  0  0  0  0  0  0  0  0  0  0  0
  -24.7530   -9.8700   21.9300 C   0  0  0  0  0  3  0  0  0  0  0  0
  -24.0220   -8.6750   22.1000 C   0  0  0  0  0  3  0  0  0  0  0  0
  -22.9430   -8.3740   21.2370 C   0  0  0  0  0  0  0  0  0  0  0  0
  -22.6250   -9.2670   20.1970 C   0  0  0  0  0  3  0  0  0  0  0  0
  -23.3560  -10.4530   20.0250 C   0  0  0  0  0  3  0  0  0  0  0  0
  -22.1900   -7.2270   21.3130 O   0  0  0  0  0  0  0  0  0  0  0  0
  -21.9430   -6.6060   22.5100 C   0  0  0  0  0  0  0  0  0  0  0  0
  -21.3080   -7.2760   23.5790 C   0  0  0  0  0  3  0  0  0  0  0  0
  -21.0090   -6.5820   24.7670 C   0  0  0  0  0  3  0  0  0  0  0  0
  -21.3350   -5.2190   24.8880 C   0  0  0  0  0  0  0  0  0  0  0  0
  -21.9620   -4.5470   23.8240 C   0  0  0  0  0  3  0  0  0  0  0  0
  -22.2640   -5.2400   22.6370 C   0  0  0  0  0  0  0  0  0  0  0  0
  -22.8480   -4.5820   21.6070 F   0  0  0  0  0  0  0  0  0  0  0  0
  -21.0430   -4.5510   26.0280 F   0  0  0  0  0  0  0  0  0  0  0  0
  -23.2830  -13.8670   20.8850 C   0  0  0  0  0  0  0  0  0  0  0  0
  -22.5220  -13.2050   21.7500 N   0  0  0  0  0  0  0  0  0  0  0  0
  -22.8640  -14.8700   20.3100 O   0  0  0  0  0  0  0  0  0  0  0  0
  -22.8720  -12.3920   22.2340 H   0  0  0  0  0  0  0  0  0  0  0  0
  -21.5770  -13.5150   21.9270 H   0  0  0  0  0  0  0  0  0  0  0  0
  -25.9440  -15.5060   20.1420 N   0  0  0  0  0  0  0  0  0  0  0  0
  -25.1700  -16.1560   20.2150 H   0  0  0  0  0  0  0  0  0  0  0  0
  -26.8110  -15.9330   19.8450 H   0  0  0  0  0  0  0  0  0  0  0  0
  -25.7380  -23.1800   21.5900 C   0  0  0  0  0  2  0  0  0  0  0  0
  -26.2820  -24.1850   22.6260 C   0  0  0  0  0  2  0  0  0  0  0  0
  -28.4840  -25.1500   21.9630 C   0  0  0  0  0  0  0  0  0  0  0  0
  -27.1450  -25.2010   22.0190 N   0  0  0  0  0  0  0  0  0  0  0  0
  -29.1200  -24.1620   22.3400 O   0  0  0  0  0  0  0  0  0  0  0  0
  -26.7020  -26.0400   21.6630 H   0  0  0  0  0  0  0  0  0  0  0  0
  -29.2350  -26.3930   21.4440 C   0  0  0  0  0  2  0  0  0  0  0  0
  -28.7390  -26.7890   20.1610 O   0  0  0  0  0  0  0  0  0  0  0  0
  -24.7130  -31.7230   23.3440 C   0  0  0  0  0  0  0  0  0  0  0  0
  -27.5820  -27.5250   20.1710 C   0  0  0  0  0  0  0  0  0  0  0  0
  -23.6000  -30.3810   21.5860 C   0  0  0  0  0  3  0  0  0  0  0  0
  -25.1460  -28.9420   20.1520 C   0  0  0  0  0  0  0  0  0  0  0  0
  -26.1200  -30.8080   21.5100 C   0  0  0  0  0  2  0  0  0  0  0  0
  -26.2620  -29.4720   20.8160 C   0  0  0  0  0  0  0  0  0  0  0  0
  -27.4810  -28.7660   20.8380 C   0  0  0  0  0  3  0  0  0  0  0  0
  -26.4620  -27.0060   19.4920 C   0  0  0  0  0  3  0  0  0  0  0  0
  -25.2380  -27.7010   19.4950 C   0  0  0  0  0  3  0  0  0  0  0  0
  -23.8820  -29.7700   20.1840 C   0  0  0  0  0  2  0  0  0  0  0  0
  -24.8260  -30.9850   22.2050 N   0  0  0  0  0  0  0  0  0  0  0  0
  -23.6080  -31.9470   23.8550 O   0  0  0  0  0  0  0  0  0  0  0  0
  -22.9370  -29.3000   22.4710 C   0  0  0  0  0  0  0  0  0  0  0  0
  -21.6210  -29.1070   22.2840 N   0  0  0  0  0  0  0  0  0  0  0  0
  -23.6000  -28.6430   23.2770 O   0  0  0  0  0  0  0  0  0  0  0  0
  -21.1500  -29.6890   21.6060 H   0  0  0  0  0  0  0  0  0  0  0  0
  -18.2460  -27.8560   22.5990 C   0  0  0  0  0  0  0  0  0  0  0  0
  -20.7910  -28.1170   22.9700 C   0  0  0  0  0  3  0  0  0  0  0  0
  -20.9300  -26.7220   22.3150 C   0  0  0  0  0  2  0  0  0  0  0  0
  -19.8630  -26.4530   21.2500 C   0  0  0  0  0  2  0  0  0  0  0  0
  -18.4580  -26.5500   21.8530 C   0  0  0  0  0  2  0  0  0  0  0  0
  -19.3440  -28.6000   23.1100 C   0  0  0  0  0  0  0  0  0  0  0  0
  -19.0950  -29.8250   23.7640 C   0  0  0  0  0  3  0  0  0  0  0  0
  -17.7810  -30.3080   23.9160 C   0  0  0  0  0  3  0  0  0  0  0  0
  -16.6960  -29.5610   23.4240 C   0  0  0  0  0  3  0  0  0  0  0  0
  -16.9300  -28.3370   22.7720 C   0  0  0  0  0  3  0  0  0  0  0  0
  -25.9640  -32.3430   24.0450 C   0  0  0  0  0  3  0  0  0  0  0  0
  -25.6420  -33.7400   24.3600 N   0  0  0  0  0  0  0  0  0  0  0  0
  -26.0220  -34.7920   23.6240 C   0  0  0  0  0  0  0  0  0  0  0  0
  -26.7510  -34.6900   22.6330 O   0  0  0  0  0  0  0  0  0  0  0  0
  -24.9990  -33.8950   25.1240 H   0  0  0  0  0  0  0  0  0  0  0  0
  -24.3140  -36.5860   23.1830 C   0  0  0  0  0  1  0  0  0  0  0  0
  -25.5120  -36.1810   24.0560 C   0  0  0  0  0  3  0  0  0  0  0  0
  -27.6020  -37.0640   24.9930 C   0  0  0  0  0  1  0  0  0  0  0  0
  -26.5490  -37.2340   23.9940 N   0  0  0  0  0  0  0  0  0  0  0  0
  -26.1360  -38.1530   24.1200 H   0  0  0  0  0  0  0  0  0  0  0  0
  -26.4030  -31.5580   25.3410 C   0  0  1  0  0  0  0  0  0  0  0  0
  -25.2440  -31.3050   26.3330 C   0  0  0  0  0  1  0  0  0  0  0  0
  -27.0150  -30.1870   24.9700 C   0  0  0  0  0  1  0  0  0  0  0  0
  -27.5050  -32.3500   26.0830 C   0  0  0  0  0  1  0  0  0  0  0  0
  1 50  1  0
  2  1  1  0
  3  2  1  0
  4  3  1  0
  4  5  1  0
  5  7  1  0
  5  6  1  0
  8  5  1  0
  8  9  1  0
 10  9  1  0
 10 11  1  0
 13 18  1  0
 14 15  1  0
 14 13  1  0
 16 15  1  0
 16 25  1  0
 16 17  1  0
 18 12  1  0
 18 17  1  0
 19 12  2  0
 20 12  1  0
 20 11  1  0
 21 20  1  0
 22 23  2  0
 23 24  1  0
 23 42  1  0
 24 27  1  0
 25 22  1  0
 25 26  1  0
 26 24  2  0
 27 28  1  0
 28 29  2  0
 30 33  1  0
 30 29  1  0
 31 30  2  0
 32 31  1  0
 32 27  2  0
 33 34  1  0
 34 39  2  0
 34 35  1  0
 35 36  2  0
 36 37  1  0
 37 41  1  0
 38 37  2  0
 39 38  1  0
 40 39  1  0
 42 43  1  0
 43 46  1  0
 43 45  1  0
 44 42  2  0
 47 48  1  0
 47 22  1  0
 49 47  1  0
 50 51  1  0
 52 53  1  0
 52 54  2  0
 53 51  1  0
 55 53  1  0
 56 52  1  0
 57 59  1  0
 57 56  1  0
 58 69  2  0
 59 64  1  0
 60 68  1  0
 60 70  1  0
 61 67  1  0
 61 63  1  0
 62 68  1  0
 63 64  2  0
 63 62  1  0
 65 66  1  0
 65 59  2  0
 66 61  2  0
 67 60  1  0
 68 58  1  0
 70 72  2  0
 71 70  1  0
 73 71  1  0
 74 83  2  0
 74 79  1  0
 75 71  1  0
 75 79  1  0
 76 75  1  0
 77 78  1  0
 77 76  1  0
 78 74  1  0
 79 80  2  0
 80 81  1  0
 82 81  2  0
 83 82  1  0
 84 58  1  0
 84 85  1  0
 84 94  1  0
 85 88  1  0
 86 90  1  0
 86 85  1  0
 87 86  2  0
 90 89  1  0
 92 90  1  0
 92 93  1  0
 92 91  1  0
 94 97  1  1
 94 95  1  0
 96 94  1  0
M  ISO  4  12 100  20 100  56 101  57 101
M  END
>  <TORSDO>  (13) 
F 28

>  <SCORE>  (13) 
-10.543

>  <name>  (13) 
12

>  <ligand_id>  (13) 
12

>  <original_smiles>  (13) 
[H]c1c([H])c([H])c2c(c1[H])C([H])([H])C([H])([H])C([H])([H])C2([H])N([H])C(=O)C1([H])N(C(=O)C([H])(N([H])C(=O)C([H])(N([H])C([H])([H])[H])C([H])([H])[H])C(C([H])([H])[H])(C([H])([H])[H])C([H])([H])[H])C([H])([H])c2c([H])c(OC([H])([H])C(=O)N([H])C([H])([H])C([H])([H])C([H])([H])C([H])([H])C([H])([H])C([H])([H])[N+]([H])([H])C([H])([H])C([H])([H])C([H])([H])C([H])([H])N([H])C(=O)N3C([H])([H])C([H])([H])C([H])([H])C([H])(n4nc(-c5c([H])c([H])c(Oc6c([H])c([H])c(F)c([H])c6F)c([H])c5[H])c(C(=O)N([H])[H])c4N([H])[H])C3([H])[H])c([H])c([H])c2C1([H])[H]

>  <smiles>  (13) 
[H]c1c([H])c([H])c2c(c1[H])C([H])([H])C([H])([H])C([H])([H])C2([H])N([H])C(=O)C1([H])N(C(=O)C([H])(N([H])C(=O)C([H])(N([H])C([H])([H])[H])C([H])([H])[H])C(C([H])([H])[H])(C([H])([H])[H])C([H])([H])[H])C([H])([H])c2c([H])c(OC([H])([H])C(=O)N([H])C([H])([H])C([H])([H])C([H])([H])C([H])([H])C([H])([H])C([H])([H])[N+]([H])([H])C([H])([H])C([H])([H])C([H])([H])C([H])([H])N([H])C(=O)N3C([H])([H])C([H])([H])C([H])([H])C([H])(n4nc(-c5c([H])c([H])c(Oc6c([H])c([H])c(F)c([H])c6F)c([H])c5[H])c(C(=O)N([H])[H])c4N([H])[H])C3([H])[H])c([H])c([H])c2C1([H])[H]

$$$$
13:0:0
     RDKit          3D

 95102  0  0  1  0  0  0  0  0999 V2000
  -28.1740  -19.7550   19.6410 C   0  0  0  0  0  0  0  0  0  0  0  0
  -27.8060  -20.8510   18.9510 N   0  0  0  0  0  0  0  0  0  0  0  0
  -27.9390  -18.6440   19.1550 O   0  0  0  0  0  0  0  0  0  0  0  0
  -27.4020  -20.6610   18.0420 H   0  0  0  0  0  0  0  0  0  0  0  0
  -27.8400  -22.2770   19.2990 C   0  0  0  0  0  2  0  0  0  0  0  0
  -29.0620  -23.0070   18.6650 C   0  0  0  0  0  2  0  0  0  0  0  0
  -29.2760  -24.4850   19.0830 C   0  0  0  0  0  2  0  0  0  0  0  0
  -27.9950  -25.3310   19.0160 C   0  0  0  0  0  2  0  0  0  0  0  0
  -28.1460  -26.7230   19.3600 O   0  0  0  0  0  0  0  0  0  0  0  0
  -24.5500  -31.6240   23.0940 C   0  0  0  0  0  0  0  0  0  0  0  0
  -26.9740  -27.4610   19.4710 C   0  0  0  0  0  0  0  0  0  0  0  0
  -23.2360  -30.3520   21.4420 C   0  0  0  0  0  3  0  0  0  0  0  0
  -24.5800  -28.9600   19.7810 C   0  0  0  0  0  0  0  0  0  0  0  0
  -25.7430  -30.7470   21.0860 C   0  0  0  0  0  2  0  0  0  0  0  0
  -25.7840  -29.4400   20.3190 C   0  0  0  0  0  0  0  0  0  0  0  0
  -26.9800  -28.7020   20.1550 C   0  0  0  0  0  3  0  0  0  0  0  0
  -25.7420  -27.0010   18.9410 C   0  0  0  0  0  3  0  0  0  0  0  0
  -24.5560  -27.7380   19.0930 C   0  0  0  0  0  3  0  0  0  0  0  0
  -23.3360  -29.7890   20.0020 C   0  0  0  0  0  2  0  0  0  0  0  0
  -24.5340  -30.9190   21.9280 N   0  0  0  0  0  0  0  0  0  0  0  0
  -23.5080  -31.8390   23.7290 O   0  0  0  0  0  0  0  0  0  0  0  0
  -22.6590  -29.2480   22.3540 C   0  0  0  0  0  0  0  0  0  0  0  0
  -21.3380  -29.0280   22.2650 N   0  0  0  0  0  0  0  0  0  0  0  0
  -23.3990  -28.5960   23.0970 O   0  0  0  0  0  0  0  0  0  0  0  0
  -20.8060  -29.6020   21.6250 H   0  0  0  0  0  0  0  0  0  0  0  0
  -18.0380  -27.6470   22.7810 C   0  0  0  0  0  0  0  0  0  0  0  0
  -20.5870  -28.0150   23.0030 C   0  0  0  0  0  3  0  0  0  0  0  0
  -20.7410  -26.6250   22.3440 C   0  0  0  0  0  2  0  0  0  0  0  0
  -19.6280  -26.3140   21.3420 C   0  0  0  0  0  2  0  0  0  0  0  0
  -18.2590  -26.3480   22.0260 C   0  0  0  0  0  2  0  0  0  0  0  0
  -19.1320  -28.4400   23.2230 C   0  0  0  0  0  0  0  0  0  0  0  0
  -18.8690  -29.6580   23.8860 C   0  0  0  0  0  3  0  0  0  0  0  0
  -17.5490  -30.0880   24.1070 C   0  0  0  0  0  3  0  0  0  0  0  0
  -16.4690  -29.2950   23.6780 C   0  0  0  0  0  3  0  0  0  0  0  0
  -16.7180  -28.0760   23.0220 C   0  0  0  0  0  3  0  0  0  0  0  0
  -25.8720  -32.2120   23.6740 C   0  0  0  0  0  3  0  0  0  0  0  0
  -26.4870  -31.3400   24.8360 C   0  0  1  0  0  0  0  0  0  0  0  0
  -25.4840  -31.0000   25.9640 C   0  0  0  0  0  1  0  0  0  0  0  0
  -27.0420  -30.0090   24.2800 C   0  0  0  0  0  1  0  0  0  0  0  0
  -27.6880  -32.0860   25.4620 C   0  0  0  0  0  1  0  0  0  0  0  0
  -25.5810  -33.5750   24.1420 N   0  0  0  0  0  0  0  0  0  0  0  0
  -25.8570  -34.6890   23.4480 C   0  0  0  0  0  0  0  0  0  0  0  0
  -26.4490  -34.6730   22.3670 O   0  0  0  0  0  0  0  0  0  0  0  0
  -25.0360  -33.6580   24.9890 H   0  0  0  0  0  0  0  0  0  0  0  0
  -24.0890  -36.4720   23.3670 C   0  0  0  0  0  1  0  0  0  0  0  0
  -25.3940  -36.0290   24.0500 C   0  0  0  0  0  3  0  0  0  0  0  0
  -27.5830  -36.8660   24.7750 C   0  0  0  0  0  1  0  0  0  0  0  0
  -26.4080  -37.1000   23.9400 N   0  0  0  0  0  0  0  0  0  0  0  0
  -26.0130  -38.0020   24.1880 H   0  0  0  0  0  0  0  0  0  0  0  0
  -28.8440  -19.8200   21.0420 C   0  0  0  0  0  3  0  0  0  0  0  0
  -29.0360  -18.4550   21.6160 N   0  0  0  0  0  4  0  0  0  0  0  0
  -28.1970  -17.9380   21.3960 H   0  0  0  0  0  0  0  0  0  0  0  0
  -29.0900  -18.5380   22.6210 H   0  0  0  0  0  0  0  0  0  0  0  0
  -30.2370  -17.6970   21.1450 C   0  0  0  0  0  2  0  0  0  0  0  0
  -29.9800  -16.1810   20.9670 C   0  0  0  0  0  2  0  0  0  0  0  0
  -31.5340  -14.4510   20.0330 C   0  0  0  0  0  0  0  0  0  0  0  0
  -31.0290  -12.2480   18.9720 C   0  0  0  0  0  2  0  0  0  0  0  0
  -30.0560  -12.3790   17.7830 C   0  0  0  0  0  2  0  0  0  0  0  0
  -28.6100  -12.3140   18.2930 C   0  0  0  0  0  2  0  0  0  0  0  0
  -28.3630  -13.3080   19.4540 C   0  0  0  0  0  3  0  0  0  0  0  0
  -29.4390  -13.1250   20.5540 C   0  0  0  0  0  2  0  0  0  0  0  0
  -30.7620  -13.3250   19.9450 N   0  0  0  0  0  0  0  0  0  0  0  0
  -32.5580  -14.6090   19.3710 O   0  0  0  0  0  0  0  0  0  0  0  0
  -31.2120  -15.3640   20.9790 N   0  0  0  0  0  0  0  0  0  0  0  0
  -32.0230  -15.8800   21.2940 H   0  0  0  0  0  0  0  0  0  0  0  0
  -26.0720  -14.1550   20.2620 C   0  0  0  0  0  0  0  0  0  0  0  0
  -24.9550  -13.4920   20.6810 C   0  0  0  0  0  0  0  0  0  0  0  0
  -25.2730  -12.1000   20.6210 C   0  0  0  0  0  0  0  0  0  0  0  0
  -27.0110  -13.1760   19.9860 N   0  0  0  0  0  0  0  0  0  0  0  0
  -26.5380  -11.9360   20.2630 N   0  0  0  0  0  0  0  0  0  0  0  0
  -24.4350  -10.9150   20.8280 C   0  0  0  0  0  0  0  0  0  0  0  0
  -24.7890   -9.9150   21.7620 C   0  0  0  0  0  3  0  0  0  0  0  0
  -23.9630   -8.7900   21.9540 C   0  0  0  0  0  3  0  0  0  0  0  0
  -22.7650   -8.6560   21.2130 C   0  0  0  0  0  0  0  0  0  0  0  0
  -22.4270   -9.6410   20.2670 C   0  0  0  0  0  3  0  0  0  0  0  0
  -23.2530  -10.7600   20.0730 C   0  0  0  0  0  3  0  0  0  0  0  0
  -21.9100   -7.5850   21.3150 O   0  0  0  0  0  0  0  0  0  0  0  0
  -21.7730   -6.8850   22.4880 C   0  0  0  0  0  0  0  0  0  0  0  0
  -21.3870   -7.5160   23.6890 C   0  0  0  0  0  3  0  0  0  0  0  0
  -21.1880   -6.7480   24.8520 C   0  0  0  0  0  3  0  0  0  0  0  0
  -21.3650   -5.3530   24.8180 C   0  0  0  0  0  0  0  0  0  0  0  0
  -21.7440   -4.7220   23.6190 C   0  0  0  0  0  3  0  0  0  0  0  0
  -21.9450   -5.4870   22.4550 C   0  0  0  0  0  0  0  0  0  0  0  0
  -22.2890   -4.8720   21.2990 F   0  0  0  0  0  0  0  0  0  0  0  0
  -21.1660   -4.6130   25.9330 F   0  0  0  0  0  0  0  0  0  0  0  0
  -23.6210  -14.0970   21.0190 C   0  0  0  0  0  0  0  0  0  0  0  0
  -22.8800  -13.4690   21.9230 N   0  0  0  0  0  0  0  0  0  0  0  0
  -23.2560  -15.1580   20.5180 O   0  0  0  0  0  0  0  0  0  0  0  0
  -23.2050  -12.6040   22.3320 H   0  0  0  0  0  0  0  0  0  0  0  0
  -21.9920  -13.8520   22.2150 H   0  0  0  0  0  0  0  0  0  0  0  0
  -26.3640  -15.5050   20.0630 N   0  0  0  0  0  0  0  0  0  0  0  0
  -25.5700  -16.1310   20.0880 H   0  0  0  0  0  0  0  0  0  0  0  0
  -26.9850  -15.7220   19.2930 H   0  0  0  0  0  0  0  0  0  0  0  0
  -30.3130  -21.3500   22.4820 C   0  0  0  0  0  1  0  0  0  0  0  0
  -30.1670  -20.6370   21.1300 C   0  0  0  0  0  2  0  0  0  0  0  0
  1 50  1  0
  2  5  1  0
  2  1  1  0
  3  1  2  0
  4  2  1  0
  6  7  1  0
  6  5  1  0
  8  7  1  0
  8  9  1  0
  9 11  1  0
 10 21  2  0
 11 16  1  0
 12 20  1  0
 12 22  1  0
 13 19  1  0
 13 15  1  0
 14 20  1  0
 15 14  1  0
 16 15  2  0
 17 18  1  0
 17 11  2  0
 18 13  2  0
 19 12  1  0
 20 10  1  0
 22 24  2  0
 23 22  1  0
 25 23  1  0
 26 35  2  0
 26 31  1  0
 27 23  1  0
 27 31  1  0
 28 27  1  0
 29 30  1  0
 29 28  1  0
 30 26  1  0
 31 32  2  0
 32 33  1  0
 34 33  2  0
 35 34  1  0
 36 10  1  0
 36 41  1  0
 36 37  1  0
 37 40  1  1
 37 38  1  0
 39 37  1  0
 41 44  1  0
 42 46  1  0
 42 41  1  0
 43 42  2  0
 46 45  1  0
 48 46  1  0
 48 49  1  0
 48 47  1  0
 50 95  1  0
 50 51  1  0
 51 53  1  0
 52 51  1  0
 54 51  1  0
 55 64  1  0
 55 54  1  0
 56 64  1  0
 57 62  1  0
 58 59  1  0
 58 57  1  0
 60 59  1  0
 60 69  1  0
 60 61  1  0
 62 56  1  0
 62 61  1  0
 63 56  2  0
 64 65  1  0
 66 67  2  0
 67 86  1  0
 68 67  1  0
 68 71  1  0
 69 66  1  0
 69 70  1  0
 70 68  2  0
 71 72  1  0
 72 73  2  0
 74 77  1  0
 74 73  1  0
 75 74  2  0
 76 75  1  0
 76 71  2  0
 77 78  1  0
 78 79  1  0
 79 80  2  0
 81 80  1  0
 81 85  1  0
 82 81  2  0
 83 78  2  0
 83 82  1  0
 84 83  1  0
 86 87  1  0
 87 90  1  0
 87 89  1  0
 88 86  2  0
 91 92  1  0
 91 66  1  0
 93 91  1  0
 95 94  1  0
M  ISO  4   8 101   9 101  56 100  64 100
M  END
>  <TORSDO>  (14) 
F 25

>  <SCORE>  (14) 
-10.654

>  <name>  (14) 
13

>  <ligand_id>  (14) 
13

>  <original_smiles>  (14) 
[H]c1c([H])c([H])c2c(c1[H])C([H])([H])C([H])([H])C([H])([H])C2([H])N([H])C(=O)C1([H])N(C(=O)C([H])(N([H])C(=O)C([H])(N([H])C([H])([H])[H])C([H])([H])[H])C(C([H])([H])[H])(C([H])([H])[H])C([H])([H])[H])C([H])([H])c2c([H])c(OC([H])([H])C([H])([H])C([H])([H])C([H])([H])N([H])C(=O)C([H])(C([H])([H])C([H])([H])[H])[N+]([H])([H])C([H])([H])C([H])([H])N([H])C(=O)N3C([H])([H])C([H])([H])C([H])([H])C([H])(n4nc(-c5c([H])c([H])c(Oc6c([H])c([H])c(F)c([H])c6F)c([H])c5[H])c(C(=O)N([H])[H])c4N([H])[H])C3([H])[H])c([H])c([H])c2C1([H])[H]

>  <smiles>  (14) 
[H]c1c([H])c([H])c2c(c1[H])C([H])([H])C([H])([H])C([H])([H])C2([H])N([H])C(=O)C1([H])N(C(=O)C([H])(N([H])C(=O)C([H])(N([H])C([H])([H])[H])C([H])([H])[H])C(C([H])([H])[H])(C([H])([H])[H])C([H])([H])[H])C([H])([H])c2c([H])c(OC([H])([H])C([H])([H])C([H])([H])C([H])([H])N([H])C(=O)C([H])(C([H])([H])C([H])([H])[H])[N+]([H])([H])C([H])([H])C([H])([H])N([H])C(=O)N3C([H])([H])C([H])([H])C([H])([H])C([H])(n4nc(-c5c([H])c([H])c(Oc6c([H])c([H])c(F)c([H])c6F)c([H])c5[H])c(C(=O)N([H])[H])c4N([H])[H])C3([H])[H])c([H])c([H])c2C1([H])[H]

$$$$
15:0:0
     RDKit          3D

104113  0  0  1  0  0  0  0  0999 V2000
  -24.2480  -21.1340   20.4030 C   0  0  0  0  0  3  0  0  0  0  0  0
  -24.0840  -19.7410   20.3310 C   0  0  0  0  0  3  0  0  0  0  0  0
  -25.6610  -21.0710   18.4140 C   0  0  0  0  0  3  0  0  0  0  0  0
  -25.0420  -21.7980   19.4470 C   0  0  0  0  0  0  0  0  0  0  0  0
  -24.7010  -19.0040   19.2970 C   0  0  0  0  0  0  0  0  0  0  0  0
  -25.4910  -19.6810   18.3330 C   0  0  0  0  0  0  0  0  0  0  0  0
  -25.1840  -23.2760   19.5000 C   0  0  0  0  0  0  0  0  0  0  0  0
  -26.2830  -23.7660   18.9120 N   0  0  0  0  0  0  0  0  0  0  0  0
  -24.3360  -23.9650   20.0750 O   0  0  0  0  0  0  0  0  0  0  0  0
  -26.9520  -23.1320   18.4990 H   0  0  0  0  0  0  0  0  0  0  0  0
  -26.5540  -25.1880   18.9360 C   0  0  0  0  0  2  0  0  0  0  0  0
  -27.8500  -25.6670   18.2730 C   0  0  0  0  0  2  0  0  0  0  0  0
  -27.7320  -27.0980   17.6780 C   0  0  0  0  0  2  0  0  0  0  0  0
  -27.6680  -28.1460   18.6510 O   0  0  0  0  0  0  0  0  0  0  0  0
  -24.3420  -31.8000   23.7640 C   0  0  0  0  0  0  0  0  0  0  0  0
  -26.4550  -28.6360   19.0940 C   0  0  0  0  0  0  0  0  0  0  0  0
  -22.8770  -30.5920   22.1810 C   0  0  0  0  0  3  0  0  0  0  0  0
  -24.0190  -29.6740   20.0950 C   0  0  0  0  0  0  0  0  0  0  0  0
  -25.2040  -31.3740   21.4750 C   0  0  0  0  0  2  0  0  0  0  0  0
  -25.2400  -30.2020   20.5260 C   0  0  0  0  0  0  0  0  0  0  0  0
  -26.4590  -29.6580   20.0670 C   0  0  0  0  0  3  0  0  0  0  0  0
  -25.2050  -28.1950   18.6020 C   0  0  0  0  0  3  0  0  0  0  0  0
  -23.9940  -28.6490   19.1410 C   0  0  0  0  0  3  0  0  0  0  0  0
  -22.7590  -30.2770   20.6690 C   0  0  0  0  0  2  0  0  0  0  0  0
  -24.1690  -31.2630   22.5240 N   0  0  0  0  0  0  0  0  0  0  0  0
  -23.4300  -31.7800   24.6000 O   0  0  0  0  0  0  0  0  0  0  0  0
  -22.6240  -29.2950   22.9800 C   0  0  0  0  0  0  0  0  0  0  0  0
  -21.5980  -28.5310   22.5720 N   0  0  0  0  0  0  0  0  0  0  0  0
  -23.3520  -28.9840   23.9250 O   0  0  0  0  0  0  0  0  0  0  0  0
  -21.0340  -28.8610   21.8010 H   0  0  0  0  0  0  0  0  0  0  0  0
  -19.6990  -25.5220   21.9410 C   0  0  0  0  0  0  0  0  0  0  0  0
  -21.2070  -27.2440   23.1430 C   0  0  0  0  0  3  0  0  0  0  0  0
  -22.3480  -26.2100   22.9870 C   0  0  0  0  0  2  0  0  0  0  0  0
  -22.2090  -25.3480   21.7290 C   0  0  0  0  0  2  0  0  0  0  0  0
  -20.8820  -24.5870   21.7360 C   0  0  0  0  0  2  0  0  0  0  0  0
  -19.8560  -26.7770   22.5890 C   0  0  0  0  0  0  0  0  0  0  0  0
  -18.7370  -27.6280   22.7210 C   0  0  0  0  0  3  0  0  0  0  0  0
  -17.4770  -27.2430   22.2240 C   0  0  0  0  0  3  0  0  0  0  0  0
  -17.3240  -25.9950   21.5940 C   0  0  0  0  0  3  0  0  0  0  0  0
  -18.4320  -25.1390   21.4550 C   0  0  0  0  0  3  0  0  0  0  0  0
  -25.6820  -32.4850   24.1800 C   0  0  0  0  0  3  0  0  0  0  0  0
  -25.3980  -33.9090   24.4020 N   0  0  0  0  0  0  0  0  0  0  0  0
  -25.8200  -34.8970   23.6040 C   0  0  0  0  0  0  0  0  0  0  0  0
  -26.5620  -34.7110   22.6360 O   0  0  0  0  0  0  0  0  0  0  0  0
  -24.7590  -34.1340   25.1510 H   0  0  0  0  0  0  0  0  0  0  0  0
  -24.2870  -36.7630   22.9050 C   0  0  0  0  0  1  0  0  0  0  0  0
  -25.3430  -36.3240   23.9320 C   0  0  0  0  0  3  0  0  0  0  0  0
  -27.3500  -37.1180   25.1030 C   0  0  0  0  0  1  0  0  0  0  0  0
  -26.4390  -37.3160   23.9770 N   0  0  0  0  0  0  0  0  0  0  0  0
  -26.0650  -38.2590   24.0390 H   0  0  0  0  0  0  0  0  0  0  0  0
  -26.3460  -31.8360   25.4560 C   0  0  1  0  0  0  0  0  0  0  0  0
  -25.3770  -31.6970   26.6540 C   0  0  0  0  0  1  0  0  0  0  0  0
  -26.9000  -30.4270   25.1310 C   0  0  0  0  0  1  0  0  0  0  0  0
  -27.5530  -32.6910   25.9110 C   0  0  0  0  0  1  0  0  0  0  0  0
  -24.4520  -17.5460   19.2420 C   0  0  0  0  0  0  0  0  0  0  0  0
  -23.7680  -17.0030   18.3720 O   0  0  0  0  0  0  0  0  0  0  0  0
  -25.0320  -16.7320   20.4000 C   0  0  0  0  0  2  0  0  0  0  0  0
  -25.8720  -15.5180   19.9680 C   0  0  0  0  0  2  0  0  0  0  0  0
  -27.2850  -15.8720   19.7110 N   0  0  0  0  0  4  0  0  0  0  0  0
  -27.4120  -16.8660   19.8010 H   0  0  0  0  0  0  0  0  0  0  0  0
  -27.4970  -15.5970   18.7550 H   0  0  0  0  0  0  0  0  0  0  0  0
  -28.2630  -15.2110   20.5930 C   0  0  0  0  0  3  0  0  0  0  0  0
  -29.6620  -15.2560   19.9660 C   0  0  0  0  0  2  0  0  0  0  0  0
  -30.7980  -14.9700   20.9620 C   0  0  0  0  0  2  0  0  0  0  0  0
  -32.2420  -12.8910   20.9770 C   0  0  0  0  0  0  0  0  0  0  0  0
  -31.9440  -10.5270   21.5990 C   0  0  0  0  0  2  0  0  0  0  0  0
  -31.3360   -9.7190   20.4330 C   0  0  0  0  0  2  0  0  0  0  0  0
  -29.7980   -9.7890   20.4560 C   0  0  0  0  0  2  0  0  0  0  0  0
  -29.2720  -11.2350   20.6220 C   0  0  0  0  0  3  0  0  0  0  0  0
  -30.0010  -11.9450   21.7770 C   0  0  0  0  0  2  0  0  0  0  0  0
  -31.4500  -11.9120   21.5030 N   0  0  0  0  0  0  0  0  0  0  0  0
  -33.4390  -12.7290   20.7460 O   0  0  0  0  0  0  0  0  0  0  0  0
  -31.6580  -13.9430   20.3870 N   0  0  0  0  0  0  0  0  0  0  0  0
  -32.2580  -14.3190   19.6670 H   0  0  0  0  0  0  0  0  0  0  0  0
  -26.9350  -12.3040   20.6220 C   0  0  0  0  0  0  0  0  0  0  0  0
  -25.6900  -11.7960   20.8560 C   0  0  0  0  0  0  0  0  0  0  0  0
  -25.8880  -10.4160   21.1660 C   0  0  0  0  0  0  0  0  0  0  0  0
  -27.8230  -11.2590   20.8020 N   0  0  0  0  0  0  0  0  0  0  0  0
  -27.1830  -10.1280   21.1880 N   0  0  0  0  0  0  0  0  0  0  0  0
  -24.9190   -9.3370   21.3840 C   0  0  0  0  0  0  0  0  0  0  0  0
  -25.0920   -8.3900   22.4170 C   0  0  0  0  0  3  0  0  0  0  0  0
  -24.1370   -7.3710   22.6200 C   0  0  0  0  0  3  0  0  0  0  0  0
  -22.9960   -7.2950   21.7850 C   0  0  0  0  0  0  0  0  0  0  0  0
  -22.8410   -8.2240   20.7410 C   0  0  0  0  0  3  0  0  0  0  0  0
  -23.7970   -9.2330   20.5380 C   0  0  0  0  0  3  0  0  0  0  0  0
  -22.0300   -6.3220   21.8870 O   0  0  0  0  0  0  0  0  0  0  0  0
  -21.8810   -5.5760   23.0280 C   0  0  0  0  0  0  0  0  0  0  0  0
  -21.7080   -6.1800   24.2920 C   0  0  0  0  0  3  0  0  0  0  0  0
  -21.4890   -5.3790   25.4300 C   0  0  0  0  0  3  0  0  0  0  0  0
  -21.4340   -3.9780   25.3050 C   0  0  0  0  0  0  0  0  0  0  0  0
  -21.6060   -3.3750   24.0460 C   0  0  0  0  0  3  0  0  0  0  0  0
  -21.8280   -4.1730   22.9100 C   0  0  0  0  0  0  0  0  0  0  0  0
  -21.9740   -3.5900   21.6950 F   0  0  0  0  0  0  0  0  0  0  0  0
  -21.2150   -3.2070   26.3960 F   0  0  0  0  0  0  0  0  0  0  0  0
  -24.3790  -12.5140   20.7000 C   0  0  0  0  0  0  0  0  0  0  0  0
  -23.3980  -12.1850   21.5300 N   0  0  0  0  0  0  0  0  0  0  0  0
  -24.2430  -13.4160   19.8750 O   0  0  0  0  0  0  0  0  0  0  0  0
  -23.5110  -11.4580   22.2200 H   0  0  0  0  0  0  0  0  0  0  0  0
  -22.5050  -12.6550   21.4620 H   0  0  0  0  0  0  0  0  0  0  0  0
  -27.4020  -13.5550   20.2480 N   0  0  0  0  0  4  0  0  0  0  0  0
  -26.7290  -14.1470   19.7680 H   0  0  0  0  0  0  0  0  0  0  0  0
  -28.2720  -13.5200   19.7340 H   0  0  0  0  0  0  0  0  0  0  0  0
  -26.1240  -19.0250   17.3240 O   0  0  0  0  0  0  0  0  0  0  0  0
  -26.5250  -19.6260   16.7020 H   0  0  0  0  0  0  0  0  0  0  0  0
  2  1  1  0
  3  4  1  0
  4  7  1  0
  4  1  2  0
  5  2  2  0
  6  3  2  0
  6  5  1  0
  7  9  2  0
  8 11  1  0
  8  7  1  0
 10  8  1  0
 12 11  1  0
 13 12  1  0
 13 14  1  0
 14 16  1  0
 15 26  2  0
 16 21  1  0
 17 25  1  0
 17 27  1  0
 18 20  1  0
 18 24  1  0
 19 25  1  0
 20 19  1  0
 21 20  2  0
 22 16  2  0
 22 23  1  0
 23 18  2  0
 24 17  1  0
 25 15  1  0
 27 29  2  0
 28 27  1  0
 30 28  1  0
 31 36  1  0
 32 28  1  0
 33 32  1  0
 34 35  1  0
 34 33  1  0
 35 31  1  0
 36 37  2  0
 36 32  1  0
 38 37  1  0
 39 38  2  0
 40 39  1  0
 40 31  2  0
 41 15  1  0
 41 42  1  0
 41 51  1  0
 42 45  1  0
 43 47  1  0
 43 42  1  0
 44 43  2  0
 47 46  1  0
 47 49  1  0
 49 50  1  0
 49 48  1  0
 51 54  1  1
 51 52  1  0
 53 51  1  0
 55  5  1  0
 55 57  1  0
 56 55  2  0
 58 57  1  0
 59 60  1  0
 59 58  1  0
 61 59  1  0
 62 59  1  0
 63 62  1  0
 63 64  1  0
 65 71  1  0
 67 68  1  0
 67 66  1  0
 69 68  1  0
 69 78  1  0
 69 70  1  0
 71 66  1  0
 71 70  1  0
 72 65  2  0
 73 64  1  0
 73 65  1  0
 74 73  1  0
 75 78  1  0
 75 76  2  0
 76 77  1  0
 77 79  2  0
 77 80  1  0
 78 79  1  0
 80 81  1  0
 81 82  2  0
 83 86  1  0
 83 82  1  0
 84 83  2  0
 85 84  1  0
 85 80  2  0
 86 87  1  0
 87 88  1  0
 88 89  2  0
 90 89  1  0
 90 94  1  0
 91 90  2  0
 92 87  2  0
 92 91  1  0
 93 92  1  0
 95 76  1  0
 95 96  1  0
 96 98  1  0
 97 95  2  0
 99 96  1  0
100 62  1  0
100 75  1  0
101100  1  0
102100  1  0
103  6  1  0
104103  1  0
M  ISO  4  13 101  14 101  65 100  73 100
M  END
>  <TORSDO>  (15) 
F 28

>  <SCORE>  (15) 
4.245

>  <name>  (15) 
15

>  <ligand_id>  (15) 
15

>  <original_smiles>  (15) 
[H]Oc1c([H])c(C(=O)N([H])C([H])([H])C([H])([H])C([H])([H])Oc2c([H])c([H])c3c(c2[H])C([H])([H])N(C(=O)C([H])(N([H])C(=O)C([H])(N([H])C([H])([H])[H])C([H])([H])[H])C(C([H])([H])[H])(C([H])([H])[H])C([H])([H])[H])C([H])(C(=O)N([H])C2([H])c4c([H])c([H])c([H])c([H])c4C([H])([H])C([H])([H])C2([H])[H])C3([H])[H])c([H])c([H])c1C(=O)C([H])([H])C([H])([H])[N+]([H])([H])C([H])([H])C([H])([H])C([H])([H])N([H])C(=O)N1C([H])([H])C([H])([H])C([H])([H])C([H])(n2nc(-c3c([H])c([H])c(Oc4c([H])c([H])c(F)c([H])c4F)c([H])c3[H])c(C(=O)N([H])[H])c2N([H])[H])C1([H])[H]

>  <smiles>  (15) 
[H]Oc1c([H])c(C(=O)N([H])C([H])([H])C([H])([H])C([H])([H])Oc2c([H])c([H])c3c(c2[H])C([H])([H])N(C(=O)C([H])(N([H])C(=O)C([H])(N([H])C([H])([H])[H])C([H])([H])[H])C(C([H])([H])[H])(C([H])([H])[H])C([H])([H])[H])C([H])(C(=O)N([H])C2([H])c4c([H])c([H])c([H])c([H])c4C([H])([H])C([H])([H])C2([H])[H])C3([H])[H])c([H])c([H])c1C(=O)C([H])([H])C([H])([H])[N+]([H])([H])C([H])([H])C([H])([H])C([H])([H])N([H])C(=O)N1C([H])([H])C([H])([H])C([H])([H])C([H])(n2nc(-c3c([H])c([H])c(Oc4c([H])c([H])c(F)c([H])c4F)c([H])c3[H])c(C(=O)N([H])[H])c2N([H])[H])C1([H])[H]

$$$$
16:0:0
     RDKit          3D

 97105  0  0  1  0  0  0  0  0999 V2000
  -27.3250  -23.2780   19.4520 C   0  0  0  0  0  3  0  0  0  0  0  0
  -29.0950  -22.1310   22.6700 C   0  0  0  0  0  3  0  0  0  0  0  0
  -29.9610  -21.1330   22.1840 C   0  0  0  0  0  3  0  0  0  0  0  0
  -28.2550  -22.8310   21.7830 C   0  0  0  0  0  3  0  0  0  0  0  0
  -29.1520  -21.5410   19.9190 C   0  0  0  0  0  3  0  0  0  0  0  0
  -29.9890  -20.8290   20.8070 C   0  0  0  0  0  0  0  0  0  0  0  0
  -28.2720  -22.5380   20.4010 C   0  0  0  0  0  0  0  0  0  0  0  0
  -30.9460  -19.7750   20.2720 C   0  0  0  0  0  2  0  0  0  0  0  0
  -30.7140  -18.3520   20.8240 C   0  0  0  0  0  2  0  0  0  0  0  0
  -31.8540  -17.4040   20.4110 C   0  0  0  0  0  2  0  0  0  0  0  0
  -31.9040  -16.0680   21.1790 C   0  0  0  0  0  2  0  0  0  0  0  0
  -31.2560  -14.1450   19.7380 C   0  0  0  0  0  0  0  0  0  0  0  0
  -30.7480  -11.8990   18.8490 C   0  0  0  0  0  2  0  0  0  0  0  0
  -29.7410  -11.9350   17.6870 C   0  0  0  0  0  2  0  0  0  0  0  0
  -28.2960  -11.9140   18.2200 C   0  0  0  0  0  2  0  0  0  0  0  0
  -28.0590  -12.9690   19.3320 C   0  0  0  0  0  3  0  0  0  0  0  0
  -29.1640  -12.8970   20.4060 C   0  0  0  0  0  2  0  0  0  0  0  0
  -30.4730  -13.0350   19.7410 N   0  0  0  0  0  0  0  0  0  0  0  0
  -32.2250  -14.2870   18.9860 O   0  0  0  0  0  0  0  0  0  0  0  0
  -30.9790  -15.0420   20.6950 N   0  0  0  0  0  0  0  0  0  0  0  0
  -30.1650  -14.8530   21.2620 H   0  0  0  0  0  0  0  0  0  0  0  0
  -25.8080  -13.8140   20.2550 C   0  0  0  0  0  0  0  0  0  0  0  0
  -24.6970  -13.1500   20.7040 C   0  0  0  0  0  0  0  0  0  0  0  0
  -25.0050  -11.7580   20.6140 C   0  0  0  0  0  0  0  0  0  0  0  0
  -26.7270  -12.8310   19.9210 N   0  0  0  0  0  0  0  0  0  0  0  0
  -26.2520  -11.5890   20.1920 N   0  0  0  0  0  0  0  0  0  0  0  0
  -24.1660  -10.5760   20.8500 C   0  0  0  0  0  0  0  0  0  0  0  0
  -24.5540   -9.5660   21.7580 C   0  0  0  0  0  3  0  0  0  0  0  0
  -23.7220   -8.4470   21.9800 C   0  0  0  0  0  3  0  0  0  0  0  0
  -22.4890   -8.3320   21.2980 C   0  0  0  0  0  0  0  0  0  0  0  0
  -22.1180   -9.3300   20.3790 C   0  0  0  0  0  3  0  0  0  0  0  0
  -22.9490  -10.4400   20.1530 C   0  0  0  0  0  3  0  0  0  0  0  0
  -21.6290   -7.2680   21.4310 O   0  0  0  0  0  0  0  0  0  0  0  0
  -21.5510   -6.5470   22.5960 C   0  0  0  0  0  0  0  0  0  0  0  0
  -21.2380   -7.1580   23.8300 C   0  0  0  0  0  3  0  0  0  0  0  0
  -21.1010   -6.3690   24.9890 C   0  0  0  0  0  3  0  0  0  0  0  0
  -21.2670   -4.9730   24.9170 C   0  0  0  0  0  0  0  0  0  0  0  0
  -21.5730   -4.3640   23.6870 C   0  0  0  0  0  3  0  0  0  0  0  0
  -21.7130   -5.1490   22.5290 C   0  0  0  0  0  0  0  0  0  0  0  0
  -21.9860   -4.5550   21.3430 F   0  0  0  0  0  0  0  0  0  0  0  0
  -21.1260   -4.2140   26.0280 F   0  0  0  0  0  0  0  0  0  0  0  0
  -23.3880  -13.7670   21.1040 C   0  0  0  0  0  0  0  0  0  0  0  0
  -22.6740  -13.1420   22.0340 N   0  0  0  0  0  0  0  0  0  0  0  0
  -23.0120  -14.8360   20.6270 O   0  0  0  0  0  0  0  0  0  0  0  0
  -22.9910  -12.2750   22.4420 H   0  0  0  0  0  0  0  0  0  0  0  0
  -21.7960  -13.5370   22.3440 H   0  0  0  0  0  0  0  0  0  0  0  0
  -26.1070  -15.1620   20.0860 N   0  0  0  0  0  0  0  0  0  0  0  0
  -25.4380  -15.8980   20.2840 H   0  0  0  0  0  0  0  0  0  0  0  0
  -26.9900  -15.5100   19.7340 H   0  0  0  0  0  0  0  0  0  0  0  0
  -27.9610  -24.5480   18.8340 C   0  0  0  0  0  2  0  0  0  0  0  0
  -28.3220  -25.6290   19.8760 C   0  0  0  0  0  2  0  0  0  0  0  0
  -28.3520  -26.9580   19.3370 O   0  0  0  0  0  0  0  0  0  0  0  0
  -24.6140  -31.7530   23.0360 C   0  0  0  0  0  0  0  0  0  0  0  0
  -27.1710  -27.6590   19.4500 C   0  0  0  0  0  0  0  0  0  0  0  0
  -23.3460  -30.4540   21.3600 C   0  0  0  0  0  3  0  0  0  0  0  0
  -24.7470  -29.0890   19.7280 C   0  0  0  0  0  0  0  0  0  0  0  0
  -25.8480  -30.9020   21.0480 C   0  0  0  0  0  2  0  0  0  0  0  0
  -25.9280  -29.5970   20.2850 C   0  0  0  0  0  0  0  0  0  0  0  0
  -27.1460  -28.8940   20.1360 C   0  0  0  0  0  3  0  0  0  0  0  0
  -25.9680  -27.1620   18.8980 C   0  0  0  0  0  3  0  0  0  0  0  0
  -24.7630  -27.8700   19.0310 C   0  0  0  0  0  3  0  0  0  0  0  0
  -23.4880  -29.9040   19.9180 C   0  0  0  0  0  2  0  0  0  0  0  0
  -24.6240  -31.0470   21.8720 N   0  0  0  0  0  0  0  0  0  0  0  0
  -23.5600  -31.9520   23.6560 O   0  0  0  0  0  0  0  0  0  0  0  0
  -22.7840  -29.3340   22.2650 C   0  0  0  0  0  0  0  0  0  0  0  0
  -21.4630  -29.1060   22.1790 N   0  0  0  0  0  0  0  0  0  0  0  0
  -23.5280  -28.6800   22.9990 O   0  0  0  0  0  0  0  0  0  0  0  0
  -20.9240  -29.6910   21.5560 H   0  0  0  0  0  0  0  0  0  0  0  0
  -18.1680  -27.7060   22.6710 C   0  0  0  0  0  0  0  0  0  0  0  0
  -20.7150  -28.0830   22.9090 C   0  0  0  0  0  3  0  0  0  0  0  0
  -20.8810  -26.6960   22.2460 C   0  0  0  0  0  2  0  0  0  0  0  0
  -19.7730  -26.3730   21.2380 C   0  0  0  0  0  2  0  0  0  0  0  0
  -18.4000  -26.4070   21.9170 C   0  0  0  0  0  2  0  0  0  0  0  0
  -19.2560  -28.5010   23.1220 C   0  0  0  0  0  0  0  0  0  0  0  0
  -18.9850  -29.7180   23.7860 C   0  0  0  0  0  3  0  0  0  0  0  0
  -17.6610  -30.1400   24.0060 C   0  0  0  0  0  3  0  0  0  0  0  0
  -16.5880  -29.3400   23.5740 C   0  0  0  0  0  3  0  0  0  0  0  0
  -16.8430  -28.1250   22.9130 C   0  0  0  0  0  3  0  0  0  0  0  0
  -25.9180  -32.3700   23.6290 C   0  0  0  0  0  3  0  0  0  0  0  0
  -26.5530  -31.4950   24.7800 C   0  0  1  0  0  0  0  0  0  0  0  0
  -25.5500  -31.1100   25.8930 C   0  0  0  0  0  1  0  0  0  0  0  0
  -27.1470  -30.1880   24.2060 C   0  0  0  0  0  1  0  0  0  0  0  0
  -27.7240  -32.2640   25.4350 C   0  0  0  0  0  1  0  0  0  0  0  0
  -25.5880  -33.7130   24.1210 N   0  0  0  0  0  0  0  0  0  0  0  0
  -25.8430  -34.8490   23.4590 C   0  0  0  0  0  0  0  0  0  0  0  0
  -26.4550  -34.8780   22.3880 O   0  0  0  0  0  0  0  0  0  0  0  0
  -25.0340  -33.7620   24.9640 H   0  0  0  0  0  0  0  0  0  0  0  0
  -24.0360  -36.5960   23.3950 C   0  0  0  0  0  1  0  0  0  0  0  0
  -25.3380  -36.1610   24.0870 C   0  0  0  0  0  3  0  0  0  0  0  0
  -27.4920  -37.0360   24.8780 C   0  0  0  0  0  1  0  0  0  0  0  0
  -26.3260  -37.2600   24.0270 N   0  0  0  0  0  0  0  0  0  0  0  0
  -25.9020  -38.1440   24.2960 H   0  0  0  0  0  0  0  0  0  0  0  0
  -26.7310  -22.3410   18.3730 C   0  0  0  0  0  2  0  0  0  0  0  0
  -26.0140  -21.1950   18.9640 N   0  0  0  0  0  4  0  0  0  0  0  0
  -26.6270  -20.6820   19.5740 H   0  0  0  0  0  0  0  0  0  0  0  0
  -25.6880  -20.5750   18.2450 H   0  0  0  0  0  0  0  0  0  0  0  0
  -25.2210  -21.5110   19.4930 H   0  0  0  0  0  0  0  0  0  0  0  0
  1 93  1  0
  1  7  1  0
  3  2  1  0
  4  2  2  0
  5  7  2  0
  5  6  1  0
  6  3  2  0
  7  4  1  0
  8  6  1  0
  8  9  1  0
 10  9  1  0
 10 11  1  0
 12 18  1  0
 12 20  1  0
 13 18  1  0
 14 15  1  0
 14 13  1  0
 16 15  1  0
 16 25  1  0
 16 17  1  0
 18 17  1  0
 19 12  2  0
 20 11  1  0
 20 21  1  0
 22 23  2  0
 23 42  1  0
 24 23  1  0
 24 27  1  0
 25 26  1  0
 25 22  1  0
 26 24  2  0
 27 28  1  0
 28 29  2  0
 30 33  1  0
 30 29  1  0
 31 30  2  0
 32 31  1  0
 32 27  2  0
 33 34  1  0
 34 35  1  0
 35 36  2  0
 37 36  1  0
 37 41  1  0
 38 37  2  0
 39 34  2  0
 39 38  1  0
 40 39  1  0
 42 43  1  0
 43 46  1  0
 43 45  1  0
 44 42  2  0
 47 22  1  0
 47 48  1  0
 49 47  1  0
 50  1  1  0
 50 51  1  0
 52 54  1  0
 52 51  1  0
 53 64  2  0
 54 59  1  0
 55 63  1  0
 55 65  1  0
 56 62  1  0
 56 58  1  0
 57 63  1  0
 58 57  1  0
 59 58  2  0
 60 61  1  0
 60 54  2  0
 61 56  2  0
 62 55  1  0
 63 53  1  0
 65 67  2  0
 66 65  1  0
 68 66  1  0
 69 78  2  0
 69 74  1  0
 70 66  1  0
 70 74  1  0
 71 70  1  0
 72 73  1  0
 72 71  1  0
 73 69  1  0
 74 75  2  0
 75 76  1  0
 77 76  2  0
 78 77  1  0
 79 53  1  0
 79 84  1  0
 79 80  1  0
 80 83  1  1
 80 81  1  0
 82 80  1  0
 84 87  1  0
 85 89  1  0
 85 84  1  0
 86 85  2  0
 89 88  1  0
 91 89  1  0
 91 92  1  0
 91 90  1  0
 93 94  1  0
 94 97  1  0
 94 95  1  0
 96 94  1  0
M  ISO  4  12 100  20 100  51 101  52 101
M  END
>  <TORSDO>  (16) 
F 25

>  <SCORE>  (16) 
-11.420

>  <name>  (16) 
16

>  <ligand_id>  (16) 
16

>  <original_smiles>  (16) 
[H]c1c([H])c([H])c2c(c1[H])C([H])([H])C([H])([H])C([H])([H])C2([H])N([H])C(=O)C1([H])N(C(=O)C([H])(N([H])C(=O)C([H])(N([H])C([H])([H])[H])C([H])([H])[H])C(C([H])([H])[H])(C([H])([H])[H])C([H])([H])[H])C([H])([H])c2c([H])c(OC([H])([H])C([H])([H])C([H])(c3c([H])c([H])c([H])c(C([H])([H])C([H])([H])C([H])([H])C([H])([H])N([H])C(=O)N4C([H])([H])C([H])([H])C([H])([H])C([H])(n5nc(-c6c([H])c([H])c(Oc7c([H])c([H])c(F)c([H])c7F)c([H])c6[H])c(C(=O)N([H])[H])c5N([H])[H])C4([H])[H])c3[H])C([H])([H])[N+]([H])([H])[H])c([H])c([H])c2C1([H])[H]

>  <smiles>  (16) 
[H]c1c([H])c([H])c2c(c1[H])C([H])([H])C([H])([H])C([H])([H])C2([H])N([H])C(=O)C1([H])N(C(=O)C([H])(N([H])C(=O)C([H])(N([H])C([H])([H])[H])C([H])([H])[H])C(C([H])([H])[H])(C([H])([H])[H])C([H])([H])[H])C([H])([H])c2c([H])c(OC([H])([H])C([H])([H])C([H])(c3c([H])c([H])c([H])c(C([H])([H])C([H])([H])C([H])([H])C([H])([H])N([H])C(=O)N4C([H])([H])C([H])([H])C([H])([H])C([H])(n5nc(-c6c([H])c([H])c(Oc7c([H])c([H])c(F)c([H])c7F)c([H])c6[H])c(C(=O)N([H])[H])c5N([H])[H])C4([H])[H])c3[H])C([H])([H])[N+]([H])([H])[H])c([H])c([H])c2C1([H])[H]

$$$$
17:0:0
     RDKit          3D

101109  0  0  1  0  0  0  0  0999 V2000
  -31.2180  -21.8530   12.2100 C   0  0  0  0  0  3  0  0  0  0  0  0
  -31.0300  -21.1550   13.4120 C   0  0  0  0  0  3  0  0  0  0  0  0
  -30.9170  -23.2240   12.1430 C   0  0  0  0  0  3  0  0  0  0  0  0
  -30.5400  -21.8350   14.5390 C   0  0  0  0  0  3  0  0  0  0  0  0
  -30.4340  -23.9340   13.2720 C   0  0  0  0  0  0  0  0  0  0  0  0
  -30.2490  -23.2200   14.4980 C   0  0  0  0  0  0  0  0  0  0  0  0
  -30.0670  -25.3880   13.0840 C   0  0  0  0  0  0  0  0  0  0  0  0
  -31.0880  -26.2130   12.8150 N   0  0  0  0  0  0  0  0  0  0  0  0
  -28.8930  -25.7650   13.0950 O   0  0  0  0  0  0  0  0  0  0  0  0
  -32.0150  -25.8110   12.8470 H   0  0  0  0  0  0  0  0  0  0  0  0
  -30.9600  -27.5290   12.1900 C   0  0  0  0  0  2  0  0  0  0  0  0
  -31.8980  -28.6190   12.7700 C   0  0  0  0  0  2  0  0  0  0  0  0
  -31.2390  -29.6510   13.5270 O   0  0  0  0  0  0  0  0  0  0  0  0
  -34.5860  -32.7880   18.9820 C   0  0  0  0  0  0  0  0  0  0  0  0
  -31.5010  -29.6590   14.8770 C   0  0  0  0  0  0  0  0  0  0  0  0
  -33.6360  -30.5490   19.4270 C   0  0  0  0  0  3  0  0  0  0  0  0
  -32.0520  -29.6460   17.6490 C   0  0  0  0  0  0  0  0  0  0  0  0
  -32.5950  -32.0820   17.6610 C   0  0  0  0  0  2  0  0  0  0  0  0
  -32.1710  -30.8340   16.9170 C   0  0  0  0  0  0  0  0  0  0  0  0
  -31.8990  -30.8480   15.5310 C   0  0  0  0  0  3  0  0  0  0  0  0
  -31.3310  -28.4880   15.6430 C   0  0  0  0  0  3  0  0  0  0  0  0
  -31.6310  -28.4650   17.0140 C   0  0  0  0  0  3  0  0  0  0  0  0
  -32.3700  -29.7040   19.1240 C   0  0  0  0  0  2  0  0  0  0  0  0
  -33.6520  -31.8460   18.6740 N   0  0  0  0  0  0  0  0  0  0  0  0
  -35.3980  -32.6090   19.9000 O   0  0  0  0  0  0  0  0  0  0  0  0
  -34.8870  -29.6790   19.1720 C   0  0  0  0  0  0  0  0  0  0  0  0
  -35.2730  -28.8790   20.1790 N   0  0  0  0  0  0  0  0  0  0  0  0
  -35.4700  -29.7110   18.0850 O   0  0  0  0  0  0  0  0  0  0  0  0
  -34.7460  -28.9120   21.0400 H   0  0  0  0  0  0  0  0  0  0  0  0
  -37.0980  -26.4660   22.1550 C   0  0  0  0  0  0  0  0  0  0  0  0
  -36.4020  -27.9480   20.1550 C   0  0  0  0  0  3  0  0  0  0  0  0
  -36.0220  -26.6290   19.4410 C   0  0  0  0  0  2  0  0  0  0  0  0
  -35.5230  -25.5460   20.4020 C   0  0  0  0  0  2  0  0  0  0  0  0
  -36.5910  -25.2210   21.4500 C   0  0  0  0  0  2  0  0  0  0  0  0
  -36.9940  -27.7490   21.5540 C   0  0  0  0  0  0  0  0  0  0  0  0
  -37.4480  -28.8790   22.2710 C   0  0  0  0  0  3  0  0  0  0  0  0
  -38.0010  -28.7400   23.5580 C   0  0  0  0  0  3  0  0  0  0  0  0
  -38.1150  -27.4660   24.1400 C   0  0  0  0  0  3  0  0  0  0  0  0
  -37.6670  -26.3330   23.4380 C   0  0  0  0  0  3  0  0  0  0  0  0
  -34.6640  -34.1430   18.2120 C   0  0  0  0  0  3  0  0  0  0  0  0
  -35.9250  -34.2500   17.2690 C   0  0  1  0  0  0  0  0  0  0  0  0
  -37.2630  -33.9490   17.9840 C   0  0  0  0  0  1  0  0  0  0  0  0
  -35.7970  -33.2750   16.0750 C   0  0  0  0  0  1  0  0  0  0  0  0
  -36.0090  -35.6730   16.6660 C   0  0  0  0  0  1  0  0  0  0  0  0
  -34.6690  -35.2180   19.2130 N   0  0  0  0  0  0  0  0  0  0  0  0
  -33.6470  -36.0560   19.4320 C   0  0  0  0  0  0  0  0  0  0  0  0
  -32.6170  -36.0500   18.7520 O   0  0  0  0  0  0  0  0  0  0  0  0
  -35.4600  -35.2510   19.8380 H   0  0  0  0  0  0  0  0  0  0  0  0
  -32.6550  -36.8480   21.6000 C   0  0  0  0  0  1  0  0  0  0  0  0
  -33.7920  -37.0610   20.5890 C   0  0  0  0  0  3  0  0  0  0  0  0
  -35.0690  -38.8670   19.5240 C   0  0  0  0  0  1  0  0  0  0  0  0
  -33.8070  -38.4730   20.1440 N   0  0  0  0  0  0  0  0  0  0  0  0
  -33.6320  -39.0970   20.9270 H   0  0  0  0  0  0  0  0  0  0  0  0
  -29.7760  -23.8650   15.8040 C   0  0  0  0  0  2  0  0  0  0  0  0
  -30.7100  -24.9910   16.2980 C   0  0  0  0  0  2  0  0  0  0  0  0
  -31.8490  -24.4940   17.1920 C   0  0  0  0  0  0  0  0  0  0  0  0
  -33.0380  -24.3290   16.6040 N   0  0  0  0  0  0  0  0  0  0  0  0
  -31.6580  -24.2760   18.3890 O   0  0  0  0  0  0  0  0  0  0  0  0
  -33.0840  -24.5210   15.6130 H   0  0  0  0  0  0  0  0  0  0  0  0
  -34.2800  -23.9040   17.2430 C   0  0  0  0  0  2  0  0  0  0  0  0
  -34.7590  -22.5420   16.6980 C   0  0  0  0  0  2  0  0  0  0  0  0
  -36.0590  -22.6350   15.8740 C   0  0  0  0  0  2  0  0  0  0  0  0
  -36.7250  -24.0160   15.8470 C   0  0  0  0  0  2  0  0  0  0  0  0
  -37.4260  -24.6000   13.5710 C   0  0  0  0  0  0  0  0  0  0  0  0
  -37.8080  -24.8330   11.1510 C   0  0  0  0  0  2  0  0  0  0  0  0
  -38.6490  -26.0760   10.8180 C   0  0  0  0  0  2  0  0  0  0  0  0
  -37.7460  -27.3120   10.6550 C   0  0  0  0  0  2  0  0  0  0  0  0
  -36.7530  -27.4830   11.8340 C   0  0  0  0  0  3  0  0  0  0  0  0
  -36.0260  -26.1570   12.1570 C   0  0  0  0  0  2  0  0  0  0  0  0
  -37.0360  -25.1060   12.3740 N   0  0  0  0  0  0  0  0  0  0  0  0
  -38.4580  -23.9380   13.7140 O   0  0  0  0  0  0  0  0  0  0  0  0
  -36.5650  -24.7470   14.5880 N   0  0  0  0  0  0  0  0  0  0  0  0
  -35.7230  -25.2790   14.4290 H   0  0  0  0  0  0  0  0  0  0  0  0
  -35.5730  -29.7230   12.3030 C   0  0  0  0  0  0  0  0  0  0  0  0
  -34.6460  -30.4360   11.5900 C   0  0  0  0  0  0  0  0  0  0  0  0
  -34.3620  -29.6600   10.4250 C   0  0  0  0  0  0  0  0  0  0  0  0
  -35.8090  -28.5690   11.5730 N   0  0  0  0  0  0  0  0  0  0  0  0
  -35.0310  -28.5140   10.4610 N   0  0  0  0  0  0  0  0  0  0  0  0
  -33.5330  -29.9650    9.2500 C   0  0  0  0  0  0  0  0  0  0  0  0
  -32.2250  -29.4520    9.1150 C   0  0  0  0  0  3  0  0  0  0  0  0
  -31.4410  -29.7760    7.9870 C   0  0  0  0  0  3  0  0  0  0  0  0
  -31.9620  -30.6250    6.9800 C   0  0  0  0  0  0  0  0  0  0  0  0
  -33.2740  -31.1140    7.1090 C   0  0  0  0  0  3  0  0  0  0  0  0
  -34.0550  -30.7860    8.2300 C   0  0  0  0  0  3  0  0  0  0  0  0
  -31.2830  -30.9730    5.8370 O   0  0  0  0  0  0  0  0  0  0  0  0
  -30.2020  -31.8160    5.8700 C   0  0  0  0  0  0  0  0  0  0  0  0
  -30.3460  -33.2170    5.7870 C   0  0  0  0  0  3  0  0  0  0  0  0
  -29.2040  -34.0430    5.7530 C   0  0  0  0  0  3  0  0  0  0  0  0
  -27.9190  -33.4690    5.7960 C   0  0  0  0  0  0  0  0  0  0  0  0
  -27.7730  -32.0720    5.8750 C   0  0  0  0  0  3  0  0  0  0  0  0
  -28.9120  -31.2490    5.9100 C   0  0  0  0  0  0  0  0  0  0  0  0
  -28.7650  -29.9030    5.9630 F   0  0  0  0  0  0  0  0  0  0  0  0
  -26.8220  -34.2600    5.7570 F   0  0  0  0  0  0  0  0  0  0  0  0
  -34.1180  -31.8030   11.9200 C   0  0  0  0  0  0  0  0  0  0  0  0
  -32.8030  -31.9370   12.0560 N   0  0  0  0  0  0  0  0  0  0  0  0
  -34.8770  -32.7520   12.1090 O   0  0  0  0  0  0  0  0  0  0  0  0
  -32.1820  -31.1530   11.9190 H   0  0  0  0  0  0  0  0  0  0  0  0
  -32.4120  -32.8360   12.2970 H   0  0  0  0  0  0  0  0  0  0  0  0
  -36.2460  -29.9650   13.4950 N   0  0  0  0  0  0  0  0  0  0  0  0
  -36.1230  -30.8190   14.0250 H   0  0  0  0  0  0  0  0  0  0  0  0
  -36.9410  -29.3450   13.8920 H   0  0  0  0  0  0  0  0  0  0  0  0
  1  2  1  0
  2  4  2  0
  3  1  2  0
  3  5  1  0
  5  6  2  0
  6  4  1  0
  6 54  1  0
  7  9  2  0
  7  5  1  0
  8 10  1  0
  8  7  1  0
 11 12  1  0
 11  8  1  0
 12 13  1  0
 13 15  1  0
 14 25  2  0
 15 20  2  0
 15 21  1  0
 16 26  1  0
 17 23  1  0
 18 24  1  0
 19 17  2  0
 19 18  1  0
 20 19  1  0
 21 22  2  0
 22 17  1  0
 23 16  1  0
 24 14  1  0
 24 16  1  0
 26 27  1  0
 27 29  1  0
 28 26  2  0
 30 39  1  0
 31 27  1  0
 31 35  1  0
 32 31  1  0
 32 33  1  0
 33 34  1  0
 34 30  1  0
 35 30  2  0
 35 36  1  0
 36 37  2  0
 37 38  1  0
 39 38  2  0
 40 14  1  0
 40 45  1  0
 41 42  1  1
 41 40  1  0
 43 41  1  0
 44 41  1  0
 45 46  1  0
 45 48  1  0
 46 50  1  0
 47 46  2  0
 50 49  1  0
 51 52  1  0
 52 50  1  0
 52 53  1  0
 54 55  1  0
 55 56  1  0
 56 58  2  0
 57 56  1  0
 57 60  1  0
 59 57  1  0
 61 60  1  0
 62 61  1  0
 63 62  1  0
 64 71  2  0
 64 72  1  0
 65 70  1  0
 66 65  1  0
 67 66  1  0
 68 67  1  0
 68 69  1  0
 69 70  1  0
 70 64  1  0
 72 63  1  0
 73 72  1  0
 74 99  1  0
 75 94  1  0
 75 74  2  0
 76 78  2  0
 76 75  1  0
 77 68  1  0
 77 74  1  0
 78 77  1  0
 79 76  1  0
 80 79  1  0
 81 80  2  0
 82 83  2  0
 82 81  1  0
 83 84  1  0
 84 79  2  0
 85 86  1  0
 85 82  1  0
 86 91  1  0
 87 86  2  0
 88 87  1  0
 88 89  2  0
 89 90  1  0
 90 91  2  0
 91 92  1  0
 93 89  1  0
 94 95  1  0
 94 96  2  0
 95 98  1  0
 97 95  1  0
 99101  1  0
 99100  1  0
M  ISO  4  12 101  13 101  64 100  72 100
M  END
>  <TORSDO>  (17) 
F 26

>  <SCORE>  (17) 
-4.102

>  <name>  (17) 
17

>  <ligand_id>  (17) 
17

>  <original_smiles>  (17) 
[H]c1c([H])c([H])c(C([H])([H])C([H])([H])C(=O)N([H])C([H])([H])C([H])([H])C([H])([H])C([H])([H])N([H])C(=O)N2C([H])([H])C([H])([H])C([H])([H])C([H])(n3nc(-c4c([H])c([H])c(Oc5c([H])c([H])c(F)c([H])c5F)c([H])c4[H])c(C(=O)N([H])[H])c3N([H])[H])C2([H])[H])c(C(=O)N([H])C([H])([H])C([H])([H])Oc2c([H])c([H])c3c(c2[H])C([H])([H])N(C(=O)C([H])(N([H])C(=O)C([H])(N([H])C([H])([H])[H])C([H])([H])[H])C(C([H])([H])[H])(C([H])([H])[H])C([H])([H])[H])C([H])(C(=O)N([H])C2([H])c4c([H])c([H])c([H])c([H])c4C([H])([H])C([H])([H])C2([H])[H])C3([H])[H])c1[H]

>  <smiles>  (17) 
[H]c1c([H])c([H])c(C([H])([H])C([H])([H])C(=O)N([H])C([H])([H])C([H])([H])C([H])([H])C([H])([H])N([H])C(=O)N2C([H])([H])C([H])([H])C([H])([H])C([H])(n3nc(-c4c([H])c([H])c(Oc5c([H])c([H])c(F)c([H])c5F)c([H])c4[H])c(C(=O)N([H])[H])c3N([H])[H])C2([H])[H])c(C(=O)N([H])C([H])([H])C([H])([H])Oc2c([H])c([H])c3c(c2[H])C([H])([H])N(C(=O)C([H])(N([H])C(=O)C([H])(N([H])C([H])([H])[H])C([H])([H])[H])C(C([H])([H])[H])(C([H])([H])[H])C([H])([H])[H])C([H])(C(=O)N([H])C2([H])c4c([H])c([H])c([H])c([H])c4C([H])([H])C([H])([H])C2([H])[H])C3([H])[H])c1[H]

$$$$
18:0:0
     RDKit          3D

 99107  0  0  1  0  0  0  0  0999 V2000
  -28.5510  -25.8600   21.1410 C   0  0  0  0  0  2  0  0  0  0  0  0
  -29.4390  -26.9890   20.5690 C   0  0  0  0  0  2  0  0  0  0  0  0
  -30.9390  -26.6490   20.3850 C   0  0  0  0  0  2  0  0  0  0  0  0
  -31.4800  -26.7280   18.9390 C   0  0  0  0  0  2  0  0  0  0  0  0
  -31.8660  -28.1020   18.5330 N   0  0  0  0  0  4  0  0  0  0  0  0
  -31.2520  -28.7590   18.9970 H   0  0  0  0  0  0  0  0  0  0  0  0
  -31.6900  -28.1940   17.5410 H   0  0  0  0  0  0  0  0  0  0  0  0
  -33.2920  -28.4370   18.8100 C   0  0  0  0  0  2  0  0  0  0  0  0
  -33.4510  -29.7520   19.6040 C   0  0  0  0  0  2  0  0  0  0  0  0
  -34.8070  -29.9170   20.0320 O   0  0  0  0  0  0  0  0  0  0  0  0
  -40.6920  -26.6860   22.3650 C   0  0  0  0  0  0  0  0  0  0  0  0
  -35.3360  -28.9990   20.9140 C   0  0  0  0  0  0  0  0  0  0  0  0
  -38.5610  -25.8230   23.2810 C   0  0  0  0  0  3  0  0  0  0  0  0
  -36.4920  -27.2190   22.7770 C   0  0  0  0  0  0  0  0  0  0  0  0
  -38.7570  -28.2530   22.5160 C   0  0  0  0  0  2  0  0  0  0  0  0
  -37.2840  -28.1940   22.1600 C   0  0  0  0  0  0  0  0  0  0  0  0
  -36.7080  -29.0910   21.2330 C   0  0  0  0  0  3  0  0  0  0  0  0
  -34.5490  -28.0040   21.5360 C   0  0  0  0  0  3  0  0  0  0  0  0
  -35.1240  -27.1150   22.4650 C   0  0  0  0  0  3  0  0  0  0  0  0
  -37.1770  -26.3170   23.7790 C   0  0  0  0  0  2  0  0  0  0  0  0
  -39.3850  -26.9200   22.6780 N   0  0  0  0  0  0  0  0  0  0  0  0
  -41.2270  -25.5970   22.6130 O   0  0  0  0  0  0  0  0  0  0  0  0
  -38.3410  -24.6250   22.3300 C   0  0  0  0  0  0  0  0  0  0  0  0
  -38.2150  -23.4190   22.9070 N   0  0  0  0  0  0  0  0  0  0  0  0
  -38.2600  -24.7930   21.1100 O   0  0  0  0  0  0  0  0  0  0  0  0
  -38.3000  -23.3670   23.9120 H   0  0  0  0  0  0  0  0  0  0  0  0
  -38.0180  -19.8340   23.3470 C   0  0  0  0  0  0  0  0  0  0  0  0
  -37.9530  -22.1560   22.2130 C   0  0  0  0  0  3  0  0  0  0  0  0
  -36.4350  -21.9150   22.0450 C   0  0  0  0  0  2  0  0  0  0  0  0
  -35.8250  -21.0830   23.1780 C   0  0  0  0  0  2  0  0  0  0  0  0
  -36.5050  -19.7140   23.2630 C   0  0  0  0  0  2  0  0  0  0  0  0
  -38.6950  -20.9870   22.8700 C   0  0  0  0  0  0  0  0  0  0  0  0
  -40.0990  -21.0620   23.0040 C   0  0  0  0  0  3  0  0  0  0  0  0
  -40.8200  -20.0130   23.6040 C   0  0  0  0  0  3  0  0  0  0  0  0
  -40.1460  -18.8690   24.0640 C   0  0  0  0  0  3  0  0  0  0  0  0
  -38.7500  -18.7780   23.9280 C   0  0  0  0  0  3  0  0  0  0  0  0
  -41.5840  -27.7830   21.7030 C   0  0  0  0  0  3  0  0  0  0  0  0
  -41.9950  -27.4360   20.2180 C   0  0  1  0  0  0  0  0  0  0  0  0
  -43.2380  -26.5190   20.1160 C   0  0  0  0  0  1  0  0  0  0  0  0
  -40.8310  -26.7380   19.4780 C   0  0  0  0  0  1  0  0  0  0  0  0
  -42.2900  -28.7410   19.4420 C   0  0  0  0  0  1  0  0  0  0  0  0
  -42.7750  -27.9460   22.5460 N   0  0  0  0  0  0  0  0  0  0  0  0
  -42.8380  -28.7270   23.6320 C   0  0  0  0  0  0  0  0  0  0  0  0
  -41.9030  -29.4470   23.9920 O   0  0  0  0  0  0  0  0  0  0  0  0
  -43.5570  -27.3360   22.3440 H   0  0  0  0  0  0  0  0  0  0  0  0
  -43.9240  -27.9080   25.7470 C   0  0  0  0  0  1  0  0  0  0  0  0
  -44.1420  -28.7080   24.4530 C   0  0  0  0  0  3  0  0  0  0  0  0
  -45.1570  -30.7810   23.6170 C   0  0  0  0  0  1  0  0  0  0  0  0
  -44.6500  -30.0570   24.7810 N   0  0  0  0  0  0  0  0  0  0  0  0
  -45.3930  -30.0100   25.4730 H   0  0  0  0  0  0  0  0  0  0  0  0
  -29.1760  -24.4560   20.9400 C   0  0  0  0  0  2  0  0  0  0  0  0
  -28.3210  -22.0800   21.3910 C   0  0  0  0  0  1  0  0  0  0  0  0
  -28.1580  -23.3580   20.5490 C   0  0  0  0  0  3  0  0  0  0  0  0
  -24.5860  -24.0970   21.7410 C   0  0  0  0  0  3  0  0  0  0  0  0
  -24.0450  -24.7580   20.6220 C   0  0  0  0  0  3  0  0  0  0  0  0
  -25.9190  -23.6470   21.7050 C   0  0  0  0  0  3  0  0  0  0  0  0
  -26.1630  -24.5310   19.4420 C   0  0  0  0  0  3  0  0  0  0  0  0
  -24.8260  -24.9850   19.4650 C   0  0  0  0  0  0  0  0  0  0  0  0
  -26.7170  -23.8600   20.5610 C   0  0  0  0  0  0  0  0  0  0  0  0
  -22.0290  -26.0070   17.2120 C   0  0  0  0  0  0  0  0  0  0  0  0
  -19.7670  -25.9310   16.2200 C   0  0  0  0  0  2  0  0  0  0  0  0
  -18.9220  -27.1510   16.6350 C   0  0  0  0  0  2  0  0  0  0  0  0
  -18.1750  -26.8450   17.9440 C   0  0  0  0  0  2  0  0  0  0  0  0
  -19.1160  -26.3000   19.0470 C   0  0  0  0  0  3  0  0  0  0  0  0
  -20.0280  -25.1660   18.5160 C   0  0  0  0  0  2  0  0  0  0  0  0
  -20.7200  -25.6390   17.3020 N   0  0  0  0  0  0  0  0  0  0  0  0
  -22.4410  -26.6940   16.2710 O   0  0  0  0  0  0  0  0  0  0  0  0
  -24.1770  -25.5980   18.2480 C   0  0  0  0  0  0  0  0  0  0  0  0
  -22.8320  -25.5010   18.1650 N   0  0  0  0  0  0  0  0  0  0  0  0
  -24.9120  -26.1030   17.3940 O   0  0  0  0  0  0  0  0  0  0  0  0
  -22.3790  -24.9670   18.8860 H   0  0  0  0  0  0  0  0  0  0  0  0
  -18.0190  -26.6240   21.3520 C   0  0  0  0  0  0  0  0  0  0  0  0
  -17.2600  -25.7910   22.1310 C   0  0  0  0  0  0  0  0  0  0  0  0
  -17.1680  -24.5580   21.4180 C   0  0  0  0  0  0  0  0  0  0  0  0
  -18.3610  -25.8850   20.2300 N   0  0  0  0  0  0  0  0  0  0  0  0
  -17.8820  -24.6160   20.3030 N   0  0  0  0  0  0  0  0  0  0  0  0
  -16.4000  -23.3390   21.7100 C   0  0  0  0  0  0  0  0  0  0  0  0
  -17.0110  -22.2030   22.2840 C   0  0  0  0  0  3  0  0  0  0  0  0
  -16.2480  -21.0500   22.5720 C   0  0  0  0  0  3  0  0  0  0  0  0
  -14.8630  -21.0260   22.2880 C   0  0  0  0  0  0  0  0  0  0  0  0
  -14.2640  -22.1520   21.6950 C   0  0  0  0  0  3  0  0  0  0  0  0
  -15.0250  -23.2970   21.4050 C   0  0  0  0  0  3  0  0  0  0  0  0
  -14.0510  -19.9370   22.5000 O   0  0  0  0  0  0  0  0  0  0  0  0
  -14.0700  -19.2470   23.6860 C   0  0  0  0  0  0  0  0  0  0  0  0
  -13.4520  -19.7510   24.8510 C   0  0  0  0  0  3  0  0  0  0  0  0
  -13.4320  -18.9770   26.0280 C   0  0  0  0  0  3  0  0  0  0  0  0
  -14.0240  -17.6980   26.0410 C   0  0  0  0  0  0  0  0  0  0  0  0
  -14.6390  -17.1950   24.8810 C   0  0  0  0  0  3  0  0  0  0  0  0
  -14.6570  -17.9650   23.7060 C   0  0  0  0  0  0  0  0  0  0  0  0
  -15.2290  -17.4650   22.5830 F   0  0  0  0  0  0  0  0  0  0  0  0
  -14.0000  -16.9520   27.1690 F   0  0  0  0  0  0  0  0  0  0  0  0
  -16.5830  -26.1470   23.4240 C   0  0  0  0  0  0  0  0  0  0  0  0
  -15.9540  -25.1740   24.0750 N   0  0  0  0  0  0  0  0  0  0  0  0
  -16.6500  -27.2830   23.8900 O   0  0  0  0  0  0  0  0  0  0  0  0
  -15.9110  -24.2380   23.7010 H   0  0  0  0  0  0  0  0  0  0  0  0
  -15.5240  -25.3660   24.9690 H   0  0  0  0  0  0  0  0  0  0  0  0
  -18.4380  -27.9440   21.5010 N   0  0  0  0  0  0  0  0  0  0  0  0
  -18.1510  -28.5150   22.2870 H   0  0  0  0  0  0  0  0  0  0  0  0
  -18.9860  -28.4510   20.8190 H   0  0  0  0  0  0  0  0  0  0  0  0
  2  1  1  0
  3  2  1  0
  4  3  1  0
  5  8  1  0
  5  4  1  0
  5  6  1  0
  7  5  1  0
  8  9  1  0
  9 10  1  0
 10 12  1  0
 11 22  2  0
 11 21  1  0
 12 17  2  0
 12 18  1  0
 13 23  1  0
 13 20  1  0
 14 20  1  0
 15 21  1  0
 16 15  1  0
 16 14  2  0
 17 16  1  0
 18 19  2  0
 19 14  1  0
 21 13  1  0
 23 24  1  0
 24 26  1  0
 25 23  2  0
 27 36  1  0
 28 32  1  0
 28 24  1  0
 29 28  1  0
 29 30  1  0
 30 31  1  0
 31 27  1  0
 32 33  1  0
 32 27  2  0
 33 34  2  0
 34 35  1  0
 36 35  2  0
 37 11  1  0
 37 42  1  0
 38 37  1  0
 38 39  1  1
 40 38  1  0
 41 38  1  0
 42 43  1  0
 43 44  2  0
 43 47  1  0
 45 42  1  0
 47 49  1  0
 47 46  1  0
 48 49  1  0
 49 50  1  0
 51  1  1  0
 53 59  1  0
 53 51  1  0
 53 52  1  0
 55 54  2  0
 56 54  1  0
 57 58  2  0
 57 59  1  0
 58 55  1  0
 59 56  2  0
 60 66  1  0
 60 69  1  0
 61 62  1  0
 61 66  1  0
 62 63  1  0
 64 63  1  0
 64 75  1  0
 65 64  1  0
 66 65  1  0
 67 60  2  0
 68 58  1  0
 69 68  1  0
 69 71  1  0
 70 68  2  0
 72 97  1  0
 72 73  2  0
 73 92  1  0
 74 77  1  0
 74 73  1  0
 75 76  1  0
 75 72  1  0
 76 74  2  0
 77 78  1  0
 78 79  2  0
 80 83  1  0
 80 79  1  0
 81 80  2  0
 82 81  1  0
 82 77  2  0
 83 84  1  0
 84 89  2  0
 84 85  1  0
 85 86  2  0
 86 87  1  0
 87 91  1  0
 88 87  2  0
 89 88  1  0
 90 89  1  0
 92 94  2  0
 92 93  1  0
 93 96  1  0
 95 93  1  0
 97 98  1  0
 99 97  1  0
M  ISO  4   9 101  10 101  60 100  69 100
M  END
>  <TORSDO>  (18) 
F 25

>  <SCORE>  (18) 
-6.538

>  <name>  (18) 
18

>  <ligand_id>  (18) 
18

>  <original_smiles>  (18) 
[H]c1c([H])c([H])c2c(c1[H])C([H])([H])C([H])([H])C([H])([H])C2([H])N([H])C(=O)C1([H])N(C(=O)C([H])(N([H])C(=O)C([H])(N([H])C([H])([H])[H])C([H])([H])[H])C(C([H])([H])[H])(C([H])([H])[H])C([H])([H])[H])C([H])([H])c2c([H])c(OC([H])([H])C([H])([H])[N+]([H])([H])C([H])([H])C([H])([H])C([H])([H])C([H])([H])C([H])([H])C([H])(c3c([H])c([H])c([H])c(C(=O)N([H])C(=O)N4C([H])([H])C([H])([H])C([H])([H])C([H])(n5nc(-c6c([H])c([H])c(Oc7c([H])c([H])c(F)c([H])c7F)c([H])c6[H])c(C(=O)N([H])[H])c5N([H])[H])C4([H])[H])c3[H])C([H])([H])[H])c([H])c([H])c2C1([H])[H]

>  <smiles>  (18) 
[H]c1c([H])c([H])c2c(c1[H])C([H])([H])C([H])([H])C([H])([H])C2([H])N([H])C(=O)C1([H])N(C(=O)C([H])(N([H])C(=O)C([H])(N([H])C([H])([H])[H])C([H])([H])[H])C(C([H])([H])[H])(C([H])([H])[H])C([H])([H])[H])C([H])([H])c2c([H])c(OC([H])([H])C([H])([H])[N+]([H])([H])C([H])([H])C([H])([H])C([H])([H])C([H])([H])C([H])([H])C([H])(c3c([H])c([H])c([H])c(C(=O)N([H])C(=O)N4C([H])([H])C([H])([H])C([H])([H])C([H])(n5nc(-c6c([H])c([H])c(Oc7c([H])c([H])c(F)c([H])c7F)c([H])c6[H])c(C(=O)N([H])[H])c5N([H])[H])C4([H])[H])c3[H])C([H])([H])[H])c([H])c([H])c2C1([H])[H]

$$$$
19:0:0
     RDKit          3D

 92 99  0  0  1  0  0  0  0  0999 V2000
  -27.5900  -22.3590   18.1990 C   0  0  0  0  0  2  0  0  0  0  0  0
  -27.9340  -23.2270   19.3410 N   0  0  0  0  0  4  0  0  0  0  0  0
  -28.7100  -22.8150   19.8380 H   0  0  0  0  0  0  0  0  0  0  0  0
  -27.1440  -23.2300   19.9680 H   0  0  0  0  0  0  0  0  0  0  0  0
  -28.2820  -24.6230   18.9970 C   0  0  0  0  0  2  0  0  0  0  0  0
  -28.2900  -25.4900   20.2710 C   0  0  0  0  0  2  0  0  0  0  0  0
  -28.3380  -26.8870   19.9890 O   0  0  0  0  0  0  0  0  0  0  0  0
  -24.5600  -31.9640   23.2120 C   0  0  0  0  0  0  0  0  0  0  0  0
  -27.1420  -27.5680   20.0340 C   0  0  0  0  0  0  0  0  0  0  0  0
  -23.3180  -30.5710   21.5910 C   0  0  0  0  0  3  0  0  0  0  0  0
  -24.7370  -29.0480   20.1270 C   0  0  0  0  0  0  0  0  0  0  0  0
  -25.8360  -30.9430   21.3320 C   0  0  0  0  0  2  0  0  0  0  0  0
  -25.9080  -29.5780   20.6810 C   0  0  0  0  0  0  0  0  0  0  0  0
  -27.1150  -28.8490   20.6240 C   0  0  0  0  0  3  0  0  0  0  0  0
  -25.9450  -27.0380   19.4980 C   0  0  0  0  0  3  0  0  0  0  0  0
  -24.7490  -27.7740   19.5360 C   0  0  0  0  0  3  0  0  0  0  0  0
  -23.4930  -29.9000   20.2040 C   0  0  0  0  0  2  0  0  0  0  0  0
  -24.5910  -31.1730   22.1030 N   0  0  0  0  0  0  0  0  0  0  0  0
  -23.4930  -32.2310   23.7790 O   0  0  0  0  0  0  0  0  0  0  0  0
  -22.6930  -29.5410   22.5590 C   0  0  0  0  0  0  0  0  0  0  0  0
  -21.3690  -29.3470   22.4500 N   0  0  0  0  0  0  0  0  0  0  0  0
  -23.3960  -28.9170   23.3590 O   0  0  0  0  0  0  0  0  0  0  0  0
  -20.8640  -29.9010   21.7730 H   0  0  0  0  0  0  0  0  0  0  0  0
  -18.0160  -28.1090   22.9730 C   0  0  0  0  0  0  0  0  0  0  0  0
  -20.5710  -28.4010   23.2290 C   0  0  0  0  0  3  0  0  0  0  0  0
  -20.6890  -26.9680   22.6590 C   0  0  0  0  0  2  0  0  0  0  0  0
  -19.5860  -26.6260   21.6530 C   0  0  0  0  0  2  0  0  0  0  0  0
  -18.2050  -26.7580   22.3040 C   0  0  0  0  0  2  0  0  0  0  0  0
  -19.1270  -28.8870   23.3920 C   0  0  0  0  0  0  0  0  0  0  0  0
  -18.8950  -30.1520   23.9760 C   0  0  0  0  0  3  0  0  0  0  0  0
  -17.5860  -30.6390   24.1440 C   0  0  0  0  0  3  0  0  0  0  0  0
  -16.4890  -29.8580   23.7430 C   0  0  0  0  0  3  0  0  0  0  0  0
  -16.7050  -28.5950   23.1620 C   0  0  0  0  0  3  0  0  0  0  0  0
  -25.8610  -32.5900   23.8040 C   0  0  0  0  0  3  0  0  0  0  0  0
  -26.4160  -31.8040   25.0550 C   0  0  1  0  0  0  0  0  0  0  0  0
  -25.3550  -31.5460   26.1510 C   0  0  0  0  0  1  0  0  0  0  0  0
  -26.9900  -30.4330   24.6240 C   0  0  0  0  0  1  0  0  0  0  0  0
  -27.5840  -32.5910   25.6950 C   0  0  0  0  0  1  0  0  0  0  0  0
  -25.5580  -33.9820   24.1590 N   0  0  0  0  0  0  0  0  0  0  0  0
  -25.8760  -35.0440   23.4060 C   0  0  0  0  0  0  0  0  0  0  0  0
  -26.5290  -34.9550   22.3630 O   0  0  0  0  0  0  0  0  0  0  0  0
  -24.9790  -34.1270   24.9730 H   0  0  0  0  0  0  0  0  0  0  0  0
  -24.1390  -36.8360   23.0970 C   0  0  0  0  0  1  0  0  0  0  0  0
  -25.3920  -36.4250   23.8880 C   0  0  0  0  0  3  0  0  0  0  0  0
  -27.5390  -37.2980   24.6950 C   0  0  0  0  0  1  0  0  0  0  0  0
  -26.4200  -37.4810   23.7730 N   0  0  0  0  0  0  0  0  0  0  0  0
  -26.0160  -38.3980   23.9430 H   0  0  0  0  0  0  0  0  0  0  0  0
  -27.4330  -20.9090   18.6780 C   0  0  0  0  0  2  0  0  0  0  0  0
  -27.3230  -19.8810   17.5430 C   0  0  0  0  0  2  0  0  0  0  0  0
  -29.1330  -18.1730   17.7850 C   0  0  0  0  0  3  0  0  0  0  0  0
  -27.8680  -18.5510   18.0150 C   0  0  0  0  0  3  0  0  0  0  0  0
  -29.7860  -16.9250   18.3260 C   0  0  0  0  0  2  0  0  0  0  0  0
  -30.8890  -17.2950   19.3360 C   0  0  0  0  0  2  0  0  0  0  0  0
  -30.4650  -17.2080   20.8240 C   0  0  0  0  0  2  0  0  0  0  0  0
  -30.8730  -14.7890   21.1490 C   0  0  0  0  0  0  0  0  0  0  0  0
  -30.7050  -12.6020   20.0730 C   0  0  0  0  0  2  0  0  0  0  0  0
  -29.9000  -12.7870   18.7710 C   0  0  0  0  0  2  0  0  0  0  0  0
  -28.3880  -12.6430   19.0430 C   0  0  0  0  0  2  0  0  0  0  0  0
  -27.9070  -13.5020   20.2440 C   0  0  0  0  0  3  0  0  0  0  0  0
  -28.8440  -13.3370   21.4630 C   0  0  0  0  0  2  0  0  0  0  0  0
  -30.2210  -13.6090   21.0230 N   0  0  0  0  0  0  0  0  0  0  0  0
  -32.0770  -14.9300   20.9280 O   0  0  0  0  0  0  0  0  0  0  0  0
  -30.0690  -15.8540   21.2200 N   0  0  0  0  0  0  0  0  0  0  0  0
  -29.0860  -15.6790   21.3690 H   0  0  0  0  0  0  0  0  0  0  0  0
  -25.4390  -14.0810   20.6950 C   0  0  0  0  0  0  0  0  0  0  0  0
  -24.3510  -13.2950   20.9640 C   0  0  0  0  0  0  0  0  0  0  0  0
  -24.8340  -11.9500   20.9990 C   0  0  0  0  0  0  0  0  0  0  0  0
  -26.5160  -13.2140   20.5860 N   0  0  0  0  0  0  0  0  0  0  0  0
  -26.1490  -11.9290   20.8260 N   0  0  0  0  0  0  0  0  0  0  0  0
  -24.1130  -10.6780   21.1310 C   0  0  0  0  0  0  0  0  0  0  0  0
  -24.4920   -9.7110   22.0880 C   0  0  0  0  0  3  0  0  0  0  0  0
  -23.7730   -8.5030   22.2070 C   0  0  0  0  0  3  0  0  0  0  0  0
  -22.6620   -8.2520   21.3660 C   0  0  0  0  0  0  0  0  0  0  0  0
  -22.3050   -9.2080   20.3990 C   0  0  0  0  0  3  0  0  0  0  0  0
  -23.0260  -10.4080   20.2780 C   0  0  0  0  0  3  0  0  0  0  0  0
  -21.9220   -7.0950   21.3920 O   0  0  0  0  0  0  0  0  0  0  0  0
  -21.8190   -6.3310   22.5270 C   0  0  0  0  0  0  0  0  0  0  0  0
  -21.3430   -6.8650   23.7440 C   0  0  0  0  0  3  0  0  0  0  0  0
  -21.1880   -6.0290   24.8670 C   0  0  0  0  0  3  0  0  0  0  0  0
  -21.4980   -4.6580   24.7740 C   0  0  0  0  0  0  0  0  0  0  0  0
  -21.9680   -4.1240   23.5610 C   0  0  0  0  0  3  0  0  0  0  0  0
  -22.1240   -4.9580   22.4400 C   0  0  0  0  0  0  0  0  0  0  0  0
  -22.5560   -4.4330   21.2670 F   0  0  0  0  0  0  0  0  0  0  0  0
  -21.3430   -3.8530   25.8500 F   0  0  0  0  0  0  0  0  0  0  0  0
  -22.9250  -13.7500   21.0880 C   0  0  0  0  0  0  0  0  0  0  0  0
  -22.1270  -13.0550   21.8910 N   0  0  0  0  0  0  0  0  0  0  0  0
  -22.5230  -14.7580   20.5070 O   0  0  0  0  0  0  0  0  0  0  0  0
  -22.4640  -12.2410   22.3820 H   0  0  0  0  0  0  0  0  0  0  0  0
  -21.1670  -13.3430   22.0190 H   0  0  0  0  0  0  0  0  0  0  0  0
  -25.5970  -15.4510   20.5170 N   0  0  0  0  0  0  0  0  0  0  0  0
  -24.8110  -16.0910   20.5380 H   0  0  0  0  0  0  0  0  0  0  0  0
  -26.4680  -15.9020   20.2660 H   0  0  0  0  0  0  0  0  0  0  0  0
  1 48  1  0
  1  2  1  0
  2  3  1  0
  2  4  1  0
  5  2  1  0
  5  6  1  0
  7  9  1  0
  7  6  1  0
  8 19  2  0
  9 14  1  0
 10 18  1  0
 10 20  1  0
 11 17  1  0
 11 13  1  0
 12 18  1  0
 13 12  1  0
 14 13  2  0
 15 16  1  0
 15  9  2  0
 16 11  2  0
 17 10  1  0
 18  8  1  0
 20 22  2  0
 21 20  1  0
 23 21  1  0
 24 33  2  0
 24 29  1  0
 25 21  1  0
 25 29  1  0
 26 25  1  0
 27 28  1  0
 27 26  1  0
 28 24  1  0
 29 30  2  0
 30 31  1  0
 32 31  2  0
 33 32  1  0
 34  8  1  0
 34 39  1  0
 34 35  1  0
 35 38  1  1
 35 36  1  0
 37 35  1  0
 39 42  1  0
 40 44  1  0
 40 39  1  0
 41 40  2  0
 44 43  1  0
 46 44  1  0
 46 47  1  0
 46 45  1  0
 49 51  1  0
 49 48  1  0
 50 51  2  0
 50 52  1  0
 52 53  1  0
 53 54  1  0
 54 63  1  0
 55 63  1  0
 56 61  1  0
 57 58  1  0
 57 56  1  0
 59 58  1  0
 59 68  1  0
 59 60  1  0
 61 55  1  0
 61 60  1  0
 62 55  2  0
 63 64  1  0
 65 66  2  0
 66 67  1  0
 66 85  1  0
 67 70  1  0
 68 65  1  0
 68 69  1  0
 69 67  2  0
 70 71  1  0
 71 72  2  0
 73 76  1  0
 73 72  1  0
 74 73  2  0
 75 74  1  0
 75 70  2  0
 76 77  1  0
 77 78  1  0
 78 79  2  0
 80 79  1  0
 80 84  1  0
 81 80  2  0
 82 77  2  0
 82 81  1  0
 83 82  1  0
 85 86  1  0
 86 89  1  0
 86 88  1  0
 87 85  2  0
 90 91  1  0
 90 65  1  0
 92 90  1  0
M  ISO  4   6 101   7 101  55 100  63 100
M  END
>  <TORSDO>  (19) 
F 25

>  <SCORE>  (19) 
-11.765

>  <name>  (19) 
19

>  <ligand_id>  (19) 
19

>  <original_smiles>  (19) 
[H]C(=C([H])C([H])([H])C([H])([H])C([H])([H])[N+]([H])([H])C([H])([H])C([H])([H])Oc1c([H])c([H])c2c(c1[H])C([H])([H])N(C(=O)C([H])(N([H])C(=O)C([H])(N([H])C([H])([H])[H])C([H])([H])[H])C(C([H])([H])[H])(C([H])([H])[H])C([H])([H])[H])C([H])(C(=O)N([H])C1([H])c3c([H])c([H])c([H])c([H])c3C([H])([H])C([H])([H])C1([H])[H])C2([H])[H])C([H])([H])C([H])([H])C([H])([H])N([H])C(=O)N1C([H])([H])C([H])([H])C([H])([H])C([H])(n2nc(-c3c([H])c([H])c(Oc4c([H])c([H])c(F)c([H])c4F)c([H])c3[H])c(C(=O)N([H])[H])c2N([H])[H])C1([H])[H]

>  <smiles>  (19) 
[H]C(=C([H])C([H])([H])C([H])([H])C([H])([H])[N+]([H])([H])C([H])([H])C([H])([H])Oc1c([H])c([H])c2c(c1[H])C([H])([H])N(C(=O)C([H])(N([H])C(=O)C([H])(N([H])C([H])([H])[H])C([H])([H])[H])C(C([H])([H])[H])(C([H])([H])[H])C([H])([H])[H])C([H])(C(=O)N([H])C1([H])c3c([H])c([H])c([H])c([H])c3C([H])([H])C([H])([H])C1([H])[H])C2([H])[H])C([H])([H])C([H])([H])C([H])([H])N([H])C(=O)N1C([H])([H])C([H])([H])C([H])([H])C([H])(n2nc(-c3c([H])c([H])c(Oc4c([H])c([H])c(F)c([H])c4F)c([H])c3[H])c(C(=O)N([H])[H])c2N([H])[H])C1([H])[H]

$$$$
20:0:0
     RDKit          3D

101109  0  0  1  0  0  0  0  0999 V2000
  -33.6350  -25.9530   19.7320 C   0  0  0  0  0  3  0  0  0  0  0  0
  -35.3740  -24.2430   19.7230 C   0  0  0  0  0  3  0  0  0  0  0  0
  -33.0390  -23.6010   19.4810 C   0  0  0  0  0  3  0  0  0  0  0  0
  -35.0030  -25.6040   19.8380 C   0  0  0  0  0  0  0  0  0  0  0  0
  -32.6560  -24.9550   19.5560 C   0  0  0  0  0  0  0  0  0  0  0  0
  -34.3990  -23.2350   19.5570 C   0  0  0  0  0  0  0  0  0  0  0  0
  -36.0530  -26.6370   20.0730 C   0  0  0  0  0  0  0  0  0  0  0  0
  -35.6030  -28.0030   20.5850 C   0  0  0  0  0  1  0  0  0  0  0  0
  -37.2600  -26.4280   19.9130 O   0  0  0  0  0  0  0  0  0  0  0  0
  -31.1830  -25.3170   19.5040 C   0  0  0  0  0  2  0  0  0  0  0  0
  -30.6130  -25.7900   20.8580 C   0  0  0  0  0  2  0  0  0  0  0  0
  -30.1890  -27.2700   20.8470 C   0  0  0  0  0  2  0  0  0  0  0  0
  -31.0530  -28.1880   21.7350 C   0  0  0  0  0  2  0  0  0  0  0  0
  -30.6640  -30.3180   22.9120 C   0  0  0  0  0  0  0  0  0  0  0  0
  -30.6590  -31.9070   24.7920 C   0  0  0  0  0  2  0  0  0  0  0  0
  -31.3310  -31.2440   26.0100 C   0  0  0  0  0  2  0  0  0  0  0  0
  -30.3190  -30.4140   26.8230 C   0  0  0  0  0  2  0  0  0  0  0  0
  -29.4610  -29.4750   25.9340 C   0  0  0  0  0  3  0  0  0  0  0  0
  -28.8990  -30.2320   24.7080 C   0  0  0  0  0  2  0  0  0  0  0  0
  -30.0320  -30.8450   23.9930 N   0  0  0  0  0  0  0  0  0  0  0  0
  -31.6450  -30.8400   22.3750 O   0  0  0  0  0  0  0  0  0  0  0  0
  -30.2520  -29.0960   22.5510 N   0  0  0  0  0  0  0  0  0  0  0  0
  -29.4460  -28.7220   23.0300 H   0  0  0  0  0  0  0  0  0  0  0  0
  -27.5950  -27.7530   26.3660 C   0  0  0  0  0  0  0  0  0  0  0  0
  -26.8070  -27.5140   27.4600 C   0  0  0  0  0  0  0  0  0  0  0  0
  -27.1830  -28.4870   28.4360 C   0  0  0  0  0  0  0  0  0  0  0  0
  -28.3960  -28.8340   26.7020 N   0  0  0  0  0  0  0  0  0  0  0  0
  -28.1020  -29.3060   27.9410 N   0  0  0  0  0  0  0  0  0  0  0  0
  -26.7650  -28.6500   29.8340 C   0  0  0  0  0  0  0  0  0  0  0  0
  -25.5820  -29.3410   30.1730 C   0  0  0  0  0  3  0  0  0  0  0  0
  -25.1900  -29.4700   31.5230 C   0  0  0  0  0  3  0  0  0  0  0  0
  -25.9820  -28.9020   32.5500 C   0  0  0  0  0  0  0  0  0  0  0  0
  -27.1700  -28.2330   32.2080 C   0  0  0  0  0  3  0  0  0  0  0  0
  -27.5620  -28.1100   30.8640 C   0  0  0  0  0  3  0  0  0  0  0  0
  -25.6920  -28.9960   33.8900 O   0  0  0  0  0  0  0  0  0  0  0  0
  -24.4380  -28.7290   34.3770 C   0  0  0  0  0  0  0  0  0  0  0  0
  -23.8950  -27.4260   34.3610 C   0  0  0  0  0  3  0  0  0  0  0  0
  -22.6330  -27.1830   34.9350 C   0  0  0  0  0  3  0  0  0  0  0  0
  -21.9170  -28.2370   35.5350 C   0  0  0  0  0  0  0  0  0  0  0  0
  -22.4580  -29.5330   35.5570 C   0  0  0  0  0  3  0  0  0  0  0  0
  -23.7180  -29.7770   34.9830 C   0  0  0  0  0  0  0  0  0  0  0  0
  -24.2450  -31.0250   35.0270 F   0  0  0  0  0  0  0  0  0  0  0  0
  -20.7070  -28.0020   36.0950 F   0  0  0  0  0  0  0  0  0  0  0  0
  -25.8290  -26.3870   27.6310 C   0  0  0  0  0  0  0  0  0  0  0  0
  -24.5500  -26.7070   27.7960 N   0  0  0  0  0  0  0  0  0  0  0  0
  -26.1890  -25.2120   27.5690 O   0  0  0  0  0  0  0  0  0  0  0  0
  -24.2510  -27.6710   27.8240 H   0  0  0  0  0  0  0  0  0  0  0  0
  -23.8600  -25.9780   27.9020 H   0  0  0  0  0  0  0  0  0  0  0  0
  -27.7130  -27.1330   25.1260 N   0  0  0  0  0  0  0  0  0  0  0  0
  -27.1730  -26.3120   24.8760 H   0  0  0  0  0  0  0  0  0  0  0  0
  -28.3830  -27.3940   24.4130 H   0  0  0  0  0  0  0  0  0  0  0  0
  -34.8210  -21.7700   19.5490 C   0  0  0  0  0  2  0  0  0  0  0  0
  -33.6840  -20.7570   19.2580 C   0  0  0  0  0  2  0  0  0  0  0  0
  -35.3540  -19.0000   20.0820 C   0  0  0  0  0  1  0  0  0  0  0  0
  -33.8680  -19.3580   19.8950 C   0  0  0  0  0  3  0  0  0  0  0  0
  -33.0980  -19.1830   21.1570 N   0  0  0  0  0  4  0  0  0  0  0  0
  -32.8170  -18.2150   21.2080 H   0  0  0  0  0  0  0  0  0  0  0  0
  -33.7040  -19.3550   21.9460 H   0  0  0  0  0  0  0  0  0  0  0  0
  -31.8710  -20.0200   21.2650 C   0  0  0  0  0  2  0  0  0  0  0  0
  -30.5600  -19.2160   21.0960 C   0  0  0  0  0  2  0  0  0  0  0  0
  -29.5360  -20.0320   20.5200 O   0  0  0  0  0  0  0  0  0  0  0  0
  -32.3120  -18.6510   14.1170 C   0  0  0  0  0  0  0  0  0  0  0  0
  -29.7670  -20.4490   19.2300 C   0  0  0  0  0  0  0  0  0  0  0  0
  -31.6300  -20.9980   14.5190 C   0  0  0  0  0  3  0  0  0  0  0  0
  -30.2400  -21.3990   16.6180 C   0  0  0  0  0  0  0  0  0  0  0  0
  -30.4540  -19.0730   15.7180 C   0  0  0  0  0  2  0  0  0  0  0  0
  -30.2200  -20.0210   16.8710 C   0  0  0  0  0  0  0  0  0  0  0  0
  -29.9810  -19.5390   18.1720 C   0  0  0  0  0  3  0  0  0  0  0  0
  -29.7720  -21.8330   18.9650 C   0  0  0  0  0  3  0  0  0  0  0  0
  -30.0170  -22.3140   17.6640 C   0  0  0  0  0  3  0  0  0  0  0  0
  -30.4990  -21.8240   15.1900 C   0  0  0  0  0  2  0  0  0  0  0  0
  -31.5070  -19.5260   14.7840 N   0  0  0  0  0  0  0  0  0  0  0  0
  -33.1110  -19.0470   13.2580 O   0  0  0  0  0  0  0  0  0  0  0  0
  -32.9900  -21.5880   14.9510 C   0  0  0  0  0  0  0  0  0  0  0  0
  -33.3110  -22.7870   14.4370 N   0  0  0  0  0  0  0  0  0  0  0  0
  -33.7110  -20.9910   15.7550 O   0  0  0  0  0  0  0  0  0  0  0  0
  -32.6650  -23.2080   13.7850 H   0  0  0  0  0  0  0  0  0  0  0  0
  -35.0050  -25.9080   13.7810 C   0  0  0  0  0  0  0  0  0  0  0  0
  -34.5210  -23.5530   14.7300 C   0  0  0  0  0  3  0  0  0  0  0  0
  -34.4190  -24.2410   16.1120 C   0  0  0  0  0  2  0  0  0  0  0  0
  -33.8760  -25.6710   16.0340 C   0  0  0  0  0  2  0  0  0  0  0  0
  -34.7700  -26.5390   15.1440 C   0  0  0  0  0  2  0  0  0  0  0  0
  -34.8720  -24.5080   13.5840 C   0  0  0  0  0  0  0  0  0  0  0  0
  -35.0630  -23.9780   12.2900 C   0  0  0  0  0  3  0  0  0  0  0  0
  -35.3880  -24.8190   11.2080 C   0  0  0  0  0  3  0  0  0  0  0  0
  -35.5340  -26.2020   11.4120 C   0  0  0  0  0  3  0  0  0  0  0  0
  -35.3460  -26.7430   12.6970 C   0  0  0  0  0  3  0  0  0  0  0  0
  -32.2520  -17.1140   14.3840 C   0  0  0  0  0  3  0  0  0  0  0  0
  -32.4370  -16.4350   13.0940 N   0  0  0  0  0  0  0  0  0  0  0  0
  -31.4390  -16.0750   12.2760 C   0  0  0  0  0  0  0  0  0  0  0  0
  -30.2480  -16.2150   12.5680 O   0  0  0  0  0  0  0  0  0  0  0  0
  -33.3870  -16.3360   12.7650 H   0  0  0  0  0  0  0  0  0  0  0  0
  -30.9650  -16.0830    9.8080 C   0  0  0  0  0  1  0  0  0  0  0  0
  -31.8230  -15.4570   10.9180 C   0  0  0  0  0  3  0  0  0  0  0  0
  -32.6990  -13.2950   11.6810 C   0  0  0  0  0  1  0  0  0  0  0  0
  -31.6900  -13.9850   10.8810 N   0  0  0  0  0  0  0  0  0  0  0  0
  -31.7530  -13.6430    9.9260 H   0  0  0  0  0  0  0  0  0  0  0  0
  -33.3200  -16.6210   15.4350 C   0  0  1  0  0  0  0  0  0  0  0  0
  -34.6880  -16.2660   14.8090 C   0  0  0  0  0  1  0  0  0  0  0  0
  -33.5560  -17.7000   16.5160 C   0  0  0  0  0  1  0  0  0  0  0  0
  -32.7900  -15.3680   16.1710 C   0  0  0  0  0  1  0  0  0  0  0  0
  1  4  1  0
  2  4  2  0
  3  5  1  0
  3  6  2  0
  4  7  1  0
  5  1  2  0
  6  2  1  0
  7  8  1  0
  9  7  2  0
 10  5  1  0
 10 11  1  0
 12 11  1  0
 12 13  1  0
 13 22  1  0
 14 20  1  0
 15 16  1  0
 16 17  1  0
 18 19  1  0
 18 27  1  0
 18 17  1  0
 20 19  1  0
 20 15  1  0
 21 14  2  0
 22 14  1  0
 22 23  1  0
 24 27  1  0
 24 25  2  0
 25 44  1  0
 25 26  1  0
 26 29  1  0
 27 28  1  0
 28 26  2  0
 29 30  2  0
 29 34  1  0
 30 31  1  0
 31 32  2  0
 32 35  1  0
 33 32  1  0
 34 33  2  0
 35 36  1  0
 36 41  1  0
 37 36  2  0
 37 38  1  0
 38 39  2  0
 39 40  1  0
 39 43  1  0
 41 42  1  0
 41 40  2  0
 44 45  1  0
 45 47  1  0
 45 48  1  0
 46 44  2  0
 49 24  1  0
 50 49  1  0
 51 49  1  0
 52  6  1  0
 53 52  1  0
 53 55  1  0
 55 54  1  0
 55 56  1  0
 56 57  1  0
 56 59  1  0
 56 58  1  0
 60 59  1  0
 61 60  1  0
 62 72  1  0
 63 61  1  0
 64 72  1  0
 64 74  1  0
 64 71  1  0
 65 67  2  0
 65 70  1  0
 66 67  1  0
 67 68  1  0
 68 63  2  0
 69 63  1  0
 70 69  2  0
 71 65  1  0
 72 66  1  0
 73 62  2  0
 74 76  2  0
 75 74  1  0
 77 75  1  0
 78 82  1  0
 79 75  1  0
 79 80  1  0
 81 80  1  0
 82 81  1  0
 83 78  1  0
 83 79  1  0
 84 83  2  0
 85 86  2  0
 85 84  1  0
 86 87  1  0
 87 78  2  0
 88 62  1  0
 88 98  1  0
 89 88  1  0
 90 91  2  0
 90 89  1  0
 92 89  1  0
 94 93  1  0
 94 90  1  0
 96 94  1  0
 96 95  1  0
 97 96  1  0
 98101  1  1
 98100  1  0
 99 98  1  0
M  ISO  4  14 100  22 100  60 101  61 101
M  END
>  <TORSDO>  (20) 
F 27

>  <SCORE>  (20) 
-4.859

>  <name>  (20) 
20

>  <ligand_id>  (20) 
20

>  <original_smiles>  (20) 
[H]c1c([H])c([H])c2c(c1[H])C([H])([H])C([H])([H])C([H])([H])C2([H])N([H])C(=O)C1([H])N(C(=O)C([H])(N([H])C(=O)C([H])(N([H])C([H])([H])[H])C([H])([H])[H])C(C([H])([H])[H])(C([H])([H])[H])C([H])([H])[H])C([H])([H])c2c([H])c(OC([H])([H])C([H])([H])[N+]([H])([H])C([H])(C([H])([H])[H])C([H])([H])C([H])([H])c3c([H])c(C(=O)C([H])([H])[H])c([H])c(C([H])([H])C([H])([H])C([H])([H])C([H])([H])N([H])C(=O)N4C([H])([H])C([H])([H])C([H])([H])C([H])(n5nc(-c6c([H])c([H])c(Oc7c([H])c([H])c(F)c([H])c7F)c([H])c6[H])c(C(=O)N([H])[H])c5N([H])[H])C4([H])[H])c3[H])c([H])c([H])c2C1([H])[H]

>  <smiles>  (20) 
[H]c1c([H])c([H])c2c(c1[H])C([H])([H])C([H])([H])C([H])([H])C2([H])N([H])C(=O)C1([H])N(C(=O)C([H])(N([H])C(=O)C([H])(N([H])C([H])([H])[H])C([H])([H])[H])C(C([H])([H])[H])(C([H])([H])[H])C([H])([H])[H])C([H])([H])c2c([H])c(OC([H])([H])C([H])([H])[N+]([H])([H])C([H])(C([H])([H])[H])C([H])([H])C([H])([H])c3c([H])c(C(=O)C([H])([H])[H])c([H])c(C([H])([H])C([H])([H])C([H])([H])C([H])([H])N([H])C(=O)N4C([H])([H])C([H])([H])C([H])([H])C([H])(n5nc(-c6c([H])c([H])c(Oc7c([H])c([H])c(F)c([H])c7F)c([H])c6[H])c(C(=O)N([H])[H])c5N([H])[H])C4([H])[H])c3[H])c([H])c([H])c2C1([H])[H]

$$$$
21:0:0
     RDKit          3D

 96104  0  0  1  0  0  0  0  0999 V2000
  -28.4540  -20.6870   20.9240 C   0  0  0  0  0  3  0  0  0  0  0  0
  -30.6050  -21.2870   21.9010 C   0  0  0  0  0  3  0  0  0  0  0  0
  -28.0450  -22.0340   20.9990 C   0  0  0  0  0  3  0  0  0  0  0  0
  -30.2050  -22.6360   21.9560 C   0  0  0  0  0  3  0  0  0  0  0  0
  -29.7450  -20.3080   21.3580 C   0  0  0  0  0  0  0  0  0  0  0  0
  -28.9250  -23.0180   21.5020 C   0  0  0  0  0  0  0  0  0  0  0  0
  -30.1880  -18.8910   21.3110 C   0  0  0  0  0  0  0  0  0  0  0  0
  -30.5650  -18.2680   22.3080 O   0  0  0  0  0  0  0  0  0  0  0  0
  -30.2400  -18.2240   19.9310 C   0  0  0  0  0  2  0  0  0  0  0  0
  -31.6550  -17.7600   19.5210 C   0  0  0  0  0  2  0  0  0  0  0  0
  -32.2850  -16.6560   20.3940 C   0  0  0  0  0  2  0  0  0  0  0  0
  -31.9160  -14.3620   19.4690 C   0  0  0  0  0  0  0  0  0  0  0  0
  -31.4770  -12.0020   18.8910 C   0  0  0  0  0  2  0  0  0  0  0  0
  -30.4550  -11.8670   17.7480 C   0  0  0  0  0  2  0  0  0  0  0  0
  -29.0170  -11.8810   18.2960 C   0  0  0  0  0  2  0  0  0  0  0  0
  -28.7630  -13.0630   19.2660 C   0  0  0  0  0  3  0  0  0  0  0  0
  -29.8780  -13.1500   20.3290 C   0  0  0  0  0  2  0  0  0  0  0  0
  -31.1810  -13.2340   19.6380 N   0  0  0  0  0  0  0  0  0  0  0  0
  -32.8630  -14.4480   18.6790 O   0  0  0  0  0  0  0  0  0  0  0  0
  -31.5900  -15.3750   20.2800 N   0  0  0  0  0  0  0  0  0  0  0  0
  -30.8310  -15.2090   20.9260 H   0  0  0  0  0  0  0  0  0  0  0  0
  -26.5830  -13.9840   20.2840 C   0  0  0  0  0  0  0  0  0  0  0  0
  -25.4460  -13.3620   20.7280 C   0  0  0  0  0  0  0  0  0  0  0  0
  -25.6710  -11.9610   20.5550 C   0  0  0  0  0  0  0  0  0  0  0  0
  -27.4390  -12.9710   19.8790 N   0  0  0  0  0  0  0  0  0  0  0  0
  -26.8960  -11.7450   20.0930 N   0  0  0  0  0  0  0  0  0  0  0  0
  -24.7700  -10.8180   20.7500 C   0  0  0  0  0  0  0  0  0  0  0  0
  -25.0900   -9.7670   21.6390 C   0  0  0  0  0  3  0  0  0  0  0  0
  -24.2000   -8.6880   21.8220 C   0  0  0  0  0  3  0  0  0  0  0  0
  -22.9730   -8.6520   21.1170 C   0  0  0  0  0  0  0  0  0  0  0  0
  -22.6690   -9.6890   20.2180 C   0  0  0  0  0  3  0  0  0  0  0  0
  -23.5580  -10.7600   20.0320 C   0  0  0  0  0  3  0  0  0  0  0  0
  -22.0580   -7.6310   21.2130 O   0  0  0  0  0  0  0  0  0  0  0  0
  -21.8820   -6.9290   22.3780 C   0  0  0  0  0  0  0  0  0  0  0  0
  -21.5060   -7.5640   23.5810 C   0  0  0  0  0  3  0  0  0  0  0  0
  -21.2680   -6.7960   24.7380 C   0  0  0  0  0  3  0  0  0  0  0  0
  -21.3980   -5.3950   24.6930 C   0  0  0  0  0  0  0  0  0  0  0  0
  -21.7680   -4.7600   23.4940 C   0  0  0  0  0  3  0  0  0  0  0  0
  -22.0070   -5.5260   22.3400 C   0  0  0  0  0  0  0  0  0  0  0  0
  -22.3430   -4.9070   21.1810 F   0  0  0  0  0  0  0  0  0  0  0  0
  -21.1620   -4.6560   25.8030 F   0  0  0  0  0  0  0  0  0  0  0  0
  -24.1860  -14.0290   21.1960 C   0  0  0  0  0  0  0  0  0  0  0  0
  -23.4640  -13.3990   22.1170 N   0  0  0  0  0  0  0  0  0  0  0  0
  -23.8580  -15.1400   20.7810 O   0  0  0  0  0  0  0  0  0  0  0  0
  -23.7430  -12.4960   22.4720 H   0  0  0  0  0  0  0  0  0  0  0  0
  -22.6210  -13.8280   22.4740 H   0  0  0  0  0  0  0  0  0  0  0  0
  -26.9530  -15.3210   20.1750 N   0  0  0  0  0  0  0  0  0  0  0  0
  -26.3240  -16.0790   20.4130 H   0  0  0  0  0  0  0  0  0  0  0  0
  -27.8270  -15.6400   19.7760 H   0  0  0  0  0  0  0  0  0  0  0  0
  -28.4930  -24.4770   21.5890 C   0  0  0  0  0  2  0  0  0  0  0  0
  -29.1010  -25.3120   20.5320 N   0  0  0  0  0  4  0  0  0  0  0  0
  -30.0470  -25.0010   20.3730 H   0  0  0  0  0  0  0  0  0  0  0  0
  -29.1580  -26.2460   20.9090 H   0  0  0  0  0  0  0  0  0  0  0  0
  -28.3380  -25.3610   19.2610 C   0  0  0  0  0  2  0  0  0  0  0  0
  -28.7810  -26.5140   18.3360 C   0  0  0  0  0  2  0  0  0  0  0  0
  -27.7690  -26.7580   17.3590 O   0  0  0  0  0  0  0  0  0  0  0  0
  -24.8550  -30.7810   22.4690 C   0  0  0  0  0  0  0  0  0  0  0  0
  -26.6660  -27.4190   17.8380 C   0  0  0  0  0  0  0  0  0  0  0  0
  -23.2870  -29.8120   20.8190 C   0  0  0  0  0  3  0  0  0  0  0  0
  -24.3590  -28.7460   18.7630 C   0  0  0  0  0  0  0  0  0  0  0  0
  -25.7100  -30.3040   20.1800 C   0  0  0  0  0  2  0  0  0  0  0  0
  -25.6250  -29.1460   19.2090 C   0  0  0  0  0  0  0  0  0  0  0  0
  -26.7820  -28.4850   18.7540 C   0  0  0  0  0  3  0  0  0  0  0  0
  -25.3890  -27.0310   17.3820 C   0  0  0  0  0  3  0  0  0  0  0  0
  -24.2330  -27.6830   17.8510 C   0  0  0  0  0  3  0  0  0  0  0  0
  -23.1720  -29.5170   19.2980 C   0  0  0  0  0  2  0  0  0  0  0  0
  -24.6480  -30.2980   21.2100 N   0  0  0  0  0  0  0  0  0  0  0  0
  -23.9270  -30.8670   23.2830 O   0  0  0  0  0  0  0  0  0  0  0  0
  -22.8360  -28.5570   21.5970 C   0  0  0  0  0  0  0  0  0  0  0  0
  -21.5220  -28.2820   21.5790 N   0  0  0  0  0  0  0  0  0  0  0  0
  -23.6600  -27.8390   22.1720 O   0  0  0  0  0  0  0  0  0  0  0  0
  -20.9130  -28.9250   21.0960 H   0  0  0  0  0  0  0  0  0  0  0  0
  -18.3590  -26.5810   21.9730 C   0  0  0  0  0  0  0  0  0  0  0  0
  -20.8740  -27.1320   22.2090 C   0  0  0  0  0  3  0  0  0  0  0  0
  -21.1300  -25.8380   21.4010 C   0  0  0  0  0  2  0  0  0  0  0  0
  -20.0270  -25.5370   20.3810 C   0  0  0  0  0  2  0  0  0  0  0  0
  -18.6720  -25.3910   21.0810 C   0  0  0  0  0  2  0  0  0  0  0  0
  -19.3930  -27.4080   22.4890 C   0  0  0  0  0  0  0  0  0  0  0  0
  -19.0470  -28.5200   23.2840 C   0  0  0  0  0  3  0  0  0  0  0  0
  -17.7000  -28.8100   23.5680 C   0  0  0  0  0  3  0  0  0  0  0  0
  -16.6810  -27.9800   23.0690 C   0  0  0  0  0  3  0  0  0  0  0  0
  -17.0130  -26.8660   22.2780 C   0  0  0  0  0  3  0  0  0  0  0  0
  -26.2630  -31.2670   22.9360 C   0  0  0  0  0  3  0  0  0  0  0  0
  -26.0640  -32.4580   23.7720 N   0  0  0  0  0  0  0  0  0  0  0  0
  -26.3060  -33.7150   23.3730 C   0  0  0  0  0  0  0  0  0  0  0  0
  -26.7910  -33.9870   22.2720 O   0  0  0  0  0  0  0  0  0  0  0  0
  -25.6140  -32.3150   24.6630 H   0  0  0  0  0  0  0  0  0  0  0  0
  -24.6270  -35.5060   23.9140 C   0  0  0  0  0  1  0  0  0  0  0  0
  -25.9470  -34.8500   24.3510 C   0  0  0  0  0  3  0  0  0  0  0  0
  -28.2080  -35.3930   25.1290 C   0  0  0  0  0  1  0  0  0  0  0  0
  -27.0010  -35.8790   24.4670 N   0  0  0  0  0  0  0  0  0  0  0  0
  -26.6630  -36.6900   24.9790 H   0  0  0  0  0  0  0  0  0  0  0  0
  -27.0760  -30.1640   23.7190 C   0  0  1  0  0  0  0  0  0  0  0  0
  -26.2840  -29.5160   24.8800 C   0  0  0  0  0  1  0  0  0  0  0  0
  -27.5200  -29.0340   22.7600 C   0  0  0  0  0  1  0  0  0  0  0  0
  -28.3670  -30.7800   24.3050 C   0  0  0  0  0  1  0  0  0  0  0  0
  1  3  2  0
  1  5  1  0
  2  4  1  0
  3  6  1  0
  5  2  2  0
  6 50  1  0
  6  4  2  0
  7  5  1  0
  7  8  2  0
  9  7  1  0
 10  9  1  0
 10 11  1  0
 12 18  1  0
 12 20  1  0
 13 18  1  0
 14 15  1  0
 14 13  1  0
 16 15  1  0
 16 25  1  0
 16 17  1  0
 18 17  1  0
 19 12  2  0
 20 11  1  0
 20 21  1  0
 22 23  2  0
 23 42  1  0
 24 23  1  0
 24 27  1  0
 25 26  1  0
 25 22  1  0
 26 24  2  0
 27 28  1  0
 28 29  2  0
 30 33  1  0
 30 29  1  0
 31 30  2  0
 32 31  1  0
 32 27  2  0
 33 34  1  0
 34 35  1  0
 35 36  2  0
 37 36  1  0
 37 41  1  0
 38 37  2  0
 39 34  2  0
 39 38  1  0
 40 39  1  0
 42 43  1  0
 43 45  1  0
 43 46  1  0
 44 42  2  0
 47 22  1  0
 47 48  1  0
 49 47  1  0
 51 53  1  0
 51 50  1  0
 52 51  1  0
 54 51  1  0
 55 54  1  0
 56 58  1  0
 56 55  1  0
 57 68  2  0
 58 63  1  0
 59 67  1  0
 59 69  1  0
 60 62  1  0
 60 66  1  0
 61 67  1  0
 62 61  1  0
 63 62  2  0
 64 58  2  0
 64 65  1  0
 65 60  2  0
 66 59  1  0
 67 57  1  0
 69 71  2  0
 70 69  1  0
 72 70  1  0
 73 82  2  0
 73 78  1  0
 74 70  1  0
 74 78  1  0
 75 74  1  0
 76 77  1  0
 76 75  1  0
 77 73  1  0
 78 79  2  0
 79 80  1  0
 81 80  2  0
 82 81  1  0
 83 57  1  0
 83 93  1  0
 83 84  1  0
 84 87  1  0
 85 84  1  0
 85 89  1  0
 86 85  2  0
 89 88  1  0
 89 91  1  0
 91 92  1  0
 91 90  1  0
 93 96  1  1
 93 94  1  0
 95 93  1  0
M  ISO  4  12 100  20 100  55 101  56 101
M  END
>  <TORSDO>  (21) 
F 24

>  <SCORE>  (21) 
-8.636

>  <name>  (21) 
21

>  <ligand_id>  (21) 
21

>  <original_smiles>  (21) 
[H]c1c([H])c([H])c2c(c1[H])C([H])([H])C([H])([H])C([H])([H])C2([H])N([H])C(=O)C1([H])N(C(=O)C([H])(N([H])C(=O)C([H])(N([H])C([H])([H])[H])C([H])([H])[H])C(C([H])([H])[H])(C([H])([H])[H])C([H])([H])[H])C([H])([H])c2c([H])c(OC([H])([H])C([H])([H])[N+]([H])([H])C([H])([H])c3c([H])c([H])c(C(=O)C([H])([H])C([H])([H])C([H])([H])N([H])C(=O)N4C([H])([H])C([H])([H])C([H])([H])C([H])(n5nc(-c6c([H])c([H])c(Oc7c([H])c([H])c(F)c([H])c7F)c([H])c6[H])c(C(=O)N([H])[H])c5N([H])[H])C4([H])[H])c([H])c3[H])c([H])c([H])c2C1([H])[H]

>  <smiles>  (21) 
[H]c1c([H])c([H])c2c(c1[H])C([H])([H])C([H])([H])C([H])([H])C2([H])N([H])C(=O)C1([H])N(C(=O)C([H])(N([H])C(=O)C([H])(N([H])C([H])([H])[H])C([H])([H])[H])C(C([H])([H])[H])(C([H])([H])[H])C([H])([H])[H])C([H])([H])c2c([H])c(OC([H])([H])C([H])([H])[N+]([H])([H])C([H])([H])c3c([H])c([H])c(C(=O)C([H])([H])C([H])([H])C([H])([H])N([H])C(=O)N4C([H])([H])C([H])([H])C([H])([H])C([H])(n5nc(-c6c([H])c([H])c(Oc7c([H])c([H])c(F)c([H])c7F)c([H])c6[H])c(C(=O)N([H])[H])c5N([H])[H])C4([H])[H])c([H])c3[H])c([H])c([H])c2C1([H])[H]

$$$$
22:0:0
     RDKit          3D

 97 98  0  0  1  0  0  0  0  0999 V2000
  -19.7170  -28.4700   21.8450 C   0  0  0  0  0 15  0  0  0  0  0  0
  -19.7500  -26.1810   22.9110 N   0  0  0  0  0  0  0  0  0  0  0  0
  -19.7760  -26.3460   23.9060 H   0  0  0  0  0  0  0  0  0  0  0  0
  -18.7840  -25.9370   22.7580 H   0  0  0  0  0  0  0  0  0  0  0  0
  -20.5240  -24.6180   22.6110 C   0  0  0  0  0  2  0  0  0  0  0  0
  -22.1800  -23.7870   22.7610 C   0  0  0  0  0  2  0  0  0  0  0  0
  -23.0030  -22.3220   21.9670 C   0  0  0  0  0  3  0  0  0  0  0  0
  -24.4000  -21.1480   22.3160 C   0  0  0  0  0  3  0  0  0  0  0  0
  -25.4820  -19.9650   21.3740 C   0  0  0  0  0  2  0  0  0  0  0  0
  -26.5730  -18.4980   21.7190 C   0  0  0  0  0  2  0  0  0  0  0  0
  -27.9810  -17.6060   20.8940 C   0  0  0  0  0  2  0  0  0  0  0  0
  -29.8620  -15.1720   20.6340 C   0  0  0  0  0  0  0  0  0  0  0  0
  -30.3870  -12.8090   19.6020 C   0  0  0  0  0  2  0  0  0  0  0  0
  -29.5260  -12.6250   18.3170 C   0  0  0  0  0  2  0  0  0  0  0  0
  -28.0530  -12.3110   18.6670 C   0  0  0  0  0  2  0  0  0  0  0  0
  -27.5620  -13.1970   19.8370 C   0  0  0  0  0  3  0  0  0  0  0  0
  -28.5140  -13.1280   21.0320 C   0  0  0  0  0  2  0  0  0  0  0  0
  -29.6970  -13.7780   20.5400 N   0  0  0  0  0  0  0  0  0  0  0  0
  -31.0160  -15.5030   20.2670 O   0  0  0  0  0  0  0  0  0  0  0  0
  -28.6790  -16.0520   21.0070 N   0  0  0  0  0  0  0  0  0  0  0  0
  -27.9710  -15.4240   21.3620 H   0  0  0  0  0  0  0  0  0  0  0  0
  -25.2120  -13.8030   20.5520 C   0  0  0  0  0  0  0  0  0  0  0  0
  -24.1500  -13.0320   20.9220 C   0  0  0  0  0  0  0  0  0  0  0  0
  -24.6090  -11.6800   20.8740 C   0  0  0  0  0  0  0  0  0  0  0  0
  -26.2300  -12.9100   20.2840 N   0  0  0  0  0  0  0  0  0  0  0  0
  -25.8900  -11.6310   20.5490 N   0  0  0  0  0  0  0  0  0  0  0  0
  -23.8870  -10.4220   21.0460 C   0  0  0  0  0  0  0  0  0  0  0  0
  -24.3510   -9.4170   21.9220 C   0  0  0  0  0  3  0  0  0  0  0  0
  -23.6220   -8.2190   22.0760 C   0  0  0  0  0  3  0  0  0  0  0  0
  -22.4210   -8.0210   21.3550 C   0  0  0  0  0  0  0  0  0  0  0  0
  -21.9810   -9.0170   20.4660 C   0  0  0  0  0  3  0  0  0  0  0  0
  -22.7080  -10.2060   20.3080 C   0  0  0  0  0  3  0  0  0  0  0  0
  -21.6580   -6.8820   21.4260 O   0  0  0  0  0  0  0  0  0  0  0  0
  -21.6820   -6.0700   22.5310 C   0  0  0  0  0  0  0  0  0  0  0  0
  -21.4010   -6.5620   23.8240 C   0  0  0  0  0  3  0  0  0  0  0  0
  -21.3650   -5.6780   24.9200 C   0  0  0  0  0  3  0  0  0  0  0  0
  -21.6030   -4.3050   24.7260 C   0  0  0  0  0  0  0  0  0  0  0  0
  -21.8820   -3.8130   23.4380 C   0  0  0  0  0  3  0  0  0  0  0  0
  -21.9190   -4.6940   22.3430 C   0  0  0  0  0  0  0  0  0  0  0  0
  -22.1650   -4.2120   21.1010 F   0  0  0  0  0  0  0  0  0  0  0  0
  -21.5620   -3.4540   25.7770 F   0  0  0  0  0  0  0  0  0  0  0  0
  -22.7600  -13.5170   21.1950 C   0  0  0  0  0  0  0  0  0  0  0  0
  -22.0270  -12.8180   22.0520 N   0  0  0  0  0  0  0  0  0  0  0  0
  -22.3340  -14.5510   20.6820 O   0  0  0  0  0  0  0  0  0  0  0  0
  -22.3880  -11.9820   22.4870 H   0  0  0  0  0  0  0  0  0  0  0  0
  -21.0920  -13.1240   22.2780 H   0  0  0  0  0  0  0  0  0  0  0  0
  -25.3820  -15.1750   20.3950 N   0  0  0  0  0  0  0  0  0  0  0  0
  -24.5830  -15.7930   20.4860 H   0  0  0  0  0  0  0  0  0  0  0  0
  -26.1580  -15.6070   19.9120 H   0  0  0  0  0  0  0  0  0  0  0  0
  -20.4040  -30.1110   22.7580 C   0  0  0  0  0 15  0  0  0  0  0  0
  -21.7330  -30.1260   24.2160 C   0  0  0  0  0  1  0  0  0  0  0  0
  -23.3920  -29.6480   24.4730 N   0  0  0  0  0  4  0  0  0  0  0  0
  -23.4010  -29.7350   25.4800 H   0  0  0  0  0  0  0  0  0  0  0  0
  -23.8750  -30.4820   24.1700 H   0  0  0  0  0  0  0  0  0  0  0  0
  -24.5110  -28.3360   24.3330 C   0  0  0  0  0  2  0  0  0  0  0  0
  -26.0400  -27.9930   23.2850 C   0  0  0  0  0  2  0  0  0  0  0  0
  -26.8820  -27.1680   22.0670 O   0  0  0  0  0  0  0  0  0  0  0  0
  -24.6910  -31.8960   23.0740 C   0  0  0  0  0  0  0  0  0  0  0  0
  -26.9520  -27.5760   20.7350 C   0  0  0  0  0  3  0  0  0  0  0  0
  -23.5310  -30.4250   21.3300 C   0  0  0  0  0  3  0  0  0  0  0  0
  -25.0190  -29.1800   19.7430 C   0  0  0  0  0  0  0  0  0  0  0  0
  -25.9780  -31.0350   21.1430 C   0  0  0  0  0  2  0  0  0  0  0  0
  -26.1250  -29.7140   20.4230 C   0  0  0  0  0  0  0  0  0  0  0  0
  -27.2450  -28.9260   20.6770 C   0  0  0  0  0  2  0  0  0  0  0  0
  -26.0490  -26.9940   19.8090 C   0  0  0  0  0  3  0  0  0  0  0  0
  -25.0210  -27.8280   19.3190 C   0  0  0  0  0  3  0  0  0  0  0  0
  -23.7630  -30.0240   19.8470 C   0  0  0  0  0  2  0  0  0  0  0  0
  -24.7450  -31.0980   21.9530 N   0  0  0  0  0  0  0  0  0  0  0  0
  -23.6080  -32.1540   23.6060 O   0  0  0  0  0  0  0  0  0  0  0  0
  -23.2260  -29.0110   21.8720 C   0  0  0  0  0  0  0  0  0  0  0  0
  -22.1290  -28.6220   22.3040 N   0  0  0  0  0  0  0  0  0  0  0  0
  -23.9270  -28.0940   21.9500 O   0  0  0  0  0  0  0  0  0  0  0  0
  -21.4840  -29.3630   22.0660 H   0  0  0  0  0  0  0  0  0  0  0  0
  -17.9420  -27.7560   23.2350 C   0  0  0  0  0  0  0  0  0  0  0  0
  -21.3500  -27.7390   23.2650 C   0  0  0  0  0  1  0  0  0  0  0  0
  -21.3430  -26.8320   21.4180 C   0  0  0  0  0 15  0  0  0  0  0  0
  -19.5480  -26.4550   20.6100 C   0  0  0  0  0  1  0  0  0  0  0  0
  -17.9130  -26.8310   21.6270 C   0  0  0  0  0  2  0  0  0  0  0  0
  -19.3340  -28.2030   24.0840 C   0  0  0  0  0  3  0  0  0  0  0  0
  -18.9230  -29.4310   24.7850 C   0  0  0  0  0  3  0  0  0  0  0  0
  -17.7570  -30.2300   24.5510 C   0  0  0  0  0  3  0  0  0  0  0  0
  -16.6700  -29.7850   23.8030 C   0  0  0  0  0  3  0  0  0  0  0  0
  -16.7480  -28.5200   23.2340 C   0  0  0  0  0  3  0  0  0  0  0  0
  -25.9500  -32.5040   23.7900 C   0  0  0  0  0  3  0  0  0  0  0  0
  -25.5920  -33.8700   24.1880 N   0  0  0  0  0  0  0  0  0  0  0  0
  -25.9100  -34.9640   23.4890 C   0  0  0  0  0  0  0  0  0  0  0  0
  -26.5730  -34.9190   22.4500 O   0  0  0  0  0  0  0  0  0  0  0  0
  -25.0050  -33.9730   25.0030 H   0  0  0  0  0  0  0  0  0  0  0  0
  -24.1470  -36.7400   23.2610 C   0  0  0  0  0  1  0  0  0  0  0  0
  -25.4110  -36.3180   24.0260 C   0  0  0  0  0  3  0  0  0  0  0  0
  -27.5580  -37.1840   24.8460 C   0  0  0  0  0  1  0  0  0  0  0  0
  -26.4270  -37.3900   23.9450 N   0  0  0  0  0  0  0  0  0  0  0  0
  -26.0140  -38.2940   24.1570 H   0  0  0  0  0  0  0  0  0  0  0  0
  -26.4850  -31.7220   25.0690 C   0  0  1  0  0  0  0  0  0  0  0  0
  -25.4170  -31.4450   26.1630 C   0  0  0  0  0  1  0  0  0  0  0  0
  -27.2050  -30.4130   24.6670 C   0  0  0  0  0  1  0  0  0  0  0  0
  -27.5870  -32.5630   25.7600 C   0  0  0  0  0  1  0  0  0  0  0  0
  2  3  1  0
  4  2  1  0
  5  6  1  0
  5  2  1  0
  7  8  2  0
  7  6  1  0
  9 10  1  0
  9  8  1  0
 11 20  1  0
 11 10  1  0
 12 20  1  0
 13 18  1  0
 14 15  1  0
 14 13  1  0
 16 15  1  0
 16 25  1  0
 16 17  1  0
 18 12  1  0
 18 17  1  0
 19 12  2  0
 20 21  1  0
 22 23  2  0
 23 42  1  0
 24 23  1  0
 24 27  1  0
 25 26  1  0
 25 22  1  0
 26 24  2  0
 27 28  1  0
 28 29  2  0
 30 33  1  0
 30 29  1  0
 31 30  2  0
 32 31  1  0
 32 27  2  0
 33 34  1  0
 34 35  1  0
 35 36  2  0
 37 36  1  0
 37 41  1  0
 38 37  2  0
 39 34  2  0
 39 38  1  0
 40 39  1  0
 42 43  1  0
 43 46  1  0
 43 45  1  0
 44 42  2  0
 47 48  1  0
 47 22  1  0
 49 47  1  0
 51 52  1  0
 52 53  1  0
 54 52  1  0
 55 52  1  0
 56 55  1  0
 57 56  1  0
 58 69  2  0
 59 57  1  0
 60 70  1  0
 60 68  1  0
 61 67  1  0
 61 63  2  0
 62 68  1  0
 63 64  1  0
 63 62  1  0
 64 59  1  0
 65 59  1  0
 66 61  1  0
 66 65  2  0
 67 60  1  0
 68 58  1  0
 70 72  2  0
 70 71  1  0
 71 75  1  0
 73 71  1  0
 74 79  1  0
 77 78  1  0
 78 74  1  0
 79 80  2  0
 81 80  1  0
 82 81  2  0
 83 74  2  0
 83 82  1  0
 84 58  1  0
 84 85  1  0
 84 94  1  0
 85 88  1  0
 86 90  1  0
 86 85  1  0
 87 86  2  0
 90 89  1  0
 92 90  1  0
 92 93  1  0
 92 91  1  0
 94 97  1  1
 94 95  1  0
 96 94  1  0
M  ISO  4  12 100  20 100  56 101  57 101
M  END
>  <TORSDO>  (22) 
F 29

>  <SCORE>  (22) 
22.837

>  <name>  (22) 
22

>  <ligand_id>  (22) 
22

>  <original_smiles>  (22) 
[H]c1c([H])c([H])c2c(c1[H])C([H])([H])C([H])([H])C([H])([H])C2([H])N([H])C(=O)C1([H])N(C(=O)C([H])(N([H])C(=O)C([H])(N([H])C([H])([H])[H])C([H])([H])[H])C(C([H])([H])[H])(C([H])([H])[H])C([H])([H])[H])C([H])([H])c2c([H])c(OC([H])([H])C([H])([H])[N+]([H])([H])C([H])([H])C([H])([H])C([H])([H])[N+]([H])([H])C([H])([H])C([H])([H])C([H])([H])C([H])([H])C([H])([H])C([H])([H])C([H])([H])N([H])C(=O)N3C([H])([H])C([H])([H])C([H])([H])C([H])(n4nc(-c5c([H])c([H])c(Oc6c([H])c([H])c(F)c([H])c6F)c([H])c5[H])c(C(=O)N([H])[H])c4N([H])[H])C3([H])[H])c([H])c([H])c2C1([H])[H]

>  <smiles>  (22) 
[H]c1c([H])c([H])c2c(c1[H])C([H])([H])C([H])([H])C([H])([H])C2([H])N([H])C(=O)C1([H])N(C(=O)C([H])(N([H])C(=O)C([H])(N([H])C([H])([H])[H])C([H])([H])[H])C(C([H])([H])[H])(C([H])([H])[H])C([H])([H])[H])C([H])([H])c2c([H])c(OC([H])([H])C([H])([H])[N+]([H])([H])C([H])([H])C([H])([H])C([H])([H])[N+]([H])([H])C([H])([H])C([H])([H])C([H])([H])C([H])([H])C([H])([H])C([H])([H])C([H])([H])N([H])C(=O)N3C([H])([H])C([H])([H])C([H])([H])C([H])(n4nc(-c5c([H])c([H])c(Oc6c([H])c([H])c(F)c([H])c6F)c([H])c5[H])c(C(=O)N([H])[H])c4N([H])[H])C3([H])[H])c([H])c([H])c2C1([H])[H]

$$$$
23:0:0
     RDKit          3D

102110  0  0  1  0  0  0  0  0999 V2000
  -26.0710  -23.9990   21.4970 C   0  0  0  0  0  3  0  0  0  0  0  0
  -26.4060  -22.6320   21.4340 C   0  0  0  0  0  3  0  0  0  0  0  0
  -26.9110  -24.9620   20.9000 C   0  0  0  0  0  3  0  0  0  0  0  0
  -28.4730  -23.2000   20.2760 C   0  0  0  0  0  3  0  0  0  0  0  0
  -27.6060  -22.2260   20.8080 C   0  0  0  0  0  0  0  0  0  0  0  0
  -28.1090  -24.5630   20.2680 C   0  0  0  0  0  0  0  0  0  0  0  0
  -27.9390  -20.7780   20.6240 C   0  0  0  0  0  0  0  0  0  0  0  0
  -27.2080  -20.1720   19.6840 N   0  0  0  0  0  0  0  0  0  0  0  0
  -28.9050  -20.2560   21.1860 O   0  0  0  0  0  0  0  0  0  0  0  0
  -26.4460  -20.7070   19.2930 H   0  0  0  0  0  0  0  0  0  0  0  0
  -27.5690  -18.9350   19.0050 C   0  0  0  0  0  2  0  0  0  0  0  0
  -29.0800  -18.9050   18.6990 C   0  0  0  0  0  2  0  0  0  0  0  0
  -29.7260  -17.5930   19.1390 C   0  0  0  0  0  2  0  0  0  0  0  0
  -31.2660  -17.6180   19.1450 C   0  0  0  0  0  2  0  0  0  0  0  0
  -32.3060  -15.4300   19.6970 C   0  0  0  0  0  0  0  0  0  0  0  0
  -32.3670  -13.0090   20.1840 C   0  0  0  0  0  2  0  0  0  0  0  0
  -31.5820  -12.1900   19.1410 C   0  0  0  0  0  2  0  0  0  0  0  0
  -30.0810  -12.1380   19.4800 C   0  0  0  0  0  2  0  0  0  0  0  0
  -29.4940  -13.5400   19.7800 C   0  0  0  0  0  3  0  0  0  0  0  0
  -30.3810  -14.2670   20.8130 C   0  0  0  0  0  2  0  0  0  0  0  0
  -31.7660  -14.3400   20.2970 N   0  0  0  0  0  0  0  0  0  0  0  0
  -33.2870  -15.4020   18.9470 O   0  0  0  0  0  0  0  0  0  0  0  0
  -31.6940  -16.5630   20.0480 N   0  0  0  0  0  0  0  0  0  0  0  0
  -31.1010  -16.4540   20.8580 H   0  0  0  0  0  0  0  0  0  0  0  0
  -27.2040  -14.4650   20.5320 C   0  0  0  0  0  0  0  0  0  0  0  0
  -26.0300  -13.8390   20.8570 C   0  0  0  0  0  0  0  0  0  0  0  0
  -26.2830  -12.4380   20.7350 C   0  0  0  0  0  0  0  0  0  0  0  0
  -28.1070  -13.4520   20.2380 N   0  0  0  0  0  0  0  0  0  0  0  0
  -27.5530  -12.2280   20.4130 N   0  0  0  0  0  0  0  0  0  0  0  0
  -25.3770  -11.2880   20.8460 C   0  0  0  0  0  0  0  0  0  0  0  0
  -25.6240  -10.2380   21.7580 C   0  0  0  0  0  3  0  0  0  0  0  0
  -24.7290   -9.1500   21.8560 C   0  0  0  0  0  3  0  0  0  0  0  0
  -23.5730   -9.1060   21.0420 C   0  0  0  0  0  0  0  0  0  0  0  0
  -23.3420  -10.1450   20.1220 C   0  0  0  0  0  3  0  0  0  0  0  0
  -24.2360  -11.2240   20.0210 C   0  0  0  0  0  3  0  0  0  0  0  0
  -22.6620   -8.0770   21.0500 O   0  0  0  0  0  0  0  0  0  0  0  0
  -22.3420   -7.4110   22.2050 C   0  0  0  0  0  0  0  0  0  0  0  0
  -21.8380   -8.0830   23.3400 C   0  0  0  0  0  3  0  0  0  0  0  0
  -21.4580   -7.3510   24.4820 C   0  0  0  0  0  3  0  0  0  0  0  0
  -21.5700   -5.9470   24.4890 C   0  0  0  0  0  0  0  0  0  0  0  0
  -22.0660   -5.2750   23.3570 C   0  0  0  0  0  3  0  0  0  0  0  0
  -22.4480   -6.0060   22.2180 C   0  0  0  0  0  0  0  0  0  0  0  0
  -22.9080   -5.3510   21.1240 F   0  0  0  0  0  0  0  0  0  0  0  0
  -21.1980   -5.2420   25.5810 F   0  0  0  0  0  0  0  0  0  0  0  0
  -24.7180  -14.5030   21.1650 C   0  0  0  0  0  0  0  0  0  0  0  0
  -23.9070  -13.8940   22.0240 N   0  0  0  0  0  0  0  0  0  0  0  0
  -24.4250  -15.5950   20.6820 O   0  0  0  0  0  0  0  0  0  0  0  0
  -24.1520  -13.0060   22.4360 H   0  0  0  0  0  0  0  0  0  0  0  0
  -23.0310  -14.3290   22.2750 H   0  0  0  0  0  0  0  0  0  0  0  0
  -27.5640  -15.8050   20.4430 N   0  0  0  0  0  0  0  0  0  0  0  0
  -26.8800  -16.5420   20.5780 H   0  0  0  0  0  0  0  0  0  0  0  0
  -28.4480  -16.1440   20.0850 H   0  0  0  0  0  0  0  0  0  0  0  0
  -28.9670  -25.5780   19.5270 C   0  0  0  0  0  2  0  0  0  0  0  0
  -29.6810  -24.9500   18.3070 C   0  0  0  0  0  2  0  0  0  0  0  0
  -30.6580  -25.8840   17.5660 C   0  0  0  0  0  2  0  0  0  0  0  0
  -29.9880  -27.0220   16.7940 C   0  0  0  0  0  0  0  0  0  0  0  0
  -29.0380  -26.6980   15.9080 N   0  0  0  0  0  0  0  0  0  0  0  0
  -30.3530  -28.1830   16.9820 O   0  0  0  0  0  0  0  0  0  0  0  0
  -28.7990  -25.7210   15.8070 H   0  0  0  0  0  0  0  0  0  0  0  0
  -28.3140  -27.6450   15.0630 C   0  0  0  0  0  2  0  0  0  0  0  0
  -27.4020  -28.5720   15.8810 C   0  0  0  0  0  2  0  0  0  0  0  0
  -26.2490  -27.8680   16.3450 O   0  0  0  0  0  0  0  0  0  0  0  0
  -26.3880  -29.2730   23.3460 C   0  0  0  0  0  0  0  0  0  0  0  0
  -25.6180  -28.3580   17.4710 C   0  0  0  0  0  0  0  0  0  0  0  0
  -24.1720  -29.4560   22.2490 C   0  0  0  0  0  3  0  0  0  0  0  0
  -24.1970  -29.3730   19.6980 C   0  0  0  0  0  0  0  0  0  0  0  0
  -26.3200  -29.8660   20.9320 C   0  0  0  0  0  2  0  0  0  0  0  0
  -25.5950  -29.3470   19.7100 C   0  0  0  0  0  0  0  0  0  0  0  0
  -26.3070  -28.8460   18.6070 C   0  0  0  0  0  3  0  0  0  0  0  0
  -24.2080  -28.3740   17.4780 C   0  0  0  0  0  3  0  0  0  0  0  0
  -23.4930  -28.8830   18.5820 C   0  0  0  0  0  3  0  0  0  0  0  0
  -23.5210  -29.9450   20.9240 C   0  0  0  0  0  2  0  0  0  0  0  0
  -25.6710  -29.4990   22.2090 N   0  0  0  0  0  0  0  0  0  0  0  0
  -25.8210  -29.0820   24.4300 O   0  0  0  0  0  0  0  0  0  0  0  0
  -23.6100  -28.0560   22.5800 C   0  0  0  0  0  0  0  0  0  0  0  0
  -22.2830  -27.9030   22.4470 N   0  0  0  0  0  0  0  0  0  0  0  0
  -24.3590  -27.1360   22.9160 O   0  0  0  0  0  0  0  0  0  0  0  0
  -21.7390  -28.7090   22.1730 H   0  0  0  0  0  0  0  0  0  0  0  0
  -19.2680  -26.1360   21.5420 C   0  0  0  0  0  0  0  0  0  0  0  0
  -21.5350  -26.6660   22.6630 C   0  0  0  0  0  3  0  0  0  0  0  0
  -22.1120  -25.5120   21.8110 C   0  0  0  0  0  2  0  0  0  0  0  0
  -21.4180  -25.3590   20.4540 C   0  0  0  0  0  2  0  0  0  0  0  0
  -19.9210  -25.0980   20.6440 C   0  0  0  0  0  2  0  0  0  0  0  0
  -20.0300  -26.8830   22.4790 C   0  0  0  0  0  0  0  0  0  0  0  0
  -19.3820  -27.8610   23.2640 C   0  0  0  0  0  3  0  0  0  0  0  0
  -18.0010  -28.0950   23.1270 C   0  0  0  0  0  3  0  0  0  0  0  0
  -17.2490  -27.3400   22.2110 C   0  0  0  0  0  3  0  0  0  0  0  0
  -17.8810  -26.3610   21.4250 C   0  0  0  0  0  3  0  0  0  0  0  0
  -27.9490  -29.2710   23.3450 C   0  0  0  0  0  3  0  0  0  0  0  0
  -28.3930  -29.9550   24.5660 N   0  0  0  0  0  0  0  0  0  0  0  0
  -28.8980  -31.1950   24.6010 C   0  0  0  0  0  0  0  0  0  0  0  0
  -29.1080  -31.8630   23.5840 O   0  0  0  0  0  0  0  0  0  0  0  0
  -28.2000  -29.4900   25.4410 H   0  0  0  0  0  0  0  0  0  0  0  0
  -28.1200  -32.7850   26.3870 C   0  0  0  0  0  1  0  0  0  0  0  0
  -29.2210  -31.7910   25.9840 C   0  0  0  0  0  3  0  0  0  0  0  0
  -31.6620  -31.5300   25.9380 C   0  0  0  0  0  1  0  0  0  0  0  0
  -30.5400  -32.4590   26.0440 N   0  0  0  0  0  0  0  0  0  0  0  0
  -30.6400  -32.9810   26.9100 H   0  0  0  0  0  0  0  0  0  0  0  0
  -28.5720  -27.8230   23.2560 C   0  0  1  0  0  0  0  0  0  0  0  0
  -27.9890  -26.8330   24.2920 C   0  0  0  0  0  1  0  0  0  0  0  0
  -28.3490  -27.2210   21.8480 C   0  0  0  0  0  1  0  0  0  0  0  0
  -30.1020  -27.8940   23.4710 C   0  0  0  0  0  1  0  0  0  0  0  0
  2  1  1  0
  3  1  2  0
  4  5  1  0
  5  2  2  0
  6  4  2  0
  6  3  1  0
  7  5  1  0
  7  9  2  0
  8  7  1  0
 10  8  1  0
 11  8  1  0
 12 11  1  0
 12 13  1  0
 13 14  1  0
 14 23  1  0
 15 23  1  0
 15 21  1  0
 16 21  1  0
 17 18  1  0
 17 16  1  0
 19 18  1  0
 19 28  1  0
 19 20  1  0
 21 20  1  0
 22 15  2  0
 23 24  1  0
 25 26  2  0
 26 45  1  0
 27 30  1  0
 27 26  1  0
 28 29  1  0
 28 25  1  0
 29 27  2  0
 30 31  1  0
 31 32  2  0
 33 36  1  0
 33 32  1  0
 34 33  2  0
 35 34  1  0
 35 30  2  0
 36 37  1  0
 37 42  2  0
 37 38  1  0
 38 39  2  0
 39 40  1  0
 40 44  1  0
 41 40  2  0
 42 41  1  0
 43 42  1  0
 45 46  1  0
 46 49  1  0
 46 48  1  0
 47 45  2  0
 50 25  1  0
 50 51  1  0
 52 50  1  0
 53  6  1  0
 54 53  1  0
 55 54  1  0
 56 58  2  0
 56 55  1  0
 57 56  1  0
 59 57  1  0
 60 61  1  0
 60 57  1  0
 61 62  1  0
 62 64  1  0
 63 74  2  0
 64 70  2  0
 64 69  1  0
 65 75  1  0
 66 68  1  0
 66 72  1  0
 67 73  1  0
 68 67  1  0
 69 68  2  0
 70 71  1  0
 71 66  2  0
 72 65  1  0
 73 65  1  0
 73 63  1  0
 75 77  2  0
 76 75  1  0
 78 76  1  0
 79 84  1  0
 80 76  1  0
 81 80  1  0
 82 83  1  0
 82 81  1  0
 83 79  1  0
 84 80  1  0
 84 85  2  0
 86 85  1  0
 87 86  2  0
 88 79  2  0
 88 87  1  0
 89 63  1  0
 89 90  1  0
 90 91  1  0
 90 93  1  0
 91 95  1  0
 92 91  2  0
 95 97  1  0
 95 94  1  0
 96 97  1  0
 97 98  1  0
 99 89  1  0
 99102  1  1
 99100  1  0
101 99  1  0
M  ISO  4  15 100  23 100  61 101  62 101
M  END
>  <TORSDO>  (23) 
F 27

>  <SCORE>  (23) 
-7.615

>  <name>  (23) 
23

>  <ligand_id>  (23) 
23

>  <original_smiles>  (23) 
[H]c1c([H])c(C(=O)N([H])C([H])([H])C([H])([H])C([H])([H])C([H])([H])N([H])C(=O)N2C([H])([H])C([H])([H])C([H])([H])C([H])(n3nc(-c4c([H])c([H])c(Oc5c([H])c([H])c(F)c([H])c5F)c([H])c4[H])c(C(=O)N([H])[H])c3N([H])[H])C2([H])[H])c([H])c(C([H])([H])C([H])([H])C([H])([H])C(=O)N([H])C([H])([H])C([H])([H])Oc2c([H])c([H])c3c(c2[H])C([H])([H])N(C(=O)C([H])(N([H])C(=O)C([H])(N([H])C([H])([H])[H])C([H])([H])[H])C(C([H])([H])[H])(C([H])([H])[H])C([H])([H])[H])C([H])(C(=O)N([H])C2([H])c4c([H])c([H])c([H])c([H])c4C([H])([H])C([H])([H])C2([H])[H])C3([H])[H])c1[H]

>  <smiles>  (23) 
[H]c1c([H])c(C(=O)N([H])C([H])([H])C([H])([H])C([H])([H])C([H])([H])N([H])C(=O)N2C([H])([H])C([H])([H])C([H])([H])C([H])(n3nc(-c4c([H])c([H])c(Oc5c([H])c([H])c(F)c([H])c5F)c([H])c4[H])c(C(=O)N([H])[H])c3N([H])[H])C2([H])[H])c([H])c(C([H])([H])C([H])([H])C([H])([H])C(=O)N([H])C([H])([H])C([H])([H])Oc2c([H])c([H])c3c(c2[H])C([H])([H])N(C(=O)C([H])(N([H])C(=O)C([H])(N([H])C([H])([H])[H])C([H])([H])[H])C(C([H])([H])[H])(C([H])([H])[H])C([H])([H])[H])C([H])(C(=O)N([H])C2([H])c4c([H])c([H])c([H])c([H])c4C([H])([H])C([H])([H])C2([H])[H])C3([H])[H])c1[H]

$$$$
24:0:0
     RDKit          3D

103111  0  0  1  0  0  0  0  0999 V2000
  -32.3830  -21.9090   23.8450 C   0  0  0  0  0  0  0  0  0  0  0  0
  -31.0600  -21.7250   23.7470 N   0  0  0  0  0  0  0  0  0  0  0  0
  -32.9590  -22.4470   24.7880 O   0  0  0  0  0  0  0  0  0  0  0  0
  -30.7840  -21.1930   22.9350 H   0  0  0  0  0  0  0  0  0  0  0  0
  -34.1600  -19.8620   20.4920 C   0  0  0  0  0  3  0  0  0  0  0  0
  -34.9410  -20.1150   21.6360 C   0  0  0  0  0  3  0  0  0  0  0  0
  -32.3450  -21.1370   21.4700 C   0  0  0  0  0  3  0  0  0  0  0  0
  -33.0970  -21.3490   22.6470 C   0  0  0  0  0  0  0  0  0  0  0  0
  -32.8290  -20.3300   20.4220 C   0  0  0  0  0  0  0  0  0  0  0  0
  -34.4250  -20.8520   22.7220 C   0  0  0  0  0  0  0  0  0  0  0  0
  -35.3060  -21.0370   23.9450 C   0  0  0  0  0  1  0  0  0  0  0  0
  -31.8610  -19.9400   19.3040 C   0  0  0  0  0  2  0  0  0  0  0  0
  -31.6420  -18.4460   19.0480 C   0  0  0  0  0  2  0  0  0  0  0  0
  -30.9410  -17.5790   20.1180 C   0  0  0  0  0  2  0  0  0  0  0  0
  -31.0860  -16.1190   19.6850 C   0  0  0  0  0  2  0  0  0  0  0  0
  -31.6690  -14.1610   21.0640 C   0  0  0  0  0  0  0  0  0  0  0  0
  -31.5470  -11.7660   20.6150 C   0  0  0  0  0  2  0  0  0  0  0  0
  -30.8910  -11.6440   19.2220 C   0  0  0  0  0  2  0  0  0  0  0  0
  -29.3520  -11.6250   19.3310 C   0  0  0  0  0  2  0  0  0  0  0  0
  -28.8050  -12.7780   20.2180 C   0  0  0  0  0  3  0  0  0  0  0  0
  -29.5890  -12.8500   21.5510 C   0  0  0  0  0  2  0  0  0  0  0  0
  -31.0170  -12.9840   21.2290 N   0  0  0  0  0  0  0  0  0  0  0  0
  -32.8860  -14.2560   20.8810 O   0  0  0  0  0  0  0  0  0  0  0  0
  -30.8290  -15.1620   20.7560 N   0  0  0  0  0  0  0  0  0  0  0  0
  -29.8600  -14.9680   20.9510 H   0  0  0  0  0  0  0  0  0  0  0  0
  -26.3780  -13.6340   20.3930 C   0  0  0  0  0  0  0  0  0  0  0  0
  -25.1940  -12.9780   20.6220 C   0  0  0  0  0  0  0  0  0  0  0  0
  -25.5400  -11.6070   20.7960 C   0  0  0  0  0  0  0  0  0  0  0  0
  -27.3670  -12.6620   20.4450 N   0  0  0  0  0  0  0  0  0  0  0  0
  -26.8530  -11.4430   20.7420 N   0  0  0  0  0  0  0  0  0  0  0  0
  -24.6860  -10.4210   20.9470 C   0  0  0  0  0  0  0  0  0  0  0  0
  -24.8160   -9.5540   22.0520 C   0  0  0  0  0  3  0  0  0  0  0  0
  -23.9670   -8.4350   22.1830 C   0  0  0  0  0  3  0  0  0  0  0  0
  -22.9800   -8.1730   21.2050 C   0  0  0  0  0  0  0  0  0  0  0  0
  -22.8720   -9.0270   20.0940 C   0  0  0  0  0  3  0  0  0  0  0  0
  -23.7210  -10.1390   19.9600 C   0  0  0  0  0  3  0  0  0  0  0  0
  -22.1360   -7.0880   21.2340 O   0  0  0  0  0  0  0  0  0  0  0  0
  -21.7090   -6.5400   22.4180 C   0  0  0  0  0  0  0  0  0  0  0  0
  -21.0250   -7.3050   23.3870 C   0  0  0  0  0  3  0  0  0  0  0  0
  -20.5320   -6.6880   24.5520 C   0  0  0  0  0  3  0  0  0  0  0  0
  -20.7310   -5.3080   24.7570 C   0  0  0  0  0  0  0  0  0  0  0  0
  -21.4110   -4.5460   23.7920 C   0  0  0  0  0  3  0  0  0  0  0  0
  -21.8970   -5.1590   22.6260 C   0  0  0  0  0  0  0  0  0  0  0  0
  -22.5330   -4.4130   21.6880 F   0  0  0  0  0  0  0  0  0  0  0  0
  -20.2550   -4.7140   25.8740 F   0  0  0  0  0  0  0  0  0  0  0  0
  -23.8200  -13.5830   20.5810 C   0  0  0  0  0  0  0  0  0  0  0  0
  -22.8870  -13.0560   21.3670 N   0  0  0  0  0  0  0  0  0  0  0  0
  -23.5760  -14.5710   19.8900 O   0  0  0  0  0  0  0  0  0  0  0  0
  -23.0770  -12.2710   21.9680 H   0  0  0  0  0  0  0  0  0  0  0  0
  -21.9660  -13.4720   21.3740 H   0  0  0  0  0  0  0  0  0  0  0  0
  -26.6770  -14.9670   20.1280 N   0  0  0  0  0  0  0  0  0  0  0  0
  -25.9410  -15.6570   20.0200 H   0  0  0  0  0  0  0  0  0  0  0  0
  -27.5820  -15.3220   19.8430 H   0  0  0  0  0  0  0  0  0  0  0  0
  -29.9930  -22.1540   24.6440 C   0  0  0  0  0  2  0  0  0  0  0  0
  -28.8860  -22.8670   23.8360 C   0  0  0  0  0  2  0  0  0  0  0  0
  -28.3980  -22.0960   22.5840 C   0  0  0  0  0  2  0  0  0  0  0  0
  -27.8400  -22.9920   21.4670 C   0  0  0  0  0  2  0  0  0  0  0  0
  -28.9180  -23.6930   20.7390 N   0  0  0  0  0  4  0  0  0  0  0  0
  -28.9790  -23.2770   19.8220 H   0  0  0  0  0  0  0  0  0  0  0  0
  -29.7890  -23.4970   21.2110 H   0  0  0  0  0  0  0  0  0  0  0  0
  -28.7130  -25.1580   20.5970 C   0  0  0  0  0  2  0  0  0  0  0  0
  -29.5560  -25.7540   19.4490 C   0  0  0  0  0  2  0  0  0  0  0  0
  -29.3570  -27.1600   19.3440 O   0  0  0  0  0  0  0  0  0  0  0  0
  -24.8360  -31.0400   23.1820 C   0  0  0  0  0  0  0  0  0  0  0  0
  -28.0740  -27.6460   19.4270 C   0  0  0  0  0  0  0  0  0  0  0  0
  -23.8300  -29.7900   21.2930 C   0  0  0  0  0  3  0  0  0  0  0  0
  -25.4790  -28.7360   19.6620 C   0  0  0  0  0  0  0  0  0  0  0  0
  -26.2720  -30.5320   21.2120 C   0  0  0  0  0  2  0  0  0  0  0  0
  -26.5510  -29.3230   20.3460 C   0  0  0  0  0  0  0  0  0  0  0  0
  -27.8480  -28.7910   20.2170 C   0  0  0  0  0  3  0  0  0  0  0  0
  -26.9880  -27.0640   18.7350 C   0  0  0  0  0  3  0  0  0  0  0  0
  -25.6930  -27.6040   18.8560 C   0  0  0  0  0  3  0  0  0  0  0  0
  -24.1280  -29.3920   19.8260 C   0  0  0  0  0  2  0  0  0  0  0  0
  -24.9960  -30.4580   21.9590 N   0  0  0  0  0  0  0  0  0  0  0  0
  -23.7280  -31.0770   23.7310 O   0  0  0  0  0  0  0  0  0  0  0  0
  -23.3300  -28.5410   22.0510 C   0  0  0  0  0  0  0  0  0  0  0  0
  -22.0500  -28.1930   21.8420 N   0  0  0  0  0  0  0  0  0  0  0  0
  -24.0920  -27.8950   22.7730 O   0  0  0  0  0  0  0  0  0  0  0  0
  -21.4910  -28.7780   21.2360 H   0  0  0  0  0  0  0  0  0  0  0  0
  -18.8880  -26.4540   21.9960 C   0  0  0  0  0  0  0  0  0  0  0  0
  -21.3730  -27.0330   22.4190 C   0  0  0  0  0  3  0  0  0  0  0  0
  -21.7000  -25.7450   21.6280 C   0  0  0  0  0  2  0  0  0  0  0  0
  -20.6810  -25.4350   20.5260 C   0  0  0  0  0  2  0  0  0  0  0  0
  -19.2810  -25.2730   21.1240 C   0  0  0  0  0  2  0  0  0  0  0  0
  -19.8720  -27.2880   22.5920 C   0  0  0  0  0  0  0  0  0  0  0  0
  -19.4530  -28.3940   23.3640 C   0  0  0  0  0  3  0  0  0  0  0  0
  -18.0860  -28.6680   23.5480 C   0  0  0  0  0  3  0  0  0  0  0  0
  -17.1180  -27.8290   22.9700 C   0  0  0  0  0  3  0  0  0  0  0  0
  -17.5190  -26.7220   22.1980 C   0  0  0  0  0  3  0  0  0  0  0  0
  -26.0330  -31.7180   23.9260 C   0  0  0  0  0  3  0  0  0  0  0  0
  -25.6180  -33.0810   24.2800 N   0  0  0  0  0  0  0  0  0  0  0  0
  -25.9700  -34.1800   23.6010 C   0  0  0  0  0  0  0  0  0  0  0  0
  -26.7520  -34.1590   22.6460 O   0  0  0  0  0  0  0  0  0  0  0  0
  -24.9370  -33.1750   25.0190 H   0  0  0  0  0  0  0  0  0  0  0  0
  -24.2010  -35.8970   23.1220 C   0  0  0  0  0  1  0  0  0  0  0  0
  -25.3580  -35.5170   24.0580 C   0  0  0  0  0  3  0  0  0  0  0  0
  -27.3400  -36.4450   25.1680 C   0  0  0  0  0  1  0  0  0  0  0  0
  -26.3390  -36.6220   24.1200 N   0  0  0  0  0  0  0  0  0  0  0  0
  -25.8680  -37.5070   24.2810 H   0  0  0  0  0  0  0  0  0  0  0  0
  -26.5030  -30.9260   25.2050 C   0  0  1  0  0  0  0  0  0  0  0  0
  -25.3410  -30.5620   26.1600 C   0  0  0  0  0  1  0  0  0  0  0  0
  -27.2130  -29.6100   24.8020 C   0  0  0  0  0  1  0  0  0  0  0  0
  -27.5380  -31.7660   25.9930 C   0  0  0  0  0  1  0  0  0  0  0  0
  1  3  2  0
  2  1  1  0
  2 54  1  0
  4  2  1  0
  5  6  1  0
  6 10  2  0
  7  8  2  0
  8 10  1  0
  8  1  1  0
  9  5  2  0
  9  7  1  0
 10 11  1  0
 12  9  1  0
 13 12  1  0
 13 14  1  0
 15 14  1  0
 15 24  1  0
 16 22  1  0
 17 22  1  0
 18 19  1  0
 18 17  1  0
 20 19  1  0
 20 29  1  0
 20 21  1  0
 22 21  1  0
 23 16  2  0
 24 25  1  0
 24 16  1  0
 26 29  1  0
 26 27  2  0
 27 28  1  0
 28 31  1  0
 29 30  1  0
 30 28  2  0
 31 32  1  0
 32 33  2  0
 34 37  1  0
 34 33  1  0
 35 34  2  0
 36 35  1  0
 36 31  2  0
 37 38  1  0
 38 43  2  0
 38 39  1  0
 39 40  2  0
 40 41  1  0
 41 45  1  0
 42 41  2  0
 43 42  1  0
 44 43  1  0
 46 27  1  0
 46 47  1  0
 47 50  1  0
 47 49  1  0
 48 46  2  0
 51 26  1  0
 52 51  1  0
 53 51  1  0
 55 54  1  0
 56 55  1  0
 57 56  1  0
 58 60  1  0
 58 57  1  0
 59 58  1  0
 61 58  1  0
 62 61  1  0
 63 65  1  0
 63 62  1  0
 64 75  2  0
 65 70  1  0
 66 74  1  0
 66 76  1  0
 67 73  1  0
 67 69  1  0
 68 74  1  0
 69 68  1  0
 70 69  2  0
 71 72  1  0
 71 65  2  0
 72 67  2  0
 73 66  1  0
 74 64  1  0
 76 78  2  0
 77 76  1  0
 79 77  1  0
 80 89  2  0
 80 85  1  0
 81 77  1  0
 81 85  1  0
 82 81  1  0
 83 84  1  0
 83 82  1  0
 84 80  1  0
 85 86  2  0
 86 87  1  0
 88 87  2  0
 89 88  1  0
 90 64  1  0
 90 91  1  0
 90100  1  0
 91 94  1  0
 92 96  1  0
 92 91  1  0
 93 92  2  0
 96 95  1  0
 96 98  1  0
 98 99  1  0
 98 97  1  0
100103  1  1
100101  1  0
102100  1  0
M  ISO  4  16 100  24 100  62 101  63 101
M  END
>  <TORSDO>  (24) 
F 28

>  <SCORE>  (24) 
-3.747

>  <name>  (24) 
24

>  <ligand_id>  (24) 
24

>  <original_smiles>  (24) 
[H]c1c([H])c([H])c2c(c1[H])C([H])([H])C([H])([H])C([H])([H])C2([H])N([H])C(=O)C1([H])N(C(=O)C([H])(N([H])C(=O)C([H])(N([H])C([H])([H])[H])C([H])([H])[H])C(C([H])([H])[H])(C([H])([H])[H])C([H])([H])[H])C([H])([H])c2c([H])c(OC([H])([H])C([H])([H])[N+]([H])([H])C([H])([H])C([H])([H])C([H])([H])C([H])([H])N([H])C(=O)c3c([H])c(C([H])([H])C([H])([H])C([H])([H])C([H])([H])N([H])C(=O)N4C([H])([H])C([H])([H])C([H])([H])C([H])(n5nc(-c6c([H])c([H])c(Oc7c([H])c([H])c(F)c([H])c7F)c([H])c6[H])c(C(=O)N([H])[H])c5N([H])[H])C4([H])[H])c([H])c([H])c3C([H])([H])[H])c([H])c([H])c2C1([H])[H]

>  <smiles>  (24) 
[H]c1c([H])c([H])c2c(c1[H])C([H])([H])C([H])([H])C([H])([H])C2([H])N([H])C(=O)C1([H])N(C(=O)C([H])(N([H])C(=O)C([H])(N([H])C([H])([H])[H])C([H])([H])[H])C(C([H])([H])[H])(C([H])([H])[H])C([H])([H])[H])C([H])([H])c2c([H])c(OC([H])([H])C([H])([H])[N+]([H])([H])C([H])([H])C([H])([H])C([H])([H])C([H])([H])N([H])C(=O)c3c([H])c(C([H])([H])C([H])([H])C([H])([H])C([H])([H])N([H])C(=O)N4C([H])([H])C([H])([H])C([H])([H])C([H])(n5nc(-c6c([H])c([H])c(Oc7c([H])c([H])c(F)c([H])c7F)c([H])c6[H])c(C(=O)N([H])[H])c5N([H])[H])C4([H])[H])c([H])c([H])c3C([H])([H])[H])c([H])c([H])c2C1([H])[H]

$$$$
25:0:0
     RDKit          3D

100107  0  0  1  0  0  0  0  0999 V2000
  -25.3420  -19.1330   20.4160 N   0  0  0  0  0  4  0  0  0  0  0  0
  -24.5540  -19.3170   19.8170 H   0  0  0  0  0  0  0  0  0  0  0  0
  -25.0500  -19.2990   21.3700 H   0  0  0  0  0  0  0  0  0  0  0  0
  -26.6300  -17.2040   21.4350 C   0  0  0  0  0  1  0  0  0  0  0  0
  -25.7210  -17.6770   20.2830 C   0  0  0  0  0  3  0  0  0  0  0  0
  -24.5420  -16.6560   19.9810 C   0  0  0  0  0  2  0  0  0  0  0  0
  -24.8630  -14.2990   21.6360 C   0  0  0  0  0  3  0  0  0  0  0  0
  -26.3660  -14.6650   18.7700 C   0  0  0  0  0  3  0  0  0  0  0  0
  -26.1660  -13.0880   22.1720 C   0  0  0  0  0  3  0  0  0  0  0  0
  -27.6850  -13.4240   19.3170 C   0  0  0  0  0  3  0  0  0  0  0  0
  -24.9900  -15.1760   19.9880 C   0  0  0  0  0  0  0  0  0  0  0  0
  -27.6230  -12.7120   21.0730 C   0  0  0  0  0  0  0  0  0  0  0  0
  -28.9450  -12.2520   21.6780 C   0  0  0  0  0  2  0  0  0  0  0  0
  -29.8590  -11.3810   23.7200 C   0  0  0  0  0  0  0  0  0  0  0  0
  -30.7280   -9.0960   23.3960 C   0  0  0  0  0  2  0  0  0  0  0  0
  -30.9280   -8.7470   21.8990 C   0  0  0  0  0  2  0  0  0  0  0  0
  -29.6180   -8.1970   21.2410 C   0  0  0  0  0  2  0  0  0  0  0  0
  -28.4920   -9.1860   21.4950 C   0  0  0  0  0  3  0  0  0  0  0  0
  -28.3710   -9.4730   23.0220 C   0  0  0  0  0  2  0  0  0  0  0  0
  -29.6350  -10.0630   23.4920 N   0  0  0  0  0  0  0  0  0  0  0  0
  -30.8610  -11.8570   24.2620 O   0  0  0  0  0  0  0  0  0  0  0  0
  -28.9880  -12.1940   23.1290 N   0  0  0  0  0  0  0  0  0  0  0  0
  -29.0280  -13.1220   23.5150 H   0  0  0  0  0  0  0  0  0  0  0  0
  -26.5070   -9.6300   19.5680 C   0  0  0  0  0  2  0  0  0  0  0  0
  -25.3350   -8.7340   19.7840 C   0  0  0  0  0  0  0  0  0  0  0  0
  -25.3170   -8.0820   21.0650 C   0  0  0  0  0  0  0  0  0  0  0  0
  -27.1550   -9.0600   20.8260 N   0  0  0  0  0  0  0  0  0  0  0  0
  -26.4040   -8.3370   21.6850 N   0  0  0  0  0  2  0  0  0  0  0  0
  -24.3520   -7.1560   21.7360 C   0  0  0  0  0  0  0  0  0  0  0  0
  -23.7820   -7.4600   22.9990 C   0  0  0  0  0  3  0  0  0  0  0  0
  -22.8380   -6.6000   23.6070 C   0  0  0  0  0  3  0  0  0  0  0  0
  -22.4300   -5.4080   22.9570 C   0  0  0  0  0  0  0  0  0  0  0  0
  -23.0100   -5.0880   21.7160 C   0  0  0  0  0  3  0  0  0  0  0  0
  -23.9590   -5.9430   21.1200 C   0  0  0  0  0  3  0  0  0  0  0  0
  -21.5440   -4.4900   23.4820 O   0  0  0  0  0  0  0  0  0  0  0  0
  -20.4870   -4.8680   24.2770 C   0  0  0  0  0  0  0  0  0  0  0  0
  -19.4670   -5.7210   23.8040 C   0  0  0  0  0  3  0  0  0  0  0  0
  -18.3610   -6.0240   24.6260 C   0  0  0  0  0  3  0  0  0  0  0  0
  -18.2700   -5.4720   25.9170 C   0  0  0  0  0  0  0  0  0  0  0  0
  -19.2790   -4.6140   26.3880 C   0  0  0  0  0  3  0  0  0  0  0  0
  -20.3810   -4.3110   25.5690 C   0  0  0  0  0  0  0  0  0  0  0  0
  -21.3360   -3.4620   26.0200 F   0  0  0  0  0  0  0  0  0  0  0  0
  -17.2060   -5.7590   26.7060 F   0  0  0  0  0  0  0  0  0  0  0  0
  -24.1670   -8.3320   18.8740 C   0  0  0  0  0  0  0  0  0  0  0  0
  -22.9330   -8.6590   19.2340 N   0  0  0  0  0  0  0  0  0  0  0  0
  -24.3400   -7.7910   17.7840 O   0  0  0  0  0  0  0  0  0  0  0  0
  -22.1550   -8.4390   18.6250 H   0  0  0  0  0  0  0  0  0  0  0  0
  -22.7600   -9.1840   20.0770 H   0  0  0  0  0  0  0  0  0  0  0  0
  -27.3160  -11.4160   17.8200 N   0  0  0  0  0  2  0  0  0  0  0  0
  -26.4880  -11.9870   17.7590 H   0  0  0  0  0  0  0  0  0  0  0  0
  -28.0340  -11.8910   18.3510 H   0  0  0  0  0  0  0  0  0  0  0  0
  -26.4170  -20.1200   20.0540 C   0  0  0  0  0  2  0  0  0  0  0  0
  -26.0100  -21.6400   20.0280 C   0  0  0  0  0  2  0  0  0  0  0  0
  -27.1390  -22.5980   19.5100 C   0  0  0  0  0  2  0  0  0  0  0  0
  -26.8680  -24.0740   19.5640 N   0  0  0  0  0  4  0  0  0  0  0  0
  -25.8860  -24.2480   19.4150 H   0  0  0  0  0  0  0  0  0  0  0  0
  -27.0670  -24.3850   20.5050 H   0  0  0  0  0  0  0  0  0  0  0  0
  -27.6620  -24.9150   18.6040 C   0  0  0  0  0  2  0  0  0  0  0  0
  -28.1810  -26.2710   19.1820 C   0  0  0  0  0  2  0  0  0  0  0  0
  -28.1490  -27.4350   18.3100 O   0  0  0  0  0  0  0  0  0  0  0  0
  -24.6680  -31.3560   23.0620 C   0  0  0  0  0  0  0  0  0  0  0  0
  -27.0290  -28.1920   18.5450 C   0  0  0  0  0  0  0  0  0  0  0  0
  -23.3120  -30.3420   21.2600 C   0  0  0  0  0  3  0  0  0  0  0  0
  -24.6080  -29.4350   19.2550 C   0  0  0  0  0  0  0  0  0  0  0  0
  -25.7460  -31.0060   20.8400 C   0  0  0  0  0  2  0  0  0  0  0  0
  -25.8120  -29.8850   19.8190 C   0  0  0  0  0  0  0  0  0  0  0  0
  -27.0340  -29.2710   19.4590 C   0  0  0  0  0  3  0  0  0  0  0  0
  -25.8230  -27.7870   17.9490 C   0  0  0  0  0  3  0  0  0  0  0  0
  -24.6080  -28.3940   18.3090 C   0  0  0  0  0  3  0  0  0  0  0  0
  -23.3390  -30.1080   19.7250 C   0  0  0  0  0  2  0  0  0  0  0  0
  -24.6010  -30.9010   21.7780 N   0  0  0  0  0  0  0  0  0  0  0  0
  -23.6700  -31.3520   23.7950 O   0  0  0  0  0  0  0  0  0  0  0  0
  -22.8890  -29.0310   21.9650 C   0  0  0  0  0  0  0  0  0  0  0  0
  -21.6030  -28.6650   21.8340 N   0  0  0  0  0  0  0  0  0  0  0  0
  -23.7120  -28.3560   22.5880 O   0  0  0  0  0  0  0  0  0  0  0  0
  -20.9890  -29.2780   21.3160 H   0  0  0  0  0  0  0  0  0  0  0  0
  -18.5210  -26.7840   22.0060 C   0  0  0  0  0  0  0  0  0  0  0  0
  -20.9920  -27.4520   22.3770 C   0  0  0  0  0  3  0  0  0  0  0  0
  -21.3460  -26.2160   21.5180 C   0  0  0  0  0  2  0  0  0  0  0  0
  -20.3020  -25.9120   20.4370 C   0  0  0  0  0  2  0  0  0  0  0  0
  -18.9310  -25.6600   21.0700 C   0  0  0  0  0  2  0  0  0  0  0  0
  -19.4860  -27.6350   22.6080 C   0  0  0  0  0  0  0  0  0  0  0  0
  -19.0470  -28.6870   23.4400 C   0  0  0  0  0  3  0  0  0  0  0  0
  -17.6750  -28.8910   23.6780 C   0  0  0  0  0  3  0  0  0  0  0  0
  -16.7250  -28.0370   23.0920 C   0  0  0  0  0  3  0  0  0  0  0  0
  -17.1490  -26.9840   22.2610 C   0  0  0  0  0  3  0  0  0  0  0  0
  -25.9930  -31.9200   23.6570 C   0  0  0  0  0  3  0  0  0  0  0  0
  -26.6120  -31.0020   24.7820 C   0  0  1  0  0  0  0  0  0  0  0  0
  -25.6110  -30.6160   25.8960 C   0  0  0  0  0  1  0  0  0  0  0  0
  -27.1630  -29.6920   24.1720 C   0  0  0  0  0  1  0  0  0  0  0  0
  -27.8110  -31.7250   25.4400 C   0  0  0  0  0  1  0  0  0  0  0  0
  -25.7020  -33.2600   24.1800 N   0  0  0  0  0  0  0  0  0  0  0  0
  -25.9970  -34.4050   23.5480 C   0  0  0  0  0  0  0  0  0  0  0  0
  -26.6180  -34.4430   22.4830 O   0  0  0  0  0  0  0  0  0  0  0  0
  -25.1420  -33.3010   25.0170 H   0  0  0  0  0  0  0  0  0  0  0  0
  -24.2620  -36.2250   23.5050 C   0  0  0  0  0  1  0  0  0  0  0  0
  -25.5310  -35.7190   24.2070 C   0  0  0  0  0  3  0  0  0  0  0  0
  -27.6900  -36.5050   25.0750 C   0  0  0  0  0  1  0  0  0  0  0  0
  -26.5600  -36.7830   24.1920 N   0  0  0  0  0  0  0  0  0  0  0  0
  -26.1590  -37.6780   24.4590 H   0  0  0  0  0  0  0  0  0  0  0  0
  1  3  1  0
  2  1  1  0
  5  1  1  0
  5  4  1  0
  6 11  1  0
  6  5  1  0
  7  9  1  0
  8 10  2  0
  8 11  1  0
 10 12  1  0
 11  7  2  0
 12 13  1  0
 12  9  2  0
 13 22  1  0
 14 21  2  0
 15 20  1  0
 16 15  1  0
 17 16  1  0
 18 17  1  0
 18 19  1  0
 19 20  1  0
 20 14  1  0
 22 23  1  0
 22 14  1  0
 24 25  1  0
 25 26  2  0
 26 28  1  0
 26 29  1  0
 27 24  1  0
 27 18  1  0
 27 28  1  0
 29 30  1  0
 30 31  2  0
 32 35  1  0
 32 31  1  0
 33 32  2  0
 34 33  1  0
 34 29  2  0
 35 36  1  0
 36 41  1  0
 37 36  2  0
 37 38  1  0
 38 39  2  0
 39 40  1  0
 39 43  1  0
 41 42  1  0
 41 40  2  0
 44 45  1  0
 44 25  1  0
 45 48  1  0
 46 44  2  0
 47 45  1  0
 49 51  1  0
 50 49  1  0
 52  1  1  0
 53 52  1  0
 54 55  1  0
 54 53  1  0
 55 57  1  0
 56 55  1  0
 58 59  1  0
 58 55  1  0
 60 62  1  0
 60 59  1  0
 61 72  2  0
 62 67  1  0
 63 71  1  0
 63 73  1  0
 64 70  1  0
 64 66  1  0
 65 71  1  0
 66 65  1  0
 67 66  2  0
 68 69  1  0
 68 62  2  0
 69 64  2  0
 70 63  1  0
 71 61  1  0
 73 75  2  0
 74 73  1  0
 76 74  1  0
 77 86  2  0
 77 82  1  0
 78 74  1  0
 78 82  1  0
 79 78  1  0
 80 81  1  0
 80 79  1  0
 81 77  1  0
 82 83  2  0
 83 84  1  0
 85 84  2  0
 86 85  1  0
 87 61  1  0
 87 92  1  0
 87 88  1  0
 88 91  1  1
 88 89  1  0
 90 88  1  0
 92 95  1  0
 93 92  1  0
 93 97  1  0
 94 93  2  0
 97 96  1  0
 99 97  1  0
 99100  1  0
 99 98  1  0
M  ISO  4  14 100  22 100  59 101  60 101
M  END
>  <TORSDO>  (25) 
F 26

>  <SCORE>  (25) 
19.181

>  <name>  (25) 
25

>  <ligand_id>  (25) 
25

>  <original_smiles>  (25) 
[H]c1c([H])c([H])c2c(c1[H])C([H])([H])C([H])([H])C([H])([H])C2([H])N([H])C(=O)C1([H])N(C(=O)C([H])(N([H])C(=O)C([H])(N([H])C([H])([H])[H])C([H])([H])[H])C(C([H])([H])[H])(C([H])([H])[H])C([H])([H])[H])C([H])([H])c2c([H])c(OC([H])([H])C([H])([H])[N+]([H])([H])C([H])([H])C([H])([H])C([H])([H])[N+]([H])([H])C([H])(C([H])([H])[H])C([H])([H])c3c([H])c([H])c(C([H])([H])N([H])C(=O)N4C([H])([H])C([H])([H])C([H])([H])C([H])(n5nc(-c6c([H])c([H])c(Oc7c([H])c([H])c(F)c([H])c7F)c([H])c6[H])c(C(=O)N([H])[H])c5N([H])[H])C4([H])[H])c([H])c3[H])c([H])c([H])c2C1([H])[H]

>  <smiles>  (25) 
[H]c1c([H])c([H])c2c(c1[H])C([H])([H])C([H])([H])C([H])([H])C2([H])N([H])C(=O)C1([H])N(C(=O)C([H])(N([H])C(=O)C([H])(N([H])C([H])([H])[H])C([H])([H])[H])C(C([H])([H])[H])(C([H])([H])[H])C([H])([H])[H])C([H])([H])c2c([H])c(OC([H])([H])C([H])([H])[N+]([H])([H])C([H])([H])C([H])([H])C([H])([H])[N+]([H])([H])C([H])(C([H])([H])[H])C([H])([H])c3c([H])c([H])c(C([H])([H])N([H])C(=O)N4C([H])([H])C([H])([H])C([H])([H])C([H])(n5nc(-c6c([H])c([H])c(Oc7c([H])c([H])c(F)c([H])c7F)c([H])c6[H])c(C(=O)N([H])[H])c5N([H])[H])C4([H])[H])c([H])c3[H])c([H])c([H])c2C1([H])[H]

$$$$
26:0:0
     RDKit          3D

 98105  0  0  1  0  0  0  0  0999 V2000
  -25.2030  -22.8230   16.9230 C   0  0  0  0  0  2  0  0  0  0  0  0
  -25.6530  -21.3920   17.2620 C   0  0  0  0  0  2  0  0  0  0  0  0
  -26.1210  -21.1950   18.7180 C   0  0  0  0  0  2  0  0  0  0  0  0
  -27.7450  -19.5420   19.6650 C   0  0  0  0  0  0  0  0  0  0  0  0
  -27.3730  -20.4450   18.7530 N   0  0  0  0  0  0  0  0  0  0  0  0
  -27.0150  -19.1710   20.5850 O   0  0  0  0  0  0  0  0  0  0  0  0
  -28.0570  -20.6800   18.0470 H   0  0  0  0  0  0  0  0  0  0  0  0
  -29.1720  -19.0090   19.5110 C   0  0  0  0  0  2  0  0  0  0  0  0
  -29.5620  -17.8860   20.4910 C   0  0  0  0  0  2  0  0  0  0  0  0
  -31.0530  -17.5230   20.3630 C   0  0  0  0  0  2  0  0  0  0  0  0
  -31.5080  -16.3880   21.2960 C   0  0  0  0  0  2  0  0  0  0  0  0
  -31.2860  -14.2250   20.0750 C   0  0  0  0  0  0  0  0  0  0  0  0
  -30.8240  -12.0670   18.9760 C   0  0  0  0  0  2  0  0  0  0  0  0
  -29.8480  -12.2440   17.7970 C   0  0  0  0  0  2  0  0  0  0  0  0
  -28.3860  -12.1920   18.2810 C   0  0  0  0  0  2  0  0  0  0  0  0
  -28.1270  -13.1190   19.4970 C   0  0  0  0  0  3  0  0  0  0  0  0
  -29.2020  -12.9000   20.5840 C   0  0  0  0  0  2  0  0  0  0  0  0
  -30.5300  -13.1030   19.9750 N   0  0  0  0  0  0  0  0  0  0  0  0
  -32.3030  -14.4240   19.4020 O   0  0  0  0  0  0  0  0  0  0  0  0
  -30.8620  -15.1170   20.9800 N   0  0  0  0  0  0  0  0  0  0  0  0
  -30.0370  -14.8700   21.5060 H   0  0  0  0  0  0  0  0  0  0  0  0
  -25.8060  -13.8850   20.3070 C   0  0  0  0  0  0  0  0  0  0  0  0
  -24.7040  -13.1850   20.7160 C   0  0  0  0  0  0  0  0  0  0  0  0
  -25.0700  -11.8050   20.6570 C   0  0  0  0  0  0  0  0  0  0  0  0
  -26.7780  -12.9380   20.0270 N   0  0  0  0  0  0  0  0  0  0  0  0
  -26.3390  -11.6810   20.2920 N   0  0  0  0  0  0  0  0  0  0  0  0
  -24.2690  -10.5940   20.8720 C   0  0  0  0  0  0  0  0  0  0  0  0
  -24.6480   -9.6160   21.8170 C   0  0  0  0  0  3  0  0  0  0  0  0
  -23.8530   -8.4670   22.0180 C   0  0  0  0  0  3  0  0  0  0  0  0
  -22.6620   -8.2890   21.2730 C   0  0  0  0  0  0  0  0  0  0  0  0
  -22.3020   -9.2540   20.3160 C   0  0  0  0  0  3  0  0  0  0  0  0
  -23.0980  -10.3950   20.1140 C   0  0  0  0  0  3  0  0  0  0  0  0
  -21.8400   -7.1930   21.3820 O   0  0  0  0  0  0  0  0  0  0  0  0
  -21.7190   -6.4990   22.5590 C   0  0  0  0  0  0  0  0  0  0  0  0
  -21.2990   -7.1230   23.7530 C   0  0  0  0  0  3  0  0  0  0  0  0
  -21.1220   -6.3580   24.9220 C   0  0  0  0  0  3  0  0  0  0  0  0
  -21.3540   -4.9690   24.8980 C   0  0  0  0  0  0  0  0  0  0  0  0
  -21.7680   -4.3450   23.7090 C   0  0  0  0  0  3  0  0  0  0  0  0
  -21.9460   -5.1080   22.5410 C   0  0  0  0  0  0  0  0  0  0  0  0
  -22.3240   -4.4980   21.3920 F   0  0  0  0  0  0  0  0  0  0  0  0
  -21.1760   -4.2320   26.0200 F   0  0  0  0  0  0  0  0  0  0  0  0
  -23.3550  -13.7520   21.0540 C   0  0  0  0  0  0  0  0  0  0  0  0
  -22.6250  -13.1030   21.9540 N   0  0  0  0  0  0  0  0  0  0  0  0
  -22.9610  -14.8060   20.5560 O   0  0  0  0  0  0  0  0  0  0  0  0
  -22.9550  -12.2500   22.3790 H   0  0  0  0  0  0  0  0  0  0  0  0
  -21.7210  -13.4650   22.2220 H   0  0  0  0  0  0  0  0  0  0  0  0
  -26.0550  -15.2430   20.1300 N   0  0  0  0  0  0  0  0  0  0  0  0
  -25.3460  -15.9510   20.2860 H   0  0  0  0  0  0  0  0  0  0  0  0
  -26.9290  -15.6280   19.7930 H   0  0  0  0  0  0  0  0  0  0  0  0
  -26.3670  -23.8340   16.9140 C   0  0  0  0  0  2  0  0  0  0  0  0
  -25.9900  -25.1730   16.2530 C   0  0  0  0  0  2  0  0  0  0  0  0
  -27.1850  -26.1050   15.9550 C   0  0  0  0  0  2  0  0  0  0  0  0
  -27.6470  -26.8780   17.1300 N   0  0  0  0  0  4  0  0  0  0  0  0
  -26.8640  -27.0530   17.7400 H   0  0  0  0  0  0  0  0  0  0  0  0
  -27.9520  -27.7750   16.7780 H   0  0  0  0  0  0  0  0  0  0  0  0
  -28.7750  -26.2780   17.8880 C   0  0  0  0  0  2  0  0  0  0  0  0
  -29.1370  -27.0750   19.1590 C   0  0  0  0  0  2  0  0  0  0  0  0
  -28.2670  -26.7440   20.2420 O   0  0  0  0  0  0  0  0  0  0  0  0
  -24.4990  -31.9570   23.3040 C   0  0  0  0  0  0  0  0  0  0  0  0
  -27.1110  -27.4770   20.2880 C   0  0  0  0  0  0  0  0  0  0  0  0
  -23.2840  -30.5400   21.6790 C   0  0  0  0  0  3  0  0  0  0  0  0
  -24.7270  -28.9690   20.2890 C   0  0  0  0  0  0  0  0  0  0  0  0
  -25.8110  -30.8850   21.4780 C   0  0  0  0  0  2  0  0  0  0  0  0
  -25.8880  -29.5050   20.8610 C   0  0  0  0  0  0  0  0  0  0  0  0
  -27.0890  -28.7660   20.8590 C   0  0  0  0  0  3  0  0  0  0  0  0
  -25.9270  -26.9230   19.7640 C   0  0  0  0  0  3  0  0  0  0  0  0
  -24.7370  -27.6720   19.7450 C   0  0  0  0  0  3  0  0  0  0  0  0
  -23.4930  -29.8400   20.3110 C   0  0  0  0  0  2  0  0  0  0  0  0
  -24.5490  -31.1430   22.2110 N   0  0  0  0  0  0  0  0  0  0  0  0
  -23.4200  -32.2470   23.8370 O   0  0  0  0  0  0  0  0  0  0  0  0
  -22.6190  -29.5400   22.6520 C   0  0  0  0  0  0  0  0  0  0  0  0
  -21.2980  -29.3550   22.5070 N   0  0  0  0  0  0  0  0  0  0  0  0
  -23.2900  -28.9350   23.4930 O   0  0  0  0  0  0  0  0  0  0  0  0
  -20.8180  -29.9030   21.8050 H   0  0  0  0  0  0  0  0  0  0  0  0
  -17.9210  -28.1520   22.9510 C   0  0  0  0  0  0  0  0  0  0  0  0
  -20.4690  -28.4340   23.2840 C   0  0  0  0  0  3  0  0  0  0  0  0
  -20.5960  -26.9860   22.7530 C   0  0  0  0  0  2  0  0  0  0  0  0
  -19.5240  -26.6270   21.7200 C   0  0  0  0  0  2  0  0  0  0  0  0
  -18.1240  -26.7830   22.3220 C   0  0  0  0  0  2  0  0  0  0  0  0
  -19.0220  -28.9340   23.3890 C   0  0  0  0  0  0  0  0  0  0  0  0
  -18.7810  -30.2140   23.9330 C   0  0  0  0  0  3  0  0  0  0  0  0
  -17.4700  -30.7130   24.0470 C   0  0  0  0  0  3  0  0  0  0  0  0
  -16.3820  -29.9290   23.6280 C   0  0  0  0  0  3  0  0  0  0  0  0
  -16.6080  -28.6510   23.0860 C   0  0  0  0  0  3  0  0  0  0  0  0
  -25.7920  -32.5780   23.9200 C   0  0  0  0  0  3  0  0  0  0  0  0
  -25.5030  -33.9870   24.2230 N   0  0  0  0  0  0  0  0  0  0  0  0
  -25.8680  -35.0190   23.4510 C   0  0  0  0  0  0  0  0  0  0  0  0
  -26.5520  -34.8850   22.4320 O   0  0  0  0  0  0  0  0  0  0  0  0
  -24.9020  -34.1640   25.0140 H   0  0  0  0  0  0  0  0  0  0  0  0
  -24.1840  -36.8350   23.0230 C   0  0  0  0  0  1  0  0  0  0  0  0
  -25.3970  -36.4230   23.8740 C   0  0  0  0  0  3  0  0  0  0  0  0
  -27.5290  -37.2810   24.7390 C   0  0  0  0  0  1  0  0  0  0  0  0
  -26.4510  -37.4530   23.7690 N   0  0  0  0  0  0  0  0  0  0  0  0
  -26.0600  -38.3840   23.8890 H   0  0  0  0  0  0  0  0  0  0  0  0
  -26.2930  -31.8200   25.2090 C   0  0  1  0  0  0  0  0  0  0  0  0
  -25.1920  -31.6110   26.2750 C   0  0  0  0  0  1  0  0  0  0  0  0
  -26.8610  -30.4300   24.8350 C   0  0  0  0  0  1  0  0  0  0  0  0
  -27.4480  -32.6130   25.8690 C   0  0  0  0  0  1  0  0  0  0  0  0
  1  2  1  0
  2  3  1  0
  3  5  1  0
  4  6  2  0
  5  4  1  0
  7  5  1  0
  8  4  1  0
  8  9  1  0
 10  9  1  0
 10 11  1  0
 12 20  1  0
 13 18  1  0
 14 15  1  0
 14 13  1  0
 16 15  1  0
 16 25  1  0
 16 17  1  0
 18 12  1  0
 18 17  1  0
 19 12  2  0
 20 11  1  0
 20 21  1  0
 22 23  2  0
 23 42  1  0
 24 23  1  0
 24 27  1  0
 25 26  1  0
 25 22  1  0
 26 24  2  0
 27 28  1  0
 28 29  2  0
 30 33  1  0
 30 29  1  0
 31 30  2  0
 32 31  1  0
 32 27  2  0
 33 34  1  0
 34 35  1  0
 35 36  2  0
 37 36  1  0
 37 41  1  0
 38 37  2  0
 39 34  2  0
 39 38  1  0
 40 39  1  0
 42 43  1  0
 43 46  1  0
 43 45  1  0
 44 42  2  0
 47 48  1  0
 47 22  1  0
 49 47  1  0
 50  1  1  0
 51 50  1  0
 52 51  1  0
 52 53  1  0
 53 54  1  0
 53 56  1  0
 55 53  1  0
 56 57  1  0
 57 58  1  0
 58 60  1  0
 59 70  2  0
 60 65  1  0
 61 69  1  0
 61 71  1  0
 62 68  1  0
 62 64  1  0
 63 69  1  0
 64 63  1  0
 65 64  2  0
 66 60  2  0
 67 66  1  0
 67 62  2  0
 68 61  1  0
 69 59  1  0
 71 73  2  0
 72 71  1  0
 74 72  1  0
 75 84  2  0
 75 80  1  0
 76 72  1  0
 76 80  1  0
 77 76  1  0
 78 79  1  0
 78 77  1  0
 79 75  1  0
 80 81  2  0
 81 82  1  0
 83 82  2  0
 84 83  1  0
 85 59  1  0
 85 86  1  0
 85 95  1  0
 86 89  1  0
 87 91  1  0
 87 86  1  0
 88 87  2  0
 91 90  1  0
 93 91  1  0
 93 94  1  0
 93 92  1  0
 95 98  1  1
 95 96  1  0
 97 95  1  0
M  ISO  4  12 100  20 100  57 101  58 101
M  END
>  <TORSDO>  (26) 
F 29

>  <SCORE>  (26) 
-9.909

>  <name>  (26) 
26

>  <ligand_id>  (26) 
26

>  <original_smiles>  (26) 
[H]c1c([H])c([H])c2c(c1[H])C([H])([H])C([H])([H])C([H])([H])C2([H])N([H])C(=O)C1([H])N(C(=O)C([H])(N([H])C(=O)C([H])(N([H])C([H])([H])[H])C([H])([H])[H])C(C([H])([H])[H])(C([H])([H])[H])C([H])([H])[H])C([H])([H])c2c([H])c(OC([H])([H])C([H])([H])[N+]([H])([H])C([H])([H])C([H])([H])C([H])([H])C([H])([H])C([H])([H])C([H])([H])N([H])C(=O)C([H])([H])C([H])([H])C([H])([H])C([H])([H])N([H])C(=O)N3C([H])([H])C([H])([H])C([H])([H])C([H])(n4nc(-c5c([H])c([H])c(Oc6c([H])c([H])c(F)c([H])c6F)c([H])c5[H])c(C(=O)N([H])[H])c4N([H])[H])C3([H])[H])c([H])c([H])c2C1([H])[H]

>  <smiles>  (26) 
[H]c1c([H])c([H])c2c(c1[H])C([H])([H])C([H])([H])C([H])([H])C2([H])N([H])C(=O)C1([H])N(C(=O)C([H])(N([H])C(=O)C([H])(N([H])C([H])([H])[H])C([H])([H])[H])C(C([H])([H])[H])(C([H])([H])[H])C([H])([H])[H])C([H])([H])c2c([H])c(OC([H])([H])C([H])([H])[N+]([H])([H])C([H])([H])C([H])([H])C([H])([H])C([H])([H])C([H])([H])C([H])([H])N([H])C(=O)C([H])([H])C([H])([H])C([H])([H])C([H])([H])N([H])C(=O)N3C([H])([H])C([H])([H])C([H])([H])C([H])(n4nc(-c5c([H])c([H])c(Oc6c([H])c([H])c(F)c([H])c6F)c([H])c5[H])c(C(=O)N([H])[H])c4N([H])[H])C3([H])[H])c([H])c([H])c2C1([H])[H]

$$$$
27:0:0
     RDKit          3D

101108  0  0  1  0  0  0  0  0999 V2000
  -25.6580  -20.0980   23.4150 N   0  0  0  0  0  4  0  0  0  0  0  0
  -24.8110  -20.1810   23.9550 H   0  0  0  0  0  0  0  0  0  0  0  0
  -25.3880  -19.9170   22.4620 H   0  0  0  0  0  0  0  0  0  0  0  0
  -26.4020  -21.3690   23.5000 C   0  0  0  0  0  2  0  0  0  0  0  0
  -25.4920  -22.5520   23.1270 C   0  0  0  0  0  2  0  0  0  0  0  0
  -26.2430  -23.8870   23.0300 C   0  0  0  0  0  2  0  0  0  0  0  0
  -27.0170  -23.9840   21.7730 N   0  0  0  0  0  4  0  0  0  0  0  0
  -26.3520  -24.0580   21.0180 H   0  0  0  0  0  0  0  0  0  0  0  0
  -27.5610  -23.1480   21.6190 H   0  0  0  0  0  0  0  0  0  0  0  0
  -27.9300  -25.1420   21.7300 C   0  0  0  0  0  2  0  0  0  0  0  0
  -28.4260  -25.4250   20.2970 C   0  0  0  0  0  2  0  0  0  0  0  0
  -28.4570  -26.8270   20.0570 O   0  0  0  0  0  0  0  0  0  0  0  0
  -24.6100  -31.8690   23.2130 C   0  0  0  0  0  0  0  0  0  0  0  0
  -27.2550  -27.4960   20.0670 C   0  0  0  0  0  0  0  0  0  0  0  0
  -23.3960  -30.4940   21.5490 C   0  0  0  0  0  3  0  0  0  0  0  0
  -24.8460  -28.9650   20.1170 C   0  0  0  0  0  0  0  0  0  0  0  0
  -25.9190  -30.8520   21.3570 C   0  0  0  0  0  2  0  0  0  0  0  0
  -26.0000  -29.4900   20.7080 C   0  0  0  0  0  0  0  0  0  0  0  0
  -27.2050  -28.7610   20.6820 C   0  0  0  0  0  3  0  0  0  0  0  0
  -26.0790  -26.9700   19.4800 C   0  0  0  0  0  3  0  0  0  0  0  0
  -24.8750  -27.6980   19.5060 C   0  0  0  0  0  3  0  0  0  0  0  0
  -23.6050  -29.8240   20.1640 C   0  0  0  0  0  2  0  0  0  0  0  0
  -24.6600  -31.0840   22.1000 N   0  0  0  0  0  0  0  0  0  0  0  0
  -23.5320  -32.1390   23.7590 O   0  0  0  0  0  0  0  0  0  0  0  0
  -22.7380  -29.4660   22.4980 C   0  0  0  0  0  0  0  0  0  0  0  0
  -21.4110  -29.3030   22.3730 N   0  0  0  0  0  0  0  0  0  0  0  0
  -23.4170  -28.8160   23.2980 O   0  0  0  0  0  0  0  0  0  0  0  0
  -20.9240  -29.8800   21.7020 H   0  0  0  0  0  0  0  0  0  0  0  0
  -18.0260  -28.1380   22.8480 C   0  0  0  0  0  0  0  0  0  0  0  0
  -20.5850  -28.3650   23.1330 C   0  0  0  0  0  3  0  0  0  0  0  0
  -20.6750  -26.9390   22.5420 C   0  0  0  0  0  2  0  0  0  0  0  0
  -19.5730  -26.6380   21.5200 C   0  0  0  0  0  2  0  0  0  0  0  0
  -18.1900  -26.7930   22.1610 C   0  0  0  0  0  2  0  0  0  0  0  0
  -19.1510  -28.8840   23.2910 C   0  0  0  0  0  0  0  0  0  0  0  0
  -18.9460  -30.1460   23.8920 C   0  0  0  0  0  3  0  0  0  0  0  0
  -17.6460  -30.6600   24.0580 C   0  0  0  0  0  3  0  0  0  0  0  0
  -16.5340  -29.9100   23.6340 C   0  0  0  0  0  3  0  0  0  0  0  0
  -16.7250  -28.6530   23.0340 C   0  0  0  0  0  3  0  0  0  0  0  0
  -25.9020  -32.4830   23.8400 C   0  0  0  0  0  3  0  0  0  0  0  0
  -25.5890  -33.8630   24.2330 N   0  0  0  0  0  0  0  0  0  0  0  0
  -25.9010  -34.9480   23.5130 C   0  0  0  0  0  0  0  0  0  0  0  0
  -26.5570  -34.8920   22.4680 O   0  0  0  0  0  0  0  0  0  0  0  0
  -25.0110  -33.9810   25.0530 H   0  0  0  0  0  0  0  0  0  0  0  0
  -24.1470  -36.7330   23.2620 C   0  0  0  0  0  1  0  0  0  0  0  0
  -25.4080  -36.3110   24.0330 C   0  0  0  0  0  3  0  0  0  0  0  0
  -27.5580  -37.1810   24.8450 C   0  0  0  0  0  1  0  0  0  0  0  0
  -26.4280  -37.3790   23.9420 N   0  0  0  0  0  0  0  0  0  0  0  0
  -26.0160  -38.2860   24.1470 H   0  0  0  0  0  0  0  0  0  0  0  0
  -26.4480  -31.6600   25.0700 C   0  0  1  0  0  0  0  0  0  0  0  0
  -25.3800  -31.3710   26.1480 C   0  0  0  0  0  1  0  0  0  0  0  0
  -27.0290  -30.3030   24.6060 C   0  0  0  0  0  1  0  0  0  0  0  0
  -27.6040  -32.4320   25.7480 C   0  0  0  0  0  1  0  0  0  0  0  0
  -26.3750  -18.9160   23.9180 C   0  0  0  0  0  2  0  0  0  0  0  0
  -27.6580  -18.6080   23.1320 C   0  0  0  0  0  2  0  0  0  0  0  0
  -28.0590  -17.1620   23.3710 C   0  0  0  0  0  2  0  0  0  0  0  0
  -29.3970  -16.7710   22.7440 C   0  0  0  0  0  2  0  0  0  0  0  0
  -29.5430  -15.2450   22.7000 C   0  0  0  0  0  3  0  0  0  0  0  0
  -30.7960  -14.2990   20.6990 C   0  0  0  0  0  0  0  0  0  0  0  0
  -30.4370  -12.2840   19.3400 C   0  0  0  0  0  2  0  0  0  0  0  0
  -29.4780  -12.5770   18.1690 C   0  0  0  0  0  2  0  0  0  0  0  0
  -27.9970  -12.4470   18.5900 C   0  0  0  0  0  2  0  0  0  0  0  0
  -27.6890  -13.1880   19.9180 C   0  0  0  0  0  3  0  0  0  0  0  0
  -28.7430  -12.7600   20.9620 C   0  0  0  0  0  2  0  0  0  0  0  0
  -30.0780  -13.1600   20.4690 N   0  0  0  0  0  0  0  0  0  0  0  0
  -31.7390  -14.6500   19.9840 O   0  0  0  0  0  0  0  0  0  0  0  0
  -30.7020  -14.9030   21.8880 N   0  0  0  0  0  0  0  0  0  0  0  0
  -31.4890  -15.5130   22.0470 H   0  0  0  0  0  0  0  0  0  0  0  0
  -25.2710  -13.8100   20.5740 C   0  0  0  0  0  0  0  0  0  0  0  0
  -24.1900  -13.0410   20.9170 C   0  0  0  0  0  0  0  0  0  0  0  0
  -24.6410  -11.6870   20.8730 C   0  0  0  0  0  0  0  0  0  0  0  0
  -26.3190  -12.9250   20.3620 N   0  0  0  0  0  0  0  0  0  0  0  0
  -25.9360  -11.6420   20.5860 N   0  0  0  0  0  0  0  0  0  0  0  0
  -23.9060  -10.4270   21.0400 C   0  0  0  0  0  0  0  0  0  0  0  0
  -24.3620   -9.4190   21.9180 C   0  0  0  0  0  3  0  0  0  0  0  0
  -23.6290   -8.2230   22.0730 C   0  0  0  0  0  3  0  0  0  0  0  0
  -22.4270   -8.0270   21.3520 C   0  0  0  0  0  0  0  0  0  0  0  0
  -21.9920   -9.0250   20.4620 C   0  0  0  0  0  3  0  0  0  0  0  0
  -22.7240  -10.2130   20.3040 C   0  0  0  0  0  3  0  0  0  0  0  0
  -21.6600   -6.8890   21.4240 O   0  0  0  0  0  0  0  0  0  0  0  0
  -21.6860   -6.0750   22.5270 C   0  0  0  0  0  0  0  0  0  0  0  0
  -21.4010   -6.5640   23.8220 C   0  0  0  0  0  3  0  0  0  0  0  0
  -21.3670   -5.6780   24.9160 C   0  0  0  0  0  3  0  0  0  0  0  0
  -21.6050   -4.3050   24.7220 C   0  0  0  0  0  0  0  0  0  0  0  0
  -21.8830   -3.8150   23.4340 C   0  0  0  0  0  3  0  0  0  0  0  0
  -21.9180   -4.6970   22.3400 C   0  0  0  0  0  0  0  0  0  0  0  0
  -22.1660   -4.2150   21.0980 F   0  0  0  0  0  0  0  0  0  0  0  0
  -21.5630   -3.4550   25.7750 F   0  0  0  0  0  0  0  0  0  0  0  0
  -22.7920  -13.5220   21.1830 C   0  0  0  0  0  0  0  0  0  0  0  0
  -22.0520  -12.8190   22.0350 N   0  0  0  0  0  0  0  0  0  0  0  0
  -22.3640  -14.5570   20.6720 O   0  0  0  0  0  0  0  0  0  0  0  0
  -22.4080  -11.9810   22.4710 H   0  0  0  0  0  0  0  0  0  0  0  0
  -21.1140  -13.1240   22.2530 H   0  0  0  0  0  0  0  0  0  0  0  0
  -25.4430  -15.1810   20.4130 N   0  0  0  0  0  0  0  0  0  0  0  0
  -24.6720  -15.8330   20.4880 H   0  0  0  0  0  0  0  0  0  0  0  0
  -26.2890  -15.6130   20.0630 H   0  0  0  0  0  0  0  0  0  0  0  0
  -29.7150  -14.5770   24.0900 C   0  0  0  0  0  2  0  0  0  0  0  0
  -28.4110  -14.1410   24.7940 C   0  0  0  0  0  2  0  0  0  0  0  0
  -28.6590  -13.6860   26.1720 N   0  0  0  0  0  4  0  0  0  0  0  0
  -29.3220  -12.9330   26.1890 H   0  0  0  0  0  0  0  0  0  0  0  0
  -27.8040  -13.3550   26.5820 H   0  0  0  0  0  0  0  0  0  0  0  0
  -29.0110  -14.4350   26.7430 H   0  0  0  0  0  0  0  0  0  0  0  0
  1  4  1  0
  1 53  1  0
  1  2  1  0
  3  1  1  0
  5  4  1  0
  6  5  1  0
  7  6  1  0
  8  7  1  0
  9  7  1  0
 10  7  1  0
 11 10  1  0
 12 14  1  0
 12 11  1  0
 13 24  2  0
 14 19  1  0
 15 23  1  0
 15 25  1  0
 16 22  1  0
 16 18  1  0
 17 23  1  0
 18 17  1  0
 19 18  2  0
 20 21  1  0
 20 14  2  0
 21 16  2  0
 22 15  1  0
 23 13  1  0
 25 27  2  0
 26 25  1  0
 28 26  1  0
 29 38  2  0
 29 34  1  0
 30 26  1  0
 30 34  1  0
 31 30  1  0
 32 33  1  0
 32 31  1  0
 33 29  1  0
 34 35  2  0
 35 36  1  0
 37 36  2  0
 38 37  1  0
 39 13  1  0
 39 40  1  0
 39 49  1  0
 40 43  1  0
 41 45  1  0
 41 40  1  0
 42 41  2  0
 45 44  1  0
 47 45  1  0
 47 48  1  0
 47 46  1  0
 49 52  1  1
 49 50  1  0
 51 49  1  0
 54 55  1  0
 54 53  1  0
 56 55  1  0
 57 56  1  0
 57 96  1  0
 58 66  1  0
 59 64  1  0
 60 61  1  0
 60 59  1  0
 62 61  1  0
 62 71  1  0
 62 63  1  0
 64 58  1  0
 64 63  1  0
 65 58  2  0
 66 67  1  0
 66 57  1  0
 68 69  2  0
 69 88  1  0
 70 69  1  0
 70 73  1  0
 71 68  1  0
 71 72  1  0
 72 70  2  0
 73 74  1  0
 74 75  2  0
 76 79  1  0
 76 75  1  0
 77 76  2  0
 78 77  1  0
 78 73  2  0
 79 80  1  0
 80 81  1  0
 81 82  2  0
 83 82  1  0
 83 87  1  0
 84 83  2  0
 85 80  2  0
 85 84  1  0
 86 85  1  0
 88 89  1  0
 89 92  1  0
 89 91  1  0
 90 88  2  0
 93 94  1  0
 93 68  1  0
 95 93  1  0
 96 97  1  0
 97 98  1  0
 98 99  1  0
 98100  1  0
 98101  1  0
M  ISO  4  11 101  12 101  58 100  66 100
M  END
>  <TORSDO>  (27) 
F 30

>  <SCORE>  (27) 
54.533

>  <name>  (27) 
27

>  <ligand_id>  (27) 
27

>  <original_smiles>  (27) 
[H]c1c([H])c([H])c2c(c1[H])C([H])([H])C([H])([H])C([H])([H])C2([H])N([H])C(=O)C1([H])N(C(=O)C([H])(N([H])C(=O)C([H])(N([H])C([H])([H])[H])C([H])([H])[H])C(C([H])([H])[H])(C([H])([H])[H])C([H])([H])[H])C([H])([H])c2c([H])c(OC([H])([H])C([H])([H])[N+]([H])([H])C([H])([H])C([H])([H])C([H])([H])[N+]([H])([H])C([H])([H])C([H])([H])C([H])([H])C([H])([H])C([H])(N([H])C(=O)N3C([H])([H])C([H])([H])C([H])([H])C([H])(n4nc(-c5c([H])c([H])c(Oc6c([H])c([H])c(F)c([H])c6F)c([H])c5[H])c(C(=O)N([H])[H])c4N([H])[H])C3([H])[H])C([H])([H])C([H])([H])[N+]([H])([H])[H])c([H])c([H])c2C1([H])[H]

>  <smiles>  (27) 
[H]c1c([H])c([H])c2c(c1[H])C([H])([H])C([H])([H])C([H])([H])C2([H])N([H])C(=O)C1([H])N(C(=O)C([H])(N([H])C(=O)C([H])(N([H])C([H])([H])[H])C([H])([H])[H])C(C([H])([H])[H])(C([H])([H])[H])C([H])([H])[H])C([H])([H])c2c([H])c(OC([H])([H])C([H])([H])[N+]([H])([H])C([H])([H])C([H])([H])C([H])([H])[N+]([H])([H])C([H])([H])C([H])([H])C([H])([H])C([H])([H])C([H])(N([H])C(=O)N3C([H])([H])C([H])([H])C([H])([H])C([H])(n4nc(-c5c([H])c([H])c(Oc6c([H])c([H])c(F)c([H])c6F)c([H])c5[H])c(C(=O)N([H])[H])c4N([H])[H])C3([H])[H])C([H])([H])C([H])([H])[N+]([H])([H])[H])c([H])c([H])c2C1([H])[H]

$$$$
28:0:0
     RDKit          3D

107114  0  0  1  0  0  0  0  0999 V2000
  -29.1480  -18.8000   17.3650 C   0  0  0  0  0  2  0  0  0  0  0  0
  -28.1310  -19.9620   17.3650 C   0  0  0  0  0  2  0  0  0  0  0  0
  -28.1340  -20.7530   18.6170 N   0  0  0  0  0  4  0  0  0  0  0  0
  -29.0550  -20.6930   19.0250 H   0  0  0  0  0  0  0  0  0  0  0  0
  -27.4780  -20.3350   19.2560 H   0  0  0  0  0  0  0  0  0  0  0  0
  -27.7930  -22.1840   18.4150 C   0  0  0  0  0  2  0  0  0  0  0  0
  -26.9970  -22.8110   19.5870 C   0  0  0  0  0  2  0  0  0  0  0  0
  -25.4530  -22.8420   19.4450 C   0  0  0  0  0  2  0  0  0  0  0  0
  -24.9370  -23.9330   18.5770 N   0  0  0  0  0  4  0  0  0  0  0  0
  -25.4460  -23.9470   17.7060 H   0  0  0  0  0  0  0  0  0  0  0  0
  -25.0950  -24.8190   19.0330 H   0  0  0  0  0  0  0  0  0  0  0  0
  -23.4880  -23.8140   18.2620 C   0  0  0  0  0  2  0  0  0  0  0  0
  -23.0260  -24.8070   17.1760 C   0  0  0  0  0  2  0  0  0  0  0  0
  -24.0740  -24.8600   16.2180 O   0  0  0  0  0  0  0  0  0  0  0  0
  -21.0560  -26.9570   10.0470 C   0  0  0  0  0  0  0  0  0  0  0  0
  -23.9910  -25.7220   15.1490 C   0  0  0  0  0  0  0  0  0  0  0  0
  -23.2520  -27.9510   10.6060 C   0  0  0  0  0  3  0  0  0  0  0  0
  -24.0760  -27.5360   12.9820 C   0  0  0  0  0  0  0  0  0  0  0  0
  -21.6600  -27.1760   12.4540 C   0  0  0  0  0  2  0  0  0  0  0  0
  -22.8790  -26.8830   13.3040 C   0  0  0  0  0  0  0  0  0  0  0  0
  -22.8230  -25.9800   14.3890 C   0  0  0  0  0  3  0  0  0  0  0  0
  -25.1920  -26.3690   14.7950 C   0  0  0  0  0  3  0  0  0  0  0  0
  -25.2420  -27.2790   13.7240 C   0  0  0  0  0  3  0  0  0  0  0  0
  -24.0440  -28.5030   11.8210 C   0  0  0  0  0  2  0  0  0  0  0  0
  -21.9530  -27.3180   11.0080 N   0  0  0  0  0  0  0  0  0  0  0  0
  -21.2740  -27.1840    8.8500 O   0  0  0  0  0  0  0  0  0  0  0  0
  -24.1740  -27.0050    9.8070 C   0  0  0  0  0  0  0  0  0  0  0  0
  -25.1350  -27.5870    9.0700 N   0  0  0  0  0  0  0  0  0  0  0  0
  -24.0380  -25.7800    9.8760 O   0  0  0  0  0  0  0  0  0  0  0  0
  -25.1760  -28.5960    9.0600 H   0  0  0  0  0  0  0  0  0  0  0  0
  -28.0130  -28.0930    6.9440 C   0  0  0  0  0  0  0  0  0  0  0  0
  -26.1420  -26.8960    8.2680 C   0  0  0  0  0  3  0  0  0  0  0  0
  -27.2740  -26.3340    9.1590 C   0  0  0  0  0  2  0  0  0  0  0  0
  -28.4620  -27.2900    9.3020 C   0  0  0  0  0  2  0  0  0  0  0  0
  -29.0630  -27.6090    7.9300 C   0  0  0  0  0  2  0  0  0  0  0  0
  -26.6400  -27.7720    7.1120 C   0  0  0  0  0  0  0  0  0  0  0  0
  -25.7010  -28.2780    6.1870 C   0  0  0  0  0  3  0  0  0  0  0  0
  -26.1120  -29.0880    5.1120 C   0  0  0  0  0  3  0  0  0  0  0  0
  -27.4740  -29.3890    4.9410 C   0  0  0  0  0  3  0  0  0  0  0  0
  -28.4210  -28.8890    5.8540 C   0  0  0  0  0  3  0  0  0  0  0  0
  -19.7040  -26.2660   10.4090 C   0  0  0  0  0  3  0  0  0  0  0  0
  -18.6630  -26.8610    9.5600 N   0  0  0  0  0  0  0  0  0  0  0  0
  -17.8160  -27.8220    9.9560 C   0  0  0  0  0  0  0  0  0  0  0  0
  -17.7860  -28.2530   11.1120 O   0  0  0  0  0  0  0  0  0  0  0  0
  -18.6660  -26.5960    8.5850 H   0  0  0  0  0  0  0  0  0  0  0  0
  -17.3910  -29.7400    8.3890 C   0  0  0  0  0  1  0  0  0  0  0  0
  -16.8520  -28.3950    8.9010 C   0  0  0  0  0  3  0  0  0  0  0  0
  -14.7880  -27.3050    9.6620 C   0  0  0  0  0  1  0  0  0  0  0  0
  -15.4700  -28.5690    9.4010 N   0  0  0  0  0  0  0  0  0  0  0  0
  -14.9120  -29.1010    8.7390 H   0  0  0  0  0  0  0  0  0  0  0  0
  -19.7400  -24.6980   10.2350 C   0  0  1  0  0  0  0  0  0  0  0  0
  -20.2750  -24.2370    8.8590 C   0  0  0  0  0  1  0  0  0  0  0  0
  -20.6210  -24.0490   11.3270 C   0  0  0  0  0  1  0  0  0  0  0  0
  -18.3160  -24.1190   10.4120 C   0  0  0  0  0  1  0  0  0  0  0  0
  -29.3060  -18.0450   18.7040 C   0  0  0  0  0  2  0  0  0  0  0  0
  -30.5380  -17.1160   18.6850 C   0  0  0  0  0  2  0  0  0  0  0  0
  -31.2440  -16.7970   20.0370 C   0  0  0  0  0  3  0  0  0  0  0  0
  -33.3420  -18.1460   19.6570 C   0  0  0  0  0  0  0  0  0  0  0  0
  -35.0510  -19.1230   18.1770 C   0  0  0  0  0  2  0  0  0  0  0  0
  -34.5270  -19.0600   16.7270 C   0  0  0  0  0  2  0  0  0  0  0  0
  -34.8600  -17.7000   16.0800 C   0  0  0  0  0  2  0  0  0  0  0  0
  -34.4660  -16.4980   16.9760 C   0  0  0  0  0  3  0  0  0  0  0  0
  -34.9920  -16.7050   18.4170 C   0  0  0  0  0  2  0  0  0  0  0  0
  -34.4700  -17.9950   18.9160 N   0  0  0  0  0  0  0  0  0  0  0  0
  -32.8800  -19.2400   19.9960 O   0  0  0  0  0  0  0  0  0  0  0  0
  -32.6780  -16.9980   19.8340 N   0  0  0  0  0  0  0  0  0  0  0  0
  -33.2010  -16.1840   19.5420 H   0  0  0  0  0  0  0  0  0  0  0  0
  -34.1960  -14.2390   15.7620 C   0  0  0  0  0  0  0  0  0  0  0  0
  -35.1090  -13.2960   15.3720 C   0  0  0  0  0  0  0  0  0  0  0  0
  -36.3810  -13.7790   15.8020 C   0  0  0  0  0  0  0  0  0  0  0  0
  -34.9240  -15.2310   16.4090 N   0  0  0  0  0  0  0  0  0  0  0  0
  -36.2420  -14.9180   16.4680 N   0  0  0  0  0  0  0  0  0  0  0  0
  -37.7330  -13.2530   15.5690 C   0  0  0  0  0  0  0  0  0  0  0  0
  -38.5920  -12.9290   16.6410 C   0  0  0  0  0  3  0  0  0  0  0  0
  -39.8810  -12.4100   16.3950 C   0  0  0  0  0  3  0  0  0  0  0  0
  -40.3220  -12.2040   15.0670 C   0  0  0  0  0  0  0  0  0  0  0  0
  -39.4700  -12.5480   14.0020 C   0  0  0  0  0  3  0  0  0  0  0  0
  -38.1900  -13.0710   14.2470 C   0  0  0  0  0  3  0  0  0  0  0  0
  -41.5670  -11.7280   14.7310 O   0  0  0  0  0  0  0  0  0  0  0  0
  -42.2440  -10.8470   15.5370 C   0  0  0  0  0  0  0  0  0  0  0  0
  -41.6860   -9.6060   15.9100 C   0  0  0  0  0  3  0  0  0  0  0  0
  -42.4420   -8.6980   16.6800 C   0  0  0  0  0  3  0  0  0  0  0  0
  -43.7550   -9.0260   17.0680 C   0  0  0  0  0  0  0  0  0  0  0  0
  -44.3140  -10.2610   16.6910 C   0  0  0  0  0  3  0  0  0  0  0  0
  -43.5610  -11.1660   15.9240 C   0  0  0  0  0  0  0  0  0  0  0  0
  -44.1120  -12.3450   15.5470 F   0  0  0  0  0  0  0  0  0  0  0  0
  -44.4830   -8.1520   17.8010 F   0  0  0  0  0  0  0  0  0  0  0  0
  -34.8310  -12.0620   14.5620 C   0  0  0  0  0  0  0  0  0  0  0  0
  -35.5700  -10.9860   14.8100 N   0  0  0  0  0  0  0  0  0  0  0  0
  -33.9220  -12.0330   13.7330 O   0  0  0  0  0  0  0  0  0  0  0  0
  -36.3040  -11.0020   15.5030 H   0  0  0  0  0  0  0  0  0  0  0  0
  -35.4010  -10.1340   14.2960 H   0  0  0  0  0  0  0  0  0  0  0  0
  -32.8180  -14.3490   15.6080 N   0  0  0  0  0  0  0  0  0  0  0  0
  -32.2790  -13.6880   15.0610 H   0  0  0  0  0  0  0  0  0  0  0  0
  -32.2840  -15.1690   15.8720 H   0  0  0  0  0  0  0  0  0  0  0  0
  -31.0890  -15.3420   20.5430 C   0  0  0  0  0  2  0  0  0  0  0  0
  -29.6590  -14.8110   20.6570 C   0  0  0  0  0  0  0  0  0  0  0  0
  -28.8190  -15.3540   21.3800 O   0  0  0  0  0  0  0  0  0  0  0  0
  -29.3400  -13.5290   19.8930 C   0  0  0  0  0  2  0  0  0  0  0  0
  -28.8970  -12.3920   20.8210 C   0  0  0  0  0  2  0  0  0  0  0  0
  -27.3970  -12.3130   20.8480 C   0  0  0  0  0  0  0  0  0  0  0  0
  -26.6850  -13.2310   21.5140 N   0  0  0  0  0  0  0  0  0  0  0  0
  -26.7880  -11.3340   20.1650 N   0  0  0  0  0  4  0  0  0  0  0  0
  -27.1620  -14.0200   21.9390 H   0  0  0  0  0  0  0  0  0  0  0  0
  -25.6810  -13.1950   21.6330 H   0  0  0  0  0  0  0  0  0  0  0  0
  -27.3420  -10.6560   19.6560 H   0  0  0  0  0  0  0  0  0  0  0  0
  -25.7860  -11.2060   20.1310 H   0  0  0  0  0  0  0  0  0  0  0  0
  1 55  1  0
  2  1  1  0
  2  3  1  0
  3  4  1  0
  3  5  1  0
  6  3  1  0
  6  7  1  0
  8  7  1  0
  9 11  1  0
  9  8  1  0
 10  9  1  0
 12  9  1  0
 13 12  1  0
 14 13  1  0
 15 25  1  0
 16 14  1  0
 17 27  1  0
 17 25  1  0
 17 24  1  0
 18 20  2  0
 18 23  1  0
 19 20  1  0
 20 21  1  0
 21 16  2  0
 22 16  1  0
 23 22  2  0
 24 18  1  0
 25 19  1  0
 26 15  2  0
 27 29  2  0
 28 27  1  0
 30 28  1  0
 31 36  1  0
 31 35  1  0
 32 28  1  0
 32 33  1  0
 33 34  1  0
 35 34  1  0
 36 32  1  0
 37 36  2  0
 38 37  1  0
 39 38  2  0
 39 40  1  0
 40 31  2  0
 41 15  1  0
 42 43  1  0
 42 41  1  0
 43 44  2  0
 45 42  1  0
 47 46  1  0
 47 49  1  0
 47 43  1  0
 49 48  1  0
 50 49  1  0
 51 41  1  0
 51 54  1  1
 51 53  1  0
 52 51  1  0
 56 55  1  0
 57 56  1  0
 57 96  1  0
 58 66  1  0
 58 65  2  0
 59 64  1  0
 60 59  1  0
 61 60  1  0
 62 61  1  0
 62 63  1  0
 63 64  1  0
 64 58  1  0
 66 57  1  0
 67 66  1  0
 68 71  1  0
 69 68  2  0
 69 70  1  0
 70 72  2  0
 71 72  1  0
 71 62  1  0
 73 70  1  0
 73 74  1  0
 75 74  2  0
 76 75  1  0
 77 78  1  0
 77 76  2  0
 78 73  2  0
 79 76  1  0
 79 80  1  0
 80 81  2  0
 80 85  1  0
 81 82  1  0
 82 83  2  0
 83 87  1  0
 84 83  1  0
 85 84  2  0
 86 85  1  0
 88 89  1  0
 88 69  1  0
 89 91  1  0
 90 88  2  0
 92 89  1  0
 93 68  1  0
 93 95  1  0
 94 93  1  0
 96 97  1  0
 97 98  2  0
 99 97  1  0
 99100  1  0
100101  1  0
101102  1  0
102105  1  0
102104  1  0
103101  2  0
106103  1  0
107103  1  0
M  ISO  4  13 101  14 101  58 100  66 100
M  END
>  <TORSDO>  (28) 
F 32

>  <SCORE>  (28) 
-4.286

>  <name>  (28) 
28

>  <ligand_id>  (28) 
28

>  <original_smiles>  (28) 
[H]c1c([H])c([H])c2c(c1[H])C([H])([H])C([H])([H])C([H])([H])C2([H])N([H])C(=O)C1([H])N(C(=O)C([H])(N([H])C(=O)C([H])(N([H])C([H])([H])[H])C([H])([H])[H])C(C([H])([H])[H])(C([H])([H])[H])C([H])([H])[H])C([H])([H])c2c([H])c(OC([H])([H])C([H])([H])[N+]([H])([H])C([H])([H])C([H])([H])C([H])([H])[N+]([H])([H])C([H])([H])C([H])([H])C([H])([H])C([H])([H])C([H])(N([H])C(=O)N3C([H])([H])C([H])([H])C([H])([H])C([H])(n4nc(-c5c([H])c([H])c(Oc6c([H])c([H])c(F)c([H])c6F)c([H])c5[H])c(C(=O)N([H])[H])c4N([H])[H])C3([H])[H])C([H])([H])C(=O)C([H])([H])C([H])([H])C(N([H])[H])=[N+]([H])[H])c([H])c([H])c2C1([H])[H]

>  <smiles>  (28) 
[H]c1c([H])c([H])c2c(c1[H])C([H])([H])C([H])([H])C([H])([H])C2([H])N([H])C(=O)C1([H])N(C(=O)C([H])(N([H])C(=O)C([H])(N([H])C([H])([H])[H])C([H])([H])[H])C(C([H])([H])[H])(C([H])([H])[H])C([H])([H])[H])C([H])([H])c2c([H])c(OC([H])([H])C([H])([H])[N+]([H])([H])C([H])([H])C([H])([H])C([H])([H])[N+]([H])([H])C([H])([H])C([H])([H])C([H])([H])C([H])([H])C([H])(N([H])C(=O)N3C([H])([H])C([H])([H])C([H])([H])C([H])(n4nc(-c5c([H])c([H])c(Oc6c([H])c([H])c(F)c([H])c6F)c([H])c5[H])c(C(=O)N([H])[H])c4N([H])[H])C3([H])[H])C([H])([H])C(=O)C([H])([H])C([H])([H])C(N([H])[H])=[N+]([H])[H])c([H])c([H])c2C1([H])[H]

$$$$
29:0:0
     RDKit          3D

103111  0  0  1  0  0  0  0  0999 V2000
  -28.0220  -20.6080   21.1610 C   0  0  0  0  0  3  0  0  0  0  0  0
  -29.3830  -20.2750   19.1690 C   0  0  0  0  0  3  0  0  0  0  0  0
  -28.1080  -22.0020   20.9870 C   0  0  0  0  0  3  0  0  0  0  0  0
  -29.4630  -21.6730   18.9910 C   0  0  0  0  0  3  0  0  0  0  0  0
  -28.6370  -19.7370   20.2390 C   0  0  0  0  0  0  0  0  0  0  0  0
  -28.8110  -22.5480   19.8900 C   0  0  0  0  0  0  0  0  0  0  0  0
  -28.4420  -18.2540   20.3770 C   0  0  0  0  0  0  0  0  0  0  0  0
  -28.1010  -17.5790   19.2690 N   0  0  0  0  0  0  0  0  0  0  0  0
  -28.5490  -17.7060   21.4740 O   0  0  0  0  0  0  0  0  0  0  0  0
  -27.7350  -16.6480   19.4110 H   0  0  0  0  0  0  0  0  0  0  0  0
  -28.0770  -18.1020   17.9000 C   0  0  0  0  0  2  0  0  0  0  0  0
  -29.4930  -18.2930   17.2920 C   0  0  0  0  0  3  0  0  0  0  0  0
  -29.3680  -18.6950   15.8800 N   0  0  0  0  0  4  0  0  0  0  0  0
  -28.8610  -19.5580   15.8020 H   0  0  0  0  0  0  0  0  0  0  0  0
  -28.8760  -17.9940   15.3520 H   0  0  0  0  0  0  0  0  0  0  0  0
  -30.2730  -18.8290   15.4640 H   0  0  0  0  0  0  0  0  0  0  0  0
  -30.4140  -17.0480   17.3750 C   0  0  0  0  0  2  0  0  0  0  0  0
  -31.3480  -15.4050   18.9230 C   0  0  0  0  0  0  0  0  0  0  0  0
  -31.5050  -12.9760   19.1700 C   0  0  0  0  0  2  0  0  0  0  0  0
  -30.6030  -12.3360   18.0940 C   0  0  0  0  0  2  0  0  0  0  0  0
  -29.1620  -12.1860   18.6160 C   0  0  0  0  0  2  0  0  0  0  0  0
  -28.6120  -13.4900   19.2510 C   0  0  0  0  0  3  0  0  0  0  0  0
  -29.6320  -14.1070   20.2380 C   0  0  0  0  0  2  0  0  0  0  0  0
  -30.9120  -14.2720   19.5300 N   0  0  0  0  0  0  0  0  0  0  0  0
  -32.4640  -15.5140   18.4100 O   0  0  0  0  0  0  0  0  0  0  0  0
  -30.3850  -16.2890   18.6320 N   0  0  0  0  0  0  0  0  0  0  0  0
  -29.4970  -16.1600   19.0890 H   0  0  0  0  0  0  0  0  0  0  0  0
  -26.3630  -14.1900   20.2900 C   0  0  0  0  0  0  0  0  0  0  0  0
  -25.3010  -13.4620   20.7520 C   0  0  0  0  0  0  0  0  0  0  0  0
  -25.6600  -12.0910   20.5790 C   0  0  0  0  0  0  0  0  0  0  0  0
  -27.3110  -13.2670   19.8780 N   0  0  0  0  0  0  0  0  0  0  0  0
  -26.8970  -11.9940   20.1060 N   0  0  0  0  0  0  0  0  0  0  0  0
  -24.8790  -10.8650   20.7780 C   0  0  0  0  0  0  0  0  0  0  0  0
  -25.2460   -9.9050   21.7470 C   0  0  0  0  0  3  0  0  0  0  0  0
  -24.4680   -8.7420   21.9330 C   0  0  0  0  0  3  0  0  0  0  0  0
  -23.3060   -8.5330   21.1520 C   0  0  0  0  0  0  0  0  0  0  0  0
  -22.9580   -9.4810   20.1730 C   0  0  0  0  0  3  0  0  0  0  0  0
  -23.7380  -10.6340   19.9840 C   0  0  0  0  0  3  0  0  0  0  0  0
  -22.5040   -7.4210   21.2480 O   0  0  0  0  0  0  0  0  0  0  0  0
  -22.2190   -6.8400   22.4570 C   0  0  0  0  0  0  0  0  0  0  0  0
  -21.5920   -7.5560   23.5000 C   0  0  0  0  0  3  0  0  0  0  0  0
  -21.2570   -6.9010   24.7010 C   0  0  0  0  0  3  0  0  0  0  0  0
  -21.5370   -5.5310   24.8590 C   0  0  0  0  0  0  0  0  0  0  0  0
  -22.1560   -4.8140   23.8200 C   0  0  0  0  0  3  0  0  0  0  0  0
  -22.4940   -5.4670   22.6200 C   0  0  0  0  0  0  0  0  0  0  0  0
  -23.0690   -4.7670   21.6140 F   0  0  0  0  0  0  0  0  0  0  0  0
  -21.2080   -4.8990   26.0100 F   0  0  0  0  0  0  0  0  0  0  0  0
  -23.9830  -14.0030   21.2270 C   0  0  0  0  0  0  0  0  0  0  0  0
  -23.3290  -13.3030   22.1480 N   0  0  0  0  0  0  0  0  0  0  0  0
  -23.5470  -15.0770   20.8150 O   0  0  0  0  0  0  0  0  0  0  0  0
  -23.6960  -12.4300   22.5000 H   0  0  0  0  0  0  0  0  0  0  0  0
  -22.4470  -13.6430   22.5050 H   0  0  0  0  0  0  0  0  0  0  0  0
  -26.5960  -15.5530   20.1580 N   0  0  0  0  0  0  0  0  0  0  0  0
  -25.8050  -16.1710   20.3040 H   0  0  0  0  0  0  0  0  0  0  0  0
  -27.1730  -15.8630   19.3870 H   0  0  0  0  0  0  0  0  0  0  0  0
  -30.1850  -24.6490   19.3410 C   0  0  0  0  0  1  0  0  0  0  0  0
  -28.8010  -24.0600   19.6720 C   0  0  0  0  0  3  0  0  0  0  0  0
  -27.8030  -24.3690   18.6260 N   0  0  0  0  0  4  0  0  0  0  0  0
  -28.1610  -24.0530   17.7390 H   0  0  0  0  0  0  0  0  0  0  0  0
  -26.9880  -23.8190   18.8410 H   0  0  0  0  0  0  0  0  0  0  0  0
  -27.3880  -25.7900   18.5270 C   0  0  0  0  0  2  0  0  0  0  0  0
  -26.5750  -26.0580   17.2440 C   0  0  0  0  0  2  0  0  0  0  0  0
  -26.5030  -27.4560   16.9730 O   0  0  0  0  0  0  0  0  0  0  0  0
  -25.6350  -30.3350   23.3900 C   0  0  0  0  0  0  0  0  0  0  0  0
  -25.6860  -28.2170   17.7720 C   0  0  0  0  0  0  0  0  0  0  0  0
  -23.6720  -30.4660   21.8880 C   0  0  0  0  0  3  0  0  0  0  0  0
  -24.0960  -29.8280   19.4580 C   0  0  0  0  0  0  0  0  0  0  0  0
  -26.0430  -30.3680   20.9340 C   0  0  0  0  0  2  0  0  0  0  0  0
  -25.4610  -29.6690   19.7250 C   0  0  0  0  0  0  0  0  0  0  0  0
  -26.2590  -28.8730   18.8810 C   0  0  0  0  0  3  0  0  0  0  0  0
  -24.3060  -28.3810   17.5130 C   0  0  0  0  0  3  0  0  0  0  0  0
  -23.5100  -29.1820   18.3550 C   0  0  0  0  0  3  0  0  0  0  0  0
  -23.3150  -30.7150   20.3990 C   0  0  0  0  0  2  0  0  0  0  0  0
  -25.1510  -30.3620   22.1160 N   0  0  0  0  0  0  0  0  0  0  0  0
  -24.8790  -30.4410   24.3650 O   0  0  0  0  0  0  0  0  0  0  0  0
  -22.8890  -29.2300   22.3800 C   0  0  0  0  0  0  0  0  0  0  0  0
  -21.5510  -29.3380   22.3940 N   0  0  0  0  0  0  0  0  0  0  0  0
  -23.4800  -28.1970   22.7090 O   0  0  0  0  0  0  0  0  0  0  0  0
  -21.1430  -30.2210   22.1180 H   0  0  0  0  0  0  0  0  0  0  0  0
  -18.0570  -28.4340   22.4030 C   0  0  0  0  0  0  0  0  0  0  0  0
  -20.6090  -28.2880   22.7770 C   0  0  0  0  0  3  0  0  0  0  0  0
  -20.5940  -27.1450   21.7370 C   0  0  0  0  0  2  0  0  0  0  0  0
  -19.5160  -27.3200   20.6630 C   0  0  0  0  0  2  0  0  0  0  0  0
  -18.1260  -27.3910   21.3010 C   0  0  0  0  0  2  0  0  0  0  0  0
  -19.2250  -28.8670   23.0850 C   0  0  0  0  0  0  0  0  0  0  0  0
  -19.1110  -29.8670   24.0750 C   0  0  0  0  0  3  0  0  0  0  0  0
  -17.8590  -30.4250   24.3910 C   0  0  0  0  0  3  0  0  0  0  0  0
  -16.7030  -29.9810   23.7270 C   0  0  0  0  0  3  0  0  0  0  0  0
  -16.8030  -28.9860   22.7380 C   0  0  0  0  0  3  0  0  0  0  0  0
  -27.1630  -30.1980   23.6810 C   0  0  0  0  0  3  0  0  0  0  0  0
  -27.6130  -28.7100   23.9530 C   0  0  1  0  0  0  0  0  0  0  0  0
  -26.7610  -27.9860   25.0200 C   0  0  0  0  0  1  0  0  0  0  0  0
  -27.5490  -27.8760   22.6520 C   0  0  0  0  0  1  0  0  0  0  0  0
  -29.0860  -28.6860   24.4210 C   0  0  0  0  0  1  0  0  0  0  0  0
  -27.4700  -31.0530   24.8350 N   0  0  0  0  0  0  0  0  0  0  0  0
  -28.0940  -32.2380   24.7580 C   0  0  0  0  0  0  0  0  0  0  0  0
  -28.5380  -32.6930   23.7010 O   0  0  0  0  0  0  0  0  0  0  0  0
  -27.0840  -30.7700   25.7230 H   0  0  0  0  0  0  0  0  0  0  0  0
  -27.1950  -34.1660   26.1000 C   0  0  0  0  0  1  0  0  0  0  0  0
  -28.2460  -33.0440   26.0610 C   0  0  0  0  0  3  0  0  0  0  0  0
  -30.6250  -32.6140   26.4920 C   0  0  0  0  0  1  0  0  0  0  0  0
  -29.5960  -33.6210   26.2410 N   0  0  0  0  0  0  0  0  0  0  0  0
  -29.6060  -34.2820   27.0120 H   0  0  0  0  0  0  0  0  0  0  0  0
  2  5  1  0
  3  1  1  0
  4  2  2  0
  4  6  1  0
  5  7  1  0
  5  1  2  0
  6  3  2  0
  7  9  2  0
  8 10  1  0
  8  7  1  0
 11  8  1  0
 12 17  1  0
 12 11  1  0
 13 12  1  0
 14 13  1  0
 15 13  1  0
 16 13  1  0
 17 26  1  0
 18 24  1  0
 19 24  1  0
 20 21  1  0
 20 19  1  0
 22 21  1  0
 22 31  1  0
 22 23  1  0
 24 23  1  0
 25 18  2  0
 26 18  1  0
 26 27  1  0
 28 29  2  0
 29 48  1  0
 30 29  1  0
 30 33  1  0
 31 32  1  0
 31 28  1  0
 32 30  2  0
 33 34  1  0
 34 35  2  0
 36 39  1  0
 36 35  1  0
 37 36  2  0
 38 37  1  0
 38 33  2  0
 39 40  1  0
 40 45  2  0
 40 41  1  0
 41 42  2  0
 42 43  1  0
 43 47  1  0
 44 43  2  0
 45 44  1  0
 46 45  1  0
 48 49  1  0
 49 51  1  0
 49 52  1  0
 50 48  2  0
 53 28  1  0
 53 54  1  0
 55 53  1  0
 57 56  1  0
 57  6  1  0
 58 60  1  0
 58 57  1  0
 59 58  1  0
 61 58  1  0
 62 61  1  0
 63 62  1  0
 63 65  1  0
 64 75  2  0
 65 70  1  0
 66 74  1  0
 66 76  1  0
 67 69  1  0
 67 73  1  0
 68 74  1  0
 69 68  1  0
 70 69  2  0
 71 65  2  0
 71 72  1  0
 72 67  2  0
 73 66  1  0
 74 64  1  0
 76 77  1  0
 76 78  2  0
 79 77  1  0
 80 89  2  0
 80 85  1  0
 81 77  1  0
 81 85  1  0
 82 81  1  0
 83 84  1  0
 83 82  1  0
 84 80  1  0
 85 86  2  0
 86 87  1  0
 88 87  2  0
 89 88  1  0
 90 64  1  0
 90 91  1  0
 90 95  1  0
 91 94  1  1
 91 92  1  0
 93 91  1  0
 95 98  1  0
 96 95  1  0
 96100  1  0
 97 96  2  0
100 99  1  0
100102  1  0
102101  1  0
102103  1  0
M  ISO  4  18 100  26 100  62 101  63 101
M  END
>  <TORSDO>  (29) 
F 25

>  <SCORE>  (29) 
-8.310

>  <name>  (29) 
29

>  <ligand_id>  (29) 
29

>  <original_smiles>  (29) 
[H]c1c([H])c([H])c2c(c1[H])C([H])([H])C([H])([H])C([H])([H])C2([H])N([H])C(=O)C1([H])N(C(=O)C([H])(N([H])C(=O)C([H])(N([H])C([H])([H])[H])C([H])([H])[H])C(C([H])([H])[H])(C([H])([H])[H])C([H])([H])[H])C([H])([H])c2c([H])c(OC([H])([H])C([H])([H])[N+]([H])([H])C([H])(c3c([H])c([H])c(C(=O)N([H])C([H])([H])C([H])(C([H])([H])N([H])C(=O)N4C([H])([H])C([H])([H])C([H])([H])C([H])(n5nc(-c6c([H])c([H])c(Oc7c([H])c([H])c(F)c([H])c7F)c([H])c6[H])c(C(=O)N([H])[H])c5N([H])[H])C4([H])[H])[N+]([H])([H])[H])c([H])c3[H])C([H])([H])[H])c([H])c([H])c2C1([H])[H]

>  <smiles>  (29) 
[H]c1c([H])c([H])c2c(c1[H])C([H])([H])C([H])([H])C([H])([H])C2([H])N([H])C(=O)C1([H])N(C(=O)C([H])(N([H])C(=O)C([H])(N([H])C([H])([H])[H])C([H])([H])[H])C(C([H])([H])[H])(C([H])([H])[H])C([H])([H])[H])C([H])([H])c2c([H])c(OC([H])([H])C([H])([H])[N+]([H])([H])C([H])(c3c([H])c([H])c(C(=O)N([H])C([H])([H])C([H])(C([H])([H])N([H])C(=O)N4C([H])([H])C([H])([H])C([H])([H])C([H])(n5nc(-c6c([H])c([H])c(Oc7c([H])c([H])c(F)c([H])c7F)c([H])c6[H])c(C(=O)N([H])[H])c5N([H])[H])C4([H])[H])[N+]([H])([H])[H])c([H])c3[H])C([H])([H])[H])c([H])c([H])c2C1([H])[H]

$$$$
30:0:0
     RDKit          3D

102110  0  0  1  0  0  0  0  0999 V2000
  -18.6270  -24.6880   21.8620 C   0  0  0  0  0  3  0  0  0  0  0  0
  -19.2460  -26.1530   22.0120 C   0  0  0  0  0  0  0  0  0  0  0  0
  -18.9360  -23.8450   20.5650 C   0  0  0  0  0  3  0  0  0  0  0  0
  -20.3970  -25.6670   19.1220 C   0  0  0  0  0  2  0  0  0  0  0  0
  -20.3830  -26.8100   20.2790 C   0  0  0  0  0  2  0  0  0  0  0  0
  -19.8620  -24.2200   19.3500 C   0  0  0  0  0  3  0  0  0  0  0  0
  -21.9010  -27.2610   19.8820 C   0  0  0  0  0  0  0  0  0  0  0  0
  -23.0420  -26.5380   20.3370 N   0  0  0  0  0  0  0  0  0  0  0  0
  -22.0170  -28.0950   18.9920 O   0  0  0  0  0  0  0  0  0  0  0  0
  -22.7800  -25.8330   21.0120 H   0  0  0  0  0  0  0  0  0  0  0  0
  -24.5440  -26.6980   20.1540 C   0  0  0  0  0  3  0  0  0  0  0  0
  -25.9380  -26.1570   20.9070 C   0  0  0  0  0  3  0  0  0  0  0  0
  -27.3980  -26.5680   20.4930 O   0  0  0  0  0  0  0  0  0  0  0  0
  -25.4190  -31.6860   24.2540 C   0  0  0  0  0  0  0  0  0  0  0  0
  -27.4600  -27.8760   20.1720 C   0  0  0  0  0  0  0  0  0  0  0  0
  -24.2030  -30.9420   22.2560 C   0  0  0  0  0  3  0  0  0  0  0  0
  -25.6260  -29.9170   20.3490 C   0  0  0  0  0  0  0  0  0  0  0  0
  -26.7500  -30.9620   22.2920 C   0  0  0  0  0  2  0  0  0  0  0  0
  -26.6990  -29.8860   21.2410 C   0  0  0  0  0  0  0  0  0  0  0  0
  -27.6510  -28.8460   21.1750 C   0  0  0  0  0  3  0  0  0  0  0  0
  -26.6660  -28.1420   19.0590 C   0  0  0  0  0  3  0  0  0  0  0  0
  -25.6730  -29.1320   19.1840 C   0  0  0  0  0  3  0  0  0  0  0  0
  -24.4630  -30.8080   20.7220 C   0  0  0  0  0  2  0  0  0  0  0  0
  -25.4690  -31.2100   22.9840 N   0  0  0  0  0  0  0  0  0  0  0  0
  -24.3420  -31.9370   24.8140 O   0  0  0  0  0  0  0  0  0  0  0  0
  -23.4740  -29.7520   22.9170 C   0  0  0  0  0  0  0  0  0  0  0  0
  -22.1710  -29.8790   23.1250 N   0  0  0  0  0  0  0  0  0  0  0  0
  -24.0910  -28.7530   23.2830 O   0  0  0  0  0  0  0  0  0  0  0  0
  -21.7200  -30.7350   22.8370 H   0  0  0  0  0  0  0  0  0  0  0  0
  -18.4600  -29.0320   22.5990 C   0  0  0  0  0  3  0  0  0  0  0  0
  -21.3000  -28.8710   23.7260 C   0  0  0  0  0  0  0  0  0  0  0  0
  -21.9100  -27.0840   23.5930 C   0  0  0  0  0  3  0  0  0  0  0  0
  -21.0060  -25.7610   22.5280 C   0  0  0  0  0  3  0  0  0  0  0  0
  -18.3430  -27.4180   21.6620 C   0  0  0  0  0  3  0  0  0  0  0  0
  -19.7110  -29.5540   23.4350 C   0  0  0  0  0  0  0  0  0  0  0  0
  -19.5200  -30.6130   24.3620 C   0  0  0  0  0  3  0  0  0  0  0  0
  -18.2630  -31.1540   24.6540 C   0  0  0  0  0  3  0  0  0  0  0  0
  -17.1330  -30.6300   24.0140 C   0  0  0  0  0  3  0  0  0  0  0  0
  -17.2320  -29.6050   23.0400 C   0  0  0  0  0  3  0  0  0  0  0  0
  -26.7290  -31.9730   25.0380 C   0  0  0  0  0  3  0  0  0  0  0  0
  -26.6080  -33.3220   25.5960 N   0  0  0  0  0  0  0  0  0  0  0  0
  -27.1090  -34.4230   25.0240 C   0  0  0  0  0  0  0  0  0  0  0  0
  -27.7960  -34.3920   24.0000 O   0  0  0  0  0  0  0  0  0  0  0  0
  -26.0130  -33.4310   26.4050 H   0  0  0  0  0  0  0  0  0  0  0  0
  -25.6450  -36.4660   24.9440 C   0  0  0  0  0  1  0  0  0  0  0  0
  -26.7920  -35.7710   25.6940 C   0  0  0  0  0  3  0  0  0  0  0  0
  -28.9860  -36.2120   26.7010 C   0  0  0  0  0  1  0  0  0  0  0  0
  -27.9600  -36.6730   25.7710 N   0  0  0  0  0  0  0  0  0  0  0  0
  -27.6730  -37.6070   26.0490 H   0  0  0  0  0  0  0  0  0  0  0  0
  -27.0180  -30.9130   26.1680 C   0  0  1  0  0  0  0  0  0  0  0  0
  -25.8160  -30.6640   27.1080 C   0  0  0  0  0  1  0  0  0  0  0  0
  -27.4320  -29.5500   25.5700 C   0  0  0  0  0  1  0  0  0  0  0  0
  -28.2070  -31.3910   27.0340 C   0  0  0  0  0  1  0  0  0  0  0  0
  -20.7880  -22.9850   18.7720 C   0  0  0  0  0  2  0  0  0  0  0  0
  -22.3560  -23.8770   16.8540 C   0  0  0  0  0  1  0  0  0  0  0  0
  -22.3650  -23.0700   18.1710 C   0  0  0  0  0  3  0  0  0  0  0  0
  -23.1850  -21.7610   17.8810 N   0  0  0  0  0  4  0  0  0  0  0  0
  -23.2060  -21.2350   18.7400 H   0  0  0  0  0  0  0  0  0  0  0  0
  -22.6440  -21.2190   17.2290 H   0  0  0  0  0  0  0  0  0  0  0  0
  -24.6720  -21.7660   17.3610 C   0  0  0  0  0  2  0  0  0  0  0  0
  -25.4970  -20.3490   17.0910 C   0  0  0  0  0  2  0  0  0  0  0  0
  -27.1510  -20.0730   17.3560 C   0  0  0  0  0  3  0  0  0  0  0  0
  -28.0120  -18.7380   17.9420 C   0  0  0  0  0  3  0  0  0  0  0  0
  -29.6450  -18.4530   18.0760 C   0  0  0  0  0  2  0  0  0  0  0  0
  -31.3020  -16.6870   19.4830 C   0  0  0  0  0  0  0  0  0  0  0  0
  -31.8280  -14.2560   19.7810 C   0  0  0  0  0  2  0  0  0  0  0  0
  -31.1170  -13.5560   18.5940 C   0  0  0  0  0  2  0  0  0  0  0  0
  -29.6190  -13.3110   18.8980 C   0  0  0  0  0  2  0  0  0  0  0  0
  -28.9270  -14.5670   19.4870 C   0  0  0  0  0  3  0  0  0  0  0  0
  -29.7580  -15.1350   20.6570 C   0  0  0  0  0  2  0  0  0  0  0  0
  -31.0590  -15.4820   20.0930 N   0  0  0  0  0  0  0  0  0  0  0  0
  -32.4710  -16.9870   19.1840 O   0  0  0  0  0  0  0  0  0  0  0  0
  -30.1260  -17.3620   19.0740 N   0  0  0  0  0  0  0  0  0  0  0  0
  -29.3400  -16.9230   19.5320 H   0  0  0  0  0  0  0  0  0  0  0  0
  -26.5230  -15.2450   20.0470 C   0  0  0  0  0  0  0  0  0  0  0  0
  -25.4230  -14.5140   20.3760 C   0  0  0  0  0  0  0  0  0  0  0  0
  -25.8600  -13.1570   20.4070 C   0  0  0  0  0  0  0  0  0  0  0  0
  -27.5560  -14.3350   19.8920 N   0  0  0  0  0  0  0  0  0  0  0  0
  -27.1620  -13.0740   20.1760 N   0  0  0  0  0  0  0  0  0  0  0  0
  -25.1030  -11.9230   20.5840 C   0  0  0  0  0  0  0  0  0  0  0  0
  -25.4290  -10.9970   21.5970 C   0  0  0  0  0  3  0  0  0  0  0  0
  -24.6700   -9.8190   21.7480 C   0  0  0  0  0  3  0  0  0  0  0  0
  -23.5780   -9.5640   20.8860 C   0  0  0  0  0  0  0  0  0  0  0  0
  -23.2780  -10.4800   19.8630 C   0  0  0  0  0  3  0  0  0  0  0  0
  -24.0360  -11.6500   19.7100 C   0  0  0  0  0  3  0  0  0  0  0  0
  -22.7980   -8.4370   20.9450 O   0  0  0  0  0  0  0  0  0  0  0  0
  -22.4370   -7.8800   22.1450 C   0  0  0  0  0  0  0  0  0  0  0  0
  -21.7450   -8.6190   23.1290 C   0  0  0  0  0  3  0  0  0  0  0  0
  -21.3260   -7.9870   24.3160 C   0  0  0  0  0  3  0  0  0  0  0  0
  -21.5910   -6.6180   24.5170 C   0  0  0  0  0  0  0  0  0  0  0  0
  -22.2740   -5.8800   23.5340 C   0  0  0  0  0  3  0  0  0  0  0  0
  -22.6940   -6.5100   22.3500 C   0  0  0  0  0  0  0  0  0  0  0  0
  -23.3340   -5.7920   21.3970 F   0  0  0  0  0  0  0  0  0  0  0  0
  -21.1820   -6.0070   25.6530 F   0  0  0  0  0  0  0  0  0  0  0  0
  -24.0290  -15.0400   20.5500 C   0  0  0  0  0  0  0  0  0  0  0  0
  -23.2420  -14.4090   21.4130 N   0  0  0  0  0  0  0  0  0  0  0  0
  -23.6450  -16.0490   19.9600 O   0  0  0  0  0  0  0  0  0  0  0  0
  -23.5620  -13.5930   21.9100 H   0  0  0  0  0  0  0  0  0  0  0  0
  -22.3030  -14.7470   21.5780 H   0  0  0  0  0  0  0  0  0  0  0  0
  -26.6990  -16.5970   19.8320 N   0  0  0  0  0  0  0  0  0  0  0  0
  -25.9100  -17.2330   19.8220 H   0  0  0  0  0  0  0  0  0  0  0  0
  -27.5390  -17.0030   19.4440 H   0  0  0  0  0  0  0  0  0  0  0  0
  1  2  1  0
  2 33  1  0
  3  1  2  0
  4  6  1  0
  4  5  1  0
  6 54  1  0
  6  3  1  0
  7  5  1  0
  7  8  1  0
  8 10  1  0
  9  7  2  0
 11  8  1  0
 11 12  2  0
 13 12  1  0
 14 25  2  0
 15 13  1  0
 15 20  1  0
 16 23  1  0
 16 26  1  0
 16 24  1  0
 17 23  1  0
 17 19  1  0
 18 24  1  0
 19 18  1  0
 20 19  2  0
 21 22  1  0
 21 15  2  0
 22 17  2  0
 24 14  1  0
 26 27  1  0
 26 28  2  0
 27 31  1  0
 29 27  1  0
 30 34  1  0
 30 39  1  0
 30 35  1  0
 32 31  1  0
 33 32  2  0
 34  2  2  0
 35 31  2  0
 35 36  1  0
 36 37  2  0
 38 37  1  0
 39 38  2  0
 40 14  1  0
 40 41  1  0
 40 50  1  0
 41 44  1  0
 42 41  1  0
 42 46  1  0
 43 42  2  0
 46 45  1  0
 46 48  1  0
 48 49  1  0
 48 47  1  0
 50 53  1  1
 50 51  1  0
 52 50  1  0
 56 55  1  0
 56 54  1  0
 57 56  1  0
 57 58  1  0
 59 57  1  0
 60 57  1  0
 61 62  1  0
 61 60  1  0
 62 63  2  0
 63 64  1  0
 64 73  1  0
 65 71  1  0
 66 71  1  0
 67 68  1  0
 67 66  1  0
 69 68  1  0
 69 78  1  0
 69 70  1  0
 71 70  1  0
 72 65  2  0
 73 65  1  0
 73 74  1  0
 75 76  2  0
 76 77  1  0
 76 95  1  0
 77 80  1  0
 78 75  1  0
 78 79  1  0
 79 77  2  0
 80 81  1  0
 81 82  2  0
 83 86  1  0
 83 82  1  0
 84 83  2  0
 85 84  1  0
 85 80  2  0
 86 87  1  0
 87 92  2  0
 87 88  1  0
 88 89  2  0
 89 90  1  0
 90 94  1  0
 91 90  2  0
 92 91  1  0
 93 92  1  0
 95 96  1  0
 96 99  1  0
 96 98  1  0
 97 95  2  0
100 75  1  0
101100  1  0
102100  1  0
M  ISO  4  12 101  13 101  65 100  73 100
M  END
>  <TORSDO>  (30) 
F 27

>  <SCORE>  (30) 
-6.260

>  <name>  (30) 
30

>  <ligand_id>  (30) 
30

>  <original_smiles>  (30) 
[H]c1c([H])c([H])c2c(c1[H])C([H])([H])C([H])([H])C([H])([H])C2([H])N([H])C(=O)C1([H])N(C(=O)C([H])(N([H])C(=O)C([H])(N([H])C([H])([H])[H])C([H])([H])[H])C(C([H])([H])[H])(C([H])([H])[H])C([H])([H])[H])C([H])([H])c2c([H])c(OC([H])([H])C([H])([H])N([H])C(=O)c3c([H])c([H])c([H])c(C([H])([H])C([H])(C([H])([H])[H])[N+]([H])([H])C([H])([H])C([H])([H])C([H])([H])C([H])([H])C([H])([H])N([H])C(=O)N4C([H])([H])C([H])([H])C([H])([H])C([H])(n5nc(-c6c([H])c([H])c(Oc7c([H])c([H])c(F)c([H])c7F)c([H])c6[H])c(C(=O)N([H])[H])c5N([H])[H])C4([H])[H])c3[H])c([H])c([H])c2C1([H])[H]

>  <smiles>  (30) 
[H]c1c([H])c([H])c2c(c1[H])C([H])([H])C([H])([H])C([H])([H])C2([H])N([H])C(=O)C1([H])N(C(=O)C([H])(N([H])C(=O)C([H])(N([H])C([H])([H])[H])C([H])([H])[H])C(C([H])([H])[H])(C([H])([H])[H])C([H])([H])[H])C([H])([H])c2c([H])c(OC([H])([H])C([H])([H])N([H])C(=O)c3c([H])c([H])c([H])c(C([H])([H])C([H])(C([H])([H])[H])[N+]([H])([H])C([H])([H])C([H])([H])C([H])([H])C([H])([H])C([H])([H])N([H])C(=O)N4C([H])([H])C([H])([H])C([H])([H])C([H])(n5nc(-c6c([H])c([H])c(Oc7c([H])c([H])c(F)c([H])c7F)c([H])c6[H])c(C(=O)N([H])[H])c5N([H])[H])C4([H])[H])c3[H])c([H])c([H])c2C1([H])[H]

$$$$
31:0:0
     RDKit          3D

 94101  0  0  1  0  0  0  0  0999 V2000
  -26.7710  -21.8750   19.9180 C   0  0  0  0  0  0  0  0  0  0  0  0
  -27.6560  -21.1390   19.2330 N   0  0  0  0  0  0  0  0  0  0  0  0
  -25.6160  -21.4900   20.0940 O   0  0  0  0  0  0  0  0  0  0  0  0
  -28.5660  -21.5420   19.0710 H   0  0  0  0  0  0  0  0  0  0  0  0
  -27.2760  -23.1380   20.4340 C   0  0  0  0  0  3  0  0  0  0  0  0
  -28.5120  -23.6420   20.2320 C   0  0  0  0  0  3  0  0  0  0  0  0
  -28.9410  -24.9730   20.8200 C   0  0  0  0  0  2  0  0  0  0  0  0
  -29.4630  -25.9750   19.7780 C   0  0  0  0  0  2  0  0  0  0  0  0
  -29.2440  -27.3080   20.2460 O   0  0  0  0  0  0  0  0  0  0  0  0
  -24.7920  -31.8900   23.3590 C   0  0  0  0  0  0  0  0  0  0  0  0
  -27.9730  -27.8530   20.2270 C   0  0  0  0  0  0  0  0  0  0  0  0
  -23.7980  -30.4750   21.5890 C   0  0  0  0  0  3  0  0  0  0  0  0
  -25.4470  -29.1310   20.1880 C   0  0  0  0  0  0  0  0  0  0  0  0
  -26.2860  -31.0560   21.5420 C   0  0  0  0  0  2  0  0  0  0  0  0
  -26.5210  -29.7250   20.8590 C   0  0  0  0  0  0  0  0  0  0  0  0
  -27.7820  -29.0930   20.8780 C   0  0  0  0  0  3  0  0  0  0  0  0
  -26.8670  -27.2520   19.5770 C   0  0  0  0  0  3  0  0  0  0  0  0
  -25.6120  -27.8910   19.5490 C   0  0  0  0  0  3  0  0  0  0  0  0
  -24.1370  -29.8840   20.1950 C   0  0  0  0  0  2  0  0  0  0  0  0
  -24.9740  -31.1500   22.2270 N   0  0  0  0  0  0  0  0  0  0  0  0
  -23.6640  -32.0420   23.8480 O   0  0  0  0  0  0  0  0  0  0  0  0
  -23.1820  -29.3570   22.4570 C   0  0  0  0  0  0  0  0  0  0  0  0
  -21.8840  -29.0850   22.2520 N   0  0  0  0  0  0  0  0  0  0  0  0
  -23.8720  -28.7410   23.2740 O   0  0  0  0  0  0  0  0  0  0  0  0
  -21.3870  -29.6390   21.5670 H   0  0  0  0  0  0  0  0  0  0  0  0
  -18.5730  -27.6790   22.5640 C   0  0  0  0  0  0  0  0  0  0  0  0
  -21.1030  -28.0480   22.9270 C   0  0  0  0  0  3  0  0  0  0  0  0
  -21.3000  -26.6730   22.2470 C   0  0  0  0  0  2  0  0  0  0  0  0
  -20.2420  -26.3720   21.1820 C   0  0  0  0  0  2  0  0  0  0  0  0
  -18.8390  -26.3940   21.7960 C   0  0  0  0  0  2  0  0  0  0  0  0
  -19.6380  -28.4620   23.0810 C   0  0  0  0  0  0  0  0  0  0  0  0
  -19.3370  -29.6650   23.7550 C   0  0  0  0  0  3  0  0  0  0  0  0
  -18.0030  -30.0840   23.9230 C   0  0  0  0  0  3  0  0  0  0  0  0
  -16.9510  -29.2950   23.4240 C   0  0  0  0  0  3  0  0  0  0  0  0
  -17.2380  -28.0940   22.7500 C   0  0  0  0  0  3  0  0  0  0  0  0
  -25.9850  -32.5870   24.0830 C   0  0  0  0  0  3  0  0  0  0  0  0
  -25.5910  -33.9770   24.3400 N   0  0  0  0  0  0  0  0  0  0  0  0
  -25.9460  -35.0200   23.5770 C   0  0  0  0  0  0  0  0  0  0  0  0
  -26.7050  -34.9170   22.6100 O   0  0  0  0  0  0  0  0  0  0  0  0
  -24.9290  -34.1300   25.0860 H   0  0  0  0  0  0  0  0  0  0  0  0
  -24.1680  -36.7120   23.0260 C   0  0  0  0  0  1  0  0  0  0  0  0
  -25.3610  -36.3980   23.9440 C   0  0  0  0  0  3  0  0  0  0  0  0
  -27.3760  -37.4160   24.9050 C   0  0  0  0  0  1  0  0  0  0  0  0
  -26.3500  -37.4950   23.8700 N   0  0  0  0  0  0  0  0  0  0  0  0
  -25.8920  -38.3970   23.9490 H   0  0  0  0  0  0  0  0  0  0  0  0
  -26.4060  -31.8680   25.4220 C   0  0  1  0  0  0  0  0  0  0  0  0
  -25.2190  -31.5710   26.3680 C   0  0  0  0  0  1  0  0  0  0  0  0
  -27.1160  -30.5290   25.1160 C   0  0  0  0  0  1  0  0  0  0  0  0
  -27.4230  -32.7440   26.1900 C   0  0  0  0  0  1  0  0  0  0  0  0
  -27.3300  -19.8660   18.5870 C   0  0  0  0  0  2  0  0  0  0  0  0
  -28.5960  -19.0930   18.2110 C   0  0  0  0  0  2  0  0  0  0  0  0
  -29.5170  -18.9610   19.3620 N   0  0  0  0  0  4  0  0  0  0  0  0
  -30.4580  -19.1160   19.0340 H   0  0  0  0  0  0  0  0  0  0  0  0
  -29.2970  -19.6820   20.0320 H   0  0  0  0  0  0  0  0  0  0  0  0
  -29.4570  -17.6350   20.0050 C   0  0  0  0  0  2  0  0  0  0  0  0
  -30.6100  -17.3730   20.9890 C   0  0  0  0  0  2  0  0  0  0  0  0
  -31.3440  -15.0250   20.8460 C   0  0  0  0  0  0  0  0  0  0  0  0
  -31.1220  -12.9020   19.6210 C   0  0  0  0  0  2  0  0  0  0  0  0
  -30.2590  -13.1720   18.3690 C   0  0  0  0  0  2  0  0  0  0  0  0
  -28.7510  -13.0650   18.6950 C   0  0  0  0  0  2  0  0  0  0  0  0
  -28.3540  -13.8710   19.9600 C   0  0  0  0  0  3  0  0  0  0  0  0
  -29.3290  -13.5460   21.1140 C   0  0  0  0  0  2  0  0  0  0  0  0
  -30.7010  -13.8470   20.6610 N   0  0  0  0  0  0  0  0  0  0  0  0
  -32.4650  -15.2880   20.3960 O   0  0  0  0  0  0  0  0  0  0  0  0
  -30.5610  -15.9690   21.3760 N   0  0  0  0  0  0  0  0  0  0  0  0
  -29.6740  -15.6310   21.7230 H   0  0  0  0  0  0  0  0  0  0  0  0
  -25.9280  -14.5220   20.5440 C   0  0  0  0  0  0  0  0  0  0  0  0
  -24.8300  -13.7640   20.8520 C   0  0  0  0  0  0  0  0  0  0  0  0
  -25.2710  -12.4030   20.8150 C   0  0  0  0  0  0  0  0  0  0  0  0
  -26.9680  -13.6260   20.3530 N   0  0  0  0  0  0  0  0  0  0  0  0
  -26.5710  -12.3460   20.5650 N   0  0  0  0  0  0  0  0  0  0  0  0
  -24.5210  -11.1470   20.9330 C   0  0  0  0  0  0  0  0  0  0  0  0
  -24.8410  -10.1850   21.9180 C   0  0  0  0  0  3  0  0  0  0  0  0
  -24.0930   -8.9920   22.0250 C   0  0  0  0  0  3  0  0  0  0  0  0
  -23.0140   -8.7530   21.1410 C   0  0  0  0  0  0  0  0  0  0  0  0
  -22.7120   -9.7010   20.1490 C   0  0  0  0  0  3  0  0  0  0  0  0
  -23.4610  -10.8840   20.0400 C   0  0  0  0  0  3  0  0  0  0  0  0
  -22.2500   -7.6120   21.1490 O   0  0  0  0  0  0  0  0  0  0  0  0
  -21.9880   -6.9330   22.3120 C   0  0  0  0  0  0  0  0  0  0  0  0
  -21.3040   -7.5370   23.3890 C   0  0  0  0  0  3  0  0  0  0  0  0
  -20.9990   -6.7820   24.5420 C   0  0  0  0  0  3  0  0  0  0  0  0
  -21.3670   -5.4240   24.6100 C   0  0  0  0  0  0  0  0  0  0  0  0
  -22.0430   -4.8200   23.5340 C   0  0  0  0  0  3  0  0  0  0  0  0
  -22.3510   -5.5740   22.3880 C   0  0  0  0  0  0  0  0  0  0  0  0
  -22.9860   -4.9820   21.3480 F   0  0  0  0  0  0  0  0  0  0  0  0
  -21.0640   -4.6980   25.7090 F   0  0  0  0  0  0  0  0  0  0  0  0
  -23.4240  -14.2540   21.0630 C   0  0  0  0  0  0  0  0  0  0  0  0
  -22.6380  -13.5470   21.8670 N   0  0  0  0  0  0  0  0  0  0  0  0
  -23.0330  -15.3000   20.5460 O   0  0  0  0  0  0  0  0  0  0  0  0
  -22.9710  -12.7050   22.3110 H   0  0  0  0  0  0  0  0  0  0  0  0
  -21.6950  -13.8610   22.0570 H   0  0  0  0  0  0  0  0  0  0  0  0
  -26.1370  -15.8890   20.3730 N   0  0  0  0  0  0  0  0  0  0  0  0
  -25.3200  -16.4760   20.2620 H   0  0  0  0  0  0  0  0  0  0  0  0
  -26.8570  -16.1160   19.7030 H   0  0  0  0  0  0  0  0  0  0  0  0
  1  3  2  0
  1  5  1  0
  2  1  1  0
  4  2  1  0
  6  5  2  0
  6  7  1  0
  8  9  1  0
  8  7  1  0
 10 21  2  0
 11  9  1  0
 11 16  1  0
 12 20  1  0
 12 22  1  0
 13 19  1  0
 13 15  1  0
 14 20  1  0
 15 16  2  0
 15 14  1  0
 17 11  2  0
 18 17  1  0
 18 13  2  0
 19 12  1  0
 20 10  1  0
 22 24  2  0
 23 22  1  0
 25 23  1  0
 26 35  2  0
 26 31  1  0
 27 23  1  0
 27 31  1  0
 28 27  1  0
 29 30  1  0
 29 28  1  0
 30 26  1  0
 31 32  2  0
 32 33  1  0
 34 33  2  0
 35 34  1  0
 36 10  1  0
 36 37  1  0
 36 46  1  0
 37 40  1  0
 38 42  1  0
 38 37  1  0
 39 38  2  0
 42 41  1  0
 44 42  1  0
 44 45  1  0
 44 43  1  0
 46 49  1  1
 46 47  1  0
 48 46  1  0
 50  2  1  0
 51 50  1  0
 51 52  1  0
 52 55  1  0
 52 54  1  0
 53 52  1  0
 55 56  1  0
 56 65  1  0
 57 65  1  0
 58 63  1  0
 59 60  1  0
 59 58  1  0
 61 60  1  0
 61 70  1  0
 61 62  1  0
 63 57  1  0
 63 62  1  0
 64 57  2  0
 65 66  1  0
 67 68  2  0
 68 87  1  0
 69 68  1  0
 69 72  1  0
 70 67  1  0
 70 71  1  0
 71 69  2  0
 72 73  1  0
 73 74  2  0
 75 78  1  0
 75 74  1  0
 76 75  2  0
 77 76  1  0
 77 72  2  0
 78 79  1  0
 79 84  2  0
 79 80  1  0
 80 81  2  0
 81 82  1  0
 82 86  1  0
 83 82  2  0
 84 83  1  0
 85 84  1  0
 87 88  1  0
 88 91  1  0
 88 90  1  0
 89 87  2  0
 92 67  1  0
 93 92  1  0
 94 92  1  0
M  ISO  4   8 101   9 101  57 100  65 100
M  END
>  <TORSDO>  (31) 
F 24

>  <SCORE>  (31) 
-9.841

>  <name>  (31) 
31

>  <ligand_id>  (31) 
31

>  <original_smiles>  (31) 
[H]C(C(=O)N([H])C([H])([H])C([H])([H])[N+]([H])([H])C([H])([H])C([H])([H])N([H])C(=O)N1C([H])([H])C([H])([H])C([H])([H])C([H])(n2nc(-c3c([H])c([H])c(Oc4c([H])c([H])c(F)c([H])c4F)c([H])c3[H])c(C(=O)N([H])[H])c2N([H])[H])C1([H])[H])=C([H])C([H])([H])C([H])([H])Oc1c([H])c([H])c2c(c1[H])C([H])([H])N(C(=O)C([H])(N([H])C(=O)C([H])(N([H])C([H])([H])[H])C([H])([H])[H])C(C([H])([H])[H])(C([H])([H])[H])C([H])([H])[H])C([H])(C(=O)N([H])C1([H])c3c([H])c([H])c([H])c([H])c3C([H])([H])C([H])([H])C1([H])[H])C2([H])[H]

>  <smiles>  (31) 
[H]C(C(=O)N([H])C([H])([H])C([H])([H])[N+]([H])([H])C([H])([H])C([H])([H])N([H])C(=O)N1C([H])([H])C([H])([H])C([H])([H])C([H])(n2nc(-c3c([H])c([H])c(Oc4c([H])c([H])c(F)c([H])c4F)c([H])c3[H])c(C(=O)N([H])[H])c2N([H])[H])C1([H])[H])=C([H])C([H])([H])C([H])([H])Oc1c([H])c([H])c2c(c1[H])C([H])([H])N(C(=O)C([H])(N([H])C(=O)C([H])(N([H])C([H])([H])[H])C([H])([H])[H])C(C([H])([H])[H])(C([H])([H])[H])C([H])([H])[H])C([H])(C(=O)N([H])C1([H])c3c([H])c([H])c([H])c([H])c3C([H])([H])C([H])([H])C1([H])[H])C2([H])[H]

$$$$
32:0:0
     RDKit          3D

 90 97  0  0  1  0  0  0  0  0999 V2000
  -28.4270  -22.3910   20.4990 C   0  0  0  0  0  3  0  0  0  0  0  0
  -27.0040  -22.0410   20.3040 N   0  0  0  0  0  4  0  0  0  0  0  0
  -26.3960  -22.8120   20.5140 H   0  0  0  0  0  0  0  0  0  0  0  0
  -26.7420  -21.2790   20.9040 H   0  0  0  0  0  0  0  0  0  0  0  0
  -26.8330  -21.7560   19.3560 H   0  0  0  0  0  0  0  0  0  0  0  0
  -29.3260  -21.1610   19.9780 C   0  0  0  0  0  2  0  0  0  0  0  0
  -29.2890  -19.7680   20.7780 C   0  0  0  0  0  2  0  0  0  0  0  0
  -29.7300  -18.3910   20.0870 C   0  0  0  0  0  2  0  0  0  0  0  0
  -30.1420  -17.1830   21.0510 C   0  0  0  0  0  2  0  0  0  0  0  0
  -30.6000  -14.6880   20.3400 C   0  0  0  0  0  0  0  0  0  0  0  0
  -30.3860  -12.4560   19.2480 C   0  0  0  0  0  2  0  0  0  0  0  0
  -29.4220  -12.5690   18.0450 C   0  0  0  0  0  2  0  0  0  0  0  0
  -27.9560  -12.4070   18.4940 C   0  0  0  0  0  2  0  0  0  0  0  0
  -27.6070  -13.2710   19.7350 C   0  0  0  0  0  3  0  0  0  0  0  0
  -28.6800  -13.1200   20.8350 C   0  0  0  0  0  2  0  0  0  0  0  0
  -29.9760  -13.4720   20.2380 N   0  0  0  0  0  0  0  0  0  0  0  0
  -31.7730  -14.8390   19.9890 O   0  0  0  0  0  0  0  0  0  0  0  0
  -29.8100  -15.7600   20.6830 N   0  0  0  0  0  0  0  0  0  0  0  0
  -28.8520  -15.5020   20.8730 H   0  0  0  0  0  0  0  0  0  0  0  0
  -25.2220  -13.8700   20.4800 C   0  0  0  0  0  0  0  0  0  0  0  0
  -24.1610  -13.0950   20.8580 C   0  0  0  0  0  0  0  0  0  0  0  0
  -24.6250  -11.7430   20.8240 C   0  0  0  0  0  0  0  0  0  0  0  0
  -26.2680  -12.9910   20.2390 N   0  0  0  0  0  0  0  0  0  0  0  0
  -25.9140  -11.7090   20.5080 N   0  0  0  0  0  0  0  0  0  0  0  0
  -23.9040  -10.4790   21.0210 C   0  0  0  0  0  0  0  0  0  0  0  0
  -24.3480   -9.5110   21.9490 C   0  0  0  0  0  3  0  0  0  0  0  0
  -23.6250   -8.3120   22.1350 C   0  0  0  0  0  3  0  0  0  0  0  0
  -22.4440   -8.0720   21.3930 C   0  0  0  0  0  0  0  0  0  0  0  0
  -22.0190   -9.0280   20.4550 C   0  0  0  0  0  3  0  0  0  0  0  0
  -22.7410  -10.2180   20.2670 C   0  0  0  0  0  3  0  0  0  0  0  0
  -21.6940   -6.9250   21.4860 O   0  0  0  0  0  0  0  0  0  0  0  0
  -21.6630   -6.1790   22.6370 C   0  0  0  0  0  0  0  0  0  0  0  0
  -21.2550   -6.7260   23.8730 C   0  0  0  0  0  3  0  0  0  0  0  0
  -21.1730   -5.9020   25.0140 C   0  0  0  0  0  3  0  0  0  0  0  0
  -21.4910   -4.5340   24.9210 C   0  0  0  0  0  0  0  0  0  0  0  0
  -21.8940   -3.9870   23.6900 C   0  0  0  0  0  3  0  0  0  0  0  0
  -21.9780   -4.8070   22.5510 C   0  0  0  0  0  0  0  0  0  0  0  0
  -22.3450   -4.2690   21.3640 F   0  0  0  0  0  0  0  0  0  0  0  0
  -21.4050   -3.7420   26.0160 F   0  0  0  0  0  0  0  0  0  0  0  0
  -22.7630  -13.5670   21.1380 C   0  0  0  0  0  0  0  0  0  0  0  0
  -22.0410  -12.8700   22.0080 N   0  0  0  0  0  0  0  0  0  0  0  0
  -22.3210  -14.5930   20.6190 O   0  0  0  0  0  0  0  0  0  0  0  0
  -22.4120  -12.0400   22.4500 H   0  0  0  0  0  0  0  0  0  0  0  0
  -21.1040  -13.1680   22.2370 H   0  0  0  0  0  0  0  0  0  0  0  0
  -25.3820  -15.2400   20.2940 N   0  0  0  0  0  0  0  0  0  0  0  0
  -24.6110  -15.8900   20.4160 H   0  0  0  0  0  0  0  0  0  0  0  0
  -26.2170  -15.6760   19.9210 H   0  0  0  0  0  0  0  0  0  0  0  0
  -28.7070  -23.8620   19.9050 C   0  0  0  0  0  3  0  0  0  0  0  0
  -28.1590  -25.1290   20.7150 C   0  0  0  0  0  3  0  0  0  0  0  0
  -28.3500  -26.5080   20.2020 O   0  0  0  0  0  0  0  0  0  0  0  0
  -24.6130  -31.8800   23.2540 C   0  0  0  0  0  0  0  0  0  0  0  0
  -27.2340  -27.3500   20.1900 C   0  0  0  0  0  0  0  0  0  0  0  0
  -23.4130  -30.4860   21.6080 C   0  0  0  0  0  3  0  0  0  0  0  0
  -24.8670  -28.9400   20.1780 C   0  0  0  0  0  0  0  0  0  0  0  0
  -25.9490  -30.8140   21.4220 C   0  0  0  0  0  2  0  0  0  0  0  0
  -26.0330  -29.4380   20.7730 C   0  0  0  0  0  0  0  0  0  0  0  0
  -27.2260  -28.6550   20.7680 C   0  0  0  0  0  3  0  0  0  0  0  0
  -26.0520  -26.9020   19.5670 C   0  0  0  0  0  3  0  0  0  0  0  0
  -24.8780  -27.6800   19.5610 C   0  0  0  0  0  3  0  0  0  0  0  0
  -23.6270  -29.8120   20.2280 C   0  0  0  0  0  2  0  0  0  0  0  0
  -24.6780  -31.0770   22.1520 N   0  0  0  0  0  0  0  0  0  0  0  0
  -23.5310  -32.1540   23.7910 O   0  0  0  0  0  0  0  0  0  0  0  0
  -22.7540  -29.4660   22.5660 C   0  0  0  0  0  0  0  0  0  0  0  0
  -21.4270  -29.2870   22.4380 N   0  0  0  0  0  0  0  0  0  0  0  0
  -23.4330  -28.8370   23.3810 O   0  0  0  0  0  0  0  0  0  0  0  0
  -20.9380  -29.8480   21.7550 H   0  0  0  0  0  0  0  0  0  0  0  0
  -18.0510  -28.0900   22.9380 C   0  0  0  0  0  0  0  0  0  0  0  0
  -20.6100  -28.3470   23.2060 C   0  0  0  0  0  3  0  0  0  0  0  0
  -20.7090  -26.9180   22.6250 C   0  0  0  0  0  2  0  0  0  0  0  0
  -19.6060  -26.6000   21.6100 C   0  0  0  0  0  2  0  0  0  0  0  0
  -18.2250  -26.7430   22.2570 C   0  0  0  0  0  2  0  0  0  0  0  0
  -19.1700  -28.8500   23.3690 C   0  0  0  0  0  0  0  0  0  0  0  0
  -18.9510  -30.1110   23.9680 C   0  0  0  0  0  3  0  0  0  0  0  0
  -17.6480  -30.6120   24.1370 C   0  0  0  0  0  3  0  0  0  0  0  0
  -16.5430  -29.8480   23.7210 C   0  0  0  0  0  3  0  0  0  0  0  0
  -16.7450  -28.5900   23.1270 C   0  0  0  0  0  3  0  0  0  0  0  0
  -25.8970  -32.5130   23.8790 C   0  0  0  0  0  3  0  0  0  0  0  0
  -26.4090  -31.7420   25.1580 C   0  0  1  0  0  0  0  0  0  0  0  0
  -25.3110  -31.5090   26.2230 C   0  0  0  0  0  1  0  0  0  0  0  0
  -26.9900  -30.3630   24.7700 C   0  0  0  0  0  1  0  0  0  0  0  0
  -27.5610  -32.5350   25.8210 C   0  0  0  0  0  1  0  0  0  0  0  0
  -25.5870  -33.9130   24.2050 N   0  0  0  0  0  0  0  0  0  0  0  0
  -25.9240  -34.9640   23.4490 C   0  0  0  0  0  0  0  0  0  0  0  0
  -26.5990  -34.8600   22.4200 O   0  0  0  0  0  0  0  0  0  0  0  0
  -24.9910  -34.0680   25.0050 H   0  0  0  0  0  0  0  0  0  0  0  0
  -24.2040  -36.7620   23.0810 C   0  0  0  0  0  1  0  0  0  0  0  0
  -25.4370  -36.3550   23.9030 C   0  0  0  0  0  3  0  0  0  0  0  0
  -27.5700  -37.2330   24.7490 C   0  0  0  0  0  1  0  0  0  0  0  0
  -26.4740  -37.4040   23.7980 N   0  0  0  0  0  0  0  0  0  0  0  0
  -26.0700  -38.3260   23.9420 H   0  0  0  0  0  0  0  0  0  0  0  0
  1 48  1  0
  2  1  1  0
  2  3  1  0
  2  4  1  0
  5  2  1  0
  6  1  1  0
  6  7  1  0
  8  7  1  0
  8  9  1  0
 10 18  1  0
 11 16  1  0
 12 13  1  0
 12 11  1  0
 14 13  1  0
 14 23  1  0
 14 15  1  0
 16 10  1  0
 16 15  1  0
 17 10  2  0
 18 19  1  0
 18  9  1  0
 20 21  2  0
 21 40  1  0
 22 21  1  0
 22 25  1  0
 23 20  1  0
 23 24  1  0
 24 22  2  0
 25 26  1  0
 26 27  2  0
 28 31  1  0
 28 27  1  0
 29 28  2  0
 30 29  1  0
 30 25  2  0
 31 32  1  0
 32 33  1  0
 33 34  2  0
 35 34  1  0
 35 39  1  0
 36 35  2  0
 37 32  2  0
 37 36  1  0
 38 37  1  0
 40 41  1  0
 41 44  1  0
 41 43  1  0
 42 40  2  0
 45 46  1  0
 45 20  1  0
 47 45  1  0
 48 49  2  0
 50 49  1  0
 51 62  2  0
 52 50  1  0
 52 57  1  0
 53 61  1  0
 53 63  1  0
 54 60  1  0
 54 56  1  0
 55 61  1  0
 56 55  1  0
 57 56  2  0
 58 52  2  0
 59 58  1  0
 59 54  2  0
 60 53  1  0
 61 51  1  0
 63 65  2  0
 64 63  1  0
 66 64  1  0
 67 76  2  0
 67 72  1  0
 68 64  1  0
 68 72  1  0
 69 68  1  0
 70 71  1  0
 70 69  1  0
 71 67  1  0
 72 73  2  0
 73 74  1  0
 75 74  2  0
 76 75  1  0
 77 51  1  0
 77 82  1  0
 77 78  1  0
 78 81  1  1
 78 79  1  0
 80 78  1  0
 82 85  1  0
 83 87  1  0
 83 82  1  0
 84 83  2  0
 87 86  1  0
 89 87  1  0
 89 90  1  0
 89 88  1  0
M  ISO  4  10 100  18 100  49 101  50 101
M  END
>  <TORSDO>  (32) 
F 23

>  <SCORE>  (32) 
-12.885

>  <name>  (32) 
32

>  <ligand_id>  (32) 
32

>  <original_smiles>  (32) 
[H]c1c([H])c([H])c2c(c1[H])C([H])([H])C([H])([H])C([H])([H])C2([H])N([H])C(=O)C1([H])N(C(=O)C([H])(N([H])C(=O)C([H])(N([H])C([H])([H])[H])C([H])([H])[H])C(C([H])([H])[H])(C([H])([H])[H])C([H])([H])[H])C([H])([H])c2c([H])c(OC([H])([H])C([H])([H])C([H])(C([H])([H])C([H])([H])C([H])([H])C([H])([H])N([H])C(=O)N3C([H])([H])C([H])([H])C([H])([H])C([H])(n4nc(-c5c([H])c([H])c(Oc6c([H])c([H])c(F)c([H])c6F)c([H])c5[H])c(C(=O)N([H])[H])c4N([H])[H])C3([H])[H])[N+]([H])([H])[H])c([H])c([H])c2C1([H])[H]

>  <smiles>  (32) 
[H]c1c([H])c([H])c2c(c1[H])C([H])([H])C([H])([H])C([H])([H])C2([H])N([H])C(=O)C1([H])N(C(=O)C([H])(N([H])C(=O)C([H])(N([H])C([H])([H])[H])C([H])([H])[H])C(C([H])([H])[H])(C([H])([H])[H])C([H])([H])[H])C([H])([H])c2c([H])c(OC([H])([H])C([H])([H])C([H])(C([H])([H])C([H])([H])C([H])([H])C([H])([H])N([H])C(=O)N3C([H])([H])C([H])([H])C([H])([H])C([H])(n4nc(-c5c([H])c([H])c(Oc6c([H])c([H])c(F)c([H])c6F)c([H])c5[H])c(C(=O)N([H])[H])c4N([H])[H])C3([H])[H])[N+]([H])([H])[H])c([H])c([H])c2C1([H])[H]

$$$$
33:0:0
     RDKit          3D

 99106  0  0  1  0  0  0  0  0999 V2000
  -25.7180  -21.9010   18.9790 C   0  0  0  0  0  3  0  0  0  0  0  0
  -24.2620  -21.9380   18.9900 N   0  0  0  0  0  0  0  0  0  0  0  0
  -23.9240  -22.1150   18.0490 H   0  0  0  0  0  0  0  0  0  0  0  0
  -23.8870  -21.0270   19.2250 H   0  0  0  0  0  0  0  0  0  0  0  0
  -25.8290  -23.7210   17.1410 C   0  0  0  0  0  1  0  0  0  0  0  0
  -26.2650  -23.2910   18.5590 C   0  0  0  0  0  3  0  0  0  0  0  0
  -27.7390  -23.3890   18.7380 N   0  0  0  0  0  4  0  0  0  0  0  0
  -27.9980  -22.9000   19.5860 H   0  0  0  0  0  0  0  0  0  0  0  0
  -28.1750  -22.8840   17.9830 H   0  0  0  0  0  0  0  0  0  0  0  0
  -28.2990  -24.7710   18.7690 C   0  0  0  0  0  2  0  0  0  0  0  0
  -28.2300  -25.4120   20.1750 C   0  0  0  0  0  2  0  0  0  0  0  0
  -28.3370  -26.8420   20.1420 O   0  0  0  0  0  0  0  0  0  0  0  0
  -24.5000  -31.9410   23.3140 C   0  0  0  0  0  0  0  0  0  0  0  0
  -27.1550  -27.5520   20.1590 C   0  0  0  0  0  0  0  0  0  0  0  0
  -23.2960  -30.5470   21.6670 C   0  0  0  0  0  3  0  0  0  0  0  0
  -24.7450  -29.0360   20.2230 C   0  0  0  0  0  0  0  0  0  0  0  0
  -25.8220  -30.9150   21.4710 C   0  0  0  0  0  2  0  0  0  0  0  0
  -25.9080  -29.5590   20.8080 C   0  0  0  0  0  0  0  0  0  0  0  0
  -27.1150  -28.8250   20.7730 C   0  0  0  0  0  3  0  0  0  0  0  0
  -25.9760  -27.0580   19.5560 C   0  0  0  0  0  3  0  0  0  0  0  0
  -24.7750  -27.7820   19.5930 C   0  0  0  0  0  3  0  0  0  0  0  0
  -23.4960  -29.8790   20.2830 C   0  0  0  0  0  2  0  0  0  0  0  0
  -24.5560  -31.1480   22.2070 N   0  0  0  0  0  0  0  0  0  0  0  0
  -23.4200  -32.2030   23.8610 O   0  0  0  0  0  0  0  0  0  0  0  0
  -22.6530  -29.5130   22.6200 C   0  0  0  0  0  0  0  0  0  0  0  0
  -21.3360  -29.3060   22.4750 N   0  0  0  0  0  0  0  0  0  0  0  0
  -23.3390  -28.9020   23.4440 O   0  0  0  0  0  0  0  0  0  0  0  0
  -20.8470  -29.8430   21.7710 H   0  0  0  0  0  0  0  0  0  0  0  0
  -17.9850  -28.0180   22.9020 C   0  0  0  0  0  0  0  0  0  0  0  0
  -20.5260  -28.3550   23.2380 C   0  0  0  0  0  3  0  0  0  0  0  0
  -20.6840  -26.9180   22.6860 C   0  0  0  0  0  2  0  0  0  0  0  0
  -19.6200  -26.5490   21.6490 C   0  0  0  0  0  2  0  0  0  0  0  0
  -18.2170  -26.6660   22.2530 C   0  0  0  0  0  2  0  0  0  0  0  0
  -19.0690  -28.8200   23.3490 C   0  0  0  0  0  0  0  0  0  0  0  0
  -18.7970  -30.0860   23.9110 C   0  0  0  0  0  3  0  0  0  0  0  0
  -17.4740  -30.5510   24.0310 C   0  0  0  0  0  3  0  0  0  0  0  0
  -16.4040  -29.7480   23.6010 C   0  0  0  0  0  3  0  0  0  0  0  0
  -16.6610  -28.4830   23.0440 C   0  0  0  0  0  3  0  0  0  0  0  0
  -25.7860  -32.5710   23.9300 C   0  0  0  0  0  3  0  0  0  0  0  0
  -25.4850  -33.9760   24.2350 N   0  0  0  0  0  0  0  0  0  0  0  0
  -25.8270  -35.0140   23.4610 C   0  0  0  0  0  0  0  0  0  0  0  0
  -26.4980  -34.8890   22.4330 O   0  0  0  0  0  0  0  0  0  0  0  0
  -24.8890  -34.1490   25.0310 H   0  0  0  0  0  0  0  0  0  0  0  0
  -24.1050  -36.8040   23.0640 C   0  0  0  0  0  1  0  0  0  0  0  0
  -25.3400  -36.4110   23.8910 C   0  0  0  0  0  3  0  0  0  0  0  0
  -27.4750  -37.2970   24.7170 C   0  0  0  0  0  1  0  0  0  0  0  0
  -26.3780  -37.4570   23.7670 N   0  0  0  0  0  0  0  0  0  0  0  0
  -25.9770  -38.3830   23.8930 H   0  0  0  0  0  0  0  0  0  0  0  0
  -26.2920  -31.8130   25.2190 C   0  0  1  0  0  0  0  0  0  0  0  0
  -25.1910  -31.5920   26.2840 C   0  0  0  0  0  1  0  0  0  0  0  0
  -26.8730  -30.4290   24.8500 C   0  0  0  0  0  1  0  0  0  0  0  0
  -27.4430  -32.6130   25.8700 C   0  0  0  0  0  1  0  0  0  0  0  0
  -26.1890  -20.7070   18.1120 C   0  0  0  0  0  2  0  0  0  0  0  0
  -26.4660  -19.4210   18.9300 C   0  0  0  0  0  2  0  0  0  0  0  0
  -27.6720  -19.5050   19.8560 C   0  0  0  0  0  3  0  0  0  0  0  0
  -28.6480  -20.3050   19.6730 N   0  0  0  0  0  0  0  0  0  0  0  0
  -29.7140  -20.3020   20.6600 C   0  0  0  0  0  2  0  0  0  0  0  0
  -30.8410  -19.3410   20.2480 C   0  0  0  0  0  2  0  0  0  0  0  0
  -30.6120  -17.8760   20.6640 C   0  0  0  0  0  2  0  0  0  0  0  0
  -31.8760  -17.0310   20.4420 C   0  0  0  0  0  2  0  0  0  0  0  0
  -31.9410  -15.7350   21.2710 C   0  0  0  0  0  2  0  0  0  0  0  0
  -31.2840  -13.8200   19.8230 C   0  0  0  0  0  0  0  0  0  0  0  0
  -30.7740  -11.5900   18.8950 C   0  0  0  0  0  2  0  0  0  0  0  0
  -29.7990  -11.6580   17.7090 C   0  0  0  0  0  2  0  0  0  0  0  0
  -28.3440  -11.6330   18.2080 C   0  0  0  0  0  2  0  0  0  0  0  0
  -28.0830  -12.6760   19.3250 C   0  0  0  0  0  3  0  0  0  0  0  0
  -29.1620  -12.5930   20.4260 C   0  0  0  0  0  2  0  0  0  0  0  0
  -30.4900  -12.7180   19.7970 N   0  0  0  0  0  0  0  0  0  0  0  0
  -32.2490  -13.9780   19.0710 O   0  0  0  0  0  0  0  0  0  0  0  0
  -31.0330  -14.6820   20.8180 N   0  0  0  0  0  0  0  0  0  0  0  0
  -30.2450  -14.4650   21.4100 H   0  0  0  0  0  0  0  0  0  0  0  0
  -25.8170  -13.5190   20.2110 C   0  0  0  0  0  0  0  0  0  0  0  0
  -24.6890  -12.8550   20.6190 C   0  0  0  0  0  0  0  0  0  0  0  0
  -24.9870  -11.4640   20.4990 C   0  0  0  0  0  0  0  0  0  0  0  0
  -26.7360  -12.5370   19.8770 N   0  0  0  0  0  0  0  0  0  0  0  0
  -26.2420  -11.2930   20.1040 N   0  0  0  0  0  0  0  0  0  0  0  0
  -24.1310  -10.2840   20.6840 C   0  0  0  0  0  0  0  0  0  0  0  0
  -24.4800   -9.2510   21.5830 C   0  0  0  0  0  3  0  0  0  0  0  0
  -23.6320   -8.1360   21.7560 C   0  0  0  0  0  3  0  0  0  0  0  0
  -22.4190   -8.0460   21.0320 C   0  0  0  0  0  0  0  0  0  0  0  0
  -22.0880   -9.0660   20.1240 C   0  0  0  0  0  3  0  0  0  0  0  0
  -22.9350  -10.1730   19.9470 C   0  0  0  0  0  3  0  0  0  0  0  0
  -21.5460   -6.9880   21.1170 O   0  0  0  0  0  0  0  0  0  0  0  0
  -21.4270   -6.2430   22.2630 C   0  0  0  0  0  0  0  0  0  0  0  0
  -21.0660   -6.8270   23.4970 C   0  0  0  0  0  3  0  0  0  0  0  0
  -20.8870   -6.0140   24.6340 C   0  0  0  0  0  3  0  0  0  0  0  0
  -21.0590   -4.6200   24.5380 C   0  0  0  0  0  0  0  0  0  0  0  0
  -21.4130   -4.0370   23.3090 C   0  0  0  0  0  3  0  0  0  0  0  0
  -21.5940   -4.8470   22.1740 C   0  0  0  0  0  0  0  0  0  0  0  0
  -21.9150   -4.2780   20.9870 F   0  0  0  0  0  0  0  0  0  0  0  0
  -20.8780   -3.8390   25.6280 F   0  0  0  0  0  0  0  0  0  0  0  0
  -23.3780  -13.4750   21.0050 C   0  0  0  0  0  0  0  0  0  0  0  0
  -22.6420  -12.8370   21.9090 N   0  0  0  0  0  0  0  0  0  0  0  0
  -23.0200  -14.5560   20.5420 O   0  0  0  0  0  0  0  0  0  0  0  0
  -22.9460  -11.9590   22.3020 H   0  0  0  0  0  0  0  0  0  0  0  0
  -21.7630  -13.2310   22.2110 H   0  0  0  0  0  0  0  0  0  0  0  0
  -26.1310  -14.8670   20.0830 N   0  0  0  0  0  0  0  0  0  0  0  0
  -25.4550  -15.6010   20.2640 H   0  0  0  0  0  0  0  0  0  0  0  0
  -27.0120  -15.2180   19.7290 H   0  0  0  0  0  0  0  0  0  0  0  0
  1 53  1  0
  1  2  1  0
  2  4  1  0
  3  2  1  0
  6  5  1  0
  6  7  1  0
  6  1  1  0
  7 10  1  0
  7  8  1  0
  9  7  1  0
 10 11  1  0
 12 14  1  0
 12 11  1  0
 13 24  2  0
 14 19  1  0
 15 23  1  0
 15 25  1  0
 16 22  1  0
 16 18  1  0
 17 23  1  0
 18 17  1  0
 19 18  2  0
 20 21  1  0
 20 14  2  0
 21 16  2  0
 22 15  1  0
 23 13  1  0
 25 27  2  0
 26 25  1  0
 28 26  1  0
 29 38  2  0
 29 34  1  0
 30 26  1  0
 30 34  1  0
 31 30  1  0
 32 33  1  0
 32 31  1  0
 33 29  1  0
 34 35  2  0
 35 36  1  0
 37 36  2  0
 38 37  1  0
 39 13  1  0
 39 40  1  0
 39 49  1  0
 40 43  1  0
 41 45  1  0
 41 40  1  0
 42 41  2  0
 45 44  1  0
 47 45  1  0
 47 48  1  0
 47 46  1  0
 49 52  1  1
 49 50  1  0
 51 49  1  0
 53 54  1  0
 54 55  1  0
 56 55  2  0
 56 57  1  0
 58 57  1  0
 58 59  1  0
 60 59  1  0
 60 61  1  0
 62 70  1  0
 63 68  1  0
 64 65  1  0
 64 63  1  0
 66 65  1  0
 66 75  1  0
 66 67  1  0
 68 62  1  0
 68 67  1  0
 69 62  2  0
 70 61  1  0
 70 71  1  0
 72 73  2  0
 73 92  1  0
 74 73  1  0
 74 77  1  0
 75 76  1  0
 75 72  1  0
 76 74  2  0
 77 78  1  0
 78 79  2  0
 80 83  1  0
 80 79  1  0
 81 80  2  0
 82 81  1  0
 82 77  2  0
 83 84  1  0
 84 85  1  0
 85 86  2  0
 87 86  1  0
 87 91  1  0
 88 87  2  0
 89 84  2  0
 89 88  1  0
 90 89  1  0
 92 93  1  0
 93 96  1  0
 93 95  1  0
 94 92  2  0
 97 72  1  0
 97 98  1  0
 99 97  1  0
M  ISO  4  11 101  12 101  62 100  70 100
M  END
>  <TORSDO>  (33) 
F 29

>  <SCORE>  (33) 
-10.213

>  <name>  (33) 
33

>  <ligand_id>  (33) 
33

>  <original_smiles>  (33) 
[H]C(=NC([H])([H])C([H])([H])C([H])([H])C([H])([H])C([H])([H])N([H])C(=O)N1C([H])([H])C([H])([H])C([H])([H])C([H])(n2nc(-c3c([H])c([H])c(Oc4c([H])c([H])c(F)c([H])c4F)c([H])c3[H])c(C(=O)N([H])[H])c2N([H])[H])C1([H])[H])C([H])([H])C([H])([H])C([H])(N([H])[H])C([H])(C([H])([H])[H])[N+]([H])([H])C([H])([H])C([H])([H])Oc1c([H])c([H])c2c(c1[H])C([H])([H])N(C(=O)C([H])(N([H])C(=O)C([H])(N([H])C([H])([H])[H])C([H])([H])[H])C(C([H])([H])[H])(C([H])([H])[H])C([H])([H])[H])C([H])(C(=O)N([H])C1([H])c3c([H])c([H])c([H])c([H])c3C([H])([H])C([H])([H])C1([H])[H])C2([H])[H]

>  <smiles>  (33) 
[H]C(=NC([H])([H])C([H])([H])C([H])([H])C([H])([H])C([H])([H])N([H])C(=O)N1C([H])([H])C([H])([H])C([H])([H])C([H])(n2nc(-c3c([H])c([H])c(Oc4c([H])c([H])c(F)c([H])c4F)c([H])c3[H])c(C(=O)N([H])[H])c2N([H])[H])C1([H])[H])C([H])([H])C([H])([H])C([H])(N([H])[H])C([H])(C([H])([H])[H])[N+]([H])([H])C([H])([H])C([H])([H])Oc1c([H])c([H])c2c(c1[H])C([H])([H])N(C(=O)C([H])(N([H])C(=O)C([H])(N([H])C([H])([H])[H])C([H])([H])[H])C(C([H])([H])[H])(C([H])([H])[H])C([H])([H])[H])C([H])(C(=O)N([H])C1([H])c3c([H])c([H])c([H])c([H])c3C([H])([H])C([H])([H])C1([H])[H])C2([H])[H]

$$$$
34:0:0
     RDKit          3D

 95102  0  0  1  0  0  0  0  0999 V2000
  -29.2840  -21.1550   21.5170 C   0  0  0  0  0  2  0  0  0  0  0  0
  -29.6510  -22.5830   21.6020 N   0  0  0  0  0  4  0  0  0  0  0  0
  -29.3790  -22.8910   22.5210 H   0  0  0  0  0  0  0  0  0  0  0  0
  -30.6550  -22.6460   21.5480 H   0  0  0  0  0  0  0  0  0  0  0  0
  -29.0230  -23.4150   20.5580 C   0  0  0  0  0  2  0  0  0  0  0  0
  -29.2340  -24.9230   20.7880 C   0  0  0  0  0  2  0  0  0  0  0  0
  -28.5280  -25.7450   19.7050 C   0  0  0  0  0  2  0  0  0  0  0  0
  -28.4880  -27.1260   20.0740 O   0  0  0  0  0  0  0  0  0  0  0  0
  -24.5110  -32.0230   23.3390 C   0  0  0  0  0  0  0  0  0  0  0  0
  -27.2670  -27.7690   20.1010 C   0  0  0  0  0  0  0  0  0  0  0  0
  -23.3210  -30.5930   21.7090 C   0  0  0  0  0  3  0  0  0  0  0  0
  -24.8010  -29.1540   20.2180 C   0  0  0  0  0  0  0  0  0  0  0  0
  -25.8220  -31.0720   21.4480 C   0  0  0  0  0  2  0  0  0  0  0  0
  -25.9500  -29.7180   20.7870 C   0  0  0  0  0  0  0  0  0  0  0  0
  -27.1800  -29.0290   20.7330 C   0  0  0  0  0  3  0  0  0  0  0  0
  -26.0980  -27.2330   19.5040 C   0  0  0  0  0  3  0  0  0  0  0  0
  -24.8690  -27.9090   19.5780 C   0  0  0  0  0  3  0  0  0  0  0  0
  -23.5210  -29.9520   20.3110 C   0  0  0  0  0  2  0  0  0  0  0  0
  -24.5700  -31.2470   22.2210 N   0  0  0  0  0  0  0  0  0  0  0  0
  -23.4360  -32.2320   23.9170 O   0  0  0  0  0  0  0  0  0  0  0  0
  -22.7510  -29.5230   22.6680 C   0  0  0  0  0  0  0  0  0  0  0  0
  -21.4600  -29.1950   22.4990 N   0  0  0  0  0  0  0  0  0  0  0  0
  -23.4690  -28.9910   23.5180 O   0  0  0  0  0  0  0  0  0  0  0  0
  -20.9370  -29.6850   21.7860 H   0  0  0  0  0  0  0  0  0  0  0  0
  -18.2460  -27.5800   22.8280 C   0  0  0  0  0  0  0  0  0  0  0  0
  -20.7190  -28.1900   23.2620 C   0  0  0  0  0  3  0  0  0  0  0  0
  -21.0520  -26.7620   22.7710 C   0  0  0  0  0  2  0  0  0  0  0  0
  -20.0800  -26.2500   21.7020 C   0  0  0  0  0  2  0  0  0  0  0  0
  -18.6470  -26.2360   22.2420 C   0  0  0  0  0  2  0  0  0  0  0  0
  -19.2190  -28.5040   23.2930 C   0  0  0  0  0  0  0  0  0  0  0  0
  -18.7940  -29.7520   23.7960 C   0  0  0  0  0  3  0  0  0  0  0  0
  -17.4270  -30.0820   23.8420 C   0  0  0  0  0  3  0  0  0  0  0  0
  -16.4670  -29.1580   23.3940 C   0  0  0  0  0  3  0  0  0  0  0  0
  -16.8760  -27.9090   22.8950 C   0  0  0  0  0  3  0  0  0  0  0  0
  -25.7840  -32.7030   23.9320 C   0  0  0  0  0  3  0  0  0  0  0  0
  -26.3120  -32.0020   25.2440 C   0  0  1  0  0  0  0  0  0  0  0  0
  -25.2160  -31.7770   26.3110 C   0  0  0  0  0  1  0  0  0  0  0  0
  -26.9360  -30.6260   24.9140 C   0  0  0  0  0  1  0  0  0  0  0  0
  -27.4310  -32.8570   25.8840 C   0  0  0  0  0  1  0  0  0  0  0  0
  -25.4530  -34.1110   24.1880 N   0  0  0  0  0  0  0  0  0  0  0  0
  -25.7490  -35.1250   23.3630 C   0  0  0  0  0  0  0  0  0  0  0  0
  -26.4010  -34.9750   22.3260 O   0  0  0  0  0  0  0  0  0  0  0  0
  -24.8760  -34.3000   24.9960 H   0  0  0  0  0  0  0  0  0  0  0  0
  -23.9620  -36.8450   22.9540 C   0  0  0  0  0  1  0  0  0  0  0  0
  -25.2370  -36.5250   23.7500 C   0  0  0  0  0  3  0  0  0  0  0  0
  -27.3700  -37.5120   24.4590 C   0  0  0  0  0  1  0  0  0  0  0  0
  -26.2370  -37.5940   23.5410 N   0  0  0  0  0  0  0  0  0  0  0  0
  -25.8100  -38.5100   23.6430 H   0  0  0  0  0  0  0  0  0  0  0  0
  -30.2130  -20.3430   22.4190 C   0  0  0  0  0  0  0  0  0  0  0  0
  -30.9320  -20.9300   23.2370 O   0  0  0  0  0  0  0  0  0  0  0  0
  -30.1820  -18.8770   22.2340 C   0  0  0  0  0  3  0  0  0  0  0  0
  -30.9730  -17.9800   22.8620 C   0  0  0  0  0  0  0  0  0  0  0  0
  -31.9040  -18.2790   23.7830 O   0  0  0  0  0  0  0  0  0  0  0  0
  -32.3060  -17.4670   24.0670 H   0  0  0  0  0  0  0  0  0  0  0  0
  -30.9300  -16.4790   22.6300 C   0  0  0  0  0  2  0  0  0  0  0  0
  -31.9230  -16.0390   21.5350 C   0  0  0  0  0  2  0  0  0  0  0  0
  -31.3270  -15.9890   20.1160 C   0  0  0  0  0  2  0  0  0  0  0  0
  -30.5310  -13.9860   18.8860 C   0  0  0  0  0  0  0  0  0  0  0  0
  -30.0650  -11.6760   18.1620 C   0  0  0  0  0  2  0  0  0  0  0  0
  -28.9110  -11.5740   17.1490 C   0  0  0  0  0  2  0  0  0  0  0  0
  -27.5580  -11.4830   17.8780 C   0  0  0  0  0  2  0  0  0  0  0  0
  -27.3870  -12.5900   18.9490 C   0  0  0  0  0  3  0  0  0  0  0  0
  -28.6260  -12.6650   19.8690 C   0  0  0  0  0  2  0  0  0  0  0  0
  -29.8310  -12.8340   19.0360 N   0  0  0  0  0  0  0  0  0  0  0  0
  -31.2930  -14.2040   17.9390 O   0  0  0  0  0  0  0  0  0  0  0  0
  -30.4710  -14.8190   19.9340 N   0  0  0  0  0  0  0  0  0  0  0  0
  -29.8670  -14.5530   20.6980 H   0  0  0  0  0  0  0  0  0  0  0  0
  -25.2680  -13.3440   20.2040 C   0  0  0  0  0  0  0  0  0  0  0  0
  -24.2480  -12.6380   20.7850 C   0  0  0  0  0  0  0  0  0  0  0  0
  -24.5730  -11.2590   20.6080 C   0  0  0  0  0  0  0  0  0  0  0  0
  -26.1560  -12.3990   19.7150 N   0  0  0  0  0  0  0  0  0  0  0  0
  -25.7530  -11.1370   20.0110 N   0  0  0  0  0  0  0  0  0  0  0  0
  -23.8060  -10.0460   20.9220 C   0  0  0  0  0  0  0  0  0  0  0  0
  -24.3240   -9.0430   21.7700 C   0  0  0  0  0  3  0  0  0  0  0  0
  -23.5590   -7.8960   22.0730 C   0  0  0  0  0  3  0  0  0  0  0  0
  -22.2620   -7.7430   21.5300 C   0  0  0  0  0  0  0  0  0  0  0  0
  -21.7590   -8.7340   20.6680 C   0  0  0  0  0  3  0  0  0  0  0  0
  -22.5230   -9.8730   20.3630 C   0  0  0  0  0  3  0  0  0  0  0  0
  -21.4580   -6.6510   21.7470 O   0  0  0  0  0  0  0  0  0  0  0  0
  -21.5140   -5.9360   22.9160 C   0  0  0  0  0  0  0  0  0  0  0  0
  -21.2910   -6.5430   24.1720 C   0  0  0  0  0  3  0  0  0  0  0  0
  -21.2900   -5.7580   25.3420 C   0  0  0  0  0  3  0  0  0  0  0  0
  -21.5030   -4.3690   25.2600 C   0  0  0  0  0  0  0  0  0  0  0  0
  -21.7200   -3.7630   24.0100 C   0  0  0  0  0  3  0  0  0  0  0  0
  -21.7230   -4.5450   22.8410 C   0  0  0  0  0  0  0  0  0  0  0  0
  -21.9110   -3.9520   21.6370 F   0  0  0  0  0  0  0  0  0  0  0  0
  -21.4930   -3.6140   26.3830 F   0  0  0  0  0  0  0  0  0  0  0  0
  -22.9940  -13.2040   21.3870 C   0  0  0  0  0  0  0  0  0  0  0  0
  -22.4550  -12.5490   22.4090 N   0  0  0  0  0  0  0  0  0  0  0  0
  -22.5140  -14.2630   20.9860 O   0  0  0  0  0  0  0  0  0  0  0  0
  -22.8610  -11.6910   22.7530 H   0  0  0  0  0  0  0  0  0  0  0  0
  -21.6240  -12.9100   22.8540 H   0  0  0  0  0  0  0  0  0  0  0  0
  -25.5040  -14.7060   20.0330 N   0  0  0  0  0  0  0  0  0  0  0  0
  -24.8450  -15.4160   20.3360 H   0  0  0  0  0  0  0  0  0  0  0  0
  -26.3050  -15.0870   19.5460 H   0  0  0  0  0  0  0  0  0  0  0  0
  1  2  1  0
  1 49  1  0
  2  3  1  0
  4  2  1  0
  5  6  1  0
  5  2  1  0
  7  8  1  0
  7  6  1  0
  8 10  1  0
  9 20  2  0
 10 15  1  0
 11 19  1  0
 11 21  1  0
 12 18  1  0
 12 14  1  0
 13 19  1  0
 14 13  1  0
 15 14  2  0
 16 17  1  0
 16 10  2  0
 17 12  2  0
 18 11  1  0
 19  9  1  0
 21 23  2  0
 22 21  1  0
 24 22  1  0
 25 34  2  0
 25 30  1  0
 26 22  1  0
 26 30  1  0
 27 26  1  0
 28 29  1  0
 28 27  1  0
 29 25  1  0
 30 31  2  0
 31 32  1  0
 33 32  2  0
 34 33  1  0
 35  9  1  0
 35 40  1  0
 35 36  1  0
 36 39  1  1
 36 37  1  0
 38 36  1  0
 40 43  1  0
 41 45  1  0
 41 40  1  0
 42 41  2  0
 45 44  1  0
 47 48  1  0
 47 45  1  0
 47 46  1  0
 49 50  2  0
 51 49  1  0
 51 52  2  0
 52 53  1  0
 53 54  1  0
 55 52  1  0
 56 55  1  0
 57 56  1  0
 58 64  1  0
 58 66  1  0
 59 64  1  0
 60 61  1  0
 60 59  1  0
 62 61  1  0
 62 71  1  0
 62 63  1  0
 64 63  1  0
 65 58  2  0
 66 57  1  0
 66 67  1  0
 68 69  2  0
 69 88  1  0
 70 69  1  0
 70 73  1  0
 71 72  1  0
 71 68  1  0
 72 70  2  0
 73 74  1  0
 74 75  2  0
 76 79  1  0
 76 75  1  0
 77 76  2  0
 78 77  1  0
 78 73  2  0
 79 80  1  0
 80 81  1  0
 81 82  2  0
 83 82  1  0
 83 87  1  0
 84 83  2  0
 85 80  2  0
 85 84  1  0
 86 85  1  0
 88 89  1  0
 89 91  1  0
 89 92  1  0
 90 88  2  0
 93 68  1  0
 93 94  1  0
 95 93  1  0
M  ISO  4   7 101   8 101  58 100  66 100
M  END
>  <TORSDO>  (34) 
F 26

>  <SCORE>  (34) 
-7.203

>  <name>  (34) 
34

>  <ligand_id>  (34) 
34

>  <original_smiles>  (34) 
[H]OC(=C([H])C(=O)C([H])([H])[N+]([H])([H])C([H])([H])C([H])([H])C([H])([H])Oc1c([H])c([H])c2c(c1[H])C([H])([H])N(C(=O)C([H])(N([H])C(=O)C([H])(N([H])C([H])([H])[H])C([H])([H])[H])C(C([H])([H])[H])(C([H])([H])[H])C([H])([H])[H])C([H])(C(=O)N([H])C1([H])c3c([H])c([H])c([H])c([H])c3C([H])([H])C([H])([H])C1([H])[H])C2([H])[H])C([H])([H])C([H])([H])C([H])([H])N([H])C(=O)N1C([H])([H])C([H])([H])C([H])([H])C([H])(n2nc(-c3c([H])c([H])c(Oc4c([H])c([H])c(F)c([H])c4F)c([H])c3[H])c(C(=O)N([H])[H])c2N([H])[H])C1([H])[H]

>  <smiles>  (34) 
[H]OC(=C([H])C(=O)C([H])([H])[N+]([H])([H])C([H])([H])C([H])([H])C([H])([H])Oc1c([H])c([H])c2c(c1[H])C([H])([H])N(C(=O)C([H])(N([H])C(=O)C([H])(N([H])C([H])([H])[H])C([H])([H])[H])C(C([H])([H])[H])(C([H])([H])[H])C([H])([H])[H])C([H])(C(=O)N([H])C1([H])c3c([H])c([H])c([H])c([H])c3C([H])([H])C([H])([H])C1([H])[H])C2([H])[H])C([H])([H])C([H])([H])C([H])([H])N([H])C(=O)N1C([H])([H])C([H])([H])C([H])([H])C([H])(n2nc(-c3c([H])c([H])c(Oc4c([H])c([H])c(F)c([H])c4F)c([H])c3[H])c(C(=O)N([H])[H])c2N([H])[H])C1([H])[H]

$$$$
35:0:0
     RDKit          3D

100108  0  0  1  0  0  0  0  0999 V2000
  -36.2140  -21.0190    6.1960 C   0  0  0  0  0  3  0  0  0  0  0  0
  -35.8460  -22.3600    6.0380 C   0  0  0  0  0  3  0  0  0  0  0  0
  -33.9930  -20.5020    7.0860 C   0  0  0  0  0  3  0  0  0  0  0  0
  -35.2920  -20.0840    6.7180 C   0  0  0  0  0  0  0  0  0  0  0  0
  -34.5600  -22.7880    6.4320 C   0  0  0  0  0  0  0  0  0  0  0  0
  -33.6340  -21.8540    6.9600 C   0  0  0  0  0  0  0  0  0  0  0  0
  -32.4000  -22.2520    7.3580 F   0  0  0  0  0  0  0  0  0  0  0  0
  -35.6660  -18.6610    6.8250 C   0  0  0  0  0  0  0  0  0  0  0  0
  -36.5320  -18.2440    7.5960 O   0  0  0  0  0  0  0  0  0  0  0  0
  -34.9510  -17.7090    5.8650 C   0  0  0  0  0  2  0  0  0  0  0  0
  -35.3340  -17.8900    4.3920 C   0  0  0  0  0  2  0  0  0  0  0  0
  -36.7520  -17.4250    4.0080 C   0  0  0  0  0  2  0  0  0  0  0  0
  -37.2130  -16.0720    4.6080 C   0  0  0  0  0  2  0  0  0  0  0  0
  -39.3330  -15.8810    5.9080 C   0  0  0  0  0  0  0  0  0  0  0  0
  -40.9060  -15.2920    7.7260 C   0  0  0  0  0  2  0  0  0  0  0  0
  -41.1190  -13.7750    7.8550 C   0  0  0  0  0  2  0  0  0  0  0  0
  -40.0320  -13.1250    8.7290 C   0  0  0  0  0  2  0  0  0  0  0  0
  -38.6020  -13.5320    8.2800 C   0  0  0  0  0  3  0  0  0  0  0  0
  -38.5220  -15.0690    8.1510 C   0  0  0  0  0  2  0  0  0  0  0  0
  -39.5580  -15.5440    7.2060 N   0  0  0  0  0  0  0  0  0  0  0  0
  -40.1830  -15.8580    5.0150 O   0  0  0  0  0  0  0  0  0  0  0  0
  -38.1090  -16.3780    5.7150 N   0  0  0  0  0  0  0  0  0  0  0  0
  -37.6350  -16.5880    6.5800 H   0  0  0  0  0  0  0  0  0  0  0  0
  -36.8580  -11.8320    9.1410 C   0  0  0  0  0  0  0  0  0  0  0  0
  -36.0900  -11.8030   10.2800 C   0  0  0  0  0  0  0  0  0  0  0  0
  -36.4070  -12.9950   10.9930 C   0  0  0  0  0  0  0  0  0  0  0  0
  -37.5830  -13.0150    9.1980 N   0  0  0  0  0  0  0  0  0  0  0  0
  -37.2740  -13.7330   10.3070 N   0  0  0  0  0  0  0  0  0  0  0  0
  -35.9850  -13.4500   12.3240 C   0  0  0  0  0  0  0  0  0  0  0  0
  -34.8970  -14.3340   12.4870 C   0  0  0  0  0  3  0  0  0  0  0  0
  -34.4990  -14.7480   13.7770 C   0  0  0  0  0  3  0  0  0  0  0  0
  -35.1880  -14.2700   14.9180 C   0  0  0  0  0  0  0  0  0  0  0  0
  -36.2880  -13.4130   14.7470 C   0  0  0  0  0  3  0  0  0  0  0  0
  -36.6850  -13.0060   13.4630 C   0  0  0  0  0  3  0  0  0  0  0  0
  -34.8850  -14.6340   16.2080 O   0  0  0  0  0  0  0  0  0  0  0  0
  -34.0130  -13.9050   16.9780 C   0  0  0  0  0  0  0  0  0  0  0  0
  -34.4580  -12.8790   17.8410 C   0  0  0  0  0  3  0  0  0  0  0  0
  -33.5360  -12.2010   18.6640 C   0  0  0  0  0  3  0  0  0  0  0  0
  -32.1730  -12.5580   18.6350 C   0  0  0  0  0  0  0  0  0  0  0  0
  -31.7310  -13.5870   17.7850 C   0  0  0  0  0  3  0  0  0  0  0  0
  -32.6490  -14.2580   16.9610 C   0  0  0  0  0  0  0  0  0  0  0  0
  -32.2190  -15.2630   16.1590 F   0  0  0  0  0  0  0  0  0  0  0  0
  -31.2880  -11.9110   19.4280 F   0  0  0  0  0  0  0  0  0  0  0  0
  -35.1840  -10.6900   10.7260 C   0  0  0  0  0  0  0  0  0  0  0  0
  -33.9200  -11.0050   11.0060 N   0  0  0  0  0  0  0  0  0  0  0  0
  -35.5770   -9.5280   10.7830 O   0  0  0  0  0  0  0  0  0  0  0  0
  -33.5990  -11.9570   10.9390 H   0  0  0  0  0  0  0  0  0  0  0  0
  -33.2740  -10.2880   11.3040 H   0  0  0  0  0  0  0  0  0  0  0  0
  -37.0030  -10.9520    8.0790 N   0  0  0  0  0  0  0  0  0  0  0  0
  -36.5080  -10.0660    8.0470 H   0  0  0  0  0  0  0  0  0  0  0  0
  -37.6490  -11.0720    7.3070 H   0  0  0  0  0  0  0  0  0  0  0  0
  -34.1710  -24.2450    6.2570 C   0  0  0  0  0  2  0  0  0  0  0  0
  -34.0890  -25.0140    7.5810 C   0  0  0  0  0  2  0  0  0  0  0  0
  -32.8810  -25.9630    7.7390 C   0  0  0  0  0  3  0  0  0  0  0  0
  -31.6080  -25.3830    7.2430 N   0  0  0  0  0  4  0  0  0  0  0  0
  -31.4380  -24.4780    7.6470 H   0  0  0  0  0  0  0  0  0  0  0  0
  -31.6160  -25.2840    6.2420 H   0  0  0  0  0  0  0  0  0  0  0  0
  -30.8370  -25.9850    7.4820 H   0  0  0  0  0  0  0  0  0  0  0  0
  -33.1220  -27.3800    7.1520 C   0  0  0  0  0  2  0  0  0  0  0  0
  -32.8350  -28.4560    8.0600 O   0  0  0  0  0  0  0  0  0  0  0  0
  -32.6920  -29.3510   15.1300 C   0  0  0  0  0  0  0  0  0  0  0  0
  -33.5640  -28.5190    9.2270 C   0  0  0  0  0  0  0  0  0  0  0  0
  -34.9250  -29.4090   14.0740 C   0  0  0  0  0  3  0  0  0  0  0  0
  -35.0170  -28.6670   11.6440 C   0  0  0  0  0  0  0  0  0  0  0  0
  -33.0000  -28.0980   13.0090 C   0  0  0  0  0  2  0  0  0  0  0  0
  -33.6530  -28.3550   11.6670 C   0  0  0  0  0  0  0  0  0  0  0  0
  -32.9200  -28.2810   10.4620 C   0  0  0  0  0  3  0  0  0  0  0  0
  -34.9410  -28.8270    9.2340 C   0  0  0  0  0  3  0  0  0  0  0  0
  -35.6670  -28.9050   10.4280 C   0  0  0  0  0  3  0  0  0  0  0  0
  -35.7460  -28.7090   12.9610 C   0  0  0  0  0  2  0  0  0  0  0  0
  -33.4920  -28.9760   14.0960 N   0  0  0  0  0  0  0  0  0  0  0  0
  -33.1420  -30.0050   16.0810 O   0  0  0  0  0  0  0  0  0  0  0  0
  -35.0980  -30.9360   13.9200 C   0  0  0  0  0  0  0  0  0  0  0  0
  -35.3590  -31.6160   15.0470 N   0  0  0  0  0  0  0  0  0  0  0  0
  -35.0290  -31.4760   12.8110 O   0  0  0  0  0  0  0  0  0  0  0  0
  -35.3850  -31.1000   15.9150 H   0  0  0  0  0  0  0  0  0  0  0  0
  -34.4710  -34.5970   16.8830 C   0  0  0  0  0  0  0  0  0  0  0  0
  -35.5920  -33.0510   15.1490 C   0  0  0  0  0  3  0  0  0  0  0  0
  -36.9090  -33.3550   15.8970 C   0  0  0  0  0  2  0  0  0  0  0  0
  -36.7080  -33.5430   17.4010 C   0  0  0  0  0  2  0  0  0  0  0  0
  -35.7770  -34.7370   17.6420 C   0  0  0  0  0  2  0  0  0  0  0  0
  -34.3800  -33.7830   15.7240 C   0  0  0  0  0  0  0  0  0  0  0  0
  -33.1310  -33.6410   15.0820 C   0  0  0  0  0  3  0  0  0  0  0  0
  -31.9920  -34.3070   15.5690 C   0  0  0  0  0  3  0  0  0  0  0  0
  -32.0940  -35.1340   16.7010 C   0  0  0  0  0  3  0  0  0  0  0  0
  -33.3300  -35.2730   17.3580 C   0  0  0  0  0  3  0  0  0  0  0  0
  -31.1840  -28.9530   15.1820 C   0  0  0  0  0  3  0  0  0  0  0  0
  -30.2130  -30.1070   14.7130 C   0  0  1  0  0  0  0  0  0  0  0  0
  -30.2840  -31.3690   15.6040 C   0  0  0  0  0  1  0  0  0  0  0  0
  -30.5270  -30.5480   13.2640 C   0  0  0  0  0  1  0  0  0  0  0  0
  -28.7530  -29.5950   14.7060 C   0  0  0  0  0  1  0  0  0  0  0  0
  -30.8890  -28.5540   16.5640 N   0  0  0  0  0  0  0  0  0  0  0  0
  -30.6590  -27.2940   16.9580 C   0  0  0  0  0  0  0  0  0  0  0  0
  -30.6050  -26.3440   16.1720 O   0  0  0  0  0  0  0  0  0  0  0  0
  -30.9890  -29.2670   17.2700 H   0  0  0  0  0  0  0  0  0  0  0  0
  -31.6650  -26.2880   19.0310 C   0  0  0  0  0  1  0  0  0  0  0  0
  -30.4540  -27.0520   18.4660 C   0  0  0  0  0  3  0  0  0  0  0  0
  -28.0060  -27.1400   18.6280 C   0  0  0  0  0  1  0  0  0  0  0  0
  -29.2070  -26.3200   18.7800 N   0  0  0  0  0  0  0  0  0  0  0  0
  -29.2290  -25.9530   19.7270 H   0  0  0  0  0  0  0  0  0  0  0  0
  1  4  1  0
  2  1  2  0
  2  5  1  0
  4  8  1  0
  4  3  2  0
  5  6  2  0
  6  3  1  0
  6  7  1  0
  8  9  2  0
 10  8  1  0
 11 10  1  0
 12 11  1  0
 12 13  1  0
 13 22  1  0
 14 20  1  0
 15 16  1  0
 16 17  1  0
 18 19  1  0
 18 17  1  0
 18 27  1  0
 20 15  1  0
 20 19  1  0
 21 14  2  0
 22 14  1  0
 22 23  1  0
 24 27  1  0
 24 25  2  0
 25 44  1  0
 25 26  1  0
 26 29  1  0
 27 28  1  0
 28 26  2  0
 29 30  2  0
 29 34  1  0
 30 31  1  0
 31 32  2  0
 32 35  1  0
 33 32  1  0
 34 33  2  0
 35 36  1  0
 36 37  1  0
 37 38  2  0
 39 38  1  0
 39 43  1  0
 40 39  2  0
 41 36  2  0
 41 40  1  0
 42 41  1  0
 44 46  2  0
 44 45  1  0
 45 48  1  0
 47 45  1  0
 49 24  1  0
 50 49  1  0
 51 49  1  0
 52  5  1  0
 52 53  1  0
 53 54  1  0
 54 59  1  0
 55 58  1  0
 55 56  1  0
 55 54  1  0
 57 55  1  0
 59 60  1  0
 60 62  1  0
 61 72  2  0
 62 68  2  0
 62 67  1  0
 63 73  1  0
 63 71  1  0
 64 66  1  0
 64 70  1  0
 65 71  1  0
 66 65  1  0
 67 66  2  0
 68 69  1  0
 69 64  2  0
 70 63  1  0
 71 61  1  0
 73 74  1  0
 74 76  1  0
 75 73  2  0
 77 86  1  0
 77 81  1  0
 78 74  1  0
 78 82  1  0
 78 79  1  0
 79 80  1  0
 80 81  1  0
 82 77  2  0
 83 84  2  0
 83 82  1  0
 84 85  1  0
 85 86  2  0
 87 61  1  0
 87 92  1  0
 88 87  1  0
 88 89  1  1
 90 88  1  0
 91 88  1  0
 92 93  1  0
 92 95  1  0
 93 97  1  0
 94 93  2  0
 97 99  1  0
 97 96  1  0
 98 99  1  0
 99100  1  0
M  ISO  4  14 100  22 100  59 101  60 101
M  END
>  <TORSDO>  (35) 
F 26

>  <SCORE>  (35) 
-2.665

>  <name>  (35) 
35

>  <ligand_id>  (35) 
35

>  <original_smiles>  (35) 
[H]c1c([H])c([H])c2c(c1[H])C([H])([H])C([H])([H])C([H])([H])C2([H])N([H])C(=O)C1([H])N(C(=O)C([H])(N([H])C(=O)C([H])(N([H])C([H])([H])[H])C([H])([H])[H])C(C([H])([H])[H])(C([H])([H])[H])C([H])([H])[H])C([H])([H])c2c([H])c(OC([H])([H])C([H])(C([H])([H])C([H])([H])c3c([H])c([H])c(C(=O)C([H])([H])C([H])([H])C([H])([H])C([H])([H])N([H])C(=O)N4C([H])([H])C([H])([H])C([H])([H])C([H])(n5nc(-c6c([H])c([H])c(Oc7c([H])c([H])c(F)c([H])c7F)c([H])c6[H])c(C(=O)N([H])[H])c5N([H])[H])C4([H])[H])c([H])c3F)[N+]([H])([H])[H])c([H])c([H])c2C1([H])[H]

>  <smiles>  (35) 
[H]c1c([H])c([H])c2c(c1[H])C([H])([H])C([H])([H])C([H])([H])C2([H])N([H])C(=O)C1([H])N(C(=O)C([H])(N([H])C(=O)C([H])(N([H])C([H])([H])[H])C([H])([H])[H])C(C([H])([H])[H])(C([H])([H])[H])C([H])([H])[H])C([H])([H])c2c([H])c(OC([H])([H])C([H])(C([H])([H])C([H])([H])c3c([H])c([H])c(C(=O)C([H])([H])C([H])([H])C([H])([H])C([H])([H])N([H])C(=O)N4C([H])([H])C([H])([H])C([H])([H])C([H])(n5nc(-c6c([H])c([H])c(Oc7c([H])c([H])c(F)c([H])c7F)c([H])c6[H])c(C(=O)N([H])[H])c5N([H])[H])C4([H])[H])c([H])c3F)[N+]([H])([H])[H])c([H])c([H])c2C1([H])[H]

$$$$
36:0:0
     RDKit          3D

107115  0  0  1  0  0  0  0  0999 V2000
  -27.5570  -28.8550   14.8190 C   0  0  0  0  0  1  0  0  0  0  0  0
  -28.7030  -28.1220   15.5310 C   0  0  0  0  0  3  0  0  0  0  0  0
  -28.1930  -27.2470   16.6180 N   0  0  0  0  0  4  0  0  0  0  0  0
  -28.9540  -27.2460   17.2850 H   0  0  0  0  0  0  0  0  0  0  0  0
  -27.3930  -27.6590   17.0740 H   0  0  0  0  0  0  0  0  0  0  0  0
  -27.9530  -25.8260   16.2830 C   0  0  0  0  0  2  0  0  0  0  0  0
  -28.3390  -24.9060   17.4580 C   0  0  0  0  0  2  0  0  0  0  0  0
  -28.1430  -23.4140   17.1560 C   0  0  0  0  0  2  0  0  0  0  0  0
  -28.5960  -22.5200   18.3190 C   0  0  0  0  0  2  0  0  0  0  0  0
  -28.2730  -21.0390   18.0730 C   0  0  0  0  0  2  0  0  0  0  0  0
  -28.7140  -20.2060   19.2060 N   0  0  0  0  0  4  0  0  0  0  0  0
  -28.3290  -20.5940   20.0510 H   0  0  0  0  0  0  0  0  0  0  0  0
  -29.7180  -20.2580   19.2680 H   0  0  0  0  0  0  0  0  0  0  0  0
  -28.3050  -18.7910   19.1080 C   0  0  0  0  0  2  0  0  0  0  0  0
  -28.6210  -18.0050   20.3950 C   0  0  0  0  0  2  0  0  0  0  0  0
  -30.1300  -17.8000   20.6410 C   0  0  0  0  0  2  0  0  0  0  0  0
  -30.4500  -16.7750   21.7480 C   0  0  0  0  0  2  0  0  0  0  0  0
  -30.6510  -14.5460   20.6540 C   0  0  0  0  0  0  0  0  0  0  0  0
  -30.3340  -12.5470   19.2560 C   0  0  0  0  0  2  0  0  0  0  0  0
  -29.3730  -12.8620   18.0930 C   0  0  0  0  0  2  0  0  0  0  0  0
  -27.9010  -12.7010   18.5250 C   0  0  0  0  0  2  0  0  0  0  0  0
  -27.5830  -13.4090   19.8700 C   0  0  0  0  0  3  0  0  0  0  0  0
  -28.6450  -13.0510   20.9330 C   0  0  0  0  0  2  0  0  0  0  0  0
  -29.9680  -13.4050   20.3890 N   0  0  0  0  0  0  0  0  0  0  0  0
  -31.7500  -14.8150   20.1610 O   0  0  0  0  0  0  0  0  0  0  0  0
  -29.9900  -15.4320   21.4090 N   0  0  0  0  0  0  0  0  0  0  0  0
  -29.0790  -15.1530   21.7370 H   0  0  0  0  0  0  0  0  0  0  0  0
  -25.1580  -13.9530   20.5500 C   0  0  0  0  0  0  0  0  0  0  0  0
  -24.1070  -13.1510   20.9000 C   0  0  0  0  0  0  0  0  0  0  0  0
  -24.6050  -11.8110   20.8680 C   0  0  0  0  0  0  0  0  0  0  0  0
  -26.2300  -13.1020   20.3280 N   0  0  0  0  0  0  0  0  0  0  0  0
  -25.8980  -11.8080   20.5740 N   0  0  0  0  0  0  0  0  0  0  0  0
  -23.9110  -10.5300   21.0410 C   0  0  0  0  0  0  0  0  0  0  0  0
  -24.3310   -9.5860   22.0040 C   0  0  0  0  0  3  0  0  0  0  0  0
  -23.6360   -8.3680   22.1620 C   0  0  0  0  0  3  0  0  0  0  0  0
  -22.5090   -8.0830   21.3560 C   0  0  0  0  0  0  0  0  0  0  0  0
  -22.1090   -9.0160   20.3830 C   0  0  0  0  0  3  0  0  0  0  0  0
  -22.8040  -10.2260   20.2230 C   0  0  0  0  0  3  0  0  0  0  0  0
  -21.7890   -6.9140   21.4220 O   0  0  0  0  0  0  0  0  0  0  0  0
  -21.6800   -6.2020   22.5890 C   0  0  0  0  0  0  0  0  0  0  0  0
  -21.0970   -6.7560   23.7510 C   0  0  0  0  0  3  0  0  0  0  0  0
  -20.9420   -5.9650   24.9070 C   0  0  0  0  0  3  0  0  0  0  0  0
  -21.3610   -4.6210   24.9030 C   0  0  0  0  0  0  0  0  0  0  0  0
  -21.9360   -4.0660   23.7460 C   0  0  0  0  0  3  0  0  0  0  0  0
  -22.0930   -4.8540   22.5930 C   0  0  0  0  0  0  0  0  0  0  0  0
  -22.6280   -4.3080   21.4730 F   0  0  0  0  0  0  0  0  0  0  0  0
  -21.2050   -3.8580   26.0100 F   0  0  0  0  0  0  0  0  0  0  0  0
  -22.6940  -13.5880   21.1580 C   0  0  0  0  0  0  0  0  0  0  0  0
  -21.9700  -12.8610   22.0010 N   0  0  0  0  0  0  0  0  0  0  0  0
  -22.2370  -14.6110   20.6470 O   0  0  0  0  0  0  0  0  0  0  0  0
  -22.3500  -12.0330   22.4360 H   0  0  0  0  0  0  0  0  0  0  0  0
  -21.0220  -13.1360   22.2140 H   0  0  0  0  0  0  0  0  0  0  0  0
  -25.2920  -15.3290   20.3820 N   0  0  0  0  0  0  0  0  0  0  0  0
  -24.5120  -15.9670   20.4940 H   0  0  0  0  0  0  0  0  0  0  0  0
  -26.1350  -15.7850   20.0600 H   0  0  0  0  0  0  0  0  0  0  0  0
  -29.7630  -29.0850   16.1150 C   0  0  0  0  0  2  0  0  0  0  0  0
  -31.8940  -27.6980   16.2250 C   0  0  0  0  0  3  0  0  0  0  0  0
  -32.7220  -26.7970   16.9200 C   0  0  0  0  0  3  0  0  0  0  0  0
  -30.5770  -28.0060   18.2460 C   0  0  0  0  0  3  0  0  0  0  0  0
  -30.8020  -28.2870   16.8850 C   0  0  0  0  0  0  0  0  0  0  0  0
  -32.4470  -26.4470   18.2600 C   0  0  0  0  0  0  0  0  0  0  0  0
  -31.3400  -27.0350   18.9310 C   0  0  0  0  0  0  0  0  0  0  0  0
  -34.4610  -26.0830   19.7790 C   0  0  0  0  0  1  0  0  0  0  0  0
  -33.3620  -25.4270   18.9310 C   0  0  0  0  0  2  0  0  0  0  0  0
  -30.9570  -26.6070   20.3530 C   0  0  0  0  0  2  0  0  0  0  0  0
  -29.6460  -27.2050   20.9170 C   0  0  0  0  0  2  0  0  0  0  0  0
  -28.4860  -26.7880   20.1670 O   0  0  0  0  0  0  0  0  0  0  0  0
  -24.6420  -31.9680   23.2370 C   0  0  0  0  0  0  0  0  0  0  0  0
  -27.3260  -27.5410   20.2240 C   0  0  0  0  0  0  0  0  0  0  0  0
  -23.4370  -30.5390   21.6140 C   0  0  0  0  0  3  0  0  0  0  0  0
  -24.8910  -28.9970   20.2010 C   0  0  0  0  0  0  0  0  0  0  0  0
  -25.9480  -30.9290   21.3890 C   0  0  0  0  0  2  0  0  0  0  0  0
  -26.0390  -29.5500   20.7790 C   0  0  0  0  0  0  0  0  0  0  0  0
  -27.2470  -28.8350   20.7930 C   0  0  0  0  0  3  0  0  0  0  0  0
  -26.1550  -26.9980   19.6440 C   0  0  0  0  0  3  0  0  0  0  0  0
  -24.9410  -27.7150   19.6300 C   0  0  0  0  0  3  0  0  0  0  0  0
  -23.6450  -29.8470   20.2390 C   0  0  0  0  0  2  0  0  0  0  0  0
  -24.6950  -31.1590   22.1420 N   0  0  0  0  0  0  0  0  0  0  0  0
  -23.5620  -32.2360   23.7810 O   0  0  0  0  0  0  0  0  0  0  0  0
  -22.8020  -29.5210   22.5890 C   0  0  0  0  0  0  0  0  0  0  0  0
  -21.4830  -29.3090   22.4540 N   0  0  0  0  0  0  0  0  0  0  0  0
  -23.4930  -28.9250   23.4200 O   0  0  0  0  0  0  0  0  0  0  0  0
  -20.9830  -29.8430   21.7580 H   0  0  0  0  0  0  0  0  0  0  0  0
  -18.1260  -28.0890   22.9750 C   0  0  0  0  0  0  0  0  0  0  0  0
  -20.6810  -28.3720   23.2380 C   0  0  0  0  0  3  0  0  0  0  0  0
  -20.7950  -26.9360   22.6720 C   0  0  0  0  0  2  0  0  0  0  0  0
  -19.6940  -26.5950   21.6630 C   0  0  0  0  0  2  0  0  0  0  0  0
  -18.3130  -26.7350   22.3100 C   0  0  0  0  0  2  0  0  0  0  0  0
  -19.2370  -28.8630   23.3980 C   0  0  0  0  0  0  0  0  0  0  0  0
  -19.0080  -30.1330   23.9740 C   0  0  0  0  0  3  0  0  0  0  0  0
  -17.6980  -30.6220   24.1360 C   0  0  0  0  0  3  0  0  0  0  0  0
  -16.6020  -29.8420   23.7290 C   0  0  0  0  0  3  0  0  0  0  0  0
  -16.8150  -28.5750   23.1570 C   0  0  0  0  0  3  0  0  0  0  0  0
  -25.9290  -32.6160   23.8410 C   0  0  0  0  0  3  0  0  0  0  0  0
  -25.6010  -34.0040   24.1920 N   0  0  0  0  0  0  0  0  0  0  0  0
  -25.9250  -35.0690   23.4490 C   0  0  0  0  0  0  0  0  0  0  0  0
  -26.5960  -34.9870   22.4150 O   0  0  0  0  0  0  0  0  0  0  0  0
  -25.0020  -34.1460   24.9940 H   0  0  0  0  0  0  0  0  0  0  0  0
  -24.1930  -36.8600   23.0960 C   0  0  0  0  0  1  0  0  0  0  0  0
  -25.4180  -36.4440   23.9260 C   0  0  0  0  0  3  0  0  0  0  0  0
  -27.5260  -37.3270   24.8290 C   0  0  0  0  0  1  0  0  0  0  0  0
  -26.4490  -37.5030   23.8570 N   0  0  0  0  0  0  0  0  0  0  0  0
  -26.0340  -38.4190   24.0080 H   0  0  0  0  0  0  0  0  0  0  0  0
  -26.4860  -31.8410   25.0980 C   0  0  1  0  0  0  0  0  0  0  0  0
  -25.4100  -31.5110   26.1570 C   0  0  0  0  0  1  0  0  0  0  0  0
  -27.1380  -30.5090   24.6580 C   0  0  0  0  0  1  0  0  0  0  0  0
  -27.5950  -32.6750   25.7830 C   0  0  0  0  0  1  0  0  0  0  0  0
  2  1  1  0
  2 56  1  0
  2  3  1  0
  3  5  1  0
  3  4  1  0
  6  3  1  0
  6  7  1  0
  8  7  1  0
  8  9  1  0
 10  9  1  0
 10 11  1  0
 11 13  1  0
 11 12  1  0
 14 11  1  0
 14 15  1  0
 15 16  1  0
 16 17  1  0
 18 26  1  0
 19 24  1  0
 20 21  1  0
 20 19  1  0
 22 21  1  0
 22 31  1  0
 22 23  1  0
 24 18  1  0
 24 23  1  0
 25 18  2  0
 26 27  1  0
 26 17  1  0
 28 29  2  0
 29 48  1  0
 30 29  1  0
 30 33  1  0
 31 28  1  0
 31 32  1  0
 32 30  2  0
 33 34  1  0
 34 35  2  0
 36 39  1  0
 36 35  1  0
 37 36  2  0
 38 37  1  0
 38 33  2  0
 39 40  1  0
 40 45  2  0
 40 41  1  0
 41 42  2  0
 43 42  1  0
 43 47  1  0
 44 43  2  0
 45 44  1  0
 46 45  1  0
 48 49  1  0
 49 52  1  0
 49 51  1  0
 50 48  2  0
 53 54  1  0
 53 28  1  0
 55 53  1  0
 56 60  1  0
 57 60  2  0
 57 58  1  0
 58 61  2  0
 59 62  2  0
 60 59  1  0
 61 64  1  0
 61 62  1  0
 62 65  1  0
 64 63  1  0
 65 66  1  0
 67 69  1  0
 67 66  1  0
 68 79  2  0
 69 74  1  0
 70 78  1  0
 70 80  1  0
 71 77  1  0
 71 73  1  0
 72 78  1  0
 73 74  2  0
 73 72  1  0
 75 69  2  0
 76 75  1  0
 76 71  2  0
 77 70  1  0
 78 68  1  0
 80 82  2  0
 81 80  1  0
 83 81  1  0
 84 93  2  0
 84 89  1  0
 85 81  1  0
 85 89  1  0
 86 85  1  0
 87 88  1  0
 87 86  1  0
 88 84  1  0
 89 90  2  0
 90 91  1  0
 92 91  2  0
 93 92  1  0
 94 68  1  0
 94 95  1  0
 94104  1  0
 95 98  1  0
 96100  1  0
 96 95  1  0
 97 96  2  0
100 99  1  0
102100  1  0
102103  1  0
102101  1  0
104107  1  1
104105  1  0
106104  1  0
M  ISO  4  18 100  26 100  66 101  67 101
M  END
>  <TORSDO>  (36) 
F 32

>  <SCORE>  (36) 
-10.837

>  <name>  (36) 
36

>  <ligand_id>  (36) 
36

>  <original_smiles>  (36) 
[H]c1c([H])c([H])c2c(c1[H])C([H])([H])C([H])([H])C([H])([H])C2([H])N([H])C(=O)C1([H])N(C(=O)C([H])(N([H])C(=O)C([H])(N([H])C([H])([H])[H])C([H])([H])[H])C(C([H])([H])[H])(C([H])([H])[H])C([H])([H])[H])C([H])([H])c2c([H])c(OC([H])([H])C([H])([H])c3c([H])c(C([H])([H])C([H])(C([H])([H])[H])[N+]([H])([H])C([H])([H])C([H])([H])C([H])([H])C([H])([H])C([H])([H])[N+]([H])([H])C([H])([H])C([H])([H])C([H])([H])C([H])([H])N([H])C(=O)N4C([H])([H])C([H])([H])C([H])([H])C([H])(n5nc(-c6c([H])c([H])c(Oc7c([H])c([H])c(F)c([H])c7F)c([H])c6[H])c(C(=O)N([H])[H])c5N([H])[H])C4([H])[H])c([H])c([H])c3C([H])([H])C([H])([H])[H])c([H])c([H])c2C1([H])[H]

>  <smiles>  (36) 
[H]c1c([H])c([H])c2c(c1[H])C([H])([H])C([H])([H])C([H])([H])C2([H])N([H])C(=O)C1([H])N(C(=O)C([H])(N([H])C(=O)C([H])(N([H])C([H])([H])[H])C([H])([H])[H])C(C([H])([H])[H])(C([H])([H])[H])C([H])([H])[H])C([H])([H])c2c([H])c(OC([H])([H])C([H])([H])c3c([H])c(C([H])([H])C([H])(C([H])([H])[H])[N+]([H])([H])C([H])([H])C([H])([H])C([H])([H])C([H])([H])C([H])([H])[N+]([H])([H])C([H])([H])C([H])([H])C([H])([H])C([H])([H])N([H])C(=O)N4C([H])([H])C([H])([H])C([H])([H])C([H])(n5nc(-c6c([H])c([H])c(Oc7c([H])c([H])c(F)c([H])c7F)c([H])c6[H])c(C(=O)N([H])[H])c5N([H])[H])C4([H])[H])c([H])c([H])c3C([H])([H])C([H])([H])[H])c([H])c([H])c2C1([H])[H]

$$$$
37:0:0
     RDKit          3D

 97105  0  0  1  0  0  0  0  0999 V2000
  -25.9250  -22.6170   21.5110 C   0  0  0  0  0  1  0  0  0  0  0  0
  -27.2830  -22.7710   20.7910 C   0  0  0  0  0  3  0  0  0  0  0  0
  -27.5740  -19.2550   19.2240 C   0  0  0  0  0  3  0  0  0  0  0  0
  -29.2870  -20.7030   18.2620 C   0  0  0  0  0  3  0  0  0  0  0  0
  -27.0920  -20.3260   19.9980 C   0  0  0  0  0  3  0  0  0  0  0  0
  -28.7740  -21.7790   19.0110 C   0  0  0  0  0  3  0  0  0  0  0  0
  -28.6850  -19.4330   18.3720 C   0  0  0  0  0  0  0  0  0  0  0  0
  -27.6940  -21.5960   19.9060 C   0  0  0  0  0  0  0  0  0  0  0  0
  -29.2510  -18.2410   17.6230 C   0  0  0  0  0  2  0  0  0  0  0  0
  -29.8210  -17.1490   18.5660 C   0  0  0  0  0  2  0  0  0  0  0  0
  -30.6240  -17.7210   19.7540 C   0  0  0  0  0  2  0  0  0  0  0  0
  -31.6050  -16.7690   20.4600 C   0  0  0  0  0  2  0  0  0  0  0  0
  -31.6760  -14.3180   20.6200 C   0  0  0  0  0  0  0  0  0  0  0  0
  -31.1790  -12.2400   19.4200 C   0  0  0  0  0  2  0  0  0  0  0  0
  -30.3180  -12.6190   18.1970 C   0  0  0  0  0  2  0  0  0  0  0  0
  -28.8300  -12.5520   18.5820 C   0  0  0  0  0  2  0  0  0  0  0  0
  -28.5170  -13.3630   19.8710 C   0  0  0  0  0  3  0  0  0  0  0  0
  -29.5270  -13.0660   21.0090 C   0  0  0  0  0  2  0  0  0  0  0  0
  -30.8850  -13.2240   20.4770 N   0  0  0  0  0  0  0  0  0  0  0  0
  -32.8570  -14.3390   20.2750 O   0  0  0  0  0  0  0  0  0  0  0  0
  -31.0380  -15.4710   20.8660 N   0  0  0  0  0  0  0  0  0  0  0  0
  -30.0900  -15.4250   21.2000 H   0  0  0  0  0  0  0  0  0  0  0  0
  -26.1290  -14.1010   20.4990 C   0  0  0  0  0  0  0  0  0  0  0  0
  -25.0040  -13.3900   20.8020 C   0  0  0  0  0  0  0  0  0  0  0  0
  -25.3890  -12.0140   20.7730 C   0  0  0  0  0  0  0  0  0  0  0  0
  -27.1360  -13.1660   20.3040 N   0  0  0  0  0  0  0  0  0  0  0  0
  -26.6890  -11.9030   20.5300 N   0  0  0  0  0  0  0  0  0  0  0  0
  -24.5870  -10.7950   20.9150 C   0  0  0  0  0  0  0  0  0  0  0  0
  -24.8770   -9.8330   21.9050 C   0  0  0  0  0  3  0  0  0  0  0  0
  -24.0790   -8.6760   22.0340 C   0  0  0  0  0  3  0  0  0  0  0  0
  -22.9740   -8.4770   21.1740 C   0  0  0  0  0  0  0  0  0  0  0  0
  -22.7040   -9.4280   20.1750 C   0  0  0  0  0  3  0  0  0  0  0  0
  -23.5040  -10.5760   20.0440 C   0  0  0  0  0  3  0  0  0  0  0  0
  -22.1570   -7.3720   21.2070 O   0  0  0  0  0  0  0  0  0  0  0  0
  -21.8320   -6.7570   22.3880 C   0  0  0  0  0  0  0  0  0  0  0  0
  -21.1960   -7.4490   23.4400 C   0  0  0  0  0  3  0  0  0  0  0  0
  -20.8120   -6.7600   24.6070 C   0  0  0  0  0  3  0  0  0  0  0  0
  -21.0630   -5.3780   24.7240 C   0  0  0  0  0  0  0  0  0  0  0  0
  -21.6920   -4.6880   23.6740 C   0  0  0  0  0  3  0  0  0  0  0  0
  -22.0740   -5.3720   22.5090 C   0  0  0  0  0  0  0  0  0  0  0  0
  -22.6640   -4.6960   21.4950 F   0  0  0  0  0  0  0  0  0  0  0  0
  -20.6840   -4.7160   25.8420 F   0  0  0  0  0  0  0  0  0  0  0  0
  -23.6250  -13.9450   21.0090 C   0  0  0  0  0  0  0  0  0  0  0  0
  -22.8410  -13.3080   21.8640 N   0  0  0  0  0  0  0  0  0  0  0  0
  -23.2590  -14.9800   20.4500 O   0  0  0  0  0  0  0  0  0  0  0  0
  -23.1540  -12.4680   22.3300 H   0  0  0  0  0  0  0  0  0  0  0  0
  -21.9200  -13.6640   22.0630 H   0  0  0  0  0  0  0  0  0  0  0  0
  -26.3780  -15.4630   20.3510 N   0  0  0  0  0  0  0  0  0  0  0  0
  -25.6320  -16.1420   20.4290 H   0  0  0  0  0  0  0  0  0  0  0  0
  -27.2610  -15.8580   20.0580 H   0  0  0  0  0  0  0  0  0  0  0  0
  -28.4000  -22.9520   21.7450 N   0  0  0  0  0  4  0  0  0  0  0  0
  -28.1380  -22.6620   22.6750 H   0  0  0  0  0  0  0  0  0  0  0  0
  -29.0820  -22.2830   21.4300 H   0  0  0  0  0  0  0  0  0  0  0  0
  -29.0960  -24.2600   21.7380 C   0  0  0  0  0  2  0  0  0  0  0  0
  -30.5550  -24.0870   21.2500 C   0  0  0  0  0  2  0  0  0  0  0  0
  -31.3700  -25.3820   21.0560 C   0  0  0  0  0  2  0  0  0  0  0  0
  -30.8960  -26.0660   19.8980 O   0  0  0  0  0  0  0  0  0  0  0  0
  -26.3520  -29.8840   23.8720 C   0  0  0  0  0  0  0  0  0  0  0  0
  -29.6910  -26.7100   20.0250 C   0  0  0  0  0  0  0  0  0  0  0  0
  -25.4760  -29.0400   21.7160 C   0  0  0  0  0  3  0  0  0  0  0  0
  -27.2100  -28.0510   20.1320 C   0  0  0  0  0  0  0  0  0  0  0  0
  -27.9700  -29.5070   22.0170 C   0  0  0  0  0  2  0  0  0  0  0  0
  -28.2340  -28.4000   21.0210 C   0  0  0  0  0  0  0  0  0  0  0  0
  -29.4780  -27.7320   20.9740 C   0  0  0  0  0  3  0  0  0  0  0  0
  -28.6540  -26.3690   19.1350 C   0  0  0  0  0  3  0  0  0  0  0  0
  -27.4110  -27.0290   19.1900 C   0  0  0  0  0  3  0  0  0  0  0  0
  -25.9130  -28.8180   20.2410 C   0  0  0  0  0  2  0  0  0  0  0  0
  -26.6070  -29.4700   22.5980 N   0  0  0  0  0  0  0  0  0  0  0  0
  -25.1920  -29.9540   24.3050 O   0  0  0  0  0  0  0  0  0  0  0  0
  -24.7760  -27.7570   22.2140 C   0  0  0  0  0  0  0  0  0  0  0  0
  -23.5420  -27.5290   21.7360 N   0  0  0  0  0  0  0  0  0  0  0  0
  -25.3500  -26.9820   22.9860 O   0  0  0  0  0  0  0  0  0  0  0  0
  -23.1470  -28.2140   21.1080 H   0  0  0  0  0  0  0  0  0  0  0  0
  -20.3220  -26.0290   21.0940 C   0  0  0  0  0  0  0  0  0  0  0  0
  -22.7040  -26.3670   22.0350 C   0  0  0  0  0  3  0  0  0  0  0  0
  -23.1100  -25.1440   21.1780 C   0  0  0  0  0  2  0  0  0  0  0  0
  -22.3070  -25.0330   19.8790 C   0  0  0  0  0  2  0  0  0  0  0  0
  -20.8080  -24.9210   20.1790 C   0  0  0  0  0  2  0  0  0  0  0  0
  -21.2150  -26.7180   21.9580 C   0  0  0  0  0  0  0  0  0  0  0  0
  -20.7170  -27.7610   22.7650 C   0  0  0  0  0  3  0  0  0  0  0  0
  -19.3560  -28.1130   22.7280 C   0  0  0  0  0  3  0  0  0  0  0  0
  -18.4700  -27.4150   21.8870 C   0  0  0  0  0  3  0  0  0  0  0  0
  -18.9540  -26.3730   21.0760 C   0  0  0  0  0  3  0  0  0  0  0  0
  -27.5020  -30.3170   24.8350 C   0  0  0  0  0  3  0  0  0  0  0  0
  -27.6870  -29.3390   26.0620 C   0  0  1  0  0  0  0  0  0  0  0  0
  -26.3600  -28.9760   26.7680 C   0  0  0  0  0  1  0  0  0  0  0  0
  -28.3590  -28.0210   25.6100 C   0  0  0  0  0  1  0  0  0  0  0  0
  -28.6220  -29.9830   27.1120 C   0  0  0  0  0  1  0  0  0  0  0  0
  -27.1990  -31.6780   25.2960 N   0  0  0  0  0  0  0  0  0  0  0  0
  -27.7640  -32.7890   24.8050 C   0  0  0  0  0  0  0  0  0  0  0  0
  -28.6600  -32.7680   23.9570 O   0  0  0  0  0  0  0  0  0  0  0  0
  -26.4320  -31.7780   25.9450 H   0  0  0  0  0  0  0  0  0  0  0  0
  -26.2830  -34.7650   24.3310 C   0  0  0  0  0  1  0  0  0  0  0  0
  -27.2530  -34.1380   25.3420 C   0  0  0  0  0  3  0  0  0  0  0  0
  -29.1530  -34.6990   26.7950 C   0  0  0  0  0  1  0  0  0  0  0  0
  -28.3370  -35.0970   25.6510 N   0  0  0  0  0  0  0  0  0  0  0  0
  -27.9570  -36.0210   25.8380 H   0  0  0  0  0  0  0  0  0  0  0  0
  2  1  1  0
  2 51  1  0
  3  5  1  0
  4  7  1  0
  4  6  2  0
  6  8  1  0
  7  3  2  0
  8  5  2  0
  8  2  1  0
  9  7  1  0
  9 10  1  0
 10 11  1  0
 11 12  1  0
 12 21  1  0
 13 21  1  0
 14 19  1  0
 15 16  1  0
 15 14  1  0
 17 16  1  0
 17 26  1  0
 17 18  1  0
 19 13  1  0
 19 18  1  0
 20 13  2  0
 21 22  1  0
 23 24  2  0
 24 43  1  0
 25 24  1  0
 25 28  1  0
 26 23  1  0
 26 27  1  0
 27 25  2  0
 28 29  1  0
 29 30  2  0
 31 34  1  0
 31 30  1  0
 32 31  2  0
 33 32  1  0
 33 28  2  0
 34 35  1  0
 35 40  2  0
 35 36  1  0
 36 37  2  0
 37 38  1  0
 38 42  1  0
 39 38  2  0
 40 39  1  0
 41 40  1  0
 43 44  1  0
 44 47  1  0
 44 46  1  0
 45 43  2  0
 48 49  1  0
 48 23  1  0
 50 48  1  0
 51 52  1  0
 53 51  1  0
 54 51  1  0
 55 54  1  0
 56 55  1  0
 57 59  1  0
 57 56  1  0
 58 69  2  0
 59 64  1  0
 60 70  1  0
 60 68  1  0
 61 67  1  0
 61 63  1  0
 62 68  1  0
 63 62  1  0
 64 63  2  0
 65 66  1  0
 65 59  2  0
 66 61  2  0
 67 60  1  0
 68 58  1  0
 70 72  2  0
 71 70  1  0
 73 71  1  0
 74 79  1  0
 75 71  1  0
 76 75  1  0
 77 78  1  0
 77 76  1  0
 78 74  1  0
 79 75  1  0
 79 80  2  0
 81 80  1  0
 82 81  2  0
 83 74  2  0
 83 82  1  0
 84 58  1  0
 84 89  1  0
 84 85  1  0
 85 86  1  1
 85 88  1  0
 87 85  1  0
 89 92  1  0
 90 89  1  0
 90 94  1  0
 91 90  2  0
 94 93  1  0
 94 96  1  0
 96 97  1  0
 96 95  1  0
M  ISO  4  13 100  21 100  56 101  57 101
M  END
>  <TORSDO>  (37) 
F 25

>  <SCORE>  (37) 
-8.223

>  <name>  (37) 
37

>  <ligand_id>  (37) 
37

>  <original_smiles>  (37) 
[H]c1c([H])c([H])c2c(c1[H])C([H])([H])C([H])([H])C([H])([H])C2([H])N([H])C(=O)C1([H])N(C(=O)C([H])(N([H])C(=O)C([H])(N([H])C([H])([H])[H])C([H])([H])[H])C(C([H])([H])[H])(C([H])([H])[H])C([H])([H])[H])C([H])([H])c2c([H])c(OC([H])([H])C([H])([H])C([H])([H])[N+]([H])([H])C([H])(c3c([H])c([H])c(C([H])([H])C([H])([H])C([H])([H])C([H])([H])N([H])C(=O)N4C([H])([H])C([H])([H])C([H])([H])C([H])(n5nc(-c6c([H])c([H])c(Oc7c([H])c([H])c(F)c([H])c7F)c([H])c6[H])c(C(=O)N([H])[H])c5N([H])[H])C4([H])[H])c([H])c3[H])C([H])([H])[H])c([H])c([H])c2C1([H])[H]

>  <smiles>  (37) 
[H]c1c([H])c([H])c2c(c1[H])C([H])([H])C([H])([H])C([H])([H])C2([H])N([H])C(=O)C1([H])N(C(=O)C([H])(N([H])C(=O)C([H])(N([H])C([H])([H])[H])C([H])([H])[H])C(C([H])([H])[H])(C([H])([H])[H])C([H])([H])[H])C([H])([H])c2c([H])c(OC([H])([H])C([H])([H])C([H])([H])[N+]([H])([H])C([H])(c3c([H])c([H])c(C([H])([H])C([H])([H])C([H])([H])C([H])([H])N([H])C(=O)N4C([H])([H])C([H])([H])C([H])([H])C([H])(n5nc(-c6c([H])c([H])c(Oc7c([H])c([H])c(F)c([H])c7F)c([H])c6[H])c(C(=O)N([H])[H])c5N([H])[H])C4([H])[H])c([H])c3[H])C([H])([H])[H])c([H])c([H])c2C1([H])[H]

$$$$
38:0:0
     RDKit          3D

 99106  0  0  1  0  0  0  0  0999 V2000
  -30.8790  -23.7490   17.8220 C   0  0  0  0  0  0  0  0  0  0  0  0
  -30.1270  -23.3780   18.7330 O   0  0  0  0  0  0  0  0  0  0  0  0
  -30.5920  -25.0020   16.9590 C   0  0  0  0  0  3  0  0  0  0  0  0
  -29.8050  -25.9690   17.7720 N   0  0  0  0  0  4  0  0  0  0  0  0
  -29.4300  -26.6670   17.1520 H   0  0  0  0  0  0  0  0  0  0  0  0
  -29.0350  -25.4640   18.1850 H   0  0  0  0  0  0  0  0  0  0  0  0
  -30.5410  -26.6560   18.8700 C   0  0  0  0  0  2  0  0  0  0  0  0
  -29.6020  -27.5490   19.6930 C   0  0  0  0  0  2  0  0  0  0  0  0
  -28.4580  -26.7720   20.0530 O   0  0  0  0  0  0  0  0  0  0  0  0
  -24.6390  -31.8950   23.2390 C   0  0  0  0  0  0  0  0  0  0  0  0
  -27.2920  -27.4870   20.1590 C   0  0  0  0  0  0  0  0  0  0  0  0
  -23.4250  -30.4800   21.6080 C   0  0  0  0  0  3  0  0  0  0  0  0
  -24.8770  -28.9380   20.1920 C   0  0  0  0  0  0  0  0  0  0  0  0
  -25.9410  -30.8580   21.3910 C   0  0  0  0  0  2  0  0  0  0  0  0
  -26.0300  -29.4830   20.7690 C   0  0  0  0  0  0  0  0  0  0  0  0
  -27.2380  -28.7630   20.7640 C   0  0  0  0  0  3  0  0  0  0  0  0
  -26.1200  -26.9310   19.6080 C   0  0  0  0  0  3  0  0  0  0  0  0
  -24.9120  -27.6560   19.6160 C   0  0  0  0  0  3  0  0  0  0  0  0
  -23.6300  -29.7920   20.2310 C   0  0  0  0  0  2  0  0  0  0  0  0
  -24.6870  -31.0930   22.1380 N   0  0  0  0  0  0  0  0  0  0  0  0
  -23.5620  -32.1650   23.7880 O   0  0  0  0  0  0  0  0  0  0  0  0
  -22.7890  -29.4600   22.5770 C   0  0  0  0  0  0  0  0  0  0  0  0
  -21.4640  -29.2710   22.4590 N   0  0  0  0  0  0  0  0  0  0  0  0
  -23.4800  -28.8390   23.3890 O   0  0  0  0  0  0  0  0  0  0  0  0
  -20.9670  -29.8270   21.7770 H   0  0  0  0  0  0  0  0  0  0  0  0
  -18.0970  -28.0770   22.9630 C   0  0  0  0  0  0  0  0  0  0  0  0
  -20.6550  -28.3380   23.2370 C   0  0  0  0  0  3  0  0  0  0  0  0
  -20.7600  -26.9030   22.6730 C   0  0  0  0  0  2  0  0  0  0  0  0
  -19.6620  -26.5730   21.6570 C   0  0  0  0  0  2  0  0  0  0  0  0
  -18.2760  -26.7250   22.2910 C   0  0  0  0  0  2  0  0  0  0  0  0
  -19.2150  -28.8410   23.3910 C   0  0  0  0  0  0  0  0  0  0  0  0
  -18.9950  -30.1090   23.9730 C   0  0  0  0  0  3  0  0  0  0  0  0
  -17.6910  -30.6100   24.1350 C   0  0  0  0  0  3  0  0  0  0  0  0
  -16.5880  -29.8400   23.7270 C   0  0  0  0  0  3  0  0  0  0  0  0
  -16.7930  -28.5770   23.1450 C   0  0  0  0  0  3  0  0  0  0  0  0
  -25.9300  -32.5310   23.8470 C   0  0  0  0  0  3  0  0  0  0  0  0
  -25.6190  -33.9260   24.1840 N   0  0  0  0  0  0  0  0  0  0  0  0
  -25.9450  -34.9800   23.4240 C   0  0  0  0  0  0  0  0  0  0  0  0
  -26.6080  -34.8840   22.3890 O   0  0  0  0  0  0  0  0  0  0  0  0
  -25.0310  -34.0780   24.9880 H   0  0  0  0  0  0  0  0  0  0  0  0
  -24.2020  -36.7620   23.0840 C   0  0  0  0  0  1  0  0  0  0  0  0
  -25.4510  -36.3650   23.8880 C   0  0  0  0  0  3  0  0  0  0  0  0
  -27.5900  -37.2540   24.7020 C   0  0  0  0  0  1  0  0  0  0  0  0
  -26.4780  -37.4240   23.7720 N   0  0  0  0  0  0  0  0  0  0  0  0
  -26.0700  -38.3420   23.9310 H   0  0  0  0  0  0  0  0  0  0  0  0
  -26.4690  -31.7580   25.1120 C   0  0  1  0  0  0  0  0  0  0  0  0
  -25.3900  -31.5100   26.1910 C   0  0  0  0  0  1  0  0  0  0  0  0
  -27.0530  -30.3840   24.7040 C   0  0  0  0  0  1  0  0  0  0  0  0
  -27.6230  -32.5570   25.7630 C   0  0  0  0  0  1  0  0  0  0  0  0
  -28.4280  -24.1160   15.7180 C   0  0  0  0  0  1  0  0  0  0  0  0
  -29.8650  -24.6740   15.6270 C   0  0  0  0  0  2  0  0  0  0  0  0
  -32.1600  -22.9580   17.5290 C   0  0  0  0  0  2  0  0  0  0  0  0
  -33.5960  -23.2360   19.5290 C   0  0  0  0  0  1  0  0  0  0  0  0
  -32.6260  -22.3700   18.8160 N   0  0  2  0  0  4  0  0  0  0  0  0
  -31.7840  -22.3620   19.3800 H   0  0  0  0  0  0  0  0  0  0  0  0
  -33.0880  -20.9610   18.7120 C   0  0  0  0  0  2  0  0  0  0  0  0
  -31.8970  -20.0010   18.5160 C   0  0  0  0  0  2  0  0  0  0  0  0
  -32.2920  -18.5900   18.0460 C   0  0  0  0  0  2  0  0  0  0  0  0
  -31.0730  -17.8310   17.4800 C   0  0  0  0  0  2  0  0  0  0  0  0
  -30.5140  -16.6640   18.3190 C   0  0  0  0  0  2  0  0  0  0  0  0
  -30.2750  -16.9340   19.8260 C   0  0  0  0  0  2  0  0  0  0  0  0
  -30.7300  -14.6630   20.7410 C   0  0  0  0  0  0  0  0  0  0  0  0
  -30.5490  -12.4130   19.8380 C   0  0  0  0  0  2  0  0  0  0  0  0
  -29.7000  -12.5180   18.5480 C   0  0  0  0  0  2  0  0  0  0  0  0
  -28.2030  -12.3760   18.8880 C   0  0  0  0  0  2  0  0  0  0  0  0
  -27.7520  -13.3170   20.0360 C   0  0  0  0  0  3  0  0  0  0  0  0
  -28.7250  -13.2490   21.2430 C   0  0  0  0  0  2  0  0  0  0  0  0
  -30.0900  -13.4750   20.7420 N   0  0  0  0  0  0  0  0  0  0  0  0
  -31.9420  -14.7860   20.5460 O   0  0  0  0  0  0  0  0  0  0  0  0
  -29.9070  -15.7050   20.5410 N   0  0  0  0  0  0  0  0  0  0  0  0
  -28.9200  -15.5090   20.6440 H   0  0  0  0  0  0  0  0  0  0  0  0
  -25.3070  -13.9330   20.5520 C   0  0  0  0  0  0  0  0  0  0  0  0
  -24.2200  -13.1670   20.8670 C   0  0  0  0  0  0  0  0  0  0  0  0
  -24.6910  -11.8160   20.9180 C   0  0  0  0  0  0  0  0  0  0  0  0
  -26.3720  -13.0520   20.4340 N   0  0  0  0  0  0  0  0  0  0  0  0
  -26.0010  -11.7800   20.7150 N   0  0  0  0  0  0  0  0  0  0  0  0
  -23.9620  -10.5570   21.1010 C   0  0  0  0  0  0  0  0  0  0  0  0
  -24.3490   -9.6110   22.0770 C   0  0  0  0  0  3  0  0  0  0  0  0
  -23.6210   -8.4140   22.2380 C   0  0  0  0  0  3  0  0  0  0  0  0
  -22.4870   -8.1560   21.4300 C   0  0  0  0  0  0  0  0  0  0  0  0
  -22.1220   -9.0880   20.4420 C   0  0  0  0  0  3  0  0  0  0  0  0
  -22.8560  -10.2720   20.2790 C   0  0  0  0  0  3  0  0  0  0  0  0
  -21.7330   -7.0100   21.5070 O   0  0  0  0  0  0  0  0  0  0  0  0
  -21.6360   -6.2830   22.6660 C   0  0  0  0  0  0  0  0  0  0  0  0
  -21.1830   -6.8600   23.8720 C   0  0  0  0  0  3  0  0  0  0  0  0
  -21.0400   -6.0600   25.0220 C   0  0  0  0  0  3  0  0  0  0  0  0
  -21.3400   -4.6870   24.9680 C   0  0  0  0  0  0  0  0  0  0  0  0
  -21.7870   -4.1100   23.7670 C   0  0  0  0  0  3  0  0  0  0  0  0
  -21.9300   -4.9070   22.6170 C   0  0  0  0  0  0  0  0  0  0  0  0
  -22.3410   -4.3430   21.4560 F   0  0  0  0  0  0  0  0  0  0  0  0
  -21.1920   -3.9170   26.0720 F   0  0  0  0  0  0  0  0  0  0  0  0
  -22.8020  -13.6320   21.0260 C   0  0  0  0  0  0  0  0  0  0  0  0
  -22.0280  -12.9460   21.8650 N   0  0  0  0  0  0  0  0  0  0  0  0
  -22.3890  -14.6380   20.4440 O   0  0  0  0  0  0  0  0  0  0  0  0
  -22.3780  -12.1260   22.3400 H   0  0  0  0  0  0  0  0  0  0  0  0
  -21.0770  -13.2340   22.0430 H   0  0  0  0  0  0  0  0  0  0  0  0
  -25.4800  -15.2950   20.3290 N   0  0  0  0  0  0  0  0  0  0  0  0
  -24.7150  -15.9580   20.3940 H   0  0  0  0  0  0  0  0  0  0  0  0
  -26.3420  -15.7110   20.0000 H   0  0  0  0  0  0  0  0  0  0  0  0
  1  2  2  0
  3 51  1  0
  3  4  1  0
  3  1  1  0
  4  6  1  0
  4  7  1  0
  5  4  1  0
  7  8  1  0
  8  9  1  0
  9 11  1  0
 10 21  2  0
 11 16  1  0
 12 20  1  0
 12 22  1  0
 13 19  1  0
 13 15  1  0
 14 20  1  0
 15 14  1  0
 16 15  2  0
 17 18  1  0
 17 11  2  0
 18 13  2  0
 19 12  1  0
 20 10  1  0
 22 24  2  0
 23 22  1  0
 25 23  1  0
 26 35  2  0
 26 31  1  0
 27 23  1  0
 27 31  1  0
 28 27  1  0
 29 30  1  0
 29 28  1  0
 30 26  1  0
 31 32  2  0
 32 33  1  0
 34 33  2  0
 35 34  1  0
 36 10  1  0
 36 37  1  0
 36 46  1  0
 37 40  1  0
 38 42  1  0
 38 37  1  0
 39 38  2  0
 42 41  1  0
 44 42  1  0
 44 45  1  0
 44 43  1  0
 46 49  1  1
 46 47  1  0
 48 46  1  0
 51 50  1  0
 52  1  1  0
 52 54  1  0
 54 55  1  1
 54 53  1  0
 56 54  1  0
 57 56  1  0
 58 57  1  0
 59 58  1  0
 59 60  1  0
 60 61  1  0
 61 70  1  0
 62 68  1  0
 63 68  1  0
 64 65  1  0
 64 63  1  0
 66 65  1  0
 66 75  1  0
 66 67  1  0
 68 67  1  0
 69 62  2  0
 70 71  1  0
 70 62  1  0
 72 73  2  0
 73 74  1  0
 73 92  1  0
 74 77  1  0
 75 72  1  0
 75 76  1  0
 76 74  2  0
 77 78  1  0
 78 79  2  0
 80 83  1  0
 80 79  1  0
 81 80  2  0
 82 81  1  0
 82 77  2  0
 83 84  1  0
 84 85  1  0
 85 86  2  0
 87 86  1  0
 87 91  1  0
 88 87  2  0
 89 84  2  0
 89 88  1  0
 90 89  1  0
 92 93  1  0
 93 96  1  0
 93 95  1  0
 94 92  2  0
 97 98  1  0
 97 72  1  0
 99 97  1  0
M  ISO  4   8 101   9 101  62 100  70 100
M  END
>  <TORSDO>  (38) 
F 29

>  <SCORE>  (38) 
-10.258

>  <name>  (38) 
38

>  <ligand_id>  (38) 
38

>  <original_smiles>  (38) 
[H]c1c([H])c([H])c2c(c1[H])C([H])([H])C([H])([H])C([H])([H])C2([H])N([H])C(=O)C1([H])N(C(=O)C([H])(N([H])C(=O)C([H])(N([H])C([H])([H])[H])C([H])([H])[H])C(C([H])([H])[H])(C([H])([H])[H])C([H])([H])[H])C([H])([H])c2c([H])c(OC([H])([H])C([H])([H])[N+]([H])([H])C([H])(C(=O)C([H])([H])[N+]([H])(C([H])([H])[H])C([H])([H])C([H])([H])C([H])([H])C([H])([H])C([H])([H])C([H])([H])N([H])C(=O)N3C([H])([H])C([H])([H])C([H])([H])C([H])(n4nc(-c5c([H])c([H])c(Oc6c([H])c([H])c(F)c([H])c6F)c([H])c5[H])c(C(=O)N([H])[H])c4N([H])[H])C3([H])[H])C([H])([H])C([H])([H])[H])c([H])c([H])c2C1([H])[H]

>  <smiles>  (38) 
[H]c1c([H])c([H])c2c(c1[H])C([H])([H])C([H])([H])C([H])([H])C2([H])N([H])C(=O)C1([H])N(C(=O)C([H])(N([H])C(=O)C([H])(N([H])C([H])([H])[H])C([H])([H])[H])C(C([H])([H])[H])(C([H])([H])[H])C([H])([H])[H])C([H])([H])c2c([H])c(OC([H])([H])C([H])([H])[N+]([H])([H])C([H])(C(=O)C([H])([H])[N+]([H])(C([H])([H])[H])C([H])([H])C([H])([H])C([H])([H])C([H])([H])C([H])([H])C([H])([H])N([H])C(=O)N3C([H])([H])C([H])([H])C([H])([H])C([H])(n4nc(-c5c([H])c([H])c(Oc6c([H])c([H])c(F)c([H])c6F)c([H])c5[H])c(C(=O)N([H])[H])c4N([H])[H])C3([H])[H])C([H])([H])C([H])([H])[H])c([H])c([H])c2C1([H])[H]

$$$$
39:0:0
     RDKit          3D

102110  0  0  1  0  0  0  0  0999 V2000
  -26.6830  -21.5790   20.7250 C   0  0  0  0  0  3  0  0  0  0  0  0
  -27.1000  -20.2470   20.5800 C   0  0  0  0  0  3  0  0  0  0  0  0
  -28.9460  -22.2150   21.3750 C   0  0  0  0  0  3  0  0  0  0  0  0
  -27.6260  -22.5770   21.0400 C   0  0  0  0  0  0  0  0  0  0  0  0
  -28.4630  -19.9200   20.7120 C   0  0  0  0  0  0  0  0  0  0  0  0
  -29.3790  -20.8830   21.2110 C   0  0  0  0  0  0  0  0  0  0  0  0
  -30.8370  -20.5450   21.4900 C   0  0  0  0  0  1  0  0  0  0  0  0
  -27.2570  -24.0180   20.9240 C   0  0  0  0  0  0  0  0  0  0  0  0
  -27.2840  -24.4720   19.6670 N   0  0  0  0  0  0  0  0  0  0  0  0
  -27.0290  -24.7150   21.9140 O   0  0  0  0  0  0  0  0  0  0  0  0
  -27.5370  -23.8100   18.9440 H   0  0  0  0  0  0  0  0  0  0  0  0
  -27.0380  -25.8540   19.2860 C   0  0  0  0  0  2  0  0  0  0  0  0
  -27.1430  -26.0780   17.7550 C   0  0  0  0  0  2  0  0  0  0  0  0
  -27.2320  -27.4710   17.4120 O   0  0  0  0  0  0  0  0  0  0  0  0
  -25.2540  -31.1840   23.1240 C   0  0  0  0  0  0  0  0  0  0  0  0
  -26.2580  -28.2760   17.9590 C   0  0  0  0  0  0  0  0  0  0  0  0
  -23.4710  -30.6980   21.4800 C   0  0  0  0  0  3  0  0  0  0  0  0
  -24.2540  -29.8080   19.2260 C   0  0  0  0  0  0  0  0  0  0  0  0
  -25.9120  -30.9140   20.7380 C   0  0  0  0  0  2  0  0  0  0  0  0
  -25.5920  -29.9450   19.6170 C   0  0  0  0  0  0  0  0  0  0  0  0
  -26.5990  -29.1870   18.9830 C   0  0  0  0  0  3  0  0  0  0  0  0
  -24.9060  -28.1710   17.5580 C   0  0  0  0  0  3  0  0  0  0  0  0
  -23.9040  -28.9200   18.1970 C   0  0  0  0  0  3  0  0  0  0  0  0
  -23.2340  -30.6540   19.9500 C   0  0  0  0  0  2  0  0  0  0  0  0
  -24.9110  -30.9210   21.8310 N   0  0  0  0  0  0  0  0  0  0  0  0
  -24.3920  -31.2860   24.0080 O   0  0  0  0  0  0  0  0  0  0  0  0
  -22.8780  -29.4170   22.1110 C   0  0  0  0  0  0  0  0  0  0  0  0
  -21.5400  -29.3080   22.1010 N   0  0  0  0  0  0  0  0  0  0  0  0
  -23.6130  -28.5390   22.5740 O   0  0  0  0  0  0  0  0  0  0  0  0
  -21.0090  -30.0730   21.7110 H   0  0  0  0  0  0  0  0  0  0  0  0
  -18.2080  -27.9290   22.3280 C   0  0  0  0  0  0  0  0  0  0  0  0
  -20.7640  -28.1780   22.6120 C   0  0  0  0  0  3  0  0  0  0  0  0
  -20.8860  -26.9530   21.6760 C   0  0  0  0  0  2  0  0  0  0  0  0
  -19.7650  -26.8790   20.6340 C   0  0  0  0  0  2  0  0  0  0  0  0
  -18.3960  -26.8120   21.3180 C   0  0  0  0  0  2  0  0  0  0  0  0
  -19.3180  -28.5800   22.9250 C   0  0  0  0  0  0  0  0  0  0  0  0
  -19.0860  -29.6370   23.8340 C   0  0  0  0  0  3  0  0  0  0  0  0
  -17.7750  -30.0400   24.1480 C   0  0  0  0  0  3  0  0  0  0  0  0
  -16.6780  -29.3820   23.5650 C   0  0  0  0  0  3  0  0  0  0  0  0
  -16.8960  -28.3260   22.6630 C   0  0  0  0  0  3  0  0  0  0  0  0
  -26.7400  -31.3980   23.5480 C   0  0  0  0  0  3  0  0  0  0  0  0
  -27.3850  -30.1250   24.2200 C   0  0  1  0  0  0  0  0  0  0  0  0
  -26.5420  -29.5370   25.3740 C   0  0  0  0  0  1  0  0  0  0  0  0
  -27.6000  -29.0040   23.1760 C   0  0  0  0  0  1  0  0  0  0  0  0
  -28.7850  -30.4780   24.7730 C   0  0  0  0  0  1  0  0  0  0  0  0
  -26.7790  -32.5450   24.4640 N   0  0  0  0  0  0  0  0  0  0  0  0
  -27.1940  -33.7730   24.1260 C   0  0  0  0  0  0  0  0  0  0  0  0
  -27.6560  -34.0410   23.0140 O   0  0  0  0  0  0  0  0  0  0  0  0
  -26.3680  -32.4100   25.3770 H   0  0  0  0  0  0  0  0  0  0  0  0
  -25.8420  -35.7500   24.8890 C   0  0  0  0  0  1  0  0  0  0  0  0
  -27.0730  -34.8790   25.1900 C   0  0  0  0  0  3  0  0  0  0  0  0
  -29.4410  -35.0330   25.8210 C   0  0  0  0  0  1  0  0  0  0  0  0
  -28.2760  -35.7330   25.2870 N   0  0  0  0  0  0  0  0  0  0  0  0
  -28.0960  -36.5420   25.8760 H   0  0  0  0  0  0  0  0  0  0  0  0
  -28.9510  -18.6260   20.0920 C   0  0  0  0  0  2  0  0  0  0  0  0
  -29.9870  -19.0290   19.1180 N   0  0  0  0  0  4  0  0  0  0  0  0
  -30.8650  -19.0470   19.6070 H   0  0  0  0  0  0  0  0  0  0  0  0
  -29.7630  -19.9780   18.8580 H   0  0  0  0  0  0  0  0  0  0  0  0
  -30.1520  -18.2310   17.8790 C   0  0  0  0  0  3  0  0  0  0  0  0
  -31.6590  -18.1510   17.5320 C   0  0  0  0  0  2  0  0  0  0  0  0
  -32.5720  -17.7570   18.7130 C   0  0  0  0  0  2  0  0  0  0  0  0
  -32.7020  -15.2760   18.8520 C   0  0  0  0  0  0  0  0  0  0  0  0
  -32.5650  -12.8350   19.1410 C   0  0  0  0  0  2  0  0  0  0  0  0
  -31.6350  -12.1830   18.1020 C   0  0  0  0  0  2  0  0  0  0  0  0
  -30.1740  -12.2050   18.5870 C   0  0  0  0  0  2  0  0  0  0  0  0
  -29.7290  -13.6120   19.0620 C   0  0  0  0  0  3  0  0  0  0  0  0
  -30.7620  -14.2020   20.0480 C   0  0  0  0  0  2  0  0  0  0  0  0
  -32.0920  -14.2000   19.4030 N   0  0  0  0  0  0  0  0  0  0  0  0
  -33.6510  -15.2040   18.0650 O   0  0  0  0  0  0  0  0  0  0  0  0
  -32.2140  -16.4520   19.2590 N   0  0  0  0  0  0  0  0  0  0  0  0
  -31.5200  -16.4110   19.9930 H   0  0  0  0  0  0  0  0  0  0  0  0
  -27.5520  -14.6210   20.0080 C   0  0  0  0  0  0  0  0  0  0  0  0
  -26.3880  -14.0410   20.4400 C   0  0  0  0  0  0  0  0  0  0  0  0
  -26.5730  -12.6330   20.3000 C   0  0  0  0  0  0  0  0  0  0  0  0
  -28.3870  -13.5740   19.6430 N   0  0  0  0  0  0  0  0  0  0  0  0
  -27.8020  -12.3700   19.8710 N   0  0  0  0  0  0  0  0  0  0  0  0
  -25.6340  -11.5210   20.4920 C   0  0  0  0  0  0  0  0  0  0  0  0
  -25.8640  -10.5190   21.4610 C   0  0  0  0  0  3  0  0  0  0  0  0
  -24.9380   -9.4700   21.6380 C   0  0  0  0  0  3  0  0  0  0  0  0
  -23.7650   -9.4170   20.8480 C   0  0  0  0  0  0  0  0  0  0  0  0
  -23.5520  -10.4040   19.8690 C   0  0  0  0  0  3  0  0  0  0  0  0
  -24.4780  -11.4450   19.6890 C   0  0  0  0  0  3  0  0  0  0  0  0
  -22.8220   -8.4210   20.9340 O   0  0  0  0  0  0  0  0  0  0  0  0
  -22.4620   -7.8730   22.1390 C   0  0  0  0  0  0  0  0  0  0  0  0
  -21.9390   -8.6600   23.1880 C   0  0  0  0  0  3  0  0  0  0  0  0
  -21.5170   -8.0460   24.3850 C   0  0  0  0  0  3  0  0  0  0  0  0
  -21.6070   -6.6480   24.5300 C   0  0  0  0  0  0  0  0  0  0  0  0
  -22.1240   -5.8630   23.4840 C   0  0  0  0  0  3  0  0  0  0  0  0
  -22.5470   -6.4750   22.2910 C   0  0  0  0  0  0  0  0  0  0  0  0
  -23.0240   -5.7120   21.2770 F   0  0  0  0  0  0  0  0  0  0  0  0
  -21.1950   -6.0570   25.6760 F   0  0  0  0  0  0  0  0  0  0  0  0
  -25.1370  -14.7570   20.8650 C   0  0  0  0  0  0  0  0  0  0  0  0
  -24.3640  -14.1570   21.7640 N   0  0  0  0  0  0  0  0  0  0  0  0
  -24.8630  -15.8760   20.4350 O   0  0  0  0  0  0  0  0  0  0  0  0
  -24.6000  -13.2480   22.1320 H   0  0  0  0  0  0  0  0  0  0  0  0
  -23.5260  -14.6160   22.0910 H   0  0  0  0  0  0  0  0  0  0  0  0
  -27.9560  -15.9430   19.8730 N   0  0  0  0  0  0  0  0  0  0  0  0
  -27.2820  -16.6920   19.9870 H   0  0  0  0  0  0  0  0  0  0  0  0
  -28.7640  -16.2240   19.3350 H   0  0  0  0  0  0  0  0  0  0  0  0
  -29.3610  -18.8140   16.6810 C   0  0  0  0  0  2  0  0  0  0  0  0
  -28.0250  -18.3450   16.6740 O   0  0  0  0  0  0  0  0  0  0  0  0
  -27.9770  -17.6010   16.0810 H   0  0  0  0  0  0  0  0  0  0  0  0
  1  4  1  0
  2  5  1  0
  2  1  2  0
  4  3  2  0
  5  6  2  0
  6  3  1  0
  6  7  1  0
  8  4  1  0
  8 10  2  0
  9  8  1  0
 11  9  1  0
 12  9  1  0
 13 12  1  0
 14 13  1  0
 14 16  1  0
 15 26  2  0
 16 21  1  0
 17 25  1  0
 17 27  1  0
 18 20  1  0
 18 24  1  0
 19 25  1  0
 20 19  1  0
 21 20  2  0
 22 16  2  0
 22 23  1  0
 23 18  2  0
 24 17  1  0
 25 15  1  0
 27 29  2  0
 28 27  1  0
 30 28  1  0
 31 40  2  0
 31 36  1  0
 32 28  1  0
 32 36  1  0
 33 32  1  0
 34 35  1  0
 34 33  1  0
 35 31  1  0
 36 37  2  0
 37 38  1  0
 39 38  2  0
 40 39  1  0
 41 15  1  0
 41 42  1  0
 41 46  1  0
 42 45  1  1
 42 43  1  0
 44 42  1  0
 46 49  1  0
 47 46  1  0
 47 51  1  0
 48 47  2  0
 51 50  1  0
 51 53  1  0
 53 52  1  0
 53 54  1  0
 55  5  1  0
 56 57  1  0
 56 55  1  0
 58 56  1  0
 59100  1  0
 59 56  1  0
 60 59  1  0
 60 61  1  0
 61 70  1  0
 62 70  1  0
 62 68  1  0
 63 68  1  0
 64 65  1  0
 64 63  1  0
 66 65  1  0
 66 75  1  0
 66 67  1  0
 68 67  1  0
 69 62  2  0
 70 71  1  0
 72 73  2  0
 73 92  1  0
 74 73  1  0
 74 77  1  0
 75 76  1  0
 75 72  1  0
 76 74  2  0
 77 78  1  0
 78 79  2  0
 80 83  1  0
 80 79  1  0
 81 80  2  0
 82 81  1  0
 82 77  2  0
 83 84  1  0
 84 89  2  0
 84 85  1  0
 85 86  2  0
 86 87  1  0
 87 91  1  0
 88 87  2  0
 89 88  1  0
 90 89  1  0
 92 93  1  0
 93 96  1  0
 93 95  1  0
 94 92  2  0
 97 98  1  0
 97 72  1  0
 99 97  1  0
101100  1  0
102101  1  0
M  ISO  4  13 101  14 101  62 100  70 100
M  END
>  <TORSDO>  (39) 
F 26

>  <SCORE>  (39) 
-5.478

>  <name>  (39) 
39

>  <ligand_id>  (39) 
39

>  <original_smiles>  (39) 
[H]OC([H])([H])C([H])(C([H])([H])C([H])([H])N([H])C(=O)N1C([H])([H])C([H])([H])C([H])([H])C([H])(n2nc(-c3c([H])c([H])c(Oc4c([H])c([H])c(F)c([H])c4F)c([H])c3[H])c(C(=O)N([H])[H])c2N([H])[H])C1([H])[H])[N+]([H])([H])C([H])([H])c1c([H])c([H])c(C(=O)N([H])C([H])([H])C([H])([H])Oc2c([H])c([H])c3c(c2[H])C([H])([H])N(C(=O)C([H])(N([H])C(=O)C([H])(N([H])C([H])([H])[H])C([H])([H])[H])C(C([H])([H])[H])(C([H])([H])[H])C([H])([H])[H])C([H])(C(=O)N([H])C2([H])c4c([H])c([H])c([H])c([H])c4C([H])([H])C([H])([H])C2([H])[H])C3([H])[H])c([H])c1C([H])([H])[H]

>  <smiles>  (39) 
[H]OC([H])([H])C([H])(C([H])([H])C([H])([H])N([H])C(=O)N1C([H])([H])C([H])([H])C([H])([H])C([H])(n2nc(-c3c([H])c([H])c(Oc4c([H])c([H])c(F)c([H])c4F)c([H])c3[H])c(C(=O)N([H])[H])c2N([H])[H])C1([H])[H])[N+]([H])([H])C([H])([H])c1c([H])c([H])c(C(=O)N([H])C([H])([H])C([H])([H])Oc2c([H])c([H])c3c(c2[H])C([H])([H])N(C(=O)C([H])(N([H])C(=O)C([H])(N([H])C([H])([H])[H])C([H])([H])[H])C(C([H])([H])[H])(C([H])([H])[H])C([H])([H])[H])C([H])(C(=O)N([H])C2([H])c4c([H])c([H])c([H])c([H])c4C([H])([H])C([H])([H])C2([H])[H])C3([H])[H])c([H])c1C([H])([H])[H]

$$$$
40:0:0
     RDKit          3D

106114  0  0  1  0  0  0  0  0999 V2000
  -28.8010  -21.7370   22.5950 C   0  0  0  0  0  3  0  0  0  0  0  0
  -28.4030  -22.8640   21.9720 C   0  0  0  0  0  3  0  0  0  0  0  0
  -32.1670  -21.4400   24.3040 C   0  0  0  0  0  3  0  0  0  0  0  0
  -30.7930  -21.6640   24.0940 C   0  0  0  0  0  3  0  0  0  0  0  0
  -32.9800  -20.9700   23.2540 C   0  0  0  0  0  3  0  0  0  0  0  0
  -31.0300  -20.8830   21.8060 C   0  0  0  0  0  3  0  0  0  0  0  0
  -30.2120  -21.3920   22.8390 C   0  0  0  0  0  0  0  0  0  0  0  0
  -32.4150  -20.6980   21.9870 C   0  0  0  0  0  0  0  0  0  0  0  0
  -33.2440  -20.2530   20.7820 C   0  0  0  0  0  3  0  0  0  0  0  0
  -34.7210  -18.3780   20.2040 C   0  0  0  0  0  0  0  0  0  0  0  0
  -34.5720  -16.2380   18.9990 C   0  0  0  0  0  2  0  0  0  0  0  0
  -33.8110  -16.3830   17.6700 C   0  0  0  0  0  2  0  0  0  0  0  0
  -32.2980  -16.2070   17.8940 C   0  0  0  0  0  2  0  0  0  0  0  0
  -31.7640  -17.0900   19.0510 C   0  0  0  0  0  3  0  0  0  0  0  0
  -32.6450  -16.9420   20.3120 C   0  0  0  0  0  2  0  0  0  0  0  0
  -34.0420  -17.2320   19.9430 N   0  0  0  0  0  0  0  0  0  0  0  0
  -35.8260  -18.6400   19.7230 O   0  0  0  0  0  0  0  0  0  0  0  0
  -34.1940  -19.1910   21.1200 N   0  0  0  0  0  0  0  0  0  0  0  0
  -34.9220  -19.5700   21.7070 H   0  0  0  0  0  0  0  0  0  0  0  0
  -29.2820  -17.6680   19.4180 C   0  0  0  0  0  0  0  0  0  0  0  0
  -28.1840  -16.8820   19.6410 C   0  0  0  0  0  0  0  0  0  0  0  0
  -28.6620  -15.5360   19.6760 C   0  0  0  0  0  0  0  0  0  0  0  0
  -30.3600  -16.8010   19.3380 N   0  0  0  0  0  0  0  0  0  0  0  0
  -29.9820  -15.5130   19.5450 N   0  0  0  0  0  0  0  0  0  0  0  0
  -27.9340  -14.2640   19.7680 C   0  0  0  0  0  0  0  0  0  0  0  0
  -27.9270  -13.5020   20.9560 C   0  0  0  0  0  3  0  0  0  0  0  0
  -27.2060  -12.2910   21.0250 C   0  0  0  0  0  3  0  0  0  0  0  0
  -26.4780  -11.8340   19.9010 C   0  0  0  0  0  0  0  0  0  0  0  0
  -26.5070  -12.5850   18.7130 C   0  0  0  0  0  3  0  0  0  0  0  0
  -27.2310  -13.7860   18.6440 C   0  0  0  0  0  3  0  0  0  0  0  0
  -25.7700  -10.6560   19.8680 O   0  0  0  0  0  0  0  0  0  0  0  0
  -24.8840  -10.3210   20.8610 C   0  0  0  0  0  0  0  0  0  0  0  0
  -23.7410  -11.1040   21.1350 C   0  0  0  0  0  3  0  0  0  0  0  0
  -22.8210  -10.6850   22.1180 C   0  0  0  0  0  3  0  0  0  0  0  0
  -23.0350   -9.4830   22.8180 C   0  0  0  0  0  0  0  0  0  0  0  0
  -24.1690   -8.7000   22.5420 C   0  0  0  0  0  3  0  0  0  0  0  0
  -25.0890   -9.1170   21.5640 C   0  0  0  0  0  0  0  0  0  0  0  0
  -26.1700   -8.3470   21.2860 F   0  0  0  0  0  0  0  0  0  0  0  0
  -22.1470   -9.0770   23.7550 F   0  0  0  0  0  0  0  0  0  0  0  0
  -26.7550  -17.3400   19.7170 C   0  0  0  0  0  0  0  0  0  0  0  0
  -25.9330  -16.6500   20.5010 N   0  0  0  0  0  0  0  0  0  0  0  0
  -26.3720  -18.3420   19.1160 O   0  0  0  0  0  0  0  0  0  0  0  0
  -26.2530  -15.8390   21.0090 H   0  0  0  0  0  0  0  0  0  0  0  0
  -24.9690  -16.9370   20.5940 H   0  0  0  0  0  0  0  0  0  0  0  0
  -29.4500  -19.0410   19.2550 N   0  0  0  0  0  0  0  0  0  0  0  0
  -28.6670  -19.6830   19.2580 H   0  0  0  0  0  0  0  0  0  0  0  0
  -30.3300  -19.4850   19.0300 H   0  0  0  0  0  0  0  0  0  0  0  0
  -33.9870  -21.4630   20.1500 C   0  0  0  0  0  2  0  0  0  0  0  0
  -34.1140  -21.4030   18.6110 C   0  0  0  0  0  2  0  0  0  0  0  0
  -35.4600  -21.9350   18.1280 C   0  0  0  0  0  0  0  0  0  0  0  0
  -36.4930  -21.1060   18.1780 N   0  0  0  0  0  0  0  0  0  0  0  0
  -35.5710  -23.0830   17.7050 O   0  0  0  0  0  0  0  0  0  0  0  0
  -36.3670  -20.1690   18.5660 H   0  0  0  0  0  0  0  0  0  0  0  0
  -37.4090  -21.3980   17.8680 H   0  0  0  0  0  0  0  0  0  0  0  0
  -27.0060  -23.1670   21.7450 C   0  0  0  0  0  0  0  0  0  0  0  0
  -26.8210  -24.4910   21.7160 N   0  0  0  0  0  0  0  0  0  0  0  0
  -26.0920  -22.3530   21.6030 O   0  0  0  0  0  0  0  0  0  0  0  0
  -27.6530  -25.0590   21.8060 H   0  0  0  0  0  0  0  0  0  0  0  0
  -25.5720  -25.2000   21.4620 C   0  0  0  0  0  2  0  0  0  0  0  0
  -25.7870  -26.7150   21.5840 C   0  0  0  0  0  2  0  0  0  0  0  0
  -27.1470  -27.0440   22.0760 N   0  0  0  0  0  4  0  0  0  0  0  0
  -27.5610  -26.1940   22.4310 H   0  0  0  0  0  0  0  0  0  0  0  0
  -27.0390  -27.6690   22.8600 H   0  0  0  0  0  0  0  0  0  0  0  0
  -28.0720  -27.6490   21.0810 C   0  0  0  0  0  2  0  0  0  0  0  0
  -29.0660  -28.6510   21.7130 C   0  0  0  0  0  2  0  0  0  0  0  0
  -28.5170  -29.9640   21.8690 O   0  0  0  0  0  0  0  0  0  0  0  0
  -24.4740  -28.2030   27.4600 C   0  0  0  0  0  0  0  0  0  0  0  0
  -27.2940  -30.0250   22.4820 C   0  0  0  0  0  0  0  0  0  0  0  0
  -23.2860  -29.1830   25.5240 C   0  0  0  0  0  3  0  0  0  0  0  0
  -24.7680  -30.2050   23.7190 C   0  0  0  0  0  0  0  0  0  0  0  0
  -25.7360  -29.7540   25.9790 C   0  0  0  0  0  2  0  0  0  0  0  0
  -25.9070  -29.9310   24.4870 C   0  0  0  0  0  0  0  0  0  0  0  0
  -27.1740  -29.8320   23.8740 C   0  0  0  0  0  3  0  0  0  0  0  0
  -26.1470  -30.3430   21.7280 C   0  0  0  0  0  3  0  0  0  0  0  0
  -24.8790  -30.4070   22.3340 C   0  0  0  0  0  3  0  0  0  0  0  0
  -23.4490  -30.2940   24.4530 C   0  0  0  0  0  2  0  0  0  0  0  0
  -24.5190  -28.9980   26.3540 N   0  0  0  0  0  0  0  0  0  0  0  0
  -23.4190  -27.6600   27.8140 O   0  0  0  0  0  0  0  0  0  0  0  0
  -22.8250  -27.8870   24.8190 C   0  0  0  0  0  0  0  0  0  0  0  0
  -21.7850  -28.0050   23.9780 N   0  0  0  0  0  0  0  0  0  0  0  0
  -23.4120  -26.8190   25.0110 O   0  0  0  0  0  0  0  0  0  0  0  0
  -21.3540  -28.9150   23.8840 H   0  0  0  0  0  0  0  0  0  0  0  0
  -19.5620  -27.3170   21.2140 C   0  0  0  0  0  0  0  0  0  0  0  0
  -21.1990  -26.9310   23.1770 C   0  0  0  0  0  3  0  0  0  0  0  0
  -22.1980  -26.4240   22.1100 C   0  0  0  0  0  2  0  0  0  0  0  0
  -22.0440  -27.1260   20.7570 C   0  0  0  0  0  2  0  0  0  0  0  0
  -20.6290  -26.9250   20.2060 C   0  0  0  0  0  2  0  0  0  0  0  0
  -19.8350  -27.3360   22.6080 C   0  0  0  0  0  0  0  0  0  0  0  0
  -18.8180  -27.7420   23.4990 C   0  0  0  0  0  3  0  0  0  0  0  0
  -17.5500  -28.1210   23.0200 C   0  0  0  0  0  3  0  0  0  0  0  0
  -17.2800  -28.0850   21.6410 C   0  0  0  0  0  3  0  0  0  0  0  0
  -18.2830  -27.6810   20.7420 C   0  0  0  0  0  3  0  0  0  0  0  0
  -25.7370  -27.9570   28.3420 C   0  0  0  0  0  3  0  0  0  0  0  0
  -25.3770  -28.2800   29.7280 N   0  0  0  0  0  0  0  0  0  0  0  0
  -25.7240  -29.4130   30.3570 C   0  0  0  0  0  0  0  0  0  0  0  0
  -26.4490  -30.2700   29.8450 O   0  0  0  0  0  0  0  0  0  0  0  0
  -24.7350  -27.6510   30.1870 H   0  0  0  0  0  0  0  0  0  0  0  0
  -23.9780  -30.5830   31.7340 C   0  0  0  0  0  1  0  0  0  0  0  0
  -25.1780  -29.6260   31.7820 C   0  0  0  0  0  3  0  0  0  0  0  0
  -27.2480  -29.1790   33.0250 C   0  0  0  0  0  1  0  0  0  0  0  0
  -26.1920  -30.1430   32.7270 N   0  0  0  0  0  0  0  0  0  0  0  0
  -25.7580  -30.4200   33.6040 H   0  0  0  0  0  0  0  0  0  0  0  0
  -26.2910  -26.4830   28.2370 C   0  0  1  0  0  0  0  0  0  0  0  0
  -25.2010  -25.3970   28.3900 C   0  0  0  0  0  1  0  0  0  0  0  0
  -26.9920  -26.2590   26.8760 C   0  0  0  0  0  1  0  0  0  0  0  0
  -27.3620  -26.2460   29.3270 C   0  0  0  0  0  1  0  0  0  0  0  0
  1  7  1  0
  2  1  2  0
  4  3  1  0
  5  3  2  0
  6  8  2  0
  6  7  1  0
  7  4  2  0
  8  5  1  0
  9 48  1  0
  9 18  1  0
  9  8  1  0
 10 18  1  0
 11 16  1  0
 12 13  1  0
 12 11  1  0
 14 13  1  0
 14 23  1  0
 14 15  1  0
 16 10  1  0
 16 15  1  0
 17 10  2  0
 18 19  1  0
 20 21  2  0
 21 22  1  0
 21 40  1  0
 22 25  1  0
 23 20  1  0
 23 24  1  0
 24 22  2  0
 25 26  1  0
 26 27  2  0
 28 27  1  0
 29 28  2  0
 30 29  1  0
 30 25  2  0
 31 28  1  0
 31 32  1  0
 32 33  2  0
 32 37  1  0
 33 34  1  0
 34 35  2  0
 35 39  1  0
 36 35  1  0
 37 36  2  0
 38 37  1  0
 40 41  1  0
 41 44  1  0
 41 43  1  0
 42 40  2  0
 45 46  1  0
 45 20  1  0
 47 45  1  0
 49 48  1  0
 50 51  1  0
 50 49  1  0
 51 53  1  0
 52 50  2  0
 54 51  1  0
 55  2  1  0
 56 55  1  0
 56 58  1  0
 57 55  2  0
 59 60  1  0
 59 56  1  0
 60 61  1  0
 61 62  1  0
 61 63  1  0
 64 65  1  0
 64 61  1  0
 65 66  1  0
 66 68  1  0
 67 78  2  0
 68 73  1  0
 69 79  1  0
 69 77  1  0
 70 76  1  0
 70 72  1  0
 71 77  1  0
 72 71  1  0
 73 72  2  0
 74 75  1  0
 74 68  2  0
 75 70  2  0
 76 69  1  0
 77 67  1  0
 79 81  2  0
 80 79  1  0
 82 80  1  0
 83 88  1  0
 84 80  1  0
 85 84  1  0
 86 85  1  0
 87 86  1  0
 87 83  1  0
 88 84  1  0
 88 89  2  0
 90 89  1  0
 91 90  2  0
 92 83  2  0
 92 91  1  0
 93 67  1  0
 93 94  1  0
 94 97  1  0
 94 95  1  0
 95 99  1  0
 96 95  2  0
 99 98  1  0
 99101  1  0
101100  1  0
101102  1  0
103 93  1  0
103104  1  1
103106  1  0
105103  1  0
M  ISO  4  10 100  18 100  65 101  66 101
M  END
>  <TORSDO>  (40) 
F 27

>  <SCORE>  (40) 
-3.679

>  <name>  (40) 
40

>  <ligand_id>  (40) 
40

>  <original_smiles>  (40) 
[H]C(C(=O)N([H])C([H])([H])C([H])([H])[N+]([H])([H])C([H])([H])C([H])([H])Oc1c([H])c([H])c2c(c1[H])C([H])([H])N(C(=O)C([H])(N([H])C(=O)C([H])(N([H])C([H])([H])[H])C([H])([H])[H])C(C([H])([H])[H])(C([H])([H])[H])C([H])([H])[H])C([H])(C(=O)N([H])C1([H])c3c([H])c([H])c([H])c([H])c3C([H])([H])C([H])([H])C1([H])[H])C2([H])[H])=C([H])c1c([H])c([H])c([H])c(C([H])(N([H])C(=O)N2C([H])([H])C([H])([H])C([H])([H])C([H])(n3nc(-c4c([H])c([H])c(Oc5c([H])c([H])c(F)c([H])c5F)c([H])c4[H])c(C(=O)N([H])[H])c3N([H])[H])C2([H])[H])C([H])([H])C([H])([H])C(=O)N([H])[H])c1[H]

>  <smiles>  (40) 
[H]C(C(=O)N([H])C([H])([H])C([H])([H])[N+]([H])([H])C([H])([H])C([H])([H])Oc1c([H])c([H])c2c(c1[H])C([H])([H])N(C(=O)C([H])(N([H])C(=O)C([H])(N([H])C([H])([H])[H])C([H])([H])[H])C(C([H])([H])[H])(C([H])([H])[H])C([H])([H])[H])C([H])(C(=O)N([H])C1([H])c3c([H])c([H])c([H])c([H])c3C([H])([H])C([H])([H])C1([H])[H])C2([H])[H])=C([H])c1c([H])c([H])c([H])c(C([H])(N([H])C(=O)N2C([H])([H])C([H])([H])C([H])([H])C([H])(n3nc(-c4c([H])c([H])c(Oc5c([H])c([H])c(F)c([H])c5F)c([H])c4[H])c(C(=O)N([H])[H])c3N([H])[H])C2([H])[H])C([H])([H])C([H])([H])C(=O)N([H])[H])c1[H]

$$$$
41:0:0
     RDKit          3D

 96104  0  0  1  0  0  0  0  0999 V2000
  -27.6850  -21.7070   23.4040 C   0  0  0  0  0  1  0  0  0  0  0  0
  -27.8580  -21.9060   21.8920 C   0  0  0  0  0  3  0  0  0  0  0  0
  -27.7620  -19.7900   20.5150 C   0  0  0  0  0  3  0  0  0  0  0  0
  -28.3580  -18.6740   19.9080 C   0  0  0  0  0  3  0  0  0  0  0  0
  -29.9360  -20.4870   21.3550 C   0  0  0  0  0  3  0  0  0  0  0  0
  -28.5440  -20.7050   21.2470 C   0  0  0  0  0  0  0  0  0  0  0  0
  -29.7490  -18.4660   19.9970 C   0  0  0  0  0  0  0  0  0  0  0  0
  -30.5510  -19.3950   20.7060 C   0  0  0  0  0  0  0  0  0  0  0  0
  -32.0630  -19.2570   20.7910 C   0  0  0  0  0  1  0  0  0  0  0  0
  -30.3260  -17.2150   19.3580 C   0  0  0  0  0  2  0  0  0  0  0  0
  -31.1860  -16.3940   20.3410 C   0  0  0  0  0  2  0  0  0  0  0  0
  -31.2340  -14.1090   19.3600 C   0  0  0  0  0  0  0  0  0  0  0  0
  -30.6680  -11.9770   18.2630 C   0  0  0  0  0  2  0  0  0  0  0  0
  -29.6370  -12.2100   17.1420 C   0  0  0  0  0  2  0  0  0  0  0  0
  -28.2020  -12.1900   17.7020 C   0  0  0  0  0  2  0  0  0  0  0  0
  -28.0320  -13.1080   18.9420 C   0  0  0  0  0  3  0  0  0  0  0  0
  -29.1530  -12.8260   19.9670 C   0  0  0  0  0  2  0  0  0  0  0  0
  -30.4600  -12.9960   19.2960 N   0  0  0  0  0  0  0  0  0  0  0  0
  -32.1990  -14.3250   18.6210 O   0  0  0  0  0  0  0  0  0  0  0  0
  -30.8320  -14.9870   20.2780 N   0  0  0  0  0  0  0  0  0  0  0  0
  -30.0610  -14.6910   20.8590 H   0  0  0  0  0  0  0  0  0  0  0  0
  -25.7390  -13.9200   19.7910 C   0  0  0  0  0  0  0  0  0  0  0  0
  -24.6640  -13.2450   20.3050 C   0  0  0  0  0  0  0  0  0  0  0  0
  -25.0410  -11.8680   20.3360 C   0  0  0  0  0  0  0  0  0  0  0  0
  -26.7090  -12.9590   19.5430 N   0  0  0  0  0  0  0  0  0  0  0  0
  -26.2930  -11.7230   19.9240 N   0  0  0  0  0  0  0  0  0  0  0  0
  -24.2630  -10.6710   20.6810 C   0  0  0  0  0  0  0  0  0  0  0  0
  -24.7460   -9.7190   21.6060 C   0  0  0  0  0  3  0  0  0  0  0  0
  -23.9760   -8.5820   21.9320 C   0  0  0  0  0  3  0  0  0  0  0  0
  -22.7060   -8.3900   21.3350 C   0  0  0  0  0  0  0  0  0  0  0  0
  -22.2400   -9.3300   20.4000 C   0  0  0  0  0  3  0  0  0  0  0  0
  -23.0100  -10.4580   20.0720 C   0  0  0  0  0  3  0  0  0  0  0  0
  -21.8970   -7.3060   21.5730 O   0  0  0  0  0  0  0  0  0  0  0  0
  -21.8600   -6.6910   22.7990 C   0  0  0  0  0  0  0  0  0  0  0  0
  -21.6070   -7.4110   23.9870 C   0  0  0  0  0  3  0  0  0  0  0  0
  -21.5080   -6.7290   25.2160 C   0  0  0  0  0  3  0  0  0  0  0  0
  -21.6520   -5.3290   25.2600 C   0  0  0  0  0  0  0  0  0  0  0  0
  -21.9000   -4.6100   24.0760 C   0  0  0  0  0  3  0  0  0  0  0  0
  -22.0010   -5.2900   22.8500 C   0  0  0  0  0  0  0  0  0  0  0  0
  -22.2180   -4.5890   21.7110 F   0  0  0  0  0  0  0  0  0  0  0  0
  -21.5500   -4.6740   26.4390 F   0  0  0  0  0  0  0  0  0  0  0  0
  -23.3240  -13.8280   20.6550 C   0  0  0  0  0  0  0  0  0  0  0  0
  -22.6360  -13.2460   21.6310 N   0  0  0  0  0  0  0  0  0  0  0  0
  -22.9000  -14.8360   20.0920 O   0  0  0  0  0  0  0  0  0  0  0  0
  -22.9910  -12.4340   22.1130 H   0  0  0  0  0  0  0  0  0  0  0  0
  -21.7410  -13.6250   21.9050 H   0  0  0  0  0  0  0  0  0  0  0  0
  -25.9630  -15.2620   19.4960 N   0  0  0  0  0  0  0  0  0  0  0  0
  -25.2350  -15.9620   19.5870 H   0  0  0  0  0  0  0  0  0  0  0  0
  -26.7890  -15.6080   19.0250 H   0  0  0  0  0  0  0  0  0  0  0  0
  -28.5260  -23.1930   21.5980 N   0  0  0  0  0  4  0  0  0  0  0  0
  -27.9550  -23.9210   21.9950 H   0  0  0  0  0  0  0  0  0  0  0  0
  -29.4140  -23.2130   22.0730 H   0  0  0  0  0  0  0  0  0  0  0  0
  -28.7450  -23.5060   20.1690 C   0  0  0  0  0  2  0  0  0  0  0  0
  -29.1530  -24.9720   19.9910 C   0  0  0  0  0  2  0  0  0  0  0  0
  -29.4070  -25.3590   18.5220 C   0  0  0  0  0  2  0  0  0  0  0  0
  -29.2260  -26.7650   18.3370 O   0  0  0  0  0  0  0  0  0  0  0  0
  -25.1960  -30.5040   22.8310 C   0  0  0  0  0  0  0  0  0  0  0  0
  -27.9740  -27.2850   18.5850 C   0  0  0  0  0  0  0  0  0  0  0  0
  -23.9860  -29.3860   20.9860 C   0  0  0  0  0  3  0  0  0  0  0  0
  -25.4440  -28.4180   19.1360 C   0  0  0  0  0  0  0  0  0  0  0  0
  -26.4320  -30.0900   20.7120 C   0  0  0  0  0  2  0  0  0  0  0  0
  -26.5930  -28.9340   19.7480 C   0  0  0  0  0  0  0  0  0  0  0  0
  -27.8590  -28.3760   19.4720 C   0  0  0  0  0  3  0  0  0  0  0  0
  -26.8050  -26.7740   17.9730 C   0  0  0  0  0  3  0  0  0  0  0  0
  -25.5460  -27.3350   18.2470 C   0  0  0  0  0  3  0  0  0  0  0  0
  -24.1270  -29.0760   19.4730 C   0  0  0  0  0  2  0  0  0  0  0  0
  -25.2250  -29.9970   21.5670 N   0  0  0  0  0  0  0  0  0  0  0  0
  -24.1510  -30.5090   23.4960 O   0  0  0  0  0  0  0  0  0  0  0  0
  -23.5430  -28.0960   21.7120 C   0  0  0  0  0  0  0  0  0  0  0  0
  -22.2490  -27.7580   21.5970 N   0  0  0  0  0  0  0  0  0  0  0  0
  -24.3570  -27.4080   22.3350 O   0  0  0  0  0  0  0  0  0  0  0  0
  -21.6430  -28.3750   21.0740 H   0  0  0  0  0  0  0  0  0  0  0  0
  -19.1070  -26.0060   21.9050 C   0  0  0  0  0  0  0  0  0  0  0  0
  -21.6170  -26.5670   22.1630 C   0  0  0  0  0  3  0  0  0  0  0  0
  -21.8830  -25.3230   21.2830 C   0  0  0  0  0  2  0  0  0  0  0  0
  -20.7790  -25.0680   20.2520 C   0  0  0  0  0  2  0  0  0  0  0  0
  -19.4290  -24.8700   20.9480 C   0  0  0  0  0  2  0  0  0  0  0  0
  -20.1340  -26.8120   22.4640 C   0  0  0  0  0  0  0  0  0  0  0  0
  -19.7780  -27.8770   23.3190 C   0  0  0  0  0  3  0  0  0  0  0  0
  -18.4280  -28.1390   23.6210 C   0  0  0  0  0  3  0  0  0  0  0  0
  -17.4170  -27.3260   23.0800 C   0  0  0  0  0  3  0  0  0  0  0  0
  -17.7580  -26.2600   22.2280 C   0  0  0  0  0  3  0  0  0  0  0  0
  -26.4680  -31.1270   23.4900 C   0  0  0  0  0  3  0  0  0  0  0  0
  -26.0930  -32.4480   24.0090 N   0  0  0  0  0  0  0  0  0  0  0  0
  -26.3580  -33.6090   23.3960 C   0  0  0  0  0  0  0  0  0  0  0  0
  -27.0160  -33.6820   22.3540 O   0  0  0  0  0  0  0  0  0  0  0  0
  -25.5070  -32.4620   24.8310 H   0  0  0  0  0  0  0  0  0  0  0  0
  -24.5410  -35.3430   23.2910 C   0  0  0  0  0  1  0  0  0  0  0  0
  -25.8060  -34.8950   24.0400 C   0  0  0  0  0  3  0  0  0  0  0  0
  -27.9240  -35.7410   24.9480 C   0  0  0  0  0  1  0  0  0  0  0  0
  -26.7830  -36.0030   24.0740 N   0  0  0  0  0  0  0  0  0  0  0  0
  -26.3400  -36.8650   24.3830 H   0  0  0  0  0  0  0  0  0  0  0  0
  -27.0780  -30.2290   24.6350 C   0  0  1  0  0  0  0  0  0  0  0  0
  -26.0270  -29.7070   25.6410 C   0  0  0  0  0  1  0  0  0  0  0  0
  -27.8100  -29.0030   24.0400 C   0  0  0  0  0  1  0  0  0  0  0  0
  -28.1350  -31.0350   25.4270 C   0  0  0  0  0  1  0  0  0  0  0  0
  2  1  1  0
  3  6  1  0
  4  7  1  0
  4  3  2  0
  6  5  2  0
  6  2  1  0
  7  8  2  0
  8  9  1  0
  8  5  1  0
 10  7  1  0
 10 11  1  0
 12 20  1  0
 13 18  1  0
 14 15  1  0
 14 13  1  0
 16 15  1  0
 16 25  1  0
 16 17  1  0
 18 12  1  0
 18 17  1  0
 19 12  2  0
 20 11  1  0
 20 21  1  0
 22 23  2  0
 23 24  1  0
 23 42  1  0
 24 27  1  0
 25 22  1  0
 25 26  1  0
 26 24  2  0
 27 28  1  0
 28 29  2  0
 30 33  1  0
 30 29  1  0
 31 30  2  0
 32 31  1  0
 32 27  2  0
 33 34  1  0
 34 39  2  0
 34 35  1  0
 35 36  2  0
 36 37  1  0
 37 41  1  0
 38 37  2  0
 39 38  1  0
 40 39  1  0
 42 43  1  0
 43 46  1  0
 43 45  1  0
 44 42  2  0
 47 48  1  0
 47 22  1  0
 49 47  1  0
 50  2  1  0
 50 51  1  0
 50 52  1  0
 53 50  1  0
 54 53  1  0
 55 54  1  0
 56 55  1  0
 56 58  1  0
 57 68  2  0
 58 63  1  0
 59 67  1  0
 59 69  1  0
 60 66  1  0
 60 62  1  0
 61 67  1  0
 62 61  1  0
 63 62  2  0
 64 65  1  0
 64 58  2  0
 65 60  2  0
 66 59  1  0
 67 57  1  0
 69 71  2  0
 70 69  1  0
 72 70  1  0
 73 82  2  0
 73 78  1  0
 74 70  1  0
 74 78  1  0
 75 74  1  0
 76 77  1  0
 76 75  1  0
 77 73  1  0
 78 79  2  0
 79 80  1  0
 81 80  2  0
 82 81  1  0
 83 57  1  0
 83 84  1  0
 83 93  1  0
 84 87  1  0
 85 84  1  0
 85 89  1  0
 86 85  2  0
 89 88  1  0
 89 91  1  0
 91 92  1  0
 91 90  1  0
 93 96  1  1
 93 94  1  0
 95 93  1  0
M  ISO  4  12 100  20 100  55 101  56 101
M  END
>  <TORSDO>  (41) 
F 23

>  <SCORE>  (41) 
-3.053

>  <name>  (41) 
41

>  <ligand_id>  (41) 
41

>  <original_smiles>  (41) 
[H]c1c([H])c([H])c2c(c1[H])C([H])([H])C([H])([H])C([H])([H])C2([H])N([H])C(=O)C1([H])N(C(=O)C([H])(N([H])C(=O)C([H])(N([H])C([H])([H])[H])C([H])([H])[H])C(C([H])([H])[H])(C([H])([H])[H])C([H])([H])[H])C([H])([H])c2c([H])c(OC([H])([H])C([H])([H])C([H])([H])[N+]([H])([H])C([H])(c3c([H])c([H])c(C([H])([H])C([H])([H])N([H])C(=O)N4C([H])([H])C([H])([H])C([H])([H])C([H])(n5nc(-c6c([H])c([H])c(Oc7c([H])c([H])c(F)c([H])c7F)c([H])c6[H])c(C(=O)N([H])[H])c5N([H])[H])C4([H])[H])c(C([H])([H])[H])c3[H])C([H])([H])[H])c([H])c([H])c2C1([H])[H]

>  <smiles>  (41) 
[H]c1c([H])c([H])c2c(c1[H])C([H])([H])C([H])([H])C([H])([H])C2([H])N([H])C(=O)C1([H])N(C(=O)C([H])(N([H])C(=O)C([H])(N([H])C([H])([H])[H])C([H])([H])[H])C(C([H])([H])[H])(C([H])([H])[H])C([H])([H])[H])C([H])([H])c2c([H])c(OC([H])([H])C([H])([H])C([H])([H])[N+]([H])([H])C([H])(c3c([H])c([H])c(C([H])([H])C([H])([H])N([H])C(=O)N4C([H])([H])C([H])([H])C([H])([H])C([H])(n5nc(-c6c([H])c([H])c(Oc7c([H])c([H])c(F)c([H])c7F)c([H])c6[H])c(C(=O)N([H])[H])c5N([H])[H])C4([H])[H])c(C([H])([H])[H])c3[H])C([H])([H])[H])c([H])c([H])c2C1([H])[H]

$$$$
42:0:0
     RDKit          3D

100108  0  0  1  0  0  0  0  0999 V2000
  -24.5820  -23.8430   16.6650 C   0  0  0  0  0  3  0  0  0  0  0  0
  -25.3230  -22.6790   16.3720 C   0  0  0  0  0  3  0  0  0  0  0  0
  -24.4300  -24.2610   17.9990 C   0  0  0  0  0  3  0  0  0  0  0  0
  -25.7440  -22.3500   18.7430 C   0  0  0  0  0  3  0  0  0  0  0  0
  -25.9020  -21.9080   17.4050 C   0  0  0  0  0  0  0  0  0  0  0  0
  -25.0470  -23.5450   19.0470 C   0  0  0  0  0  0  0  0  0  0  0  0
  -26.7110  -20.6850   17.0670 C   0  0  0  0  0  0  0  0  0  0  0  0
  -26.9740  -19.8600   18.0890 N   0  0  0  0  0  0  0  0  0  0  0  0
  -27.0920  -20.4690   15.9130 O   0  0  0  0  0  0  0  0  0  0  0  0
  -26.5630  -20.1120   18.9740 H   0  0  0  0  0  0  0  0  0  0  0  0
  -27.8500  -18.6970   18.0780 C   0  0  0  0  0  2  0  0  0  0  0  0
  -28.5390  -18.5490   19.4460 C   0  0  0  0  0  2  0  0  0  0  0  0
  -29.1210  -17.1500   19.6940 C   0  0  0  0  0  2  0  0  0  0  0  0
  -29.8540  -17.0240   21.0430 C   0  0  0  0  0  2  0  0  0  0  0  0
  -30.6350  -14.6650   21.4110 C   0  0  0  0  0  0  0  0  0  0  0  0
  -30.5830  -12.4480   20.3730 C   0  0  0  0  0  2  0  0  0  0  0  0
  -29.8160  -12.6290   19.0480 C   0  0  0  0  0  2  0  0  0  0  0  0
  -28.3000  -12.4470   19.2740 C   0  0  0  0  0  2  0  0  0  0  0  0
  -27.7580  -13.2710   20.4760 C   0  0  0  0  0  3  0  0  0  0  0  0
  -28.6710  -13.1330   21.7180 C   0  0  0  0  0  2  0  0  0  0  0  0
  -30.0530  -13.4420   21.3120 N   0  0  0  0  0  0  0  0  0  0  0  0
  -31.8140  -14.8940   21.1480 O   0  0  0  0  0  0  0  0  0  0  0  0
  -29.7430  -15.6550   21.5330 N   0  0  0  0  0  0  0  0  0  0  0  0
  -28.8020  -15.3290   21.6770 H   0  0  0  0  0  0  0  0  0  0  0  0
  -25.2560  -13.7710   20.8350 C   0  0  0  0  0  0  0  0  0  0  0  0
  -24.1870  -12.9530   21.0790 C   0  0  0  0  0  0  0  0  0  0  0  0
  -24.7120  -11.6240   21.1440 C   0  0  0  0  0  0  0  0  0  0  0  0
  -26.3650  -12.9390   20.7690 N   0  0  0  0  0  0  0  0  0  0  0  0
  -26.0320  -11.6460   21.0130 N   0  0  0  0  0  0  0  0  0  0  0  0
  -24.0270  -10.3320   21.2690 C   0  0  0  0  0  0  0  0  0  0  0  0
  -24.3860   -9.3960   22.2660 C   0  0  0  0  0  3  0  0  0  0  0  0
  -23.6960   -8.1690   22.3780 C   0  0  0  0  0  3  0  0  0  0  0  0
  -22.6350   -7.8670   21.4930 C   0  0  0  0  0  0  0  0  0  0  0  0
  -22.2980   -8.7930   20.4870 C   0  0  0  0  0  3  0  0  0  0  0  0
  -22.9890  -10.0090   20.3730 C   0  0  0  0  0  3  0  0  0  0  0  0
  -21.9290   -6.6900   21.5120 O   0  0  0  0  0  0  0  0  0  0  0  0
  -21.7800   -5.9540   22.6630 C   0  0  0  0  0  0  0  0  0  0  0  0
  -21.1950   -6.5010   23.8240 C   0  0  0  0  0  3  0  0  0  0  0  0
  -20.9990   -5.6920   24.9600 C   0  0  0  0  0  3  0  0  0  0  0  0
  -21.3760   -4.3370   24.9350 C   0  0  0  0  0  0  0  0  0  0  0  0
  -21.9560   -3.7900   23.7780 C   0  0  0  0  0  3  0  0  0  0  0  0
  -22.1550   -4.5960   22.6420 C   0  0  0  0  0  0  0  0  0  0  0  0
  -22.6940   -4.0580   21.5210 F   0  0  0  0  0  0  0  0  0  0  0  0
  -21.1830   -3.5570   26.0240 F   0  0  0  0  0  0  0  0  0  0  0  0
  -22.7430  -13.3610   21.1510 C   0  0  0  0  0  0  0  0  0  0  0  0
  -21.9430  -12.6460   21.9340 N   0  0  0  0  0  0  0  0  0  0  0  0
  -22.3250  -14.3470   20.5450 O   0  0  0  0  0  0  0  0  0  0  0  0
  -22.2960  -11.8490   22.4430 H   0  0  0  0  0  0  0  0  0  0  0  0
  -20.9690  -12.8950   22.0270 H   0  0  0  0  0  0  0  0  0  0  0  0
  -25.3730  -15.1460   20.6420 N   0  0  0  0  0  0  0  0  0  0  0  0
  -24.5580  -15.7490   20.6160 H   0  0  0  0  0  0  0  0  0  0  0  0
  -26.2250  -15.6280   20.3850 H   0  0  0  0  0  0  0  0  0  0  0  0
  -23.6360  -23.5260   21.1260 C   0  0  0  0  0  1  0  0  0  0  0  0
  -24.9330  -24.0460   20.4880 C   0  0  0  0  0  3  0  0  0  0  0  0
  -26.1540  -23.7490   21.2980 N   0  0  0  0  0  4  0  0  0  0  0  0
  -25.8300  -23.4150   22.1930 H   0  0  0  0  0  0  0  0  0  0  0  0
  -26.6590  -22.9810   20.8870 H   0  0  0  0  0  0  0  0  0  0  0  0
  -27.0850  -24.8830   21.5800 C   0  0  0  0  0  2  0  0  0  0  0  0
  -28.0630  -25.2390   20.4120 C   0  0  0  0  0  2  0  0  0  0  0  0
  -28.3240  -26.6520   20.2760 O   0  0  0  0  0  0  0  0  0  0  0  0
  -24.5500  -31.8560   23.3000 C   0  0  0  0  0  0  0  0  0  0  0  0
  -27.2060  -27.4520   20.1640 C   0  0  0  0  0  0  0  0  0  0  0  0
  -23.5110  -30.2000   21.7880 C   0  0  0  0  0  3  0  0  0  0  0  0
  -24.8410  -28.9840   20.1110 C   0  0  0  0  0  0  0  0  0  0  0  0
  -25.8980  -30.8690   21.4260 C   0  0  0  0  0  2  0  0  0  0  0  0
  -26.0010  -29.5150   20.7120 C   0  0  0  0  0  0  0  0  0  0  0  0
  -27.1840  -28.7410   20.7480 C   0  0  0  0  0  3  0  0  0  0  0  0
  -26.0480  -26.9880   19.4980 C   0  0  0  0  0  3  0  0  0  0  0  0
  -24.8600  -27.7220   19.5110 C   0  0  0  0  0  3  0  0  0  0  0  0
  -23.5350  -29.7260   20.3190 C   0  0  0  0  0  2  0  0  0  0  0  0
  -24.6210  -31.1060   22.1660 N   0  0  0  0  0  0  0  0  0  0  0  0
  -23.4610  -32.0880   23.8450 O   0  0  0  0  0  0  0  0  0  0  0  0
  -22.6330  -29.4240   22.7900 C   0  0  0  0  0  0  0  0  0  0  0  0
  -21.3530  -29.1940   22.4840 N   0  0  0  0  0  0  0  0  0  0  0  0
  -23.1450  -28.9070   23.7970 O   0  0  0  0  0  0  0  0  0  0  0  0
  -20.9440  -29.6280   21.6670 H   0  0  0  0  0  0  0  0  0  0  0  0
  -18.0310  -27.8120   22.8440 C   0  0  0  0  0  0  0  0  0  0  0  0
  -20.5340  -28.2390   23.2350 C   0  0  0  0  0  3  0  0  0  0  0  0
  -20.7700  -26.7900   22.7460 C   0  0  0  0  0  2  0  0  0  0  0  0
  -19.7530  -26.3380   21.6980 C   0  0  0  0  0  2  0  0  0  0  0  0
  -18.3290  -26.4380   22.2610 C   0  0  0  0  0  2  0  0  0  0  0  0
  -19.0740  -28.6640   23.2830 C   0  0  0  0  0  0  0  0  0  0  0  0
  -18.7580  -29.9410   23.7940 C   0  0  0  0  0  3  0  0  0  0  0  0
  -17.4220  -30.3700   23.8700 C   0  0  0  0  0  3  0  0  0  0  0  0
  -16.3890  -29.5180   23.4440 C   0  0  0  0  0  3  0  0  0  0  0  0
  -16.6930  -28.2390   22.9360 C   0  0  0  0  0  3  0  0  0  0  0  0
  -25.8270  -32.4970   23.9220 C   0  0  0  0  0  3  0  0  0  0  0  0
  -26.3160  -31.7510   25.2210 C   0  0  1  0  0  0  0  0  0  0  0  0
  -25.2040  -31.5310   26.2750 C   0  0  0  0  0  1  0  0  0  0  0  0
  -26.9070  -30.3650   24.8680 C   0  0  0  0  0  1  0  0  0  0  0  0
  -27.4540  -32.5590   25.8920 C   0  0  0  0  0  1  0  0  0  0  0  0
  -25.5150  -33.9000   24.2180 N   0  0  0  0  0  0  0  0  0  0  0  0
  -25.8540  -34.9320   23.4310 C   0  0  0  0  0  0  0  0  0  0  0  0
  -26.5240  -34.8010   22.4040 O   0  0  0  0  0  0  0  0  0  0  0  0
  -24.9300  -34.0770   25.0190 H   0  0  0  0  0  0  0  0  0  0  0  0
  -24.1220  -36.7080   23.0440 C   0  0  0  0  0  1  0  0  0  0  0  0
  -25.3720  -36.3360   23.8550 C   0  0  0  0  0  3  0  0  0  0  0  0
  -27.5160  -37.2370   24.6390 C   0  0  0  0  0  1  0  0  0  0  0  0
  -26.4050  -37.3830   23.7010 N   0  0  0  0  0  0  0  0  0  0  0  0
  -26.0020  -38.3060   23.8280 H   0  0  0  0  0  0  0  0  0  0  0  0
  1  3  1  0
  2  1  2  0
  2  5  1  0
  3  6  2  0
  4  6  1  0
  5  4  2  0
  6 54  1  0
  7  5  1  0
  7  8  1  0
  8 10  1  0
  9  7  2  0
 11  8  1  0
 11 12  1  0
 12 13  1  0
 13 14  1  0
 14 23  1  0
 15 23  1  0
 16 21  1  0
 17 18  1  0
 17 16  1  0
 19 18  1  0
 19 28  1  0
 19 20  1  0
 21 15  1  0
 21 20  1  0
 22 15  2  0
 23 24  1  0
 25 26  2  0
 26 27  1  0
 26 45  1  0
 27 30  1  0
 28 25  1  0
 28 29  1  0
 29 27  2  0
 30 31  1  0
 31 32  2  0
 33 36  1  0
 33 32  1  0
 34 33  2  0
 35 34  1  0
 35 30  2  0
 36 37  1  0
 37 38  1  0
 38 39  2  0
 40 39  1  0
 40 44  1  0
 41 40  2  0
 42 37  2  0
 42 41  1  0
 43 42  1  0
 45 46  1  0
 46 49  1  0
 46 48  1  0
 47 45  2  0
 50 25  1  0
 51 50  1  0
 52 50  1  0
 54 53  1  0
 54 55  1  0
 55 58  1  0
 55 56  1  0
 57 55  1  0
 59 58  1  0
 60 59  1  0
 61 72  2  0
 62 60  1  0
 62 67  1  0
 63 71  1  0
 63 73  1  0
 64 70  1  0
 64 66  1  0
 65 71  1  0
 66 67  2  0
 66 65  1  0
 68 69  1  0
 68 62  2  0
 69 64  2  0
 70 63  1  0
 71 61  1  0
 73 75  2  0
 74 73  1  0
 76 74  1  0
 77 86  2  0
 77 82  1  0
 78 74  1  0
 78 82  1  0
 79 78  1  0
 80 81  1  0
 80 79  1  0
 81 77  1  0
 82 83  2  0
 83 84  1  0
 85 84  2  0
 86 85  1  0
 87 61  1  0
 87 92  1  0
 87 88  1  0
 88 91  1  1
 88 89  1  0
 90 88  1  0
 92 95  1  0
 93 97  1  0
 93 92  1  0
 94 93  2  0
 97 96  1  0
 99100  1  0
 99 97  1  0
 99 98  1  0
M  ISO  4  15 100  23 100  59 101  60 101
M  END
>  <TORSDO>  (42) 
F 25

>  <SCORE>  (42) 
-9.557

>  <name>  (42) 
42

>  <ligand_id>  (42) 
42

>  <original_smiles>  (42) 
[H]c1c([H])c([H])c2c(c1[H])C([H])([H])C([H])([H])C([H])([H])C2([H])N([H])C(=O)C1([H])N(C(=O)C([H])(N([H])C(=O)C([H])(N([H])C([H])([H])[H])C([H])([H])[H])C(C([H])([H])[H])(C([H])([H])[H])C([H])([H])[H])C([H])([H])c2c([H])c(OC([H])([H])C([H])([H])[N+]([H])([H])C([H])(c3c([H])c([H])c([H])c(C(=O)N([H])C([H])([H])C([H])([H])C([H])([H])C([H])([H])N([H])C(=O)N4C([H])([H])C([H])([H])C([H])([H])C([H])(n5nc(-c6c([H])c([H])c(Oc7c([H])c([H])c(F)c([H])c7F)c([H])c6[H])c(C(=O)N([H])[H])c5N([H])[H])C4([H])[H])c3[H])C([H])([H])[H])c([H])c([H])c2C1([H])[H]

>  <smiles>  (42) 
[H]c1c([H])c([H])c2c(c1[H])C([H])([H])C([H])([H])C([H])([H])C2([H])N([H])C(=O)C1([H])N(C(=O)C([H])(N([H])C(=O)C([H])(N([H])C([H])([H])[H])C([H])([H])[H])C(C([H])([H])[H])(C([H])([H])[H])C([H])([H])[H])C([H])([H])c2c([H])c(OC([H])([H])C([H])([H])[N+]([H])([H])C([H])(c3c([H])c([H])c([H])c(C(=O)N([H])C([H])([H])C([H])([H])C([H])([H])C([H])([H])N([H])C(=O)N4C([H])([H])C([H])([H])C([H])([H])C([H])(n5nc(-c6c([H])c([H])c(Oc7c([H])c([H])c(F)c([H])c7F)c([H])c6[H])c(C(=O)N([H])[H])c5N([H])[H])C4([H])[H])c3[H])C([H])([H])[H])c([H])c([H])c2C1([H])[H]

$$$$
43:0:0
     RDKit          3D

 94 95  0  0  1  0  0  0  0  0999 V2000
  -20.0620  -28.3390   21.7810 C   0  0  0  0  0 15  0  0  0  0  0  0
  -22.0390  -26.8770   20.2130 C   0  0  1  0  0  0  0  0  0  0  0  0
  -22.7070  -27.1770   18.6710 N   0  0  0  0  0  0  0  0  0  0  0  0
  -22.6060  -25.8710   20.6580 O   0  0  0  0  0  0  0  0  0  0  0  0
  -23.3620  -26.4810   19.0070 H   0  0  0  0  0  0  0  0  0  0  0  0
  -23.6350  -26.9770   16.9530 C   0  0  0  0  0 15  0  0  0  0  0  0
  -24.3220  -27.7650   15.0550 C   0  0  0  0  0 15  0  0  0  0  0  0
  -25.0620  -27.4280   13.0430 C   0  0  0  0  0 15  0  0  0  0  0  0
  -25.7620  -28.1920   11.1400 C   0  0  0  0  0 15  0  0  0  0  0  0
  -26.8600  -28.2930    7.7650 C   0  0  0  0  0  0  0  0  0  0  0  0
  -26.8100  -27.9980    4.9800 C   0  0  0  0  0  2  0  0  0  0  0  0
  -25.4010  -27.7870    4.3130 C   0  0  0  0  0  2  0  0  0  0  0  0
  -24.8270  -26.4020    4.6510 C   0  0  0  0  0  2  0  0  0  0  0  0
  -25.2180  -26.0430    6.0960 C   0  0  0  0  0  3  0  0  0  0  0  0
  -26.7100  -26.1400    6.3680 C   0  0  0  0  0  2  0  0  0  0  0  0
  -26.8510  -27.5550    6.4820 N   0  0  0  0  0  0  0  0  0  0  0  0
  -27.3870  -29.3810    7.3550 O   0  0  0  0  0  0  0  0  0  0  0  0
  -26.2490  -27.8580    9.2740 N   0  0  0  0  0  2  0  0  0  0  0  0
  -25.9400  -26.9040    9.1120 H   0  0  0  0  0  0  0  0  0  0  0  0
  -24.1970  -24.5310    7.7860 C   0  0  0  0  0  0  0  0  0  0  0  0
  -23.9730  -23.1890    7.7860 C   0  0  0  0  0  0  0  0  0  0  0  0
  -24.5070  -22.7000    6.5540 C   0  0  0  0  0  0  0  0  0  0  0  0
  -24.7900  -24.7810    6.5700 N   0  0  0  0  0  0  0  0  0  0  0  0
  -25.0690  -23.6740    5.8590 N   0  0  0  0  0  0  0  0  0  0  0  0
  -24.4460  -21.3750    5.9490 C   0  0  0  0  0  0  0  0  0  0  0  0
  -25.6060  -20.7190    5.4870 C   0  0  0  0  0  3  0  0  0  0  0  0
  -25.5120  -19.4330    4.9190 C   0  0  0  0  0  3  0  0  0  0  0  0
  -24.2510  -18.7970    4.8150 C   0  0  0  0  0  0  0  0  0  0  0  0
  -23.0970  -19.4720    5.2500 C   0  0  0  0  0  3  0  0  0  0  0  0
  -23.1920  -20.7540    5.8100 C   0  0  0  0  0  3  0  0  0  0  0  0
  -24.0590  -17.5570    4.2610 O   0  0  0  0  0  0  0  0  0  0  0  0
  -25.0320  -16.5940    4.3080 C   0  0  0  0  0  0  0  0  0  0  0  0
  -25.8070  -16.3690    5.4670 C   0  0  0  0  0  3  0  0  0  0  0  0
  -26.7480  -15.3210    5.4920 C   0  0  0  0  0  3  0  0  0  0  0  0
  -26.9100  -14.4940    4.3640 C   0  0  0  0  0  0  0  0  0  0  0  0
  -26.1370  -14.7140    3.2110 C   0  0  0  0  0  3  0  0  0  0  0  0
  -25.1990  -15.7610    3.1840 C   0  0  0  0  0  0  0  0  0  0  0  0
  -24.4410  -15.9580    2.0780 F   0  0  0  0  0  0  0  0  0  0  0  0
  -27.8070  -13.4810    4.3900 F   0  0  0  0  0  0  0  0  0  0  0  0
  -23.1990  -22.4340    8.8170 C   0  0  0  0  0  0  0  0  0  0  0  0
  -23.5030  -21.1550    8.9910 N   0  0  0  0  0  0  0  0  0  0  0  0
  -22.3490  -22.9960    9.5060 O   0  0  0  0  0  0  0  0  0  0  0  0
  -24.2170  -20.7080    8.4350 H   0  0  0  0  0  0  0  0  0  0  0  0
  -23.0160  -20.6140    9.6900 H   0  0  0  0  0  0  0  0  0  0  0  0
  -23.9200  -25.5590    8.6880 N   0  0  0  0  0  0  0  0  0  0  0  0
  -23.3240  -25.3260    9.4760 H   0  0  0  0  0  0  0  0  0  0  0  0
  -23.7090  -26.4800    8.3250 H   0  0  0  0  0  0  0  0  0  0  0  0
  -20.5690  -29.0540   23.6790 C   0  0  0  0  0  1  0  0  0  0  0  0
  -22.1240  -28.7540   24.6270 N   0  0  0  0  0  4  0  0  0  0  0  0
  -22.4310  -29.7010   24.8620 H   0  0  0  0  0  0  0  0  0  0  0  0
  -21.7620  -28.4090   25.5040 H   0  0  0  0  0  0  0  0  0  0  0  0
  -23.7070  -27.8330   24.5040 C   0  0  0  0  0  1  0  0  0  0  0  0
  -25.2850  -27.5140   23.3240 C   0  0  0  0  0  1  0  0  0  0  0  0
  -25.9100  -26.6420   21.9200 O   0  0  0  0  0  0  0  0  0  0  0  0
  -24.3700  -30.9790   23.4980 C   0  0  0  0  0  0  0  0  0  0  0  0
  -26.2350  -27.0700   20.6040 C   0  0  0  0  0  3  0  0  0  0  0  0
  -23.1050  -29.8580   21.5360 C   0  0  0  0  0  3  0  0  0  0  0  0
  -24.5040  -28.8860   19.7090 C   0  0  0  0  0  0  0  0  0  0  0  0
  -25.5480  -30.4450   21.3900 C   0  0  0  0  0  2  0  0  0  0  0  0
  -25.6290  -29.2520   20.4720 C   0  0  0  0  0  0  0  0  0  0  0  0
  -26.6890  -28.3690   20.6300 C   0  0  0  0  0  2  0  0  0  0  0  0
  -25.3900  -26.6530   19.5340 C   0  0  0  0  0  2  0  0  0  0  0  0
  -24.4380  -27.6030   19.1030 C   0  0  0  0  0  3  0  0  0  0  0  0
  -23.2800  -29.7370   20.0020 C   0  0  0  0  0  2  0  0  0  0  0  0
  -24.3460  -30.4000   22.2420 N   0  0  0  0  0  0  0  0  0  0  0  0
  -23.3210  -31.1550   24.1320 O   0  0  0  0  0  0  0  0  0  0  0  0
  -22.8160  -28.3460   21.7530 C   0  0  0  0  0  0  0  0  0  0  0  0
  -21.7730  -27.6900   21.7370 N   0  0  2  0  0  4  0  0  0  0  0  0
  -23.5030  -27.4420   21.9430 O   0  0  0  0  0  0  0  0  0  0  0  0
  -21.1280  -28.1090   21.0850 H   0  0  0  0  0  0  0  0  0  0  0  0
  -17.7340  -26.0740   21.8420 C   0  0  0  0  0  0  0  0  0  0  0  0
  -20.9310  -26.7560   22.6510 C   0  0  0  0  0  1  0  0  0  0  0  0
  -21.5250  -25.9980   20.8150 C   0  0  0  0  0  3  0  0  0  0  0  0
  -20.0800  -25.2520   19.7310 C   0  0  0  0  0  3  0  0  0  0  0  0
  -18.2990  -25.2180   20.3830 C   0  0  0  0  0  3  0  0  0  0  0  0
  -18.7410  -26.7460   22.9670 C   0  0  0  0  0  3  0  0  0  0  0  0
  -17.9250  -27.9230   23.4200 C   0  0  0  0  0  3  0  0  0  0  0  0
  -16.7570  -28.5530   22.8120 C   0  0  0  0  0  3  0  0  0  0  0  0
  -16.0060  -27.9260   21.8180 C   0  0  0  0  0  3  0  0  0  0  0  0
  -16.4670  -26.6610   21.4300 C   0  0  0  0  0  3  0  0  0  0  0  0
  -25.6950  -31.4860   24.2010 C   0  0  0  0  0  3  0  0  0  0  0  0
  -26.1350  -30.7860   25.5640 C   0  0  1  0  0  0  0  0  0  0  0  0
  -25.0090  -30.7300   26.6290 C   0  0  0  0  0  1  0  0  0  0  0  0
  -26.7690  -29.3930   25.3710 C   0  0  0  0  0  1  0  0  0  0  0  0
  -27.3030  -31.5720   26.2100 C   0  0  0  0  0  1  0  0  0  0  0  0
  -25.5170  -32.9180   24.4600 N   0  0  0  0  0  0  0  0  0  0  0  0
  -26.1540  -33.8970   23.8050 C   0  0  0  0  0  0  0  0  0  0  0  0
  -26.9610  -33.6770   22.8970 O   0  0  0  0  0  0  0  0  0  0  0  0
  -24.8280  -33.1740   25.1510 H   0  0  0  0  0  0  0  0  0  0  0  0
  -24.8690  -35.9660   23.1970 C   0  0  0  0  0  1  0  0  0  0  0  0
  -25.8380  -35.3460   24.2150 C   0  0  0  0  0  3  0  0  0  0  0  0
  -27.8910  -35.8340   25.4740 C   0  0  0  0  0  1  0  0  0  0  0  0
  -27.0400  -36.1970   24.3430 N   0  0  0  0  0  0  0  0  0  0  0  0
  -26.7800  -37.1750   24.4430 H   0  0  0  0  0  0  0  0  0  0  0  0
  2  4  1  1
  2 73  1  0
  2 68  1  0
  3  5  1  0
  3 63  1  0
  3  2  1  0
  4 73  1  0
 10 18  1  0
 11 16  1  0
 12 13  1  0
 12 11  1  0
 14 13  1  0
 14 15  1  0
 14 23  1  0
 15 16  1  0
 16 10  1  0
 17 10  2  0
 19 18  1  0
 20 21  2  0
 20 45  1  0
 21 40  1  0
 22 21  1  0
 23 20  1  0
 24 22  2  0
 24 23  1  0
 25 22  1  0
 26 25  2  0
 27 26  1  0
 28 27  2  0
 28 29  1  0
 29 30  2  0
 30 25  1  0
 31 32  1  0
 31 28  1  0
 32 33  1  0
 33 34  2  0
 35 39  1  0
 35 34  1  0
 36 35  2  0
 37 36  1  0
 37 32  2  0
 38 37  1  0
 40 41  1  0
 40 42  2  0
 41 44  1  0
 43 41  1  0
 45 46  1  0
 47 45  1  0
 48 49  1  0
 49 50  1  0
 49 51  1  0
 52 49  1  0
 54 53  1  0
 55 66  2  0
 56 61  1  0
 56 54  1  0
 57 64  1  0
 57 67  1  0
 57 65  1  0
 58 64  1  0
 58 60  2  0
 59 65  1  0
 60 61  1  0
 60 59  1  0
 62 56  1  0
 63 62  1  0
 63 58  1  0
 65 55  1  0
 67 69  2  0
 68 67  1  0
 68 72  1  0
 68 70  1  6
 71 76  1  0
 73 74  1  0
 74 75  2  0
 75 71  1  0
 76 77  2  0
 78 77  1  0
 79 78  2  0
 80 79  1  0
 80 71  2  0
 81 55  1  0
 81 86  1  0
 81 82  1  0
 82 85  1  1
 82 83  1  0
 84 82  1  0
 86 89  1  0
 87 91  1  0
 87 86  1  0
 88 87  2  0
 91 90  1  0
 91 93  1  0
 93 94  1  0
 93 92  1  0
M  ISO  4  10 100  18 100  53 101  54 101
M  END
>  <TORSDO>  (43) 
F 25

>  <SCORE>  (43) 
-6.238

>  <name>  (43) 
43

>  <ligand_id>  (43) 
43

>  <original_smiles>  (43) 
[H]c1c([H])c([H])c2c(c1[H])C([H])([H])C([H])([H])C([H])([H])C2([H])N([H])C(=O)C1([H])N(C(=O)C([H])(N([H])C(=O)C([H])(N([H])C([H])([H])[H])C([H])([H])[H])C(C([H])([H])[H])(C([H])([H])[H])C([H])([H])[H])C([H])([H])c2c([H])c(OC([H])([H])C([H])([H])[N+]([H])([H])C([H])([H])C([H])([H])C(=O)N([H])C([H])([H])C([H])([H])C([H])([H])C([H])([H])N([H])C(=O)N3C([H])([H])C([H])([H])C([H])([H])C([H])(n4nc(-c5c([H])c([H])c(Oc6c([H])c([H])c(F)c([H])c6F)c([H])c5[H])c(C(=O)N([H])[H])c4N([H])[H])C3([H])[H])c([H])c([H])c2C1([H])[H]

>  <smiles>  (43) 
[H]c1c([H])c([H])c2c(c1[H])C([H])([H])C([H])([H])C([H])([H])C2([H])N([H])C(=O)C1([H])N(C(=O)C([H])(N([H])C(=O)C([H])(N([H])C([H])([H])[H])C([H])([H])[H])C(C([H])([H])[H])(C([H])([H])[H])C([H])([H])[H])C([H])([H])c2c([H])c(OC([H])([H])C([H])([H])[N+]([H])([H])C([H])([H])C([H])([H])C(=O)N([H])C([H])([H])C([H])([H])C([H])([H])C([H])([H])N([H])C(=O)N3C([H])([H])C([H])([H])C([H])([H])C([H])(n4nc(-c5c([H])c([H])c(Oc6c([H])c([H])c(F)c([H])c6F)c([H])c5[H])c(C(=O)N([H])[H])c4N([H])[H])C3([H])[H])c([H])c([H])c2C1([H])[H]

$$$$
44:0:0
     RDKit          3D

 96 99  0  0  1  0  0  0  0  0999 V2000
  -24.1230  -26.4350   18.6930 C   0  0  0  0  0  3  0  0  0  0  0  0
  -24.1750  -24.7700   19.3890 C   0  0  0  0  0  3  0  0  0  0  0  0
  -25.4600  -27.6750   18.9930 C   0  0  0  0  0  2  0  0  0  0  0  0
  -25.4470  -23.7970   20.1700 C   0  0  0  0  0  2  0  0  0  0  0  0
  -26.9170  -26.3290   20.9390 C   0  0  0  0  0  2  0  0  0  0  0  0
  -26.3790  -24.7290   21.1470 C   0  0  0  0  0  3  0  0  0  0  0  0
  -26.8330  -24.0340   22.2660 N   0  0  0  0  0  0  0  0  0  0  0  0
  -26.0680  -23.7110   22.8540 H   0  0  0  0  0  0  0  0  0  0  0  0
  -27.4490  -24.5890   22.8420 H   0  0  0  0  0  0  0  0  0  0  0  0
  -26.0700  -21.9750   19.6530 C   0  0  0  0  0  2  0  0  0  0  0  0
  -25.1930  -21.5230   18.9080 O   0  0  0  0  0  0  0  0  0  0  0  0
  -27.4750  -20.5150   19.7140 C   0  0  0  0  0 15  0  0  0  0  0  0
  -28.0930  -18.4990   19.3650 C   0  0  0  0  0 15  0  0  0  0  0  0
  -30.1760  -15.6550   19.5380 C   0  0  0  0  0  0  0  0  0  0  0  0
  -30.5960  -12.9810   19.0130 C   0  0  0  0  0  2  0  0  0  0  0  0
  -29.7470  -12.2380   17.9320 C   0  0  0  0  0  2  0  0  0  0  0  0
  -28.3670  -11.8640   18.4830 C   0  0  0  0  0  2  0  0  0  0  0  0
  -27.8400  -13.0080   19.3710 C   0  0  0  0  0  3  0  0  0  0  0  0
  -28.8320  -13.5210   20.4190 C   0  0  0  0  0  2  0  0  0  0  0  0
  -29.8400  -14.2100   19.6180 N   0  0  0  0  0  0  0  0  0  0  0  0
  -31.4300  -15.5660   19.3570 O   0  0  0  0  0  0  0  0  0  0  0  0
  -29.4310  -17.1400   19.5890 N   0  0  0  0  0  2  0  0  0  0  0  0
  -30.2630  -17.7020   19.7030 H   0  0  0  0  0  0  0  0  0  0  0  0
  -25.6510  -13.7150   20.3530 C   0  0  0  0  0  0  0  0  0  0  0  0
  -24.5690  -13.0130   20.7890 C   0  0  0  0  0  0  0  0  0  0  0  0
  -24.9170  -11.6300   20.6730 C   0  0  0  0  0  0  0  0  0  0  0  0
  -26.5670  -12.7580   19.9760 N   0  0  0  0  0  0  0  0  0  0  0  0
  -26.1630  -11.4950   20.2410 N   0  0  0  0  0  0  0  0  0  0  0  0
  -24.1090  -10.4280   20.8790 C   0  0  0  0  0  0  0  0  0  0  0  0
  -24.4620   -9.4570   21.8420 C   0  0  0  0  0  3  0  0  0  0  0  0
  -23.6520   -8.3180   22.0330 C   0  0  0  0  0  3  0  0  0  0  0  0
  -22.4780   -8.1450   21.2630 C   0  0  0  0  0  0  0  0  0  0  0  0
  -22.1470   -9.1030   20.2890 C   0  0  0  0  0  3  0  0  0  0  0  0
  -22.9560  -10.2330   20.0950 C   0  0  0  0  0  3  0  0  0  0  0  0
  -21.6420   -7.0610   21.3670 O   0  0  0  0  0  0  0  0  0  0  0  0
  -21.4310   -6.4270   22.5630 C   0  0  0  0  0  0  0  0  0  0  0  0
  -20.9020   -7.1040   23.6840 C   0  0  0  0  0  3  0  0  0  0  0  0
  -20.6380   -6.3960   24.8730 C   0  0  0  0  0  3  0  0  0  0  0  0
  -20.8910   -5.0130   24.9410 C   0  0  0  0  0  0  0  0  0  0  0  0
  -21.4140   -4.3370   23.8250 C   0  0  0  0  0  3  0  0  0  0  0  0
  -21.6810   -5.0430   22.6380 C   0  0  0  0  0  0  0  0  0  0  0  0
  -22.1640   -4.3830   21.5580 F   0  0  0  0  0  0  0  0  0  0  0  0
  -20.6300   -4.3310   26.0800 F   0  0  0  0  0  0  0  0  0  0  0  0
  -23.2500  -13.5970   21.1850 C   0  0  0  0  0  0  0  0  0  0  0  0
  -22.5370  -12.9340   22.0860 N   0  0  0  0  0  0  0  0  0  0  0  0
  -22.8710  -14.6760   20.7300 O   0  0  0  0  0  0  0  0  0  0  0  0
  -22.8630  -12.0600   22.4720 H   0  0  0  0  0  0  0  0  0  0  0  0
  -21.6520  -13.3060   22.3970 H   0  0  0  0  0  0  0  0  0  0  0  0
  -25.9330  -15.0740   20.2100 N   0  0  0  0  0  0  0  0  0  0  0  0
  -25.2500  -15.7950   20.4050 H   0  0  0  0  0  0  0  0  0  0  0  0
  -26.7900  -15.4350   19.8120 H   0  0  0  0  0  0  0  0  0  0  0  0
  -28.1140  -26.6090   21.9430 C   0  0  0  0  0  2  0  0  0  0  0  0
  -29.4720  -25.9330   21.5750 C   0  0  0  0  0  2  0  0  0  0  0  0
  -29.9380  -26.0880   20.1170 C   0  0  0  0  0  2  0  0  0  0  0  0
  -30.6530  -27.4260   19.8560 C   0  0  0  0  0  2  0  0  0  0  0  0
  -29.9190  -28.5620   20.3330 O   0  0  0  0  0  0  0  0  0  0  0  0
  -25.0910  -31.6670   24.6310 C   0  0  0  0  0  0  0  0  0  0  0  0
  -28.6680  -28.9120   19.9570 C   0  0  0  0  0  3  0  0  0  0  0  0
  -24.1020  -30.4040   22.6370 C   0  0  0  0  0  3  0  0  0  0  0  0
  -25.3480  -28.3800   21.1050 C   0  0  0  0  0  2  0  0  0  0  0  0
  -26.4080  -30.9110   22.6230 C   0  0  0  0  0  3  0  0  0  0  0  0
  -26.5080  -29.5950   21.7390 C   0  0  0  0  0  0  0  0  0  0  0  0
  -27.9660  -29.7500   21.1200 C   0  0  0  0  0  2  0  0  0  0  0  0
  -28.1120  -27.8610   18.9400 C   0  0  0  0  0  2  0  0  0  0  0  0
  -26.7140  -27.2300   19.1100 C   0  0  0  0  0  2  0  0  0  0  0  0
  -24.2960  -29.7050   21.2070 C   0  0  0  0  0  2  0  0  0  0  0  0
  -25.1750  -31.1500   23.3440 N   0  0  0  0  0  0  0  0  0  0  0  0
  -23.9950  -31.9040   25.1560 O   0  0  0  0  0  0  0  0  0  0  0  0
  -23.0010  -29.7440   23.3840 C   0  0  0  0  0  0  0  0  0  0  0  0
  -21.8500  -29.6190   22.7520 N   0  0  0  0  0  0  0  0  0  0  0  0
  -23.2520  -29.1430   24.4360 O   0  0  0  0  0  0  0  0  0  0  0  0
  -21.6920  -30.1130   21.8850 H   0  0  0  0  0  0  0  0  0  0  0  0
  -18.5740  -28.2740   22.2960 C   0  0  0  0  0  0  0  0  0  0  0  0
  -20.9690  -28.5270   23.1110 C   0  0  0  0  0  3  0  0  0  0  0  0
  -21.3120  -27.2620   22.2940 C   0  0  0  0  0  2  0  0  0  0  0  0
  -20.4570  -27.1160   21.0390 C   0  0  0  0  0  2  0  0  0  0  0  0
  -18.9740  -27.0930   21.4220 C   0  0  0  0  0  2  0  0  0  0  0  0
  -19.5290  -28.9710   23.0660 C   0  0  0  0  0  0  0  0  0  0  0  0
  -19.1400  -30.0870   23.8370 C   0  0  0  0  0  3  0  0  0  0  0  0
  -17.7990  -30.5080   23.8490 C   0  0  0  0  0  3  0  0  0  0  0  0
  -16.8420  -29.8010   23.1020 C   0  0  0  0  0  3  0  0  0  0  0  0
  -17.2270  -28.6850   22.3320 C   0  0  0  0  0  3  0  0  0  0  0  0
  -26.3470  -31.9560   25.5470 C   0  0  0  0  0  3  0  0  0  0  0  0
  -26.4300  -33.4090   25.8120 N   0  0  0  0  0  0  0  0  0  0  0  0
  -27.3320  -34.2500   25.2840 C   0  0  0  0  0  0  0  0  0  0  0  0
  -28.2330  -33.8640   24.5330 O   0  0  0  0  0  0  0  0  0  0  0  0
  -25.6730  -33.8130   26.3480 H   0  0  0  0  0  0  0  0  0  0  0  0
  -26.5820  -36.5080   24.4470 C   0  0  0  0  0  1  0  0  0  0  0  0
  -27.2180  -35.7540   25.6280 C   0  0  0  0  0  3  0  0  0  0  0  0
  -29.0440  -35.9380   27.2630 C   0  0  0  0  0  1  0  0  0  0  0  0
  -28.5120  -36.3860   25.9770 N   0  0  0  0  0  0  0  0  0  0  0  0
  -28.4290  -37.3980   26.0010 H   0  0  0  0  0  0  0  0  0  0  0  0
  -26.3030  -31.1830   26.9350 C   0  0  1  0  0  0  0  0  0  0  0  0
  -24.9740  -31.3790   27.7070 C   0  0  0  0  0  1  0  0  0  0  0  0
  -26.4910  -29.6650   26.7110 C   0  0  0  0  0  1  0  0  0  0  0  0
  -27.4620  -31.6410   27.8590 C   0  0  0  0  0  1  0  0  0  0  0  0
  1  3  1  0
  1  2  2  0
  2  4  1  0
  3 65  1  0
  4  6  1  0
  5  6  1  0
  5 52  1  0
  6  7  1  0
  7  9  1  0
  7  8  1  0
 11 10  2  0
 14 22  1  0
 14 20  1  0
 15 20  1  0
 16 17  1  0
 16 15  1  0
 18 17  1  0
 18 27  1  0
 18 19  1  0
 20 19  1  0
 21 14  2  0
 22 23  1  0
 24 25  2  0
 25 44  1  0
 26 25  1  0
 26 29  1  0
 27 28  1  0
 27 24  1  0
 28 26  2  0
 29 30  1  0
 30 31  2  0
 32 35  1  0
 32 31  1  0
 33 32  2  0
 34 33  1  0
 34 29  2  0
 35 36  1  0
 36 41  2  0
 36 37  1  0
 37 38  2  0
 38 39  1  0
 39 43  1  0
 40 39  2  0
 41 40  1  0
 42 41  1  0
 44 45  1  0
 45 48  1  0
 45 47  1  0
 46 44  2  0
 49 24  1  0
 49 50  1  0
 51 49  1  0
 53 52  1  0
 54 53  1  0
 55 54  1  0
 55 56  1  0
 57 68  2  0
 58 56  1  0
 58 63  1  0
 59 67  1  0
 59 69  1  0
 60 66  1  0
 60 62  1  0
 61 67  1  0
 62 61  2  0
 63 62  1  0
 64 65  1  0
 64 58  1  0
 66 59  1  0
 67 57  1  0
 69 71  2  0
 70 69  1  0
 72 70  1  0
 73 82  2  0
 73 78  1  0
 74 70  1  0
 75 74  1  0
 76 77  1  0
 76 75  1  0
 77 73  1  0
 78 74  1  0
 78 79  2  0
 79 80  1  0
 81 80  2  0
 82 81  1  0
 83 57  1  0
 83 84  1  0
 83 93  1  0
 84 87  1  0
 85 89  1  0
 85 84  1  0
 86 85  2  0
 89 88  1  0
 89 91  1  0
 91 92  1  0
 91 90  1  0
 93 94  1  1
 93 96  1  0
 95 93  1  0
M  ISO  4  14 100  22 100  55 101  56 101
M  END
>  <TORSDO>  (44) 
F 24

>  <SCORE>  (44) 
-7.351

>  <name>  (44) 
44

>  <ligand_id>  (44) 
44

>  <original_smiles>  (44) 
[H]c1c([H])c(C(=O)C([H])([H])C([H])([H])N([H])C(=O)N2C([H])([H])C([H])([H])C([H])([H])C([H])(n3nc(-c4c([H])c([H])c(Oc5c([H])c([H])c(F)c([H])c5F)c([H])c4[H])c(C(=O)N([H])[H])c3N([H])[H])C2([H])[H])c(N([H])[H])c(C([H])([H])C([H])([H])C([H])([H])C([H])([H])Oc2c([H])c([H])c3c(c2[H])C([H])([H])N(C(=O)C([H])(N([H])C(=O)C([H])(N([H])C([H])([H])[H])C([H])([H])[H])C(C([H])([H])[H])(C([H])([H])[H])C([H])([H])[H])C([H])(C(=O)N([H])C2([H])c4c([H])c([H])c([H])c([H])c4C([H])([H])C([H])([H])C2([H])[H])C3([H])[H])c1[H]

>  <smiles>  (44) 
[H]c1c([H])c(C(=O)C([H])([H])C([H])([H])N([H])C(=O)N2C([H])([H])C([H])([H])C([H])([H])C([H])(n3nc(-c4c([H])c([H])c(Oc5c([H])c([H])c(F)c([H])c5F)c([H])c4[H])c(C(=O)N([H])[H])c3N([H])[H])C2([H])[H])c(N([H])[H])c(C([H])([H])C([H])([H])C([H])([H])C([H])([H])Oc2c([H])c([H])c3c(c2[H])C([H])([H])N(C(=O)C([H])(N([H])C(=O)C([H])(N([H])C([H])([H])[H])C([H])([H])[H])C(C([H])([H])[H])(C([H])([H])[H])C([H])([H])[H])C([H])(C(=O)N([H])C2([H])c4c([H])c([H])c([H])c([H])c4C([H])([H])C([H])([H])C2([H])[H])C3([H])[H])c1[H]

$$$$
45:0:0
     RDKit          3D

 98105  0  0  1  0  0  0  0  0999 V2000
  -29.3240  -20.0610   21.0670 C   0  0  0  0  0  2  0  0  0  0  0  0
  -28.9380  -21.5360   20.8120 C   0  0  0  0  0  2  0  0  0  0  0  0
  -29.2420  -22.5450   21.9460 C   0  0  0  0  0  2  0  0  0  0  0  0
  -29.2500  -23.9260   21.3980 N   0  0  0  0  0  4  0  0  0  0  0  0
  -28.6270  -23.9560   20.6080 H   0  0  0  0  0  0  0  0  0  0  0  0
  -30.1830  -24.1130   21.0590 H   0  0  0  0  0  0  0  0  0  0  0  0
  -28.8510  -25.0330   22.3040 C   0  0  0  0  0  2  0  0  0  0  0  0
  -29.1890  -26.4160   21.7030 C   0  0  0  0  0  2  0  0  0  0  0  0
  -28.5710  -26.5810   20.4170 O   0  0  0  0  0  0  0  0  0  0  0  0
  -24.5440  -31.7900   23.1430 C   0  0  0  0  0  0  0  0  0  0  0  0
  -27.4110  -27.3240   20.3640 C   0  0  0  0  0  0  0  0  0  0  0  0
  -23.4320  -30.3210   21.4850 C   0  0  0  0  0  3  0  0  0  0  0  0
  -24.9800  -28.7620   20.1800 C   0  0  0  0  0  0  0  0  0  0  0  0
  -25.9520  -30.7270   21.3890 C   0  0  0  0  0  2  0  0  0  0  0  0
  -26.0930  -29.3400   20.8030 C   0  0  0  0  0  0  0  0  0  0  0  0
  -27.3080  -28.6280   20.8980 C   0  0  0  0  0  3  0  0  0  0  0  0
  -26.2920  -26.7640   19.7140 C   0  0  0  0  0  3  0  0  0  0  0  0
  -25.0700  -27.4700   19.6360 C   0  0  0  0  0  3  0  0  0  0  0  0
  -23.7210  -29.5990   20.1370 C   0  0  0  0  0  2  0  0  0  0  0  0
  -24.6570  -30.9650   22.0630 N   0  0  0  0  0  0  0  0  0  0  0  0
  -23.4370  -32.0590   23.6250 O   0  0  0  0  0  0  0  0  0  0  0  0
  -22.7550  -29.3140   22.4400 C   0  0  0  0  0  0  0  0  0  0  0  0
  -21.4310  -29.1470   22.2910 N   0  0  0  0  0  0  0  0  0  0  0  0
  -23.4160  -28.6870   23.2710 O   0  0  0  0  0  0  0  0  0  0  0  0
  -20.9550  -29.7180   21.6080 H   0  0  0  0  0  0  0  0  0  0  0  0
  -18.0140  -28.1040   22.8210 C   0  0  0  0  0  0  0  0  0  0  0  0
  -20.5870  -28.2250   23.0520 C   0  0  0  0  0  3  0  0  0  0  0  0
  -20.6020  -26.8090   22.4280 C   0  0  0  0  0  2  0  0  0  0  0  0
  -19.4670  -26.5730   21.4270 C   0  0  0  0  0  2  0  0  0  0  0  0
  -18.1090  -26.7710   22.1020 C   0  0  0  0  0  2  0  0  0  0  0  0
  -19.1790  -28.7970   23.2490 C   0  0  0  0  0  0  0  0  0  0  0  0
  -19.0370  -30.0550   23.8700 C   0  0  0  0  0  3  0  0  0  0  0  0
  -17.7630  -30.6160   24.0820 C   0  0  0  0  0  3  0  0  0  0  0  0
  -16.6130  -29.9160   23.6740 C   0  0  0  0  0  3  0  0  0  0  0  0
  -16.7410  -28.6650   23.0480 C   0  0  0  0  0  3  0  0  0  0  0  0
  -25.7950  -32.4490   23.8080 C   0  0  0  0  0  3  0  0  0  0  0  0
  -25.4420  -33.8370   24.1380 N   0  0  0  0  0  0  0  0  0  0  0  0
  -25.7620  -34.9010   23.3930 C   0  0  0  0  0  0  0  0  0  0  0  0
  -26.4570  -34.8220   22.3750 O   0  0  0  0  0  0  0  0  0  0  0  0
  -24.8360  -33.9750   24.9360 H   0  0  0  0  0  0  0  0  0  0  0  0
  -23.9890  -36.6330   22.9870 C   0  0  0  0  0  1  0  0  0  0  0  0
  -25.2160  -36.2710   23.8370 C   0  0  0  0  0  3  0  0  0  0  0  0
  -27.2940  -37.2130   24.7380 C   0  0  0  0  0  1  0  0  0  0  0  0
  -26.2160  -37.3560   23.7620 N   0  0  0  0  0  0  0  0  0  0  0  0
  -25.7780  -38.2610   23.9020 H   0  0  0  0  0  0  0  0  0  0  0  0
  -26.3000  -31.6840   25.0920 C   0  0  1  0  0  0  0  0  0  0  0  0
  -25.1800  -31.3720   26.1130 C   0  0  0  0  0  1  0  0  0  0  0  0
  -26.9710  -30.3470   24.6970 C   0  0  0  0  0  1  0  0  0  0  0  0
  -27.3810  -32.5220   25.8140 C   0  0  0  0  0  1  0  0  0  0  0  0
  -30.6270  -19.5850   20.3600 C   0  0  0  0  0  2  0  0  0  0  0  0
  -30.9590  -18.1150   20.7170 C   0  0  0  0  0  2  0  0  0  0  0  0
  -32.0470  -17.4100   19.8750 C   0  0  0  0  0  2  0  0  0  0  0  0
  -32.3540  -16.0640   20.4290 N   0  0  0  0  0  4  0  0  0  0  0  0
  -32.0740  -15.3940   19.7310 H   0  0  0  0  0  0  0  0  0  0  0  0
  -31.8020  -15.8930   21.2520 H   0  0  0  0  0  0  0  0  0  0  0  0
  -33.7800  -15.8050   20.7500 C   0  0  0  0  0  2  0  0  0  0  0  0
  -34.2090  -14.4450   20.2000 C   0  0  0  0  0  2  0  0  0  0  0  0
  -34.0010  -14.4930   18.8000 O   0  0  0  0  0  0  0  0  0  0  0  0
  -34.3350  -13.2760   18.1610 C   0  0  0  0  0  2  0  0  0  0  0  0
  -33.0460  -12.5600   17.7270 C   0  0  0  0  0  2  0  0  0  0  0  0
  -30.8970  -13.1640   18.8370 C   0  0  0  0  0  0  0  0  0  0  0  0
  -29.4560  -11.8020   17.5380 C   0  0  0  0  0  2  0  0  0  0  0  0
  -28.2620  -12.4930   16.8800 C   0  0  0  0  0  2  0  0  0  0  0  0
  -27.0260  -12.3260   17.7620 C   0  0  0  0  0  2  0  0  0  0  0  0
  -27.2600  -12.8620   19.1920 C   0  0  0  0  0  3  0  0  0  0  0  0
  -28.6210  -12.3860   19.8000 C   0  0  0  0  0  2  0  0  0  0  0  0
  -29.7530  -12.4280   18.8300 N   0  0  0  0  0  0  0  0  0  0  0  0
  -31.0040  -14.3270   18.4850 O   0  0  0  0  0  0  0  0  0  0  0  0
  -31.9960  -12.3740   18.7680 N   0  0  0  0  0  0  0  0  0  0  0  0
  -31.8410  -11.4090   19.0350 H   0  0  0  0  0  0  0  0  0  0  0  0
  -25.2060  -13.4470   20.6610 C   0  0  0  0  0  0  0  0  0  0  0  0
  -24.2350  -12.6690   21.2440 C   0  0  0  0  0  0  0  0  0  0  0  0
  -24.5680  -11.3190   20.9180 C   0  0  0  0  0  0  0  0  0  0  0  0
  -26.0870  -12.5690   20.0390 N   0  0  0  0  0  0  0  0  0  0  0  0
  -25.7100  -11.2780   20.2410 N   0  0  0  0  0  0  0  0  0  0  0  0
  -23.8300  -10.0720   21.1690 C   0  0  0  0  0  0  0  0  0  0  0  0
  -24.3500   -9.0620   22.0110 C   0  0  0  0  0  3  0  0  0  0  0  0
  -23.6150   -7.8790   22.2590 C   0  0  0  0  0  3  0  0  0  0  0  0
  -22.3450   -7.6960   21.6610 C   0  0  0  0  0  0  0  0  0  0  0  0
  -21.8400   -8.6950   20.8100 C   0  0  0  0  0  3  0  0  0  0  0  0
  -22.5770   -9.8660   20.5600 C   0  0  0  0  0  3  0  0  0  0  0  0
  -21.5760   -6.5650   21.8220 O   0  0  0  0  0  0  0  0  0  0  0  0
  -21.6310   -5.8110   22.9690 C   0  0  0  0  0  0  0  0  0  0  0  0
  -21.2140   -6.3260   24.2180 C   0  0  0  0  0  3  0  0  0  0  0  0
  -21.2130   -5.4960   25.3560 C   0  0  0  0  0  3  0  0  0  0  0  0
  -21.6240   -4.1520   25.2480 C   0  0  0  0  0  0  0  0  0  0  0  0
  -22.0330   -3.6360   24.0060 C   0  0  0  0  0  3  0  0  0  0  0  0
  -22.0320   -4.4630   22.8690 C   0  0  0  0  0  0  0  0  0  0  0  0
  -22.4040   -3.9570   21.6690 F   0  0  0  0  0  0  0  0  0  0  0  0
  -21.6220   -3.3510   26.3380 F   0  0  0  0  0  0  0  0  0  0  0  0
  -23.0210  -13.1540   21.9830 C   0  0  0  0  0  0  0  0  0  0  0  0
  -22.5350  -12.3730   22.9450 N   0  0  0  0  0  0  0  0  0  0  0  0
  -22.5280  -14.2540   21.7510 O   0  0  0  0  0  0  0  0  0  0  0  0
  -22.9540  -11.4810   23.1560 H   0  0  0  0  0  0  0  0  0  0  0  0
  -21.7330  -12.6780   23.4760 H   0  0  0  0  0  0  0  0  0  0  0  0
  -25.4100  -14.8230   20.6010 N   0  0  0  0  0  0  0  0  0  0  0  0
  -24.7610  -15.4950   20.9940 H   0  0  0  0  0  0  0  0  0  0  0  0
  -26.1940  -15.2660   20.1340 H   0  0  0  0  0  0  0  0  0  0  0  0
  2  1  1  0
  2  3  1  0
  4  3  1  0
  4  7  1  0
  5  4  1  0
  6  4  1  0
  8  7  1  0
  9  8  1  0
 10 21  2  0
 11  9  1  0
 11 16  1  0
 12 20  1  0
 12 22  1  0
 13 15  1  0
 14 20  1  0
 15 16  2  0
 15 14  1  0
 17 11  2  0
 18 17  1  0
 18 13  2  0
 19 13  1  0
 19 12  1  0
 20 10  1  0
 22 24  2  0
 23 22  1  0
 25 23  1  0
 26 35  2  0
 26 31  1  0
 27 23  1  0
 27 31  1  0
 28 27  1  0
 29 30  1  0
 29 28  1  0
 30 26  1  0
 31 32  2  0
 32 33  1  0
 34 33  2  0
 35 34  1  0
 36 10  1  0
 36 37  1  0
 36 46  1  0
 37 40  1  0
 38 42  1  0
 38 37  1  0
 39 38  2  0
 42 41  1  0
 44 42  1  0
 44 45  1  0
 44 43  1  0
 46 49  1  1
 46 47  1  0
 48 46  1  0
 50 51  1  0
 50  1  1  0
 52 53  1  0
 52 51  1  0
 53 56  1  0
 53 55  1  0
 54 53  1  0
 57 56  1  0
 58 57  1  0
 59 58  1  0
 60 59  1  0
 60 69  1  0
 62 67  1  0
 63 62  1  0
 63 64  1  0
 65 64  1  0
 65 66  1  0
 65 74  1  0
 67 61  1  0
 67 66  1  0
 68 61  2  0
 69 61  1  0
 69 70  1  0
 71 72  2  0
 72 91  1  0
 73 76  1  0
 73 72  1  0
 74 75  1  0
 74 71  1  0
 75 73  2  0
 76 77  1  0
 77 78  2  0
 79 82  1  0
 79 78  1  0
 80 79  2  0
 81 80  1  0
 81 76  2  0
 82 83  1  0
 83 84  1  0
 84 85  2  0
 86 85  1  0
 86 90  1  0
 87 86  2  0
 88 83  2  0
 88 87  1  0
 89 88  1  0
 91 92  1  0
 92 94  1  0
 92 95  1  0
 93 91  2  0
 96 71  1  0
 96 97  1  0
 98 96  1  0
M  ISO  4   8 101   9 101  61 100  69 100
M  END
>  <TORSDO>  (45) 
F 30

>  <SCORE>  (45) 
-6.136

>  <name>  (45) 
45

>  <ligand_id>  (45) 
45

>  <original_smiles>  (45) 
[H]c1c([H])c([H])c2c(c1[H])C([H])([H])C([H])([H])C([H])([H])C2([H])N([H])C(=O)C1([H])N(C(=O)C([H])(N([H])C(=O)C([H])(N([H])C([H])([H])[H])C([H])([H])[H])C(C([H])([H])[H])(C([H])([H])[H])C([H])([H])[H])C([H])([H])c2c([H])c(OC([H])([H])C([H])([H])[N+]([H])([H])C([H])([H])C([H])([H])C([H])([H])C([H])([H])C([H])([H])C([H])([H])[N+]([H])([H])C([H])([H])C([H])([H])OC([H])([H])C([H])([H])N([H])C(=O)N3C([H])([H])C([H])([H])C([H])([H])C([H])(n4nc(-c5c([H])c([H])c(Oc6c([H])c([H])c(F)c([H])c6F)c([H])c5[H])c(C(=O)N([H])[H])c4N([H])[H])C3([H])[H])c([H])c([H])c2C1([H])[H]

>  <smiles>  (45) 
[H]c1c([H])c([H])c2c(c1[H])C([H])([H])C([H])([H])C([H])([H])C2([H])N([H])C(=O)C1([H])N(C(=O)C([H])(N([H])C(=O)C([H])(N([H])C([H])([H])[H])C([H])([H])[H])C(C([H])([H])[H])(C([H])([H])[H])C([H])([H])[H])C([H])([H])c2c([H])c(OC([H])([H])C([H])([H])[N+]([H])([H])C([H])([H])C([H])([H])C([H])([H])C([H])([H])C([H])([H])C([H])([H])[N+]([H])([H])C([H])([H])C([H])([H])OC([H])([H])C([H])([H])N([H])C(=O)N3C([H])([H])C([H])([H])C([H])([H])C([H])(n4nc(-c5c([H])c([H])c(Oc6c([H])c([H])c(F)c([H])c6F)c([H])c5[H])c(C(=O)N([H])[H])c4N([H])[H])C3([H])[H])c([H])c([H])c2C1([H])[H]

$$$$
46:0:0
     RDKit          3D

 96104  0  0  1  0  0  0  0  0999 V2000
  -30.1960  -22.9240   24.3280 C   0  0  0  0  0  2  0  0  0  0  0  0
  -30.4790  -19.1170   23.9350 C   0  0  0  0  0  3  0  0  0  0  0  0
  -30.3830  -20.0980   21.7080 C   0  0  0  0  0  3  0  0  0  0  0  0
  -30.3710  -20.4000   24.5040 C   0  0  0  0  0  3  0  0  0  0  0  0
  -30.2830  -21.3840   22.2780 C   0  0  0  0  0  3  0  0  0  0  0  0
  -30.4930  -18.9600   22.5340 C   0  0  0  0  0  0  0  0  0  0  0  0
  -30.2770  -21.5420   23.6830 C   0  0  0  0  0  0  0  0  0  0  0  0
  -30.6330  -17.5750   21.9240 C   0  0  0  0  0  2  0  0  0  0  0  0
  -31.8270  -17.4680   20.9620 C   0  0  0  0  0  2  0  0  0  0  0  0
  -32.3380  -16.0300   20.7840 C   0  0  0  0  0  2  0  0  0  0  0  0
  -31.1960  -14.3800   19.3180 C   0  0  0  0  0  0  0  0  0  0  0  0
  -30.7920  -12.0480   18.6600 C   0  0  0  0  0  2  0  0  0  0  0  0
  -29.7290  -11.8540   17.5680 C   0  0  0  0  0  2  0  0  0  0  0  0
  -28.3280  -11.7630   18.1930 C   0  0  0  0  0  2  0  0  0  0  0  0
  -28.0370  -12.9310   19.1690 C   0  0  0  0  0  3  0  0  0  0  0  0
  -29.1930  -13.1270   20.1760 C   0  0  0  0  0  2  0  0  0  0  0  0
  -30.4650  -13.2490   19.4390 N   0  0  0  0  0  0  0  0  0  0  0  0
  -31.9530  -14.6100   18.3680 O   0  0  0  0  0  0  0  0  0  0  0  0
  -31.2660  -15.0910   20.4510 N   0  0  0  0  0  0  0  0  0  0  0  0
  -30.6600  -14.7940   21.2030 H   0  0  0  0  0  0  0  0  0  0  0  0
  -25.8640  -13.6950   20.3260 C   0  0  0  0  0  0  0  0  0  0  0  0
  -24.7860  -12.9980   20.8030 C   0  0  0  0  0  0  0  0  0  0  0  0
  -25.0770  -11.6180   20.5730 C   0  0  0  0  0  0  0  0  0  0  0  0
  -26.7530  -12.7450   19.8460 N   0  0  0  0  0  0  0  0  0  0  0  0
  -26.2880  -11.4840   20.0460 N   0  0  0  0  0  0  0  0  0  0  0  0
  -24.2490  -10.4200   20.7720 C   0  0  0  0  0  0  0  0  0  0  0  0
  -24.6350   -9.3950   21.6640 C   0  0  0  0  0  3  0  0  0  0  0  0
  -23.8140   -8.2610   21.8510 C   0  0  0  0  0  3  0  0  0  0  0  0
  -22.5900   -8.1470   21.1470 C   0  0  0  0  0  0  0  0  0  0  0  0
  -22.2220   -9.1590   20.2460 C   0  0  0  0  0  3  0  0  0  0  0  0
  -23.0430  -10.2840   20.0560 C   0  0  0  0  0  3  0  0  0  0  0  0
  -21.7410   -7.0710   21.2480 O   0  0  0  0  0  0  0  0  0  0  0  0
  -21.5920   -6.3800   22.4230 C   0  0  0  0  0  0  0  0  0  0  0  0
  -21.1630   -7.0120   23.6110 C   0  0  0  0  0  3  0  0  0  0  0  0
  -20.9530   -6.2500   24.7770 C   0  0  0  0  0  3  0  0  0  0  0  0
  -21.1630   -4.8580   24.7580 C   0  0  0  0  0  0  0  0  0  0  0  0
  -21.5850   -4.2270   23.5750 C   0  0  0  0  0  3  0  0  0  0  0  0
  -21.7950   -4.9840   22.4110 C   0  0  0  0  0  0  0  0  0  0  0  0
  -22.1810   -4.3680   21.2680 F   0  0  0  0  0  0  0  0  0  0  0  0
  -20.9550   -4.1250   25.8770 F   0  0  0  0  0  0  0  0  0  0  0  0
  -23.5150  -13.5780   21.3530 C   0  0  0  0  0  0  0  0  0  0  0  0
  -22.8710  -12.8780   22.2800 N   0  0  0  0  0  0  0  0  0  0  0  0
  -23.1090  -14.6830   20.9960 O   0  0  0  0  0  0  0  0  0  0  0  0
  -23.2120  -11.9810   22.5900 H   0  0  0  0  0  0  0  0  0  0  0  0
  -22.0240  -13.2470   22.6880 H   0  0  0  0  0  0  0  0  0  0  0  0
  -26.1570  -15.0530   20.2460 N   0  0  0  0  0  0  0  0  0  0  0  0
  -25.5060  -15.7710   20.5450 H   0  0  0  0  0  0  0  0  0  0  0  0
  -27.0020  -15.4310   19.8340 H   0  0  0  0  0  0  0  0  0  0  0  0
  -29.1090  -23.8310   23.7230 C   0  0  0  0  0  2  0  0  0  0  0  0
  -29.1580  -25.2940   24.2270 C   0  0  0  0  0  2  0  0  0  0  0  0
  -29.7580  -26.2370   23.2520 N   0  0  0  0  0  4  0  0  0  0  0  0
  -30.7210  -25.9840   23.0920 H   0  0  0  0  0  0  0  0  0  0  0  0
  -29.7640  -27.1500   23.6830 H   0  0  0  0  0  0  0  0  0  0  0  0
  -29.0260  -26.3610   21.9670 C   0  0  0  0  0  2  0  0  0  0  0  0
  -29.8740  -27.0270   20.8600 C   0  0  0  0  0  2  0  0  0  0  0  0
  -29.1470  -27.0450   19.6270 O   0  0  0  0  0  0  0  0  0  0  0  0
  -24.6880  -31.3900   23.0680 C   0  0  0  0  0  0  0  0  0  0  0  0
  -27.9150  -27.6510   19.6700 C   0  0  0  0  0  0  0  0  0  0  0  0
  -23.6800  -29.9830   21.2940 C   0  0  0  0  0  3  0  0  0  0  0  0
  -25.3310  -28.7740   19.7680 C   0  0  0  0  0  0  0  0  0  0  0  0
  -26.1260  -30.6980   21.1610 C   0  0  0  0  0  2  0  0  0  0  0  0
  -26.3970  -29.4100   20.4170 C   0  0  0  0  0  0  0  0  0  0  0  0
  -27.6870  -28.8540   20.3720 C   0  0  0  0  0  3  0  0  0  0  0  0
  -26.8400  -27.0230   19.0070 C   0  0  0  0  0  3  0  0  0  0  0  0
  -25.5460  -27.5760   19.0610 C   0  0  0  0  0  3  0  0  0  0  0  0
  -23.9800  -29.4420   19.8670 C   0  0  0  0  0  2  0  0  0  0  0  0
  -24.8470  -30.7020   21.9030 N   0  0  0  0  0  0  0  0  0  0  0  0
  -23.5790  -31.4740   23.6150 O   0  0  0  0  0  0  0  0  0  0  0  0
  -23.1660  -28.8120   22.1610 C   0  0  0  0  0  0  0  0  0  0  0  0
  -21.8920  -28.4390   21.9620 N   0  0  0  0  0  0  0  0  0  0  0  0
  -23.9090  -28.2420   22.9640 O   0  0  0  0  0  0  0  0  0  0  0  0
  -21.3530  -28.9510   21.2810 H   0  0  0  0  0  0  0  0  0  0  0  0
  -18.7430  -26.6850   22.1840 C   0  0  0  0  0  0  0  0  0  0  0  0
  -21.2030  -27.3370   22.6320 C   0  0  0  0  0  3  0  0  0  0  0  0
  -21.5750  -25.9810   21.9910 C   0  0  0  0  0  2  0  0  0  0  0  0
  -20.5990  -25.5450   20.8930 C   0  0  0  0  0  2  0  0  0  0  0  0
  -19.1780  -25.4240   21.4550 C   0  0  0  0  0  2  0  0  0  0  0  0
  -19.6950  -27.5900   22.7230 C   0  0  0  0  0  0  0  0  0  0  0  0
  -19.2410  -28.7640   23.3640 C   0  0  0  0  0  3  0  0  0  0  0  0
  -17.8650  -29.0390   23.4680 C   0  0  0  0  0  3  0  0  0  0  0  0
  -16.9260  -28.1310   22.9500 C   0  0  0  0  0  3  0  0  0  0  0  0
  -17.3640  -26.9550   22.3140 C   0  0  0  0  0  3  0  0  0  0  0  0
  -25.8820  -32.1250   23.7550 C   0  0  0  0  0  3  0  0  0  0  0  0
  -26.4470  -31.3550   25.0130 C   0  0  1  0  0  0  0  0  0  0  0  0
  -25.3530  -30.9450   26.0250 C   0  0  0  0  0  1  0  0  0  0  0  0
  -27.1990  -30.0780   24.5720 C   0  0  0  0  0  1  0  0  0  0  0  0
  -27.4740  -32.2440   25.7530 C   0  0  0  0  0  1  0  0  0  0  0  0
  -25.4210  -33.4670   24.1360 N   0  0  0  0  0  0  0  0  0  0  0  0
  -25.6800  -34.5820   23.4410 C   0  0  0  0  0  0  0  0  0  0  0  0
  -26.4010  -34.5970   22.4390 O   0  0  0  0  0  0  0  0  0  0  0  0
  -24.7880  -33.5220   24.9190 H   0  0  0  0  0  0  0  0  0  0  0  0
  -23.7970  -36.2020   23.0660 C   0  0  0  0  0  1  0  0  0  0  0  0
  -25.0310  -35.8910   23.9290 C   0  0  0  0  0  3  0  0  0  0  0  0
  -27.0190  -36.9420   24.9100 C   0  0  0  0  0  1  0  0  0  0  0  0
  -25.9540  -37.0440   23.9160 N   0  0  0  0  0  0  0  0  0  0  0  0
  -25.4510  -37.9140   24.0800 H   0  0  0  0  0  0  0  0  0  0  0  0
  2  4  1  0
  3  5  2  0
  3  6  1  0
  5  7  1  0
  6  2  2  0
  7  1  1  0
  7  4  2  0
  8  6  1  0
  9  8  1  0
 10  9  1  0
 11 17  1  0
 11 19  1  0
 12 17  1  0
 13 14  1  0
 13 12  1  0
 15 14  1  0
 15 24  1  0
 15 16  1  0
 17 16  1  0
 18 11  2  0
 19 10  1  0
 19 20  1  0
 21 22  2  0
 22 41  1  0
 23 26  1  0
 23 22  1  0
 24 25  1  0
 24 21  1  0
 25 23  2  0
 26 27  1  0
 27 28  2  0
 29 32  1  0
 29 28  1  0
 30 29  2  0
 31 30  1  0
 31 26  2  0
 32 33  1  0
 33 34  1  0
 34 35  2  0
 36 35  1  0
 36 40  1  0
 37 36  2  0
 38 33  2  0
 38 37  1  0
 39 38  1  0
 41 42  1  0
 42 44  1  0
 42 45  1  0
 43 41  2  0
 46 21  1  0
 46 47  1  0
 48 46  1  0
 49 50  1  0
 49  1  1  0
 51 53  1  0
 51 50  1  0
 52 51  1  0
 54 51  1  0
 55 54  1  0
 56 58  1  0
 56 55  1  0
 57 68  2  0
 58 63  1  0
 59 67  1  0
 59 69  1  0
 60 66  1  0
 60 62  1  0
 61 67  1  0
 62 61  1  0
 63 62  2  0
 64 65  1  0
 64 58  2  0
 65 60  2  0
 66 59  1  0
 67 57  1  0
 69 71  2  0
 70 69  1  0
 72 70  1  0
 73 82  2  0
 73 78  1  0
 74 70  1  0
 74 78  1  0
 75 74  1  0
 76 77  1  0
 76 75  1  0
 77 73  1  0
 78 79  2  0
 79 80  1  0
 81 80  2  0
 82 81  1  0
 83 57  1  0
 83 88  1  0
 83 84  1  0
 84 87  1  1
 84 85  1  0
 86 84  1  0
 88 91  1  0
 89 93  1  0
 89 88  1  0
 90 89  2  0
 93 92  1  0
 95 93  1  0
 95 96  1  0
 95 94  1  0
M  ISO  4  11 100  19 100  55 101  56 101
M  END
>  <TORSDO>  (46) 
F 25

>  <SCORE>  (46) 
-8.232

>  <name>  (46) 
46

>  <ligand_id>  (46) 
46

>  <original_smiles>  (46) 
[H]c1c([H])c([H])c2c(c1[H])C([H])([H])C([H])([H])C([H])([H])C2([H])N([H])C(=O)C1([H])N(C(=O)C([H])(N([H])C(=O)C([H])(N([H])C([H])([H])[H])C([H])([H])[H])C(C([H])([H])[H])(C([H])([H])[H])C([H])([H])[H])C([H])([H])c2c([H])c(OC([H])([H])C([H])([H])[N+]([H])([H])C([H])([H])C([H])([H])C([H])([H])c3c([H])c([H])c(C([H])([H])C([H])([H])C([H])([H])N([H])C(=O)N4C([H])([H])C([H])([H])C([H])([H])C([H])(n5nc(-c6c([H])c([H])c(Oc7c([H])c([H])c(F)c([H])c7F)c([H])c6[H])c(C(=O)N([H])[H])c5N([H])[H])C4([H])[H])c([H])c3[H])c([H])c([H])c2C1([H])[H]

>  <smiles>  (46) 
[H]c1c([H])c([H])c2c(c1[H])C([H])([H])C([H])([H])C([H])([H])C2([H])N([H])C(=O)C1([H])N(C(=O)C([H])(N([H])C(=O)C([H])(N([H])C([H])([H])[H])C([H])([H])[H])C(C([H])([H])[H])(C([H])([H])[H])C([H])([H])[H])C([H])([H])c2c([H])c(OC([H])([H])C([H])([H])[N+]([H])([H])C([H])([H])C([H])([H])C([H])([H])c3c([H])c([H])c(C([H])([H])C([H])([H])C([H])([H])N([H])C(=O)N4C([H])([H])C([H])([H])C([H])([H])C([H])(n5nc(-c6c([H])c([H])c(Oc7c([H])c([H])c(F)c([H])c7F)c([H])c6[H])c(C(=O)N([H])[H])c5N([H])[H])C4([H])[H])c([H])c3[H])c([H])c([H])c2C1([H])[H]

$$$$
47:0:0
     RDKit          3D

101109  0  0  1  0  0  0  0  0999 V2000
  -22.6430  -23.2890   18.7050 C   0  0  0  0  0  3  0  0  0  0  0  0
  -23.6580  -23.8530   19.4990 C   0  0  0  0  0  3  0  0  0  0  0  0
  -22.9560  -22.2710   17.7810 C   0  0  0  0  0  3  0  0  0  0  0  0
  -25.2940  -22.3780   18.4560 C   0  0  0  0  0  3  0  0  0  0  0  0
  -24.9920  -23.4110   19.3720 C   0  0  0  0  0  0  0  0  0  0  0  0
  -24.2810  -21.7910   17.6670 C   0  0  0  0  0  0  0  0  0  0  0  0
  -26.0450  -24.1240   20.1040 C   0  0  0  0  0  3  0  0  0  0  0  0
  -27.3610  -24.0510   19.8220 C   0  0  0  0  0  3  0  0  0  0  0  0
  -28.3310  -24.8520   20.5770 C   0  0  0  0  0  0  0  0  0  0  0  0
  -28.4890  -24.7390   21.7960 O   0  0  0  0  0  0  0  0  0  0  0  0
  -29.1280  -25.8990   19.7860 C   0  0  0  0  0  2  0  0  0  0  0  0
  -28.9500  -27.2060   20.3400 O   0  0  0  0  0  0  0  0  0  0  0  0
  -24.6910  -31.9750   23.4320 C   0  0  0  0  0  0  0  0  0  0  0  0
  -27.6990  -27.7950   20.3210 C   0  0  0  0  0  0  0  0  0  0  0  0
  -23.6140  -30.5210   21.7430 C   0  0  0  0  0  3  0  0  0  0  0  0
  -25.1950  -29.1120   20.3280 C   0  0  0  0  0  0  0  0  0  0  0  0
  -26.1110  -31.0510   21.6080 C   0  0  0  0  0  2  0  0  0  0  0  0
  -26.2980  -29.6990   20.9570 C   0  0  0  0  0  0  0  0  0  0  0  0
  -27.5440  -29.0380   20.9710 C   0  0  0  0  0  3  0  0  0  0  0  0
  -26.5740  -27.2270   19.6720 C   0  0  0  0  0  3  0  0  0  0  0  0
  -25.3230  -27.8670   19.6930 C   0  0  0  0  0  3  0  0  0  0  0  0
  -23.8960  -29.8820   20.3580 C   0  0  0  0  0  2  0  0  0  0  0  0
  -24.8200  -31.1980   22.3190 N   0  0  0  0  0  0  0  0  0  0  0  0
  -23.5840  -32.1640   23.9540 O   0  0  0  0  0  0  0  0  0  0  0  0
  -23.0190  -29.4420   22.6750 C   0  0  0  0  0  0  0  0  0  0  0  0
  -21.7660  -29.0430   22.4020 N   0  0  0  0  0  0  0  0  0  0  0  0
  -23.6870  -28.9620   23.5960 O   0  0  0  0  0  0  0  0  0  0  0  0
  -21.2890  -29.4880   21.6290 H   0  0  0  0  0  0  0  0  0  0  0  0
  -18.6280  -27.2560   22.4730 C   0  0  0  0  0  0  0  0  0  0  0  0
  -21.0130  -28.0130   23.1160 C   0  0  0  0  0  3  0  0  0  0  0  0
  -21.4690  -26.5990   22.6910 C   0  0  0  0  0  2  0  0  0  0  0  0
  -20.6310  -26.0140   21.5500 C   0  0  0  0  0  2  0  0  0  0  0  0
  -19.1560  -25.9280   21.9550 C   0  0  0  0  0  2  0  0  0  0  0  0
  -19.5030  -28.2410   23.0010 C   0  0  0  0  0  0  0  0  0  0  0  0
  -18.9640  -29.4740   23.4310 C   0  0  0  0  0  3  0  0  0  0  0  0
  -17.5810  -29.7250   23.3450 C   0  0  0  0  0  3  0  0  0  0  0  0
  -16.7180  -28.7390   22.8360 C   0  0  0  0  0  3  0  0  0  0  0  0
  -17.2410  -27.5090   22.4030 C   0  0  0  0  0  3  0  0  0  0  0  0
  -25.9210  -32.6790   24.0850 C   0  0  0  0  0  3  0  0  0  0  0  0
  -25.5510  -34.0770   24.3340 N   0  0  0  0  0  0  0  0  0  0  0  0
  -25.8800  -35.1020   23.5360 C   0  0  0  0  0  0  0  0  0  0  0  0
  -26.6000  -34.9720   22.5420 O   0  0  0  0  0  0  0  0  0  0  0  0
  -24.9130  -34.2490   25.0960 H   0  0  0  0  0  0  0  0  0  0  0  0
  -24.1020  -36.8030   23.0120 C   0  0  0  0  0  1  0  0  0  0  0  0
  -25.3200  -36.4910   23.8970 C   0  0  0  0  0  3  0  0  0  0  0  0
  -27.3880  -37.4970   24.7650 C   0  0  0  0  0  1  0  0  0  0  0  0
  -26.3180  -37.5760   23.7710 N   0  0  0  0  0  0  0  0  0  0  0  0
  -25.8740  -38.4870   23.8510 H   0  0  0  0  0  0  0  0  0  0  0  0
  -26.3960  -31.9810   25.4190 C   0  0  1  0  0  0  0  0  0  0  0  0
  -25.2430  -31.6680   26.4020 C   0  0  0  0  0  1  0  0  0  0  0  0
  -27.1250  -30.6530   25.1100 C   0  0  0  0  0  1  0  0  0  0  0  0
  -27.4170  -32.8880   26.1470 C   0  0  0  0  0  1  0  0  0  0  0  0
  -24.6040  -20.7300   16.6700 C   0  0  0  0  0  0  0  0  0  0  0  0
  -24.1700  -20.7370   15.5150 O   0  0  0  0  0  0  0  0  0  0  0  0
  -25.4340  -19.5350   17.1570 C   0  0  0  0  0  2  0  0  0  0  0  0
  -26.9590  -19.6910   16.9570 C   0  0  0  0  0  2  0  0  0  0  0  0
  -27.7000  -18.6140   17.6630 N   0  0  0  0  0  4  0  0  0  0  0  0
  -27.5800  -17.7520   17.1530 H   0  0  0  0  0  0  0  0  0  0  0  0
  -27.2840  -18.5010   18.5710 H   0  0  0  0  0  0  0  0  0  0  0  0
  -29.1500  -18.8520   17.8660 C   0  0  0  0  0  2  0  0  0  0  0  0
  -29.7830  -17.8270   18.8400 C   0  0  0  0  0  2  0  0  0  0  0  0
  -29.3650  -18.0060   20.3210 C   0  0  0  0  0  2  0  0  0  0  0  0
  -30.2370  -17.2480   21.3510 C   0  0  0  0  0  2  0  0  0  0  0  0
  -30.6810  -14.8850   20.6840 C   0  0  0  0  0  0  0  0  0  0  0  0
  -30.4160  -12.8390   19.3520 C   0  0  0  0  0  2  0  0  0  0  0  0
  -29.4740  -13.1430   18.1700 C   0  0  0  0  0  2  0  0  0  0  0  0
  -28.0000  -12.9510   18.5810 C   0  0  0  0  0  2  0  0  0  0  0  0
  -27.6470  -13.6530   19.9210 C   0  0  0  0  0  3  0  0  0  0  0  0
  -28.7070  -13.3440   21.0040 C   0  0  0  0  0  2  0  0  0  0  0  0
  -30.0330  -13.7130   20.4690 N   0  0  0  0  0  0  0  0  0  0  0  0
  -31.7770  -15.1580   20.1870 O   0  0  0  0  0  0  0  0  0  0  0  0
  -29.9690  -15.8110   21.3400 N   0  0  0  0  0  0  0  0  0  0  0  0
  -29.1170  -15.4960   21.7800 H   0  0  0  0  0  0  0  0  0  0  0  0
  -25.2020  -14.1170   20.5760 C   0  0  0  0  0  0  0  0  0  0  0  0
  -24.1680  -13.2820   20.9080 C   0  0  0  0  0  0  0  0  0  0  0  0
  -24.7040  -11.9580   20.8710 C   0  0  0  0  0  0  0  0  0  0  0  0
  -26.2990  -13.2980   20.3640 N   0  0  0  0  0  0  0  0  0  0  0  0
  -26.0020  -11.9950   20.5970 N   0  0  0  0  0  0  0  0  0  0  0  0
  -24.0460  -10.6550   21.0300 C   0  0  0  0  0  0  0  0  0  0  0  0
  -24.4780   -9.7180   21.9940 C   0  0  0  0  0  3  0  0  0  0  0  0
  -23.8120   -8.4820   22.1390 C   0  0  0  0  0  3  0  0  0  0  0  0
  -22.6990   -8.1710   21.3210 C   0  0  0  0  0  0  0  0  0  0  0  0
  -22.2880   -9.1010   20.3470 C   0  0  0  0  0  3  0  0  0  0  0  0
  -22.9560  -10.3280   20.2000 C   0  0  0  0  0  3  0  0  0  0  0  0
  -22.0120   -6.9830   21.3720 O   0  0  0  0  0  0  0  0  0  0  0  0
  -21.8440   -6.3010   22.5510 C   0  0  0  0  0  0  0  0  0  0  0  0
  -21.2310   -6.8950   23.6770 C   0  0  0  0  0  3  0  0  0  0  0  0
  -21.0120   -6.1360   24.8420 C   0  0  0  0  0  3  0  0  0  0  0  0
  -21.3960   -4.7820   24.8850 C   0  0  0  0  0  0  0  0  0  0  0  0
  -22.0030   -4.1880   23.7640 C   0  0  0  0  0  3  0  0  0  0  0  0
  -22.2230   -4.9440   22.6010 C   0  0  0  0  0  0  0  0  0  0  0  0
  -22.7880   -4.3610   21.5160 F   0  0  0  0  0  0  0  0  0  0  0  0
  -21.1800   -4.0500   26.0030 F   0  0  0  0  0  0  0  0  0  0  0  0
  -22.7430  -13.6800   21.1600 C   0  0  0  0  0  0  0  0  0  0  0  0
  -22.0440  -12.9500   22.0220 N   0  0  0  0  0  0  0  0  0  0  0  0
  -22.2540  -14.6800   20.6340 O   0  0  0  0  0  0  0  0  0  0  0  0
  -22.4510  -12.1430   22.4730 H   0  0  0  0  0  0  0  0  0  0  0  0
  -21.0900  -13.2030   22.2350 H   0  0  0  0  0  0  0  0  0  0  0  0
  -25.3040  -15.4960   20.4210 N   0  0  0  0  0  0  0  0  0  0  0  0
  -24.5180  -16.1100   20.6020 H   0  0  0  0  0  0  0  0  0  0  0  0
  -26.1900  -15.9750   20.3720 H   0  0  0  0  0  0  0  0  0  0  0  0
  1  2  1  0
  3  1  2  0
  4  5  1  0
  5  2  2  0
  5  7  1  0
  6  3  1  0
  6  4  2  0
  8  7  2  0
  8  9  1  0
  9 10  2  0
 11 12  1  0
 11  9  1  0
 13 24  2  0
 14 12  1  0
 14 19  1  0
 15 23  1  0
 15 25  1  0
 16 22  1  0
 16 18  1  0
 17 23  1  0
 18 19  2  0
 18 17  1  0
 20 21  1  0
 20 14  2  0
 21 16  2  0
 22 15  1  0
 23 13  1  0
 25 27  2  0
 26 25  1  0
 28 26  1  0
 29 34  1  0
 30 26  1  0
 31 30  1  0
 32 33  1  0
 32 31  1  0
 33 29  1  0
 34 30  1  0
 34 35  2  0
 36 35  1  0
 37 36  2  0
 38 29  2  0
 38 37  1  0
 39 13  1  0
 39 40  1  0
 39 49  1  0
 40 43  1  0
 41 45  1  0
 41 40  1  0
 42 41  2  0
 45 44  1  0
 47 48  1  0
 47 45  1  0
 47 46  1  0
 49 52  1  1
 49 50  1  0
 51 49  1  0
 53 55  1  0
 53  6  1  0
 54 53  2  0
 56 55  1  0
 56 57  1  0
 57 60  1  0
 57 59  1  0
 58 57  1  0
 60 61  1  0
 61 62  1  0
 62 63  1  0
 64 72  1  0
 65 70  1  0
 66 67  1  0
 66 65  1  0
 68 67  1  0
 68 77  1  0
 68 69  1  0
 70 64  1  0
 70 69  1  0
 71 64  2  0
 72 63  1  0
 72 73  1  0
 74 75  2  0
 75 94  1  0
 76 75  1  0
 76 79  1  0
 77 74  1  0
 77 78  1  0
 78 76  2  0
 79 80  1  0
 80 81  2  0
 82 85  1  0
 82 81  1  0
 83 82  2  0
 84 83  1  0
 84 79  2  0
 85 86  1  0
 86 91  2  0
 86 87  1  0
 87 88  2  0
 88 89  1  0
 89 93  1  0
 90 89  2  0
 91 90  1  0
 92 91  1  0
 94 95  1  0
 95 98  1  0
 95 97  1  0
 96 94  2  0
 99 74  1  0
 99100  1  0
101 99  1  0
M  ISO  4  11 101  12 101  64 100  72 100
M  END
>  <TORSDO>  (47) 
F 27

>  <SCORE>  (47) 
-9.629

>  <name>  (47) 
47

>  <ligand_id>  (47) 
47

>  <original_smiles>  (47) 
[H]C(C(=O)C([H])([H])Oc1c([H])c([H])c2c(c1[H])C([H])([H])N(C(=O)C([H])(N([H])C(=O)C([H])(N([H])C([H])([H])[H])C([H])([H])[H])C(C([H])([H])[H])(C([H])([H])[H])C([H])([H])[H])C([H])(C(=O)N([H])C1([H])c3c([H])c([H])c([H])c([H])c3C([H])([H])C([H])([H])C1([H])[H])C2([H])[H])=C([H])c1c([H])c([H])c([H])c(C(=O)C([H])([H])C([H])([H])[N+]([H])([H])C([H])([H])C([H])([H])C([H])([H])C([H])([H])N([H])C(=O)N2C([H])([H])C([H])([H])C([H])([H])C([H])(n3nc(-c4c([H])c([H])c(Oc5c([H])c([H])c(F)c([H])c5F)c([H])c4[H])c(C(=O)N([H])[H])c3N([H])[H])C2([H])[H])c1[H]

>  <smiles>  (47) 
[H]C(C(=O)C([H])([H])Oc1c([H])c([H])c2c(c1[H])C([H])([H])N(C(=O)C([H])(N([H])C(=O)C([H])(N([H])C([H])([H])[H])C([H])([H])[H])C(C([H])([H])[H])(C([H])([H])[H])C([H])([H])[H])C([H])(C(=O)N([H])C1([H])c3c([H])c([H])c([H])c([H])c3C([H])([H])C([H])([H])C1([H])[H])C2([H])[H])=C([H])c1c([H])c([H])c([H])c(C(=O)C([H])([H])C([H])([H])[N+]([H])([H])C([H])([H])C([H])([H])C([H])([H])C([H])([H])N([H])C(=O)N2C([H])([H])C([H])([H])C([H])([H])C([H])(n3nc(-c4c([H])c([H])c(Oc5c([H])c([H])c(F)c([H])c5F)c([H])c4[H])c(C(=O)N([H])[H])c3N([H])[H])C2([H])[H])c1[H]

$$$$
48:0:0
     RDKit          3D

 98106  0  0  1  0  0  0  0  0999 V2000
  -29.5690  -25.5850   26.7170 C   0  0  0  0  0  3  0  0  0  0  0  0
  -29.8210  -26.2240   25.4880 C   0  0  0  0  0  3  0  0  0  0  0  0
  -30.1700  -24.3460   27.0080 C   0  0  0  0  0  3  0  0  0  0  0  0
  -31.3130  -24.4020   24.8540 C   0  0  0  0  0  3  0  0  0  0  0  0
  -30.6950  -25.6320   24.5500 C   0  0  0  0  0  0  0  0  0  0  0  0
  -31.0370  -23.7450   26.0720 C   0  0  0  0  0  0  0  0  0  0  0  0
  -30.9590  -26.3050   23.2160 C   0  0  0  0  0  2  0  0  0  0  0  0
  -30.4480  -25.4670   22.0250 C   0  0  0  0  0  2  0  0  0  0  0  0
  -30.6540  -26.1470   20.6590 C   0  0  0  0  0  2  0  0  0  0  0  0
  -29.6590  -27.2860   20.3990 C   0  0  0  0  0  2  0  0  0  0  0  0
  -28.4000  -26.7140   20.0510 O   0  0  0  0  0  0  0  0  0  0  0  0
  -24.6080  -31.8700   23.2120 C   0  0  0  0  0  0  0  0  0  0  0  0
  -27.2670  -27.4970   20.0990 C   0  0  0  0  0  0  0  0  0  0  0  0
  -23.3950  -30.4930   21.5470 C   0  0  0  0  0  3  0  0  0  0  0  0
  -24.8480  -28.9640   20.1170 C   0  0  0  0  0  0  0  0  0  0  0  0
  -25.9140  -30.8620   21.3530 C   0  0  0  0  0  2  0  0  0  0  0  0
  -25.9990  -29.4980   20.7070 C   0  0  0  0  0  0  0  0  0  0  0  0
  -27.2070  -28.7790   20.6950 C   0  0  0  0  0  3  0  0  0  0  0  0
  -26.0950  -26.9650   19.5200 C   0  0  0  0  0  3  0  0  0  0  0  0
  -24.8880  -27.6930   19.5180 C   0  0  0  0  0  3  0  0  0  0  0  0
  -23.6040  -29.8200   20.1620 C   0  0  0  0  0  2  0  0  0  0  0  0
  -24.6550  -31.0900   22.0960 N   0  0  0  0  0  0  0  0  0  0  0  0
  -23.5290  -32.1390   23.7580 O   0  0  0  0  0  0  0  0  0  0  0  0
  -22.7390  -29.4680   22.4980 C   0  0  0  0  0  0  0  0  0  0  0  0
  -21.4120  -29.3040   22.3720 N   0  0  0  0  0  0  0  0  0  0  0  0
  -23.4190  -28.8210   23.3000 O   0  0  0  0  0  0  0  0  0  0  0  0
  -20.9280  -29.8750   21.6940 H   0  0  0  0  0  0  0  0  0  0  0  0
  -18.0270  -28.1400   22.8490 C   0  0  0  0  0  0  0  0  0  0  0  0
  -20.5850  -28.3680   23.1330 C   0  0  0  0  0  3  0  0  0  0  0  0
  -20.6760  -26.9410   22.5440 C   0  0  0  0  0  2  0  0  0  0  0  0
  -19.5760  -26.6400   21.5220 C   0  0  0  0  0  2  0  0  0  0  0  0
  -18.1920  -26.7960   22.1610 C   0  0  0  0  0  2  0  0  0  0  0  0
  -19.1510  -28.8860   23.2920 C   0  0  0  0  0  0  0  0  0  0  0  0
  -18.9440  -30.1450   23.8950 C   0  0  0  0  0  3  0  0  0  0  0  0
  -17.6440  -30.6600   24.0580 C   0  0  0  0  0  3  0  0  0  0  0  0
  -16.5330  -29.9110   23.6310 C   0  0  0  0  0  3  0  0  0  0  0  0
  -16.7260  -28.6530   23.0350 C   0  0  0  0  0  3  0  0  0  0  0  0
  -25.8990  -32.4830   23.8420 C   0  0  0  0  0  3  0  0  0  0  0  0
  -25.5860  -33.8620   24.2340 N   0  0  0  0  0  0  0  0  0  0  0  0
  -25.9010  -34.9480   23.5140 C   0  0  0  0  0  0  0  0  0  0  0  0
  -26.5610  -34.8930   22.4720 O   0  0  0  0  0  0  0  0  0  0  0  0
  -24.9950  -33.9770   25.0440 H   0  0  0  0  0  0  0  0  0  0  0  0
  -24.1480  -36.7340   23.2620 C   0  0  0  0  0  1  0  0  0  0  0  0
  -25.4080  -36.3110   24.0340 C   0  0  0  0  0  3  0  0  0  0  0  0
  -27.5590  -37.1770   24.8420 C   0  0  0  0  0  1  0  0  0  0  0  0
  -26.4260  -37.3800   23.9430 N   0  0  0  0  0  0  0  0  0  0  0  0
  -26.0150  -38.2850   24.1530 H   0  0  0  0  0  0  0  0  0  0  0  0
  -26.4460  -31.6580   25.0720 C   0  0  1  0  0  0  0  0  0  0  0  0
  -25.3750  -31.3750   26.1500 C   0  0  0  0  0  1  0  0  0  0  0  0
  -27.0220  -30.3000   24.6080 C   0  0  0  0  0  1  0  0  0  0  0  0
  -27.6090  -32.4240   25.7460 C   0  0  0  0  0  1  0  0  0  0  0  0
  -31.6370  -22.3760   26.3380 C   0  0  0  0  0  2  0  0  0  0  0  0
  -30.8170  -21.3490   25.6730 N   0  0  0  0  0  4  0  0  0  0  0  0
  -30.5500  -21.7200   24.7770 H   0  0  0  0  0  0  0  0  0  0  0  0
  -29.9770  -21.2100   26.2100 H   0  0  0  0  0  0  0  0  0  0  0  0
  -31.5020  -20.0620   25.4530 C   0  0  0  0  0  2  0  0  0  0  0  0
  -30.6120  -19.0760   24.6750 C   0  0  0  0  0  2  0  0  0  0  0  0
  -31.3970  -17.8670   24.1480 C   0  0  0  0  0  2  0  0  0  0  0  0
  -30.5210  -16.8800   23.3640 C   0  0  0  0  0  2  0  0  0  0  0  0
  -31.3730  -15.8180   22.6550 C   0  0  0  0  0  2  0  0  0  0  0  0
  -30.8060  -14.3050   20.7570 C   0  0  0  0  0  0  0  0  0  0  0  0
  -30.4170  -12.3000   19.3790 C   0  0  0  0  0  2  0  0  0  0  0  0
  -29.4760  -12.5430   18.1870 C   0  0  0  0  0  2  0  0  0  0  0  0
  -28.0050  -12.3900   18.6080 C   0  0  0  0  0  2  0  0  0  0  0  0
  -27.6660  -13.2050   19.8830 C   0  0  0  0  0  3  0  0  0  0  0  0
  -28.7020  -12.9410   20.9960 C   0  0  0  0  0  2  0  0  0  0  0  0
  -30.0510  -13.2180   20.4660 N   0  0  0  0  0  0  0  0  0  0  0  0
  -31.7570  -14.6830   20.0650 O   0  0  0  0  0  0  0  0  0  0  0  0
  -30.5440  -14.8450   21.9540 N   0  0  0  0  0  0  0  0  0  0  0  0
  -29.7790  -14.4320   22.4690 H   0  0  0  0  0  0  0  0  0  0  0  0
  -25.2590  -13.8170   20.5680 C   0  0  0  0  0  0  0  0  0  0  0  0
  -24.1840  -13.0450   20.9170 C   0  0  0  0  0  0  0  0  0  0  0  0
  -24.6390  -11.6910   20.8730 C   0  0  0  0  0  0  0  0  0  0  0  0
  -26.3040  -12.9340   20.3400 N   0  0  0  0  0  0  0  0  0  0  0  0
  -25.9320  -11.6490   20.5770 N   0  0  0  0  0  0  0  0  0  0  0  0
  -23.9060  -10.4300   21.0400 C   0  0  0  0  0  0  0  0  0  0  0  0
  -24.3610   -9.4210   21.9180 C   0  0  0  0  0  3  0  0  0  0  0  0
  -23.6290   -8.2250   22.0750 C   0  0  0  0  0  3  0  0  0  0  0  0
  -22.4270   -8.0280   21.3540 C   0  0  0  0  0  0  0  0  0  0  0  0
  -21.9900   -9.0260   20.4650 C   0  0  0  0  0  3  0  0  0  0  0  0
  -22.7230  -10.2140   20.3060 C   0  0  0  0  0  3  0  0  0  0  0  0
  -21.6640   -6.8880   21.4240 O   0  0  0  0  0  0  0  0  0  0  0  0
  -21.6850   -6.0740   22.5280 C   0  0  0  0  0  0  0  0  0  0  0  0
  -21.4010   -6.5640   23.8210 C   0  0  0  0  0  3  0  0  0  0  0  0
  -21.3660   -5.6790   24.9170 C   0  0  0  0  0  3  0  0  0  0  0  0
  -21.6050   -4.3050   24.7220 C   0  0  0  0  0  0  0  0  0  0  0  0
  -21.8820   -3.8140   23.4340 C   0  0  0  0  0  3  0  0  0  0  0  0
  -21.9190   -4.6960   22.3400 C   0  0  0  0  0  0  0  0  0  0  0  0
  -22.1660   -4.2150   21.0980 F   0  0  0  0  0  0  0  0  0  0  0  0
  -21.5640   -3.4540   25.7740 F   0  0  0  0  0  0  0  0  0  0  0  0
  -22.7860  -13.5250   21.1840 C   0  0  0  0  0  0  0  0  0  0  0  0
  -22.0500  -12.8250   22.0400 N   0  0  0  0  0  0  0  0  0  0  0  0
  -22.3540  -14.5560   20.6690 O   0  0  0  0  0  0  0  0  0  0  0  0
  -22.4100  -11.9910   22.4800 H   0  0  0  0  0  0  0  0  0  0  0  0
  -21.1120  -13.1280   22.2610 H   0  0  0  0  0  0  0  0  0  0  0  0
  -25.4340  -15.1890   20.4090 N   0  0  0  0  0  0  0  0  0  0  0  0
  -24.6770  -15.8540   20.5230 H   0  0  0  0  0  0  0  0  0  0  0  0
  -26.2990  -15.6220   20.1090 H   0  0  0  0  0  0  0  0  0  0  0  0
  1  3  1  0
  2  1  2  0
  4  6  1  0
  5  4  2  0
  5  2  1  0
  6 52  1  0
  6  3  2  0
  7  5  1  0
  8  7  1  0
  9  8  1  0
 10  9  1  0
 11 13  1  0
 11 10  1  0
 12 23  2  0
 13 18  1  0
 14 22  1  0
 14 24  1  0
 15 21  1  0
 15 17  1  0
 16 22  1  0
 17 16  1  0
 18 17  2  0
 19 13  2  0
 20 19  1  0
 20 15  2  0
 21 14  1  0
 22 12  1  0
 24 26  2  0
 25 24  1  0
 27 25  1  0
 28 37  2  0
 28 33  1  0
 29 25  1  0
 29 33  1  0
 30 29  1  0
 31 32  1  0
 31 30  1  0
 32 28  1  0
 33 34  2  0
 34 35  1  0
 36 35  2  0
 37 36  1  0
 38 12  1  0
 38 39  1  0
 38 48  1  0
 39 42  1  0
 40 44  1  0
 40 39  1  0
 41 40  2  0
 44 43  1  0
 46 44  1  0
 46 47  1  0
 46 45  1  0
 48 51  1  1
 48 49  1  0
 50 48  1  0
 53 55  1  0
 53 52  1  0
 54 53  1  0
 56 53  1  0
 57 56  1  0
 58 57  1  0
 59 58  1  0
 60 59  1  0
 61 69  1  0
 62 67  1  0
 63 64  1  0
 63 62  1  0
 65 64  1  0
 65 74  1  0
 65 66  1  0
 67 61  1  0
 67 66  1  0
 68 61  2  0
 69 70  1  0
 69 60  1  0
 71 72  2  0
 72 91  1  0
 73 72  1  0
 73 76  1  0
 74 71  1  0
 74 75  1  0
 75 73  2  0
 76 77  1  0
 77 78  2  0
 79 82  1  0
 79 78  1  0
 80 79  2  0
 81 80  1  0
 81 76  2  0
 82 83  1  0
 83 84  1  0
 84 85  2  0
 86 85  1  0
 86 90  1  0
 87 86  2  0
 88 83  2  0
 88 87  1  0
 89 88  1  0
 91 92  1  0
 92 95  1  0
 92 94  1  0
 93 91  2  0
 96 97  1  0
 96 71  1  0
 98 96  1  0
M  ISO  4  10 101  11 101  61 100  69 100
M  END
>  <TORSDO>  (48) 
F 27

>  <SCORE>  (48) 
22.963

>  <name>  (48) 
48

>  <ligand_id>  (48) 
48

>  <original_smiles>  (48) 
[H]c1c([H])c([H])c2c(c1[H])C([H])([H])C([H])([H])C([H])([H])C2([H])N([H])C(=O)C1([H])N(C(=O)C([H])(N([H])C(=O)C([H])(N([H])C([H])([H])[H])C([H])([H])[H])C(C([H])([H])[H])(C([H])([H])[H])C([H])([H])[H])C([H])([H])c2c([H])c(OC([H])([H])C([H])([H])C([H])([H])C([H])([H])c3c([H])c([H])c([H])c(C([H])([H])[N+]([H])([H])C([H])([H])C([H])([H])C([H])([H])C([H])([H])C([H])([H])N([H])C(=O)N4C([H])([H])C([H])([H])C([H])([H])C([H])(n5nc(-c6c([H])c([H])c(Oc7c([H])c([H])c(F)c([H])c7F)c([H])c6[H])c(C(=O)N([H])[H])c5N([H])[H])C4([H])[H])c3[H])c([H])c([H])c2C1([H])[H]

>  <smiles>  (48) 
[H]c1c([H])c([H])c2c(c1[H])C([H])([H])C([H])([H])C([H])([H])C2([H])N([H])C(=O)C1([H])N(C(=O)C([H])(N([H])C(=O)C([H])(N([H])C([H])([H])[H])C([H])([H])[H])C(C([H])([H])[H])(C([H])([H])[H])C([H])([H])[H])C([H])([H])c2c([H])c(OC([H])([H])C([H])([H])C([H])([H])C([H])([H])c3c([H])c([H])c([H])c(C([H])([H])[N+]([H])([H])C([H])([H])C([H])([H])C([H])([H])C([H])([H])C([H])([H])N([H])C(=O)N4C([H])([H])C([H])([H])C([H])([H])C([H])(n5nc(-c6c([H])c([H])c(Oc7c([H])c([H])c(F)c([H])c7F)c([H])c6[H])c(C(=O)N([H])[H])c5N([H])[H])C4([H])[H])c3[H])c([H])c([H])c2C1([H])[H]

$$$$
49:0:0
     RDKit          3D

103110  0  0  1  0  0  0  0  0999 V2000
  -25.6630  -21.1840   19.0400 C   0  0  0  0  0  3  0  0  0  0  0  0
  -27.0150  -20.6350   18.7540 N   0  0  0  0  0  4  0  0  0  0  0  0
  -27.0130  -20.3850   17.7710 H   0  0  0  0  0  0  0  0  0  0  0  0
  -27.7100  -21.3510   18.8850 H   0  0  0  0  0  0  0  0  0  0  0  0
  -27.3960  -19.4280   19.5210 C   0  0  0  0  0  2  0  0  0  0  0  0
  -28.8990  -19.1270   19.3980 C   0  0  0  0  0  2  0  0  0  0  0  0
  -29.3260  -17.9410   20.2770 C   0  0  0  0  0  2  0  0  0  0  0  0
  -30.8520  -17.7600   20.3240 C   0  0  0  0  0  2  0  0  0  0  0  0
  -31.3050  -16.6560   21.2980 C   0  0  0  0  0  2  0  0  0  0  0  0
  -31.1210  -14.4940   20.0760 C   0  0  0  0  0  0  0  0  0  0  0  0
  -30.6930  -12.3400   18.9610 C   0  0  0  0  0  2  0  0  0  0  0  0
  -29.6920  -12.5000   17.8020 C   0  0  0  0  0  2  0  0  0  0  0  0
  -28.2420  -12.3990   18.3100 C   0  0  0  0  0  2  0  0  0  0  0  0
  -27.9770  -13.3080   19.5390 C   0  0  0  0  0  3  0  0  0  0  0  0
  -29.0760  -13.1140   20.6070 C   0  0  0  0  0  2  0  0  0  0  0  0
  -30.3880  -13.3570   19.9760 N   0  0  0  0  0  0  0  0  0  0  0  0
  -32.1180  -14.7260   19.3840 O   0  0  0  0  0  0  0  0  0  0  0  0
  -30.6960  -15.3630   20.9990 N   0  0  0  0  0  0  0  0  0  0  0  0
  -29.8850  -15.0930   21.5360 H   0  0  0  0  0  0  0  0  0  0  0  0
  -25.6520  -13.9980   20.4070 C   0  0  0  0  0  0  0  0  0  0  0  0
  -24.5760  -13.2590   20.8230 C   0  0  0  0  0  0  0  0  0  0  0  0
  -24.9760  -11.8920   20.7290 C   0  0  0  0  0  0  0  0  0  0  0  0
  -26.6430  -13.0800   20.0920 N   0  0  0  0  0  0  0  0  0  0  0  0
  -26.2410  -11.8070   20.3380 N   0  0  0  0  0  0  0  0  0  0  0  0
  -24.2100  -10.6540   20.9320 C   0  0  0  0  0  0  0  0  0  0  0  0
  -24.6290   -9.6690   21.8530 C   0  0  0  0  0  3  0  0  0  0  0  0
  -23.8670   -8.4970   22.0440 C   0  0  0  0  0  3  0  0  0  0  0  0
  -22.6700   -8.3020   21.3130 C   0  0  0  0  0  0  0  0  0  0  0  0
  -22.2690   -9.2760   20.3820 C   0  0  0  0  0  3  0  0  0  0  0  0
  -23.0330  -10.4400   20.1880 C   0  0  0  0  0  3  0  0  0  0  0  0
  -21.8790   -7.1840   21.4140 O   0  0  0  0  0  0  0  0  0  0  0  0
  -21.7880   -6.4690   22.5810 C   0  0  0  0  0  0  0  0  0  0  0  0
  -21.3460   -7.0590   23.7850 C   0  0  0  0  0  3  0  0  0  0  0  0
  -21.2020   -6.2720   24.9450 C   0  0  0  0  0  3  0  0  0  0  0  0
  -21.4890   -4.8950   24.9010 C   0  0  0  0  0  0  0  0  0  0  0  0
  -21.9240   -4.3030   23.7020 C   0  0  0  0  0  3  0  0  0  0  0  0
  -22.0700   -5.0880   22.5440 C   0  0  0  0  0  0  0  0  0  0  0  0
  -22.4690   -4.5100   21.3860 F   0  0  0  0  0  0  0  0  0  0  0  0
  -21.3440   -4.1360   26.0130 F   0  0  0  0  0  0  0  0  0  0  0  0
  -23.2210  -13.7860   21.1970 C   0  0  0  0  0  0  0  0  0  0  0  0
  -22.5230  -13.0990   22.0960 N   0  0  0  0  0  0  0  0  0  0  0  0
  -22.7900  -14.8390   20.7280 O   0  0  0  0  0  0  0  0  0  0  0  0
  -22.8830  -12.2460   22.4960 H   0  0  0  0  0  0  0  0  0  0  0  0
  -21.6150  -13.4320   22.3880 H   0  0  0  0  0  0  0  0  0  0  0  0
  -25.8660  -15.3640   20.2560 N   0  0  0  0  0  0  0  0  0  0  0  0
  -25.1400  -16.0500   20.4320 H   0  0  0  0  0  0  0  0  0  0  0  0
  -26.7220  -15.7700   19.9030 H   0  0  0  0  0  0  0  0  0  0  0  0
  -25.6090  -21.9280   20.4010 C   0  0  0  0  0  2  0  0  0  0  0  0
  -26.4430  -23.2250   20.4800 C   0  0  0  0  0  2  0  0  0  0  0  0
  -26.5300  -23.7780   21.9170 C   0  0  0  0  0  2  0  0  0  0  0  0
  -27.0620  -25.2210   22.0170 C   0  0  0  0  0  2  0  0  0  0  0  0
  -28.4700  -25.3520   21.5750 N   0  0  0  0  0  4  0  0  0  0  0  0
  -28.5270  -25.0840   20.6040 H   0  0  0  0  0  0  0  0  0  0  0  0
  -29.0480  -24.7160   22.1040 H   0  0  0  0  0  0  0  0  0  0  0  0
  -29.0240  -26.7220   21.6780 C   0  0  0  0  0  2  0  0  0  0  0  0
  -29.4770  -27.2410   20.3000 C   0  0  0  0  0  2  0  0  0  0  0  0
  -28.4200  -27.1190   19.3430 O   0  0  0  0  0  0  0  0  0  0  0  0
  -24.6840  -31.7910   23.2540 C   0  0  0  0  0  0  0  0  0  0  0  0
  -27.2750  -27.8610   19.5320 C   0  0  0  0  0  0  0  0  0  0  0  0
  -23.4230  -30.5730   21.5040 C   0  0  0  0  0  3  0  0  0  0  0  0
  -24.8390  -29.2580   19.8370 C   0  0  0  0  0  0  0  0  0  0  0  0
  -25.9230  -31.0230   21.2390 C   0  0  0  0  0  2  0  0  0  0  0  0
  -26.0060  -29.7430   20.4390 C   0  0  0  0  0  0  0  0  0  0  0  0
  -27.2250  -29.0510   20.2950 C   0  0  0  0  0  3  0  0  0  0  0  0
  -26.0970  -27.3930   18.9160 C   0  0  0  0  0  3  0  0  0  0  0  0
  -24.8750  -28.0760   19.0780 C   0  0  0  0  0  3  0  0  0  0  0  0
  -23.5800  -30.0700   20.0430 C   0  0  0  0  0  2  0  0  0  0  0  0
  -24.6970  -31.1350   22.0590 N   0  0  0  0  0  0  0  0  0  0  0  0
  -23.6260  -31.9710   23.8720 O   0  0  0  0  0  0  0  0  0  0  0  0
  -22.8380  -29.4270   22.3580 C   0  0  0  0  0  0  0  0  0  0  0  0
  -21.5210  -29.2000   22.2280 N   0  0  0  0  0  0  0  0  0  0  0  0
  -23.5630  -28.7490   23.0910 O   0  0  0  0  0  0  0  0  0  0  0  0
  -20.9960  -29.8070   21.6140 H   0  0  0  0  0  0  0  0  0  0  0  0
  -18.2250  -27.7650   22.5620 C   0  0  0  0  0  0  0  0  0  0  0  0
  -20.7570  -28.1520   22.9010 C   0  0  0  0  0  3  0  0  0  0  0  0
  -20.9560  -26.7850   22.2050 C   0  0  0  0  0  2  0  0  0  0  0  0
  -19.8870  -26.4860   21.1480 C   0  0  0  0  0  2  0  0  0  0  0  0
  -18.4910  -26.4910   21.7780 C   0  0  0  0  0  2  0  0  0  0  0  0
  -19.2880  -28.5530   23.0750 C   0  0  0  0  0  0  0  0  0  0  0  0
  -18.9870  -29.7460   23.7660 C   0  0  0  0  0  3  0  0  0  0  0  0
  -17.6520  -30.1550   23.9490 C   0  0  0  0  0  3  0  0  0  0  0  0
  -16.6020  -29.3620   23.4560 C   0  0  0  0  0  3  0  0  0  0  0  0
  -16.8890  -28.1690   22.7680 C   0  0  0  0  0  3  0  0  0  0  0  0
  -25.9910  -32.3640   23.8890 C   0  0  0  0  0  3  0  0  0  0  0  0
  -25.6900  -33.7150   24.3790 N   0  0  0  0  0  0  0  0  0  0  0  0
  -26.0110  -34.8460   23.7360 C   0  0  0  0  0  0  0  0  0  0  0  0
  -26.6650  -34.8580   22.6890 O   0  0  0  0  0  0  0  0  0  0  0  0
  -25.1100  -33.7790   25.2020 H   0  0  0  0  0  0  0  0  0  0  0  0
  -24.2760  -36.6600   23.5990 C   0  0  0  0  0  1  0  0  0  0  0  0
  -25.5250  -36.1720   24.3490 C   0  0  0  0  0  3  0  0  0  0  0  0
  -27.6680  -36.9600   25.2540 C   0  0  0  0  0  1  0  0  0  0  0  0
  -26.5560  -37.2340   24.3480 N   0  0  0  0  0  0  0  0  0  0  0  0
  -26.1500  -38.1280   24.6060 H   0  0  0  0  0  0  0  0  0  0  0  0
  -26.5670  -31.4620   25.0500 C   0  0  1  0  0  0  0  0  0  0  0  0
  -25.5230  -31.1070   26.1340 C   0  0  0  0  0  1  0  0  0  0  0  0
  -27.1320  -30.1390   24.4830 C   0  0  0  0  0  1  0  0  0  0  0  0
  -27.7450  -32.1870   25.7420 C   0  0  0  0  0  1  0  0  0  0  0  0
  -25.1410  -22.0700   17.8760 C   0  0  0  0  0  2  0  0  0  0  0  0
  -24.4180  -21.2960   16.7650 C   0  0  0  0  0  0  0  0  0  0  0  0
  -23.4230  -21.8990   16.1270 N   0  0  0  0  0  0  0  0  0  0  0  0
  -24.7670  -20.1540   16.4690 O   0  0  0  0  0  0  0  0  0  0  0  0
  -23.1510  -22.8450   16.3630 H   0  0  0  0  0  0  0  0  0  0  0  0
  -22.9270  -21.4190   15.3870 H   0  0  0  0  0  0  0  0  0  0  0  0
  1 98  1  0
  1 48  1  0
  2  4  1  0
  2  1  1  0
  2  5  1  0
  3  2  1  0
  6  5  1  0
  6  7  1  0
  7  8  1  0
  8  9  1  0
 10 18  1  0
 11 16  1  0
 12 13  1  0
 12 11  1  0
 14 13  1  0
 14 23  1  0
 14 15  1  0
 16 10  1  0
 16 15  1  0
 17 10  2  0
 18  9  1  0
 18 19  1  0
 20 21  2  0
 21 40  1  0
 22 21  1  0
 22 25  1  0
 23 24  1  0
 23 20  1  0
 24 22  2  0
 25 26  1  0
 26 27  2  0
 28 31  1  0
 28 27  1  0
 29 28  2  0
 30 29  1  0
 30 25  2  0
 31 32  1  0
 32 33  1  0
 33 34  2  0
 35 34  1  0
 35 39  1  0
 36 35  2  0
 37 32  2  0
 37 36  1  0
 38 37  1  0
 40 41  1  0
 41 44  1  0
 41 43  1  0
 42 40  2  0
 45 20  1  0
 45 46  1  0
 47 45  1  0
 48 49  1  0
 49 50  1  0
 50 51  1  0
 52 55  1  0
 52 51  1  0
 52 54  1  0
 53 52  1  0
 56 55  1  0
 57 59  1  0
 57 56  1  0
 58 69  2  0
 59 64  1  0
 60 68  1  0
 60 70  1  0
 61 67  1  0
 61 63  1  0
 62 68  1  0
 63 62  1  0
 64 63  2  0
 65 66  1  0
 65 59  2  0
 66 61  2  0
 67 60  1  0
 68 58  1  0
 70 72  2  0
 71 70  1  0
 73 71  1  0
 74 83  2  0
 74 79  1  0
 75 71  1  0
 75 79  1  0
 76 75  1  0
 77 78  1  0
 77 76  1  0
 78 74  1  0
 79 80  2  0
 80 81  1  0
 82 81  2  0
 83 82  1  0
 84 58  1  0
 84 85  1  0
 84 94  1  0
 85 88  1  0
 86 90  1  0
 86 85  1  0
 87 86  2  0
 90 89  1  0
 92 90  1  0
 92 93  1  0
 92 91  1  0
 94 97  1  1
 94 95  1  0
 96 94  1  0
 99 98  1  0
100102  1  0
100 99  1  0
101 99  2  0
103100  1  0
M  ISO  4  10 100  18 100  56 101  57 101
M  END
>  <TORSDO>  (49) 
F 31

>  <SCORE>  (49) 
-8.899

>  <name>  (49) 
49

>  <ligand_id>  (49) 
49

>  <original_smiles>  (49) 
[H]c1c([H])c([H])c2c(c1[H])C([H])([H])C([H])([H])C([H])([H])C2([H])N([H])C(=O)C1([H])N(C(=O)C([H])(N([H])C(=O)C([H])(N([H])C([H])([H])[H])C([H])([H])[H])C(C([H])([H])[H])(C([H])([H])[H])C([H])([H])[H])C([H])([H])c2c([H])c(OC([H])([H])C([H])([H])[N+]([H])([H])C([H])([H])C([H])([H])C([H])([H])C([H])([H])C([H])(C([H])([H])C(=O)N([H])[H])[N+]([H])([H])C([H])([H])C([H])([H])C([H])([H])C([H])([H])C([H])([H])N([H])C(=O)N3C([H])([H])C([H])([H])C([H])([H])C([H])(n4nc(-c5c([H])c([H])c(Oc6c([H])c([H])c(F)c([H])c6F)c([H])c5[H])c(C(=O)N([H])[H])c4N([H])[H])C3([H])[H])c([H])c([H])c2C1([H])[H]

>  <smiles>  (49) 
[H]c1c([H])c([H])c2c(c1[H])C([H])([H])C([H])([H])C([H])([H])C2([H])N([H])C(=O)C1([H])N(C(=O)C([H])(N([H])C(=O)C([H])(N([H])C([H])([H])[H])C([H])([H])[H])C(C([H])([H])[H])(C([H])([H])[H])C([H])([H])[H])C([H])([H])c2c([H])c(OC([H])([H])C([H])([H])[N+]([H])([H])C([H])([H])C([H])([H])C([H])([H])C([H])([H])C([H])(C([H])([H])C(=O)N([H])[H])[N+]([H])([H])C([H])([H])C([H])([H])C([H])([H])C([H])([H])C([H])([H])N([H])C(=O)N3C([H])([H])C([H])([H])C([H])([H])C([H])(n4nc(-c5c([H])c([H])c(Oc6c([H])c([H])c(F)c([H])c6F)c([H])c5[H])c(C(=O)N([H])[H])c4N([H])[H])C3([H])[H])c([H])c([H])c2C1([H])[H]

$$$$
50:0:0
     RDKit          3D

 97103  0  0  1  0  0  0  0  0999 V2000
  -19.8970  -26.0640   22.9040 C   0  0  0  0  0  1  0  0  0  0  0  0
  -19.9190  -28.8850   23.6970 C   0  0  0  0  0  2  0  0  0  0  0  0
  -21.6640  -29.5800   24.5420 C   0  0  0  0  0  1  0  0  0  0  0  0
  -23.3360  -28.8290   24.5870 N   0  0  0  0  0  4  0  0  0  0  0  0
  -23.3880  -28.5160   25.5460 H   0  0  0  0  0  0  0  0  0  0  0  0
  -23.9250  -29.6670   24.5880 H   0  0  0  0  0  0  0  0  0  0  0  0
  -24.4010  -27.6100   23.7360 C   0  0  0  0  0  1  0  0  0  0  0  0
  -25.4590  -27.3250   22.0800 C   0  0  0  0  0  1  0  0  0  0  0  0
  -25.4620  -26.7520   20.4150 O   0  0  0  0  0  0  0  0  0  0  0  0
  -25.1360  -30.6980   23.1770 C   0  0  0  0  0  0  0  0  0  0  0  0
  -25.7830  -27.3870   19.1870 C   0  0  0  0  0  3  0  0  0  0  0  0
  -23.4320  -30.3340   21.2260 C   0  0  0  0  0  3  0  0  0  0  0  0
  -24.3900  -29.6340   19.0630 C   0  0  0  0  0  0  0  0  0  0  0  0
  -25.9300  -30.4910   20.8570 C   0  0  0  0  0  2  0  0  0  0  0  0
  -25.6480  -29.5840   19.6880 C   0  0  0  0  0  0  0  0  0  0  0  0
  -26.5110  -28.5240   19.4410 C   0  0  0  0  0  2  0  0  0  0  0  0
  -24.7580  -27.4230   18.1990 C   0  0  0  0  0  3  0  0  0  0  0  0
  -23.9810  -28.5980   18.1860 C   0  0  0  0  0  3  0  0  0  0  0  0
  -23.4250  -30.5940   19.7100 C   0  0  0  0  0  2  0  0  0  0  0  0
  -24.8350  -30.4490   21.8450 N   0  0  0  0  0  0  0  0  0  0  0  0
  -24.2440  -30.9710   23.9880 O   0  0  0  0  0  0  0  0  0  0  0  0
  -22.7410  -28.9100   21.1410 C   0  0  0  0  0  0  0  0  0  0  0  0
  -21.5340  -28.6040   21.2730 N   0  0  2  0  0  4  0  0  0  0  0  0
  -23.1840  -27.8330   21.0160 O   0  0  0  0  0  0  0  0  0  0  0  0
  -20.9930  -29.3210   20.8120 H   0  0  0  0  0  0  0  0  0  0  0  0
  -17.2980  -28.5950   21.9270 C   0  0  0  0  0  0  0  0  0  0  0  0
  -20.4870  -27.8090   22.1000 C   0  0  0  0  0  2  0  0  0  0  0  0
  -20.4250  -27.5140   20.1740 C   0  0  0  0  0  3  0  0  0  0  0  0
  -18.8370  -27.7810   19.3080 C   0  0  0  0  0  3  0  0  0  0  0  0
  -17.3240  -28.2450   20.1980 C   0  0  0  0  0  3  0  0  0  0  0  0
  -18.6030  -28.4710   22.9240 C   0  0  0  0  0  0  0  0  0  0  0  0
  -18.4020  -29.5350   23.8940 C   0  0  0  0  0  0  0  0  0  0  0  0
  -17.4180  -30.5850   23.8340 C   0  0  0  0  0  3  0  0  0  0  0  0
  -16.3140  -30.5530   22.9720 C   0  0  0  0  0  3  0  0  0  0  0  0
  -16.2230  -29.4940   22.0840 C   0  0  0  0  0  3  0  0  0  0  0  0
  -26.6040  -30.7000   23.7730 C   0  0  0  0  0  3  0  0  0  0  0  0
  -26.7280  -31.9400   24.5510 N   0  0  0  0  0  0  0  0  0  0  0  0
  -27.3450  -33.0490   24.1250 C   0  0  0  0  0  0  0  0  0  0  0  0
  -27.8760  -33.1310   23.0170 O   0  0  0  0  0  0  0  0  0  0  0  0
  -26.2560  -31.9670   25.4420 H   0  0  0  0  0  0  0  0  0  0  0  0
  -26.2510  -35.2430   24.6770 C   0  0  0  0  0  1  0  0  0  0  0  0
  -27.3610  -34.2580   25.0790 C   0  0  0  0  0  3  0  0  0  0  0  0
  -29.7190  -34.1630   25.7410 C   0  0  0  0  0  1  0  0  0  0  0  0
  -28.6650  -34.9560   25.1140 N   0  0  0  0  0  0  0  0  0  0  0  0
  -28.5900  -35.8400   25.6090 H   0  0  0  0  0  0  0  0  0  0  0  0
  -27.0450  -29.4880   24.7120 C   0  0  1  0  0  0  0  0  0  0  0  0
  -26.0590  -29.2050   25.8750 C   0  0  0  0  0  1  0  0  0  0  0  0
  -27.3750  -28.1830   23.9560 C   0  0  0  0  0  1  0  0  0  0  0  0
  -28.4090  -29.8150   25.3710 C   0  0  0  0  0  1  0  0  0  0  0  0
  -20.2960  -25.1470   21.3770 C   0  0  0  0  0  2  0  0  0  0  0  0
  -21.4480  -25.1530   20.0360 C   0  0  0  0  0  3  0  0  0  0  0  0
  -21.5320  -24.2110   18.5670 C   0  0  0  0  0  3  0  0  0  0  0  0
  -22.3500  -24.5740   17.2030 N   0  0  0  0  0  4  0  0  0  0  0  0
  -23.2980  -24.7270   17.5000 H   0  0  0  0  0  0  0  0  0  0  0  0
  -22.0120  -25.4810   16.9260 H   0  0  0  0  0  0  0  0  0  0  0  0
  -22.4790  -23.6710   15.8460 C   0  0  0  0  0  3  0  0  0  0  0  0
  -23.1280  -24.1100   14.2750 C   0  0  0  0  0  3  0  0  0  0  0  0
  -23.4560  -23.1310   12.8600 C   0  0  0  0  0  3  0  0  0  0  0  0
  -23.7570  -23.5730   11.1960 C   0  0  0  0  0  3  0  0  0  0  0  0
  -24.6770  -22.7650    8.5460 C   0  0  0  0  0  0  0  0  0  0  0  0
  -24.6150  -23.9130    6.2410 C   0  0  0  0  0  2  0  0  0  0  0  0
  -24.8750  -25.4320    6.4020 C   0  0  0  0  0  2  0  0  0  0  0  0
  -23.6010  -26.1730    6.8710 C   0  0  0  0  0  2  0  0  0  0  0  0
  -22.8260  -25.3840    7.9620 C   0  0  0  0  0  3  0  0  0  0  0  0
  -22.6520  -23.9070    7.6130 C   0  0  0  0  0  2  0  0  0  0  0  0
  -23.9970  -23.4000    7.5120 N   0  0  0  0  0  0  0  0  0  0  0  0
  -25.7330  -22.2130    8.1770 O   0  0  0  0  0  0  0  0  0  0  0  0
  -24.1910  -22.6640    9.9240 N   0  0  0  0  0  0  0  0  0  0  0  0
  -24.6070  -21.8260   10.3090 H   0  0  0  0  0  0  0  0  0  0  0  0
  -21.0230  -26.2730    9.5160 C   0  0  0  0  0  0  0  0  0  0  0  0
  -19.7940  -26.8030    9.2790 C   0  0  0  0  0  0  0  0  0  0  0  0
  -19.6290  -26.7930    7.8610 C   0  0  0  0  0  0  0  0  0  0  0  0
  -21.5390  -25.9550    8.2750 N   0  0  0  0  0  0  0  0  0  0  0  0
  -20.6650  -26.2120    7.2730 N   0  0  0  0  0  0  0  0  0  0  0  0
  -18.5720  -27.3680    7.0320 C   0  0  0  0  0  0  0  0  0  0  0  0
  -17.9040  -26.6070    6.0470 C   0  0  0  0  0  3  0  0  0  0  0  0
  -16.8780  -27.1900    5.2740 C   0  0  0  0  0  3  0  0  0  0  0  0
  -16.5070  -28.5410    5.4890 C   0  0  0  0  0  0  0  0  0  0  0  0
  -17.1970  -29.2980    6.4530 C   0  0  0  0  0  3  0  0  0  0  0  0
  -18.2220  -28.7190    7.2160 C   0  0  0  0  0  3  0  0  0  0  0  0
  -15.5370  -29.1990    4.7730 O   0  0  0  0  0  0  0  0  0  0  0  0
  -14.4980  -28.5240    4.1840 C   0  0  0  0  0  0  0  0  0  0  0  0
  -13.6320  -27.6940    4.9270 C   0  0  0  0  0  3  0  0  0  0  0  0
  -12.5360  -27.0730    4.2930 C   0  0  0  0  0  3  0  0  0  0  0  0
  -12.3020  -27.2910    2.9220 C   0  0  0  0  0  0  0  0  0  0  0  0
  -13.1580  -28.1240    2.1820 C   0  0  0  0  0  3  0  0  0  0  0  0
  -14.2540  -28.7390    2.8120 C   0  0  0  0  0  0  0  0  0  0  0  0
  -15.0680  -29.5580    2.1020 F   0  0  0  0  0  0  0  0  0  0  0  0
  -11.2440  -26.7050    2.3140 F   0  0  0  0  0  0  0  0  0  0  0  0
  -18.8780  -27.3870   10.3110 C   0  0  0  0  0  0  0  0  0  0  0  0
  -17.5760  -27.3330   10.0660 N   0  0  0  0  0  0  0  0  0  0  0  0
  -19.3130  -27.8390   11.3700 O   0  0  0  0  0  0  0  0  0  0  0  0
  -17.2250  -26.9320    9.2080 H   0  0  0  0  0  0  0  0  0  0  0  0
  -16.9220  -27.6800   10.7510 H   0  0  0  0  0  0  0  0  0  0  0  0
  -21.7430  -26.0860   10.6860 N   0  0  0  0  0  0  0  0  0  0  0  0
  -21.3720  -26.3750   11.5830 H   0  0  0  0  0  0  0  0  0  0  0  0
  -22.7040  -25.7730   10.7230 H   0  0  0  0  0  0  0  0  0  0  0  0
  2 32  1  0
  3  4  1  0
  4  6  1  0
  4  5  1  0
  7  4  1  0
  9  8  1  0
 10 21  2  0
 11 16  1  0
 11  9  1  0
 12 22  1  0
 12 20  1  0
 13 15  2  0
 13 19  1  0
 14 20  1  0
 15 14  1  0
 16 15  1  0
 17 11  1  0
 18 17  2  0
 18 13  1  0
 19 12  1  0
 20 10  1  0
 22 23  1  0
 23 27  1  0
 24 22  2  0
 23 25  1  6
 26 35  2  0
 26 31  1  0
 28 29  1  0
 28 23  1  0
 28 27  1  0
 29 30  2  0
 30 26  1  0
 31  2  1  0
 31 32  2  0
 33 32  1  0
 34 33  2  0
 35 34  1  0
 36 10  1  0
 36 37  1  0
 36 46  1  0
 37 40  1  0
 38 37  1  0
 38 42  1  0
 39 38  2  0
 42 41  1  0
 42 44  1  0
 44 45  1  0
 44 43  1  0
 46 49  1  1
 46 47  1  0
 48 46  1  0
 50  1  1  0
 51 50  1  0
 52 51  2  0
 53 54  1  0
 53 52  1  0
 55 53  1  0
 56 53  1  0
 57 56  2  0
 58 57  1  0
 59 58  2  0
 60 68  1  0
 61 62  1  0
 61 66  1  0
 62 63  1  0
 64 63  1  0
 64 73  1  0
 65 64  1  0
 66 65  1  0
 66 60  1  0
 67 60  2  0
 68 69  1  0
 68 59  1  0
 70 95  1  0
 71 70  2  0
 71 90  1  0
 72 71  1  0
 73 70  1  0
 74 72  2  0
 74 73  1  0
 75 80  1  0
 75 72  1  0
 76 75  2  0
 77 78  2  0
 77 76  1  0
 78 79  1  0
 79 80  2  0
 81 78  1  0
 82 81  1  0
 82 83  1  0
 84 83  2  0
 85 84  1  0
 86 87  1  0
 86 85  2  0
 87 82  2  0
 88 87  1  0
 89 85  1  0
 90 92  2  0
 91 90  1  0
 91 94  1  0
 93 91  1  0
 95 97  1  0
 95 96  1  0
M  ISO  4   8 101   9 101  60 100  68 100
M  END
>  <TORSDO>  (50) 
F 29

>  <SCORE>  (50) 
-5.344

>  <name>  (50) 
50

>  <ligand_id>  (50) 
50

>  <original_smiles>  (50) 
[H]c1c([H])c([H])c2c(c1[H])C([H])([H])C([H])([H])C([H])([H])C2([H])N([H])C(=O)C1([H])N(C(=O)C([H])(N([H])C(=O)C([H])(N([H])C([H])([H])[H])C([H])([H])[H])C(C([H])([H])[H])(C([H])([H])[H])C([H])([H])[H])C([H])([H])c2c([H])c(OC([H])([H])C([H])([H])[N+]([H])([H])C([H])([H])C([H])([H])C([H])([H])C([H])([H])C([H])([H])C([H])([H])[N+]([H])([H])C([H])([H])C([H])([H])C([H])([H])C([H])([H])N([H])C(=O)N3C([H])([H])C([H])([H])C([H])([H])C([H])(n4nc(-c5c([H])c([H])c(Oc6c([H])c([H])c(F)c([H])c6F)c([H])c5[H])c(C(=O)N([H])[H])c4N([H])[H])C3([H])[H])c([H])c([H])c2C1([H])[H]

>  <smiles>  (50) 
[H]c1c([H])c([H])c2c(c1[H])C([H])([H])C([H])([H])C([H])([H])C2([H])N([H])C(=O)C1([H])N(C(=O)C([H])(N([H])C(=O)C([H])(N([H])C([H])([H])[H])C([H])([H])[H])C(C([H])([H])[H])(C([H])([H])[H])C([H])([H])[H])C([H])([H])c2c([H])c(OC([H])([H])C([H])([H])[N+]([H])([H])C([H])([H])C([H])([H])C([H])([H])C([H])([H])C([H])([H])C([H])([H])[N+]([H])([H])C([H])([H])C([H])([H])C([H])([H])C([H])([H])N([H])C(=O)N3C([H])([H])C([H])([H])C([H])([H])C([H])(n4nc(-c5c([H])c([H])c(Oc6c([H])c([H])c(F)c([H])c6F)c([H])c5[H])c(C(=O)N([H])[H])c4N([H])[H])C3([H])[H])c([H])c([H])c2C1([H])[H]

$$$$
51:0:0
     RDKit          3D

 99107  0  0  1  0  0  0  0  0999 V2000
  -27.9380  -21.2180   21.5030 C   0  0  0  0  0  3  0  0  0  0  0  0
  -26.9390  -22.0530   20.9760 C   0  0  0  0  0  3  0  0  0  0  0  0
  -29.4430  -23.1270   21.6400 C   0  0  0  0  0  3  0  0  0  0  0  0
  -29.2030  -21.7440   21.8310 C   0  0  0  0  0  0  0  0  0  0  0  0
  -27.1850  -23.4250   20.7570 C   0  0  0  0  0  0  0  0  0  0  0  0
  -28.4520  -23.9760   21.0890 C   0  0  0  0  0  0  0  0  0  0  0  0
  -26.0720  -24.2590   20.1430 C   0  0  0  0  0  1  0  0  0  0  0  0
  -30.2530  -20.8290   22.4560 C   0  0  0  0  0  2  0  0  0  0  0  0
  -31.2910  -20.1700   21.4980 C   0  0  0  0  0  3  0  0  0  0  0  0
  -33.2130  -21.8730   21.7800 C   0  0  0  0  0  1  0  0  0  0  0  0
  -32.2310  -21.1950   20.8090 C   0  0  0  0  0  2  0  0  0  0  0  0
  -30.6790  -19.1490   20.4890 C   0  0  0  0  0  2  0  0  0  0  0  0
  -30.5520  -17.6840   21.0110 C   0  0  0  0  0  3  0  0  0  0  0  0
  -31.8700  -17.1300   21.3720 N   0  0  0  0  0  4  0  0  0  0  0  0
  -31.7640  -16.1600   21.6090 H   0  0  0  0  0  0  0  0  0  0  0  0
  -32.2690  -17.6030   22.1630 H   0  0  0  0  0  0  0  0  0  0  0  0
  -32.5030  -17.1900   20.5920 H   0  0  0  0  0  0  0  0  0  0  0  0
  -29.8660  -16.7400   19.9890 C   0  0  0  0  0  2  0  0  0  0  0  0
  -30.5870  -14.3340   19.7430 C   0  0  0  0  0  0  0  0  0  0  0  0
  -30.3120  -12.0760   18.7850 C   0  0  0  0  0  2  0  0  0  0  0  0
  -29.2750  -12.1490   17.6430 C   0  0  0  0  0  2  0  0  0  0  0  0
  -27.8400  -12.0170   18.1940 C   0  0  0  0  0  2  0  0  0  0  0  0
  -27.5720  -12.9570   19.4000 C   0  0  0  0  0  3  0  0  0  0  0  0
  -28.7040  -12.8240   20.4450 C   0  0  0  0  0  2  0  0  0  0  0  0
  -29.9800  -13.1180   19.7690 N   0  0  0  0  0  0  0  0  0  0  0  0
  -31.6160  -14.5720   19.1030 O   0  0  0  0  0  0  0  0  0  0  0  0
  -29.8970  -15.3120   20.3620 N   0  0  0  0  0  0  0  0  0  0  0  0
  -29.1130  -14.9830   20.9060 H   0  0  0  0  0  0  0  0  0  0  0  0
  -25.2590  -13.6110   20.3250 C   0  0  0  0  0  0  0  0  0  0  0  0
  -24.2120  -12.8590   20.7830 C   0  0  0  0  0  0  0  0  0  0  0  0
  -24.6340  -11.4970   20.6940 C   0  0  0  0  0  0  0  0  0  0  0  0
  -26.2570  -12.7100   19.9890 N   0  0  0  0  0  0  0  0  0  0  0  0
  -25.8890  -11.4330   20.2680 N   0  0  0  0  0  0  0  0  0  0  0  0
  -23.9010  -10.2500   20.9380 C   0  0  0  0  0  0  0  0  0  0  0  0
  -24.3290   -9.3240   21.9140 C   0  0  0  0  0  3  0  0  0  0  0  0
  -23.6000   -8.1370   22.1440 C   0  0  0  0  0  3  0  0  0  0  0  0
  -22.4280   -7.8700   21.3970 C   0  0  0  0  0  0  0  0  0  0  0  0
  -22.0180   -8.7840   20.4110 C   0  0  0  0  0  3  0  0  0  0  0  0
  -22.7470   -9.9630   20.1820 C   0  0  0  0  0  3  0  0  0  0  0  0
  -21.6690   -6.7320   21.5320 O   0  0  0  0  0  0  0  0  0  0  0  0
  -21.5360   -6.0960   22.7390 C   0  0  0  0  0  0  0  0  0  0  0  0
  -20.9970   -6.7480   23.8700 C   0  0  0  0  0  3  0  0  0  0  0  0
  -20.8150   -6.0360   25.0720 C   0  0  0  0  0  3  0  0  0  0  0  0
  -21.1610   -4.6720   25.1430 C   0  0  0  0  0  0  0  0  0  0  0  0
  -21.6910   -4.0210   24.0150 C   0  0  0  0  0  3  0  0  0  0  0  0
  -21.8750   -4.7310   22.8160 C   0  0  0  0  0  0  0  0  0  0  0  0
  -22.3690   -4.0930   21.7260 F   0  0  0  0  0  0  0  0  0  0  0  0
  -20.9770   -3.9850   26.2930 F   0  0  0  0  0  0  0  0  0  0  0  0
  -22.8570  -13.3630   21.1930 C   0  0  0  0  0  0  0  0  0  0  0  0
  -22.2060  -12.6820   22.1280 N   0  0  0  0  0  0  0  0  0  0  0  0
  -22.3880  -14.3950   20.7140 O   0  0  0  0  0  0  0  0  0  0  0  0
  -22.6000  -11.8460   22.5360 H   0  0  0  0  0  0  0  0  0  0  0  0
  -21.3020  -13.0020   22.4430 H   0  0  0  0  0  0  0  0  0  0  0  0
  -25.4420  -14.9800   20.1490 N   0  0  0  0  0  0  0  0  0  0  0  0
  -24.7030  -15.6490   20.3360 H   0  0  0  0  0  0  0  0  0  0  0  0
  -26.2650  -15.4000   19.7380 H   0  0  0  0  0  0  0  0  0  0  0  0
  -28.7580  -25.4650   20.8890 C   0  0  0  0  0  2  0  0  0  0  0  0
  -29.1550  -25.8460   19.4390 C   0  0  0  0  0  2  0  0  0  0  0  0
  -29.0260  -27.2510   19.1630 O   0  0  0  0  0  0  0  0  0  0  0  0
  -24.6130  -31.3840   22.8650 C   0  0  0  0  0  0  0  0  0  0  0  0
  -27.7610  -27.7990   19.2160 C   0  0  0  0  0  0  0  0  0  0  0  0
  -23.5650  -30.0230   21.0860 C   0  0  0  0  0  3  0  0  0  0  0  0
  -25.1730  -28.9100   19.4490 C   0  0  0  0  0  0  0  0  0  0  0  0
  -25.9970  -30.7880   20.8820 C   0  0  0  0  0  2  0  0  0  0  0  0
  -26.2600  -29.5330   20.0740 C   0  0  0  0  0  0  0  0  0  0  0  0
  -27.5570  -28.9880   19.9500 C   0  0  0  0  0  3  0  0  0  0  0  0
  -26.6560  -27.1950   18.5740 C   0  0  0  0  0  3  0  0  0  0  0  0
  -25.3660  -27.7400   18.6970 C   0  0  0  0  0  3  0  0  0  0  0  0
  -23.8180  -29.5560   19.6270 C   0  0  0  0  0  2  0  0  0  0  0  0
  -24.7430  -30.7420   21.6710 N   0  0  0  0  0  0  0  0  0  0  0  0
  -23.5260  -31.4190   23.4590 O   0  0  0  0  0  0  0  0  0  0  0  0
  -23.1090  -28.8060   21.9230 C   0  0  0  0  0  0  0  0  0  0  0  0
  -21.8260  -28.4320   21.7880 N   0  0  0  0  0  0  0  0  0  0  0  0
  -23.9050  -28.2080   22.6510 O   0  0  0  0  0  0  0  0  0  0  0  0
  -21.2360  -28.9800   21.1770 H   0  0  0  0  0  0  0  0  0  0  0  0
  -18.6980  -26.6640   22.1550 C   0  0  0  0  0  0  0  0  0  0  0  0
  -21.1890  -27.2940   22.4470 C   0  0  0  0  0  3  0  0  0  0  0  0
  -21.5030  -25.9740   21.7090 C   0  0  0  0  0  2  0  0  0  0  0  0
  -20.4440  -25.5970   20.6680 C   0  0  0  0  0  2  0  0  0  0  0  0
  -19.0720  -25.4450   21.3290 C   0  0  0  0  0  2  0  0  0  0  0  0
  -19.6920  -27.5420   22.6670 C   0  0  0  0  0  0  0  0  0  0  0  0
  -19.2880  -28.6780   23.4000 C   0  0  0  0  0  3  0  0  0  0  0  0
  -17.9250  -28.9440   23.6250 C   0  0  0  0  0  3  0  0  0  0  0  0
  -16.9470  -28.0640   23.1310 C   0  0  0  0  0  3  0  0  0  0  0  0
  -17.3350  -26.9260   22.4020 C   0  0  0  0  0  3  0  0  0  0  0  0
  -25.8140  -32.1230   23.5320 C   0  0  0  0  0  3  0  0  0  0  0  0
  -26.4770  -31.2990   24.7030 C   0  0  1  0  0  0  0  0  0  0  0  0
  -25.4680  -30.7950   25.7610 C   0  0  0  0  0  1  0  0  0  0  0  0
  -27.2310  -30.0670   24.1460 C   0  0  0  0  0  1  0  0  0  0  0  0
  -27.5290  -32.1730   25.4270 C   0  0  0  0  0  1  0  0  0  0  0  0
  -25.3210  -33.4180   24.0200 N   0  0  0  0  0  0  0  0  0  0  0  0
  -25.4740  -34.5810   23.3750 C   0  0  0  0  0  0  0  0  0  0  0  0
  -26.1170  -34.6870   22.3280 O   0  0  0  0  0  0  0  0  0  0  0  0
  -24.7350  -33.3970   24.8420 H   0  0  0  0  0  0  0  0  0  0  0  0
  -23.4920  -36.1270   23.2550 C   0  0  0  0  0  1  0  0  0  0  0  0
  -24.8080  -35.8270   23.9920 C   0  0  0  0  0  3  0  0  0  0  0  0
  -26.8170  -36.9270   24.8750 C   0  0  0  0  0  1  0  0  0  0  0  0
  -25.6720  -37.0270   23.9740 N   0  0  0  0  0  0  0  0  0  0  0  0
  -25.1420  -37.8580   24.2260 H   0  0  0  0  0  0  0  0  0  0  0  0
  1  4  1  0
  2  1  2  0
  3  4  2  0
  4  8  1  0
  5  2  1  0
  5  6  2  0
  6  3  1  0
  7  5  1  0
  9 12  1  0
  9  8  1  0
 11  9  1  0
 11 10  1  0
 12 13  1  0
 13 18  1  0
 13 14  1  0
 14 15  1  0
 14 16  1  0
 17 14  1  0
 18 27  1  0
 19 25  1  0
 19 27  1  0
 20 25  1  0
 21 22  1  0
 21 20  1  0
 23 22  1  0
 23 32  1  0
 23 24  1  0
 25 24  1  0
 26 19  2  0
 27 28  1  0
 29 30  2  0
 30 49  1  0
 31 30  1  0
 31 34  1  0
 32 33  1  0
 32 29  1  0
 33 31  2  0
 34 35  1  0
 35 36  2  0
 37 40  1  0
 37 36  1  0
 38 37  2  0
 39 38  1  0
 39 34  2  0
 40 41  1  0
 41 46  2  0
 41 42  1  0
 42 43  2  0
 43 44  1  0
 44 48  1  0
 45 44  2  0
 46 45  1  0
 47 46  1  0
 49 50  1  0
 50 53  1  0
 50 52  1  0
 51 49  2  0
 54 29  1  0
 54 55  1  0
 56 54  1  0
 57  6  1  0
 58 57  1  0
 59 61  1  0
 59 58  1  0
 60 71  2  0
 61 66  1  0
 62 70  1  0
 62 72  1  0
 63 69  1  0
 63 65  1  0
 64 70  1  0
 65 64  1  0
 66 65  2  0
 67 68  1  0
 67 61  2  0
 68 63  2  0
 69 62  1  0
 70 60  1  0
 72 74  2  0
 73 72  1  0
 75 73  1  0
 76 85  2  0
 76 81  1  0
 77 73  1  0
 77 81  1  0
 78 77  1  0
 79 80  1  0
 79 78  1  0
 80 76  1  0
 81 82  2  0
 82 83  1  0
 84 83  2  0
 85 84  1  0
 86 60  1  0
 86 91  1  0
 86 87  1  0
 87 90  1  1
 87 88  1  0
 89 87  1  0
 91 94  1  0
 92 96  1  0
 92 91  1  0
 93 92  2  0
 96 95  1  0
 98 96  1  0
 98 99  1  0
 98 97  1  0
M  ISO  4  19 100  27 100  58 101  59 101
M  END
>  <TORSDO>  (51) 
F 25

>  <SCORE>  (51) 
-8.167

>  <name>  (51) 
51

>  <ligand_id>  (51) 
51

>  <original_smiles>  (51) 
[H]c1c([H])c([H])c2c(c1[H])C([H])([H])C([H])([H])C([H])([H])C2([H])N([H])C(=O)C1([H])N(C(=O)C([H])(N([H])C(=O)C([H])(N([H])C([H])([H])[H])C([H])([H])[H])C(C([H])([H])[H])(C([H])([H])[H])C([H])([H])[H])C([H])([H])c2c([H])c(OC([H])([H])C([H])([H])c3c([H])c(C([H])([H])C([H])(C([H])([H])C([H])([H])[H])C([H])([H])C([H])(C([H])([H])N([H])C(=O)N4C([H])([H])C([H])([H])C([H])([H])C([H])(n5nc(-c6c([H])c([H])c(Oc7c([H])c([H])c(F)c([H])c7F)c([H])c6[H])c(C(=O)N([H])[H])c5N([H])[H])C4([H])[H])[N+]([H])([H])[H])c([H])c([H])c3C([H])([H])[H])c([H])c([H])c2C1([H])[H]

>  <smiles>  (51) 
[H]c1c([H])c([H])c2c(c1[H])C([H])([H])C([H])([H])C([H])([H])C2([H])N([H])C(=O)C1([H])N(C(=O)C([H])(N([H])C(=O)C([H])(N([H])C([H])([H])[H])C([H])([H])[H])C(C([H])([H])[H])(C([H])([H])[H])C([H])([H])[H])C([H])([H])c2c([H])c(OC([H])([H])C([H])([H])c3c([H])c(C([H])([H])C([H])(C([H])([H])C([H])([H])[H])C([H])([H])C([H])(C([H])([H])N([H])C(=O)N4C([H])([H])C([H])([H])C([H])([H])C([H])(n5nc(-c6c([H])c([H])c(Oc7c([H])c([H])c(F)c([H])c7F)c([H])c6[H])c(C(=O)N([H])[H])c5N([H])[H])C4([H])[H])[N+]([H])([H])[H])c([H])c([H])c3C([H])([H])[H])c([H])c([H])c2C1([H])[H]

$$$$
53:0:0
     RDKit          3D

 93101  0  0  1  0  0  0  0  0999 V2000
  -29.7130  -22.4370   21.2690 C   0  0  0  0  0  3  0  0  0  0  0  0
  -31.8430  -22.7860   20.6780 C   0  0  0  0  0  3  0  0  0  0  0  0
  -30.9520  -21.7880   20.9720 C   0  0  0  0  0  0  0  0  0  0  0  0
  -29.8870  -23.7960   21.1770 C   0  0  0  0  0  0  0  0  0  0  0  0
  -31.8230  -25.2980   20.5300 C   0  0  0  0  0  1  0  0  0  0  0  0
  -31.2010  -24.0090   20.7830 N   0  0  0  0  0  0  0  0  0  0  0  0
  -31.3690  -20.3540   20.9610 C   0  0  0  0  0  0  0  0  0  0  0  0
  -32.5590  -20.0260   20.9170 O   0  0  0  0  0  0  0  0  0  0  0  0
  -30.2630  -19.2850   20.9600 C   0  0  0  0  0  2  0  0  0  0  0  0
  -30.7270  -17.8240   21.2320 C   0  0  0  0  0  2  0  0  0  0  0  0
  -29.7120  -16.8080   20.6690 C   0  0  0  0  0  2  0  0  0  0  0  0
  -30.6120  -14.4750   20.4930 C   0  0  0  0  0  0  0  0  0  0  0  0
  -30.3570  -12.3290   19.3080 C   0  0  0  0  0  2  0  0  0  0  0  0
  -29.4050  -12.5550   18.1120 C   0  0  0  0  0  2  0  0  0  0  0  0
  -27.9300  -12.4100   18.5400 C   0  0  0  0  0  2  0  0  0  0  0  0
  -27.5970  -13.2220   19.8200 C   0  0  0  0  0  3  0  0  0  0  0  0
  -28.6510  -12.9520   20.9190 C   0  0  0  0  0  2  0  0  0  0  0  0
  -29.9830  -13.2750   20.3710 N   0  0  0  0  0  0  0  0  0  0  0  0
  -31.6870  -14.7390   19.9460 O   0  0  0  0  0  0  0  0  0  0  0  0
  -29.8770  -15.4170   21.1070 N   0  0  0  0  0  0  0  0  0  0  0  0
  -29.0880  -15.0420   21.6160 H   0  0  0  0  0  0  0  0  0  0  0  0
  -25.1900  -13.8280   20.5130 C   0  0  0  0  0  0  0  0  0  0  0  0
  -24.1230  -13.0540   20.8840 C   0  0  0  0  0  0  0  0  0  0  0  0
  -24.5900  -11.7030   20.8580 C   0  0  0  0  0  0  0  0  0  0  0  0
  -26.2400  -12.9480   20.2900 N   0  0  0  0  0  0  0  0  0  0  0  0
  -25.8790  -11.6660   20.5510 N   0  0  0  0  0  0  0  0  0  0  0  0
  -23.8690  -10.4380   21.0530 C   0  0  0  0  0  0  0  0  0  0  0  0
  -24.3100   -9.4730   21.9840 C   0  0  0  0  0  3  0  0  0  0  0  0
  -23.5910   -8.2720   22.1660 C   0  0  0  0  0  3  0  0  0  0  0  0
  -22.4160   -8.0290   21.4160 C   0  0  0  0  0  0  0  0  0  0  0  0
  -21.9930   -8.9830   20.4750 C   0  0  0  0  0  3  0  0  0  0  0  0
  -22.7130  -10.1750   20.2900 C   0  0  0  0  0  3  0  0  0  0  0  0
  -21.6680   -6.8800   21.5080 O   0  0  0  0  0  0  0  0  0  0  0  0
  -21.6330   -6.1330   22.6580 C   0  0  0  0  0  0  0  0  0  0  0  0
  -21.2090   -6.6800   23.8890 C   0  0  0  0  0  3  0  0  0  0  0  0
  -21.1230   -5.8580   25.0300 C   0  0  0  0  0  3  0  0  0  0  0  0
  -21.4490   -4.4910   24.9430 C   0  0  0  0  0  0  0  0  0  0  0  0
  -21.8670   -3.9440   23.7170 C   0  0  0  0  0  3  0  0  0  0  0  0
  -21.9550   -4.7630   22.5770 C   0  0  0  0  0  0  0  0  0  0  0  0
  -22.3370   -4.2270   21.3930 F   0  0  0  0  0  0  0  0  0  0  0  0
  -21.3590   -3.7010   26.0380 F   0  0  0  0  0  0  0  0  0  0  0  0
  -22.7240  -13.5260   21.1560 C   0  0  0  0  0  0  0  0  0  0  0  0
  -21.9990  -12.8290   22.0240 N   0  0  0  0  0  0  0  0  0  0  0  0
  -22.2810  -14.5480   20.6320 O   0  0  0  0  0  0  0  0  0  0  0  0
  -22.3700  -12.0030   22.4700 H   0  0  0  0  0  0  0  0  0  0  0  0
  -21.0600  -13.1270   22.2470 H   0  0  0  0  0  0  0  0  0  0  0  0
  -25.3520  -15.1970   20.3300 N   0  0  0  0  0  0  0  0  0  0  0  0
  -24.5840  -15.8530   20.4300 H   0  0  0  0  0  0  0  0  0  0  0  0
  -26.2030  -15.6330   19.9960 H   0  0  0  0  0  0  0  0  0  0  0  0
  -28.9410  -24.9410   21.4530 C   0  0  0  0  0  2  0  0  0  0  0  0
  -28.1470  -25.3270   20.2920 N   0  0  0  0  0  0  0  0  0  0  0  0
  -27.1690  -25.2530   20.5560 H   0  0  0  0  0  0  0  0  0  0  0  0
  -28.3610  -26.7510   20.0840 O   0  0  0  0  0  0  0  0  0  0  0  0
  -24.5670  -31.9000   23.2340 C   0  0  0  0  0  0  0  0  0  0  0  0
  -27.1790  -27.4590   20.1210 C   0  0  0  0  0  0  0  0  0  0  0  0
  -23.3430  -30.5050   21.5990 C   0  0  0  0  0  3  0  0  0  0  0  0
  -24.7820  -28.9650   20.1600 C   0  0  0  0  0  0  0  0  0  0  0  0
  -25.8680  -30.8540   21.3840 C   0  0  0  0  0  2  0  0  0  0  0  0
  -25.9440  -29.4820   20.7470 C   0  0  0  0  0  0  0  0  0  0  0  0
  -27.1410  -28.7320   20.7360 C   0  0  0  0  0  3  0  0  0  0  0  0
  -26.0020  -26.9620   19.5130 C   0  0  0  0  0  3  0  0  0  0  0  0
  -24.8050  -27.7020   19.5450 C   0  0  0  0  0  3  0  0  0  0  0  0
  -23.5400  -29.8260   20.2160 C   0  0  0  0  0  2  0  0  0  0  0  0
  -24.6110  -31.1020   22.1300 N   0  0  0  0  0  0  0  0  0  0  0  0
  -23.4910  -32.1750   23.7830 O   0  0  0  0  0  0  0  0  0  0  0  0
  -22.6980  -29.4840   22.5610 C   0  0  0  0  0  0  0  0  0  0  0  0
  -21.3730  -29.2970   22.4360 N   0  0  0  0  0  0  0  0  0  0  0  0
  -23.3850  -28.8600   23.3750 O   0  0  0  0  0  0  0  0  0  0  0  0
  -20.8820  -29.8530   21.7510 H   0  0  0  0  0  0  0  0  0  0  0  0
  -18.0040  -28.0920   22.9350 C   0  0  0  0  0  0  0  0  0  0  0  0
  -20.5610  -28.3600   23.2090 C   0  0  0  0  0  3  0  0  0  0  0  0
  -20.6680  -26.9270   22.6360 C   0  0  0  0  0  2  0  0  0  0  0  0
  -19.5680  -26.5990   21.6220 C   0  0  0  0  0  2  0  0  0  0  0  0
  -18.1860  -26.7410   22.2640 C   0  0  0  0  0  2  0  0  0  0  0  0
  -19.1200  -28.8590   23.3640 C   0  0  0  0  0  0  0  0  0  0  0  0
  -18.8980  -30.1240   23.9510 C   0  0  0  0  0  3  0  0  0  0  0  0
  -17.5910  -30.6230   24.1130 C   0  0  0  0  0  3  0  0  0  0  0  0
  -16.4900  -29.8540   23.6990 C   0  0  0  0  0  3  0  0  0  0  0  0
  -16.6970  -28.5900   23.1180 C   0  0  0  0  0  3  0  0  0  0  0  0
  -25.8610  -32.5250   23.8440 C   0  0  0  0  0  3  0  0  0  0  0  0
  -25.5630  -33.9240   24.1740 N   0  0  0  0  0  0  0  0  0  0  0  0
  -25.9010  -34.9730   23.4130 C   0  0  0  0  0  0  0  0  0  0  0  0
  -26.5690  -34.8640   22.3820 O   0  0  0  0  0  0  0  0  0  0  0  0
  -24.9680  -34.0830   24.9760 H   0  0  0  0  0  0  0  0  0  0  0  0
  -24.1890  -36.7790   23.0500 C   0  0  0  0  0  1  0  0  0  0  0  0
  -25.4220  -36.3650   23.8690 C   0  0  0  0  0  3  0  0  0  0  0  0
  -27.5580  -37.2300   24.7140 C   0  0  0  0  0  1  0  0  0  0  0  0
  -26.4640  -37.4090   23.7630 N   0  0  0  0  0  0  0  0  0  0  0  0
  -26.0640  -38.3320   23.9100 H   0  0  0  0  0  0  0  0  0  0  0  0
  -26.3850  -31.7500   25.1160 C   0  0  1  0  0  0  0  0  0  0  0  0
  -25.3010  -31.5170   26.1920 C   0  0  0  0  0  1  0  0  0  0  0  0
  -26.9600  -30.3710   24.7150 C   0  0  0  0  0  1  0  0  0  0  0  0
  -27.5460  -32.5390   25.7680 C   0  0  0  0  0  1  0  0  0  0  0  0
  2  6  1  0
  2  3  2  0
  3  1  1  0
  4  1  2  0
  4 50  1  0
  5  6  1  0
  6  4  1  0
  7  3  1  0
  8  7  2  0
  9  7  1  0
  9 10  1  0
 11 20  1  0
 11 10  1  0
 12 20  1  0
 13 18  1  0
 14 15  1  0
 14 13  1  0
 16 15  1  0
 16 25  1  0
 16 17  1  0
 18 12  1  0
 18 17  1  0
 19 12  2  0
 20 21  1  0
 22 23  2  0
 23 42  1  0
 24 23  1  0
 24 27  1  0
 25 22  1  0
 25 26  1  0
 26 24  2  0
 27 28  1  0
 28 29  2  0
 30 33  1  0
 30 29  1  0
 31 30  2  0
 32 31  1  0
 32 27  2  0
 33 34  1  0
 34 35  1  0
 35 36  2  0
 37 36  1  0
 37 41  1  0
 38 37  2  0
 39 34  2  0
 39 38  1  0
 40 39  1  0
 42 43  1  0
 43 46  1  0
 43 45  1  0
 44 42  2  0
 47 48  1  0
 47 22  1  0
 49 47  1  0
 51 52  1  0
 51 50  1  0
 53 55  1  0
 53 51  1  0
 54 65  2  0
 55 60  1  0
 56 64  1  0
 56 66  1  0
 57 63  1  0
 57 59  1  0
 58 64  1  0
 59 58  1  0
 60 59  2  0
 61 62  1  0
 61 55  2  0
 62 57  2  0
 63 56  1  0
 64 54  1  0
 66 68  2  0
 67 66  1  0
 69 67  1  0
 70 79  2  0
 70 75  1  0
 71 67  1  0
 71 75  1  0
 72 71  1  0
 73 74  1  0
 73 72  1  0
 74 70  1  0
 75 76  2  0
 76 77  1  0
 78 77  2  0
 79 78  1  0
 80 54  1  0
 80 81  1  0
 80 90  1  0
 81 84  1  0
 82 86  1  0
 82 81  1  0
 83 82  2  0
 86 85  1  0
 88 86  1  0
 88 89  1  0
 88 87  1  0
 90 93  1  1
 90 91  1  0
 92 90  1  0
M  ISO  4  12 100  20 100  51 101  53 101
M  END
>  <TORSDO>  (52) 
F 22

>  <SCORE>  (52) 
-13.237

>  <name>  (52) 
53

>  <ligand_id>  (52) 
53

>  <original_smiles>  (52) 
[H]c1c([H])c([H])c2c(c1[H])C([H])([H])C([H])([H])C([H])([H])C2([H])N([H])C(=O)C1([H])N(C(=O)C([H])(N([H])C(=O)C([H])(N([H])C([H])([H])[H])C([H])([H])[H])C(C([H])([H])[H])(C([H])([H])[H])C([H])([H])[H])C([H])([H])c2c([H])c(ON([H])C([H])([H])c3c([H])c(C(=O)C([H])([H])C([H])([H])C([H])([H])N([H])C(=O)N4C([H])([H])C([H])([H])C([H])([H])C([H])(n5nc(-c6c([H])c([H])c(Oc7c([H])c([H])c(F)c([H])c7F)c([H])c6[H])c(C(=O)N([H])[H])c5N([H])[H])C4([H])[H])c([H])n3C([H])([H])[H])c([H])c([H])c2C1([H])[H]

>  <smiles>  (52) 
[H]c1c([H])c([H])c2c(c1[H])C([H])([H])C([H])([H])C([H])([H])C2([H])N([H])C(=O)C1([H])N(C(=O)C([H])(N([H])C(=O)C([H])(N([H])C([H])([H])[H])C([H])([H])[H])C(C([H])([H])[H])(C([H])([H])[H])C([H])([H])[H])C([H])([H])c2c([H])c(ON([H])C([H])([H])c3c([H])c(C(=O)C([H])([H])C([H])([H])C([H])([H])N([H])C(=O)N4C([H])([H])C([H])([H])C([H])([H])C([H])(n5nc(-c6c([H])c([H])c(Oc7c([H])c([H])c(F)c([H])c7F)c([H])c6[H])c(C(=O)N([H])[H])c5N([H])[H])C4([H])[H])c([H])n3C([H])([H])[H])c([H])c([H])c2C1([H])[H]

$$$$
54:0:0
     RDKit          3D

 95103  0  0  1  0  0  0  0  0999 V2000
  -28.2540  -18.3160   20.5760 C   0  0  0  0  0  3  0  0  0  0  0  0
  -27.4010  -19.2490   19.9580 C   0  0  0  0  0  3  0  0  0  0  0  0
  -29.8630  -20.0900   21.0090 C   0  0  0  0  0  3  0  0  0  0  0  0
  -29.0280  -21.0330   20.3630 C   0  0  0  0  0  0  0  0  0  0  0  0
  -29.4920  -18.7290   21.0970 C   0  0  0  0  0  0  0  0  0  0  0  0
  -27.7800  -20.6020   19.8390 C   0  0  0  0  0  0  0  0  0  0  0  0
  -26.9100  -21.4640   19.2310 O   0  0  0  0  0  0  0  0  0  0  0  0
  -26.1260  -21.0350   18.9050 H   0  0  0  0  0  0  0  0  0  0  0  0
  -29.4960  -22.4500   20.3160 C   0  0  0  0  0  0  0  0  0  0  0  0
  -30.1090  -22.9810   21.2480 O   0  0  0  0  0  0  0  0  0  0  0  0
  -29.3360  -23.2060   18.9900 C   0  0  0  0  0  2  0  0  0  0  0  0
  -28.3230  -24.3750   19.0040 C   0  0  0  0  0  2  0  0  0  0  0  0
  -28.5230  -25.4120   20.1280 C   0  0  0  0  0  2  0  0  0  0  0  0
  -28.5150  -26.7580   19.6510 O   0  0  0  0  0  0  0  0  0  0  0  0
  -24.5840  -31.6230   23.0170 C   0  0  0  0  0  0  0  0  0  0  0  0
  -27.3160  -27.4250   19.7070 C   0  0  0  0  0  0  0  0  0  0  0  0
  -23.4050  -30.2920   21.2950 C   0  0  0  0  0  3  0  0  0  0  0  0
  -24.8890  -28.8620   19.7960 C   0  0  0  0  0  0  0  0  0  0  0  0
  -25.9210  -30.7170   21.1180 C   0  0  0  0  0  2  0  0  0  0  0  0
  -26.0350  -29.3850   20.4080 C   0  0  0  0  0  0  0  0  0  0  0  0
  -27.2530  -28.6770   20.3560 C   0  0  0  0  0  3  0  0  0  0  0  0
  -26.1540  -26.9070   19.0960 C   0  0  0  0  0  3  0  0  0  0  0  0
  -24.9410  -27.6210   19.1370 C   0  0  0  0  0  3  0  0  0  0  0  0
  -23.6300  -29.6920   19.8820 C   0  0  0  0  0  2  0  0  0  0  0  0
  -24.6560  -30.8870   21.8710 N   0  0  0  0  0  0  0  0  0  0  0  0
  -23.4970  -31.8440   23.5680 O   0  0  0  0  0  0  0  0  0  0  0  0
  -22.7730  -29.2070   22.1960 C   0  0  0  0  0  0  0  0  0  0  0  0
  -21.4460  -29.0420   22.0890 N   0  0  0  0  0  0  0  0  0  0  0  0
  -23.4730  -28.5180   22.9430 O   0  0  0  0  0  0  0  0  0  0  0  0
  -20.9410  -29.6490   21.4600 H   0  0  0  0  0  0  0  0  0  0  0  0
  -18.0740  -27.8450   22.5930 C   0  0  0  0  0  0  0  0  0  0  0  0
  -20.6420  -28.0550   22.8090 C   0  0  0  0  0  3  0  0  0  0  0  0
  -20.7120  -26.6710   22.1240 C   0  0  0  0  0  2  0  0  0  0  0  0
  -19.5780  -26.4370   21.1200 C   0  0  0  0  0  2  0  0  0  0  0  0
  -18.2160  -26.5490   21.8120 C   0  0  0  0  0  2  0  0  0  0  0  0
  -19.2140  -28.5610   23.0460 C   0  0  0  0  0  0  0  0  0  0  0  0
  -19.0270  -29.7790   23.7340 C   0  0  0  0  0  3  0  0  0  0  0  0
  -17.7340  -30.2800   23.9720 C   0  0  0  0  0  3  0  0  0  0  0  0
  -16.6100  -29.5600   23.5340 C   0  0  0  0  0  3  0  0  0  0  0  0
  -16.7810  -28.3440   22.8500 C   0  0  0  0  0  3  0  0  0  0  0  0
  -25.8580  -32.2400   23.6730 C   0  0  0  0  0  3  0  0  0  0  0  0
  -25.5450  -33.6340   24.0200 N   0  0  0  0  0  0  0  0  0  0  0  0
  -25.9090  -34.6980   23.2920 C   0  0  0  0  0  0  0  0  0  0  0  0
  -26.6140  -34.6100   22.2810 O   0  0  0  0  0  0  0  0  0  0  0  0
  -24.9280  -33.7790   24.8060 H   0  0  0  0  0  0  0  0  0  0  0  0
  -24.2040  -36.5050   22.9020 C   0  0  0  0  0  1  0  0  0  0  0  0
  -25.4100  -36.0790   23.7560 C   0  0  0  0  0  3  0  0  0  0  0  0
  -27.5080  -36.9390   24.6950 C   0  0  0  0  0  1  0  0  0  0  0  0
  -26.4510  -37.1280   23.7060 N   0  0  0  0  0  0  0  0  0  0  0  0
  -26.0420  -38.0480   23.8490 H   0  0  0  0  0  0  0  0  0  0  0  0
  -26.3500  -31.4460   24.9450 C   0  0  1  0  0  0  0  0  0  0  0  0
  -25.2420  -31.2050   25.9940 C   0  0  0  0  0  1  0  0  0  0  0  0
  -26.9240  -30.0690   24.5360 C   0  0  0  0  0  1  0  0  0  0  0  0
  -27.5000  -32.2190   25.6340 C   0  0  0  0  0  1  0  0  0  0  0  0
  -30.4360  -17.7030   21.7160 C   0  0  0  0  0  2  0  0  0  0  0  0
  -31.3460  -17.4810   19.2910 C   0  0  0  0  0  1  0  0  0  0  0  0
  -31.2010  -16.8240   20.6870 C   0  0  0  0  0  3  0  0  0  0  0  0
  -31.1920  -14.4000   20.0630 C   0  0  0  0  0  0  0  0  0  0  0  0
  -30.7720  -12.1770   19.0960 C   0  0  0  0  0  2  0  0  0  0  0  0
  -29.8290  -12.3090   17.8860 C   0  0  0  0  0  2  0  0  0  0  0  0
  -28.3590  -12.2480   18.3380 C   0  0  0  0  0  2  0  0  0  0  0  0
  -28.0560  -13.2130   19.5170 C   0  0  0  0  0  3  0  0  0  0  0  0
  -29.1150  -13.0790   20.6340 C   0  0  0  0  0  2  0  0  0  0  0  0
  -30.4450  -13.2650   20.0310 N   0  0  0  0  0  0  0  0  0  0  0  0
  -32.3060  -14.4820   19.5410 O   0  0  0  0  0  0  0  0  0  0  0  0
  -30.6050  -15.4790   20.6030 N   0  0  0  0  0  0  0  0  0  0  0  0
  -29.6790  -15.3520   20.9820 H   0  0  0  0  0  0  0  0  0  0  0  0
  -25.7320  -13.9610   20.3350 C   0  0  0  0  0  0  0  0  0  0  0  0
  -24.6220  -13.2520   20.7080 C   0  0  0  0  0  0  0  0  0  0  0  0
  -24.9790  -11.8720   20.6000 C   0  0  0  0  0  0  0  0  0  0  0  0
  -26.7010  -13.0180   20.0290 N   0  0  0  0  0  0  0  0  0  0  0  0
  -26.2520  -11.7550   20.2470 N   0  0  0  0  0  0  0  0  0  0  0  0
  -24.1680  -10.6590   20.7590 C   0  0  0  0  0  0  0  0  0  0  0  0
  -24.4950   -9.6720   21.7160 C   0  0  0  0  0  3  0  0  0  0  0  0
  -23.6880   -8.5230   21.8620 C   0  0  0  0  0  3  0  0  0  0  0  0
  -22.5400   -8.3530   21.0520 C   0  0  0  0  0  0  0  0  0  0  0  0
  -22.2310   -9.3280   20.0870 C   0  0  0  0  0  3  0  0  0  0  0  0
  -23.0370  -10.4690   19.9390 C   0  0  0  0  0  3  0  0  0  0  0  0
  -21.7110   -7.2580   21.1070 O   0  0  0  0  0  0  0  0  0  0  0  0
  -21.4860   -6.5850   22.2820 C   0  0  0  0  0  0  0  0  0  0  0  0
  -20.9230   -7.2210   23.4090 C   0  0  0  0  0  3  0  0  0  0  0  0
  -20.6440   -6.4750   24.5720 C   0  0  0  0  0  3  0  0  0  0  0  0
  -20.9160   -5.0940   24.6060 C   0  0  0  0  0  0  0  0  0  0  0  0
  -21.4720   -4.4580   23.4820 C   0  0  0  0  0  3  0  0  0  0  0  0
  -21.7540   -5.2020   22.3230 C   0  0  0  0  0  0  0  0  0  0  0  0
  -22.2700   -4.5790   21.2360 F   0  0  0  0  0  0  0  0  0  0  0  0
  -20.6410   -4.3760   25.7210 F   0  0  0  0  0  0  0  0  0  0  0  0
  -23.2720  -13.8160   21.0470 C   0  0  0  0  0  0  0  0  0  0  0  0
  -22.5310  -13.1460   21.9220 N   0  0  0  0  0  0  0  0  0  0  0  0
  -22.8890  -14.8850   20.5740 O   0  0  0  0  0  0  0  0  0  0  0  0
  -22.8550  -12.2810   22.3250 H   0  0  0  0  0  0  0  0  0  0  0  0
  -21.6240  -13.5020   22.1900 H   0  0  0  0  0  0  0  0  0  0  0  0
  -25.9940  -15.3210   20.2080 N   0  0  0  0  0  0  0  0  0  0  0  0
  -25.2780  -16.0240   20.3490 H   0  0  0  0  0  0  0  0  0  0  0  0
  -26.8510  -15.7020   19.8280 H   0  0  0  0  0  0  0  0  0  0  0  0
  1  5  1  0
  2  1  2  0
  3  5  2  0
  4  3  1  0
  5 55  1  0
  6  2  1  0
  6  4  2  0
  7  6  1  0
  8  7  1  0
  9  4  1  0
  9 10  2  0
 11 12  1  0
 11  9  1  0
 12 13  1  0
 14 16  1  0
 14 13  1  0
 15 26  2  0
 16 21  1  0
 17 25  1  0
 17 27  1  0
 18 24  1  0
 18 20  1  0
 19 25  1  0
 20 19  1  0
 21 20  2  0
 22 23  1  0
 22 16  2  0
 23 18  2  0
 24 17  1  0
 25 15  1  0
 27 29  2  0
 28 27  1  0
 30 28  1  0
 31 40  2  0
 31 36  1  0
 32 28  1  0
 32 36  1  0
 33 32  1  0
 34 35  1  0
 34 33  1  0
 35 31  1  0
 36 37  2  0
 37 38  1  0
 39 38  2  0
 40 39  1  0
 41 15  1  0
 41 42  1  0
 41 51  1  0
 42 45  1  0
 43 47  1  0
 43 42  1  0
 44 43  2  0
 47 46  1  0
 49 47  1  0
 49 50  1  0
 49 48  1  0
 51 54  1  1
 51 52  1  0
 53 51  1  0
 57 56  1  0
 57 55  1  0
 58 66  1  0
 59 64  1  0
 60 61  1  0
 60 59  1  0
 62 61  1  0
 62 71  1  0
 62 63  1  0
 64 58  1  0
 64 63  1  0
 65 58  2  0
 66 57  1  0
 66 67  1  0
 68 69  2  0
 69 88  1  0
 70 69  1  0
 70 73  1  0
 71 72  1  0
 71 68  1  0
 72 70  2  0
 73 74  1  0
 74 75  2  0
 76 79  1  0
 76 75  1  0
 77 76  2  0
 78 77  1  0
 78 73  2  0
 79 80  1  0
 80 85  2  0
 80 81  1  0
 81 82  2  0
 82 83  1  0
 83 87  1  0
 84 83  2  0
 85 84  1  0
 86 85  1  0
 88 89  1  0
 89 92  1  0
 89 91  1  0
 90 88  2  0
 93 68  1  0
 93 94  1  0
 95 93  1  0
M  ISO  4  13 101  14 101  58 100  66 100
M  END
>  <TORSDO>  (53) 
F 23

>  <SCORE>  (53) 
-12.019

>  <name>  (53) 
54

>  <ligand_id>  (53) 
54

>  <original_smiles>  (53) 
[H]Oc1c([H])c([H])c(C([H])([H])C([H])(N([H])C(=O)N2C([H])([H])C([H])([H])C([H])([H])C([H])(n3nc(-c4c([H])c([H])c(Oc5c([H])c([H])c(F)c([H])c5F)c([H])c4[H])c(C(=O)N([H])[H])c3N([H])[H])C2([H])[H])C([H])([H])[H])c([H])c1C(=O)C([H])([H])C([H])([H])C([H])([H])Oc1c([H])c([H])c2c(c1[H])C([H])([H])N(C(=O)C([H])(N([H])C(=O)C([H])(N([H])C([H])([H])[H])C([H])([H])[H])C(C([H])([H])[H])(C([H])([H])[H])C([H])([H])[H])C([H])(C(=O)N([H])C1([H])c3c([H])c([H])c([H])c([H])c3C([H])([H])C([H])([H])C1([H])[H])C2([H])[H]

>  <smiles>  (53) 
[H]Oc1c([H])c([H])c(C([H])([H])C([H])(N([H])C(=O)N2C([H])([H])C([H])([H])C([H])([H])C([H])(n3nc(-c4c([H])c([H])c(Oc5c([H])c([H])c(F)c([H])c5F)c([H])c4[H])c(C(=O)N([H])[H])c3N([H])[H])C2([H])[H])C([H])([H])[H])c([H])c1C(=O)C([H])([H])C([H])([H])C([H])([H])Oc1c([H])c([H])c2c(c1[H])C([H])([H])N(C(=O)C([H])(N([H])C(=O)C([H])(N([H])C([H])([H])[H])C([H])([H])[H])C(C([H])([H])[H])(C([H])([H])[H])C([H])([H])[H])C([H])(C(=O)N([H])C1([H])c3c([H])c([H])c([H])c([H])c3C([H])([H])C([H])([H])C1([H])[H])C2([H])[H]

$$$$
55:0:0
     RDKit          3D

103111  0  0  1  0  0  0  0  0999 V2000
  -29.2410  -20.4140   20.6660 C   0  0  0  0  0  3  0  0  0  0  0  0
  -29.3910  -21.8760   22.6050 C   0  0  0  0  0  3  0  0  0  0  0  0
  -31.2030  -20.3160   22.1100 C   0  0  0  0  0  3  0  0  0  0  0  0
  -28.7000  -21.4580   21.4440 C   0  0  0  0  0  0  0  0  0  0  0  0
  -30.5140  -19.8860   20.9550 C   0  0  0  0  0  0  0  0  0  0  0  0
  -30.6330  -21.2990   22.9420 C   0  0  0  0  0  0  0  0  0  0  0  0
  -27.4110  -22.1080   21.0700 C   0  0  0  0  0  0  0  0  0  0  0  0
  -26.6510  -22.6030   21.9060 O   0  0  0  0  0  0  0  0  0  0  0  0
  -27.0480  -22.2330   19.5760 C   0  0  0  0  0  2  0  0  0  0  0  0
  -28.1290  -22.7700   18.5890 C   0  0  0  0  0  2  0  0  0  0  0  0
  -28.9820  -23.8750   19.0910 N   0  0  0  0  0  4  0  0  0  0  0  0
  -29.7340  -24.0030   18.4260 H   0  0  0  0  0  0  0  0  0  0  0  0
  -29.4120  -23.6370   19.9740 H   0  0  0  0  0  0  0  0  0  0  0  0
  -28.2610  -25.1580   19.1780 C   0  0  0  0  0  2  0  0  0  0  0  0
  -28.9670  -26.2130   20.0430 C   0  0  0  0  0  2  0  0  0  0  0  0
  -28.7460  -27.5460   19.5910 O   0  0  0  0  0  0  0  0  0  0  0  0
  -24.5630  -32.0110   23.2040 C   0  0  0  0  0  0  0  0  0  0  0  0
  -27.4900  -28.0870   19.7320 C   0  0  0  0  0  0  0  0  0  0  0  0
  -23.4350  -30.6550   21.4720 C   0  0  0  0  0  3  0  0  0  0  0  0
  -24.9740  -29.3610   19.9150 C   0  0  0  0  0  0  0  0  0  0  0  0
  -25.9190  -31.2370   21.2660 C   0  0  0  0  0  2  0  0  0  0  0  0
  -26.0960  -29.9310   20.5270 C   0  0  0  0  0  0  0  0  0  0  0  0
  -27.3540  -29.3000   20.4370 C   0  0  0  0  0  3  0  0  0  0  0  0
  -26.3460  -27.5370   19.1050 C   0  0  0  0  0  3  0  0  0  0  0  0
  -25.0930  -28.1570   19.2050 C   0  0  0  0  0  3  0  0  0  0  0  0
  -23.6700  -30.1110   20.0390 C   0  0  0  0  0  2  0  0  0  0  0  0
  -24.6580  -31.3110   22.0390 N   0  0  0  0  0  0  0  0  0  0  0  0
  -23.4750  -32.1480   23.7820 O   0  0  0  0  0  0  0  0  0  0  0  0
  -22.8960  -29.5030   22.3500 C   0  0  0  0  0  0  0  0  0  0  0  0
  -21.5890  -29.2200   22.2240 N   0  0  0  0  0  0  0  0  0  0  0  0
  -23.6460  -28.8740   23.1010 O   0  0  0  0  0  0  0  0  0  0  0  0
  -21.0390  -29.7900   21.5970 H   0  0  0  0  0  0  0  0  0  0  0  0
  -18.3350  -27.7100   22.6490 C   0  0  0  0  0  0  0  0  0  0  0  0
  -20.8650  -28.1620   22.9290 C   0  0  0  0  0  3  0  0  0  0  0  0
  -21.0810  -26.7920   22.2440 C   0  0  0  0  0  2  0  0  0  0  0  0
  -19.9970  -26.4530   21.2160 C   0  0  0  0  0  2  0  0  0  0  0  0
  -18.6160  -26.4320   21.8750 C   0  0  0  0  0  2  0  0  0  0  0  0
  -19.3910  -28.5280   23.1300 C   0  0  0  0  0  0  0  0  0  0  0  0
  -19.0740  -29.7220   23.8120 C   0  0  0  0  0  3  0  0  0  0  0  0
  -17.7350  -30.1000   24.0200 C   0  0  0  0  0  3  0  0  0  0  0  0
  -16.6940  -29.2780   23.5570 C   0  0  0  0  0  3  0  0  0  0  0  0
  -16.9940  -28.0840   22.8770 C   0  0  0  0  0  3  0  0  0  0  0  0
  -25.8090  -32.6930   23.8500 C   0  0  0  0  0  3  0  0  0  0  0  0
  -25.4180  -34.0560   24.2320 N   0  0  0  0  0  0  0  0  0  0  0  0
  -25.6900  -35.1530   23.5120 C   0  0  0  0  0  0  0  0  0  0  0  0
  -26.3700  -35.1280   22.4820 O   0  0  0  0  0  0  0  0  0  0  0  0
  -24.8200  -34.1450   25.0390 H   0  0  0  0  0  0  0  0  0  0  0  0
  -23.8540  -36.8430   23.2060 C   0  0  0  0  0  1  0  0  0  0  0  0
  -25.1140  -36.4910   24.0150 C   0  0  0  0  0  3  0  0  0  0  0  0
  -27.1890  -37.4710   24.8870 C   0  0  0  0  0  1  0  0  0  0  0  0
  -26.0810  -37.6100   23.9450 N   0  0  0  0  0  0  0  0  0  0  0  0
  -25.6190  -38.4970   24.1230 H   0  0  0  0  0  0  0  0  0  0  0  0
  -26.3700  -31.9030   25.0960 C   0  0  1  0  0  0  0  0  0  0  0  0
  -25.2950  -31.5570   26.1530 C   0  0  0  0  0  1  0  0  0  0  0  0
  -27.0320  -30.5790   24.6470 C   0  0  0  0  0  1  0  0  0  0  0  0
  -27.4740  -32.7340   25.7890 C   0  0  0  0  0  1  0  0  0  0  0  0
  -31.3030  -21.7020   24.0590 O   0  0  0  0  0  0  0  0  0  0  0  0
  -30.8280  -22.3430   24.5800 H   0  0  0  0  0  0  0  0  0  0  0  0
  -31.1240  -18.8790   19.9840 C   0  0  0  0  0  3  0  0  0  0  0  0
  -32.2590  -19.4750   19.2620 N   0  0  0  0  0  4  0  0  0  0  0  0
  -32.9990  -19.7180   19.8950 H   0  0  0  0  0  0  0  0  0  0  0  0
  -31.9690  -20.3090   18.7860 H   0  0  0  0  0  0  0  0  0  0  0  0
  -32.6190  -18.8360   18.5750 H   0  0  0  0  0  0  0  0  0  0  0  0
  -31.4400  -17.4860   20.5760 C   0  0  0  0  0  2  0  0  0  0  0  0
  -30.3550  -16.8940   21.5170 C   0  0  0  0  0  2  0  0  0  0  0  0
  -30.8880  -14.4440   20.9800 C   0  0  0  0  0  0  0  0  0  0  0  0
  -30.6790  -12.1760   20.0420 C   0  0  0  0  0  2  0  0  0  0  0  0
  -29.8680  -12.2350   18.7320 C   0  0  0  0  0  2  0  0  0  0  0  0
  -28.3580  -12.1460   19.0200 C   0  0  0  0  0  2  0  0  0  0  0  0
  -27.8990  -13.1300   20.1290 C   0  0  0  0  0  3  0  0  0  0  0  0
  -28.8290  -13.0340   21.3580 C   0  0  0  0  0  2  0  0  0  0  0  0
  -30.2160  -13.2670   20.9080 N   0  0  0  0  0  0  0  0  0  0  0  0
  -32.0140  -14.6130   20.5080 O   0  0  0  0  0  0  0  0  0  0  0  0
  -30.1750  -15.4370   21.5240 N   0  0  0  0  0  0  0  0  0  0  0  0
  -29.2960  -15.1230   21.9110 H   0  0  0  0  0  0  0  0  0  0  0  0
  -25.4700  -13.8230   20.6290 C   0  0  0  0  0  0  0  0  0  0  0  0
  -24.3510  -13.0870   20.9140 C   0  0  0  0  0  0  0  0  0  0  0  0
  -24.7710  -11.7210   20.9300 C   0  0  0  0  0  0  0  0  0  0  0  0
  -26.5020  -12.9080   20.4930 N   0  0  0  0  0  0  0  0  0  0  0  0
  -26.0780  -11.6400   20.7290 N   0  0  0  0  0  0  0  0  0  0  0  0
  -23.9930  -10.4830   21.0710 C   0  0  0  0  0  0  0  0  0  0  0  0
  -24.3680   -9.4740   21.9860 C   0  0  0  0  0  3  0  0  0  0  0  0
  -23.5930   -8.3020   22.1140 C   0  0  0  0  0  3  0  0  0  0  0  0
  -22.4300   -8.1290   21.3260 C   0  0  0  0  0  0  0  0  0  0  0  0
  -22.0740   -9.1270   20.4020 C   0  0  0  0  0  3  0  0  0  0  0  0
  -22.8490  -10.2920   20.2720 C   0  0  0  0  0  3  0  0  0  0  0  0
  -21.6310   -7.0110   21.3660 O   0  0  0  0  0  0  0  0  0  0  0  0
  -21.5920   -6.1930   22.4660 C   0  0  0  0  0  0  0  0  0  0  0  0
  -21.2420   -6.6800   23.7450 C   0  0  0  0  0  3  0  0  0  0  0  0
  -21.1480   -5.7930   24.8350 C   0  0  0  0  0  3  0  0  0  0  0  0
  -21.3900   -4.4190   24.6480 C   0  0  0  0  0  0  0  0  0  0  0  0
  -21.7320   -3.9320   23.3740 C   0  0  0  0  0  3  0  0  0  0  0  0
  -21.8290   -4.8160   22.2860 C   0  0  0  0  0  0  0  0  0  0  0  0
  -22.1390   -4.3390   21.0560 F   0  0  0  0  0  0  0  0  0  0  0  0
  -21.2890   -3.5630   25.6920 F   0  0  0  0  0  0  0  0  0  0  0  0
  -22.9520  -13.6090   21.0700 C   0  0  0  0  0  0  0  0  0  0  0  0
  -22.1390  -12.9510   21.8900 N   0  0  0  0  0  0  0  0  0  0  0  0
  -22.5850  -14.6370   20.5020 O   0  0  0  0  0  0  0  0  0  0  0  0
  -22.4460  -12.1180   22.3690 H   0  0  0  0  0  0  0  0  0  0  0  0
  -21.1980  -13.2850   22.0390 H   0  0  0  0  0  0  0  0  0  0  0  0
  -25.6920  -15.1860   20.4560 N   0  0  0  0  0  0  0  0  0  0  0  0
  -24.9400  -15.8640   20.4990 H   0  0  0  0  0  0  0  0  0  0  0  0
  -26.5810  -15.5940   20.1990 H   0  0  0  0  0  0  0  0  0  0  0  0
  1  5  2  0
  1  4  1  0
  2  6  1  0
  3  6  2  0
  4  2  2  0
  5  3  1  0
  6 57  1  0
  7  4  1  0
  7  8  2  0
  9  7  1  0
 10 11  1  0
 10  9  1  0
 11 14  1  0
 11 13  1  0
 12 11  1  0
 14 15  1  0
 16 18  1  0
 16 15  1  0
 17 28  2  0
 18 23  1  0
 19 27  1  0
 19 29  1  0
 20 26  1  0
 20 22  1  0
 21 27  1  0
 22 21  1  0
 23 22  2  0
 24 25  1  0
 24 18  2  0
 25 20  2  0
 26 19  1  0
 27 17  1  0
 29 31  2  0
 30 29  1  0
 32 30  1  0
 33 42  2  0
 33 38  1  0
 34 30  1  0
 34 38  1  0
 35 34  1  0
 36 37  1  0
 36 35  1  0
 37 33  1  0
 38 39  2  0
 39 40  1  0
 41 40  2  0
 42 41  1  0
 43 17  1  0
 43 44  1  0
 43 53  1  0
 44 47  1  0
 45 49  1  0
 45 44  1  0
 46 45  2  0
 49 48  1  0
 51 49  1  0
 51 52  1  0
 51 50  1  0
 53 56  1  1
 53 54  1  0
 55 53  1  0
 57 58  1  0
 59 64  1  0
 59  5  1  0
 60 61  1  0
 60 59  1  0
 62 60  1  0
 63 60  1  0
 64 65  1  0
 65 74  1  0
 66 74  1  0
 67 72  1  0
 68 69  1  0
 68 67  1  0
 70 69  1  0
 70 79  1  0
 70 71  1  0
 72 66  1  0
 72 71  1  0
 73 66  2  0
 74 75  1  0
 76 77  2  0
 77 78  1  0
 77 96  1  0
 78 81  1  0
 79 76  1  0
 79 80  1  0
 80 78  2  0
 81 82  1  0
 82 83  2  0
 84 87  1  0
 84 83  1  0
 85 84  2  0
 86 85  1  0
 86 81  2  0
 87 88  1  0
 88 89  1  0
 89 90  2  0
 91 90  1  0
 91 95  1  0
 92 91  2  0
 93 88  2  0
 93 92  1  0
 94 93  1  0
 96 97  1  0
 97100  1  0
 97 99  1  0
 98 96  2  0
101102  1  0
101 76  1  0
103101  1  0
M  ISO  4  15 101  16 101  66 100  74 100
M  END
>  <TORSDO>  (54) 
F 27

>  <SCORE>  (54) 
-11.177

>  <name>  (54) 
55

>  <ligand_id>  (54) 
55

>  <original_smiles>  (54) 
[H]Oc1c([H])c(C(=O)C([H])([H])C([H])([H])[N+]([H])([H])C([H])([H])C([H])([H])Oc2c([H])c([H])c3c(c2[H])C([H])([H])N(C(=O)C([H])(N([H])C(=O)C([H])(N([H])C([H])([H])[H])C([H])([H])[H])C(C([H])([H])[H])(C([H])([H])[H])C([H])([H])[H])C([H])(C(=O)N([H])C2([H])c4c([H])c([H])c([H])c([H])c4C([H])([H])C([H])([H])C2([H])[H])C3([H])[H])c([H])c(C([H])(C([H])([H])C([H])([H])N([H])C(=O)N2C([H])([H])C([H])([H])C([H])([H])C([H])(n3nc(-c4c([H])c([H])c(Oc5c([H])c([H])c(F)c([H])c5F)c([H])c4[H])c(C(=O)N([H])[H])c3N([H])[H])C2([H])[H])[N+]([H])([H])[H])c1[H]

>  <smiles>  (54) 
[H]Oc1c([H])c(C(=O)C([H])([H])C([H])([H])[N+]([H])([H])C([H])([H])C([H])([H])Oc2c([H])c([H])c3c(c2[H])C([H])([H])N(C(=O)C([H])(N([H])C(=O)C([H])(N([H])C([H])([H])[H])C([H])([H])[H])C(C([H])([H])[H])(C([H])([H])[H])C([H])([H])[H])C([H])(C(=O)N([H])C2([H])c4c([H])c([H])c([H])c([H])c4C([H])([H])C([H])([H])C2([H])[H])C3([H])[H])c([H])c(C([H])(C([H])([H])C([H])([H])N([H])C(=O)N2C([H])([H])C([H])([H])C([H])([H])C([H])(n3nc(-c4c([H])c([H])c(Oc5c([H])c([H])c(F)c([H])c5F)c([H])c4[H])c(C(=O)N([H])[H])c3N([H])[H])C2([H])[H])[N+]([H])([H])[H])c1[H]

$$$$
56:0:0
     RDKit          3D

 90 97  0  0  1  0  0  0  0  0999 V2000
  -28.2020  -21.9040   19.6050 C   0  0  0  0  0  0  0  0  0  0  0  0
  -27.8830  -22.9620   20.3550 N   0  0  0  0  0  0  0  0  0  0  0  0
  -28.9890  -21.9650   18.6570 O   0  0  0  0  0  0  0  0  0  0  0  0
  -27.2940  -22.7860   21.1610 H   0  0  0  0  0  0  0  0  0  0  0  0
  -27.4120  -20.6250   19.8630 C   0  0  0  0  0  2  0  0  0  0  0  0
  -28.0940  -19.6140   20.7940 C   0  0  0  0  0  2  0  0  0  0  0  0
  -29.3200  -18.8960   20.1930 C   0  0  0  0  0  2  0  0  0  0  0  0
  -29.5920  -17.5760   20.9250 C   0  0  0  0  0  2  0  0  0  0  0  0
  -30.7070  -16.7310   20.2990 C   0  0  0  0  0  2  0  0  0  0  0  0
  -31.0830  -14.3050   19.9870 C   0  0  0  0  0  0  0  0  0  0  0  0
  -30.6660  -12.1260   18.9290 C   0  0  0  0  0  2  0  0  0  0  0  0
  -29.6770  -12.3370   17.7640 C   0  0  0  0  0  2  0  0  0  0  0  0
  -28.2280  -12.2240   18.2740 C   0  0  0  0  0  2  0  0  0  0  0  0
  -27.9660  -13.1070   19.5210 C   0  0  0  0  0  3  0  0  0  0  0  0
  -29.0710  -12.9090   20.5870 C   0  0  0  0  0  2  0  0  0  0  0  0
  -30.3790  -13.1450   19.9480 N   0  0  0  0  0  0  0  0  0  0  0  0
  -32.1460  -14.4860   19.3840 O   0  0  0  0  0  0  0  0  0  0  0  0
  -30.4610  -15.3210   20.5890 N   0  0  0  0  0  0  0  0  0  0  0  0
  -29.6080  -15.0960   21.0770 H   0  0  0  0  0  0  0  0  0  0  0  0
  -25.6190  -13.7760   20.3460 C   0  0  0  0  0  0  0  0  0  0  0  0
  -24.5550  -13.0280   20.7740 C   0  0  0  0  0  0  0  0  0  0  0  0
  -24.9800  -11.6660   20.7190 C   0  0  0  0  0  0  0  0  0  0  0  0
  -26.6320  -12.8680   20.0690 N   0  0  0  0  0  0  0  0  0  0  0  0
  -26.2520  -11.5940   20.3470 N   0  0  0  0  0  0  0  0  0  0  0  0
  -24.2340  -10.4220   20.9520 C   0  0  0  0  0  0  0  0  0  0  0  0
  -24.6320   -9.5000   21.9460 C   0  0  0  0  0  3  0  0  0  0  0  0
  -23.8940   -8.3180   22.1630 C   0  0  0  0  0  3  0  0  0  0  0  0
  -22.7400   -8.0490   21.3880 C   0  0  0  0  0  0  0  0  0  0  0  0
  -22.3630   -8.9570   20.3830 C   0  0  0  0  0  3  0  0  0  0  0  0
  -23.1030  -10.1330   20.1640 C   0  0  0  0  0  3  0  0  0  0  0  0
  -21.9750   -6.9150   21.5130 O   0  0  0  0  0  0  0  0  0  0  0  0
  -21.8080   -6.2880   22.7210 C   0  0  0  0  0  0  0  0  0  0  0  0
  -21.2450   -6.9490   23.8320 C   0  0  0  0  0  3  0  0  0  0  0  0
  -21.0270   -6.2460   25.0330 C   0  0  0  0  0  3  0  0  0  0  0  0
  -21.3660   -4.8810   25.1220 C   0  0  0  0  0  0  0  0  0  0  0  0
  -21.9250   -4.2210   24.0130 C   0  0  0  0  0  3  0  0  0  0  0  0
  -22.1420   -4.9220   22.8150 C   0  0  0  0  0  0  0  0  0  0  0  0
  -22.6610   -4.2750   21.7420 F   0  0  0  0  0  0  0  0  0  0  0  0
  -21.1510   -4.2020   26.2730 F   0  0  0  0  0  0  0  0  0  0  0  0
  -23.1860  -13.5370   21.1250 C   0  0  0  0  0  0  0  0  0  0  0  0
  -22.5020  -12.8600   22.0410 N   0  0  0  0  0  0  0  0  0  0  0  0
  -22.7350  -14.5640   20.6220 O   0  0  0  0  0  0  0  0  0  0  0  0
  -22.8830  -12.0290   22.4650 H   0  0  0  0  0  0  0  0  0  0  0  0
  -21.5860  -13.1760   22.3220 H   0  0  0  0  0  0  0  0  0  0  0  0
  -25.8040  -15.1400   20.1480 N   0  0  0  0  0  0  0  0  0  0  0  0
  -25.0480  -15.8070   20.2630 H   0  0  0  0  0  0  0  0  0  0  0  0
  -26.6320  -15.5460   19.7300 H   0  0  0  0  0  0  0  0  0  0  0  0
  -27.8120  -24.3080   19.7990 C   0  0  0  0  0  2  0  0  0  0  0  0
  -28.3110  -25.4160   20.7520 C   0  0  0  0  0  2  0  0  0  0  0  0
  -28.4010  -26.7180   20.1470 O   0  0  0  0  0  0  0  0  0  0  0  0
  -24.5950  -31.8650   23.2800 C   0  0  0  0  0  0  0  0  0  0  0  0
  -27.2440  -27.4670   20.1470 C   0  0  0  0  0  0  0  0  0  0  0  0
  -23.4020  -30.4960   21.6030 C   0  0  0  0  0  3  0  0  0  0  0  0
  -24.8640  -28.9920   20.1570 C   0  0  0  0  0  0  0  0  0  0  0  0
  -25.9320  -30.8470   21.4400 C   0  0  0  0  0  2  0  0  0  0  0  0
  -26.0180  -29.4880   20.7800 C   0  0  0  0  0  0  0  0  0  0  0  0
  -27.2100  -28.7270   20.7850 C   0  0  0  0  0  3  0  0  0  0  0  0
  -26.0900  -27.0190   19.4710 C   0  0  0  0  0  3  0  0  0  0  0  0
  -24.8940  -27.7530   19.5060 C   0  0  0  0  0  3  0  0  0  0  0  0
  -23.6240  -29.8530   20.2090 C   0  0  0  0  0  2  0  0  0  0  0  0
  -24.6610  -31.0810   22.1670 N   0  0  0  0  0  0  0  0  0  0  0  0
  -23.5090  -32.1320   23.8120 O   0  0  0  0  0  0  0  0  0  0  0  0
  -22.7440  -29.4520   22.5380 C   0  0  0  0  0  0  0  0  0  0  0  0
  -21.4280  -29.2410   22.3680 N   0  0  0  0  0  0  0  0  0  0  0  0
  -23.4180  -28.8330   23.3660 O   0  0  0  0  0  0  0  0  0  0  0  0
  -20.9420  -29.7910   21.6730 H   0  0  0  0  0  0  0  0  0  0  0  0
  -18.0690  -27.9820   22.7560 C   0  0  0  0  0  0  0  0  0  0  0  0
  -20.6080  -28.2890   23.1170 C   0  0  0  0  0  3  0  0  0  0  0  0
  -20.7620  -26.8570   22.5550 C   0  0  0  0  0  2  0  0  0  0  0  0
  -19.7020  -26.5080   21.5050 C   0  0  0  0  0  2  0  0  0  0  0  0
  -18.2970  -26.6310   22.1010 C   0  0  0  0  0  2  0  0  0  0  0  0
  -19.1550  -28.7660   23.2220 C   0  0  0  0  0  0  0  0  0  0  0  0
  -18.8930  -30.0290   23.7970 C   0  0  0  0  0  3  0  0  0  0  0  0
  -17.5720  -30.5050   23.9190 C   0  0  0  0  0  3  0  0  0  0  0  0
  -16.4990  -29.7130   23.4750 C   0  0  0  0  0  3  0  0  0  0  0  0
  -16.7490  -28.4570   22.8980 C   0  0  0  0  0  3  0  0  0  0  0  0
  -25.8760  -32.4760   23.9220 C   0  0  0  0  0  3  0  0  0  0  0  0
  -25.5830  -33.8810   24.2400 N   0  0  0  0  0  0  0  0  0  0  0  0
  -25.9490  -34.9220   23.4810 C   0  0  0  0  0  0  0  0  0  0  0  0
  -26.6450  -34.8010   22.4690 O   0  0  0  0  0  0  0  0  0  0  0  0
  -24.9640  -34.0550   25.0200 H   0  0  0  0  0  0  0  0  0  0  0  0
  -24.2650  -36.7400   23.0610 C   0  0  0  0  0  1  0  0  0  0  0  0
  -25.4700  -36.3180   23.9160 C   0  0  0  0  0  3  0  0  0  0  0  0
  -27.5850  -37.1740   24.8230 C   0  0  0  0  0  1  0  0  0  0  0  0
  -26.5220  -37.3520   23.8360 N   0  0  0  0  0  0  0  0  0  0  0  0
  -26.1260  -38.2800   23.9610 H   0  0  0  0  0  0  0  0  0  0  0  0
  -26.3610  -31.7020   25.2080 C   0  0  1  0  0  0  0  0  0  0  0  0
  -25.2490  -31.4720   26.2560 C   0  0  0  0  0  1  0  0  0  0  0  0
  -26.9390  -30.3200   24.8270 C   0  0  0  0  0  1  0  0  0  0  0  0
  -27.5050  -32.4880   25.8920 C   0  0  0  0  0  1  0  0  0  0  0  0
  1  5  1  0
  1  2  1  0
  2  4  1  0
  3  1  2  0
  5  6  1  0
  7  6  1  0
  7  8  1  0
  9 18  1  0
  9  8  1  0
 10 18  1  0
 11 16  1  0
 12 13  1  0
 12 11  1  0
 14 13  1  0
 14 23  1  0
 14 15  1  0
 16 10  1  0
 16 15  1  0
 17 10  2  0
 18 19  1  0
 20 21  2  0
 21 40  1  0
 22 21  1  0
 22 25  1  0
 23 20  1  0
 23 24  1  0
 24 22  2  0
 25 26  1  0
 26 27  2  0
 28 31  1  0
 28 27  1  0
 29 28  2  0
 30 29  1  0
 30 25  2  0
 31 32  1  0
 32 37  2  0
 32 33  1  0
 33 34  2  0
 34 35  1  0
 35 39  1  0
 36 35  2  0
 37 36  1  0
 38 37  1  0
 40 41  1  0
 41 44  1  0
 41 43  1  0
 42 40  2  0
 45 46  1  0
 45 20  1  0
 47 45  1  0
 48  2  1  0
 48 49  1  0
 50 49  1  0
 51 62  2  0
 52 50  1  0
 52 57  1  0
 53 61  1  0
 53 63  1  0
 54 60  1  0
 54 56  1  0
 55 61  1  0
 56 57  2  0
 56 55  1  0
 58 59  1  0
 58 52  2  0
 59 54  2  0
 60 53  1  0
 61 51  1  0
 63 65  2  0
 64 63  1  0
 66 64  1  0
 67 76  2  0
 67 72  1  0
 68 64  1  0
 68 72  1  0
 69 68  1  0
 70 71  1  0
 70 69  1  0
 71 67  1  0
 72 73  2  0
 73 74  1  0
 75 74  2  0
 76 75  1  0
 77 51  1  0
 77 78  1  0
 77 87  1  0
 78 81  1  0
 79 83  1  0
 79 78  1  0
 80 79  2  0
 83 82  1  0
 85 83  1  0
 85 86  1  0
 85 84  1  0
 87 90  1  1
 87 88  1  0
 89 87  1  0
M  ISO  4  10 100  18 100  49 101  50 101
M  END
>  <TORSDO>  (55) 
F 23

>  <SCORE>  (55) 
-11.818

>  <name>  (55) 
56

>  <ligand_id>  (55) 
56

>  <original_smiles>  (55) 
[H]c1c([H])c([H])c2c(c1[H])C([H])([H])C([H])([H])C([H])([H])C2([H])N([H])C(=O)C1([H])N(C(=O)C([H])(N([H])C(=O)C([H])(N([H])C([H])([H])[H])C([H])([H])[H])C(C([H])([H])[H])(C([H])([H])[H])C([H])([H])[H])C([H])([H])c2c([H])c(OC([H])([H])C([H])([H])N([H])C(=O)C([H])([H])C([H])([H])C([H])([H])C([H])([H])C([H])([H])N([H])C(=O)N3C([H])([H])C([H])([H])C([H])([H])C([H])(n4nc(-c5c([H])c([H])c(Oc6c([H])c([H])c(F)c([H])c6F)c([H])c5[H])c(C(=O)N([H])[H])c4N([H])[H])C3([H])[H])c([H])c([H])c2C1([H])[H]

>  <smiles>  (55) 
[H]c1c([H])c([H])c2c(c1[H])C([H])([H])C([H])([H])C([H])([H])C2([H])N([H])C(=O)C1([H])N(C(=O)C([H])(N([H])C(=O)C([H])(N([H])C([H])([H])[H])C([H])([H])[H])C(C([H])([H])[H])(C([H])([H])[H])C([H])([H])[H])C([H])([H])c2c([H])c(OC([H])([H])C([H])([H])N([H])C(=O)C([H])([H])C([H])([H])C([H])([H])C([H])([H])C([H])([H])N([H])C(=O)N3C([H])([H])C([H])([H])C([H])([H])C([H])(n4nc(-c5c([H])c([H])c(Oc6c([H])c([H])c(F)c([H])c6F)c([H])c5[H])c(C(=O)N([H])[H])c4N([H])[H])C3([H])[H])c([H])c([H])c2C1([H])[H]

$$$$
57:0:0
     RDKit          3D

 90 97  0  0  1  0  0  0  0  0999 V2000
  -30.5850  -23.3290   22.4620 C   0  0  0  0  0  3  0  0  0  0  0  0
  -30.1900  -23.8340   21.2780 C   0  0  0  0  0  3  0  0  0  0  0  0
  -31.1070  -21.9630   22.6310 C   0  0  0  0  0  0  0  0  0  0  0  0
  -31.0790  -21.3960   23.7250 O   0  0  0  0  0  0  0  0  0  0  0  0
  -31.7460  -21.2370   21.4380 C   0  0  0  0  0  2  0  0  0  0  0  0
  -30.9760  -19.9860   20.9770 C   0  0  0  0  0  2  0  0  0  0  0  0
  -31.2790  -18.7350   21.8190 C   0  0  0  0  0  2  0  0  0  0  0  0
  -30.5950  -17.4780   21.2700 C   0  0  0  0  0  2  0  0  0  0  0  0
  -30.9930  -16.2160   22.0520 C   0  0  0  0  0  2  0  0  0  0  0  0
  -30.7180  -14.3390   20.4360 C   0  0  0  0  0  0  0  0  0  0  0  0
  -30.3150  -12.3210   19.0770 C   0  0  0  0  0  2  0  0  0  0  0  0
  -29.3420  -12.5990   17.9170 C   0  0  0  0  0  2  0  0  0  0  0  0
  -27.8820  -12.4400   18.3780 C   0  0  0  0  0  2  0  0  0  0  0  0
  -27.5840  -13.2210   19.6850 C   0  0  0  0  0  3  0  0  0  0  0  0
  -28.6560  -12.9230   20.7560 C   0  0  0  0  0  2  0  0  0  0  0  0
  -29.9840  -13.2260   20.1870 N   0  0  0  0  0  0  0  0  0  0  0  0
  -31.6990  -14.6770   19.7660 O   0  0  0  0  0  0  0  0  0  0  0  0
  -30.3380  -15.0280   21.5190 N   0  0  0  0  0  0  0  0  0  0  0  0
  -29.5480  -14.6620   22.0300 H   0  0  0  0  0  0  0  0  0  0  0  0
  -25.1850  -13.8070   20.4250 C   0  0  0  0  0  0  0  0  0  0  0  0
  -24.1310  -13.0230   20.8120 C   0  0  0  0  0  0  0  0  0  0  0  0
  -24.6070  -11.6770   20.7750 C   0  0  0  0  0  0  0  0  0  0  0  0
  -26.2370  -12.9370   20.1800 N   0  0  0  0  0  0  0  0  0  0  0  0
  -25.8910  -11.6510   20.4450 N   0  0  0  0  0  0  0  0  0  0  0  0
  -23.8980  -10.4070   20.9780 C   0  0  0  0  0  0  0  0  0  0  0  0
  -24.3520   -9.4500   21.9120 C   0  0  0  0  0  3  0  0  0  0  0  0
  -23.6440   -8.2430   22.1020 C   0  0  0  0  0  3  0  0  0  0  0  0
  -22.4670   -7.9860   21.3590 C   0  0  0  0  0  0  0  0  0  0  0  0
  -22.0330   -8.9320   20.4140 C   0  0  0  0  0  3  0  0  0  0  0  0
  -22.7410  -10.1300   20.2220 C   0  0  0  0  0  3  0  0  0  0  0  0
  -21.7290   -6.8320   21.4570 O   0  0  0  0  0  0  0  0  0  0  0  0
  -21.6980   -6.0940   22.6150 C   0  0  0  0  0  0  0  0  0  0  0  0
  -21.2880   -6.6540   23.8450 C   0  0  0  0  0  3  0  0  0  0  0  0
  -21.2050   -5.8420   24.9940 C   0  0  0  0  0  3  0  0  0  0  0  0
  -21.5210   -4.4730   24.9140 C   0  0  0  0  0  0  0  0  0  0  0  0
  -21.9230   -3.9130   23.6890 C   0  0  0  0  0  3  0  0  0  0  0  0
  -22.0080   -4.7210   22.5420 C   0  0  0  0  0  0  0  0  0  0  0  0
  -22.3760   -4.1720   21.3600 F   0  0  0  0  0  0  0  0  0  0  0  0
  -21.4330   -3.6910   26.0160 F   0  0  0  0  0  0  0  0  0  0  0  0
  -22.7330  -13.4860   21.1080 C   0  0  0  0  0  0  0  0  0  0  0  0
  -22.0270  -12.7790   21.9840 N   0  0  0  0  0  0  0  0  0  0  0  0
  -22.2750  -14.5080   20.5990 O   0  0  0  0  0  0  0  0  0  0  0  0
  -22.4110  -11.9540   22.4200 H   0  0  0  0  0  0  0  0  0  0  0  0
  -21.0900  -13.0700   22.2230 H   0  0  0  0  0  0  0  0  0  0  0  0
  -25.3330  -15.1800   20.2440 N   0  0  0  0  0  0  0  0  0  0  0  0
  -24.5660  -15.8310   20.3700 H   0  0  0  0  0  0  0  0  0  0  0  0
  -26.1840  -15.6250   19.9240 H   0  0  0  0  0  0  0  0  0  0  0  0
  -29.7580  -25.2720   21.0810 C   0  0  0  0  0  2  0  0  0  0  0  0
  -28.3980  -25.4530   20.3930 C   0  0  0  0  0  2  0  0  0  0  0  0
  -28.3540  -26.8380   20.0910 O   0  0  0  0  0  0  0  0  0  0  0  0
  -24.5440  -31.9130   23.2290 C   0  0  0  0  0  0  0  0  0  0  0  0
  -27.1460  -27.4800   20.1410 C   0  0  0  0  0  0  0  0  0  0  0  0
  -23.3110  -30.5090   21.6030 C   0  0  0  0  0  3  0  0  0  0  0  0
  -24.7430  -28.9540   20.1770 C   0  0  0  0  0  0  0  0  0  0  0  0
  -25.8300  -30.8690   21.3710 C   0  0  0  0  0  2  0  0  0  0  0  0
  -25.9040  -29.4950   20.7410 C   0  0  0  0  0  0  0  0  0  0  0  0
  -27.1080  -28.7660   20.7150 C   0  0  0  0  0  3  0  0  0  0  0  0
  -25.9690  -26.9320   19.5870 C   0  0  0  0  0  3  0  0  0  0  0  0
  -24.7680  -27.6700   19.5990 C   0  0  0  0  0  3  0  0  0  0  0  0
  -23.5020  -29.8150   20.2260 C   0  0  0  0  0  2  0  0  0  0  0  0
  -24.5810  -31.1110   22.1270 N   0  0  0  0  0  0  0  0  0  0  0  0
  -23.4710  -32.1920   23.7810 O   0  0  0  0  0  0  0  0  0  0  0  0
  -22.6680  -29.4970   22.5760 C   0  0  0  0  0  0  0  0  0  0  0  0
  -21.3420  -29.3200   22.4610 N   0  0  0  0  0  0  0  0  0  0  0  0
  -23.3570  -28.8730   23.3880 O   0  0  0  0  0  0  0  0  0  0  0  0
  -20.8500  -29.8760   21.7750 H   0  0  0  0  0  0  0  0  0  0  0  0
  -17.9670  -28.1480   22.9830 C   0  0  0  0  0  0  0  0  0  0  0  0
  -20.5270  -28.3910   23.2400 C   0  0  0  0  0  3  0  0  0  0  0  0
  -20.6180  -26.9570   22.6690 C   0  0  0  0  0  2  0  0  0  0  0  0
  -19.5090  -26.6360   21.6630 C   0  0  0  0  0  2  0  0  0  0  0  0
  -18.1320  -26.7930   22.3150 C   0  0  0  0  0  2  0  0  0  0  0  0
  -19.0920  -28.9040   23.4030 C   0  0  0  0  0  0  0  0  0  0  0  0
  -18.8850  -30.1730   23.9870 C   0  0  0  0  0  3  0  0  0  0  0  0
  -17.5850  -30.6830   24.1560 C   0  0  0  0  0  3  0  0  0  0  0  0
  -16.4730  -29.9230   23.7530 C   0  0  0  0  0  3  0  0  0  0  0  0
  -16.6650  -28.6570   23.1720 C   0  0  0  0  0  3  0  0  0  0  0  0
  -25.8420  -32.5360   23.8330 C   0  0  0  0  0  3  0  0  0  0  0  0
  -25.5450  -33.9350   24.1710 N   0  0  0  0  0  0  0  0  0  0  0  0
  -25.8750  -34.9870   23.4090 C   0  0  0  0  0  0  0  0  0  0  0  0
  -26.5340  -34.8820   22.3710 O   0  0  0  0  0  0  0  0  0  0  0  0
  -24.9570  -34.0910   24.9770 H   0  0  0  0  0  0  0  0  0  0  0  0
  -24.1520  -36.7850   23.0720 C   0  0  0  0  0  1  0  0  0  0  0  0
  -25.3980  -36.3760   23.8720 C   0  0  0  0  0  3  0  0  0  0  0  0
  -27.5440  -37.2470   24.6840 C   0  0  0  0  0  1  0  0  0  0  0  0
  -26.4340  -37.4240   23.7520 N   0  0  0  0  0  0  0  0  0  0  0  0
  -26.0350  -38.3450   23.9070 H   0  0  0  0  0  0  0  0  0  0  0  0
  -26.3770  -31.7580   25.0970 C   0  0  1  0  0  0  0  0  0  0  0  0
  -25.3010  -31.5200   26.1810 C   0  0  0  0  0  1  0  0  0  0  0  0
  -26.9480  -30.3820   24.6860 C   0  0  0  0  0  1  0  0  0  0  0  0
  -27.5410  -32.5460   25.7440 C   0  0  0  0  0  1  0  0  0  0  0  0
  1  3  1  0
  2  1  2  0
  3  4  2  0
  5  3  1  0
  6  5  1  0
  6  7  1  0
  8  7  1  0
  8  9  1  0
 10 18  1  0
 11 16  1  0
 12 13  1  0
 12 11  1  0
 14 13  1  0
 14 23  1  0
 14 15  1  0
 16 10  1  0
 16 15  1  0
 17 10  2  0
 18 19  1  0
 18  9  1  0
 20 21  2  0
 21 40  1  0
 22 21  1  0
 22 25  1  0
 23 20  1  0
 23 24  1  0
 24 22  2  0
 25 26  1  0
 26 27  2  0
 28 31  1  0
 28 27  1  0
 29 28  2  0
 30 29  1  0
 30 25  2  0
 31 32  1  0
 32 33  1  0
 33 34  2  0
 35 34  1  0
 35 39  1  0
 36 35  2  0
 37 32  2  0
 37 36  1  0
 38 37  1  0
 40 41  1  0
 41 44  1  0
 41 43  1  0
 42 40  2  0
 45 46  1  0
 45 20  1  0
 47 45  1  0
 48  2  1  0
 49 48  1  0
 50 52  1  0
 50 49  1  0
 51 62  2  0
 52 57  1  0
 53 61  1  0
 53 63  1  0
 54 60  1  0
 54 56  1  0
 55 61  1  0
 56 55  1  0
 57 56  2  0
 58 59  1  0
 58 52  2  0
 59 54  2  0
 60 53  1  0
 61 51  1  0
 63 65  2  0
 64 63  1  0
 66 64  1  0
 67 76  2  0
 67 72  1  0
 68 64  1  0
 68 72  1  0
 69 68  1  0
 70 71  1  0
 70 69  1  0
 71 67  1  0
 72 73  2  0
 73 74  1  0
 75 74  2  0
 76 75  1  0
 77 51  1  0
 77 78  1  0
 77 87  1  0
 78 81  1  0
 79 83  1  0
 79 78  1  0
 80 79  2  0
 83 82  1  0
 85 83  1  0
 85 86  1  0
 85 84  1  0
 87 90  1  1
 87 88  1  0
 89 87  1  0
M  ISO  4  10 100  18 100  49 101  50 101
M  END
>  <TORSDO>  (56) 
F 24

>  <SCORE>  (56) 
-12.325

>  <name>  (56) 
57

>  <ligand_id>  (56) 
57

>  <original_smiles>  (56) 
[H]C(C(=O)C([H])([H])C([H])([H])C([H])([H])C([H])([H])C([H])([H])N([H])C(=O)N1C([H])([H])C([H])([H])C([H])([H])C([H])(n2nc(-c3c([H])c([H])c(Oc4c([H])c([H])c(F)c([H])c4F)c([H])c3[H])c(C(=O)N([H])[H])c2N([H])[H])C1([H])[H])=C([H])C([H])([H])C([H])([H])Oc1c([H])c([H])c2c(c1[H])C([H])([H])N(C(=O)C([H])(N([H])C(=O)C([H])(N([H])C([H])([H])[H])C([H])([H])[H])C(C([H])([H])[H])(C([H])([H])[H])C([H])([H])[H])C([H])(C(=O)N([H])C1([H])c3c([H])c([H])c([H])c([H])c3C([H])([H])C([H])([H])C1([H])[H])C2([H])[H]

>  <smiles>  (56) 
[H]C(C(=O)C([H])([H])C([H])([H])C([H])([H])C([H])([H])C([H])([H])N([H])C(=O)N1C([H])([H])C([H])([H])C([H])([H])C([H])(n2nc(-c3c([H])c([H])c(Oc4c([H])c([H])c(F)c([H])c4F)c([H])c3[H])c(C(=O)N([H])[H])c2N([H])[H])C1([H])[H])=C([H])C([H])([H])C([H])([H])Oc1c([H])c([H])c2c(c1[H])C([H])([H])N(C(=O)C([H])(N([H])C(=O)C([H])(N([H])C([H])([H])[H])C([H])([H])[H])C(C([H])([H])[H])(C([H])([H])[H])C([H])([H])[H])C([H])(C(=O)N([H])C1([H])c3c([H])c([H])c([H])c([H])c3C([H])([H])C([H])([H])C1([H])[H])C2([H])[H]

$$$$
58:0:0
     RDKit          3D

 99106  0  0  1  0  0  0  0  0999 V2000
  -22.8650  -22.4960   18.9560 C   0  0  0  0  0  2  0  0  0  0  0  0
  -23.3560  -22.5950   17.4950 C   0  0  0  0  0  2  0  0  0  0  0  0
  -23.9320  -21.2830   16.9180 C   0  0  0  0  0  2  0  0  0  0  0  0
  -26.1120  -20.9450   18.0620 C   0  0  0  0  0  0  0  0  0  0  0  0
  -24.8360  -20.6120   17.8460 N   0  0  0  0  0  0  0  0  0  0  0  0
  -26.7390  -21.7190   17.3360 O   0  0  0  0  0  0  0  0  0  0  0  0
  -24.4350  -19.9060   18.4520 H   0  0  0  0  0  0  0  0  0  0  0  0
  -26.7690  -20.3470   19.3000 C   0  0  0  0  0  2  0  0  0  0  0  0
  -27.9500  -19.4570   18.9150 C   0  0  0  0  0  2  0  0  0  0  0  0
  -28.4980  -18.6560   20.0980 C   0  0  0  0  0  2  0  0  0  0  0  0
  -29.5280  -17.6490   19.5940 C   0  0  0  0  0  2  0  0  0  0  0  0
  -29.8920  -16.5550   20.5970 C   0  0  0  0  0  2  0  0  0  0  0  0
  -31.5340  -14.6240   20.2380 C   0  0  0  0  0  0  0  0  0  0  0  0
  -31.1380  -12.3710   19.3620 C   0  0  0  0  0  2  0  0  0  0  0  0
  -30.2440  -12.4580   18.1110 C   0  0  0  0  0  2  0  0  0  0  0  0
  -28.7550  -12.4210   18.5070 C   0  0  0  0  0  2  0  0  0  0  0  0
  -28.4020  -13.4130   19.6510 C   0  0  0  0  0  3  0  0  0  0  0  0
  -29.4320  -13.2970   20.8030 C   0  0  0  0  0  2  0  0  0  0  0  0
  -30.7650  -13.5050   20.2200 N   0  0  0  0  0  0  0  0  0  0  0  0
  -32.7270  -14.6200   19.9470 O   0  0  0  0  0  0  0  0  0  0  0  0
  -30.9490  -15.7900   19.9650 N   0  0  0  0  0  0  0  0  0  0  0  0
  -31.6220  -16.3950   19.5190 H   0  0  0  0  0  0  0  0  0  0  0  0
  -26.0350  -14.1660   20.3260 C   0  0  0  0  0  0  0  0  0  0  0  0
  -24.9120  -13.4670   20.6690 C   0  0  0  0  0  0  0  0  0  0  0  0
  -25.2830  -12.0880   20.6270 C   0  0  0  0  0  0  0  0  0  0  0  0
  -27.0280  -13.2220   20.1090 N   0  0  0  0  0  0  0  0  0  0  0  0
  -26.5740  -11.9640   20.3440 N   0  0  0  0  0  0  0  0  0  0  0  0
  -24.4680  -10.8780   20.7850 C   0  0  0  0  0  0  0  0  0  0  0  0
  -24.7700   -9.9080   21.7670 C   0  0  0  0  0  3  0  0  0  0  0  0
  -23.9600   -8.7610   21.9110 C   0  0  0  0  0  3  0  0  0  0  0  0
  -22.8360   -8.5760   21.0720 C   0  0  0  0  0  0  0  0  0  0  0  0
  -22.5530   -9.5340   20.0840 C   0  0  0  0  0  3  0  0  0  0  0  0
  -23.3620  -10.6720   19.9380 C   0  0  0  0  0  3  0  0  0  0  0  0
  -22.0060   -7.4820   21.1290 O   0  0  0  0  0  0  0  0  0  0  0  0
  -21.7520   -6.8290   22.3080 C   0  0  0  0  0  0  0  0  0  0  0  0
  -21.2050   -7.4970   23.4260 C   0  0  0  0  0  3  0  0  0  0  0  0
  -20.8940   -6.7740   24.5940 C   0  0  0  0  0  3  0  0  0  0  0  0
  -21.1200   -5.3850   24.6460 C   0  0  0  0  0  0  0  0  0  0  0  0
  -21.6610   -4.7180   23.5330 C   0  0  0  0  0  3  0  0  0  0  0  0
  -21.9740   -5.4380   22.3670 C   0  0  0  0  0  0  0  0  0  0  0  0
  -22.4750   -4.7860   21.2900 F   0  0  0  0  0  0  0  0  0  0  0  0
  -20.8130   -4.6900   25.7660 F   0  0  0  0  0  0  0  0  0  0  0  0
  -23.5460  -14.0350   20.9270 C   0  0  0  0  0  0  0  0  0  0  0  0
  -22.7690  -13.3960   21.7910 N   0  0  0  0  0  0  0  0  0  0  0  0
  -23.1800  -15.0860   20.3990 O   0  0  0  0  0  0  0  0  0  0  0  0
  -23.0730  -12.5440   22.2400 H   0  0  0  0  0  0  0  0  0  0  0  0
  -21.8540  -13.7630   22.0110 H   0  0  0  0  0  0  0  0  0  0  0  0
  -26.2890  -15.5220   20.1640 N   0  0  0  0  0  0  0  0  0  0  0  0
  -25.5740  -16.2230   20.3190 H   0  0  0  0  0  0  0  0  0  0  0  0
  -27.1860  -15.9120   19.9050 H   0  0  0  0  0  0  0  0  0  0  0  0
  -23.0860  -23.7910   19.7600 C   0  0  0  0  0  2  0  0  0  0  0  0
  -24.0850  -23.6320   20.9300 C   0  0  0  0  0  2  0  0  0  0  0  0
  -25.5510  -23.3490   20.5100 C   0  0  0  0  0  2  0  0  0  0  0  0
  -26.5070  -23.8070   21.5510 N   0  0  0  0  0  4  0  0  0  0  0  0
  -26.3640  -23.2880   22.4060 H   0  0  0  0  0  0  0  0  0  0  0  0
  -26.2800  -24.7720   21.7450 H   0  0  0  0  0  0  0  0  0  0  0  0
  -27.9470  -23.7830   21.1800 C   0  0  0  0  0  2  0  0  0  0  0  0
  -28.7080  -25.0440   21.6710 C   0  0  0  0  0  2  0  0  0  0  0  0
  -28.7140  -26.1320   20.7360 O   0  0  0  0  0  0  0  0  0  0  0  0
  -24.5800  -31.3480   23.2970 C   0  0  0  0  0  0  0  0  0  0  0  0
  -27.5430  -26.8420   20.6450 C   0  0  0  0  0  0  0  0  0  0  0  0
  -23.5310  -29.8240   21.6550 C   0  0  0  0  0  3  0  0  0  0  0  0
  -25.1190  -28.2610   20.4210 C   0  0  0  0  0  0  0  0  0  0  0  0
  -26.0510  -30.2420   21.6240 C   0  0  0  0  0  2  0  0  0  0  0  0
  -26.2130  -28.8390   21.0800 C   0  0  0  0  0  0  0  0  0  0  0  0
  -27.4250  -28.1290   21.2100 C   0  0  0  0  0  3  0  0  0  0  0  0
  -26.4610  -26.3080   19.9190 C   0  0  0  0  0  3  0  0  0  0  0  0
  -25.2370  -26.9890   19.8370 C   0  0  0  0  0  3  0  0  0  0  0  0
  -23.8530  -29.0780   20.3320 C   0  0  0  0  0  2  0  0  0  0  0  0
  -24.7340  -30.4900   22.2500 N   0  0  0  0  0  0  0  0  0  0  0  0
  -23.4570  -31.6190   23.7420 O   0  0  0  0  0  0  0  0  0  0  0  0
  -22.8420  -28.8360   22.6220 C   0  0  0  0  0  0  0  0  0  0  0  0
  -21.5600  -28.5380   22.3550 N   0  0  0  0  0  0  0  0  0  0  0  0
  -23.4600  -28.3360   23.5650 O   0  0  0  0  0  0  0  0  0  0  0  0
  -21.1260  -28.9910   21.5610 H   0  0  0  0  0  0  0  0  0  0  0  0
  -18.2500  -27.1010   22.5370 C   0  0  0  0  0  0  0  0  0  0  0  0
  -20.7200  -27.6070   23.1090 C   0  0  0  0  0  3  0  0  0  0  0  0
  -21.0120  -26.1440   22.7020 C   0  0  0  0  0  2  0  0  0  0  0  0
  -20.0830  -25.6290   21.5950 C   0  0  0  0  0  2  0  0  0  0  0  0
  -18.6210  -25.7100   22.0490 C   0  0  0  0  0  2  0  0  0  0  0  0
  -19.2390  -27.9950   23.0220 C   0  0  0  0  0  0  0  0  0  0  0  0
  -18.8470  -29.2870   23.4370 C   0  0  0  0  0  3  0  0  0  0  0  0
  -17.4990  -29.6850   23.3810 C   0  0  0  0  0  3  0  0  0  0  0  0
  -16.5210  -28.7890   22.9160 C   0  0  0  0  0  3  0  0  0  0  0  0
  -16.8980  -27.5000   22.4990 C   0  0  0  0  0  3  0  0  0  0  0  0
  -25.8070  -32.0450   23.9650 C   0  0  0  0  0  3  0  0  0  0  0  0
  -25.4600  -33.4580   24.1550 N   0  0  0  0  0  0  0  0  0  0  0  0
  -25.8300  -34.4480   23.3310 C   0  0  0  0  0  0  0  0  0  0  0  0
  -26.5680  -34.2710   22.3590 O   0  0  0  0  0  0  0  0  0  0  0  0
  -24.8090  -33.6660   24.8970 H   0  0  0  0  0  0  0  0  0  0  0  0
  -24.0950  -36.1620   22.7240 C   0  0  0  0  0  1  0  0  0  0  0  0
  -25.2940  -35.8590   23.6350 C   0  0  0  0  0  3  0  0  0  0  0  0
  -27.3640  -36.8610   24.4990 C   0  0  0  0  0  1  0  0  0  0  0  0
  -26.3140  -36.9200   23.4850 N   0  0  0  0  0  0  0  0  0  0  0  0
  -25.8840  -37.8400   23.5260 H   0  0  0  0  0  0  0  0  0  0  0  0
  -26.2300  -31.3800   25.3340 C   0  0  1  0  0  0  0  0  0  0  0  0
  -25.0520  -31.1760   26.3130 C   0  0  0  0  0  1  0  0  0  0  0  0
  -26.8900  -30.0020   25.0910 C   0  0  0  0  0  1  0  0  0  0  0  0
  -27.2890  -32.2630   26.0380 C   0  0  0  0  0  1  0  0  0  0  0  0
  1 51  1  0
  2  1  1  0
  3  2  1  0
  3  5  1  0
  4  8  1  0
  5  4  1  0
  5  7  1  0
  6  4  2  0
  9  8  1  0
  9 10  1  0
 11 10  1  0
 11 12  1  0
 14 19  1  0
 15 16  1  0
 15 14  1  0
 17 16  1  0
 17 26  1  0
 17 18  1  0
 19 13  1  0
 19 18  1  0
 20 13  2  0
 21 13  1  0
 21 12  1  0
 22 21  1  0
 23 24  2  0
 24 43  1  0
 25 24  1  0
 25 28  1  0
 26 23  1  0
 26 27  1  0
 27 25  2  0
 28 29  1  0
 29 30  2  0
 31 34  1  0
 31 30  1  0
 32 31  2  0
 33 32  1  0
 33 28  2  0
 34 35  1  0
 35 40  2  0
 35 36  1  0
 36 37  2  0
 37 38  1  0
 38 42  1  0
 39 38  2  0
 40 39  1  0
 41 40  1  0
 43 44  1  0
 44 47  1  0
 44 46  1  0
 45 43  2  0
 48 49  1  0
 48 23  1  0
 50 48  1  0
 51 52  1  0
 53 52  1  0
 53 54  1  0
 54 56  1  0
 54 55  1  0
 57 54  1  0
 57 58  1  0
 59 58  1  0
 60 71  2  0
 61 59  1  0
 61 66  1  0
 62 70  1  0
 62 72  1  0
 63 65  1  0
 64 70  1  0
 65 66  2  0
 65 64  1  0
 67 61  2  0
 68 67  1  0
 68 63  2  0
 69 63  1  0
 69 62  1  0
 70 60  1  0
 72 74  2  0
 73 72  1  0
 75 73  1  0
 76 81  1  0
 77 73  1  0
 78 77  1  0
 79 80  1  0
 79 78  1  0
 80 76  1  0
 81 77  1  0
 81 82  2  0
 83 82  1  0
 84 83  2  0
 85 76  2  0
 85 84  1  0
 86 60  1  0
 86 87  1  0
 86 96  1  0
 87 90  1  0
 88 92  1  0
 88 87  1  0
 89 88  2  0
 92 91  1  0
 94 95  1  0
 94 92  1  0
 94 93  1  0
 96 99  1  1
 96 97  1  0
 98 96  1  0
M  ISO  4  13 100  21 100  58 101  59 101
M  END
>  <TORSDO>  (57) 
F 30

>  <SCORE>  (57) 
-8.944

>  <name>  (57) 
58

>  <ligand_id>  (57) 
58

>  <original_smiles>  (57) 
[H]c1c([H])c([H])c2c(c1[H])C([H])([H])C([H])([H])C([H])([H])C2([H])N([H])C(=O)C1([H])N(C(=O)C([H])(N([H])C(=O)C([H])(N([H])C([H])([H])[H])C([H])([H])[H])C(C([H])([H])[H])(C([H])([H])[H])C([H])([H])[H])C([H])([H])c2c([H])c(OC([H])([H])C([H])([H])[N+]([H])([H])C([H])([H])C([H])([H])C([H])([H])C([H])([H])C([H])([H])C([H])([H])N([H])C(=O)C([H])([H])C([H])([H])C([H])([H])C([H])([H])C([H])([H])N([H])C(=O)N3C([H])([H])C([H])([H])C([H])([H])C([H])(n4nc(-c5c([H])c([H])c(Oc6c([H])c([H])c(F)c([H])c6F)c([H])c5[H])c(C(=O)N([H])[H])c4N([H])[H])C3([H])[H])c([H])c([H])c2C1([H])[H]

>  <smiles>  (57) 
[H]c1c([H])c([H])c2c(c1[H])C([H])([H])C([H])([H])C([H])([H])C2([H])N([H])C(=O)C1([H])N(C(=O)C([H])(N([H])C(=O)C([H])(N([H])C([H])([H])[H])C([H])([H])[H])C(C([H])([H])[H])(C([H])([H])[H])C([H])([H])[H])C([H])([H])c2c([H])c(OC([H])([H])C([H])([H])[N+]([H])([H])C([H])([H])C([H])([H])C([H])([H])C([H])([H])C([H])([H])C([H])([H])N([H])C(=O)C([H])([H])C([H])([H])C([H])([H])C([H])([H])C([H])([H])N([H])C(=O)N3C([H])([H])C([H])([H])C([H])([H])C([H])(n4nc(-c5c([H])c([H])c(Oc6c([H])c([H])c(F)c([H])c6F)c([H])c5[H])c(C(=O)N([H])[H])c4N([H])[H])C3([H])[H])c([H])c([H])c2C1([H])[H]

$$$$
59:0:0
     RDKit          3D

 98106  0  0  1  0  0  0  0  0999 V2000
  -29.9750  -20.6460   17.4590 C   0  0  0  0  0  3  0  0  0  0  0  0
  -29.0420  -21.5970   17.0440 C   0  0  0  0  0  3  0  0  0  0  0  0
  -30.6320  -20.8270   18.6780 C   0  0  0  0  0  3  0  0  0  0  0  0
  -28.8190  -22.7810   17.7830 C   0  0  0  0  0  0  0  0  0  0  0  0
  -30.3500  -21.9370   19.5010 C   0  0  0  0  0  0  0  0  0  0  0  0
  -29.4970  -22.9990   19.0370 C   0  0  0  0  0  0  0  0  0  0  0  0
  -26.4150  -23.6400   17.8190 C   0  0  0  0  0  1  0  0  0  0  0  0
  -27.7930  -23.7110   17.1390 C   0  0  0  0  0  2  0  0  0  0  0  0
  -30.9410  -21.8400   20.9100 C   0  0  0  0  0  2  0  0  0  0  0  0
  -29.8680  -21.3200   23.1610 C   0  0  0  0  0  1  0  0  0  0  0  0
  -30.2180  -20.7600   21.7620 C   0  0  0  0  0  3  0  0  0  0  0  0
  -31.0100  -19.5060   21.8520 N   0  0  0  0  0  4  0  0  0  0  0  0
  -31.6100  -19.4250   21.0480 H   0  0  0  0  0  0  0  0  0  0  0  0
  -31.6150  -19.5500   22.6570 H   0  0  0  0  0  0  0  0  0  0  0  0
  -30.1730  -18.2870   21.9180 C   0  0  0  0  0  2  0  0  0  0  0  0
  -30.9400  -17.0590   22.4440 C   0  0  0  0  0  2  0  0  0  0  0  0
  -31.5560  -16.1480   21.3630 C   0  0  0  0  0  2  0  0  0  0  0  0
  -31.0300  -14.1300   20.0260 C   0  0  0  0  0  0  0  0  0  0  0  0
  -30.4860  -12.0220   18.8640 C   0  0  0  0  0  2  0  0  0  0  0  0
  -29.5140  -12.2590   17.6960 C   0  0  0  0  0  2  0  0  0  0  0  0
  -28.0580  -12.1920   18.1880 C   0  0  0  0  0  2  0  0  0  0  0  0
  -27.8110  -13.0720   19.4430 C   0  0  0  0  0  3  0  0  0  0  0  0
  -28.9030  -12.8450   20.5170 C   0  0  0  0  0  2  0  0  0  0  0  0
  -30.2270  -13.0370   19.8970 N   0  0  0  0  0  0  0  0  0  0  0  0
  -32.0310  -14.3140   19.3310 O   0  0  0  0  0  0  0  0  0  0  0  0
  -30.7070  -15.0060   20.9900 N   0  0  0  0  0  0  0  0  0  0  0  0
  -29.8990  -14.7960   21.5560 H   0  0  0  0  0  0  0  0  0  0  0  0
  -25.4790  -13.7980   20.2590 C   0  0  0  0  0  0  0  0  0  0  0  0
  -24.3870  -13.0760   20.6760 C   0  0  0  0  0  0  0  0  0  0  0  0
  -24.7770  -11.7050   20.6190 C   0  0  0  0  0  0  0  0  0  0  0  0
  -26.4670  -12.8640   19.9820 N   0  0  0  0  0  0  0  0  0  0  0  0
  -26.0490  -11.6000   20.2530 N   0  0  0  0  0  0  0  0  0  0  0  0
  -23.9920  -10.4810   20.8380 C   0  0  0  0  0  0  0  0  0  0  0  0
  -24.3950   -9.5040   21.7750 C   0  0  0  0  0  3  0  0  0  0  0  0
  -23.6150   -8.3450   21.9820 C   0  0  0  0  0  3  0  0  0  0  0  0
  -22.4190   -8.1550   21.2530 C   0  0  0  0  0  0  0  0  0  0  0  0
  -22.0330   -9.1190   20.3040 C   0  0  0  0  0  3  0  0  0  0  0  0
  -22.8130  -10.2690   20.0960 C   0  0  0  0  0  3  0  0  0  0  0  0
  -21.6120   -7.0480   21.3680 O   0  0  0  0  0  0  0  0  0  0  0  0
  -21.5160   -6.3460   22.5430 C   0  0  0  0  0  0  0  0  0  0  0  0
  -21.1240   -6.9640   23.7510 C   0  0  0  0  0  3  0  0  0  0  0  0
  -20.9720   -6.1910   24.9190 C   0  0  0  0  0  3  0  0  0  0  0  0
  -21.2030   -4.8030   24.8820 C   0  0  0  0  0  0  0  0  0  0  0  0
  -21.5860   -4.1850   23.6790 C   0  0  0  0  0  3  0  0  0  0  0  0
  -21.7410   -4.9540   22.5120 C   0  0  0  0  0  0  0  0  0  0  0  0
  -22.0920   -4.3520   21.3510 F   0  0  0  0  0  0  0  0  0  0  0  0
  -21.0490   -4.0580   26.0020 F   0  0  0  0  0  0  0  0  0  0  0  0
  -23.0330  -13.6260   21.0130 C   0  0  0  0  0  0  0  0  0  0  0  0
  -22.3130  -12.9710   21.9210 N   0  0  0  0  0  0  0  0  0  0  0  0
  -22.6200  -14.6680   20.5090 O   0  0  0  0  0  0  0  0  0  0  0  0
  -22.6600  -12.1270   22.3520 H   0  0  0  0  0  0  0  0  0  0  0  0
  -21.4030  -13.3190   22.1860 H   0  0  0  0  0  0  0  0  0  0  0  0
  -25.7040  -15.1570   20.0780 N   0  0  0  0  0  0  0  0  0  0  0  0
  -24.9760  -15.8490   20.2150 H   0  0  0  0  0  0  0  0  0  0  0  0
  -26.5650  -15.5530   19.7200 H   0  0  0  0  0  0  0  0  0  0  0  0
  -29.2950  -24.2550   19.9480 C   0  0  0  0  0  2  0  0  0  0  0  0
  -29.1130  -25.6680   19.3230 C   0  0  0  0  0  2  0  0  0  0  0  0
  -28.8310  -26.6550   20.3390 O   0  0  0  0  0  0  0  0  0  0  0  0
  -24.7850  -31.7710   23.3190 C   0  0  0  0  0  0  0  0  0  0  0  0
  -27.6210  -27.3330   20.3330 C   0  0  0  0  0  0  0  0  0  0  0  0
  -23.6850  -30.3530   21.6200 C   0  0  0  0  0  3  0  0  0  0  0  0
  -25.2190  -28.8410   20.2640 C   0  0  0  0  0  0  0  0  0  0  0  0
  -26.2160  -30.7260   21.5630 C   0  0  0  0  0  2  0  0  0  0  0  0
  -26.3420  -29.3570   20.9190 C   0  0  0  0  0  0  0  0  0  0  0  0
  -27.5440  -28.6100   20.9420 C   0  0  0  0  0  3  0  0  0  0  0  0
  -26.4530  -26.8090   19.7340 C   0  0  0  0  0  3  0  0  0  0  0  0
  -25.2730  -27.5720   19.6640 C   0  0  0  0  0  3  0  0  0  0  0  0
  -23.9680  -29.6890   20.2510 C   0  0  0  0  0  2  0  0  0  0  0  0
  -24.9110  -30.9680   22.2240 N   0  0  0  0  0  0  0  0  0  0  0  0
  -23.6710  -32.0340   23.7930 O   0  0  0  0  0  0  0  0  0  0  0  0
  -22.9880  -29.3240   22.5380 C   0  0  0  0  0  0  0  0  0  0  0  0
  -21.6710  -29.1350   22.3390 N   0  0  0  0  0  0  0  0  0  0  0  0
  -23.6340  -28.7000   23.3840 O   0  0  0  0  0  0  0  0  0  0  0  0
  -21.2150  -29.6940   21.6310 H   0  0  0  0  0  0  0  0  0  0  0  0
  -18.2700  -27.9460   22.6620 C   0  0  0  0  0  0  0  0  0  0  0  0
  -20.8170  -28.1910   23.0580 C   0  0  0  0  0  3  0  0  0  0  0  0
  -20.9450  -26.7700   22.4640 C   0  0  0  0  0  2  0  0  0  0  0  0
  -19.8870  -26.4600   21.3990 C   0  0  0  0  0  2  0  0  0  0  0  0
  -18.4770  -26.6030   21.9810 C   0  0  0  0  0  2  0  0  0  0  0  0
  -19.3730  -28.6970   23.1520 C   0  0  0  0  0  0  0  0  0  0  0  0
  -19.1320  -29.9550   23.7440 C   0  0  0  0  0  3  0  0  0  0  0  0
  -17.8200  -30.4590   23.8610 C   0  0  0  0  0  3  0  0  0  0  0  0
  -16.7330  -29.7010   23.3990 C   0  0  0  0  0  3  0  0  0  0  0  0
  -16.9590  -28.4480   22.8000 C   0  0  0  0  0  3  0  0  0  0  0  0
  -26.0230  -32.4090   24.0170 C   0  0  0  0  0  3  0  0  0  0  0  0
  -26.4590  -31.6580   25.3330 C   0  0  1  0  0  0  0  0  0  0  0  0
  -25.2970  -31.4250   26.3290 C   0  0  0  0  0  1  0  0  0  0  0  0
  -27.0690  -30.2790   24.9970 C   0  0  0  0  0  1  0  0  0  0  0  0
  -27.5720  -32.4630   26.0480 C   0  0  0  0  0  1  0  0  0  0  0  0
  -25.6970  -33.8160   24.2980 N   0  0  0  0  0  0  0  0  0  0  0  0
  -26.0630  -34.8460   23.5220 C   0  0  0  0  0  0  0  0  0  0  0  0
  -26.7800  -34.7140   22.5260 O   0  0  0  0  0  0  0  0  0  0  0  0
  -25.0780  -33.9970   25.0730 H   0  0  0  0  0  0  0  0  0  0  0  0
  -24.3380  -36.6080   23.0580 C   0  0  0  0  0  1  0  0  0  0  0  0
  -25.5580  -36.2440   23.9170 C   0  0  0  0  0  3  0  0  0  0  0  0
  -27.6530  -37.1640   24.7900 C   0  0  0  0  0  1  0  0  0  0  0  0
  -26.5860  -37.2980   23.8030 N   0  0  0  0  0  0  0  0  0  0  0  0
  -26.1690  -38.2200   23.9130 H   0  0  0  0  0  0  0  0  0  0  0  0
  1  3  1  0
  2  1  2  0
  2  4  1  0
  3  5  2  0
  4  6  2  0
  5  9  1  0
  6  5  1  0
  6 56  1  0
  8  4  1  0
  8  7  1  0
  9 11  1  0
 11 12  1  0
 11 10  1  0
 12 15  1  0
 12 14  1  0
 13 12  1  0
 15 16  1  0
 17 16  1  0
 18 26  1  0
 19 24  1  0
 20 21  1  0
 20 19  1  0
 22 21  1  0
 22 31  1  0
 22 23  1  0
 24 18  1  0
 24 23  1  0
 25 18  2  0
 26 17  1  0
 26 27  1  0
 28 29  2  0
 29 48  1  0
 30 29  1  0
 30 33  1  0
 31 32  1  0
 31 28  1  0
 32 30  2  0
 33 34  1  0
 34 35  2  0
 36 39  1  0
 36 35  1  0
 37 36  2  0
 38 37  1  0
 38 33  2  0
 39 40  1  0
 40 41  1  0
 41 42  2  0
 43 42  1  0
 43 47  1  0
 44 43  2  0
 45 40  2  0
 45 44  1  0
 46 45  1  0
 48 49  1  0
 49 52  1  0
 49 51  1  0
 50 48  2  0
 53 54  1  0
 53 28  1  0
 55 53  1  0
 57 56  1  0
 57 58  1  0
 59 70  2  0
 60 58  1  0
 60 65  1  0
 61 69  1  0
 61 71  1  0
 62 64  1  0
 63 69  1  0
 64 65  2  0
 64 63  1  0
 66 60  2  0
 67 66  1  0
 67 62  2  0
 68 62  1  0
 68 61  1  0
 69 59  1  0
 71 73  2  0
 72 71  1  0
 74 72  1  0
 75 84  2  0
 75 80  1  0
 76 72  1  0
 76 80  1  0
 77 76  1  0
 78 79  1  0
 78 77  1  0
 79 75  1  0
 80 81  2  0
 81 82  1  0
 83 82  2  0
 84 83  1  0
 85 59  1  0
 85 90  1  0
 85 86  1  0
 86 89  1  1
 86 87  1  0
 88 86  1  0
 90 93  1  0
 91 95  1  0
 91 90  1  0
 92 91  2  0
 95 94  1  0
 97 98  1  0
 97 95  1  0
 97 96  1  0
M  ISO  4  18 100  26 100  57 101  58 101
M  END
>  <TORSDO>  (58) 
F 25

>  <SCORE>  (58) 
-11.271

>  <name>  (58) 
59

>  <ligand_id>  (58) 
59

>  <original_smiles>  (58) 
[H]c1c([H])c([H])c2c(c1[H])C([H])([H])C([H])([H])C([H])([H])C2([H])N([H])C(=O)C1([H])N(C(=O)C([H])(N([H])C(=O)C([H])(N([H])C([H])([H])[H])C([H])([H])[H])C(C([H])([H])[H])(C([H])([H])[H])C([H])([H])[H])C([H])([H])c2c([H])c(OC([H])([H])C([H])([H])c3c(C([H])([H])C([H])([H])[H])c([H])c([H])c([H])c3C([H])([H])C([H])(C([H])([H])[H])[N+]([H])([H])C([H])([H])C([H])([H])C([H])([H])N([H])C(=O)N3C([H])([H])C([H])([H])C([H])([H])C([H])(n4nc(-c5c([H])c([H])c(Oc6c([H])c([H])c(F)c([H])c6F)c([H])c5[H])c(C(=O)N([H])[H])c4N([H])[H])C3([H])[H])c([H])c([H])c2C1([H])[H]

>  <smiles>  (58) 
[H]c1c([H])c([H])c2c(c1[H])C([H])([H])C([H])([H])C([H])([H])C2([H])N([H])C(=O)C1([H])N(C(=O)C([H])(N([H])C(=O)C([H])(N([H])C([H])([H])[H])C([H])([H])[H])C(C([H])([H])[H])(C([H])([H])[H])C([H])([H])[H])C([H])([H])c2c([H])c(OC([H])([H])C([H])([H])c3c(C([H])([H])C([H])([H])[H])c([H])c([H])c([H])c3C([H])([H])C([H])(C([H])([H])[H])[N+]([H])([H])C([H])([H])C([H])([H])C([H])([H])N([H])C(=O)N3C([H])([H])C([H])([H])C([H])([H])C([H])(n4nc(-c5c([H])c([H])c(Oc6c([H])c([H])c(F)c([H])c6F)c([H])c5[H])c(C(=O)N([H])[H])c4N([H])[H])C3([H])[H])c([H])c([H])c2C1([H])[H]

$$$$
60:0:0
     RDKit          3D

105111  0  0  1  0  0  0  0  0999 V2000
  -27.5350  -28.4180   25.3110 C   0  0  0  0  0  3  0  0  0  0  0  0
  -24.8900  -27.7690   22.8980 C   0  0  0  0  0  3  0  0  0  0  0  0
  -25.9860  -30.5500   21.4400 C   0  0  0  0  0  1  0  0  0  0  0  0
  -25.7640  -28.1370   23.9980 C   0  0  0  0  0  3  0  0  0  0  0  0
  -26.9870  -30.6100   22.9340 C   0  0  0  0  0  2  0  0  0  0  0  0
  -24.8830  -28.5290   21.6080 C   0  0  0  0  0  2  0  0  0  0  0  0
  -26.7630  -29.2680   24.1020 C   0  0  0  0  0  3  0  0  0  0  0  0
  -25.2000  -26.9510   20.9430 C   0  0  0  0  0  2  0  0  0  0  0  0
  -26.6510  -26.4820   20.5080 O   0  0  0  0  0  0  0  0  0  0  0  0
  -24.5730  -31.5450   23.6750 C   0  0  0  0  0  0  0  0  0  0  0  0
  -27.0440  -27.0140   19.3380 C   0  0  0  0  0  3  0  0  0  0  0  0
  -23.4700  -30.4490   21.8770 C   0  0  0  0  0  3  0  0  0  0  0  0
  -25.3470  -29.2420   19.3670 C   0  0  0  0  0  3  0  0  0  0  0  0
  -27.0130  -28.6860   21.8270 C   0  0  0  0  0  1  0  0  0  0  0  0
  -26.7730  -28.8900   20.0520 C   0  0  0  0  0  3  0  0  0  0  0  0
  -27.7390  -28.1730   19.5350 C   0  0  0  0  0  2  0  0  0  0  0  0
  -25.9280  -27.0500   18.4760 C   0  0  0  0  0  3  0  0  0  0  0  0
  -25.0420  -28.1640   18.5160 C   0  0  0  0  0  3  0  0  0  0  0  0
  -23.8900  -30.1030   20.0550 C   0  0  0  0  0  2  0  0  0  0  0  0
  -24.6970  -30.1990   23.1030 N   0  0  0  0  0  2  0  0  0  0  0  0
  -23.4680  -32.0440   23.9490 O   0  0  0  0  0  0  0  0  0  0  0  0
  -22.4470  -29.5290   22.6170 C   0  0  0  0  0  0  0  0  0  0  0  0
  -21.2120  -29.3030   22.2340 N   0  0  0  0  0  0  0  0  0  0  0  0
  -22.7710  -28.9710   23.6780 O   0  0  0  0  0  0  0  0  0  0  0  0
  -20.8220  -29.7580   21.4200 H   0  0  0  0  0  0  0  0  0  0  0  0
  -17.9210  -28.1330   22.8140 C   0  0  0  0  0  0  0  0  0  0  0  0
  -20.4210  -28.3630   23.0280 C   0  0  0  0  0  3  0  0  0  0  0  0
  -20.5730  -26.9310   22.4900 C   0  0  0  0  0  2  0  0  0  0  0  0
  -19.4770  -26.6010   21.4900 C   0  0  0  0  0  2  0  0  0  0  0  0
  -18.0950  -26.7800   22.1350 C   0  0  0  0  0  2  0  0  0  0  0  0
  -19.0360  -28.8840   23.2290 C   0  0  0  0  0  0  0  0  0  0  0  0
  -18.8760  -30.1370   23.8530 C   0  0  0  0  0  3  0  0  0  0  0  0
  -17.5900  -30.6600   24.0530 C   0  0  0  0  0  3  0  0  0  0  0  0
  -16.4700  -29.9140   23.6450 C   0  0  0  0  0  3  0  0  0  0  0  0
  -16.6340  -28.6530   23.0350 C   0  0  0  0  0  3  0  0  0  0  0  0
  -25.7820  -32.5530   24.0240 C   0  0  0  0  0  3  0  0  0  0  0  0
  -25.3700  -33.9360   24.2020 N   0  0  0  0  0  0  0  0  0  0  0  0
  -25.8340  -34.9970   23.5250 C   0  0  0  0  0  0  0  0  0  0  0  0
  -26.5730  -34.9300   22.5340 O   0  0  0  0  0  0  0  0  0  0  0  0
  -24.7700  -34.1010   24.9950 H   0  0  0  0  0  0  0  0  0  0  0  0
  -24.1290  -36.7710   23.2650 C   0  0  0  0  0  1  0  0  0  0  0  0
  -25.3780  -36.3600   24.0540 C   0  0  0  0  0  3  0  0  0  0  0  0
  -27.5690  -37.1730   24.8400 C   0  0  0  0  0  1  0  0  0  0  0  0
  -26.4140  -37.4120   23.9760 N   0  0  0  0  0  0  0  0  0  0  0  0
  -26.0220  -38.3190   24.2110 H   0  0  0  0  0  0  0  0  0  0  0  0
  -26.7160  -32.1450   25.2850 C   0  0  1  0  0  0  0  0  0  0  0  0
  -25.7250  -31.7470   26.3650 C   0  0  0  0  0  1  0  0  0  0  0  0
  -28.0820  -31.3140   25.2450 C   0  0  0  0  0  1  0  0  0  0  0  0
  -27.4980  -33.3640   25.8630 C   0  0  0  0  0  1  0  0  0  0  0  0
  -26.6810  -28.4330   26.6740 C   0  0  0  0  0  0  0  0  0  0  0  0
  -25.4000  -28.9110   26.6660 N   0  0  0  0  0  0  0  0  0  0  0  0
  -27.1570  -27.9830   27.7170 O   0  0  0  0  0  0  0  0  0  0  0  0
  -25.1130  -29.1660   25.7320 H   0  0  0  0  0  0  0  0  0  0  0  0
  -24.4790  -29.2880   27.7930 C   0  0  0  0  0  2  0  0  0  0  0  0
  -23.1140  -30.0300   27.4150 C   0  0  0  0  0  2  0  0  0  0  0  0
  -23.4050  -32.3970   28.6480 C   0  0  0  0  0  1  0  0  0  0  0  0
  -22.8560  -31.6010   27.4390 C   0  0  0  0  0  2  0  0  0  0  0  0
  -28.1720  -26.8330   25.1000 C   0  0  0  0  0  2  0  0  0  0  0  0
  -27.9250  -25.7410   23.9950 N   0  0  0  0  0  4  0  0  0  0  0  0
  -26.9430  -25.5090   24.0080 H   0  0  0  0  0  0  0  0  0  0  0  0
  -28.1370  -26.2000   23.1220 H   0  0  0  0  0  0  0  0  0  0  0  0
  -28.7390  -24.3850   24.0220 C   0  0  0  0  0  2  0  0  0  0  0  0
  -28.3780  -23.0530   23.0560 C   0  0  0  0  0  2  0  0  0  0  0  0
  -29.3890  -21.7560   22.6200 C   0  0  0  0  0  2  0  0  0  0  0  0
  -29.1200  -20.0740   22.6550 C   0  0  0  0  0  2  0  0  0  0  0  0
  -29.5760  -18.8700   21.5440 C   0  0  0  0  0  2  0  0  0  0  0  0
  -30.1580  -17.3230   21.8970 C   0  0  0  0  0  2  0  0  0  0  0  0
  -30.5670  -14.8550   20.6760 C   0  0  0  0  0  0  0  0  0  0  0  0
  -30.4600  -12.5760   19.5140 C   0  0  0  0  0  2  0  0  0  0  0  0
  -29.5320  -12.5430   18.2760 C   0  0  0  0  0  2  0  0  0  0  0  0
  -28.0670  -12.3080   18.6940 C   0  0  0  0  0  2  0  0  0  0  0  0
  -27.6460  -13.2300   19.8690 C   0  0  0  0  0  3  0  0  0  0  0  0
  -28.6710  -13.1870   21.0200 C   0  0  0  0  0  2  0  0  0  0  0  0
  -29.9610  -13.6180   20.4650 N   0  0  0  0  0  0  0  0  0  0  0  0
  -31.7470  -14.9850   20.3050 O   0  0  0  0  0  0  0  0  0  0  0  0
  -29.8220  -15.9520   21.1840 N   0  0  0  0  0  0  0  0  0  0  0  0
  -28.8500  -15.6920   21.2870 H   0  0  0  0  0  0  0  0  0  0  0  0
  -25.2520  -13.8180   20.5700 C   0  0  0  0  0  0  0  0  0  0  0  0
  -24.1800  -13.0450   20.9210 C   0  0  0  0  0  0  0  0  0  0  0  0
  -24.6390  -11.6930   20.8760 C   0  0  0  0  0  0  0  0  0  0  0  0
  -26.2940  -12.9380   20.3310 N   0  0  0  0  0  0  0  0  0  0  0  0
  -25.9320  -11.6530   20.5780 N   0  0  0  0  0  0  0  0  0  0  0  0
  -23.9070  -10.4310   21.0420 C   0  0  0  0  0  0  0  0  0  0  0  0
  -24.3600   -9.4220   21.9210 C   0  0  0  0  0  3  0  0  0  0  0  0
  -23.6290   -8.2250   22.0760 C   0  0  0  0  0  3  0  0  0  0  0  0
  -22.4280   -8.0300   21.3550 C   0  0  0  0  0  0  0  0  0  0  0  0
  -21.9910   -9.0270   20.4640 C   0  0  0  0  0  3  0  0  0  0  0  0
  -22.7240  -10.2160   20.3080 C   0  0  0  0  0  3  0  0  0  0  0  0
  -21.6660   -6.8880   21.4240 O   0  0  0  0  0  0  0  0  0  0  0  0
  -21.6860   -6.0740   22.5270 C   0  0  0  0  0  0  0  0  0  0  0  0
  -21.4030   -6.5650   23.8200 C   0  0  0  0  0  3  0  0  0  0  0  0
  -21.3640   -5.6800   24.9160 C   0  0  0  0  0  3  0  0  0  0  0  0
  -21.6040   -4.3070   24.7210 C   0  0  0  0  0  0  0  0  0  0  0  0
  -21.8830   -3.8160   23.4340 C   0  0  0  0  0  3  0  0  0  0  0  0
  -21.9210   -4.6970   22.3390 C   0  0  0  0  0  0  0  0  0  0  0  0
  -22.1670   -4.2160   21.0970 F   0  0  0  0  0  0  0  0  0  0  0  0
  -21.5610   -3.4540   25.7720 F   0  0  0  0  0  0  0  0  0  0  0  0
  -22.7820  -13.5230   21.1840 C   0  0  0  0  0  0  0  0  0  0  0  0
  -22.0460  -12.8240   22.0420 N   0  0  0  0  0  0  0  0  0  0  0  0
  -22.3540  -14.5550   20.6680 O   0  0  0  0  0  0  0  0  0  0  0  0
  -22.4020  -11.9890   22.4840 H   0  0  0  0  0  0  0  0  0  0  0  0
  -21.1080  -13.1300   22.2560 H   0  0  0  0  0  0  0  0  0  0  0  0
  -25.4210  -15.1900   20.4110 N   0  0  0  0  0  0  0  0  0  0  0  0
  -24.6540  -15.8440   20.5260 H   0  0  0  0  0  0  0  0  0  0  0  0
  -26.2620  -15.6350   20.0690 H   0  0  0  0  0  0  0  0  0  0  0  0
  1 58  1  0
  1 50  1  0
  2  4  2  0
  3  5  1  0
  4  7  1  0
  6  2  1  0
  7  5  1  0
  7  1  1  0
  8  6  1  0
  9  8  1  0
 10 21  2  0
 11 16  1  0
 11  9  1  0
 12 19  1  0
 12 22  1  0
 12 20  1  0
 13 15  1  0
 13 19  1  0
 15 14  1  0
 16 15  1  0
 17 18  2  0
 17 11  1  0
 18 13  1  0
 20 10  1  0
 22 24  2  0
 23 22  1  0
 25 23  1  0
 26 35  2  0
 26 31  1  0
 27 23  1  0
 27 31  1  0
 28 27  1  0
 29 30  1  0
 29 28  1  0
 30 26  1  0
 31 32  2  0
 32 33  1  0
 34 33  2  0
 35 34  1  0
 36 10  1  0
 36 37  1  0
 36 46  1  0
 37 40  1  0
 38 42  1  0
 38 37  1  0
 39 38  2  0
 42 41  1  0
 44 42  1  0
 44 45  1  0
 44 43  1  0
 46 49  1  1
 46 47  1  0
 48 46  1  0
 50 52  2  0
 51 50  1  0
 51 54  1  0
 53 51  1  0
 55 57  1  0
 55 54  1  0
 57 56  1  0
 59 60  1  0
 59 62  1  0
 59 58  1  0
 61 59  1  0
 63 62  1  0
 64 65  1  0
 64 63  1  0
 66 67  1  0
 66 65  1  0
 68 76  1  0
 69 74  1  0
 70 71  1  0
 70 69  1  0
 72 71  1  0
 72 81  1  0
 72 73  1  0
 74 68  1  0
 74 73  1  0
 75 68  2  0
 76 77  1  0
 76 67  1  0
 78 79  2  0
 79 98  1  0
 80 79  1  0
 80 83  1  0
 81 78  1  0
 81 82  1  0
 82 80  2  0
 83 84  1  0
 84 85  2  0
 86 89  1  0
 86 85  1  0
 87 86  2  0
 88 87  1  0
 88 83  2  0
 89 90  1  0
 90 91  1  0
 91 92  2  0
 93 92  1  0
 93 97  1  0
 94 93  2  0
 95 90  2  0
 95 94  1  0
 96 95  1  0
 98 99  1  0
 99102  1  0
 99101  1  0
100 98  2  0
103104  1  0
103 78  1  0
105103  1  0
M  ISO  4   8 101   9 101  68 100  76 100
M  END
>  <TORSDO>  (59) 
F 30

>  <SCORE>  (59) 
1.248

>  <name>  (59) 
60

>  <ligand_id>  (59) 
60

>  <original_smiles>  (59) 
[H]c1c([H])c([H])c2c(c1[H])C([H])([H])C([H])([H])C([H])([H])C2([H])N([H])C(=O)C1([H])N(C(=O)C([H])(N([H])C(=O)C([H])(N([H])C([H])([H])[H])C([H])([H])[H])C(C([H])([H])[H])(C([H])([H])[H])C([H])([H])[H])C([H])([H])c2c([H])c(OC([H])([H])c3c([H])c([H])c(C([H])(C(=O)N([H])C([H])([H])C([H])([H])C([H])([H])C([H])([H])[H])C([H])([H])[N+]([H])([H])C([H])([H])C([H])([H])C([H])([H])C([H])([H])C([H])([H])C([H])([H])N([H])C(=O)N4C([H])([H])C([H])([H])C([H])([H])C([H])(n5nc(-c6c([H])c([H])c(Oc7c([H])c([H])c(F)c([H])c7F)c([H])c6[H])c(C(=O)N([H])[H])c5N([H])[H])C4([H])[H])c([H])c3[H])c([H])c([H])c2C1([H])[H]

>  <smiles>  (59) 
[H]c1c([H])c([H])c2c(c1[H])C([H])([H])C([H])([H])C([H])([H])C2([H])N([H])C(=O)C1([H])N(C(=O)C([H])(N([H])C(=O)C([H])(N([H])C([H])([H])[H])C([H])([H])[H])C(C([H])([H])[H])(C([H])([H])[H])C([H])([H])[H])C([H])([H])c2c([H])c(OC([H])([H])c3c([H])c([H])c(C([H])(C(=O)N([H])C([H])([H])C([H])([H])C([H])([H])C([H])([H])[H])C([H])([H])[N+]([H])([H])C([H])([H])C([H])([H])C([H])([H])C([H])([H])C([H])([H])C([H])([H])N([H])C(=O)N4C([H])([H])C([H])([H])C([H])([H])C([H])(n5nc(-c6c([H])c([H])c(Oc7c([H])c([H])c(F)c([H])c7F)c([H])c6[H])c(C(=O)N([H])[H])c5N([H])[H])C4([H])[H])c([H])c3[H])c([H])c([H])c2C1([H])[H]

$$$$
61:0:0
     RDKit          3D

 97105  0  0  1  0  0  0  0  0999 V2000
  -21.1140  -25.3080   17.0460 C   0  0  0  0  0  2  0  0  0  0  0  0
  -23.7760  -25.2640   19.6670 C   0  0  0  0  0  3  0  0  0  0  0  0
  -22.4300  -23.4220   19.5750 C   0  0  0  0  0  3  0  0  0  0  0  0
  -22.6310  -26.0070   19.2480 C   0  0  0  0  0  3  0  0  0  0  0  0
  -21.3190  -24.1890   19.3070 C   0  0  0  0  0  3  0  0  0  0  0  0
  -23.8800  -23.7570   19.6980 C   0  0  0  0  0  0  0  0  0  0  0  0
  -21.4530  -25.4050   18.5980 C   0  0  0  0  0  0  0  0  0  0  0  0
  -24.9960  -22.6020   20.2150 C   0  0  0  0  0  2  0  0  0  0  0  0
  -26.1220  -21.3210   19.6500 C   0  0  0  0  0  2  0  0  0  0  0  0
  -26.7340  -19.6030   19.8460 C   0  0  0  0  0  3  0  0  0  0  0  0
  -28.3460  -18.6890   19.5050 C   0  0  0  0  0  3  0  0  0  0  0  0
  -30.2090  -15.9770   19.5250 C   0  0  0  0  0  0  0  0  0  0  0  0
  -30.8270  -13.5220   18.8590 C   0  0  0  0  0  2  0  0  0  0  0  0
  -29.9670  -12.8090   17.7720 C   0  0  0  0  0  2  0  0  0  0  0  0
  -28.6070  -12.3720   18.3170 C   0  0  0  0  0  2  0  0  0  0  0  0
  -28.0320  -13.4960   19.2130 C   0  0  0  0  0  3  0  0  0  0  0  0
  -29.0050  -13.9170   20.3150 C   0  0  0  0  0  2  0  0  0  0  0  0
  -30.0210  -14.5680   19.5780 N   0  0  0  0  0  0  0  0  0  0  0  0
  -31.4410  -16.1600   19.2720 O   0  0  0  0  0  0  0  0  0  0  0  0
  -29.0640  -17.0830   19.6110 N   0  0  0  0  0  0  0  0  0  0  0  0
  -29.9220  -17.6620   19.6830 H   0  0  0  0  0  0  0  0  0  0  0  0
  -25.8160  -14.1760   20.1570 C   0  0  0  0  0  0  0  0  0  0  0  0
  -24.7570  -13.4560   20.6110 C   0  0  0  0  0  0  0  0  0  0  0  0
  -25.1460  -12.0820   20.5270 C   0  0  0  0  0  0  0  0  0  0  0  0
  -26.7540  -13.2350   19.7980 N   0  0  0  0  0  0  0  0  0  0  0  0
  -26.3920  -11.9690   20.0990 N   0  0  0  0  0  0  0  0  0  0  0  0
  -24.3780  -10.8640   20.7570 C   0  0  0  0  0  0  0  0  0  0  0  0
  -24.7750   -9.9100   21.7160 C   0  0  0  0  0  3  0  0  0  0  0  0
  -24.0010   -8.7490   21.9270 C   0  0  0  0  0  3  0  0  0  0  0  0
  -22.8190   -8.5430   21.1750 C   0  0  0  0  0  0  0  0  0  0  0  0
  -22.4450   -9.4850   20.2010 C   0  0  0  0  0  3  0  0  0  0  0  0
  -23.2200  -10.6350   19.9900 C   0  0  0  0  0  3  0  0  0  0  0  0
  -22.0140   -7.4370   21.2950 O   0  0  0  0  0  0  0  0  0  0  0  0
  -21.8420   -6.8050   22.4980 C   0  0  0  0  0  0  0  0  0  0  0  0
  -21.3580   -7.4850   23.6360 C   0  0  0  0  0  3  0  0  0  0  0  0
  -21.1290   -6.7770   24.8330 C   0  0  0  0  0  3  0  0  0  0  0  0
  -21.3770   -5.3920   24.8900 C   0  0  0  0  0  0  0  0  0  0  0  0
  -21.8560   -4.7130   23.7560 C   0  0  0  0  0  3  0  0  0  0  0  0
  -22.0850   -5.4190   22.5620 C   0  0  0  0  0  0  0  0  0  0  0  0
  -22.5270   -4.7580   21.4650 F   0  0  0  0  0  0  0  0  0  0  0  0
  -21.1490   -4.7100   26.0370 F   0  0  0  0  0  0  0  0  0  0  0  0
  -23.4190  -14.0130   20.9930 C   0  0  0  0  0  0  0  0  0  0  0  0
  -22.7290  -13.3580   21.9150 N   0  0  0  0  0  0  0  0  0  0  0  0
  -23.0080  -15.0640   20.5050 O   0  0  0  0  0  0  0  0  0  0  0  0
  -23.0860  -12.5070   22.3270 H   0  0  0  0  0  0  0  0  0  0  0  0
  -21.8350  -13.7090   22.2200 H   0  0  0  0  0  0  0  0  0  0  0  0
  -26.0520  -15.5390   19.9990 N   0  0  0  0  0  0  0  0  0  0  0  0
  -25.3430  -16.2340   20.2140 H   0  0  0  0  0  0  0  0  0  0  0  0
  -26.9160  -15.9510   19.6510 H   0  0  0  0  0  0  0  0  0  0  0  0
  -22.0560  -24.3050   16.3320 C   0  0  0  0  0  2  0  0  0  0  0  0
  -23.5550  -24.7030   16.0850 C   0  0  0  0  0  2  0  0  0  0  0  0
  -24.5340  -24.3010   17.1320 N   0  0  0  0  0  4  0  0  0  0  0  0
  -24.7590  -23.3290   16.9760 H   0  0  0  0  0  0  0  0  0  0  0  0
  -23.9460  -24.2440   17.9710 H   0  0  0  0  0  0  0  0  0  0  0  0
  -25.7430  -25.2030   17.4300 C   0  0  0  0  0  3  0  0  0  0  0  0
  -26.7830  -25.2420   18.7140 C   0  0  0  0  0  3  0  0  0  0  0  0
  -27.7620  -26.4100   19.1110 O   0  0  0  0  0  0  0  0  0  0  0  0
  -24.6700  -31.7700   23.0300 C   0  0  0  0  0  0  0  0  0  0  0  0
  -27.1500  -27.6560   19.3160 C   0  0  0  0  0  3  0  0  0  0  0  0
  -23.4500  -30.5700   21.2660 C   0  0  0  0  0  3  0  0  0  0  0  0
  -24.8790  -29.2320   19.6780 C   0  0  0  0  0  0  0  0  0  0  0  0
  -25.9930  -30.8590   21.1730 C   0  0  0  0  0  2  0  0  0  0  0  0
  -26.0480  -29.5480   20.3870 C   0  0  0  0  0  0  0  0  0  0  0  0
  -27.1910  -28.6970   20.2970 C   0  0  0  0  0  2  0  0  0  0  0  0
  -26.1670  -27.8150   18.3720 C   0  0  0  0  0  2  0  0  0  0  0  0
  -24.9040  -28.2940   18.6880 C   0  0  0  0  0  2  0  0  0  0  0  0
  -23.6080  -30.0270   19.8350 C   0  0  0  0  0  2  0  0  0  0  0  0
  -24.7090  -31.0500   21.8690 N   0  0  0  0  0  0  0  0  0  0  0  0
  -23.5740  -31.9580   23.6000 O   0  0  0  0  0  0  0  0  0  0  0  0
  -22.8750  -29.3970   22.0970 C   0  0  0  0  0  0  0  0  0  0  0  0
  -21.5360  -29.5060   22.2510 N   0  0  0  0  0  0  0  0  0  0  0  0
  -23.5720  -28.6260   22.7480 O   0  0  0  0  0  0  0  0  0  0  0  0
  -21.5030  -30.1360   23.1530 H   0  0  0  0  0  0  0  0  0  0  0  0
  -18.0410  -28.2860   22.7020 C   0  0  0  0  0  0  0  0  0  0  0  0
  -20.6140  -28.6550   22.8960 C   0  0  0  0  0  3  0  0  0  0  0  0
  -20.7810  -27.0840   22.5000 C   0  0  0  0  0  2  0  0  0  0  0  0
  -19.6510  -26.4250   21.6030 C   0  0  0  0  0  2  0  0  0  0  0  0
  -18.2880  -27.2470   21.5400 C   0  0  0  0  0  2  0  0  0  0  0  0
  -19.1780  -29.0570   23.1080 C   0  0  0  0  0  0  0  0  0  0  0  0
  -18.8270  -30.0920   23.9900 C   0  0  0  0  0  3  0  0  0  0  0  0
  -17.5060  -30.4690   24.2300 C   0  0  0  0  0  3  0  0  0  0  0  0
  -16.4440  -29.6740   23.7200 C   0  0  0  0  0  3  0  0  0  0  0  0
  -16.6580  -28.5320   23.0510 C   0  0  0  0  0  3  0  0  0  0  0  0
  -25.9310  -32.4090   23.6460 C   0  0  0  0  0  3  0  0  0  0  0  0
  -26.5140  -31.5870   24.8570 C   0  0  1  0  0  0  0  0  0  0  0  0
  -25.4660  -31.2670   25.9460 C   0  0  0  0  0  1  0  0  0  0  0  0
  -27.1260  -30.2440   24.3950 C   0  0  0  0  0  1  0  0  0  0  0  0
  -27.6680  -32.3770   25.5280 C   0  0  0  0  0  1  0  0  0  0  0  0
  -25.6040  -33.7760   24.0700 N   0  0  0  0  0  0  0  0  0  0  0  0
  -25.8780  -34.8910   23.3620 C   0  0  0  0  0  0  0  0  0  0  0  0
  -26.5540  -34.8700   22.3250 O   0  0  0  0  0  0  0  0  0  0  0  0
  -25.0270  -33.8640   24.8900 H   0  0  0  0  0  0  0  0  0  0  0  0
  -24.1030  -36.6480   23.1670 C   0  0  0  0  0  1  0  0  0  0  0  0
  -25.3690  -36.2300   23.9220 C   0  0  0  0  0  3  0  0  0  0  0  0
  -27.4990  -37.1260   24.7720 C   0  0  0  0  0  1  0  0  0  0  0  0
  -26.3730  -37.3230   23.8580 N   0  0  0  0  0  0  0  0  0  0  0  0
  -25.9410  -38.2140   24.0770 H   0  0  0  0  0  0  0  0  0  0  0  0
  1  7  1  0
  2  6  1  0
  3  6  2  0
  4  2  2  0
  5  3  1  0
  6  8  1  0
  7  4  1  0
  7  5  2  0
  9 10  1  0
  9  8  1  0
 11 20  1  0
 11 10  2  0
 12 18  1  0
 12 20  1  0
 13 18  1  0
 14 15  1  0
 14 13  1  0
 16 15  1  0
 16 25  1  0
 16 17  1  0
 18 17  1  0
 19 12  2  0
 20 21  1  0
 22 23  2  0
 23 42  1  0
 24 23  1  0
 24 27  1  0
 25 26  1  0
 25 22  1  0
 26 24  2  0
 27 28  1  0
 28 29  2  0
 30 33  1  0
 30 29  1  0
 31 30  2  0
 32 31  1  0
 32 27  2  0
 33 34  1  0
 34 39  2  0
 34 35  1  0
 35 36  2  0
 36 37  1  0
 37 41  1  0
 38 37  2  0
 39 38  1  0
 40 39  1  0
 42 43  1  0
 43 46  1  0
 43 45  1  0
 44 42  2  0
 47 22  1  0
 47 48  1  0
 49 47  1  0
 50  1  1  0
 51 50  1  0
 51 52  1  0
 52 55  1  0
 52 54  1  0
 53 52  1  0
 55 56  2  0
 56 57  1  0
 58 69  2  0
 59 57  1  0
 59 64  1  0
 60 68  1  0
 60 70  1  0
 61 67  1  0
 61 63  2  0
 62 68  1  0
 63 62  1  0
 64 63  1  0
 65 66  1  0
 65 59  1  0
 66 61  1  0
 67 60  1  0
 68 58  1  0
 70 71  1  0
 70 72  2  0
 71 73  1  0
 74 83  2  0
 74 79  1  0
 75 71  1  0
 75 79  1  0
 76 75  1  0
 77 76  1  0
 78 77  1  0
 78 74  1  0
 79 80  2  0
 80 81  1  0
 82 81  2  0
 83 82  1  0
 84 58  1  0
 84 89  1  0
 84 85  1  0
 85 88  1  1
 85 86  1  0
 87 85  1  0
 89 92  1  0
 90 94  1  0
 90 89  1  0
 91 90  2  0
 94 93  1  0
 96 94  1  0
 96 97  1  0
 96 95  1  0
M  ISO  4  12 100  20 100  56 101  57 101
M  END
>  <TORSDO>  (60) 
F 26

>  <SCORE>  (60) 
-11.225

>  <name>  (60) 
61

>  <ligand_id>  (60) 
61

>  <original_smiles>  (60) 
[H]c1c([H])c([H])c2c(c1[H])C([H])([H])C([H])([H])C([H])([H])C2([H])N([H])C(=O)C1([H])N(C(=O)C([H])(N([H])C(=O)C([H])(N([H])C([H])([H])[H])C([H])([H])[H])C(C([H])([H])[H])(C([H])([H])[H])C([H])([H])[H])C([H])([H])c2c([H])c(OC([H])([H])C([H])([H])[N+]([H])([H])C([H])([H])C([H])([H])C([H])([H])c3c([H])c([H])c(C([H])([H])C([H])([H])C([H])([H])C([H])([H])N([H])C(=O)N4C([H])([H])C([H])([H])C([H])([H])C([H])(n5nc(-c6c([H])c([H])c(Oc7c([H])c([H])c(F)c([H])c7F)c([H])c6[H])c(C(=O)N([H])[H])c5N([H])[H])C4([H])[H])c([H])c3[H])c([H])c([H])c2C1([H])[H]

>  <smiles>  (60) 
[H]c1c([H])c([H])c2c(c1[H])C([H])([H])C([H])([H])C([H])([H])C2([H])N([H])C(=O)C1([H])N(C(=O)C([H])(N([H])C(=O)C([H])(N([H])C([H])([H])[H])C([H])([H])[H])C(C([H])([H])[H])(C([H])([H])[H])C([H])([H])[H])C([H])([H])c2c([H])c(OC([H])([H])C([H])([H])[N+]([H])([H])C([H])([H])C([H])([H])C([H])([H])c3c([H])c([H])c(C([H])([H])C([H])([H])C([H])([H])C([H])([H])N([H])C(=O)N4C([H])([H])C([H])([H])C([H])([H])C([H])(n5nc(-c6c([H])c([H])c(Oc7c([H])c([H])c(F)c([H])c7F)c([H])c6[H])c(C(=O)N([H])[H])c5N([H])[H])C4([H])[H])c([H])c3[H])c([H])c([H])c2C1([H])[H]

$$$$
62:0:0
     RDKit          3D

102110  0  0  1  0  0  0  0  0999 V2000
  -29.4480  -21.1940   20.0200 C   0  0  0  0  0  3  0  0  0  0  0  0
  -27.4360  -20.4520   18.8590 C   0  0  0  0  0  3  0  0  0  0  0  0
  -28.5590  -18.9580   20.4230 C   0  0  0  0  0  3  0  0  0  0  0  0
  -28.3970  -21.4550   19.1130 C   0  0  0  0  0  0  0  0  0  0  0  0
  -29.5310  -19.9470   20.6860 C   0  0  0  0  0  0  0  0  0  0  0  0
  -27.5210  -19.2050   19.5070 C   0  0  0  0  0  0  0  0  0  0  0  0
  -26.6060  -18.2260   19.2490 O   0  0  0  0  0  0  0  0  0  0  0  0
  -25.9890  -18.4570   18.5620 H   0  0  0  0  0  0  0  0  0  0  0  0
  -31.0350  -20.9640   22.4220 C   0  0  0  0  0  1  0  0  0  0  0  0
  -30.6480  -19.6620   21.6910 C   0  0  0  0  0  3  0  0  0  0  0  0
  -31.8610  -18.9320   21.0390 C   0  0  0  0  0  3  0  0  0  0  0  0
  -33.0670  -18.9840   21.8940 N   0  0  0  0  0  4  0  0  0  0  0  0
  -32.9130  -18.5590   22.7900 H   0  0  0  0  0  0  0  0  0  0  0  0
  -33.3410  -19.9390   22.0460 H   0  0  0  0  0  0  0  0  0  0  0  0
  -33.8380  -18.5190   21.4450 H   0  0  0  0  0  0  0  0  0  0  0  0
  -31.5620  -17.4750   20.5740 C   0  0  0  0  0  2  0  0  0  0  0  0
  -31.3630  -16.4310   21.7050 C   0  0  0  0  0  2  0  0  0  0  0  0
  -31.1730  -14.3150   20.3760 C   0  0  0  0  0  0  0  0  0  0  0  0
  -30.7020  -12.2560   19.1020 C   0  0  0  0  0  2  0  0  0  0  0  0
  -29.7410  -12.5470   17.9330 C   0  0  0  0  0  2  0  0  0  0  0  0
  -28.2740  -12.4630   18.3960 C   0  0  0  0  0  2  0  0  0  0  0  0
  -28.0120  -13.2790   19.6900 C   0  0  0  0  0  3  0  0  0  0  0  0
  -29.0760  -12.9640   20.7640 C   0  0  0  0  0  2  0  0  0  0  0  0
  -30.4070  -13.2110   20.1800 N   0  0  0  0  0  0  0  0  0  0  0  0
  -32.2320  -14.5210   19.7770 O   0  0  0  0  0  0  0  0  0  0  0  0
  -30.6940  -15.2030   21.2600 N   0  0  0  0  0  0  0  0  0  0  0  0
  -29.8200  -14.9640   21.7060 H   0  0  0  0  0  0  0  0  0  0  0  0
  -25.6590  -13.9860   20.4640 C   0  0  0  0  0  0  0  0  0  0  0  0
  -24.5630  -13.2570   20.8430 C   0  0  0  0  0  0  0  0  0  0  0  0
  -24.9590  -11.8860   20.7710 C   0  0  0  0  0  0  0  0  0  0  0  0
  -26.6550  -13.0610   20.1910 N   0  0  0  0  0  0  0  0  0  0  0  0
  -26.2380  -11.7920   20.4310 N   0  0  0  0  0  0  0  0  0  0  0  0
  -24.1780  -10.6540   20.9510 C   0  0  0  0  0  0  0  0  0  0  0  0
  -24.5710   -9.6600   21.8730 C   0  0  0  0  0  3  0  0  0  0  0  0
  -23.7950   -8.4940   22.0410 C   0  0  0  0  0  3  0  0  0  0  0  0
  -22.6110   -8.3150   21.2870 C   0  0  0  0  0  0  0  0  0  0  0  0
  -22.2380   -9.2970   20.3530 C   0  0  0  0  0  3  0  0  0  0  0  0
  -23.0140  -10.4550   20.1830 C   0  0  0  0  0  3  0  0  0  0  0  0
  -21.8080   -7.2020   21.3650 O   0  0  0  0  0  0  0  0  0  0  0  0
  -21.6910   -6.4780   22.5240 C   0  0  0  0  0  0  0  0  0  0  0  0
  -21.2380   -7.0640   23.7270 C   0  0  0  0  0  3  0  0  0  0  0  0
  -21.0670   -6.2680   24.8770 C   0  0  0  0  0  3  0  0  0  0  0  0
  -21.3390   -4.8880   24.8260 C   0  0  0  0  0  0  0  0  0  0  0  0
  -21.7840   -4.3020   23.6280 C   0  0  0  0  0  3  0  0  0  0  0  0
  -21.9570   -5.0950   22.4790 C   0  0  0  0  0  0  0  0  0  0  0  0
  -22.3660   -4.5220   21.3220 F   0  0  0  0  0  0  0  0  0  0  0  0
  -21.1670   -4.1210   25.9280 F   0  0  0  0  0  0  0  0  0  0  0  0
  -23.1970  -13.7930   21.1610 C   0  0  0  0  0  0  0  0  0  0  0  0
  -22.4690  -13.1250   22.0500 N   0  0  0  0  0  0  0  0  0  0  0  0
  -22.7870  -14.8370   20.6570 O   0  0  0  0  0  0  0  0  0  0  0  0
  -22.8140  -12.2790   22.4780 H   0  0  0  0  0  0  0  0  0  0  0  0
  -21.5520  -13.4650   22.3040 H   0  0  0  0  0  0  0  0  0  0  0  0
  -25.8850  -15.3500   20.3110 N   0  0  0  0  0  0  0  0  0  0  0  0
  -25.1580  -16.0400   20.4600 H   0  0  0  0  0  0  0  0  0  0  0  0
  -26.7570  -15.7550   19.9960 H   0  0  0  0  0  0  0  0  0  0  0  0
  -28.3130  -22.7860   18.3720 C   0  0  0  0  0  2  0  0  0  0  0  0
  -28.0910  -23.9470   19.2630 N   0  0  0  0  0  4  0  0  0  0  0  0
  -27.4870  -23.6690   20.0220 H   0  0  0  0  0  0  0  0  0  0  0  0
  -27.5860  -24.6210   18.7100 H   0  0  0  0  0  0  0  0  0  0  0  0
  -29.3150  -24.5990   19.7950 C   0  0  0  0  0  2  0  0  0  0  0  0
  -29.4380  -26.0930   19.4180 C   0  0  0  0  0  2  0  0  0  0  0  0
  -28.9800  -26.9690   20.4530 O   0  0  0  0  0  0  0  0  0  0  0  0
  -24.7480  -31.9140   23.2810 C   0  0  0  0  0  0  0  0  0  0  0  0
  -27.7550  -27.5960   20.3550 C   0  0  0  0  0  0  0  0  0  0  0  0
  -23.7010  -30.4650   21.5720 C   0  0  0  0  0  3  0  0  0  0  0  0
  -25.2950  -28.9900   20.2370 C   0  0  0  0  0  0  0  0  0  0  0  0
  -26.2140  -30.9250   21.5280 C   0  0  0  0  0  2  0  0  0  0  0  0
  -26.3900  -29.5600   20.8960 C   0  0  0  0  0  0  0  0  0  0  0  0
  -27.6160  -28.8640   20.9630 C   0  0  0  0  0  3  0  0  0  0  0  0
  -26.6380  -27.0370   19.6900 C   0  0  0  0  0  3  0  0  0  0  0  0
  -25.4120  -27.7270   19.6370 C   0  0  0  0  0  3  0  0  0  0  0  0
  -24.0170  -29.7960   20.2080 C   0  0  0  0  0  2  0  0  0  0  0  0
  -24.9010  -31.1180   22.1850 N   0  0  0  0  0  0  0  0  0  0  0  0
  -23.6270  -32.1420   23.7540 O   0  0  0  0  0  0  0  0  0  0  0  0
  -23.0370  -29.4170   22.4930 C   0  0  0  0  0  0  0  0  0  0  0  0
  -21.7200  -29.2190   22.3180 N   0  0  0  0  0  0  0  0  0  0  0  0
  -23.7030  -28.7830   23.3160 O   0  0  0  0  0  0  0  0  0  0  0  0
  -21.2450  -29.7810   21.6240 H   0  0  0  0  0  0  0  0  0  0  0  0
  -18.3310  -28.0450   22.7500 C   0  0  0  0  0  0  0  0  0  0  0  0
  -20.8890  -28.2580   23.0430 C   0  0  0  0  0  3  0  0  0  0  0  0
  -20.9790  -26.8550   22.4010 C   0  0  0  0  0  2  0  0  0  0  0  0
  -19.8760  -26.5910   21.3710 C   0  0  0  0  0  2  0  0  0  0  0  0
  -18.4950  -26.7250   22.0160 C   0  0  0  0  0  2  0  0  0  0  0  0
  -19.4560  -28.7740   23.2160 C   0  0  0  0  0  0  0  0  0  0  0  0
  -19.2520  -30.0130   23.8600 C   0  0  0  0  0  3  0  0  0  0  0  0
  -17.9530  -30.5210   24.0480 C   0  0  0  0  0  3  0  0  0  0  0  0
  -16.8410  -29.7890   23.5970 C   0  0  0  0  0  3  0  0  0  0  0  0
  -17.0300  -28.5530   22.9540 C   0  0  0  0  0  3  0  0  0  0  0  0
  -25.9700  -32.5930   23.9760 C   0  0  0  0  0  3  0  0  0  0  0  0
  -26.4220  -31.8560   25.2960 C   0  0  1  0  0  0  0  0  0  0  0  0
  -25.2620  -31.5740   26.2780 C   0  0  0  0  0  1  0  0  0  0  0  0
  -27.1020  -30.5080   24.9630 C   0  0  0  0  0  1  0  0  0  0  0  0
  -27.4760  -32.7130   26.0370 C   0  0  0  0  0  1  0  0  0  0  0  0
  -25.5980  -33.9860   24.2580 N   0  0  0  0  0  0  0  0  0  0  0  0
  -25.9400  -35.0340   23.4960 C   0  0  0  0  0  0  0  0  0  0  0  0
  -26.6700  -34.9330   22.5070 O   0  0  0  0  0  0  0  0  0  0  0  0
  -24.9570  -34.1350   25.0220 H   0  0  0  0  0  0  0  0  0  0  0  0
  -24.1590  -36.7460   23.0210 C   0  0  0  0  0  1  0  0  0  0  0  0
  -25.3800  -36.4130   23.8930 C   0  0  0  0  0  3  0  0  0  0  0  0
  -27.4420  -37.4030   24.7860 C   0  0  0  0  0  1  0  0  0  0  0  0
  -26.3750  -37.5030   23.7930 N   0  0  0  0  0  0  0  0  0  0  0  0
  -25.9290  -38.4100   23.8980 H   0  0  0  0  0  0  0  0  0  0  0  0
  1  5  1  0
  2  4  1  0
  2  6  2  0
  3  5  2  0
  4  1  2  0
  5 10  1  0
  6  3  1  0
  7  6  1  0
  8  7  1  0
 10  9  1  0
 11 16  1  0
 11 10  1  0
 11 12  1  0
 12 14  1  0
 12 13  1  0
 15 12  1  0
 16 17  1  0
 18 26  1  0
 19 24  1  0
 20 21  1  0
 20 19  1  0
 22 21  1  0
 22 31  1  0
 22 23  1  0
 24 18  1  0
 24 23  1  0
 25 18  2  0
 26 17  1  0
 26 27  1  0
 28 29  2  0
 29 48  1  0
 30 29  1  0
 30 33  1  0
 31 32  1  0
 31 28  1  0
 32 30  2  0
 33 34  1  0
 34 35  2  0
 36 39  1  0
 36 35  1  0
 37 36  2  0
 38 37  1  0
 38 33  2  0
 39 40  1  0
 40 41  1  0
 41 42  2  0
 43 42  1  0
 43 47  1  0
 44 43  2  0
 45 40  2  0
 45 44  1  0
 46 45  1  0
 48 49  1  0
 49 52  1  0
 49 51  1  0
 50 48  2  0
 53 54  1  0
 53 28  1  0
 55 53  1  0
 56  4  1  0
 56 57  1  0
 57 60  1  0
 57 58  1  0
 59 57  1  0
 61 60  1  0
 61 62  1  0
 63 74  2  0
 64 62  1  0
 64 69  1  0
 65 73  1  0
 65 75  1  0
 66 68  1  0
 67 73  1  0
 68 69  2  0
 68 67  1  0
 70 64  2  0
 71 70  1  0
 71 66  2  0
 72 66  1  0
 72 65  1  0
 73 63  1  0
 75 77  2  0
 76 75  1  0
 78 76  1  0
 79 88  2  0
 79 84  1  0
 80 76  1  0
 80 84  1  0
 81 80  1  0
 82 83  1  0
 82 81  1  0
 83 79  1  0
 84 85  2  0
 85 86  1  0
 87 86  2  0
 88 87  1  0
 89 63  1  0
 89 94  1  0
 89 90  1  0
 90 93  1  1
 90 91  1  0
 92 90  1  0
 94 97  1  0
 95 99  1  0
 95 94  1  0
 96 95  2  0
 99 98  1  0
101 99  1  0
101102  1  0
101100  1  0
M  ISO  4  18 100  26 100  61 101  62 101
M  END
>  <TORSDO>  (61) 
F 26

>  <SCORE>  (61) 
-12.151

>  <name>  (61) 
62

>  <ligand_id>  (61) 
62

>  <original_smiles>  (61) 
[H]Oc1c([H])c(C([H])(C([H])([H])[H])C([H])(C([H])([H])C([H])([H])N([H])C(=O)N2C([H])([H])C([H])([H])C([H])([H])C([H])(n3nc(-c4c([H])c([H])c(Oc5c([H])c([H])c(F)c([H])c5F)c([H])c4[H])c(C(=O)N([H])[H])c3N([H])[H])C2([H])[H])[N+]([H])([H])[H])c([H])c(C([H])([H])[N+]([H])([H])C([H])([H])C([H])([H])Oc2c([H])c([H])c3c(c2[H])C([H])([H])N(C(=O)C([H])(N([H])C(=O)C([H])(N([H])C([H])([H])[H])C([H])([H])[H])C(C([H])([H])[H])(C([H])([H])[H])C([H])([H])[H])C([H])(C(=O)N([H])C2([H])c4c([H])c([H])c([H])c([H])c4C([H])([H])C([H])([H])C2([H])[H])C3([H])[H])c1[H]

>  <smiles>  (61) 
[H]Oc1c([H])c(C([H])(C([H])([H])[H])C([H])(C([H])([H])C([H])([H])N([H])C(=O)N2C([H])([H])C([H])([H])C([H])([H])C([H])(n3nc(-c4c([H])c([H])c(Oc5c([H])c([H])c(F)c([H])c5F)c([H])c4[H])c(C(=O)N([H])[H])c3N([H])[H])C2([H])[H])[N+]([H])([H])[H])c([H])c(C([H])([H])[N+]([H])([H])C([H])([H])C([H])([H])Oc2c([H])c([H])c3c(c2[H])C([H])([H])N(C(=O)C([H])(N([H])C(=O)C([H])(N([H])C([H])([H])[H])C([H])([H])[H])C(C([H])([H])[H])(C([H])([H])[H])C([H])([H])[H])C([H])(C(=O)N([H])C2([H])c4c([H])c([H])c([H])c([H])c4C([H])([H])C([H])([H])C2([H])[H])C3([H])[H])c1[H]

$$$$
64:0:0
     RDKit          3D

 96103  0  0  1  0  0  0  0  0999 V2000
  -27.9660  -23.9620   22.8340 C   0  0  0  0  0  0  0  0  0  0  0  0
  -28.3500  -24.6160   23.9340 N   0  0  0  0  0  4  0  0  0  0  0  0
  -28.5830  -24.1710   21.6600 N   0  0  0  0  0  0  0  0  0  0  0  0
  -26.9470  -23.0950   22.9380 N   0  0  0  0  0  0  0  0  0  0  0  0
  -27.8670  -24.5010   24.8140 H   0  0  0  0  0  0  0  0  0  0  0  0
  -29.1460  -25.2350   23.9440 H   0  0  0  0  0  0  0  0  0  0  0  0
  -28.2310  -23.6920   20.8430 H   0  0  0  0  0  0  0  0  0  0  0  0
  -26.5300  -22.9520   23.8460 H   0  0  0  0  0  0  0  0  0  0  0  0
  -29.6570  -25.1440   21.3890 C   0  0  0  0  0  2  0  0  0  0  0  0
  -29.0860  -26.5670   21.2770 C   0  0  0  0  0  2  0  0  0  0  0  0
  -28.3690  -26.6870   20.0520 O   0  0  0  0  0  0  0  0  0  0  0  0
  -24.6100  -31.8710   23.2160 C   0  0  0  0  0  0  0  0  0  0  0  0
  -27.2380  -27.4630   20.0960 C   0  0  0  0  0  0  0  0  0  0  0  0
  -23.3980  -30.4940   21.5550 C   0  0  0  0  0  3  0  0  0  0  0  0
  -24.8460  -28.9590   20.1190 C   0  0  0  0  0  0  0  0  0  0  0  0
  -25.9240  -30.8400   21.3690 C   0  0  0  0  0  2  0  0  0  0  0  0
  -26.0010  -29.4750   20.7210 C   0  0  0  0  0  0  0  0  0  0  0  0
  -27.1990  -28.7320   20.7190 C   0  0  0  0  0  3  0  0  0  0  0  0
  -26.0750  -26.9630   19.4800 C   0  0  0  0  0  3  0  0  0  0  0  0
  -24.8750  -27.6980   19.4960 C   0  0  0  0  0  3  0  0  0  0  0  0
  -23.6080  -29.8250   20.1710 C   0  0  0  0  0  2  0  0  0  0  0  0
  -24.6630  -31.0820   22.1050 N   0  0  0  0  0  0  0  0  0  0  0  0
  -23.5320  -32.1440   23.7580 O   0  0  0  0  0  0  0  0  0  0  0  0
  -22.7360  -29.4660   22.5030 C   0  0  0  0  0  0  0  0  0  0  0  0
  -21.4090  -29.3040   22.3760 N   0  0  0  0  0  0  0  0  0  0  0  0
  -23.4120  -28.8190   23.3060 O   0  0  0  0  0  0  0  0  0  0  0  0
  -20.9220  -29.8810   21.7040 H   0  0  0  0  0  0  0  0  0  0  0  0
  -18.0230  -28.1380   22.8500 C   0  0  0  0  0  0  0  0  0  0  0  0
  -20.5830  -28.3610   23.1310 C   0  0  0  0  0  3  0  0  0  0  0  0
  -20.6690  -26.9370   22.5350 C   0  0  0  0  0  2  0  0  0  0  0  0
  -19.5630  -26.6350   21.5200 C   0  0  0  0  0  2  0  0  0  0  0  0
  -18.1830  -26.7900   22.1680 C   0  0  0  0  0  2  0  0  0  0  0  0
  -19.1500  -28.8810   23.2910 C   0  0  0  0  0  0  0  0  0  0  0  0
  -18.9450  -30.1440   23.8890 C   0  0  0  0  0  3  0  0  0  0  0  0
  -17.6470  -30.6620   24.0540 C   0  0  0  0  0  3  0  0  0  0  0  0
  -16.5350  -29.9100   23.6370 C   0  0  0  0  0  3  0  0  0  0  0  0
  -16.7240  -28.6510   23.0410 C   0  0  0  0  0  3  0  0  0  0  0  0
  -25.9000  -32.4850   23.8450 C   0  0  0  0  0  3  0  0  0  0  0  0
  -26.4450  -31.6610   25.0760 C   0  0  1  0  0  0  0  0  0  0  0  0
  -25.3760  -31.3680   26.1550 C   0  0  0  0  0  1  0  0  0  0  0  0
  -27.0270  -30.3060   24.6110 C   0  0  0  0  0  1  0  0  0  0  0  0
  -27.6040  -32.4330   25.7520 C   0  0  0  0  0  1  0  0  0  0  0  0
  -25.5870  -33.8640   24.2370 N   0  0  0  0  0  0  0  0  0  0  0  0
  -25.9010  -34.9490   23.5150 C   0  0  0  0  0  0  0  0  0  0  0  0
  -26.5580  -34.8930   22.4710 O   0  0  0  0  0  0  0  0  0  0  0  0
  -25.0070  -33.9840   25.0550 H   0  0  0  0  0  0  0  0  0  0  0  0
  -24.1480  -36.7330   23.2640 C   0  0  0  0  0  1  0  0  0  0  0  0
  -25.4080  -36.3110   24.0350 C   0  0  0  0  0  3  0  0  0  0  0  0
  -27.5560  -37.1830   24.8470 C   0  0  0  0  0  1  0  0  0  0  0  0
  -26.4270  -37.3800   23.9400 N   0  0  0  0  0  0  0  0  0  0  0  0
  -26.0160  -38.2880   24.1390 H   0  0  0  0  0  0  0  0  0  0  0  0
  -26.3410  -22.2900   21.8630 C   0  0  0  0  0  2  0  0  0  0  0  0
  -27.1400  -21.0070   21.5760 C   0  0  0  0  0  2  0  0  0  0  0  0
  -26.9130  -19.8730   22.5950 C   0  0  0  0  0  2  0  0  0  0  0  0
  -27.8870  -18.7080   22.3700 C   0  0  0  0  0  2  0  0  0  0  0  0
  -27.4490  -17.3750   23.0060 C   0  0  0  0  0  2  0  0  0  0  0  0
  -28.5590  -16.3050   23.0380 C   0  0  0  0  0  2  0  0  0  0  0  0
  -29.2330  -16.0570   21.6720 C   0  0  0  0  0  2  0  0  0  0  0  0
  -30.7360  -14.3710   20.7080 C   0  0  0  0  0  0  0  0  0  0  0  0
  -30.4160  -12.3000   19.3950 C   0  0  0  0  0  2  0  0  0  0  0  0
  -29.4820  -12.5210   18.1920 C   0  0  0  0  0  2  0  0  0  0  0  0
  -28.0090  -12.3470   18.6070 C   0  0  0  0  0  2  0  0  0  0  0  0
  -27.6580  -13.1800   19.8660 C   0  0  0  0  0  3  0  0  0  0  0  0
  -28.6880  -12.9210   20.9870 C   0  0  0  0  0  2  0  0  0  0  0  0
  -30.0280  -13.2370   20.4620 N   0  0  0  0  0  0  0  0  0  0  0  0
  -31.7800  -14.6570   20.1150 O   0  0  0  0  0  0  0  0  0  0  0  0
  -30.3360  -15.0970   21.7620 N   0  0  0  0  0  0  0  0  0  0  0  0
  -31.1310  -15.5260   22.2120 H   0  0  0  0  0  0  0  0  0  0  0  0
  -25.2600  -13.8100   20.5600 C   0  0  0  0  0  0  0  0  0  0  0  0
  -24.1830  -13.0420   20.9130 C   0  0  0  0  0  0  0  0  0  0  0  0
  -24.6350  -11.6880   20.8710 C   0  0  0  0  0  0  0  0  0  0  0  0
  -26.2970  -12.9210   20.3250 N   0  0  0  0  0  0  0  0  0  0  0  0
  -25.9240  -11.6400   20.5700 N   0  0  0  0  0  0  0  0  0  0  0  0
  -23.9020  -10.4280   21.0410 C   0  0  0  0  0  0  0  0  0  0  0  0
  -24.3600   -9.4200   21.9180 C   0  0  0  0  0  3  0  0  0  0  0  0
  -23.6280   -8.2230   22.0760 C   0  0  0  0  0  3  0  0  0  0  0  0
  -22.4270   -8.0270   21.3550 C   0  0  0  0  0  0  0  0  0  0  0  0
  -21.9890   -9.0230   20.4660 C   0  0  0  0  0  3  0  0  0  0  0  0
  -22.7190  -10.2110   20.3060 C   0  0  0  0  0  3  0  0  0  0  0  0
  -21.6620   -6.8880   21.4240 O   0  0  0  0  0  0  0  0  0  0  0  0
  -21.6840   -6.0750   22.5280 C   0  0  0  0  0  0  0  0  0  0  0  0
  -21.4010   -6.5660   23.8210 C   0  0  0  0  0  3  0  0  0  0  0  0
  -21.3650   -5.6810   24.9170 C   0  0  0  0  0  3  0  0  0  0  0  0
  -21.6030   -4.3070   24.7230 C   0  0  0  0  0  0  0  0  0  0  0  0
  -21.8810   -3.8170   23.4350 C   0  0  0  0  0  3  0  0  0  0  0  0
  -21.9190   -4.6990   22.3400 C   0  0  0  0  0  0  0  0  0  0  0  0
  -22.1660   -4.2180   21.0980 F   0  0  0  0  0  0  0  0  0  0  0  0
  -21.5610   -3.4550   25.7740 F   0  0  0  0  0  0  0  0  0  0  0  0
  -22.7870  -13.5270   21.1840 C   0  0  0  0  0  0  0  0  0  0  0  0
  -22.0530  -12.8250   22.0400 N   0  0  0  0  0  0  0  0  0  0  0  0
  -22.3550  -14.5590   20.6710 O   0  0  0  0  0  0  0  0  0  0  0  0
  -22.4170  -11.9890   22.4700 H   0  0  0  0  0  0  0  0  0  0  0  0
  -21.1160  -13.1290   22.2680 H   0  0  0  0  0  0  0  0  0  0  0  0
  -25.4400  -15.1790   20.3920 N   0  0  0  0  0  0  0  0  0  0  0  0
  -24.6780  -15.8420   20.4820 H   0  0  0  0  0  0  0  0  0  0  0  0
  -26.2880  -15.5960   20.0290 H   0  0  0  0  0  0  0  0  0  0  0  0
  1  4  1  0
  1  2  2  0
  2  6  1  0
  2  5  1  0
  3  1  1  0
  4  8  1  0
  7  3  1  0
  9  3  1  0
 10  9  1  0
 11 13  1  0
 11 10  1  0
 12 23  2  0
 13 18  1  0
 14 22  1  0
 14 24  1  0
 15 21  1  0
 15 17  1  0
 16 22  1  0
 17 16  1  0
 18 17  2  0
 19 20  1  0
 19 13  2  0
 20 15  2  0
 21 14  1  0
 22 12  1  0
 24 26  2  0
 25 24  1  0
 27 25  1  0
 28 37  2  0
 28 33  1  0
 29 25  1  0
 29 33  1  0
 30 29  1  0
 31 32  1  0
 31 30  1  0
 32 28  1  0
 33 34  2  0
 34 35  1  0
 36 35  2  0
 37 36  1  0
 38 12  1  0
 38 43  1  0
 38 39  1  0
 39 42  1  1
 39 40  1  0
 41 39  1  0
 43 46  1  0
 44 48  1  0
 44 43  1  0
 45 44  2  0
 48 47  1  0
 50 48  1  0
 50 51  1  0
 50 49  1  0
 52  4  1  0
 53 52  1  0
 53 54  1  0
 55 54  1  0
 55 56  1  0
 56 57  1  0
 58 67  1  0
 58 57  1  0
 59 67  1  0
 60 65  1  0
 61 62  1  0
 61 60  1  0
 63 62  1  0
 63 72  1  0
 63 64  1  0
 65 59  1  0
 65 64  1  0
 66 59  2  0
 67 68  1  0
 69 70  2  0
 70 89  1  0
 71 70  1  0
 71 74  1  0
 72 69  1  0
 72 73  1  0
 73 71  2  0
 74 75  1  0
 75 76  2  0
 77 80  1  0
 77 76  1  0
 78 77  2  0
 79 78  1  0
 79 74  2  0
 80 81  1  0
 81 82  1  0
 82 83  2  0
 84 83  1  0
 84 88  1  0
 85 84  2  0
 86 81  2  0
 86 85  1  0
 87 86  1  0
 89 90  1  0
 90 93  1  0
 90 92  1  0
 91 89  2  0
 94 95  1  0
 94 69  1  0
 96 94  1  0
M  ISO  4  10 101  11 101  59 100  67 100
M  END
>  <TORSDO>  (62) 
F 25

>  <SCORE>  (62) 
17.714

>  <name>  (62) 
64

>  <ligand_id>  (62) 
64

>  <original_smiles>  (62) 
[H]c1c([H])c([H])c2c(c1[H])C([H])([H])C([H])([H])C([H])([H])C2([H])N([H])C(=O)C1([H])N(C(=O)C([H])(N([H])C(=O)C([H])(N([H])C([H])([H])[H])C([H])([H])[H])C(C([H])([H])[H])(C([H])([H])[H])C([H])([H])[H])C([H])([H])c2c([H])c(OC([H])([H])C([H])([H])N([H])C(N([H])[H])=[N+]([H])C([H])([H])C([H])([H])C([H])([H])C([H])([H])C([H])([H])C([H])([H])C([H])([H])N([H])C(=O)N3C([H])([H])C([H])([H])C([H])([H])C([H])(n4nc(-c5c([H])c([H])c(Oc6c([H])c([H])c(F)c([H])c6F)c([H])c5[H])c(C(=O)N([H])[H])c4N([H])[H])C3([H])[H])c([H])c([H])c2C1([H])[H]

>  <smiles>  (62) 
[H]c1c([H])c([H])c2c(c1[H])C([H])([H])C([H])([H])C([H])([H])C2([H])N([H])C(=O)C1([H])N(C(=O)C([H])(N([H])C(=O)C([H])(N([H])C([H])([H])[H])C([H])([H])[H])C(C([H])([H])[H])(C([H])([H])[H])C([H])([H])[H])C([H])([H])c2c([H])c(OC([H])([H])C([H])([H])N([H])C(N([H])[H])=[N+]([H])C([H])([H])C([H])([H])C([H])([H])C([H])([H])C([H])([H])C([H])([H])C([H])([H])N([H])C(=O)N3C([H])([H])C([H])([H])C([H])([H])C([H])(n4nc(-c5c([H])c([H])c(Oc6c([H])c([H])c(F)c([H])c6F)c([H])c5[H])c(C(=O)N([H])[H])c4N([H])[H])C3([H])[H])c([H])c([H])c2C1([H])[H]

$$$$
65:0:0
     RDKit          3D

 89 96  0  0  1  0  0  0  0  0999 V2000
  -28.8090  -22.9630   19.7550 N   0  0  0  0  0  4  0  0  0  0  0  0
  -27.9360  -22.6970   19.3250 H   0  0  0  0  0  0  0  0  0  0  0  0
  -29.4910  -23.0500   19.0180 H   0  0  0  0  0  0  0  0  0  0  0  0
  -29.2590  -21.8660   20.6560 C   0  0  0  0  0  2  0  0  0  0  0  0
  -29.2120  -20.4490   20.0140 C   0  0  0  0  0  2  0  0  0  0  0  0
  -29.8550  -19.3470   20.9000 C   0  0  0  0  0  2  0  0  0  0  0  0
  -29.6250  -17.8840   20.4320 C   0  0  0  0  0  2  0  0  0  0  0  0
  -30.3840  -16.8410   21.2990 C   0  0  0  0  0  2  0  0  0  0  0  0
  -30.6620  -14.4670   20.4540 C   0  0  0  0  0  0  0  0  0  0  0  0
  -30.3600  -12.3190   19.2760 C   0  0  0  0  0  2  0  0  0  0  0  0
  -29.3980  -12.5260   18.0870 C   0  0  0  0  0  2  0  0  0  0  0  0
  -27.9290  -12.3930   18.5360 C   0  0  0  0  0  2  0  0  0  0  0  0
  -27.6130  -13.2230   19.8080 C   0  0  0  0  0  3  0  0  0  0  0  0
  -28.6780  -12.9770   20.8990 C   0  0  0  0  0  2  0  0  0  0  0  0
  -29.9950  -13.2900   20.3180 N   0  0  0  0  0  0  0  0  0  0  0  0
  -31.7760  -14.6720   19.9610 O   0  0  0  0  0  0  0  0  0  0  0  0
  -29.9660  -15.4500   21.0570 N   0  0  0  0  0  0  0  0  0  0  0  0
  -29.0560  -15.1850   21.4040 H   0  0  0  0  0  0  0  0  0  0  0  0
  -25.2240  -13.8430   20.5430 C   0  0  0  0  0  0  0  0  0  0  0  0
  -24.1560  -13.0760   20.9210 C   0  0  0  0  0  0  0  0  0  0  0  0
  -24.6080  -11.7210   20.8790 C   0  0  0  0  0  0  0  0  0  0  0  0
  -26.2620  -12.9560   20.2990 N   0  0  0  0  0  0  0  0  0  0  0  0
  -25.8950  -11.6750   20.5560 N   0  0  0  0  0  0  0  0  0  0  0  0
  -23.8770  -10.4620   21.0710 C   0  0  0  0  0  0  0  0  0  0  0  0
  -24.3330   -9.4740   21.9720 C   0  0  0  0  0  3  0  0  0  0  0  0
  -23.6040   -8.2790   22.1520 C   0  0  0  0  0  3  0  0  0  0  0  0
  -22.4040   -8.0650   21.4310 C   0  0  0  0  0  0  0  0  0  0  0  0
  -21.9670   -9.0420   20.5200 C   0  0  0  0  0  3  0  0  0  0  0  0
  -22.6970  -10.2280   20.3370 C   0  0  0  0  0  3  0  0  0  0  0  0
  -21.6440   -6.9250   21.5230 O   0  0  0  0  0  0  0  0  0  0  0  0
  -21.6460   -6.1470   22.6530 C   0  0  0  0  0  0  0  0  0  0  0  0
  -21.3110   -6.6710   23.9200 C   0  0  0  0  0  3  0  0  0  0  0  0
  -21.2590   -5.8210   25.0430 C   0  0  0  0  0  3  0  0  0  0  0  0
  -21.5320   -4.4480   24.9010 C   0  0  0  0  0  0  0  0  0  0  0  0
  -21.8600   -3.9220   23.6390 C   0  0  0  0  0  3  0  0  0  0  0  0
  -21.9140   -4.7690   22.5170 C   0  0  0  0  0  0  0  0  0  0  0  0
  -22.2110   -4.2540   21.3000 F   0  0  0  0  0  0  0  0  0  0  0  0
  -21.4740   -3.6290   25.9770 F   0  0  0  0  0  0  0  0  0  0  0  0
  -22.7630  -13.5590   21.2110 C   0  0  0  0  0  0  0  0  0  0  0  0
  -22.0420  -12.8620   22.0810 N   0  0  0  0  0  0  0  0  0  0  0  0
  -22.3250  -14.5890   20.7010 O   0  0  0  0  0  0  0  0  0  0  0  0
  -22.4100  -12.0280   22.5150 H   0  0  0  0  0  0  0  0  0  0  0  0
  -21.1090  -13.1670   22.3200 H   0  0  0  0  0  0  0  0  0  0  0  0
  -25.3970  -15.2130   20.3700 N   0  0  0  0  0  0  0  0  0  0  0  0
  -24.6380  -15.8750   20.4950 H   0  0  0  0  0  0  0  0  0  0  0  0
  -26.2480  -15.6460   20.0310 H   0  0  0  0  0  0  0  0  0  0  0  0
  -28.6310  -24.2910   20.4190 C   0  0  0  0  0  2  0  0  0  0  0  0
  -28.6020  -25.4860   19.4320 C   0  0  0  0  0  2  0  0  0  0  0  0
  -28.4380  -26.7460   20.1130 O   0  0  0  0  0  0  0  0  0  0  0  0
  -24.6050  -31.8860   23.2280 C   0  0  0  0  0  0  0  0  0  0  0  0
  -27.2280  -27.4220   20.1280 C   0  0  0  0  0  0  0  0  0  0  0  0
  -23.3840  -30.4790   21.6030 C   0  0  0  0  0  3  0  0  0  0  0  0
  -24.8250  -28.9320   20.1760 C   0  0  0  0  0  0  0  0  0  0  0  0
  -25.9110  -30.8310   21.3830 C   0  0  0  0  0  2  0  0  0  0  0  0
  -25.9880  -29.4560   20.7480 C   0  0  0  0  0  0  0  0  0  0  0  0
  -27.1890  -28.7070   20.7220 C   0  0  0  0  0  3  0  0  0  0  0  0
  -26.0310  -26.9030   19.5780 C   0  0  0  0  0  3  0  0  0  0  0  0
  -24.8400  -27.6530   19.5950 C   0  0  0  0  0  3  0  0  0  0  0  0
  -23.5830  -29.7930   20.2260 C   0  0  0  0  0  2  0  0  0  0  0  0
  -24.6530  -31.0800   22.1300 N   0  0  0  0  0  0  0  0  0  0  0  0
  -23.5270  -32.1610   23.7750 O   0  0  0  0  0  0  0  0  0  0  0  0
  -22.7420  -29.4610   22.5720 C   0  0  0  0  0  0  0  0  0  0  0  0
  -21.4170  -29.2760   22.4540 N   0  0  0  0  0  0  0  0  0  0  0  0
  -23.4320  -28.8400   23.3850 O   0  0  0  0  0  0  0  0  0  0  0  0
  -20.9210  -29.8280   21.7680 H   0  0  0  0  0  0  0  0  0  0  0  0
  -18.0480  -28.0720   22.9670 C   0  0  0  0  0  0  0  0  0  0  0  0
  -20.6060  -28.3410   23.2330 C   0  0  0  0  0  3  0  0  0  0  0  0
  -20.7130  -26.9060   22.6660 C   0  0  0  0  0  2  0  0  0  0  0  0
  -19.6100  -26.5730   21.6560 C   0  0  0  0  0  2  0  0  0  0  0  0
  -18.2300  -26.7190   22.3010 C   0  0  0  0  0  2  0  0  0  0  0  0
  -19.1660  -28.8410   23.3890 C   0  0  0  0  0  0  0  0  0  0  0  0
  -18.9440  -30.1090   23.9700 C   0  0  0  0  0  3  0  0  0  0  0  0
  -17.6390  -30.6090   24.1320 C   0  0  0  0  0  3  0  0  0  0  0  0
  -16.5360  -29.8370   23.7270 C   0  0  0  0  0  3  0  0  0  0  0  0
  -16.7420  -28.5700   23.1500 C   0  0  0  0  0  3  0  0  0  0  0  0
  -25.8950  -32.5190   23.8350 C   0  0  0  0  0  3  0  0  0  0  0  0
  -26.4310  -31.7460   25.1020 C   0  0  1  0  0  0  0  0  0  0  0  0
  -25.3520  -31.5030   26.1830 C   0  0  0  0  0  1  0  0  0  0  0  0
  -27.0130  -30.3710   24.6970 C   0  0  0  0  0  1  0  0  0  0  0  0
  -27.5890  -32.5420   25.7510 C   0  0  0  0  0  1  0  0  0  0  0  0
  -25.5850  -33.9160   24.1710 N   0  0  0  0  0  0  0  0  0  0  0  0
  -25.9070  -34.9690   23.4080 C   0  0  0  0  0  0  0  0  0  0  0  0
  -26.5670  -34.8700   22.3710 O   0  0  0  0  0  0  0  0  0  0  0  0
  -24.9950  -34.0670   24.9760 H   0  0  0  0  0  0  0  0  0  0  0  0
  -24.1640  -36.7520   23.0810 C   0  0  0  0  0  1  0  0  0  0  0  0
  -25.4190  -36.3550   23.8730 C   0  0  0  0  0  3  0  0  0  0  0  0
  -27.5650  -37.2470   24.6680 C   0  0  0  0  0  1  0  0  0  0  0  0
  -26.4460  -37.4130   23.7450 N   0  0  0  0  0  0  0  0  0  0  0  0
  -26.0380  -38.3300   23.9040 H   0  0  0  0  0  0  0  0  0  0  0  0
  1 47  1  0
  1  4  1  0
  2  1  1  0
  3  1  1  0
  5  4  1  0
  5  6  1  0
  7  6  1  0
  7  8  1  0
  9 17  1  0
 10 15  1  0
 11 12  1  0
 11 10  1  0
 13 12  1  0
 13 22  1  0
 13 14  1  0
 15  9  1  0
 15 14  1  0
 16  9  2  0
 17  8  1  0
 17 18  1  0
 19 20  2  0
 20 39  1  0
 21 20  1  0
 21 24  1  0
 22 19  1  0
 22 23  1  0
 23 21  2  0
 24 25  1  0
 25 26  2  0
 27 30  1  0
 27 26  1  0
 28 27  2  0
 29 28  1  0
 29 24  2  0
 30 31  1  0
 31 32  1  0
 32 33  2  0
 34 33  1  0
 34 38  1  0
 35 34  2  0
 36 31  2  0
 36 35  1  0
 37 36  1  0
 39 40  1  0
 40 43  1  0
 40 42  1  0
 41 39  2  0
 44 45  1  0
 44 19  1  0
 46 44  1  0
 48 49  1  0
 48 47  1  0
 49 51  1  0
 50 61  2  0
 51 56  1  0
 52 60  1  0
 52 62  1  0
 53 59  1  0
 53 55  1  0
 54 60  1  0
 55 54  1  0
 56 55  2  0
 57 58  1  0
 57 51  2  0
 58 53  2  0
 59 52  1  0
 60 50  1  0
 62 64  2  0
 63 62  1  0
 65 63  1  0
 66 75  2  0
 66 71  1  0
 67 63  1  0
 67 71  1  0
 68 67  1  0
 69 70  1  0
 69 68  1  0
 70 66  1  0
 71 72  2  0
 72 73  1  0
 74 73  2  0
 75 74  1  0
 76 50  1  0
 76 81  1  0
 76 77  1  0
 77 80  1  1
 77 78  1  0
 79 77  1  0
 81 84  1  0
 82 86  1  0
 82 81  1  0
 83 82  2  0
 86 85  1  0
 88 86  1  0
 88 89  1  0
 88 87  1  0
M  ISO  4   9 100  17 100  48 101  49 101
M  END
>  <TORSDO>  (63) 
F 23

>  <SCORE>  (63) 
-12.591

>  <name>  (63) 
65

>  <ligand_id>  (63) 
65

>  <original_smiles>  (63) 
[H]c1c([H])c([H])c2c(c1[H])C([H])([H])C([H])([H])C([H])([H])C2([H])N([H])C(=O)C1([H])N(C(=O)C([H])(N([H])C(=O)C([H])(N([H])C([H])([H])[H])C([H])([H])[H])C(C([H])([H])[H])(C([H])([H])[H])C([H])([H])[H])C([H])([H])c2c([H])c(OC([H])([H])C([H])([H])[N+]([H])([H])C([H])([H])C([H])([H])C([H])([H])C([H])([H])C([H])([H])N([H])C(=O)N3C([H])([H])C([H])([H])C([H])([H])C([H])(n4nc(-c5c([H])c([H])c(Oc6c([H])c([H])c(F)c([H])c6F)c([H])c5[H])c(C(=O)N([H])[H])c4N([H])[H])C3([H])[H])c([H])c([H])c2C1([H])[H]

>  <smiles>  (63) 
[H]c1c([H])c([H])c2c(c1[H])C([H])([H])C([H])([H])C([H])([H])C2([H])N([H])C(=O)C1([H])N(C(=O)C([H])(N([H])C(=O)C([H])(N([H])C([H])([H])[H])C([H])([H])[H])C(C([H])([H])[H])(C([H])([H])[H])C([H])([H])[H])C([H])([H])c2c([H])c(OC([H])([H])C([H])([H])[N+]([H])([H])C([H])([H])C([H])([H])C([H])([H])C([H])([H])C([H])([H])N([H])C(=O)N3C([H])([H])C([H])([H])C([H])([H])C([H])(n4nc(-c5c([H])c([H])c(Oc6c([H])c([H])c(F)c([H])c6F)c([H])c5[H])c(C(=O)N([H])[H])c4N([H])[H])C3([H])[H])c([H])c([H])c2C1([H])[H]

$$$$
66:0:0
     RDKit          3D

 93100  0  0  1  0  0  0  0  0999 V2000
  -29.9460  -23.0140   22.7130 C   0  0  0  0  0  2  0  0  0  0  0  0
  -29.1980  -23.4830   21.5220 N   0  0  0  0  0  4  0  0  0  0  0  0
  -28.2380  -23.1860   21.6170 H   0  0  0  0  0  0  0  0  0  0  0  0
  -29.5780  -23.0350   20.7000 H   0  0  0  0  0  0  0  0  0  0  0  0
  -29.2260  -24.9570   21.3430 C   0  0  0  0  0  2  0  0  0  0  0  0
  -28.2820  -25.4400   20.2280 C   0  0  0  0  0  2  0  0  0  0  0  0
  -28.3250  -26.8710   20.1900 O   0  0  0  0  0  0  0  0  0  0  0  0
  -24.4920  -31.9880   23.2730 C   0  0  0  0  0  0  0  0  0  0  0  0
  -27.1310  -27.5580   20.1860 C   0  0  0  0  0  0  0  0  0  0  0  0
  -23.2790  -30.5800   21.6410 C   0  0  0  0  0  3  0  0  0  0  0  0
  -24.7270  -29.0440   20.2100 C   0  0  0  0  0  0  0  0  0  0  0  0
  -25.8010  -30.9480   21.4270 C   0  0  0  0  0  2  0  0  0  0  0  0
  -25.8840  -29.5770   20.7890 C   0  0  0  0  0  0  0  0  0  0  0  0
  -27.0880  -28.8410   20.7720 C   0  0  0  0  0  3  0  0  0  0  0  0
  -25.9570  -27.0400   19.5910 C   0  0  0  0  0  3  0  0  0  0  0  0
  -24.7570  -27.7740   19.6100 C   0  0  0  0  0  3  0  0  0  0  0  0
  -23.4810  -29.8980   20.2600 C   0  0  0  0  0  2  0  0  0  0  0  0
  -24.5430  -31.1850   22.1720 N   0  0  0  0  0  0  0  0  0  0  0  0
  -23.4150  -32.2580   23.8190 O   0  0  0  0  0  0  0  0  0  0  0  0
  -22.6370  -29.5580   22.6070 C   0  0  0  0  0  0  0  0  0  0  0  0
  -21.3160  -29.3630   22.4780 N   0  0  0  0  0  0  0  0  0  0  0  0
  -23.3260  -28.9440   23.4250 O   0  0  0  0  0  0  0  0  0  0  0  0
  -20.8220  -29.9110   21.7870 H   0  0  0  0  0  0  0  0  0  0  0  0
  -17.9550  -28.1270   22.9560 C   0  0  0  0  0  0  0  0  0  0  0  0
  -20.5050  -28.4230   23.2520 C   0  0  0  0  0  3  0  0  0  0  0  0
  -20.6340  -26.9880   22.6950 C   0  0  0  0  0  2  0  0  0  0  0  0
  -19.5480  -26.6370   21.6750 C   0  0  0  0  0  2  0  0  0  0  0  0
  -18.1570  -26.7710   22.3020 C   0  0  0  0  0  2  0  0  0  0  0  0
  -19.0590  -28.9100   23.3890 C   0  0  0  0  0  0  0  0  0  0  0  0
  -18.8170  -30.1800   23.9570 C   0  0  0  0  0  3  0  0  0  0  0  0
  -17.5050  -30.6660   24.1020 C   0  0  0  0  0  3  0  0  0  0  0  0
  -16.4150  -29.8810   23.6880 C   0  0  0  0  0  3  0  0  0  0  0  0
  -16.6410  -28.6140   23.1200 C   0  0  0  0  0  3  0  0  0  0  0  0
  -25.7820  -32.6210   23.8830 C   0  0  0  0  0  3  0  0  0  0  0  0
  -25.4750  -34.0190   24.2100 N   0  0  0  0  0  0  0  0  0  0  0  0
  -25.7970  -35.0680   23.4410 C   0  0  0  0  0  0  0  0  0  0  0  0
  -26.4570  -34.9610   22.4040 O   0  0  0  0  0  0  0  0  0  0  0  0
  -24.8880  -34.1760   25.0160 H   0  0  0  0  0  0  0  0  0  0  0  0
  -24.0540  -36.8470   23.1030 C   0  0  0  0  0  1  0  0  0  0  0  0
  -25.3110  -36.4560   23.8950 C   0  0  0  0  0  3  0  0  0  0  0  0
  -27.4550  -37.3570   24.6810 C   0  0  0  0  0  1  0  0  0  0  0  0
  -26.3360  -37.5140   23.7560 N   0  0  0  0  0  0  0  0  0  0  0  0
  -25.9280  -38.4330   23.9080 H   0  0  0  0  0  0  0  0  0  0  0  0
  -26.3110  -31.8530   25.1550 C   0  0  1  0  0  0  0  0  0  0  0  0
  -25.2280  -31.6120   26.2310 C   0  0  0  0  0  1  0  0  0  0  0  0
  -26.8970  -30.4780   24.7580 C   0  0  0  0  0  1  0  0  0  0  0  0
  -27.4640  -32.6520   25.8090 C   0  0  0  0  0  1  0  0  0  0  0  0
  -29.8210  -21.4920   22.9690 C   0  0  0  0  0  2  0  0  0  0  0  0
  -30.6360  -20.6190   22.0100 C   0  0  0  0  0  0  0  0  0  0  0  0
  -31.1400  -19.4800   22.5070 N   0  0  0  0  0  0  0  0  0  0  0  0
  -30.8080  -20.9770   20.8430 O   0  0  0  0  0  0  0  0  0  0  0  0
  -30.9400  -19.2750   23.4770 H   0  0  0  0  0  0  0  0  0  0  0  0
  -32.0390  -18.5580   21.8120 C   0  0  0  0  0  2  0  0  0  0  0  0
  -31.5730  -17.0920   21.9170 C   0  0  0  0  0  2  0  0  0  0  0  0
  -30.3040  -16.7980   21.0940 C   0  0  0  0  0  2  0  0  0  0  0  0
  -30.5270  -14.4800   20.2120 C   0  0  0  0  0  0  0  0  0  0  0  0
  -30.1670  -12.3810   18.9740 C   0  0  0  0  0  2  0  0  0  0  0  0
  -29.1690  -12.6190   17.8230 C   0  0  0  0  0  2  0  0  0  0  0  0
  -27.7170  -12.4590   18.3170 C   0  0  0  0  0  2  0  0  0  0  0  0
  -27.4360  -13.2600   19.6160 C   0  0  0  0  0  3  0  0  0  0  0  0
  -28.5370  -12.9970   20.6680 C   0  0  0  0  0  2  0  0  0  0  0  0
  -29.8420  -13.3160   20.0600 N   0  0  0  0  0  0  0  0  0  0  0  0
  -31.5530  -14.7500   19.5790 O   0  0  0  0  0  0  0  0  0  0  0  0
  -29.9680  -15.3730   21.0390 N   0  0  0  0  0  0  0  0  0  0  0  0
  -29.1390  -15.0730   21.5320 H   0  0  0  0  0  0  0  0  0  0  0  0
  -25.0540  -13.8330   20.4130 C   0  0  0  0  0  0  0  0  0  0  0  0
  -24.0110  -13.0430   20.8210 C   0  0  0  0  0  0  0  0  0  0  0  0
  -24.4910  -11.6990   20.7670 C   0  0  0  0  0  0  0  0  0  0  0  0
  -26.1030  -12.9670   20.1410 N   0  0  0  0  0  0  0  0  0  0  0  0
  -25.7680  -11.6800   20.4080 N   0  0  0  0  0  0  0  0  0  0  0  0
  -23.7920  -10.4250   20.9830 C   0  0  0  0  0  0  0  0  0  0  0  0
  -24.2740   -9.4640   21.8990 C   0  0  0  0  0  3  0  0  0  0  0  0
  -23.5750   -8.2550   22.1020 C   0  0  0  0  0  3  0  0  0  0  0  0
  -22.3800   -7.9980   21.3880 C   0  0  0  0  0  0  0  0  0  0  0  0
  -21.9170   -8.9470   20.4600 C   0  0  0  0  0  3  0  0  0  0  0  0
  -22.6170  -10.1480   20.2560 C   0  0  0  0  0  3  0  0  0  0  0  0
  -21.6490   -6.8390   21.5020 O   0  0  0  0  0  0  0  0  0  0  0  0
  -21.6530   -6.0950   22.6540 C   0  0  0  0  0  0  0  0  0  0  0  0
  -21.2780   -6.6460   23.8980 C   0  0  0  0  0  3  0  0  0  0  0  0
  -21.2300   -5.8270   25.0440 C   0  0  0  0  0  3  0  0  0  0  0  0
  -21.5470   -4.4580   24.9470 C   0  0  0  0  0  0  0  0  0  0  0  0
  -21.9160   -3.9070   23.7070 C   0  0  0  0  0  3  0  0  0  0  0  0
  -21.9660   -4.7230   22.5630 C   0  0  0  0  0  0  0  0  0  0  0  0
  -22.3010   -4.1830   21.3670 F   0  0  0  0  0  0  0  0  0  0  0  0
  -21.4940   -3.6700   26.0460 F   0  0  0  0  0  0  0  0  0  0  0  0
  -22.6200  -13.4990   21.1520 C   0  0  0  0  0  0  0  0  0  0  0  0
  -21.9390  -12.7890   22.0460 N   0  0  0  0  0  0  0  0  0  0  0  0
  -22.1430  -14.5180   20.6550 O   0  0  0  0  0  0  0  0  0  0  0  0
  -22.3370  -11.9640   22.4710 H   0  0  0  0  0  0  0  0  0  0  0  0
  -21.0070  -13.0740   22.3100 H   0  0  0  0  0  0  0  0  0  0  0  0
  -25.1910  -15.2050   20.2330 N   0  0  0  0  0  0  0  0  0  0  0  0
  -24.4220  -15.8510   20.3750 H   0  0  0  0  0  0  0  0  0  0  0  0
  -26.0260  -15.6560   19.8810 H   0  0  0  0  0  0  0  0  0  0  0  0
  1 48  1  0
  2  3  1  0
  2  1  1  0
  4  2  1  0
  5  2  1  0
  6  5  1  0
  7  6  1  0
  8 19  2  0
  9  7  1  0
  9 14  1  0
 10 18  1  0
 10 20  1  0
 11 17  1  0
 11 13  1  0
 12 18  1  0
 13 12  1  0
 14 13  2  0
 15 16  1  0
 15  9  2  0
 16 11  2  0
 17 10  1  0
 18  8  1  0
 20 22  2  0
 21 20  1  0
 23 21  1  0
 24 33  2  0
 24 29  1  0
 25 21  1  0
 25 29  1  0
 26 25  1  0
 27 28  1  0
 27 26  1  0
 28 24  1  0
 29 30  2  0
 30 31  1  0
 32 31  2  0
 33 32  1  0
 34  8  1  0
 34 35  1  0
 34 44  1  0
 35 38  1  0
 36 40  1  0
 36 35  1  0
 37 36  2  0
 40 39  1  0
 42 40  1  0
 42 43  1  0
 42 41  1  0
 44 47  1  1
 44 45  1  0
 46 44  1  0
 49 50  1  0
 49 48  1  0
 50 52  1  0
 51 49  2  0
 53 54  1  0
 53 50  1  0
 55 54  1  0
 56 64  1  0
 57 62  1  0
 58 59  1  0
 58 57  1  0
 60 59  1  0
 60 69  1  0
 60 61  1  0
 62 56  1  0
 62 61  1  0
 63 56  2  0
 64 55  1  0
 64 65  1  0
 66 67  2  0
 67 86  1  0
 68 67  1  0
 68 71  1  0
 69 70  1  0
 69 66  1  0
 70 68  2  0
 71 72  1  0
 72 73  2  0
 74 77  1  0
 74 73  1  0
 75 74  2  0
 76 75  1  0
 76 71  2  0
 77 78  1  0
 78 79  1  0
 79 80  2  0
 81 80  1  0
 81 85  1  0
 82 81  2  0
 83 78  2  0
 83 82  1  0
 84 83  1  0
 86 87  1  0
 87 90  1  0
 87 89  1  0
 88 86  2  0
 91 92  1  0
 91 66  1  0
 93 91  1  0
M  ISO  4   6 101   7 101  56 100  64 100
M  END
>  <TORSDO>  (64) 
F 24

>  <SCORE>  (64) 
-12.087

>  <name>  (64) 
66

>  <ligand_id>  (64) 
66

>  <original_smiles>  (64) 
[H]c1c([H])c([H])c2c(c1[H])C([H])([H])C([H])([H])C([H])([H])C2([H])N([H])C(=O)C1([H])N(C(=O)C([H])(N([H])C(=O)C([H])(N([H])C([H])([H])[H])C([H])([H])[H])C(C([H])([H])[H])(C([H])([H])[H])C([H])([H])[H])C([H])([H])c2c([H])c(OC([H])([H])C([H])([H])[N+]([H])([H])C([H])([H])C([H])([H])C(=O)N([H])C([H])([H])C([H])([H])C([H])([H])N([H])C(=O)N3C([H])([H])C([H])([H])C([H])([H])C([H])(n4nc(-c5c([H])c([H])c(Oc6c([H])c([H])c(F)c([H])c6F)c([H])c5[H])c(C(=O)N([H])[H])c4N([H])[H])C3([H])[H])c([H])c([H])c2C1([H])[H]

>  <smiles>  (64) 
[H]c1c([H])c([H])c2c(c1[H])C([H])([H])C([H])([H])C([H])([H])C2([H])N([H])C(=O)C1([H])N(C(=O)C([H])(N([H])C(=O)C([H])(N([H])C([H])([H])[H])C([H])([H])[H])C(C([H])([H])[H])(C([H])([H])[H])C([H])([H])[H])C([H])([H])c2c([H])c(OC([H])([H])C([H])([H])[N+]([H])([H])C([H])([H])C([H])([H])C(=O)N([H])C([H])([H])C([H])([H])C([H])([H])N([H])C(=O)N3C([H])([H])C([H])([H])C([H])([H])C([H])(n4nc(-c5c([H])c([H])c(Oc6c([H])c([H])c(F)c([H])c6F)c([H])c5[H])c(C(=O)N([H])[H])c4N([H])[H])C3([H])[H])c([H])c([H])c2C1([H])[H]

$$$$
67:0:0
     RDKit          3D

101105  0  0  1  0  0  0  0  0999 V2000
  -24.1780  -22.4650   17.8490 C   0  0  0  0  0  0  0  0  0  0  0  0
  -23.2270  -22.5100   18.7950 N   0  0  0  0  0  0  0  0  0  0  0  0
  -24.2410  -23.2710   16.9210 O   0  0  0  0  0  0  0  0  0  0  0  0
  -23.2870  -21.7940   19.5050 H   0  0  0  0  0  0  0  0  0  0  0  0
  -26.1410  -21.0760   17.0550 C   0  0  0  0  0  3  0  0  0  0  0  0
  -25.5260  -20.9700   19.4070 C   0  0  0  0  0  3  0  0  0  0  0  0
  -27.3030  -20.3210   17.3180 C   0  0  0  0  0  3  0  0  0  0  0  0
  -26.6860  -20.2120   19.6690 C   0  0  0  0  0  3  0  0  0  0  0  0
  -25.2790  -21.4690   18.1070 C   0  0  0  0  0  0  0  0  0  0  0  0
  -27.6060  -19.9230   18.6350 C   0  0  0  0  0  0  0  0  0  0  0  0
  -28.9540  -19.3030   18.9920 C   0  0  0  0  0  2  0  0  0  0  0  0
  -29.5340  -18.1940   18.0710 C   0  0  0  0  0  2  0  0  0  0  0  0
  -30.4670  -17.2180   18.8410 C   0  0  0  0  0  3  0  0  0  0  0  0
  -32.2840  -15.5020   18.1080 C   0  0  0  0  0  0  0  0  0  0  0  0
  -32.3870  -13.0550   18.4280 C   0  0  0  0  0  2  0  0  0  0  0  0
  -31.3360  -12.4000   17.5000 C   0  0  0  0  0  2  0  0  0  0  0  0
  -29.9330  -12.3800   18.1510 C   0  0  0  0  0  2  0  0  0  0  0  0
  -29.5470  -13.7540   18.7610 C   0  0  0  0  0  3  0  0  0  0  0  0
  -30.7140  -14.2170   19.6620 C   0  0  0  0  0  2  0  0  0  0  0  0
  -31.8810  -14.3900   18.7900 N   0  0  0  0  0  0  0  0  0  0  0  0
  -33.3080  -15.4920   17.4170 O   0  0  0  0  0  0  0  0  0  0  0  0
  -31.4210  -16.5370   17.9400 N   0  0  0  0  0  0  0  0  0  0  0  0
  -31.7350  -17.1400   17.1930 H   0  0  0  0  0  0  0  0  0  0  0  0
  -27.5100  -14.7200   20.0090 C   0  0  0  0  0  0  0  0  0  0  0  0
  -26.3980  -14.1190   20.5340 C   0  0  0  0  0  0  0  0  0  0  0  0
  -26.5500  -12.7220   20.2840 C   0  0  0  0  0  0  0  0  0  0  0  0
  -28.2840  -13.6910   19.4890 N   0  0  0  0  0  0  0  0  0  0  0  0
  -27.7140  -12.4780   19.7000 N   0  0  0  0  0  0  0  0  0  0  0  0
  -25.6260  -11.6060   20.5160 C   0  0  0  0  0  0  0  0  0  0  0  0
  -25.9080  -10.6040   21.4690 C   0  0  0  0  0  3  0  0  0  0  0  0
  -25.0010   -9.5460   21.6880 C   0  0  0  0  0  3  0  0  0  0  0  0
  -23.7940   -9.4860   20.9510 C   0  0  0  0  0  0  0  0  0  0  0  0
  -23.5290  -10.4720   19.9840 C   0  0  0  0  0  3  0  0  0  0  0  0
  -24.4380  -11.5200   19.7650 C   0  0  0  0  0  3  0  0  0  0  0  0
  -22.8660   -8.4810   21.0790 O   0  0  0  0  0  0  0  0  0  0  0  0
  -22.5010   -7.9930   22.3070 C   0  0  0  0  0  0  0  0  0  0  0  0
  -21.9630   -8.8270   23.3130 C   0  0  0  0  0  3  0  0  0  0  0  0
  -21.5360   -8.2700   24.5350 C   0  0  0  0  0  3  0  0  0  0  0  0
  -21.6340   -6.8830   24.7490 C   0  0  0  0  0  0  0  0  0  0  0  0
  -22.1630   -6.0490   23.7480 C   0  0  0  0  0  3  0  0  0  0  0  0
  -22.5910   -6.6040   22.5280 C   0  0  0  0  0  0  0  0  0  0  0  0
  -23.0790   -5.7950   21.5580 F   0  0  0  0  0  0  0  0  0  0  0  0
  -21.2140   -6.3460   25.9190 F   0  0  0  0  0  0  0  0  0  0  0  0
  -25.2120  -14.8100   21.1450 C   0  0  0  0  0  0  0  0  0  0  0  0
  -24.5780  -14.1750   22.1280 N   0  0  0  0  0  0  0  0  0  0  0  0
  -24.8700  -15.9350   20.7880 O   0  0  0  0  0  0  0  0  0  0  0  0
  -24.8690  -13.2560   22.4270 H   0  0  0  0  0  0  0  0  0  0  0  0
  -23.7870  -14.6090   22.5820 H   0  0  0  0  0  0  0  0  0  0  0  0
  -27.9180  -16.0460   19.9140 N   0  0  0  0  0  0  0  0  0  0  0  0
  -27.3610  -16.8130   20.2750 H   0  0  0  0  0  0  0  0  0  0  0  0
  -28.7630  -16.3530   19.4510 H   0  0  0  0  0  0  0  0  0  0  0  0
  -30.8010  -17.4470   21.4230 C   0  0  0  0  0  1  0  0  0  0  0  0
  -31.2600  -17.8560   20.0130 C   0  0  0  0  0  2  0  0  0  0  0  0
  -22.3620  -23.6510   19.0960 C   0  0  0  0  0  2  0  0  0  0  0  0
  -22.9090  -25.0040   18.6050 C   0  0  0  0  0  2  0  0  0  0  0  0
  -23.5790  -25.7970   19.7600 C   0  0  0  0  0  2  0  0  0  0  0  0
  -24.9830  -26.3450   19.4390 C   0  0  0  0  0  0  0  0  0  0  0  0
  -25.5840  -25.8830   18.4660 O   0  0  0  0  0  0  0  0  0  0  0  0
  -25.6240  -27.5300   20.3050 C   0  0  0  0  0  1  0  0  0  0  0  0
  -25.9910  -28.0850   23.3130 C   0  0  0  0  0 15  0  0  0  0  0  0
  -24.8070  -29.2940   24.5140 O   0  0  0  0  0  1  0  0  0  0  0  0
  -28.4010  -33.1920   24.1030 C   0  0  0  0  0  0  0  0  0  0  0  0
  -24.4150  -30.0310   25.8370 C   0  0  0  0  0  3  0  0  0  0  0  0
  -28.0730  -30.8280   24.5120 C   0  0  0  0  0  3  0  0  0  0  0  0
  -26.7290  -30.0500   26.5910 C   0  0  0  0  0  3  0  0  0  0  0  0
  -27.1860  -32.4850   26.1880 C   0  0  0  0  0  2  0  0  0  0  0  0
  -26.2280  -31.3530   26.5130 C   0  0  0  0  0  3  0  0  0  0  0  0
  -24.8590  -31.3680   26.2190 C   0  0  0  0  0  2  0  0  0  0  0  0
  -24.4780  -29.2300   26.9590 C   0  0  0  0  0  2  0  0  0  0  0  0
  -25.8550  -28.9980   27.0060 C   0  0  0  0  0  2  0  0  0  0  0  0
  -27.9140  -29.7980   25.7050 C   0  0  0  0  0  2  0  0  0  0  0  0
  -27.9460  -32.2270   24.9480 N   0  0  0  0  0  0  0  0  0  0  0  0
  -29.0000  -32.9080   23.0530 O   0  0  0  0  0  0  0  0  0  0  0  0
  -27.1040  -30.7150   23.3170 C   0  0  0  0  0  0  0  0  0  0  0  0
  -27.5140  -30.0110   22.3190 N   0  0  0  0  0  0  0  0  0  0  0  0
  -26.0210  -31.2810   23.2190 O   0  0  0  0  0  0  0  0  0  0  0  0
  -28.4510  -29.6300   22.3320 H   0  0  0  0  0  0  0  0  0  0  0  0
  -27.4130  -26.6340   21.5250 C   0  0  0  0  0  0  0  0  0  0  0  0
  -26.5980  -29.4590   21.3540 C   0  0  0  0  0  2  0  0  0  0  0  0
  -24.4440  -29.2400   21.6050 C   0  0  0  0  0 15  0  0  0  0  0  0
  -24.2130  -27.1850   22.3120 C   0  0  0  0  0  1  0  0  0  0  0  0
  -25.8760  -26.1540   22.2740 C   0  0  0  0  0  2  0  0  0  0  0  0
  -27.7290  -28.0990   21.2190 C   0  0  0  0  0  0  0  0  0  0  0  0
  -28.9200  -28.3510   20.4520 C   0  0  0  0  0  3  0  0  0  0  0  0
  -29.7360  -27.3610   19.8540 C   0  0  0  0  0  3  0  0  0  0  0  0
  -29.3290  -26.0230   19.9210 C   0  0  0  0  0  3  0  0  0  0  0  0
  -28.1880  -25.6860   20.7120 C   0  0  0  0  0  3  0  0  0  0  0  0
  -28.2120  -34.6840   24.4360 C   0  0  0  0  0  3  0  0  0  0  0  0
  -29.2510  -35.3890   23.6830 N   0  0  0  0  0  0  0  0  0  0  0  0
  -30.4450  -35.7200   24.1830 C   0  0  0  0  0  0  0  0  0  0  0  0
  -30.7410  -35.5500   25.3680 O   0  0  0  0  0  0  0  0  0  0  0  0
  -29.0910  -35.5120   22.6950 H   0  0  0  0  0  0  0  0  0  0  0  0
  -32.5160  -35.3030   22.8190 C   0  0  0  0  0  1  0  0  0  0  0  0
  -31.4640  -36.3490   23.2180 C   0  0  0  0  0  3  0  0  0  0  0  0
  -31.2310  -38.6850   23.9340 C   0  0  0  0  0  1  0  0  0  0  0  0
  -32.1310  -37.5440   23.7760 N   0  0  0  0  0  0  0  0  0  0  0  0
  -32.9090  -37.8300   23.1880 H   0  0  0  0  0  0  0  0  0  0  0  0
  -26.7820  -35.2330   24.0680 C   0  0  1  0  0  0  0  0  0  0  0  0
  -26.3030  -34.8590   22.6440 C   0  0  0  0  0  1  0  0  0  0  0  0
  -25.7160  -34.7240   25.0650 C   0  0  0  0  0  1  0  0  0  0  0  0
  -26.7930  -36.7730   24.1840 C   0  0  0  0  0  1  0  0  0  0  0  0
  1  9  1  0
  1  2  1  0
  2 54  1  0
  2  4  1  0
  3  1  2  0
  5  7  2  0
  5  9  1  0
  6  8  1  0
  7 10  1  0
  9  6  2  0
 10 11  1  0
 10  8  2  0
 12 11  1  0
 13 12  1  0
 13 53  1  0
 14 20  1  0
 15 20  1  0
 16 17  1  0
 16 15  1  0
 18 17  1  0
 18 27  1  0
 18 19  1  0
 20 19  1  0
 21 14  2  0
 22 14  1  0
 22 13  1  0
 23 22  1  0
 24 25  2  0
 25 44  1  0
 26 29  1  0
 26 25  1  0
 27 28  1  0
 27 24  1  0
 28 26  2  0
 29 30  1  0
 30 31  2  0
 32 35  1  0
 32 31  1  0
 33 32  2  0
 34 33  1  0
 34 29  2  0
 35 36  1  0
 36 41  2  0
 36 37  1  0
 37 38  2  0
 38 39  1  0
 39 43  1  0
 40 39  2  0
 41 40  1  0
 42 41  1  0
 44 45  1  0
 45 47  1  0
 45 48  1  0
 46 44  2  0
 49 24  1  0
 49 50  1  0
 51 49  1  0
 53 52  1  0
 55 54  1  0
 55 56  1  0
 57 56  1  0
 57 59  1  0
 58 57  2  0
 62 72  1  0
 63 61  1  0
 63 68  1  0
 63 69  1  0
 64 74  1  0
 64 72  1  0
 64 71  1  0
 65 71  1  0
 65 70  1  0
 67 66  1  0
 67 65  1  0
 68 67  1  0
 69 70  1  0
 72 66  1  0
 73 62  2  0
 75 77  1  0
 75 74  1  0
 76 74  2  0
 78 82  1  0
 79 75  1  0
 82 81  1  0
 83 79  1  0
 83 78  1  0
 84 83  2  0
 85 86  2  0
 85 84  1  0
 86 87  1  0
 87 78  2  0
 88 62  1  0
 89 90  1  0
 89 88  1  0
 90 91  2  0
 92 89  1  0
 94 93  1  0
 94 96  1  0
 94 90  1  0
 96 95  1  0
 97 96  1  0
 98101  1  6
 98 88  1  0
 98100  1  0
 99 98  1  0
M  ISO  4  14 100  22 100  60 101  61 101
M  END
>  <TORSDO>  (65) 
F 27

>  <SCORE>  (65) 
-4.385

>  <name>  (65) 
67

>  <ligand_id>  (65) 
67

>  <original_smiles>  (65) 
[H]c1c([H])c([H])c2c(c1[H])C([H])([H])C([H])([H])C([H])([H])C2([H])N([H])C(=O)C1([H])N(C(=O)C([H])(N([H])C(=O)C([H])(N([H])C([H])([H])[H])C([H])([H])[H])C(C([H])([H])[H])(C([H])([H])[H])C([H])([H])[H])C([H])([H])c2c([H])c(OC([H])([H])C([H])([H])C(=O)C([H])([H])C([H])([H])C([H])([H])N([H])C(=O)c3c([H])c([H])c(C([H])([H])C([H])([H])C([H])(N([H])C(=O)N4C([H])([H])C([H])([H])C([H])([H])C([H])(n5nc(-c6c([H])c([H])c(Oc7c([H])c([H])c(F)c([H])c7F)c([H])c6[H])c(C(=O)N([H])[H])c5N([H])[H])C4([H])[H])C([H])([H])C([H])([H])[H])c([H])c3[H])c([H])c([H])c2C1([H])[H]

>  <smiles>  (65) 
[H]c1c([H])c([H])c2c(c1[H])C([H])([H])C([H])([H])C([H])([H])C2([H])N([H])C(=O)C1([H])N(C(=O)C([H])(N([H])C(=O)C([H])(N([H])C([H])([H])[H])C([H])([H])[H])C(C([H])([H])[H])(C([H])([H])[H])C([H])([H])[H])C([H])([H])c2c([H])c(OC([H])([H])C([H])([H])C(=O)C([H])([H])C([H])([H])C([H])([H])N([H])C(=O)c3c([H])c([H])c(C([H])([H])C([H])([H])C([H])(N([H])C(=O)N4C([H])([H])C([H])([H])C([H])([H])C([H])(n5nc(-c6c([H])c([H])c(Oc7c([H])c([H])c(F)c([H])c7F)c([H])c6[H])c(C(=O)N([H])[H])c5N([H])[H])C4([H])[H])C([H])([H])C([H])([H])[H])c([H])c3[H])c([H])c([H])c2C1([H])[H]

$$$$
68:0:0
     RDKit          3D

101109  0  0  1  0  0  0  0  0999 V2000
  -33.8790  -22.9040   22.1750 C   0  0  0  0  0  3  0  0  0  0  0  0
  -33.1420  -23.0270   20.9830 C   0  0  0  0  0  3  0  0  0  0  0  0
  -33.3010  -22.2850   23.2990 C   0  0  0  0  0  3  0  0  0  0  0  0
  -31.2550  -21.8940   22.0310 C   0  0  0  0  0  3  0  0  0  0  0  0
  -31.8210  -22.5310   20.9000 C   0  0  0  0  0  0  0  0  0  0  0  0
  -31.9840  -21.7800   23.2370 C   0  0  0  0  0  0  0  0  0  0  0  0
  -31.0450  -22.6910   19.6210 C   0  0  0  0  0  0  0  0  0  0  0  0
  -29.7160  -22.7450   19.7620 N   0  0  0  0  0  0  0  0  0  0  0  0
  -31.6150  -22.8670   18.5420 O   0  0  0  0  0  0  0  0  0  0  0  0
  -29.3540  -22.5710   20.6890 H   0  0  0  0  0  0  0  0  0  0  0  0
  -28.7680  -23.2200   18.7590 C   0  0  0  0  0  2  0  0  0  0  0  0
  -28.7030  -24.7610   18.7400 C   0  0  0  0  0  2  0  0  0  0  0  0
  -28.3890  -25.3660   20.1210 C   0  0  0  0  0  2  0  0  0  0  0  0
  -28.4290  -26.7880   20.0810 O   0  0  0  0  0  0  0  0  0  0  0  0
  -24.6120  -31.8700   23.2110 C   0  0  0  0  0  0  0  0  0  0  0  0
  -27.2340  -27.4680   20.0820 C   0  0  0  0  0  0  0  0  0  0  0  0
  -23.3970  -30.4950   21.5510 C   0  0  0  0  0  3  0  0  0  0  0  0
  -24.8400  -28.9630   20.1130 C   0  0  0  0  0  0  0  0  0  0  0  0
  -25.9220  -30.8450   21.3590 C   0  0  0  0  0  2  0  0  0  0  0  0
  -25.9980  -29.4830   20.7050 C   0  0  0  0  0  0  0  0  0  0  0  0
  -27.1980  -28.7420   20.6830 C   0  0  0  0  0  3  0  0  0  0  0  0
  -26.0570  -26.9520   19.4910 C   0  0  0  0  0  3  0  0  0  0  0  0
  -24.8620  -27.6950   19.5070 C   0  0  0  0  0  3  0  0  0  0  0  0
  -23.6010  -29.8270   20.1650 C   0  0  0  0  0  2  0  0  0  0  0  0
  -24.6620  -31.0840   22.0990 N   0  0  0  0  0  0  0  0  0  0  0  0
  -23.5320  -32.1440   23.7530 O   0  0  0  0  0  0  0  0  0  0  0  0
  -22.7390  -29.4680   22.5000 C   0  0  0  0  0  0  0  0  0  0  0  0
  -21.4120  -29.3030   22.3730 N   0  0  0  0  0  0  0  0  0  0  0  0
  -23.4180  -28.8230   23.3020 O   0  0  0  0  0  0  0  0  0  0  0  0
  -20.9270  -29.8750   21.6960 H   0  0  0  0  0  0  0  0  0  0  0  0
  -18.0270  -28.1370   22.8500 C   0  0  0  0  0  0  0  0  0  0  0  0
  -20.5860  -28.3660   23.1330 C   0  0  0  0  0  3  0  0  0  0  0  0
  -20.6770  -26.9400   22.5420 C   0  0  0  0  0  2  0  0  0  0  0  0
  -19.5750  -26.6390   21.5220 C   0  0  0  0  0  2  0  0  0  0  0  0
  -18.1920  -26.7920   22.1620 C   0  0  0  0  0  2  0  0  0  0  0  0
  -19.1520  -28.8830   23.2910 C   0  0  0  0  0  0  0  0  0  0  0  0
  -18.9450  -30.1440   23.8920 C   0  0  0  0  0  3  0  0  0  0  0  0
  -17.6450  -30.6590   24.0570 C   0  0  0  0  0  3  0  0  0  0  0  0
  -16.5350  -29.9090   23.6330 C   0  0  0  0  0  3  0  0  0  0  0  0
  -16.7260  -28.6510   23.0350 C   0  0  0  0  0  3  0  0  0  0  0  0
  -25.9030  -32.4820   23.8400 C   0  0  0  0  0  3  0  0  0  0  0  0
  -26.4470  -31.6600   25.0720 C   0  0  1  0  0  0  0  0  0  0  0  0
  -25.3740  -31.3710   26.1470 C   0  0  0  0  0  1  0  0  0  0  0  0
  -27.0300  -30.3050   24.6070 C   0  0  0  0  0  1  0  0  0  0  0  0
  -27.6040  -32.4320   25.7470 C   0  0  0  0  0  1  0  0  0  0  0  0
  -25.5910  -33.8620   24.2330 N   0  0  0  0  0  0  0  0  0  0  0  0
  -25.9040  -34.9480   23.5130 C   0  0  0  0  0  0  0  0  0  0  0  0
  -26.5590  -34.8920   22.4680 O   0  0  0  0  0  0  0  0  0  0  0  0
  -25.0120  -33.9790   25.0520 H   0  0  0  0  0  0  0  0  0  0  0  0
  -24.1490  -36.7310   23.2640 C   0  0  0  0  0  1  0  0  0  0  0  0
  -25.4110  -36.3110   24.0340 C   0  0  0  0  0  3  0  0  0  0  0  0
  -27.5580  -37.1810   24.8470 C   0  0  0  0  0  1  0  0  0  0  0  0
  -26.4300  -37.3790   23.9410 N   0  0  0  0  0  0  0  0  0  0  0  0
  -26.0190  -38.2860   24.1400 H   0  0  0  0  0  0  0  0  0  0  0  0
  -30.0110  -21.7040   24.8460 C   0  0  0  0  0  1  0  0  0  0  0  0
  -31.3750  -21.0990   24.4640 C   0  0  0  0  0  3  0  0  0  0  0  0
  -31.2920  -19.6310   24.2890 N   0  0  0  0  0  4  0  0  0  0  0  0
  -30.9720  -19.2400   25.1600 H   0  0  0  0  0  0  0  0  0  0  0  0
  -30.6030  -19.4240   23.5860 H   0  0  0  0  0  0  0  0  0  0  0  0
  -32.5660  -18.9710   23.9230 C   0  0  0  0  0  2  0  0  0  0  0  0
  -32.4770  -17.4370   23.9730 C   0  0  0  0  0  2  0  0  0  0  0  0
  -31.5380  -16.8160   22.9220 C   0  0  0  0  0  2  0  0  0  0  0  0
  -31.7010  -15.2910   22.8840 C   0  0  0  0  0  2  0  0  0  0  0  0
  -30.8390  -14.2590   20.7820 C   0  0  0  0  0  0  0  0  0  0  0  0
  -30.4080  -12.2950   19.3590 C   0  0  0  0  0  2  0  0  0  0  0  0
  -29.4660  -12.5420   18.1720 C   0  0  0  0  0  2  0  0  0  0  0  0
  -27.9990  -12.3790   18.6040 C   0  0  0  0  0  2  0  0  0  0  0  0
  -27.6630  -13.2020   19.8720 C   0  0  0  0  0  3  0  0  0  0  0  0
  -28.7010  -12.9530   20.9860 C   0  0  0  0  0  2  0  0  0  0  0  0
  -30.0510  -13.2100   20.4500 N   0  0  0  0  0  0  0  0  0  0  0  0
  -31.7610  -14.6830   20.0760 O   0  0  0  0  0  0  0  0  0  0  0  0
  -30.6970  -14.6290   22.0600 N   0  0  0  0  0  0  0  0  0  0  0  0
  -29.9360  -14.1830   22.5510 H   0  0  0  0  0  0  0  0  0  0  0  0
  -25.2590  -13.8160   20.5670 C   0  0  0  0  0  0  0  0  0  0  0  0
  -24.1840  -13.0440   20.9170 C   0  0  0  0  0  0  0  0  0  0  0  0
  -24.6390  -11.6900   20.8720 C   0  0  0  0  0  0  0  0  0  0  0  0
  -26.3020  -12.9320   20.3350 N   0  0  0  0  0  0  0  0  0  0  0  0
  -25.9310  -11.6480   20.5750 N   0  0  0  0  0  0  0  0  0  0  0  0
  -23.9050  -10.4290   21.0400 C   0  0  0  0  0  0  0  0  0  0  0  0
  -24.3610   -9.4210   21.9180 C   0  0  0  0  0  3  0  0  0  0  0  0
  -23.6290   -8.2250   22.0750 C   0  0  0  0  0  3  0  0  0  0  0  0
  -22.4270   -8.0280   21.3540 C   0  0  0  0  0  0  0  0  0  0  0  0
  -21.9900   -9.0250   20.4650 C   0  0  0  0  0  3  0  0  0  0  0  0
  -22.7230  -10.2130   20.3050 C   0  0  0  0  0  3  0  0  0  0  0  0
  -21.6640   -6.8880   21.4240 O   0  0  0  0  0  0  0  0  0  0  0  0
  -21.6850   -6.0730   22.5280 C   0  0  0  0  0  0  0  0  0  0  0  0
  -21.4010   -6.5640   23.8210 C   0  0  0  0  0  3  0  0  0  0  0  0
  -21.3660   -5.6790   24.9180 C   0  0  0  0  0  3  0  0  0  0  0  0
  -21.6040   -4.3050   24.7230 C   0  0  0  0  0  0  0  0  0  0  0  0
  -21.8820   -3.8150   23.4350 C   0  0  0  0  0  3  0  0  0  0  0  0
  -21.9190   -4.6960   22.3400 C   0  0  0  0  0  0  0  0  0  0  0  0
  -22.1660   -4.2150   21.0980 F   0  0  0  0  0  0  0  0  0  0  0  0
  -21.5630   -3.4540   25.7740 F   0  0  0  0  0  0  0  0  0  0  0  0
  -22.7860  -13.5240   21.1840 C   0  0  0  0  0  0  0  0  0  0  0  0
  -22.0500  -12.8240   22.0400 N   0  0  0  0  0  0  0  0  0  0  0  0
  -22.3550  -14.5550   20.6700 O   0  0  0  0  0  0  0  0  0  0  0  0
  -22.4110  -11.9890   22.4770 H   0  0  0  0  0  0  0  0  0  0  0  0
  -21.1130  -13.1270   22.2610 H   0  0  0  0  0  0  0  0  0  0  0  0
  -25.4330  -15.1880   20.4090 N   0  0  0  0  0  0  0  0  0  0  0  0
  -24.6730  -15.8490   20.5210 H   0  0  0  0  0  0  0  0  0  0  0  0
  -26.2970  -15.6230   20.1090 H   0  0  0  0  0  0  0  0  0  0  0  0
  1  3  1  0
  2  1  2  0
  4  6  1  0
  5  2  1  0
  5  4  2  0
  6  3  2  0
  6 56  1  0
  7  8  1  0
  7  5  1  0
  8 10  1  0
  9  7  2  0
 11  8  1  0
 12 11  1  0
 12 13  1  0
 14 16  1  0
 14 13  1  0
 15 26  2  0
 16 21  1  0
 17 25  1  0
 17 27  1  0
 18 24  1  0
 18 20  1  0
 19 25  1  0
 20 19  1  0
 21 20  2  0
 22 23  1  0
 22 16  2  0
 23 18  2  0
 24 17  1  0
 25 15  1  0
 27 29  2  0
 28 27  1  0
 30 28  1  0
 31 40  2  0
 31 36  1  0
 32 28  1  0
 32 36  1  0
 33 32  1  0
 34 35  1  0
 34 33  1  0
 35 31  1  0
 36 37  2  0
 37 38  1  0
 39 38  2  0
 40 39  1  0
 41 15  1  0
 41 46  1  0
 41 42  1  0
 42 45  1  1
 42 43  1  0
 44 42  1  0
 46 49  1  0
 47 51  1  0
 47 46  1  0
 48 47  2  0
 51 50  1  0
 53 51  1  0
 53 54  1  0
 53 52  1  0
 56 55  1  0
 57 56  1  0
 57 58  1  0
 59 57  1  0
 60 61  1  0
 60 57  1  0
 62 61  1  0
 63 62  1  0
 64 72  1  0
 65 70  1  0
 66 67  1  0
 66 65  1  0
 68 67  1  0
 68 77  1  0
 68 69  1  0
 70 64  1  0
 70 69  1  0
 71 64  2  0
 72 73  1  0
 72 63  1  0
 74 75  2  0
 75 94  1  0
 76 75  1  0
 76 79  1  0
 77 74  1  0
 77 78  1  0
 78 76  2  0
 79 80  1  0
 80 81  2  0
 82 85  1  0
 82 81  1  0
 83 82  2  0
 84 83  1  0
 84 79  2  0
 85 86  1  0
 86 87  1  0
 87 88  2  0
 89 88  1  0
 89 93  1  0
 90 89  2  0
 91 86  2  0
 91 90  1  0
 92 91  1  0
 94 95  1  0
 95 98  1  0
 95 97  1  0
 96 94  2  0
 99100  1  0
 99 74  1  0
101 99  1  0
M  ISO  4  13 101  14 101  64 100  72 100
M  END
>  <TORSDO>  (66) 
F 26

>  <SCORE>  (66) 
3.542

>  <name>  (66) 
68

>  <ligand_id>  (66) 
68

>  <original_smiles>  (66) 
[H]c1c([H])c([H])c2c(c1[H])C([H])([H])C([H])([H])C([H])([H])C2([H])N([H])C(=O)C1([H])N(C(=O)C([H])(N([H])C(=O)C([H])(N([H])C([H])([H])[H])C([H])([H])[H])C(C([H])([H])[H])(C([H])([H])[H])C([H])([H])[H])C([H])([H])c2c([H])c(OC([H])([H])C([H])([H])C([H])([H])N([H])C(=O)c3c([H])c([H])c([H])c(C([H])(C([H])([H])[H])[N+]([H])([H])C([H])([H])C([H])([H])C([H])([H])C([H])([H])N([H])C(=O)N4C([H])([H])C([H])([H])C([H])([H])C([H])(n5nc(-c6c([H])c([H])c(Oc7c([H])c([H])c(F)c([H])c7F)c([H])c6[H])c(C(=O)N([H])[H])c5N([H])[H])C4([H])[H])c3[H])c([H])c([H])c2C1([H])[H]

>  <smiles>  (66) 
[H]c1c([H])c([H])c2c(c1[H])C([H])([H])C([H])([H])C([H])([H])C2([H])N([H])C(=O)C1([H])N(C(=O)C([H])(N([H])C(=O)C([H])(N([H])C([H])([H])[H])C([H])([H])[H])C(C([H])([H])[H])(C([H])([H])[H])C([H])([H])[H])C([H])([H])c2c([H])c(OC([H])([H])C([H])([H])C([H])([H])N([H])C(=O)c3c([H])c([H])c([H])c(C([H])(C([H])([H])[H])[N+]([H])([H])C([H])([H])C([H])([H])C([H])([H])C([H])([H])N([H])C(=O)N4C([H])([H])C([H])([H])C([H])([H])C([H])(n5nc(-c6c([H])c([H])c(Oc7c([H])c([H])c(F)c([H])c7F)c([H])c6[H])c(C(=O)N([H])[H])c5N([H])[H])C4([H])[H])c3[H])c([H])c([H])c2C1([H])[H]

$$$$
69:0:0
     RDKit          3D

 97105  0  0  1  0  0  0  0  0999 V2000
  -29.0690  -22.5650   18.3500 C   0  0  0  0  0  0  0  0  0  0  0  0
  -28.0470  -23.2560   18.3980 O   0  0  0  0  0  0  0  0  0  0  0  0
  -30.3040  -20.3800   18.8630 C   0  0  0  0  0  3  0  0  0  0  0  0
  -28.0110  -20.6710   19.6080 C   0  0  0  0  0  3  0  0  0  0  0  0
  -30.3220  -19.0880   19.4250 C   0  0  0  0  0  3  0  0  0  0  0  0
  -28.0280  -19.3800   20.1710 C   0  0  0  0  0  3  0  0  0  0  0  0
  -29.1470  -21.1930   18.9450 C   0  0  0  0  0  0  0  0  0  0  0  0
  -29.1870  -18.5770   20.0950 C   0  0  0  0  0  0  0  0  0  0  0  0
  -29.1430  -17.1930   20.6480 C   0  0  0  0  0  0  0  0  0  0  0  0
  -28.0880  -16.5550   20.7290 O   0  0  0  0  0  0  0  0  0  0  0  0
  -30.4380  -16.5520   21.1830 C   0  0  0  0  0  2  0  0  0  0  0  0
  -30.7820  -14.2610   20.3020 C   0  0  0  0  0  0  0  0  0  0  0  0
  -30.3810  -12.1820   19.0370 C   0  0  0  0  0  2  0  0  0  0  0  0
  -29.4040  -12.4480   17.8740 C   0  0  0  0  0  2  0  0  0  0  0  0
  -27.9410  -12.3270   18.3470 C   0  0  0  0  0  2  0  0  0  0  0  0
  -27.6660  -13.1410   19.6390 C   0  0  0  0  0  3  0  0  0  0  0  0
  -28.7410  -12.8440   20.7070 C   0  0  0  0  0  2  0  0  0  0  0  0
  -30.0690  -13.1230   20.1230 N   0  0  0  0  0  0  0  0  0  0  0  0
  -31.7940  -14.5480   19.6540 O   0  0  0  0  0  0  0  0  0  0  0  0
  -30.2640  -15.1010   21.1970 N   0  0  0  0  0  0  0  0  0  0  0  0
  -29.4230  -14.7810   21.6550 H   0  0  0  0  0  0  0  0  0  0  0  0
  -25.2900  -13.7830   20.4090 C   0  0  0  0  0  0  0  0  0  0  0  0
  -24.2220  -13.0220   20.8020 C   0  0  0  0  0  0  0  0  0  0  0  0
  -24.6680  -11.6660   20.7680 C   0  0  0  0  0  0  0  0  0  0  0  0
  -26.3200  -12.8880   20.1530 N   0  0  0  0  0  0  0  0  0  0  0  0
  -25.9480  -11.6100   20.4250 N   0  0  0  0  0  0  0  0  0  0  0  0
  -23.9370  -10.4110   20.9850 C   0  0  0  0  0  0  0  0  0  0  0  0
  -24.3940   -9.4390   21.9010 C   0  0  0  0  0  3  0  0  0  0  0  0
  -23.6640   -8.2480   22.1050 C   0  0  0  0  0  3  0  0  0  0  0  0
  -22.4640   -8.0220   21.3920 C   0  0  0  0  0  0  0  0  0  0  0  0
  -22.0230   -8.9840   20.4680 C   0  0  0  0  0  3  0  0  0  0  0  0
  -22.7540  -10.1660   20.2600 C   0  0  0  0  0  3  0  0  0  0  0  0
  -21.7030   -6.8840   21.5070 O   0  0  0  0  0  0  0  0  0  0  0  0
  -21.6950   -6.1340   22.6550 C   0  0  0  0  0  0  0  0  0  0  0  0
  -21.3380   -6.6900   23.9020 C   0  0  0  0  0  3  0  0  0  0  0  0
  -21.2730   -5.8680   25.0450 C   0  0  0  0  0  3  0  0  0  0  0  0
  -21.5570   -4.4930   24.9440 C   0  0  0  0  0  0  0  0  0  0  0  0
  -21.9090   -3.9380   23.6990 C   0  0  0  0  0  3  0  0  0  0  0  0
  -21.9750   -4.7570   22.5590 C   0  0  0  0  0  0  0  0  0  0  0  0
  -22.2940   -4.2110   21.3600 F   0  0  0  0  0  0  0  0  0  0  0  0
  -21.4860   -3.7020   26.0410 F   0  0  0  0  0  0  0  0  0  0  0  0
  -22.8370  -13.5170   21.1150 C   0  0  0  0  0  0  0  0  0  0  0  0
  -22.1250  -12.8390   22.0080 N   0  0  0  0  0  0  0  0  0  0  0  0
  -22.3960  -14.5450   20.6050 O   0  0  0  0  0  0  0  0  0  0  0  0
  -22.4870  -12.0100   22.4520 H   0  0  0  0  0  0  0  0  0  0  0  0
  -21.2020  -13.1640   22.2570 H   0  0  0  0  0  0  0  0  0  0  0  0
  -25.4700  -15.1520   20.2400 N   0  0  0  0  0  0  0  0  0  0  0  0
  -24.7330  -15.8180   20.4470 H   0  0  0  0  0  0  0  0  0  0  0  0
  -26.3900  -15.5890   20.1850 H   0  0  0  0  0  0  0  0  0  0  0  0
  -30.3110  -23.1870   17.6940 C   0  0  0  0  0  2  0  0  0  0  0  0
  -31.0460  -24.1540   18.6470 C   0  0  0  0  0  2  0  0  0  0  0  0
  -30.3830  -25.4760   18.7370 N   0  0  0  0  0  4  0  0  0  0  0  0
  -29.3830  -25.3410   18.7480 H   0  0  0  0  0  0  0  0  0  0  0  0
  -30.6040  -26.0270   17.9200 H   0  0  0  0  0  0  0  0  0  0  0  0
  -30.6980  -26.2470   19.9650 C   0  0  0  0  0  2  0  0  0  0  0  0
  -29.6470  -27.3390   20.1980 C   0  0  0  0  0  2  0  0  0  0  0  0
  -28.3790  -26.6900   20.1240 O   0  0  0  0  0  0  0  0  0  0  0  0
  -24.5790  -31.8890   23.2370 C   0  0  0  0  0  0  0  0  0  0  0  0
  -27.2460  -27.4650   20.1820 C   0  0  0  0  0  0  0  0  0  0  0  0
  -23.3730  -30.4810   21.5960 C   0  0  0  0  0  3  0  0  0  0  0  0
  -24.8320  -28.9330   20.1900 C   0  0  0  0  0  0  0  0  0  0  0  0
  -25.8950  -30.8470   21.4000 C   0  0  0  0  0  2  0  0  0  0  0  0
  -25.9850  -29.4750   20.7720 C   0  0  0  0  0  0  0  0  0  0  0  0
  -27.1930  -28.7500   20.7690 C   0  0  0  0  0  3  0  0  0  0  0  0
  -26.0720  -26.9200   19.6210 C   0  0  0  0  0  3  0  0  0  0  0  0
  -24.8660  -27.6490   19.6150 C   0  0  0  0  0  3  0  0  0  0  0  0
  -23.5870  -29.7890   20.2220 C   0  0  0  0  0  2  0  0  0  0  0  0
  -24.6340  -31.0860   22.1370 N   0  0  0  0  0  0  0  0  0  0  0  0
  -23.4970  -32.1660   23.7740 O   0  0  0  0  0  0  0  0  0  0  0  0
  -22.7200  -29.4660   22.5600 C   0  0  0  0  0  0  0  0  0  0  0  0
  -21.3940  -29.2940   22.4320 N   0  0  0  0  0  0  0  0  0  0  0  0
  -23.4000  -28.8380   23.3740 O   0  0  0  0  0  0  0  0  0  0  0  0
  -20.9080  -29.8560   21.7480 H   0  0  0  0  0  0  0  0  0  0  0  0
  -18.0090  -28.1400   22.9320 C   0  0  0  0  0  0  0  0  0  0  0  0
  -20.5690  -28.3660   23.2030 C   0  0  0  0  0  3  0  0  0  0  0  0
  -20.6540  -26.9330   22.6260 C   0  0  0  0  0  2  0  0  0  0  0  0
  -19.5480  -26.6250   21.6120 C   0  0  0  0  0  2  0  0  0  0  0  0
  -18.1680  -26.7890   22.2560 C   0  0  0  0  0  2  0  0  0  0  0  0
  -19.1380  -28.8870   23.3620 C   0  0  0  0  0  0  0  0  0  0  0  0
  -18.9370  -30.1550   23.9500 C   0  0  0  0  0  3  0  0  0  0  0  0
  -17.6390  -30.6750   24.1140 C   0  0  0  0  0  3  0  0  0  0  0  0
  -16.5240  -29.9230   23.7040 C   0  0  0  0  0  3  0  0  0  0  0  0
  -16.7110  -28.6580   23.1190 C   0  0  0  0  0  3  0  0  0  0  0  0
  -25.8680  -32.5180   23.8560 C   0  0  0  0  0  3  0  0  0  0  0  0
  -25.5630  -33.9150   24.1870 N   0  0  0  0  0  0  0  0  0  0  0  0
  -25.9030  -34.9660   23.4280 C   0  0  0  0  0  0  0  0  0  0  0  0
  -26.5800  -34.8600   22.4010 O   0  0  0  0  0  0  0  0  0  0  0  0
  -24.9590  -34.0720   24.9810 H   0  0  0  0  0  0  0  0  0  0  0  0
  -24.1830  -36.7630   23.0580 C   0  0  0  0  0  1  0  0  0  0  0  0
  -25.4160  -36.3550   23.8810 C   0  0  0  0  0  3  0  0  0  0  0  0
  -27.5500  -37.2280   24.7230 C   0  0  0  0  0  1  0  0  0  0  0  0
  -26.4510  -37.4070   23.7780 N   0  0  0  0  0  0  0  0  0  0  0  0
  -26.0460  -38.3260   23.9320 H   0  0  0  0  0  0  0  0  0  0  0  0
  -26.3890  -31.7420   25.1280 C   0  0  1  0  0  0  0  0  0  0  0  0
  -25.3010  -31.5050   26.2020 C   0  0  0  0  0  1  0  0  0  0  0  0
  -26.9660  -30.3650   24.7270 C   0  0  0  0  0  1  0  0  0  0  0  0
  -27.5440  -32.5330   25.7880 C   0  0  0  0  0  1  0  0  0  0  0  0
  1  2  2  0
  1  7  1  0
  3  7  2  0
  3  5  1  0
  4  6  2  0
  5  8  2  0
  7  4  1  0
  8  6  1  0
  8  9  1  0
  9 10  2  0
  9 11  1  0
 11 20  1  0
 12 20  1  0
 13 18  1  0
 14 15  1  0
 14 13  1  0
 16 15  1  0
 16 25  1  0
 16 17  1  0
 18 12  1  0
 18 17  1  0
 19 12  2  0
 20 21  1  0
 22 23  2  0
 23 42  1  0
 24 23  1  0
 24 27  1  0
 25 22  1  0
 25 26  1  0
 26 24  2  0
 27 28  1  0
 28 29  2  0
 30 33  1  0
 30 29  1  0
 31 30  2  0
 32 31  1  0
 32 27  2  0
 33 34  1  0
 34 35  1  0
 35 36  2  0
 37 36  1  0
 37 41  1  0
 38 37  2  0
 39 34  2  0
 39 38  1  0
 40 39  1  0
 42 43  1  0
 43 46  1  0
 43 45  1  0
 44 42  2  0
 47 22  1  0
 47 48  1  0
 49 47  1  0
 50  1  1  0
 50 51  1  0
 51 52  1  0
 52 53  1  0
 52 55  1  0
 54 52  1  0
 55 56  1  0
 57 59  1  0
 57 56  1  0
 58 69  2  0
 59 64  1  0
 60 68  1  0
 60 70  1  0
 61 67  1  0
 61 63  1  0
 62 68  1  0
 63 62  1  0
 64 63  2  0
 65 59  2  0
 66 65  1  0
 66 61  2  0
 67 60  1  0
 68 58  1  0
 70 72  2  0
 71 70  1  0
 73 71  1  0
 74 83  2  0
 74 79  1  0
 75 71  1  0
 75 79  1  0
 76 75  1  0
 77 78  1  0
 77 76  1  0
 78 74  1  0
 79 80  2  0
 80 81  1  0
 82 81  2  0
 83 82  1  0
 84 58  1  0
 84 85  1  0
 84 94  1  0
 85 88  1  0
 86 90  1  0
 86 85  1  0
 87 86  2  0
 90 89  1  0
 92 90  1  0
 92 93  1  0
 92 91  1  0
 94 97  1  1
 94 95  1  0
 96 94  1  0
M  ISO  4  12 100  20 100  56 101  57 101
M  END
>  <TORSDO>  (67) 
F 24

>  <SCORE>  (67) 
-12.647

>  <name>  (67) 
69

>  <ligand_id>  (67) 
69

>  <original_smiles>  (67) 
[H]c1c([H])c([H])c2c(c1[H])C([H])([H])C([H])([H])C([H])([H])C2([H])N([H])C(=O)C1([H])N(C(=O)C([H])(N([H])C(=O)C([H])(N([H])C([H])([H])[H])C([H])([H])[H])C(C([H])([H])[H])(C([H])([H])[H])C([H])([H])[H])C([H])([H])c2c([H])c(OC([H])([H])C([H])([H])[N+]([H])([H])C([H])([H])C([H])([H])C(=O)c3c([H])c([H])c(C(=O)C([H])([H])N([H])C(=O)N4C([H])([H])C([H])([H])C([H])([H])C([H])(n5nc(-c6c([H])c([H])c(Oc7c([H])c([H])c(F)c([H])c7F)c([H])c6[H])c(C(=O)N([H])[H])c5N([H])[H])C4([H])[H])c([H])c3[H])c([H])c([H])c2C1([H])[H]

>  <smiles>  (67) 
[H]c1c([H])c([H])c2c(c1[H])C([H])([H])C([H])([H])C([H])([H])C2([H])N([H])C(=O)C1([H])N(C(=O)C([H])(N([H])C(=O)C([H])(N([H])C([H])([H])[H])C([H])([H])[H])C(C([H])([H])[H])(C([H])([H])[H])C([H])([H])[H])C([H])([H])c2c([H])c(OC([H])([H])C([H])([H])[N+]([H])([H])C([H])([H])C([H])([H])C(=O)c3c([H])c([H])c(C(=O)C([H])([H])N([H])C(=O)N4C([H])([H])C([H])([H])C([H])([H])C([H])(n5nc(-c6c([H])c([H])c(Oc7c([H])c([H])c(F)c([H])c7F)c([H])c6[H])c(C(=O)N([H])[H])c5N([H])[H])C4([H])[H])c([H])c3[H])c([H])c([H])c2C1([H])[H]

$$$$
70:0:0
     RDKit          3D

101109  0  0  1  0  0  0  0  0999 V2000
  -28.9810  -21.6960   22.1250 C   0  0  0  0  0  3  0  0  0  0  0  0
  -28.1860  -22.6900   21.5240 C   0  0  0  0  0  3  0  0  0  0  0  0
  -27.9070  -21.2710   19.5670 C   0  0  0  0  0  3  0  0  0  0  0  0
  -29.2620  -20.4860   21.4520 C   0  0  0  0  0  0  0  0  0  0  0  0
  -27.6530  -22.4930   20.2320 C   0  0  0  0  0  0  0  0  0  0  0  0
  -28.6950  -20.2730   20.1710 C   0  0  0  0  0  0  0  0  0  0  0  0
  -28.9010  -19.1140   19.4990 F   0  0  0  0  0  0  0  0  0  0  0  0
  -30.1350  -19.4630   22.1280 C   0  0  0  0  0  0  0  0  0  0  0  0
  -30.3530  -18.3360   21.4430 N   0  0  0  0  0  0  0  0  0  0  0  0
  -30.6860  -19.7070   23.2060 O   0  0  0  0  0  0  0  0  0  0  0  0
  -29.8200  -18.2190   20.5890 H   0  0  0  0  0  0  0  0  0  0  0  0
  -31.2700  -17.2650   21.8060 C   0  0  0  0  0  2  0  0  0  0  0  0
  -31.9190  -16.6440   20.5520 C   0  0  0  0  0  2  0  0  0  0  0  0
  -32.1620  -14.2920   19.7350 C   0  0  0  0  0  0  0  0  0  0  0  0
  -31.6580  -12.0050   18.9450 C   0  0  0  0  0  2  0  0  0  0  0  0
  -30.6260  -12.0020   17.7970 C   0  0  0  0  0  2  0  0  0  0  0  0
  -29.1870  -12.0610   18.3410 C   0  0  0  0  0  2  0  0  0  0  0  0
  -28.9920  -13.1890   19.3810 C   0  0  0  0  0  3  0  0  0  0  0  0
  -30.0830  -13.0770   20.4620 C   0  0  0  0  0  2  0  0  0  0  0  0
  -31.4100  -13.1660   19.8070 N   0  0  0  0  0  0  0  0  0  0  0  0
  -33.1050  -14.4590   18.9510 O   0  0  0  0  0  0  0  0  0  0  0  0
  -31.7690  -15.2060   20.6210 N   0  0  0  0  0  0  0  0  0  0  0  0
  -31.0580  -14.8720   21.2540 H   0  0  0  0  0  0  0  0  0  0  0  0
  -26.8350  -14.2000   20.3640 C   0  0  0  0  0  0  0  0  0  0  0  0
  -25.6650  -13.6210   20.7760 C   0  0  0  0  0  0  0  0  0  0  0  0
  -25.8380  -12.2130   20.5980 C   0  0  0  0  0  0  0  0  0  0  0  0
  -27.6550  -13.1550   19.9660 N   0  0  0  0  0  0  0  0  0  0  0  0
  -27.0590  -11.9510   20.1540 N   0  0  0  0  0  0  0  0  0  0  0  0
  -24.8940  -11.1030   20.7690 C   0  0  0  0  0  0  0  0  0  0  0  0
  -25.2070   -9.9830   21.5700 C   0  0  0  0  0  3  0  0  0  0  0  0
  -24.2770   -8.9330   21.7260 C   0  0  0  0  0  3  0  0  0  0  0  0
  -23.0190   -9.0010   21.0810 C   0  0  0  0  0  0  0  0  0  0  0  0
  -22.7240  -10.1050   20.2640 C   0  0  0  0  0  3  0  0  0  0  0  0
  -23.6530  -11.1470   20.1050 C   0  0  0  0  0  3  0  0  0  0  0  0
  -22.0620   -8.0190   21.1560 O   0  0  0  0  0  0  0  0  0  0  0  0
  -21.8900   -7.2680   22.2920 C   0  0  0  0  0  0  0  0  0  0  0  0
  -21.6390   -7.8640   23.5470 C   0  0  0  0  0  3  0  0  0  0  0  0
  -21.4000   -7.0520   24.6750 C   0  0  0  0  0  3  0  0  0  0  0  0
  -21.3980   -5.6500   24.5470 C   0  0  0  0  0  0  0  0  0  0  0  0
  -21.6420   -5.0570   23.2960 C   0  0  0  0  0  3  0  0  0  0  0  0
  -21.8840   -5.8640   22.1710 C   0  0  0  0  0  0  0  0  0  0  0  0
  -22.0970   -5.2870   20.9640 F   0  0  0  0  0  0  0  0  0  0  0  0
  -21.1610   -4.8720   25.6290 F   0  0  0  0  0  0  0  0  0  0  0  0
  -24.4210  -14.3290   21.2280 C   0  0  0  0  0  0  0  0  0  0  0  0
  -23.6600  -13.7150   22.1280 N   0  0  0  0  0  0  0  0  0  0  0  0
  -24.1360  -15.4530   20.8160 O   0  0  0  0  0  0  0  0  0  0  0  0
  -23.9030  -12.7970   22.4740 H   0  0  0  0  0  0  0  0  0  0  0  0
  -22.8280  -14.1640   22.4810 H   0  0  0  0  0  0  0  0  0  0  0  0
  -27.2630  -15.5200   20.2780 N   0  0  0  0  0  0  0  0  0  0  0  0
  -26.6700  -16.3010   20.5400 H   0  0  0  0  0  0  0  0  0  0  0  0
  -28.1670  -15.8080   19.9290 H   0  0  0  0  0  0  0  0  0  0  0  0
  -26.1840  -24.5780   20.5280 C   0  0  0  0  0  1  0  0  0  0  0  0
  -26.8310  -23.5850   19.5380 C   0  0  0  0  0  3  0  0  0  0  0  0
  -27.5240  -24.2630   18.4050 N   0  0  0  0  0  4  0  0  0  0  0  0
  -26.9980  -23.9910   17.5880 H   0  0  0  0  0  0  0  0  0  0  0  0
  -27.4010  -25.2570   18.4870 H   0  0  0  0  0  0  0  0  0  0  0  0
  -28.9440  -23.9380   18.0760 C   0  0  0  0  0  2  0  0  0  0  0  0
  -29.9370  -25.0910   18.3310 C   0  0  0  0  0  2  0  0  0  0  0  0
  -30.1780  -25.4290   19.8190 C   0  0  0  0  0  2  0  0  0  0  0  0
  -30.8220  -26.8140   20.0500 C   0  0  0  0  0  2  0  0  0  0  0  0
  -30.2170  -27.5170   21.1410 O   0  0  0  0  0  0  0  0  0  0  0  0
  -25.0880  -31.6980   23.7760 C   0  0  0  0  0  0  0  0  0  0  0  0
  -28.9190  -27.9700   21.0010 C   0  0  0  0  0  0  0  0  0  0  0  0
  -24.3990  -30.1670   21.9620 C   0  0  0  0  0  3  0  0  0  0  0  0
  -26.2890  -28.9900   20.7350 C   0  0  0  0  0  0  0  0  0  0  0  0
  -26.8140  -30.9980   22.1200 C   0  0  0  0  0  2  0  0  0  0  0  0
  -27.2380  -29.6900   21.4880 C   0  0  0  0  0  0  0  0  0  0  0  0
  -28.5470  -29.1790   21.6320 C   0  0  0  0  0  3  0  0  0  0  0  0
  -27.9380  -27.2830   20.2470 C   0  0  0  0  0  3  0  0  0  0  0  0
  -26.6310  -27.7780   20.1190 C   0  0  0  0  0  3  0  0  0  0  0  0
  -24.9110  -29.5930   20.6170 C   0  0  0  0  0  2  0  0  0  0  0  0
  -25.4420  -30.9710   22.6790 N   0  0  0  0  0  0  0  0  0  0  0  0
  -23.9110  -31.7370   24.1640 O   0  0  0  0  0  0  0  0  0  0  0  0
  -23.8360  -29.0030   22.8080 C   0  0  0  0  0  0  0  0  0  0  0  0
  -22.6530  -28.5030   22.4180 N   0  0  0  0  0  0  0  0  0  0  0  0
  -24.4650  -28.5540   23.7680 O   0  0  0  0  0  0  0  0  0  0  0  0
  -22.1860  -28.9420   21.6370 H   0  0  0  0  0  0  0  0  0  0  0  0
  -19.7260  -26.4010   22.1500 C   0  0  0  0  0  0  0  0  0  0  0  0
  -21.9570  -27.3700   23.0240 C   0  0  0  0  0  3  0  0  0  0  0  0
  -22.5960  -26.0290   22.5950 C   0  0  0  0  0  2  0  0  0  0  0  0
  -21.9140  -25.4020   21.3730 C   0  0  0  0  0  2  0  0  0  0  0  0
  -20.4320  -25.1460   21.6590 C   0  0  0  0  0  2  0  0  0  0  0  0
  -20.4440  -27.4510   22.7790 C   0  0  0  0  0  0  0  0  0  0  0  0
  -19.7480  -28.6090   23.1880 C   0  0  0  0  0  3  0  0  0  0  0  0
  -18.3610  -28.7280   22.9800 C   0  0  0  0  0  3  0  0  0  0  0  0
  -17.6500  -27.6770   22.3730 C   0  0  0  0  0  3  0  0  0  0  0  0
  -18.3300  -26.5180   21.9620 C   0  0  0  0  0  3  0  0  0  0  0  0
  -26.1340  -32.5260   24.5850 C   0  0  0  0  0  3  0  0  0  0  0  0
  -26.3580  -31.9750   26.0460 C   0  0  1  0  0  0  0  0  0  0  0  0
  -25.0480  -31.7540   26.8410 C   0  0  0  0  0  1  0  0  0  0  0  0
  -27.1180  -30.6290   26.0070 C   0  0  0  0  0  1  0  0  0  0  0  0
  -27.2470  -32.9550   26.8480 C   0  0  0  0  0  1  0  0  0  0  0  0
  -25.6700  -33.9190   24.6170 N   0  0  0  0  0  0  0  0  0  0  0  0
  -26.1060  -34.8810   23.7910 C   0  0  0  0  0  0  0  0  0  0  0  0
  -27.0080  -34.6990   22.9680 O   0  0  0  0  0  0  0  0  0  0  0  0
  -24.8940  -34.1240   25.2290 H   0  0  0  0  0  0  0  0  0  0  0  0
  -24.3960  -36.4180   22.7670 C   0  0  0  0  0  1  0  0  0  0  0  0
  -25.4340  -36.2650   23.8920 C   0  0  0  0  0  3  0  0  0  0  0  0
  -27.2680  -37.4520   25.0120 C   0  0  0  0  0  1  0  0  0  0  0  0
  -26.3960  -37.3890   23.8430 N   0  0  0  0  0  0  0  0  0  0  0  0
  -25.9110  -38.2780   23.7590 H   0  0  0  0  0  0  0  0  0  0  0  0
  2  1  1  0
  3  6  2  0
  3  5  1  0
  4  1  2  0
  4  8  1  0
  5  2  2  0
  6  4  1  0
  7  6  1  0
  8 10  2  0
  9 12  1  0
  9  8  1  0
 11  9  1  0
 13 22  1  0
 13 12  1  0
 14 20  1  0
 14 22  1  0
 15 20  1  0
 16 17  1  0
 16 15  1  0
 18 17  1  0
 18 27  1  0
 18 19  1  0
 20 19  1  0
 21 14  2  0
 22 23  1  0
 24 25  2  0
 25 44  1  0
 26 29  1  0
 26 25  1  0
 27 28  1  0
 27 24  1  0
 28 26  2  0
 29 30  1  0
 30 31  2  0
 32 35  1  0
 32 31  1  0
 33 32  2  0
 34 33  1  0
 34 29  2  0
 35 36  1  0
 36 37  1  0
 37 38  2  0
 39 38  1  0
 39 43  1  0
 40 39  2  0
 41 36  2  0
 41 40  1  0
 42 41  1  0
 44 45  1  0
 45 47  1  0
 45 48  1  0
 46 44  2  0
 49 24  1  0
 49 50  1  0
 51 49  1  0
 53  5  1  0
 53 52  1  0
 54 56  1  0
 54 53  1  0
 55 54  1  0
 57 58  1  0
 57 54  1  0
 58 59  1  0
 59 60  1  0
 60 61  1  0
 62 73  2  0
 63 61  1  0
 63 68  1  0
 64 72  1  0
 64 74  1  0
 65 67  1  0
 66 72  1  0
 67 68  2  0
 67 66  1  0
 69 63  2  0
 70 69  1  0
 70 65  2  0
 71 65  1  0
 71 64  1  0
 72 62  1  0
 74 76  2  0
 75 74  1  0
 77 75  1  0
 78 83  1  0
 79 75  1  0
 80 79  1  0
 81 82  1  0
 81 80  1  0
 82 78  1  0
 83 79  1  0
 83 84  2  0
 85 84  1  0
 86 85  2  0
 87 78  2  0
 87 86  1  0
 88 62  1  0
 88 93  1  0
 88 89  1  0
 89 90  1  1
 89 92  1  0
 91 89  1  0
 93 96  1  0
 94 98  1  0
 94 93  1  0
 95 94  2  0
 98 97  1  0
100 98  1  0
100 99  1  0
101100  1  0
M  ISO  4  14 100  22 100  60 101  61 101
M  END
>  <TORSDO>  (68) 
F 25

>  <SCORE>  (68) 
-9.165

>  <name>  (68) 
70

>  <ligand_id>  (68) 
70

>  <original_smiles>  (68) 
[H]c1c([H])c([H])c2c(c1[H])C([H])([H])C([H])([H])C([H])([H])C2([H])N([H])C(=O)C1([H])N(C(=O)C([H])(N([H])C(=O)C([H])(N([H])C([H])([H])[H])C([H])([H])[H])C(C([H])([H])[H])(C([H])([H])[H])C([H])([H])[H])C([H])([H])c2c([H])c(OC([H])([H])C([H])([H])C([H])([H])C([H])([H])[N+]([H])([H])C([H])(c3c([H])c([H])c(C(=O)N([H])C([H])([H])C([H])([H])N([H])C(=O)N4C([H])([H])C([H])([H])C([H])([H])C([H])(n5nc(-c6c([H])c([H])c(Oc7c([H])c([H])c(F)c([H])c7F)c([H])c6[H])c(C(=O)N([H])[H])c5N([H])[H])C4([H])[H])c(F)c3[H])C([H])([H])[H])c([H])c([H])c2C1([H])[H]

>  <smiles>  (68) 
[H]c1c([H])c([H])c2c(c1[H])C([H])([H])C([H])([H])C([H])([H])C2([H])N([H])C(=O)C1([H])N(C(=O)C([H])(N([H])C(=O)C([H])(N([H])C([H])([H])[H])C([H])([H])[H])C(C([H])([H])[H])(C([H])([H])[H])C([H])([H])[H])C([H])([H])c2c([H])c(OC([H])([H])C([H])([H])C([H])([H])C([H])([H])[N+]([H])([H])C([H])(c3c([H])c([H])c(C(=O)N([H])C([H])([H])C([H])([H])N([H])C(=O)N4C([H])([H])C([H])([H])C([H])([H])C([H])(n5nc(-c6c([H])c([H])c(Oc7c([H])c([H])c(F)c([H])c7F)c([H])c6[H])c(C(=O)N([H])[H])c5N([H])[H])C4([H])[H])c(F)c3[H])C([H])([H])[H])c([H])c([H])c2C1([H])[H]

$$$$
71:0:0
     RDKit          3D

100 98  0  0  1  0  0  0  0  0999 V2000
  -24.3970  -16.4330   20.4490 C   0  0  0  0  0  0  0  0  0  0  0  0
  -25.3970  -17.1370   19.8400 N   0  0  0  0  0  0  0  0  0  0  0  0
  -23.3950  -16.9630   20.9330 O   0  0  0  0  0  0  0  0  0  0  0  0
  -26.1180  -16.5050   19.4960 H   0  0  0  0  0  0  0  0  0  0  0  0
  -24.5310  -13.4550   18.8680 C   0  0  0  0  0 15  0  0  0  0  0  0
  -25.8860  -14.3230   22.3250 C   0  0  0  0  0 15  0  0  0  0  0  0
  -25.6860  -11.5730   18.9940 C   0  0  0  0  0 15  0  0  0  0  0  0
  -26.9500  -12.4350   22.4890 C   0  0  0  0  0 15  0  0  0  0  0  0
  -24.6650  -14.9350   20.6170 C   0  0  0  0  0  1  0  0  0  0  0  0
  -26.8920  -10.9780   20.7660 C   0  0  0  0  0  1  0  0  0  0  0  0
  -28.1450  -10.1370   20.6120 C   0  0  0  0  0  2  0  0  0  0  0  0
  -30.1790  -10.1230   22.0870 C   0  0  0  0  0  1  0  0  0  0  0  0
  -29.6600  -10.8200   20.7280 C   0  0  0  0  0  2  0  0  0  0  0  0
  -31.4390  -13.5320   20.6390 C   0  0  0  0  0  3  0  0  0  0  0  0
  -31.8540  -11.0560   19.7720 C   0  0  0  0  0  1  0  0  0  0  0  0
  -30.4940  -11.0610   18.3740 C   0  0  0  0  0  3  0  0  0  0  0  0
  -28.8330  -11.9250   18.6460 C   0  0  0  0  0  3  0  0  0  0  0  0
  -28.3620  -12.9110   20.2130 C   0  0  0  0  0  3  0  0  0  0  0  0
  -29.4740  -12.9790   21.7490 C   0  0  0  0  0  1  0  0  0  0  0  0
  -31.1870  -12.3980   21.0830 N   0  0  0  0  0  2  0  0  0  0  0  0
  -32.3640  -14.0570   20.0210 O   0  0  0  0  0  1  0  0  0  0  0  0
  -30.6380  -12.7430   19.9920 N   0  0  0  0  0  0  0  0  0  0  0  0
  -30.5970  -12.8810   18.9980 H   0  0  0  0  0  0  0  0  0  0  0  0
  -26.2330  -13.4830   20.4080 C   0  0  0  0  0  0  0  0  0  0  0  0
  -24.6060  -12.4910   20.9660 C   0  0  0  0  0  0  0  0  0  0  0  0
  -24.6980  -11.2830   21.4530 C   0  0  0  0  0  1  0  0  0  0  0  0
  -26.9760  -13.0970   20.4920 N   0  0  0  0  0  2  0  0  0  0  0  0
  -25.3040  -12.4440   20.8790 N   0  0  0  0  0  0  0  0  0  0  0  0
  -24.1850   -9.9630   21.1340 C   0  0  0  0  0  3  0  0  0  0  0  0
  -24.6460   -8.9590   22.0140 C   0  0  0  0  0  3  0  0  0  0  0  0
  -23.9430   -7.7540   22.1450 C   0  0  0  0  0  3  0  0  0  0  0  0
  -22.7710   -7.5610   21.3810 C   0  0  0  0  0  0  0  0  0  0  0  0
  -22.3940   -8.5180   20.4180 C   0  0  0  0  0  3  0  0  0  0  0  0
  -23.1110   -9.7120   20.2690 C   0  0  0  0  0  3  0  0  0  0  0  0
  -21.9690   -6.4570   21.4990 O   0  0  0  0  0  0  0  0  0  0  0  0
  -21.9480   -5.7120   22.6480 C   0  0  0  0  0  0  0  0  0  0  0  0
  -21.5600   -6.2530   23.8950 C   0  0  0  0  0  3  0  0  0  0  0  0
  -21.4770   -5.4170   25.0260 C   0  0  0  0  0  3  0  0  0  0  0  0
  -21.7710   -4.0450   24.9090 C   0  0  0  0  0  0  0  0  0  0  0  0
  -22.1580   -3.5080   23.6690 C   0  0  0  0  0  3  0  0  0  0  0  0
  -22.2450   -4.3400   22.5410 C   0  0  0  0  0  0  0  0  0  0  0  0
  -22.5990   -3.8190   21.3410 F   0  0  0  0  0  0  0  0  0  0  0  0
  -21.6730   -3.2360   25.9890 F   0  0  0  0  0  0  0  0  0  0  0  0
  -22.9250  -12.8150   21.0770 C   0  0  0  0  0  0  0  0  0  0  0  0
  -22.2720  -12.3170   22.1070 N   0  0  0  0  0  0  0  0  0  0  0  0
  -22.3220  -13.6550   20.3950 O   0  0  0  0  0  0  0  0  0  0  0  0
  -22.7350  -11.7280   22.7780 H   0  0  0  0  0  0  0  0  0  0  0  0
  -21.3080  -12.5720   22.2480 H   0  0  0  0  0  0  0  0  0  0  0  0
  -26.7080  -14.7800   19.8320 N   0  0  0  0  0  4  0  0  0  0  0  0
  -25.9420  -15.0470   19.2270 H   0  0  0  0  0  0  0  0  0  0  0  0
  -27.5420  -14.6400   19.2880 H   0  0  0  0  0  0  0  0  0  0  0  0
  -25.7690  -18.5930   19.8940 C   0  0  0  0  0  2  0  0  0  0  0  0
  -26.3000  -19.2570   18.5500 C   0  0  0  0  0  2  0  0  0  0  0  0
  -27.5180  -20.2980   18.6280 C   0  0  0  0  0  2  0  0  0  0  0  0
  -27.3010  -21.6900   18.0560 N   0  0  0  0  0  4  0  0  0  0  0  0
  -26.6310  -22.1290   18.6690 H   0  0  0  0  0  0  0  0  0  0  0  0
  -26.8440  -21.5980   17.1600 H   0  0  0  0  0  0  0  0  0  0  0  0
  -28.4870  -22.6460   17.8820 C   0  0  0  0  0  2  0  0  0  0  0  0
  -28.2140  -24.1320   18.3930 C   0  0  0  0  0  2  0  0  0  0  0  0
  -28.9340  -25.3810   17.9520 O   0  0  0  0  0  0  0  0  0  0  0  0
  -26.2600  -29.6710   23.0280 C   0  0  0  0  0  0  0  0  0  0  0  0
  -28.1570  -26.5020   18.2290 C   0  0  0  0  0  0  0  0  0  0  0  0
  -24.8560  -29.1660   21.0660 C   0  0  0  0  0  3  0  0  0  0  0  0
  -26.0770  -28.2460   19.0220 C   0  0  0  0  0  0  0  0  0  0  0  0
  -27.4140  -29.2730   20.8510 C   0  0  0  0  0  2  0  0  0  0  0  0
  -27.3050  -28.2900   19.6970 C   0  0  0  0  0  0  0  0  0  0  0  0
  -28.3610  -27.4110   19.3120 C   0  0  0  0  0  3  0  0  0  0  0  0
  -26.9800  -26.6350   17.4700 C   0  0  0  0  0  3  0  0  0  0  0  0
  -25.9200  -27.4360   17.8960 C   0  0  0  0  0  3  0  0  0  0  0  0
  -24.9500  -29.1200   19.5210 C   0  0  0  0  0  2  0  0  0  0  0  0
  -26.1960  -29.3660   21.7020 N   0  0  0  0  0  0  0  0  0  0  0  0
  -25.2330  -29.8010   23.7090 O   0  0  0  0  0  0  0  0  0  0  0  0
  -24.1260  -27.8990   21.5720 C   0  0  0  0  0  0  0  0  0  0  0  0
  -22.7920  -27.8700   21.4110 N   0  0  0  0  0  0  0  0  0  0  0  0
  -24.7530  -26.9670   22.0830 O   0  0  0  0  0  0  0  0  0  0  0  0
  -22.3520  -28.6730   20.9890 H   0  0  0  0  0  0  0  0  0  0  0  0
  -19.3490  -26.7550   21.3760 C   0  0  0  0  0  0  0  0  0  0  0  0
  -21.9000  -26.7760   21.7960 C   0  0  0  0  0  3  0  0  0  0  0  0
  -21.9720  -25.6100   20.7820 C   0  0  0  0  0  2  0  0  0  0  0  0
  -20.9050  -25.7000   19.6860 C   0  0  0  0  0  2  0  0  0  0  0  0
  -19.5020  -25.7000   20.2950 C   0  0  0  0  0  2  0  0  0  0  0  0
  -20.4750  -27.2730   22.0700 C   0  0  0  0  0  0  0  0  0  0  0  0
  -20.2740  -28.2750   23.0440 C   0  0  0  0  0  3  0  0  0  0  0  0
  -18.9820  -28.7560   23.3290 C   0  0  0  0  0  3  0  0  0  0  0  0
  -17.8700  -28.2290   22.6480 C   0  0  0  0  0  3  0  0  0  0  0  0
  -18.0550  -27.2300   21.6760 C   0  0  0  0  0  3  0  0  0  0  0  0
  -27.6280  -29.8890   23.7460 C   0  0  0  0  0  3  0  0  0  0  0  0
  -28.0940  -28.6330   24.5820 C   0  0  1  0  0  0  0  0  0  0  0  0
  -27.0160  -28.1020   25.5560 C   0  0  0  0  0  1  0  0  0  0  0  0
  -28.5000  -27.4670   23.6520 C   0  0  0  0  0  1  0  0  0  0  0  0
  -29.3550  -28.9920   25.4070 C   0  0  0  0  0  1  0  0  0  0  0  0
  -27.4840  -31.0620   24.6180 N   0  0  0  0  0  0  0  0  0  0  0  0
  -27.9660  -32.2810   24.3400 C   0  0  0  0  0  0  0  0  0  0  0  0
  -28.6480  -32.5180   23.3390 O   0  0  0  0  0  0  0  0  0  0  0  0
  -26.8940  -30.9520   25.4300 H   0  0  0  0  0  0  0  0  0  0  0  0
  -26.5220  -34.2980   24.7550 C   0  0  0  0  0  1  0  0  0  0  0  0
  -27.6420  -33.4160   25.3310 C   0  0  0  0  0  3  0  0  0  0  0  0
  -29.8160  -33.5510   26.4660 C   0  0  0  0  0  1  0  0  0  0  0  0
  -28.8130  -34.2550   25.6690 N   0  0  0  0  0  0  0  0  0  0  0  0
  -28.5270  -35.0860   26.1810 H   0  0  0  0  0  0  0  0  0  0  0  0
  1  9  1  0
  1  3  2  0
  2 52  1  0
  2  1  1  0
  4  2  1  0
 11 13  1  0
 11 10  1  0
 13 12  1  0
 14 21  1  0
 14 20  1  0
 16 17  2  0
 16 15  1  0
 17 18  1  0
 18 27  1  0
 18 19  1  0
 22 14  1  0
 22 20  1  0
 23 22  1  0
 24 27  1  0
 24 28  1  0
 25 44  1  0
 25 26  1  0
 28 25  2  0
 29 30  1  0
 30 31  2  0
 32 35  1  0
 32 31  1  0
 33 32  2  0
 34 33  1  0
 34 29  2  0
 35 36  1  0
 36 37  1  0
 37 38  2  0
 39 38  1  0
 39 43  1  0
 40 39  2  0
 41 36  2  0
 41 40  1  0
 42 41  1  0
 44 45  1  0
 45 48  1  0
 45 47  1  0
 46 44  2  0
 49 24  2  0
 50 49  1  0
 51 49  1  0
 53 54  1  0
 53 52  1  0
 55 54  1  0
 55 56  1  0
 57 55  1  0
 58 55  1  0
 58 59  1  0
 60 62  1  0
 60 59  1  0
 61 72  2  0
 62 67  1  0
 63 73  1  0
 63 71  1  0
 64 70  1  0
 64 66  1  0
 65 71  1  0
 66 65  1  0
 67 66  2  0
 68 69  1  0
 68 62  2  0
 69 64  2  0
 70 63  1  0
 71 61  1  0
 73 75  2  0
 74 73  1  0
 76 74  1  0
 77 86  2  0
 77 82  1  0
 78 74  1  0
 78 82  1  0
 79 78  1  0
 80 81  1  0
 80 79  1  0
 81 77  1  0
 82 83  2  0
 83 84  1  0
 85 84  2  0
 86 85  1  0
 87 61  1  0
 87 88  1  0
 87 92  1  0
 88 91  1  1
 88 89  1  0
 90 88  1  0
 92 95  1  0
 93 92  1  0
 93 97  1  0
 94 93  2  0
 97 96  1  0
 97 99  1  0
 99100  1  0
 99 98  1  0
M  ISO  4  14 100  22 100  59 101  60 101
M  END
>  <TORSDO>  (69) 
F 25

>  <SCORE>  (69) 
-1.602

>  <name>  (69) 
71

>  <ligand_id>  (69) 
71

>  <original_smiles>  (69) 
[H]c1c([H])c([H])c2c(c1[H])C([H])([H])C([H])([H])C([H])([H])C2([H])N([H])C(=O)C1([H])N(C(=O)C([H])(N([H])C(=O)C([H])(N([H])C([H])([H])[H])C([H])([H])[H])C(C([H])([H])[H])(C([H])([H])[H])C([H])([H])[H])C([H])([H])c2c([H])c(OC([H])([H])C([H])([H])[N+]([H])([H])C([H])([H])C([H])([H])C([H])([H])N([H])C(=O)c3c([H])c([H])c(C([H])([H])C([H])(N([H])C(=O)N4C([H])([H])C([H])([H])C([H])([H])C([H])(n5nc(-c6c([H])c([H])c(Oc7c([H])c([H])c(F)c([H])c7F)c([H])c6[H])c(C(=O)N([H])[H])c5N([H])[H])C4([H])[H])C([H])([H])[H])c([H])c3[H])c([H])c([H])c2C1([H])[H]

>  <smiles>  (69) 
[H]c1c([H])c([H])c2c(c1[H])C([H])([H])C([H])([H])C([H])([H])C2([H])N([H])C(=O)C1([H])N(C(=O)C([H])(N([H])C(=O)C([H])(N([H])C([H])([H])[H])C([H])([H])[H])C(C([H])([H])[H])(C([H])([H])[H])C([H])([H])[H])C([H])([H])c2c([H])c(OC([H])([H])C([H])([H])[N+]([H])([H])C([H])([H])C([H])([H])C([H])([H])N([H])C(=O)c3c([H])c([H])c(C([H])([H])C([H])(N([H])C(=O)N4C([H])([H])C([H])([H])C([H])([H])C([H])(n5nc(-c6c([H])c([H])c(Oc7c([H])c([H])c(F)c([H])c7F)c([H])c6[H])c(C(=O)N([H])[H])c5N([H])[H])C4([H])[H])C([H])([H])[H])c([H])c3[H])c([H])c([H])c2C1([H])[H]

$$$$
72:0:0
     RDKit          3D

 92 99  0  0  1  0  0  0  0  0999 V2000
  -26.6490  -20.8580   19.7160 C   0  0  0  0  0  0  0  0  0  0  0  0
  -26.6110  -21.8080   18.7690 N   0  0  0  0  0  0  0  0  0  0  0  0
  -25.6290  -20.2460   20.0380 O   0  0  0  0  0  0  0  0  0  0  0  0
  -25.7320  -21.9250   18.2820 H   0  0  0  0  0  0  0  0  0  0  0  0
  -27.9910  -20.5060   20.3990 C   0  0  0  0  0  2  0  0  0  0  0  0
  -28.9250  -19.5920   19.5130 C   0  0  0  0  0  2  0  0  0  0  0  0
  -29.6780  -18.2590   19.8880 C   0  0  0  0  0  2  0  0  0  0  0  0
  -30.9830  -18.0460   19.0870 C   0  0  0  0  0  2  0  0  0  0  0  0
  -31.9260  -16.9640   19.6830 C   0  0  0  0  0  2  0  0  0  0  0  0
  -31.8130  -14.4850   19.1930 C   0  0  0  0  0  0  0  0  0  0  0  0
  -31.4730  -12.0560   18.8550 C   0  0  0  0  0  2  0  0  0  0  0  0
  -30.4540  -11.8200   17.7240 C   0  0  0  0  0  2  0  0  0  0  0  0
  -29.0290  -11.7810   18.3040 C   0  0  0  0  0  2  0  0  0  0  0  0
  -28.7310  -13.0200   19.1910 C   0  0  0  0  0  3  0  0  0  0  0  0
  -29.8600  -13.2620   20.2190 C   0  0  0  0  0  2  0  0  0  0  0  0
  -31.1450  -13.3380   19.4980 N   0  0  0  0  0  0  0  0  0  0  0  0
  -32.7950  -14.5040   18.4450 O   0  0  0  0  0  0  0  0  0  0  0  0
  -31.3420  -15.6110   19.7570 N   0  0  0  0  0  0  0  0  0  0  0  0
  -30.5460  -15.5030   20.3670 H   0  0  0  0  0  0  0  0  0  0  0  0
  -26.5880  -13.9300   20.2900 C   0  0  0  0  0  0  0  0  0  0  0  0
  -25.4650  -13.2990   20.7580 C   0  0  0  0  0  0  0  0  0  0  0  0
  -25.6820  -11.9020   20.5600 C   0  0  0  0  0  0  0  0  0  0  0  0
  -27.4280  -12.9180   19.8460 N   0  0  0  0  0  0  0  0  0  0  0  0
  -26.8920  -11.6880   20.0650 N   0  0  0  0  0  0  0  0  0  0  0  0
  -24.7850  -10.7570   20.7710 C   0  0  0  0  0  0  0  0  0  0  0  0
  -25.0910   -9.7380   21.7000 C   0  0  0  0  0  3  0  0  0  0  0  0
  -24.2070   -8.6560   21.8940 C   0  0  0  0  0  3  0  0  0  0  0  0
  -23.0000   -8.5860   21.1590 C   0  0  0  0  0  0  0  0  0  0  0  0
  -22.7080   -9.5900   20.2210 C   0  0  0  0  0  3  0  0  0  0  0  0
  -23.5910  -10.6660   20.0260 C   0  0  0  0  0  3  0  0  0  0  0  0
  -22.0900   -7.5620   21.2620 O   0  0  0  0  0  0  0  0  0  0  0  0
  -21.8470   -6.9370   22.4580 C   0  0  0  0  0  0  0  0  0  0  0  0
  -21.3600   -7.6410   23.5800 C   0  0  0  0  0  3  0  0  0  0  0  0
  -21.0540   -6.9470   24.7690 C   0  0  0  0  0  3  0  0  0  0  0  0
  -21.2250   -5.5500   24.8340 C   0  0  0  0  0  0  0  0  0  0  0  0
  -21.7060   -4.8480   23.7150 C   0  0  0  0  0  3  0  0  0  0  0  0
  -22.0110   -5.5400   22.5320 C   0  0  0  0  0  0  0  0  0  0  0  0
  -22.4530   -4.8570   21.4480 F   0  0  0  0  0  0  0  0  0  0  0  0
  -20.9250   -4.8820   25.9720 F   0  0  0  0  0  0  0  0  0  0  0  0
  -24.2200  -13.9640   21.2720 C   0  0  0  0  0  0  0  0  0  0  0  0
  -23.5290  -13.3190   22.2090 N   0  0  0  0  0  0  0  0  0  0  0  0
  -23.8810  -15.0790   20.8830 O   0  0  0  0  0  0  0  0  0  0  0  0
  -23.8180  -12.4120   22.5400 H   0  0  0  0  0  0  0  0  0  0  0  0
  -22.7020  -13.7430   22.6040 H   0  0  0  0  0  0  0  0  0  0  0  0
  -26.9500  -15.2710   20.1870 N   0  0  0  0  0  0  0  0  0  0  0  0
  -26.2960  -16.0090   20.4230 H   0  0  0  0  0  0  0  0  0  0  0  0
  -27.8000  -15.6050   19.7470 H   0  0  0  0  0  0  0  0  0  0  0  0
  -27.7320  -22.6040   18.2670 C   0  0  0  0  0  2  0  0  0  0  0  0
  -27.5060  -24.1180   18.4250 C   0  0  0  0  0  2  0  0  0  0  0  0
  -28.8350  -24.8810   18.2090 C   0  0  0  0  0  2  0  0  0  0  0  0
  -28.7580  -26.3930   17.8880 C   0  0  0  0  0  2  0  0  0  0  0  0
  -28.5570  -27.2160   19.0360 O   0  0  0  0  0  0  0  0  0  0  0  0
  -24.6810  -31.3860   23.2930 C   0  0  0  0  0  0  0  0  0  0  0  0
  -27.3290  -27.8080   19.2400 C   0  0  0  0  0  0  0  0  0  0  0  0
  -23.4380  -30.2240   21.4980 C   0  0  0  0  0  3  0  0  0  0  0  0
  -24.8600  -29.0930   19.7190 C   0  0  0  0  0  0  0  0  0  0  0  0
  -25.9110  -30.7990   21.2080 C   0  0  0  0  0  2  0  0  0  0  0  0
  -26.0230  -29.5770   20.3230 C   0  0  0  0  0  0  0  0  0  0  0  0
  -27.2590  -28.9290   20.0990 C   0  0  0  0  0  3  0  0  0  0  0  0
  -26.1390  -27.3330   18.6430 C   0  0  0  0  0  3  0  0  0  0  0  0
  -24.9060  -27.9650   18.8860 C   0  0  0  0  0  3  0  0  0  0  0  0
  -23.5790  -29.8400   20.0040 C   0  0  0  0  0  2  0  0  0  0  0  0
  -24.6980  -30.8080   22.0580 N   0  0  0  0  0  0  0  0  0  0  0  0
  -23.6290  -31.4760   23.9420 O   0  0  0  0  0  0  0  0  0  0  0  0
  -22.9260  -28.9980   22.2840 C   0  0  0  0  0  0  0  0  0  0  0  0
  -21.6380  -28.6680   22.1050 N   0  0  0  0  0  0  0  0  0  0  0  0
  -23.6860  -28.3530   23.0100 O   0  0  0  0  0  0  0  0  0  0  0  0
  -21.0830  -29.2490   21.4910 H   0  0  0  0  0  0  0  0  0  0  0  0
  -18.4680  -26.9280   22.2740 C   0  0  0  0  0  0  0  0  0  0  0  0
  -20.9450  -27.5350   22.7150 C   0  0  0  0  0  3  0  0  0  0  0  0
  -21.2940  -26.2180   21.9870 C   0  0  0  0  0  2  0  0  0  0  0  0
  -20.2860  -25.8400   20.8960 C   0  0  0  0  0  2  0  0  0  0  0  0
  -18.8860  -25.6900   21.4990 C   0  0  0  0  0  2  0  0  0  0  0  0
  -19.4390  -27.7950   22.8440 C   0  0  0  0  0  0  0  0  0  0  0  0
  -19.0070  -28.9320   23.5570 C   0  0  0  0  0  3  0  0  0  0  0  0
  -17.6370  -29.2120   23.7030 C   0  0  0  0  0  3  0  0  0  0  0  0
  -16.6780  -28.3450   23.1490 C   0  0  0  0  0  3  0  0  0  0  0  0
  -17.0950  -27.2060   22.4370 C   0  0  0  0  0  3  0  0  0  0  0  0
  -25.9770  -31.9800   23.9360 C   0  0  0  0  0  3  0  0  0  0  0  0
  -26.5110  -31.1380   25.1580 C   0  0  1  0  0  0  0  0  0  0  0  0
  -25.4310  -30.8430   26.2250 C   0  0  0  0  0  1  0  0  0  0  0  0
  -27.0830  -29.7840   24.6790 C   0  0  0  0  0  1  0  0  0  0  0  0
  -27.6750  -31.8900   25.8420 C   0  0  0  0  0  1  0  0  0  0  0  0
  -25.6690  -33.3570   24.3420 N   0  0  0  0  0  0  0  0  0  0  0  0
  -26.0490  -34.4500   23.6670 C   0  0  0  0  0  0  0  0  0  0  0  0
  -26.7650  -34.4000   22.6630 O   0  0  0  0  0  0  0  0  0  0  0  0
  -25.0440  -33.4710   25.1280 H   0  0  0  0  0  0  0  0  0  0  0  0
  -24.3920  -36.3060   23.3250 C   0  0  0  0  0  1  0  0  0  0  0  0
  -25.5610  -35.8110   24.1900 C   0  0  0  0  0  3  0  0  0  0  0  0
  -27.6460  -36.5770   25.2420 C   0  0  0  0  0  1  0  0  0  0  0  0
  -26.6220  -36.8420   24.2320 N   0  0  0  0  0  0  0  0  0  0  0  0
  -26.2250  -37.7580   24.4210 H   0  0  0  0  0  0  0  0  0  0  0  0
  1  3  2  0
  1  5  1  0
  2  1  1  0
  4  2  1  0
  6  7  1  0
  6  5  1  0
  8  9  1  0
  8  7  1  0
  9 18  1  0
 10 16  1  0
 10 18  1  0
 11 16  1  0
 12 13  1  0
 12 11  1  0
 14 13  1  0
 14 23  1  0
 14 15  1  0
 16 15  1  0
 17 10  2  0
 18 19  1  0
 20 21  2  0
 21 40  1  0
 22 21  1  0
 22 25  1  0
 23 24  1  0
 23 20  1  0
 24 22  2  0
 25 26  1  0
 26 27  2  0
 28 31  1  0
 28 27  1  0
 29 28  2  0
 30 29  1  0
 30 25  2  0
 31 32  1  0
 32 37  2  0
 32 33  1  0
 33 34  2  0
 34 35  1  0
 35 39  1  0
 36 35  2  0
 37 36  1  0
 38 37  1  0
 40 41  1  0
 41 43  1  0
 41 44  1  0
 42 40  2  0
 45 20  1  0
 45 46  1  0
 47 45  1  0
 48 49  1  0
 48  2  1  0
 50 49  1  0
 51 50  1  0
 51 52  1  0
 52 54  1  0
 53 64  2  0
 54 59  1  0
 55 63  1  0
 55 65  1  0
 56 62  1  0
 56 58  1  0
 57 63  1  0
 58 57  1  0
 59 58  2  0
 60 61  1  0
 60 54  2  0
 61 56  2  0
 62 55  1  0
 63 53  1  0
 65 67  2  0
 66 65  1  0
 68 66  1  0
 69 78  2  0
 69 74  1  0
 70 66  1  0
 70 74  1  0
 71 70  1  0
 72 73  1  0
 72 71  1  0
 73 69  1  0
 74 75  2  0
 75 76  1  0
 77 76  2  0
 78 77  1  0
 79 53  1  0
 79 84  1  0
 79 80  1  0
 80 83  1  1
 80 81  1  0
 82 80  1  0
 84 87  1  0
 85 89  1  0
 85 84  1  0
 86 85  2  0
 89 88  1  0
 89 91  1  0
 91 92  1  0
 91 90  1  0
M  ISO  4  10 100  18 100  51 101  52 101
M  END
>  <TORSDO>  (70) 
F 25

>  <SCORE>  (70) 
-7.275

>  <name>  (70) 
72

>  <ligand_id>  (70) 
72

>  <original_smiles>  (70) 
[H]c1c([H])c([H])c2c(c1[H])C([H])([H])C([H])([H])C([H])([H])C2([H])N([H])C(=O)C1([H])N(C(=O)C([H])(N([H])C(=O)C([H])(N([H])C([H])([H])[H])C([H])([H])[H])C(C([H])([H])[H])(C([H])([H])[H])C([H])([H])[H])C([H])([H])c2c([H])c(OC([H])([H])C([H])([H])C([H])([H])C([H])([H])N([H])C(=O)C([H])([H])C([H])([H])C([H])([H])C([H])([H])C([H])([H])N([H])C(=O)N3C([H])([H])C([H])([H])C([H])([H])C([H])(n4nc(-c5c([H])c([H])c(Oc6c([H])c([H])c(F)c([H])c6F)c([H])c5[H])c(C(=O)N([H])[H])c4N([H])[H])C3([H])[H])c([H])c([H])c2C1([H])[H]

>  <smiles>  (70) 
[H]c1c([H])c([H])c2c(c1[H])C([H])([H])C([H])([H])C([H])([H])C2([H])N([H])C(=O)C1([H])N(C(=O)C([H])(N([H])C(=O)C([H])(N([H])C([H])([H])[H])C([H])([H])[H])C(C([H])([H])[H])(C([H])([H])[H])C([H])([H])[H])C([H])([H])c2c([H])c(OC([H])([H])C([H])([H])C([H])([H])C([H])([H])N([H])C(=O)C([H])([H])C([H])([H])C([H])([H])C([H])([H])C([H])([H])N([H])C(=O)N3C([H])([H])C([H])([H])C([H])([H])C([H])(n4nc(-c5c([H])c([H])c(Oc6c([H])c([H])c(F)c([H])c6F)c([H])c5[H])c(C(=O)N([H])[H])c4N([H])[H])C3([H])[H])c([H])c([H])c2C1([H])[H]

$$$$
73:0:0
     RDKit          3D

 97104  0  0  1  0  0  0  0  0999 V2000
  -29.6140  -23.0820   24.7440 C   0  0  0  0  0  2  0  0  0  0  0  0
  -28.3680  -23.0860   23.8330 C   0  0  0  0  0  2  0  0  0  0  0  0
  -28.1430  -24.4410   23.1570 C   0  0  0  0  0  2  0  0  0  0  0  0
  -29.0430  -24.6460   22.0000 N   0  0  0  0  0  4  0  0  0  0  0  0
  -28.7080  -24.0480   21.2580 H   0  0  0  0  0  0  0  0  0  0  0  0
  -29.9830  -24.3630   22.2280 H   0  0  0  0  0  0  0  0  0  0  0  0
  -29.0720  -26.0490   21.5310 C   0  0  0  0  0  2  0  0  0  0  0  0
  -29.4190  -26.1750   20.0310 C   0  0  0  0  0  2  0  0  0  0  0  0
  -29.2450  -27.5210   19.6150 O   0  0  0  0  0  0  0  0  0  0  0  0
  -24.6370  -31.5660   23.1950 C   0  0  0  0  0  0  0  0  0  0  0  0
  -27.9660  -28.0160   19.6830 C   0  0  0  0  0  0  0  0  0  0  0  0
  -23.6770  -30.2380   21.3380 C   0  0  0  0  0  3  0  0  0  0  0  0
  -25.3740  -29.1100   19.8060 C   0  0  0  0  0  0  0  0  0  0  0  0
  -26.1270  -30.9820   21.2860 C   0  0  0  0  0  2  0  0  0  0  0  0
  -26.4290  -29.7330   20.4850 C   0  0  0  0  0  0  0  0  0  0  0  0
  -27.7330  -29.1990   20.4100 C   0  0  0  0  0  3  0  0  0  0  0  0
  -26.8860  -27.3760   19.0330 C   0  0  0  0  0  3  0  0  0  0  0  0
  -25.5950  -27.9260   19.0840 C   0  0  0  0  0  3  0  0  0  0  0  0
  -24.0150  -29.7570   19.8980 C   0  0  0  0  0  2  0  0  0  0  0  0
  -24.8280  -30.9350   22.0020 N   0  0  0  0  0  0  0  0  0  0  0  0
  -23.5170  -31.6180   23.7220 O   0  0  0  0  0  0  0  0  0  0  0  0
  -23.1530  -29.0240   22.1370 C   0  0  0  0  0  0  0  0  0  0  0  0
  -21.8790  -28.6720   21.9070 N   0  0  0  0  0  0  0  0  0  0  0  0
  -23.8920  -28.4040   22.9060 O   0  0  0  0  0  0  0  0  0  0  0  0
  -21.3500  -29.2400   21.2610 H   0  0  0  0  0  0  0  0  0  0  0  0
  -18.7080  -26.9340   22.0050 C   0  0  0  0  0  0  0  0  0  0  0  0
  -21.1720  -27.5400   22.5100 C   0  0  0  0  0  3  0  0  0  0  0  0
  -21.5330  -26.2130   21.8010 C   0  0  0  0  0  2  0  0  0  0  0  0
  -20.5640  -25.8460   20.6730 C   0  0  0  0  0  2  0  0  0  0  0  0
  -19.1390  -25.7100   21.2150 C   0  0  0  0  0  2  0  0  0  0  0  0
  -19.6630  -27.8020   22.5980 C   0  0  0  0  0  0  0  0  0  0  0  0
  -19.2070  -28.9450   23.2890 C   0  0  0  0  0  3  0  0  0  0  0  0
  -17.8310  -29.2270   23.3900 C   0  0  0  0  0  3  0  0  0  0  0  0
  -16.8920  -28.3520   22.8200 C   0  0  0  0  0  3  0  0  0  0  0  0
  -17.3310  -27.2050   22.1350 C   0  0  0  0  0  3  0  0  0  0  0  0
  -25.8080  -32.2740   23.9470 C   0  0  0  0  0  3  0  0  0  0  0  0
  -25.3540  -33.6190   24.3220 N   0  0  0  0  0  0  0  0  0  0  0  0
  -25.6460  -34.7370   23.6460 C   0  0  0  0  0  0  0  0  0  0  0  0
  -26.4000  -34.7510   22.6680 O   0  0  0  0  0  0  0  0  0  0  0  0
  -24.6970  -33.6750   25.0870 H   0  0  0  0  0  0  0  0  0  0  0  0
  -23.7930  -36.3740   23.2270 C   0  0  0  0  0  1  0  0  0  0  0  0
  -24.9970  -36.0470   24.1260 C   0  0  0  0  0  3  0  0  0  0  0  0
  -26.9740  -37.0640   25.1690 C   0  0  0  0  0  1  0  0  0  0  0  0
  -25.9340  -37.1910   24.1500 N   0  0  0  0  0  0  0  0  0  0  0  0
  -25.4360  -38.0620   24.3140 H   0  0  0  0  0  0  0  0  0  0  0  0
  -26.3080  -31.4810   25.2150 C   0  0  1  0  0  0  0  0  0  0  0  0
  -25.1670  -31.0720   26.1770 C   0  0  0  0  0  1  0  0  0  0  0  0
  -27.0470  -30.1970   24.7810 C   0  0  0  0  0  1  0  0  0  0  0  0
  -27.3290  -32.3360   26.0030 C   0  0  0  0  0  1  0  0  0  0  0  0
  -29.9680  -21.6670   25.2370 C   0  0  0  0  0  2  0  0  0  0  0  0
  -31.2320  -20.6810   23.3360 C   0  0  0  0  0  0  0  0  0  0  0  0
  -30.1470  -20.7640   24.1100 N   0  0  0  0  0  0  0  0  0  0  0  0
  -32.2560  -21.3370   23.5330 O   0  0  0  0  0  0  0  0  0  0  0  0
  -29.3540  -20.1920   23.8510 H   0  0  0  0  0  0  0  0  0  0  0  0
  -31.1200  -19.7230   22.1560 C   0  0  0  0  0  2  0  0  0  0  0  0
  -32.1640  -18.5880   22.1890 C   0  0  0  0  0  2  0  0  0  0  0  0
  -33.1670  -18.6720   21.0570 C   0  0  0  0  0  3  0  0  0  0  0  0
  -32.9470  -18.1840   19.8280 C   0  0  0  0  0  3  0  0  0  0  0  0
  -31.6480  -17.5310   19.3750 C   0  0  0  0  0  2  0  0  0  0  0  0
  -32.1710  -15.1840   19.9080 C   0  0  0  0  0  0  0  0  0  0  0  0
  -32.0010  -12.7660   19.5680 C   0  0  0  0  0  2  0  0  0  0  0  0
  -31.0580  -12.5180   18.3700 C   0  0  0  0  0  2  0  0  0  0  0  0
  -29.5880  -12.4630   18.8270 C   0  0  0  0  0  2  0  0  0  0  0  0
  -29.1880  -13.6370   19.7580 C   0  0  0  0  0  3  0  0  0  0  0  0
  -30.2500  -13.8580   20.8610 C   0  0  0  0  0  2  0  0  0  0  0  0
  -31.5670  -14.0080   20.2150 N   0  0  0  0  0  0  0  0  0  0  0  0
  -33.2670  -15.2710   19.3530 O   0  0  0  0  0  0  0  0  0  0  0  0
  -31.3970  -16.2640   20.0550 N   0  0  0  0  0  0  0  0  0  0  0  0
  -30.5020  -16.1320   20.5040 H   0  0  0  0  0  0  0  0  0  0  0  0
  -26.9370  -14.3830   20.7680 C   0  0  0  0  0  0  0  0  0  0  0  0
  -25.8200  -13.6810   21.1430 C   0  0  0  0  0  0  0  0  0  0  0  0
  -26.1190  -12.3080   20.8990 C   0  0  0  0  0  0  0  0  0  0  0  0
  -27.8510  -13.4400   20.3260 N   0  0  0  0  0  0  0  0  0  0  0  0
  -27.3660  -12.1800   20.4600 N   0  0  0  0  0  0  0  0  0  0  0  0
  -25.2730  -11.1090   20.9990 C   0  0  0  0  0  0  0  0  0  0  0  0
  -25.6120  -10.0360   21.8510 C   0  0  0  0  0  3  0  0  0  0  0  0
  -24.7730   -8.9030   21.9450 C   0  0  0  0  0  3  0  0  0  0  0  0
  -23.5790   -8.8400   21.1850 C   0  0  0  0  0  0  0  0  0  0  0  0
  -23.2580   -9.9050   20.3250 C   0  0  0  0  0  3  0  0  0  0  0  0
  -24.0990  -11.0260   20.2270 C   0  0  0  0  0  3  0  0  0  0  0  0
  -22.7170   -7.7710   21.1910 O   0  0  0  0  0  0  0  0  0  0  0  0
  -22.4410   -7.0760   22.3420 C   0  0  0  0  0  0  0  0  0  0  0  0
  -21.9120   -7.7120   23.4890 C   0  0  0  0  0  3  0  0  0  0  0  0
  -21.5770   -6.9480   24.6260 C   0  0  0  0  0  3  0  0  0  0  0  0
  -21.7600   -5.5530   24.6150 C   0  0  0  0  0  0  0  0  0  0  0  0
  -22.2820   -4.9190   23.4730 C   0  0  0  0  0  3  0  0  0  0  0  0
  -22.6190   -5.6790   22.3420 C   0  0  0  0  0  0  0  0  0  0  0  0
  -23.1010   -5.0630   21.2340 F   0  0  0  0  0  0  0  0  0  0  0  0
  -21.4300   -4.8150   25.7010 F   0  0  0  0  0  0  0  0  0  0  0  0
  -24.5170  -14.2630   21.6120 C   0  0  0  0  0  0  0  0  0  0  0  0
  -23.7840  -13.5410   22.4530 N   0  0  0  0  0  0  0  0  0  0  0  0
  -24.1520  -15.3860   21.2650 O   0  0  0  0  0  0  0  0  0  0  0  0
  -24.0950  -12.6340   22.7720 H   0  0  0  0  0  0  0  0  0  0  0  0
  -22.9060  -13.9050   22.7930 H   0  0  0  0  0  0  0  0  0  0  0  0
  -27.2430  -15.7400   20.7490 N   0  0  0  0  0  0  0  0  0  0  0  0
  -26.5620  -16.4560   20.9910 H   0  0  0  0  0  0  0  0  0  0  0  0
  -28.1030  -16.1190   20.3740 H   0  0  0  0  0  0  0  0  0  0  0  0
  1 50  1  0
  2  1  1  0
  3  2  1  0
  4  6  1  0
  4  3  1  0
  5  4  1  0
  7  4  1  0
  8  7  1  0
  9 11  1  0
  9  8  1  0
 10 21  2  0
 11 16  1  0
 12 20  1  0
 12 22  1  0
 13 19  1  0
 13 15  1  0
 14 20  1  0
 15 14  1  0
 16 15  2  0
 17 18  1  0
 17 11  2  0
 18 13  2  0
 19 12  1  0
 20 10  1  0
 22 24  2  0
 23 22  1  0
 25 23  1  0
 26 35  2  0
 26 31  1  0
 27 23  1  0
 27 31  1  0
 28 27  1  0
 29 30  1  0
 29 28  1  0
 30 26  1  0
 31 32  2  0
 32 33  1  0
 34 33  2  0
 35 34  1  0
 36 10  1  0
 36 37  1  0
 36 46  1  0
 37 40  1  0
 38 42  1  0
 38 37  1  0
 39 38  2  0
 42 41  1  0
 42 44  1  0
 44 45  1  0
 44 43  1  0
 46 49  1  1
 46 47  1  0
 48 46  1  0
 51 53  2  0
 51 52  1  0
 52 50  1  0
 54 52  1  0
 55 56  1  0
 55 51  1  0
 57 56  1  0
 58 57  2  0
 59 58  1  0
 59 68  1  0
 60 68  1  0
 60 66  1  0
 61 66  1  0
 62 63  1  0
 62 61  1  0
 64 63  1  0
 64 73  1  0
 64 65  1  0
 66 65  1  0
 67 60  2  0
 68 69  1  0
 70 71  2  0
 71 90  1  0
 72 75  1  0
 72 71  1  0
 73 74  1  0
 73 70  1  0
 74 72  2  0
 75 76  1  0
 76 77  2  0
 78 81  1  0
 78 77  1  0
 79 78  2  0
 80 79  1  0
 80 75  2  0
 81 82  1  0
 82 87  2  0
 82 83  1  0
 83 84  2  0
 85 84  1  0
 85 89  1  0
 86 85  2  0
 87 86  1  0
 88 87  1  0
 90 91  1  0
 91 93  1  0
 91 94  1  0
 92 90  2  0
 95 70  1  0
 95 96  1  0
 97 95  1  0
M  ISO  4   8 101   9 101  60 100  68 100
M  END
>  <TORSDO>  (71) 
F 27

>  <SCORE>  (71) 
-4.692

>  <name>  (71) 
73

>  <ligand_id>  (71) 
73

>  <original_smiles>  (71) 
[H]C(=C([H])C([H])([H])C([H])([H])C(=O)N([H])C([H])([H])C([H])([H])C([H])([H])C([H])([H])[N+]([H])([H])C([H])([H])C([H])([H])Oc1c([H])c([H])c2c(c1[H])C([H])([H])N(C(=O)C([H])(N([H])C(=O)C([H])(N([H])C([H])([H])[H])C([H])([H])[H])C(C([H])([H])[H])(C([H])([H])[H])C([H])([H])[H])C([H])(C(=O)N([H])C1([H])c3c([H])c([H])c([H])c([H])c3C([H])([H])C([H])([H])C1([H])[H])C2([H])[H])C([H])([H])N([H])C(=O)N1C([H])([H])C([H])([H])C([H])([H])C([H])(n2nc(-c3c([H])c([H])c(Oc4c([H])c([H])c(F)c([H])c4F)c([H])c3[H])c(C(=O)N([H])[H])c2N([H])[H])C1([H])[H]

>  <smiles>  (71) 
[H]C(=C([H])C([H])([H])C([H])([H])C(=O)N([H])C([H])([H])C([H])([H])C([H])([H])C([H])([H])[N+]([H])([H])C([H])([H])C([H])([H])Oc1c([H])c([H])c2c(c1[H])C([H])([H])N(C(=O)C([H])(N([H])C(=O)C([H])(N([H])C([H])([H])[H])C([H])([H])[H])C(C([H])([H])[H])(C([H])([H])[H])C([H])([H])[H])C([H])(C(=O)N([H])C1([H])c3c([H])c([H])c([H])c([H])c3C([H])([H])C([H])([H])C1([H])[H])C2([H])[H])C([H])([H])N([H])C(=O)N1C([H])([H])C([H])([H])C([H])([H])C([H])(n2nc(-c3c([H])c([H])c(Oc4c([H])c([H])c(F)c([H])c4F)c([H])c3[H])c(C(=O)N([H])[H])c2N([H])[H])C1([H])[H]

$$$$
74:0:0
     RDKit          3D

103111  0  0  1  0  0  0  0  0999 V2000
  -28.6630  -23.0320   17.7590 C   0  0  0  0  0  3  0  0  0  0  0  0
  -28.2540  -21.7070   17.9970 C   0  0  0  0  0  3  0  0  0  0  0  0
  -26.3350  -23.7430   17.7470 C   0  0  0  0  0  3  0  0  0  0  0  0
  -27.7050  -24.0650   17.6630 C   0  0  0  0  0  0  0  0  0  0  0  0
  -25.9180  -22.4190   18.0040 C   0  0  0  0  0  0  0  0  0  0  0  0
  -26.8850  -21.3970   18.1530 C   0  0  0  0  0  0  0  0  0  0  0  0
  -24.4350  -22.1330   18.1660 C   0  0  0  0  0  1  0  0  0  0  0  0
  -28.1240  -25.4970   17.5320 C   0  0  0  0  0  0  0  0  0  0  0  0
  -29.1720  -25.8240   18.2910 N   0  0  0  0  0  0  0  0  0  0  0  0
  -27.4590  -26.3110   16.8900 O   0  0  0  0  0  0  0  0  0  0  0  0
  -29.6030  -25.0580   18.7870 H   0  0  0  0  0  0  0  0  0  0  0  0
  -29.4530  -27.1600   18.8060 C   0  0  0  0  0  2  0  0  0  0  0  0
  -29.4620  -27.1190   20.3450 C   0  0  0  0  0  2  0  0  0  0  0  0
  -28.2430  -26.5500   20.8280 O   0  0  0  0  0  0  0  0  0  0  0  0
  -24.3990  -31.9870   23.3730 C   0  0  0  0  0  0  0  0  0  0  0  0
  -27.1140  -27.3260   20.7360 C   0  0  0  0  0  0  0  0  0  0  0  0
  -23.2450  -30.4890   21.7740 C   0  0  0  0  0  3  0  0  0  0  0  0
  -24.7350  -28.8270   20.5430 C   0  0  0  0  0  0  0  0  0  0  0  0
  -25.7780  -30.8010   21.6740 C   0  0  0  0  0  2  0  0  0  0  0  0
  -25.8710  -29.3870   21.1430 C   0  0  0  0  0  0  0  0  0  0  0  0
  -27.0660  -28.6430   21.2400 C   0  0  0  0  0  3  0  0  0  0  0  0
  -25.9590  -26.7610   20.1590 C   0  0  0  0  0  3  0  0  0  0  0  0
  -24.7710  -27.5090   20.0520 C   0  0  0  0  0  3  0  0  0  0  0  0
  -23.5060  -29.7040   20.4620 C   0  0  0  0  0  2  0  0  0  0  0  0
  -24.4890  -31.1080   22.3340 N   0  0  0  0  0  0  0  0  0  0  0  0
  -23.2990  -32.3170   23.8360 O   0  0  0  0  0  0  0  0  0  0  0  0
  -22.5230  -29.5570   22.7740 C   0  0  0  0  0  0  0  0  0  0  0  0
  -21.2060  -29.3780   22.5820 N   0  0  0  0  0  0  0  0  0  0  0  0
  -23.1480  -28.9910   23.6750 O   0  0  0  0  0  0  0  0  0  0  0  0
  -20.7640  -29.8810   21.8260 H   0  0  0  0  0  0  0  0  0  0  0  0
  -17.7860  -28.3040   23.0120 C   0  0  0  0  0  0  0  0  0  0  0  0
  -20.3350  -28.5140   23.3780 C   0  0  0  0  0  3  0  0  0  0  0  0
  -20.4220  -27.0470   22.8990 C   0  0  0  0  0  2  0  0  0  0  0  0
  -19.3560  -26.6860   21.8590 C   0  0  0  0  0  2  0  0  0  0  0  0
  -17.9540  -26.9090   22.4320 C   0  0  0  0  0  2  0  0  0  0  0  0
  -18.9050  -29.0630   23.4420 C   0  0  0  0  0  0  0  0  0  0  0  0
  -18.6970  -30.3690   23.9390 C   0  0  0  0  0  3  0  0  0  0  0  0
  -17.4010  -30.9120   24.0140 C   0  0  0  0  0  3  0  0  0  0  0  0
  -16.2940  -30.1510   23.6010 C   0  0  0  0  0  3  0  0  0  0  0  0
  -16.4880  -28.8490   23.1040 C   0  0  0  0  0  3  0  0  0  0  0  0
  -25.6670  -32.6350   24.0090 C   0  0  0  0  0  3  0  0  0  0  0  0
  -25.3800  -34.0600   24.2140 N   0  0  0  0  0  0  0  0  0  0  0  0
  -25.8170  -35.0440   23.4160 C   0  0  0  0  0  0  0  0  0  0  0  0
  -26.5710  -34.8490   22.4600 O   0  0  0  0  0  0  0  0  0  0  0  0
  -24.7200  -34.2890   24.9410 H   0  0  0  0  0  0  0  0  0  0  0  0
  -24.1990  -36.8590   22.7730 C   0  0  0  0  0  1  0  0  0  0  0  0
  -25.3380  -36.4740   23.7310 C   0  0  0  0  0  3  0  0  0  0  0  0
  -27.4160  -37.3470   24.7070 C   0  0  0  0  0  1  0  0  0  0  0  0
  -26.4140  -37.4840   23.6540 N   0  0  0  0  0  0  0  0  0  0  0  0
  -26.0310  -38.4250   23.7030 H   0  0  0  0  0  0  0  0  0  0  0  0
  -26.1070  -31.9500   25.3620 C   0  0  1  0  0  0  0  0  0  0  0  0
  -24.9580  -31.8120   26.3870 C   0  0  0  0  0  1  0  0  0  0  0  0
  -26.6800  -30.5370   25.1000 C   0  0  0  0  0  1  0  0  0  0  0  0
  -27.2410  -32.7700   26.0200 C   0  0  0  0  0  1  0  0  0  0  0  0
  -26.4890  -20.0990   18.4900 N   0  0  0  0  0  0  0  0  0  0  0  0
  -25.4820  -19.9990   18.5820 H   0  0  0  0  0  0  0  0  0  0  0  0
  -27.2140  -19.5540   19.6390 C   0  0  0  0  0  2  0  0  0  0  0  0
  -28.1780  -18.4250   19.2390 C   0  0  0  0  0  2  0  0  0  0  0  0
  -29.3280  -18.2760   20.2230 C   0  0  0  0  0  0  0  0  0  0  0  0
  -29.6530  -17.1600   20.7240 N   0  0  0  0  0  0  0  0  0  0  0  0
  -30.4500  -17.2390   21.3450 H   0  0  0  0  0  0  0  0  0  0  0  0
  -30.0580  -19.5680   20.5620 C   0  0  0  0  0  2  0  0  0  0  0  0
  -31.5380  -19.5490   20.1500 C   0  0  0  0  0  2  0  0  0  0  0  0
  -32.3360  -20.6990   20.7940 C   0  0  0  0  0  2  0  0  0  0  0  0
  -33.8450  -20.6280   20.5060 C   0  0  0  0  0  2  0  0  0  0  0  0
  -34.2120  -22.4420   18.8260 C   0  0  0  0  0  0  0  0  0  0  0  0
  -34.9510  -23.9190   16.9960 C   0  0  0  0  0  2  0  0  0  0  0  0
  -33.7880  -24.5980   16.2540 C   0  0  0  0  0  2  0  0  0  0  0  0
  -33.2510  -23.6880   15.1340 C   0  0  0  0  0  2  0  0  0  0  0  0
  -32.9470  -22.2540   15.6340 C   0  0  0  0  0  3  0  0  0  0  0  0
  -34.1430  -21.6840   16.4280 C   0  0  0  0  0  2  0  0  0  0  0  0
  -34.4930  -22.6240   17.5140 N   0  0  0  0  0  0  0  0  0  0  0  0
  -34.1470  -23.3570   19.6540 O   0  0  0  0  0  0  0  0  0  0  0  0
  -34.1560  -21.1550   19.1830 N   0  0  0  0  0  0  0  0  0  0  0  0
  -34.3280  -20.4830   18.4480 H   0  0  0  0  0  0  0  0  0  0  0  0
  -31.4910  -20.5090   14.4200 C   0  0  0  0  0  0  0  0  0  0  0  0
  -31.5600  -19.9780   13.1590 C   0  0  0  0  0  0  0  0  0  0  0  0
  -32.7030  -20.5730   12.5440 C   0  0  0  0  0  0  0  0  0  0  0  0
  -32.5680  -21.3750   14.5280 N   0  0  0  0  0  0  0  0  0  0  0  0
  -33.3260  -21.3700   13.4020 N   0  0  0  0  0  0  0  0  0  0  0  0
  -33.2060  -20.4740   11.1680 C   0  0  0  0  0  0  0  0  0  0  0  0
  -34.5500  -20.1360   10.8970 C   0  0  0  0  0  3  0  0  0  0  0  0
  -35.0080  -20.0320    9.5660 C   0  0  0  0  0  3  0  0  0  0  0  0
  -34.1180  -20.2610    8.4890 C   0  0  0  0  0  0  0  0  0  0  0  0
  -32.7870  -20.6190    8.7660 C   0  0  0  0  0  3  0  0  0  0  0  0
  -32.3350  -20.7280   10.0920 C   0  0  0  0  0  3  0  0  0  0  0  0
  -34.4790  -20.2080    7.1650 O   0  0  0  0  0  0  0  0  0  0  0  0
  -35.5330  -19.4400    6.7370 C   0  0  0  0  0  0  0  0  0  0  0  0
  -35.5950  -18.0530    6.9890 C   0  0  0  0  0  3  0  0  0  0  0  0
  -36.6620  -17.2910    6.4710 C   0  0  0  0  0  3  0  0  0  0  0  0
  -37.6590  -17.9090    5.6950 C   0  0  0  0  0  0  0  0  0  0  0  0
  -37.5960  -19.2900    5.4390 C   0  0  0  0  0  3  0  0  0  0  0  0
  -36.5340  -20.0530    5.9560 C   0  0  0  0  0  0  0  0  0  0  0  0
  -36.4660  -21.3790    5.6880 F   0  0  0  0  0  0  0  0  0  0  0  0
  -38.6800  -17.1770    5.1910 F   0  0  0  0  0  0  0  0  0  0  0  0
  -30.5680  -19.0440   12.5260 C   0  0  0  0  0  0  0  0  0  0  0  0
  -31.0290  -18.1780   11.6300 N   0  0  0  0  0  0  0  0  0  0  0  0
  -29.3840  -19.0450   12.8570 O   0  0  0  0  0  0  0  0  0  0  0  0
  -32.0060  -18.1620   11.3730 H   0  0  0  0  0  0  0  0  0  0  0  0
  -30.3970  -17.5190   11.1980 H   0  0  0  0  0  0  0  0  0  0  0  0
  -30.5980  -20.3430   15.4720 N   0  0  0  0  0  0  0  0  0  0  0  0
  -29.7910  -19.7320   15.4070 H   0  0  0  0  0  0  0  0  0  0  0  0
  -30.6640  -20.8260   16.3590 H   0  0  0  0  0  0  0  0  0  0  0  0
  1  2  1  0
  2  6  2  0
  3  5  2  0
  4  3  1  0
  4  1  2  0
  5  6  1  0
  5  7  1  0
  6 55  1  0
  8  4  1  0
  8  9  1  0
  9 11  1  0
  9 12  1  0
 10  8  2  0
 12 13  1  0
 13 14  1  0
 15 26  2  0
 16 14  1  0
 16 21  1  0
 17 25  1  0
 17 27  1  0
 18 20  1  0
 19 25  1  0
 20 21  2  0
 20 19  1  0
 22 16  2  0
 23 22  1  0
 23 18  2  0
 24 18  1  0
 24 17  1  0
 25 15  1  0
 27 29  2  0
 28 27  1  0
 30 28  1  0
 31 40  2  0
 31 36  1  0
 32 28  1  0
 32 36  1  0
 33 32  1  0
 34 35  1  0
 34 33  1  0
 35 31  1  0
 36 37  2  0
 37 38  1  0
 39 38  2  0
 40 39  1  0
 41 15  1  0
 41 42  1  0
 41 51  1  0
 42 45  1  0
 43 47  1  0
 43 42  1  0
 44 43  2  0
 47 46  1  0
 49 50  1  0
 49 47  1  0
 49 48  1  0
 51 54  1  1
 51 52  1  0
 53 51  1  0
 55 56  1  0
 55 57  1  0
 58 57  1  0
 58 59  1  0
 59 62  1  0
 59 60  2  0
 60 61  1  0
 63 62  1  0
 63 64  1  0
 65 64  1  0
 66 74  1  0
 66 73  2  0
 67 72  1  0
 68 67  1  0
 69 70  1  0
 69 68  1  0
 70 79  1  0
 70 71  1  0
 71 72  1  0
 72 66  1  0
 74 65  1  0
 75 74  1  0
 76 79  1  0
 76101  1  0
 77 76  2  0
 78 77  1  0
 78 80  2  0
 80 79  1  0
 81 78  1  0
 82 81  1  0
 83 82  2  0
 84 85  2  0
 84 83  1  0
 85 86  1  0
 86 81  2  0
 87 84  1  0
 88 89  1  0
 88 87  1  0
 90 89  2  0
 91 90  1  0
 92 91  2  0
 92 93  1  0
 93 88  2  0
 94 93  1  0
 95 91  1  0
 96 98  2  0
 96 77  1  0
 97 96  1  0
 99 97  1  0
100 97  1  0
101103  1  0
102101  1  0
M  ISO  4  13 101  14 101  66 100  74 100
M  END
>  <TORSDO>  (72) 
F 27

>  <SCORE>  (72) 
-6.254

>  <name>  (72) 
74

>  <ligand_id>  (72) 
74

>  <original_smiles>  (72) 
[H]N=C(C([H])([H])C([H])([H])N([H])c1c([H])c([H])c(C(=O)N([H])C([H])([H])C([H])([H])Oc2c([H])c([H])c3c(c2[H])C([H])([H])N(C(=O)C([H])(N([H])C(=O)C([H])(N([H])C([H])([H])[H])C([H])([H])[H])C(C([H])([H])[H])(C([H])([H])[H])C([H])([H])[H])C([H])(C(=O)N([H])C2([H])c4c([H])c([H])c([H])c([H])c4C([H])([H])C([H])([H])C2([H])[H])C3([H])[H])c([H])c1C([H])([H])[H])C([H])([H])C([H])([H])C([H])([H])C([H])([H])N([H])C(=O)N1C([H])([H])C([H])([H])C([H])([H])C([H])(n2nc(-c3c([H])c([H])c(Oc4c([H])c([H])c(F)c([H])c4F)c([H])c3[H])c(C(=O)N([H])[H])c2N([H])[H])C1([H])[H]

>  <smiles>  (72) 
[H]N=C(C([H])([H])C([H])([H])N([H])c1c([H])c([H])c(C(=O)N([H])C([H])([H])C([H])([H])Oc2c([H])c([H])c3c(c2[H])C([H])([H])N(C(=O)C([H])(N([H])C(=O)C([H])(N([H])C([H])([H])[H])C([H])([H])[H])C(C([H])([H])[H])(C([H])([H])[H])C([H])([H])[H])C([H])(C(=O)N([H])C2([H])c4c([H])c([H])c([H])c([H])c4C([H])([H])C([H])([H])C2([H])[H])C3([H])[H])c([H])c1C([H])([H])[H])C([H])([H])C([H])([H])C([H])([H])C([H])([H])N([H])C(=O)N1C([H])([H])C([H])([H])C([H])([H])C([H])(n2nc(-c3c([H])c([H])c(Oc4c([H])c([H])c(F)c([H])c4F)c([H])c3[H])c(C(=O)N([H])[H])c2N([H])[H])C1([H])[H]

$$$$
75:0:0
     RDKit          3D

 98106  0  0  1  0  0  0  0  0999 V2000
  -27.4140  -21.6280   20.7040 C   0  0  0  0  0  3  0  0  0  0  0  0
  -27.3690  -22.9780   21.1200 C   0  0  0  0  0  3  0  0  0  0  0  0
  -29.8260  -21.6470   20.8950 C   0  0  0  0  0  3  0  0  0  0  0  0
  -28.6440  -20.9320   20.5830 C   0  0  0  0  0  0  0  0  0  0  0  0
  -28.5500  -23.6840   21.4400 C   0  0  0  0  0  0  0  0  0  0  0  0
  -29.7850  -22.9970   21.3250 C   0  0  0  0  0  0  0  0  0  0  0  0
  -30.9500  -23.6230   21.6570 O   0  0  0  0  0  0  0  0  0  0  0  0
  -31.7170  -23.0690   21.5530 H   0  0  0  0  0  0  0  0  0  0  0  0
  -28.4540  -25.1070   22.0270 C   0  0  0  0  0  2  0  0  0  0  0  0
  -29.0620  -26.2920   21.2240 C   0  0  0  0  0  2  0  0  0  0  0  0
  -28.3630  -26.6310   20.0220 O   0  0  0  0  0  0  0  0  0  0  0  0
  -24.6140  -31.8690   23.2100 C   0  0  0  0  0  0  0  0  0  0  0  0
  -27.2370  -27.4220   20.1160 C   0  0  0  0  0  0  0  0  0  0  0  0
  -23.4040  -30.4910   21.5500 C   0  0  0  0  0  3  0  0  0  0  0  0
  -24.8560  -28.9520   20.1210 C   0  0  0  0  0  0  0  0  0  0  0  0
  -25.9350  -30.8260   21.3710 C   0  0  0  0  0  2  0  0  0  0  0  0
  -26.0130  -29.4570   20.7290 C   0  0  0  0  0  0  0  0  0  0  0  0
  -27.2080  -28.6970   20.7330 C   0  0  0  0  0  3  0  0  0  0  0  0
  -26.0680  -26.9400   19.4950 C   0  0  0  0  0  3  0  0  0  0  0  0
  -24.8770  -27.6890   19.5040 C   0  0  0  0  0  3  0  0  0  0  0  0
  -23.6170  -29.8210   20.1660 C   0  0  0  0  0  2  0  0  0  0  0  0
  -24.6690  -31.0770   22.1020 N   0  0  0  0  0  0  0  0  0  0  0  0
  -23.5330  -32.1470   23.7470 O   0  0  0  0  0  0  0  0  0  0  0  0
  -22.7410  -29.4650   22.4980 C   0  0  0  0  0  0  0  0  0  0  0  0
  -21.4130  -29.3030   22.3710 N   0  0  0  0  0  0  0  0  0  0  0  0
  -23.4180  -28.8200   23.3030 O   0  0  0  0  0  0  0  0  0  0  0  0
  -20.9280  -29.8730   21.6930 H   0  0  0  0  0  0  0  0  0  0  0  0
  -18.0270  -28.1370   22.8480 C   0  0  0  0  0  0  0  0  0  0  0  0
  -20.5860  -28.3660   23.1310 C   0  0  0  0  0  3  0  0  0  0  0  0
  -20.6770  -26.9400   22.5420 C   0  0  0  0  0  2  0  0  0  0  0  0
  -19.5760  -26.6370   21.5220 C   0  0  0  0  0  2  0  0  0  0  0  0
  -18.1930  -26.7930   22.1610 C   0  0  0  0  0  2  0  0  0  0  0  0
  -19.1520  -28.8830   23.2900 C   0  0  0  0  0  0  0  0  0  0  0  0
  -18.9460  -30.1420   23.8920 C   0  0  0  0  0  3  0  0  0  0  0  0
  -17.6460  -30.6570   24.0560 C   0  0  0  0  0  3  0  0  0  0  0  0
  -16.5350  -29.9080   23.6320 C   0  0  0  0  0  3  0  0  0  0  0  0
  -16.7260  -28.6490   23.0350 C   0  0  0  0  0  3  0  0  0  0  0  0
  -25.9040  -32.4830   23.8400 C   0  0  0  0  0  3  0  0  0  0  0  0
  -26.4470  -31.6600   25.0720 C   0  0  1  0  0  0  0  0  0  0  0  0
  -25.3740  -31.3760   26.1480 C   0  0  0  0  0  1  0  0  0  0  0  0
  -27.0260  -30.3020   24.6110 C   0  0  0  0  0  1  0  0  0  0  0  0
  -27.6060  -32.4310   25.7470 C   0  0  0  0  0  1  0  0  0  0  0  0
  -25.5890  -33.8630   24.2330 N   0  0  0  0  0  0  0  0  0  0  0  0
  -25.9030  -34.9480   23.5130 C   0  0  0  0  0  0  0  0  0  0  0  0
  -26.5580  -34.8920   22.4690 O   0  0  0  0  0  0  0  0  0  0  0  0
  -25.0060  -33.9810   25.0490 H   0  0  0  0  0  0  0  0  0  0  0  0
  -24.1490  -36.7310   23.2640 C   0  0  0  0  0  1  0  0  0  0  0  0
  -25.4100  -36.3110   24.0350 C   0  0  0  0  0  3  0  0  0  0  0  0
  -27.5600  -37.1780   24.8450 C   0  0  0  0  0  1  0  0  0  0  0  0
  -26.4290  -37.3790   23.9420 N   0  0  0  0  0  0  0  0  0  0  0  0
  -26.0190  -38.2860   24.1460 H   0  0  0  0  0  0  0  0  0  0  0  0
  -28.7280  -19.4710   20.0670 C   0  0  0  0  0  3  0  0  0  0  0  0
  -29.1240  -18.4770   21.0930 N   0  0  0  0  0  4  0  0  0  0  0  0
  -28.9400  -18.8250   22.0180 H   0  0  0  0  0  0  0  0  0  0  0  0
  -28.4750  -17.7270   20.8900 H   0  0  0  0  0  0  0  0  0  0  0  0
  -30.4850  -17.8940   20.9620 C   0  0  0  0  0  2  0  0  0  0  0  0
  -30.7280  -16.6500   21.8620 C   0  0  0  0  0  2  0  0  0  0  0  0
  -30.7200  -14.4570   20.6300 C   0  0  0  0  0  0  0  0  0  0  0  0
  -30.4210  -12.3220   19.4160 C   0  0  0  0  0  2  0  0  0  0  0  0
  -29.4910  -12.5200   18.2020 C   0  0  0  0  0  2  0  0  0  0  0  0
  -28.0140  -12.3710   18.6180 C   0  0  0  0  0  2  0  0  0  0  0  0
  -27.6600  -13.2110   19.8740 C   0  0  0  0  0  3  0  0  0  0  0  0
  -28.6990  -12.9860   20.9950 C   0  0  0  0  0  2  0  0  0  0  0  0
  -30.0320  -13.2970   20.4490 N   0  0  0  0  0  0  0  0  0  0  0  0
  -31.8100  -14.6790   20.0980 O   0  0  0  0  0  0  0  0  0  0  0  0
  -30.1170  -15.3910   21.3920 N   0  0  0  0  0  0  0  0  0  0  0  0
  -29.2210  -15.1330   21.7780 H   0  0  0  0  0  0  0  0  0  0  0  0
  -25.2580  -13.8190   20.5670 C   0  0  0  0  0  0  0  0  0  0  0  0
  -24.1840  -13.0460   20.9180 C   0  0  0  0  0  0  0  0  0  0  0  0
  -24.6390  -11.6920   20.8730 C   0  0  0  0  0  0  0  0  0  0  0  0
  -26.3020  -12.9350   20.3350 N   0  0  0  0  0  0  0  0  0  0  0  0
  -25.9320  -11.6510   20.5750 N   0  0  0  0  0  0  0  0  0  0  0  0
  -23.9060  -10.4300   21.0400 C   0  0  0  0  0  0  0  0  0  0  0  0
  -24.3610   -9.4210   21.9180 C   0  0  0  0  0  3  0  0  0  0  0  0
  -23.6290   -8.2250   22.0760 C   0  0  0  0  0  3  0  0  0  0  0  0
  -22.4270   -8.0280   21.3550 C   0  0  0  0  0  0  0  0  0  0  0  0
  -21.9900   -9.0250   20.4650 C   0  0  0  0  0  3  0  0  0  0  0  0
  -22.7230  -10.2130   20.3060 C   0  0  0  0  0  3  0  0  0  0  0  0
  -21.6640   -6.8870   21.4240 O   0  0  0  0  0  0  0  0  0  0  0  0
  -21.6860   -6.0730   22.5280 C   0  0  0  0  0  0  0  0  0  0  0  0
  -21.4010   -6.5640   23.8210 C   0  0  0  0  0  3  0  0  0  0  0  0
  -21.3660   -5.6790   24.9170 C   0  0  0  0  0  3  0  0  0  0  0  0
  -21.6050   -4.3060   24.7230 C   0  0  0  0  0  0  0  0  0  0  0  0
  -21.8820   -3.8140   23.4350 C   0  0  0  0  0  3  0  0  0  0  0  0
  -21.9190   -4.6960   22.3400 C   0  0  0  0  0  0  0  0  0  0  0  0
  -22.1660   -4.2150   21.0980 F   0  0  0  0  0  0  0  0  0  0  0  0
  -21.5630   -3.4540   25.7740 F   0  0  0  0  0  0  0  0  0  0  0  0
  -22.7870  -13.5250   21.1840 C   0  0  0  0  0  0  0  0  0  0  0  0
  -22.0510  -12.8240   22.0400 N   0  0  0  0  0  0  0  0  0  0  0  0
  -22.3550  -14.5560   20.6700 O   0  0  0  0  0  0  0  0  0  0  0  0
  -22.4110  -11.9890   22.4790 H   0  0  0  0  0  0  0  0  0  0  0  0
  -21.1130  -13.1270   22.2620 H   0  0  0  0  0  0  0  0  0  0  0  0
  -25.4290  -15.1910   20.4050 N   0  0  0  0  0  0  0  0  0  0  0  0
  -24.6520  -15.8360   20.4950 H   0  0  0  0  0  0  0  0  0  0  0  0
  -26.2580  -15.6350   20.0210 H   0  0  0  0  0  0  0  0  0  0  0  0
  -27.4190  -18.9260   19.4490 C   0  0  0  0  0  2  0  0  0  0  0  0
  -27.5620  -17.5450   19.1250 O   0  0  0  0  0  0  0  0  0  0  0  0
  -27.8930  -17.4860   18.2310 H   0  0  0  0  0  0  0  0  0  0  0  0
  1  2  1  0
  2  5  2  0
  3  6  2  0
  4  1  2  0
  4  3  1  0
  5  9  1  0
  6  5  1  0
  6  7  1  0
  8  7  1  0
 10  9  1  0
 11 13  1  0
 11 10  1  0
 12 23  2  0
 13 18  1  0
 14 22  1  0
 14 24  1  0
 15 21  1  0
 15 17  1  0
 16 22  1  0
 17 18  2  0
 17 16  1  0
 19 20  1  0
 19 13  2  0
 20 15  2  0
 21 14  1  0
 22 12  1  0
 24 26  2  0
 25 24  1  0
 27 25  1  0
 28 37  2  0
 28 33  1  0
 29 25  1  0
 29 33  1  0
 30 29  1  0
 31 32  1  0
 31 30  1  0
 32 28  1  0
 33 34  2  0
 34 35  1  0
 36 35  2  0
 37 36  1  0
 38 12  1  0
 38 43  1  0
 38 39  1  0
 39 42  1  1
 39 40  1  0
 41 39  1  0
 43 46  1  0
 44 48  1  0
 44 43  1  0
 45 44  2  0
 48 47  1  0
 50 48  1  0
 50 51  1  0
 50 49  1  0
 52 96  1  0
 52  4  1  0
 52 53  1  0
 53 54  1  0
 55 53  1  0
 56 53  1  0
 56 57  1  0
 58 66  1  0
 59 64  1  0
 60 61  1  0
 60 59  1  0
 62 61  1  0
 62 71  1  0
 62 63  1  0
 64 58  1  0
 64 63  1  0
 65 58  2  0
 66 67  1  0
 66 57  1  0
 68 69  2  0
 69 88  1  0
 70 69  1  0
 70 73  1  0
 71 68  1  0
 71 72  1  0
 72 70  2  0
 73 74  1  0
 74 75  2  0
 76 79  1  0
 76 75  1  0
 77 76  2  0
 78 77  1  0
 78 73  2  0
 79 80  1  0
 80 81  1  0
 81 82  2  0
 83 82  1  0
 83 87  1  0
 84 83  2  0
 85 80  2  0
 85 84  1  0
 86 85  1  0
 88 89  1  0
 89 92  1  0
 89 91  1  0
 90 88  2  0
 93 94  1  0
 93 68  1  0
 95 93  1  0
 97 96  1  0
 98 97  1  0
M  ISO  4  10 101  11 101  58 100  66 100
M  END
>  <TORSDO>  (73) 
F 25

>  <SCORE>  (73) 
-12.975

>  <name>  (73) 
75

>  <ligand_id>  (73) 
75

>  <original_smiles>  (73) 
[H]Oc1c([H])c(C([H])(C([H])([H])O[H])[N+]([H])([H])C([H])([H])C([H])([H])N([H])C(=O)N2C([H])([H])C([H])([H])C([H])([H])C([H])(n3nc(-c4c([H])c([H])c(Oc5c([H])c([H])c(F)c([H])c5F)c([H])c4[H])c(C(=O)N([H])[H])c3N([H])[H])C2([H])[H])c([H])c([H])c1C([H])([H])C([H])([H])Oc1c([H])c([H])c2c(c1[H])C([H])([H])N(C(=O)C([H])(N([H])C(=O)C([H])(N([H])C([H])([H])[H])C([H])([H])[H])C(C([H])([H])[H])(C([H])([H])[H])C([H])([H])[H])C([H])(C(=O)N([H])C1([H])c3c([H])c([H])c([H])c([H])c3C([H])([H])C([H])([H])C1([H])[H])C2([H])[H]

>  <smiles>  (73) 
[H]Oc1c([H])c(C([H])(C([H])([H])O[H])[N+]([H])([H])C([H])([H])C([H])([H])N([H])C(=O)N2C([H])([H])C([H])([H])C([H])([H])C([H])(n3nc(-c4c([H])c([H])c(Oc5c([H])c([H])c(F)c([H])c5F)c([H])c4[H])c(C(=O)N([H])[H])c3N([H])[H])C2([H])[H])c([H])c([H])c1C([H])([H])C([H])([H])Oc1c([H])c([H])c2c(c1[H])C([H])([H])N(C(=O)C([H])(N([H])C(=O)C([H])(N([H])C([H])([H])[H])C([H])([H])[H])C(C([H])([H])[H])(C([H])([H])[H])C([H])([H])[H])C([H])(C(=O)N([H])C1([H])c3c([H])c([H])c([H])c([H])c3C([H])([H])C([H])([H])C1([H])[H])C2([H])[H]

$$$$
76:0:0
     RDKit          3D

100108  0  0  1  0  0  0  0  0999 V2000
  -29.5500  -21.3350   21.9900 C   0  0  0  0  0  3  0  0  0  0  0  0
  -29.5680  -22.7390   21.8910 C   0  0  0  0  0  3  0  0  0  0  0  0
  -30.5120  -21.1640   19.7700 C   0  0  0  0  0  3  0  0  0  0  0  0
  -30.0270  -20.5240   20.9370 C   0  0  0  0  0  0  0  0  0  0  0  0
  -30.5400  -22.5810   19.6570 C   0  0  0  0  0  0  0  0  0  0  0  0
  -30.0470  -23.3850   20.7280 C   0  0  0  0  0  0  0  0  0  0  0  0
  -29.9210  -19.0300   21.0720 C   0  0  0  0  0  0  0  0  0  0  0  0
  -29.0730  -18.4990   21.7950 O   0  0  0  0  0  0  0  0  0  0  0  0
  -30.9290  -18.1330   20.3200 C   0  0  0  0  0  2  0  0  0  0  0  0
  -31.4840  -16.9290   21.1470 C   0  0  0  0  0  2  0  0  0  0  0  0
  -31.3850  -14.6470   20.0940 C   0  0  0  0  0  0  0  0  0  0  0  0
  -30.9520  -12.5070   18.9370 C   0  0  0  0  0  2  0  0  0  0  0  0
  -29.9800  -12.7260   17.7610 C   0  0  0  0  0  2  0  0  0  0  0  0
  -28.5170  -12.6320   18.2340 C   0  0  0  0  0  2  0  0  0  0  0  0
  -28.2430  -13.4970   19.4930 C   0  0  0  0  0  3  0  0  0  0  0  0
  -29.3240  -13.2630   20.5740 C   0  0  0  0  0  2  0  0  0  0  0  0
  -30.6440  -13.5130   19.9690 N   0  0  0  0  0  0  0  0  0  0  0  0
  -32.4550  -14.8170   19.5050 O   0  0  0  0  0  0  0  0  0  0  0  0
  -30.8570  -15.6230   20.8540 N   0  0  0  0  0  0  0  0  0  0  0  0
  -29.9820  -15.4110   21.3090 H   0  0  0  0  0  0  0  0  0  0  0  0
  -25.8930  -14.1860   20.2860 C   0  0  0  0  0  0  0  0  0  0  0  0
  -24.8080  -13.4500   20.6770 C   0  0  0  0  0  0  0  0  0  0  0  0
  -25.2120  -12.0810   20.6110 C   0  0  0  0  0  0  0  0  0  0  0  0
  -26.8950  -13.2680   20.0110 N   0  0  0  0  0  0  0  0  0  0  0  0
  -26.4890  -11.9950   20.2630 N   0  0  0  0  0  0  0  0  0  0  0  0
  -24.4410  -10.8460   20.8060 C   0  0  0  0  0  0  0  0  0  0  0  0
  -24.8220   -9.8810   21.7640 C   0  0  0  0  0  3  0  0  0  0  0  0
  -24.0520   -8.7120   21.9470 C   0  0  0  0  0  3  0  0  0  0  0  0
  -22.8880   -8.4990   21.1720 C   0  0  0  0  0  0  0  0  0  0  0  0
  -22.5250   -9.4540   20.2040 C   0  0  0  0  0  3  0  0  0  0  0  0
  -23.2950  -10.6140   20.0190 C   0  0  0  0  0  3  0  0  0  0  0  0
  -22.0940   -7.3810   21.2610 O   0  0  0  0  0  0  0  0  0  0  0  0
  -21.9360   -6.7040   22.4430 C   0  0  0  0  0  0  0  0  0  0  0  0
  -21.4240   -7.3350   23.5990 C   0  0  0  0  0  3  0  0  0  0  0  0
  -21.2110   -6.5850   24.7740 C   0  0  0  0  0  3  0  0  0  0  0  0
  -21.4990   -5.2070   24.7930 C   0  0  0  0  0  0  0  0  0  0  0  0
  -22.0070   -4.5780   23.6430 C   0  0  0  0  0  3  0  0  0  0  0  0
  -22.2210   -5.3230   22.4700 C   0  0  0  0  0  0  0  0  0  0  0  0
  -22.6870   -4.7070   21.3570 F   0  0  0  0  0  0  0  0  0  0  0  0
  -21.2880   -4.4860   25.9190 F   0  0  0  0  0  0  0  0  0  0  0  0
  -23.4410  -13.9780   21.0030 C   0  0  0  0  0  0  0  0  0  0  0  0
  -22.7220  -13.3050   21.8950 N   0  0  0  0  0  0  0  0  0  0  0  0
  -23.0190  -15.0200   20.5020 O   0  0  0  0  0  0  0  0  0  0  0  0
  -23.0770  -12.4610   22.3200 H   0  0  0  0  0  0  0  0  0  0  0  0
  -21.8070  -13.6400   22.1590 H   0  0  0  0  0  0  0  0  0  0  0  0
  -26.1040  -15.5520   20.1250 N   0  0  0  0  0  0  0  0  0  0  0  0
  -25.3610  -16.2300   20.2620 H   0  0  0  0  0  0  0  0  0  0  0  0
  -26.9680  -15.9730   19.8100 H   0  0  0  0  0  0  0  0  0  0  0  0
  -31.0180  -23.1540   18.3690 C   0  0  0  0  0  0  0  0  0  0  0  0
  -30.4380  -22.9610   17.2970 O   0  0  0  0  0  0  0  0  0  0  0  0
  -32.3280  -23.9490   18.3970 C   0  0  0  0  0  2  0  0  0  0  0  0
  -32.2610  -25.2520   17.5710 C   0  0  0  0  0  2  0  0  0  0  0  0
  -33.5690  -26.0670   17.6040 C   0  0  0  0  0  2  0  0  0  0  0  0
  -33.7860  -26.7610   18.8890 N   0  0  0  0  0  4  0  0  0  0  0  0
  -33.0480  -27.4160   19.0720 H   0  0  0  0  0  0  0  0  0  0  0  0
  -34.6480  -27.2780   18.8490 H   0  0  0  0  0  0  0  0  0  0  0  0
  -33.8570  -26.1150   19.6540 H   0  0  0  0  0  0  0  0  0  0  0  0
  -29.9890  -24.9210   20.7090 C   0  0  0  0  0  2  0  0  0  0  0  0
  -28.6940  -25.5070   20.1090 C   0  0  0  0  0  2  0  0  0  0  0  0
  -28.7060  -26.9330   20.2610 O   0  0  0  0  0  0  0  0  0  0  0  0
  -24.6900  -31.9650   23.2860 C   0  0  0  0  0  0  0  0  0  0  0  0
  -27.4960  -27.6000   20.2360 C   0  0  0  0  0  0  0  0  0  0  0  0
  -23.5450  -30.5440   21.6190 C   0  0  0  0  0  3  0  0  0  0  0  0
  -25.0550  -29.0380   20.2200 C   0  0  0  0  0  0  0  0  0  0  0  0
  -26.0660  -30.9570   21.4700 C   0  0  0  0  0  2  0  0  0  0  0  0
  -26.1910  -29.5910   20.8270 C   0  0  0  0  0  0  0  0  0  0  0  0
  -27.4120  -28.8800   20.8270 C   0  0  0  0  0  3  0  0  0  0  0  0
  -26.3410  -27.0550   19.6310 C   0  0  0  0  0  3  0  0  0  0  0  0
  -25.1240  -27.7670   19.6240 C   0  0  0  0  0  3  0  0  0  0  0  0
  -23.7880  -29.8660   20.2440 C   0  0  0  0  0  2  0  0  0  0  0  0
  -24.7830  -31.1720   22.1820 N   0  0  0  0  0  0  0  0  0  0  0  0
  -23.5920  -32.2170   23.8030 O   0  0  0  0  0  0  0  0  0  0  0  0
  -22.8960  -29.5090   22.5650 C   0  0  0  0  0  0  0  0  0  0  0  0
  -21.5850  -29.2760   22.3850 N   0  0  0  0  0  0  0  0  0  0  0  0
  -23.5700  -28.9140   23.4090 O   0  0  0  0  0  0  0  0  0  0  0  0
  -21.1020  -29.8080   21.6740 H   0  0  0  0  0  0  0  0  0  0  0  0
  -18.2420  -27.9580   22.7560 C   0  0  0  0  0  0  0  0  0  0  0  0
  -20.7730  -28.3150   23.1320 C   0  0  0  0  0  3  0  0  0  0  0  0
  -20.9540  -26.8840   22.5750 C   0  0  0  0  0  2  0  0  0  0  0  0
  -19.9090  -26.5110   21.5190 C   0  0  0  0  0  2  0  0  0  0  0  0
  -18.4970  -26.6100   22.1030 C   0  0  0  0  0  2  0  0  0  0  0  0
  -19.3110  -28.7650   23.2240 C   0  0  0  0  0  0  0  0  0  0  0  0
  -19.0230  -30.0260   23.7900 C   0  0  0  0  0  3  0  0  0  0  0  0
  -17.6950  -30.4800   23.8940 C   0  0  0  0  0  3  0  0  0  0  0  0
  -16.6370  -29.6690   23.4470 C   0  0  0  0  0  3  0  0  0  0  0  0
  -16.9120  -28.4110   22.8840 C   0  0  0  0  0  3  0  0  0  0  0  0
  -25.9500  -32.6180   23.9360 C   0  0  0  0  0  3  0  0  0  0  0  0
  -26.4460  -31.8660   25.2310 C   0  0  1  0  0  0  0  0  0  0  0  0
  -25.3240  -31.5990   26.2630 C   0  0  0  0  0  1  0  0  0  0  0  0
  -27.0840  -30.5030   24.8660 C   0  0  0  0  0  1  0  0  0  0  0  0
  -27.5540  -32.6960   25.9250 C   0  0  0  0  0  1  0  0  0  0  0  0
  -25.6160  -34.0160   24.2430 N   0  0  0  0  0  0  0  0  0  0  0  0
  -25.9690  -35.0630   23.4850 C   0  0  0  0  0  0  0  0  0  0  0  0
  -26.6810  -34.9540   22.4820 O   0  0  0  0  0  0  0  0  0  0  0  0
  -24.9810  -34.1740   25.0120 H   0  0  0  0  0  0  0  0  0  0  0  0
  -24.2440  -36.8380   23.0370 C   0  0  0  0  0  1  0  0  0  0  0  0
  -25.4500  -36.4510   23.9080 C   0  0  0  0  0  3  0  0  0  0  0  0
  -27.5380  -37.3600   24.8260 C   0  0  0  0  0  1  0  0  0  0  0  0
  -26.4770  -37.5120   23.8330 N   0  0  0  0  0  0  0  0  0  0  0  0
  -26.0580  -38.4290   23.9540 H   0  0  0  0  0  0  0  0  0  0  0  0
  2  1  1  0
  3  4  1  0
  4  7  1  0
  4  1  2  0
  5  3  2  0
  5  6  1  0
  6  2  2  0
  7  8  2  0
  9  7  1  0
  9 10  1  0
 11 19  1  0
 12 17  1  0
 13 14  1  0
 13 12  1  0
 15 14  1  0
 15 24  1  0
 15 16  1  0
 17 11  1  0
 17 16  1  0
 18 11  2  0
 19 10  1  0
 19 20  1  0
 21 22  2  0
 22 41  1  0
 23 22  1  0
 23 26  1  0
 24 25  1  0
 24 21  1  0
 25 23  2  0
 26 27  1  0
 27 28  2  0
 29 32  1  0
 29 28  1  0
 30 29  2  0
 31 30  1  0
 31 26  2  0
 32 33  1  0
 33 38  2  0
 33 34  1  0
 34 35  2  0
 35 36  1  0
 36 40  1  0
 37 36  2  0
 38 37  1  0
 39 38  1  0
 41 42  1  0
 42 45  1  0
 42 44  1  0
 43 41  2  0
 46 47  1  0
 46 21  1  0
 48 46  1  0
 49 51  1  0
 49  5  1  0
 50 49  2  0
 52 53  1  0
 52 51  1  0
 53 54  1  0
 54 55  1  0
 54 57  1  0
 56 54  1  0
 58  6  1  0
 59 60  1  0
 59 58  1  0
 61 72  2  0
 62 60  1  0
 62 67  1  0
 63 71  1  0
 63 73  1  0
 64 70  1  0
 64 66  1  0
 65 71  1  0
 66 67  2  0
 66 65  1  0
 68 62  2  0
 69 68  1  0
 69 64  2  0
 70 63  1  0
 71 61  1  0
 73 75  2  0
 74 73  1  0
 76 74  1  0
 77 86  2  0
 77 82  1  0
 78 74  1  0
 78 82  1  0
 79 78  1  0
 80 81  1  0
 80 79  1  0
 81 77  1  0
 82 83  2  0
 83 84  1  0
 85 84  2  0
 86 85  1  0
 87 61  1  0
 87 92  1  0
 87 88  1  0
 88 91  1  1
 88 89  1  0
 90 88  1  0
 92 95  1  0
 93 97  1  0
 93 92  1  0
 94 93  2  0
 97 96  1  0
 99 97  1  0
 99100  1  0
 99 98  1  0
M  ISO  4  11 100  19 100  59 101  60 101
M  END
>  <TORSDO>  (74) 
F 26

>  <SCORE>  (74) 
-10.945

>  <name>  (74) 
76

>  <ligand_id>  (74) 
76

>  <original_smiles>  (74) 
[H]c1c([H])c([H])c2c(c1[H])C([H])([H])C([H])([H])C([H])([H])C2([H])N([H])C(=O)C1([H])N(C(=O)C([H])(N([H])C(=O)C([H])(N([H])C([H])([H])[H])C([H])([H])[H])C(C([H])([H])[H])(C([H])([H])[H])C([H])([H])[H])C([H])([H])c2c([H])c(OC([H])([H])C([H])([H])c3c([H])c([H])c(C(=O)C([H])([H])C([H])([H])N([H])C(=O)N4C([H])([H])C([H])([H])C([H])([H])C([H])(n5nc(-c6c([H])c([H])c(Oc7c([H])c([H])c(F)c([H])c7F)c([H])c6[H])c(C(=O)N([H])[H])c5N([H])[H])C4([H])[H])c([H])c3C(=O)C([H])([H])C([H])([H])C([H])([H])[N+]([H])([H])[H])c([H])c([H])c2C1([H])[H]

>  <smiles>  (74) 
[H]c1c([H])c([H])c2c(c1[H])C([H])([H])C([H])([H])C([H])([H])C2([H])N([H])C(=O)C1([H])N(C(=O)C([H])(N([H])C(=O)C([H])(N([H])C([H])([H])[H])C([H])([H])[H])C(C([H])([H])[H])(C([H])([H])[H])C([H])([H])[H])C([H])([H])c2c([H])c(OC([H])([H])C([H])([H])c3c([H])c([H])c(C(=O)C([H])([H])C([H])([H])N([H])C(=O)N4C([H])([H])C([H])([H])C([H])([H])C([H])(n5nc(-c6c([H])c([H])c(Oc7c([H])c([H])c(F)c([H])c7F)c([H])c6[H])c(C(=O)N([H])[H])c5N([H])[H])C4([H])[H])c([H])c3C(=O)C([H])([H])C([H])([H])C([H])([H])[N+]([H])([H])[H])c([H])c([H])c2C1([H])[H]

$$$$
78:0:0
     RDKit          3D

 97105  0  0  1  0  0  0  0  0999 V2000
  -29.2970  -22.9210   22.0110 C   0  0  0  0  0  0  0  0  0  0  0  0
  -28.1550  -23.4000   22.0320 O   0  0  0  0  0  0  0  0  0  0  0  0
  -30.3530  -20.8490   22.9000 C   0  0  0  0  0  3  0  0  0  0  0  0
  -30.6660  -19.4810   22.8220 C   0  0  0  0  0  3  0  0  0  0  0  0
  -29.4080  -19.3170   20.7400 C   0  0  0  0  0  3  0  0  0  0  0  0
  -29.5810  -21.4690   21.8900 C   0  0  0  0  0  0  0  0  0  0  0  0
  -30.2050  -18.7170   21.7360 C   0  0  0  0  0  0  0  0  0  0  0  0
  -29.0820  -20.6870   20.8110 C   0  0  0  0  0  0  0  0  0  0  0  0
  -28.2340  -21.2850   19.6940 C   0  0  0  0  0  1  0  0  0  0  0  0
  -30.5940  -17.2590   21.6190 C   0  0  0  0  0  2  0  0  0  0  0  0
  -31.8110  -17.0870   20.6960 C   0  0  0  0  0  2  0  0  0  0  0  0
  -32.3680  -15.6580   20.6900 C   0  0  0  0  0  2  0  0  0  0  0  0
  -31.2340  -14.0350   19.1860 C   0  0  0  0  0  0  0  0  0  0  0  0
  -30.6540  -11.7920   18.3620 C   0  0  0  0  0  2  0  0  0  0  0  0
  -29.5520  -11.7640   17.2940 C   0  0  0  0  0  2  0  0  0  0  0  0
  -28.1660  -11.7130   17.9570 C   0  0  0  0  0  2  0  0  0  0  0  0
  -27.9860  -12.8170   19.0300 C   0  0  0  0  0  3  0  0  0  0  0  0
  -29.1800  -12.8470   20.0120 C   0  0  0  0  0  2  0  0  0  0  0  0
  -30.4390  -12.9420   19.2470 N   0  0  0  0  0  0  0  0  0  0  0  0
  -31.9830  -14.2910   18.2380 O   0  0  0  0  0  0  0  0  0  0  0  0
  -31.3420  -14.6740   20.3550 N   0  0  0  0  0  0  0  0  0  0  0  0
  -30.7630  -14.3290   21.1070 H   0  0  0  0  0  0  0  0  0  0  0  0
  -25.8150  -13.6380   20.1500 C   0  0  0  0  0  0  0  0  0  0  0  0
  -24.7520  -12.9620   20.6870 C   0  0  0  0  0  0  0  0  0  0  0  0
  -25.0590  -11.5730   20.5560 C   0  0  0  0  0  0  0  0  0  0  0  0
  -26.7120  -12.6650   19.7320 N   0  0  0  0  0  0  0  0  0  0  0  0
  -26.2660  -11.4170   20.0290 N   0  0  0  0  0  0  0  0  0  0  0  0
  -24.2500  -10.3830   20.8510 C   0  0  0  0  0  0  0  0  0  0  0  0
  -24.6760   -9.4130   21.7840 C   0  0  0  0  0  3  0  0  0  0  0  0
  -23.8730   -8.2860   22.0630 C   0  0  0  0  0  3  0  0  0  0  0  0
  -22.6290   -8.1220   21.4100 C   0  0  0  0  0  0  0  0  0  0  0  0
  -22.2190   -9.0800   20.4650 C   0  0  0  0  0  3  0  0  0  0  0  0
  -23.0220  -10.1980   20.1840 C   0  0  0  0  0  3  0  0  0  0  0  0
  -21.7930   -7.0480   21.6000 O   0  0  0  0  0  0  0  0  0  0  0  0
  -21.7130   -6.4020   22.8070 C   0  0  0  0  0  0  0  0  0  0  0  0
  -21.3510   -7.0810   23.9910 C   0  0  0  0  0  3  0  0  0  0  0  0
  -21.2120   -6.3670   25.1980 C   0  0  0  0  0  3  0  0  0  0  0  0
  -21.4260   -4.9760   25.2220 C   0  0  0  0  0  0  0  0  0  0  0  0
  -21.7810   -4.2970   24.0430 C   0  0  0  0  0  3  0  0  0  0  0  0
  -21.9210   -5.0090   22.8380 C   0  0  0  0  0  0  0  0  0  0  0  0
  -22.2420   -4.3480   21.7010 F   0  0  0  0  0  0  0  0  0  0  0  0
  -21.2850   -4.2870   26.3790 F   0  0  0  0  0  0  0  0  0  0  0  0
  -23.4780  -13.5660   21.2040 C   0  0  0  0  0  0  0  0  0  0  0  0
  -22.8540  -12.9300   22.1900 N   0  0  0  0  0  0  0  0  0  0  0  0
  -23.0520  -14.6360   20.7670 O   0  0  0  0  0  0  0  0  0  0  0  0
  -23.2120  -12.0630   22.5610 H   0  0  0  0  0  0  0  0  0  0  0  0
  -22.0050  -13.3160   22.5780 H   0  0  0  0  0  0  0  0  0  0  0  0
  -26.0870  -14.9900   19.9670 N   0  0  0  0  0  0  0  0  0  0  0  0
  -25.4230  -15.7140   20.2220 H   0  0  0  0  0  0  0  0  0  0  0  0
  -26.9180  -15.3540   19.5190 H   0  0  0  0  0  0  0  0  0  0  0  0
  -30.5210  -23.8430   22.0100 C   0  0  0  0  0  2  0  0  0  0  0  0
  -30.0240  -25.2250   21.9090 N   0  0  0  0  0  4  0  0  0  0  0  0
  -29.8630  -25.5900   22.8350 H   0  0  0  0  0  0  0  0  0  0  0  0
  -29.1100  -25.1250   21.4820 H   0  0  0  0  0  0  0  0  0  0  0  0
  -30.8410  -26.1480   21.0910 C   0  0  0  0  0  2  0  0  0  0  0  0
  -30.0090  -27.3850   20.7490 C   0  0  0  0  0  2  0  0  0  0  0  0
  -28.8580  -26.8990   20.0570 O   0  0  0  0  0  0  0  0  0  0  0  0
  -24.7190  -31.7650   23.2590 C   0  0  0  0  0  0  0  0  0  0  0  0
  -27.6780  -27.6060   20.1170 C   0  0  0  0  0  0  0  0  0  0  0  0
  -23.6120  -30.3320   21.5680 C   0  0  0  0  0  3  0  0  0  0  0  0
  -25.1720  -28.9160   20.1320 C   0  0  0  0  0  0  0  0  0  0  0  0
  -26.1050  -30.8620   21.4020 C   0  0  0  0  0  2  0  0  0  0  0  0
  -26.2810  -29.5140   20.7400 C   0  0  0  0  0  0  0  0  0  0  0  0
  -27.5330  -28.8720   20.7320 C   0  0  0  0  0  3  0  0  0  0  0  0
  -26.5500  -27.0090   19.5160 C   0  0  0  0  0  3  0  0  0  0  0  0
  -25.2980  -27.6570   19.5190 C   0  0  0  0  0  3  0  0  0  0  0  0
  -23.8750  -29.6880   20.1790 C   0  0  0  0  0  2  0  0  0  0  0  0
  -24.8290  -30.9990   22.1380 N   0  0  0  0  0  0  0  0  0  0  0  0
  -23.6180  -31.9620   23.7930 O   0  0  0  0  0  0  0  0  0  0  0  0
  -23.0100  -29.2560   22.4970 C   0  0  0  0  0  0  0  0  0  0  0  0
  -21.7050  -28.9910   22.3310 N   0  0  0  0  0  0  0  0  0  0  0  0
  -23.7150  -28.6620   23.3170 O   0  0  0  0  0  0  0  0  0  0  0  0
  -21.1990  -29.5280   21.6410 H   0  0  0  0  0  0  0  0  0  0  0  0
  -18.4070  -27.5690   22.6980 C   0  0  0  0  0  0  0  0  0  0  0  0
  -20.9300  -27.9900   23.0620 C   0  0  0  0  0  3  0  0  0  0  0  0
  -21.1490  -26.5790   22.4700 C   0  0  0  0  0  2  0  0  0  0  0  0
  -20.1050  -26.1980   21.4150 C   0  0  0  0  0  2  0  0  0  0  0  0
  -18.6940  -26.2450   22.0110 C   0  0  0  0  0  2  0  0  0  0  0  0
  -19.4580  -28.3970   23.1760 C   0  0  0  0  0  0  0  0  0  0  0  0
  -19.1380  -29.6360   23.7710 C   0  0  0  0  0  3  0  0  0  0  0  0
  -17.7990  -30.0500   23.8970 C   0  0  0  0  0  3  0  0  0  0  0  0
  -16.7620  -29.2190   23.4410 C   0  0  0  0  0  3  0  0  0  0  0  0
  -17.0650  -27.9800   22.8460 C   0  0  0  0  0  3  0  0  0  0  0  0
  -25.9620  -32.4490   23.9120 C   0  0  0  0  0  3  0  0  0  0  0  0
  -25.5960  -33.8370   24.2150 N   0  0  0  0  0  0  0  0  0  0  0  0
  -25.9290  -34.8920   23.4570 C   0  0  0  0  0  0  0  0  0  0  0  0
  -26.6460  -34.8010   22.4570 O   0  0  0  0  0  0  0  0  0  0  0  0
  -24.9630  -33.9830   24.9880 H   0  0  0  0  0  0  0  0  0  0  0  0
  -24.1590  -36.6150   23.0020 C   0  0  0  0  0  1  0  0  0  0  0  0
  -25.3750  -36.2670   23.8750 C   0  0  0  0  0  3  0  0  0  0  0  0
  -27.4400  -37.2250   24.7910 C   0  0  0  0  0  1  0  0  0  0  0  0
  -26.3750  -37.3530   23.7980 N   0  0  0  0  0  0  0  0  0  0  0  0
  -25.9330  -38.2590   23.9260 H   0  0  0  0  0  0  0  0  0  0  0  0
  -26.4690  -31.7080   25.2100 C   0  0  1  0  0  0  0  0  0  0  0  0
  -25.3490  -31.4150   26.2340 C   0  0  0  0  0  1  0  0  0  0  0  0
  -27.1380  -30.3630   24.8420 C   0  0  0  0  0  1  0  0  0  0  0  0
  -27.5470  -32.5640   25.9160 C   0  0  0  0  0  1  0  0  0  0  0  0
  1  2  2  0
  4  3  1  0
  5  8  2  0
  5  7  1  0
  6  1  1  0
  6  3  2  0
  7  4  2  0
  8  6  1  0
  9  8  1  0
 10  7  1  0
 11 10  1  0
 12 11  1  0
 13 19  1  0
 13 21  1  0
 14 19  1  0
 15 16  1  0
 15 14  1  0
 17 16  1  0
 17 26  1  0
 17 18  1  0
 19 18  1  0
 20 13  2  0
 21 12  1  0
 21 22  1  0
 23 24  2  0
 24 43  1  0
 25 24  1  0
 25 28  1  0
 26 27  1  0
 26 23  1  0
 27 25  2  0
 28 29  1  0
 29 30  2  0
 31 34  1  0
 31 30  1  0
 32 31  2  0
 33 32  1  0
 33 28  2  0
 34 35  1  0
 35 40  2  0
 35 36  1  0
 36 37  2  0
 37 38  1  0
 38 42  1  0
 39 38  2  0
 40 39  1  0
 41 40  1  0
 43 44  1  0
 44 46  1  0
 44 47  1  0
 45 43  2  0
 48 23  1  0
 48 49  1  0
 50 48  1  0
 51  1  1  0
 52 51  1  0
 52 53  1  0
 54 52  1  0
 55 52  1  0
 56 55  1  0
 57 59  1  0
 57 56  1  0
 58 69  2  0
 59 64  1  0
 60 68  1  0
 60 70  1  0
 61 67  1  0
 61 63  1  0
 62 68  1  0
 63 62  1  0
 64 63  2  0
 65 66  1  0
 65 59  2  0
 66 61  2  0
 67 60  1  0
 68 58  1  0
 70 72  2  0
 71 70  1  0
 73 71  1  0
 74 83  2  0
 74 79  1  0
 75 71  1  0
 75 79  1  0
 76 75  1  0
 77 78  1  0
 77 76  1  0
 78 74  1  0
 79 80  2  0
 80 81  1  0
 82 81  2  0
 83 82  1  0
 84 58  1  0
 84 85  1  0
 84 94  1  0
 85 88  1  0
 86 90  1  0
 86 85  1  0
 87 86  2  0
 90 89  1  0
 92 90  1  0
 92 93  1  0
 92 91  1  0
 94 97  1  1
 94 95  1  0
 96 94  1  0
M  ISO  4  13 100  21 100  56 101  57 101
M  END
>  <TORSDO>  (75) 
F 24

>  <SCORE>  (75) 
-10.519

>  <name>  (75) 
78

>  <ligand_id>  (75) 
78

>  <original_smiles>  (75) 
[H]c1c([H])c([H])c2c(c1[H])C([H])([H])C([H])([H])C([H])([H])C2([H])N([H])C(=O)C1([H])N(C(=O)C([H])(N([H])C(=O)C([H])(N([H])C([H])([H])[H])C([H])([H])[H])C(C([H])([H])[H])(C([H])([H])[H])C([H])([H])[H])C([H])([H])c2c([H])c(OC([H])([H])C([H])([H])[N+]([H])([H])C([H])([H])C(=O)c3c([H])c([H])c(C([H])([H])C([H])([H])C([H])([H])N([H])C(=O)N4C([H])([H])C([H])([H])C([H])([H])C([H])(n5nc(-c6c([H])c([H])c(Oc7c([H])c([H])c(F)c([H])c7F)c([H])c6[H])c(C(=O)N([H])[H])c5N([H])[H])C4([H])[H])c([H])c3C([H])([H])[H])c([H])c([H])c2C1([H])[H]

>  <smiles>  (75) 
[H]c1c([H])c([H])c2c(c1[H])C([H])([H])C([H])([H])C([H])([H])C2([H])N([H])C(=O)C1([H])N(C(=O)C([H])(N([H])C(=O)C([H])(N([H])C([H])([H])[H])C([H])([H])[H])C(C([H])([H])[H])(C([H])([H])[H])C([H])([H])[H])C([H])([H])c2c([H])c(OC([H])([H])C([H])([H])[N+]([H])([H])C([H])([H])C(=O)c3c([H])c([H])c(C([H])([H])C([H])([H])C([H])([H])N([H])C(=O)N4C([H])([H])C([H])([H])C([H])([H])C([H])(n5nc(-c6c([H])c([H])c(Oc7c([H])c([H])c(F)c([H])c7F)c([H])c6[H])c(C(=O)N([H])[H])c5N([H])[H])C4([H])[H])c([H])c3C([H])([H])[H])c([H])c([H])c2C1([H])[H]

$$$$
79:0:0
     RDKit          3D

102110  0  0  1  0  0  0  0  0999 V2000
  -29.7270  -21.6030   19.0090 C   0  0  0  0  0  3  0  0  0  0  0  0
  -28.3570  -23.3460   18.0190 C   0  0  0  0  0  3  0  0  0  0  0  0
  -28.6290  -20.7060   18.9820 C   0  0  0  0  0  0  0  0  0  0  0  0
  -27.3770  -21.1360   18.4400 C   0  0  0  0  0  0  0  0  0  0  0  0
  -29.6020  -22.9240   18.5200 C   0  0  0  0  0  0  0  0  0  0  0  0
  -27.2550  -22.4720   17.9650 C   0  0  0  0  0  0  0  0  0  0  0  0
  -25.9500  -23.0200   17.4000 C   0  0  0  0  0  1  0  0  0  0  0  0
  -26.1710  -20.2470   18.3890 C   0  0  0  0  0  3  0  0  0  0  0  0
  -25.8660  -19.4200   19.2510 O   0  0  0  0  0  0  0  0  0  0  0  0
  -28.8650  -19.3060   19.4540 C   0  0  0  0  0  0  0  0  0  0  0  0
  -28.6860  -18.3150   18.7390 O   0  0  0  0  0  0  0  0  0  0  0  0
  -29.2990  -19.1520   20.9210 C   0  0  0  0  0  2  0  0  0  0  0  0
  -29.6630  -17.7120   21.3640 C   0  0  0  0  0  2  0  0  0  0  0  0
  -31.0620  -17.2570   20.9020 C   0  0  0  0  0  2  0  0  0  0  0  0
  -31.5060  -15.9120   21.5050 C   0  0  0  0  0  2  0  0  0  0  0  0
  -31.0310  -13.9990   19.9750 C   0  0  0  0  0  0  0  0  0  0  0  0
  -30.4920  -11.9240   18.7540 C   0  0  0  0  0  2  0  0  0  0  0  0
  -29.5010  -12.1730   17.6010 C   0  0  0  0  0  2  0  0  0  0  0  0
  -28.0500  -12.1130   18.1090 C   0  0  0  0  0  2  0  0  0  0  0  0
  -27.8250  -12.9870   19.3710 C   0  0  0  0  0  3  0  0  0  0  0  0
  -28.9130  -12.7090   20.4330 C   0  0  0  0  0  2  0  0  0  0  0  0
  -30.2350  -12.9130   19.8110 N   0  0  0  0  0  0  0  0  0  0  0  0
  -32.0180  -14.2320   19.2710 O   0  0  0  0  0  0  0  0  0  0  0  0
  -30.7150  -14.7850   21.0160 N   0  0  0  0  0  0  0  0  0  0  0  0
  -29.9030  -14.5180   21.5520 H   0  0  0  0  0  0  0  0  0  0  0  0
  -25.4970  -13.7430   20.1740 C   0  0  0  0  0  0  0  0  0  0  0  0
  -24.4070  -13.0370   20.6080 C   0  0  0  0  0  0  0  0  0  0  0  0
  -24.7910  -11.6620   20.5830 C   0  0  0  0  0  0  0  0  0  0  0  0
  -26.4810  -12.8010   19.9130 N   0  0  0  0  0  0  0  0  0  0  0  0
  -26.0600  -11.5450   20.2140 N   0  0  0  0  0  0  0  0  0  0  0  0
  -24.0080  -10.4440   20.8350 C   0  0  0  0  0  0  0  0  0  0  0  0
  -24.4140   -9.4890   21.7920 C   0  0  0  0  0  3  0  0  0  0  0  0
  -23.6330   -8.3360   22.0280 C   0  0  0  0  0  3  0  0  0  0  0  0
  -22.4330   -8.1310   21.3070 C   0  0  0  0  0  0  0  0  0  0  0  0
  -22.0450   -9.0760   20.3400 C   0  0  0  0  0  3  0  0  0  0  0  0
  -22.8250  -10.2190   20.1020 C   0  0  0  0  0  3  0  0  0  0  0  0
  -21.6240   -7.0300   21.4510 O   0  0  0  0  0  0  0  0  0  0  0  0
  -21.5540   -6.3390   22.6330 C   0  0  0  0  0  0  0  0  0  0  0  0
  -21.1690   -6.9640   23.8410 C   0  0  0  0  0  3  0  0  0  0  0  0
  -21.0420   -6.2010   25.0180 C   0  0  0  0  0  3  0  0  0  0  0  0
  -21.2890   -4.8150   24.9920 C   0  0  0  0  0  0  0  0  0  0  0  0
  -21.6670   -4.1910   23.7920 C   0  0  0  0  0  3  0  0  0  0  0  0
  -21.7970   -4.9510   22.6140 C   0  0  0  0  0  0  0  0  0  0  0  0
  -22.1410   -4.3400   21.4540 F   0  0  0  0  0  0  0  0  0  0  0  0
  -21.1610   -4.0810   26.1230 F   0  0  0  0  0  0  0  0  0  0  0  0
  -23.0530  -13.5950   20.9380 C   0  0  0  0  0  0  0  0  0  0  0  0
  -22.3380  -12.9640   21.8630 N   0  0  0  0  0  0  0  0  0  0  0  0
  -22.6390  -14.6250   20.4070 O   0  0  0  0  0  0  0  0  0  0  0  0
  -22.6850  -12.1280   22.3110 H   0  0  0  0  0  0  0  0  0  0  0  0
  -21.4320  -13.3220   22.1270 H   0  0  0  0  0  0  0  0  0  0  0  0
  -25.7290  -15.0980   19.9640 N   0  0  0  0  0  0  0  0  0  0  0  0
  -25.0090  -15.8000   20.0920 H   0  0  0  0  0  0  0  0  0  0  0  0
  -26.5890  -15.4820   19.5950 H   0  0  0  0  0  0  0  0  0  0  0  0
  -31.1050  -24.3890   17.0720 C   0  0  0  0  0  1  0  0  0  0  0  0
  -30.7900  -23.8920   18.5030 C   0  0  0  0  0  3  0  0  0  0  0  0
  -30.5520  -25.0380   19.4000 N   0  0  0  0  0  4  0  0  0  0  0  0
  -31.2240  -25.7460   19.1580 H   0  0  0  0  0  0  0  0  0  0  0  0
  -29.6330  -25.4200   19.2310 H   0  0  0  0  0  0  0  0  0  0  0  0
  -30.6950  -24.7820   20.8500 C   0  0  0  0  0  2  0  0  0  0  0  0
  -30.4390  -26.0710   21.6520 C   0  0  0  0  0  2  0  0  0  0  0  0
  -28.9730  -26.5350   21.6360 C   0  0  0  0  0  2  0  0  0  0  0  0
  -28.5170  -26.7700   20.2960 O   0  0  0  0  0  0  0  0  0  0  0  0
  -24.6060  -31.9130   23.1810 C   0  0  0  0  0  0  0  0  0  0  0  0
  -27.3590  -27.5020   20.2340 C   0  0  0  0  0  0  0  0  0  0  0  0
  -23.4390  -30.4830   21.5300 C   0  0  0  0  0  3  0  0  0  0  0  0
  -24.9400  -28.9490   20.1480 C   0  0  0  0  0  0  0  0  0  0  0  0
  -25.9530  -30.8890   21.3610 C   0  0  0  0  0  2  0  0  0  0  0  0
  -26.0710  -29.5120   20.7470 C   0  0  0  0  0  0  0  0  0  0  0  0
  -27.2840  -28.7990   20.7860 C   0  0  0  0  0  3  0  0  0  0  0  0
  -26.2220  -26.9490   19.6110 C   0  0  0  0  0  3  0  0  0  0  0  0
  -25.0060  -27.6630   19.5740 C   0  0  0  0  0  3  0  0  0  0  0  0
  -23.6790  -29.7870   20.1600 C   0  0  0  0  0  2  0  0  0  0  0  0
  -24.6830  -31.1060   22.0860 N   0  0  0  0  0  0  0  0  0  0  0  0
  -23.5170  -32.1840   23.7020 O   0  0  0  0  0  0  0  0  0  0  0  0
  -22.7750  -29.4700   22.4880 C   0  0  0  0  0  0  0  0  0  0  0  0
  -21.4570  -29.2720   22.3280 N   0  0  0  0  0  0  0  0  0  0  0  0
  -23.4430  -28.8610   23.3280 O   0  0  0  0  0  0  0  0  0  0  0  0
  -20.9820  -29.8240   21.6270 H   0  0  0  0  0  0  0  0  0  0  0  0
  -18.0850  -28.0480   22.7220 C   0  0  0  0  0  0  0  0  0  0  0  0
  -20.6270  -28.3380   23.0840 C   0  0  0  0  0  3  0  0  0  0  0  0
  -20.7650  -26.8970   22.5360 C   0  0  0  0  0  2  0  0  0  0  0  0
  -19.7080  -26.5470   21.4850 C   0  0  0  0  0  2  0  0  0  0  0  0
  -18.3000  -26.6880   22.0740 C   0  0  0  0  0  2  0  0  0  0  0  0
  -19.1780  -28.8280   23.1820 C   0  0  0  0  0  0  0  0  0  0  0  0
  -18.9300  -30.1010   23.7420 C   0  0  0  0  0  3  0  0  0  0  0  0
  -17.6170  -30.5940   23.8470 C   0  0  0  0  0  3  0  0  0  0  0  0
  -16.5350  -29.8100   23.4110 C   0  0  0  0  0  3  0  0  0  0  0  0
  -16.7700  -28.5390   22.8570 C   0  0  0  0  0  3  0  0  0  0  0  0
  -25.8810  -32.5580   23.8170 C   0  0  0  0  0  3  0  0  0  0  0  0
  -25.5610  -33.9530   24.1410 N   0  0  0  0  0  0  0  0  0  0  0  0
  -25.8960  -35.0050   23.3830 C   0  0  0  0  0  0  0  0  0  0  0  0
  -26.5830  -34.9080   22.3620 O   0  0  0  0  0  0  0  0  0  0  0  0
  -24.9570  -34.1050   24.9360 H   0  0  0  0  0  0  0  0  0  0  0  0
  -24.1550  -36.7760   23.0000 C   0  0  0  0  0  1  0  0  0  0  0  0
  -25.3870  -36.3870   23.8320 C   0  0  0  0  0  3  0  0  0  0  0  0
  -27.5050  -37.2880   24.6900 C   0  0  0  0  0  1  0  0  0  0  0  0
  -26.4100  -37.4510   23.7370 N   0  0  0  0  0  0  0  0  0  0  0  0
  -25.9900  -38.3620   23.8950 H   0  0  0  0  0  0  0  0  0  0  0  0
  -26.3940  -31.7900   25.0940 C   0  0  1  0  0  0  0  0  0  0  0  0
  -25.2870  -31.5360   26.1420 C   0  0  0  0  0  1  0  0  0  0  0  0
  -27.0000  -30.4220   24.6950 C   0  0  0  0  0  1  0  0  0  0  0  0
  -27.5180  -32.6010   25.7800 C   0  0  0  0  0  1  0  0  0  0  0  0
  2  5  1  0
  3  1  1  0
  3 10  1  0
  4  3  2  0
  5  1  2  0
  6  2  2  0
  6  4  1  0
  7  6  1  0
  8  4  1  0
  8  9  2  0
 10 12  1  0
 11 10  2  0
 12 13  1  0
 14 13  1  0
 14 15  1  0
 16 24  1  0
 17 22  1  0
 18 19  1  0
 18 17  1  0
 20 19  1  0
 20 29  1  0
 20 21  1  0
 22 16  1  0
 22 21  1  0
 23 16  2  0
 24 15  1  0
 24 25  1  0
 26 27  2  0
 27 46  1  0
 28 27  1  0
 28 31  1  0
 29 26  1  0
 29 30  1  0
 30 28  2  0
 31 32  1  0
 32 33  2  0
 34 37  1  0
 34 33  1  0
 35 34  2  0
 36 35  1  0
 36 31  2  0
 37 38  1  0
 38 39  1  0
 39 40  2  0
 41 40  1  0
 41 45  1  0
 42 41  2  0
 43 38  2  0
 43 42  1  0
 44 43  1  0
 46 47  1  0
 47 50  1  0
 47 49  1  0
 48 46  2  0
 51 52  1  0
 51 26  1  0
 53 51  1  0
 55 54  1  0
 55  5  1  0
 55 56  1  0
 56 59  1  0
 57 56  1  0
 58 56  1  0
 59 60  1  0
 61 60  1  0
 62 61  1  0
 63 74  2  0
 64 62  1  0
 64 69  1  0
 65 73  1  0
 65 75  1  0
 66 72  1  0
 66 68  1  0
 67 73  1  0
 68 69  2  0
 68 67  1  0
 70 64  2  0
 71 70  1  0
 71 66  2  0
 72 65  1  0
 73 63  1  0
 75 77  2  0
 76 75  1  0
 78 76  1  0
 79 88  2  0
 79 84  1  0
 80 76  1  0
 80 84  1  0
 81 80  1  0
 82 83  1  0
 82 81  1  0
 83 79  1  0
 84 85  2  0
 85 86  1  0
 87 86  2  0
 88 87  1  0
 89 63  1  0
 89 90  1  0
 89 99  1  0
 90 93  1  0
 91 95  1  0
 91 90  1  0
 92 91  2  0
 95 94  1  0
 97 95  1  0
 97 98  1  0
 97 96  1  0
 99102  1  1
 99100  1  0
101 99  1  0
M  ISO  4  16 100  24 100  61 101  62 101
M  END
>  <TORSDO>  (76) 
F 27

>  <SCORE>  (76) 
-10.761

>  <name>  (76) 
79

>  <ligand_id>  (76) 
79

>  <original_smiles>  (76) 
[H]C(=O)c1c(C(=O)C([H])([H])C([H])([H])C([H])([H])C([H])([H])N([H])C(=O)N2C([H])([H])C([H])([H])C([H])([H])C([H])(n3nc(-c4c([H])c([H])c(Oc5c([H])c([H])c(F)c([H])c5F)c([H])c4[H])c(C(=O)N([H])[H])c3N([H])[H])C2([H])[H])c([H])c(C([H])(C([H])([H])[H])[N+]([H])([H])C([H])([H])C([H])([H])C([H])([H])Oc2c([H])c([H])c3c(c2[H])C([H])([H])N(C(=O)C([H])(N([H])C(=O)C([H])(N([H])C([H])([H])[H])C([H])([H])[H])C(C([H])([H])[H])(C([H])([H])[H])C([H])([H])[H])C([H])(C(=O)N([H])C2([H])c4c([H])c([H])c([H])c([H])c4C([H])([H])C([H])([H])C2([H])[H])C3([H])[H])c([H])c1C([H])([H])[H]

>  <smiles>  (76) 
[H]C(=O)c1c(C(=O)C([H])([H])C([H])([H])C([H])([H])C([H])([H])N([H])C(=O)N2C([H])([H])C([H])([H])C([H])([H])C([H])(n3nc(-c4c([H])c([H])c(Oc5c([H])c([H])c(F)c([H])c5F)c([H])c4[H])c(C(=O)N([H])[H])c3N([H])[H])C2([H])[H])c([H])c(C([H])(C([H])([H])[H])[N+]([H])([H])C([H])([H])C([H])([H])C([H])([H])Oc2c([H])c([H])c3c(c2[H])C([H])([H])N(C(=O)C([H])(N([H])C(=O)C([H])(N([H])C([H])([H])[H])C([H])([H])[H])C(C([H])([H])[H])(C([H])([H])[H])C([H])([H])[H])C([H])(C(=O)N([H])C2([H])c4c([H])c([H])c([H])c([H])c4C([H])([H])C([H])([H])C2([H])[H])C3([H])[H])c([H])c1C([H])([H])[H]

$$$$
80:0:0
     RDKit          3D

 99107  0  0  1  0  0  0  0  0999 V2000
  -27.9750  -21.5000   20.3130 C   0  0  0  0  0  3  0  0  0  0  0  0
  -28.4350  -22.5730   18.1740 C   0  0  0  0  0  3  0  0  0  0  0  0
  -27.3850  -22.6890   20.7820 C   0  0  0  0  0  3  0  0  0  0  0  0
  -27.8370  -23.7580   18.6410 C   0  0  0  0  0  3  0  0  0  0  0  0
  -28.5370  -21.4480   19.0200 C   0  0  0  0  0  0  0  0  0  0  0  0
  -27.3430  -23.8350   19.9640 C   0  0  0  0  0  0  0  0  0  0  0  0
  -26.8310  -25.0160   20.5080 N   0  0  0  0  0  0  0  0  0  0  0  0
  -27.0150  -25.1920   21.4930 H   0  0  0  0  0  0  0  0  0  0  0  0
  -26.6870  -26.1810   19.6470 C   0  0  0  0  0  2  0  0  0  0  0  0
  -26.0150  -27.3390   20.3860 C   0  0  0  0  0  2  0  0  0  0  0  0
  -25.6530  -28.4960   19.4370 C   0  0  0  0  0  2  0  0  0  0  0  0
  -25.8760  -29.7510   20.0740 O   0  0  0  0  0  0  0  0  0  0  0  0
  -27.6340  -31.6040   26.6870 C   0  0  0  0  0  0  0  0  0  0  0  0
  -25.4200  -29.9130   21.3640 C   0  0  0  0  0  0  0  0  0  0  0  0
  -25.3720  -30.6330   26.4220 C   0  0  0  0  0  3  0  0  0  0  0  0
  -24.5680  -30.3480   24.0220 C   0  0  0  0  0  0  0  0  0  0  0  0
  -26.4940  -31.8720   24.4890 C   0  0  0  0  0  2  0  0  0  0  0  0
  -25.7260  -30.9730   23.5460 C   0  0  0  0  0  0  0  0  0  0  0  0
  -26.1500  -30.7640   22.2190 C   0  0  0  0  0  3  0  0  0  0  0  0
  -24.2550  -29.2780   21.8620 C   0  0  0  0  0  3  0  0  0  0  0  0
  -23.8310  -29.4930   23.1860 C   0  0  0  0  0  3  0  0  0  0  0  0
  -24.1650  -30.6480   25.4470 C   0  0  0  0  0  2  0  0  0  0  0  0
  -26.5630  -31.3630   25.8780 N   0  0  0  0  0  0  0  0  0  0  0  0
  -27.6230  -31.2670   27.8800 O   0  0  0  0  0  0  0  0  0  0  0  0
  -25.6750  -29.1650   26.7990 C   0  0  0  0  0  0  0  0  0  0  0  0
  -25.6170  -28.8630   28.1070 N   0  0  0  0  0  0  0  0  0  0  0  0
  -25.9260  -28.3260   25.9310 O   0  0  0  0  0  0  0  0  0  0  0  0
  -25.4190  -29.6100   28.7570 H   0  0  0  0  0  0  0  0  0  0  0  0
  -26.1340  -27.1070   31.2210 C   0  0  0  0  0  0  0  0  0  0  0  0
  -25.8250  -27.5400   28.6930 C   0  0  0  0  0  3  0  0  0  0  0  0
  -24.4890  -26.7710   28.8290 C   0  0  0  0  0  2  0  0  0  0  0  0
  -23.8240  -26.9530   30.1970 C   0  0  0  0  0  2  0  0  0  0  0  0
  -24.7560  -26.4730   31.3130 C   0  0  0  0  0  2  0  0  0  0  0  0
  -26.6300  -27.6210   29.9940 C   0  0  0  0  0  0  0  0  0  0  0  0
  -27.9020  -28.2330   29.9710 C   0  0  0  0  0  3  0  0  0  0  0  0
  -28.6730  -28.3330   31.1450 C   0  0  0  0  0  3  0  0  0  0  0  0
  -28.1830  -27.8100   32.3540 C   0  0  0  0  0  3  0  0  0  0  0  0
  -26.9200  -27.1940   32.3890 C   0  0  0  0  0  3  0  0  0  0  0  0
  -28.9090  -32.3340   26.1630 C   0  0  0  0  0  3  0  0  0  0  0  0
  -30.0720  -31.3450   25.7640 C   0  0  1  0  0  0  0  0  0  0  0  0
  -29.9500  -29.9480   26.4150 C   0  0  0  0  0  1  0  0  0  0  0  0
  -30.1190  -31.1500   24.2300 C   0  0  0  0  0  1  0  0  0  0  0  0
  -31.4370  -31.9470   26.1740 C   0  0  0  0  0  1  0  0  0  0  0  0
  -29.3520  -33.2600   27.2130 N   0  0  0  0  0  0  0  0  0  0  0  0
  -29.1800  -34.5870   27.1750 C   0  0  0  0  0  0  0  0  0  0  0  0
  -28.6900  -35.1730   26.2060 O   0  0  0  0  0  0  0  0  0  0  0  0
  -29.7160  -32.8440   28.0580 H   0  0  0  0  0  0  0  0  0  0  0  0
  -28.3900  -36.0230   29.0810 C   0  0  0  0  0  1  0  0  0  0  0  0
  -29.6220  -35.3940   28.4110 C   0  0  0  0  0  3  0  0  0  0  0  0
  -31.9050  -35.9150   27.6740 C   0  0  0  0  0  1  0  0  0  0  0  0
  -30.6140  -36.4460   28.1020 N   0  0  0  0  0  0  0  0  0  0  0  0
  -30.7690  -37.0430   28.9100 H   0  0  0  0  0  0  0  0  0  0  0  0
  -30.2860  -20.5460   17.4110 C   0  0  0  0  0  1  0  0  0  0  0  0
  -29.3710  -20.2400   18.6080 C   0  0  0  0  0  3  0  0  0  0  0  0
  -30.1450  -19.7690   19.7760 N   0  0  0  0  0  4  0  0  0  0  0  0
  -29.5360  -19.2740   20.4120 H   0  0  0  0  0  0  0  0  0  0  0  0
  -30.8070  -19.0840   19.4500 H   0  0  0  0  0  0  0  0  0  0  0  0
  -30.8940  -20.8060   20.5240 C   0  0  0  0  0  2  0  0  0  0  0  0
  -32.3980  -20.5110   20.5040 C   0  0  0  0  0  2  0  0  0  0  0  0
  -32.9720  -20.1960   21.9010 C   0  0  0  0  0  2  0  0  0  0  0  0
  -34.4730  -19.8590   21.8740 C   0  0  0  0  0  2  0  0  0  0  0  0
  -36.1440  -20.7180   20.2330 C   0  0  0  0  0  0  0  0  0  0  0  0
  -37.9220  -21.8500   18.9560 C   0  0  0  0  0  2  0  0  0  0  0  0
  -39.3000  -21.7260   19.6340 C   0  0  0  0  0  2  0  0  0  0  0  0
  -39.4960  -22.8120   20.7100 C   0  0  0  0  0  2  0  0  0  0  0  0
  -38.2920  -22.9200   21.6800 C   0  0  0  0  0  3  0  0  0  0  0  0
  -36.9780  -23.0150   20.8730 C   0  0  0  0  0  2  0  0  0  0  0  0
  -36.8790  -21.8320   19.9890 N   0  0  0  0  0  0  0  0  0  0  0  0
  -36.3000  -19.6380   19.6550 O   0  0  0  0  0  0  0  0  0  0  0  0
  -35.1910  -20.8970   21.1480 N   0  0  0  0  0  0  0  0  0  0  0  0
  -35.0800  -21.8430   21.4830 H   0  0  0  0  0  0  0  0  0  0  0  0
  -38.7290  -24.0560   23.9580 C   0  0  0  0  0  0  0  0  0  0  0  0
  -38.8390  -25.3720   24.3160 C   0  0  0  0  0  0  0  0  0  0  0  0
  -38.6350  -26.1250   23.1190 C   0  0  0  0  0  0  0  0  0  0  0  0
  -38.4500  -24.0510   22.5980 N   0  0  0  0  0  0  0  0  0  0  0  0
  -38.3490  -25.3120   22.1100 N   0  0  0  0  0  0  0  0  0  0  0  0
  -38.7480  -27.5660   22.8600 C   0  0  0  0  0  0  0  0  0  0  0  0
  -37.6030  -28.3710   22.6720 C   0  0  0  0  0  3  0  0  0  0  0  0
  -37.7330  -29.7580   22.4480 C   0  0  0  0  0  3  0  0  0  0  0  0
  -39.0170  -30.3530   22.4080 C   0  0  0  0  0  0  0  0  0  0  0  0
  -40.1530  -29.5440   22.5770 C   0  0  0  0  0  3  0  0  0  0  0  0
  -40.0220  -28.1630   22.8000 C   0  0  0  0  0  3  0  0  0  0  0  0
  -39.2410  -31.6880   22.1690 O   0  0  0  0  0  0  0  0  0  0  0  0
  -38.5900  -32.6660   22.8780 C   0  0  0  0  0  0  0  0  0  0  0  0
  -38.7170  -32.7800   24.2790 C   0  0  0  0  0  3  0  0  0  0  0  0
  -38.0890  -33.8420   24.9580 C   0  0  0  0  0  3  0  0  0  0  0  0
  -37.3400  -34.7950   24.2410 C   0  0  0  0  0  0  0  0  0  0  0  0
  -37.2160  -34.6850   22.8450 C   0  0  0  0  0  3  0  0  0  0  0  0
  -37.8390  -33.6240   22.1650 C   0  0  0  0  0  0  0  0  0  0  0  0
  -37.7330  -33.5320   20.8170 F   0  0  0  0  0  0  0  0  0  0  0  0
  -36.7410  -35.8210   24.8900 F   0  0  0  0  0  0  0  0  0  0  0  0
  -39.2150  -25.9060   25.6690 C   0  0  0  0  0  0  0  0  0  0  0  0
  -38.7600  -27.1060   26.0090 N   0  0  0  0  0  0  0  0  0  0  0  0
  -39.8740  -25.2290   26.4570 O   0  0  0  0  0  0  0  0  0  0  0  0
  -38.2080  -27.6580   25.3700 H   0  0  0  0  0  0  0  0  0  0  0  0
  -38.9670  -27.4780   26.9260 H   0  0  0  0  0  0  0  0  0  0  0  0
  -38.8590  -22.8660   24.6700 N   0  0  0  0  0  0  0  0  0  0  0  0
  -39.4900  -22.9880   25.4540 H   0  0  0  0  0  0  0  0  0  0  0  0
  -39.1600  -22.0900   24.0930 H   0  0  0  0  0  0  0  0  0  0  0  0
  1  3  1  0
  2  4  2  0
  2  5  1  0
  4  6  1  0
  5  1  2  0
  6  7  1  0
  6  3  2  0
  7  8  1  0
  9 10  1  0
  9  7  1  0
 11 12  1  0
 11 10  1  0
 12 14  1  0
 13 24  2  0
 14 20  2  0
 14 19  1  0
 15 25  1  0
 16 22  1  0
 17 23  1  0
 18 16  1  0
 18 17  1  0
 19 18  2  0
 20 21  1  0
 21 16  2  0
 22 15  1  0
 23 15  1  0
 23 13  1  0
 25 26  1  0
 26 28  1  0
 27 25  2  0
 29 33  1  0
 29 38  1  0
 30 26  1  0
 30 31  1  0
 30 34  1  0
 31 32  1  0
 32 33  1  0
 34 29  2  0
 35 34  1  0
 35 36  2  0
 36 37  1  0
 37 38  2  0
 39 13  1  0
 39 44  1  0
 40 39  1  0
 40 43  1  1
 40 41  1  0
 42 40  1  0
 44 47  1  0
 45 44  1  0
 45 49  1  0
 46 45  2  0
 49 48  1  0
 50 51  1  0
 51 49  1  0
 51 52  1  0
 54 53  1  0
 54  5  1  0
 54 55  1  0
 55 56  1  0
 55 58  1  0
 57 55  1  0
 59 58  1  0
 59 60  1  0
 61 60  1  0
 62 70  1  0
 63 64  1  0
 63 68  1  0
 64 65  1  0
 66 65  1  0
 66 75  1  0
 67 66  1  0
 68 62  1  0
 68 67  1  0
 69 62  2  0
 70 71  1  0
 70 61  1  0
 72 73  2  0
 72 97  1  0
 73 92  1  0
 74 73  1  0
 75 72  1  0
 76 75  1  0
 76 74  2  0
 77 74  1  0
 78 77  2  0
 79 78  1  0
 80 79  2  0
 80 81  1  0
 81 82  2  0
 82 77  1  0
 83 80  1  0
 83 84  1  0
 84 85  1  0
 85 86  2  0
 87 91  1  0
 87 86  1  0
 88 87  2  0
 89 88  1  0
 89 84  2  0
 90 89  1  0
 92 93  1  0
 92 94  2  0
 93 96  1  0
 95 93  1  0
 97 98  1  0
 99 97  1  0
M  ISO  4  11 101  12 101  62 100  70 100
M  END
>  <TORSDO>  (77) 
F 26

>  <SCORE>  (77) 
-5.827

>  <name>  (77) 
80

>  <ligand_id>  (77) 
80

>  <original_smiles>  (77) 
[H]c1c([H])c([H])c2c(c1[H])C([H])([H])C([H])([H])C([H])([H])C2([H])N([H])C(=O)C1([H])N(C(=O)C([H])(N([H])C(=O)C([H])(N([H])C([H])([H])[H])C([H])([H])[H])C(C([H])([H])[H])(C([H])([H])[H])C([H])([H])[H])C([H])([H])c2c([H])c(OC([H])([H])C([H])([H])C([H])([H])N([H])c3c([H])c([H])c(C([H])(C([H])([H])[H])[N+]([H])([H])C([H])([H])C([H])([H])C([H])([H])C([H])([H])N([H])C(=O)N4C([H])([H])C([H])([H])C([H])([H])C([H])(n5nc(-c6c([H])c([H])c(Oc7c([H])c([H])c(F)c([H])c7F)c([H])c6[H])c(C(=O)N([H])[H])c5N([H])[H])C4([H])[H])c([H])c3[H])c([H])c([H])c2C1([H])[H]

>  <smiles>  (77) 
[H]c1c([H])c([H])c2c(c1[H])C([H])([H])C([H])([H])C([H])([H])C2([H])N([H])C(=O)C1([H])N(C(=O)C([H])(N([H])C(=O)C([H])(N([H])C([H])([H])[H])C([H])([H])[H])C(C([H])([H])[H])(C([H])([H])[H])C([H])([H])[H])C([H])([H])c2c([H])c(OC([H])([H])C([H])([H])C([H])([H])N([H])c3c([H])c([H])c(C([H])(C([H])([H])[H])[N+]([H])([H])C([H])([H])C([H])([H])C([H])([H])C([H])([H])N([H])C(=O)N4C([H])([H])C([H])([H])C([H])([H])C([H])(n5nc(-c6c([H])c([H])c(Oc7c([H])c([H])c(F)c([H])c7F)c([H])c6[H])c(C(=O)N([H])[H])c5N([H])[H])C4([H])[H])c([H])c3[H])c([H])c([H])c2C1([H])[H]

$$$$
81:0:0
     RDKit          3D

 97105  0  0  1  0  0  0  0  0999 V2000
  -32.3270  -28.5210   21.3600 C   0  0  0  0  0  3  0  0  0  0  0  0
  -31.5390  -28.8480   20.2400 C   0  0  0  0  0  3  0  0  0  0  0  0
  -32.6310  -27.1750   21.6410 C   0  0  0  0  0  3  0  0  0  0  0  0
  -31.4220  -26.4880   19.6370 C   0  0  0  0  0  3  0  0  0  0  0  0
  -31.0720  -27.8310   19.3800 C   0  0  0  0  0  0  0  0  0  0  0  0
  -32.1630  -26.1510   20.7910 C   0  0  0  0  0  0  0  0  0  0  0  0
  -30.1600  -28.1810   18.2110 C   0  0  0  0  0  2  0  0  0  0  0  0
  -28.9080  -27.2870   18.1220 C   0  0  0  0  0  2  0  0  0  0  0  0
  -28.2930  -27.1680   19.4030 O   0  0  0  0  0  0  0  0  0  0  0  0
  -24.5510  -31.8900   23.1680 C   0  0  0  0  0  0  0  0  0  0  0  0
  -27.1100  -27.8410   19.5480 C   0  0  0  0  0  0  0  0  0  0  0  0
  -23.2800  -30.6110   21.4700 C   0  0  0  0  0  3  0  0  0  0  0  0
  -24.6820  -29.2380   19.8420 C   0  0  0  0  0  0  0  0  0  0  0  0
  -25.7810  -31.0500   21.1730 C   0  0  0  0  0  2  0  0  0  0  0  0
  -25.8560  -29.7440   20.4160 C   0  0  0  0  0  0  0  0  0  0  0  0
  -27.0730  -29.0440   20.2790 C   0  0  0  0  0  3  0  0  0  0  0  0
  -25.9230  -27.3300   18.9870 C   0  0  0  0  0  3  0  0  0  0  0  0
  -24.7070  -28.0240   19.1310 C   0  0  0  0  0  3  0  0  0  0  0  0
  -23.4260  -30.0570   20.0270 C   0  0  0  0  0  2  0  0  0  0  0  0
  -24.5570  -31.1940   21.9960 N   0  0  0  0  0  0  0  0  0  0  0  0
  -23.4970  -32.0890   23.7890 O   0  0  0  0  0  0  0  0  0  0  0  0
  -22.7020  -29.4940   22.3680 C   0  0  0  0  0  0  0  0  0  0  0  0
  -21.3790  -29.2830   22.2820 N   0  0  0  0  0  0  0  0  0  0  0  0
  -23.4370  -28.8260   23.1010 O   0  0  0  0  0  0  0  0  0  0  0  0
  -20.8430  -29.8820   21.6680 H   0  0  0  0  0  0  0  0  0  0  0  0
  -18.0710  -27.9180   22.7780 C   0  0  0  0  0  0  0  0  0  0  0  0
  -20.6230  -28.2610   23.0030 C   0  0  0  0  0  3  0  0  0  0  0  0
  -20.7640  -26.8770   22.3260 C   0  0  0  0  0  2  0  0  0  0  0  0
  -19.6490  -26.5820   21.3180 C   0  0  0  0  0  2  0  0  0  0  0  0
  -18.2810  -26.6270   22.0040 C   0  0  0  0  0  2  0  0  0  0  0  0
  -19.1710  -28.6930   23.2330 C   0  0  0  0  0  0  0  0  0  0  0  0
  -18.9200  -29.9020   23.9160 C   0  0  0  0  0  3  0  0  0  0  0  0
  -17.6030  -30.3400   24.1460 C   0  0  0  0  0  3  0  0  0  0  0  0
  -16.5180  -29.5620   23.7060 C   0  0  0  0  0  3  0  0  0  0  0  0
  -16.7520  -28.3520   23.0290 C   0  0  0  0  0  3  0  0  0  0  0  0
  -25.8610  -32.4890   23.7720 C   0  0  0  0  0  3  0  0  0  0  0  0
  -26.4060  -31.6730   25.0080 C   0  0  1  0  0  0  0  0  0  0  0  0
  -25.3440  -31.4180   26.1020 C   0  0  0  0  0  1  0  0  0  0  0  0
  -26.9610  -30.3020   24.5550 C   0  0  0  0  0  1  0  0  0  0  0  0
  -27.5900  -32.4300   25.6550 C   0  0  0  0  0  1  0  0  0  0  0  0
  -25.5750  -33.8800   24.1520 N   0  0  0  0  0  0  0  0  0  0  0  0
  -25.8960  -34.9500   23.4100 C   0  0  0  0  0  0  0  0  0  0  0  0
  -26.5370  -34.8690   22.3590 O   0  0  0  0  0  0  0  0  0  0  0  0
  -25.0020  -34.0170   24.9710 H   0  0  0  0  0  0  0  0  0  0  0  0
  -24.1720  -36.7620   23.1530 C   0  0  0  0  0  1  0  0  0  0  0  0
  -25.4340  -36.3300   23.9170 C   0  0  0  0  0  3  0  0  0  0  0  0
  -27.6020  -37.1680   24.7030 C   0  0  0  0  0  1  0  0  0  0  0  0
  -26.4730  -37.3760   23.8000 N   0  0  0  0  0  0  0  0  0  0  0  0
  -26.0820  -38.2950   23.9890 H   0  0  0  0  0  0  0  0  0  0  0  0
  -32.4170  -24.6900   21.1380 C   0  0  0  0  0  2  0  0  0  0  0  0
  -29.9570  -24.5880   21.5620 C   0  0  0  0  0  1  0  0  0  0  0  0
  -31.1750  -23.8730   21.1040 N   0  0  2  0  0  4  0  0  0  0  0  0
  -31.0340  -23.6760   20.1250 H   0  0  0  0  0  0  0  0  0  0  0  0
  -31.3370  -22.5480   21.7550 C   0  0  0  0  0  2  0  0  0  0  0  0
  -30.8030  -21.4210   20.8590 C   0  0  0  0  0  2  0  0  0  0  0  0
  -31.0220  -20.0270   21.4700 C   0  0  0  0  0  2  0  0  0  0  0  0
  -30.4210  -18.9350   20.5830 C   0  0  0  0  0  2  0  0  0  0  0  0
  -30.6030  -17.5160   21.1370 C   0  0  0  0  0  2  0  0  0  0  0  0
  -29.8870  -16.5160   20.2230 C   0  0  0  0  0  2  0  0  0  0  0  0
  -30.6400  -14.1630   20.1460 C   0  0  0  0  0  0  0  0  0  0  0  0
  -30.3500  -11.9340   19.1530 C   0  0  0  0  0  2  0  0  0  0  0  0
  -29.3600  -12.0600   17.9770 C   0  0  0  0  0  2  0  0  0  0  0  0
  -27.9010  -11.9500   18.4650 C   0  0  0  0  0  2  0  0  0  0  0  0
  -27.6050  -12.8720   19.6780 C   0  0  0  0  0  3  0  0  0  0  0  0
  -28.6950  -12.6930   20.7610 C   0  0  0  0  0  2  0  0  0  0  0  0
  -30.0070  -12.9650   20.1410 N   0  0  0  0  0  0  0  0  0  0  0  0
  -31.6950  -14.3870   19.5420 O   0  0  0  0  0  0  0  0  0  0  0  0
  -29.9260  -15.1440   20.7090 N   0  0  0  0  0  0  0  0  0  0  0  0
  -29.1200  -14.8350   21.2330 H   0  0  0  0  0  0  0  0  0  0  0  0
  -25.2560  -13.5470   20.4980 C   0  0  0  0  0  0  0  0  0  0  0  0
  -24.1880  -12.7990   20.9210 C   0  0  0  0  0  0  0  0  0  0  0  0
  -24.6110  -11.4370   20.8610 C   0  0  0  0  0  0  0  0  0  0  0  0
  -26.2660  -12.6380   20.2150 N   0  0  0  0  0  0  0  0  0  0  0  0
  -25.8830  -11.3650   20.4870 N   0  0  0  0  0  0  0  0  0  0  0  0
  -23.8650  -10.1910   21.0850 C   0  0  0  0  0  0  0  0  0  0  0  0
  -24.3150   -9.2180   22.0030 C   0  0  0  0  0  3  0  0  0  0  0  0
  -23.5720   -8.0360   22.2130 C   0  0  0  0  0  3  0  0  0  0  0  0
  -22.3660   -7.8200   21.5060 C   0  0  0  0  0  0  0  0  0  0  0  0
  -21.9340   -8.7830   20.5760 C   0  0  0  0  0  3  0  0  0  0  0  0
  -22.6780   -9.9570   20.3640 C   0  0  0  0  0  3  0  0  0  0  0  0
  -21.5930   -6.6910   21.6260 O   0  0  0  0  0  0  0  0  0  0  0  0
  -21.5720   -5.9520   22.7820 C   0  0  0  0  0  0  0  0  0  0  0  0
  -21.2000   -6.5180   24.0220 C   0  0  0  0  0  3  0  0  0  0  0  0
  -21.1240   -5.7080   25.1710 C   0  0  0  0  0  3  0  0  0  0  0  0
  -21.4130   -4.3320   25.0850 C   0  0  0  0  0  0  0  0  0  0  0  0
  -21.7790   -3.7660   23.8510 C   0  0  0  0  0  3  0  0  0  0  0  0
  -21.8560   -4.5740   22.7020 C   0  0  0  0  0  0  0  0  0  0  0  0
  -22.1880   -4.0210   21.5110 F   0  0  0  0  0  0  0  0  0  0  0  0
  -21.3330   -3.5510   26.1860 F   0  0  0  0  0  0  0  0  0  0  0  0
  -22.8180  -13.3100   21.2670 C   0  0  0  0  0  0  0  0  0  0  0  0
  -22.1200  -12.6290   22.1700 N   0  0  0  0  0  0  0  0  0  0  0  0
  -22.3770  -14.3460   20.7720 O   0  0  0  0  0  0  0  0  0  0  0  0
  -22.4910  -11.7900   22.5940 H   0  0  0  0  0  0  0  0  0  0  0  0
  -21.2020  -12.9510   22.4420 H   0  0  0  0  0  0  0  0  0  0  0  0
  -25.4470  -14.9120   20.3140 N   0  0  0  0  0  0  0  0  0  0  0  0
  -24.7020  -15.5880   20.4500 H   0  0  0  0  0  0  0  0  0  0  0  0
  -26.2910  -15.3240   19.9320 H   0  0  0  0  0  0  0  0  0  0  0  0
  1  3  1  0
  2  1  2  0
  4  6  1  0
  5  4  2  0
  5  2  1  0
  6 50  1  0
  6  3  2  0
  7  5  1  0
  8  7  1  0
  8  9  1  0
  9 11  1  0
 10 21  2  0
 11 16  1  0
 12 20  1  0
 12 22  1  0
 13 19  1  0
 13 15  1  0
 14 20  1  0
 15 14  1  0
 16 15  2  0
 17 18  1  0
 17 11  2  0
 18 13  2  0
 19 12  1  0
 20 10  1  0
 22 24  2  0
 23 22  1  0
 25 23  1  0
 26 35  2  0
 26 31  1  0
 27 23  1  0
 27 31  1  0
 28 27  1  0
 29 30  1  0
 29 28  1  0
 30 26  1  0
 31 32  2  0
 32 33  1  0
 34 33  2  0
 35 34  1  0
 36 10  1  0
 36 41  1  0
 36 37  1  0
 37 40  1  1
 37 38  1  0
 39 37  1  0
 41 44  1  0
 42 46  1  0
 42 41  1  0
 43 42  2  0
 46 45  1  0
 48 46  1  0
 48 49  1  0
 48 47  1  0
 52 50  1  0
 52 51  1  0
 52 54  1  0
 52 53  1  6
 55 56  1  0
 55 54  1  0
 57 58  1  0
 57 56  1  0
 59 68  1  0
 59 58  1  0
 60 68  1  0
 61 66  1  0
 62 63  1  0
 62 61  1  0
 64 63  1  0
 64 73  1  0
 64 65  1  0
 66 60  1  0
 66 65  1  0
 67 60  2  0
 68 69  1  0
 70 71  2  0
 71 90  1  0
 72 71  1  0
 72 75  1  0
 73 74  1  0
 73 70  1  0
 74 72  2  0
 75 76  1  0
 76 77  2  0
 78 81  1  0
 78 77  1  0
 79 78  2  0
 80 79  1  0
 80 75  2  0
 81 82  1  0
 82 83  1  0
 83 84  2  0
 85 84  1  0
 85 89  1  0
 86 85  2  0
 87 82  2  0
 87 86  1  0
 88 87  1  0
 90 91  1  0
 91 94  1  0
 91 93  1  0
 92 90  2  0
 95 96  1  0
 95 70  1  0
 97 95  1  0
M  ISO  4   8 101   9 101  60 100  68 100
M  END
>  <TORSDO>  (78) 
F 26

>  <SCORE>  (78) 
-10.726

>  <name>  (78) 
81

>  <ligand_id>  (78) 
81

>  <original_smiles>  (78) 
[H]c1c([H])c([H])c2c(c1[H])C([H])([H])C([H])([H])C([H])([H])C2([H])N([H])C(=O)C1([H])N(C(=O)C([H])(N([H])C(=O)C([H])(N([H])C([H])([H])[H])C([H])([H])[H])C(C([H])([H])[H])(C([H])([H])[H])C([H])([H])[H])C([H])([H])c2c([H])c(OC([H])([H])C([H])([H])c3c([H])c([H])c([H])c(C([H])([H])[N+]([H])(C([H])([H])[H])C([H])([H])C([H])([H])C([H])([H])C([H])([H])C([H])([H])C([H])([H])N([H])C(=O)N4C([H])([H])C([H])([H])C([H])([H])C([H])(n5nc(-c6c([H])c([H])c(Oc7c([H])c([H])c(F)c([H])c7F)c([H])c6[H])c(C(=O)N([H])[H])c5N([H])[H])C4([H])[H])c3[H])c([H])c([H])c2C1([H])[H]

>  <smiles>  (78) 
[H]c1c([H])c([H])c2c(c1[H])C([H])([H])C([H])([H])C([H])([H])C2([H])N([H])C(=O)C1([H])N(C(=O)C([H])(N([H])C(=O)C([H])(N([H])C([H])([H])[H])C([H])([H])[H])C(C([H])([H])[H])(C([H])([H])[H])C([H])([H])[H])C([H])([H])c2c([H])c(OC([H])([H])C([H])([H])c3c([H])c([H])c([H])c(C([H])([H])[N+]([H])(C([H])([H])[H])C([H])([H])C([H])([H])C([H])([H])C([H])([H])C([H])([H])C([H])([H])N([H])C(=O)N4C([H])([H])C([H])([H])C([H])([H])C([H])(n5nc(-c6c([H])c([H])c(Oc7c([H])c([H])c(F)c([H])c7F)c([H])c6[H])c(C(=O)N([H])[H])c5N([H])[H])C4([H])[H])c3[H])c([H])c([H])c2C1([H])[H]

$$$$
82:0:0
     RDKit          3D

 95103  0  0  1  0  0  0  0  0999 V2000
  -30.7420  -24.6630   17.0310 C   0  0  0  0  0  3  0  0  0  0  0  0
  -30.2720  -23.3850   16.6650 C   0  0  0  0  0  3  0  0  0  0  0  0
  -30.5620  -25.1290   18.3450 C   0  0  0  0  0  3  0  0  0  0  0  0
  -29.4570  -23.0340   18.9330 C   0  0  0  0  0  3  0  0  0  0  0  0
  -29.6130  -22.5600   17.6090 C   0  0  0  0  0  0  0  0  0  0  0  0
  -29.9260  -24.3120   19.3010 C   0  0  0  0  0  0  0  0  0  0  0  0
  -29.1020  -21.2030   17.1930 C   0  0  0  0  0  0  0  0  0  0  0  0
  -28.3230  -20.5500   18.0690 N   0  0  0  0  0  0  0  0  0  0  0  0
  -29.3730  -20.7430   16.0830 O   0  0  0  0  0  0  0  0  0  0  0  0
  -28.1390  -21.0070   18.9490 H   0  0  0  0  0  0  0  0  0  0  0  0
  -27.7100  -19.2450   17.8370 C   0  0  0  0  0  2  0  0  0  0  0  0
  -28.7050  -18.0940   18.0680 C   0  0  0  0  0  2  0  0  0  0  0  0
  -28.7390  -17.5940   19.5250 C   0  0  0  0  0  2  0  0  0  0  0  0
  -30.0400  -16.8460   19.8620 C   0  0  0  0  0  2  0  0  0  0  0  0
  -30.5870  -14.5430   20.4670 C   0  0  0  0  0  0  0  0  0  0  0  0
  -30.2930  -12.3930   19.3550 C   0  0  0  0  0  2  0  0  0  0  0  0
  -29.3580  -12.6350   18.1530 C   0  0  0  0  0  2  0  0  0  0  0  0
  -27.8810  -12.5030   18.5780 C   0  0  0  0  0  2  0  0  0  0  0  0
  -27.5430  -13.3040   19.8630 C   0  0  0  0  0  3  0  0  0  0  0  0
  -28.6030  -13.0820   20.9680 C   0  0  0  0  0  2  0  0  0  0  0  0
  -29.9280  -13.3620   20.3950 N   0  0  0  0  0  0  0  0  0  0  0  0
  -31.7550  -14.7020   20.1060 O   0  0  0  0  0  0  0  0  0  0  0  0
  -29.7830  -15.6060   20.5950 N   0  0  0  0  0  0  0  0  0  0  0  0
  -28.8380  -15.4310   20.9050 H   0  0  0  0  0  0  0  0  0  0  0  0
  -25.1290  -13.8740   20.5570 C   0  0  0  0  0  0  0  0  0  0  0  0
  -24.0760  -13.0820   20.9300 C   0  0  0  0  0  0  0  0  0  0  0  0
  -24.5620  -11.7390   20.9050 C   0  0  0  0  0  0  0  0  0  0  0  0
  -26.1930  -13.0100   20.3380 N   0  0  0  0  0  0  0  0  0  0  0  0
  -25.8540  -11.7230   20.6040 N   0  0  0  0  0  0  0  0  0  0  0  0
  -23.8590  -10.4630   21.0970 C   0  0  0  0  0  0  0  0  0  0  0  0
  -24.3070   -9.5110   22.0360 C   0  0  0  0  0  3  0  0  0  0  0  0
  -23.6080   -8.2970   22.2130 C   0  0  0  0  0  3  0  0  0  0  0  0
  -22.4440   -8.0310   21.4520 C   0  0  0  0  0  0  0  0  0  0  0  0
  -22.0170   -8.9750   20.5000 C   0  0  0  0  0  3  0  0  0  0  0  0
  -22.7170  -10.1790   20.3220 C   0  0  0  0  0  3  0  0  0  0  0  0
  -21.7150   -6.8710   21.5380 O   0  0  0  0  0  0  0  0  0  0  0  0
  -21.6810   -6.1260   22.6890 C   0  0  0  0  0  0  0  0  0  0  0  0
  -21.2340   -6.6670   23.9150 C   0  0  0  0  0  3  0  0  0  0  0  0
  -21.1490   -5.8470   25.0570 C   0  0  0  0  0  3  0  0  0  0  0  0
  -21.5000   -4.4880   24.9770 C   0  0  0  0  0  0  0  0  0  0  0  0
  -21.9380   -3.9430   23.7580 C   0  0  0  0  0  3  0  0  0  0  0  0
  -22.0260   -4.7600   22.6160 C   0  0  0  0  0  0  0  0  0  0  0  0
  -22.4280   -4.2270   21.4380 F   0  0  0  0  0  0  0  0  0  0  0  0
  -21.4120   -3.6970   26.0730 F   0  0  0  0  0  0  0  0  0  0  0  0
  -22.6690  -13.5350   21.1970 C   0  0  0  0  0  0  0  0  0  0  0  0
  -21.9490  -12.8250   22.0580 N   0  0  0  0  0  0  0  0  0  0  0  0
  -22.2130  -14.5520   20.6740 O   0  0  0  0  0  0  0  0  0  0  0  0
  -22.3280  -12.0020   22.5030 H   0  0  0  0  0  0  0  0  0  0  0  0
  -21.0070  -13.1120   22.2800 H   0  0  0  0  0  0  0  0  0  0  0  0
  -25.2710  -15.2440   20.3640 N   0  0  0  0  0  0  0  0  0  0  0  0
  -24.4880  -15.8850   20.4380 H   0  0  0  0  0  0  0  0  0  0  0  0
  -26.0950  -15.6770   19.9700 H   0  0  0  0  0  0  0  0  0  0  0  0
  -29.7150  -24.8090   20.7190 C   0  0  0  0  0  2  0  0  0  0  0  0
  -28.4100  -25.5980   20.8690 C   0  0  0  0  0  2  0  0  0  0  0  0
  -28.5000  -26.8470   20.1840 O   0  0  0  0  0  0  0  0  0  0  0  0
  -24.6550  -31.9480   23.2690 C   0  0  0  0  0  0  0  0  0  0  0  0
  -27.3300  -27.5580   20.1810 C   0  0  0  0  0  0  0  0  0  0  0  0
  -23.4570  -30.5410   21.6230 C   0  0  0  0  0  3  0  0  0  0  0  0
  -24.9220  -29.0220   20.1930 C   0  0  0  0  0  0  0  0  0  0  0  0
  -25.9770  -30.9300   21.4200 C   0  0  0  0  0  2  0  0  0  0  0  0
  -26.0740  -29.5620   20.7790 C   0  0  0  0  0  0  0  0  0  0  0  0
  -27.2830  -28.8370   20.7720 C   0  0  0  0  0  3  0  0  0  0  0  0
  -26.1650  -27.0240   19.5870 C   0  0  0  0  0  3  0  0  0  0  0  0
  -24.9610  -27.7520   19.5940 C   0  0  0  0  0  3  0  0  0  0  0  0
  -23.6700  -29.8670   20.2410 C   0  0  0  0  0  2  0  0  0  0  0  0
  -24.7150  -31.1540   22.1620 N   0  0  0  0  0  0  0  0  0  0  0  0
  -23.5740  -32.2100   23.8120 O   0  0  0  0  0  0  0  0  0  0  0  0
  -22.8190  -29.5120   22.5830 C   0  0  0  0  0  0  0  0  0  0  0  0
  -21.4990  -29.3050   22.4420 N   0  0  0  0  0  0  0  0  0  0  0  0
  -23.5080  -28.9000   23.4040 O   0  0  0  0  0  0  0  0  0  0  0  0
  -21.0060  -29.8520   21.7500 H   0  0  0  0  0  0  0  0  0  0  0  0
  -18.1450  -28.0480   22.8990 C   0  0  0  0  0  0  0  0  0  0  0  0
  -20.6910  -28.3580   23.2080 C   0  0  0  0  0  3  0  0  0  0  0  0
  -20.8320  -26.9260   22.6460 C   0  0  0  0  0  2  0  0  0  0  0  0
  -19.7530  -26.5730   21.6160 C   0  0  0  0  0  2  0  0  0  0  0  0
  -18.3580  -26.6970   22.2380 C   0  0  0  0  0  2  0  0  0  0  0  0
  -19.2410  -28.8340   23.3400 C   0  0  0  0  0  0  0  0  0  0  0  0
  -18.9900  -30.0990   23.9160 C   0  0  0  0  0  3  0  0  0  0  0  0
  -17.6740  -30.5770   24.0580 C   0  0  0  0  0  3  0  0  0  0  0  0
  -16.5900  -29.7880   23.6320 C   0  0  0  0  0  3  0  0  0  0  0  0
  -16.8270  -28.5260   23.0590 C   0  0  0  0  0  3  0  0  0  0  0  0
  -25.9380  -32.5860   23.8890 C   0  0  0  0  0  3  0  0  0  0  0  0
  -25.6270  -33.9860   24.2050 N   0  0  0  0  0  0  0  0  0  0  0  0
  -25.9700  -35.0330   23.4410 C   0  0  0  0  0  0  0  0  0  0  0  0
  -26.6540  -34.9210   22.4200 O   0  0  0  0  0  0  0  0  0  0  0  0
  -25.0240  -34.1470   24.9980 H   0  0  0  0  0  0  0  0  0  0  0  0
  -24.2550  -36.8260   23.0350 C   0  0  0  0  0  1  0  0  0  0  0  0
  -25.4750  -36.4240   23.8800 C   0  0  0  0  0  3  0  0  0  0  0  0
  -27.5910  -37.3060   24.7580 C   0  0  0  0  0  1  0  0  0  0  0  0
  -26.5130  -37.4730   23.7880 N   0  0  0  0  0  0  0  0  0  0  0  0
  -26.1050  -38.3940   23.9220 H   0  0  0  0  0  0  0  0  0  0  0  0
  -26.4560  -31.8250   25.1700 C   0  0  1  0  0  0  0  0  0  0  0  0
  -25.3620  -31.5910   26.2390 C   0  0  0  0  0  1  0  0  0  0  0  0
  -27.0420  -30.4470   24.7840 C   0  0  0  0  0  1  0  0  0  0  0  0
  -27.6030  -32.6260   25.8280 C   0  0  0  0  0  1  0  0  0  0  0  0
  1  3  1  0
  2  1  2  0
  2  5  1  0
  3  6  2  0
  4  6  1  0
  5  4  2  0
  6 53  1  0
  7  5  1  0
  7  8  1  0
  8 10  1  0
  9  7  2  0
 11 12  1  0
 11  8  1  0
 12 13  1  0
 13 14  1  0
 14 23  1  0
 15 23  1  0
 16 21  1  0
 17 18  1  0
 17 16  1  0
 19 18  1  0
 19 28  1  0
 19 20  1  0
 21 15  1  0
 21 20  1  0
 22 15  2  0
 23 24  1  0
 25 26  2  0
 26 45  1  0
 27 26  1  0
 27 30  1  0
 28 25  1  0
 28 29  1  0
 29 27  2  0
 30 31  1  0
 31 32  2  0
 33 36  1  0
 33 32  1  0
 34 33  2  0
 35 34  1  0
 35 30  2  0
 36 37  1  0
 37 38  1  0
 38 39  2  0
 40 39  1  0
 40 44  1  0
 41 40  2  0
 42 37  2  0
 42 41  1  0
 43 42  1  0
 45 46  1  0
 46 49  1  0
 46 48  1  0
 47 45  2  0
 50 51  1  0
 50 25  1  0
 52 50  1  0
 53 54  1  0
 55 54  1  0
 56 67  2  0
 57 55  1  0
 57 62  1  0
 58 66  1  0
 58 68  1  0
 59 65  1  0
 59 61  1  0
 60 66  1  0
 61 60  1  0
 62 61  2  0
 63 64  1  0
 63 57  2  0
 64 59  2  0
 65 58  1  0
 66 56  1  0
 68 70  2  0
 69 68  1  0
 71 69  1  0
 72 81  2  0
 72 77  1  0
 73 69  1  0
 73 77  1  0
 74 73  1  0
 75 76  1  0
 75 74  1  0
 76 72  1  0
 77 78  2  0
 78 79  1  0
 80 79  2  0
 81 80  1  0
 82 56  1  0
 82 83  1  0
 82 92  1  0
 83 86  1  0
 84 88  1  0
 84 83  1  0
 85 84  2  0
 88 87  1  0
 90 88  1  0
 90 91  1  0
 90 89  1  0
 92 95  1  1
 92 93  1  0
 94 92  1  0
M  ISO  4  15 100  23 100  54 101  55 101
M  END
>  <TORSDO>  (79) 
F 23

>  <SCORE>  (79) 
-12.890

>  <name>  (79) 
82

>  <ligand_id>  (79) 
82

>  <original_smiles>  (79) 
[H]c1c([H])c(C(=O)N([H])C([H])([H])C([H])([H])C([H])([H])C([H])([H])N([H])C(=O)N2C([H])([H])C([H])([H])C([H])([H])C([H])(n3nc(-c4c([H])c([H])c(Oc5c([H])c([H])c(F)c([H])c5F)c([H])c4[H])c(C(=O)N([H])[H])c3N([H])[H])C2([H])[H])c([H])c(C([H])([H])C([H])([H])Oc2c([H])c([H])c3c(c2[H])C([H])([H])N(C(=O)C([H])(N([H])C(=O)C([H])(N([H])C([H])([H])[H])C([H])([H])[H])C(C([H])([H])[H])(C([H])([H])[H])C([H])([H])[H])C([H])(C(=O)N([H])C2([H])c4c([H])c([H])c([H])c([H])c4C([H])([H])C([H])([H])C2([H])[H])C3([H])[H])c1[H]

>  <smiles>  (79) 
[H]c1c([H])c(C(=O)N([H])C([H])([H])C([H])([H])C([H])([H])C([H])([H])N([H])C(=O)N2C([H])([H])C([H])([H])C([H])([H])C([H])(n3nc(-c4c([H])c([H])c(Oc5c([H])c([H])c(F)c([H])c5F)c([H])c4[H])c(C(=O)N([H])[H])c3N([H])[H])C2([H])[H])c([H])c(C([H])([H])C([H])([H])Oc2c([H])c([H])c3c(c2[H])C([H])([H])N(C(=O)C([H])(N([H])C(=O)C([H])(N([H])C([H])([H])[H])C([H])([H])[H])C(C([H])([H])[H])(C([H])([H])[H])C([H])([H])[H])C([H])(C(=O)N([H])C2([H])c4c([H])c([H])c([H])c([H])c4C([H])([H])C([H])([H])C2([H])[H])C3([H])[H])c1[H]

$$$$
83:0:0
     RDKit          3D

 97106  0  0  1  0  0  0  0  0999 V2000
  -29.6290  -22.5260   16.3770 C   0  0  0  0  0  2  0  0  0  0  0  0
  -29.5650  -21.5850   18.7130 C   0  0  0  0  0  2  0  0  0  0  0  0
  -29.9160  -23.9550   16.9020 C   0  0  0  0  0  2  0  0  0  0  0  0
  -29.2210  -23.0390   19.0950 C   0  0  0  0  0  2  0  0  0  0  0  0
  -30.2070  -21.4390   17.3030 C   0  0  0  0  0  3  0  0  0  0  0  0
  -30.0830  -24.0150   18.3820 N   0  0  2  0  0  4  0  0  0  0  0  0
  -31.0230  -23.6880   18.5480 H   0  0  0  0  0  0  0  0  0  0  0  0
  -30.1550  -20.0210   16.6570 C   0  0  0  0  0  2  0  0  0  0  0  0
  -27.3360  -17.6540   17.7130 C   0  0  0  0  0  3  0  0  0  0  0  0
  -28.0800  -18.6060   16.9920 C   0  0  0  0  0  3  0  0  0  0  0  0
  -27.8720  -17.0710   18.8770 C   0  0  0  0  0  3  0  0  0  0  0  0
  -29.9220  -18.3380   18.5680 C   0  0  0  0  0  3  0  0  0  0  0  0
  -29.3740  -18.9600   17.4230 C   0  0  0  0  0  0  0  0  0  0  0  0
  -29.1650  -17.4160   19.3290 C   0  0  0  0  0  0  0  0  0  0  0  0
  -30.3300  -17.8190   21.5670 C   0  0  0  0  0  1  0  0  0  0  0  0
  -29.7610  -16.7720   20.5860 C   0  0  0  0  0  3  0  0  0  0  0  0
  -31.2800  -14.7240   20.7270 C   0  0  0  0  0  0  0  0  0  0  0  0
  -30.8630  -12.7030   19.4360 C   0  0  0  0  0  2  0  0  0  0  0  0
  -29.9680  -13.0700   18.2370 C   0  0  0  0  0  2  0  0  0  0  0  0
  -28.4840  -12.9280   18.6280 C   0  0  0  0  0  2  0  0  0  0  0  0
  -28.1360  -13.6520   19.9540 C   0  0  0  0  0  3  0  0  0  0  0  0
  -29.1740  -13.3680   21.0670 C   0  0  0  0  0  2  0  0  0  0  0  0
  -30.5090  -13.6300   20.5140 N   0  0  0  0  0  0  0  0  0  0  0  0
  -32.5040  -14.6910   20.6830 O   0  0  0  0  0  0  0  0  0  0  0  0
  -30.8020  -15.8430   20.1690 N   0  0  0  0  0  0  0  0  0  0  0  0
  -31.5630  -16.3410   19.7320 H   0  0  0  0  0  0  0  0  0  0  0  0
  -25.7260  -14.2690   20.6220 C   0  0  0  0  0  0  0  0  0  0  0  0
  -24.6290  -13.4940   20.8920 C   0  0  0  0  0  0  0  0  0  0  0  0
  -25.0760  -12.1390   20.8150 C   0  0  0  0  0  0  0  0  0  0  0  0
  -26.7670  -13.3840   20.3870 N   0  0  0  0  0  0  0  0  0  0  0  0
  -26.3780  -12.0980   20.5660 N   0  0  0  0  0  0  0  0  0  0  0  0
  -24.3300  -10.8800   20.9030 C   0  0  0  0  0  0  0  0  0  0  0  0
  -24.7140   -9.8570   21.7960 C   0  0  0  0  0  3  0  0  0  0  0  0
  -23.9660   -8.6620   21.8790 C   0  0  0  0  0  3  0  0  0  0  0  0
  -22.8220   -8.4830   21.0650 C   0  0  0  0  0  0  0  0  0  0  0  0
  -22.4600   -9.4960   20.1590 C   0  0  0  0  0  3  0  0  0  0  0  0
  -23.2090  -10.6810   20.0740 C   0  0  0  0  0  3  0  0  0  0  0  0
  -22.0550   -7.3430   21.0540 O   0  0  0  0  0  0  0  0  0  0  0  0
  -21.9380   -6.5490   22.1670 C   0  0  0  0  0  0  0  0  0  0  0  0
  -21.4790   -7.0550   23.4020 C   0  0  0  0  0  3  0  0  0  0  0  0
  -21.3120   -6.1870   24.4990 C   0  0  0  0  0  3  0  0  0  0  0  0
  -21.5930   -4.8150   24.3610 C   0  0  0  0  0  0  0  0  0  0  0  0
  -22.0430   -4.3080   23.1290 C   0  0  0  0  0  3  0  0  0  0  0  0
  -22.2140   -5.1730   22.0350 C   0  0  0  0  0  0  0  0  0  0  0  0
  -22.6310   -4.6770   20.8450 F   0  0  0  0  0  0  0  0  0  0  0  0
  -21.4190   -3.9780   25.4110 F   0  0  0  0  0  0  0  0  0  0  0  0
  -23.2270  -13.9770   21.1180 C   0  0  0  0  0  0  0  0  0  0  0  0
  -22.4520  -13.2560   21.9240 N   0  0  0  0  0  0  0  0  0  0  0  0
  -22.8230  -15.0270   20.6210 O   0  0  0  0  0  0  0  0  0  0  0  0
  -22.7880  -12.4050   22.3490 H   0  0  0  0  0  0  0  0  0  0  0  0
  -21.5100  -13.5640   22.1170 H   0  0  0  0  0  0  0  0  0  0  0  0
  -25.9110  -15.6450   20.5410 N   0  0  0  0  0  0  0  0  0  0  0  0
  -25.1480  -16.3010   20.6690 H   0  0  0  0  0  0  0  0  0  0  0  0
  -26.7940  -16.0990   20.3490 H   0  0  0  0  0  0  0  0  0  0  0  0
  -30.0600  -25.3970   18.9460 C   0  0  0  0  0  2  0  0  0  0  0  0
  -28.6430  -25.9750   19.0950 C   0  0  0  0  0  2  0  0  0  0  0  0
  -28.6290  -27.1950   19.8350 O   0  0  0  0  0  0  0  0  0  0  0  0
  -24.7460  -32.0780   23.2880 C   0  0  0  0  0  0  0  0  0  0  0  0
  -27.4160  -27.8490   19.9310 C   0  0  0  0  0  0  0  0  0  0  0  0
  -23.5330  -30.7210   21.6160 C   0  0  0  0  0  3  0  0  0  0  0  0
  -24.9820  -29.2850   20.0950 C   0  0  0  0  0  0  0  0  0  0  0  0
  -26.0480  -31.1450   21.3780 C   0  0  0  0  0  2  0  0  0  0  0  0
  -26.1430  -29.8060   20.6780 C   0  0  0  0  0  0  0  0  0  0  0  0
  -27.3610  -29.0940   20.5990 C   0  0  0  0  0  3  0  0  0  0  0  0
  -26.2210  -27.3290   19.3720 C   0  0  0  0  0  3  0  0  0  0  0  0
  -25.0130  -28.0410   19.4460 C   0  0  0  0  0  3  0  0  0  0  0  0
  -23.7220  -30.1120   20.2030 C   0  0  0  0  0  2  0  0  0  0  0  0
  -24.7950  -31.3270   22.1510 N   0  0  0  0  0  0  0  0  0  0  0  0
  -23.6720  -32.3020   23.8630 O   0  0  0  0  0  0  0  0  0  0  0  0
  -22.9290  -29.6420   22.5410 C   0  0  0  0  0  0  0  0  0  0  0  0
  -21.6090  -29.4200   22.4190 N   0  0  0  0  0  0  0  0  0  0  0  0
  -23.6410  -29.0070   23.3240 O   0  0  0  0  0  0  0  0  0  0  0  0
  -21.0930  -29.9870   21.7600 H   0  0  0  0  0  0  0  0  0  0  0  0
  -18.2850  -28.0850   22.8830 C   0  0  0  0  0  0  0  0  0  0  0  0
  -20.8300  -28.4310   23.1630 C   0  0  0  0  0  3  0  0  0  0  0  0
  -20.9860  -27.0220   22.5450 C   0  0  0  0  0  2  0  0  0  0  0  0
  -19.8970  -26.6870   21.5230 C   0  0  0  0  0  2  0  0  0  0  0  0
  -18.5100  -26.7620   22.1700 C   0  0  0  0  0  2  0  0  0  0  0  0
  -19.3740  -28.8760   23.3350 C   0  0  0  0  0  0  0  0  0  0  0  0
  -19.1070  -30.1150   23.9590 C   0  0  0  0  0  3  0  0  0  0  0  0
  -17.7850  -30.5620   24.1350 C   0  0  0  0  0  3  0  0  0  0  0  0
  -16.7110  -29.7690   23.6990 C   0  0  0  0  0  3  0  0  0  0  0  0
  -16.9610  -28.5300   23.0800 C   0  0  0  0  0  3  0  0  0  0  0  0
  -26.0320  -32.7080   23.9080 C   0  0  0  0  0  3  0  0  0  0  0  0
  -25.7120  -34.0930   24.2720 N   0  0  0  0  0  0  0  0  0  0  0  0
  -26.0340  -35.1650   23.5350 C   0  0  0  0  0  0  0  0  0  0  0  0
  -26.7050  -35.0920   22.5020 O   0  0  0  0  0  0  0  0  0  0  0  0
  -25.1160  -34.2250   25.0760 H   0  0  0  0  0  0  0  0  0  0  0  0
  -24.2930  -36.9480   23.2160 C   0  0  0  0  0  1  0  0  0  0  0  0
  -25.5350  -36.5370   24.0230 C   0  0  0  0  0  3  0  0  0  0  0  0
  -27.6630  -37.4150   24.8770 C   0  0  0  0  0  1  0  0  0  0  0  0
  -26.5600  -37.6010   23.9370 N   0  0  0  0  0  0  0  0  0  0  0  0
  -26.1480  -38.5140   24.1080 H   0  0  0  0  0  0  0  0  0  0  0  0
  -26.5760  -31.9110   25.1550 C   0  0  1  0  0  0  0  0  0  0  0  0
  -25.5040  -31.6340   26.2340 C   0  0  0  0  0  1  0  0  0  0  0  0
  -27.1680  -30.5510   24.7170 C   0  0  0  0  0  1  0  0  0  0  0  0
  -27.7300  -32.7020   25.8180 C   0  0  0  0  0  1  0  0  0  0  0  0
  1  3  1  0
  1  5  1  0
  2  4  1  0
  3  6  1  0
  5  8  1  0
  5  2  1  0
  6  7  1  6
  6 55  1  0
  6  4  1  0
  8 13  1  0
  9 11  1  0
 10 13  1  0
 10  9  2  0
 11 14  2  0
 12 14  1  0
 13 12  2  0
 14 16  1  0
 16 15  1  0
 18 23  1  0
 19 20  1  0
 19 18  1  0
 21 20  1  0
 21 30  1  0
 21 22  1  0
 23 17  1  0
 23 22  1  0
 24 17  2  0
 25 16  1  0
 25 17  1  0
 26 25  1  0
 27 28  2  0
 28 47  1  0
 29 28  1  0
 29 32  1  0
 30 31  1  0
 30 27  1  0
 31 29  2  0
 32 33  1  0
 33 34  2  0
 35 34  1  0
 36 35  2  0
 37 36  1  0
 37 32  2  0
 38 35  1  0
 38 39  1  0
 39 40  1  0
 40 41  2  0
 42 41  1  0
 42 46  1  0
 43 42  2  0
 44 39  2  0
 44 43  1  0
 45 44  1  0
 47 48  1  0
 48 51  1  0
 48 50  1  0
 49 47  2  0
 52 27  1  0
 52 53  1  0
 54 52  1  0
 55 56  1  0
 56 57  1  0
 57 59  1  0
 58 69  2  0
 59 64  1  0
 60 68  1  0
 60 70  1  0
 61 67  1  0
 61 63  1  0
 62 68  1  0
 63 62  1  0
 64 63  2  0
 65 66  1  0
 65 59  2  0
 66 61  2  0
 67 60  1  0
 68 58  1  0
 70 72  2  0
 71 70  1  0
 73 71  1  0
 74 83  2  0
 74 79  1  0
 75 71  1  0
 75 79  1  0
 76 75  1  0
 77 78  1  0
 77 76  1  0
 78 74  1  0
 79 80  2  0
 80 81  1  0
 82 81  2  0
 83 82  1  0
 84 58  1  0
 84 85  1  0
 84 94  1  0
 85 88  1  0
 86 90  1  0
 86 85  1  0
 87 86  2  0
 90 89  1  0
 92 90  1  0
 92 93  1  0
 92 91  1  0
 94 97  1  1
 94 95  1  0
 96 94  1  0
M  ISO  4  17 100  25 100  56 101  57 101
M  END
>  <TORSDO>  (80) 
F 21

>  <SCORE>  (80) 
-11.932

>  <name>  (80) 
83

>  <ligand_id>  (80) 
83

>  <original_smiles>  (80) 
[H]c1c([H])c([H])c2c(c1[H])C([H])([H])C([H])([H])C([H])([H])C2([H])N([H])C(=O)C1([H])N(C(=O)C([H])(N([H])C(=O)C([H])(N([H])C([H])([H])[H])C([H])([H])[H])C(C([H])([H])[H])(C([H])([H])[H])C([H])([H])[H])C([H])([H])c2c([H])c(OC([H])([H])C([H])([H])[N+]3([H])C([H])([H])C([H])([H])C([H])(C([H])([H])c4c([H])c([H])c([H])c(C([H])(N([H])C(=O)N5C([H])([H])C([H])([H])C([H])([H])C([H])(n6nc(-c7c([H])c([H])c(Oc8c([H])c([H])c(F)c([H])c8F)c([H])c7[H])c(C(=O)N([H])[H])c6N([H])[H])C5([H])[H])C([H])([H])[H])c4[H])C([H])([H])C3([H])[H])c([H])c([H])c2C1([H])[H]

>  <smiles>  (80) 
[H]c1c([H])c([H])c2c(c1[H])C([H])([H])C([H])([H])C([H])([H])C2([H])N([H])C(=O)C1([H])N(C(=O)C([H])(N([H])C(=O)C([H])(N([H])C([H])([H])[H])C([H])([H])[H])C(C([H])([H])[H])(C([H])([H])[H])C([H])([H])[H])C([H])([H])c2c([H])c(OC([H])([H])C([H])([H])[N+]3([H])C([H])([H])C([H])([H])C([H])(C([H])([H])c4c([H])c([H])c([H])c(C([H])(N([H])C(=O)N5C([H])([H])C([H])([H])C([H])([H])C([H])(n6nc(-c7c([H])c([H])c(Oc8c([H])c([H])c(F)c([H])c8F)c([H])c7[H])c(C(=O)N([H])[H])c6N([H])[H])C5([H])[H])C([H])([H])[H])c4[H])C([H])([H])C3([H])[H])c([H])c([H])c2C1([H])[H]

$$$$
84:0:0
     RDKit          3D

 95102  0  0  1  0  0  0  0  0999 V2000
  -25.9470  -22.7590   22.9000 C   0  0  0  0  0  2  0  0  0  0  0  0
  -25.6350  -23.3120   21.4990 C   0  0  0  0  0  2  0  0  0  0  0  0
  -26.8110  -23.7110   20.6810 N   0  0  0  0  0  4  0  0  0  0  0  0
  -27.3280  -22.8920   20.3980 H   0  0  0  0  0  0  0  0  0  0  0  0
  -27.4160  -24.2840   21.2440 H   0  0  0  0  0  0  0  0  0  0  0  0
  -26.3590  -24.4420   19.4670 C   0  0  0  0  0  2  0  0  0  0  0  0
  -27.4340  -25.1720   18.6080 C   0  0  0  0  0  2  0  0  0  0  0  0
  -26.8540  -25.9820   17.5550 O   0  0  0  0  0  0  0  0  0  0  0  0
  -25.6250  -30.3850   22.9760 C   0  0  0  0  0  0  0  0  0  0  0  0
  -26.0860  -27.0200   18.0300 C   0  0  0  0  0  0  0  0  0  0  0  0
  -23.7560  -30.0640   21.3860 C   0  0  0  0  0  3  0  0  0  0  0  0
  -24.3600  -28.9290   19.1810 C   0  0  0  0  0  0  0  0  0  0  0  0
  -26.1880  -29.8590   20.6130 C   0  0  0  0  0  2  0  0  0  0  0  0
  -25.7060  -28.8760   19.5690 C   0  0  0  0  0  0  0  0  0  0  0  0
  -26.5750  -27.9120   19.0090 C   0  0  0  0  0  3  0  0  0  0  0  0
  -24.7530  -27.1430   17.5870 C   0  0  0  0  0  3  0  0  0  0  0  0
  -23.8760  -28.0610   18.1900 C   0  0  0  0  0  3  0  0  0  0  0  0
  -23.4840  -29.9590   19.8610 C   0  0  0  0  0  2  0  0  0  0  0  0
  -25.2210  -30.0900   21.7100 N   0  0  0  0  0  0  0  0  0  0  0  0
  -24.8070  -30.6680   23.8640 O   0  0  0  0  0  0  0  0  0  0  0  0
  -22.9930  -28.9310   22.1100 C   0  0  0  0  0  0  0  0  0  0  0  0
  -21.6520  -29.0150   22.1000 N   0  0  0  0  0  0  0  0  0  0  0  0
  -23.5990  -27.9900   22.6300 O   0  0  0  0  0  0  0  0  0  0  0  0
  -21.2340  -29.8210   21.6560 H   0  0  0  0  0  0  0  0  0  0  0  0
  -18.1620  -28.1170   22.3720 C   0  0  0  0  0  0  0  0  0  0  0  0
  -20.7260  -28.0460   22.6830 C   0  0  0  0  0  3  0  0  0  0  0  0
  -20.6890  -26.7370   21.8610 C   0  0  0  0  0  2  0  0  0  0  0  0
  -19.5790  -26.7220   20.8070 C   0  0  0  0  0  2  0  0  0  0  0  0
  -18.2090  -26.9000   21.4640 C   0  0  0  0  0  2  0  0  0  0  0  0
  -19.3450  -28.6660   22.9290 C   0  0  0  0  0  0  0  0  0  0  0  0
  -19.2520  -29.8190   23.7360 C   0  0  0  0  0  3  0  0  0  0  0  0
  -18.0040  -30.4250   23.9810 C   0  0  0  0  0  3  0  0  0  0  0  0
  -16.8330  -29.8710   23.4360 C   0  0  0  0  0  3  0  0  0  0  0  0
  -16.9130  -28.7170   22.6380 C   0  0  0  0  0  3  0  0  0  0  0  0
  -27.1360  -30.3950   23.3680 C   0  0  0  0  0  3  0  0  0  0  0  0
  -27.6530  -29.0010   23.8940 C   0  0  1  0  0  0  0  0  0  0  0  0
  -26.7820  -28.3970   25.0190 C   0  0  0  0  0  1  0  0  0  0  0  0
  -27.7160  -27.9660   22.7460 C   0  0  0  0  0  1  0  0  0  0  0  0
  -29.0960  -29.1430   24.4310 C   0  0  0  0  0  1  0  0  0  0  0  0
  -27.3200  -31.4380   24.3850 N   0  0  0  0  0  0  0  0  0  0  0  0
  -27.8800  -32.6300   24.1540 C   0  0  0  0  0  0  0  0  0  0  0  0
  -28.3690  -32.9410   23.0640 O   0  0  0  0  0  0  0  0  0  0  0  0
  -26.8980  -31.2720   25.2870 H   0  0  0  0  0  0  0  0  0  0  0  0
  -26.8050  -34.6970   25.0970 C   0  0  0  0  0  1  0  0  0  0  0  0
  -27.9000  -33.6410   25.3160 C   0  0  0  0  0  3  0  0  0  0  0  0
  -30.2570  -33.4100   25.9590 C   0  0  0  0  0  1  0  0  0  0  0  0
  -29.2070  -34.3100   25.4920 N   0  0  0  0  0  0  0  0  0  0  0  0
  -29.1320  -35.0820   26.1500 H   0  0  0  0  0  0  0  0  0  0  0  0
  -26.2670  -23.8250   23.9650 C   0  0  0  0  0  2  0  0  0  0  0  0
  -26.8060  -25.1700   23.4360 C   0  0  0  0  0  2  0  0  0  0  0  0
  -28.3460  -25.2420   23.3890 C   0  0  0  0  0  2  0  0  0  0  0  0
  -28.9000  -25.7950   22.0690 C   0  0  0  0  0  2  0  0  0  0  0  0
  -30.4270  -25.7680   22.0430 C   0  0  0  0  0  2  0  0  0  0  0  0
  -30.9900  -26.0540   20.6490 C   0  0  0  0  0  2  0  0  0  0  0  0
  -32.3890  -25.3760   20.5180 C   0  0  0  0  0  2  0  0  0  0  0  0
  -32.6930  -25.8880   17.9950 C   0  0  0  0  0  1  0  0  0  0  0  0
  -33.3750  -25.4220   19.3160 C   0  0  0  0  0  3  0  0  0  0  0  0
  -35.0420  -23.6550   18.5590 C   0  0  0  0  0  0  0  0  0  0  0  0
  -36.3670  -21.6810   17.9350 C   0  0  0  0  0  2  0  0  0  0  0  0
  -35.8420  -21.0450   16.6350 C   0  0  0  0  0  2  0  0  0  0  0  0
  -34.7320  -20.0240   16.9450 C   0  0  0  0  0  2  0  0  0  0  0  0
  -33.6330  -20.6080   17.8730 C   0  0  0  0  0  3  0  0  0  0  0  0
  -34.2600  -21.3130   19.1000 C   0  0  0  0  0  2  0  0  0  0  0  0
  -35.2410  -22.3160   18.6300 N   0  0  0  0  0  0  0  0  0  0  0  0
  -35.7740  -24.4210   17.9220 O   0  0  0  0  0  0  0  0  0  0  0  0
  -34.0030  -24.0960   19.2640 N   0  0  0  0  0  0  0  0  0  0  0  0
  -33.5290  -23.3800   19.7930 H   0  0  0  0  0  0  0  0  0  0  0  0
  -31.3010  -19.6540   18.4000 C   0  0  0  0  0  0  0  0  0  0  0  0
  -30.8830  -18.3890   18.7250 C   0  0  0  0  0  0  0  0  0  0  0  0
  -32.0620  -17.5840   18.7720 C   0  0  0  0  0  0  0  0  0  0  0  0
  -32.6770  -19.5750   18.2690 N   0  0  0  0  0  0  0  0  0  0  0  0
  -33.1380  -18.3270   18.5470 N   0  0  0  0  0  0  0  0  0  0  0  0
  -32.2220  -16.1350   18.9580 C   0  0  0  0  0  0  0  0  0  0  0  0
  -32.9310  -15.6050   20.0600 C   0  0  0  0  0  3  0  0  0  0  0  0
  -33.0590  -14.2100   20.2240 C   0  0  0  0  0  3  0  0  0  0  0  0
  -32.4740  -13.3280   19.2860 C   0  0  0  0  0  0  0  0  0  0  0  0
  -31.7860  -13.8590   18.1810 C   0  0  0  0  0  3  0  0  0  0  0  0
  -31.6630  -15.2500   18.0150 C   0  0  0  0  0  3  0  0  0  0  0  0
  -32.5640  -11.9590   19.3510 O   0  0  0  0  0  0  0  0  0  0  0  0
  -32.4560  -11.2900   20.5450 C   0  0  0  0  0  0  0  0  0  0  0  0
  -31.3410  -11.4560   21.3930 C   0  0  0  0  0  3  0  0  0  0  0  0
  -31.2370  -10.6960   22.5760 C   0  0  0  0  0  3  0  0  0  0  0  0
  -32.2400   -9.7640   22.9060 C   0  0  0  0  0  0  0  0  0  0  0  0
  -33.3480   -9.5930   22.0560 C   0  0  0  0  0  3  0  0  0  0  0  0
  -33.4540  -10.3530   20.8780 C   0  0  0  0  0  0  0  0  0  0  0  0
  -34.5150  -10.1710   20.0570 F   0  0  0  0  0  0  0  0  0  0  0  0
  -32.1350   -9.0260   24.0360 F   0  0  0  0  0  0  0  0  0  0  0  0
  -29.4620  -17.9320   18.8910 C   0  0  0  0  0  0  0  0  0  0  0  0
  -29.2290  -16.9540   19.7590 N   0  0  0  0  0  0  0  0  0  0  0  0
  -28.5390  -18.4760   18.2860 O   0  0  0  0  0  0  0  0  0  0  0  0
  -29.9830  -16.5180   20.2690 H   0  0  0  0  0  0  0  0  0  0  0  0
  -28.2830  -16.6370   19.9180 H   0  0  0  0  0  0  0  0  0  0  0  0
  -30.6260  -20.8520   18.1870 N   0  0  0  0  0  0  0  0  0  0  0  0
  -29.6150  -20.9140   18.2240 H   0  0  0  0  0  0  0  0  0  0  0  0
  -31.0740  -21.7170   17.9140 H   0  0  0  0  0  0  0  0  0  0  0  0
  1 49  1  0
  2  1  1  0
  3  5  1  0
  3  2  1  0
  4  3  1  0
  6  3  1  0
  7  6  1  0
  8 10  1  0
  8  7  1  0
  9 20  2  0
 10 15  1  0
 11 19  1  0
 11 21  1  0
 12 14  1  0
 12 18  1  0
 13 19  1  0
 14 13  1  0
 15 14  2  0
 16 10  2  0
 16 17  1  0
 17 12  2  0
 18 11  1  0
 19  9  1  0
 21 23  2  0
 22 21  1  0
 24 22  1  0
 25 34  2  0
 25 30  1  0
 26 22  1  0
 26 30  1  0
 27 26  1  0
 28 29  1  0
 28 27  1  0
 29 25  1  0
 30 31  2  0
 31 32  1  0
 33 32  2  0
 34 33  1  0
 35  9  1  0
 35 36  1  0
 35 40  1  0
 36 39  1  1
 36 37  1  0
 38 36  1  0
 40 43  1  0
 41 40  1  0
 41 45  1  0
 42 41  2  0
 45 44  1  0
 45 47  1  0
 47 46  1  0
 47 48  1  0
 50 49  1  0
 51 50  1  0
 52 51  1  0
 53 52  1  0
 54 53  1  0
 55 54  1  0
 57 56  1  0
 57 55  1  0
 58 64  1  0
 58 66  1  0
 59 64  1  0
 60 61  1  0
 60 59  1  0
 62 61  1  0
 62 71  1  0
 62 63  1  0
 64 63  1  0
 65 58  2  0
 66 57  1  0
 66 67  1  0
 68 69  2  0
 69 70  1  0
 69 88  1  0
 70 73  1  0
 71 68  1  0
 71 72  1  0
 72 70  2  0
 73 74  1  0
 74 75  2  0
 76 79  1  0
 76 75  1  0
 77 76  2  0
 78 77  1  0
 78 73  2  0
 79 80  1  0
 80 85  2  0
 80 81  1  0
 81 82  2  0
 82 83  1  0
 83 87  1  0
 84 83  2  0
 85 84  1  0
 86 85  1  0
 88 89  1  0
 89 92  1  0
 89 91  1  0
 90 88  2  0
 93 94  1  0
 93 68  1  0
 95 93  1  0
M  ISO  4   7 101   8 101  58 100  66 100
M  END
>  <TORSDO>  (81) 
F 28

>  <SCORE>  (81) 
-0.239

>  <name>  (81) 
84

>  <ligand_id>  (81) 
84

>  <original_smiles>  (81) 
[H]c1c([H])c([H])c2c(c1[H])C([H])([H])C([H])([H])C([H])([H])C2([H])N([H])C(=O)C1([H])N(C(=O)C([H])(N([H])C(=O)C([H])(N([H])C([H])([H])[H])C([H])([H])[H])C(C([H])([H])[H])(C([H])([H])[H])C([H])([H])[H])C([H])([H])c2c([H])c(OC([H])([H])C([H])([H])[N+]([H])([H])C([H])([H])C([H])([H])C([H])([H])C([H])([H])C([H])([H])C([H])([H])C([H])([H])C([H])([H])C([H])([H])C([H])(N([H])C(=O)N3C([H])([H])C([H])([H])C([H])([H])C([H])(n4nc(-c5c([H])c([H])c(Oc6c([H])c([H])c(F)c([H])c6F)c([H])c5[H])c(C(=O)N([H])[H])c4N([H])[H])C3([H])[H])C([H])([H])[H])c([H])c([H])c2C1([H])[H]

>  <smiles>  (81) 
[H]c1c([H])c([H])c2c(c1[H])C([H])([H])C([H])([H])C([H])([H])C2([H])N([H])C(=O)C1([H])N(C(=O)C([H])(N([H])C(=O)C([H])(N([H])C([H])([H])[H])C([H])([H])[H])C(C([H])([H])[H])(C([H])([H])[H])C([H])([H])[H])C([H])([H])c2c([H])c(OC([H])([H])C([H])([H])[N+]([H])([H])C([H])([H])C([H])([H])C([H])([H])C([H])([H])C([H])([H])C([H])([H])C([H])([H])C([H])([H])C([H])([H])C([H])(N([H])C(=O)N3C([H])([H])C([H])([H])C([H])([H])C([H])(n4nc(-c5c([H])c([H])c(Oc6c([H])c([H])c(F)c([H])c6F)c([H])c5[H])c(C(=O)N([H])[H])c4N([H])[H])C3([H])[H])C([H])([H])[H])c([H])c([H])c2C1([H])[H]

$$$$
85:0:0
     RDKit          3D

104111  0  0  1  0  0  0  0  0999 V2000
  -31.2410  -17.5710   23.3410 C   0  0  0  0  0  2  0  0  0  0  0  0
  -30.7550  -16.5480   22.3950 N   0  0  0  0  0  4  0  0  0  0  0  0
  -29.8520  -16.8400   22.0610 H   0  0  0  0  0  0  0  0  0  0  0  0
  -30.6250  -15.6770   22.8850 H   0  0  0  0  0  0  0  0  0  0  0  0
  -33.0400  -16.8290   21.3530 C   0  0  0  0  0  1  0  0  0  0  0  0
  -31.5870  -16.3340   21.1870 C   0  0  0  0  0  3  0  0  0  0  0  0
  -31.5070  -14.8600   20.7180 C   0  0  0  0  0  3  0  0  0  0  0  0
  -29.7980  -14.2680   19.0250 C   0  0  0  0  0  0  0  0  0  0  0  0
  -29.2020  -12.2140   17.8180 C   0  0  0  0  0  2  0  0  0  0  0  0
  -27.9570  -12.2790   16.9250 C   0  0  0  0  0  2  0  0  0  0  0  0
  -26.6940  -11.9770   17.7470 C   0  0  0  0  0  2  0  0  0  0  0  0
  -26.6020  -12.8500   19.0230 C   0  0  0  0  0  3  0  0  0  0  0  0
  -27.9190  -12.8140   19.8270 C   0  0  0  0  0  2  0  0  0  0  0  0
  -29.0390  -13.1580   18.9300 N   0  0  0  0  0  0  0  0  0  0  0  0
  -30.3910  -14.7940   18.0770 O   0  0  0  0  0  0  0  0  0  0  0  0
  -30.1450  -14.5090   20.2960 N   0  0  0  0  0  0  0  0  0  0  0  0
  -29.5990  -13.9850   20.9630 H   0  0  0  0  0  0  0  0  0  0  0  0
  -24.4930  -13.2570   20.4430 C   0  0  0  0  0  0  0  0  0  0  0  0
  -23.6050  -12.3950   21.0300 C   0  0  0  0  0  0  0  0  0  0  0  0
  -24.0840  -11.0800   20.7460 C   0  0  0  0  0  0  0  0  0  0  0  0
  -25.4580  -12.4600   19.8470 N   0  0  0  0  0  0  0  0  0  0  0  0
  -25.2320  -11.1420   20.0820 N   0  0  0  0  0  0  0  0  0  0  0  0
  -23.4890   -9.7660   21.0210 C   0  0  0  0  0  0  0  0  0  0  0  0
  -24.0970   -8.8490   21.9080 C   0  0  0  0  0  3  0  0  0  0  0  0
  -23.4960   -7.5990   22.1680 C   0  0  0  0  0  3  0  0  0  0  0  0
  -22.2720   -7.2560   21.5440 C   0  0  0  0  0  0  0  0  0  0  0  0
  -21.6830   -8.1620   20.6450 C   0  0  0  0  0  3  0  0  0  0  0  0
  -22.2860   -9.4040   20.3820 C   0  0  0  0  0  3  0  0  0  0  0  0
  -21.6280   -6.0550   21.7190 O   0  0  0  0  0  0  0  0  0  0  0  0
  -21.6260   -5.4070   22.9290 C   0  0  0  0  0  0  0  0  0  0  0  0
  -21.1270   -6.0200   24.0990 C   0  0  0  0  0  3  0  0  0  0  0  0
  -21.0790   -5.2940   25.3070 C   0  0  0  0  0  3  0  0  0  0  0  0
  -21.5190   -3.9570   25.3430 C   0  0  0  0  0  0  0  0  0  0  0  0
  -22.0120   -3.3460   24.1770 C   0  0  0  0  0  3  0  0  0  0  0  0
  -22.0620   -4.0680   22.9730 C   0  0  0  0  0  0  0  0  0  0  0  0
  -22.5170   -3.4670   21.8470 F   0  0  0  0  0  0  0  0  0  0  0  0
  -21.4670   -3.2580   26.5010 F   0  0  0  0  0  0  0  0  0  0  0  0
  -22.3320  -12.7670   21.7340 C   0  0  0  0  0  0  0  0  0  0  0  0
  -21.9500  -12.0060   22.7540 N   0  0  0  0  0  0  0  0  0  0  0  0
  -21.6880  -13.7640   21.4090 O   0  0  0  0  0  0  0  0  0  0  0  0
  -22.4870  -11.1980   23.0330 H   0  0  0  0  0  0  0  0  0  0  0  0
  -21.1120  -12.2380   23.2680 H   0  0  0  0  0  0  0  0  0  0  0  0
  -24.5510  -14.6440   20.3500 N   0  0  0  0  0  0  0  0  0  0  0  0
  -23.8200  -15.2440   20.7200 H   0  0  0  0  0  0  0  0  0  0  0  0
  -25.2640  -15.1560   19.8450 H   0  0  0  0  0  0  0  0  0  0  0  0
  -31.9800  -13.8320   21.7790 C   0  0  0  0  0  2  0  0  0  0  0  0
  -32.1480  -12.3960   21.2390 C   0  0  0  0  0  2  0  0  0  0  0  0
  -32.6610  -11.4230   22.3140 C   0  0  0  0  0  2  0  0  0  0  0  0
  -32.8490   -9.9830   21.8000 C   0  0  0  0  0  2  0  0  0  0  0  0
  -31.5690   -9.3120   21.5070 N   0  0  0  0  0  4  0  0  0  0  0  0
  -30.9660   -9.3270   22.3110 H   0  0  0  0  0  0  0  0  0  0  0  0
  -31.7400   -8.3520   21.2650 H   0  0  0  0  0  0  0  0  0  0  0  0
  -31.1000   -9.7460   20.7340 H   0  0  0  0  0  0  0  0  0  0  0  0
  -30.1250  -18.5510   23.7490 C   0  0  0  0  0  2  0  0  0  0  0  0
  -30.6670  -19.9680   24.0010 C   0  0  0  0  0  2  0  0  0  0  0  0
  -29.6650  -21.0820   23.6520 C   0  0  0  0  0  2  0  0  0  0  0  0
  -30.3600  -22.4430   23.4680 C   0  0  0  0  0  2  0  0  0  0  0  0
  -29.4140  -23.5580   22.9870 C   0  0  0  0  0  2  0  0  0  0  0  0
  -30.1790  -24.7500   22.5670 N   0  0  0  0  0  4  0  0  0  0  0  0
  -30.9850  -24.4140   22.0640 H   0  0  0  0  0  0  0  0  0  0  0  0
  -30.5160  -25.2370   23.3850 H   0  0  0  0  0  0  0  0  0  0  0  0
  -29.4390  -25.6800   21.6820 C   0  0  0  0  0  2  0  0  0  0  0  0
  -30.2920  -26.9010   21.2810 C   0  0  0  0  0  2  0  0  0  0  0  0
  -29.8130  -27.4720   20.0620 O   0  0  0  0  0  0  0  0  0  0  0  0
  -24.9270  -31.1830   23.6610 C   0  0  0  0  0  0  0  0  0  0  0  0
  -28.5290  -27.9470   20.1280 C   0  0  0  0  0  0  0  0  0  0  0  0
  -24.0860  -29.8250   21.7700 C   0  0  0  0  0  3  0  0  0  0  0  0
  -25.8690  -28.8670   20.2180 C   0  0  0  0  0  0  0  0  0  0  0  0
  -26.4700  -30.7440   21.7600 C   0  0  0  0  0  2  0  0  0  0  0  0
  -26.8650  -29.5350   20.9420 C   0  0  0  0  0  0  0  0  0  0  0  0
  -28.1980  -29.0770   20.9060 C   0  0  0  0  0  3  0  0  0  0  0  0
  -27.5270  -27.2930   19.3840 C   0  0  0  0  0  3  0  0  0  0  0  0
  -26.1930  -27.7410   19.4380 C   0  0  0  0  0  3  0  0  0  0  0  0
  -24.4670  -29.4210   20.3180 C   0  0  0  0  0  2  0  0  0  0  0  0
  -25.1750  -30.5920   22.4590 N   0  0  0  0  0  0  0  0  0  0  0  0
  -23.8020  -31.1360   24.1770 O   0  0  0  0  0  0  0  0  0  0  0  0
  -23.6530  -28.5560   22.5370 C   0  0  0  0  0  0  0  0  0  0  0  0
  -22.4710  -28.0250   22.1900 N   0  0  0  0  0  0  0  0  0  0  0  0
  -24.3830  -28.0560   23.3970 O   0  0  0  0  0  0  0  0  0  0  0  0
  -21.9320  -28.5010   21.4810 H   0  0  0  0  0  0  0  0  0  0  0  0
  -19.6770  -25.7530   21.8830 C   0  0  0  0  0  0  0  0  0  0  0  0
  -21.8730  -26.8120   22.7450 C   0  0  0  0  0  3  0  0  0  0  0  0
  -22.5760  -25.5470   22.2010 C   0  0  0  0  0  2  0  0  0  0  0  0
  -21.8960  -24.9650   20.9590 C   0  0  0  0  0  2  0  0  0  0  0  0
  -20.4410  -24.5950   21.2650 C   0  0  0  0  0  2  0  0  0  0  0  0
  -20.3510  -26.8020   22.5640 C   0  0  0  0  0  0  0  0  0  0  0  0
  -19.5960  -27.8700   23.0920 C   0  0  0  0  0  3  0  0  0  0  0  0
  -18.1960  -27.9030   22.9510 C   0  0  0  0  0  3  0  0  0  0  0  0
  -17.5330  -26.8550   22.2900 C   0  0  0  0  0  3  0  0  0  0  0  0
  -18.2720  -25.7810   21.7610 C   0  0  0  0  0  3  0  0  0  0  0  0
  -26.0360  -31.9640   24.4350 C   0  0  0  0  0  3  0  0  0  0  0  0
  -25.6120  -33.3670   24.5160 N   0  0  0  0  0  0  0  0  0  0  0  0
  -26.0820  -34.3470   23.7320 C   0  0  0  0  0  0  0  0  0  0  0  0
  -26.9810  -34.1730   22.9060 O   0  0  0  0  0  0  0  0  0  0  0  0
  -24.8380  -33.5700   25.1310 H   0  0  0  0  0  0  0  0  0  0  0  0
  -24.4490  -35.9890   22.7500 C   0  0  0  0  0  1  0  0  0  0  0  0
  -25.4520  -35.7440   23.8900 C   0  0  0  0  0  3  0  0  0  0  0  0
  -27.2920  -36.8120   25.1140 C   0  0  0  0  0  1  0  0  0  0  0  0
  -26.4480  -36.8370   23.9230 N   0  0  0  0  0  0  0  0  0  0  0  0
  -25.9910  -37.7440   23.8780 H   0  0  0  0  0  0  0  0  0  0  0  0
  -26.3190  -31.3800   25.8730 C   0  0  1  0  0  0  0  0  0  0  0  0
  -25.0470  -31.2150   26.7400 C   0  0  0  0  0  1  0  0  0  0  0  0
  -27.0060  -29.9980   25.7750 C   0  0  0  0  0  1  0  0  0  0  0  0
  -27.3000  -32.3060   26.6300 C   0  0  0  0  0  1  0  0  0  0  0  0
  1 54  1  0
  2  4  1  0
  2  1  1  0
  3  2  1  0
  6  5  1  0
  6  2  1  0
  7  6  1  0
  7 46  1  0
  8 16  1  0
  9 14  1  0
 10 11  1  0
 10  9  1  0
 12 11  1  0
 12 13  1  0
 12 21  1  0
 14  8  1  0
 14 13  1  0
 15  8  2  0
 16  7  1  0
 16 17  1  0
 18 19  2  0
 19 38  1  0
 20 23  1  0
 20 19  1  0
 21 22  1  0
 21 18  1  0
 22 20  2  0
 23 24  1  0
 24 25  2  0
 26 29  1  0
 26 25  1  0
 27 26  2  0
 28 27  1  0
 28 23  2  0
 29 30  1  0
 30 35  2  0
 30 31  1  0
 31 32  2  0
 32 33  1  0
 33 37  1  0
 34 33  2  0
 35 34  1  0
 36 35  1  0
 38 39  1  0
 39 41  1  0
 39 42  1  0
 40 38  2  0
 43 18  1  0
 43 44  1  0
 45 43  1  0
 47 46  1  0
 47 48  1  0
 49 48  1  0
 50 49  1  0
 50 51  1  0
 52 50  1  0
 53 50  1  0
 54 55  1  0
 56 55  1  0
 57 56  1  0
 58 57  1  0
 59 58  1  0
 59 61  1  0
 60 59  1  0
 62 59  1  0
 63 62  1  0
 64 66  1  0
 64 63  1  0
 65 76  2  0
 66 71  1  0
 67 75  1  0
 67 77  1  0
 68 74  1  0
 68 70  1  0
 69 75  1  0
 70 69  1  0
 71 70  2  0
 72 73  1  0
 72 66  2  0
 73 68  2  0
 74 67  1  0
 75 65  1  0
 77 79  2  0
 78 77  1  0
 80 78  1  0
 81 86  1  0
 82 78  1  0
 83 82  1  0
 84 85  1  0
 84 83  1  0
 85 81  1  0
 86 82  1  0
 86 87  2  0
 88 87  1  0
 89 88  2  0
 90 81  2  0
 90 89  1  0
 91 65  1  0
 91 92  1  0
 91101  1  0
 92 95  1  0
 93 97  1  0
 93 92  1  0
 94 93  2  0
 97 96  1  0
 97 99  1  0
 99 98  1  0
100 99  1  0
101104  1  1
101102  1  0
103101  1  0
M  ISO  4   8 100  16 100  63 101  64 101
M  END
>  <TORSDO>  (82) 
F 32

>  <SCORE>  (82) 
-2.230

>  <name>  (82) 
85

>  <ligand_id>  (82) 
85

>  <original_smiles>  (82) 
[H]c1c([H])c([H])c2c(c1[H])C([H])([H])C([H])([H])C([H])([H])C2([H])N([H])C(=O)C1([H])N(C(=O)C([H])(N([H])C(=O)C([H])(N([H])C([H])([H])[H])C([H])([H])[H])C(C([H])([H])[H])(C([H])([H])[H])C([H])([H])[H])C([H])([H])c2c([H])c(OC([H])([H])C([H])([H])[N+]([H])([H])C([H])([H])C([H])([H])C([H])([H])C([H])([H])C([H])([H])C([H])([H])[N+]([H])([H])C([H])(C([H])([H])[H])C([H])(N([H])C(=O)N3C([H])([H])C([H])([H])C([H])([H])C([H])(n4nc(-c5c([H])c([H])c(Oc6c([H])c([H])c(F)c([H])c6F)c([H])c5[H])c(C(=O)N([H])[H])c4N([H])[H])C3([H])[H])C([H])([H])C([H])([H])C([H])([H])C([H])([H])[N+]([H])([H])[H])c([H])c([H])c2C1([H])[H]

>  <smiles>  (82) 
[H]c1c([H])c([H])c2c(c1[H])C([H])([H])C([H])([H])C([H])([H])C2([H])N([H])C(=O)C1([H])N(C(=O)C([H])(N([H])C(=O)C([H])(N([H])C([H])([H])[H])C([H])([H])[H])C(C([H])([H])[H])(C([H])([H])[H])C([H])([H])[H])C([H])([H])c2c([H])c(OC([H])([H])C([H])([H])[N+]([H])([H])C([H])([H])C([H])([H])C([H])([H])C([H])([H])C([H])([H])C([H])([H])[N+]([H])([H])C([H])(C([H])([H])[H])C([H])(N([H])C(=O)N3C([H])([H])C([H])([H])C([H])([H])C([H])(n4nc(-c5c([H])c([H])c(Oc6c([H])c([H])c(F)c([H])c6F)c([H])c5[H])c(C(=O)N([H])[H])c4N([H])[H])C3([H])[H])C([H])([H])C([H])([H])C([H])([H])C([H])([H])[N+]([H])([H])[H])c([H])c([H])c2C1([H])[H]

$$$$
86:0:0
     RDKit          3D

101109  0  0  1  0  0  0  0  0999 V2000
  -29.6540  -19.7580   19.5480 C   0  0  0  0  0  3  0  0  0  0  0  0
  -27.7960  -18.2850   18.9470 C   0  0  0  0  0  3  0  0  0  0  0  0
  -27.4400  -20.6840   19.1610 C   0  0  0  0  0  3  0  0  0  0  0  0
  -29.1580  -18.4710   19.2740 C   0  0  0  0  0  0  0  0  0  0  0  0
  -28.8050  -20.8860   19.4810 C   0  0  0  0  0  0  0  0  0  0  0  0
  -26.9140  -19.3890   18.9250 C   0  0  0  0  0  0  0  0  0  0  0  0
  -29.3860  -22.2650   19.6870 C   0  0  0  0  0  0  0  0  0  0  0  0
  -28.5540  -23.3150   19.6340 N   0  0  0  0  0  0  0  0  0  0  0  0
  -30.6000  -22.4070   19.8580 O   0  0  0  0  0  0  0  0  0  0  0  0
  -27.5600  -23.1200   19.6230 H   0  0  0  0  0  0  0  0  0  0  0  0
  -28.9840  -24.7110   19.4710 C   0  0  0  0  0  2  0  0  0  0  0  0
  -28.8500  -25.5140   20.7900 C   0  0  0  0  0  2  0  0  0  0  0  0
  -28.9780  -26.9410   20.6530 O   0  0  0  0  0  0  0  0  0  0  0  0
  -24.7600  -32.0040   23.4020 C   0  0  0  0  0  0  0  0  0  0  0  0
  -27.7950  -27.6420   20.5560 C   0  0  0  0  0  0  0  0  0  0  0  0
  -23.7490  -30.5450   21.6860 C   0  0  0  0  0  3  0  0  0  0  0  0
  -25.3650  -29.0750   20.3860 C   0  0  0  0  0  0  0  0  0  0  0  0
  -26.2710  -31.0000   21.6890 C   0  0  0  0  0  2  0  0  0  0  0  0
  -26.4590  -29.6380   21.0510 C   0  0  0  0  0  0  0  0  0  0  0  0
  -27.6870  -28.9340   21.1250 C   0  0  0  0  0  3  0  0  0  0  0  0
  -26.6690  -27.0890   19.9030 C   0  0  0  0  0  3  0  0  0  0  0  0
  -25.4650  -27.8000   19.8080 C   0  0  0  0  0  3  0  0  0  0  0  0
  -24.0920  -29.8830   20.3290 C   0  0  0  0  0  2  0  0  0  0  0  0
  -24.9400  -31.1960   22.3190 N   0  0  0  0  0  0  0  0  0  0  0  0
  -23.6300  -32.2360   23.8540 O   0  0  0  0  0  0  0  0  0  0  0  0
  -23.0730  -29.4940   22.5930 C   0  0  0  0  0  0  0  0  0  0  0  0
  -21.7700  -29.2630   22.3710 N   0  0  0  0  0  0  0  0  0  0  0  0
  -23.7160  -28.8860   23.4530 O   0  0  0  0  0  0  0  0  0  0  0  0
  -21.3230  -29.7780   21.6270 H   0  0  0  0  0  0  0  0  0  0  0  0
  -18.3940  -28.0280   22.7210 C   0  0  0  0  0  0  0  0  0  0  0  0
  -20.9340  -28.3060   23.0940 C   0  0  0  0  0  3  0  0  0  0  0  0
  -21.0700  -26.8830   22.5040 C   0  0  0  0  0  2  0  0  0  0  0  0
  -20.0180  -26.6010   21.4260 C   0  0  0  0  0  2  0  0  0  0  0  0
  -18.6210  -26.6870   22.0450 C   0  0  0  0  0  2  0  0  0  0  0  0
  -19.4850  -28.7950   23.2040 C   0  0  0  0  0  0  0  0  0  0  0  0
  -19.2260  -30.0470   23.8030 C   0  0  0  0  0  3  0  0  0  0  0  0
  -17.9120  -30.5310   23.9240 C   0  0  0  0  0  3  0  0  0  0  0  0
  -16.8360  -29.7630   23.4470 C   0  0  0  0  0  3  0  0  0  0  0  0
  -17.0760  -28.5100   22.8520 C   0  0  0  0  0  3  0  0  0  0  0  0
  -25.9710  -32.6920   24.1120 C   0  0  0  0  0  3  0  0  0  0  0  0
  -26.3950  -31.9710   25.4500 C   0  0  1  0  0  0  0  0  0  0  0  0
  -25.2160  -31.7020   26.4160 C   0  0  0  0  0  1  0  0  0  0  0  0
  -27.0750  -30.6160   25.1520 C   0  0  0  0  0  1  0  0  0  0  0  0
  -27.4370  -32.8320   26.2000 C   0  0  0  0  0  1  0  0  0  0  0  0
  -25.5910  -34.0870   24.3700 N   0  0  0  0  0  0  0  0  0  0  0  0
  -25.9370  -35.1230   23.5930 C   0  0  0  0  0  0  0  0  0  0  0  0
  -26.6790  -35.0060   22.6130 O   0  0  0  0  0  0  0  0  0  0  0  0
  -24.9510  -34.2500   25.1330 H   0  0  0  0  0  0  0  0  0  0  0  0
  -24.1790  -36.8320   23.0460 C   0  0  0  0  0  1  0  0  0  0  0  0
  -25.3680  -36.5060   23.9620 C   0  0  0  0  0  3  0  0  0  0  0  0
  -27.4000  -37.5080   24.9110 C   0  0  0  0  0  1  0  0  0  0  0  0
  -26.3690  -37.5930   23.8810 N   0  0  0  0  0  0  0  0  0  0  0  0
  -25.9220  -38.5040   23.9520 H   0  0  0  0  0  0  0  0  0  0  0  0
  -30.0950  -17.3370   19.2910 C   0  0  0  0  0  0  0  0  0  0  0  0
  -30.4290  -16.7250   18.2740 O   0  0  0  0  0  0  0  0  0  0  0  0
  -30.6050  -16.9190   20.6800 C   0  0  0  0  0  2  0  0  0  0  0  0
  -30.9070  -14.4960   20.4380 C   0  0  0  0  0  0  0  0  0  0  0  0
  -30.5320  -12.3770   19.2700 C   0  0  0  0  0  2  0  0  0  0  0  0
  -29.5740  -12.6320   18.0850 C   0  0  0  0  0  2  0  0  0  0  0  0
  -28.1130  -12.4830   18.5420 C   0  0  0  0  0  2  0  0  0  0  0  0
  -27.7950  -13.3120   19.8160 C   0  0  0  0  0  3  0  0  0  0  0  0
  -28.8710  -13.0910   20.9070 C   0  0  0  0  0  2  0  0  0  0  0  0
  -30.1950  -13.3500   20.3170 N   0  0  0  0  0  0  0  0  0  0  0  0
  -32.0250  -14.6650   19.9490 O   0  0  0  0  0  0  0  0  0  0  0  0
  -30.2340  -15.5270   20.9520 N   0  0  0  0  0  0  0  0  0  0  0  0
  -29.3080  -15.3510   21.3100 H   0  0  0  0  0  0  0  0  0  0  0  0
  -25.4190  -13.9120   20.6120 C   0  0  0  0  0  0  0  0  0  0  0  0
  -24.3560  -13.1330   20.9750 C   0  0  0  0  0  0  0  0  0  0  0  0
  -24.8180  -11.7790   20.9080 C   0  0  0  0  0  0  0  0  0  0  0  0
  -26.4520  -13.0340   20.3180 N   0  0  0  0  0  0  0  0  0  0  0  0
  -26.0960  -11.7470   20.5560 N   0  0  0  0  0  0  0  0  0  0  0  0
  -24.1010  -10.5130   21.1020 C   0  0  0  0  0  0  0  0  0  0  0  0
  -24.5310   -9.5590   22.0490 C   0  0  0  0  0  3  0  0  0  0  0  0
  -23.8200   -8.3530   22.2240 C   0  0  0  0  0  3  0  0  0  0  0  0
  -22.6640   -8.0920   21.4480 C   0  0  0  0  0  0  0  0  0  0  0  0
  -22.2540   -9.0370   20.4930 C   0  0  0  0  0  3  0  0  0  0  0  0
  -22.9630  -10.2340   20.3200 C   0  0  0  0  0  3  0  0  0  0  0  0
  -21.9210   -6.9410   21.5290 O   0  0  0  0  0  0  0  0  0  0  0  0
  -21.8290   -6.2240   22.6930 C   0  0  0  0  0  0  0  0  0  0  0  0
  -21.2900   -6.7820   23.8720 C   0  0  0  0  0  3  0  0  0  0  0  0
  -21.1550   -5.9870   25.0270 C   0  0  0  0  0  3  0  0  0  0  0  0
  -21.5380   -4.6320   25.0010 C   0  0  0  0  0  0  0  0  0  0  0  0
  -22.0610   -4.0720   23.8210 C   0  0  0  0  0  3  0  0  0  0  0  0
  -22.2040   -4.8660   22.6720 C   0  0  0  0  0  0  0  0  0  0  0  0
  -22.6910   -4.3160   21.5330 F   0  0  0  0  0  0  0  0  0  0  0  0
  -21.3990   -3.8660   26.1070 F   0  0  0  0  0  0  0  0  0  0  0  0
  -22.9610  -13.5980   21.2900 C   0  0  0  0  0  0  0  0  0  0  0  0
  -22.2580  -12.8950   22.1660 N   0  0  0  0  0  0  0  0  0  0  0  0
  -22.5110  -14.6300   20.7920 O   0  0  0  0  0  0  0  0  0  0  0  0
  -22.6330  -12.0670   22.6050 H   0  0  0  0  0  0  0  0  0  0  0  0
  -21.3310  -13.2060   22.4240 H   0  0  0  0  0  0  0  0  0  0  0  0
  -25.6060  -15.2940   20.5260 N   0  0  0  0  0  0  0  0  0  0  0  0
  -25.2920  -15.6090   21.4370 H   0  0  0  0  0  0  0  0  0  0  0  0
  -26.5970  -15.4690   20.4400 H   0  0  0  0  0  0  0  0  0  0  0  0
  -25.4170  -19.1390   18.6530 C   0  0  0  0  0  3  0  0  0  0  0  0
  -24.8240  -18.3890   19.7700 N   0  0  0  0  0  4  0  0  0  0  0  0
  -25.0740  -18.7950   20.6540 H   0  0  0  0  0  0  0  0  0  0  0  0
  -25.1250  -17.4200   19.7350 H   0  0  0  0  0  0  0  0  0  0  0  0
  -23.8250  -18.3770   19.6920 H   0  0  0  0  0  0  0  0  0  0  0  0
  -25.0610  -21.1230   17.0610 C   0  0  0  0  0  1  0  0  0  0  0  0
  -24.5870  -20.4070   18.3330 C   0  0  0  0  0  2  0  0  0  0  0  0
  2  4  1  0
  3  5  2  0
  4 54  1  0
  4  1  2  0
  5  1  1  0
  5  7  1  0
  6  2  2  0
  6  3  1  0
  7  9  2  0
  8  7  1  0
 10  8  1  0
 11  8  1  0
 11 12  1  0
 13 12  1  0
 14 25  2  0
 15 13  1  0
 15 20  1  0
 16 24  1  0
 16 26  1  0
 17 19  1  0
 18 24  1  0
 19 20  2  0
 19 18  1  0
 21 15  2  0
 22 21  1  0
 22 17  2  0
 23 17  1  0
 23 16  1  0
 24 14  1  0
 26 28  2  0
 27 26  1  0
 29 27  1  0
 30 39  2  0
 30 35  1  0
 31 27  1  0
 31 35  1  0
 32 31  1  0
 33 34  1  0
 33 32  1  0
 34 30  1  0
 35 36  2  0
 36 37  1  0
 38 37  2  0
 39 38  1  0
 40 14  1  0
 40 45  1  0
 40 41  1  0
 41 44  1  1
 41 42  1  0
 43 41  1  0
 45 48  1  0
 46 50  1  0
 46 45  1  0
 47 46  2  0
 50 49  1  0
 52 53  1  0
 52 50  1  0
 52 51  1  0
 54 56  1  0
 55 54  2  0
 56 65  1  0
 57 65  1  0
 58 63  1  0
 59 60  1  0
 59 58  1  0
 61 60  1  0
 61 70  1  0
 61 62  1  0
 63 57  1  0
 63 62  1  0
 64 57  2  0
 65 66  1  0
 67 68  2  0
 68 87  1  0
 69 68  1  0
 69 72  1  0
 70 71  1  0
 70 67  1  0
 71 69  2  0
 72 73  1  0
 73 74  2  0
 75 78  1  0
 75 74  1  0
 76 75  2  0
 77 76  1  0
 77 72  2  0
 78 79  1  0
 79 80  1  0
 80 81  2  0
 82 81  1  0
 82 86  1  0
 83 82  2  0
 84 79  2  0
 84 83  1  0
 85 84  1  0
 87 88  1  0
 88 91  1  0
 88 90  1  0
 89 87  2  0
 92 67  1  0
 92 93  1  0
 94 92  1  0
 95101  1  0
 95  6  1  0
 95 96  1  0
 96 97  1  0
 98 96  1  0
 99 96  1  0
100101  1  0
M  ISO  4  12 101  13 101  57 100  65 100
M  END
>  <TORSDO>  (83) 
F 24

>  <SCORE>  (83) 
-11.291

>  <name>  (83) 
86

>  <ligand_id>  (83) 
86

>  <original_smiles>  (83) 
[H]c1c([H])c([H])c2c(c1[H])C([H])([H])C([H])([H])C([H])([H])C2([H])N([H])C(=O)C1([H])N(C(=O)C([H])(N([H])C(=O)C([H])(N([H])C([H])([H])[H])C([H])([H])[H])C(C([H])([H])[H])(C([H])([H])[H])C([H])([H])[H])C([H])([H])c2c([H])c(OC([H])([H])C([H])([H])N([H])C(=O)c3c([H])c(C(=O)C([H])([H])N([H])C(=O)N4C([H])([H])C([H])([H])C([H])([H])C([H])(n5nc(-c6c([H])c([H])c(Oc7c([H])c([H])c(F)c([H])c7F)c([H])c6[H])c(C(=O)N([H])[H])c5N([H])[H])C4([H])[H])c([H])c(C([H])(C([H])([H])C([H])([H])[H])[N+]([H])([H])[H])c3[H])c([H])c([H])c2C1([H])[H]

>  <smiles>  (83) 
[H]c1c([H])c([H])c2c(c1[H])C([H])([H])C([H])([H])C([H])([H])C2([H])N([H])C(=O)C1([H])N(C(=O)C([H])(N([H])C(=O)C([H])(N([H])C([H])([H])[H])C([H])([H])[H])C(C([H])([H])[H])(C([H])([H])[H])C([H])([H])[H])C([H])([H])c2c([H])c(OC([H])([H])C([H])([H])N([H])C(=O)c3c([H])c(C(=O)C([H])([H])N([H])C(=O)N4C([H])([H])C([H])([H])C([H])([H])C([H])(n5nc(-c6c([H])c([H])c(Oc7c([H])c([H])c(F)c([H])c7F)c([H])c6[H])c(C(=O)N([H])[H])c5N([H])[H])C4([H])[H])c([H])c(C([H])(C([H])([H])C([H])([H])[H])[N+]([H])([H])[H])c3[H])c([H])c([H])c2C1([H])[H]

$$$$
87:0:0
     RDKit          3D

 97105  0  0  1  0  0  0  0  0999 V2000
  -30.2800  -22.6560   20.8780 C   0  0  0  0  0  2  0  0  0  0  0  0
  -29.9770  -24.1240   20.6040 C   0  0  0  0  0  2  0  0  0  0  0  0
  -31.0230  -24.7510   19.6580 C   0  0  0  0  0  2  0  0  0  0  0  0
  -30.7810  -26.1840   19.3990 N   0  0  0  0  0  4  0  0  0  0  0  0
  -31.6830  -26.6260   19.3120 H   0  0  0  0  0  0  0  0  0  0  0  0
  -30.3260  -26.5920   20.2030 H   0  0  0  0  0  0  0  0  0  0  0  0
  -29.9990  -26.5120   18.1840 C   0  0  0  0  0  2  0  0  0  0  0  0
  -28.4920  -26.2670   18.3510 C   0  0  0  0  0  2  0  0  0  0  0  0
  -28.1510  -26.6070   19.6970 O   0  0  0  0  0  0  0  0  0  0  0  0
  -24.6180  -31.6650   23.2130 C   0  0  0  0  0  0  0  0  0  0  0  0
  -26.9770  -27.2940   19.8410 C   0  0  0  0  0  0  0  0  0  0  0  0
  -23.2920  -30.3640   21.5780 C   0  0  0  0  0  3  0  0  0  0  0  0
  -24.6260  -28.8310   20.0390 C   0  0  0  0  0  0  0  0  0  0  0  0
  -25.8120  -30.6520   21.2790 C   0  0  0  0  0  2  0  0  0  0  0  0
  -25.8200  -29.3010   20.6000 C   0  0  0  0  0  0  0  0  0  0  0  0
  -26.9950  -28.5290   20.5170 C   0  0  0  0  0  3  0  0  0  0  0  0
  -25.7640  -26.8080   19.3060 C   0  0  0  0  0  3  0  0  0  0  0  0
  -24.5870  -27.5760   19.4020 C   0  0  0  0  0  3  0  0  0  0  0  0
  -23.4190  -29.7350   20.1640 C   0  0  0  0  0  2  0  0  0  0  0  0
  -24.5950  -30.9040   22.0820 N   0  0  0  0  0  0  0  0  0  0  0  0
  -23.5710  -31.9490   23.8110 O   0  0  0  0  0  0  0  0  0  0  0  0
  -22.6500  -29.3260   22.5290 C   0  0  0  0  0  0  0  0  0  0  0  0
  -21.3310  -29.1220   22.3860 N   0  0  0  0  0  0  0  0  0  0  0  0
  -23.3360  -28.7100   23.3480 O   0  0  0  0  0  0  0  0  0  0  0  0
  -20.8400  -29.6720   21.6940 H   0  0  0  0  0  0  0  0  0  0  0  0
  -17.9910  -27.8000   22.7710 C   0  0  0  0  0  0  0  0  0  0  0  0
  -20.5200  -28.1700   23.1480 C   0  0  0  0  0  3  0  0  0  0  0  0
  -20.7080  -26.7330   22.6150 C   0  0  0  0  0  2  0  0  0  0  0  0
  -19.6670  -26.3370   21.5650 C   0  0  0  0  0  2  0  0  0  0  0  0
  -18.2510  -26.4420   22.1420 C   0  0  0  0  0  2  0  0  0  0  0  0
  -19.0570  -28.6190   23.2280 C   0  0  0  0  0  0  0  0  0  0  0  0
  -18.7610  -29.8890   23.7720 C   0  0  0  0  0  3  0  0  0  0  0  0
  -17.4330  -30.3400   23.8660 C   0  0  0  0  0  3  0  0  0  0  0  0
  -16.3800  -29.5170   23.4280 C   0  0  0  0  0  3  0  0  0  0  0  0
  -16.6590  -28.2500   22.8860 C   0  0  0  0  0  3  0  0  0  0  0  0
  -25.9520  -32.2270   23.7960 C   0  0  0  0  0  3  0  0  0  0  0  0
  -26.4570  -31.4410   25.0690 C   0  0  1  0  0  0  0  0  0  0  0  0
  -25.3690  -31.2380   26.1490 C   0  0  0  0  0  1  0  0  0  0  0  0
  -26.9860  -30.0440   24.6650 C   0  0  0  0  0  1  0  0  0  0  0  0
  -27.6410  -32.1940   25.7170 C   0  0  0  0  0  1  0  0  0  0  0  0
  -25.7300  -33.6440   24.1150 N   0  0  0  0  0  0  0  0  0  0  0  0
  -26.1180  -34.6660   23.3420 C   0  0  0  0  0  0  0  0  0  0  0  0
  -26.7770  -34.5160   22.3090 O   0  0  0  0  0  0  0  0  0  0  0  0
  -25.1570  -33.8420   24.9230 H   0  0  0  0  0  0  0  0  0  0  0  0
  -24.4980  -36.5530   22.9710 C   0  0  0  0  0  1  0  0  0  0  0  0
  -25.7140  -36.0850   23.7880 C   0  0  0  0  0  3  0  0  0  0  0  0
  -27.9000  -36.8420   24.6040 C   0  0  0  0  0  1  0  0  0  0  0  0
  -26.8040  -37.0760   23.6670 N   0  0  0  0  0  0  0  0  0  0  0  0
  -26.4550  -38.0180   23.8160 H   0  0  0  0  0  0  0  0  0  0  0  0
  -29.2730  -22.0000   21.8360 C   0  0  0  0  0  2  0  0  0  0  0  0
  -29.1950  -19.6020   21.0790 C   0  0  0  0  0  3  0  0  0  0  0  0
  -30.5040  -20.1590   23.0650 C   0  0  0  0  0  3  0  0  0  0  0  0
  -29.6800  -18.2860   21.1300 C   0  0  0  0  0  3  0  0  0  0  0  0
  -30.9920  -18.8400   23.1150 C   0  0  0  0  0  3  0  0  0  0  0  0
  -29.6360  -20.5460   22.0240 C   0  0  0  0  0  0  0  0  0  0  0  0
  -30.6070  -17.9140   22.1240 C   0  0  0  0  0  0  0  0  0  0  0  0
  -31.2310  -16.5400   22.0620 C   0  0  0  0  0  2  0  0  0  0  0  0
  -32.1760  -16.4300   20.8460 C   0  0  0  0  0  2  0  0  0  0  0  0
  -32.6530  -15.0040   20.5510 C   0  0  0  0  0  2  0  0  0  0  0  0
  -31.2730  -13.7070   18.9130 C   0  0  0  0  0  0  0  0  0  0  0  0
  -30.4770  -11.5710   17.9970 C   0  0  0  0  0  2  0  0  0  0  0  0
  -29.3140  -11.6550   17.0010 C   0  0  0  0  0  2  0  0  0  0  0  0
  -27.9720  -11.6630   17.7480 C   0  0  0  0  0  2  0  0  0  0  0  0
  -27.9250  -12.7430   18.8560 C   0  0  0  0  0  3  0  0  0  0  0  0
  -29.1670  -12.6610   19.7700 C   0  0  0  0  0  2  0  0  0  0  0  0
  -30.3840  -12.6920   18.9380 N   0  0  0  0  0  0  0  0  0  0  0  0
  -31.9660  -14.0070   17.9340 O   0  0  0  0  0  0  0  0  0  0  0  0
  -31.5450  -14.1490   20.1460 N   0  0  0  0  0  0  0  0  0  0  0  0
  -30.9810  -13.7470   20.8820 H   0  0  0  0  0  0  0  0  0  0  0  0
  -25.8930  -13.6650   20.1450 C   0  0  0  0  0  0  0  0  0  0  0  0
  -24.8090  -13.0440   20.7100 C   0  0  0  0  0  0  0  0  0  0  0  0
  -24.9980  -11.6470   20.4930 C   0  0  0  0  0  0  0  0  0  0  0  0
  -26.6850  -12.6520   19.6260 N   0  0  0  0  0  0  0  0  0  0  0  0
  -26.1590  -11.4270   19.8890 N   0  0  0  0  0  0  0  0  0  0  0  0
  -24.1170  -10.5060   20.7760 C   0  0  0  0  0  0  0  0  0  0  0  0
  -24.5290   -9.4400   21.6050 C   0  0  0  0  0  3  0  0  0  0  0  0
  -23.6560   -8.3630   21.8750 C   0  0  0  0  0  3  0  0  0  0  0  0
  -22.3550   -8.3480   21.3190 C   0  0  0  0  0  0  0  0  0  0  0  0
  -21.9580   -9.4020   20.4750 C   0  0  0  0  0  3  0  0  0  0  0  0
  -22.8300  -10.4690   20.2030 C   0  0  0  0  0  3  0  0  0  0  0  0
  -21.4480   -7.3330   21.5050 O   0  0  0  0  0  0  0  0  0  0  0  0
  -21.4420   -6.5750   22.6480 C   0  0  0  0  0  0  0  0  0  0  0  0
  -21.2740   -7.1540   23.9250 C   0  0  0  0  0  3  0  0  0  0  0  0
  -21.2040   -6.3310   25.0680 C   0  0  0  0  0  3  0  0  0  0  0  0
  -21.2920   -4.9320   24.9350 C   0  0  0  0  0  0  0  0  0  0  0  0
  -21.4530   -4.3540   23.6640 C   0  0  0  0  0  3  0  0  0  0  0  0
  -21.5250   -5.1740   22.5240 C   0  0  0  0  0  0  0  0  0  0  0  0
  -21.6590   -4.6110   21.2990 F   0  0  0  0  0  0  0  0  0  0  0  0
  -21.2160   -4.1400   26.0310 F   0  0  0  0  0  0  0  0  0  0  0  0
  -23.6180  -13.7140   21.3330 C   0  0  0  0  0  0  0  0  0  0  0  0
  -23.0040  -13.0770   22.3240 N   0  0  0  0  0  0  0  0  0  0  0  0
  -23.2520  -14.8320   20.9730 O   0  0  0  0  0  0  0  0  0  0  0  0
  -23.3150  -12.1660   22.6310 H   0  0  0  0  0  0  0  0  0  0  0  0
  -22.2140  -13.5050   22.7820 H   0  0  0  0  0  0  0  0  0  0  0  0
  -26.2600  -15.0010   20.0130 N   0  0  0  0  0  0  0  0  0  0  0  0
  -25.6760  -15.7630   20.3390 H   0  0  0  0  0  0  0  0  0  0  0  0
  -27.1000  -15.3180   19.5430 H   0  0  0  0  0  0  0  0  0  0  0  0
  1 50  1  0
  2  1  1  0
  3  2  1  0
  4  3  1  0
  4  6  1  0
  5  4  1  0
  7  8  1  0
  7  4  1  0
  8  9  1  0
  9 11  1  0
 10 21  2  0
 11 16  1  0
 12 20  1  0
 12 22  1  0
 13 19  1  0
 13 15  1  0
 14 20  1  0
 15 14  1  0
 16 15  2  0
 17 18  1  0
 17 11  2  0
 18 13  2  0
 19 12  1  0
 20 10  1  0
 22 24  2  0
 23 22  1  0
 25 23  1  0
 26 35  2  0
 26 31  1  0
 27 23  1  0
 27 31  1  0
 28 27  1  0
 29 30  1  0
 29 28  1  0
 30 26  1  0
 31 32  2  0
 32 33  1  0
 34 33  2  0
 35 34  1  0
 36 10  1  0
 36 41  1  0
 36 37  1  0
 37 40  1  1
 37 38  1  0
 39 37  1  0
 41 44  1  0
 42 46  1  0
 42 41  1  0
 43 42  2  0
 46 45  1  0
 48 46  1  0
 48 49  1  0
 48 47  1  0
 50 55  1  0
 51 53  2  0
 51 55  1  0
 52 54  1  0
 53 56  1  0
 55 52  2  0
 56 54  2  0
 57 56  1  0
 58 57  1  0
 59 58  1  0
 60 66  1  0
 60 68  1  0
 61 66  1  0
 62 63  1  0
 62 61  1  0
 64 63  1  0
 64 73  1  0
 64 65  1  0
 66 65  1  0
 67 60  2  0
 68 59  1  0
 68 69  1  0
 70 71  2  0
 71 90  1  0
 72 71  1  0
 72 75  1  0
 73 74  1  0
 73 70  1  0
 74 72  2  0
 75 76  1  0
 76 77  2  0
 78 81  1  0
 78 77  1  0
 79 78  2  0
 80 79  1  0
 80 75  2  0
 81 82  1  0
 82 83  1  0
 83 84  2  0
 85 84  1  0
 85 89  1  0
 86 85  2  0
 87 82  2  0
 87 86  1  0
 88 87  1  0
 90 91  1  0
 91 93  1  0
 91 94  1  0
 92 90  2  0
 95 70  1  0
 95 96  1  0
 97 95  1  0
M  ISO  4   8 101   9 101  60 100  68 100
M  END
>  <TORSDO>  (84) 
F 26

>  <SCORE>  (84) 
-8.141

>  <name>  (84) 
87

>  <ligand_id>  (84) 
87

>  <original_smiles>  (84) 
[H]c1c([H])c([H])c2c(c1[H])C([H])([H])C([H])([H])C([H])([H])C2([H])N([H])C(=O)C1([H])N(C(=O)C([H])(N([H])C(=O)C([H])(N([H])C([H])([H])[H])C([H])([H])[H])C(C([H])([H])[H])(C([H])([H])[H])C([H])([H])[H])C([H])([H])c2c([H])c(OC([H])([H])C([H])([H])[N+]([H])([H])C([H])([H])C([H])([H])C([H])([H])C([H])([H])c3c([H])c([H])c(C([H])([H])C([H])([H])C([H])([H])N([H])C(=O)N4C([H])([H])C([H])([H])C([H])([H])C([H])(n5nc(-c6c([H])c([H])c(Oc7c([H])c([H])c(F)c([H])c7F)c([H])c6[H])c(C(=O)N([H])[H])c5N([H])[H])C4([H])[H])c([H])c3[H])c([H])c([H])c2C1([H])[H]

>  <smiles>  (84) 
[H]c1c([H])c([H])c2c(c1[H])C([H])([H])C([H])([H])C([H])([H])C2([H])N([H])C(=O)C1([H])N(C(=O)C([H])(N([H])C(=O)C([H])(N([H])C([H])([H])[H])C([H])([H])[H])C(C([H])([H])[H])(C([H])([H])[H])C([H])([H])[H])C([H])([H])c2c([H])c(OC([H])([H])C([H])([H])[N+]([H])([H])C([H])([H])C([H])([H])C([H])([H])C([H])([H])c3c([H])c([H])c(C([H])([H])C([H])([H])C([H])([H])N([H])C(=O)N4C([H])([H])C([H])([H])C([H])([H])C([H])(n5nc(-c6c([H])c([H])c(Oc7c([H])c([H])c(F)c([H])c7F)c([H])c6[H])c(C(=O)N([H])[H])c5N([H])[H])C4([H])[H])c([H])c3[H])c([H])c([H])c2C1([H])[H]

$$$$
88:0:0
     RDKit          3D

 95 95  0  0  1  0  0  0  0  0999 V2000
  -20.4090  -26.6080   23.9440 C   0  0  0  0  0  1  0  0  0  0  0  0
  -20.2090  -26.6040   21.0310 C   0  0  0  0  0 15  0  0  0  0  0  0
  -21.5360  -25.1480   20.2100 C   0  0  0  0  0 15  0  0  0  0  0  0
  -22.5210  -23.4360   20.7140 C   0  0  0  0  0  1  0  0  0  0  0  0
  -24.0140  -22.4590   20.3580 N   0  0  0  0  0  4  0  0  0  0  0  0
  -24.7330  -23.0860   20.6940 H   0  0  0  0  0  0  0  0  0  0  0  0
  -24.1200  -22.5190   19.3520 H   0  0  0  0  0  0  0  0  0  0  0  0
  -24.7330  -20.8440   20.8090 C   0  0  0  0  0  1  0  0  0  0  0  0
  -26.2130  -19.5820   20.2870 C   0  0  0  0  0 15  0  0  0  0  0  0
  -27.4980  -18.1120   20.8760 C   0  0  0  0  0  1  0  0  0  0  0  0
  -29.5820  -15.5400   20.4300 C   0  0  0  0  0  0  0  0  0  0  0  0
  -30.3290  -13.0740   19.5890 C   0  0  0  0  0  2  0  0  0  0  0  0
  -29.4970  -12.6320   18.3450 C   0  0  0  0  0  2  0  0  0  0  0  0
  -28.0580  -12.2430   18.7430 C   0  0  0  0  0  2  0  0  0  0  0  0
  -27.5120  -13.2060   19.8140 C   0  0  0  0  0  3  0  0  0  0  0  0
  -28.4560  -13.3470   20.9960 C   0  0  0  0  0  2  0  0  0  0  0  0
  -29.5210  -14.0990   20.3950 N   0  0  0  0  0  0  0  0  0  0  0  0
  -30.8090  -15.8110   20.2720 O   0  0  0  0  0  0  0  0  0  0  0  0
  -28.3110  -16.5130   20.5050 N   0  0  0  0  0  0  0  0  0  0  0  0
  -27.5370  -15.8720   20.5550 H   0  0  0  0  0  0  0  0  0  0  0  0
  -25.1980  -13.8130   20.5790 C   0  0  0  0  0  0  0  0  0  0  0  0
  -24.1430  -13.0410   20.9370 C   0  0  0  0  0  0  0  0  0  0  0  0
  -24.5980  -11.6820   20.8810 C   0  0  0  0  0  0  0  0  0  0  0  0
  -26.2060  -12.9150   20.2880 N   0  0  0  0  0  0  0  0  0  0  0  0
  -25.8780  -11.6330   20.5570 N   0  0  0  0  0  0  0  0  0  0  0  0
  -23.8800  -10.4280   21.0480 C   0  0  0  0  0  0  0  0  0  0  0  0
  -24.3470   -9.4210   21.9220 C   0  0  0  0  0  3  0  0  0  0  0  0
  -23.6260   -8.2180   22.0750 C   0  0  0  0  0  3  0  0  0  0  0  0
  -22.4230   -8.0210   21.3530 C   0  0  0  0  0  0  0  0  0  0  0  0
  -21.9800   -9.0140   20.4620 C   0  0  0  0  0  3  0  0  0  0  0  0
  -22.7030  -10.2070   20.3090 C   0  0  0  0  0  3  0  0  0  0  0  0
  -21.6590   -6.8820   21.4260 O   0  0  0  0  0  0  0  0  0  0  0  0
  -21.6830   -6.0720   22.5300 C   0  0  0  0  0  0  0  0  0  0  0  0
  -21.3990   -6.5630   23.8230 C   0  0  0  0  0  3  0  0  0  0  0  0
  -21.3650   -5.6780   24.9190 C   0  0  0  0  0  3  0  0  0  0  0  0
  -21.6040   -4.3050   24.7230 C   0  0  0  0  0  0  0  0  0  0  0  0
  -21.8820   -3.8140   23.4360 C   0  0  0  0  0  3  0  0  0  0  0  0
  -21.9190   -4.6950   22.3410 C   0  0  0  0  0  0  0  0  0  0  0  0
  -22.1670   -4.2150   21.0990 F   0  0  0  0  0  0  0  0  0  0  0  0
  -21.5630   -3.4530   25.7750 F   0  0  0  0  0  0  0  0  0  0  0  0
  -22.7500  -13.5140   21.2090 C   0  0  0  0  0  0  0  0  0  0  0  0
  -22.0180  -12.8140   22.0630 N   0  0  0  0  0  0  0  0  0  0  0  0
  -22.3280  -14.5500   20.6940 O   0  0  0  0  0  0  0  0  0  0  0  0
  -22.3790  -11.9710   22.4880 H   0  0  0  0  0  0  0  0  0  0  0  0
  -21.0820  -13.1160   22.2900 H   0  0  0  0  0  0  0  0  0  0  0  0
  -25.3610  -15.1940   20.4330 N   0  0  0  0  0  0  0  0  0  0  0  0
  -24.5580  -15.7780   20.6450 H   0  0  0  0  0  0  0  0  0  0  0  0
  -26.0170  -15.6670   19.8230 H   0  0  0  0  0  0  0  0  0  0  0  0
  -21.9430  -25.8520   24.7160 C   0  0  0  0  0  2  0  0  0  0  0  0
  -23.6120  -25.8850   24.4330 N   0  0  0  0  0  4  0  0  0  0  0  0
  -23.9800  -25.2410   25.1030 H   0  0  0  0  0  0  0  0  0  0  0  0
  -23.9270  -26.7820   24.7870 H   0  0  0  0  0  0  0  0  0  0  0  0
  -24.5950  -25.5560   23.1370 C   0  0  0  0  0  3  0  0  0  0  0  0
  -26.0900  -26.3720   22.7180 C   0  0  0  0  0  3  0  0  0  0  0  0
  -27.0810  -26.3190   21.4570 O   0  0  0  0  0  0  0  0  0  0  0  0
  -24.6910  -31.9330   23.1810 C   0  0  0  0  0  0  0  0  0  0  0  0
  -26.8900  -27.2840   20.5000 C   0  0  0  0  0  0  0  0  0  0  0  0
  -23.5260  -30.6960   21.4200 C   0  0  0  0  0  3  0  0  0  0  0  0
  -24.8720  -29.0760   20.0190 C   0  0  0  0  0  0  0  0  0  0  0  0
  -26.0270  -30.9030   21.3200 C   0  0  0  0  0  2  0  0  0  0  0  0
  -26.0280  -29.5330   20.6700 C   0  0  0  0  0  0  0  0  0  0  0  0
  -27.0840  -28.6370   20.8760 C   0  0  0  0  0  3  0  0  0  0  0  0
  -25.8970  -26.9140   19.6000 C   0  0  0  0  0  3  0  0  0  0  0  0
  -24.8080  -27.7900   19.4580 C   0  0  0  0  0  3  0  0  0  0  0  0
  -23.6990  -30.0090   20.0300 C   0  0  0  0  0  2  0  0  0  0  0  0
  -24.7750  -31.2090   22.0300 N   0  0  0  0  0  0  0  0  0  0  0  0
  -23.6030  -32.1940   23.7170 O   0  0  0  0  0  0  0  0  0  0  0  0
  -22.9320  -29.6690   22.3290 C   0  0  0  0  0  0  0  0  0  0  0  0
  -21.6700  -29.4670   22.0320 N   0  0  0  0  0  4  0  0  0  0  0  0
  -23.5850  -29.0760   23.2060 O   0  0  0  0  0  0  0  0  0  0  0  0
  -21.1960  -29.9950   21.3100 H   0  0  0  0  0  0  0  0  0  0  0  0
  -18.3030  -27.6100   22.7500 C   0  0  0  0  0  0  0  0  0  0  0  0
  -21.0570  -28.3870   22.5970 C   0  0  0  0  0  0  0  0  0  0  0  0
  -21.9660  -26.6830   22.3270 C   0  0  0  0  0  1  0  0  0  0  0  0
  -20.3760  -24.9410   22.4780 C   0  0  0  0  0 15  0  0  0  0  0  0
  -18.5480  -25.8450   22.5790 C   0  0  0  0  0  1  0  0  0  0  0  0
  -19.3900  -28.6570   22.8250 C   0  0  0  0  0  0  0  0  0  0  0  0
  -19.0610  -29.9260   23.4440 C   0  0  0  0  0  3  0  0  0  0  0  0
  -17.7530  -30.3550   23.7830 C   0  0  0  0  0  3  0  0  0  0  0  0
  -16.7030  -29.4810   23.4830 C   0  0  0  0  0  3  0  0  0  0  0  0
  -16.9820  -28.1530   23.0240 C   0  0  0  0  0  3  0  0  0  0  0  0
  -25.9590  -32.5120   23.8440 C   0  0  0  0  0  3  0  0  0  0  0  0
  -25.6320  -33.8810   24.2470 N   0  0  0  0  0  0  0  0  0  0  0  0
  -25.9120  -34.9630   23.5130 C   0  0  0  0  0  0  0  0  0  0  0  0
  -26.5460  -34.9050   22.4550 O   0  0  0  0  0  0  0  0  0  0  0  0
  -25.0930  -33.9950   25.0940 H   0  0  0  0  0  0  0  0  0  0  0  0
  -24.1540  -36.7360   23.2580 C   0  0  0  0  0  1  0  0  0  0  0  0
  -25.4150  -36.3210   24.0320 C   0  0  0  0  0  3  0  0  0  0  0  0
  -27.5630  -37.1910   24.8440 C   0  0  0  0  0  1  0  0  0  0  0  0
  -26.4320  -37.3910   23.9440 N   0  0  0  0  0  0  0  0  0  0  0  0
  -26.0210  -38.2980   24.1400 H   0  0  0  0  0  0  0  0  0  0  0  0
  -26.4590  -31.6650   25.0760 C   0  0  1  0  0  0  0  0  0  0  0  0
  -25.3620  -31.3830   26.1330 C   0  0  0  0  0  1  0  0  0  0  0  0
  -27.0320  -30.3030   24.6170 C   0  0  0  0  0  1  0  0  0  0  0  0
  -27.6120  -32.4220   25.7770 C   0  0  0  0  0  1  0  0  0  0  0  0
  1 49  1  0
  5  6  1  0
  5  4  1  0
  5  8  1  0
  7  5  1  0
 11 19  1  0
 12 17  1  0
 13 14  1  0
 13 12  1  0
 15 14  1  0
 15 24  1  0
 15 16  1  0
 17 11  1  0
 17 16  1  0
 18 11  2  0
 19 20  1  0
 19 10  1  0
 21 22  2  0
 22 41  1  0
 23 22  1  0
 23 26  1  0
 24 25  1  0
 24 21  1  0
 25 23  2  0
 26 27  1  0
 27 28  2  0
 29 32  1  0
 29 28  1  0
 30 29  2  0
 31 30  1  0
 31 26  2  0
 32 33  1  0
 33 34  1  0
 34 35  2  0
 36 35  1  0
 36 40  1  0
 37 36  2  0
 38 33  2  0
 38 37  1  0
 39 38  1  0
 41 42  1  0
 42 45  1  0
 42 44  1  0
 43 41  2  0
 46 21  1  0
 46 47  1  0
 48 46  1  0
 50 49  1  0
 50 52  1  0
 50 51  1  0
 53 50  1  0
 54 53  2  0
 55 54  1  0
 56 67  2  0
 57 62  1  0
 57 55  1  0
 58 66  1  0
 58 68  1  0
 59 65  1  0
 59 61  1  0
 60 66  1  0
 61 62  2  0
 61 60  1  0
 63 57  2  0
 64 63  1  0
 64 59  2  0
 65 58  1  0
 66 56  1  0
 68 70  2  0
 69 68  1  0
 69 73  2  0
 71 69  1  0
 72 77  2  0
 72 81  1  0
 73 77  1  0
 74 73  1  0
 76 72  1  0
 77 78  1  0
 78 79  2  0
 80 79  1  0
 81 80  2  0
 82 56  1  0
 82 83  1  0
 82 92  1  0
 83 86  1  0
 84 88  1  0
 84 83  1  0
 85 84  2  0
 88 87  1  0
 90 88  1  0
 90 91  1  0
 90 89  1  0
 92 95  1  1
 92 93  1  0
 94 92  1  0
M  ISO  4  11 100  19 100  54 101  55 101
M  END
>  <TORSDO>  (85) 
F 27

>  <SCORE>  (85) 
-1.710

>  <name>  (85) 
88

>  <ligand_id>  (85) 
88

>  <original_smiles>  (85) 
[H]c1c([H])c([H])c2c(c1[H])C([H])([H])C([H])([H])C([H])([H])C2([H])N([H])C(=O)C1([H])N(C(=O)C([H])(N([H])C(=O)C([H])(N([H])C([H])([H])[H])C([H])([H])[H])C(C([H])([H])[H])(C([H])([H])[H])C([H])([H])[H])C([H])([H])c2c([H])c(OC([H])([H])C([H])([H])[N+]([H])([H])C([H])([H])C([H])([H])C([H])([H])C([H])([H])C([H])([H])[N+]([H])([H])C([H])([H])C([H])([H])C([H])([H])N([H])C(=O)N3C([H])([H])C([H])([H])C([H])([H])C([H])(n4nc(-c5c([H])c([H])c(Oc6c([H])c([H])c(F)c([H])c6F)c([H])c5[H])c(C(=O)N([H])[H])c4N([H])[H])C3([H])[H])c([H])c([H])c2C1([H])[H]

>  <smiles>  (85) 
[H]c1c([H])c([H])c2c(c1[H])C([H])([H])C([H])([H])C([H])([H])C2([H])N([H])C(=O)C1([H])N(C(=O)C([H])(N([H])C(=O)C([H])(N([H])C([H])([H])[H])C([H])([H])[H])C(C([H])([H])[H])(C([H])([H])[H])C([H])([H])[H])C([H])([H])c2c([H])c(OC([H])([H])C([H])([H])[N+]([H])([H])C([H])([H])C([H])([H])C([H])([H])C([H])([H])C([H])([H])[N+]([H])([H])C([H])([H])C([H])([H])C([H])([H])N([H])C(=O)N3C([H])([H])C([H])([H])C([H])([H])C([H])(n4nc(-c5c([H])c([H])c(Oc6c([H])c([H])c(F)c([H])c6F)c([H])c5[H])c(C(=O)N([H])[H])c4N([H])[H])C3([H])[H])c([H])c([H])c2C1([H])[H]

$$$$
89:0:0
     RDKit          3D

100107  0  0  1  0  0  0  0  0999 V2000
  -31.3090  -19.2110   20.5080 C   0  0  0  0  0  2  0  0  0  0  0  0
  -31.0740  -18.3640   21.6960 N   0  0  0  0  0  4  0  0  0  0  0  0
  -30.3900  -18.7940   22.3000 H   0  0  0  0  0  0  0  0  0  0  0  0
  -30.6750  -17.5020   21.3590 H   0  0  0  0  0  0  0  0  0  0  0  0
  -32.2750  -17.9900   22.4660 C   0  0  0  0  0  2  0  0  0  0  0  0
  -31.9920  -16.8020   23.4140 C   0  0  0  0  0  2  0  0  0  0  0  0
  -31.3780  -15.5560   22.7400 C   0  0  0  0  0  2  0  0  0  0  0  0
  -32.2320  -15.0110   21.5800 C   0  0  0  0  0  2  0  0  0  0  0  0
  -31.7320  -13.7270   20.8810 C   0  0  0  0  0  3  0  0  0  0  0  0
  -29.3560  -14.0350   20.3310 C   0  0  0  0  0  0  0  0  0  0  0  0
  -28.6590  -12.4570   18.6520 C   0  0  0  0  0  2  0  0  0  0  0  0
  -27.5000  -12.8710   17.7500 C   0  0  0  0  0  2  0  0  0  0  0  0
  -26.1720  -12.4330   18.3860 C   0  0  0  0  0  2  0  0  0  0  0  0
  -26.0250  -12.9320   19.8460 C   0  0  0  0  0  3  0  0  0  0  0  0
  -27.2900  -12.6370   20.6950 C   0  0  0  0  0  2  0  0  0  0  0  0
  -28.4880  -13.0810   19.9640 N   0  0  0  0  0  0  0  0  0  0  0  0
  -29.6450  -15.0310   19.6640 O   0  0  0  0  0  0  0  0  0  0  0  0
  -30.2970  -13.4790   21.1020 N   0  0  0  0  0  0  0  0  0  0  0  0
  -30.0370  -12.6020   21.5300 H   0  0  0  0  0  0  0  0  0  0  0  0
  -23.6500  -13.0390   20.8430 C   0  0  0  0  0  0  0  0  0  0  0  0
  -22.7890  -12.0630   21.2670 C   0  0  0  0  0  0  0  0  0  0  0  0
  -23.4790  -10.8250   21.0940 C   0  0  0  0  0  0  0  0  0  0  0  0
  -24.8090  -12.3850   20.4530 N   0  0  0  0  0  0  0  0  0  0  0  0
  -24.7120  -11.0440   20.6570 N   0  0  0  0  0  0  0  0  0  0  0  0
  -23.0200   -9.4400   21.2740 C   0  0  0  0  0  0  0  0  0  0  0  0
  -23.5540   -8.6130   22.2880 C   0  0  0  0  0  3  0  0  0  0  0  0
  -23.0830   -7.2930   22.4580 C   0  0  0  0  0  3  0  0  0  0  0  0
  -22.0660   -6.7870   21.6130 C   0  0  0  0  0  0  0  0  0  0  0  0
  -21.5510   -7.6090   20.5950 C   0  0  0  0  0  3  0  0  0  0  0  0
  -22.0240   -8.9210   20.4230 C   0  0  0  0  0  3  0  0  0  0  0  0
  -21.5660   -5.5110   21.6840 O   0  0  0  0  0  0  0  0  0  0  0  0
  -21.4380   -4.8540   22.8820 C   0  0  0  0  0  0  0  0  0  0  0  0
  -20.6130   -5.3490   23.9170 C   0  0  0  0  0  3  0  0  0  0  0  0
  -20.4550   -4.6070   25.1050 C   0  0  0  0  0  3  0  0  0  0  0  0
  -21.1090   -3.3680   25.2560 C   0  0  0  0  0  0  0  0  0  0  0  0
  -21.9230   -2.8730   24.2230 C   0  0  0  0  0  3  0  0  0  0  0  0
  -22.0840   -3.6130   23.0380 C   0  0  0  0  0  0  0  0  0  0  0  0
  -22.8560   -3.1200   22.0390 F   0  0  0  0  0  0  0  0  0  0  0  0
  -20.9500   -2.6540   26.3940 F   0  0  0  0  0  0  0  0  0  0  0  0
  -21.3690  -12.2550   21.7200 C   0  0  0  0  0  0  0  0  0  0  0  0
  -20.8870  -11.3920   22.6040 N   0  0  0  0  0  0  0  0  0  0  0  0
  -20.6970  -13.2080   21.3270 O   0  0  0  0  0  0  0  0  0  0  0  0
  -21.4480  -10.6230   22.9400 H   0  0  0  0  0  0  0  0  0  0  0  0
  -19.9460  -11.5060   22.9530 H   0  0  0  0  0  0  0  0  0  0  0  0
  -23.5370  -14.4210   20.7430 N   0  0  0  0  0  0  0  0  0  0  0  0
  -22.6800  -14.9130   20.9730 H   0  0  0  0  0  0  0  0  0  0  0  0
  -24.2620  -15.0340   20.3890 H   0  0  0  0  0  0  0  0  0  0  0  0
  -32.5980  -12.4810   21.1650 C   0  0  0  0  0  2  0  0  0  0  0  0
  -33.3850  -10.1610   20.6290 C   0  0  0  0  0  1  0  0  0  0  0  0
  -32.8210  -11.6500   18.6970 C   0  0  0  0  0  1  0  0  0  0  0  0
  -32.4690  -11.3010   20.1640 C   0  0  0  0  0  3  0  0  0  0  0  0
  -31.5210  -20.7040   20.8330 C   0  0  0  0  0  2  0  0  0  0  0  0
  -31.0110  -21.6050   19.6930 C   0  0  0  0  0  2  0  0  0  0  0  0
  -31.1280  -23.1170   19.9700 C   0  0  0  0  0  2  0  0  0  0  0  0
  -30.1180  -23.8760   19.2030 N   0  0  0  0  0  4  0  0  0  0  0  0
  -29.2360  -23.3920   19.2820 H   0  0  0  0  0  0  0  0  0  0  0  0
  -30.3780  -23.8770   18.2300 H   0  0  0  0  0  0  0  0  0  0  0  0
  -29.9150  -25.2720   19.6580 C   0  0  0  0  0  2  0  0  0  0  0  0
  -28.6800  -25.9130   19.0000 C   0  0  0  0  0  2  0  0  0  0  0  0
  -28.5430  -27.2120   19.5560 O   0  0  0  0  0  0  0  0  0  0  0  0
  -24.5470  -31.9100   23.0250 C   0  0  0  0  0  0  0  0  0  0  0  0
  -27.2970  -27.7930   19.6240 C   0  0  0  0  0  0  0  0  0  0  0  0
  -23.3440  -30.5140   21.3720 C   0  0  0  0  0  3  0  0  0  0  0  0
  -24.8140  -29.1250   19.8230 C   0  0  0  0  0  0  0  0  0  0  0  0
  -25.8290  -31.0330   21.0850 C   0  0  0  0  0  2  0  0  0  0  0  0
  -25.9630  -29.6990   20.3790 C   0  0  0  0  0  0  0  0  0  0  0  0
  -27.2020  -29.0380   20.2790 C   0  0  0  0  0  3  0  0  0  0  0  0
  -26.1270  -27.2240   19.0650 C   0  0  0  0  0  3  0  0  0  0  0  0
  -24.8870  -27.8840   19.1680 C   0  0  0  0  0  3  0  0  0  0  0  0
  -23.5300  -29.9080   19.9560 C   0  0  0  0  0  2  0  0  0  0  0  0
  -24.5910  -31.1620   21.8880 N   0  0  0  0  0  0  0  0  0  0  0  0
  -23.4780  -32.0980   23.6260 O   0  0  0  0  0  0  0  0  0  0  0  0
  -22.7920  -29.4160   22.3090 C   0  0  0  0  0  0  0  0  0  0  0  0
  -21.4720  -29.1750   22.2340 N   0  0  0  0  0  0  0  0  0  0  0  0
  -23.5420  -28.7930   23.0620 O   0  0  0  0  0  0  0  0  0  0  0  0
  -20.9220  -29.7390   21.6030 H   0  0  0  0  0  0  0  0  0  0  0  0
  -18.1810  -27.8150   22.8290 C   0  0  0  0  0  0  0  0  0  0  0  0
  -20.7370  -28.1670   22.9940 C   0  0  0  0  0  3  0  0  0  0  0  0
  -20.8680  -26.7740   22.3370 C   0  0  0  0  0  2  0  0  0  0  0  0
  -19.7310  -26.4570   21.3610 C   0  0  0  0  0  2  0  0  0  0  0  0
  -18.3780  -26.5110   22.0760 C   0  0  0  0  0  2  0  0  0  0  0  0
  -19.2890  -28.6020   23.2450 C   0  0  0  0  0  0  0  0  0  0  0  0
  -19.0490  -29.8240   23.9070 C   0  0  0  0  0  3  0  0  0  0  0  0
  -17.7370  -30.2610   24.1610 C   0  0  0  0  0  3  0  0  0  0  0  0
  -16.6430  -29.4700   23.7630 C   0  0  0  0  0  3  0  0  0  0  0  0
  -16.8690  -28.2500   23.1010 C   0  0  0  0  0  3  0  0  0  0  0  0
  -25.8250  -32.5830   23.6170 C   0  0  0  0  0  3  0  0  0  0  0  0
  -25.4490  -33.9230   24.0800 N   0  0  0  0  0  0  0  0  0  0  0  0
  -25.6700  -35.0520   23.3970 C   0  0  0  0  0  0  0  0  0  0  0  0
  -26.2850  -35.0830   22.3280 O   0  0  0  0  0  0  0  0  0  0  0  0
  -24.9070  -33.9700   24.9290 H   0  0  0  0  0  0  0  0  0  0  0  0
  -23.8210  -36.7470   23.2610 C   0  0  0  0  0  1  0  0  0  0  0  0
  -25.1170  -36.3590   23.9920 C   0  0  0  0  0  3  0  0  0  0  0  0
  -27.2250  -37.3040   24.8180 C   0  0  0  0  0  1  0  0  0  0  0  0
  -26.0730  -37.4860   23.9390 N   0  0  0  0  0  0  0  0  0  0  0  0
  -25.6160  -38.3590   24.1960 H   0  0  0  0  0  0  0  0  0  0  0  0
  -26.4780  -31.7480   24.7870 C   0  0  1  0  0  0  0  0  0  0  0  0
  -25.4710  -31.3090   25.8730 C   0  0  0  0  0  1  0  0  0  0  0  0
  -27.1600  -30.4760   24.2320 C   0  0  0  0  0  1  0  0  0  0  0  0
  -27.5800  -32.5880   25.4780 C   0  0  0  0  0  1  0  0  0  0  0  0
  1 52  1  0
  1  2  1  0
  2  3  1  0
  2  5  1  0
  4  2  1  0
  5  6  1  0
  7  6  1  0
  8  7  1  0
  9 18  1  0
  9 48  1  0
  9  8  1  0
 10 18  1  0
 11 16  1  0
 12 13  1  0
 12 11  1  0
 14 13  1  0
 14 23  1  0
 14 15  1  0
 16 10  1  0
 16 15  1  0
 17 10  2  0
 18 19  1  0
 20 21  2  0
 21 40  1  0
 22 21  1  0
 22 25  1  0
 23 24  1  0
 23 20  1  0
 24 22  2  0
 25 26  1  0
 26 27  2  0
 28 31  1  0
 28 27  1  0
 29 28  2  0
 30 29  1  0
 30 25  2  0
 31 32  1  0
 32 37  2  0
 32 33  1  0
 33 34  2  0
 34 35  1  0
 35 39  1  0
 36 35  2  0
 37 36  1  0
 38 37  1  0
 40 41  1  0
 41 43  1  0
 41 44  1  0
 42 40  2  0
 45 20  1  0
 45 46  1  0
 47 45  1  0
 50 51  1  0
 51 49  1  0
 51 48  1  0
 53 54  1  0
 53 52  1  0
 55 56  1  0
 55 58  1  0
 55 54  1  0
 57 55  1  0
 59 60  1  0
 59 58  1  0
 60 62  1  0
 61 72  2  0
 62 67  1  0
 63 71  1  0
 63 73  1  0
 64 70  1  0
 64 66  1  0
 65 71  1  0
 66 65  1  0
 67 66  2  0
 68 69  1  0
 68 62  2  0
 69 64  2  0
 70 63  1  0
 71 61  1  0
 73 75  2  0
 74 73  1  0
 76 74  1  0
 77 86  2  0
 77 82  1  0
 78 74  1  0
 78 82  1  0
 79 78  1  0
 80 81  1  0
 80 79  1  0
 81 77  1  0
 82 83  2  0
 83 84  1  0
 85 84  2  0
 86 85  1  0
 87 61  1  0
 87 88  1  0
 87 97  1  0
 88 91  1  0
 89 93  1  0
 89 88  1  0
 90 89  2  0
 93 92  1  0
 95 93  1  0
 95 96  1  0
 95 94  1  0
 97100  1  1
 97 98  1  0
 99 97  1  0
M  ISO  4  10 100  18 100  59 101  60 101
M  END
>  <TORSDO>  (86) 
F 30

>  <SCORE>  (86) 
-0.971

>  <name>  (86) 
89

>  <ligand_id>  (86) 
89

>  <original_smiles>  (86) 
[H]c1c([H])c([H])c2c(c1[H])C([H])([H])C([H])([H])C([H])([H])C2([H])N([H])C(=O)C1([H])N(C(=O)C([H])(N([H])C(=O)C([H])(N([H])C([H])([H])[H])C([H])([H])[H])C(C([H])([H])[H])(C([H])([H])[H])C([H])([H])[H])C([H])([H])c2c([H])c(OC([H])([H])C([H])([H])[N+]([H])([H])C([H])([H])C([H])([H])C([H])([H])C([H])([H])[N+]([H])([H])C([H])([H])C([H])([H])C([H])([H])C([H])([H])C([H])(N([H])C(=O)N3C([H])([H])C([H])([H])C([H])([H])C([H])(n4nc(-c5c([H])c([H])c(Oc6c([H])c([H])c(F)c([H])c6F)c([H])c5[H])c(C(=O)N([H])[H])c4N([H])[H])C3([H])[H])C([H])([H])C([H])(C([H])([H])[H])C([H])([H])[H])c([H])c([H])c2C1([H])[H]

>  <smiles>  (86) 
[H]c1c([H])c([H])c2c(c1[H])C([H])([H])C([H])([H])C([H])([H])C2([H])N([H])C(=O)C1([H])N(C(=O)C([H])(N([H])C(=O)C([H])(N([H])C([H])([H])[H])C([H])([H])[H])C(C([H])([H])[H])(C([H])([H])[H])C([H])([H])[H])C([H])([H])c2c([H])c(OC([H])([H])C([H])([H])[N+]([H])([H])C([H])([H])C([H])([H])C([H])([H])C([H])([H])[N+]([H])([H])C([H])([H])C([H])([H])C([H])([H])C([H])([H])C([H])(N([H])C(=O)N3C([H])([H])C([H])([H])C([H])([H])C([H])(n4nc(-c5c([H])c([H])c(Oc6c([H])c([H])c(F)c([H])c6F)c([H])c5[H])c(C(=O)N([H])[H])c4N([H])[H])C3([H])[H])C([H])([H])C([H])(C([H])([H])[H])C([H])([H])[H])c([H])c([H])c2C1([H])[H]

$$$$
90:0:0
     RDKit          3D

111119  0  0  1  0  0  0  0  0999 V2000
  -29.4320  -19.2820   20.5870 C   0  0  0  0  0  3  0  0  0  0  0  0
  -31.8520  -19.4670   20.5710 C   0  0  0  0  0  3  0  0  0  0  0  0
  -29.5380  -17.9200   20.9210 C   0  0  0  0  0  3  0  0  0  0  0  0
  -31.9600  -18.1020   20.9070 C   0  0  0  0  0  3  0  0  0  0  0  0
  -30.5880  -20.0790   20.4240 C   0  0  0  0  0  0  0  0  0  0  0  0
  -30.7990  -17.3190   21.1000 C   0  0  0  0  0  0  0  0  0  0  0  0
  -30.5130  -21.5280   20.1600 C   0  0  0  0  0  3  0  0  0  0  0  0
  -29.3910  -22.2730   20.0980 C   0  0  0  0  0  3  0  0  0  0  0  0
  -28.5650  -24.1890   18.6790 C   0  0  0  0  0  1  0  0  0  0  0  0
  -29.3640  -23.7860   19.9280 C   0  0  0  0  0  3  0  0  0  0  0  0
  -28.7880  -24.4170   21.1410 N   0  0  0  0  0  4  0  0  0  0  0  0
  -28.5190  -25.3630   20.9140 H   0  0  0  0  0  0  0  0  0  0  0  0
  -27.9440  -23.9250   21.3870 H   0  0  0  0  0  0  0  0  0  0  0  0
  -29.6870  -24.4770   22.3210 C   0  0  0  0  0  2  0  0  0  0  0  0
  -28.9960  -25.1200   23.5330 C   0  0  0  0  0  2  0  0  0  0  0  0
  -28.6720  -26.4730   23.2240 O   0  0  0  0  0  0  0  0  0  0  0  0
  -28.3410  -31.6670   28.0750 C   0  0  0  0  0  0  0  0  0  0  0  0
  -27.9170  -27.1290   24.1660 C   0  0  0  0  0  0  0  0  0  0  0  0
  -26.4060  -30.1240   28.0150 C   0  0  0  0  0  3  0  0  0  0  0  0
  -26.3240  -28.5340   26.0240 C   0  0  0  0  0  0  0  0  0  0  0  0
  -27.8040  -30.5470   25.9150 C   0  0  0  0  0  2  0  0  0  0  0  0
  -27.4630  -29.1400   25.4780 C   0  0  0  0  0  0  0  0  0  0  0  0
  -28.2590  -28.4450   24.5430 C   0  0  0  0  0  3  0  0  0  0  0  0
  -26.7660  -26.5290   24.7200 C   0  0  0  0  0  3  0  0  0  0  0  0
  -25.9720  -27.2240   25.6520 C   0  0  0  0  0  3  0  0  0  0  0  0
  -25.5160  -29.3550   27.0020 C   0  0  0  0  0  2  0  0  0  0  0  0
  -27.5740  -30.7990   27.3580 N   0  0  0  0  0  0  0  0  0  0  0  0
  -28.0660  -31.9450   29.2500 O   0  0  0  0  0  0  0  0  0  0  0  0
  -26.8180  -29.1540   29.1450 C   0  0  0  0  0  0  0  0  0  0  0  0
  -25.9610  -29.0380   30.1730 N   0  0  0  0  0  0  0  0  0  0  0  0
  -27.8650  -28.5060   29.0720 O   0  0  0  0  0  0  0  0  0  0  0  0
  -25.1270  -29.6100   30.1610 H   0  0  0  0  0  0  0  0  0  0  0  0
  -24.5020  -28.1060   33.3420 C   0  0  0  0  0  0  0  0  0  0  0  0
  -26.1200  -28.1560   31.3290 C   0  0  0  0  0  3  0  0  0  0  0  0
  -25.6120  -26.7300   31.0130 C   0  0  0  0  0  2  0  0  0  0  0  0
  -24.1490  -26.5110   31.4090 C   0  0  0  0  0  2  0  0  0  0  0  0
  -23.9550  -26.7560   32.9080 C   0  0  0  0  0  2  0  0  0  0  0  0
  -25.5070  -28.7710   32.5910 C   0  0  0  0  0  0  0  0  0  0  0  0
  -25.9550  -30.0390   33.0180 C   0  0  0  0  0  3  0  0  0  0  0  0
  -25.4190  -30.6400   34.1730 C   0  0  0  0  0  3  0  0  0  0  0  0
  -24.4350  -29.9710   34.9210 C   0  0  0  0  0  3  0  0  0  0  0  0
  -23.9810  -28.7060   34.5070 C   0  0  0  0  0  3  0  0  0  0  0  0
  -29.5850  -32.3710   27.4460 C   0  0  0  0  0  3  0  0  0  0  0  0
  -29.5990  -33.7580   27.9290 N   0  0  0  0  0  0  0  0  0  0  0  0
  -29.1700  -34.8130   27.2220 C   0  0  0  0  0  0  0  0  0  0  0  0
  -28.7840  -34.7250   26.0530 O   0  0  0  0  0  0  0  0  0  0  0  0
  -29.8510  -33.9000   28.8960 H   0  0  0  0  0  0  0  0  0  0  0  0
  -27.7490  -36.5120   28.4130 C   0  0  0  0  0  1  0  0  0  0  0  0
  -29.1690  -36.1840   27.9240 C   0  0  0  0  0  3  0  0  0  0  0  0
  -31.0940  -37.1830   26.7730 C   0  0  0  0  0  1  0  0  0  0  0  0
  -29.6670  -37.2840   27.0680 N   0  0  0  0  0  0  0  0  0  0  0  0
  -29.4970  -38.1850   27.5060 H   0  0  0  0  0  0  0  0  0  0  0  0
  -30.9470  -31.6480   27.7820 C   0  0  1  0  0  0  0  0  0  0  0  0
  -31.1360  -31.3510   29.2880 C   0  0  0  0  0  1  0  0  0  0  0  0
  -31.0550  -30.3080   27.0190 C   0  0  0  0  0  1  0  0  0  0  0  0
  -32.1340  -32.5210   27.3130 C   0  0  0  0  0  1  0  0  0  0  0  0
  -30.8370  -15.9650   21.4560 N   0  0  0  0  0  0  0  0  0  0  0  0
  -29.9900  -15.5750   21.8660 H   0  0  0  0  0  0  0  0  0  0  0  0
  -32.0930  -15.3180   21.8110 C   0  0  0  0  0  2  0  0  0  0  0  0
  -31.8410  -13.8840   22.2990 C   0  0  0  0  0  2  0  0  0  0  0  0
  -33.1350  -13.1470   22.6710 C   0  0  0  0  0  2  0  0  0  0  0  0
  -32.8560  -11.7850   23.3480 C   0  0  0  0  0  2  0  0  0  0  0  0
  -33.8480  -10.6920   22.9090 C   0  0  0  0  0  2  0  0  0  0  0  0
  -33.3300   -9.2450   23.0610 C   0  0  0  0  0  3  0  0  0  0  0  0
  -33.5380   -8.7800   24.4460 N   0  0  0  0  0  4  0  0  0  0  0  0
  -34.5100   -8.7900   24.6950 H   0  0  0  0  0  0  0  0  0  0  0  0
  -33.1880   -7.8450   24.5660 H   0  0  0  0  0  0  0  0  0  0  0  0
  -33.0410   -9.3700   25.0910 H   0  0  0  0  0  0  0  0  0  0  0  0
  -33.9910   -8.2940   22.0330 C   0  0  0  0  0  2  0  0  0  0  0  0
  -33.5160   -8.4540   20.5640 C   0  0  0  0  0  2  0  0  0  0  0  0
  -33.7470   -9.8190   19.8650 C   0  0  0  0  0  2  0  0  0  0  0  0
  -32.6360  -10.8630   20.1290 C   0  0  0  0  0  2  0  0  0  0  0  0
  -33.0640  -12.3250   19.8590 C   0  0  0  0  0  2  0  0  0  0  0  0
  -31.2960  -13.2430   18.4570 C   0  0  0  0  0  0  0  0  0  0  0  0
  -30.0560  -11.5310   17.2110 C   0  0  0  0  0  2  0  0  0  0  0  0
  -28.8010  -12.0290   16.4800 C   0  0  0  0  0  2  0  0  0  0  0  0
  -27.5850  -11.9960   17.4180 C   0  0  0  0  0  2  0  0  0  0  0  0
  -27.8590  -12.7340   18.7520 C   0  0  0  0  0  3  0  0  0  0  0  0
  -29.1900  -12.2670   19.3870 C   0  0  0  0  0  2  0  0  0  0  0  0
  -30.2720  -12.3670   18.3920 N   0  0  0  0  0  0  0  0  0  0  0  0
  -31.8800  -13.7150   17.4750 O   0  0  0  0  0  0  0  0  0  0  0  0
  -31.9020  -13.1970   19.6480 N   0  0  0  0  0  0  0  0  0  0  0  0
  -31.9930  -14.1100   20.0860 H   0  0  0  0  0  0  0  0  0  0  0  0
  -26.0840  -13.5590   20.4300 C   0  0  0  0  0  0  0  0  0  0  0  0
  -25.0470  -12.9190   21.0550 C   0  0  0  0  0  0  0  0  0  0  0  0
  -25.1110  -11.5600   20.6280 C   0  0  0  0  0  0  0  0  0  0  0  0
  -26.7330  -12.5930   19.6760 N   0  0  0  0  0  0  0  0  0  0  0  0
  -26.1660  -11.3700   19.8450 N   0  0  0  0  0  0  0  0  0  0  0  0
  -24.2000  -10.4370   20.8810 C   0  0  0  0  0  0  0  0  0  0  0  0
  -24.6110   -9.3100   21.6250 C   0  0  0  0  0  3  0  0  0  0  0  0
  -23.7120   -8.2520   21.8730 C   0  0  0  0  0  3  0  0  0  0  0  0
  -22.3870   -8.3130   21.3840 C   0  0  0  0  0  0  0  0  0  0  0  0
  -21.9900   -9.4260   20.6220 C   0  0  0  0  0  3  0  0  0  0  0  0
  -22.8870  -10.4780   20.3690 C   0  0  0  0  0  3  0  0  0  0  0  0
  -21.4570   -7.3160   21.5540 O   0  0  0  0  0  0  0  0  0  0  0  0
  -21.3910   -6.5800   22.7110 C   0  0  0  0  0  0  0  0  0  0  0  0
  -21.1710   -7.1870   23.9670 C   0  0  0  0  0  3  0  0  0  0  0  0
  -21.0320   -6.3890   25.1200 C   0  0  0  0  0  3  0  0  0  0  0  0
  -21.1070   -4.9880   25.0190 C   0  0  0  0  0  0  0  0  0  0  0  0
  -21.3210   -4.3810   23.7700 C   0  0  0  0  0  3  0  0  0  0  0  0
  -21.4580   -5.1750   22.6180 C   0  0  0  0  0  0  0  0  0  0  0  0
  -21.6430   -4.5830   21.4140 F   0  0  0  0  0  0  0  0  0  0  0  0
  -20.9650   -4.2200   26.1250 F   0  0  0  0  0  0  0  0  0  0  0  0
  -24.0010  -13.5540   21.9230 C   0  0  0  0  0  0  0  0  0  0  0  0
  -23.4800  -12.8140   22.8950 N   0  0  0  0  0  0  0  0  0  0  0  0
  -23.6750  -14.7310   21.7720 O   0  0  0  0  0  0  0  0  0  0  0  0
  -23.7680  -11.8580   23.0350 H   0  0  0  0  0  0  0  0  0  0  0  0
  -22.7800  -13.2120   23.5040 H   0  0  0  0  0  0  0  0  0  0  0  0
  -26.5110  -14.8820   20.4260 N   0  0  0  0  0  0  0  0  0  0  0  0
  -26.0070  -15.6060   20.9280 H   0  0  0  0  0  0  0  0  0  0  0  0
  -27.2810  -15.2380   19.8780 H   0  0  0  0  0  0  0  0  0  0  0  0
  1  3  1  0
  2  4  2  0
  3  6  2  0
  4  6  1  0
  5  2  1  0
  5  1  2  0
  6 57  1  0
  7  5  1  0
  8  7  2  0
 10  9  1  0
 10  8  1  0
 10 11  1  0
 11 13  1  0
 11 14  1  0
 12 11  1  0
 14 15  1  0
 16 15  1  0
 16 18  1  0
 17 28  2  0
 18 23  2  0
 18 24  1  0
 19 29  1  0
 20 26  1  0
 21 27  1  0
 22 21  1  0
 22 20  2  0
 23 22  1  0
 24 25  2  0
 25 20  1  0
 26 19  1  0
 27 19  1  0
 27 17  1  0
 29 30  1  0
 31 29  2  0
 32 30  1  0
 33 42  1  0
 34 30  1  0
 34 38  1  0
 35 34  1  0
 35 36  1  0
 36 37  1  0
 37 33  1  0
 38 39  1  0
 38 33  2  0
 39 40  2  0
 40 41  1  0
 42 41  2  0
 43 53  1  0
 43 44  1  0
 43 17  1  0
 44 47  1  0
 45 49  1  0
 45 44  1  0
 46 45  2  0
 49 48  1  0
 50 51  1  0
 51 52  1  0
 51 49  1  0
 53 54  1  1
 55 53  1  0
 56 53  1  0
 57 59  1  0
 57 58  1  0
 59 60  1  0
 60 61  1  0
 61 62  1  0
 63 64  1  0
 63 62  1  0
 64 69  1  0
 64 65  1  0
 65 67  1  0
 65 66  1  0
 65 68  1  0
 70 69  1  0
 71 72  1  0
 71 70  1  0
 73 72  1  0
 74 82  1  0
 75 80  1  0
 76 75  1  0
 76 77  1  0
 78 77  1  0
 78 79  1  0
 78 87  1  0
 80 74  1  0
 80 79  1  0
 81 74  2  0
 82 73  1  0
 82 83  1  0
 84 85  2  0
 85104  1  0
 86 89  1  0
 86 85  1  0
 87 88  1  0
 87 84  1  0
 88 86  2  0
 89 90  1  0
 90 91  2  0
 92 95  1  0
 92 91  1  0
 93 92  2  0
 94 93  1  0
 94 89  2  0
 95 96  1  0
 96 97  1  0
 97 98  2  0
 99 98  1  0
 99103  1  0
100 99  2  0
101 96  2  0
101100  1  0
102101  1  0
104105  1  0
105107  1  0
105108  1  0
106104  2  0
109 84  1  0
109110  1  0
111109  1  0
M  ISO  4  15 101  16 101  74 100  82 100
M  END
>  <TORSDO>  (87) 
F 34

>  <SCORE>  (87) 
-0.501

>  <name>  (87) 
90

>  <ligand_id>  (87) 
90

>  <original_smiles>  (87) 
[H]C(=C([H])C([H])(C([H])([H])[H])[N+]([H])([H])C([H])([H])C([H])([H])Oc1c([H])c([H])c2c(c1[H])C([H])([H])N(C(=O)C([H])(N([H])C(=O)C([H])(N([H])C([H])([H])[H])C([H])([H])[H])C(C([H])([H])[H])(C([H])([H])[H])C([H])([H])[H])C([H])(C(=O)N([H])C1([H])c3c([H])c([H])c([H])c([H])c3C([H])([H])C([H])([H])C1([H])[H])C2([H])[H])c1c([H])c([H])c(N([H])C([H])([H])C([H])([H])C([H])([H])C([H])([H])C([H])([H])C([H])(C([H])([H])C([H])([H])C([H])([H])C([H])([H])C([H])([H])N([H])C(=O)N2C([H])([H])C([H])([H])C([H])([H])C([H])(n3nc(-c4c([H])c([H])c(Oc5c([H])c([H])c(F)c([H])c5F)c([H])c4[H])c(C(=O)N([H])[H])c3N([H])[H])C2([H])[H])[N+]([H])([H])[H])c([H])c1[H]

>  <smiles>  (87) 
[H]C(=C([H])C([H])(C([H])([H])[H])[N+]([H])([H])C([H])([H])C([H])([H])Oc1c([H])c([H])c2c(c1[H])C([H])([H])N(C(=O)C([H])(N([H])C(=O)C([H])(N([H])C([H])([H])[H])C([H])([H])[H])C(C([H])([H])[H])(C([H])([H])[H])C([H])([H])[H])C([H])(C(=O)N([H])C1([H])c3c([H])c([H])c([H])c([H])c3C([H])([H])C([H])([H])C1([H])[H])C2([H])[H])c1c([H])c([H])c(N([H])C([H])([H])C([H])([H])C([H])([H])C([H])([H])C([H])([H])C([H])(C([H])([H])C([H])([H])C([H])([H])C([H])([H])C([H])([H])N([H])C(=O)N2C([H])([H])C([H])([H])C([H])([H])C([H])(n3nc(-c4c([H])c([H])c(Oc5c([H])c([H])c(F)c([H])c5F)c([H])c4[H])c(C(=O)N([H])[H])c3N([H])[H])C2([H])[H])[N+]([H])([H])[H])c([H])c1[H]

$$$$
91:0:0
     RDKit          3D

105114  0  0  1  0  0  0  0  0999 V2000
  -29.8590  -21.8530   22.0120 C   0  0  0  0  0  3  0  0  0  0  0  0
  -28.5480  -22.2190   22.3640 C   0  0  0  0  0  3  0  0  0  0  0  0
  -27.7370  -21.2930   20.2730 C   0  0  0  0  0  3  0  0  0  0  0  0
  -30.1370  -21.2100   20.7840 C   0  0  0  0  0  0  0  0  0  0  0  0
  -27.4760  -21.9510   21.4930 C   0  0  0  0  0  0  0  0  0  0  0  0
  -29.0500  -20.9080   19.9110 C   0  0  0  0  0  0  0  0  0  0  0  0
  -31.5550  -20.7840   20.5700 C   0  0  0  0  0  0  0  0  0  0  0  0
  -32.3330  -20.6170   21.5140 O   0  0  0  0  0  0  0  0  0  0  0  0
  -32.0810  -20.6780   19.1260 C   0  0  0  0  0  2  0  0  0  0  0  0
  -32.7180  -19.3210   18.7410 C   0  0  0  0  0  2  0  0  0  0  0  0
  -31.6980  -18.2370   18.3660 C   0  0  0  0  0  2  0  0  0  0  0  0
  -31.4640  -17.2610   19.5190 C   0  0  0  0  0  2  0  0  0  0  0  0
  -30.4420  -16.1940   19.1820 C   0  0  0  0  0  2  0  0  0  0  0  0
  -31.2650  -14.1070   20.0810 C   0  0  0  0  0  0  0  0  0  0  0  0
  -30.8230  -12.0700   18.8490 C   0  0  0  0  0  2  0  0  0  0  0  0
  -29.8700  -12.4670   17.7000 C   0  0  0  0  0  2  0  0  0  0  0  0
  -28.3920  -12.4540   18.1600 C   0  0  0  0  0  2  0  0  0  0  0  0
  -28.1610  -13.1800   19.5160 C   0  0  0  0  0  3  0  0  0  0  0  0
  -29.2230  -12.7460   20.5540 C   0  0  0  0  0  2  0  0  0  0  0  0
  -30.5560  -12.9650   19.9740 N   0  0  0  0  0  0  0  0  0  0  0  0
  -32.4300  -14.2490   19.6930 O   0  0  0  0  0  0  0  0  0  0  0  0
  -30.4580  -15.1590   20.2080 N   0  0  0  0  0  0  0  0  0  0  0  0
  -29.5610  -14.9400   20.6180 H   0  0  0  0  0  0  0  0  0  0  0  0
  -25.8230  -13.9320   20.2970 C   0  0  0  0  0  0  0  0  0  0  0  0
  -24.7250  -13.2170   20.6980 C   0  0  0  0  0  0  0  0  0  0  0  0
  -25.1100  -11.8440   20.6400 C   0  0  0  0  0  0  0  0  0  0  0  0
  -26.8100  -12.9930   20.0310 N   0  0  0  0  0  0  0  0  0  0  0  0
  -26.3840  -11.7330   20.2930 N   0  0  0  0  0  0  0  0  0  0  0  0
  -24.3270  -10.6220   20.8380 C   0  0  0  0  0  0  0  0  0  0  0  0
  -24.7490   -9.6100   21.7280 C   0  0  0  0  0  3  0  0  0  0  0  0
  -23.9710   -8.4480   21.9090 C   0  0  0  0  0  3  0  0  0  0  0  0
  -22.7560   -8.2920   21.2030 C   0  0  0  0  0  0  0  0  0  0  0  0
  -22.3550   -9.2900   20.2990 C   0  0  0  0  0  3  0  0  0  0  0  0
  -23.1320  -10.4450   20.1140 C   0  0  0  0  0  3  0  0  0  0  0  0
  -21.9410   -7.1880   21.2960 O   0  0  0  0  0  0  0  0  0  0  0  0
  -21.6860   -6.5850   22.5000 C   0  0  0  0  0  0  0  0  0  0  0  0
  -21.1580   -7.3000   23.6000 C   0  0  0  0  0  3  0  0  0  0  0  0
  -20.8440   -6.6240   24.7930 C   0  0  0  0  0  3  0  0  0  0  0  0
  -21.0530   -5.2340   24.8930 C   0  0  0  0  0  0  0  0  0  0  0  0
  -21.5720   -4.5200   23.7990 C   0  0  0  0  0  3  0  0  0  0  0  0
  -21.8880   -5.1940   22.6070 C   0  0  0  0  0  0  0  0  0  0  0  0
  -22.3680   -4.4970   21.5490 F   0  0  0  0  0  0  0  0  0  0  0  0
  -20.7460   -4.5840   26.0400 F   0  0  0  0  0  0  0  0  0  0  0  0
  -23.3660  -13.7680   21.0180 C   0  0  0  0  0  0  0  0  0  0  0  0
  -22.6620  -13.1680   21.9710 N   0  0  0  0  0  0  0  0  0  0  0  0
  -22.9330  -14.7670   20.4480 O   0  0  0  0  0  0  0  0  0  0  0  0
  -23.0240  -12.3590   22.4560 H   0  0  0  0  0  0  0  0  0  0  0  0
  -21.7500  -13.5250   22.2140 H   0  0  0  0  0  0  0  0  0  0  0  0
  -26.0510  -15.2940   20.1200 N   0  0  0  0  0  0  0  0  0  0  0  0
  -25.2860  -15.9540   20.2090 H   0  0  0  0  0  0  0  0  0  0  0  0
  -26.8710  -15.6940   19.6830 H   0  0  0  0  0  0  0  0  0  0  0  0
  -28.7750  -18.6540   18.7850 C   0  0  0  0  0  1  0  0  0  0  0  0
  -29.2020  -20.1170   18.6160 C   0  0  0  0  0  2  0  0  0  0  0  0
  -26.0520  -22.3640   21.8570 C   0  0  0  0  0  2  0  0  0  0  0  0
  -25.3620  -23.1300   20.6940 C   0  0  0  0  0  2  0  0  0  0  0  0
  -24.4120  -25.2860   19.6940 C   0  0  0  0  0  2  0  0  0  0  0  0
  -25.2370  -25.4270   22.0050 C   0  0  0  0  0  2  0  0  0  0  0  0
  -25.6690  -26.0900   19.2720 C   0  0  0  0  0  2  0  0  0  0  0  0
  -26.6080  -25.9720   21.5430 C   0  0  0  0  0  2  0  0  0  0  0  0
  -24.6020  -24.4620   20.9860 C   0  0  0  0  0  3  0  0  0  0  0  0
  -26.8650  -25.7530   20.0920 N   0  0  2  0  0  4  0  0  0  0  0  0
  -26.9760  -24.7500   19.9940 H   0  0  0  0  0  0  0  0  0  0  0  0
  -28.1520  -26.3660   19.6470 C   0  0  0  0  0  2  0  0  0  0  0  0
  -28.2650  -26.6690   18.1300 C   0  0  0  0  0  2  0  0  0  0  0  0
  -28.1850  -28.0770   17.8730 O   0  0  0  0  0  0  0  0  0  0  0  0
  -24.7840  -29.7350   23.8740 C   0  0  0  0  0  0  0  0  0  0  0  0
  -27.0870  -28.6750   18.4330 C   0  0  0  0  0  0  0  0  0  0  0  0
  -23.4530  -29.8580   21.7940 C   0  0  0  0  0  3  0  0  0  0  0  0
  -24.7730  -29.7320   19.6220 C   0  0  0  0  0  0  0  0  0  0  0  0
  -25.9790  -30.2570   21.7480 C   0  0  0  0  0  2  0  0  0  0  0  0
  -25.9750  -29.7070   20.3390 C   0  0  0  0  0  0  0  0  0  0  0  0
  -27.1460  -29.1920   19.7420 C   0  0  0  0  0  3  0  0  0  0  0  0
  -25.8790  -28.7350   17.7100 C   0  0  0  0  0  3  0  0  0  0  0  0
  -24.7140  -29.2510   18.3030 C   0  0  0  0  0  3  0  0  0  0  0  0
  -23.5770  -30.3210   20.3220 C   0  0  0  0  0  2  0  0  0  0  0  0
  -24.7590  -29.9270   22.5270 N   0  0  0  0  0  0  0  0  0  0  0  0
  -23.7380  -29.5420   24.5150 O   0  0  0  0  0  0  0  0  0  0  0  0
  -22.8010  -28.4550   21.8300 C   0  0  0  0  0  0  0  0  0  0  0  0
  -21.4870  -28.3940   21.5570 N   0  0  0  0  0  0  0  0  0  0  0  0
  -23.4790  -27.4540   22.0650 O   0  0  0  0  0  0  0  0  0  0  0  0
  -21.0010  -29.2660   21.4070 H   0  0  0  0  0  0  0  0  0  0  0  0
  -18.1440  -27.1670   20.9270 C   0  0  0  0  0  0  0  0  0  0  0  0
  -20.6710  -27.1790   21.4840 C   0  0  0  0  0  3  0  0  0  0  0  0
  -20.8670  -26.4570   20.1330 C   0  0  0  0  0  2  0  0  0  0  0  0
  -19.8380  -26.8640   19.0760 C   0  0  0  0  0  2  0  0  0  0  0  0
  -18.4180  -26.5630   19.5590 C   0  0  0  0  0  2  0  0  0  0  0  0
  -19.2040  -27.4710   21.8210 C   0  0  0  0  0  0  0  0  0  0  0  0
  -18.8980  -28.0670   23.0630 C   0  0  0  0  0  3  0  0  0  0  0  0
  -17.5670  -28.3580   23.4190 C   0  0  0  0  0  3  0  0  0  0  0  0
  -16.5190  -28.0310   22.5420 C   0  0  0  0  0  3  0  0  0  0  0  0
  -16.8100  -27.4370   21.3010 C   0  0  0  0  0  3  0  0  0  0  0  0
  -26.1210  -29.7600   24.6820 C   0  0  0  0  0  3  0  0  0  0  0  0
  -26.3110  -31.1280   25.1860 N   0  0  0  0  0  0  0  0  0  0  0  0
  -27.1770  -32.0130   24.6790 C   0  0  0  0  0  0  0  0  0  0  0  0
  -27.9620  -31.7360   23.7670 O   0  0  0  0  0  0  0  0  0  0  0  0
  -25.6600  -31.4420   25.8910 H   0  0  0  0  0  0  0  0  0  0  0  0
  -26.3950  -34.3810   24.3480 C   0  0  0  0  0  1  0  0  0  0  0  0
  -27.1710  -33.4340   25.2790 C   0  0  0  0  0  3  0  0  0  0  0  0
  -29.2590  -33.2430   26.5570 C   0  0  0  0  0  1  0  0  0  0  0  0
  -28.5260  -33.9750   25.5280 N   0  0  0  0  0  0  0  0  0  0  0  0
  -28.4850  -34.9590   25.7940 H   0  0  0  0  0  0  0  0  0  0  0  0
  -26.1560  -28.7160   25.8670 C   0  0  1  0  0  0  0  0  0  0  0  0
  -24.9930  -28.8830   26.8740 C   0  0  0  0  0  1  0  0  0  0  0  0
  -26.1080  -27.2710   25.3250 C   0  0  0  0  0  1  0  0  0  0  0  0
  -27.4840  -28.8550   26.6490 C   0  0  0  0  0  1  0  0  0  0  0  0
  1  2  1  0
  3  5  1  0
  4  1  2  0
  5 54  1  0
  5  2  2  0
  6  3  2  0
  6  4  1  0
  7  4  1  0
  7  8  2  0
  9  7  1  0
 10  9  1  0
 11 10  1  0
 11 12  1  0
 13 12  1  0
 13 22  1  0
 14 22  1  0
 15 20  1  0
 16 17  1  0
 16 15  1  0
 18 17  1  0
 18 27  1  0
 18 19  1  0
 20 14  1  0
 20 19  1  0
 21 14  2  0
 22 23  1  0
 24 25  2  0
 25 44  1  0
 26 25  1  0
 26 29  1  0
 27 28  1  0
 27 24  1  0
 28 26  2  0
 29 30  1  0
 30 31  2  0
 32 35  1  0
 32 31  1  0
 33 32  2  0
 34 33  1  0
 34 29  2  0
 35 36  1  0
 36 41  2  0
 36 37  1  0
 37 38  2  0
 38 39  1  0
 39 43  1  0
 40 39  2  0
 41 40  1  0
 42 41  1  0
 44 45  1  0
 45 48  1  0
 45 47  1  0
 46 44  2  0
 49 50  1  0
 49 24  1  0
 51 49  1  0
 53 52  1  0
 53  6  1  0
 55 54  1  0
 56 60  1  0
 58 56  1  0
 58 61  1  0
 59 57  1  0
 60 55  1  0
 60 57  1  0
 61 59  1  0
 61 62  1  1
 63 61  1  0
 64 63  1  0
 65 64  1  0
 65 67  1  0
 66 77  2  0
 67 72  1  0
 68 78  1  0
 68 76  1  0
 69 75  1  0
 69 71  1  0
 70 76  1  0
 71 70  1  0
 72 71  2  0
 73 74  1  0
 73 67  2  0
 74 69  2  0
 75 68  1  0
 76 66  1  0
 78 80  2  0
 79 78  1  0
 81 79  1  0
 82 91  2  0
 82 87  1  0
 83 79  1  0
 83 87  1  0
 84 83  1  0
 85 86  1  0
 85 84  1  0
 86 82  1  0
 87 88  2  0
 88 89  1  0
 90 89  2  0
 91 90  1  0
 92 66  1  0
 92 93  1  0
 92102  1  0
 93 96  1  0
 94 93  1  0
 94 98  1  0
 95 94  2  0
 98 97  1  0
 98100  1  0
100101  1  0
100 99  1  0
102105  1  1
102103  1  0
104102  1  0
M  ISO  4  14 100  22 100  64 101  65 101
M  END
>  <TORSDO>  (88) 
F 28

>  <SCORE>  (88) 
-7.031

>  <name>  (88) 
91

>  <ligand_id>  (88) 
91

>  <original_smiles>  (88) 
[H]c1c([H])c([H])c2c(c1[H])C([H])([H])C([H])([H])C([H])([H])C2([H])N([H])C(=O)C1([H])N(C(=O)C([H])(N([H])C(=O)C([H])(N([H])C([H])([H])[H])C([H])([H])[H])C(C([H])([H])[H])(C([H])([H])[H])C([H])([H])[H])C([H])([H])c2c([H])c(OC([H])([H])C([H])([H])[N+]3([H])C([H])([H])C([H])([H])C([H])(C([H])([H])C([H])([H])c4c([H])c([H])c(C(=O)C([H])([H])C([H])([H])C([H])([H])C([H])([H])C([H])([H])N([H])C(=O)N5C([H])([H])C([H])([H])C([H])([H])C([H])(n6nc(-c7c([H])c([H])c(Oc8c([H])c([H])c(F)c([H])c8F)c([H])c7[H])c(C(=O)N([H])[H])c6N([H])[H])C5([H])[H])c(C([H])([H])C([H])([H])[H])c4[H])C([H])([H])C3([H])[H])c([H])c([H])c2C1([H])[H]

>  <smiles>  (88) 
[H]c1c([H])c([H])c2c(c1[H])C([H])([H])C([H])([H])C([H])([H])C2([H])N([H])C(=O)C1([H])N(C(=O)C([H])(N([H])C(=O)C([H])(N([H])C([H])([H])[H])C([H])([H])[H])C(C([H])([H])[H])(C([H])([H])[H])C([H])([H])[H])C([H])([H])c2c([H])c(OC([H])([H])C([H])([H])[N+]3([H])C([H])([H])C([H])([H])C([H])(C([H])([H])C([H])([H])c4c([H])c([H])c(C(=O)C([H])([H])C([H])([H])C([H])([H])C([H])([H])C([H])([H])N([H])C(=O)N5C([H])([H])C([H])([H])C([H])([H])C([H])(n6nc(-c7c([H])c([H])c(Oc8c([H])c([H])c(F)c([H])c8F)c([H])c7[H])c(C(=O)N([H])[H])c6N([H])[H])C5([H])[H])c(C([H])([H])C([H])([H])[H])c4[H])C([H])([H])C3([H])[H])c([H])c([H])c2C1([H])[H]

$$$$
92:0:0
     RDKit          3D

100107  0  0  1  0  0  0  0  0999 V2000
  -23.3660  -27.4440   24.6540 C   0  0  0  0  0  2  0  0  0  0  0  0
  -24.1180  -25.9070   24.0390 C   0  0  0  0  0  3  0  0  0  0  0  0
  -24.1730  -24.9690   22.5370 C   0  0  0  0  0  3  0  0  0  0  0  0
  -25.2110  -23.7370   22.1430 N   0  0  0  0  0  4  0  0  0  0  0  0
  -24.7240  -22.8970   22.4170 H   0  0  0  0  0  0  0  0  0  0  0  0
  -25.9830  -23.8030   22.7830 H   0  0  0  0  0  0  0  0  0  0  0  0
  -25.8930  -23.3530   20.6880 C   0  0  0  0  0  3  0  0  0  0  0  0
  -24.7180  -23.3200   19.7040 C   0  0  0  0  0  3  0  0  0  0  0  0
  -24.1220  -24.3230   19.3040 O   0  0  0  0  0  0  0  0  0  0  0  0
  -26.9490  -21.9730   20.2670 C   0  0  0  0  0  3  0  0  0  0  0  0
  -28.0610  -21.6610   18.9120 C   0  0  0  0  0  3  0  0  0  0  0  0
  -28.7810  -20.1870   18.2210 C   0  0  0  0  0  2  0  0  0  0  0  0
  -30.3310  -19.8640   17.4240 C   0  0  0  0  0  2  0  0  0  0  0  0
  -31.9480  -17.8070   16.0710 C   0  0  0  0  0  0  0  0  0  0  0  0
  -33.4590  -16.9540   14.1380 C   0  0  0  0  0  2  0  0  0  0  0  0
  -34.0890  -18.1360   13.3440 C   0  0  0  0  0  2  0  0  0  0  0  0
  -33.0810  -18.7430   12.3490 C   0  0  0  0  0  2  0  0  0  0  0  0
  -31.6870  -18.9170   13.0000 C   0  0  0  0  0  3  0  0  0  0  0  0
  -31.2150  -17.6220   13.6730 C   0  0  0  0  0  2  0  0  0  0  0  0
  -32.1550  -17.3800   14.7550 N   0  0  0  0  0  0  0  0  0  0  0  0
  -32.8550  -17.4630   16.8580 O   0  0  0  0  0  0  0  0  0  0  0  0
  -30.8020  -18.6740   16.3900 N   0  0  0  0  0  0  0  0  0  0  0  0
  -30.1710  -18.6610   15.5990 H   0  0  0  0  0  0  0  0  0  0  0  0
  -29.9660  -20.5790   12.1200 C   0  0  0  0  0  0  0  0  0  0  0  0
  -29.1750  -20.5680   11.0120 C   0  0  0  0  0  0  0  0  0  0  0  0
  -29.4480  -19.3340   10.3370 C   0  0  0  0  0  0  0  0  0  0  0  0
  -30.6810  -19.3950   12.0750 N   0  0  0  0  0  0  0  0  0  0  0  0
  -30.3190  -18.6130   11.0280 N   0  0  0  0  0  0  0  0  0  0  0  0
  -28.9800  -18.8280    9.0460 C   0  0  0  0  0  0  0  0  0  0  0  0
  -28.2650  -17.6140    8.9440 C   0  0  0  0  0  3  0  0  0  0  0  0
  -27.8120  -17.1580    7.6880 C   0  0  0  0  0  3  0  0  0  0  0  0
  -28.0680  -17.9190    6.5220 C   0  0  0  0  0  0  0  0  0  0  0  0
  -28.7990  -19.1160    6.6290 C   0  0  0  0  0  3  0  0  0  0  0  0
  -29.2550  -19.5660    7.8780 C   0  0  0  0  0  3  0  0  0  0  0  0
  -27.6860  -17.5440    5.2560 O   0  0  0  0  0  0  0  0  0  0  0  0
  -26.5660  -16.7830    5.0400 C   0  0  0  0  0  0  0  0  0  0  0  0
  -25.2790  -17.2220    5.4240 C   0  0  0  0  0  3  0  0  0  0  0  0
  -24.1490  -16.4390    5.1170 C   0  0  0  0  0  3  0  0  0  0  0  0
  -24.3010  -15.2240    4.4230 C   0  0  0  0  0  0  0  0  0  0  0  0
  -25.5800  -14.7880    4.0360 C   0  0  0  0  0  3  0  0  0  0  0  0
  -26.7090  -15.5660    4.3430 C   0  0  0  0  0  0  0  0  0  0  0  0
  -27.9390  -15.1520    3.9500 F   0  0  0  0  0  0  0  0  0  0  0  0
  -23.2140  -14.4740    4.1200 F   0  0  0  0  0  0  0  0  0  0  0  0
  -28.2850  -21.6820   10.5410 C   0  0  0  0  0  0  0  0  0  0  0  0
  -27.1600  -21.3510    9.9250 N   0  0  0  0  0  0  0  0  0  0  0  0
  -28.5690  -22.8600   10.7700 O   0  0  0  0  0  0  0  0  0  0  0  0
  -26.9200  -20.3840    9.7560 H   0  0  0  0  0  0  0  0  0  0  0  0
  -26.5260  -22.0720    9.6140 H   0  0  0  0  0  0  0  0  0  0  0  0
  -30.1600  -21.4970   13.1510 N   0  0  0  0  0  0  0  0  0  0  0  0
  -29.6700  -22.3840   13.1680 H   0  0  0  0  0  0  0  0  0  0  0  0
  -30.8380  -21.4030   13.8920 H   0  0  0  0  0  0  0  0  0  0  0  0
  -23.6330  -29.2850   24.7200 C   0  0  0  0  0  2  0  0  0  0  0  0
  -24.2460  -30.6940   23.5940 C   0  0  0  0  0  2  0  0  0  0  0  0
  -25.5620  -30.8520   22.2360 C   0  0  0  0  0  2  0  0  0  0  0  0
  -27.2810  -30.7100   22.1660 N   0  0  0  0  0  4  0  0  0  0  0  0
  -27.5200  -31.4050   21.4770 H   0  0  0  0  0  0  0  0  0  0  0  0
  -27.3160  -29.8420   21.6600 H   0  0  0  0  0  0  0  0  0  0  0  0
  -28.7300  -30.5320   23.0880 C   0  0  0  0  0  2  0  0  0  0  0  0
  -29.3710  -30.5410   24.8140 C   0  0  0  0  0  2  0  0  0  0  0  0
  -30.1340  -31.4430   25.9660 O   0  0  0  0  0  0  0  0  0  0  0  0
  -25.9050  -28.4010   29.0100 C   0  0  0  0  0  0  0  0  0  0  0  0
  -29.5380  -32.4110   26.6970 C   0  0  0  0  0  3  0  0  0  0  0  0
  -26.1550  -29.2270   26.6740 C   0  0  0  0  0  3  0  0  0  0  0  0
  -27.0460  -31.5480   26.3150 C   0  0  0  0  0  0  0  0  0  0  0  0
  -26.8060  -30.6650   28.6390 C   0  0  0  0  0  2  0  0  0  0  0  0
  -27.5860  -31.4220   27.5940 C   0  0  0  0  0  0  0  0  0  0  0  0
  -28.8570  -31.9400   27.8320 C   0  0  0  0  0  3  0  0  0  0  0  0
  -28.8620  -32.9960   25.6510 C   0  0  0  0  0  2  0  0  0  0  0  0
  -27.6110  -32.4330   25.3680 C   0  0  0  0  0  3  0  0  0  0  0  0
  -25.8830  -30.6640   26.0810 C   0  0  0  0  0  2  0  0  0  0  0  0
  -26.2650  -29.3880   28.1470 N   0  0  0  0  0  0  0  0  0  0  0  0
  -25.3450  -27.3640   28.6620 O   0  0  0  0  0  0  0  0  0  0  0  0
  -27.4630  -28.3500   26.1520 C   0  0  0  0  0  0  0  0  0  0  0  0
  -27.9150  -27.7400   24.8920 N   0  0  0  0  0  0  0  0  0  0  0  0
  -28.1860  -28.0350   27.0470 O   0  0  0  0  0  0  0  0  0  0  0  0
  -28.7800  -27.3270   25.2180 H   0  0  0  0  0  0  0  0  0  0  0  0
  -27.6450  -26.4930   20.8630 C   0  0  0  0  0  0  0  0  0  0  0  0
  -27.6450  -26.8900   23.5050 C   0  0  0  0  0  3  0  0  0  0  0  0
  -28.7710  -25.9050   23.4560 C   0  0  0  0  0  2  0  0  0  0  0  0
  -29.6970  -26.1120   22.2730 C   0  0  0  0  0  2  0  0  0  0  0  0
  -28.9440  -25.7440   21.0060 C   0  0  0  0  0  2  0  0  0  0  0  0
  -26.9840  -27.0840   21.9820 C   0  0  0  0  0  0  0  0  0  0  0  0
  -25.6990  -27.6150   21.5760 C   0  0  0  0  0  3  0  0  0  0  0  0
  -25.2790  -27.8480   20.2470 C   0  0  0  0  0  3  0  0  0  0  0  0
  -26.0030  -27.2730   19.2100 C   0  0  0  0  0  3  0  0  0  0  0  0
  -27.1600  -26.5630   19.5390 C   0  0  0  0  0  3  0  0  0  0  0  0
  -26.1600  -28.5280   30.5220 C   0  0  0  0  0  3  0  0  0  0  0  0
  -25.0090  -27.9190   31.2010 N   0  0  0  0  0  0  0  0  0  0  0  0
  -24.0380  -28.6130   31.8050 C   0  0  0  0  0  0  0  0  0  0  0  0
  -24.0680  -29.8410   31.9070 O   0  0  0  0  0  0  0  0  0  0  0  0
  -24.8860  -26.9230   31.0980 H   0  0  0  0  0  0  0  0  0  0  0  0
  -21.6270  -27.9730   31.5000 C   0  0  0  0  0  1  0  0  0  0  0  0
  -22.8600  -27.8220   32.4050 C   0  0  0  0  0  3  0  0  0  0  0  0
  -23.5490  -27.8500   34.7560 C   0  0  0  0  0  1  0  0  0  0  0  0
  -22.5270  -28.2340   33.7860 N   0  0  0  0  0  0  0  0  0  0  0  0
  -21.6450  -27.8240   34.0870 H   0  0  0  0  0  0  0  0  0  0  0  0
  -27.5040  -27.8280   30.9590 C   0  0  1  0  0  0  0  0  0  0  0  0
  -27.7200  -26.4040   30.3880 C   0  0  0  0  0  1  0  0  0  0  0  0
  -28.7330  -28.6710   30.5600 C   0  0  0  0  0  1  0  0  0  0  0  0
  -27.5410  -27.7330   32.4950 C   0  0  0  0  0  1  0  0  0  0  0  0
  1 52  1  0
  2  1  1  0
  3  2  2  0
  4  5  1  0
  4  3  1  0
  4  6  1  0
  7  8  1  0
  7  4  1  0
  9  8  2  0
 10  7  1  0
 11 10  2  0
 12 11  1  0
 13 12  1  0
 14 22  1  0
 14 21  2  0
 15 20  1  0
 16 15  1  0
 17 18  1  0
 17 16  1  0
 18 27  1  0
 18 19  1  0
 19 20  1  0
 20 14  1  0
 22 13  1  0
 23 22  1  0
 24 49  1  0
 25 24  2  0
 26 25  1  0
 26 28  2  0
 27 24  1  0
 28 27  1  0
 29 26  1  0
 30 29  1  0
 31 30  2  0
 32 33  2  0
 32 31  1  0
 33 34  1  0
 34 29  2  0
 35 32  1  0
 36 35  1  0
 36 37  1  0
 38 37  2  0
 39 38  1  0
 40 41  1  0
 40 39  2  0
 41 36  2  0
 42 41  1  0
 43 39  1  0
 44 46  2  0
 44 25  1  0
 45 44  1  0
 47 45  1  0
 48 45  1  0
 49 50  1  0
 49 51  1  0
 53 52  1  0
 54 53  1  0
 55 54  1  0
 55 58  1  0
 56 55  1  0
 57 55  1  0
 58 59  1  0
 59 60  1  0
 62 60  1  0
 62 67  1  0
 63 73  1  0
 63 71  1  0
 64 66  1  0
 66 67  2  0
 66 65  1  0
 68 62  1  0
 69 68  1  0
 69 64  2  0
 70 64  1  0
 70 63  1  0
 71 65  1  0
 71 61  1  0
 72 61  2  0
 73 75  2  0
 74 76  1  0
 74 73  1  0
 77 81  1  0
 77 82  1  0
 78 74  1  0
 79 78  1  0
 80 79  1  0
 81 80  1  0
 82 78  1  0
 83 82  2  0
 84 83  1  0
 85 86  1  0
 85 84  2  0
 86 77  2  0
 87 61  1  0
 87 97  1  0
 87 88  1  0
 88 89  1  0
 89 90  2  0
 89 93  1  0
 91 88  1  0
 93 92  1  0
 93 95  1  0
 95 96  1  0
 95 94  1  0
 97100  1  1
 98 97  1  0
 99 97  1  0
M  ISO  4  14 100  22 100  59 101  60 101
M  END
>  <TORSDO>  (89) 
F 31

>  <SCORE>  (89) 
-6.826

>  <name>  (89) 
92

>  <ligand_id>  (89) 
92

>  <original_smiles>  (89) 
[H]C(=O)C([H])(C([H])([H])C([H])([H])C([H])([H])C([H])([H])N([H])C(=O)N1C([H])([H])C([H])([H])C([H])([H])C([H])(n2nc(-c3c([H])c([H])c(Oc4c([H])c([H])c(F)c([H])c4F)c([H])c3[H])c(C(=O)N([H])[H])c2N([H])[H])C1([H])[H])[N+]([H])([H])C([H])([H])C([H])([H])C([H])([H])C([H])([H])C([H])([H])C([H])([H])[N+]([H])([H])C([H])([H])C([H])([H])Oc1c([H])c([H])c2c(c1[H])C([H])([H])N(C(=O)C([H])(N([H])C(=O)C([H])(N([H])C([H])([H])[H])C([H])([H])[H])C(C([H])([H])[H])(C([H])([H])[H])C([H])([H])[H])C([H])(C(=O)N([H])C1([H])c3c([H])c([H])c([H])c([H])c3C([H])([H])C([H])([H])C1([H])[H])C2([H])[H]

>  <smiles>  (89) 
[H]C(=O)C([H])(C([H])([H])C([H])([H])C([H])([H])C([H])([H])N([H])C(=O)N1C([H])([H])C([H])([H])C([H])([H])C([H])(n2nc(-c3c([H])c([H])c(Oc4c([H])c([H])c(F)c([H])c4F)c([H])c3[H])c(C(=O)N([H])[H])c2N([H])[H])C1([H])[H])[N+]([H])([H])C([H])([H])C([H])([H])C([H])([H])C([H])([H])C([H])([H])C([H])([H])[N+]([H])([H])C([H])([H])C([H])([H])Oc1c([H])c([H])c2c(c1[H])C([H])([H])N(C(=O)C([H])(N([H])C(=O)C([H])(N([H])C([H])([H])[H])C([H])([H])[H])C(C([H])([H])[H])(C([H])([H])[H])C([H])([H])[H])C([H])(C(=O)N([H])C1([H])c3c([H])c([H])c([H])c([H])c3C([H])([H])C([H])([H])C1([H])[H])C2([H])[H]

$$$$
93:0:0
     RDKit          3D

100107  0  0  1  0  0  0  0  0999 V2000
  -25.1980  -23.9620   16.9680 C   0  0  0  0  0  2  0  0  0  0  0  0
  -24.8330  -22.5340   16.8170 N   0  0  0  0  0  4  0  0  0  0  0  0
  -23.8830  -22.4530   16.4880 H   0  0  0  0  0  0  0  0  0  0  0  0
  -25.4270  -22.1180   16.1190 H   0  0  0  0  0  0  0  0  0  0  0  0
  -24.9820  -21.7540   18.0690 C   0  0  0  0  0  2  0  0  0  0  0  0
  -25.9110  -20.5420   17.8750 C   0  0  0  0  0  2  0  0  0  0  0  0
  -26.3560  -19.9080   19.2040 C   0  0  0  0  0  2  0  0  0  0  0  0
  -27.4430  -18.8390   18.9970 C   0  0  0  0  0  2  0  0  0  0  0  0
  -28.1150  -18.3930   20.3010 C   0  0  0  0  0  2  0  0  0  0  0  0
  -29.2240  -17.3650   20.0440 C   0  0  0  0  0  2  0  0  0  0  0  0
  -30.0550  -17.0700   21.3030 C   0  0  0  0  0  2  0  0  0  0  0  0
  -32.1150  -15.9730   22.2920 C   0  0  0  0  0  1  0  0  0  0  0  0
  -31.1890  -16.0580   21.0700 C   0  0  0  0  0  3  0  0  0  0  0  0
  -30.9070  -13.9600   19.7240 C   0  0  0  0  0  0  0  0  0  0  0  0
  -30.3950  -11.8060   18.6320 C   0  0  0  0  0  2  0  0  0  0  0  0
  -29.3260  -11.9610   17.5350 C   0  0  0  0  0  2  0  0  0  0  0  0
  -27.9100  -11.8640   18.1340 C   0  0  0  0  0  2  0  0  0  0  0  0
  -27.7230  -12.7910   19.3630 C   0  0  0  0  0  3  0  0  0  0  0  0
  -28.8820  -12.6030   20.3670 C   0  0  0  0  0  2  0  0  0  0  0  0
  -30.1610  -12.8290   19.6610 N   0  0  0  0  0  0  0  0  0  0  0  0
  -31.8070  -14.2310   18.9200 O   0  0  0  0  0  0  0  0  0  0  0  0
  -30.6320  -14.7400   20.7770 N   0  0  0  0  0  0  0  0  0  0  0  0
  -29.9170  -14.3970   21.4020 H   0  0  0  0  0  0  0  0  0  0  0  0
  -25.4620  -13.5060   20.3730 C   0  0  0  0  0  0  0  0  0  0  0  0
  -24.4080  -12.7800   20.8580 C   0  0  0  0  0  0  0  0  0  0  0  0
  -24.7860  -11.4070   20.7390 C   0  0  0  0  0  0  0  0  0  0  0  0
  -26.4230  -12.5790   19.9980 N   0  0  0  0  0  0  0  0  0  0  0  0
  -26.0230  -11.3090   20.2680 N   0  0  0  0  0  0  0  0  0  0  0  0
  -24.0220  -10.1790   20.9920 C   0  0  0  0  0  0  0  0  0  0  0  0
  -24.4430   -9.2320   21.9510 C   0  0  0  0  0  3  0  0  0  0  0  0
  -23.6800   -8.0680   22.1880 C   0  0  0  0  0  3  0  0  0  0  0  0
  -22.4830   -7.8440   21.4680 C   0  0  0  0  0  0  0  0  0  0  0  0
  -22.0810   -8.7790   20.4990 C   0  0  0  0  0  3  0  0  0  0  0  0
  -22.8440   -9.9340   20.2590 C   0  0  0  0  0  3  0  0  0  0  0  0
  -21.6930   -6.7280   21.6140 O   0  0  0  0  0  0  0  0  0  0  0  0
  -21.5960   -6.0660   22.8110 C   0  0  0  0  0  0  0  0  0  0  0  0
  -21.0780   -6.6890   23.9680 C   0  0  0  0  0  3  0  0  0  0  0  0
  -20.9310   -5.9510   25.1590 C   0  0  0  0  0  3  0  0  0  0  0  0
  -21.2910   -4.5910   25.1930 C   0  0  0  0  0  0  0  0  0  0  0  0
  -21.8030   -3.9670   24.0420 C   0  0  0  0  0  3  0  0  0  0  0  0
  -21.9510   -4.7030   22.8530 C   0  0  0  0  0  0  0  0  0  0  0  0
  -22.4240   -4.0910   21.7400 F   0  0  0  0  0  0  0  0  0  0  0  0
  -21.1440   -3.8800   26.3360 F   0  0  0  0  0  0  0  0  0  0  0  0
  -23.0860  -13.3220   21.3180 C   0  0  0  0  0  0  0  0  0  0  0  0
  -22.4340  -12.6370   22.2510 N   0  0  0  0  0  0  0  0  0  0  0  0
  -22.6410  -14.3840   20.8820 O   0  0  0  0  0  0  0  0  0  0  0  0
  -22.8070  -11.7760   22.6240 H   0  0  0  0  0  0  0  0  0  0  0  0
  -21.5510  -12.9800   22.6030 H   0  0  0  0  0  0  0  0  0  0  0  0
  -25.6810  -14.8700   20.2100 N   0  0  0  0  0  0  0  0  0  0  0  0
  -24.9790  -15.5630   20.4390 H   0  0  0  0  0  0  0  0  0  0  0  0
  -26.5240  -15.2720   19.8200 H   0  0  0  0  0  0  0  0  0  0  0  0
  -25.1110  -24.7590   15.6480 C   0  0  0  0  0  2  0  0  0  0  0  0
  -25.7780  -26.1560   15.7020 C   0  0  0  0  0  2  0  0  0  0  0  0
  -27.3030  -26.1390   15.9750 C   0  0  0  0  0  2  0  0  0  0  0  0
  -27.6660  -26.8290   17.2350 N   0  0  0  0  0  4  0  0  0  0  0  0
  -26.8800  -26.8020   17.8640 H   0  0  0  0  0  0  0  0  0  0  0  0
  -27.8430  -27.8010   17.0210 H   0  0  0  0  0  0  0  0  0  0  0  0
  -28.8390  -26.2620   17.9490 C   0  0  0  0  0  2  0  0  0  0  0  0
  -29.1630  -27.0080   19.2630 C   0  0  0  0  0  2  0  0  0  0  0  0
  -28.2940  -26.5940   20.3260 O   0  0  0  0  0  0  0  0  0  0  0  0
  -24.4790  -31.8340   23.2990 C   0  0  0  0  0  0  0  0  0  0  0  0
  -27.1270  -27.3040   20.3920 C   0  0  0  0  0  0  0  0  0  0  0  0
  -23.2830  -30.3870   21.6910 C   0  0  0  0  0  3  0  0  0  0  0  0
  -24.7370  -28.7870   20.3430 C   0  0  0  0  0  0  0  0  0  0  0  0
  -25.8080  -30.7290   21.5070 C   0  0  0  0  0  2  0  0  0  0  0  0
  -25.8900  -29.3360   20.9220 C   0  0  0  0  0  0  0  0  0  0  0  0
  -27.0910  -28.5980   20.9490 C   0  0  0  0  0  3  0  0  0  0  0  0
  -25.9510  -26.7400   19.8620 C   0  0  0  0  0  3  0  0  0  0  0  0
  -24.7560  -27.4820   19.8190 C   0  0  0  0  0  3  0  0  0  0  0  0
  -23.4980  -29.6510   20.3400 C   0  0  0  0  0  2  0  0  0  0  0  0
  -24.5420  -31.0010   22.2230 N   0  0  0  0  0  0  0  0  0  0  0  0
  -23.3940  -32.1330   23.8140 O   0  0  0  0  0  0  0  0  0  0  0  0
  -22.6130  -29.4060   22.6780 C   0  0  0  0  0  0  0  0  0  0  0  0
  -21.2940  -29.2100   22.5190 N   0  0  0  0  0  0  0  0  0  0  0  0
  -23.2790  -28.8190   23.5360 O   0  0  0  0  0  0  0  0  0  0  0  0
  -20.8220  -29.7450   21.8040 H   0  0  0  0  0  0  0  0  0  0  0  0
  -17.9100  -28.0230   22.9690 C   0  0  0  0  0  0  0  0  0  0  0  0
  -20.4570  -28.3020   23.3040 C   0  0  0  0  0  3  0  0  0  0  0  0
  -20.5780  -26.8470   22.7950 C   0  0  0  0  0  2  0  0  0  0  0  0
  -19.5070  -26.4770   21.7620 C   0  0  0  0  0  2  0  0  0  0  0  0
  -18.1090  -26.6450   22.3600 C   0  0  0  0  0  2  0  0  0  0  0  0
  -19.0140  -28.8070   23.3970 C   0  0  0  0  0  0  0  0  0  0  0  0
  -18.7750  -30.0940   23.9240 C   0  0  0  0  0  3  0  0  0  0  0  0
  -17.4660  -30.5980   24.0300 C   0  0  0  0  0  3  0  0  0  0  0  0
  -16.3760  -29.8130   23.6160 C   0  0  0  0  0  3  0  0  0  0  0  0
  -16.5990  -28.5280   23.0920 C   0  0  0  0  0  3  0  0  0  0  0  0
  -25.7640  -32.4730   23.9180 C   0  0  0  0  0  3  0  0  0  0  0  0
  -25.4620  -33.8780   24.2160 N   0  0  0  0  0  0  0  0  0  0  0  0
  -25.8080  -34.9110   23.4360 C   0  0  0  0  0  0  0  0  0  0  0  0
  -26.4850  -34.7840   22.4120 O   0  0  0  0  0  0  0  0  0  0  0  0
  -24.8660  -34.0600   25.0100 H   0  0  0  0  0  0  0  0  0  0  0  0
  -24.0940  -36.7020   23.0200 C   0  0  0  0  0  1  0  0  0  0  0  0
  -25.3240  -36.3120   23.8560 C   0  0  0  0  0  3  0  0  0  0  0  0
  -27.4500  -37.2010   24.7030 C   0  0  0  0  0  1  0  0  0  0  0  0
  -26.3650  -37.3550   23.7360 N   0  0  0  0  0  0  0  0  0  0  0  0
  -25.9630  -38.2810   23.8550 H   0  0  0  0  0  0  0  0  0  0  0  0
  -26.2760  -31.7240   25.2090 C   0  0  1  0  0  0  0  0  0  0  0  0
  -25.1780  -31.4900   26.2720 C   0  0  0  0  0  1  0  0  0  0  0  0
  -26.8770  -30.3490   24.8390 C   0  0  0  0  0  1  0  0  0  0  0  0
  -27.4150  -32.5340   25.8720 C   0  0  0  0  0  1  0  0  0  0  0  0
  2  1  1  0
  2  5  1  0
  3  2  1  0
  4  2  1  0
  6  5  1  0
  6  7  1  0
  8  7  1  0
  8  9  1  0
 10  9  1  0
 10 11  1  0
 13 11  1  0
 13 12  1  0
 14 22  1  0
 15 20  1  0
 16 17  1  0
 16 15  1  0
 18 17  1  0
 18 27  1  0
 18 19  1  0
 20 14  1  0
 20 19  1  0
 21 14  2  0
 22 13  1  0
 22 23  1  0
 24 25  2  0
 25 44  1  0
 26 25  1  0
 26 29  1  0
 27 28  1  0
 27 24  1  0
 28 26  2  0
 29 30  1  0
 30 31  2  0
 32 35  1  0
 32 31  1  0
 33 32  2  0
 34 33  1  0
 34 29  2  0
 35 36  1  0
 36 41  2  0
 36 37  1  0
 37 38  2  0
 38 39  1  0
 39 43  1  0
 40 39  2  0
 41 40  1  0
 42 41  1  0
 44 45  1  0
 45 48  1  0
 45 47  1  0
 46 44  2  0
 49 24  1  0
 49 50  1  0
 51 49  1  0
 52 53  1  0
 52  1  1  0
 53 54  1  0
 54 55  1  0
 55 56  1  0
 55 58  1  0
 57 55  1  0
 58 59  1  0
 59 60  1  0
 60 62  1  0
 61 72  2  0
 62 67  1  0
 63 71  1  0
 63 73  1  0
 64 66  1  0
 65 71  1  0
 66 67  2  0
 66 65  1  0
 68 62  2  0
 69 68  1  0
 69 64  2  0
 70 64  1  0
 70 63  1  0
 71 61  1  0
 73 75  2  0
 74 73  1  0
 76 74  1  0
 77 86  2  0
 77 82  1  0
 78 74  1  0
 78 82  1  0
 79 78  1  0
 80 81  1  0
 80 79  1  0
 81 77  1  0
 82 83  2  0
 83 84  1  0
 85 84  2  0
 86 85  1  0
 87 61  1  0
 87 88  1  0
 87 97  1  0
 88 91  1  0
 89 93  1  0
 89 88  1  0
 90 89  2  0
 93 92  1  0
 95 96  1  0
 95 93  1  0
 95 94  1  0
 97100  1  1
 97 98  1  0
 99 97  1  0
M  ISO  4  14 100  22 100  59 101  60 101
M  END
>  <TORSDO>  (90) 
F 31

>  <SCORE>  (90) 
-8.218

>  <name>  (90) 
93

>  <ligand_id>  (90) 
93

>  <original_smiles>  (90) 
[H]c1c([H])c([H])c2c(c1[H])C([H])([H])C([H])([H])C([H])([H])C2([H])N([H])C(=O)C1([H])N(C(=O)C([H])(N([H])C(=O)C([H])(N([H])C([H])([H])[H])C([H])([H])[H])C(C([H])([H])[H])(C([H])([H])[H])C([H])([H])[H])C([H])([H])c2c([H])c(OC([H])([H])C([H])([H])[N+]([H])([H])C([H])([H])C([H])([H])C([H])([H])C([H])([H])[N+]([H])([H])C([H])([H])C([H])([H])C([H])([H])C([H])([H])C([H])([H])C([H])([H])C([H])([H])C([H])(N([H])C(=O)N3C([H])([H])C([H])([H])C([H])([H])C([H])(n4nc(-c5c([H])c([H])c(Oc6c([H])c([H])c(F)c([H])c6F)c([H])c5[H])c(C(=O)N([H])[H])c4N([H])[H])C3([H])[H])C([H])([H])[H])c([H])c([H])c2C1([H])[H]

>  <smiles>  (90) 
[H]c1c([H])c([H])c2c(c1[H])C([H])([H])C([H])([H])C([H])([H])C2([H])N([H])C(=O)C1([H])N(C(=O)C([H])(N([H])C(=O)C([H])(N([H])C([H])([H])[H])C([H])([H])[H])C(C([H])([H])[H])(C([H])([H])[H])C([H])([H])[H])C([H])([H])c2c([H])c(OC([H])([H])C([H])([H])[N+]([H])([H])C([H])([H])C([H])([H])C([H])([H])C([H])([H])[N+]([H])([H])C([H])([H])C([H])([H])C([H])([H])C([H])([H])C([H])([H])C([H])([H])C([H])([H])C([H])(N([H])C(=O)N3C([H])([H])C([H])([H])C([H])([H])C([H])(n4nc(-c5c([H])c([H])c(Oc6c([H])c([H])c(F)c([H])c6F)c([H])c5[H])c(C(=O)N([H])[H])c4N([H])[H])C3([H])[H])C([H])([H])[H])c([H])c([H])c2C1([H])[H]

$$$$
94:0:0
     RDKit          3D

100108  0  0  1  0  0  0  0  0999 V2000
  -29.9030  -21.7310   22.3990 C   0  0  0  0  0  3  0  0  0  0  0  0
  -29.6200  -20.5350   20.2960 C   0  0  0  0  0  3  0  0  0  0  0  0
  -29.9850  -20.5040   23.0830 C   0  0  0  0  0  3  0  0  0  0  0  0
  -29.7040  -19.3030   20.9850 C   0  0  0  0  0  3  0  0  0  0  0  0
  -29.7180  -21.7590   20.9970 C   0  0  0  0  0  0  0  0  0  0  0  0
  -29.8840  -19.2850   22.3860 C   0  0  0  0  0  0  0  0  0  0  0  0
  -29.5380  -23.0670   20.2710 C   0  0  0  0  0  0  0  0  0  0  0  0
  -30.3840  -24.0440   20.6200 N   0  0  0  0  0  0  0  0  0  0  0  0
  -28.6740  -23.2040   19.4050 O   0  0  0  0  0  0  0  0  0  0  0  0
  -31.1100  -23.8080   21.2800 H   0  0  0  0  0  0  0  0  0  0  0  0
  -30.3210  -25.4340   20.1790 C   0  0  0  0  0  2  0  0  0  0  0  0
  -29.0660  -26.1470   20.7100 C   0  0  0  0  0  2  0  0  0  0  0  0
  -29.0990  -27.5390   20.3920 O   0  0  0  0  0  0  0  0  0  0  0  0
  -24.8170  -32.1750   23.6850 C   0  0  0  0  0  0  0  0  0  0  0  0
  -27.8790  -28.1720   20.4080 C   0  0  0  0  0  0  0  0  0  0  0  0
  -23.7790  -30.8430   21.8770 C   0  0  0  0  0  3  0  0  0  0  0  0
  -25.3910  -29.5140   20.4180 C   0  0  0  0  0  0  0  0  0  0  0  0
  -26.2820  -31.3660   21.8400 C   0  0  0  0  0  2  0  0  0  0  0  0
  -26.4820  -30.0610   21.1020 C   0  0  0  0  0  0  0  0  0  0  0  0
  -27.7310  -29.4000   21.0910 C   0  0  0  0  0  3  0  0  0  0  0  0
  -26.7680  -27.6380   19.7180 C   0  0  0  0  0  3  0  0  0  0  0  0
  -25.5290  -28.3010   19.7220 C   0  0  0  0  0  3  0  0  0  0  0  0
  -24.0930  -30.2870   20.4630 C   0  0  0  0  0  2  0  0  0  0  0  0
  -24.9750  -31.4710   22.5280 N   0  0  0  0  0  0  0  0  0  0  0  0
  -23.6980  -32.3380   24.1890 O   0  0  0  0  0  0  0  0  0  0  0  0
  -23.1480  -29.7110   22.7180 C   0  0  0  0  0  0  0  0  0  0  0  0
  -21.8600  -29.4240   22.4650 N   0  0  0  0  0  0  0  0  0  0  0  0
  -23.8150  -29.0920   23.5510 O   0  0  0  0  0  0  0  0  0  0  0  0
  -21.3790  -29.9810   21.7730 H   0  0  0  0  0  0  0  0  0  0  0  0
  -18.6010  -27.8690   22.5400 C   0  0  0  0  0  0  0  0  0  0  0  0
  -21.0710  -28.3740   23.1090 C   0  0  0  0  0  3  0  0  0  0  0  0
  -21.3860  -26.9870   22.5050 C   0  0  0  0  0  2  0  0  0  0  0  0
  -20.4440  -26.5980   21.3610 C   0  0  0  0  0  2  0  0  0  0  0  0
  -18.9910  -26.5740   21.8460 C   0  0  0  0  0  2  0  0  0  0  0  0
  -19.5790  -28.7210   23.1180 C   0  0  0  0  0  0  0  0  0  0  0  0
  -19.1650  -29.9290   23.7180 C   0  0  0  0  0  3  0  0  0  0  0  0
  -17.8050  -30.2900   23.7490 C   0  0  0  0  0  3  0  0  0  0  0  0
  -16.8390  -29.4350   23.1900 C   0  0  0  0  0  3  0  0  0  0  0  0
  -17.2370  -28.2260   22.5930 C   0  0  0  0  0  3  0  0  0  0  0  0
  -26.0320  -32.8260   24.4190 C   0  0  0  0  0  3  0  0  0  0  0  0
  -26.4570  -32.0490   25.7260 C   0  0  1  0  0  0  0  0  0  0  0  0
  -25.2750  -31.7310   26.6710 C   0  0  0  0  0  1  0  0  0  0  0  0
  -27.1490  -30.7150   25.3630 C   0  0  0  0  0  1  0  0  0  0  0  0
  -27.4940  -32.8810   26.5190 C   0  0  0  0  0  1  0  0  0  0  0  0
  -25.6660  -34.2120   24.7380 N   0  0  0  0  0  0  0  0  0  0  0  0
  -26.0500  -35.2830   24.0300 C   0  0  0  0  0  0  0  0  0  0  0  0
  -26.8200  -35.2090   23.0690 O   0  0  0  0  0  0  0  0  0  0  0  0
  -24.9930  -34.3410   25.4790 H   0  0  0  0  0  0  0  0  0  0  0  0
  -24.3300  -37.0460   23.5230 C   0  0  0  0  0  1  0  0  0  0  0  0
  -25.4870  -36.6530   24.4540 C   0  0  0  0  0  3  0  0  0  0  0  0
  -27.5140  -37.5530   25.5060 C   0  0  0  0  0  1  0  0  0  0  0  0
  -26.5040  -37.7280   24.4660 N   0  0  0  0  0  0  0  0  0  0  0  0
  -26.0660  -38.6380   24.5940 H   0  0  0  0  0  0  0  0  0  0  0  0
  -29.9880  -17.9720   23.1530 C   0  0  0  0  0  2  0  0  0  0  0  0
  -31.3450  -17.4160   22.9960 N   0  0  0  0  0  4  0  0  0  0  0  0
  -32.0280  -18.1130   23.2450 H   0  0  0  0  0  0  0  0  0  0  0  0
  -31.4410  -17.2400   22.0120 H   0  0  0  0  0  0  0  0  0  0  0  0
  -32.0660  -16.4380   25.1690 C   0  0  0  0  0  1  0  0  0  0  0  0
  -31.6370  -16.1540   23.7150 C   0  0  0  0  0  3  0  0  0  0  0  0
  -32.7240  -15.3460   22.9630 C   0  0  0  0  0  2  0  0  0  0  0  0
  -32.1850  -14.3020   21.9640 C   0  0  0  0  0  2  0  0  0  0  0  0
  -31.5550  -14.8640   20.6660 C   0  0  0  0  0  2  0  0  0  0  0  0
  -30.0390  -13.8340   18.9640 C   0  0  0  0  0  0  0  0  0  0  0  0
  -29.2690  -11.8740   17.7020 C   0  0  0  0  0  2  0  0  0  0  0  0
  -28.0340  -12.0780   16.8150 C   0  0  0  0  0  2  0  0  0  0  0  0
  -26.7480  -11.8600   17.6250 C   0  0  0  0  0  2  0  0  0  0  0  0
  -26.7270  -12.7050   18.9220 C   0  0  0  0  0  3  0  0  0  0  0  0
  -28.0380  -12.5320   19.7270 C   0  0  0  0  0  2  0  0  0  0  0  0
  -29.1980  -12.7830   18.8500 N   0  0  0  0  0  0  0  0  0  0  0  0
  -30.6220  -14.3630   18.0120 O   0  0  0  0  0  0  0  0  0  0  0  0
  -30.4280  -14.0420   20.2300 N   0  0  0  0  0  0  0  0  0  0  0  0
  -29.9830  -13.4570   20.9220 H   0  0  0  0  0  0  0  0  0  0  0  0
  -24.6030  -13.2570   20.2780 C   0  0  0  0  0  0  0  0  0  0  0  0
  -23.6620  -12.4590   20.8700 C   0  0  0  0  0  0  0  0  0  0  0  0
  -24.0810  -11.1130   20.6350 C   0  0  0  0  0  0  0  0  0  0  0  0
  -25.5440  -12.3980   19.7280 N   0  0  0  0  0  0  0  0  0  0  0  0
  -25.2430  -11.1010   19.9940 N   0  0  0  0  0  0  0  0  0  0  0  0
  -23.4150   -9.8370   20.9300 C   0  0  0  0  0  0  0  0  0  0  0  0
  -24.0060   -8.8750   21.7800 C   0  0  0  0  0  3  0  0  0  0  0  0
  -23.3370   -7.6660   22.0660 C   0  0  0  0  0  3  0  0  0  0  0  0
  -22.0640   -7.4080   21.5020 C   0  0  0  0  0  0  0  0  0  0  0  0
  -21.4920   -8.3580   20.6390 C   0  0  0  0  0  3  0  0  0  0  0  0
  -22.1610   -9.5600   20.3520 C   0  0  0  0  0  3  0  0  0  0  0  0
  -21.3530   -6.2500   21.7020 O   0  0  0  0  0  0  0  0  0  0  0  0
  -21.4320   -5.5500   22.8790 C   0  0  0  0  0  0  0  0  0  0  0  0
  -21.0940   -6.1370   24.1190 C   0  0  0  0  0  3  0  0  0  0  0  0
  -21.1240   -5.3620   25.2960 C   0  0  0  0  0  3  0  0  0  0  0  0
  -21.4810   -4.0010   25.2350 C   0  0  0  0  0  0  0  0  0  0  0  0
  -21.8120   -3.4140   24.0010 C   0  0  0  0  0  3  0  0  0  0  0  0
  -21.7850   -4.1870   22.8270 C   0  0  0  0  0  0  0  0  0  0  0  0
  -22.0840   -3.6100   21.6380 F   0  0  0  0  0  0  0  0  0  0  0  0
  -21.5000   -3.2550   26.3640 F   0  0  0  0  0  0  0  0  0  0  0  0
  -22.3910  -12.9080   21.5340 C   0  0  0  0  0  0  0  0  0  0  0  0
  -21.9220  -12.1640   22.5280 N   0  0  0  0  0  0  0  0  0  0  0  0
  -21.8360  -13.9590   21.2090 O   0  0  0  0  0  0  0  0  0  0  0  0
  -22.3900  -11.3140   22.8090 H   0  0  0  0  0  0  0  0  0  0  0  0
  -21.0840  -12.4450   23.0160 H   0  0  0  0  0  0  0  0  0  0  0  0
  -24.7310  -14.6370   20.1460 N   0  0  0  0  0  0  0  0  0  0  0  0
  -24.0220  -15.2840   20.4730 H   0  0  0  0  0  0  0  0  0  0  0  0
  -25.4790  -15.0920   19.6360 H   0  0  0  0  0  0  0  0  0  0  0  0
  1  3  1  0
  2  4  2  0
  2  5  1  0
  4  6  1  0
  5  1  2  0
  6  3  2  0
  6 54  1  0
  7  8  1  0
  7  5  1  0
  8 10  1  0
  9  7  2  0
 11  8  1  0
 11 12  1  0
 13 15  1  0
 13 12  1  0
 14 25  2  0
 15 20  1  0
 16 24  1  0
 16 26  1  0
 17 23  1  0
 17 19  1  0
 18 24  1  0
 19 18  1  0
 20 19  2  0
 21 22  1  0
 21 15  2  0
 22 17  2  0
 23 16  1  0
 24 14  1  0
 26 28  2  0
 27 26  1  0
 29 27  1  0
 30 39  2  0
 30 35  1  0
 31 27  1  0
 31 35  1  0
 32 31  1  0
 33 34  1  0
 33 32  1  0
 34 30  1  0
 35 36  2  0
 36 37  1  0
 38 37  2  0
 39 38  1  0
 40 14  1  0
 40 45  1  0
 40 41  1  0
 41 44  1  1
 41 42  1  0
 43 41  1  0
 45 48  1  0
 46 50  1  0
 46 45  1  0
 47 46  2  0
 50 49  1  0
 50 52  1  0
 52 53  1  0
 52 51  1  0
 55 54  1  0
 55 56  1  0
 55 59  1  0
 57 55  1  0
 59 58  1  0
 60 59  1  0
 61 60  1  0
 62 61  1  0
 63 71  1  0
 64 69  1  0
 65 66  1  0
 65 64  1  0
 67 66  1  0
 67 68  1  0
 67 76  1  0
 69 63  1  0
 69 68  1  0
 70 63  2  0
 71 62  1  0
 71 72  1  0
 73 74  2  0
 74 93  1  0
 75 74  1  0
 75 78  1  0
 76 77  1  0
 76 73  1  0
 77 75  2  0
 78 79  1  0
 79 80  2  0
 81 84  1  0
 81 80  1  0
 82 81  2  0
 83 82  1  0
 83 78  2  0
 84 85  1  0
 85 86  1  0
 86 87  2  0
 88 87  1  0
 88 92  1  0
 89 88  2  0
 90 85  2  0
 90 89  1  0
 91 90  1  0
 93 94  1  0
 94 96  1  0
 94 97  1  0
 95 93  2  0
 98 73  1  0
 98 99  1  0
100 98  1  0
M  ISO  4  12 101  13 101  63 100  71 100
M  END
>  <TORSDO>  (91) 
F 25

>  <SCORE>  (91) 
8.409

>  <name>  (91) 
94

>  <ligand_id>  (91) 
94

>  <original_smiles>  (91) 
[H]c1c([H])c([H])c2c(c1[H])C([H])([H])C([H])([H])C([H])([H])C2([H])N([H])C(=O)C1([H])N(C(=O)C([H])(N([H])C(=O)C([H])(N([H])C([H])([H])[H])C([H])([H])[H])C(C([H])([H])[H])(C([H])([H])[H])C([H])([H])[H])C([H])([H])c2c([H])c(OC([H])([H])C([H])([H])N([H])C(=O)c3c([H])c([H])c(C([H])([H])[N+]([H])([H])C([H])(C([H])([H])[H])C([H])([H])C([H])([H])C([H])([H])N([H])C(=O)N4C([H])([H])C([H])([H])C([H])([H])C([H])(n5nc(-c6c([H])c([H])c(Oc7c([H])c([H])c(F)c([H])c7F)c([H])c6[H])c(C(=O)N([H])[H])c5N([H])[H])C4([H])[H])c([H])c3[H])c([H])c([H])c2C1([H])[H]

>  <smiles>  (91) 
[H]c1c([H])c([H])c2c(c1[H])C([H])([H])C([H])([H])C([H])([H])C2([H])N([H])C(=O)C1([H])N(C(=O)C([H])(N([H])C(=O)C([H])(N([H])C([H])([H])[H])C([H])([H])[H])C(C([H])([H])[H])(C([H])([H])[H])C([H])([H])[H])C([H])([H])c2c([H])c(OC([H])([H])C([H])([H])N([H])C(=O)c3c([H])c([H])c(C([H])([H])[N+]([H])([H])C([H])(C([H])([H])[H])C([H])([H])C([H])([H])C([H])([H])N([H])C(=O)N4C([H])([H])C([H])([H])C([H])([H])C([H])(n5nc(-c6c([H])c([H])c(Oc7c([H])c([H])c(F)c([H])c7F)c([H])c6[H])c(C(=O)N([H])[H])c5N([H])[H])C4([H])[H])c([H])c3[H])c([H])c([H])c2C1([H])[H]

$$$$
95:0:0
     RDKit          3D

 93100  0  0  1  0  0  0  0  0999 V2000
  -29.5480  -24.3690   18.1090 C   0  0  0  0  0  0  0  0  0  0  0  0
  -28.8380  -23.2700   17.8180 N   0  0  0  0  0  0  0  0  0  0  0  0
  -30.7110  -24.3130   18.5110 O   0  0  0  0  0  0  0  0  0  0  0  0
  -27.8890  -23.4110   17.4950 H   0  0  0  0  0  0  0  0  0  0  0  0
  -28.8710  -25.7210   17.8370 C   0  0  0  0  0  2  0  0  0  0  0  0
  -29.1740  -26.8420   18.8580 C   0  0  0  0  0  2  0  0  0  0  0  0
  -28.4210  -26.7300   20.0670 O   0  0  0  0  0  0  0  0  0  0  0  0
  -24.6260  -31.8770   23.2010 C   0  0  0  0  0  0  0  0  0  0  0  0
  -27.2540  -27.4540   20.0940 C   0  0  0  0  0  0  0  0  0  0  0  0
  -23.4050  -30.4670   21.5750 C   0  0  0  0  0  3  0  0  0  0  0  0
  -24.8480  -28.9260   20.1430 C   0  0  0  0  0  0  0  0  0  0  0  0
  -25.9250  -30.8370   21.3480 C   0  0  0  0  0  2  0  0  0  0  0  0
  -26.0090  -29.4630   20.7150 C   0  0  0  0  0  0  0  0  0  0  0  0
  -27.2140  -28.7310   20.6960 C   0  0  0  0  0  3  0  0  0  0  0  0
  -26.0750  -26.9130   19.5440 C   0  0  0  0  0  3  0  0  0  0  0  0
  -24.8730  -27.6470   19.5600 C   0  0  0  0  0  3  0  0  0  0  0  0
  -23.6000  -29.7790   20.1970 C   0  0  0  0  0  2  0  0  0  0  0  0
  -24.6700  -31.0740   22.1010 N   0  0  0  0  0  0  0  0  0  0  0  0
  -23.5510  -32.1470   23.7540 O   0  0  0  0  0  0  0  0  0  0  0  0
  -22.7670  -29.4480   22.5460 C   0  0  0  0  0  0  0  0  0  0  0  0
  -21.4400  -29.2680   22.4380 N   0  0  0  0  0  0  0  0  0  0  0  0
  -23.4600  -28.8230   23.3520 O   0  0  0  0  0  0  0  0  0  0  0  0
  -20.9430  -29.8250   21.7560 H   0  0  0  0  0  0  0  0  0  0  0  0
  -18.0720  -28.0700   22.9650 C   0  0  0  0  0  0  0  0  0  0  0  0
  -20.6320  -28.3320   23.2180 C   0  0  0  0  0  3  0  0  0  0  0  0
  -20.7320  -26.8990   22.6490 C   0  0  0  0  0  2  0  0  0  0  0  0
  -19.6240  -26.5690   21.6450 C   0  0  0  0  0  2  0  0  0  0  0  0
  -18.2460  -26.7160   22.2970 C   0  0  0  0  0  2  0  0  0  0  0  0
  -19.1920  -28.8360   23.3830 C   0  0  0  0  0  0  0  0  0  0  0  0
  -18.9770  -30.1020   23.9670 C   0  0  0  0  0  3  0  0  0  0  0  0
  -17.6730  -30.6040   24.1370 C   0  0  0  0  0  3  0  0  0  0  0  0
  -16.5660  -29.8360   23.7360 C   0  0  0  0  0  3  0  0  0  0  0  0
  -16.7670  -28.5690   23.1570 C   0  0  0  0  0  3  0  0  0  0  0  0
  -25.9180  -32.5120   23.8040 C   0  0  0  0  0  3  0  0  0  0  0  0
  -25.6030  -33.9010   24.1630 N   0  0  0  0  0  0  0  0  0  0  0  0
  -25.9080  -34.9690   23.4120 C   0  0  0  0  0  0  0  0  0  0  0  0
  -26.5570  -34.8880   22.3660 O   0  0  0  0  0  0  0  0  0  0  0  0
  -25.0260  -34.0370   24.9800 H   0  0  0  0  0  0  0  0  0  0  0  0
  -24.1480  -36.7420   23.1240 C   0  0  0  0  0  1  0  0  0  0  0  0
  -25.4160  -36.3440   23.9000 C   0  0  0  0  0  3  0  0  0  0  0  0
  -27.5630  -37.2410   24.6810 C   0  0  0  0  0  1  0  0  0  0  0  0
  -26.4310  -37.4120   23.7750 N   0  0  0  0  0  0  0  0  0  0  0  0
  -26.0180  -38.3240   23.9510 H   0  0  0  0  0  0  0  0  0  0  0  0
  -26.4720  -31.7250   25.0550 C   0  0  1  0  0  0  0  0  0  0  0  0
  -25.4090  -31.4600   26.1450 C   0  0  0  0  0  1  0  0  0  0  0  0
  -27.0580  -30.3600   24.6240 C   0  0  0  0  0  1  0  0  0  0  0  0
  -27.6320  -32.5190   25.7030 C   0  0  0  0  0  1  0  0  0  0  0  0
  -29.3560  -21.9030   17.7280 C   0  0  0  0  0  2  0  0  0  0  0  0
  -29.4520  -21.1820   19.0890 C   0  0  0  0  0  2  0  0  0  0  0  0
  -29.7480  -19.6750   18.9150 C   0  0  0  0  0  2  0  0  0  0  0  0
  -29.9620  -18.9620   20.1970 N   0  0  0  0  0  4  0  0  0  0  0  0
  -29.2750  -19.2740   20.8660 H   0  0  0  0  0  0  0  0  0  0  0  0
  -30.8730  -19.2090   20.5530 H   0  0  0  0  0  0  0  0  0  0  0  0
  -29.8620  -17.4890   20.0820 C   0  0  0  0  0  2  0  0  0  0  0  0
  -30.2740  -16.7500   21.3770 C   0  0  0  0  0  2  0  0  0  0  0  0
  -30.6610  -14.4020   20.5800 C   0  0  0  0  0  0  0  0  0  0  0  0
  -30.3690  -12.2880   19.3450 C   0  0  0  0  0  2  0  0  0  0  0  0
  -29.4260  -12.5200   18.1460 C   0  0  0  0  0  2  0  0  0  0  0  0
  -27.9490  -12.3870   18.5670 C   0  0  0  0  0  2  0  0  0  0  0  0
  -27.6140  -13.2040   19.8430 C   0  0  0  0  0  3  0  0  0  0  0  0
  -28.6560  -12.9210   20.9470 C   0  0  0  0  0  2  0  0  0  0  0  0
  -29.9940  -13.2310   20.4070 N   0  0  0  0  0  0  0  0  0  0  0  0
  -31.7370  -14.6670   20.0380 O   0  0  0  0  0  0  0  0  0  0  0  0
  -29.9900  -15.3170   21.2920 N   0  0  0  0  0  0  0  0  0  0  0  0
  -29.1310  -14.9960   21.7170 H   0  0  0  0  0  0  0  0  0  0  0  0
  -25.2120  -13.8330   20.5320 C   0  0  0  0  0  0  0  0  0  0  0  0
  -24.1330  -13.0680   20.8890 C   0  0  0  0  0  0  0  0  0  0  0  0
  -24.5830  -11.7120   20.8500 C   0  0  0  0  0  0  0  0  0  0  0  0
  -26.2520  -12.9430   20.3050 N   0  0  0  0  0  0  0  0  0  0  0  0
  -25.8740  -11.6630   20.5500 N   0  0  0  0  0  0  0  0  0  0  0  0
  -23.8460  -10.4540   21.0270 C   0  0  0  0  0  0  0  0  0  0  0  0
  -24.2940   -9.4550   21.9180 C   0  0  0  0  0  3  0  0  0  0  0  0
  -23.5610   -8.2600   22.0830 C   0  0  0  0  0  3  0  0  0  0  0  0
  -22.3630   -8.0570   21.3560 C   0  0  0  0  0  0  0  0  0  0  0  0
  -21.9340   -9.0460   20.4520 C   0  0  0  0  0  3  0  0  0  0  0  0
  -22.6690  -10.2320   20.2860 C   0  0  0  0  0  3  0  0  0  0  0  0
  -21.5970   -6.9200   21.4320 O   0  0  0  0  0  0  0  0  0  0  0  0
  -21.6020   -6.1230   22.5490 C   0  0  0  0  0  0  0  0  0  0  0  0
  -21.2910   -6.6300   23.8290 C   0  0  0  0  0  3  0  0  0  0  0  0
  -21.2400   -5.7630   24.9370 C   0  0  0  0  0  3  0  0  0  0  0  0
  -21.4920   -4.3870   24.7670 C   0  0  0  0  0  0  0  0  0  0  0  0
  -21.7960   -3.8790   23.4920 C   0  0  0  0  0  3  0  0  0  0  0  0
  -21.8480   -4.7450   22.3860 C   0  0  0  0  0  0  0  0  0  0  0  0
  -22.1210   -4.2460   21.1560 F   0  0  0  0  0  0  0  0  0  0  0  0
  -21.4350   -3.5510   25.8300 F   0  0  0  0  0  0  0  0  0  0  0  0
  -22.7370  -13.5540   21.1570 C   0  0  0  0  0  0  0  0  0  0  0  0
  -22.0000  -12.8600   22.0160 N   0  0  0  0  0  0  0  0  0  0  0  0
  -22.3090  -14.5830   20.6370 O   0  0  0  0  0  0  0  0  0  0  0  0
  -22.3590  -12.0280   22.4610 H   0  0  0  0  0  0  0  0  0  0  0  0
  -21.0630  -13.1680   22.2350 H   0  0  0  0  0  0  0  0  0  0  0  0
  -25.3910  -15.2030   20.3650 N   0  0  0  0  0  0  0  0  0  0  0  0
  -24.6310  -15.8670   20.4650 H   0  0  0  0  0  0  0  0  0  0  0  0
  -26.2460  -15.6290   20.0290 H   0  0  0  0  0  0  0  0  0  0  0  0
  1  3  2  0
  2  1  1  0
  4  2  1  0
  5  1  1  0
  5  6  1  0
  6  7  1  0
  7  9  1  0
  8 19  2  0
  9 14  1  0
 10 18  1  0
 10 20  1  0
 11 17  1  0
 11 13  1  0
 12 18  1  0
 13 12  1  0
 14 13  2  0
 15 16  1  0
 15  9  2  0
 16 11  2  0
 17 10  1  0
 18  8  1  0
 20 22  2  0
 21 20  1  0
 23 21  1  0
 24 33  2  0
 24 29  1  0
 25 21  1  0
 25 29  1  0
 26 25  1  0
 27 28  1  0
 27 26  1  0
 28 24  1  0
 29 30  2  0
 30 31  1  0
 32 31  2  0
 33 32  1  0
 34  8  1  0
 34 35  1  0
 34 44  1  0
 35 38  1  0
 36 40  1  0
 36 35  1  0
 37 36  2  0
 40 39  1  0
 42 40  1  0
 42 43  1  0
 42 41  1  0
 44 47  1  1
 44 45  1  0
 46 44  1  0
 48  2  1  0
 48 49  1  0
 50 49  1  0
 50 51  1  0
 51 53  1  0
 51 52  1  0
 54 51  1  0
 54 55  1  0
 56 64  1  0
 57 62  1  0
 58 59  1  0
 58 57  1  0
 60 59  1  0
 60 69  1  0
 60 61  1  0
 62 56  1  0
 62 61  1  0
 63 56  2  0
 64 55  1  0
 64 65  1  0
 66 67  2  0
 67 86  1  0
 68 67  1  0
 68 71  1  0
 69 66  1  0
 69 70  1  0
 70 68  2  0
 71 72  1  0
 72 73  2  0
 74 77  1  0
 74 73  1  0
 75 74  2  0
 76 75  1  0
 76 71  2  0
 77 78  1  0
 78 79  1  0
 79 80  2  0
 81 80  1  0
 81 85  1  0
 82 81  2  0
 83 78  2  0
 83 82  1  0
 84 83  1  0
 86 87  1  0
 87 90  1  0
 87 89  1  0
 88 86  2  0
 91 92  1  0
 91 66  1  0
 93 91  1  0
M  ISO  4   6 101   7 101  56 100  64 100
M  END
>  <TORSDO>  (92) 
F 24

>  <SCORE>  (92) 
-12.290

>  <name>  (92) 
95

>  <ligand_id>  (92) 
95

>  <original_smiles>  (92) 
[H]c1c([H])c([H])c2c(c1[H])C([H])([H])C([H])([H])C([H])([H])C2([H])N([H])C(=O)C1([H])N(C(=O)C([H])(N([H])C(=O)C([H])(N([H])C([H])([H])[H])C([H])([H])[H])C(C([H])([H])[H])(C([H])([H])[H])C([H])([H])[H])C([H])([H])c2c([H])c(OC([H])([H])C([H])([H])C(=O)N([H])C([H])([H])C([H])([H])C([H])([H])[N+]([H])([H])C([H])([H])C([H])([H])N([H])C(=O)N3C([H])([H])C([H])([H])C([H])([H])C([H])(n4nc(-c5c([H])c([H])c(Oc6c([H])c([H])c(F)c([H])c6F)c([H])c5[H])c(C(=O)N([H])[H])c4N([H])[H])C3([H])[H])c([H])c([H])c2C1([H])[H]

>  <smiles>  (92) 
[H]c1c([H])c([H])c2c(c1[H])C([H])([H])C([H])([H])C([H])([H])C2([H])N([H])C(=O)C1([H])N(C(=O)C([H])(N([H])C(=O)C([H])(N([H])C([H])([H])[H])C([H])([H])[H])C(C([H])([H])[H])(C([H])([H])[H])C([H])([H])[H])C([H])([H])c2c([H])c(OC([H])([H])C([H])([H])C(=O)N([H])C([H])([H])C([H])([H])C([H])([H])[N+]([H])([H])C([H])([H])C([H])([H])N([H])C(=O)N3C([H])([H])C([H])([H])C([H])([H])C([H])(n4nc(-c5c([H])c([H])c(Oc6c([H])c([H])c(F)c([H])c6F)c([H])c5[H])c(C(=O)N([H])[H])c4N([H])[H])C3([H])[H])c([H])c([H])c2C1([H])[H]

$$$$
96:0:0
     RDKit          3D

 92 99  0  0  1  0  0  0  0  0999 V2000
  -29.2260  -22.2920   21.1010 C   0  0  0  0  0  2  0  0  0  0  0  0
  -29.2350  -20.7500   21.1910 C   0  0  0  0  0  0  0  0  0  0  0  0
  -30.3100  -20.1700   21.7460 N   0  0  0  0  0  0  0  0  0  0  0  0
  -28.2700  -20.0920   20.7960 O   0  0  0  0  0  0  0  0  0  0  0  0
  -31.0600  -20.7900   22.0300 H   0  0  0  0  0  0  0  0  0  0  0  0
  -30.3820  -18.7990   22.2660 C   0  0  0  0  0  2  0  0  0  0  0  0
  -30.1970  -17.6500   21.2370 C   0  0  0  0  0  2  0  0  0  0  0  0
  -31.3790  -16.6580   21.1330 C   0  0  0  0  0  2  0  0  0  0  0  0
  -31.4480  -14.3770   20.0140 C   0  0  0  0  0  0  0  0  0  0  0  0
  -31.0360  -12.1740   18.9550 C   0  0  0  0  0  2  0  0  0  0  0  0
  -30.0650  -12.3140   17.7660 C   0  0  0  0  0  2  0  0  0  0  0  0
  -28.5980  -12.2660   18.2370 C   0  0  0  0  0  2  0  0  0  0  0  0
  -28.3260  -13.2240   19.4270 C   0  0  0  0  0  3  0  0  0  0  0  0
  -29.3880  -13.0180   20.5290 C   0  0  0  0  0  2  0  0  0  0  0  0
  -30.7220  -13.2300   19.9290 N   0  0  0  0  0  0  0  0  0  0  0  0
  -32.5050  -14.5620   19.3980 O   0  0  0  0  0  0  0  0  0  0  0  0
  -30.9000  -15.3110   20.8040 N   0  0  0  0  0  0  0  0  0  0  0  0
  -30.0370  -15.0280   21.2450 H   0  0  0  0  0  0  0  0  0  0  0  0
  -26.0090  -14.0250   20.2150 C   0  0  0  0  0  0  0  0  0  0  0  0
  -24.8980  -13.3390   20.6280 C   0  0  0  0  0  0  0  0  0  0  0  0
  -25.2520  -11.9550   20.5890 C   0  0  0  0  0  0  0  0  0  0  0  0
  -26.9730  -13.0630   19.9510 N   0  0  0  0  0  0  0  0  0  0  0  0
  -26.5220  -11.8140   20.2320 N   0  0  0  0  0  0  0  0  0  0  0  0
  -24.4410  -10.7540   20.8170 C   0  0  0  0  0  0  0  0  0  0  0  0
  -24.8110   -9.7840   21.7750 C   0  0  0  0  0  3  0  0  0  0  0  0
  -24.0070   -8.6430   21.9860 C   0  0  0  0  0  3  0  0  0  0  0  0
  -22.8180   -8.4650   21.2400 C   0  0  0  0  0  0  0  0  0  0  0  0
  -22.4660   -9.4230   20.2730 C   0  0  0  0  0  3  0  0  0  0  0  0
  -23.2700  -10.5540   20.0590 C   0  0  0  0  0  3  0  0  0  0  0  0
  -21.9870   -7.3760   21.3590 O   0  0  0  0  0  0  0  0  0  0  0  0
  -21.8560   -6.6970   22.5440 C   0  0  0  0  0  0  0  0  0  0  0  0
  -21.4420   -7.3410   23.7300 C   0  0  0  0  0  3  0  0  0  0  0  0
  -21.2530   -6.5920   24.9090 C   0  0  0  0  0  3  0  0  0  0  0  0
  -21.4700   -5.2010   24.9020 C   0  0  0  0  0  0  0  0  0  0  0  0
  -21.8800   -4.5570   23.7200 C   0  0  0  0  0  3  0  0  0  0  0  0
  -22.0700   -5.3040   22.5450 C   0  0  0  0  0  0  0  0  0  0  0  0
  -22.4430   -4.6760   21.4030 F   0  0  0  0  0  0  0  0  0  0  0  0
  -21.2820   -4.4800   26.0310 F   0  0  0  0  0  0  0  0  0  0  0  0
  -23.5520  -13.9230   20.9500 C   0  0  0  0  0  0  0  0  0  0  0  0
  -22.8160  -13.2970   21.8600 N   0  0  0  0  0  0  0  0  0  0  0  0
  -23.1670  -14.9690   20.4290 O   0  0  0  0  0  0  0  0  0  0  0  0
  -23.1400  -12.4480   22.3010 H   0  0  0  0  0  0  0  0  0  0  0  0
  -21.9140  -13.6690   22.1210 H   0  0  0  0  0  0  0  0  0  0  0  0
  -26.2780  -15.3770   20.0210 N   0  0  0  0  0  0  0  0  0  0  0  0
  -25.5940  -16.1030   20.1970 H   0  0  0  0  0  0  0  0  0  0  0  0
  -27.1450  -15.7370   19.6420 H   0  0  0  0  0  0  0  0  0  0  0  0
  -28.0940  -22.8780   20.1980 C   0  0  0  0  0  3  0  0  0  0  0  0
  -26.7060  -22.8360   20.8620 C   0  0  0  0  0  3  0  0  0  0  0  0
  -26.5710  -22.9220   22.0850 O   0  0  0  0  0  0  0  0  0  0  0  0
  -28.3890  -24.2970   19.6290 C   0  0  0  0  0  2  0  0  0  0  0  0
  -28.3370  -25.4750   20.6300 C   0  0  0  0  0  2  0  0  0  0  0  0
  -28.4020  -26.7470   19.9710 O   0  0  0  0  0  0  0  0  0  0  0  0
  -24.6000  -31.8180   23.1790 C   0  0  0  0  0  0  0  0  0  0  0  0
  -27.2290  -27.4690   19.9840 C   0  0  0  0  0  0  0  0  0  0  0  0
  -23.3800  -30.4620   21.5070 C   0  0  0  0  0  3  0  0  0  0  0  0
  -24.8280  -28.9570   20.0390 C   0  0  0  0  0  0  0  0  0  0  0  0
  -25.9030  -30.8310   21.2990 C   0  0  0  0  0  2  0  0  0  0  0  0
  -25.9870  -29.4750   20.6310 C   0  0  0  0  0  0  0  0  0  0  0  0
  -27.1920  -28.7390   20.5970 C   0  0  0  0  0  3  0  0  0  0  0  0
  -26.0560  -26.9610   19.3850 C   0  0  0  0  0  3  0  0  0  0  0  0
  -24.8570  -27.6980   19.4110 C   0  0  0  0  0  3  0  0  0  0  0  0
  -23.5810  -29.8090   20.1130 C   0  0  0  0  0  2  0  0  0  0  0  0
  -24.6460  -31.0490   22.0550 N   0  0  0  0  0  0  0  0  0  0  0  0
  -23.5230  -32.0780   23.7350 O   0  0  0  0  0  0  0  0  0  0  0  0
  -22.7300  -29.4240   22.4480 C   0  0  0  0  0  0  0  0  0  0  0  0
  -21.4060  -29.2450   22.3170 N   0  0  0  0  0  0  0  0  0  0  0  0
  -23.4140  -28.7820   23.2500 O   0  0  0  0  0  0  0  0  0  0  0  0
  -20.9170  -29.8170   21.6420 H   0  0  0  0  0  0  0  0  0  0  0  0
  -18.0420  -27.9930   22.7550 C   0  0  0  0  0  0  0  0  0  0  0  0
  -20.5920  -28.2850   23.0610 C   0  0  0  0  0  3  0  0  0  0  0  0
  -20.7270  -26.8640   22.4680 C   0  0  0  0  0  2  0  0  0  0  0  0
  -19.6410  -26.5280   21.4430 C   0  0  0  0  0  2  0  0  0  0  0  0
  -18.2470  -26.6530   22.0690 C   0  0  0  0  0  2  0  0  0  0  0  0
  -19.1450  -28.7670   23.2030 C   0  0  0  0  0  0  0  0  0  0  0  0
  -18.9020  -30.0220   23.8050 C   0  0  0  0  0  3  0  0  0  0  0  0
  -17.5890  -30.5040   23.9600 C   0  0  0  0  0  3  0  0  0  0  0  0
  -16.5000  -29.7250   23.5280 C   0  0  0  0  0  3  0  0  0  0  0  0
  -16.7270  -28.4730   22.9320 C   0  0  0  0  0  3  0  0  0  0  0  0
  -25.8920  -32.4290   23.8090 C   0  0  0  0  0  3  0  0  0  0  0  0
  -25.5880  -33.8170   24.1790 N   0  0  0  0  0  0  0  0  0  0  0  0
  -25.9290  -34.8880   23.4500 C   0  0  0  0  0  0  0  0  0  0  0  0
  -26.6050  -34.8100   22.4210 O   0  0  0  0  0  0  0  0  0  0  0  0
  -24.9940  -33.9500   24.9840 H   0  0  0  0  0  0  0  0  0  0  0  0
  -24.2130  -36.6990   23.1300 C   0  0  0  0  0  1  0  0  0  0  0  0
  -25.4430  -36.2660   23.9430 C   0  0  0  0  0  3  0  0  0  0  0  0
  -27.5750  -37.1140   24.8150 C   0  0  0  0  0  1  0  0  0  0  0  0
  -26.4820  -37.3160   23.8690 N   0  0  0  0  0  0  0  0  0  0  0  0
  -26.0790  -38.2340   24.0370 H   0  0  0  0  0  0  0  0  0  0  0  0
  -26.4160  -31.6200   25.0580 C   0  0  1  0  0  0  0  0  0  0  0  0
  -25.3330  -31.3520   26.1280 C   0  0  0  0  0  1  0  0  0  0  0  0
  -26.9950  -30.2550   24.6160 C   0  0  0  0  0  1  0  0  0  0  0  0
  -27.5750  -32.3920   25.7340 C   0  0  0  0  0  1  0  0  0  0  0  0
  1  2  1  0
  2  3  1  0
  3  5  1  0
  3  6  1  0
  4  2  2  0
  7  6  1  0
  8  7  1  0
  9 17  1  0
 10 15  1  0
 11 12  1  0
 11 10  1  0
 13 12  1  0
 13 22  1  0
 13 14  1  0
 15  9  1  0
 15 14  1  0
 16  9  2  0
 17  8  1  0
 17 18  1  0
 19 20  2  0
 20 39  1  0
 21 20  1  0
 21 24  1  0
 22 19  1  0
 22 23  1  0
 23 21  2  0
 24 25  1  0
 25 26  2  0
 27 30  1  0
 27 26  1  0
 28 27  2  0
 29 28  1  0
 29 24  2  0
 30 31  1  0
 31 36  2  0
 31 32  1  0
 32 33  2  0
 34 33  1  0
 34 38  1  0
 35 34  2  0
 36 35  1  0
 37 36  1  0
 39 40  1  0
 40 43  1  0
 40 42  1  0
 41 39  2  0
 44 45  1  0
 44 19  1  0
 46 44  1  0
 47 50  1  0
 47 48  1  0
 47  1  1  0
 48 49  2  0
 50 51  1  0
 52 54  1  0
 52 51  1  0
 53 64  2  0
 54 59  1  0
 55 63  1  0
 55 65  1  0
 56 62  1  0
 56 58  1  0
 57 63  1  0
 58 57  1  0
 59 58  2  0
 60 61  1  0
 60 54  2  0
 61 56  2  0
 62 55  1  0
 63 53  1  0
 65 67  2  0
 66 65  1  0
 68 66  1  0
 69 78  2  0
 69 74  1  0
 70 66  1  0
 70 74  1  0
 71 70  1  0
 72 73  1  0
 72 71  1  0
 73 69  1  0
 74 75  2  0
 75 76  1  0
 77 76  2  0
 78 77  1  0
 79 53  1  0
 79 80  1  0
 79 89  1  0
 80 83  1  0
 81 85  1  0
 81 80  1  0
 82 81  2  0
 85 84  1  0
 87 85  1  0
 87 88  1  0
 87 86  1  0
 89 92  1  1
 89 90  1  0
 91 89  1  0
M  ISO  4   9 100  17 100  51 101  52 101
M  END
>  <TORSDO>  (93) 
F 24

>  <SCORE>  (93) 
-11.621

>  <name>  (93) 
96

>  <ligand_id>  (93) 
96

>  <original_smiles>  (93) 
[H]C(=O)C([H])(C([H])([H])C(=O)N([H])C([H])([H])C([H])([H])C([H])([H])N([H])C(=O)N1C([H])([H])C([H])([H])C([H])([H])C([H])(n2nc(-c3c([H])c([H])c(Oc4c([H])c([H])c(F)c([H])c4F)c([H])c3[H])c(C(=O)N([H])[H])c2N([H])[H])C1([H])[H])C([H])([H])C([H])([H])Oc1c([H])c([H])c2c(c1[H])C([H])([H])N(C(=O)C([H])(N([H])C(=O)C([H])(N([H])C([H])([H])[H])C([H])([H])[H])C(C([H])([H])[H])(C([H])([H])[H])C([H])([H])[H])C([H])(C(=O)N([H])C1([H])c3c([H])c([H])c([H])c([H])c3C([H])([H])C([H])([H])C1([H])[H])C2([H])[H]

>  <smiles>  (93) 
[H]C(=O)C([H])(C([H])([H])C(=O)N([H])C([H])([H])C([H])([H])C([H])([H])N([H])C(=O)N1C([H])([H])C([H])([H])C([H])([H])C([H])(n2nc(-c3c([H])c([H])c(Oc4c([H])c([H])c(F)c([H])c4F)c([H])c3[H])c(C(=O)N([H])[H])c2N([H])[H])C1([H])[H])C([H])([H])C([H])([H])Oc1c([H])c([H])c2c(c1[H])C([H])([H])N(C(=O)C([H])(N([H])C(=O)C([H])(N([H])C([H])([H])[H])C([H])([H])[H])C(C([H])([H])[H])(C([H])([H])[H])C([H])([H])[H])C([H])(C(=O)N([H])C1([H])c3c([H])c([H])c([H])c([H])c3C([H])([H])C([H])([H])C1([H])[H])C2([H])[H]

$$$$
97:0:0
     RDKit          3D

103111  0  0  1  0  0  0  0  0999 V2000
  -25.8440  -24.6810   22.6640 C   0  0  0  0  0  3  0  0  0  0  0  0
  -26.9480  -25.0950   23.4280 C   0  0  0  0  0  3  0  0  0  0  0  0
  -27.3290  -23.3290   21.2850 C   0  0  0  0  0  3  0  0  0  0  0  0
  -26.0250  -23.7880   21.5840 C   0  0  0  0  0  0  0  0  0  0  0  0
  -28.2460  -24.6300   23.1310 C   0  0  0  0  0  0  0  0  0  0  0  0
  -28.4520  -23.7370   22.0480 C   0  0  0  0  0  0  0  0  0  0  0  0
  -29.3990  -25.1090   24.0000 C   0  0  0  0  0  1  0  0  0  0  0  0
  -23.4690  -23.7440   21.2420 C   0  0  0  0  0  1  0  0  0  0  0  0
  -24.8560  -23.3000   20.7230 C   0  0  0  0  0  3  0  0  0  0  0  0
  -23.9580  -23.1760   18.4030 C   0  0  0  0  0  1  0  0  0  0  0  0
  -25.0940  -23.5820   19.2750 N   0  0  1  0  0  4  0  0  0  0  0  0
  -25.8160  -22.9230   19.0250 H   0  0  0  0  0  0  0  0  0  0  0  0
  -25.7230  -24.9100   18.9910 C   0  0  0  0  0  2  0  0  0  0  0  0
  -25.4220  -25.5530   17.6120 C   0  0  0  0  0  2  0  0  0  0  0  0
  -25.8010  -26.9260   17.6210 O   0  0  0  0  0  0  0  0  0  0  0  0
  -25.0570  -30.7660   23.5290 C   0  0  0  0  0  0  0  0  0  0  0  0
  -24.9950  -27.8240   18.2910 C   0  0  0  0  0  0  0  0  0  0  0  0
  -23.0760  -30.6880   22.0540 C   0  0  0  0  0  3  0  0  0  0  0  0
  -23.4560  -29.6910   19.7450 C   0  0  0  0  0  0  0  0  0  0  0  0
  -25.4330  -30.4180   21.0910 C   0  0  0  0  0  2  0  0  0  0  0  0
  -24.8220  -29.5510   20.0130 C   0  0  0  0  0  0  0  0  0  0  0  0
  -25.5930  -28.6200   19.2880 C   0  0  0  0  0  3  0  0  0  0  0  0
  -23.6110  -27.9830   18.0310 C   0  0  0  0  0  3  0  0  0  0  0  0
  -22.8430  -28.9090   18.7560 C   0  0  0  0  0  3  0  0  0  0  0  0
  -22.7020  -30.7210   20.5490 C   0  0  0  0  0  2  0  0  0  0  0  0
  -24.5580  -30.6060   22.2720 N   0  0  0  0  0  0  0  0  0  0  0  0
  -24.3130  -31.0220   24.4860 O   0  0  0  0  0  0  0  0  0  0  0  0
  -22.2890  -29.5430   22.7330 C   0  0  0  0  0  0  0  0  0  0  0  0
  -20.9490  -29.6300   22.6890 N   0  0  0  0  0  0  0  0  0  0  0  0
  -22.8780  -28.5940   23.2560 O   0  0  0  0  0  0  0  0  0  0  0  0
  -20.5400  -30.4430   22.2500 H   0  0  0  0  0  0  0  0  0  0  0  0
  -17.4670  -28.6860   22.7450 C   0  0  0  0  0  0  0  0  0  0  0  0
  -20.0040  -28.6580   23.2370 C   0  0  0  0  0  3  0  0  0  0  0  0
  -20.0420  -27.3350   22.4380 C   0  0  0  0  0  2  0  0  0  0  0  0
  -19.0110  -27.2900   21.3070 C   0  0  0  0  0  2  0  0  0  0  0  0
  -17.5930  -27.4530   21.8630 C   0  0  0  0  0  2  0  0  0  0  0  0
  -18.6010  -29.2610   23.3760 C   0  0  0  0  0  0  0  0  0  0  0  0
  -18.4340  -30.4300   24.1490 C   0  0  0  0  0  3  0  0  0  0  0  0
  -17.1640  -31.0130   24.3060 C   0  0  0  0  0  3  0  0  0  0  0  0
  -16.0400  -30.4310   23.6940 C   0  0  0  0  0  3  0  0  0  0  0  0
  -16.1950  -29.2690   22.9190 C   0  0  0  0  0  3  0  0  0  0  0  0
  -26.5870  -30.6600   23.8210 C   0  0  0  0  0  3  0  0  0  0  0  0
  -26.9470  -31.7710   24.7140 N   0  0  0  0  0  0  0  0  0  0  0  0
  -27.5980  -32.8760   24.3270 C   0  0  0  0  0  0  0  0  0  0  0  0
  -28.0240  -33.0330   23.1790 O   0  0  0  0  0  0  0  0  0  0  0  0
  -26.6010  -31.7250   25.6610 H   0  0  0  0  0  0  0  0  0  0  0  0
  -26.7870  -35.1120   25.1410 C   0  0  0  0  0  1  0  0  0  0  0  0
  -27.8050  -33.9840   25.3780 C   0  0  0  0  0  3  0  0  0  0  0  0
  -30.1810  -33.5900   25.8560 C   0  0  0  0  0  1  0  0  0  0  0  0
  -29.1760  -34.5380   25.3860 N   0  0  0  0  0  0  0  0  0  0  0  0
  -29.2280  -35.3720   25.9650 H   0  0  0  0  0  0  0  0  0  0  0  0
  -27.0070  -29.2760   24.4560 C   0  0  1  0  0  0  0  0  0  0  0  0
  -26.1710  -28.8760   25.6940 C   0  0  0  0  0  1  0  0  0  0  0  0
  -26.8840  -28.1420   23.4120 C   0  0  0  0  0  1  0  0  0  0  0  0
  -28.4950  -29.3200   24.8770 C   0  0  0  0  0  1  0  0  0  0  0  0
  -29.8720  -23.2480   21.7150 C   0  0  0  0  0  2  0  0  0  0  0  0
  -29.9340  -21.9220   21.0520 N   0  0  0  0  0  4  0  0  0  0  0  0
  -29.7550  -22.0840   20.0750 H   0  0  0  0  0  0  0  0  0  0  0  0
  -29.1990  -21.3420   21.4220 H   0  0  0  0  0  0  0  0  0  0  0  0
  -31.6560  -21.0000   22.6130 C   0  0  0  0  0  1  0  0  0  0  0  0
  -31.2260  -21.1950   21.1460 C   0  0  0  0  0  3  0  0  0  0  0  0
  -31.1450  -19.8330   20.4130 C   0  0  0  0  0  2  0  0  0  0  0  0
  -31.2640  -19.9380   18.8770 C   0  0  0  0  0  2  0  0  0  0  0  0
  -31.6080  -18.6140   18.1660 C   0  0  0  0  0  2  0  0  0  0  0  0
  -30.3870  -17.7390   17.8320 C   0  0  0  0  0  2  0  0  0  0  0  0
  -31.1950  -15.4880   18.5170 C   0  0  0  0  0  0  0  0  0  0  0  0
  -31.4250  -13.0560   18.8350 C   0  0  0  0  0  2  0  0  0  0  0  0
  -30.4820  -12.3410   17.8490 C   0  0  0  0  0  2  0  0  0  0  0  0
  -29.0730  -12.1860   18.4600 C   0  0  0  0  0  2  0  0  0  0  0  0
  -28.5260  -13.5140   19.0470 C   0  0  0  0  0  3  0  0  0  0  0  0
  -29.5820  -14.1840   19.9540 C   0  0  0  0  0  2  0  0  0  0  0  0
  -30.8190  -14.3550   19.1670 N   0  0  0  0  0  0  0  0  0  0  0  0
  -32.1910  -15.5550   17.7960 O   0  0  0  0  0  0  0  0  0  0  0  0
  -30.3420  -16.5150   18.6310 N   0  0  0  0  0  0  0  0  0  0  0  0
  -29.5410  -16.3740   19.2290 H   0  0  0  0  0  0  0  0  0  0  0  0
  -26.3930  -14.2370   20.2990 C   0  0  0  0  0  0  0  0  0  0  0  0
  -25.3240  -13.5210   20.7720 C   0  0  0  0  0  0  0  0  0  0  0  0
  -25.5990  -12.1530   20.4640 C   0  0  0  0  0  0  0  0  0  0  0  0
  -27.2600  -13.3060   19.7480 N   0  0  0  0  0  0  0  0  0  0  0  0
  -26.7930  -12.0400   19.8960 N   0  0  0  0  0  0  0  0  0  0  0  0
  -24.7730  -10.9510   20.6270 C   0  0  0  0  0  0  0  0  0  0  0  0
  -25.1710   -9.8890   21.4700 C   0  0  0  0  0  3  0  0  0  0  0  0
  -24.3500   -8.7520   21.6250 C   0  0  0  0  0  3  0  0  0  0  0  0
  -23.1150   -8.6700   20.9400 C   0  0  0  0  0  0  0  0  0  0  0  0
  -22.7320   -9.7190   20.0850 C   0  0  0  0  0  3  0  0  0  0  0  0
  -23.5540  -10.8480   19.9280 C   0  0  0  0  0  3  0  0  0  0  0  0
  -22.2660   -7.5910   21.0080 O   0  0  0  0  0  0  0  0  0  0  0  0
  -21.9980   -6.9580   22.1950 C   0  0  0  0  0  0  0  0  0  0  0  0
  -21.3420   -7.6170   23.2570 C   0  0  0  0  0  3  0  0  0  0  0  0
  -21.0290   -6.9100   24.4350 C   0  0  0  0  0  3  0  0  0  0  0  0
  -21.3580   -5.5470   24.5490 C   0  0  0  0  0  0  0  0  0  0  0  0
  -22.0040   -4.8870   23.4880 C   0  0  0  0  0  3  0  0  0  0  0  0
  -22.3210   -5.5910   22.3130 C   0  0  0  0  0  0  0  0  0  0  0  0
  -22.9250   -4.9480   21.2860 F   0  0  0  0  0  0  0  0  0  0  0  0
  -21.0470   -4.8650   25.6760 F   0  0  0  0  0  0  0  0  0  0  0  0
  -24.0750  -14.0770   21.3910 C   0  0  0  0  0  0  0  0  0  0  0  0
  -23.4230  -13.3070   22.2570 N   0  0  0  0  0  0  0  0  0  0  0  0
  -23.6960  -15.2220   21.1470 O   0  0  0  0  0  0  0  0  0  0  0  0
  -23.7430  -12.3760   22.4740 H   0  0  0  0  0  0  0  0  0  0  0  0
  -22.5910  -13.6570   22.7090 H   0  0  0  0  0  0  0  0  0  0  0  0
  -26.6940  -15.5950   20.2770 N   0  0  0  0  0  0  0  0  0  0  0  0
  -26.0480  -16.2980   20.6210 H   0  0  0  0  0  0  0  0  0  0  0  0
  -27.5160  -15.9920   19.8410 H   0  0  0  0  0  0  0  0  0  0  0  0
  1  2  1  0
  3  4  1  0
  3  6  2  0
  4  1  2  0
  5  2  2  0
  5  7  1  0
  6  5  1  0
  9  8  1  0
  9  4  1  0
 10 11  1  0
 11  9  1  0
 11 12  1  6
 13 11  1  0
 14 15  1  0
 14 13  1  0
 15 17  1  0
 16 27  2  0
 17 22  1  0
 18 26  1  0
 18 28  1  0
 19 21  1  0
 19 25  1  0
 20 26  1  0
 21 20  1  0
 22 21  2  0
 23 17  2  0
 23 24  1  0
 24 19  2  0
 25 18  1  0
 26 16  1  0
 28 30  2  0
 29 28  1  0
 31 29  1  0
 32 41  2  0
 32 37  1  0
 33 29  1  0
 33 37  1  0
 34 33  1  0
 35 36  1  0
 35 34  1  0
 36 32  1  0
 37 38  2  0
 38 39  1  0
 40 39  2  0
 41 40  1  0
 42 16  1  0
 42 52  1  0
 42 43  1  0
 43 46  1  0
 44 43  1  0
 44 48  1  0
 45 44  2  0
 48 47  1  0
 48 50  1  0
 50 49  1  0
 50 51  1  0
 52 55  1  1
 52 53  1  0
 54 52  1  0
 56  6  1  0
 57 61  1  0
 57 59  1  0
 57 56  1  0
 58 57  1  0
 61 60  1  0
 62 61  1  0
 63 62  1  0
 64 63  1  0
 65 64  1  0
 65 74  1  0
 66 74  1  0
 66 72  1  0
 67 72  1  0
 68 69  1  0
 68 67  1  0
 70 69  1  0
 70 79  1  0
 70 71  1  0
 72 71  1  0
 73 66  2  0
 74 75  1  0
 76 77  2  0
 77 96  1  0
 78 81  1  0
 78 77  1  0
 79 80  1  0
 79 76  1  0
 80 78  2  0
 81 82  1  0
 82 83  2  0
 84 87  1  0
 84 83  1  0
 85 84  2  0
 86 85  1  0
 86 81  2  0
 87 88  1  0
 88 93  2  0
 88 89  1  0
 89 90  2  0
 90 91  1  0
 91 95  1  0
 92 91  2  0
 93 92  1  0
 94 93  1  0
 96 97  1  0
 97 99  1  0
 97100  1  0
 98 96  2  0
101 76  1  0
101102  1  0
103101  1  0
M  ISO  4  14 101  15 101  66 100  74 100
M  END
>  <TORSDO>  (94) 
F 27

>  <SCORE>  (94) 
-7.287

>  <name>  (94) 
97

>  <ligand_id>  (94) 
97

>  <original_smiles>  (94) 
[H]c1c([H])c([H])c2c(c1[H])C([H])([H])C([H])([H])C([H])([H])C2([H])N([H])C(=O)C1([H])N(C(=O)C([H])(N([H])C(=O)C([H])(N([H])C([H])([H])[H])C([H])([H])[H])C(C([H])([H])[H])(C([H])([H])[H])C([H])([H])[H])C([H])([H])c2c([H])c(OC([H])([H])C([H])([H])[N+]([H])(C([H])([H])[H])C([H])(c3c([H])c([H])c(C([H])([H])[H])c(C([H])([H])[N+]([H])([H])C([H])(C([H])([H])[H])C([H])([H])C([H])([H])C([H])([H])C([H])([H])N([H])C(=O)N4C([H])([H])C([H])([H])C([H])([H])C([H])(n5nc(-c6c([H])c([H])c(Oc7c([H])c([H])c(F)c([H])c7F)c([H])c6[H])c(C(=O)N([H])[H])c5N([H])[H])C4([H])[H])c3[H])C([H])([H])[H])c([H])c([H])c2C1([H])[H]

>  <smiles>  (94) 
[H]c1c([H])c([H])c2c(c1[H])C([H])([H])C([H])([H])C([H])([H])C2([H])N([H])C(=O)C1([H])N(C(=O)C([H])(N([H])C(=O)C([H])(N([H])C([H])([H])[H])C([H])([H])[H])C(C([H])([H])[H])(C([H])([H])[H])C([H])([H])[H])C([H])([H])c2c([H])c(OC([H])([H])C([H])([H])[N+]([H])(C([H])([H])[H])C([H])(c3c([H])c([H])c(C([H])([H])[H])c(C([H])([H])[N+]([H])([H])C([H])(C([H])([H])[H])C([H])([H])C([H])([H])C([H])([H])C([H])([H])N([H])C(=O)N4C([H])([H])C([H])([H])C([H])([H])C([H])(n5nc(-c6c([H])c([H])c(Oc7c([H])c([H])c(F)c([H])c7F)c([H])c6[H])c(C(=O)N([H])[H])c5N([H])[H])C4([H])[H])c3[H])C([H])([H])[H])c([H])c([H])c2C1([H])[H]

$$$$
98:0:0
     RDKit          3D

105114  0  0  1  0  0  0  0  0999 V2000
  -24.2140  -23.5600   17.1360 C   0  0  0  0  0  2  0  0  0  0  0  0
  -23.3430  -21.7220   18.5860 C   0  0  0  0  0  2  0  0  0  0  0  0
  -23.7290  -24.5710   18.2070 C   0  0  0  0  0  2  0  0  0  0  0  0
  -22.8460  -22.7510   19.6080 C   0  0  0  0  0  2  0  0  0  0  0  0
  -23.3550  -22.2830   17.1540 C   0  0  0  0  0  3  0  0  0  0  0  0
  -23.6530  -23.9730   19.5440 N   0  0  0  0  0  0  0  0  0  0  0  0
  -23.7060  -21.2670   16.0230 C   0  0  0  0  0  2  0  0  0  0  0  0
  -24.1580  -19.8250   16.3840 C   0  0  0  0  0  2  0  0  0  0  0  0
  -25.7290  -19.5530   18.3710 C   0  0  0  0  0  3  0  0  0  0  0  0
  -27.0130  -19.4170   18.9180 C   0  0  0  0  0  3  0  0  0  0  0  0
  -26.6800  -19.5720   16.1330 C   0  0  0  0  0  3  0  0  0  0  0  0
  -25.5550  -19.6790   16.9790 C   0  0  0  0  0  0  0  0  0  0  0  0
  -28.1420  -19.3430   18.0810 C   0  0  0  0  0  0  0  0  0  0  0  0
  -27.9700  -19.3690   16.6750 C   0  0  0  0  0  0  0  0  0  0  0  0
  -29.1420  -19.1510   15.7340 C   0  0  0  0  0  1  0  0  0  0  0  0
  -29.5140  -19.2290   18.7330 C   0  0  0  0  0  2  0  0  0  0  0  0
  -29.6890  -17.9260   19.5280 C   0  0  0  0  0  2  0  0  0  0  0  0
  -31.1250  -17.7600   20.0610 C   0  0  0  0  0  2  0  0  0  0  0  0
  -31.2110  -16.9950   21.3950 C   0  0  0  0  0  2  0  0  0  0  0  0
  -31.3540  -14.6190   20.6130 C   0  0  0  0  0  0  0  0  0  0  0  0
  -31.1460  -12.2680   19.8860 C   0  0  0  0  0  2  0  0  0  0  0  0
  -30.3020  -12.1590   18.6010 C   0  0  0  0  0  2  0  0  0  0  0  0
  -28.7990  -12.0880   18.9310 C   0  0  0  0  0  2  0  0  0  0  0  0
  -28.3550  -13.2000   19.9170 C   0  0  0  0  0  3  0  0  0  0  0  0
  -29.3030  -13.2490   21.1350 C   0  0  0  0  0  2  0  0  0  0  0  0
  -30.6810  -13.4400   20.6410 N   0  0  0  0  0  0  0  0  0  0  0  0
  -32.4300  -14.7790   20.0290 O   0  0  0  0  0  0  0  0  0  0  0  0
  -30.7550  -15.6130   21.2800 N   0  0  0  0  0  0  0  0  0  0  0  0
  -29.8860  -15.3790   21.7380 H   0  0  0  0  0  0  0  0  0  0  0  0
  -25.9760  -13.9770   20.5270 C   0  0  0  0  0  0  0  0  0  0  0  0
  -24.8370  -13.2780   20.8390 C   0  0  0  0  0  0  0  0  0  0  0  0
  -25.2010  -11.8980   20.8020 C   0  0  0  0  0  0  0  0  0  0  0  0
  -26.9630  -13.0240   20.3270 N   0  0  0  0  0  0  0  0  0  0  0  0
  -26.4960  -11.7690   20.5470 N   0  0  0  0  0  0  0  0  0  0  0  0
  -24.3780  -10.6880   20.9400 C   0  0  0  0  0  0  0  0  0  0  0  0
  -24.7490   -9.6390   21.8090 C   0  0  0  0  0  3  0  0  0  0  0  0
  -23.9320   -8.4940   21.9360 C   0  0  0  0  0  3  0  0  0  0  0  0
  -22.7320   -8.3910   21.1920 C   0  0  0  0  0  0  0  0  0  0  0  0
  -22.3810   -9.4290   20.3110 C   0  0  0  0  0  3  0  0  0  0  0  0
  -23.1970  -10.5660   20.1810 C   0  0  0  0  0  3  0  0  0  0  0  0
  -21.8910   -7.3060   21.2320 O   0  0  0  0  0  0  0  0  0  0  0  0
  -21.7060   -6.5800   22.3810 C   0  0  0  0  0  0  0  0  0  0  0  0
  -21.3080   -7.1880   23.5930 C   0  0  0  0  0  3  0  0  0  0  0  0
  -21.0640   -6.3950   24.7310 C   0  0  0  0  0  3  0  0  0  0  0  0
  -21.2070   -4.9960   24.6600 C   0  0  0  0  0  0  0  0  0  0  0  0
  -21.5980   -4.3880   23.4530 C   0  0  0  0  0  3  0  0  0  0  0  0
  -21.8440   -5.1790   22.3170 C   0  0  0  0  0  0  0  0  0  0  0  0
  -22.1990   -4.5860   21.1520 F   0  0  0  0  0  0  0  0  0  0  0  0
  -20.9640   -4.2330   25.7500 F   0  0  0  0  0  0  0  0  0  0  0  0
  -23.4690  -13.8520   21.0610 C   0  0  0  0  0  0  0  0  0  0  0  0
  -22.6520  -13.1890   21.8770 N   0  0  0  0  0  0  0  0  0  0  0  0
  -23.1290  -14.9180   20.5530 O   0  0  0  0  0  0  0  0  0  0  0  0
  -22.9360  -12.3250   22.3110 H   0  0  0  0  0  0  0  0  0  0  0  0
  -21.7300  -13.5540   22.0670 H   0  0  0  0  0  0  0  0  0  0  0  0
  -26.2460  -15.3330   20.3810 N   0  0  0  0  0  0  0  0  0  0  0  0
  -25.5220  -16.0400   20.4490 H   0  0  0  0  0  0  0  0  0  0  0  0
  -27.1350  -15.7160   20.0830 H   0  0  0  0  0  0  0  0  0  0  0  0
  -24.7960  -24.0870   20.4650 C   0  0  0  0  0  2  0  0  0  0  0  0
  -26.1540  -23.4730   20.0410 C   0  0  0  0  0  2  0  0  0  0  0  0
  -27.2600  -24.1670   20.7480 N   0  0  0  0  0  4  0  0  0  0  0  0
  -27.2530  -23.8870   21.7190 H   0  0  0  0  0  0  0  0  0  0  0  0
  -27.0340  -25.1500   20.7120 H   0  0  0  0  0  0  0  0  0  0  0  0
  -28.6280  -24.0300   20.1730 C   0  0  0  0  0  2  0  0  0  0  0  0
  -29.5600  -25.2060   20.5770 C   0  0  0  0  0  2  0  0  0  0  0  0
  -29.5140  -26.3440   19.6920 O   0  0  0  0  0  0  0  0  0  0  0  0
  -25.8260  -31.0520   23.5690 C   0  0  0  0  0  0  0  0  0  0  0  0
  -28.3970  -27.1330   19.8070 C   0  0  0  0  0  0  0  0  0  0  0  0
  -24.6220  -30.0060   21.6760 C   0  0  0  0  0  3  0  0  0  0  0  0
  -26.0650  -28.7030   20.0310 C   0  0  0  0  0  0  0  0  0  0  0  0
  -27.1620  -30.2980   21.6090 C   0  0  0  0  0  2  0  0  0  0  0  0
  -27.2180  -29.0600   20.7410 C   0  0  0  0  0  0  0  0  0  0  0  0
  -28.3880  -28.2720   20.6400 C   0  0  0  0  0  3  0  0  0  0  0  0
  -27.2490  -26.8250   19.0500 C   0  0  0  0  0  3  0  0  0  0  0  0
  -26.0760  -27.5860   19.1830 C   0  0  0  0  0  3  0  0  0  0  0  0
  -24.8520  -29.5860   20.2010 C   0  0  0  0  0  2  0  0  0  0  0  0
  -25.8850  -30.4580   22.3440 N   0  0  0  0  0  0  0  0  0  0  0  0
  -24.7380  -31.2580   24.1250 O   0  0  0  0  0  0  0  0  0  0  0  0
  -23.9120  -28.8480   22.4160 C   0  0  0  0  0  0  0  0  0  0  0  0
  -22.6040  -28.6800   22.1550 N   0  0  0  0  0  0  0  0  0  0  0  0
  -24.5380  -28.1120   23.1840 O   0  0  0  0  0  0  0  0  0  0  0  0
  -22.1580  -29.3280   21.5200 H   0  0  0  0  0  0  0  0  0  0  0  0
  -19.2320  -27.3890   22.1500 C   0  0  0  0  0  0  0  0  0  0  0  0
  -21.7430  -27.6390   22.7070 C   0  0  0  0  0  3  0  0  0  0  0  0
  -21.9380  -26.3000   21.9560 C   0  0  0  0  0  2  0  0  0  0  0  0
  -20.9470  -26.1140   20.8040 C   0  0  0  0  0  2  0  0  0  0  0  0
  -19.5110  -26.1410   21.3270 C   0  0  0  0  0  2  0  0  0  0  0  0
  -20.2820  -28.1040   22.7830 C   0  0  0  0  0  0  0  0  0  0  0  0
  -19.9700  -29.2820   23.4970 C   0  0  0  0  0  3  0  0  0  0  0  0
  -18.6430  -29.7430   23.5870 C   0  0  0  0  0  3  0  0  0  0  0  0
  -17.6050  -29.0200   22.9750 C   0  0  0  0  0  3  0  0  0  0  0  0
  -17.9020  -27.8420   22.2620 C   0  0  0  0  0  3  0  0  0  0  0  0
  -27.1120  -31.5160   24.3180 C   0  0  0  0  0  3  0  0  0  0  0  0
  -26.8190  -32.8090   24.9500 N   0  0  0  0  0  0  0  0  0  0  0  0
  -27.1590  -33.9980   24.4370 C   0  0  0  0  0  0  0  0  0  0  0  0
  -27.8300  -34.1160   23.4080 O   0  0  0  0  0  0  0  0  0  0  0  0
  -26.2400  -32.7850   25.7790 H   0  0  0  0  0  0  0  0  0  0  0  0
  -25.4400  -35.8250   24.4820 C   0  0  0  0  0  1  0  0  0  0  0  0
  -26.6810  -35.2540   25.1860 C   0  0  0  0  0  3  0  0  0  0  0  0
  -28.8200  -35.9350   26.1810 C   0  0  0  0  0  1  0  0  0  0  0  0
  -27.7190  -36.3030   25.2950 N   0  0  0  0  0  0  0  0  0  0  0  0
  -27.3190  -37.1720   25.6360 H   0  0  0  0  0  0  0  0  0  0  0  0
  -27.6160  -30.4730   25.3900 C   0  0  1  0  0  0  0  0  0  0  0  0
  -26.5000  -29.9670   26.3330 C   0  0  0  0  0  1  0  0  0  0  0  0
  -28.2460  -29.2410   24.7030 C   0  0  0  0  0  1  0  0  0  0  0  0
  -28.7280  -31.1080   26.2580 C   0  0  0  0  0  1  0  0  0  0  0  0
  1  5  1  0
  1  3  1  0
  2  4  1  0
  3  6  1  0
  5  7  1  0
  5  2  1  0
  6  4  1  0
  6 58  1  0
  7  8  1  0
  8 12  1  0
  9 10  1  0
 11 14  2  0
 11 12  1  0
 12  9  2  0
 13 16  1  0
 13 10  2  0
 14 13  1  0
 15 14  1  0
 16 17  1  0
 17 18  1  0
 18 19  1  0
 20 26  1  0
 20 28  1  0
 21 26  1  0
 22 23  1  0
 22 21  1  0
 24 23  1  0
 24 33  1  0
 24 25  1  0
 26 25  1  0
 27 20  2  0
 28 19  1  0
 28 29  1  0
 30 31  2  0
 31 50  1  0
 32 31  1  0
 32 35  1  0
 33 30  1  0
 33 34  1  0
 34 32  2  0
 35 36  1  0
 36 37  2  0
 38 41  1  0
 38 37  1  0
 39 38  2  0
 40 39  1  0
 40 35  2  0
 41 42  1  0
 42 43  1  0
 43 44  2  0
 45 44  1  0
 45 49  1  0
 46 45  2  0
 47 42  2  0
 47 46  1  0
 48 47  1  0
 50 51  1  0
 51 54  1  0
 51 53  1  0
 52 50  2  0
 55 56  1  0
 55 30  1  0
 57 55  1  0
 59 58  1  0
 59 60  1  0
 60 61  1  0
 62 60  1  0
 63 64  1  0
 63 60  1  0
 65 67  1  0
 65 64  1  0
 66 77  2  0
 67 72  1  0
 68 76  1  0
 68 78  1  0
 69 75  1  0
 69 71  1  0
 70 76  1  0
 71 70  1  0
 72 71  2  0
 73 74  1  0
 73 67  2  0
 74 69  2  0
 75 68  1  0
 76 66  1  0
 78 80  2  0
 79 78  1  0
 81 79  1  0
 82 91  2  0
 82 87  1  0
 83 79  1  0
 83 87  1  0
 84 83  1  0
 85 86  1  0
 85 84  1  0
 86 82  1  0
 87 88  2  0
 88 89  1  0
 90 89  2  0
 91 90  1  0
 92 66  1  0
 92 93  1  0
 92102  1  0
 93 96  1  0
 94 93  1  0
 94 98  1  0
 95 94  2  0
 98 97  1  0
 98100  1  0
100101  1  0
100 99  1  0
102105  1  1
102103  1  0
104102  1  0
M  ISO  4  20 100  28 100  64 101  65 101
M  END
>  <TORSDO>  (95) 
F 28

>  <SCORE>  (95) 
-6.639

>  <name>  (95) 
98

>  <ligand_id>  (95) 
98

>  <original_smiles>  (95) 
[H]c1c([H])c([H])c2c(c1[H])C([H])([H])C([H])([H])C([H])([H])C2([H])N([H])C(=O)C1([H])N(C(=O)C([H])(N([H])C(=O)C([H])(N([H])C([H])([H])[H])C([H])([H])[H])C(C([H])([H])[H])(C([H])([H])[H])C([H])([H])[H])C([H])([H])c2c([H])c(OC([H])([H])C([H])([H])[N+]([H])([H])C([H])([H])C([H])([H])N3C([H])([H])C([H])([H])C([H])(C([H])([H])C([H])([H])c4c([H])c([H])c(C([H])([H])C([H])([H])C([H])([H])C([H])([H])N([H])C(=O)N5C([H])([H])C([H])([H])C([H])([H])C([H])(n6nc(-c7c([H])c([H])c(Oc8c([H])c([H])c(F)c([H])c8F)c([H])c7[H])c(C(=O)N([H])[H])c6N([H])[H])C5([H])[H])c(C([H])([H])[H])c4[H])C([H])([H])C3([H])[H])c([H])c([H])c2C1([H])[H]

>  <smiles>  (95) 
[H]c1c([H])c([H])c2c(c1[H])C([H])([H])C([H])([H])C([H])([H])C2([H])N([H])C(=O)C1([H])N(C(=O)C([H])(N([H])C(=O)C([H])(N([H])C([H])([H])[H])C([H])([H])[H])C(C([H])([H])[H])(C([H])([H])[H])C([H])([H])[H])C([H])([H])c2c([H])c(OC([H])([H])C([H])([H])[N+]([H])([H])C([H])([H])C([H])([H])N3C([H])([H])C([H])([H])C([H])(C([H])([H])C([H])([H])c4c([H])c([H])c(C([H])([H])C([H])([H])C([H])([H])C([H])([H])N([H])C(=O)N5C([H])([H])C([H])([H])C([H])([H])C([H])(n6nc(-c7c([H])c([H])c(Oc8c([H])c([H])c(F)c([H])c8F)c([H])c7[H])c(C(=O)N([H])[H])c6N([H])[H])C5([H])[H])c(C([H])([H])[H])c4[H])C([H])([H])C3([H])[H])c([H])c([H])c2C1([H])[H]

$$$$
99:0:0
     RDKit          3D

 95103  0  0  1  0  0  0  0  0999 V2000
  -24.8260  -15.3430   22.0000 C   0  0  0  0  0  3  0  0  0  0  0  0
  -24.0650  -16.5910   20.7190 C   0  0  0  0  0  3  0  0  0  0  0  0
  -26.5740  -14.6570   21.6680 C   0  0  0  0  0  2  0  0  0  0  0  0
  -26.6640  -16.4270   18.9120 C   0  0  0  0  0  2  0  0  0  0  0  0
  -25.0790  -17.2800   19.2590 C   0  0  0  0  0  3  0  0  0  0  0  0
  -27.5080  -15.2800   20.1190 C   0  0  0  0  0  3  0  0  0  0  0  0
  -25.2120  -19.0510   19.0480 C   0  0  0  0  0  0  0  0  0  0  0  0
  -26.1040  -20.2370   19.5400 N   0  0  0  0  0  0  0  0  0  0  0  0
  -24.3510  -19.4800   18.2730 O   0  0  0  0  0  0  0  0  0  0  0  0
  -26.8190  -19.8610   20.1550 H   0  0  0  0  0  0  0  0  0  0  0  0
  -26.3460  -21.9920   19.2640 C   0  0  0  0  0  2  0  0  0  0  0  0
  -26.7990  -23.6960   20.1370 C   0  0  0  0  0  2  0  0  0  0  0  0
  -27.5510  -25.3060   20.0000 O   0  0  0  0  0  0  0  0  0  0  0  0
  -24.7220  -31.6880   23.3360 C   0  0  0  0  0  0  0  0  0  0  0  0
  -26.9360  -26.7020   20.0620 C   0  0  0  0  0  0  0  0  0  0  0  0
  -23.5670  -30.4460   21.5770 C   0  0  0  0  0  3  0  0  0  0  0  0
  -24.9820  -28.9190   20.0520 C   0  0  0  0  0  0  0  0  0  0  0  0
  -26.1500  -30.4940   21.5620 C   0  0  0  0  0  2  0  0  0  0  0  0
  -26.1550  -29.1190   20.7920 C   0  0  0  0  0  0  0  0  0  0  0  0
  -27.1560  -28.0180   20.7810 C   0  0  0  0  0  3  0  0  0  0  0  0
  -25.8140  -26.7580   19.2480 C   0  0  0  0  0  3  0  0  0  0  0  0
  -24.8600  -27.7840   19.2520 C   0  0  0  0  0  3  0  0  0  0  0  0
  -23.8260  -29.9070   20.1500 C   0  0  0  0  0  2  0  0  0  0  0  0
  -24.8390  -30.9090   22.2110 N   0  0  0  0  0  0  0  0  0  0  0  0
  -23.6160  -31.9710   23.8250 O   0  0  0  0  0  0  0  0  0  0  0  0
  -22.8350  -29.3740   22.4260 C   0  0  0  0  0  0  0  0  0  0  0  0
  -21.5020  -29.2680   22.2810 N   0  0  0  0  0  0  0  0  0  0  0  0
  -23.4730  -28.6540   23.1960 O   0  0  0  0  0  0  0  0  0  0  0  0
  -21.0430  -29.9000   21.6410 H   0  0  0  0  0  0  0  0  0  0  0  0
  -18.0730  -28.1510   22.6870 C   0  0  0  0  0  0  0  0  0  0  0  0
  -20.6420  -28.2920   22.9600 C   0  0  0  0  0  3  0  0  0  0  0  0
  -20.6870  -26.9190   22.2470 C   0  0  0  0  0  2  0  0  0  0  0  0
  -19.5700  -26.7400   21.2150 C   0  0  0  0  0  2  0  0  0  0  0  0
  -18.1950  -26.8720   21.8770 C   0  0  0  0  0  2  0  0  0  0  0  0
  -19.2210  -28.8260   23.1820 C   0  0  0  0  0  0  0  0  0  0  0  0
  -19.0470  -30.0270   23.9020 C   0  0  0  0  0  3  0  0  0  0  0  0
  -17.7600  -30.5500   24.1320 C   0  0  0  0  0  3  0  0  0  0  0  0
  -16.6280  -29.8690   23.6490 C   0  0  0  0  0  3  0  0  0  0  0  0
  -16.7860  -28.6720   22.9320 C   0  0  0  0  0  3  0  0  0  0  0  0
  -25.9640  -32.2850   24.0560 C   0  0  0  0  0  3  0  0  0  0  0  0
  -25.6500  -33.6770   24.4360 N   0  0  0  0  0  0  0  0  0  0  0  0
  -26.0480  -34.7690   23.7730 C   0  0  0  0  0  0  0  0  0  0  0  0
  -26.7820  -34.7140   22.7850 O   0  0  0  0  0  0  0  0  0  0  0  0
  -24.9990  -33.7930   25.1980 H   0  0  0  0  0  0  0  0  0  0  0  0
  -24.3870  -36.6370   23.4200 C   0  0  0  0  0  1  0  0  0  0  0  0
  -25.5570  -36.1380   24.2860 C   0  0  0  0  0  3  0  0  0  0  0  0
  -27.6430  -36.9200   25.3290 C   0  0  0  0  0  1  0  0  0  0  0  0
  -26.6150  -37.1730   24.3230 N   0  0  0  0  0  0  0  0  0  0  0  0
  -26.2150  -38.0920   24.5040 H   0  0  0  0  0  0  0  0  0  0  0  0
  -26.3820  -31.4640   25.3400 C   0  0  1  0  0  0  0  0  0  0  0  0
  -25.2140  -31.2370   26.3310 C   0  0  0  0  0  1  0  0  0  0  0  0
  -26.9450  -30.0770   24.9550 C   0  0  0  0  0  1  0  0  0  0  0  0
  -27.5180  -32.2040   26.0870 C   0  0  0  0  0  1  0  0  0  0  0  0
  -28.9430  -15.8130   20.1190 C   0  0  0  0  0  2  0  0  0  0  0  0
  -29.9040  -15.8200   21.3540 C   0  0  0  0  0  2  0  0  0  0  0  0
  -31.3450  -16.2050   20.9090 C   0  0  0  0  0  2  0  0  0  0  0  0
  -32.2970  -14.9660   20.8010 C   0  0  0  0  0  2  0  0  0  0  0  0
  -31.3080  -12.9330   19.5850 C   0  0  0  0  0  0  0  0  0  0  0  0
  -30.5780  -10.6750   18.9890 C   0  0  0  0  0  2  0  0  0  0  0  0
  -29.4820  -10.5040   17.9320 C   0  0  0  0  0  2  0  0  0  0  0  0
  -28.0580  -10.6690   18.5260 C   0  0  0  0  0  2  0  0  0  0  0  0
  -27.9280  -12.0050   19.3130 C   0  0  0  0  0  3  0  0  0  0  0  0
  -29.0880  -12.0310   20.4030 C   0  0  0  0  0  2  0  0  0  0  0  0
  -30.4030  -11.9240   19.7420 N   0  0  0  0  0  0  0  0  0  0  0  0
  -31.8690  -13.1450   18.5110 O   0  0  0  0  0  0  0  0  0  0  0  0
  -31.5980  -13.6480   20.7070 N   0  0  0  0  0  0  0  0  0  0  0  0
  -31.0170  -13.3890   21.4970 H   0  0  0  0  0  0  0  0  0  0  0  0
  -25.7540  -13.6540   20.1700 C   0  0  0  0  0  2  0  0  0  0  0  0
  -24.5170  -12.7110   20.3360 C   0  0  0  0  0  0  0  0  0  0  0  0
  -24.7180  -11.2410   20.4220 C   0  0  0  0  0  0  0  0  0  0  0  0
  -26.5080  -12.3250   19.7880 N   0  0  0  0  0  0  0  0  0  0  0  0
  -25.9500  -11.0760   20.0970 N   0  0  0  0  0  2  0  0  0  0  0  0
  -23.8240   -9.9670   20.7640 C   0  0  0  0  0  0  0  0  0  0  0  0
  -24.1850   -8.9130   21.6800 C   0  0  0  0  0  3  0  0  0  0  0  0
  -23.3320   -7.7920   21.9870 C   0  0  0  0  0  3  0  0  0  0  0  0
  -22.0530   -7.6600   21.3810 C   0  0  0  0  0  0  0  0  0  0  0  0
  -21.6960   -8.6660   20.4590 C   0  0  0  0  0  3  0  0  0  0  0  0
  -22.5500   -9.7640   20.1670 C   0  0  0  0  0  3  0  0  0  0  0  0
  -21.1700   -6.6000   21.5670 O   0  0  0  0  0  0  0  0  0  0  0  0
  -21.1790   -5.7750   22.6720 C   0  0  0  0  0  0  0  0  0  0  0  0
  -20.9280   -6.2640   23.9760 C   0  0  0  0  0  3  0  0  0  0  0  0
  -20.8830   -5.3790   25.0750 C   0  0  0  0  0  3  0  0  0  0  0  0
  -21.0790   -3.9990   24.8840 C   0  0  0  0  0  0  0  0  0  0  0  0
  -21.3050   -3.5000   23.5920 C   0  0  0  0  0  3  0  0  0  0  0  0
  -21.3460   -4.3780   22.4920 C   0  0  0  0  0  0  0  0  0  0  0  0
  -21.5420   -3.8740   21.2510 F   0  0  0  0  0  0  0  0  0  0  0  0
  -21.0440   -3.1510   25.9420 F   0  0  0  0  0  0  0  0  0  0  0  0
  -23.0490  -13.0550   20.6530 C   0  0  0  0  0  0  0  0  0  0  0  0
  -22.4340  -12.5060   21.7110 N   0  0  0  0  0  0  0  0  0  0  0  0
  -22.4290  -13.8710   19.9920 O   0  0  0  0  0  0  0  0  0  0  0  0
  -22.9030  -11.8540   22.3310 H   0  0  0  0  0  0  0  0  0  0  0  0
  -21.4850  -12.7700   21.9440 H   0  0  0  0  0  0  0  0  0  0  0  0
  -26.5720  -15.8940   21.2880 N   0  0  0  0  0  4  0  0  0  0  0  0
  -25.9500  -16.3030   21.9780 H   0  0  0  0  0  0  0  0  0  0  0  0
  -27.5510  -15.9820   21.5270 H   0  0  0  0  0  0  0  0  0  0  0  0
  2  1  2  0
  3  1  1  0
  4  5  1  0
  4  6  1  0
  5  7  1  0
  5  2  1  0
  6 54  1  0
  6 93  1  0
  7  8  1  0
  8 10  1  0
  9  7  2  0
 11  8  1  0
 11 12  1  0
 13 15  1  0
 13 12  1  0
 14 25  2  0
 15 20  1  0
 16 24  1  0
 16 26  1  0
 17 23  1  0
 17 19  1  0
 18 24  1  0
 19 18  1  0
 20 19  2  0
 21 22  1  0
 21 15  2  0
 22 17  2  0
 23 16  1  0
 24 14  1  0
 26 28  2  0
 27 26  1  0
 29 27  1  0
 30 39  2  0
 30 35  1  0
 31 27  1  0
 31 35  1  0
 32 31  1  0
 33 34  1  0
 33 32  1  0
 34 30  1  0
 35 36  2  0
 36 37  1  0
 38 37  2  0
 39 38  1  0
 40 14  1  0
 40 41  1  0
 40 50  1  0
 41 44  1  0
 42 46  1  0
 42 41  1  0
 43 42  2  0
 46 45  1  0
 46 48  1  0
 48 49  1  0
 48 47  1  0
 50 53  1  1
 50 51  1  0
 52 50  1  0
 54 55  1  0
 56 55  1  0
 57 56  1  0
 58 64  1  0
 58 66  1  0
 59 64  1  0
 60 61  1  0
 60 59  1  0
 62 61  1  0
 62 71  1  0
 62 63  1  0
 64 63  1  0
 65 58  2  0
 66 57  1  0
 66 67  1  0
 68 69  1  0
 69 70  2  0
 69 88  1  0
 70 73  1  0
 71 72  1  0
 71 68  1  0
 72 70  1  0
 73 74  1  0
 74 75  2  0
 76 79  1  0
 76 75  1  0
 77 76  2  0
 78 77  1  0
 78 73  2  0
 79 80  1  0
 80 81  1  0
 81 82  2  0
 83 82  1  0
 83 87  1  0
 84 83  2  0
 85 80  2  0
 85 84  1  0
 86 85  1  0
 88 89  1  0
 89 92  1  0
 89 91  1  0
 90 88  2  0
 93 95  1  0
 93  3  1  0
 93 94  1  0
M  ISO  4  12 101  13 101  58 100  66 100
M  END
>  <TORSDO>  (96) 
F 23

>  <SCORE>  (96) 
-3.583

>  <name>  (96) 
99

>  <ligand_id>  (96) 
99

>  <original_smiles>  (96) 
[H]c1c([H])c(C(=O)N([H])C([H])([H])C([H])([H])Oc2c([H])c([H])c3c(c2[H])C([H])([H])N(C(=O)C([H])(N([H])C(=O)C([H])(N([H])C([H])([H])[H])C([H])([H])[H])C(C([H])([H])[H])(C([H])([H])[H])C([H])([H])[H])C([H])(C(=O)N([H])C2([H])c4c([H])c([H])c([H])c([H])c4C([H])([H])C([H])([H])C2([H])[H])C3([H])[H])c([H])c(C([H])([H])C([H])([H])C([H])([H])C([H])([H])N([H])C(=O)N2C([H])([H])C([H])([H])C([H])([H])C([H])(n3nc(-c4c([H])c([H])c(Oc5c([H])c([H])c(F)c([H])c5F)c([H])c4[H])c(C(=O)N([H])[H])c3N([H])[H])C2([H])[H])c1[H]

>  <smiles>  (96) 
[H]c1c([H])c(C(=O)N([H])C([H])([H])C([H])([H])Oc2c([H])c([H])c3c(c2[H])C([H])([H])N(C(=O)C([H])(N([H])C(=O)C([H])(N([H])C([H])([H])[H])C([H])([H])[H])C(C([H])([H])[H])(C([H])([H])[H])C([H])([H])[H])C([H])(C(=O)N([H])C2([H])c4c([H])c([H])c([H])c([H])c4C([H])([H])C([H])([H])C2([H])[H])C3([H])[H])c([H])c(C([H])([H])C([H])([H])C([H])([H])C([H])([H])N([H])C(=O)N2C([H])([H])C([H])([H])C([H])([H])C([H])(n3nc(-c4c([H])c([H])c(Oc5c([H])c([H])c(F)c([H])c5F)c([H])c4[H])c(C(=O)N([H])[H])c3N([H])[H])C2([H])[H])c1[H]

$$$$
