0:0:0
     RDKit          3D

107112  0  0  1  0  0  0  0  0999 V2000
  -26.5400  -15.2290   21.7910 C   0  0  0  0  0  3  0  0  0  0  0  0
  -25.2680  -15.6220   19.8360 C   0  0  0  0  0  3  0  0  0  0  0  0
  -25.4140  -14.5740   22.4320 C   0  0  0  0  0  3  0  0  0  0  0  0
  -24.1380  -14.9830   20.4860 C   0  0  0  0  0  3  0  0  0  0  0  0
  -26.5460  -15.7720   20.4560 C   0  0  0  0  0  0  0  0  0  0  0  0
  -24.1450  -14.3890   21.7990 C   0  0  0  0  0  0  0  0  0  0  0  0
  -27.7840  -16.6130   19.9040 C   0  0  0  0  0  0  0  0  0  0  0  0
  -28.0820  -17.0140   18.5890 N   0  0  0  0  0  0  0  0  0  0  0  0
  -28.6090  -16.9270   20.7650 O   0  0  0  0  0  0  0  0  0  0  0  0
  -27.4300  -16.7300   17.8700 H   0  0  0  0  0  0  0  0  0  0  0  0
  -29.3090  -17.8910   18.1520 C   0  0  0  0  0  3  0  0  0  0  0  0
  -29.3790  -18.9150   16.8450 C   0  0  0  0  0  3  0  0  0  0  0  0
  -30.6470  -19.9640   16.5500 C   0  0  0  0  0  3  0  0  0  0  0  0
  -30.4450  -21.4350   15.8140 C   0  0  0  0  0  3  0  0  0  0  0  0
  -31.3510  -22.7010   15.7980 O   0  0  0  0  0  0  0  0  0  0  0  0
  -27.7300  -26.7620   20.5060 C   0  0  0  0  0  0  0  0  0  0  0  0
  -30.7040  -23.9460   16.0180 C   0  0  0  0  0  0  0  0  0  0  0  0
  -27.0250  -26.7850   18.1460 C   0  0  0  0  0  3  0  0  0  0  0  0
  -28.7560  -25.9890   16.4410 C   0  0  0  0  0  0  0  0  0  0  0  0
  -29.5070  -26.5090   18.7510 C   0  0  0  0  0  2  0  0  0  0  0  0
  -29.6840  -25.7180   17.4540 C   0  0  0  0  0  0  0  0  0  0  0  0
  -30.6760  -24.6980   17.2480 C   0  0  0  0  0  3  0  0  0  0  0  0
  -29.8820  -24.4190   14.9790 C   0  0  0  0  0  3  0  0  0  0  0  0
  -28.8810  -25.3710   15.1940 C   0  0  0  0  0  3  0  0  0  0  0  0
  -27.6300  -26.9610   16.7300 C   0  0  0  0  0  2  0  0  0  0  0  0
  -28.0900  -26.6680   19.1930 N   0  0  0  0  0  0  0  0  0  0  0  0
  -26.5510  -26.9540   20.8400 O   0  0  0  0  0  0  0  0  0  0  0  0
  -26.0370  -25.5910   18.1490 C   0  0  0  0  0  0  0  0  0  0  0  0
  -24.8190  -25.8060   17.6220 N   0  0  0  0  0  0  0  0  0  0  0  0
  -26.3760  -24.4960   18.6060 O   0  0  0  0  0  0  0  0  0  0  0  0
  -24.6120  -26.7320   17.2770 H   0  0  0  0  0  0  0  0  0  0  0  0
  -21.4360  -25.2980   16.4370 C   0  0  0  0  0  0  0  0  0  0  0  0
  -23.7460  -24.8170   17.4980 C   0  0  0  0  0  3  0  0  0  0  0  0
  -23.9900  -23.8810   16.2920 C   0  0  0  0  0  2  0  0  0  0  0  0
  -23.3020  -24.3590   15.0090 C   0  0  0  0  0  2  0  0  0  0  0  0
  -21.7890  -24.4650   15.2170 C   0  0  0  0  0  2  0  0  0  0  0  0
  -22.3600  -25.4760   17.5010 C   0  0  0  0  0  0  0  0  0  0  0  0
  -21.9920  -26.2860   18.5980 C   0  0  0  0  0  3  0  0  0  0  0  0
  -20.7310  -26.9080   18.6430 C   0  0  0  0  0  3  0  0  0  0  0  0
  -19.8150  -26.7160   17.5930 C   0  0  0  0  0  3  0  0  0  0  0  0
  -20.1660  -25.9090   16.4970 C   0  0  0  0  0  3  0  0  0  0  0  0
  -28.7850  -26.6560   21.6480 C   0  0  0  0  0  3  0  0  0  0  0  0
  -28.3000  -27.4640   22.7770 N   0  0  0  0  0  0  0  0  0  0  0  0
  -28.8320  -28.6310   23.1640 C   0  0  0  0  0  0  0  0  0  0  0  0
  -29.8390  -29.1130   22.6380 O   0  0  0  0  0  0  0  0  0  0  0  0
  -27.4460  -27.1560   23.2180 H   0  0  0  0  0  0  0  0  0  0  0  0
  -27.2920  -30.5340   23.7460 C   0  0  0  0  0  1  0  0  0  0  0  0
  -28.1370  -29.3840   24.3150 C   0  0  0  0  0  3  0  0  0  0  0  0
  -29.7220  -28.8670   26.1200 C   0  0  0  0  0  1  0  0  0  0  0  0
  -29.0790  -29.9120   25.3270 N   0  0  0  0  0  0  0  0  0  0  0  0
  -28.6050  -30.5450   25.9640 H   0  0  0  0  0  0  0  0  0  0  0  0
  -29.0540  -25.1700   22.1050 C   0  0  1  0  0  0  0  0  0  0  0  0
  -27.7670  -24.3780   22.4370 C   0  0  0  0  0  1  0  0  0  0  0  0
  -29.8160  -24.3850   21.0120 C   0  0  0  0  0  1  0  0  0  0  0  0
  -29.9580  -25.1630   23.3600 C   0  0  0  0  0  1  0  0  0  0  0  0
  -22.7810  -13.7380   22.4570 C   0  0  0  0  0  2  0  0  0  0  0  0
  -22.6040  -12.6360   23.5860 N   0  0  0  0  0  4  0  0  0  0  0  0
  -21.9180  -13.1240   24.1420 H   0  0  0  0  0  0  0  0  0  0  0  0
  -23.4370  -12.6560   24.1500 H   0  0  0  0  0  0  0  0  0  0  0  0
  -21.9820  -11.1050   23.7320 C   0  0  0  0  0  2  0  0  0  0  0  0
  -20.4630  -11.1900   23.1760 C   0  0  0  0  0  0  0  0  0  0  0  0
  -19.4760  -10.4270   23.6430 N   0  0  0  0  0  0  0  0  0  0  0  0
  -20.1410  -12.0480   22.3650 O   0  0  0  0  0  0  0  0  0  0  0  0
  -19.6660   -9.6810   24.3000 H   0  0  0  0  0  0  0  0  0  0  0  0
  -18.5400  -10.5390   23.2830 H   0  0  0  0  0  0  0  0  0  0  0  0
  -23.9930   -8.5450   24.2440 C   0  0  0  0  0  2  0  0  0  0  0  0
  -25.5750   -8.3590   23.6710 C   0  0  0  0  0  2  0  0  0  0  0  0
  -26.9160   -9.2490   24.0040 C   0  0  0  0  0  2  0  0  0  0  0  0
  -28.1900   -9.2120   22.9870 C   0  0  0  0  0  2  0  0  0  0  0  0
  -30.2370  -11.1710   21.7050 C   0  0  2  0  0  0  0  0  0  0  0  0
  -31.2600  -10.1330   22.3720 C   0  0  0  0  0  1  0  0  0  0  0  0
  -30.4760   -8.8910   21.1560 C   0  0  0  0  0  1  0  0  0  0  0  0
  -29.0510   -9.4080   20.2190 C   0  0  0  0  0  2  0  0  0  0  0  0
  -28.4000  -11.0530   20.2350 C   0  0  0  0  0  2  0  0  0  0  0  0
  -29.1650  -12.3210   21.3930 C   0  0  0  0  0  1  0  0  0  0  0  0
  -30.5250  -11.7820   22.4070 N   0  0  0  0  0  1  0  0  0  0  0  0
  -31.0280  -11.3450   20.5570 O   0  0  0  0  0  1  0  0  0  0  0  0
  -29.0640  -10.4730   22.6750 N   0  0  0  0  0  2  0  0  0  0  0  0
  -28.9960  -11.0870   23.4740 H   0  0  0  0  0  0  0  0  0  0  0  0
  -26.1320  -12.1060   19.7920 C   0  0  0  0  0  0  0  0  0  0  0  0
  -24.8520  -11.6780   19.9330 C   0  0  0  0  0  0  0  0  0  0  0  0
  -25.0100  -10.4120   20.5290 C   0  0  0  0  0  0  0  0  0  0  0  0
  -26.9520  -11.0980   20.2430 N   0  0  0  0  0  0  0  0  0  0  0  0
  -26.2470  -10.0950   20.7540 N   0  0  0  0  0  0  0  0  0  0  0  0
  -24.0540   -9.4690   20.8510 C   0  0  0  0  0  0  0  0  0  0  0  0
  -23.9930   -8.5910   22.3250 C   0  0  0  0  0  0  0  0  0  0  0  0
  -22.7010   -7.5410   22.5640 C   0  0  0  0  0  3  0  0  0  0  0  0
  -21.5530   -7.3800   21.3680 C   0  0  0  0  0  0  0  0  0  0  0  0
  -21.6550   -8.2160   19.9760 C   0  0  0  0  0  3  0  0  0  0  0  0
  -22.8720   -9.2540   19.7050 C   0  0  0  0  0  3  0  0  0  0  0  0
  -20.5070   -6.5120   21.3940 O   0  0  0  0  0  0  0  0  0  0  0  0
  -20.1870   -5.8840   22.5540 C   0  0  0  0  0  0  0  0  0  0  0  0
  -19.8900   -6.6100   23.7250 C   0  0  0  0  0  3  0  0  0  0  0  0
  -19.5160   -5.9280   24.8920 C   0  0  0  0  0  3  0  0  0  0  0  0
  -19.4320   -4.5250   24.8840 C   0  0  0  0  0  0  0  0  0  0  0  0
  -19.7190   -3.8010   23.7130 C   0  0  0  0  0  3  0  0  0  0  0  0
  -20.0940   -4.4820   22.5440 C   0  0  0  0  0  0  0  0  0  0  0  0
  -20.3530   -3.7910   21.4070 F   0  0  0  0  0  0  0  0  0  0  0  0
  -19.0680   -3.8730   26.0100 F   0  0  0  0  0  0  0  0  0  0  0  0
  -23.6100  -12.4050   19.4750 C   0  0  0  0  0  0  0  0  0  0  0  0
  -22.4210  -12.0670   19.9250 N   0  0  0  0  0  0  0  0  0  0  0  0
  -23.6820  -13.3790   18.7460 O   0  0  0  0  0  0  0  0  0  0  0  0
  -21.6200  -12.6100   19.6300 H   0  0  0  0  0  0  0  0  0  0  0  0
  -22.2650  -11.2210   20.4300 H   0  0  0  0  0  0  0  0  0  0  0  0
  -26.6780  -13.2710   19.2990 N   0  0  0  0  0  0  0  0  0  0  0  0
  -26.0870  -14.0420   19.0110 H   0  0  0  0  0  0  0  0  0  0  0  0
  -27.6670  -13.4820   19.2600 H   0  0  0  0  0  0  0  0  0  0  0  0
  1  3  1  0
  2  5  1  0
  2  4  2  0
  4  6  1  0
  5  1  2  0
  6  3  2  0
  6 56  1  0
  7  5  1  0
  7  9  2  0
  8  7  1  0
 10  8  1  0
 11  8  1  0
 12 11  2  0
 13 12  1  0
 14 13  2  0
 15 14  1  0
 15 17  1  0
 16 27  2  0
 17 22  1  0
 18 28  1  0
 18 26  1  0
 19 25  1  0
 19 21  1  0
 20 26  1  0
 21 20  1  0
 22 21  2  0
 23 24  1  0
 23 17  2  0
 24 19  2  0
 25 18  1  0
 26 16  1  0
 28 30  2  0
 29 28  1  0
 31 29  1  0
 32 41  2  0
 32 37  1  0
 33 37  1  0
 33 29  1  0
 34 33  1  0
 35 36  1  0
 35 34  1  0
 36 32  1  0
 37 38  2  0
 38 39  1  0
 40 39  2  0
 41 40  1  0
 42 16  1  0
 42 52  1  0
 42 43  1  0
 43 44  1  0
 43 46  1  0
 44 48  1  0
 45 44  2  0
 48 47  1  0
 48 50  1  0
 50 51  1  0
 50 49  1  0
 52 53  1  1
 52 55  1  0
 54 52  1  0
 56 57  1  0
 57 60  1  0
 57 58  1  0
 57 59  1  0
 61 62  1  0
 61 60  1  0
 62 64  1  0
 63 61  2  0
 65 62  1  0
 67 68  1  0
 67 66  1  0
 69 68  1  0
 70 71  1  1
 70 76  1  0
 73 74  1  0
 73 72  1  0
 74 83  1  0
 75 70  1  0
 77 70  1  0
 78 69  1  0
 78 79  1  0
 80 81  2  0
 80 83  1  0
 81 82  1  0
 82 84  2  0
 82 85  1  0
 83 84  1  0
 85 86  1  0
 86 87  2  0
 86 66  1  0
 88 91  1  0
 88 87  1  0
 89 88  2  0
 90 89  1  0
 90 85  2  0
 91 92  1  0
 92 93  1  0
 93 94  2  0
 95 94  1  0
 95 99  1  0
 96 95  2  0
 97 92  2  0
 97 96  1  0
 98 97  1  0
100101  1  0
100 81  1  0
101104  1  0
102100  2  0
103101  1  0
105 80  1  0
106105  1  0
107105  1  0
M  ISO  4  14 101  15 101  70 100  78 100
M  END
>  <TORSDO>  (1) 
F 29

>  <SCORE>  (1) 
8.096

>  <name>  (1) 
0

>  <ligand_id>  (1) 
0

>  <original_smiles>  (1) 
[H]c1c([H])c([H])c2c(c1[H])C([H])([H])C([H])([H])C([H])([H])C2([H])N([H])C(=O)C1([H])N(C(=O)C([H])(N([H])C(=O)C([H])(N([H])C([H])([H])[H])C([H])([H])[H])C(C([H])([H])[H])(C([H])([H])[H])C([H])([H])[H])C([H])([H])c2c([H])c(OC([H])([H])C([H])([H])C([H])([H])C([H])([H])N([H])C(=O)c3c([H])c([H])c(C([H])([H])[N+]([H])([H])C([H])(C(=O)N([H])[H])C([H])([H])C([H])([H])C([H])([H])C([H])([H])N([H])C(=O)N4C([H])([H])C([H])([H])C([H])([H])C([H])(n5nc(-c6c([H])c([H])c(Oc7c([H])c([H])c(F)c([H])c7F)c([H])c6[H])c(C(=O)N([H])[H])c5N([H])[H])C4([H])[H])c([H])c3[H])c([H])c([H])c2C1([H])[H]

>  <smiles>  (1) 
[H]c1c([H])c([H])c2c(c1[H])C([H])([H])C([H])([H])C([H])([H])C2([H])N([H])C(=O)C1([H])N(C(=O)C([H])(N([H])C(=O)C([H])(N([H])C([H])([H])[H])C([H])([H])[H])C(C([H])([H])[H])(C([H])([H])[H])C([H])([H])[H])C([H])([H])c2c([H])c(OC([H])([H])C([H])([H])C([H])([H])C([H])([H])N([H])C(=O)c3c([H])c([H])c(C([H])([H])[N+]([H])([H])C([H])(C(=O)N([H])[H])C([H])([H])C([H])([H])C([H])([H])C([H])([H])N([H])C(=O)N4C([H])([H])C([H])([H])C([H])([H])C([H])(n5nc(-c6c([H])c([H])c(Oc7c([H])c([H])c(F)c([H])c7F)c([H])c6[H])c(C(=O)N([H])[H])c5N([H])[H])C4([H])[H])c([H])c3[H])c([H])c([H])c2C1([H])[H]

$$$$
2:0:0
     RDKit          3D

106111  0  0  1  0  0  0  0  0999 V2000
  -18.4310  -21.3120   22.1820 C   0  0  0  0  0  3  0  0  0  0  0  0
  -20.1640  -22.5160   20.9670 C   0  0  0  0  0  3  0  0  0  0  0  0
  -19.3070  -20.2170   22.3410 C   0  0  0  0  0  3  0  0  0  0  0  0
  -21.0390  -21.4220   21.1250 C   0  0  0  0  0  3  0  0  0  0  0  0
  -18.8370  -22.4540   21.4570 C   0  0  0  0  0  0  0  0  0  0  0  0
  -20.6070  -20.2540   21.7900 C   0  0  0  0  0  0  0  0  0  0  0  0
  -17.8480  -23.5440   21.1450 C   0  0  0  0  0  0  0  0  0  0  0  0
  -18.4000  -24.5430   20.4450 N   0  0  0  0  0  0  0  0  0  0  0  0
  -16.6400  -23.4290   21.3660 O   0  0  0  0  0  0  0  0  0  0  0  0
  -19.4010  -24.4520   20.3730 H   0  0  0  0  0  0  0  0  0  0  0  0
  -17.8090  -25.6030   19.5350 C   0  0  0  0  0  2  0  0  0  0  0  0
  -18.8230  -26.8180   17.1960 C   0  0  0  0  0  1  0  0  0  0  0  0
  -20.4300  -27.2350   16.8060 N   0  0  0  0  0  4  0  0  0  0  0  0
  -20.5520  -28.1030   17.3010 H   0  0  0  0  0  0  0  0  0  0  0  0
  -20.3340  -27.4900   15.8340 H   0  0  0  0  0  0  0  0  0  0  0  0
  -21.9520  -26.5800   16.8350 C   0  0  0  0  0  3  0  0  0  0  0  0
  -23.2740  -26.8500   18.0000 C   0  0  0  0  0  3  0  0  0  0  0  0
  -24.8830  -26.6150   18.1050 O   0  0  0  0  0  0  0  0  0  0  0  0
  -25.2560  -30.0410   23.3650 C   0  0  0  0  0  0  0  0  0  0  0  0
  -25.6950  -27.6850   17.9160 C   0  0  0  0  0  3  0  0  0  0  0  0
  -23.6310  -30.2390   21.5670 C   0  0  0  0  0  3  0  0  0  0  0  0
  -24.4110  -29.7210   19.1770 C   0  0  0  0  0  3  0  0  0  0  0  0
  -26.0870  -29.8850   21.0190 C   0  0  0  0  0  2  0  0  0  0  0  0
  -25.6160  -29.2630   19.7230 C   0  0  0  0  0  0  0  0  0  0  0  0
  -26.3090  -28.2260   19.0720 C   0  0  0  0  0  3  0  0  0  0  0  0
  -24.8450  -28.4590   17.1490 C   0  0  0  0  0  3  0  0  0  0  0  0
  -24.0760  -29.3970   17.8500 C   0  0  0  0  0  3  0  0  0  0  0  0
  -23.5610  -30.6040   20.0520 C   0  0  0  0  0  2  0  0  0  0  0  0
  -25.0230  -30.0580   22.0290 N   0  0  0  0  0  0  0  0  0  0  0  0
  -24.3450  -30.2300   24.1860 O   0  0  0  0  0  0  0  0  0  0  0  0
  -22.8240  -28.9900   21.9800 C   0  0  0  0  0  0  0  0  0  0  0  0
  -21.6010  -29.1990   22.3910 N   0  0  0  0  0  0  0  0  0  0  0  0
  -23.2630  -27.8500   21.9330 O   0  0  0  0  0  0  0  0  0  0  0  0
  -21.3140  -30.1510   22.5920 H   0  0  0  0  0  0  0  0  0  0  0  0
  -17.8270  -29.3290   22.1650 C   0  0  0  0  0  0  0  0  0  0  0  0
  -20.6090  -28.1600   22.6340 C   0  0  0  0  0  2  0  0  0  0  0  0
  -20.4270  -26.7210   21.2210 C   0  0  0  0  0 15  0  0  0  0  0  0
  -18.6760  -26.8540   20.0850 C   0  0  0  0  0  1  0  0  0  0  0  0
  -17.3860  -28.2560   20.7110 C   0  0  0  0  0  1  0  0  0  0  0  0
  -19.2070  -29.2620   22.9790 C   0  0  0  0  0  0  0  0  0  0  0  0
  -19.2920  -29.9010   24.2280 C   0  0  0  0  0  3  0  0  0  0  0  0
  -18.1750  -30.5010   24.8180 C   0  0  0  0  0  3  0  0  0  0  0  0
  -16.9200  -30.4530   24.1900 C   0  0  0  0  0  3  0  0  0  0  0  0
  -16.7500  -29.8720   22.9130 C   0  0  0  0  0  3  0  0  0  0  0  0
  -26.6840  -29.8080   23.9150 C   0  0  0  0  0  3  0  0  0  0  0  0
  -26.9230  -30.8580   24.9080 N   0  0  0  0  0  0  0  0  0  0  0  0
  -27.6850  -31.9360   24.6900 C   0  0  0  0  0  0  0  0  0  0  0  0
  -28.3330  -32.1010   23.6530 O   0  0  0  0  0  0  0  0  0  0  0  0
  -26.3800  -30.8150   25.7580 H   0  0  0  0  0  0  0  0  0  0  0  0
  -26.9300  -34.2340   25.3780 C   0  0  0  0  0  1  0  0  0  0  0  0
  -27.7400  -32.9990   25.8030 C   0  0  0  0  0  3  0  0  0  0  0  0
  -29.8750  -32.3300   26.8100 C   0  0  0  0  0  1  0  0  0  0  0  0
  -29.1190  -33.3970   26.1590 N   0  0  0  0  0  0  0  0  0  0  0  0
  -29.1140  -34.2050   26.7740 H   0  0  0  0  0  0  0  0  0  0  0  0
  -26.8710  -28.3750   24.5450 C   0  0  1  0  0  0  0  0  0  0  0  0
  -25.7910  -28.0020   25.5850 C   0  0  0  0  0  1  0  0  0  0  0  0
  -26.8650  -27.2820   23.4500 C   0  0  0  0  0  1  0  0  0  0  0  0
  -28.2550  -28.3010   25.2290 C   0  0  0  0  0  1  0  0  0  0  0  0
  -21.5400  -19.0530   21.9030 C   0  0  0  0  0  2  0  0  0  0  0  0
  -22.2730  -18.8130   20.6420 N   0  0  0  0  0  4  0  0  0  0  0  0
  -22.7530  -19.6620   20.3930 H   0  0  0  0  0  0  0  0  0  0  0  0
  -21.5960  -18.6180   19.9220 H   0  0  0  0  0  0  0  0  0  0  0  0
  -23.2530  -17.7010   20.7080 C   0  0  0  0  0  2  0  0  0  0  0  0
  -24.3930  -17.8350   19.6710 C   0  0  0  0  0  2  0  0  0  0  0  0
  -25.5390  -16.8280   19.9010 C   0  0  0  0  0  3  0  0  0  0  0  0
  -26.9270  -17.3600   19.4860 C   0  0  0  0  0  2  0  0  0  0  0  0
  -28.0850  -16.6670   20.2320 C   0  0  0  0  0  2  0  0  0  0  0  0
  -29.4680  -17.3130   19.9620 C   0  0  0  0  0  2  0  0  0  0  0  0
  -31.2810  -15.7050   20.3080 C   0  0  0  0  0  0  0  0  0  0  0  0
  -31.5690  -13.2460   20.3180 C   0  0  0  0  0  2  0  0  0  0  0  0
  -30.8740  -12.5870   19.1110 C   0  0  0  0  0  2  0  0  0  0  0  0
  -29.3850  -12.3250   19.4060 C   0  0  0  0  0  2  0  0  0  0  0  0
  -28.6670  -13.5710   19.9860 C   0  0  0  0  0  3  0  0  0  0  0  0
  -29.4840  -14.1550   21.1580 C   0  0  0  0  0  2  0  0  0  0  0  0
  -30.8330  -14.4730   20.6640 N   0  0  0  0  0  0  0  0  0  0  0  0
  -32.3600  -15.8780   19.7240 O   0  0  0  0  0  0  0  0  0  0  0  0
  -31.2970  -17.7860   21.5160 C   0  0  0  0  0  1  0  0  0  0  0  0
  -30.5600  -16.7520   20.7840 N   0  0  0  0  0  0  0  0  0  0  0  0
  -26.2100  -14.1120   20.5340 C   0  0  0  0  0  0  0  0  0  0  0  0
  -25.1500  -13.3100   20.8590 C   0  0  0  0  0  0  0  0  0  0  0  0
  -25.6580  -11.9750   20.8800 C   0  0  0  0  0  0  0  0  0  0  0  0
  -27.2970  -13.2640   20.3860 N   0  0  0  0  0  0  0  0  0  0  0  0
  -26.9630  -11.9740   20.6460 N   0  0  0  0  0  0  0  0  0  0  0  0
  -24.9670  -10.6920   21.0540 C   0  0  0  0  0  0  0  0  0  0  0  0
  -25.1670   -9.8950   22.2030 C   0  0  0  0  0  3  0  0  0  0  0  0
  -24.4780   -8.6720   22.3530 C   0  0  0  0  0  3  0  0  0  0  0  0
  -23.5760   -8.2380   21.3530 C   0  0  0  0  0  0  0  0  0  0  0  0
  -23.3980   -9.0240   20.2010 C   0  0  0  0  0  3  0  0  0  0  0  0
  -24.0880  -10.2370   20.0500 C   0  0  0  0  0  3  0  0  0  0  0  0
  -22.8820   -7.0520   21.4030 O   0  0  0  0  0  0  0  0  0  0  0  0
  -22.3300   -6.5900   22.5700 C   0  0  0  0  0  0  0  0  0  0  0  0
  -21.3790   -7.3420   23.2930 C   0  0  0  0  0  3  0  0  0  0  0  0
  -20.7850   -6.8000   24.4500 C   0  0  0  0  0  3  0  0  0  0  0  0
  -21.1330   -5.5050   24.8800 C   0  0  0  0  0  0  0  0  0  0  0  0
  -22.0770   -4.7530   24.1590 C   0  0  0  0  0  3  0  0  0  0  0  0
  -22.6710   -5.2930   23.0050 C   0  0  0  0  0  0  0  0  0  0  0  0
  -23.5640   -4.5570   22.3010 F   0  0  0  0  0  0  0  0  0  0  0  0
  -20.5570   -4.9810   25.9870 F   0  0  0  0  0  0  0  0  0  0  0  0
  -23.7240  -13.7430   21.0460 C   0  0  0  0  0  0  0  0  0  0  0  0
  -22.9540  -12.9940   21.8280 N   0  0  0  0  0  0  0  0  0  0  0  0
  -23.2970  -14.7780   20.5360 O   0  0  0  0  0  0  0  0  0  0  0  0
  -23.3100  -12.1550   22.2620 H   0  0  0  0  0  0  0  0  0  0  0  0
  -21.9940  -13.2630   21.9920 H   0  0  0  0  0  0  0  0  0  0  0  0
  -26.3350  -15.4810   20.3290 N   0  0  0  0  0  2  0  0  0  0  0  0
  -25.5410  -16.1080   20.3760 H   0  0  0  0  0  0  0  0  0  0  0  0
  -27.1910  -15.9430   20.0510 H   0  0  0  0  0  0  0  0  0  0  0  0
  1  3  1  0
  2  4  2  0
  2  5  1  0
  4  6  1  0
  5  1  2  0
  6 59  1  0
  6  3  2  0
  7  9  2  0
  7  5  1  0
  8  7  1  0
 10  8  1  0
 11 38  1  0
 11  8  1  0
 13 16  1  0
 13 12  1  0
 13 14  1  0
 15 13  1  0
 16 17  2  0
 17 18  1  0
 19 30  2  0
 20 18  1  0
 20 25  1  0
 21 31  1  0
 21 29  1  0
 22 27  1  0
 22 24  1  0
 22 28  1  0
 23 29  1  0
 24 23  1  0
 25 24  2  0
 26 27  2  0
 26 20  1  0
 28 21  1  0
 29 19  1  0
 31 32  1  0
 32 34  1  0
 32 36  1  0
 33 31  2  0
 35 44  2  0
 35 40  1  0
 36 40  1  0
 39 35  1  0
 40 41  2  0
 41 42  1  0
 43 42  2  0
 44 43  1  0
 45 19  1  0
 45 55  1  0
 45 46  1  0
 46 49  1  0
 47 46  1  0
 47 51  1  0
 48 47  2  0
 51 50  1  0
 51 53  1  0
 53 54  1  0
 53 52  1  0
 55 58  1  1
 55 56  1  0
 57 55  1  0
 60 63  1  0
 60 59  1  0
 61 60  1  0
 62 60  1  0
 64 65  1  0
 64 63  1  0
 65105  1  0
 66 65  1  0
 66 67  1  0
 68 67  1  0
 68 78  1  0
 69 75  1  0
 69 78  1  0
 70 75  1  0
 71 72  1  0
 71 70  1  0
 73 72  1  0
 73 82  1  0
 73 74  1  0
 75 74  1  0
 76 69  2  0
 78 77  1  0
 79 80  2  0
 80 81  1  0
 80 99  1  0
 81 84  1  0
 82 79  1  0
 82 83  1  0
 83 81  2  0
 84 85  1  0
 85 86  2  0
 87 90  1  0
 87 86  1  0
 88 87  2  0
 89 88  1  0
 89 84  2  0
 90 91  1  0
 91 96  2  0
 91 92  1  0
 92 93  2  0
 93 94  1  0
 94 98  1  0
 95 94  2  0
 96 95  1  0
 97 96  1  0
 99100  1  0
100103  1  0
100102  1  0
101 99  2  0
104 79  1  0
106104  1  0
M  ISO  4  17 101  18 101  69 100  78 100
M  END
>  <TORSDO>  (2) 
F 30

>  <SCORE>  (2) 
13.885

>  <name>  (2) 
2

>  <ligand_id>  (2) 
2

>  <original_smiles>  (2) 
[H]c1c([H])c([H])c2c(c1[H])C([H])([H])C([H])([H])C([H])([H])C2([H])N([H])C(=O)C1([H])N(C(=O)C([H])(N([H])C(=O)C([H])(N([H])C([H])([H])[H])C([H])([H])[H])C(C([H])([H])[H])(C([H])([H])[H])C([H])([H])[H])C([H])([H])c2c([H])c(OC([H])([H])C([H])([H])[N+]([H])([H])C([H])([H])C([H])([H])N([H])C(=O)c3c([H])c([H])c(C([H])([H])[N+]([H])([H])C([H])([H])C([H])([H])C([H])([H])C([H])([H])C([H])([H])C([H])([H])N(C(=O)N4C([H])([H])C([H])([H])C([H])([H])C([H])(n5nc(-c6c([H])c([H])c(Oc7c([H])c([H])c(F)c([H])c7F)c([H])c6[H])c(C(=O)N([H])[H])c5N([H])[H])C4([H])[H])C([H])([H])[H])c([H])c3[H])c([H])c([H])c2C1([H])[H]

>  <smiles>  (2) 
[H]c1c([H])c([H])c2c(c1[H])C([H])([H])C([H])([H])C([H])([H])C2([H])N([H])C(=O)C1([H])N(C(=O)C([H])(N([H])C(=O)C([H])(N([H])C([H])([H])[H])C([H])([H])[H])C(C([H])([H])[H])(C([H])([H])[H])C([H])([H])[H])C([H])([H])c2c([H])c(OC([H])([H])C([H])([H])[N+]([H])([H])C([H])([H])C([H])([H])N([H])C(=O)c3c([H])c([H])c(C([H])([H])[N+]([H])([H])C([H])([H])C([H])([H])C([H])([H])C([H])([H])C([H])([H])C([H])([H])N(C(=O)N4C([H])([H])C([H])([H])C([H])([H])C([H])(n5nc(-c6c([H])c([H])c(Oc7c([H])c([H])c(F)c([H])c7F)c([H])c6[H])c(C(=O)N([H])[H])c5N([H])[H])C4([H])[H])C([H])([H])[H])c([H])c3[H])c([H])c([H])c2C1([H])[H]

$$$$
3:0:0
     RDKit          3D

 97101  0  0  1  0  0  0  0  0999 V2000
  -20.6900  -27.9650   18.8280 C   0  0  0  0  0  0  0  0  0  0  0  0
  -21.9000  -27.9320   18.1340 N   0  0  0  0  0  0  0  0  0  0  0  0
  -19.6480  -27.9090   18.1720 O   0  0  0  0  0  0  0  0  0  0  0  0
  -22.5800  -28.3770   18.7350 H   0  0  0  0  0  0  0  0  0  0  0  0
  -19.1100  -29.4720   22.1920 C   0  0  0  0  0  2  0  0  0  0  0  0
  -20.2980  -27.9490   24.0820 C   0  0  0  0  0  2  0  0  0  0  0  0
  -19.5270  -29.1460   20.7150 C   0  0  0  0  0  2  0  0  0  0  0  0
  -21.4300  -26.7670   22.0610 C   0  0  1  0  0  0  0  0  0  0  0  0
  -21.6290  -26.6390   23.4770 C   0  0  0  0  0  3  0  0  0  0  0  0
  -20.5710  -27.9710   20.4800 C   0  0  0  0  0  2  0  0  0  0  0  0
  -23.3070  -24.9780   23.4120 C   0  0  0  0  0  1  0  0  0  0  0  0
  -24.4650  -23.8820   22.5950 N   0  0  0  0  0  1  0  0  0  0  0  0
  -25.8990  -22.1230   22.4010 C   0  0  0  0  0 15  0  0  0  0  0  0
  -27.6690  -20.6840   21.3310 C   0  0  0  0  0 15  0  0  0  0  0  0
  -30.2440  -17.6370   20.3780 C   0  0  0  0  0  0  0  0  0  0  0  0
  -31.5640  -15.1880   19.2140 C   0  0  0  0  0  2  0  0  0  0  0  0
  -31.0510  -14.2320   18.0160 C   0  0  0  0  0  2  0  0  0  0  0  0
  -29.7490  -13.5100   18.3680 C   0  0  0  0  0  2  0  0  0  0  0  0
  -29.0320  -14.4750   19.3090 C   0  0  0  0  0  3  0  0  0  0  0  0
  -29.8130  -14.9050   20.5550 C   0  0  0  0  0  2  0  0  0  0  0  0
  -30.4800  -16.0980   20.0590 N   0  0  0  0  0  0  0  0  0  0  0  0
  -31.4950  -17.8260   20.0530 O   0  0  0  0  0  0  0  0  0  0  0  0
  -28.8970  -18.8550   20.8730 N   0  0  0  0  0  2  0  0  0  0  0  0
  -29.6950  -19.4780   20.9170 H   0  0  0  0  0  0  0  0  0  0  0  0
  -26.7850  -15.0140   20.1060 C   0  0  0  0  0  0  0  0  0  0  0  0
  -25.7610  -14.2400   20.5330 C   0  0  0  0  0  0  0  0  0  0  0  0
  -26.2230  -12.8880   20.4520 C   0  0  0  0  0  0  0  0  0  0  0  0
  -27.7630  -14.1150   19.7600 N   0  0  0  0  0  0  0  0  0  0  0  0
  -27.4810  -12.8350   20.0490 N   0  0  0  0  0  0  0  0  0  0  0  0
  -25.5180  -11.6330   20.6450 C   0  0  0  0  0  0  0  0  0  0  0  0
  -25.8330  -10.7670   21.7140 C   0  0  0  0  0  3  0  0  0  0  0  0
  -25.1140   -9.5670   21.8810 C   0  0  0  0  0  3  0  0  0  0  0  0
  -24.0780   -9.2330   20.9770 C   0  0  0  0  0  0  0  0  0  0  0  0
  -23.7900  -10.0920   19.9020 C   0  0  0  0  0  3  0  0  0  0  0  0
  -24.5090  -11.2820   19.7330 C   0  0  0  0  0  3  0  0  0  0  0  0
  -23.3380   -8.0820   21.0470 O   0  0  0  0  0  0  0  0  0  0  0  0
  -22.7900   -7.6560   22.2290 C   0  0  0  0  0  0  0  0  0  0  0  0
  -21.9850   -8.4980   23.0260 C   0  0  0  0  0  3  0  0  0  0  0  0
  -21.3860   -7.9940   24.1970 C   0  0  0  0  0  3  0  0  0  0  0  0
  -21.5840   -6.6510   24.5680 C   0  0  0  0  0  0  0  0  0  0  0  0
  -22.3830   -5.8100   23.7740 C   0  0  0  0  0  3  0  0  0  0  0  0
  -22.9830   -6.3120   22.6060 C   0  0  0  0  0  0  0  0  0  0  0  0
  -23.7350   -5.4940   21.8310 F   0  0  0  0  0  0  0  0  0  0  0  0
  -21.0020   -6.1640   25.6880 F   0  0  0  0  0  0  0  0  0  0  0  0
  -24.4010  -14.7390   20.8870 C   0  0  0  0  0  0  0  0  0  0  0  0
  -23.7400  -14.0880   21.8320 N   0  0  0  0  0  0  0  0  0  0  0  0
  -23.9370  -15.7500   20.3600 O   0  0  0  0  0  0  0  0  0  0  0  0
  -24.1320  -13.2710   22.2770 H   0  0  0  0  0  0  0  0  0  0  0  0
  -22.8280  -14.4210   22.1130 H   0  0  0  0  0  0  0  0  0  0  0  0
  -26.9630  -16.3910   19.9690 N   0  0  0  0  0  0  0  0  0  0  0  0
  -26.2240  -17.0490   20.1900 H   0  0  0  0  0  0  0  0  0  0  0  0
  -27.7690  -16.8290   19.5460 H   0  0  0  0  0  0  0  0  0  0  0  0
  -22.6620  -26.8260   17.3680 C   0  0  0  0  0  3  0  0  0  0  0  0
  -23.9120  -25.8110   17.9160 C   0  0  0  0  0  3  0  0  0  0  0  0
  -24.7910  -25.5980   19.3270 C   0  0  0  0  0  2  0  0  0  0  0  0
  -26.4270  -25.2910   19.4310 C   0  0  0  0  0  2  0  0  0  0  0  0
  -27.4500  -26.2590   20.0250 O   0  0  0  0  0  0  0  0  0  0  0  0
  -25.2840  -32.3060   23.1240 C   0  0  0  0  0  0  0  0  0  0  0  0
  -27.0390  -27.5420   19.8370 C   0  0  0  0  0  0  0  0  0  0  0  0
  -23.9230  -31.0860   21.5500 C   0  0  0  0  0  3  0  0  0  0  0  0
  -25.0800  -29.4880   19.9730 C   0  0  0  0  0  0  0  0  0  0  0  0
  -26.4420  -31.0290   21.3250 C   0  0  0  0  0  2  0  0  0  0  0  0
  -26.2730  -29.6790   20.6700 C   0  0  0  0  0  0  0  0  0  0  0  0
  -27.2510  -28.6520   20.6930 C   0  0  0  0  0  3  0  0  0  0  0  0
  -26.1050  -27.6600   18.8200 C   0  0  0  0  0  3  0  0  0  0  0  0
  -25.0220  -28.5040   19.0080 C   0  0  0  0  0  3  0  0  0  0  0  0
  -23.9900  -30.5060   20.1240 C   0  0  0  0  0  2  0  0  0  0  0  0
  -25.2390  -31.5330   22.0160 N   0  0  0  0  0  0  0  0  0  0  0  0
  -24.2500  -32.6780   23.7050 O   0  0  0  0  0  0  0  0  0  0  0  0
  -23.4700  -30.0310   22.5270 C   0  0  0  0  0  0  0  0  0  0  0  0
  -22.2720  -29.6360   22.3190 N   0  0  0  0  0  0  0  0  0  0  0  0
  -24.1920  -29.5300   23.3930 O   0  0  0  0  0  0  0  0  0  0  0  0
  -21.6550  -30.0500   21.6390 H   0  0  0  0  0  0  0  0  0  0  0  0
  -18.4380  -27.3780   22.2880 C   0  0  0  0  0  3  0  0  0  0  0  0
  -22.0020  -28.3680   22.8410 C   0  0  1  0  0  0  0  0  0  0  0  0
  -22.4340  -26.8930   21.5660 C   0  0  0  0  0  1  0  0  0  0  0  0
  -20.8150  -25.7650   20.5200 C   0  0  0  0  0  1  0  0  0  0  0  0
  -18.8340  -26.1430   21.0120 C   0  0  0  0  0  1  0  0  0  0  0  0
  -20.4250  -28.7290   23.3050 C   0  0  1  0  0  0  0  0  0  0  0  0
  -19.8310  -29.9120   24.4190 C   0  0  0  0  0  2  0  0  0  0  0  0
  -18.1880  -30.0890   24.7460 C   0  0  0  0  0  3  0  0  0  0  0  0
  -16.9070  -29.2120   24.1130 C   0  0  0  0  0  3  0  0  0  0  0  0
  -16.9540  -27.9460   22.9880 C   0  0  0  0  0  3  0  0  0  0  0  0
  -26.6480  -32.7580   23.6840 C   0  0  0  0  0  3  0  0  0  0  0  0
  -26.4790  -34.1660   24.0410 N   0  0  0  0  0  0  0  0  0  0  0  0
  -26.8030  -35.1800   23.2330 C   0  0  0  0  0  0  0  0  0  0  0  0
  -27.3680  -35.0200   22.1480 O   0  0  0  0  0  0  0  0  0  0  0  0
  -25.9690  -34.3690   24.8870 H   0  0  0  0  0  0  0  0  0  0  0  0
  -25.1960  -37.0960   22.9890 C   0  0  0  0  0  1  0  0  0  0  0  0
  -26.4530  -36.5960   23.7160 C   0  0  0  0  0  3  0  0  0  0  0  0
  -28.7020  -37.2910   24.4050 C   0  0  0  0  0  1  0  0  0  0  0  0
  -27.5570  -37.5610   23.5390 N   0  0  0  0  0  0  0  0  0  0  0  0
  -27.2380  -38.5090   23.7190 H   0  0  0  0  0  0  0  0  0  0  0  0
  -27.1310  -31.9010   24.9130 C   0  0  1  0  0  0  0  0  0  0  0  0
  -26.0660  -31.7550   26.0210 C   0  0  0  0  0  1  0  0  0  0  0  0
  -27.5640  -30.4780   24.4830 C   0  0  0  0  0  1  0  0  0  0  0  0
  -28.3810  -32.5700   25.5210 C   0  0  0  0  0  1  0  0  0  0  0  0
  1 10  1  0
  2  4  1  0
  2  1  1  0
  3  1  2  0
  5 79  1  0
  7  5  1  0
  8  9  1  0
  9  6  1  0
 10  7  1  0
 12 11  1  0
 15 23  1  0
 16 21  1  0
 17 18  1  0
 17 16  1  0
 19 18  1  0
 19 28  1  0
 19 20  1  0
 21 15  1  0
 21 20  1  0
 22 15  2  0
 23 24  1  0
 25 26  2  0
 26 45  1  0
 27 26  1  0
 27 30  1  0
 28 29  1  0
 28 25  1  0
 29 27  2  0
 30 31  1  0
 31 32  2  0
 33 36  1  0
 33 32  1  0
 34 33  2  0
 35 34  1  0
 35 30  2  0
 36 37  1  0
 37 42  2  0
 37 38  1  0
 38 39  2  0
 39 40  1  0
 40 44  1  0
 41 40  2  0
 42 41  1  0
 43 42  1  0
 45 46  1  0
 46 49  1  0
 46 48  1  0
 47 45  2  0
 50 25  1  0
 50 51  1  0
 52 50  1  0
 53 54  2  0
 53  2  1  0
 54 55  1  0
 55 56  1  0
 56 57  1  0
 58 69  2  0
 59 57  1  0
 59 64  1  0
 60 67  1  0
 60 68  1  0
 60 70  1  0
 61 67  1  0
 61 63  1  0
 62 68  1  0
 63 64  2  0
 63 62  1  0
 65 66  1  0
 65 59  2  0
 66 61  2  0
 68 58  1  0
 70 72  2  0
 71 70  1  0
 75 71  1  6
 73 71  1  0
 74 83  2  0
 75  8  1  0
 75 79  1  0
 75  9  1  0
  8 76  1  6
 77  8  1  0
 78 74  1  0
 79  6  1  0
 79 80  1  1
 80 81  1  0
 82 81  2  0
 83 82  1  0
 84 58  1  0
 84 85  1  0
 84 94  1  0
 85 88  1  0
 86 90  1  0
 86 85  1  0
 87 86  2  0
 90 89  1  0
 92 90  1  0
 92 93  1  0
 92 91  1  0
 94 97  1  1
 94 95  1  0
 96 94  1  0
M  ISO  4  15 100  23 100  56 101  57 101
M  END
>  <TORSDO>  (3) 
F 24

>  <SCORE>  (3) 
0.767

>  <name>  (3) 
3

>  <ligand_id>  (3) 
3

>  <original_smiles>  (3) 
[H]C(=NC([H])([H])C([H])([H])N([H])C(=O)N1C([H])([H])C([H])([H])C([H])([H])C([H])(n2nc(-c3c([H])c([H])c(Oc4c([H])c([H])c(F)c([H])c4F)c([H])c3[H])c(C(=O)N([H])[H])c2N([H])[H])C1([H])[H])c1c([H])c([H])c([H])c(C(=O)N([H])C([H])([H])C([H])([H])C([H])([H])C([H])([H])Oc2c([H])c([H])c3c(c2[H])C([H])([H])N(C(=O)C([H])(N([H])C(=O)C([H])(N([H])C([H])([H])[H])C([H])([H])[H])C(C([H])([H])[H])(C([H])([H])[H])C([H])([H])[H])C([H])(C(=O)N([H])C2([H])c4c([H])c([H])c([H])c([H])c4C([H])([H])C([H])([H])C2([H])[H])C3([H])[H])c1[H]

>  <smiles>  (3) 
[H]C(=NC([H])([H])C([H])([H])N([H])C(=O)N1C([H])([H])C([H])([H])C([H])([H])C([H])(n2nc(-c3c([H])c([H])c(Oc4c([H])c([H])c(F)c([H])c4F)c([H])c3[H])c(C(=O)N([H])[H])c2N([H])[H])C1([H])[H])c1c([H])c([H])c([H])c(C(=O)N([H])C([H])([H])C([H])([H])C([H])([H])C([H])([H])Oc2c([H])c([H])c3c(c2[H])C([H])([H])N(C(=O)C([H])(N([H])C(=O)C([H])(N([H])C([H])([H])[H])C([H])([H])[H])C(C([H])([H])[H])(C([H])([H])[H])C([H])([H])[H])C([H])(C(=O)N([H])C2([H])c4c([H])c([H])c([H])c([H])c4C([H])([H])C([H])([H])C2([H])[H])C3([H])[H])c1[H]

$$$$
4:0:0
     RDKit          3D

103111  0  0  1  0  0  0  0  0999 V2000
  -34.8680  -24.9320   18.3190 C   0  0  0  0  0  3  0  0  0  0  0  0
  -34.0040  -26.0190   18.0940 C   0  0  0  0  0  3  0  0  0  0  0  0
  -34.4960  -23.6440   17.9010 C   0  0  0  0  0  3  0  0  0  0  0  0
  -32.4610  -24.5390   16.9070 C   0  0  0  0  0  3  0  0  0  0  0  0
  -32.8030  -25.8270   17.3790 C   0  0  0  0  0  0  0  0  0  0  0  0
  -33.2580  -23.4330   17.2540 C   0  0  0  0  0  0  0  0  0  0  0  0
  -32.0040  -27.4490   15.6610 C   0  0  0  0  0  1  0  0  0  0  0  0
  -31.8740  -27.0050   17.1250 C   0  0  0  0  0  3  0  0  0  0  0  0
  -30.4570  -26.7210   17.4740 N   0  0  0  0  0  4  0  0  0  0  0  0
  -29.9710  -27.6050   17.5050 H   0  0  0  0  0  0  0  0  0  0  0  0
  -30.0550  -26.1920   16.7160 H   0  0  0  0  0  0  0  0  0  0  0  0
  -30.2020  -25.9880   18.7460 C   0  0  0  0  0  2  0  0  0  0  0  0
  -28.7070  -25.9340   19.0920 C   0  0  0  0  0  2  0  0  0  0  0  0
  -28.4740  -26.8600   20.1500 O   0  0  0  0  0  0  0  0  0  0  0  0
  -24.5840  -31.9030   23.2770 C   0  0  0  0  0  0  0  0  0  0  0  0
  -27.2560  -27.4960   20.1900 C   0  0  0  0  0  0  0  0  0  0  0  0
  -23.3790  -30.4840   21.6440 C   0  0  0  0  0  3  0  0  0  0  0  0
  -24.8360  -28.9440   20.2300 C   0  0  0  0  0  0  0  0  0  0  0  0
  -25.8980  -30.8620   21.4370 C   0  0  0  0  0  2  0  0  0  0  0  0
  -25.9870  -29.4890   20.8130 C   0  0  0  0  0  0  0  0  0  0  0  0
  -27.1960  -28.7650   20.8020 C   0  0  0  0  0  3  0  0  0  0  0  0
  -26.0810  -26.9460   19.6260 C   0  0  0  0  0  3  0  0  0  0  0  0
  -24.8770  -27.6690   19.6390 C   0  0  0  0  0  3  0  0  0  0  0  0
  -23.5870  -29.7920   20.2720 C   0  0  0  0  0  2  0  0  0  0  0  0
  -24.6390  -31.0970   22.1800 N   0  0  0  0  0  0  0  0  0  0  0  0
  -23.5050  -32.1730   23.8160 O   0  0  0  0  0  0  0  0  0  0  0  0
  -22.7370  -29.4670   22.6140 C   0  0  0  0  0  0  0  0  0  0  0  0
  -21.4150  -29.2720   22.4780 N   0  0  0  0  0  0  0  0  0  0  0  0
  -23.4210  -28.8540   23.4370 O   0  0  0  0  0  0  0  0  0  0  0  0
  -20.9250  -29.8210   21.7860 H   0  0  0  0  0  0  0  0  0  0  0  0
  -18.0490  -28.0460   22.9470 C   0  0  0  0  0  0  0  0  0  0  0  0
  -20.5990  -28.3350   23.2520 C   0  0  0  0  0  3  0  0  0  0  0  0
  -20.7250  -26.8980   22.6970 C   0  0  0  0  0  2  0  0  0  0  0  0
  -19.6420  -26.5480   21.6710 C   0  0  0  0  0  2  0  0  0  0  0  0
  -18.2480  -26.6900   22.2880 C   0  0  0  0  0  2  0  0  0  0  0  0
  -19.1550  -28.8260   23.3820 C   0  0  0  0  0  0  0  0  0  0  0  0
  -18.9160  -30.0970   23.9500 C   0  0  0  0  0  3  0  0  0  0  0  0
  -17.6040  -30.5850   24.0950 C   0  0  0  0  0  3  0  0  0  0  0  0
  -16.5120  -29.8030   23.6790 C   0  0  0  0  0  3  0  0  0  0  0  0
  -16.7370  -28.5340   23.1120 C   0  0  0  0  0  3  0  0  0  0  0  0
  -25.8720  -32.5410   23.8900 C   0  0  0  0  0  3  0  0  0  0  0  0
  -25.5660  -33.9430   24.2010 N   0  0  0  0  0  0  0  0  0  0  0  0
  -25.9090  -34.9840   23.4310 C   0  0  0  0  0  0  0  0  0  0  0  0
  -26.5890  -34.8640   22.4080 O   0  0  0  0  0  0  0  0  0  0  0  0
  -24.9630  -34.1100   24.9940 H   0  0  0  0  0  0  0  0  0  0  0  0
  -24.1930  -36.7760   23.0310 C   0  0  0  0  0  1  0  0  0  0  0  0
  -25.4210  -36.3780   23.8650 C   0  0  0  0  0  3  0  0  0  0  0  0
  -27.5490  -37.2600   24.7170 C   0  0  0  0  0  1  0  0  0  0  0  0
  -26.4600  -37.4260   23.7560 N   0  0  0  0  0  0  0  0  0  0  0  0
  -26.0560  -38.3480   23.8950 H   0  0  0  0  0  0  0  0  0  0  0  0
  -26.3910  -31.7830   25.1720 C   0  0  1  0  0  0  0  0  0  0  0  0
  -25.2970  -31.5500   26.2390 C   0  0  0  0  0  1  0  0  0  0  0  0
  -26.9760  -30.4030   24.7900 C   0  0  0  0  0  1  0  0  0  0  0  0
  -27.5390  -32.5840   25.8260 C   0  0  0  0  0  1  0  0  0  0  0  0
  -32.7770  -22.1380   17.0330 N   0  0  0  0  0  0  0  0  0  0  0  0
  -31.8090  -22.0650   16.7190 H   0  0  0  0  0  0  0  0  0  0  0  0
  -33.0180  -21.2570   18.1770 C   0  0  0  0  0  2  0  0  0  0  0  0
  -31.8110  -20.3950   18.5300 C   0  0  0  0  0  0  0  0  0  0  0  0
  -30.7840  -20.4100   17.8350 O   0  0  0  0  0  0  0  0  0  0  0  0
  -31.9390  -19.5220   19.7730 C   0  0  0  0  0  2  0  0  0  0  0  0
  -30.6770  -18.7820   19.9230 N   0  0  0  0  0  4  0  0  0  0  0  0
  -30.4630  -18.4580   18.9900 H   0  0  0  0  0  0  0  0  0  0  0  0
  -29.9400  -19.4150   20.1920 H   0  0  0  0  0  0  0  0  0  0  0  0
  -30.7540  -17.6420   20.8410 C   0  0  0  0  0  2  0  0  0  0  0  0
  -29.5810  -16.6990   20.5650 C   0  0  0  0  0  2  0  0  0  0  0  0
  -30.5680  -14.4630   20.6110 C   0  0  0  0  0  0  0  0  0  0  0  0
  -30.3540  -12.3950   19.3290 C   0  0  0  0  0  2  0  0  0  0  0  0
  -29.3960  -12.7090   18.1580 C   0  0  0  0  0  2  0  0  0  0  0  0
  -27.9160  -12.5680   18.5740 C   0  0  0  0  0  2  0  0  0  0  0  0
  -27.5900  -13.2910   19.9080 C   0  0  0  0  0  3  0  0  0  0  0  0
  -28.6450  -12.8990   20.9770 C   0  0  0  0  0  2  0  0  0  0  0  0
  -29.9750  -13.2580   20.4560 N   0  0  0  0  0  0  0  0  0  0  0  0
  -31.6410  -14.7740   20.0800 O   0  0  0  0  0  0  0  0  0  0  0  0
  -29.7520  -15.3780   21.1560 N   0  0  0  0  0  0  0  0  0  0  0  0
  -28.9470  -14.9980   21.6360 H   0  0  0  0  0  0  0  0  0  0  0  0
  -25.1690  -13.8930   20.5690 C   0  0  0  0  0  0  0  0  0  0  0  0
  -24.1040  -13.1060   20.9270 C   0  0  0  0  0  0  0  0  0  0  0  0
  -24.5790  -11.7620   20.9030 C   0  0  0  0  0  0  0  0  0  0  0  0
  -26.2270  -13.0150   20.3580 N   0  0  0  0  0  0  0  0  0  0  0  0
  -25.8710  -11.7310   20.6110 N   0  0  0  0  0  0  0  0  0  0  0  0
  -23.8620  -10.4910   21.0840 C   0  0  0  0  0  0  0  0  0  0  0  0
  -24.3080   -9.5170   22.0060 C   0  0  0  0  0  3  0  0  0  0  0  0
  -23.5920   -8.3110   22.1760 C   0  0  0  0  0  3  0  0  0  0  0  0
  -22.4180   -8.0700   21.4250 C   0  0  0  0  0  0  0  0  0  0  0  0
  -21.9950   -9.0300   20.4900 C   0  0  0  0  0  3  0  0  0  0  0  0
  -22.7080  -10.2280   20.3150 C   0  0  0  0  0  3  0  0  0  0  0  0
  -21.6730   -6.9200   21.5060 O   0  0  0  0  0  0  0  0  0  0  0  0
  -21.6520   -6.1550   22.6470 C   0  0  0  0  0  0  0  0  0  0  0  0
  -21.2500   -6.6860   23.8920 C   0  0  0  0  0  3  0  0  0  0  0  0
  -21.1770   -5.8440   25.0200 C   0  0  0  0  0  3  0  0  0  0  0  0
  -21.4980   -4.4790   24.9070 C   0  0  0  0  0  0  0  0  0  0  0  0
  -21.8930   -3.9500   23.6650 C   0  0  0  0  0  3  0  0  0  0  0  0
  -21.9690   -4.7860   22.5370 C   0  0  0  0  0  0  0  0  0  0  0  0
  -22.3280   -4.2670   21.3380 F   0  0  0  0  0  0  0  0  0  0  0  0
  -21.4170   -3.6700   25.9890 F   0  0  0  0  0  0  0  0  0  0  0  0
  -22.7010  -13.5720   21.1830 C   0  0  0  0  0  0  0  0  0  0  0  0
  -21.9710  -12.8660   22.0410 N   0  0  0  0  0  0  0  0  0  0  0  0
  -22.2560  -14.5930   20.6590 O   0  0  0  0  0  0  0  0  0  0  0  0
  -22.3340  -12.0340   22.4810 H   0  0  0  0  0  0  0  0  0  0  0  0
  -21.0320  -13.1660   22.2680 H   0  0  0  0  0  0  0  0  0  0  0  0
  -25.3170  -15.2650   20.3910 N   0  0  0  0  0  0  0  0  0  0  0  0
  -24.5310  -15.8960   20.4980 H   0  0  0  0  0  0  0  0  0  0  0  0
  -26.1520  -15.7300   20.0630 H   0  0  0  0  0  0  0  0  0  0  0  0
  2  1  1  0
  3  1  2  0
  4  6  2  0
  4  5  1  0
  5  2  2  0
  6  3  1  0
  8  7  1  0
  8  5  1  0
  8  9  1  0
  9 10  1  0
  9 12  1  0
 11  9  1  0
 12 13  1  0
 13 14  1  0
 14 16  1  0
 15 26  2  0
 16 21  1  0
 17 25  1  0
 17 27  1  0
 18 24  1  0
 18 20  1  0
 19 25  1  0
 20 19  1  0
 21 20  2  0
 22 23  1  0
 22 16  2  0
 23 18  2  0
 24 17  1  0
 25 15  1  0
 27 29  2  0
 28 27  1  0
 30 28  1  0
 31 40  2  0
 31 36  1  0
 32 28  1  0
 32 36  1  0
 33 32  1  0
 34 35  1  0
 34 33  1  0
 35 31  1  0
 36 37  2  0
 37 38  1  0
 39 38  2  0
 40 39  1  0
 41 15  1  0
 41 42  1  0
 41 51  1  0
 42 45  1  0
 43 47  1  0
 43 42  1  0
 44 43  2  0
 47 46  1  0
 49 47  1  0
 49 50  1  0
 49 48  1  0
 51 54  1  1
 51 52  1  0
 53 51  1  0
 55  6  1  0
 55 57  1  0
 56 55  1  0
 57 58  1  0
 58 60  1  0
 59 58  2  0
 60 61  1  0
 61 63  1  0
 61 64  1  0
 62 61  1  0
 65 64  1  0
 65 74  1  0
 66 74  1  0
 67 72  1  0
 68 69  1  0
 68 67  1  0
 70 69  1  0
 70 79  1  0
 70 71  1  0
 72 66  1  0
 72 71  1  0
 73 66  2  0
 74 75  1  0
 76 77  2  0
 77 96  1  0
 78 77  1  0
 78 81  1  0
 79 76  1  0
 79 80  1  0
 80 78  2  0
 81 82  1  0
 82 83  2  0
 84 87  1  0
 84 83  1  0
 85 84  2  0
 86 85  1  0
 86 81  2  0
 87 88  1  0
 88 89  1  0
 89 90  2  0
 91 90  1  0
 91 95  1  0
 92 91  2  0
 93 88  2  0
 93 92  1  0
 94 93  1  0
 96 97  1  0
 97100  1  0
 97 99  1  0
 98 96  2  0
101102  1  0
101 76  1  0
103101  1  0
M  ISO  4  13 101  14 101  66 100  74 100
M  END
>  <TORSDO>  (4) 
F 27

>  <SCORE>  (4) 
-11.543

>  <name>  (4) 
4

>  <ligand_id>  (4) 
4

>  <original_smiles>  (4) 
[H]c1c([H])c([H])c2c(c1[H])C([H])([H])C([H])([H])C([H])([H])C2([H])N([H])C(=O)C1([H])N(C(=O)C([H])(N([H])C(=O)C([H])(N([H])C([H])([H])[H])C([H])([H])[H])C(C([H])([H])[H])(C([H])([H])[H])C([H])([H])[H])C([H])([H])c2c([H])c(OC([H])([H])C([H])([H])[N+]([H])([H])C([H])(c3c([H])c([H])c([H])c(N([H])C([H])([H])C(=O)C([H])([H])[N+]([H])([H])C([H])([H])C([H])([H])N([H])C(=O)N4C([H])([H])C([H])([H])C([H])([H])C([H])(n5nc(-c6c([H])c([H])c(Oc7c([H])c([H])c(F)c([H])c7F)c([H])c6[H])c(C(=O)N([H])[H])c5N([H])[H])C4([H])[H])c3[H])C([H])([H])[H])c([H])c([H])c2C1([H])[H]

>  <smiles>  (4) 
[H]c1c([H])c([H])c2c(c1[H])C([H])([H])C([H])([H])C([H])([H])C2([H])N([H])C(=O)C1([H])N(C(=O)C([H])(N([H])C(=O)C([H])(N([H])C([H])([H])[H])C([H])([H])[H])C(C([H])([H])[H])(C([H])([H])[H])C([H])([H])[H])C([H])([H])c2c([H])c(OC([H])([H])C([H])([H])[N+]([H])([H])C([H])(c3c([H])c([H])c([H])c(N([H])C([H])([H])C(=O)C([H])([H])[N+]([H])([H])C([H])([H])C([H])([H])N([H])C(=O)N4C([H])([H])C([H])([H])C([H])([H])C([H])(n5nc(-c6c([H])c([H])c(Oc7c([H])c([H])c(F)c([H])c7F)c([H])c6[H])c(C(=O)N([H])[H])c5N([H])[H])C4([H])[H])c3[H])C([H])([H])[H])c([H])c([H])c2C1([H])[H]

$$$$
5:0:0
     RDKit          3D

 95103  0  0  1  0  0  0  0  0999 V2000
  -31.1240  -23.4460   22.0200 C   0  0  0  0  0  3  0  0  0  0  0  0
  -31.9290  -22.9690   19.7740 C   0  0  0  0  0  3  0  0  0  0  0  0
  -30.9350  -22.0710   22.2410 C   0  0  0  0  0  3  0  0  0  0  0  0
  -31.7320  -21.5910   19.9880 C   0  0  0  0  0  3  0  0  0  0  0  0
  -31.5720  -23.9030   20.7680 C   0  0  0  0  0  0  0  0  0  0  0  0
  -31.1930  -21.1360   21.2150 C   0  0  0  0  0  0  0  0  0  0  0  0
  -30.8930  -19.7030   21.4680 C   0  0  0  0  0  0  0  0  0  0  0  0
  -30.6740  -19.2680   22.6030 O   0  0  0  0  0  0  0  0  0  0  0  0
  -30.8340  -18.7640   20.2550 C   0  0  0  0  0  2  0  0  0  0  0  0
  -30.0100  -17.4830   20.4710 C   0  0  0  0  0  2  0  0  0  0  0  0
  -30.6560  -16.4890   21.4570 C   0  0  0  0  0  2  0  0  0  0  0  0
  -30.7120  -14.3320   20.2660 C   0  0  0  0  0  0  0  0  0  0  0  0
  -30.3140  -12.3040   18.9370 C   0  0  0  0  0  2  0  0  0  0  0  0
  -29.3180  -12.6100   17.8010 C   0  0  0  0  0  2  0  0  0  0  0  0
  -27.8620  -12.4820   18.2910 C   0  0  0  0  0  2  0  0  0  0  0  0
  -27.6050  -13.2400   19.6190 C   0  0  0  0  0  3  0  0  0  0  0  0
  -28.6940  -12.8820   20.6540 C   0  0  0  0  0  2  0  0  0  0  0  0
  -30.0070  -13.1950   20.0610 N   0  0  0  0  0  0  0  0  0  0  0  0
  -31.7240  -14.6380   19.6290 O   0  0  0  0  0  0  0  0  0  0  0  0
  -30.1960  -15.1380   21.1950 N   0  0  0  0  0  0  0  0  0  0  0  0
  -29.3830  -14.8080   21.6950 H   0  0  0  0  0  0  0  0  0  0  0  0
  -25.2230  -13.8500   20.3920 C   0  0  0  0  0  0  0  0  0  0  0  0
  -24.1690  -13.0770   20.7980 C   0  0  0  0  0  0  0  0  0  0  0  0
  -24.6320  -11.7260   20.7590 C   0  0  0  0  0  0  0  0  0  0  0  0
  -26.2640  -12.9700   20.1350 N   0  0  0  0  0  0  0  0  0  0  0  0
  -25.9110  -11.6880   20.4070 N   0  0  0  0  0  0  0  0  0  0  0  0
  -23.9150  -10.4620   20.9760 C   0  0  0  0  0  0  0  0  0  0  0  0
  -24.3720   -9.5060   21.9090 C   0  0  0  0  0  3  0  0  0  0  0  0
  -23.6560   -8.3070   22.1150 C   0  0  0  0  0  3  0  0  0  0  0  0
  -22.4710   -8.0550   21.3850 C   0  0  0  0  0  0  0  0  0  0  0  0
  -22.0330   -9.0010   20.4410 C   0  0  0  0  0  3  0  0  0  0  0  0
  -22.7500  -10.1900   20.2330 C   0  0  0  0  0  3  0  0  0  0  0  0
  -21.7270   -6.9040   21.4990 O   0  0  0  0  0  0  0  0  0  0  0  0
  -21.6960   -6.1790   22.6630 C   0  0  0  0  0  0  0  0  0  0  0  0
  -21.2630   -6.7440   23.8820 C   0  0  0  0  0  3  0  0  0  0  0  0
  -21.1810   -5.9440   25.0400 C   0  0  0  0  0  3  0  0  0  0  0  0
  -21.5210   -4.5800   24.9780 C   0  0  0  0  0  0  0  0  0  0  0  0
  -21.9500   -4.0150   23.7650 C   0  0  0  0  0  3  0  0  0  0  0  0
  -22.0340   -4.8120   22.6100 C   0  0  0  0  0  0  0  0  0  0  0  0
  -22.4260   -4.2550   21.4370 F   0  0  0  0  0  0  0  0  0  0  0  0
  -21.4370   -3.8080   26.0880 F   0  0  0  0  0  0  0  0  0  0  0  0
  -22.7780  -13.5510   21.1170 C   0  0  0  0  0  0  0  0  0  0  0  0
  -22.0790  -12.8540   22.0050 N   0  0  0  0  0  0  0  0  0  0  0  0
  -22.3220  -14.5780   20.6130 O   0  0  0  0  0  0  0  0  0  0  0  0
  -22.4610  -12.0260   22.4400 H   0  0  0  0  0  0  0  0  0  0  0  0
  -21.1490  -13.1540   22.2610 H   0  0  0  0  0  0  0  0  0  0  0  0
  -25.3790  -15.2190   20.2040 N   0  0  0  0  0  0  0  0  0  0  0  0
  -24.6190  -15.8780   20.3330 H   0  0  0  0  0  0  0  0  0  0  0  0
  -26.2240  -15.6540   19.8580 H   0  0  0  0  0  0  0  0  0  0  0  0
  -31.6390  -25.3490   20.5260 C   0  0  0  0  0  3  0  0  0  0  0  0
  -30.8610  -26.0500   19.6730 C   0  0  0  0  0  3  0  0  0  0  0  0
  -29.8060  -25.4500   18.8270 C   0  0  0  0  0  0  0  0  0  0  0  0
  -30.0030  -24.4760   18.0950 O   0  0  0  0  0  0  0  0  0  0  0  0
  -28.4240  -26.1050   18.7940 C   0  0  0  0  0  2  0  0  0  0  0  0
  -28.1390  -26.7430   20.0360 O   0  0  0  0  0  0  0  0  0  0  0  0
  -24.4700  -31.9060   23.2520 C   0  0  0  0  0  0  0  0  0  0  0  0
  -26.9580  -27.4450   20.0860 C   0  0  0  0  0  0  0  0  0  0  0  0
  -23.1990  -30.5340   21.6280 C   0  0  0  0  0  3  0  0  0  0  0  0
  -24.5890  -28.9740   20.1720 C   0  0  0  0  0  0  0  0  0  0  0  0
  -25.7210  -30.8480   21.3780 C   0  0  0  0  0  2  0  0  0  0  0  0
  -25.7640  -29.4750   20.7420 C   0  0  0  0  0  0  0  0  0  0  0  0
  -26.9470  -28.7070   20.7160 C   0  0  0  0  0  3  0  0  0  0  0  0
  -25.7570  -26.9410   19.5360 C   0  0  0  0  0  3  0  0  0  0  0  0
  -24.5740  -27.7020   19.5760 C   0  0  0  0  0  3  0  0  0  0  0  0
  -23.3690  -29.8610   20.2390 C   0  0  0  0  0  2  0  0  0  0  0  0
  -24.4820  -31.1110   22.1450 N   0  0  0  0  0  0  0  0  0  0  0  0
  -23.4100  -32.1990   23.8180 O   0  0  0  0  0  0  0  0  0  0  0  0
  -22.5450  -29.5200   22.5960 C   0  0  0  0  0  0  0  0  0  0  0  0
  -21.2190  -29.3470   22.4750 N   0  0  0  0  0  0  0  0  0  0  0  0
  -23.2260  -28.8910   23.4100 O   0  0  0  0  0  0  0  0  0  0  0  0
  -20.7280  -29.9080   21.7910 H   0  0  0  0  0  0  0  0  0  0  0  0
  -17.8420  -28.1670   22.9730 C   0  0  0  0  0  0  0  0  0  0  0  0
  -20.3980  -28.4240   23.2580 C   0  0  0  0  0  3  0  0  0  0  0  0
  -20.5030  -26.9830   22.7050 C   0  0  0  0  0  2  0  0  0  0  0  0
  -19.4060  -26.6480   21.6890 C   0  0  0  0  0  2  0  0  0  0  0  0
  -18.0200  -26.8070   22.3220 C   0  0  0  0  0  2  0  0  0  0  0  0
  -18.9600  -28.9330   23.3990 C   0  0  0  0  0  0  0  0  0  0  0  0
  -18.7430  -30.2070   23.9670 C   0  0  0  0  0  3  0  0  0  0  0  0
  -17.4380  -30.7150   24.1140 C   0  0  0  0  0  3  0  0  0  0  0  0
  -16.3340  -29.9460   23.7060 C   0  0  0  0  0  3  0  0  0  0  0  0
  -16.5360  -28.6740   23.1410 C   0  0  0  0  0  3  0  0  0  0  0  0
  -25.7840  -32.5040   23.8450 C   0  0  0  0  0  3  0  0  0  0  0  0
  -25.5220  -33.9110   24.1730 N   0  0  0  0  0  0  0  0  0  0  0  0
  -25.8870  -34.9480   23.4070 C   0  0  0  0  0  0  0  0  0  0  0  0
  -26.5520  -34.8200   22.3760 O   0  0  0  0  0  0  0  0  0  0  0  0
  -24.9320  -34.0880   24.9730 H   0  0  0  0  0  0  0  0  0  0  0  0
  -24.2320  -36.8020   23.0280 C   0  0  0  0  0  1  0  0  0  0  0  0
  -25.4440  -36.3510   23.8610 C   0  0  0  0  0  3  0  0  0  0  0  0
  -27.5920  -37.1560   24.7300 C   0  0  0  0  0  1  0  0  0  0  0  0
  -26.5130  -37.3670   23.7690 N   0  0  0  0  0  0  0  0  0  0  0  0
  -26.1380  -38.3000   23.9180 H   0  0  0  0  0  0  0  0  0  0  0  0
  -26.3100  -31.7190   25.1090 C   0  0  1  0  0  0  0  0  0  0  0  0
  -25.2350  -31.5050   26.1990 C   0  0  0  0  0  1  0  0  0  0  0  0
  -26.8550  -30.3290   24.7010 C   0  0  0  0  0  1  0  0  0  0  0  0
  -27.4900  -32.4880   25.7510 C   0  0  0  0  0  1  0  0  0  0  0  0
  1  3  1  0
  2  4  2  0
  2  5  1  0
  4  6  1  0
  5  1  2  0
  6  7  1  0
  6  3  2  0
  7  8  2  0
  9 10  1  0
  9  7  1  0
 10 11  1  0
 12 20  1  0
 13 18  1  0
 14 15  1  0
 14 13  1  0
 16 15  1  0
 16 25  1  0
 16 17  1  0
 18 12  1  0
 18 17  1  0
 19 12  2  0
 20 11  1  0
 20 21  1  0
 22 23  2  0
 23 42  1  0
 24 23  1  0
 24 27  1  0
 25 22  1  0
 25 26  1  0
 26 24  2  0
 27 28  1  0
 28 29  2  0
 30 33  1  0
 30 29  1  0
 31 30  2  0
 32 31  1  0
 32 27  2  0
 33 34  1  0
 34 35  1  0
 35 36  2  0
 37 36  1  0
 37 41  1  0
 38 37  2  0
 39 34  2  0
 39 38  1  0
 40 39  1  0
 42 43  1  0
 43 46  1  0
 43 45  1  0
 44 42  2  0
 47 48  1  0
 47 22  1  0
 49 47  1  0
 50  5  1  0
 51 50  2  0
 52 51  1  0
 53 52  2  0
 54 52  1  0
 54 55  1  0
 55 57  1  0
 56 67  2  0
 57 62  1  0
 58 66  1  0
 58 68  1  0
 59 65  1  0
 59 61  1  0
 60 66  1  0
 61 60  1  0
 62 61  2  0
 63 64  1  0
 63 57  2  0
 64 59  2  0
 65 58  1  0
 66 56  1  0
 68 70  2  0
 69 68  1  0
 71 69  1  0
 72 81  2  0
 72 77  1  0
 73 69  1  0
 73 77  1  0
 74 73  1  0
 75 76  1  0
 75 74  1  0
 76 72  1  0
 77 78  2  0
 78 79  1  0
 80 79  2  0
 81 80  1  0
 82 56  1  0
 82 83  1  0
 82 92  1  0
 83 86  1  0
 84 88  1  0
 84 83  1  0
 85 84  2  0
 88 87  1  0
 90 88  1  0
 90 91  1  0
 90 89  1  0
 92 95  1  1
 92 93  1  0
 94 92  1  0
M  ISO  4  12 100  20 100  54 101  55 101
M  END
>  <TORSDO>  (5) 
F 23

>  <SCORE>  (5) 
-12.161

>  <name>  (5) 
5

>  <ligand_id>  (5) 
5

>  <original_smiles>  (5) 
[H]C(C(=O)C([H])([H])Oc1c([H])c([H])c2c(c1[H])C([H])([H])N(C(=O)C([H])(N([H])C(=O)C([H])(N([H])C([H])([H])[H])C([H])([H])[H])C(C([H])([H])[H])(C([H])([H])[H])C([H])([H])[H])C([H])(C(=O)N([H])C1([H])c3c([H])c([H])c([H])c([H])c3C([H])([H])C([H])([H])C1([H])[H])C2([H])[H])=C([H])c1c([H])c([H])c(C(=O)C([H])([H])C([H])([H])C([H])([H])N([H])C(=O)N2C([H])([H])C([H])([H])C([H])([H])C([H])(n3nc(-c4c([H])c([H])c(Oc5c([H])c([H])c(F)c([H])c5F)c([H])c4[H])c(C(=O)N([H])[H])c3N([H])[H])C2([H])[H])c([H])c1[H]

>  <smiles>  (5) 
[H]C(C(=O)C([H])([H])Oc1c([H])c([H])c2c(c1[H])C([H])([H])N(C(=O)C([H])(N([H])C(=O)C([H])(N([H])C([H])([H])[H])C([H])([H])[H])C(C([H])([H])[H])(C([H])([H])[H])C([H])([H])[H])C([H])(C(=O)N([H])C1([H])c3c([H])c([H])c([H])c([H])c3C([H])([H])C([H])([H])C1([H])[H])C2([H])[H])=C([H])c1c([H])c([H])c(C(=O)C([H])([H])C([H])([H])C([H])([H])N([H])C(=O)N2C([H])([H])C([H])([H])C([H])([H])C([H])(n3nc(-c4c([H])c([H])c(Oc5c([H])c([H])c(F)c([H])c5F)c([H])c4[H])c(C(=O)N([H])[H])c3N([H])[H])C2([H])[H])c([H])c1[H]

$$$$
6:0:0
     RDKit          3D

101105  0  0  1  0  0  0  0  0999 V2000
  -19.8080  -27.5600   21.7330 C   0  0  0  0  0  2  0  0  0  0  0  0
  -20.4880  -25.7180   22.7870 C   0  0  0  0  0  1  0  0  0  0  0  0
  -20.5800  -28.9570   22.0850 C   0  0  0  0  0  3  0  0  0  0  0  0
  -22.3840  -27.4730   23.9970 C   0  0  0  0  0  2  0  0  0  0  0  0
  -21.9180  -25.7480   23.6580 C   0  0  0  0  0  3  0  0  0  0  0  0
  -21.8270  -29.0180   23.1450 C   0  0  0  0  0  0  0  0  0  0  0  0
  -23.1360  -24.3250   23.0820 C   0  0  0  0  0  2  0  0  0  0  0  0
  -23.4270  -23.6550   24.0750 O   0  0  0  0  0  1  0  0  0  0  0  0
  -24.1760  -23.4710   21.4610 C   0  0  0  0  0  2  0  0  0  0  0  0
  -25.5730  -22.7190   21.1310 N   0  0  0  0  0  0  0  0  0  0  0  0
  -23.4690  -23.5020   20.4500 O   0  0  0  0  0  1  0  0  0  0  0  0
  -26.1260  -22.8350   21.9730 H   0  0  0  0  0  0  0  0  0  0  0  0
  -26.5000  -21.5130   20.0200 C   0  0  0  0  0  1  0  0  0  0  0  0
  -28.2550  -20.9570   19.0840 C   0  0  0  0  0 15  0  0  0  0  0  0
  -29.1640  -19.6350   17.7810 C   0  0  0  0  0  1  0  0  0  0  0  0
  -31.1080  -18.4420   15.2360 C   0  0  0  0  0  0  0  0  0  0  0  0
  -32.8380  -18.3320   13.0810 C   0  0  0  0  0  2  0  0  0  0  0  0
  -34.1070  -19.2560   13.0900 C   0  0  0  0  0  2  0  0  0  0  0  0
  -33.7350  -20.7330   12.8660 C   0  0  0  0  0  2  0  0  0  0  0  0
  -32.4230  -21.0430   13.6130 C   0  0  0  0  0  3  0  0  0  0  0  0
  -31.2940  -20.0770   13.2770 C   0  0  0  0  0  2  0  0  0  0  0  0
  -31.6920  -18.8870   13.9720 N   0  0  0  0  0  0  0  0  0  0  0  0
  -31.4080  -17.2110   15.2610 O   0  0  0  0  0  0  0  0  0  0  0  0
  -30.3640  -19.3570   16.3610 N   0  0  0  0  0  0  0  0  0  0  0  0
  -30.5240  -20.2920   16.0060 H   0  0  0  0  0  0  0  0  0  0  0  0
  -32.3670  -23.4920   14.1360 C   0  0  0  0  0  0  0  0  0  0  0  0
  -31.6070  -24.5100   13.6480 C   0  0  0  0  0  0  0  0  0  0  0  0
  -30.7090  -23.9200   12.7030 C   0  0  0  0  0  0  0  0  0  0  0  0
  -31.9330  -22.3730   13.4580 N   0  0  0  0  0  0  0  0  0  0  0  0
  -30.8740  -22.6080   12.6550 N   0  0  0  0  0  0  0  0  0  0  0  0
  -29.7530  -24.5340   11.7860 C   0  0  0  0  0  0  0  0  0  0  0  0
  -28.3620  -24.3450   11.9300 C   0  0  0  0  0  3  0  0  0  0  0  0
  -27.4650  -24.9650   11.0360 C   0  0  0  0  0  3  0  0  0  0  0  0
  -27.9590  -25.7840    9.9910 C   0  0  0  0  0  0  0  0  0  0  0  0
  -29.3460  -25.9450    9.8390 C   0  0  0  0  0  3  0  0  0  0  0  0
  -30.2380  -25.3220   10.7250 C   0  0  0  0  0  3  0  0  0  0  0  0
  -27.1650  -26.4100    9.0630 O   0  0  0  0  0  0  0  0  0  0  0  0
  -26.0370  -27.0970    9.4310 C   0  0  0  0  0  0  0  0  0  0  0  0
  -26.0990  -28.2670   10.2180 C   0  0  0  0  0  3  0  0  0  0  0  0
  -24.9220  -28.9800   10.5120 C   0  0  0  0  0  3  0  0  0  0  0  0
  -23.6830  -28.5310   10.0140 C   0  0  0  0  0  0  0  0  0  0  0  0
  -23.6200  -27.3680    9.2260 C   0  0  0  0  0  3  0  0  0  0  0  0
  -24.7960  -26.6540    8.9330 C   0  0  0  0  0  0  0  0  0  0  0  0
  -24.7340  -25.5470    8.1560 F   0  0  0  0  0  0  0  0  0  0  0  0
  -22.5510  -29.2210   10.2890 F   0  0  0  0  0  0  0  0  0  0  0  0
  -31.7850  -25.9630   13.9580 C   0  0  0  0  0  0  0  0  0  0  0  0
  -30.7090  -26.7360   13.8940 N   0  0  0  0  0  0  0  0  0  0  0  0
  -32.8790  -26.4070   14.3060 O   0  0  0  0  0  0  0  0  0  0  0  0
  -29.8100  -26.3600   13.6290 H   0  0  0  0  0  0  0  0  0  0  0  0
  -30.7830  -27.7180   14.1150 H   0  0  0  0  0  0  0  0  0  0  0  0
  -33.4050  -23.4200   15.0640 N   0  0  0  0  0  0  0  0  0  0  0  0
  -33.7970  -24.2930   15.4020 H   0  0  0  0  0  0  0  0  0  0  0  0
  -34.1070  -22.6950   14.9850 H   0  0  0  0  0  0  0  0  0  0  0  0
  -22.3760  -30.6960   22.9200 C   0  0  0  0  0  2  0  0  0  0  0  0
  -23.2910  -31.8440   21.6950 C   0  0  0  0  0  2  0  0  0  0  0  0
  -23.7070  -31.8990   20.0340 N   0  0  0  0  0  4  0  0  0  0  0  0
  -24.0330  -32.8560   20.0040 H   0  0  0  0  0  0  0  0  0  0  0  0
  -22.8380  -31.9620   19.5260 H   0  0  0  0  0  0  0  0  0  0  0  0
  -24.8590  -31.2120   18.9580 C   0  0  0  0  0  2  0  0  0  0  0  0
  -24.8480  -30.3230   17.2890 C   0  0  0  0  0  2  0  0  0  0  0  0
  -25.6600  -29.1680   16.3030 O   0  0  0  0  0  0  0  0  0  0  0  0
  -25.1870  -27.7250   21.7610 C   0  0  0  0  0  0  0  0  0  0  0  0
  -25.3890  -27.8390   15.9310 C   0  0  0  0  0  3  0  0  0  0  0  0
  -23.2740  -27.9860   20.0140 C   0  0  0  0  0  3  0  0  0  0  0  0
  -23.6170  -27.9630   17.7240 C   0  0  0  0  0  0  0  0  0  0  0  0
  -25.6210  -27.9860   19.3960 C   0  0  0  0  0  2  0  0  0  0  0  0
  -24.9670  -27.6370   18.0850 C   0  0  0  0  0  0  0  0  0  0  0  0
  -25.8110  -27.2240   17.0780 C   0  0  0  0  0  2  0  0  0  0  0  0
  -24.0680  -27.5760   15.4930 C   0  0  0  0  0  2  0  0  0  0  0  0
  -23.0890  -27.7570   16.4570 C   0  0  0  0  0  2  0  0  0  0  0  0
  -22.8280  -28.6710   18.6670 C   0  0  0  0  0  2  0  0  0  0  0  0
  -24.7030  -28.0160   20.5030 N   0  0  0  0  0  0  0  0  0  0  0  0
  -24.4750  -27.4760   22.7300 O   0  0  0  0  0  0  0  0  0  0  0  0
  -22.8550  -26.6210   19.8860 C   0  0  0  0  0  0  0  0  0  0  0  0
  -21.7260  -26.7610   19.2530 N   0  0  0  0  0  0  0  0  0  0  0  0
  -23.4140  -25.6190   20.3050 O   0  0  0  0  0  0  0  0  0  0  0  0
  -21.5360  -27.6940   18.9270 H   0  0  0  0  0  0  0  0  0  0  0  0
  -17.0520  -25.6510   20.7080 C   0  0  0  0  0  0  0  0  0  0  0  0
  -20.6650  -26.0400   19.2920 C   0  0  0  0  0  2  0  0  0  0  0  0
  -19.9100  -25.6230   17.6560 C   0  0  0  0  0  2  0  0  0  0  0  0
  -18.0550  -25.2870   17.5060 C   0  0  0  0  0  3  0  0  0  0  0  0
  -16.7680  -25.2160   18.9470 C   0  0  0  0  0  3  0  0  0  0  0  0
  -18.5320  -25.9170   21.3710 C   0  0  0  0  0  3  0  0  0  0  0  0
  -18.4100  -26.5880   22.6530 C   0  0  0  0  0  0  0  0  0  0  0  0
  -17.2460  -27.2530   23.0750 C   0  0  0  0  0  3  0  0  0  0  0  0
  -16.0440  -27.1490   22.3690 C   0  0  0  0  0  3  0  0  0  0  0  0
  -15.9470  -26.3340   21.2390 C   0  0  0  0  0  3  0  0  0  0  0  0
  -26.7070  -27.6960   22.0700 C   0  0  0  0  0  3  0  0  0  0  0  0
  -27.1920  -26.2440   22.4720 C   0  0  1  0  0  0  0  0  0  0  0  0
  -26.3580  -25.5920   23.6020 C   0  0  0  0  0  1  0  0  0  0  0  0
  -27.1770  -25.2280   21.3100 C   0  0  0  0  0  1  0  0  0  0  0  0
  -28.6650  -26.3160   22.9240 C   0  0  0  0  0  1  0  0  0  0  0  0
  -26.9660  -28.6330   23.1870 N   0  0  0  0  0  0  0  0  0  0  0  0
  -27.5690  -29.8270   23.0900 C   0  0  0  0  0  0  0  0  0  0  0  0
  -28.0010  -30.2650   22.0210 O   0  0  0  0  0  0  0  0  0  0  0  0
  -26.5910  -28.3630   24.0850 H   0  0  0  0  0  0  0  0  0  0  0  0
  -26.6650  -31.7800   24.4060 C   0  0  0  0  0  1  0  0  0  0  0  0
  -27.7240  -30.6660   24.3780 C   0  0  0  0  0  3  0  0  0  0  0  0
  -30.1120  -30.2720   24.8070 C   0  0  0  0  0  1  0  0  0  0  0  0
  -29.0700  -31.2600   24.5410 N   0  0  0  0  0  0  0  0  0  0  0  0
  -29.0760  -31.9370   25.2990 H   0  0  0  0  0  0  0  0  0  0  0  0
  1  3  1  0
  1 84  1  0
  3  6  2  0
  5  2  1  0
  5  4  1  0
  6  4  1  0
  7  5  1  0
  7  8  1  0
 10  9  1  0
 10 12  1  0
 11  9  1  0
 13 10  1  0
 16 23  2  0
 16 24  1  0
 17 18  1  0
 17 22  1  0
 19 18  1  0
 20 19  1  0
 21 20  1  0
 21 22  1  0
 22 16  1  0
 24 15  1  0
 25 24  1  0
 26 51  1  0
 27 46  1  0
 27 26  2  0
 28 27  1  0
 29 20  1  0
 29 26  1  0
 30 28  2  0
 30 29  1  0
 31 32  1  0
 31 28  1  0
 33 32  2  0
 34 33  1  0
 35 34  2  0
 35 36  1  0
 36 31  2  0
 37 38  1  0
 37 34  1  0
 38 39  1  0
 39 40  2  0
 41 45  1  0
 41 40  1  0
 42 41  2  0
 43 42  1  0
 43 38  2  0
 44 43  1  0
 46 48  2  0
 47 46  1  0
 47 50  1  0
 49 47  1  0
 51 52  1  0
 53 51  1  0
 54  6  1  0
 55 54  1  0
 56 55  1  0
 57 56  1  0
 58 56  1  0
 59 56  1  0
 60 59  1  0
 61 60  1  0
 62 73  2  0
 63 69  1  0
 63 61  1  0
 63 68  1  0
 64 71  1  0
 64 72  1  0
 65 67  2  0
 65 71  1  0
 66 72  1  0
 67 66  1  0
 68 67  1  0
 69 70  1  0
 70 65  1  0
 72 62  1  0
 74 64  1  0
 74 76  2  0
 75 79  1  0
 75 74  1  0
 77 75  1  0
 78 87  2  0
 78 83  1  0
 80 79  1  0
 81 80  1  0
 81 82  2  0
 82 78  1  0
 83 84  2  0
 84 85  1  0
 86 85  2  0
 87 86  1  0
 88 62  1  0
 88 89  1  0
 88 93  1  0
 89 92  1  1
 89 90  1  0
 91 89  1  0
 93 96  1  0
 94 93  1  0
 94 98  1  0
 95 94  2  0
 98 97  1  0
 98100  1  0
100 99  1  0
100101  1  0
M  ISO  4  16 100  24 100  60 101  61 101
M  END
>  <TORSDO>  (6) 
F 26

>  <SCORE>  (6) 
2.559

>  <name>  (6) 
6

>  <ligand_id>  (6) 
6

>  <original_smiles>  (6) 
[H]c1c([H])c([H])c2c(c1[H])C([H])([H])C([H])([H])C([H])([H])C2([H])N([H])C(=O)C1([H])N(C(=O)C([H])(N([H])C(=O)C([H])(N([H])C([H])([H])[H])C([H])([H])[H])C(C([H])([H])[H])(C([H])([H])[H])C([H])([H])[H])C([H])([H])c2c([H])c(OC([H])([H])C([H])([H])[N+]([H])([H])C([H])([H])C([H])([H])c3c([H])c([H])c([H])c(C(=O)C(=O)N([H])C([H])([H])C([H])([H])C([H])([H])N([H])C(=O)N4C([H])([H])C([H])([H])C([H])([H])C([H])(n5nc(-c6c([H])c([H])c(Oc7c([H])c([H])c(F)c([H])c7F)c([H])c6[H])c(C(=O)N([H])[H])c5N([H])[H])C4([H])[H])c3[H])c([H])c([H])c2C1([H])[H]

>  <smiles>  (6) 
[H]c1c([H])c([H])c2c(c1[H])C([H])([H])C([H])([H])C([H])([H])C2([H])N([H])C(=O)C1([H])N(C(=O)C([H])(N([H])C(=O)C([H])(N([H])C([H])([H])[H])C([H])([H])[H])C(C([H])([H])[H])(C([H])([H])[H])C([H])([H])[H])C([H])([H])c2c([H])c(OC([H])([H])C([H])([H])[N+]([H])([H])C([H])([H])C([H])([H])c3c([H])c([H])c([H])c(C(=O)C(=O)N([H])C([H])([H])C([H])([H])C([H])([H])N([H])C(=O)N4C([H])([H])C([H])([H])C([H])([H])C([H])(n5nc(-c6c([H])c([H])c(Oc7c([H])c([H])c(F)c([H])c7F)c([H])c6[H])c(C(=O)N([H])[H])c5N([H])[H])C4([H])[H])c3[H])c([H])c([H])c2C1([H])[H]

$$$$
7:0:0
     RDKit          3D

100107  0  0  1  0  0  0  0  0999 V2000
  -29.7960  -18.0310   25.6520 C   0  0  0  0  0  2  0  0  0  0  0  0
  -29.3300  -19.4610   25.3170 C   0  0  0  0  0  2  0  0  0  0  0  0
  -30.3990  -20.2960   24.7270 N   0  0  0  0  0  4  0  0  0  0  0  0
  -31.0540  -19.6960   24.2530 H   0  0  0  0  0  0  0  0  0  0  0  0
  -30.8900  -20.7800   25.4610 H   0  0  0  0  0  0  0  0  0  0  0  0
  -29.8820  -21.2760   23.7490 C   0  0  0  0  0  2  0  0  0  0  0  0
  -30.9740  -22.1830   23.1500 C   0  0  0  0  0  2  0  0  0  0  0  0
  -30.4160  -22.9630   21.9480 C   0  0  0  0  0  2  0  0  0  0  0  0
  -31.2130  -24.2130   21.5400 C   0  0  0  0  0  2  0  0  0  0  0  0
  -30.6650  -24.8080   20.2320 C   0  0  0  0  0  2  0  0  0  0  0  0
  -30.4550  -26.2170   20.3700 O   0  0  0  0  0  0  0  0  0  0  0  0
  -25.6900  -30.6290   23.2510 C   0  0  0  0  0  0  0  0  0  0  0  0
  -29.1750  -26.7250   20.2800 C   0  0  0  0  0  0  0  0  0  0  0  0
  -24.8330  -29.1470   21.4670 C   0  0  0  0  0  3  0  0  0  0  0  0
  -26.5960  -27.8860   20.1320 C   0  0  0  0  0  0  0  0  0  0  0  0
  -27.2940  -29.8500   21.5110 C   0  0  0  0  0  2  0  0  0  0  0  0
  -27.6150  -28.5310   20.8410 C   0  0  0  0  0  0  0  0  0  0  0  0
  -28.9020  -27.9530   20.9200 C   0  0  0  0  0  3  0  0  0  0  0  0
  -28.1360  -26.1020   19.5460 C   0  0  0  0  0  3  0  0  0  0  0  0
  -26.8500  -26.6670   19.4860 C   0  0  0  0  0  3  0  0  0  0  0  0
  -25.2470  -28.5650   20.0900 C   0  0  0  0  0  2  0  0  0  0  0  0
  -25.9500  -29.8920   22.1340 N   0  0  0  0  0  0  0  0  0  0  0  0
  -24.5400  -30.7290   23.6990 O   0  0  0  0  0  0  0  0  0  0  0  0
  -24.2530  -28.0050   22.3330 C   0  0  0  0  0  0  0  0  0  0  0  0
  -22.9940  -27.6280   22.0590 N   0  0  0  0  0  0  0  0  0  0  0  0
  -24.9370  -27.4620   23.2050 O   0  0  0  0  0  0  0  0  0  0  0  0
  -22.5010  -28.1290   21.3350 H   0  0  0  0  0  0  0  0  0  0  0  0
  -19.8100  -25.9190   22.1520 C   0  0  0  0  0  0  0  0  0  0  0  0
  -22.2520  -26.5530   22.7190 C   0  0  0  0  0  3  0  0  0  0  0  0
  -22.6370  -25.1730   22.1400 C   0  0  0  0  0  2  0  0  0  0  0  0
  -21.7170  -24.7170   21.0030 C   0  0  0  0  0  2  0  0  0  0  0  0
  -20.2660  -24.6320   21.4860 C   0  0  0  0  0  2  0  0  0  0  0  0
  -20.7440  -26.8280   22.7150 C   0  0  0  0  0  0  0  0  0  0  0  0
  -20.2700  -28.0270   23.2930 C   0  0  0  0  0  3  0  0  0  0  0  0
  -18.8940  -28.3200   23.3140 C   0  0  0  0  0  3  0  0  0  0  0  0
  -17.9720  -27.4090   22.7700 C   0  0  0  0  0  3  0  0  0  0  0  0
  -18.4290  -26.2110   22.1940 C   0  0  0  0  0  3  0  0  0  0  0  0
  -26.8190  -31.4000   24.0020 C   0  0  0  0  0  3  0  0  0  0  0  0
  -26.3120  -32.7440   24.3050 N   0  0  0  0  0  0  0  0  0  0  0  0
  -26.5930  -33.8420   23.5910 C   0  0  0  0  0  0  0  0  0  0  0  0
  -27.3780  -33.8390   22.6390 O   0  0  0  0  0  0  0  0  0  0  0  0
  -25.6190  -32.8110   25.0360 H   0  0  0  0  0  0  0  0  0  0  0  0
  -24.7070  -35.4180   23.0540 C   0  0  0  0  0  1  0  0  0  0  0  0
  -25.8910  -35.1520   23.9980 C   0  0  0  0  0  3  0  0  0  0  0  0
  -27.7930  -36.2730   25.0680 C   0  0  0  0  0  1  0  0  0  0  0  0
  -26.7910  -36.3240   24.0060 N   0  0  0  0  0  0  0  0  0  0  0  0
  -26.2630  -37.1870   24.1100 H   0  0  0  0  0  0  0  0  0  0  0  0
  -27.3000  -30.6740   25.3180 C   0  0  1  0  0  0  0  0  0  0  0  0
  -26.1440  -30.2770   26.2660 C   0  0  0  0  0  1  0  0  0  0  0  0
  -28.0920  -29.3920   24.9750 C   0  0  0  0  0  1  0  0  0  0  0  0
  -28.2610  -31.5970   26.1040 C   0  0  0  0  0  1  0  0  0  0  0  0
  -28.6060  -17.0660   25.8110 C   0  0  0  0  0  2  0  0  0  0  0  0
  -28.9990  -15.5870   25.6690 C   0  0  0  0  0  2  0  0  0  0  0  0
  -27.8160  -14.6870   25.2530 C   0  0  0  0  0  2  0  0  0  0  0  0
  -28.0930  -13.1670   25.2700 C   0  0  0  0  0  2  0  0  0  0  0  0
  -28.4190  -12.5990   23.9410 N   0  0  0  0  0  4  0  0  0  0  0  0
  -28.0400  -13.1860   23.2180 H   0  0  0  0  0  0  0  0  0  0  0  0
  -27.9420  -11.7130   23.8740 H   0  0  0  0  0  0  0  0  0  0  0  0
  -29.8540  -12.3360   23.6950 C   0  0  0  0  0  2  0  0  0  0  0  0
  -30.2940  -12.8070   22.2960 C   0  0  0  0  0  2  0  0  0  0  0  0
  -31.7800  -13.1920   22.2670 C   0  0  0  0  0  2  0  0  0  0  0  0
  -32.2440  -13.8110   20.9400 C   0  0  0  0  0  2  0  0  0  0  0  0
  -30.8380  -14.0910   19.0040 C   0  0  0  0  0  0  0  0  0  0  0  0
  -30.0850  -12.0070   17.9320 C   0  0  0  0  0  2  0  0  0  0  0  0
  -28.8830  -12.1720   16.9930 C   0  0  0  0  0  2  0  0  0  0  0  0
  -27.5630  -12.0790   17.7790 C   0  0  0  0  0  2  0  0  0  0  0  0
  -27.5480  -12.9930   19.0330 C   0  0  0  0  0  3  0  0  0  0  0  0
  -28.8410  -12.8450   19.8680 C   0  0  0  0  0  2  0  0  0  0  0  0
  -30.0150  -13.0150   18.9940 N   0  0  0  0  0  0  0  0  0  0  0  0
  -31.4510  -14.5090   18.0190 O   0  0  0  0  0  0  0  0  0  0  0  0
  -31.1680  -14.5100   20.2310 N   0  0  0  0  0  0  0  0  0  0  0  0
  -31.3450  -15.5040   20.2340 H   0  0  0  0  0  0  0  0  0  0  0  0
  -25.5230  -13.6760   20.4750 C   0  0  0  0  0  0  0  0  0  0  0  0
  -24.5120  -12.9440   21.0350 C   0  0  0  0  0  0  0  0  0  0  0  0
  -24.7780  -11.5800   20.6990 C   0  0  0  0  0  0  0  0  0  0  0  0
  -26.3540  -12.7600   19.8450 N   0  0  0  0  0  0  0  0  0  0  0  0
  -25.9200  -11.4860   20.0290 N   0  0  0  0  0  0  0  0  0  0  0  0
  -23.9840  -10.3660   20.9320 C   0  0  0  0  0  0  0  0  0  0  0  0
  -24.4510   -9.3250   21.7650 C   0  0  0  0  0  3  0  0  0  0  0  0
  -23.6600   -8.1780   21.9890 C   0  0  0  0  0  3  0  0  0  0  0  0
  -22.3870   -8.0620   21.3820 C   0  0  0  0  0  0  0  0  0  0  0  0
  -21.9350   -9.0910   20.5390 C   0  0  0  0  0  3  0  0  0  0  0  0
  -22.7250  -10.2310   20.3120 C   0  0  0  0  0  3  0  0  0  0  0  0
  -21.5640   -6.9700   21.5190 O   0  0  0  0  0  0  0  0  0  0  0  0
  -21.5550   -6.2140   22.6630 C   0  0  0  0  0  0  0  0  0  0  0  0
  -21.2050   -6.7630   23.9150 C   0  0  0  0  0  3  0  0  0  0  0  0
  -21.1420   -5.9350   25.0550 C   0  0  0  0  0  3  0  0  0  0  0  0
  -21.4190   -4.5600   24.9430 C   0  0  0  0  0  0  0  0  0  0  0  0
  -21.7600   -4.0100   23.6940 C   0  0  0  0  0  3  0  0  0  0  0  0
  -21.8250   -4.8340   22.5580 C   0  0  0  0  0  0  0  0  0  0  0  0
  -22.1340   -4.2960   21.3530 F   0  0  0  0  0  0  0  0  0  0  0  0
  -21.3510   -3.7630   26.0350 F   0  0  0  0  0  0  0  0  0  0  0  0
  -23.3150  -13.4800   21.7640 C   0  0  0  0  0  0  0  0  0  0  0  0
  -22.8010  -12.7310   22.7320 N   0  0  0  0  0  0  0  0  0  0  0  0
  -22.8560  -14.5940   21.5100 O   0  0  0  0  0  0  0  0  0  0  0  0
  -23.1870  -11.8240   22.9530 H   0  0  0  0  0  0  0  0  0  0  0  0
  -22.0120  -13.0690   23.2650 H   0  0  0  0  0  0  0  0  0  0  0  0
  -25.7980  -15.0410   20.4340 N   0  0  0  0  0  0  0  0  0  0  0  0
  -25.1800  -15.7320   20.8440 H   0  0  0  0  0  0  0  0  0  0  0  0
  -26.5850  -15.4500   19.9460 H   0  0  0  0  0  0  0  0  0  0  0  0
  1 52  1  0
  2  1  1  0
  3  2  1  0
  3  5  1  0
  4  3  1  0
  6  3  1  0
  7  6  1  0
  8  7  1  0
  9  8  1  0
 10 11  1  0
 10  9  1  0
 12 23  2  0
 13 11  1  0
 13 18  1  0
 14 22  1  0
 14 24  1  0
 15 17  1  0
 16 22  1  0
 17 18  2  0
 17 16  1  0
 19 13  2  0
 20 19  1  0
 20 15  2  0
 21 15  1  0
 21 14  1  0
 22 12  1  0
 24 26  2  0
 25 24  1  0
 27 25  1  0
 28 37  2  0
 28 33  1  0
 29 25  1  0
 30 29  1  0
 31 32  1  0
 31 30  1  0
 32 28  1  0
 33 29  1  0
 33 34  2  0
 34 35  1  0
 36 35  2  0
 37 36  1  0
 38 12  1  0
 38 39  1  0
 38 48  1  0
 39 42  1  0
 40 44  1  0
 40 39  1  0
 41 40  2  0
 44 43  1  0
 44 46  1  0
 46 47  1  0
 46 45  1  0
 48 51  1  1
 48 49  1  0
 50 48  1  0
 53 52  1  0
 54 55  1  0
 54 53  1  0
 56 55  1  0
 57 56  1  0
 58 56  1  0
 59 56  1  0
 60 59  1  0
 61 60  1  0
 62 61  1  0
 63 71  1  0
 64 69  1  0
 65 66  1  0
 65 64  1  0
 67 66  1  0
 67 76  1  0
 67 68  1  0
 69 63  1  0
 69 68  1  0
 70 63  2  0
 71 72  1  0
 71 62  1  0
 73 74  2  0
 74 93  1  0
 75 78  1  0
 75 74  1  0
 76 77  1  0
 76 73  1  0
 77 75  2  0
 78 79  1  0
 79 80  2  0
 81 84  1  0
 81 80  1  0
 82 81  2  0
 83 82  1  0
 83 78  2  0
 84 85  1  0
 85 86  1  0
 86 87  2  0
 88 87  1  0
 88 92  1  0
 89 88  2  0
 90 85  2  0
 90 89  1  0
 91 90  1  0
 93 94  1  0
 94 96  1  0
 94 97  1  0
 95 93  2  0
 98 73  1  0
 98 99  1  0
100 98  1  0
M  ISO  4  10 101  11 101  63 100  71 100
M  END
>  <TORSDO>  (7) 
F 32

>  <SCORE>  (7) 
26.008

>  <name>  (7) 
7

>  <ligand_id>  (7) 
7

>  <original_smiles>  (7) 
[H]c1c([H])c([H])c2c(c1[H])C([H])([H])C([H])([H])C([H])([H])C2([H])N([H])C(=O)C1([H])N(C(=O)C([H])(N([H])C(=O)C([H])(N([H])C([H])([H])[H])C([H])([H])[H])C(C([H])([H])[H])(C([H])([H])[H])C([H])([H])[H])C([H])([H])c2c([H])c(OC([H])([H])C([H])([H])C([H])([H])C([H])([H])C([H])([H])[N+]([H])([H])C([H])([H])C([H])([H])C([H])([H])C([H])([H])C([H])([H])C([H])([H])[N+]([H])([H])C([H])([H])C([H])([H])C([H])([H])C([H])([H])N([H])C(=O)N3C([H])([H])C([H])([H])C([H])([H])C([H])(n4nc(-c5c([H])c([H])c(Oc6c([H])c([H])c(F)c([H])c6F)c([H])c5[H])c(C(=O)N([H])[H])c4N([H])[H])C3([H])[H])c([H])c([H])c2C1([H])[H]

>  <smiles>  (7) 
[H]c1c([H])c([H])c2c(c1[H])C([H])([H])C([H])([H])C([H])([H])C2([H])N([H])C(=O)C1([H])N(C(=O)C([H])(N([H])C(=O)C([H])(N([H])C([H])([H])[H])C([H])([H])[H])C(C([H])([H])[H])(C([H])([H])[H])C([H])([H])[H])C([H])([H])c2c([H])c(OC([H])([H])C([H])([H])C([H])([H])C([H])([H])C([H])([H])[N+]([H])([H])C([H])([H])C([H])([H])C([H])([H])C([H])([H])C([H])([H])C([H])([H])[N+]([H])([H])C([H])([H])C([H])([H])C([H])([H])C([H])([H])N([H])C(=O)N3C([H])([H])C([H])([H])C([H])([H])C([H])(n4nc(-c5c([H])c([H])c(Oc6c([H])c([H])c(F)c([H])c6F)c([H])c5[H])c(C(=O)N([H])[H])c4N([H])[H])C3([H])[H])c([H])c([H])c2C1([H])[H]

$$$$
8:0:0
     RDKit          3D

101109  0  0  1  0  0  0  0  0999 V2000
  -26.1580  -22.5600   18.4040 C   0  0  0  0  0  3  0  0  0  0  0  0
  -26.4680  -21.4580   17.5790 C   0  0  0  0  0  3  0  0  0  0  0  0
  -26.5500  -21.1770   20.3750 C   0  0  0  0  0  3  0  0  0  0  0  0
  -26.2760  -22.4330   19.8040 C   0  0  0  0  0  0  0  0  0  0  0  0
  -26.9330  -20.2520   18.1490 C   0  0  0  0  0  0  0  0  0  0  0  0
  -26.9100  -20.0930   19.5570 C   0  0  0  0  0  0  0  0  0  0  0  0
  -26.2490  -23.6220   20.7050 C   0  0  0  0  0  0  0  0  0  0  0  0
  -27.3780  -24.3460   20.6840 N   0  0  0  0  0  0  0  0  0  0  0  0
  -25.3170  -23.8030   21.4870 O   0  0  0  0  0  0  0  0  0  0  0  0
  -28.0540  -24.1290   19.9650 H   0  0  0  0  0  0  0  0  0  0  0  0
  -27.7840  -25.2790   21.7410 C   0  0  0  0  0  2  0  0  0  0  0  0
  -28.8760  -26.2880   21.3020 C   0  0  0  0  0  2  0  0  0  0  0  0
  -28.6350  -26.8260   19.9970 O   0  0  0  0  0  0  0  0  0  0  0  0
  -24.7190  -31.8460   23.1450 C   0  0  0  0  0  0  0  0  0  0  0  0
  -27.4980  -27.5880   19.9500 C   0  0  0  0  0  0  0  0  0  0  0  0
  -23.5630  -30.4430   21.4720 C   0  0  0  0  0  3  0  0  0  0  0  0
  -25.0670  -28.9960   20.0040 C   0  0  0  0  0  0  0  0  0  0  0  0
  -26.0760  -30.8820   21.2990 C   0  0  0  0  0  2  0  0  0  0  0  0
  -26.2010  -29.5360   20.6210 C   0  0  0  0  0  0  0  0  0  0  0  0
  -27.4190  -28.8280   20.6120 C   0  0  0  0  0  3  0  0  0  0  0  0
  -26.3640  -27.0690   19.2980 C   0  0  0  0  0  3  0  0  0  0  0  0
  -25.1350  -27.7520   19.3500 C   0  0  0  0  0  3  0  0  0  0  0  0
  -23.7930  -29.8050   20.0770 C   0  0  0  0  0  2  0  0  0  0  0  0
  -24.8030  -31.0700   22.0290 N   0  0  0  0  0  0  0  0  0  0  0  0
  -23.6280  -32.0790   23.6790 O   0  0  0  0  0  0  0  0  0  0  0  0
  -22.9440  -29.3760   22.4030 C   0  0  0  0  0  0  0  0  0  0  0  0
  -21.6390  -29.1210   22.2310 N   0  0  0  0  0  0  0  0  0  0  0  0
  -23.6360  -28.7880   23.2380 O   0  0  0  0  0  0  0  0  0  0  0  0
  -21.1400  -29.6520   21.5310 H   0  0  0  0  0  0  0  0  0  0  0  0
  -18.3270  -27.7240   22.5980 C   0  0  0  0  0  0  0  0  0  0  0  0
  -20.8520  -28.1330   22.9700 C   0  0  0  0  0  3  0  0  0  0  0  0
  -21.0630  -26.7120   22.3990 C   0  0  0  0  0  2  0  0  0  0  0  0
  -20.0240  -26.3230   21.3450 C   0  0  0  0  0  2  0  0  0  0  0  0
  -18.6110  -26.3880   21.9330 C   0  0  0  0  0  2  0  0  0  0  0  0
  -19.3800  -28.5510   23.0670 C   0  0  0  0  0  0  0  0  0  0  0  0
  -19.0640  -29.8020   23.6420 C   0  0  0  0  0  3  0  0  0  0  0  0
  -17.7260  -30.2270   23.7540 C   0  0  0  0  0  3  0  0  0  0  0  0
  -16.6870  -29.3960   23.3010 C   0  0  0  0  0  3  0  0  0  0  0  0
  -16.9860  -28.1460   22.7300 C   0  0  0  0  0  3  0  0  0  0  0  0
  -25.9860  -32.5020   23.7790 C   0  0  0  0  0  3  0  0  0  0  0  0
  -26.5390  -31.7090   25.0250 C   0  0  1  0  0  0  0  0  0  0  0  0
  -25.4500  -31.3460   26.0630 C   0  0  0  0  0  1  0  0  0  0  0  0
  -27.2190  -30.3930   24.5760 C   0  0  0  0  0  1  0  0  0  0  0  0
  -27.6260  -32.5460   25.7400 C   0  0  0  0  0  1  0  0  0  0  0  0
  -25.6280  -33.8770   24.1560 N   0  0  0  0  0  0  0  0  0  0  0  0
  -25.9090  -34.9630   23.4240 C   0  0  0  0  0  0  0  0  0  0  0  0
  -26.5710  -34.9180   22.3840 O   0  0  0  0  0  0  0  0  0  0  0  0
  -25.0380  -33.9860   24.9680 H   0  0  0  0  0  0  0  0  0  0  0  0
  -24.1010  -36.6850   23.1470 C   0  0  0  0  0  1  0  0  0  0  0  0
  -25.3730  -36.3170   23.9270 C   0  0  0  0  0  3  0  0  0  0  0  0
  -27.4830  -37.2660   24.7450 C   0  0  0  0  0  1  0  0  0  0  0  0
  -26.3580  -37.4150   23.8270 N   0  0  0  0  0  0  0  0  0  0  0  0
  -25.9170  -38.3140   24.0060 H   0  0  0  0  0  0  0  0  0  0  0  0
  -27.3780  -19.2830   15.7750 C   0  0  0  0  0  1  0  0  0  0  0  0
  -27.6870  -19.2500   17.2830 C   0  0  0  0  0  3  0  0  0  0  0  0
  -29.1230  -19.4590   17.6030 N   0  0  0  0  0  4  0  0  0  0  0  0
  -29.6310  -19.8120   16.8030 H   0  0  0  0  0  0  0  0  0  0  0  0
  -29.1060  -20.2050   18.2780 H   0  0  0  0  0  0  0  0  0  0  0  0
  -29.8420  -18.3230   18.2260 C   0  0  0  0  0  2  0  0  0  0  0  0
  -30.7820  -18.7610   19.3730 C   0  0  0  0  0  2  0  0  0  0  0  0
  -31.7810  -17.7070   19.9290 C   0  0  0  0  0  2  0  0  0  0  0  0
  -32.0030  -15.2240   19.7820 C   0  0  0  0  0  0  0  0  0  0  0  0
  -31.6810  -12.9180   19.0030 C   0  0  0  0  0  2  0  0  0  0  0  0
  -30.7140  -12.8990   17.8010 C   0  0  0  0  0  2  0  0  0  0  0  0
  -29.2380  -12.9030   18.2480 C   0  0  0  0  0  2  0  0  0  0  0  0
  -28.9460  -13.9760   19.3290 C   0  0  0  0  0  3  0  0  0  0  0  0
  -29.9890  -13.8750   20.4590 C   0  0  0  0  0  2  0  0  0  0  0  0
  -31.3180  -14.0570   19.8550 N   0  0  0  0  0  0  0  0  0  0  0  0
  -33.1590  -15.3030   19.3460 O   0  0  0  0  0  0  0  0  0  0  0  0
  -31.2770  -16.3270   20.0490 N   0  0  0  0  0  0  0  0  0  0  0  0
  -30.3280  -16.1800   20.3670 H   0  0  0  0  0  0  0  0  0  0  0  0
  -26.6750  -14.8620   20.1540 C   0  0  0  0  0  0  0  0  0  0  0  0
  -25.5250  -14.2270   20.5180 C   0  0  0  0  0  0  0  0  0  0  0  0
  -25.8000  -12.8310   20.4070 C   0  0  0  0  0  0  0  0  0  0  0  0
  -27.5840  -13.8660   19.8400 N   0  0  0  0  0  0  0  0  0  0  0  0
  -27.0630  -12.6340   20.0510 N   0  0  0  0  0  0  0  0  0  0  0  0
  -24.9220  -11.6730   20.5630 C   0  0  0  0  0  0  0  0  0  0  0  0
  -25.2470  -10.6120   21.4340 C   0  0  0  0  0  3  0  0  0  0  0  0
  -24.3760   -9.5110   21.5740 C   0  0  0  0  0  3  0  0  0  0  0  0
  -23.1660   -9.4690   20.8440 C   0  0  0  0  0  0  0  0  0  0  0  0
  -22.8600  -10.5190   19.9570 C   0  0  0  0  0  3  0  0  0  0  0  0
  -23.7310  -11.6110   19.8130 C   0  0  0  0  0  3  0  0  0  0  0  0
  -22.2680   -8.4320   20.9000 O   0  0  0  0  0  0  0  0  0  0  0  0
  -22.0850   -7.7000   22.0470 C   0  0  0  0  0  0  0  0  0  0  0  0
  -21.7160   -8.3050   23.2680 C   0  0  0  0  0  3  0  0  0  0  0  0
  -21.4690   -7.5060   24.4020 C   0  0  0  0  0  3  0  0  0  0  0  0
  -21.5850   -6.1050   24.3160 C   0  0  0  0  0  0  0  0  0  0  0  0
  -21.9480   -5.5020   23.1000 C   0  0  0  0  0  3  0  0  0  0  0  0
  -22.1980   -6.2970   21.9680 C   0  0  0  0  0  0  0  0  0  0  0  0
  -22.5260   -5.7080   20.7930 F   0  0  0  0  0  0  0  0  0  0  0  0
  -21.3440   -5.3380   25.4030 F   0  0  0  0  0  0  0  0  0  0  0  0
  -24.2130  -14.8780   20.8580 C   0  0  0  0  0  0  0  0  0  0  0  0
  -23.4210  -14.2630   21.7210 N   0  0  0  0  0  0  0  0  0  0  0  0
  -23.9050  -15.9730   20.3900 O   0  0  0  0  0  0  0  0  0  0  0  0
  -23.6770  -13.3750   22.1280 H   0  0  0  0  0  0  0  0  0  0  0  0
  -22.5440  -14.6920   21.9810 H   0  0  0  0  0  0  0  0  0  0  0  0
  -27.0190  -16.2050   20.0580 N   0  0  0  0  0  0  0  0  0  0  0  0
  -26.3900  -16.9240   20.3920 H   0  0  0  0  0  0  0  0  0  0  0  0
  -27.9610  -16.5180   19.8950 H   0  0  0  0  0  0  0  0  0  0  0  0
  -27.3390  -18.9390   20.1490 O   0  0  0  0  0  0  0  0  0  0  0  0
  -27.2710  -18.9490   21.1000 H   0  0  0  0  0  0  0  0  0  0  0  0
  1  4  1  0
  2  5  1  0
  2  1  2  0
  4  3  2  0
  4  7  1  0
  5  6  2  0
  6100  1  0
  6  3  1  0
  7  9  2  0
  8  7  1  0
  8 11  1  0
 10  8  1  0
 12 11  1  0
 13 12  1  0
 14 25  2  0
 15 13  1  0
 15 20  1  0
 16 24  1  0
 16 26  1  0
 17 23  1  0
 17 19  1  0
 18 24  1  0
 19 18  1  0
 20 19  2  0
 21 22  1  0
 21 15  2  0
 22 17  2  0
 23 16  1  0
 24 14  1  0
 26 28  2  0
 27 26  1  0
 29 27  1  0
 30 39  2  0
 30 35  1  0
 31 27  1  0
 31 35  1  0
 32 31  1  0
 33 34  1  0
 33 32  1  0
 34 30  1  0
 35 36  2  0
 36 37  1  0
 38 37  2  0
 39 38  1  0
 40 14  1  0
 40 45  1  0
 40 41  1  0
 41 44  1  1
 41 42  1  0
 43 41  1  0
 45 48  1  0
 46 50  1  0
 46 45  1  0
 47 46  2  0
 50 49  1  0
 52 50  1  0
 52 53  1  0
 52 51  1  0
 55 54  1  0
 55 56  1  0
 55  5  1  0
 56 59  1  0
 56 58  1  0
 57 56  1  0
 59 60  1  0
 60 61  1  0
 61 70  1  0
 62 68  1  0
 62 70  1  0
 63 68  1  0
 64 65  1  0
 64 63  1  0
 66 65  1  0
 66 75  1  0
 66 67  1  0
 68 67  1  0
 69 62  2  0
 70 71  1  0
 72 73  2  0
 73 92  1  0
 74 73  1  0
 74 77  1  0
 75 76  1  0
 75 72  1  0
 76 74  2  0
 77 78  1  0
 78 79  2  0
 80 83  1  0
 80 79  1  0
 81 80  2  0
 82 81  1  0
 82 77  2  0
 83 84  1  0
 84 85  1  0
 85 86  2  0
 87 86  1  0
 87 91  1  0
 88 87  2  0
 89 84  2  0
 89 88  1  0
 90 89  1  0
 92 93  1  0
 93 96  1  0
 93 95  1  0
 94 92  2  0
 97 72  1  0
 97 98  1  0
 99 97  1  0
100101  1  0
M  ISO  4  12 101  13 101  62 100  70 100
M  END
>  <TORSDO>  (8) 
F 25

>  <SCORE>  (8) 
-8.738

>  <name>  (8) 
8

>  <ligand_id>  (8) 
8

>  <original_smiles>  (8) 
[H]Oc1c([H])c(C(=O)N([H])C([H])([H])C([H])([H])Oc2c([H])c([H])c3c(c2[H])C([H])([H])N(C(=O)C([H])(N([H])C(=O)C([H])(N([H])C([H])([H])[H])C([H])([H])[H])C(C([H])([H])[H])(C([H])([H])[H])C([H])([H])[H])C([H])(C(=O)N([H])C2([H])c4c([H])c([H])c([H])c([H])c4C([H])([H])C([H])([H])C2([H])[H])C3([H])[H])c([H])c([H])c1C([H])(C([H])([H])[H])[N+]([H])([H])C([H])([H])C([H])([H])C([H])([H])N([H])C(=O)N1C([H])([H])C([H])([H])C([H])([H])C([H])(n2nc(-c3c([H])c([H])c(Oc4c([H])c([H])c(F)c([H])c4F)c([H])c3[H])c(C(=O)N([H])[H])c2N([H])[H])C1([H])[H]

>  <smiles>  (8) 
[H]Oc1c([H])c(C(=O)N([H])C([H])([H])C([H])([H])Oc2c([H])c([H])c3c(c2[H])C([H])([H])N(C(=O)C([H])(N([H])C(=O)C([H])(N([H])C([H])([H])[H])C([H])([H])[H])C(C([H])([H])[H])(C([H])([H])[H])C([H])([H])[H])C([H])(C(=O)N([H])C2([H])c4c([H])c([H])c([H])c([H])c4C([H])([H])C([H])([H])C2([H])[H])C3([H])[H])c([H])c([H])c1C([H])(C([H])([H])[H])[N+]([H])([H])C([H])([H])C([H])([H])C([H])([H])N([H])C(=O)N1C([H])([H])C([H])([H])C([H])([H])C([H])(n2nc(-c3c([H])c([H])c(Oc4c([H])c([H])c(F)c([H])c4F)c([H])c3[H])c(C(=O)N([H])[H])c2N([H])[H])C1([H])[H]

$$$$
9:0:0
     RDKit          3D

103111  0  0  1  0  0  0  0  0999 V2000
  -29.6230  -24.1090   22.3610 C   0  0  0  0  0  3  0  0  0  0  0  0
  -30.9850  -23.1260   20.6030 C   0  0  0  0  0  3  0  0  0  0  0  0
  -30.0530  -23.1080   23.2550 C   0  0  0  0  0  3  0  0  0  0  0  0
  -31.4420  -22.1490   21.5060 C   0  0  0  0  0  3  0  0  0  0  0  0
  -30.0890  -24.1310   21.0280 C   0  0  0  0  0  0  0  0  0  0  0  0
  -30.9780  -22.1220   22.8390 C   0  0  0  0  0  0  0  0  0  0  0  0
  -31.5130  -21.4720   25.2640 C   0  0  0  0  0  1  0  0  0  0  0  0
  -31.4790  -21.0280   23.7890 C   0  0  0  0  0  3  0  0  0  0  0  0
  -30.7200  -19.7670   23.6190 N   0  0  0  0  0  4  0  0  0  0  0  0
  -30.8520  -19.2180   24.4530 H   0  0  0  0  0  0  0  0  0  0  0  0
  -29.7380  -19.9810   23.5430 H   0  0  0  0  0  0  0  0  0  0  0  0
  -31.1290  -18.9480   22.4540 C   0  0  0  0  0  2  0  0  0  0  0  0
  -30.5820  -17.5070   22.4890 C   0  0  0  0  0  2  0  0  0  0  0  0
  -31.0440  -16.7230   21.2500 C   0  0  0  0  0  2  0  0  0  0  0  0
  -30.5920  -15.2540   21.2150 C   0  0  0  0  0  2  0  0  0  0  0  0
  -31.6040  -13.4810   19.7590 C   0  0  0  0  0  0  0  0  0  0  0  0
  -30.9700  -11.2960   18.8320 C   0  0  0  0  0  2  0  0  0  0  0  0
  -29.9720  -11.5210   17.6750 C   0  0  0  0  0  2  0  0  0  0  0  0
  -28.5260  -11.6100   18.2030 C   0  0  0  0  0  2  0  0  0  0  0  0
  -28.3890  -12.5770   19.4090 C   0  0  0  0  0  3  0  0  0  0  0  0
  -29.4840  -12.2950   20.4620 C   0  0  0  0  0  2  0  0  0  0  0  0
  -30.7870  -12.3960   19.7880 N   0  0  0  0  0  0  0  0  0  0  0  0
  -32.7080  -13.4790   19.2110 O   0  0  0  0  0  0  0  0  0  0  0  0
  -31.0090  -14.6650   19.9450 N   0  0  0  0  0  0  0  0  0  0  0  0
  -31.4310  -15.3590   19.3480 H   0  0  0  0  0  0  0  0  0  0  0  0
  -26.1890  -13.5590   20.3170 C   0  0  0  0  0  0  0  0  0  0  0  0
  -25.0380  -12.9640   20.7600 C   0  0  0  0  0  0  0  0  0  0  0  0
  -25.2640  -11.5560   20.6750 C   0  0  0  0  0  0  0  0  0  0  0  0
  -27.0510  -12.5220   19.9920 N   0  0  0  0  0  0  0  0  0  0  0  0
  -26.5000  -11.3110   20.2620 N   0  0  0  0  0  0  0  0  0  0  0  0
  -24.3550  -10.4260   20.9100 C   0  0  0  0  0  0  0  0  0  0  0  0
  -24.7110   -9.3610   21.7660 C   0  0  0  0  0  3  0  0  0  0  0  0
  -23.8160   -8.2930   21.9880 C   0  0  0  0  0  3  0  0  0  0  0  0
  -22.5510   -8.2830   21.3520 C   0  0  0  0  0  0  0  0  0  0  0  0
  -22.2120   -9.3350   20.4820 C   0  0  0  0  0  3  0  0  0  0  0  0
  -23.1060  -10.3950   20.2600 C   0  0  0  0  0  3  0  0  0  0  0  0
  -21.6250   -7.2770   21.4880 O   0  0  0  0  0  0  0  0  0  0  0  0
  -21.5450   -6.5230   22.6320 C   0  0  0  0  0  0  0  0  0  0  0  0
  -21.3490   -7.1130   23.8990 C   0  0  0  0  0  3  0  0  0  0  0  0
  -21.2040   -6.2970   25.0390 C   0  0  0  0  0  3  0  0  0  0  0  0
  -21.2440   -4.8960   24.9130 C   0  0  0  0  0  0  0  0  0  0  0  0
  -21.4330   -4.3070   23.6500 C   0  0  0  0  0  3  0  0  0  0  0  0
  -21.5810   -5.1200   22.5120 C   0  0  0  0  0  0  0  0  0  0  0  0
  -21.7420   -4.5480   21.2940 F   0  0  0  0  0  0  0  0  0  0  0  0
  -21.0940   -4.1110   26.0060 F   0  0  0  0  0  0  0  0  0  0  0  0
  -23.7670  -13.6580   21.1530 C   0  0  0  0  0  0  0  0  0  0  0  0
  -23.0290  -13.0930   22.1040 N   0  0  0  0  0  0  0  0  0  0  0  0
  -23.4430  -14.7340   20.6520 O   0  0  0  0  0  0  0  0  0  0  0  0
  -23.3050  -12.2210   22.5300 H   0  0  0  0  0  0  0  0  0  0  0  0
  -22.1760  -13.5410   22.4070 H   0  0  0  0  0  0  0  0  0  0  0  0
  -26.5660  -14.8890   20.1450 N   0  0  0  0  0  0  0  0  0  0  0  0
  -25.9290  -15.6570   20.3210 H   0  0  0  0  0  0  0  0  0  0  0  0
  -27.4530  -15.1860   19.7580 H   0  0  0  0  0  0  0  0  0  0  0  0
  -29.6150  -25.2330   20.0790 C   0  0  0  0  0  3  0  0  0  0  0  0
  -30.7580  -25.9680   19.3320 C   0  0  0  0  0  2  0  0  0  0  0  0
  -31.7010  -26.7700   20.2550 C   0  0  0  0  0  2  0  0  0  0  0  0
  -32.7170  -27.5260   19.5020 N   0  0  0  0  0  4  0  0  0  0  0  0
  -33.3000  -26.9120   18.9620 H   0  0  0  0  0  0  0  0  0  0  0  0
  -33.3060  -28.0320   20.1390 H   0  0  0  0  0  0  0  0  0  0  0  0
  -32.2880  -28.1910   18.8840 H   0  0  0  0  0  0  0  0  0  0  0  0
  -28.5270  -24.7200   19.1030 C   0  0  0  0  0  2  0  0  0  0  0  0
  -27.1220  -25.2880   19.3740 C   0  0  0  0  0  2  0  0  0  0  0  0
  -27.2550  -26.7030   19.4180 O   0  0  0  0  0  0  0  0  0  0  0  0
  -24.6310  -31.9100   23.4430 C   0  0  0  0  0  0  0  0  0  0  0  0
  -26.1560  -27.4880   19.6740 C   0  0  0  0  0  0  0  0  0  0  0  0
  -23.0110  -30.8340   21.9110 C   0  0  0  0  0  3  0  0  0  0  0  0
  -24.0100  -29.2520   20.1790 C   0  0  0  0  0  0  0  0  0  0  0  0
  -25.5040  -30.8860   21.3480 C   0  0  0  0  0  2  0  0  0  0  0  0
  -25.3000  -29.5790   20.6110 C   0  0  0  0  0  0  0  0  0  0  0  0
  -26.3740  -28.7040   20.3540 C   0  0  0  0  0  3  0  0  0  0  0  0
  -24.8470  -27.1560   19.2590 C   0  0  0  0  0  3  0  0  0  0  0  0
  -23.7750  -28.0380   19.5070 C   0  0  0  0  0  3  0  0  0  0  0  0
  -22.9190  -30.2560   20.4730 C   0  0  0  0  0  2  0  0  0  0  0  0
  -24.4110  -31.2170   22.2910 N   0  0  0  0  0  0  0  0  0  0  0  0
  -23.6890  -32.2700   24.1640 O   0  0  0  0  0  0  0  0  0  0  0  0
  -22.3690  -29.8230   22.8870 C   0  0  0  0  0  0  0  0  0  0  0  0
  -21.0580  -29.5850   22.7200 N   0  0  0  0  0  0  0  0  0  0  0  0
  -23.0460  -29.2530   23.7470 O   0  0  0  0  0  0  0  0  0  0  0  0
  -20.5720  -30.0980   21.9990 H   0  0  0  0  0  0  0  0  0  0  0  0
  -17.8020  -28.0390   22.9290 C   0  0  0  0  0  0  0  0  0  0  0  0
  -20.2490  -28.6440   23.4950 C   0  0  0  0  0  3  0  0  0  0  0  0
  -20.5890  -27.1820   23.1230 C   0  0  0  0  0  2  0  0  0  0  0  0
  -19.6860  -26.6120   22.0260 C   0  0  0  0  0  2  0  0  0  0  0  0
  -18.2190  -26.6540   22.4620 C   0  0  0  0  0  2  0  0  0  0  0  0
  -18.7560  -28.9780   23.3990 C   0  0  0  0  0  0  0  0  0  0  0  0
  -18.3200  -30.2630   23.7860 C   0  0  0  0  0  3  0  0  0  0  0  0
  -16.9590  -30.6140   23.7140 C   0  0  0  0  0  3  0  0  0  0  0  0
  -16.0150  -29.6740   23.2650 C   0  0  0  0  0  3  0  0  0  0  0  0
  -16.4360  -28.3890   22.8780 C   0  0  0  0  0  3  0  0  0  0  0  0
  -26.0700  -32.3060   23.8990 C   0  0  0  0  0  3  0  0  0  0  0  0
  -26.0250  -33.7040   24.3450 N   0  0  0  0  0  0  0  0  0  0  0  0
  -26.4480  -34.7470   23.6200 C   0  0  0  0  0  0  0  0  0  0  0  0
  -26.9910  -34.6220   22.5180 O   0  0  0  0  0  0  0  0  0  0  0  0
  -25.5420  -33.8860   25.2140 H   0  0  0  0  0  0  0  0  0  0  0  0
  -25.0160  -36.8120   23.5420 C   0  0  0  0  0  1  0  0  0  0  0  0
  -26.2350  -36.1550   24.2090 C   0  0  0  0  0  3  0  0  0  0  0  0
  -28.5450  -36.6180   24.8950 C   0  0  0  0  0  1  0  0  0  0  0  0
  -27.4140  -37.0360   24.0720 N   0  0  0  0  0  0  0  0  0  0  0  0
  -27.1790  -37.9930   24.3170 H   0  0  0  0  0  0  0  0  0  0  0  0
  -26.6410  -31.3740   25.0370 C   0  0  1  0  0  0  0  0  0  0  0  0
  -25.6760  -31.1870   26.2300 C   0  0  0  0  0  1  0  0  0  0  0  0
  -26.9750  -29.9720   24.4750 C   0  0  0  0  0  1  0  0  0  0  0  0
  -27.9660  -31.9610   25.5810 C   0  0  0  0  0  1  0  0  0  0  0  0
  1  3  1  0
  2  5  1  0
  2  4  2  0
  4  6  1  0
  5  1  2  0
  6  3  2  0
  6  8  1  0
  8  7  1  0
  9  8  1  0
  9 10  1  0
 11  9  1  0
 12 13  1  0
 12  9  1  0
 14 13  1  0
 15 14  1  0
 16 22  1  0
 16 24  1  0
 17 22  1  0
 18 19  1  0
 18 17  1  0
 20 19  1  0
 20 29  1  0
 20 21  1  0
 22 21  1  0
 23 16  2  0
 24 15  1  0
 25 24  1  0
 26 27  2  0
 27 46  1  0
 28 27  1  0
 28 31  1  0
 29 30  1  0
 29 26  1  0
 30 28  2  0
 31 32  1  0
 32 33  2  0
 34 37  1  0
 34 33  1  0
 35 34  2  0
 36 35  1  0
 36 31  2  0
 37 38  1  0
 38 39  1  0
 39 40  2  0
 41 40  1  0
 41 45  1  0
 42 41  2  0
 43 38  2  0
 43 42  1  0
 44 43  1  0
 46 47  1  0
 47 50  1  0
 47 49  1  0
 48 46  2  0
 51 26  1  0
 51 52  1  0
 53 51  1  0
 54 61  1  0
 54  5  1  0
 55 54  1  0
 55 56  1  0
 57 59  1  0
 57 56  1  0
 58 57  1  0
 60 57  1  0
 61 62  1  0
 62 63  1  0
 63 65  1  0
 64 75  2  0
 65 70  1  0
 66 74  1  0
 66 76  1  0
 67 73  1  0
 67 69  1  0
 68 74  1  0
 69 68  1  0
 70 69  2  0
 71 72  1  0
 71 65  2  0
 72 67  2  0
 73 66  1  0
 74 64  1  0
 76 78  2  0
 77 76  1  0
 79 77  1  0
 80 85  1  0
 81 77  1  0
 82 81  1  0
 83 84  1  0
 83 82  1  0
 84 80  1  0
 85 81  1  0
 85 86  2  0
 87 86  1  0
 88 87  2  0
 89 80  2  0
 89 88  1  0
 90 64  1  0
 90 91  1  0
 90100  1  0
 91 94  1  0
 92 96  1  0
 92 91  1  0
 93 92  2  0
 96 95  1  0
 98 96  1  0
 98 99  1  0
 98 97  1  0
100103  1  1
100101  1  0
102100  1  0
M  ISO  4  16 100  24 100  62 101  63 101
M  END
>  <TORSDO>  (9) 
F 28

>  <SCORE>  (9) 
-10.060

>  <name>  (9) 
9

>  <ligand_id>  (9) 
9

>  <original_smiles>  (9) 
[H]c1c([H])c([H])c2c(c1[H])C([H])([H])C([H])([H])C([H])([H])C2([H])N([H])C(=O)C1([H])N(C(=O)C([H])(N([H])C(=O)C([H])(N([H])C([H])([H])[H])C([H])([H])[H])C(C([H])([H])[H])(C([H])([H])[H])C([H])([H])[H])C([H])([H])c2c([H])c(OC([H])([H])C([H])([H])C([H])(c3c([H])c([H])c(C([H])(C([H])([H])[H])[N+]([H])([H])C([H])([H])C([H])([H])C([H])([H])C([H])([H])N([H])C(=O)N4C([H])([H])C([H])([H])C([H])([H])C([H])(n5nc(-c6c([H])c([H])c(Oc7c([H])c([H])c(F)c([H])c7F)c([H])c6[H])c(C(=O)N([H])[H])c5N([H])[H])C4([H])[H])c([H])c3[H])C([H])([H])C([H])([H])[N+]([H])([H])[H])c([H])c([H])c2C1([H])[H]

>  <smiles>  (9) 
[H]c1c([H])c([H])c2c(c1[H])C([H])([H])C([H])([H])C([H])([H])C2([H])N([H])C(=O)C1([H])N(C(=O)C([H])(N([H])C(=O)C([H])(N([H])C([H])([H])[H])C([H])([H])[H])C(C([H])([H])[H])(C([H])([H])[H])C([H])([H])[H])C([H])([H])c2c([H])c(OC([H])([H])C([H])([H])C([H])(c3c([H])c([H])c(C([H])(C([H])([H])[H])[N+]([H])([H])C([H])([H])C([H])([H])C([H])([H])C([H])([H])N([H])C(=O)N4C([H])([H])C([H])([H])C([H])([H])C([H])(n5nc(-c6c([H])c([H])c(Oc7c([H])c([H])c(F)c([H])c7F)c([H])c6[H])c(C(=O)N([H])[H])c5N([H])[H])C4([H])[H])c([H])c3[H])C([H])([H])C([H])([H])[N+]([H])([H])[H])c([H])c([H])c2C1([H])[H]

$$$$
10:0:0
     RDKit          3D

109118  0  0  1  0  0  0  0  0999 V2000
  -30.3030  -21.0440   21.7120 C   0  0  0  0  0  0  0  0  0  0  0  0
  -30.6270  -21.0530   23.0320 C   0  0  0  0  0  0  0  0  0  0  0  0
  -29.7250  -22.2930   21.0430 C   0  0  0  0  0  2  0  0  0  0  0  0
  -30.4690  -22.2500   23.9630 C   0  0  0  0  0  2  0  0  0  0  0  0
  -30.2250  -23.5630   23.2000 C   0  0  0  0  0  2  0  0  0  0  0  0
  -29.2130  -23.3420   22.0600 C   0  0  0  0  0  3  0  0  0  0  0  0
  -30.4750  -19.8200   20.8660 C   0  0  0  0  0  0  0  0  0  0  0  0
  -30.4140  -18.6800   21.3440 O   0  0  0  0  0  0  0  0  0  0  0  0
  -30.7320  -19.9230   19.3510 C   0  0  0  0  0  2  0  0  0  0  0  0
  -34.2500  -22.2410   18.1970 C   0  0  0  0  0  3  0  0  0  0  0  0
  -33.1930  -22.0620   17.2870 C   0  0  0  0  0  3  0  0  0  0  0  0
  -33.0480  -20.9050   19.8390 C   0  0  0  0  0  3  0  0  0  0  0  0
  -34.1870  -21.6620   19.4800 C   0  0  0  0  0  0  0  0  0  0  0  0
  -32.0550  -21.3120   17.6460 C   0  0  0  0  0  0  0  0  0  0  0  0
  -31.9630  -20.7440   18.9420 C   0  0  0  0  0  0  0  0  0  0  0  0
  -30.9600  -21.1190   16.6110 C   0  0  0  0  0  1  0  0  0  0  0  0
  -35.3330  -21.8860   20.4700 C   0  0  0  0  0  3  0  0  0  0  0  0
  -35.1260  -23.1350   21.2130 N   0  0  0  0  0  4  0  0  0  0  0  0
  -34.3200  -23.0780   21.8060 H   0  0  0  0  0  0  0  0  0  0  0  0
  -35.0040  -23.8920   20.5670 H   0  0  0  0  0  0  0  0  0  0  0  0
  -35.9300  -23.3360   21.7810 H   0  0  0  0  0  0  0  0  0  0  0  0
  -35.5790  -20.6880   21.4240 C   0  0  0  0  0  2  0  0  0  0  0  0
  -35.8930  -18.8300   19.8180 C   0  0  0  0  0  0  0  0  0  0  0  0
  -36.1820  -16.7920   18.4670 C   0  0  0  0  0  2  0  0  0  0  0  0
  -35.4220  -16.8660   17.1310 C   0  0  0  0  0  2  0  0  0  0  0  0
  -33.9660  -16.4010   17.3060 C   0  0  0  0  0  2  0  0  0  0  0  0
  -33.2590  -17.0980   18.4970 C   0  0  0  0  0  3  0  0  0  0  0  0
  -34.1320  -17.0300   19.7680 C   0  0  0  0  0  2  0  0  0  0  0  0
  -35.4590  -17.5970   19.4620 N   0  0  0  0  0  0  0  0  0  0  0  0
  -36.8790  -19.3810   19.3180 O   0  0  0  0  0  0  0  0  0  0  0  0
  -35.2250  -19.4020   20.8260 N   0  0  0  0  0  0  0  0  0  0  0  0
  -34.4520  -18.8910   21.2240 H   0  0  0  0  0  0  0  0  0  0  0  0
  -30.6830  -17.0800   18.4540 C   0  0  0  0  0  0  0  0  0  0  0  0
  -29.7710  -16.1170   18.7920 C   0  0  0  0  0  0  0  0  0  0  0  0
  -30.5290  -15.0000   19.2600 C   0  0  0  0  0  0  0  0  0  0  0  0
  -31.9290  -16.5350   18.7260 N   0  0  0  0  0  0  0  0  0  0  0  0
  -31.8240  -15.2920   19.2620 N   0  0  0  0  0  0  0  0  0  0  0  0
  -30.1040  -13.6490   19.6510 C   0  0  0  0  0  0  0  0  0  0  0  0
  -29.8480  -13.3170   20.9990 C   0  0  0  0  0  3  0  0  0  0  0  0
  -29.4220  -12.0170   21.3470 C   0  0  0  0  0  3  0  0  0  0  0  0
  -29.2460  -11.0350   20.3450 C   0  0  0  0  0  0  0  0  0  0  0  0
  -29.5220  -11.3640   19.0060 C   0  0  0  0  0  3  0  0  0  0  0  0
  -29.9510  -12.6570   18.6610 C   0  0  0  0  0  3  0  0  0  0  0  0
  -28.8600   -9.7400   20.5920 O   0  0  0  0  0  0  0  0  0  0  0  0
  -27.6530   -9.4460   21.1740 C   0  0  0  0  0  0  0  0  0  0  0  0
  -26.4320   -9.6170   20.4820 C   0  0  0  0  0  3  0  0  0  0  0  0
  -25.2200   -9.2380   21.0920 C   0  0  0  0  0  3  0  0  0  0  0  0
  -25.2240   -8.6810   22.3840 C   0  0  0  0  0  0  0  0  0  0  0  0
  -26.4380   -8.5050   23.0720 C   0  0  0  0  0  3  0  0  0  0  0  0
  -27.6490   -8.8840   22.4660 C   0  0  0  0  0  0  0  0  0  0  0  0
  -28.8180   -8.6940   23.1230 F   0  0  0  0  0  0  0  0  0  0  0  0
  -24.0600   -8.3090   22.9670 F   0  0  0  0  0  0  0  0  0  0  0  0
  -28.2830  -16.1900   18.6090 C   0  0  0  0  0  0  0  0  0  0  0  0
  -27.5250  -15.4860   19.4440 N   0  0  0  0  0  0  0  0  0  0  0  0
  -27.7790  -16.9110   17.7490 O   0  0  0  0  0  0  0  0  0  0  0  0
  -27.9370  -14.9080   20.1620 H   0  0  0  0  0  0  0  0  0  0  0  0
  -26.5200  -15.5280   19.3650 H   0  0  0  0  0  0  0  0  0  0  0  0
  -30.5630  -18.3620   17.9270 N   0  0  0  0  0  0  0  0  0  0  0  0
  -29.6660  -18.7710   17.6930 H   0  0  0  0  0  0  0  0  0  0  0  0
  -31.3400  -18.9820   17.7360 H   0  0  0  0  0  0  0  0  0  0  0  0
  -28.7580  -24.5840   21.3570 N   0  0  1  0  0  4  0  0  0  0  0  0
  -28.1720  -24.2120   20.6250 H   0  0  0  0  0  0  0  0  0  0  0  0
  -26.3810  -24.7410   22.1450 C   0  0  0  0  0  1  0  0  0  0  0  0
  -27.7800  -25.3860   22.1400 C   0  0  0  0  0  2  0  0  0  0  0  0
  -29.7760  -25.3590   20.5690 C   0  0  0  0  0  2  0  0  0  0  0  0
  -30.3130  -26.6820   21.1920 C   0  0  0  0  0  2  0  0  0  0  0  0
  -30.0980  -27.8350   20.3550 O   0  0  0  0  0  0  0  0  0  0  0  0
  -25.2340  -31.2430   24.2410 C   0  0  0  0  0  0  0  0  0  0  0  0
  -28.8140  -28.3160   20.4160 C   0  0  0  0  0  0  0  0  0  0  0  0
  -24.3770  -29.9520   22.3110 C   0  0  0  0  0  3  0  0  0  0  0  0
  -26.1320  -29.1520   20.6400 C   0  0  0  0  0  0  0  0  0  0  0  0
  -26.7270  -30.9580   22.2680 C   0  0  0  0  0  2  0  0  0  0  0  0
  -27.1330  -29.8080   21.3690 C   0  0  0  0  0  0  0  0  0  0  0  0
  -28.4780  -29.3890   21.2680 C   0  0  0  0  0  3  0  0  0  0  0  0
  -27.8100  -27.7040   19.6390 C   0  0  0  0  0  3  0  0  0  0  0  0
  -26.4640  -28.0960   19.7730 C   0  0  0  0  0  3  0  0  0  0  0  0
  -24.7160  -29.6460   20.8270 C   0  0  0  0  0  2  0  0  0  0  0  0
  -25.4590  -30.7260   23.0000 N   0  0  0  0  0  0  0  0  0  0  0  0
  -24.1320  -31.1230   24.7940 O   0  0  0  0  0  0  0  0  0  0  0  0
  -24.0230  -28.6280   23.0240 C   0  0  0  0  0  0  0  0  0  0  0  0
  -22.8910  -28.0230   22.6300 N   0  0  0  0  0  0  0  0  0  0  0  0
  -24.7700  -28.1550   23.8860 O   0  0  0  0  0  0  0  0  0  0  0  0
  -22.3280  -28.4840   21.9290 H   0  0  0  0  0  0  0  0  0  0  0  0
  -20.3490  -25.5030   22.1220 C   0  0  0  0  0  0  0  0  0  0  0  0
  -22.3790  -26.7470   23.1300 C   0  0  0  0  0  3  0  0  0  0  0  0
  -23.2320  -25.5660   22.6140 C   0  0  0  0  0  2  0  0  0  0  0  0
  -22.6840  -24.9400   21.3260 C   0  0  0  0  0  2  0  0  0  0  0  0
  -21.2550  -24.4310   21.5390 C   0  0  0  0  0  2  0  0  0  0  0  0
  -20.8780  -26.5980   22.8550 C   0  0  0  0  0  0  0  0  0  0  0  0
  -19.9940  -27.5840   23.3450 C   0  0  0  0  0  3  0  0  0  0  0  0
  -18.6080  -27.4850   23.1160 C   0  0  0  0  0  3  0  0  0  0  0  0
  -18.0890  -26.3890   22.4040 C   0  0  0  0  0  3  0  0  0  0  0  0
  -18.9580  -25.4020   21.9110 C   0  0  0  0  0  3  0  0  0  0  0  0
  -26.3400  -32.0290   25.0130 C   0  0  0  0  0  3  0  0  0  0  0  0
  -25.9180  -33.4340   25.0820 N   0  0  0  0  0  0  0  0  0  0  0  0
  -26.3030  -34.3850   24.2200 C   0  0  0  0  0  0  0  0  0  0  0  0
  -27.1170  -34.1800   23.3150 O   0  0  0  0  0  0  0  0  0  0  0  0
  -25.2110  -33.6620   25.7640 H   0  0  0  0  0  0  0  0  0  0  0  0
  -24.5260  -35.9580   23.3870 C   0  0  0  0  0  1  0  0  0  0  0  0
  -25.6830  -35.7870   24.3830 C   0  0  0  0  0  3  0  0  0  0  0  0
  -27.7210  -36.8750   25.2140 C   0  0  0  0  0  1  0  0  0  0  0  0
  -26.6590  -36.8850   24.2110 N   0  0  0  0  0  0  0  0  0  0  0  0
  -26.1960  -37.7880   24.2470 H   0  0  0  0  0  0  0  0  0  0  0  0
  -26.6160  -31.4580   26.4590 C   0  0  1  0  0  0  0  0  0  0  0  0
  -25.3320  -31.1620   27.2690 C   0  0  0  0  0  1  0  0  0  0  0  0
  -27.4360  -30.1490   26.3840 C   0  0  0  0  0  1  0  0  0  0  0  0
  -27.4700  -32.4640   27.2670 C   0  0  0  0  0  1  0  0  0  0  0  0
  -31.1270  -20.0150   23.7220 O   0  0  0  0  0  0  0  0  0  0  0  0
  -31.1640  -19.2720   23.1250 H   0  0  0  0  0  0  0  0  0  0  0  0
  1  2  2  0
  2108  1  0
  2  4  1  0
  3  1  1  0
  3  6  1  0
  5  4  1  0
  6 61  1  0
  6  5  1  0
  7  8  2  0
  7  1  1  0
  9  7  1  0
 10 13  1  0
 11 14  1  0
 11 10  2  0
 13 12  2  0
 13 17  1  0
 14 15  2  0
 15  9  1  0
 15 12  1  0
 16 14  1  0
 17 18  1  0
 17 22  1  0
 18 21  1  0
 18 19  1  0
 20 18  1  0
 23 31  1  0
 24 29  1  0
 25 26  1  0
 25 24  1  0
 27 26  1  0
 27 36  1  0
 27 28  1  0
 29 28  1  0
 29 23  1  0
 30 23  2  0
 31 32  1  0
 31 22  1  0
 33 36  1  0
 33 34  2  0
 34 35  1  0
 35 37  2  0
 35 38  1  0
 36 37  1  0
 38 39  1  0
 39 40  2  0
 41 44  1  0
 41 40  1  0
 42 41  2  0
 43 42  1  0
 43 38  2  0
 44 45  1  0
 45 50  1  0
 46 47  1  0
 46 45  2  0
 47 48  2  0
 48 52  1  0
 48 49  1  0
 50 49  2  0
 50 51  1  0
 53 34  1  0
 53 54  1  0
 54 56  1  0
 55 53  2  0
 57 54  1  0
 58 33  1  0
 59 58  1  0
 60 58  1  0
 61 64  1  0
 61 62  1  6
 64 63  1  0
 65 66  1  0
 65 61  1  0
 67 69  1  0
 67 66  1  0
 68 79  2  0
 69 74  1  0
 70 78  1  0
 70 80  1  0
 71 77  1  0
 71 73  1  0
 72 78  1  0
 73 72  1  0
 74 73  2  0
 75 76  1  0
 75 69  2  0
 76 71  2  0
 77 70  1  0
 78 68  1  0
 80 82  2  0
 81 80  1  0
 83 81  1  0
 84 89  1  0
 85 81  1  0
 86 85  1  0
 87 88  1  0
 87 86  1  0
 88 84  1  0
 89 85  1  0
 89 90  2  0
 91 90  1  0
 92 91  2  0
 93 84  2  0
 93 92  1  0
 94 68  1  0
 94 95  1  0
 94104  1  0
 95 98  1  0
 96100  1  0
 96 95  1  0
 97 96  2  0
100 99  1  0
102103  1  0
102100  1  0
102101  1  0
104107  1  1
104105  1  0
106104  1  0
109108  1  0
M  ISO  4  23 100  31 100  66 101  67 101
M  END
>  <TORSDO>  (10) 
F 27

>  <SCORE>  (10) 
-4.893

>  <name>  (10) 
10

>  <ligand_id>  (10) 
10

>  <original_smiles>  (10) 
[H]OC1=C(C(=O)C([H])([H])c2c([H])c(C([H])(C([H])([H])N([H])C(=O)N3C([H])([H])C([H])([H])C([H])([H])C([H])(n4nc(-c5c([H])c([H])c(Oc6c([H])c([H])c(F)c([H])c6F)c([H])c5[H])c(C(=O)N([H])[H])c4N([H])[H])C3([H])[H])[N+]([H])([H])[H])c([H])c([H])c2C([H])([H])[H])C([H])([H])C([H])([N+]([H])(C([H])([H])C([H])([H])[H])C([H])([H])C([H])([H])Oc2c([H])c([H])c3c(c2[H])C([H])([H])N(C(=O)C([H])(N([H])C(=O)C([H])(N([H])C([H])([H])[H])C([H])([H])[H])C(C([H])([H])[H])(C([H])([H])[H])C([H])([H])[H])C([H])(C(=O)N([H])C2([H])c4c([H])c([H])c([H])c([H])c4C([H])([H])C([H])([H])C2([H])[H])C3([H])[H])C([H])([H])C1([H])[H]

>  <smiles>  (10) 
[H]OC1=C(C(=O)C([H])([H])c2c([H])c(C([H])(C([H])([H])N([H])C(=O)N3C([H])([H])C([H])([H])C([H])([H])C([H])(n4nc(-c5c([H])c([H])c(Oc6c([H])c([H])c(F)c([H])c6F)c([H])c5[H])c(C(=O)N([H])[H])c4N([H])[H])C3([H])[H])[N+]([H])([H])[H])c([H])c([H])c2C([H])([H])[H])C([H])([H])C([H])([N+]([H])(C([H])([H])C([H])([H])[H])C([H])([H])C([H])([H])Oc2c([H])c([H])c3c(c2[H])C([H])([H])N(C(=O)C([H])(N([H])C(=O)C([H])(N([H])C([H])([H])[H])C([H])([H])[H])C(C([H])([H])[H])(C([H])([H])[H])C([H])([H])[H])C([H])(C(=O)N([H])C2([H])c4c([H])c([H])c([H])c([H])c4C([H])([H])C([H])([H])C2([H])[H])C3([H])[H])C([H])([H])C1([H])[H]

$$$$
12:0:0
     RDKit          3D

102110  0  0  1  0  0  0  0  0999 V2000
  -27.6710  -21.7870   15.8720 C   0  0  0  0  0  3  0  0  0  0  0  0
  -27.7710  -22.6880   18.1310 C   0  0  0  0  0  3  0  0  0  0  0  0
  -26.7980  -20.7730   16.3130 C   0  0  0  0  0  3  0  0  0  0  0  0
  -26.8860  -21.6890   18.5660 C   0  0  0  0  0  3  0  0  0  0  0  0
  -28.1870  -22.7350   16.7810 C   0  0  0  0  0  0  0  0  0  0  0  0
  -26.4030  -20.7110   17.6710 C   0  0  0  0  0  0  0  0  0  0  0  0
  -29.1450  -23.7940   16.3190 C   0  0  0  0  0  0  0  0  0  0  0  0
  -30.0400  -24.1650   17.2420 N   0  0  0  0  0  0  0  0  0  0  0  0
  -29.1190  -24.2380   15.1690 O   0  0  0  0  0  0  0  0  0  0  0  0
  -30.0050  -23.6600   18.1180 H   0  0  0  0  0  0  0  0  0  0  0  0
  -31.0300  -25.2250   17.1130 C   0  0  0  0  0  2  0  0  0  0  0  0
  -30.5560  -26.5330   17.7750 C   0  0  0  0  0  2  0  0  0  0  0  0
  -29.9770  -26.3440   19.1880 C   0  0  0  0  0  2  0  0  0  0  0  0
  -29.5020  -27.5950   19.6710 O   0  0  0  0  0  0  0  0  0  0  0  0
  -24.4740  -31.4440   22.8060 C   0  0  0  0  0  0  0  0  0  0  0  0
  -28.1780  -27.9680   19.5840 C   0  0  0  0  0  0  0  0  0  0  0  0
  -23.6810  -29.9590   20.9930 C   0  0  0  0  0  3  0  0  0  0  0  0
  -25.4990  -28.8890   19.5570 C   0  0  0  0  0  0  0  0  0  0  0  0
  -26.0680  -30.8650   20.9830 C   0  0  0  0  0  2  0  0  0  0  0  0
  -26.4780  -29.6020   20.2560 C   0  0  0  0  0  0  0  0  0  0  0  0
  -27.8090  -29.1420   20.2730 C   0  0  0  0  0  3  0  0  0  0  0  0
  -27.1770  -27.2570   18.8770 C   0  0  0  0  0  3  0  0  0  0  0  0
  -25.8420  -27.7130   18.8680 C   0  0  0  0  0  3  0  0  0  0  0  0
  -24.0960  -29.4510   19.5850 C   0  0  0  0  0  2  0  0  0  0  0  0
  -24.7520  -30.7700   21.6550 N   0  0  0  0  0  0  0  0  0  0  0  0
  -23.3350  -31.4350   23.2950 O   0  0  0  0  0  0  0  0  0  0  0  0
  -23.2220  -28.7490   21.8360 C   0  0  0  0  0  0  0  0  0  0  0  0
  -22.0100  -28.2470   21.5490 N   0  0  0  0  0  0  0  0  0  0  0  0
  -23.9580  -28.2600   22.6990 O   0  0  0  0  0  0  0  0  0  0  0  0
  -21.4640  -28.7040   20.8310 H   0  0  0  0  0  0  0  0  0  0  0  0
  -19.0720  -26.1440   21.5250 C   0  0  0  0  0  0  0  0  0  0  0  0
  -21.3870  -27.0860   22.1840 C   0  0  0  0  0  3  0  0  0  0  0  0
  -21.9700  -25.7680   21.6250 C   0  0  0  0  0  2  0  0  0  0  0  0
  -21.1620  -25.2010   20.4530 C   0  0  0  0  0  2  0  0  0  0  0  0
  -19.7160  -24.9290   20.8790 C   0  0  0  0  0  2  0  0  0  0  0  0
  -19.8580  -27.1650   22.1240 C   0  0  0  0  0  0  0  0  0  0  0  0
  -19.2110  -28.2910   22.6770 C   0  0  0  0  0  3  0  0  0  0  0  0
  -17.8090  -28.4060   22.6440 C   0  0  0  0  0  3  0  0  0  0  0  0
  -17.0350  -27.3870   22.0640 C   0  0  0  0  0  3  0  0  0  0  0  0
  -17.6660  -26.2570   21.5120 C   0  0  0  0  0  3  0  0  0  0  0  0
  -25.5610  -32.2770   23.5520 C   0  0  0  0  0  3  0  0  0  0  0  0
  -24.9770  -33.5860   23.8710 N   0  0  0  0  0  0  0  0  0  0  0  0
  -25.1860  -34.7040   23.1620 C   0  0  0  0  0  0  0  0  0  0  0  0
  -25.9600  -34.7540   22.2010 O   0  0  0  0  0  0  0  0  0  0  0  0
  -24.2910  -33.6070   24.6110 H   0  0  0  0  0  0  0  0  0  0  0  0
  -23.2050  -36.1660   22.6570 C   0  0  0  0  0  1  0  0  0  0  0  0
  -24.4120  -35.9680   23.5860 C   0  0  0  0  0  3  0  0  0  0  0  0
  -26.2660  -37.1900   24.6340 C   0  0  0  0  0  1  0  0  0  0  0  0
  -25.2430  -37.1910   23.5890 N   0  0  0  0  0  0  0  0  0  0  0  0
  -24.6670  -38.0180   23.7130 H   0  0  0  0  0  0  0  0  0  0  0  0
  -26.0990  -31.5720   24.8580 C   0  0  1  0  0  0  0  0  0  0  0  0
  -24.9800  -31.1140   25.8220 C   0  0  0  0  0  1  0  0  0  0  0  0
  -26.9500  -30.3320   24.4960 C   0  0  0  0  0  1  0  0  0  0  0  0
  -27.0310  -32.5370   25.6290 C   0  0  0  0  0  1  0  0  0  0  0  0
  -24.7670  -18.7820   17.1290 C   0  0  0  0  0  1  0  0  0  0  0  0
  -25.4890  -19.6060   18.2120 C   0  0  0  0  0  3  0  0  0  0  0  0
  -26.2140  -18.6890   19.2270 C   0  0  0  0  0  2  0  0  0  0  0  0
  -27.5880  -18.1320   18.7760 C   0  0  0  0  0  2  0  0  0  0  0  0
  -28.3200  -17.5440   19.9170 N   0  0  0  0  0  4  0  0  0  0  0  0
  -28.4100  -18.2710   20.6070 H   0  0  0  0  0  0  0  0  0  0  0  0
  -27.7730  -16.7970   20.3430 H   0  0  0  0  0  0  0  0  0  0  0  0
  -29.6780  -17.0400   19.6170 C   0  0  0  0  0  2  0  0  0  0  0  0
  -30.4940  -16.8550   20.9160 C   0  0  0  0  0  2  0  0  0  0  0  0
  -31.7780  -16.0030   20.7700 C   0  0  0  0  0  2  0  0  0  0  0  0
  -31.9580  -13.7420   19.6630 C   0  0  0  0  0  0  0  0  0  0  0  0
  -31.1150  -12.0800   18.0530 C   0  0  0  0  0  2  0  0  0  0  0  0
  -30.0940  -12.7890   17.1360 C   0  0  0  0  0  2  0  0  0  0  0  0
  -28.6860  -12.8470   17.7740 C   0  0  0  0  0  2  0  0  0  0  0  0
  -28.7210  -13.3250   19.2490 C   0  0  0  0  0  3  0  0  0  0  0  0
  -29.7880  -12.5310   20.0300 C   0  0  0  0  0  2  0  0  0  0  0  0
  -31.0850  -12.7490   19.3580 N   0  0  0  0  0  0  0  0  0  0  0  0
  -33.0150  -13.9460   19.0580 O   0  0  0  0  0  0  0  0  0  0  0  0
  -31.4490  -14.5940   20.5670 N   0  0  0  0  0  0  0  0  0  0  0  0
  -30.6120  -14.2640   21.0190 H   0  0  0  0  0  0  0  0  0  0  0  0
  -26.5660  -14.2760   20.2960 C   0  0  0  0  0  0  0  0  0  0  0  0
  -25.4340  -13.6610   20.7540 C   0  0  0  0  0  0  0  0  0  0  0  0
  -25.6430  -12.2610   20.5590 C   0  0  0  0  0  0  0  0  0  0  0  0
  -27.4080  -13.2540   19.8780 N   0  0  0  0  0  0  0  0  0  0  0  0
  -26.8560  -12.0340   20.0820 N   0  0  0  0  0  0  0  0  0  0  0  0
  -24.7390  -11.1240   20.7450 C   0  0  0  0  0  0  0  0  0  0  0  0
  -25.0960  -10.0280   21.5620 C   0  0  0  0  0  3  0  0  0  0  0  0
  -24.2050   -8.9510   21.7350 C   0  0  0  0  0  3  0  0  0  0  0  0
  -22.9410   -8.9640   21.0980 C   0  0  0  0  0  0  0  0  0  0  0  0
  -22.6010  -10.0480   20.2680 C   0  0  0  0  0  3  0  0  0  0  0  0
  -23.4910  -11.1200   20.0910 C   0  0  0  0  0  3  0  0  0  0  0  0
  -22.0180   -7.9500   21.1890 O   0  0  0  0  0  0  0  0  0  0  0  0
  -21.9010   -7.1900   22.3250 C   0  0  0  0  0  0  0  0  0  0  0  0
  -21.6560   -7.7690   23.5890 C   0  0  0  0  0  3  0  0  0  0  0  0
  -21.4800   -6.9450   24.7180 C   0  0  0  0  0  3  0  0  0  0  0  0
  -21.5270   -5.5450   24.5820 C   0  0  0  0  0  0  0  0  0  0  0  0
  -21.7640   -4.9650   23.3220 C   0  0  0  0  0  3  0  0  0  0  0  0
  -21.9480   -5.7870   22.1960 C   0  0  0  0  0  0  0  0  0  0  0  0
  -22.1530   -5.2250   20.9810 F   0  0  0  0  0  0  0  0  0  0  0  0
  -21.3470   -4.7560   25.6660 F   0  0  0  0  0  0  0  0  0  0  0  0
  -24.1900  -14.3310   21.2640 C   0  0  0  0  0  0  0  0  0  0  0  0
  -23.4850  -13.6980   22.1920 N   0  0  0  0  0  0  0  0  0  0  0  0
  -23.8720  -15.4570   20.8780 O   0  0  0  0  0  0  0  0  0  0  0  0
  -23.7540  -12.7870   22.5300 H   0  0  0  0  0  0  0  0  0  0  0  0
  -22.6590  -14.1320   22.5780 H   0  0  0  0  0  0  0  0  0  0  0  0
  -26.9540  -15.6130   20.2110 N   0  0  0  0  0  0  0  0  0  0  0  0
  -26.1940  -16.1790   20.5770 H   0  0  0  0  0  0  0  0  0  0  0  0
  -27.7530  -15.7080   20.8280 H   0  0  0  0  0  0  0  0  0  0  0  0
  1  3  2  0
  1  5  1  0
  2  4  1  0
  3  6  1  0
  5  2  2  0
  6 56  1  0
  6  4  2  0
  7  5  1  0
  7  8  1  0
  8 10  1  0
  9  7  2  0
 11  8  1  0
 11 12  1  0
 12 13  1  0
 13 14  1  0
 15 26  2  0
 16 14  1  0
 16 21  1  0
 17 25  1  0
 17 27  1  0
 18 24  1  0
 18 20  1  0
 19 25  1  0
 20 21  2  0
 20 19  1  0
 22 16  2  0
 23 22  1  0
 23 18  2  0
 24 17  1  0
 25 15  1  0
 27 29  2  0
 28 27  1  0
 30 28  1  0
 31 36  1  0
 32 28  1  0
 33 32  1  0
 34 35  1  0
 34 33  1  0
 35 31  1  0
 36 32  1  0
 36 37  2  0
 38 37  1  0
 39 38  2  0
 40 31  2  0
 40 39  1  0
 41 15  1  0
 41 42  1  0
 41 51  1  0
 42 45  1  0
 43 47  1  0
 43 42  1  0
 44 43  2  0
 47 46  1  0
 47 49  1  0
 49 50  1  0
 49 48  1  0
 51 54  1  1
 51 52  1  0
 53 51  1  0
 56 55  1  0
 56 57  1  0
 58 57  1  0
 58 59  1  0
 59 61  1  0
 59 60  1  0
 62 59  1  0
 62 63  1  0
 64 63  1  0
 65 73  1  0
 66 71  1  0
 67 68  1  0
 67 66  1  0
 69 68  1  0
 69 78  1  0
 69 70  1  0
 71 65  1  0
 71 70  1  0
 72 65  2  0
 73 64  1  0
 73 74  1  0
 75 76  2  0
 76 95  1  0
 77 80  1  0
 77 76  1  0
 78 79  1  0
 78 75  1  0
 79 77  2  0
 80 81  1  0
 81 82  2  0
 83 86  1  0
 83 82  1  0
 84 83  2  0
 85 84  1  0
 85 80  2  0
 86 87  1  0
 87 88  1  0
 88 89  2  0
 90 89  1  0
 90 94  1  0
 91 90  2  0
 92 87  2  0
 92 91  1  0
 93 92  1  0
 95 96  1  0
 96 98  1  0
 96 99  1  0
 97 95  2  0
100 75  1  0
100101  1  0
100102  1  0
M  ISO  4  13 101  14 101  65 100  73 100
M  END
>  <TORSDO>  (11) 
F 27

>  <SCORE>  (11) 
-0.447

>  <name>  (11) 
12

>  <ligand_id>  (11) 
12

>  <original_smiles>  (11) 
[H]c1c([H])c([H])c2c(c1[H])C([H])([H])C([H])([H])C([H])([H])C2([H])N([H])C(=O)C1([H])N(C(=O)C([H])(N([H])C(=O)C([H])(N([H])C([H])([H])[H])C([H])([H])[H])C(C([H])([H])[H])(C([H])([H])[H])C([H])([H])[H])C([H])([H])c2c([H])c(OC([H])([H])C([H])([H])C([H])([H])N([H])C(=O)c3c([H])c([H])c(C([H])(C([H])([H])[H])C([H])([H])C([H])([H])[N+]([H])([H])C([H])([H])C([H])([H])C([H])([H])N([H])C(=O)N4C([H])([H])C([H])([H])C([H])([H])C([H])(n5nc(-c6c([H])c([H])c(Oc7c([H])c([H])c(F)c([H])c7F)c([H])c6[H])c(C(=O)N([H])[H])c5N([H])[H])C4([H])[H])c([H])c3[H])c([H])c([H])c2C1([H])[H]

>  <smiles>  (11) 
[H]c1c([H])c([H])c2c(c1[H])C([H])([H])C([H])([H])C([H])([H])C2([H])N([H])C(=O)C1([H])N(C(=O)C([H])(N([H])C(=O)C([H])(N([H])C([H])([H])[H])C([H])([H])[H])C(C([H])([H])[H])(C([H])([H])[H])C([H])([H])[H])C([H])([H])c2c([H])c(OC([H])([H])C([H])([H])C([H])([H])N([H])C(=O)c3c([H])c([H])c(C([H])(C([H])([H])[H])C([H])([H])C([H])([H])[N+]([H])([H])C([H])([H])C([H])([H])C([H])([H])N([H])C(=O)N4C([H])([H])C([H])([H])C([H])([H])C([H])(n5nc(-c6c([H])c([H])c(Oc7c([H])c([H])c(F)c([H])c7F)c([H])c6[H])c(C(=O)N([H])[H])c5N([H])[H])C4([H])[H])c([H])c3[H])c([H])c([H])c2C1([H])[H]

$$$$
13:0:0
     RDKit          3D

116117  0  0  1  0  0  0  0  0999 V2000
  -24.9190  -23.6080   18.3520 C   0  0  0  0  0  2  0  0  0  0  0  0
  -24.8340  -21.2950   18.7960 C   0  0  0  0  0  3  0  0  0  0  0  0
  -27.0430  -22.0870   18.4430 C   0  0  0  0  0  2  0  0  0  0  0  0
  -23.9310  -22.6730   18.4710 C   0  0  0  0  0  0  0  0  0  0  0  0
  -26.2920  -23.2820   18.0750 C   0  0  0  0  0  3  0  0  0  0  0  0
  -26.4610  -20.8630   18.9280 C   0  0  0  0  0  2  0  0  0  0  0  0
  -28.6030  -20.0760   20.4900 C   0  0  0  0  0  1  0  0  0  0  0  0
  -27.6300  -19.3490   19.5660 C   0  0  0  0  0  1  0  0  0  0  0  0
  -29.7840  -16.6130   19.3940 C   0  0  0  0  0  0  0  0  0  0  0  0
  -30.7000  -14.0460   18.8920 C   0  0  0  0  0  2  0  0  0  0  0  0
  -29.9270  -13.2290   17.8170 C   0  0  0  0  0  2  0  0  0  0  0  0
  -28.5440  -12.7820   18.3470 C   0  0  0  0  0  2  0  0  0  0  0  0
  -27.9240  -13.8790   19.2350 C   0  0  0  0  0  3  0  0  0  0  0  0
  -28.8760  -14.3820   20.3040 C   0  0  0  0  0  2  0  0  0  0  0  0
  -29.7820  -15.1430   19.4850 N   0  0  0  0  0  0  0  0  0  0  0  0
  -31.0290  -16.8300   19.3010 O   0  0  0  0  0  0  0  0  0  0  0  0
  -28.5000  -17.6610   19.2650 N   0  0  0  0  0  2  0  0  0  0  0  0
  -27.7720  -17.0770   18.8880 H   0  0  0  0  0  0  0  0  0  0  0  0
  -25.6990  -14.4880   20.1940 C   0  0  0  0  0  0  0  0  0  0  0  0
  -24.6570  -13.7320   20.6280 C   0  0  0  0  0  0  0  0  0  0  0  0
  -25.0910  -12.3700   20.5390 C   0  0  0  0  0  0  0  0  0  0  0  0
  -26.6700  -13.5780   19.8340 N   0  0  0  0  0  0  0  0  0  0  0  0
  -26.3480  -12.3030   20.1290 N   0  0  0  0  0  0  0  0  0  0  0  0
  -24.3640  -11.1270   20.7530 C   0  0  0  0  0  0  0  0  0  0  0  0
  -24.8190  -10.1480   21.6630 C   0  0  0  0  0  3  0  0  0  0  0  0
  -24.0790   -8.9640   21.8570 C   0  0  0  0  0  3  0  0  0  0  0  0
  -22.8750   -8.7570   21.1450 C   0  0  0  0  0  0  0  0  0  0  0  0
  -22.4430   -9.7240   20.2240 C   0  0  0  0  0  3  0  0  0  0  0  0
  -23.1810  -10.9000   20.0240 C   0  0  0  0  0  3  0  0  0  0  0  0
  -22.0970   -7.6290   21.2600 O   0  0  0  0  0  0  0  0  0  0  0  0
  -21.9810   -6.9540   22.4480 C   0  0  0  0  0  0  0  0  0  0  0  0
  -21.5150   -7.5840   23.6210 C   0  0  0  0  0  3  0  0  0  0  0  0
  -21.3470   -6.8360   24.8030 C   0  0  0  0  0  3  0  0  0  0  0  0
  -21.6340   -5.4550   24.8090 C   0  0  0  0  0  0  0  0  0  0  0  0
  -22.0960   -4.8270   23.6380 C   0  0  0  0  0  3  0  0  0  0  0  0
  -22.2660   -5.5750   22.4610 C   0  0  0  0  0  0  0  0  0  0  0  0
  -22.6910   -4.9610   21.3280 F   0  0  0  0  0  0  0  0  0  0  0  0
  -21.4660   -4.7330   25.9390 F   0  0  0  0  0  0  0  0  0  0  0  0
  -23.2990  -14.2420   20.9960 C   0  0  0  0  0  0  0  0  0  0  0  0
  -22.6390  -13.5860   21.9380 N   0  0  0  0  0  0  0  0  0  0  0  0
  -22.8410  -15.2600   20.4780 O   0  0  0  0  0  0  0  0  0  0  0  0
  -23.0260  -12.7630   22.3730 H   0  0  0  0  0  0  0  0  0  0  0  0
  -21.7290  -13.9120   22.2370 H   0  0  0  0  0  0  0  0  0  0  0  0
  -25.8960  -15.8590   20.0440 N   0  0  0  0  0  0  0  0  0  0  0  0
  -25.1810  -16.5440   20.2650 H   0  0  0  0  0  0  0  0  0  0  0  0
  -26.7660  -16.2660   19.7500 H   0  0  0  0  0  0  0  0  0  0  0  0
  -22.1940  -23.5230   18.1750 C   0  0  0  0  0  2  0  0  0  0  0  0
  -21.4810  -22.6740   17.6330 O   0  0  0  0  0  1  0  0  0  0  0  0
  -21.0710  -25.3470   18.4200 C   0  0  0  0  0  2  0  0  0  0  0  0
  -20.3170  -26.4790   17.3890 N   0  0  0  0  0  2  0  0  0  0  0  0
  -20.9980  -25.6970   19.5950 O   0  0  0  0  0  1  0  0  0  0  0  0
  -19.7720  -27.1490   17.9150 H   0  0  0  0  0  0  0  0  0  0  0  0
  -20.1180  -26.6230   14.8390 C   0  0  0  0  0  1  0  0  0  0  0  0
  -21.1330  -27.0570   13.6230 C   0  0  0  0  0  2  0  0  0  0  0  0
  -22.5820  -26.4560   13.4730 C   0  0  0  0  0  2  0  0  0  0  0  0
  -23.6010  -27.5170   13.4810 N   0  0  0  0  0  4  0  0  0  0  0  0
  -23.5120  -28.1920   12.7390 H   0  0  0  0  0  0  0  0  0  0  0  0
  -24.5200  -27.1170   13.4780 H   0  0  0  0  0  0  0  0  0  0  0  0
  -23.4830  -28.0180   14.3480 H   0  0  0  0  0  0  0  0  0  0  0  0
  -26.8350  -24.2680   17.0540 C   0  0  0  0  0  2  0  0  0  0  0  0
  -25.9400  -25.2630   16.2400 C   0  0  0  0  0  2  0  0  0  0  0  0
  -26.6400  -26.4260   15.6960 N   0  0  0  0  0  4  0  0  0  0  0  0
  -25.9820  -27.1840   15.8550 H   0  0  0  0  0  0  0  0  0  0  0  0
  -26.6760  -26.2760   14.7020 H   0  0  0  0  0  0  0  0  0  0  0  0
  -28.0760  -28.3640   15.8870 C   0  0  0  0  0  1  0  0  0  0  0  0
  -27.9900  -26.8610   16.2340 C   0  0  0  0  0  3  0  0  0  0  0  0
  -28.9450  -25.2070   14.4420 C   0  0  0  0  0  1  0  0  0  0  0  0
  -29.2610  -26.1060   15.6820 C   0  0  0  0  0  3  0  0  0  0  0  0
  -31.2030  -24.4820   16.0850 C   0  0  0  0  0  1  0  0  0  0  0  0
  -30.5410  -25.7750   16.6300 C   0  0  0  0  0  3  0  0  0  0  0  0
  -30.4380  -25.5710   18.1450 N   0  0  0  0  0  4  0  0  0  0  0  0
  -29.5340  -25.1960   18.3690 H   0  0  0  0  0  0  0  0  0  0  0  0
  -31.0640  -24.7880   18.2700 H   0  0  0  0  0  0  0  0  0  0  0  0
  -30.8830  -26.5890   19.1990 C   0  0  0  0  0  3  0  0  0  0  0  0
  -30.9910  -26.0250   20.7170 C   0  0  0  0  0  3  0  0  0  0  0  0
  -31.1400  -26.8770   21.9320 O   0  0  0  0  0  0  0  0  0  0  0  0
  -28.1720  -31.9610   26.3650 C   0  0  0  0  0  0  0  0  0  0  0  0
  -30.1540  -27.8110   22.2660 C   0  0  0  0  0  0  0  0  0  0  0  0
  -26.8810  -31.1140   24.4740 C   0  0  0  0  0  3  0  0  0  0  0  0
  -28.1160  -29.7260   22.7490 C   0  0  0  0  0  0  0  0  0  0  0  0
  -29.4560  -31.0320   24.3960 C   0  0  0  0  0  2  0  0  0  0  0  0
  -29.3270  -29.8410   23.4490 C   0  0  0  0  0  0  0  0  0  0  0  0
  -30.3620  -28.8670   23.2160 C   0  0  0  0  0  3  0  0  0  0  0  0
  -28.9100  -27.7410   21.6180 C   0  0  0  0  0  3  0  0  0  0  0  0
  -27.9220  -28.7000   21.8250 C   0  0  0  0  0  3  0  0  0  0  0  0
  -27.0200  -30.7060   22.9890 C   0  0  0  0  0  2  0  0  0  0  0  0
  -28.1930  -31.4010   25.1210 N   0  0  0  0  0  0  0  0  0  0  0  0
  -27.1110  -32.2930   26.9170 O   0  0  0  0  0  0  0  0  0  0  0  0
  -26.1710  -29.9400   25.1940 C   0  0  0  0  0  0  0  0  0  0  0  0
  -25.1090  -29.4360   24.6440 N   0  0  0  0  0  0  0  0  0  0  0  0
  -26.5940  -29.4310   26.2220 O   0  0  0  0  0  0  0  0  0  0  0  0
  -24.7400  -29.9050   23.8290 H   0  0  0  0  0  0  0  0  0  0  0  0
  -22.6480  -27.6000   22.7360 C   0  0  0  0  0  0  0  0  0  0  0  0
  -24.2310  -28.4460   25.2240 C   0  0  0  0  0  2  0  0  0  0  0  0
  -24.8330  -26.4470   25.8850 C   0  0  0  0  0 15  0  0  0  0  0  0
  -24.2240  -24.8960   24.2090 C   0  0  0  0  0 15  0  0  0  0  0  0
  -23.1950  -25.8260   22.6820 C   0  0  0  0  0  1  0  0  0  0  0  0
  -23.0990  -28.6940   23.8130 C   0  0  0  0  0  0  0  0  0  0  0  0
  -22.1810  -29.7900   24.0300 C   0  0  0  0  0  3  0  0  0  0  0  0
  -20.8960  -29.8910   23.4680 C   0  0  0  0  0  3  0  0  0  0  0  0
  -20.4300  -28.8780   22.6200 C   0  0  0  0  0  3  0  0  0  0  0  0
  -21.2810  -27.7960   22.2750 C   0  0  0  0  0  3  0  0  0  0  0  0
  -29.4950  -32.2120   27.1640 C   0  0  0  0  0  3  0  0  0  0  0  0
  -29.6940  -33.6670   27.2100 N   0  0  0  0  0  0  0  0  0  0  0  0
  -30.6190  -34.3370   26.5060 C   0  0  0  0  0  0  0  0  0  0  0  0
  -31.4300  -33.7650   25.7760 O   0  0  0  0  0  0  0  0  0  0  0  0
  -29.0490  -34.2140   27.7550 H   0  0  0  0  0  0  0  0  0  0  0  0
  -30.0590  -36.4880   25.3070 C   0  0  0  0  0  1  0  0  0  0  0  0
  -30.6240  -35.8760   26.6030 C   0  0  0  0  0  3  0  0  0  0  0  0
  -32.4850  -36.1030   28.1960 C   0  0  0  0  0  1  0  0  0  0  0  0
  -31.9680  -36.4370   26.8740 N   0  0  0  0  0  0  0  0  0  0  0  0
  -31.9730  -37.4500   26.7720 H   0  0  0  0  0  0  0  0  0  0  0  0
  -29.4740  -31.6190   28.6360 C   0  0  1  0  0  0  0  0  0  0  0  0
  -28.2330  -32.0340   29.4640 C   0  0  0  0  0  1  0  0  0  0  0  0
  -29.5150  -30.0700   28.6130 C   0  0  0  0  0  1  0  0  0  0  0  0
  -30.7420  -32.0750   29.4010 C   0  0  0  0  0  1  0  0  0  0  0  0
  1  4  1  0
  2  6  1  0
  3  6  1  0
  4  2  2  0
  5 60  1  0
  5  1  1  0
  5  3  1  0
  8  7  1  0
  9 15  1  0
 10 15  1  0
 11 12  1  0
 11 10  1  0
 13 12  1  0
 13 22  1  0
 13 14  1  0
 15 14  1  0
 16  9  2  0
 17  9  1  0
 18 17  1  0
 19 20  2  0
 20 39  1  0
 21 20  1  0
 21 24  1  0
 22 23  1  0
 22 19  1  0
 23 21  2  0
 24 25  1  0
 25 26  2  0
 27 30  1  0
 27 26  1  0
 28 27  2  0
 29 28  1  0
 29 24  2  0
 30 31  1  0
 31 36  2  0
 31 32  1  0
 32 33  2  0
 33 34  1  0
 34 38  1  0
 35 34  2  0
 36 35  1  0
 37 36  1  0
 39 40  1  0
 40 43  1  0
 40 42  1  0
 41 39  2  0
 44 19  1  0
 44 45  1  0
 46 44  1  0
 47  4  1  0
 48 47  1  0
 49 51  1  0
 50 52  1  0
 50 49  1  0
 54 53  1  0
 55 56  1  0
 55 54  1  0
 56 59  1  0
 57 56  1  0
 58 56  1  0
 61 60  1  0
 62 63  1  0
 62 66  1  0
 62 61  1  0
 64 62  1  0
 66 65  1  0
 68 67  1  0
 68 66  1  0
 68 70  1  0
 70 69  1  0
 70 71  1  0
 71 73  1  0
 71 72  1  0
 71 74  1  0
 74 75  2  0
 75 76  1  0
 76 78  1  0
 77 88  2  0
 78 83  1  0
 79 87  1  0
 79 89  1  0
 80 86  1  0
 80 82  1  0
 81 87  1  0
 82 81  1  0
 83 82  2  0
 84 85  1  0
 84 78  2  0
 85 80  2  0
 86 79  1  0
 87 77  1  0
 89 91  2  0
 90 89  1  0
 90 94  1  0
 92 90  1  0
 93 98  1  0
 97 93  1  0
 98 99  2  0
 98 94  1  0
100 99  1  0
101100  2  0
102101  1  0
102 93  2  0
103 77  1  0
103104  1  0
103113  1  0
104107  1  0
105109  1  0
105104  1  0
106105  2  0
109108  1  0
109111  1  0
111110  1  0
112111  1  0
113116  1  1
113114  1  0
115113  1  0
M  ISO  4   9 100  17 100  75 101  76 101
M  END
>  <TORSDO>  (12) 
F 32

>  <SCORE>  (12) 
-9.261

>  <name>  (12) 
13

>  <ligand_id>  (12) 
13

>  <original_smiles>  (12) 
[H]c1c([H])c([H])c2c(c1[H])C([H])([H])C([H])([H])C([H])([H])C2([H])N([H])C(=O)C1([H])N(C(=O)C([H])(N([H])C(=O)C([H])(N([H])C([H])([H])[H])C([H])([H])[H])C(C([H])([H])[H])(C([H])([H])[H])C([H])([H])[H])C([H])([H])c2c([H])c(OC([H])([H])C([H])([H])[N+]([H])([H])C([H])(C([H])([H])[H])C([H])(C([H])([H])[H])C([H])(C([H])([H])[H])[N+]([H])([H])C([H])([H])C([H])([H])c3c([H])c(C(=O)C(=O)N([H])C([H])([H])C([H])([H])C([H])([H])[N+]([H])([H])[H])c([H])c(C([H])(N([H])C(=O)N4C([H])([H])C([H])([H])C([H])([H])C([H])(n5nc(-c6c([H])c([H])c(Oc7c([H])c([H])c(F)c([H])c7F)c([H])c6[H])c(C(=O)N([H])[H])c5N([H])[H])C4([H])[H])C([H])([H])[H])c3[H])c([H])c([H])c2C1([H])[H]

>  <smiles>  (12) 
[H]c1c([H])c([H])c2c(c1[H])C([H])([H])C([H])([H])C([H])([H])C2([H])N([H])C(=O)C1([H])N(C(=O)C([H])(N([H])C(=O)C([H])(N([H])C([H])([H])[H])C([H])([H])[H])C(C([H])([H])[H])(C([H])([H])[H])C([H])([H])[H])C([H])([H])c2c([H])c(OC([H])([H])C([H])([H])[N+]([H])([H])C([H])(C([H])([H])[H])C([H])(C([H])([H])[H])C([H])(C([H])([H])[H])[N+]([H])([H])C([H])([H])C([H])([H])c3c([H])c(C(=O)C(=O)N([H])C([H])([H])C([H])([H])C([H])([H])[N+]([H])([H])[H])c([H])c(C([H])(N([H])C(=O)N4C([H])([H])C([H])([H])C([H])([H])C([H])(n5nc(-c6c([H])c([H])c(Oc7c([H])c([H])c(F)c([H])c7F)c([H])c6[H])c(C(=O)N([H])[H])c5N([H])[H])C4([H])[H])C([H])([H])[H])c3[H])c([H])c([H])c2C1([H])[H]

$$$$
14:0:0
     RDKit          3D

100107  0  0  1  0  0  0  0  0999 V2000
  -26.8730  -19.6320   19.6060 C   0  0  0  0  0  2  0  0  0  0  0  0
  -26.0360  -20.9270   19.6820 C   0  0  0  0  0  2  0  0  0  0  0  0
  -26.7370  -22.0160   20.5200 C   0  0  0  0  0  2  0  0  0  0  0  0
  -27.6980  -22.8710   19.6760 C   0  0  0  0  0  2  0  0  0  0  0  0
  -28.3900  -23.8820   20.4820 N   0  0  0  0  0  4  0  0  0  0  0  0
  -27.7850  -24.1870   21.2290 H   0  0  0  0  0  0  0  0  0  0  0  0
  -29.1880  -23.4710   20.9460 H   0  0  0  0  0  0  0  0  0  0  0  0
  -28.7490  -25.0260   19.6310 C   0  0  0  0  0  2  0  0  0  0  0  0
  -29.5100  -26.1440   20.3970 C   0  0  0  0  0  2  0  0  0  0  0  0
  -29.5100  -27.4100   19.7080 O   0  0  0  0  0  0  0  0  0  0  0  0
  -25.1580  -31.2190   23.8110 C   0  0  0  0  0  0  0  0  0  0  0  0
  -28.3130  -28.0800   19.8010 C   0  0  0  0  0  0  0  0  0  0  0  0
  -24.1510  -30.2530   21.7660 C   0  0  0  0  0  3  0  0  0  0  0  0
  -25.7950  -29.3250   20.0590 C   0  0  0  0  0  0  0  0  0  0  0  0
  -26.6310  -30.8640   21.8390 C   0  0  0  0  0  2  0  0  0  0  0  0
  -26.8740  -29.7470   20.8500 C   0  0  0  0  0  0  0  0  0  0  0  0
  -28.1390  -29.1300   20.7260 C   0  0  0  0  0  3  0  0  0  0  0  0
  -27.2320  -27.6930   18.9810 C   0  0  0  0  0  3  0  0  0  0  0  0
  -25.9700  -28.2960   19.1170 C   0  0  0  0  0  3  0  0  0  0  0  0
  -24.4730  -30.0260   20.2660 C   0  0  0  0  0  2  0  0  0  0  0  0
  -25.3270  -30.7790   22.5330 N   0  0  0  0  0  0  0  0  0  0  0  0
  -24.0380  -31.2290   24.3390 O   0  0  0  0  0  0  0  0  0  0  0  0
  -23.5710  -28.9470   22.3560 C   0  0  0  0  0  0  0  0  0  0  0  0
  -22.3000  -28.6580   22.0330 N   0  0  0  0  0  0  0  0  0  0  0  0
  -24.2630  -28.2120   23.0650 O   0  0  0  0  0  0  0  0  0  0  0  0
  -21.7970  -29.3180   21.4550 H   0  0  0  0  0  0  0  0  0  0  0  0
  -19.1160  -26.9840   21.7730 C   0  0  0  0  0  0  0  0  0  0  0  0
  -21.5630  -27.4650   22.4490 C   0  0  0  0  0  3  0  0  0  0  0  0
  -21.9360  -26.2500   21.5720 C   0  0  0  0  0  2  0  0  0  0  0  0
  -21.0100  -26.0800   20.3640 C   0  0  0  0  0  2  0  0  0  0  0  0
  -19.5630  -25.8850   20.8230 C   0  0  0  0  0  2  0  0  0  0  0  0
  -20.0570  -27.7360   22.5250 C   0  0  0  0  0  0  0  0  0  0  0  0
  -19.5920  -28.7720   23.3630 C   0  0  0  0  0  3  0  0  0  0  0  0
  -18.2170  -29.0620   23.4550 C   0  0  0  0  0  3  0  0  0  0  0  0
  -17.2890  -28.3010   22.7240 C   0  0  0  0  0  3  0  0  0  0  0  0
  -17.7370  -27.2600   21.8930 C   0  0  0  0  0  3  0  0  0  0  0  0
  -26.3580  -31.7490   24.6570 C   0  0  0  0  0  3  0  0  0  0  0  0
  -26.0330  -33.1190   25.0700 N   0  0  0  0  0  0  0  0  0  0  0  0
  -26.4910  -34.2260   24.4680 C   0  0  0  0  0  0  0  0  0  0  0  0
  -27.3050  -34.1950   23.5390 O   0  0  0  0  0  0  0  0  0  0  0  0
  -25.3310  -33.2170   25.7890 H   0  0  0  0  0  0  0  0  0  0  0  0
  -24.8720  -36.1020   24.0320 C   0  0  0  0  0  1  0  0  0  0  0  0
  -25.9640  -35.5810   24.9770 C   0  0  0  0  0  3  0  0  0  0  0  0
  -27.9560  -36.3150   26.2090 C   0  0  0  0  0  1  0  0  0  0  0  0
  -27.0200  -36.6040   25.1270 N   0  0  0  0  0  0  0  0  0  0  0  0
  -26.6140  -37.5200   25.2930 H   0  0  0  0  0  0  0  0  0  0  0  0
  -26.6840  -30.8460   25.9090 C   0  0  1  0  0  0  0  0  0  0  0  0
  -25.4480  -30.5180   26.7750 C   0  0  0  0  0  1  0  0  0  0  0  0
  -27.3210  -29.5070   25.4670 C   0  0  0  0  0  1  0  0  0  0  0  0
  -27.7270  -31.5510   26.8080 C   0  0  0  0  0  1  0  0  0  0  0  0
  -27.8040  -19.4050   18.3730 C   0  0  0  0  0  3  0  0  0  0  0  0
  -27.5730  -20.3750   17.2040 C   0  0  0  0  0  0  0  0  0  0  0  0
  -26.7380  -20.0260   16.2360 N   0  0  0  0  0  0  0  0  0  0  0  0
  -28.1760  -21.4460   17.1680 O   0  0  0  0  0  0  0  0  0  0  0  0
  -26.2300  -19.1540   16.2760 H   0  0  0  0  0  0  0  0  0  0  0  0
  -26.6210  -20.6210   15.4280 H   0  0  0  0  0  0  0  0  0  0  0  0
  -29.2210  -19.5710   18.7530 N   0  0  0  0  0  4  0  0  0  0  0  0
  -29.7920  -19.0910   18.0530 H   0  0  0  0  0  0  0  0  0  0  0  0
  -29.4370  -20.5470   18.6310 H   0  0  0  0  0  0  0  0  0  0  0  0
  -29.6710  -19.0950   20.0820 C   0  0  0  0  0  2  0  0  0  0  0  0
  -31.0730  -19.6670   20.4140 C   0  0  0  0  0  2  0  0  0  0  0  0
  -31.8220  -19.0350   21.6160 C   0  0  0  0  0  2  0  0  0  0  0  0
  -32.5720  -16.7690   20.7920 C   0  0  0  0  0  0  0  0  0  0  0  0
  -32.4740  -14.6270   19.5650 C   0  0  0  0  0  2  0  0  0  0  0  0
  -31.6400  -14.8040   18.2750 C   0  0  0  0  0  2  0  0  0  0  0  0
  -30.1260  -14.6750   18.5520 C   0  0  0  0  0  2  0  0  0  0  0  0
  -29.6680  -15.5350   19.7550 C   0  0  0  0  0  3  0  0  0  0  0  0
  -30.5860  -15.2480   20.9620 C   0  0  0  0  0  2  0  0  0  0  0  0
  -31.9710  -15.5760   20.5660 N   0  0  0  0  0  0  0  0  0  0  0  0
  -33.6580  -17.1010   20.3010 O   0  0  0  0  0  0  0  0  0  0  0  0
  -31.8090  -17.5810   21.5380 N   0  0  0  0  0  0  0  0  0  0  0  0
  -31.0010  -17.1150   21.9210 H   0  0  0  0  0  0  0  0  0  0  0  0
  -27.2330  -16.2080   20.2600 C   0  0  0  0  0  0  0  0  0  0  0  0
  -26.1160  -15.4630   20.5260 C   0  0  0  0  0  0  0  0  0  0  0  0
  -26.5360  -14.1010   20.4650 C   0  0  0  0  0  0  0  0  0  0  0  0
  -28.2670  -15.3010   20.0890 N   0  0  0  0  0  0  0  0  0  0  0  0
  -27.8440  -14.0260   20.2610 N   0  0  0  0  0  0  0  0  0  0  0  0
  -25.7600  -12.8570   20.5210 C   0  0  0  0  0  0  0  0  0  0  0  0
  -26.0430  -11.8500   21.4690 C   0  0  0  0  0  3  0  0  0  0  0  0
  -25.2690  -10.6690   21.5090 C   0  0  0  0  0  3  0  0  0  0  0  0
  -24.1990  -10.4930   20.6010 C   0  0  0  0  0  0  0  0  0  0  0  0
  -23.9340  -11.4910   19.6460 C   0  0  0  0  0  3  0  0  0  0  0  0
  -24.7090  -12.6600   19.6030 C   0  0  0  0  0  3  0  0  0  0  0  0
  -23.4110   -9.3660   20.5540 O   0  0  0  0  0  0  0  0  0  0  0  0
  -23.0640   -8.6860   21.6940 C   0  0  0  0  0  0  0  0  0  0  0  0
  -22.3520   -9.3050   22.7460 C   0  0  0  0  0  3  0  0  0  0  0  0
  -21.9550   -8.5520   23.8680 C   0  0  0  0  0  3  0  0  0  0  0  0
  -22.2590   -7.1800   23.9400 C   0  0  0  0  0  0  0  0  0  0  0  0
  -22.9650   -6.5590   22.8930 C   0  0  0  0  0  3  0  0  0  0  0  0
  -23.3640   -7.3090   21.7730 C   0  0  0  0  0  0  0  0  0  0  0  0
  -24.0260   -6.7030   20.7600 F   0  0  0  0  0  0  0  0  0  0  0  0
  -21.8710   -6.4550   25.0140 F   0  0  0  0  0  0  0  0  0  0  0  0
  -24.7190  -15.9860   20.7040 C   0  0  0  0  0  0  0  0  0  0  0  0
  -23.8850  -15.2640   21.4460 N   0  0  0  0  0  0  0  0  0  0  0  0
  -24.3770  -17.0630   20.2240 O   0  0  0  0  0  0  0  0  0  0  0  0
  -24.1740  -14.3920   21.8610 H   0  0  0  0  0  0  0  0  0  0  0  0
  -22.9440  -15.5970   21.6050 H   0  0  0  0  0  0  0  0  0  0  0  0
  -27.4380  -17.5710   20.1020 N   0  0  0  0  0  0  0  0  0  0  0  0
  -26.5470  -17.9400   19.7770 H   0  0  0  0  0  0  0  0  0  0  0  0
  -28.1270  -17.6850   19.3650 H   0  0  0  0  0  0  0  0  0  0  0  0
  1  2  1  0
  2  3  1  0
  4  5  1  0
  4  3  1  0
  5  7  1  0
  5  6  1  0
  8  9  1  0
  8  5  1  0
 10 12  1  0
 10  9  1  0
 11 22  2  0
 12 17  1  0
 13 23  1  0
 13 21  1  0
 14 20  1  0
 14 16  1  0
 15 21  1  0
 16 15  1  0
 17 16  2  0
 18 19  1  0
 18 12  2  0
 19 14  2  0
 20 13  1  0
 21 11  1  0
 23 25  2  0
 24 23  1  0
 26 24  1  0
 27 36  2  0
 27 32  1  0
 28 24  1  0
 28 32  1  0
 29 28  1  0
 30 31  1  0
 30 29  1  0
 31 27  1  0
 32 33  2  0
 33 34  1  0
 35 34  2  0
 36 35  1  0
 37 11  1  0
 37 38  1  0
 37 47  1  0
 38 41  1  0
 39 43  1  0
 39 38  1  0
 40 39  2  0
 43 42  1  0
 43 45  1  0
 45 46  1  0
 45 44  1  0
 47 48  1  1
 47 50  1  0
 49 47  1  0
 51 57  1  0
 51  1  1  0
 52 51  1  0
 53 55  1  0
 53 52  1  0
 54 52  2  0
 56 53  1  0
 57 60  1  0
 58 57  1  0
 59 57  1  0
 60 61  1  0
 61 62  1  0
 63 71  1  0
 64 69  1  0
 65 66  1  0
 65 64  1  0
 67 66  1  0
 67 76  1  0
 67 68  1  0
 69 63  1  0
 69 68  1  0
 70 63  2  0
 71 62  1  0
 71 72  1  0
 73 74  2  0
 74 93  1  0
 75 78  1  0
 75 74  1  0
 76 73  1  0
 76 77  1  0
 77 75  2  0
 78 79  1  0
 79 80  2  0
 81 80  1  0
 82 81  2  0
 83 82  1  0
 83 78  2  0
 84 81  1  0
 84 85  1  0
 85 90  2  0
 85 86  1  0
 86 87  2  0
 87 88  1  0
 88 92  1  0
 89 88  2  0
 90 89  1  0
 91 90  1  0
 93 94  1  0
 94 97  1  0
 94 96  1  0
 95 93  2  0
 98 73  1  0
 99 98  1  0
100 98  1  0
M  ISO  4   9 101  10 101  63 100  71 100
M  END
>  <TORSDO>  (13) 
F 28

>  <SCORE>  (13) 
-1.344

>  <name>  (13) 
14

>  <ligand_id>  (13) 
14

>  <original_smiles>  (13) 
[H]c1c([H])c([H])c2c(c1[H])C([H])([H])C([H])([H])C([H])([H])C2([H])N([H])C(=O)C1([H])N(C(=O)C([H])(N([H])C(=O)C([H])(N([H])C([H])([H])[H])C([H])([H])[H])C(C([H])([H])[H])(C([H])([H])[H])C([H])([H])[H])C([H])([H])c2c([H])c(OC([H])([H])C([H])([H])[N+]([H])([H])C([H])([H])C([H])([H])C([H])([H])C([H])([H])C([H])(C(=O)N([H])[H])[N+]([H])([H])C([H])([H])C([H])([H])C([H])([H])N([H])C(=O)N3C([H])([H])C([H])([H])C([H])([H])C([H])(n4nc(-c5c([H])c([H])c(Oc6c([H])c([H])c(F)c([H])c6F)c([H])c5[H])c(C(=O)N([H])[H])c4N([H])[H])C3([H])[H])c([H])c([H])c2C1([H])[H]

>  <smiles>  (13) 
[H]c1c([H])c([H])c2c(c1[H])C([H])([H])C([H])([H])C([H])([H])C2([H])N([H])C(=O)C1([H])N(C(=O)C([H])(N([H])C(=O)C([H])(N([H])C([H])([H])[H])C([H])([H])[H])C(C([H])([H])[H])(C([H])([H])[H])C([H])([H])[H])C([H])([H])c2c([H])c(OC([H])([H])C([H])([H])[N+]([H])([H])C([H])([H])C([H])([H])C([H])([H])C([H])([H])C([H])(C(=O)N([H])[H])[N+]([H])([H])C([H])([H])C([H])([H])C([H])([H])N([H])C(=O)N3C([H])([H])C([H])([H])C([H])([H])C([H])(n4nc(-c5c([H])c([H])c(Oc6c([H])c([H])c(F)c([H])c6F)c([H])c5[H])c(C(=O)N([H])[H])c4N([H])[H])C3([H])[H])c([H])c([H])c2C1([H])[H]

$$$$
15:0:0
     RDKit          3D

103112  0  0  1  0  0  0  0  0999 V2000
  -33.6180  -21.2080   14.7870 C   0  0  0  0  0  0  0  0  0  0  0  0
  -32.5780  -22.0010   14.5170 N   0  0  0  0  0  0  0  0  0  0  0  0
  -34.7190  -21.6060   15.1700 O   0  0  0  0  0  0  0  0  0  0  0  0
  -31.7700  -21.5410   14.1190 H   0  0  0  0  0  0  0  0  0  0  0  0
  -34.0030  -17.5180   13.9020 C   0  0  0  0  0  3  0  0  0  0  0  0
  -34.2840  -18.8890   14.0520 C   0  0  0  0  0  3  0  0  0  0  0  0
  -32.7730  -16.9920   14.3500 C   0  0  0  0  0  3  0  0  0  0  0  0
  -32.0830  -19.2210   15.0530 C   0  0  0  0  0  3  0  0  0  0  0  0
  -33.3190  -19.7500   14.6100 C   0  0  0  0  0  0  0  0  0  0  0  0
  -31.8160  -17.8380   14.9580 C   0  0  0  0  0  0  0  0  0  0  0  0
  -30.5450  -17.2620   15.5850 C   0  0  0  0  0  2  0  0  0  0  0  0
  -30.7570  -15.4520   20.9440 C   0  0  0  0  0  0  0  0  0  0  0  0
  -30.7020  -13.1280   20.2620 C   0  0  0  0  0  2  0  0  0  0  0  0
  -29.9150  -12.9930   18.9460 C   0  0  0  0  0  2  0  0  0  0  0  0
  -28.4220  -12.7650   19.2420 C   0  0  0  0  0  2  0  0  0  0  0  0
  -27.8290  -13.7750   20.2580 C   0  0  0  0  0  3  0  0  0  0  0  0
  -28.7600  -13.9780   21.4780 C   0  0  0  0  0  2  0  0  0  0  0  0
  -30.1100  -14.2620   20.9680 N   0  0  0  0  0  0  0  0  0  0  0  0
  -31.8370  -15.5980   21.4950 O   0  0  0  0  0  0  0  0  0  0  0  0
  -31.9000  -16.5690   19.0940 C   0  0  0  0  0  2  0  0  0  0  0  0
  -29.5170  -16.9240   19.3260 C   0  0  0  0  0  2  0  0  0  0  0  0
  -31.7920  -16.4700   17.5730 C   0  0  0  0  0  2  0  0  0  0  0  0
  -29.3650  -16.9040   17.7750 C   0  0  0  0  0  2  0  0  0  0  0  0
  -30.6580  -16.1060   19.7540 N   0  0  0  0  0  0  0  0  0  0  0  0
  -30.6370  -17.2530   17.0730 N   0  0  2  0  0  4  0  0  0  0  0  0
  -30.8300  -18.2110   17.3220 H   0  0  0  0  0  0  0  0  0  0  0  0
  -25.3490  -14.2330   20.7520 C   0  0  0  0  0  0  0  0  0  0  0  0
  -24.2970  -13.3940   21.0000 C   0  0  0  0  0  0  0  0  0  0  0  0
  -24.8430  -12.0740   21.0230 C   0  0  0  0  0  0  0  0  0  0  0  0
  -26.4650  -13.4180   20.6360 N   0  0  0  0  0  0  0  0  0  0  0  0
  -26.1600  -12.1170   20.8640 N   0  0  0  0  0  0  0  0  0  0  0  0
  -24.1810  -10.7670   21.1310 C   0  0  0  0  0  0  0  0  0  0  0  0
  -24.5110   -9.8550   22.1570 C   0  0  0  0  0  3  0  0  0  0  0  0
  -23.8480   -8.6130   22.2500 C   0  0  0  0  0  3  0  0  0  0  0  0
  -22.8420   -8.2730   21.3140 C   0  0  0  0  0  0  0  0  0  0  0  0
  -22.5350   -9.1740   20.2810 C   0  0  0  0  0  3  0  0  0  0  0  0
  -23.2000  -10.4090   20.1860 C   0  0  0  0  0  3  0  0  0  0  0  0
  -22.1620   -7.0780   21.3140 O   0  0  0  0  0  0  0  0  0  0  0  0
  -21.8920   -6.4040   22.4780 C   0  0  0  0  0  0  0  0  0  0  0  0
  -21.1290   -6.9850   23.5160 C   0  0  0  0  0  3  0  0  0  0  0  0
  -20.8160   -6.2330   24.6630 C   0  0  0  0  0  3  0  0  0  0  0  0
  -21.2530   -4.9000   24.7750 C   0  0  0  0  0  0  0  0  0  0  0  0
  -22.0060   -4.3170   23.7400 C   0  0  0  0  0  3  0  0  0  0  0  0
  -22.3230   -5.0680   22.5930 C   0  0  0  0  0  0  0  0  0  0  0  0
  -23.0310   -4.4960   21.5910 F   0  0  0  0  0  0  0  0  0  0  0  0
  -20.9450   -4.1730   25.8740 F   0  0  0  0  0  0  0  0  0  0  0  0
  -22.8500  -13.7820   21.1120 C   0  0  0  0  0  0  0  0  0  0  0  0
  -22.0750  -13.0390   21.8960 N   0  0  0  0  0  0  0  0  0  0  0  0
  -22.4080  -14.7770   20.5400 O   0  0  0  0  0  0  0  0  0  0  0  0
  -22.4430  -12.2330   22.3800 H   0  0  0  0  0  0  0  0  0  0  0  0
  -21.1020  -13.2780   22.0150 H   0  0  0  0  0  0  0  0  0  0  0  0
  -25.4460  -15.6120   20.5880 N   0  0  0  0  0  0  0  0  0  0  0  0
  -24.6340  -16.2190   20.6120 H   0  0  0  0  0  0  0  0  0  0  0  0
  -26.3060  -16.1090   20.3970 H   0  0  0  0  0  0  0  0  0  0  0  0
  -32.4090  -23.3960   14.8990 C   0  0  0  0  0  2  0  0  0  0  0  0
  -31.6100  -23.4450   16.2110 C   0  0  0  0  0  2  0  0  0  0  0  0
  -30.9470  -24.8000   16.5040 C   0  0  0  0  0  2  0  0  0  0  0  0
  -30.1080  -24.6980   17.7180 N   0  0  0  0  0  4  0  0  0  0  0  0
  -30.7030  -24.3770   18.4640 H   0  0  0  0  0  0  0  0  0  0  0  0
  -29.4000  -23.9940   17.5710 H   0  0  0  0  0  0  0  0  0  0  0  0
  -29.4520  -25.9550   18.1500 C   0  0  0  0  0  2  0  0  0  0  0  0
  -28.9480  -25.8220   19.5980 C   0  0  0  0  0  2  0  0  0  0  0  0
  -28.7030  -27.0960   20.1790 O   0  0  0  0  0  0  0  0  0  0  0  0
  -24.6250  -31.9460   23.2990 C   0  0  0  0  0  0  0  0  0  0  0  0
  -27.4580  -27.6790   20.1560 C   0  0  0  0  0  0  0  0  0  0  0  0
  -23.4780  -30.5310   21.6240 C   0  0  0  0  0  3  0  0  0  0  0  0
  -24.9910  -29.0630   20.1960 C   0  0  0  0  0  0  0  0  0  0  0  0
  -25.9850  -30.9870   21.4480 C   0  0  0  0  0  2  0  0  0  0  0  0
  -26.1210  -29.6310   20.7910 C   0  0  0  0  0  0  0  0  0  0  0  0
  -27.3500  -28.9450   20.7710 C   0  0  0  0  0  3  0  0  0  0  0  0
  -26.3020  -27.1080   19.5690 C   0  0  0  0  0  3  0  0  0  0  0  0
  -25.0730  -27.7970   19.5880 C   0  0  0  0  0  3  0  0  0  0  0  0
  -23.7160  -29.8730   20.2390 C   0  0  0  0  0  2  0  0  0  0  0  0
  -24.7120  -31.1690   22.1820 N   0  0  0  0  0  0  0  0  0  0  0  0
  -23.5300  -32.1750   23.8320 O   0  0  0  0  0  0  0  0  0  0  0  0
  -22.8530  -29.4750   22.5640 C   0  0  0  0  0  0  0  0  0  0  0  0
  -21.5460  -29.2270   22.3900 N   0  0  0  0  0  0  0  0  0  0  0  0
  -23.5440  -28.8820   23.3970 O   0  0  0  0  0  0  0  0  0  0  0  0
  -21.0510  -29.7600   21.6900 H   0  0  0  0  0  0  0  0  0  0  0  0
  -18.2340  -27.8220   22.7390 C   0  0  0  0  0  0  0  0  0  0  0  0
  -20.7540  -28.2460   23.1310 C   0  0  0  0  0  3  0  0  0  0  0  0
  -20.9730  -26.8190   22.5820 C   0  0  0  0  0  2  0  0  0  0  0  0
  -19.9470  -26.4140   21.5190 C   0  0  0  0  0  2  0  0  0  0  0  0
  -18.5280  -26.4790   22.0910 C   0  0  0  0  0  2  0  0  0  0  0  0
  -19.2800  -28.6570   23.2140 C   0  0  0  0  0  0  0  0  0  0  0  0
  -18.9550  -29.9100   23.7770 C   0  0  0  0  0  3  0  0  0  0  0  0
  -17.6140  -30.3320   23.8680 C   0  0  0  0  0  3  0  0  0  0  0  0
  -16.5830  -29.4940   23.4090 C   0  0  0  0  0  3  0  0  0  0  0  0
  -16.8920  -28.2400   22.8530 C   0  0  0  0  0  3  0  0  0  0  0  0
  -25.8860  -32.6060   23.9400 C   0  0  0  0  0  3  0  0  0  0  0  0
  -25.5490  -34.0050   24.2380 N   0  0  0  0  0  0  0  0  0  0  0  0
  -25.8960  -35.0520   23.4780 C   0  0  0  0  0  0  0  0  0  0  0  0
  -26.6080  -34.9430   22.4760 O   0  0  0  0  0  0  0  0  0  0  0  0
  -24.9240  -34.1640   25.0140 H   0  0  0  0  0  0  0  0  0  0  0  0
  -24.1730  -36.8220   23.0210 C   0  0  0  0  0  1  0  0  0  0  0  0
  -25.3730  -36.4380   23.8980 C   0  0  0  0  0  3  0  0  0  0  0  0
  -27.4560  -37.3520   24.8260 C   0  0  0  0  0  1  0  0  0  0  0  0
  -26.4000  -37.5000   23.8270 N   0  0  0  0  0  0  0  0  0  0  0  0
  -25.9820  -38.4190   23.9430 H   0  0  0  0  0  0  0  0  0  0  0  0
  -26.3850  -31.8640   25.2400 C   0  0  1  0  0  0  0  0  0  0  0  0
  -25.2680  -31.6250   26.2840 C   0  0  0  0  0  1  0  0  0  0  0  0
  -27.0000  -30.4920   24.8810 C   0  0  0  0  0  1  0  0  0  0  0  0
  -27.5070  -32.6890   25.9170 C   0  0  0  0  0  1  0  0  0  0  0  0
  1  3  2  0
  2  1  1  0
  2 55  1  0
  4  2  1  0
  5  6  2  0
  5  7  1  0
  6  9  1  0
  7 10  2  0
  9  1  1  0
  9  8  2  0
 10  8  1  0
 10 11  1  0
 11 25  1  0
 12 18  1  0
 12 19  2  0
 13 18  1  0
 14 15  1  0
 14 13  1  0
 16 15  1  0
 16 30  1  0
 16 17  1  0
 18 17  1  0
 20 24  1  0
 21 24  1  0
 22 20  1  0
 23 21  1  0
 24 12  1  0
 25 26  1  1
 25 22  1  0
 25 23  1  0
 27 28  2  0
 28 29  1  0
 28 47  1  0
 29 32  1  0
 30 27  1  0
 30 31  1  0
 31 29  2  0
 32 33  1  0
 33 34  2  0
 35 34  1  0
 36 35  2  0
 37 36  1  0
 37 32  2  0
 38 35  1  0
 38 39  1  0
 39 44  2  0
 39 40  1  0
 40 41  2  0
 41 42  1  0
 42 46  1  0
 43 42  2  0
 44 43  1  0
 45 44  1  0
 47 48  1  0
 48 51  1  0
 48 50  1  0
 49 47  2  0
 52 53  1  0
 52 27  1  0
 54 52  1  0
 55 56  1  0
 56 57  1  0
 57 58  1  0
 58 61  1  0
 58 59  1  0
 60 58  1  0
 61 62  1  0
 62 63  1  0
 64 75  2  0
 65 63  1  0
 65 70  1  0
 66 74  1  0
 66 76  1  0
 67 73  1  0
 67 69  1  0
 68 74  1  0
 69 68  1  0
 70 69  2  0
 71 72  1  0
 71 65  2  0
 72 67  2  0
 73 66  1  0
 74 64  1  0
 76 78  2  0
 77 76  1  0
 79 77  1  0
 80 89  2  0
 80 85  1  0
 81 77  1  0
 81 85  1  0
 82 81  1  0
 83 84  1  0
 83 82  1  0
 84 80  1  0
 85 86  2  0
 86 87  1  0
 88 87  2  0
 89 88  1  0
 90 64  1  0
 90 91  1  0
 90100  1  0
 91 94  1  0
 92 96  1  0
 92 91  1  0
 93 92  2  0
 96 95  1  0
 98 96  1  0
 98 99  1  0
 98 97  1  0
100103  1  1
100101  1  0
102100  1  0
M  ISO  4  12 100  24 100  62 101  63 101
M  END
>  <TORSDO>  (14) 
F 24

>  <SCORE>  (14) 
-10.182

>  <name>  (14) 
15

>  <ligand_id>  (14) 
15

>  <original_smiles>  (14) 
[H]c1c([H])c([H])c2c(c1[H])C([H])([H])C([H])([H])C([H])([H])C2([H])N([H])C(=O)C1([H])N(C(=O)C([H])(N([H])C(=O)C([H])(N([H])C([H])([H])[H])C([H])([H])[H])C(C([H])([H])[H])(C([H])([H])[H])C([H])([H])[H])C([H])([H])c2c([H])c(OC([H])([H])C([H])([H])[N+]([H])([H])C([H])([H])C([H])([H])C([H])([H])N([H])C(=O)c3c([H])c([H])c([H])c(C([H])([H])[N+]4([H])C([H])([H])C([H])([H])N(C(=O)N5C([H])([H])C([H])([H])C([H])([H])C([H])(n6nc(-c7c([H])c([H])c(Oc8c([H])c([H])c(F)c([H])c8F)c([H])c7[H])c(C(=O)N([H])[H])c6N([H])[H])C5([H])[H])C([H])([H])C4([H])[H])c3[H])c([H])c([H])c2C1([H])[H]

>  <smiles>  (14) 
[H]c1c([H])c([H])c2c(c1[H])C([H])([H])C([H])([H])C([H])([H])C2([H])N([H])C(=O)C1([H])N(C(=O)C([H])(N([H])C(=O)C([H])(N([H])C([H])([H])[H])C([H])([H])[H])C(C([H])([H])[H])(C([H])([H])[H])C([H])([H])[H])C([H])([H])c2c([H])c(OC([H])([H])C([H])([H])[N+]([H])([H])C([H])([H])C([H])([H])C([H])([H])N([H])C(=O)c3c([H])c([H])c([H])c(C([H])([H])[N+]4([H])C([H])([H])C([H])([H])N(C(=O)N5C([H])([H])C([H])([H])C([H])([H])C([H])(n6nc(-c7c([H])c([H])c(Oc8c([H])c([H])c(F)c([H])c8F)c([H])c7[H])c(C(=O)N([H])[H])c6N([H])[H])C5([H])[H])C([H])([H])C4([H])[H])c3[H])c([H])c([H])c2C1([H])[H]

$$$$
16:0:0
     RDKit          3D

 93100  0  0  1  0  0  0  0  0999 V2000
  -30.5930  -23.8230   19.4060 C   0  0  0  0  0  3  0  0  0  0  0  0
  -31.6220  -24.3030   18.4620 N   0  0  0  0  0  4  0  0  0  0  0  0
  -32.4000  -24.6850   18.9730 H   0  0  0  0  0  0  0  0  0  0  0  0
  -31.2640  -25.0090   17.8450 H   0  0  0  0  0  0  0  0  0  0  0  0
  -31.9680  -23.5450   17.9020 H   0  0  0  0  0  0  0  0  0  0  0  0
  -31.2960  -22.7980   20.3180 C   0  0  0  0  0  0  0  0  0  0  0  0
  -31.7640  -23.0830   21.4230 O   0  0  0  0  0  0  0  0  0  0  0  0
  -31.4860  -21.3890   19.7460 C   0  0  0  0  0  2  0  0  0  0  0  0
  -31.3970  -20.2490   20.7870 C   0  0  0  0  0  2  0  0  0  0  0  0
  -30.5980  -19.0620   20.2310 C   0  0  0  0  0  2  0  0  0  0  0  0
  -30.6510  -17.7870   21.0850 C   0  0  0  0  0  2  0  0  0  0  0  0
  -29.7910  -16.7030   20.4190 C   0  0  0  0  0  2  0  0  0  0  0  0
  -30.6270  -14.4040   20.4910 C   0  0  0  0  0  0  0  0  0  0  0  0
  -30.3260  -12.2870   19.2860 C   0  0  0  0  0  2  0  0  0  0  0  0
  -29.3780  -12.5590   18.0960 C   0  0  0  0  0  2  0  0  0  0  0  0
  -27.9000  -12.4410   18.5220 C   0  0  0  0  0  2  0  0  0  0  0  0
  -27.5810  -13.2220   19.8240 C   0  0  0  0  0  3  0  0  0  0  0  0
  -28.6390  -12.9210   20.9130 C   0  0  0  0  0  2  0  0  0  0  0  0
  -29.9720  -13.2220   20.3620 N   0  0  0  0  0  0  0  0  0  0  0  0
  -31.7180  -14.6480   19.9700 O   0  0  0  0  0  0  0  0  0  0  0  0
  -29.8810  -15.3790   21.0240 N   0  0  0  0  0  0  0  0  0  0  0  0
  -29.0470  -15.0570   21.4940 H   0  0  0  0  0  0  0  0  0  0  0  0
  -25.1720  -13.8280   20.5140 C   0  0  0  0  0  0  0  0  0  0  0  0
  -24.1070  -13.0540   20.8860 C   0  0  0  0  0  0  0  0  0  0  0  0
  -24.5730  -11.7030   20.8610 C   0  0  0  0  0  0  0  0  0  0  0  0
  -26.2240  -12.9500   20.2940 N   0  0  0  0  0  0  0  0  0  0  0  0
  -25.8630  -11.6670   20.5540 N   0  0  0  0  0  0  0  0  0  0  0  0
  -23.8520  -10.4400   21.0560 C   0  0  0  0  0  0  0  0  0  0  0  0
  -24.2990   -9.4700   21.9800 C   0  0  0  0  0  3  0  0  0  0  0  0
  -23.5810   -8.2700   22.1630 C   0  0  0  0  0  3  0  0  0  0  0  0
  -22.3980   -8.0300   21.4240 C   0  0  0  0  0  0  0  0  0  0  0  0
  -21.9690   -8.9890   20.4880 C   0  0  0  0  0  3  0  0  0  0  0  0
  -22.6890  -10.1810   20.3030 C   0  0  0  0  0  3  0  0  0  0  0  0
  -21.6480   -6.8840   21.5180 O   0  0  0  0  0  0  0  0  0  0  0  0
  -21.6290   -6.1260   22.6620 C   0  0  0  0  0  0  0  0  0  0  0  0
  -21.2420   -6.6660   23.9080 C   0  0  0  0  0  3  0  0  0  0  0  0
  -21.1730   -5.8340   25.0440 C   0  0  0  0  0  3  0  0  0  0  0  0
  -21.4800   -4.4650   24.9350 C   0  0  0  0  0  0  0  0  0  0  0  0
  -21.8580   -3.9250   23.6920 C   0  0  0  0  0  3  0  0  0  0  0  0
  -21.9290   -4.7530   22.5600 C   0  0  0  0  0  0  0  0  0  0  0  0
  -22.2760   -4.2230   21.3610 F   0  0  0  0  0  0  0  0  0  0  0  0
  -21.4040   -3.6640   26.0240 F   0  0  0  0  0  0  0  0  0  0  0  0
  -22.7070  -13.5250   21.1580 C   0  0  0  0  0  0  0  0  0  0  0  0
  -21.9810  -12.8300   22.0260 N   0  0  0  0  0  0  0  0  0  0  0  0
  -22.2650  -14.5460   20.6320 O   0  0  0  0  0  0  0  0  0  0  0  0
  -22.3490  -12.0050   22.4780 H   0  0  0  0  0  0  0  0  0  0  0  0
  -21.0410  -13.1280   22.2440 H   0  0  0  0  0  0  0  0  0  0  0  0
  -25.3330  -15.1980   20.3250 N   0  0  0  0  0  0  0  0  0  0  0  0
  -24.5640  -15.8530   20.4220 H   0  0  0  0  0  0  0  0  0  0  0  0
  -26.1820  -15.6340   19.9910 H   0  0  0  0  0  0  0  0  0  0  0  0
  -29.9310  -24.9790   20.2020 C   0  0  0  0  0  2  0  0  0  0  0  0
  -28.6370  -25.5380   19.5720 C   0  0  0  0  0  2  0  0  0  0  0  0
  -28.4390  -26.8210   20.1480 O   0  0  0  0  0  0  0  0  0  0  0  0
  -24.5860  -31.8730   23.2210 C   0  0  0  0  0  0  0  0  0  0  0  0
  -27.2200  -27.4600   20.1070 C   0  0  0  0  0  0  0  0  0  0  0  0
  -23.3610  -30.4700   21.5870 C   0  0  0  0  0  3  0  0  0  0  0  0
  -24.8020  -28.9300   20.1460 C   0  0  0  0  0  0  0  0  0  0  0  0
  -25.8810  -30.8340   21.3690 C   0  0  0  0  0  2  0  0  0  0  0  0
  -25.9580  -29.4670   20.7250 C   0  0  0  0  0  0  0  0  0  0  0  0
  -27.1620  -28.7340   20.7060 C   0  0  0  0  0  3  0  0  0  0  0  0
  -26.0480  -26.9270   19.5190 C   0  0  0  0  0  3  0  0  0  0  0  0
  -24.8400  -27.6580   19.5440 C   0  0  0  0  0  3  0  0  0  0  0  0
  -23.5550  -29.7850   20.2050 C   0  0  0  0  0  2  0  0  0  0  0  0
  -24.6270  -31.0730   22.1180 N   0  0  0  0  0  0  0  0  0  0  0  0
  -23.5120  -32.1480   23.7720 O   0  0  0  0  0  0  0  0  0  0  0  0
  -22.7210  -29.4530   22.5560 C   0  0  0  0  0  0  0  0  0  0  0  0
  -21.3960  -29.2700   22.4380 N   0  0  0  0  0  0  0  0  0  0  0  0
  -23.4100  -28.8310   23.3680 O   0  0  0  0  0  0  0  0  0  0  0  0
  -20.9010  -29.8240   21.7520 H   0  0  0  0  0  0  0  0  0  0  0  0
  -18.0280  -28.0740   22.9500 C   0  0  0  0  0  0  0  0  0  0  0  0
  -20.5850  -28.3340   23.2130 C   0  0  0  0  0  3  0  0  0  0  0  0
  -20.6890  -26.9020   22.6390 C   0  0  0  0  0  2  0  0  0  0  0  0
  -19.5840  -26.5760   21.6290 C   0  0  0  0  0  2  0  0  0  0  0  0
  -18.2050  -26.7220   22.2770 C   0  0  0  0  0  2  0  0  0  0  0  0
  -19.1470  -28.8380   23.3740 C   0  0  0  0  0  0  0  0  0  0  0  0
  -18.9310  -30.1030   23.9620 C   0  0  0  0  0  3  0  0  0  0  0  0
  -17.6270  -30.6040   24.1320 C   0  0  0  0  0  3  0  0  0  0  0  0
  -16.5220  -29.8380   23.7230 C   0  0  0  0  0  3  0  0  0  0  0  0
  -16.7230  -28.5740   23.1390 C   0  0  0  0  0  3  0  0  0  0  0  0
  -25.8840  -32.4980   23.8280 C   0  0  0  0  0  3  0  0  0  0  0  0
  -26.4210  -31.7200   25.0920 C   0  0  1  0  0  0  0  0  0  0  0  0
  -25.3450  -31.4810   26.1770 C   0  0  0  0  0  1  0  0  0  0  0  0
  -26.9970  -30.3430   24.6860 C   0  0  0  0  0  1  0  0  0  0  0  0
  -27.5820  -32.5100   25.7410 C   0  0  0  0  0  1  0  0  0  0  0  0
  -25.5810  -33.8940   24.1690 N   0  0  0  0  0  0  0  0  0  0  0  0
  -25.9100  -34.9500   23.4120 C   0  0  0  0  0  0  0  0  0  0  0  0
  -26.5720  -34.8500   22.3740 O   0  0  0  0  0  0  0  0  0  0  0  0
  -24.9960  -34.0480   24.9760 H   0  0  0  0  0  0  0  0  0  0  0  0
  -24.1820  -36.7450   23.0790 C   0  0  0  0  0  1  0  0  0  0  0  0
  -25.4280  -36.3340   23.8810 C   0  0  0  0  0  3  0  0  0  0  0  0
  -27.5690  -37.2090   24.7040 C   0  0  0  0  0  1  0  0  0  0  0  0
  -26.4600  -37.3870   23.7700 N   0  0  0  0  0  0  0  0  0  0  0  0
  -26.0560  -38.3050   23.9280 H   0  0  0  0  0  0  0  0  0  0  0  0
  1 51  1  0
  1  6  1  0
  2  3  1  0
  2  1  1  0
  4  2  1  0
  5  2  1  0
  6  7  2  0
  8  6  1  0
  8  9  1  0
 10  9  1  0
 10 11  1  0
 12 21  1  0
 12 11  1  0
 13 21  1  0
 14 19  1  0
 15 16  1  0
 15 14  1  0
 17 16  1  0
 17 26  1  0
 17 18  1  0
 19 13  1  0
 19 18  1  0
 20 13  2  0
 21 22  1  0
 23 24  2  0
 24 43  1  0
 25 24  1  0
 25 28  1  0
 26 23  1  0
 26 27  1  0
 27 25  2  0
 28 29  1  0
 29 30  2  0
 31 34  1  0
 31 30  1  0
 32 31  2  0
 33 32  1  0
 33 28  2  0
 34 35  1  0
 35 36  1  0
 36 37  2  0
 38 37  1  0
 38 42  1  0
 39 38  2  0
 40 35  2  0
 40 39  1  0
 41 40  1  0
 43 44  1  0
 44 47  1  0
 44 46  1  0
 45 43  2  0
 48 49  1  0
 48 23  1  0
 50 48  1  0
 52 53  1  0
 52 51  1  0
 54 65  2  0
 55 53  1  0
 55 60  1  0
 56 64  1  0
 56 66  1  0
 57 63  1  0
 57 59  1  0
 58 64  1  0
 59 58  1  0
 60 59  2  0
 61 62  1  0
 61 55  2  0
 62 57  2  0
 63 56  1  0
 64 54  1  0
 66 68  2  0
 67 66  1  0
 69 67  1  0
 70 79  2  0
 70 75  1  0
 71 67  1  0
 71 75  1  0
 72 71  1  0
 73 74  1  0
 73 72  1  0
 74 70  1  0
 75 76  2  0
 76 77  1  0
 78 77  2  0
 79 78  1  0
 80 54  1  0
 80 85  1  0
 80 81  1  0
 81 84  1  1
 81 82  1  0
 83 81  1  0
 85 88  1  0
 86 90  1  0
 86 85  1  0
 87 86  2  0
 90 89  1  0
 92 90  1  0
 92 93  1  0
 92 91  1  0
M  ISO  4  13 100  21 100  52 101  53 101
M  END
>  <TORSDO>  (15) 
F 25

>  <SCORE>  (15) 
-11.987

>  <name>  (15) 
16

>  <ligand_id>  (15) 
16

>  <original_smiles>  (15) 
[H]c1c([H])c([H])c2c(c1[H])C([H])([H])C([H])([H])C([H])([H])C2([H])N([H])C(=O)C1([H])N(C(=O)C([H])(N([H])C(=O)C([H])(N([H])C([H])([H])[H])C([H])([H])[H])C(C([H])([H])[H])(C([H])([H])[H])C([H])([H])[H])C([H])([H])c2c([H])c(OC([H])([H])C([H])([H])C([H])(C(=O)C([H])([H])C([H])([H])C([H])([H])C([H])([H])C([H])([H])N([H])C(=O)N3C([H])([H])C([H])([H])C([H])([H])C([H])(n4nc(-c5c([H])c([H])c(Oc6c([H])c([H])c(F)c([H])c6F)c([H])c5[H])c(C(=O)N([H])[H])c4N([H])[H])C3([H])[H])[N+]([H])([H])[H])c([H])c([H])c2C1([H])[H]

>  <smiles>  (15) 
[H]c1c([H])c([H])c2c(c1[H])C([H])([H])C([H])([H])C([H])([H])C2([H])N([H])C(=O)C1([H])N(C(=O)C([H])(N([H])C(=O)C([H])(N([H])C([H])([H])[H])C([H])([H])[H])C(C([H])([H])[H])(C([H])([H])[H])C([H])([H])[H])C([H])([H])c2c([H])c(OC([H])([H])C([H])([H])C([H])(C(=O)C([H])([H])C([H])([H])C([H])([H])C([H])([H])C([H])([H])N([H])C(=O)N3C([H])([H])C([H])([H])C([H])([H])C([H])(n4nc(-c5c([H])c([H])c(Oc6c([H])c([H])c(F)c([H])c6F)c([H])c5[H])c(C(=O)N([H])[H])c4N([H])[H])C3([H])[H])[N+]([H])([H])[H])c([H])c([H])c2C1([H])[H]

$$$$
18:0:0
     RDKit          3D

101109  0  0  1  0  0  0  0  0999 V2000
  -26.7780  -21.0240   17.4370 C   0  0  0  0  0  3  0  0  0  0  0  0
  -26.5180  -22.3960   17.5840 C   0  0  0  0  0  3  0  0  0  0  0  0
  -26.3500  -20.1200   18.4310 C   0  0  0  0  0  0  0  0  0  0  0  0
  -25.8290  -22.8790   18.7190 C   0  0  0  0  0  0  0  0  0  0  0  0
  -25.6560  -20.5920   19.5680 C   0  0  0  0  0  0  0  0  0  0  0  0
  -25.4160  -21.9710   19.7210 C   0  0  0  0  0  0  0  0  0  0  0  0
  -25.2470  -19.7390   20.5440 F   0  0  0  0  0  0  0  0  0  0  0  0
  -24.7970  -22.4130   20.8440 F   0  0  0  0  0  0  0  0  0  0  0  0
  -26.7380  -18.6830   18.3510 C   0  0  0  0  0  0  0  0  0  0  0  0
  -28.0550  -18.5190   18.4220 N   0  0  0  0  0  0  0  0  0  0  0  0
  -25.9210  -17.7630   18.4140 O   0  0  0  0  0  0  0  0  0  0  0  0
  -28.5650  -19.3470   18.1630 H   0  0  0  0  0  0  0  0  0  0  0  0
  -28.6050  -17.7610   19.5320 C   0  0  0  0  0  2  0  0  0  0  0  0
  -30.1150  -17.9750   19.6820 C   0  0  0  0  0  2  0  0  0  0  0  0
  -30.6800  -17.3480   20.9740 C   0  0  0  0  0  2  0  0  0  0  0  0
  -31.0730  -14.9380   20.6080 C   0  0  0  0  0  0  0  0  0  0  0  0
  -30.7810  -12.8440   19.3900 C   0  0  0  0  0  2  0  0  0  0  0  0
  -29.8580  -13.1070   18.1780 C   0  0  0  0  0  2  0  0  0  0  0  0
  -28.3740  -12.9570   18.5670 C   0  0  0  0  0  2  0  0  0  0  0  0
  -28.0180  -13.7350   19.8560 C   0  0  0  0  0  3  0  0  0  0  0  0
  -29.0480  -13.4750   20.9790 C   0  0  0  0  0  2  0  0  0  0  0  0
  -30.3940  -13.7780   20.4540 N   0  0  0  0  0  0  0  0  0  0  0  0
  -32.1980  -15.1500   20.1480 O   0  0  0  0  0  0  0  0  0  0  0  0
  -30.3450  -15.9340   21.1120 N   0  0  0  0  0  0  0  0  0  0  0  0
  -29.4310  -15.6890   21.4570 H   0  0  0  0  0  0  0  0  0  0  0  0
  -25.6030  -14.3400   20.5410 C   0  0  0  0  0  0  0  0  0  0  0  0
  -24.5210  -13.5630   20.8470 C   0  0  0  0  0  0  0  0  0  0  0  0
  -24.9700  -12.2100   20.7510 C   0  0  0  0  0  0  0  0  0  0  0  0
  -26.6470  -13.4610   20.2830 N   0  0  0  0  0  0  0  0  0  0  0  0
  -26.2620  -12.1720   20.4600 N   0  0  0  0  0  0  0  0  0  0  0  0
  -24.2330  -10.9490   20.8570 C   0  0  0  0  0  0  0  0  0  0  0  0
  -24.6380   -9.9350   21.7550 C   0  0  0  0  0  3  0  0  0  0  0  0
  -23.9050   -8.7330   21.8480 C   0  0  0  0  0  3  0  0  0  0  0  0
  -22.7590   -8.5400   21.0400 C   0  0  0  0  0  0  0  0  0  0  0  0
  -22.3760   -9.5440   20.1340 C   0  0  0  0  0  3  0  0  0  0  0  0
  -23.1070  -10.7370   20.0370 C   0  0  0  0  0  3  0  0  0  0  0  0
  -21.9910   -7.4000   21.0480 O   0  0  0  0  0  0  0  0  0  0  0  0
  -21.8710   -6.6190   22.1700 C   0  0  0  0  0  0  0  0  0  0  0  0
  -21.3620   -7.1340   23.3830 C   0  0  0  0  0  3  0  0  0  0  0  0
  -21.1880   -6.2830   24.4920 C   0  0  0  0  0  3  0  0  0  0  0  0
  -21.5160   -4.9160   24.3900 C   0  0  0  0  0  0  0  0  0  0  0  0
  -22.0190   -4.4020   23.1820 C   0  0  0  0  0  3  0  0  0  0  0  0
  -22.1950   -5.2520   22.0760 C   0  0  0  0  0  0  0  0  0  0  0  0
  -22.6610   -4.7440   20.9100 F   0  0  0  0  0  0  0  0  0  0  0  0
  -21.3430   -4.0970   25.4550 F   0  0  0  0  0  0  0  0  0  0  0  0
  -23.1210  -14.0360   21.1190 C   0  0  0  0  0  0  0  0  0  0  0  0
  -22.3730  -13.3040   21.9370 N   0  0  0  0  0  0  0  0  0  0  0  0
  -22.6980  -15.0900   20.6430 O   0  0  0  0  0  0  0  0  0  0  0  0
  -22.7360  -12.4530   22.3410 H   0  0  0  0  0  0  0  0  0  0  0  0
  -21.4340  -13.5990   22.1630 H   0  0  0  0  0  0  0  0  0  0  0  0
  -25.7770  -15.7200   20.4420 N   0  0  0  0  0  0  0  0  0  0  0  0
  -24.9590  -16.3210   20.4690 H   0  0  0  0  0  0  0  0  0  0  0  0
  -26.5130  -16.1340   19.8850 H   0  0  0  0  0  0  0  0  0  0  0  0
  -23.9760  -24.6270   18.8870 C   0  0  0  0  0  1  0  0  0  0  0  0
  -25.4940  -24.3630   18.8000 C   0  0  0  0  0  3  0  0  0  0  0  0
  -26.2640  -25.0920   19.8470 N   0  0  0  0  0  4  0  0  0  0  0  0
  -25.9570  -26.0540   19.8350 H   0  0  0  0  0  0  0  0  0  0  0  0
  -26.0150  -24.7230   20.7510 H   0  0  0  0  0  0  0  0  0  0  0  0
  -27.7510  -25.0810   19.7030 C   0  0  0  0  0  2  0  0  0  0  0  0
  -28.4640  -26.3030   20.3450 C   0  0  0  0  0  2  0  0  0  0  0  0
  -28.4710  -27.4870   19.5260 O   0  0  0  0  0  0  0  0  0  0  0  0
  -24.6620  -31.9590   23.5230 C   0  0  0  0  0  0  0  0  0  0  0  0
  -27.3340  -28.2400   19.6490 C   0  0  0  0  0  0  0  0  0  0  0  0
  -23.4530  -30.8460   21.6740 C   0  0  0  0  0  3  0  0  0  0  0  0
  -24.9100  -29.6420   19.9680 C   0  0  0  0  0  0  0  0  0  0  0  0
  -25.9610  -31.3030   21.5120 C   0  0  0  0  0  2  0  0  0  0  0  0
  -26.0620  -30.0700   20.6420 C   0  0  0  0  0  0  0  0  0  0  0  0
  -27.2770  -29.3610   20.5030 C   0  0  0  0  0  3  0  0  0  0  0  0
  -26.1930  -27.8850   18.9070 C   0  0  0  0  0  3  0  0  0  0  0  0
  -24.9690  -28.5400   19.0990 C   0  0  0  0  0  3  0  0  0  0  0  0
  -23.6480  -30.4370   20.1910 C   0  0  0  0  0  2  0  0  0  0  0  0
  -24.7090  -31.3750   22.2940 N   0  0  0  0  0  0  0  0  0  0  0  0
  -23.5870  -32.1010   24.1210 O   0  0  0  0  0  0  0  0  0  0  0  0
  -22.8490  -29.6470   22.4400 C   0  0  0  0  0  0  0  0  0  0  0  0
  -21.5330  -29.4350   22.2770 N   0  0  0  0  0  0  0  0  0  0  0  0
  -23.5620  -28.9200   23.1380 O   0  0  0  0  0  0  0  0  0  0  0  0
  -21.0190  -30.0800   21.6940 H   0  0  0  0  0  0  0  0  0  0  0  0
  -18.2190  -28.0180   22.5090 C   0  0  0  0  0  0  0  0  0  0  0  0
  -20.7550  -28.3490   22.8740 C   0  0  0  0  0  3  0  0  0  0  0  0
  -20.9380  -27.0330   22.0820 C   0  0  0  0  0  2  0  0  0  0  0  0
  -19.8660  -26.8210   21.0060 C   0  0  0  0  0  2  0  0  0  0  0  0
  -18.4700  -26.8000   21.6360 C   0  0  0  0  0  2  0  0  0  0  0  0
  -19.2910  -28.7530   23.0760 C   0  0  0  0  0  0  0  0  0  0  0  0
  -19.0030  -29.8970   23.8530 C   0  0  0  0  0  3  0  0  0  0  0  0
  -17.6730  -30.3050   24.0660 C   0  0  0  0  0  3  0  0  0  0  0  0
  -16.6130  -29.5640   23.5140 C   0  0  0  0  0  3  0  0  0  0  0  0
  -16.8870  -28.4210   22.7430 C   0  0  0  0  0  3  0  0  0  0  0  0
  -25.9490  -32.4990   24.2220 C   0  0  0  0  0  3  0  0  0  0  0  0
  -25.6790  -33.8860   24.6300 N   0  0  0  0  0  0  0  0  0  0  0  0
  -26.0900  -34.9690   23.9570 C   0  0  0  0  0  0  0  0  0  0  0  0
  -26.8040  -34.9010   22.9540 O   0  0  0  0  0  0  0  0  0  0  0  0
  -25.0530  -34.0120   25.4120 H   0  0  0  0  0  0  0  0  0  0  0  0
  -24.4570  -36.8510   23.6300 C   0  0  0  0  0  1  0  0  0  0  0  0
  -25.6320  -36.3420   24.4800 C   0  0  0  0  0  3  0  0  0  0  0  0
  -27.7510  -37.0730   25.4820 C   0  0  0  0  0  1  0  0  0  0  0  0
  -26.7130  -37.3530   24.4950 N   0  0  0  0  0  0  0  0  0  0  0  0
  -26.3380  -38.2810   24.6800 H   0  0  0  0  0  0  0  0  0  0  0  0
  -26.3990  -31.6270   25.4580 C   0  0  1  0  0  0  0  0  0  0  0  0
  -25.2660  -31.3650   26.4750 C   0  0  0  0  0  1  0  0  0  0  0  0
  -26.9410  -30.2580   24.9920 C   0  0  0  0  0  1  0  0  0  0  0  0
  -27.5570  -32.3310   26.2010 C   0  0  0  0  0  1  0  0  0  0  0  0
  1  2  2  0
  1  3  1  0
  2  4  1  0
  3  5  2  0
  4 55  1  0
  4  6  2  0
  5  6  1  0
  5  7  1  0
  6  8  1  0
  9 11  2  0
  9 10  1  0
  9  3  1  0
 10 13  1  0
 12 10  1  0
 13 14  1  0
 14 15  1  0
 15 24  1  0
 16 24  1  0
 17 22  1  0
 18 19  1  0
 18 17  1  0
 20 19  1  0
 20 29  1  0
 20 21  1  0
 22 16  1  0
 22 21  1  0
 23 16  2  0
 24 25  1  0
 26 27  2  0
 27 46  1  0
 28 27  1  0
 28 31  1  0
 29 30  1  0
 29 26  1  0
 30 28  2  0
 31 32  1  0
 32 33  2  0
 34 37  1  0
 34 33  1  0
 35 34  2  0
 36 35  1  0
 36 31  2  0
 37 38  1  0
 38 39  1  0
 39 40  2  0
 41 40  1  0
 41 45  1  0
 42 41  2  0
 43 38  2  0
 43 42  1  0
 44 43  1  0
 46 47  1  0
 47 50  1  0
 47 49  1  0
 48 46  2  0
 51 52  1  0
 51 26  1  0
 53 51  1  0
 55 54  1  0
 55 56  1  0
 56 58  1  0
 57 56  1  0
 59 56  1  0
 59 60  1  0
 61 63  1  0
 61 60  1  0
 62 73  2  0
 63 68  1  0
 64 72  1  0
 64 74  1  0
 65 71  1  0
 65 67  1  0
 66 72  1  0
 67 66  1  0
 68 67  2  0
 69 70  1  0
 69 63  2  0
 70 65  2  0
 71 64  1  0
 72 62  1  0
 74 76  2  0
 75 74  1  0
 77 75  1  0
 78 87  2  0
 78 83  1  0
 79 75  1  0
 79 83  1  0
 80 79  1  0
 81 82  1  0
 81 80  1  0
 82 78  1  0
 83 84  2  0
 84 85  1  0
 86 85  2  0
 87 86  1  0
 88 62  1  0
 88 89  1  0
 88 98  1  0
 89 92  1  0
 90 94  1  0
 90 89  1  0
 91 90  2  0
 94 93  1  0
 94 96  1  0
 96 97  1  0
 96 95  1  0
 98101  1  1
 98 99  1  0
100 98  1  0
M  ISO  4  16 100  24 100  60 101  61 101
M  END
>  <TORSDO>  (16) 
F 24

>  <SCORE>  (16) 
-5.035

>  <name>  (16) 
18

>  <ligand_id>  (16) 
18

>  <original_smiles>  (16) 
[H]c1c([H])c([H])c2c(c1[H])C([H])([H])C([H])([H])C([H])([H])C2([H])N([H])C(=O)C1([H])N(C(=O)C([H])(N([H])C(=O)C([H])(N([H])C([H])([H])[H])C([H])([H])[H])C(C([H])([H])[H])(C([H])([H])[H])C([H])([H])[H])C([H])([H])c2c([H])c(OC([H])([H])C([H])([H])[N+]([H])([H])C([H])(c3c([H])c([H])c(C(=O)N([H])C([H])([H])C([H])([H])C([H])([H])N([H])C(=O)N4C([H])([H])C([H])([H])C([H])([H])C([H])(n5nc(-c6c([H])c([H])c(Oc7c([H])c([H])c(F)c([H])c7F)c([H])c6[H])c(C(=O)N([H])[H])c5N([H])[H])C4([H])[H])c(F)c3F)C([H])([H])[H])c([H])c([H])c2C1([H])[H]

>  <smiles>  (16) 
[H]c1c([H])c([H])c2c(c1[H])C([H])([H])C([H])([H])C([H])([H])C2([H])N([H])C(=O)C1([H])N(C(=O)C([H])(N([H])C(=O)C([H])(N([H])C([H])([H])[H])C([H])([H])[H])C(C([H])([H])[H])(C([H])([H])[H])C([H])([H])[H])C([H])([H])c2c([H])c(OC([H])([H])C([H])([H])[N+]([H])([H])C([H])(c3c([H])c([H])c(C(=O)N([H])C([H])([H])C([H])([H])C([H])([H])N([H])C(=O)N4C([H])([H])C([H])([H])C([H])([H])C([H])(n5nc(-c6c([H])c([H])c(Oc7c([H])c([H])c(F)c([H])c7F)c([H])c6[H])c(C(=O)N([H])[H])c5N([H])[H])C4([H])[H])c(F)c3F)C([H])([H])[H])c([H])c([H])c2C1([H])[H]

$$$$
19:0:0
     RDKit          3D

103111  0  0  1  0  0  0  0  0999 V2000
  -25.5200  -23.3390   25.5700 C   0  0  0  0  0  3  0  0  0  0  0  0
  -25.4680  -21.1700   24.4670 C   0  0  0  0  0  3  0  0  0  0  0  0
  -25.6250  -23.9760   24.3190 C   0  0  0  0  0  3  0  0  0  0  0  0
  -25.6010  -21.8050   23.2150 C   0  0  0  0  0  3  0  0  0  0  0  0
  -25.4410  -21.9340   25.6560 C   0  0  0  0  0  0  0  0  0  0  0  0
  -25.6780  -23.2140   23.1310 C   0  0  0  0  0  0  0  0  0  0  0  0
  -24.4190  -24.5920   21.4530 C   0  0  0  0  0  1  0  0  0  0  0  0
  -25.7590  -23.9100   21.7740 C   0  0  0  0  0  3  0  0  0  0  0  0
  -26.8690  -24.8920   21.7670 N   0  0  0  0  0  4  0  0  0  0  0  0
  -26.5540  -25.7540   21.3460 H   0  0  0  0  0  0  0  0  0  0  0  0
  -27.0830  -25.0930   22.7310 H   0  0  0  0  0  0  0  0  0  0  0  0
  -28.1320  -24.5020   21.0930 C   0  0  0  0  0  2  0  0  0  0  0  0
  -28.4160  -25.3300   19.8200 C   0  0  0  0  0  2  0  0  0  0  0  0
  -28.4150  -26.7420   20.0870 O   0  0  0  0  0  0  0  0  0  0  0  0
  -24.6110  -31.8720   23.2140 C   0  0  0  0  0  0  0  0  0  0  0  0
  -27.2280  -27.4490   20.0740 C   0  0  0  0  0  0  0  0  0  0  0  0
  -23.3970  -30.4970   21.5580 C   0  0  0  0  0  3  0  0  0  0  0  0
  -24.8410  -28.9690   20.1190 C   0  0  0  0  0  0  0  0  0  0  0  0
  -25.9280  -30.8370   21.3710 C   0  0  0  0  0  2  0  0  0  0  0  0
  -26.0020  -29.4740   20.7150 C   0  0  0  0  0  0  0  0  0  0  0  0
  -27.1960  -28.7170   20.6970 C   0  0  0  0  0  3  0  0  0  0  0  0
  -26.0440  -26.9640   19.4660 C   0  0  0  0  0  3  0  0  0  0  0  0
  -24.8570  -27.7130   19.4970 C   0  0  0  0  0  3  0  0  0  0  0  0
  -23.6040  -29.8350   20.1710 C   0  0  0  0  0  2  0  0  0  0  0  0
  -24.6630  -31.0830   22.1050 N   0  0  0  0  0  0  0  0  0  0  0  0
  -23.5310  -32.1470   23.7550 O   0  0  0  0  0  0  0  0  0  0  0  0
  -22.7400  -29.4650   22.5030 C   0  0  0  0  0  0  0  0  0  0  0  0
  -21.4130  -29.3000   22.3790 N   0  0  0  0  0  0  0  0  0  0  0  0
  -23.4210  -28.8160   23.3000 O   0  0  0  0  0  0  0  0  0  0  0  0
  -20.9280  -29.8730   21.7030 H   0  0  0  0  0  0  0  0  0  0  0  0
  -18.0270  -28.1350   22.8480 C   0  0  0  0  0  0  0  0  0  0  0  0
  -20.5860  -28.3610   23.1360 C   0  0  0  0  0  3  0  0  0  0  0  0
  -20.6770  -26.9360   22.5410 C   0  0  0  0  0  2  0  0  0  0  0  0
  -19.5760  -26.6360   21.5200 C   0  0  0  0  0  2  0  0  0  0  0  0
  -18.1930  -26.7890   22.1610 C   0  0  0  0  0  2  0  0  0  0  0  0
  -19.1520  -28.8790   23.2910 C   0  0  0  0  0  0  0  0  0  0  0  0
  -18.9440  -30.1400   23.8920 C   0  0  0  0  0  3  0  0  0  0  0  0
  -17.6450  -30.6570   24.0530 C   0  0  0  0  0  3  0  0  0  0  0  0
  -16.5330  -29.9050   23.6340 C   0  0  0  0  0  3  0  0  0  0  0  0
  -16.7250  -28.6460   23.0350 C   0  0  0  0  0  3  0  0  0  0  0  0
  -25.9010  -32.4830   23.8420 C   0  0  0  0  0  3  0  0  0  0  0  0
  -25.5870  -33.8610   24.2350 N   0  0  0  0  0  0  0  0  0  0  0  0
  -25.9010  -34.9460   23.5150 C   0  0  0  0  0  0  0  0  0  0  0  0
  -26.5570  -34.8910   22.4720 O   0  0  0  0  0  0  0  0  0  0  0  0
  -24.9990  -33.9770   25.0490 H   0  0  0  0  0  0  0  0  0  0  0  0
  -24.1510  -36.7340   23.2640 C   0  0  0  0  0  1  0  0  0  0  0  0
  -25.4100  -36.3100   24.0360 C   0  0  0  0  0  3  0  0  0  0  0  0
  -27.5590  -37.1810   24.8460 C   0  0  0  0  0  1  0  0  0  0  0  0
  -26.4290  -37.3770   23.9420 N   0  0  0  0  0  0  0  0  0  0  0  0
  -26.0190  -38.2880   24.1350 H   0  0  0  0  0  0  0  0  0  0  0  0
  -26.4440  -31.6580   25.0730 C   0  0  1  0  0  0  0  0  0  0  0  0
  -25.3720  -31.3640   26.1500 C   0  0  0  0  0  1  0  0  0  0  0  0
  -27.0240  -30.3020   24.6060 C   0  0  0  0  0  1  0  0  0  0  0  0
  -27.6030  -32.4280   25.7470 C   0  0  0  0  0  1  0  0  0  0  0  0
  -25.3130  -21.2770   27.0270 C   0  0  0  0  0  2  0  0  0  0  0  0
  -26.6250  -20.6380   27.5220 C   0  0  0  0  0  2  0  0  0  0  0  0
  -26.9610  -19.4360   26.7350 N   0  0  0  0  0  4  0  0  0  0  0  0
  -26.4830  -19.5210   25.8540 H   0  0  0  0  0  0  0  0  0  0  0  0
  -26.5990  -18.6250   27.2120 H   0  0  0  0  0  0  0  0  0  0  0  0
  -28.3950  -19.2410   26.4470 C   0  0  0  0  0  2  0  0  0  0  0  0
  -28.6100  -17.9670   25.6140 C   0  0  0  0  0  2  0  0  0  0  0  0
  -30.0100  -17.8830   24.9950 C   0  0  0  0  0  2  0  0  0  0  0  0
  -30.2140  -16.5750   24.2180 C   0  0  0  0  0  2  0  0  0  0  0  0
  -31.4810  -16.6000   23.3510 C   0  0  0  0  0  2  0  0  0  0  0  0
  -31.8960  -15.2200   22.8190 C   0  0  0  0  0  2  0  0  0  0  0  0
  -30.8630  -14.2440   20.7750 C   0  0  0  0  0  0  0  0  0  0  0  0
  -30.4060  -12.2860   19.3610 C   0  0  0  0  0  2  0  0  0  0  0  0
  -29.4680  -12.5490   18.1750 C   0  0  0  0  0  2  0  0  0  0  0  0
  -28.0030  -12.3800   18.6080 C   0  0  0  0  0  2  0  0  0  0  0  0
  -27.6670  -13.2060   19.8770 C   0  0  0  0  0  3  0  0  0  0  0  0
  -28.7080  -12.9700   20.9940 C   0  0  0  0  0  2  0  0  0  0  0  0
  -30.0610  -13.2030   20.4550 N   0  0  0  0  0  0  0  0  0  0  0  0
  -31.7390  -14.6920   20.0270 O   0  0  0  0  0  0  0  0  0  0  0  0
  -30.8280  -14.5500   22.0760 N   0  0  0  0  0  0  0  0  0  0  0  0
  -30.1190  -14.0770   22.6180 H   0  0  0  0  0  0  0  0  0  0  0  0
  -25.2610  -13.8160   20.5670 C   0  0  0  0  0  0  0  0  0  0  0  0
  -24.1860  -13.0440   20.9160 C   0  0  0  0  0  0  0  0  0  0  0  0
  -24.6400  -11.6910   20.8720 C   0  0  0  0  0  0  0  0  0  0  0  0
  -26.3060  -12.9340   20.3390 N   0  0  0  0  0  0  0  0  0  0  0  0
  -25.9330  -11.6490   20.5760 N   0  0  0  0  0  0  0  0  0  0  0  0
  -23.9070  -10.4290   21.0400 C   0  0  0  0  0  0  0  0  0  0  0  0
  -24.3610   -9.4210   21.9180 C   0  0  0  0  0  3  0  0  0  0  0  0
  -23.6290   -8.2250   22.0750 C   0  0  0  0  0  3  0  0  0  0  0  0
  -22.4270   -8.0280   21.3540 C   0  0  0  0  0  0  0  0  0  0  0  0
  -21.9910   -9.0260   20.4640 C   0  0  0  0  0  3  0  0  0  0  0  0
  -22.7240  -10.2130   20.3050 C   0  0  0  0  0  3  0  0  0  0  0  0
  -21.6640   -6.8880   21.4240 O   0  0  0  0  0  0  0  0  0  0  0  0
  -21.6860   -6.0740   22.5280 C   0  0  0  0  0  0  0  0  0  0  0  0
  -21.4020   -6.5640   23.8210 C   0  0  0  0  0  3  0  0  0  0  0  0
  -21.3660   -5.6790   24.9170 C   0  0  0  0  0  3  0  0  0  0  0  0
  -21.6050   -4.3060   24.7230 C   0  0  0  0  0  0  0  0  0  0  0  0
  -21.8820   -3.8140   23.4350 C   0  0  0  0  0  3  0  0  0  0  0  0
  -21.9190   -4.6960   22.3400 C   0  0  0  0  0  0  0  0  0  0  0  0
  -22.1660   -4.2150   21.0980 F   0  0  0  0  0  0  0  0  0  0  0  0
  -21.5630   -3.4540   25.7740 F   0  0  0  0  0  0  0  0  0  0  0  0
  -22.7880  -13.5240   21.1840 C   0  0  0  0  0  0  0  0  0  0  0  0
  -22.0510  -12.8230   22.0380 N   0  0  0  0  0  0  0  0  0  0  0  0
  -22.3560  -14.5550   20.6690 O   0  0  0  0  0  0  0  0  0  0  0  0
  -22.4120  -11.9880   22.4760 H   0  0  0  0  0  0  0  0  0  0  0  0
  -21.1130  -13.1250   22.2580 H   0  0  0  0  0  0  0  0  0  0  0  0
  -25.4340  -15.1880   20.4090 N   0  0  0  0  0  0  0  0  0  0  0  0
  -24.6700  -15.8470   20.5120 H   0  0  0  0  0  0  0  0  0  0  0  0
  -26.2980  -15.6250   20.1120 H   0  0  0  0  0  0  0  0  0  0  0  0
  1  5  1  0
  2  5  2  0
  3  1  2  0
  4  2  1  0
  5 55  1  0
  6  4  2  0
  6  3  1  0
  8  7  1  0
  8  6  1  0
  9  8  1  0
  9 11  1  0
 10  9  1  0
 12  9  1  0
 13 14  1  0
 13 12  1  0
 15 26  2  0
 16 14  1  0
 16 21  1  0
 17 25  1  0
 17 27  1  0
 18 24  1  0
 18 20  1  0
 19 25  1  0
 20 19  1  0
 21 20  2  0
 22 23  1  0
 22 16  2  0
 23 18  2  0
 24 17  1  0
 25 15  1  0
 27 29  2  0
 28 27  1  0
 30 28  1  0
 31 40  2  0
 31 36  1  0
 32 28  1  0
 32 36  1  0
 33 32  1  0
 34 35  1  0
 34 33  1  0
 35 31  1  0
 36 37  2  0
 37 38  1  0
 39 38  2  0
 40 39  1  0
 41 15  1  0
 41 42  1  0
 41 51  1  0
 42 45  1  0
 43 47  1  0
 43 42  1  0
 44 43  2  0
 47 46  1  0
 49 47  1  0
 49 50  1  0
 49 48  1  0
 51 54  1  1
 51 52  1  0
 53 51  1  0
 55 56  1  0
 57 59  1  0
 57 56  1  0
 58 57  1  0
 60 57  1  0
 61 60  1  0
 62 61  1  0
 63 62  1  0
 64 63  1  0
 65 64  1  0
 66 74  1  0
 67 72  1  0
 68 69  1  0
 68 67  1  0
 70 69  1  0
 70 79  1  0
 70 71  1  0
 72 66  1  0
 72 71  1  0
 73 66  2  0
 74 75  1  0
 74 65  1  0
 76 77  2  0
 77 96  1  0
 78 77  1  0
 78 81  1  0
 79 76  1  0
 79 80  1  0
 80 78  2  0
 81 82  1  0
 82 83  2  0
 84 87  1  0
 84 83  1  0
 85 84  2  0
 86 85  1  0
 86 81  2  0
 87 88  1  0
 88 89  1  0
 89 90  2  0
 91 90  1  0
 91 95  1  0
 92 91  2  0
 93 88  2  0
 93 92  1  0
 94 93  1  0
 96 97  1  0
 97100  1  0
 97 99  1  0
 98 96  2  0
101102  1  0
101 76  1  0
103101  1  0
M  ISO  4  13 101  14 101  66 100  74 100
M  END
>  <TORSDO>  (17) 
F 29

>  <SCORE>  (17) 
40.010

>  <name>  (17) 
19

>  <ligand_id>  (17) 
19

>  <original_smiles>  (17) 
[H]c1c([H])c([H])c2c(c1[H])C([H])([H])C([H])([H])C([H])([H])C2([H])N([H])C(=O)C1([H])N(C(=O)C([H])(N([H])C(=O)C([H])(N([H])C([H])([H])[H])C([H])([H])[H])C(C([H])([H])[H])(C([H])([H])[H])C([H])([H])[H])C([H])([H])c2c([H])c(OC([H])([H])C([H])([H])[N+]([H])([H])C([H])(c3c([H])c([H])c(C([H])([H])C([H])([H])[N+]([H])([H])C([H])([H])C([H])([H])C([H])([H])C([H])([H])C([H])([H])C([H])([H])N([H])C(=O)N4C([H])([H])C([H])([H])C([H])([H])C([H])(n5nc(-c6c([H])c([H])c(Oc7c([H])c([H])c(F)c([H])c7F)c([H])c6[H])c(C(=O)N([H])[H])c5N([H])[H])C4([H])[H])c([H])c3[H])C([H])([H])[H])c([H])c([H])c2C1([H])[H]

>  <smiles>  (17) 
[H]c1c([H])c([H])c2c(c1[H])C([H])([H])C([H])([H])C([H])([H])C2([H])N([H])C(=O)C1([H])N(C(=O)C([H])(N([H])C(=O)C([H])(N([H])C([H])([H])[H])C([H])([H])[H])C(C([H])([H])[H])(C([H])([H])[H])C([H])([H])[H])C([H])([H])c2c([H])c(OC([H])([H])C([H])([H])[N+]([H])([H])C([H])(c3c([H])c([H])c(C([H])([H])C([H])([H])[N+]([H])([H])C([H])([H])C([H])([H])C([H])([H])C([H])([H])C([H])([H])C([H])([H])N([H])C(=O)N4C([H])([H])C([H])([H])C([H])([H])C([H])(n5nc(-c6c([H])c([H])c(Oc7c([H])c([H])c(F)c([H])c7F)c([H])c6[H])c(C(=O)N([H])[H])c5N([H])[H])C4([H])[H])c([H])c3[H])C([H])([H])[H])c([H])c([H])c2C1([H])[H]

$$$$
20:0:0
     RDKit          3D

100103  0  0  1  0  0  0  0  0999 V2000
  -27.0900  -24.0960   20.0000 C   0  0  0  0  0  2  0  0  0  0  0  0
  -26.3930  -26.4770   21.4510 C   0  0  0  0  0  3  0  0  0  0  0  0
  -27.1860  -25.1660   21.1640 C   0  0  0  0  0  0  0  0  0  0  0  0
  -26.1040  -23.8780   18.7210 C   0  0  0  0  0  2  0  0  0  0  0  0
  -25.0750  -26.9440   20.6240 C   0  0  0  0  0  2  0  0  0  0  0  0
  -24.6610  -25.2590   18.4240 C   0  0  0  0  0  1  0  0  0  0  0  0
  -24.3690  -27.0690   22.0220 C   0  0  0  0  0  1  0  0  0  0  0  0
  -28.1620  -24.9390   22.2360 C   0  0  0  0  0  0  0  0  0  0  0  0
  -27.8650  -24.8280   23.4340 O   0  0  0  0  0  0  0  0  0  0  0  0
  -29.5830  -24.9650   21.7540 C   0  0  0  0  0  2  0  0  0  0  0  0
  -29.8630  -26.3470   21.2550 N   0  0  0  0  0  4  0  0  0  0  0  0
  -30.8210  -26.5510   21.4730 H   0  0  0  0  0  0  0  0  0  0  0  0
  -29.3760  -27.0310   21.8160 H   0  0  0  0  0  0  0  0  0  0  0  0
  -29.7060  -26.5780   19.7900 C   0  0  0  0  0  2  0  0  0  0  0  0
  -29.2370  -28.0070   19.3010 C   0  0  0  0  0  2  0  0  0  0  0  0
  -28.2930  -28.0440   18.1860 O   0  0  0  0  0  0  0  0  0  0  0  0
  -24.6140  -30.8260   23.7710 C   0  0  0  0  0  0  0  0  0  0  0  0
  -27.0210  -28.1680   18.6490 C   0  0  0  0  0  2  0  0  0  0  0  0
  -23.1000  -30.4750   21.8180 C   0  0  0  0  0  3  0  0  0  0  0  0
  -24.1090  -30.2410   19.1870 C   0  0  0  0  0  3  0  0  0  0  0  0
  -25.5010  -31.2030   21.3280 C   0  0  0  0  0  2  0  0  0  0  0  0
  -25.5460  -30.4710   19.8710 C   0  0  0  0  0  3  0  0  0  0  0  0
  -26.9090  -29.6480   19.5240 C   0  0  0  0  0  2  0  0  0  0  0  0
  -24.6570  -27.6800   17.5960 C   0  0  0  0  0  1  0  0  0  0  0  0
  -23.6800  -29.0890   18.0420 C   0  0  0  0  0  2  0  0  0  0  0  0
  -23.0030  -30.7570   20.2190 C   0  0  0  0  0  2  0  0  0  0  0  0
  -24.4520  -30.8150   22.3740 N   0  0  0  0  0  0  0  0  0  0  0  0
  -23.6740  -30.5990   24.5530 O   0  0  0  0  0  0  0  0  0  0  0  0
  -22.5610  -29.0980   22.3680 C   0  0  0  0  0  0  0  0  0  0  0  0
  -21.4150  -28.5330   21.9100 N   0  0  0  0  0  0  0  0  0  0  0  0
  -23.2690  -28.4780   23.1700 O   0  0  0  0  0  0  0  0  0  0  0  0
  -20.8620  -29.0180   21.2110 H   0  0  0  0  0  0  0  0  0  0  0  0
  -18.8080  -26.1190   21.2690 C   0  0  0  0  0  0  0  0  0  0  0  0
  -20.9810  -27.1430   22.2010 C   0  0  0  0  0  3  0  0  0  0  0  0
  -21.6780  -26.0880   21.3140 C   0  0  0  0  0  2  0  0  0  0  0  0
  -20.9840  -25.8850   19.9740 C   0  0  0  0  0  2  0  0  0  0  0  0
  -19.5570  -25.3870   20.1720 C   0  0  0  0  0  2  0  0  0  0  0  0
  -19.4650  -26.9670   22.1990 C   0  0  0  0  0  0  0  0  0  0  0  0
  -18.7010  -27.6760   23.1500 C   0  0  0  0  0  3  0  0  0  0  0  0
  -17.2990  -27.5510   23.1770 C   0  0  0  0  0  3  0  0  0  0  0  0
  -16.6550  -26.7020   22.2550 C   0  0  0  0  0  3  0  0  0  0  0  0
  -17.4080  -25.9830   21.3100 C   0  0  0  0  0  3  0  0  0  0  0  0
  -25.9620  -31.1540   24.5020 C   0  0  0  0  0  3  0  0  0  0  0  0
  -26.2860  -30.1820   25.7120 C   0  0  1  0  0  0  0  0  0  0  0  0
  -25.1280  -30.0080   26.7260 C   0  0  0  0  0  1  0  0  0  0  0  0
  -26.6770  -28.7840   25.1880 C   0  0  0  0  0  1  0  0  0  0  0  0
  -27.5190  -30.6990   26.5000 C   0  0  0  0  0  1  0  0  0  0  0  0
  -25.9030  -32.5470   25.0120 N   0  0  0  0  0  0  0  0  0  0  0  0
  -26.5030  -33.6000   24.4450 C   0  0  0  0  0  0  0  0  0  0  0  0
  -27.2010  -33.4930   23.4350 O   0  0  0  0  0  0  0  0  0  0  0  0
  -25.2930  -32.7280   25.7970 H   0  0  0  0  0  0  0  0  0  0  0  0
  -25.2890  -35.8050   24.2520 C   0  0  0  0  0  1  0  0  0  0  0  0
  -26.2950  -34.9910   25.0860 C   0  0  0  0  0  3  0  0  0  0  0  0
  -28.4810  -35.1930   26.1920 C   0  0  0  0  0  1  0  0  0  0  0  0
  -27.5450  -35.7710   25.2310 N   0  0  0  0  0  0  0  0  0  0  0  0
  -27.3540  -36.7330   25.5050 H   0  0  0  0  0  0  0  0  0  0  0  0
  -27.0890  -22.2430   18.2850 C   0  0  0  0  0  2  0  0  0  0  0  0
  -27.4840  -22.2690   17.1160 O   0  0  0  0  0  1  0  0  0  0  0  0
  -27.6800  -20.5160   19.1070 C   0  0  0  0  0 15  0  0  0  0  0  0
  -28.8480  -18.7790   18.9600 C   0  0  0  0  0  1  0  0  0  0  0  0
  -29.8230  -15.5770   19.4590 C   0  0  0  0  0  0  0  0  0  0  0  0
  -30.1350  -12.9270   18.9140 C   0  0  0  0  0  2  0  0  0  0  0  0
  -29.1920  -12.2470   17.8690 C   0  0  0  0  0  2  0  0  0  0  0  0
  -27.8970  -11.7600   18.5350 C   0  0  0  0  0  2  0  0  0  0  0  0
  -27.3850  -12.7950   19.5580 C   0  0  0  0  0  3  0  0  0  0  0  0
  -28.4770  -13.4330   20.4650 C   0  0  0  0  0  2  0  0  0  0  0  0
  -29.4370  -14.1380   19.5690 N   0  0  0  0  0  0  0  0  0  0  0  0
  -31.0620  -15.5490   19.3310 O   0  0  0  0  0  0  0  0  0  0  0  0
  -28.9400  -16.9370   19.3190 N   0  0  0  0  0  0  0  0  0  0  0  0
  -27.9900  -16.6020   19.2760 H   0  0  0  0  0  0  0  0  0  0  0  0
  -25.2170  -13.1640   20.8050 C   0  0  0  0  0  0  0  0  0  0  0  0
  -24.2130  -12.3360   21.2210 C   0  0  0  0  0  0  0  0  0  0  0  0
  -24.6490  -11.0110   20.9170 C   0  0  0  0  0  0  0  0  0  0  0  0
  -26.1870  -12.3530   20.2600 N   0  0  0  0  0  0  0  0  0  0  0  0
  -25.8710  -11.0360   20.3870 N   0  0  0  0  0  0  0  0  0  0  0  0
  -23.9410   -9.7310   21.0460 C   0  0  0  0  0  0  0  0  0  0  0  0
  -24.4420   -8.6840   21.8530 C   0  0  0  0  0  3  0  0  0  0  0  0
  -23.7320   -7.4690   21.9760 C   0  0  0  0  0  3  0  0  0  0  0  0
  -22.5080   -7.2870   21.2870 C   0  0  0  0  0  0  0  0  0  0  0  0
  -22.0210   -8.3260   20.4740 C   0  0  0  0  0  3  0  0  0  0  0  0
  -22.7310   -9.5330   20.3510 C   0  0  0  0  0  3  0  0  0  0  0  0
  -21.7570   -6.1380   21.3340 O   0  0  0  0  0  0  0  0  0  0  0  0
  -21.6940   -5.3660   22.4660 C   0  0  0  0  0  0  0  0  0  0  0  0
  -21.1540   -5.8580   23.6740 C   0  0  0  0  0  3  0  0  0  0  0  0
  -21.0360   -5.0070   24.7900 C   0  0  0  0  0  3  0  0  0  0  0  0
  -21.4510   -3.6630   24.7000 C   0  0  0  0  0  0  0  0  0  0  0  0
  -21.9780   -3.1690   23.4940 C   0  0  0  0  0  3  0  0  0  0  0  0
  -22.0940   -4.0170   22.3790 C   0  0  0  0  0  0  0  0  0  0  0  0
  -22.5850   -3.5290   21.2150 F   0  0  0  0  0  0  0  0  0  0  0  0
  -21.3310   -2.8440   25.7710 F   0  0  0  0  0  0  0  0  0  0  0  0
  -22.8830  -12.7650   21.7660 C   0  0  0  0  0  0  0  0  0  0  0  0
  -22.2920  -11.9540   22.6350 N   0  0  0  0  0  0  0  0  0  0  0  0
  -22.3920  -13.8560   21.4740 O   0  0  0  0  0  0  0  0  0  0  0  0
  -22.6800  -11.0560   22.8820 H   0  0  0  0  0  0  0  0  0  0  0  0
  -21.4160  -12.2290   23.0520 H   0  0  0  0  0  0  0  0  0  0  0  0
  -25.3790  -14.5480   20.7780 N   0  0  0  0  0  0  0  0  0  0  0  0
  -24.6790  -15.2110   21.0980 H   0  0  0  0  0  0  0  0  0  0  0  0
  -26.1460  -15.0000   20.2970 H   0  0  0  0  0  0  0  0  0  0  0  0
  -23.7360  -25.2540   17.4060 O   0  0  0  0  0  0  0  0  0  0  0  0
  -23.0820  -25.9470   17.4660 H   0  0  0  0  0  0  0  0  0  0  0  0
  1  3  1  0
  3  2  2  0
  3  8  1  0
  4  1  1  0
  5  2  1  0
  5  7  1  0
  8  9  2  0
 10  8  1  0
 11 12  1  0
 11 10  1  0
 11 13  1  0
 14 11  1  0
 15 14  1  0
 16 18  1  0
 16 15  1  0
 17 28  2  0
 18 23  1  0
 19 29  1  0
 19 27  1  0
 20 25  1  0
 20 22  1  0
 20 26  1  0
 21 27  1  0
 22 23  1  0
 22 21  1  0
 24 25  1  0
 26 19  1  0
 27 17  1  0
 29 31  2  0
 30 29  1  0
 32 30  1  0
 33 42  2  0
 33 38  1  0
 34 30  1  0
 35 34  1  0
 36 37  1  0
 36 35  1  0
 37 33  1  0
 38 34  1  0
 38 39  2  0
 39 40  1  0
 41 40  2  0
 42 41  1  0
 43 17  1  0
 43 48  1  0
 43 44  1  0
 44 47  1  1
 44 45  1  0
 46 44  1  0
 48 51  1  0
 49 48  1  0
 49 53  1  0
 50 49  2  0
 53 52  1  0
 53 55  1  0
 55 56  1  0
 55 54  1  0
 57  4  1  0
 58 57  1  0
 60 69  1  0
 61 67  1  0
 62 67  1  0
 63 64  1  0
 63 62  1  0
 65 64  1  0
 65 74  1  0
 65 66  1  0
 67 66  1  0
 68 61  2  0
 69 61  1  0
 70 69  1  0
 71 72  2  0
 72 91  1  0
 73 76  1  0
 73 72  1  0
 74 75  1  0
 74 71  1  0
 75 73  2  0
 76 77  1  0
 77 78  2  0
 79 82  1  0
 79 78  1  0
 80 79  2  0
 81 80  1  0
 81 76  2  0
 82 83  1  0
 83 84  1  0
 84 85  2  0
 86 85  1  0
 86 90  1  0
 87 86  2  0
 88 83  2  0
 88 87  1  0
 89 88  1  0
 91 92  1  0
 92 94  1  0
 92 95  1  0
 93 91  2  0
 96 71  1  0
 96 97  1  0
 98 96  1  0
 99100  1  0
 99  6  1  0
M  ISO  4  15 101  16 101  61 100  69 100
M  END
>  <TORSDO>  (18) 
F 25

>  <SCORE>  (18) 
-6.214

>  <name>  (18) 
20

>  <ligand_id>  (18) 
20

>  <original_smiles>  (18) 
[H]Oc1c(C(=O)C([H])([H])C([H])([H])N([H])C(=O)N2C([H])([H])C([H])([H])C([H])([H])C([H])(n3nc(-c4c([H])c([H])c(Oc5c([H])c([H])c(F)c([H])c5F)c([H])c4[H])c(C(=O)N([H])[H])c3N([H])[H])C2([H])[H])c([H])c(C(=O)C([H])([H])[N+]([H])([H])C([H])([H])C([H])([H])Oc2c([H])c([H])c3c(c2[H])C([H])([H])N(C(=O)C([H])(N([H])C(=O)C([H])(N([H])C([H])([H])[H])C([H])([H])[H])C(C([H])([H])[H])(C([H])([H])[H])C([H])([H])[H])C([H])(C(=O)N([H])C2([H])c4c([H])c([H])c([H])c([H])c4C([H])([H])C([H])([H])C2([H])[H])C3([H])[H])c([H])c1C([H])([H])[H]

>  <smiles>  (18) 
[H]Oc1c(C(=O)C([H])([H])C([H])([H])N([H])C(=O)N2C([H])([H])C([H])([H])C([H])([H])C([H])(n3nc(-c4c([H])c([H])c(Oc5c([H])c([H])c(F)c([H])c5F)c([H])c4[H])c(C(=O)N([H])[H])c3N([H])[H])C2([H])[H])c([H])c(C(=O)C([H])([H])[N+]([H])([H])C([H])([H])C([H])([H])Oc2c([H])c([H])c3c(c2[H])C([H])([H])N(C(=O)C([H])(N([H])C(=O)C([H])(N([H])C([H])([H])[H])C([H])([H])[H])C(C([H])([H])[H])(C([H])([H])[H])C([H])([H])[H])C([H])(C(=O)N([H])C2([H])c4c([H])c([H])c([H])c([H])c4C([H])([H])C([H])([H])C2([H])[H])C3([H])[H])c([H])c1C([H])([H])[H]

$$$$
21:0:0
     RDKit          3D

 97105  0  0  1  0  0  0  0  0999 V2000
  -32.9750  -19.8790   21.6980 C   0  0  0  0  0  3  0  0  0  0  0  0
  -32.4910  -18.6740   21.1510 C   0  0  0  0  0  3  0  0  0  0  0  0
  -32.9310  -21.0650   20.9440 C   0  0  0  0  0  3  0  0  0  0  0  0
  -31.8850  -19.8550   19.1050 C   0  0  0  0  0  3  0  0  0  0  0  0
  -31.9170  -18.6540   19.8610 C   0  0  0  0  0  0  0  0  0  0  0  0
  -32.3970  -21.0610   19.6380 C   0  0  0  0  0  0  0  0  0  0  0  0
  -32.5510  -22.2850   18.7800 C   0  0  0  0  0  0  0  0  0  0  0  0
  -31.6180  -23.2470   18.7740 N   0  0  0  0  0  0  0  0  0  0  0  0
  -33.5600  -22.3970   18.0870 O   0  0  0  0  0  0  0  0  0  0  0  0
  -31.8360  -24.0140   18.1520 H   0  0  0  0  0  0  0  0  0  0  0  0
  -30.3510  -23.3820   19.4930 C   0  0  0  0  0  2  0  0  0  0  0  0
  -30.1340  -24.8640   19.9000 C   0  0  0  0  0  2  0  0  0  0  0  0
  -28.6610  -25.2900   20.0790 C   0  0  0  0  0  2  0  0  0  0  0  0
  -28.6080  -26.6910   20.3920 O   0  0  0  0  0  0  0  0  0  0  0  0
  -24.5760  -31.8220   23.2380 C   0  0  0  0  0  0  0  0  0  0  0  0
  -27.3980  -27.3590   20.3380 C   0  0  0  0  0  0  0  0  0  0  0  0
  -23.4550  -30.3850   21.5660 C   0  0  0  0  0  3  0  0  0  0  0  0
  -24.9810  -28.8400   20.2300 C   0  0  0  0  0  0  0  0  0  0  0  0
  -25.9830  -30.7670   21.4710 C   0  0  0  0  0  2  0  0  0  0  0  0
  -26.1090  -29.3870   20.8550 C   0  0  0  0  0  0  0  0  0  0  0  0
  -27.3170  -28.6550   20.9000 C   0  0  0  0  0  3  0  0  0  0  0  0
  -26.2420  -26.8210   19.7220 C   0  0  0  0  0  3  0  0  0  0  0  0
  -25.0430  -27.5570   19.6630 C   0  0  0  0  0  3  0  0  0  0  0  0
  -23.7290  -29.6860   20.2070 C   0  0  0  0  0  2  0  0  0  0  0  0
  -24.6870  -31.0060   22.1500 N   0  0  0  0  0  0  0  0  0  0  0  0
  -23.4700  -32.0920   23.7250 O   0  0  0  0  0  0  0  0  0  0  0  0
  -22.7700  -29.3720   22.5120 C   0  0  0  0  0  0  0  0  0  0  0  0
  -21.4400  -29.2400   22.3840 N   0  0  0  0  0  0  0  0  0  0  0  0
  -23.4330  -28.7090   23.3140 O   0  0  0  0  0  0  0  0  0  0  0  0
  -20.9690  -29.8240   21.7080 H   0  0  0  0  0  0  0  0  0  0  0  0
  -18.0180  -28.2110   22.9180 C   0  0  0  0  0  0  0  0  0  0  0  0
  -20.5910  -28.3190   23.1390 C   0  0  0  0  0  3  0  0  0  0  0  0
  -20.6040  -26.9070   22.5080 C   0  0  0  0  0  2  0  0  0  0  0  0
  -19.4640  -26.6830   21.5100 C   0  0  0  0  0  2  0  0  0  0  0  0
  -18.1060  -26.8800   22.1910 C   0  0  0  0  0  2  0  0  0  0  0  0
  -19.1860  -28.8940   23.3490 C   0  0  0  0  0  0  0  0  0  0  0  0
  -19.0510  -30.1450   23.9880 C   0  0  0  0  0  3  0  0  0  0  0  0
  -17.7790  -30.7110   24.2010 C   0  0  0  0  0  3  0  0  0  0  0  0
  -16.6270  -30.0220   23.7880 C   0  0  0  0  0  3  0  0  0  0  0  0
  -16.7470  -28.7750   23.1510 C   0  0  0  0  0  3  0  0  0  0  0  0
  -25.8290  -32.4710   23.9050 C   0  0  0  0  0  3  0  0  0  0  0  0
  -25.4930  -33.8670   24.2130 N   0  0  0  0  0  0  0  0  0  0  0  0
  -25.8410  -34.9160   23.4570 C   0  0  0  0  0  0  0  0  0  0  0  0
  -26.5490  -34.8130   22.4520 O   0  0  0  0  0  0  0  0  0  0  0  0
  -24.8690  -34.0230   24.9920 H   0  0  0  0  0  0  0  0  0  0  0  0
  -24.1040  -36.6830   23.0230 C   0  0  0  0  0  1  0  0  0  0  0  0
  -25.3200  -36.3030   23.8840 C   0  0  0  0  0  3  0  0  0  0  0  0
  -27.4020  -37.2290   24.7960 C   0  0  0  0  0  1  0  0  0  0  0  0
  -26.3430  -37.3680   23.8000 N   0  0  0  0  0  0  0  0  0  0  0  0
  -25.9180  -38.2850   23.9140 H   0  0  0  0  0  0  0  0  0  0  0  0
  -26.3060  -31.7130   25.2050 C   0  0  1  0  0  0  0  0  0  0  0  0
  -25.1790  -31.4840   26.2390 C   0  0  0  0  0  1  0  0  0  0  0  0
  -26.9000  -30.3330   24.8410 C   0  0  0  0  0  1  0  0  0  0  0  0
  -27.4350  -32.5140   25.8970 C   0  0  0  0  0  1  0  0  0  0  0  0
  -31.4200  -17.3830   19.2510 C   0  0  0  0  0  0  0  0  0  0  0  0
  -31.8060  -17.0350   18.1310 O   0  0  0  0  0  0  0  0  0  0  0  0
  -30.3190  -16.5430   19.9730 C   0  0  0  0  0  0  0  0  0  0  0  0
  -31.3840  -14.2250   20.0320 C   0  0  0  0  0  0  0  0  0  0  0  0
  -31.1210  -11.8550   19.3890 C   0  0  0  0  0  2  0  0  0  0  0  0
  -30.1620  -11.7790   18.1800 C   0  0  0  0  0  2  0  0  0  0  0  0
  -28.6860  -11.7590   18.6300 C   0  0  0  0  0  2  0  0  0  0  0  0
  -28.3650  -12.8680   19.6670 C   0  0  0  0  0  3  0  0  0  0  0  0
  -29.4170  -12.8520   20.8000 C   0  0  0  0  0  2  0  0  0  0  0  0
  -30.7530  -13.0300   20.1920 N   0  0  0  0  0  0  0  0  0  0  0  0
  -32.4320  -14.3670   19.3970 O   0  0  0  0  0  0  0  0  0  0  0  0
  -30.7010  -15.2490   20.5650 N   0  0  0  0  0  4  0  0  0  0  0  0
  -30.0110  -14.9120   21.2170 H   0  0  0  0  0  0  0  0  0  0  0  0
  -26.0780  -13.7250   20.4920 C   0  0  0  0  0  0  0  0  0  0  0  0
  -24.9430  -13.0660   20.8850 C   0  0  0  0  0  0  0  0  0  0  0  0
  -25.2430  -11.6730   20.7870 C   0  0  0  0  0  0  0  0  0  0  0  0
  -27.0050  -12.7390   20.1880 N   0  0  0  0  0  0  0  0  0  0  0  0
  -26.5060  -11.4990   20.4170 N   0  0  0  0  0  0  0  0  0  0  0  0
  -24.3860  -10.4950   20.9690 C   0  0  0  0  0  0  0  0  0  0  0  0
  -24.7090   -9.4860   21.9030 C   0  0  0  0  0  3  0  0  0  0  0  0
  -23.8600   -8.3700   22.0710 C   0  0  0  0  0  3  0  0  0  0  0  0
  -22.6750   -8.2580   21.3070 C   0  0  0  0  0  0  0  0  0  0  0  0
  -22.3710   -9.2540   20.3630 C   0  0  0  0  0  3  0  0  0  0  0  0
  -23.2190  -10.3610   20.1910 C   0  0  0  0  0  3  0  0  0  0  0  0
  -21.8050   -7.1970   21.3850 O   0  0  0  0  0  0  0  0  0  0  0  0
  -21.6170   -6.5040   22.5540 C   0  0  0  0  0  0  0  0  0  0  0  0
  -21.1530   -7.1360   23.7280 C   0  0  0  0  0  3  0  0  0  0  0  0
  -20.9080   -6.3740   24.8880 C   0  0  0  0  0  3  0  0  0  0  0  0
  -21.1160   -4.9820   24.8740 C   0  0  0  0  0  0  0  0  0  0  0  0
  -21.5740   -4.3500   23.7040 C   0  0  0  0  0  3  0  0  0  0  0  0
  -21.8210   -5.1090   22.5460 C   0  0  0  0  0  0  0  0  0  0  0  0
  -22.2400   -4.4930   21.4150 F   0  0  0  0  0  0  0  0  0  0  0  0
  -20.8740   -4.2480   25.9850 F   0  0  0  0  0  0  0  0  0  0  0  0
  -23.6230  -13.6880   21.2400 C   0  0  0  0  0  0  0  0  0  0  0  0
  -22.8720  -13.0620   22.1400 N   0  0  0  0  0  0  0  0  0  0  0  0
  -23.2690  -14.7620   20.7540 O   0  0  0  0  0  0  0  0  0  0  0  0
  -23.1720  -12.1920   22.5550 H   0  0  0  0  0  0  0  0  0  0  0  0
  -21.9860  -13.4580   22.4200 H   0  0  0  0  0  0  0  0  0  0  0  0
  -26.3920  -15.0740   20.3500 N   0  0  0  0  0  0  0  0  0  0  0  0
  -25.7060  -15.8050   20.5060 H   0  0  0  0  0  0  0  0  0  0  0  0
  -27.2630  -15.4230   19.9730 H   0  0  0  0  0  0  0  0  0  0  0  0
  -28.5870  -18.4890   20.1990 C   0  0  0  0  0  1  0  0  0  0  0  0
  -29.2610  -17.2680   20.8490 C   0  0  0  0  0  2  0  0  0  0  0  0
  2  1  1  0
  3  1  2  0
  4  6  2  0
  4  5  1  0
  5  2  2  0
  6  3  1  0
  7  6  1  0
  8  7  1  0
  8 11  1  0
  9  7  2  0
 10  8  1  0
 11 12  1  0
 12 13  1  0
 13 14  1  0
 15 26  2  0
 16 14  1  0
 16 21  1  0
 17 25  1  0
 17 27  1  0
 18 20  1  0
 19 25  1  0
 20 21  2  0
 20 19  1  0
 22 16  2  0
 23 22  1  0
 23 18  2  0
 24 18  1  0
 24 17  1  0
 25 15  1  0
 27 29  2  0
 28 27  1  0
 30 28  1  0
 31 40  2  0
 31 36  1  0
 32 28  1  0
 32 36  1  0
 33 32  1  0
 34 35  1  0
 34 33  1  0
 35 31  1  0
 36 37  2  0
 37 38  1  0
 39 38  2  0
 40 39  1  0
 41 15  1  0
 41 42  1  0
 41 51  1  0
 42 45  1  0
 43 47  1  0
 43 42  1  0
 44 43  2  0
 47 46  1  0
 49 47  1  0
 49 50  1  0
 49 48  1  0
 51 54  1  1
 51 52  1  0
 53 51  1  0
 55  5  1  0
 55 57  1  0
 56 55  2  0
 57 66  2  0
 57 97  1  0
 58 64  1  0
 58 66  1  0
 59 64  1  0
 60 61  1  0
 60 59  1  0
 62 61  1  0
 62 71  1  0
 62 63  1  0
 64 63  1  0
 65 58  2  0
 66 67  1  0
 68 69  2  0
 69 88  1  0
 70 69  1  0
 70 73  1  0
 71 72  1  0
 71 68  1  0
 72 70  2  0
 73 74  1  0
 74 75  2  0
 76 79  1  0
 76 75  1  0
 77 76  2  0
 78 77  1  0
 78 73  2  0
 79 80  1  0
 80 81  1  0
 81 82  2  0
 83 82  1  0
 83 87  1  0
 84 83  2  0
 85 80  2  0
 85 84  1  0
 86 85  1  0
 88 89  1  0
 89 92  1  0
 89 91  1  0
 90 88  2  0
 93 68  1  0
 93 94  1  0
 95 93  1  0
 96 97  1  0
M  ISO  4  13 101  14 101  58 100  66 100
M  END
>  <TORSDO>  (19) 
F 23

>  <SCORE>  (19) 
-12.484

>  <name>  (19) 
21

>  <ligand_id>  (19) 
21

>  <original_smiles>  (19) 
[H]c1c([H])c(C(=O)N([H])C([H])([H])C([H])([H])C([H])([H])Oc2c([H])c([H])c3c(c2[H])C([H])([H])N(C(=O)C([H])(N([H])C(=O)C([H])(N([H])C([H])([H])[H])C([H])([H])[H])C(C([H])([H])[H])(C([H])([H])[H])C([H])([H])[H])C([H])(C(=O)N([H])C2([H])c4c([H])c([H])c([H])c([H])c4C([H])([H])C([H])([H])C2([H])[H])C3([H])[H])c([H])c(C(=O)C([H])(N([H])C(=O)N2C([H])([H])C([H])([H])C([H])([H])C([H])(n3nc(-c4c([H])c([H])c(Oc5c([H])c([H])c(F)c([H])c5F)c([H])c4[H])c(C(=O)N([H])[H])c3N([H])[H])C2([H])[H])C([H])([H])C([H])([H])[H])c1[H]

>  <smiles>  (19) 
[H]c1c([H])c(C(=O)N([H])C([H])([H])C([H])([H])C([H])([H])Oc2c([H])c([H])c3c(c2[H])C([H])([H])N(C(=O)C([H])(N([H])C(=O)C([H])(N([H])C([H])([H])[H])C([H])([H])[H])C(C([H])([H])[H])(C([H])([H])[H])C([H])([H])[H])C([H])(C(=O)N([H])C2([H])c4c([H])c([H])c([H])c([H])c4C([H])([H])C([H])([H])C2([H])[H])C3([H])[H])c([H])c(C(=O)C([H])(N([H])C(=O)N2C([H])([H])C([H])([H])C([H])([H])C([H])(n3nc(-c4c([H])c([H])c(Oc5c([H])c([H])c(F)c([H])c5F)c([H])c4[H])c(C(=O)N([H])[H])c3N([H])[H])C2([H])[H])C([H])([H])C([H])([H])[H])c1[H]

$$$$
22:0:0
     RDKit          3D

105113  0  0  1  0  0  0  0  0999 V2000
  -30.4450  -23.3960   15.9600 C   0  0  0  0  0  3  0  0  0  0  0  0
  -31.1690  -24.4830   15.4380 C   0  0  0  0  0  3  0  0  0  0  0  0
  -29.8230  -24.7650   17.8780 C   0  0  0  0  0  3  0  0  0  0  0  0
  -29.7650  -23.5340   17.1900 C   0  0  0  0  0  0  0  0  0  0  0  0
  -30.5830  -25.8520   17.3840 C   0  0  0  0  0  0  0  0  0  0  0  0
  -31.2240  -25.7150   16.1250 C   0  0  0  0  0  0  0  0  0  0  0  0
  -31.9300  -26.7580   15.5220 N   0  0  0  0  0  0  0  0  0  0  0  0
  -32.1430  -26.6480   14.5370 H   0  0  0  0  0  0  0  0  0  0  0  0
  -31.6230  -27.7050   15.7240 H   0  0  0  0  0  0  0  0  0  0  0  0
  -28.9540  -22.4290   17.7660 C   0  0  0  0  0  0  0  0  0  0  0  0
  -28.0010  -22.6200   18.5300 O   0  0  0  0  0  0  0  0  0  0  0  0
  -29.4100  -21.0050   17.4490 C   0  0  0  0  0  2  0  0  0  0  0  0
  -29.0080  -20.0020   18.5440 C   0  0  0  0  0  2  0  0  0  0  0  0
  -29.9390  -18.8600   18.6320 N   0  0  0  0  0  4  0  0  0  0  0  0
  -30.0250  -18.4340   17.7220 H   0  0  0  0  0  0  0  0  0  0  0  0
  -30.8560  -19.1840   18.9000 H   0  0  0  0  0  0  0  0  0  0  0  0
  -29.4960  -17.8400   19.6040 C   0  0  0  0  0  2  0  0  0  0  0  0
  -30.4990  -16.6920   19.6820 C   0  0  0  0  0  2  0  0  0  0  0  0
  -30.6960  -14.3790   20.3710 C   0  0  0  0  0  0  0  0  0  0  0  0
  -30.3120  -12.2200   19.3250 C   0  0  0  0  0  2  0  0  0  0  0  0
  -29.3900  -12.4760   18.1230 C   0  0  0  0  0  2  0  0  0  0  0  0
  -27.9140  -12.3720   18.5590 C   0  0  0  0  0  2  0  0  0  0  0  0
  -27.5880  -13.2200   19.8180 C   0  0  0  0  0  3  0  0  0  0  0  0
  -28.6460  -13.0220   20.9290 C   0  0  0  0  0  2  0  0  0  0  0  0
  -29.9750  -13.2330   20.3360 N   0  0  0  0  0  0  0  0  0  0  0  0
  -31.8840  -14.4430   20.0570 O   0  0  0  0  0  0  0  0  0  0  0  0
  -29.9780  -15.5090   20.3780 N   0  0  0  0  0  0  0  0  0  0  0  0
  -28.9890  -15.4630   20.5780 H   0  0  0  0  0  0  0  0  0  0  0  0
  -25.1960  -13.8310   20.5450 C   0  0  0  0  0  0  0  0  0  0  0  0
  -24.1270  -13.0580   20.9190 C   0  0  0  0  0  0  0  0  0  0  0  0
  -24.5860  -11.7080   20.8860 C   0  0  0  0  0  0  0  0  0  0  0  0
  -26.2360  -12.9470   20.3070 N   0  0  0  0  0  0  0  0  0  0  0  0
  -25.8740  -11.6660   20.5730 N   0  0  0  0  0  0  0  0  0  0  0  0
  -23.8550  -10.4500   21.0810 C   0  0  0  0  0  0  0  0  0  0  0  0
  -24.3010   -9.4730   22.0000 C   0  0  0  0  0  3  0  0  0  0  0  0
  -23.5720   -8.2780   22.1820 C   0  0  0  0  0  3  0  0  0  0  0  0
  -22.3840   -8.0510   21.4480 C   0  0  0  0  0  0  0  0  0  0  0  0
  -21.9570   -9.0140   20.5180 C   0  0  0  0  0  3  0  0  0  0  0  0
  -22.6850  -10.2030   20.3360 C   0  0  0  0  0  3  0  0  0  0  0  0
  -21.6250   -6.9080   21.5410 O   0  0  0  0  0  0  0  0  0  0  0  0
  -21.6090   -6.1460   22.6810 C   0  0  0  0  0  0  0  0  0  0  0  0
  -21.2390   -6.6850   23.9320 C   0  0  0  0  0  3  0  0  0  0  0  0
  -21.1710   -5.8520   25.0670 C   0  0  0  0  0  3  0  0  0  0  0  0
  -21.4580   -4.4790   24.9510 C   0  0  0  0  0  0  0  0  0  0  0  0
  -21.8160   -3.9370   23.7030 C   0  0  0  0  0  3  0  0  0  0  0  0
  -21.8880   -4.7680   22.5730 C   0  0  0  0  0  0  0  0  0  0  0  0
  -22.2170   -4.2370   21.3690 F   0  0  0  0  0  0  0  0  0  0  0  0
  -21.3830   -3.6750   26.0380 F   0  0  0  0  0  0  0  0  0  0  0  0
  -22.7380  -13.5440   21.1990 C   0  0  0  0  0  0  0  0  0  0  0  0
  -22.0090  -12.8500   22.0720 N   0  0  0  0  0  0  0  0  0  0  0  0
  -22.3020  -14.5660   20.6770 O   0  0  0  0  0  0  0  0  0  0  0  0
  -22.3740  -12.0230   22.5190 H   0  0  0  0  0  0  0  0  0  0  0  0
  -21.0720  -13.1530   22.2970 H   0  0  0  0  0  0  0  0  0  0  0  0
  -25.3640  -15.2010   20.3660 N   0  0  0  0  0  0  0  0  0  0  0  0
  -24.5900  -15.8490   20.4610 H   0  0  0  0  0  0  0  0  0  0  0  0
  -26.2170  -15.6390   20.0440 H   0  0  0  0  0  0  0  0  0  0  0  0
  -30.6720  -27.0980   18.2060 C   0  0  0  0  0  0  0  0  0  0  0  0
  -30.0610  -28.1380   17.9370 O   0  0  0  0  0  0  0  0  0  0  0  0
  -31.6250  -27.0630   19.4090 C   0  0  0  0  0  2  0  0  0  0  0  0
  -31.1120  -26.1440   20.4550 N   0  0  0  0  0  4  0  0  0  0  0  0
  -31.9260  -25.7450   20.8970 H   0  0  0  0  0  0  0  0  0  0  0  0
  -30.6230  -25.3820   20.0080 H   0  0  0  0  0  0  0  0  0  0  0  0
  -30.2670  -26.7460   21.5230 C   0  0  0  0  0  2  0  0  0  0  0  0
  -28.8010  -26.2760   21.4460 C   0  0  0  0  0  2  0  0  0  0  0  0
  -28.2770  -26.6120   20.1620 O   0  0  0  0  0  0  0  0  0  0  0  0
  -24.5170  -31.8270   23.1990 C   0  0  0  0  0  0  0  0  0  0  0  0
  -27.1400  -27.3780   20.1580 C   0  0  0  0  0  0  0  0  0  0  0  0
  -23.4560  -30.1610   21.6990 C   0  0  0  0  0  3  0  0  0  0  0  0
  -24.7790  -28.9000   20.0420 C   0  0  0  0  0  0  0  0  0  0  0  0
  -25.8370  -30.8250   21.3110 C   0  0  0  0  0  2  0  0  0  0  0  0
  -25.9360  -29.4480   20.6350 C   0  0  0  0  0  0  0  0  0  0  0  0
  -27.1170  -28.6810   20.7000 C   0  0  0  0  0  3  0  0  0  0  0  0
  -25.9830  -26.8490   19.5530 C   0  0  0  0  0  3  0  0  0  0  0  0
  -24.7970  -27.5990   19.5080 C   0  0  0  0  0  3  0  0  0  0  0  0
  -23.4850  -29.6710   20.2320 C   0  0  0  0  0  2  0  0  0  0  0  0
  -24.5700  -31.0670   22.0700 N   0  0  0  0  0  0  0  0  0  0  0  0
  -23.4370  -32.0830   23.7490 O   0  0  0  0  0  0  0  0  0  0  0  0
  -22.5720  -29.4070   22.7080 C   0  0  0  0  0  0  0  0  0  0  0  0
  -21.2710  -29.2560   22.4470 N   0  0  0  0  0  0  0  0  0  0  0  0
  -23.0850  -28.8350   23.6840 O   0  0  0  0  0  0  0  0  0  0  0  0
  -20.8590  -29.7190   21.6500 H   0  0  0  0  0  0  0  0  0  0  0  0
  -17.8800  -28.1120   22.9660 C   0  0  0  0  0  0  0  0  0  0  0  0
  -20.4290  -28.3350   23.2130 C   0  0  0  0  0  3  0  0  0  0  0  0
  -20.5230  -26.9000   22.6440 C   0  0  0  0  0  2  0  0  0  0  0  0
  -19.4150  -26.5860   21.6390 C   0  0  0  0  0  2  0  0  0  0  0  0
  -18.0400  -26.7550   22.2960 C   0  0  0  0  0  2  0  0  0  0  0  0
  -19.0090  -28.8610   23.3790 C   0  0  0  0  0  0  0  0  0  0  0  0
  -18.8260  -30.1290   23.9660 C   0  0  0  0  0  3  0  0  0  0  0  0
  -17.5330  -30.6540   24.1480 C   0  0  0  0  0  3  0  0  0  0  0  0
  -16.4130  -29.9050   23.7510 C   0  0  0  0  0  3  0  0  0  0  0  0
  -16.5870  -28.6370   23.1640 C   0  0  0  0  0  3  0  0  0  0  0  0
  -25.8000  -32.4580   23.8170 C   0  0  0  0  0  3  0  0  0  0  0  0
  -25.4950  -33.8510   24.1630 N   0  0  0  0  0  0  0  0  0  0  0  0
  -25.8280  -34.9060   23.4100 C   0  0  0  0  0  0  0  0  0  0  0  0
  -26.4960  -34.8060   22.3780 O   0  0  0  0  0  0  0  0  0  0  0  0
  -24.9040  -33.9980   24.9690 H   0  0  0  0  0  0  0  0  0  0  0  0
  -24.1080  -36.7070   23.0610 C   0  0  0  0  0  1  0  0  0  0  0  0
  -25.3440  -36.2950   23.8750 C   0  0  0  0  0  3  0  0  0  0  0  0
  -27.4840  -37.1560   24.7140 C   0  0  0  0  0  1  0  0  0  0  0  0
  -26.3820  -37.3410   23.7730 N   0  0  0  0  0  0  0  0  0  0  0  0
  -25.9830  -38.2630   23.9330 H   0  0  0  0  0  0  0  0  0  0  0  0
  -26.3310  -31.6710   25.0770 C   0  0  1  0  0  0  0  0  0  0  0  0
  -25.2570  -31.4220   26.1600 C   0  0  0  0  0  1  0  0  0  0  0  0
  -26.9040  -30.2970   24.6550 C   0  0  0  0  0  1  0  0  0  0  0  0
  -27.4950  -32.4530   25.7300 C   0  0  0  0  0  1  0  0  0  0  0  0
  1  4  1  0
  2  1  2  0
  2  6  1  0
  4 10  1  0
  4  3  2  0
  5  3  1  0
  5 57  1  0
  6  5  2  0
  7  9  1  0
  7  6  1  0
  8  7  1  0
 10 11  2  0
 12 10  1  0
 12 13  1  0
 13 14  1  0
 14 16  1  0
 14 17  1  0
 15 14  1  0
 17 18  1  0
 18 27  1  0
 19 27  1  0
 20 25  1  0
 21 22  1  0
 21 20  1  0
 23 22  1  0
 23 32  1  0
 23 24  1  0
 25 19  1  0
 25 24  1  0
 26 19  2  0
 27 28  1  0
 29 30  2  0
 30 49  1  0
 31 30  1  0
 31 34  1  0
 32 29  1  0
 32 33  1  0
 33 31  2  0
 34 35  1  0
 35 36  2  0
 37 40  1  0
 37 36  1  0
 38 37  2  0
 39 38  1  0
 39 34  2  0
 40 41  1  0
 41 42  1  0
 42 43  2  0
 44 43  1  0
 44 48  1  0
 45 44  2  0
 46 41  2  0
 46 45  1  0
 47 46  1  0
 49 50  1  0
 50 53  1  0
 50 52  1  0
 51 49  2  0
 54 55  1  0
 54 29  1  0
 56 54  1  0
 57 59  1  0
 58 57  2  0
 59 60  1  0
 60 61  1  0
 60 63  1  0
 62 60  1  0
 64 63  1  0
 65 64  1  0
 66 77  2  0
 67 65  1  0
 67 72  1  0
 68 76  1  0
 68 78  1  0
 69 75  1  0
 69 71  1  0
 70 76  1  0
 71 72  2  0
 71 70  1  0
 73 67  2  0
 74 73  1  0
 74 69  2  0
 75 68  1  0
 76 66  1  0
 78 80  2  0
 79 78  1  0
 81 79  1  0
 82 91  2  0
 82 87  1  0
 83 79  1  0
 83 87  1  0
 84 83  1  0
 85 86  1  0
 85 84  1  0
 86 82  1  0
 87 88  2  0
 88 89  1  0
 90 89  2  0
 91 90  1  0
 92 66  1  0
 92 93  1  0
 92102  1  0
 93 96  1  0
 94 98  1  0
 94 93  1  0
 95 94  2  0
 98 97  1  0
100 98  1  0
100101  1  0
100 99  1  0
102105  1  1
102103  1  0
104102  1  0
M  ISO  4  19 100  27 100  64 101  65 101
M  END
>  <TORSDO>  (20) 
F 28

>  <SCORE>  (20) 
-11.469

>  <name>  (20) 
22

>  <ligand_id>  (20) 
22

>  <original_smiles>  (20) 
[H]c1c([H])c([H])c2c(c1[H])C([H])([H])C([H])([H])C([H])([H])C2([H])N([H])C(=O)C1([H])N(C(=O)C([H])(N([H])C(=O)C([H])(N([H])C([H])([H])[H])C([H])([H])[H])C(C([H])([H])[H])(C([H])([H])[H])C([H])([H])[H])C([H])([H])c2c([H])c(OC([H])([H])C([H])([H])[N+]([H])([H])C([H])([H])C(=O)c3c([H])c(C(=O)C([H])([H])C([H])([H])[N+]([H])([H])C([H])([H])C([H])([H])N([H])C(=O)N4C([H])([H])C([H])([H])C([H])([H])C([H])(n5nc(-c6c([H])c([H])c(Oc7c([H])c([H])c(F)c([H])c7F)c([H])c6[H])c(C(=O)N([H])[H])c5N([H])[H])C4([H])[H])c([H])c([H])c3N([H])[H])c([H])c([H])c2C1([H])[H]

>  <smiles>  (20) 
[H]c1c([H])c([H])c2c(c1[H])C([H])([H])C([H])([H])C([H])([H])C2([H])N([H])C(=O)C1([H])N(C(=O)C([H])(N([H])C(=O)C([H])(N([H])C([H])([H])[H])C([H])([H])[H])C(C([H])([H])[H])(C([H])([H])[H])C([H])([H])[H])C([H])([H])c2c([H])c(OC([H])([H])C([H])([H])[N+]([H])([H])C([H])([H])C(=O)c3c([H])c(C(=O)C([H])([H])C([H])([H])[N+]([H])([H])C([H])([H])C([H])([H])N([H])C(=O)N4C([H])([H])C([H])([H])C([H])([H])C([H])(n5nc(-c6c([H])c([H])c(Oc7c([H])c([H])c(F)c([H])c7F)c([H])c6[H])c(C(=O)N([H])[H])c5N([H])[H])C4([H])[H])c([H])c([H])c3N([H])[H])c([H])c([H])c2C1([H])[H]

$$$$
23:0:0
     RDKit          3D

101108  0  0  1  0  0  0  0  0999 V2000
  -31.9310  -17.7810   18.2270 N   0  0  0  0  0  4  0  0  0  0  0  0
  -31.5160  -17.8600   17.3140 H   0  0  0  0  0  0  0  0  0  0  0  0
  -31.3730  -17.1330   18.7620 H   0  0  0  0  0  0  0  0  0  0  0  0
  -31.9180  -19.1160   18.8790 C   0  0  0  0  0  2  0  0  0  0  0  0
  -30.4990  -19.6860   19.1290 C   0  0  0  0  0  2  0  0  0  0  0  0
  -30.5220  -21.0970   19.7720 C   0  0  0  0  0  2  0  0  0  0  0  0
  -29.1260  -21.6510   20.1370 C   0  0  0  0  0  2  0  0  0  0  0  0
  -29.1840  -22.9540   20.8470 N   0  0  0  0  0  4  0  0  0  0  0  0
  -30.0940  -23.0560   21.2750 H   0  0  0  0  0  0  0  0  0  0  0  0
  -28.5230  -22.8950   21.6070 H   0  0  0  0  0  0  0  0  0  0  0  0
  -28.8600  -24.1790   20.0630 C   0  0  0  0  0  2  0  0  0  0  0  0
  -28.5940  -25.3900   20.9960 C   0  0  0  0  0  2  0  0  0  0  0  0
  -28.6330  -26.6600   20.3240 O   0  0  0  0  0  0  0  0  0  0  0  0
  -24.6600  -31.8330   23.2160 C   0  0  0  0  0  0  0  0  0  0  0  0
  -27.4530  -27.3700   20.3050 C   0  0  0  0  0  0  0  0  0  0  0  0
  -23.5240  -30.3920   21.5550 C   0  0  0  0  0  3  0  0  0  0  0  0
  -25.0420  -28.8460   20.2120 C   0  0  0  0  0  0  0  0  0  0  0  0
  -26.0500  -30.7790   21.4290 C   0  0  0  0  0  2  0  0  0  0  0  0
  -26.1780  -29.3980   20.8200 C   0  0  0  0  0  0  0  0  0  0  0  0
  -27.3890  -28.6680   20.8570 C   0  0  0  0  0  3  0  0  0  0  0  0
  -26.3010  -26.8240   19.6980 C   0  0  0  0  0  3  0  0  0  0  0  0
  -25.0980  -27.5550   19.6500 C   0  0  0  0  0  3  0  0  0  0  0  0
  -23.7870  -29.6900   20.2000 C   0  0  0  0  0  2  0  0  0  0  0  0
  -24.7630  -31.0120   22.1300 N   0  0  0  0  0  0  0  0  0  0  0  0
  -23.5570  -32.1050   23.7120 O   0  0  0  0  0  0  0  0  0  0  0  0
  -22.8470  -29.3820   22.5090 C   0  0  0  0  0  0  0  0  0  0  0  0
  -21.5280  -29.1950   22.3430 N   0  0  0  0  0  0  0  0  0  0  0  0
  -23.5090  -28.7680   23.3490 O   0  0  0  0  0  0  0  0  0  0  0  0
  -21.0580  -29.7420   21.6350 H   0  0  0  0  0  0  0  0  0  0  0  0
  -18.1400  -28.0020   22.7530 C   0  0  0  0  0  0  0  0  0  0  0  0
  -20.6890  -28.2660   23.1000 C   0  0  0  0  0  3  0  0  0  0  0  0
  -20.8120  -26.8300   22.5430 C   0  0  0  0  0  2  0  0  0  0  0  0
  -19.7400  -26.4920   21.5010 C   0  0  0  0  0  2  0  0  0  0  0  0
  -18.3370  -26.6450   22.0990 C   0  0  0  0  0  2  0  0  0  0  0  0
  -19.2440  -28.7680   23.2090 C   0  0  0  0  0  0  0  0  0  0  0  0
  -19.0090  -30.0400   23.7770 C   0  0  0  0  0  3  0  0  0  0  0  0
  -17.6990  -30.5440   23.8940 C   0  0  0  0  0  3  0  0  0  0  0  0
  -16.6080  -29.7740   23.4590 C   0  0  0  0  0  3  0  0  0  0  0  0
  -16.8290  -28.5040   22.8920 C   0  0  0  0  0  3  0  0  0  0  0  0
  -25.9160  -32.4840   23.8720 C   0  0  0  0  0  3  0  0  0  0  0  0
  -25.5780  -33.8780   24.1870 N   0  0  0  0  0  0  0  0  0  0  0  0
  -25.9200  -34.9320   23.4330 C   0  0  0  0  0  0  0  0  0  0  0  0
  -26.6200  -34.8300   22.4210 O   0  0  0  0  0  0  0  0  0  0  0  0
  -24.9580  -34.0330   24.9680 H   0  0  0  0  0  0  0  0  0  0  0  0
  -24.1720  -36.6920   23.0170 C   0  0  0  0  0  1  0  0  0  0  0  0
  -25.3950  -36.3130   23.8650 C   0  0  0  0  0  3  0  0  0  0  0  0
  -27.4950  -37.2320   24.7410 C   0  0  0  0  0  1  0  0  0  0  0  0
  -26.4140  -37.3830   23.7730 N   0  0  0  0  0  0  0  0  0  0  0  0
  -25.9900  -38.2980   23.9080 H   0  0  0  0  0  0  0  0  0  0  0  0
  -26.4090  -31.7230   25.1610 C   0  0  1  0  0  0  0  0  0  0  0  0
  -25.2900  -31.4670   26.2000 C   0  0  0  0  0  1  0  0  0  0  0  0
  -27.0260  -30.3570   24.7810 C   0  0  0  0  0  1  0  0  0  0  0  0
  -27.5320  -32.5350   25.8500 C   0  0  0  0  0  1  0  0  0  0  0  0
  -33.2920  -17.2010   18.0920 C   0  0  0  0  0  2  0  0  0  0  0  0
  -33.3410  -15.9690   17.1560 C   0  0  0  0  0  2  0  0  0  0  0  0
  -34.5760  -15.0640   17.3690 C   0  0  0  0  0  2  0  0  0  0  0  0
  -34.1350  -13.1470   18.9340 C   0  0  0  0  0  0  0  0  0  0  0  0
  -34.5560  -14.3960   18.6770 N   0  0  0  0  0  0  0  0  0  0  0  0
  -33.8010  -12.3650   18.0420 O   0  0  0  0  0  0  0  0  0  0  0  0
  -34.8540  -14.9360   19.4760 H   0  0  0  0  0  0  0  0  0  0  0  0
  -35.5230  -12.6090   20.9580 C   0  0  0  0  0  1  0  0  0  0  0  0
  -34.0880  -12.6920   20.4100 C   0  0  0  0  0  3  0  0  0  0  0  0
  -33.1670  -13.5320   21.3570 C   0  0  0  0  0  2  0  0  0  0  0  0
  -30.9820  -13.7240   20.2100 C   0  0  0  0  0  0  0  0  0  0  0  0
  -30.1510  -12.0800   18.6400 C   0  0  0  0  0  2  0  0  0  0  0  0
  -29.1200  -12.5670   17.6200 C   0  0  0  0  0  2  0  0  0  0  0  0
  -27.7110  -12.4280   18.2000 C   0  0  0  0  0  2  0  0  0  0  0  0
  -27.5760  -13.1110   19.5850 C   0  0  0  0  0  3  0  0  0  0  0  0
  -28.7180  -12.6920   20.5520 C   0  0  0  0  0  2  0  0  0  0  0  0
  -30.0200  -12.8410   19.8830 N   0  0  0  0  0  0  0  0  0  0  0  0
  -31.4770  -14.5470   19.4400 O   0  0  0  0  0  0  0  0  0  0  0  0
  -31.7260  -13.2610   21.2150 N   0  0  0  0  0  0  0  0  0  0  0  0
  -31.3330  -12.4960   21.7490 H   0  0  0  0  0  0  0  0  0  0  0  0
  -25.2390  -13.7630   20.4580 C   0  0  0  0  0  0  0  0  0  0  0  0
  -24.1750  -13.0110   20.8770 C   0  0  0  0  0  0  0  0  0  0  0  0
  -24.5970  -11.6480   20.7930 C   0  0  0  0  0  0  0  0  0  0  0  0
  -26.2480  -12.8630   20.1520 N   0  0  0  0  0  0  0  0  0  0  0  0
  -25.8650  -11.5840   20.4040 N   0  0  0  0  0  0  0  0  0  0  0  0
  -23.8470  -10.4010   21.0090 C   0  0  0  0  0  0  0  0  0  0  0  0
  -24.3160   -9.3970   21.8860 C   0  0  0  0  0  3  0  0  0  0  0  0
  -23.5680   -8.2180   22.0930 C   0  0  0  0  0  3  0  0  0  0  0  0
  -22.3390   -8.0320   21.4190 C   0  0  0  0  0  0  0  0  0  0  0  0
  -21.8830   -9.0240   20.5310 C   0  0  0  0  0  3  0  0  0  0  0  0
  -22.6330  -10.1950   20.3230 C   0  0  0  0  0  3  0  0  0  0  0  0
  -21.5580   -6.9070   21.5380 O   0  0  0  0  0  0  0  0  0  0  0  0
  -21.5830   -6.1280   22.6650 C   0  0  0  0  0  0  0  0  0  0  0  0
  -21.2990   -6.6600   23.9420 C   0  0  0  0  0  3  0  0  0  0  0  0
  -21.2670   -5.8110   25.0680 C   0  0  0  0  0  3  0  0  0  0  0  0
  -21.5100   -4.4330   24.9170 C   0  0  0  0  0  0  0  0  0  0  0  0
  -21.7880   -3.9010   23.6460 C   0  0  0  0  0  3  0  0  0  0  0  0
  -21.8210   -4.7470   22.5240 C   0  0  0  0  0  0  0  0  0  0  0  0
  -22.0700   -4.2250   21.2970 F   0  0  0  0  0  0  0  0  0  0  0  0
  -21.4710   -3.6160   25.9950 F   0  0  0  0  0  0  0  0  0  0  0  0
  -22.8120  -13.5190   21.2470 C   0  0  0  0  0  0  0  0  0  0  0  0
  -22.1280  -12.8370   22.1580 N   0  0  0  0  0  0  0  0  0  0  0  0
  -22.3620  -14.5600   20.7650 O   0  0  0  0  0  0  0  0  0  0  0  0
  -22.5030  -11.9980   22.5750 H   0  0  0  0  0  0  0  0  0  0  0  0
  -21.2140  -13.1610   22.4450 H   0  0  0  0  0  0  0  0  0  0  0  0
  -25.4250  -15.1310   20.2940 N   0  0  0  0  0  0  0  0  0  0  0  0
  -24.6830  -15.8010   20.4710 H   0  0  0  0  0  0  0  0  0  0  0  0
  -26.2740  -15.5600   19.9490 H   0  0  0  0  0  0  0  0  0  0  0  0
  1  3  1  0
  1  4  1  0
  2  1  1  0
  4  5  1  0
  5  6  1  0
  6  7  1  0
  7  8  1  0
  8  9  1  0
  8 10  1  0
 11  8  1  0
 11 12  1  0
 13 12  1  0
 14 25  2  0
 15 13  1  0
 15 20  1  0
 16 24  1  0
 16 26  1  0
 17 19  1  0
 18 24  1  0
 19 20  2  0
 19 18  1  0
 21 15  2  0
 22 21  1  0
 22 17  2  0
 23 17  1  0
 23 16  1  0
 24 14  1  0
 26 28  2  0
 27 26  1  0
 29 27  1  0
 30 39  2  0
 30 35  1  0
 31 27  1  0
 31 35  1  0
 32 31  1  0
 33 34  1  0
 33 32  1  0
 34 30  1  0
 35 36  2  0
 36 37  1  0
 38 37  2  0
 39 38  1  0
 40 14  1  0
 40 41  1  0
 40 50  1  0
 41 44  1  0
 42 46  1  0
 42 41  1  0
 43 42  2  0
 46 45  1  0
 48 46  1  0
 48 49  1  0
 48 47  1  0
 50 53  1  1
 50 51  1  0
 52 50  1  0
 54  1  1  0
 55 56  1  0
 55 54  1  0
 56 58  1  0
 57 62  1  0
 58 57  1  0
 58 60  1  0
 59 57  2  0
 62 61  1  0
 62 63  1  0
 64 72  1  0
 65 70  1  0
 66 67  1  0
 66 65  1  0
 68 67  1  0
 68 77  1  0
 68 69  1  0
 70 64  1  0
 70 69  1  0
 71 64  2  0
 72 63  1  0
 72 73  1  0
 74 75  2  0
 75 94  1  0
 76 75  1  0
 76 79  1  0
 77 78  1  0
 77 74  1  0
 78 76  2  0
 79 80  1  0
 80 81  2  0
 82 85  1  0
 82 81  1  0
 83 82  2  0
 84 83  1  0
 84 79  2  0
 85 86  1  0
 86 87  1  0
 87 88  2  0
 89 88  1  0
 89 93  1  0
 90 89  2  0
 91 86  2  0
 91 90  1  0
 92 91  1  0
 94 95  1  0
 95 98  1  0
 95 97  1  0
 96 94  2  0
 99 74  1  0
 99100  1  0
101 99  1  0
M  ISO  4  12 101  13 101  64 100  72 100
M  END
>  <TORSDO>  (21) 
F 29

>  <SCORE>  (21) 
-10.609

>  <name>  (21) 
23

>  <ligand_id>  (21) 
23

>  <original_smiles>  (21) 
[H]c1c([H])c([H])c2c(c1[H])C([H])([H])C([H])([H])C([H])([H])C2([H])N([H])C(=O)C1([H])N(C(=O)C([H])(N([H])C(=O)C([H])(N([H])C([H])([H])[H])C([H])([H])[H])C(C([H])([H])[H])(C([H])([H])[H])C([H])([H])[H])C([H])([H])c2c([H])c(OC([H])([H])C([H])([H])[N+]([H])([H])C([H])([H])C([H])([H])C([H])([H])C([H])([H])[N+]([H])([H])C([H])([H])C([H])([H])C([H])([H])N([H])C(=O)C([H])(C([H])([H])[H])C([H])([H])N([H])C(=O)N3C([H])([H])C([H])([H])C([H])([H])C([H])(n4nc(-c5c([H])c([H])c(Oc6c([H])c([H])c(F)c([H])c6F)c([H])c5[H])c(C(=O)N([H])[H])c4N([H])[H])C3([H])[H])c([H])c([H])c2C1([H])[H]

>  <smiles>  (21) 
[H]c1c([H])c([H])c2c(c1[H])C([H])([H])C([H])([H])C([H])([H])C2([H])N([H])C(=O)C1([H])N(C(=O)C([H])(N([H])C(=O)C([H])(N([H])C([H])([H])[H])C([H])([H])[H])C(C([H])([H])[H])(C([H])([H])[H])C([H])([H])[H])C([H])([H])c2c([H])c(OC([H])([H])C([H])([H])[N+]([H])([H])C([H])([H])C([H])([H])C([H])([H])C([H])([H])[N+]([H])([H])C([H])([H])C([H])([H])C([H])([H])N([H])C(=O)C([H])(C([H])([H])[H])C([H])([H])N([H])C(=O)N3C([H])([H])C([H])([H])C([H])([H])C([H])(n4nc(-c5c([H])c([H])c(Oc6c([H])c([H])c(F)c([H])c6F)c([H])c5[H])c(C(=O)N([H])[H])c4N([H])[H])C3([H])[H])c([H])c([H])c2C1([H])[H]

$$$$
24:0:0
     RDKit          3D

103111  0  0  1  0  0  0  0  0999 V2000
  -20.6900  -22.7980   21.2000 C   0  0  0  0  0  1  0  0  0  0  0  0
  -21.3710  -23.9990   20.5070 C   0  0  0  0  0  3  0  0  0  0  0  0
  -19.9020  -24.1020   16.9410 C   0  0  0  0  0  3  0  0  0  0  0  0
  -21.0320  -23.8970   16.1330 C   0  0  0  0  0  3  0  0  0  0  0  0
  -20.0280  -24.1290   18.3420 C   0  0  0  0  0  3  0  0  0  0  0  0
  -22.4180  -23.7250   18.1310 C   0  0  0  0  0  3  0  0  0  0  0  0
  -22.3010  -23.7190   16.7190 C   0  0  0  0  0  0  0  0  0  0  0  0
  -21.2830  -23.9350   18.9650 C   0  0  0  0  0  0  0  0  0  0  0  0
  -23.5340  -23.5780   15.8300 C   0  0  0  0  0  2  0  0  0  0  0  0
  -23.8700  -24.8860   15.2360 N   0  0  0  0  0  4  0  0  0  0  0  0
  -24.1140  -25.4970   15.9990 H   0  0  0  0  0  0  0  0  0  0  0  0
  -23.0400  -25.2770   14.7930 H   0  0  0  0  0  0  0  0  0  0  0  0
  -24.9880  -24.9210   14.2700 C   0  0  0  0  0  2  0  0  0  0  0  0
  -24.5980  -24.3920   12.8690 C   0  0  0  0  0  2  0  0  0  0  0  0
  -25.6040  -24.7330   11.7410 C   0  0  0  0  0  2  0  0  0  0  0  0
  -25.9150  -26.9410   10.5700 C   0  0  0  0  0  0  0  0  0  0  0  0
  -24.5410  -28.5150    9.2600 C   0  0  0  0  0  2  0  0  0  0  0  0
  -23.8980  -29.5530   10.1990 C   0  0  0  0  0  2  0  0  0  0  0  0
  -22.5730  -29.0200   10.7880 C   0  0  0  0  0  2  0  0  0  0  0  0
  -22.7030  -27.5830   11.3630 C   0  0  0  0  0  3  0  0  0  0  0  0
  -23.4030  -26.6740   10.3330 C   0  0  0  0  0  2  0  0  0  0  0  0
  -24.7120  -27.2660   10.0220 N   0  0  0  0  0  0  0  0  0  0  0  0
  -26.9590  -27.5310   10.2920 O   0  0  0  0  0  0  0  0  0  0  0  0
  -25.9040  -26.1670   11.6680 N   0  0  0  0  0  0  0  0  0  0  0  0
  -26.7180  -26.3930   12.2210 H   0  0  0  0  0  0  0  0  0  0  0  0
  -20.9120  -26.7580   13.0240 C   0  0  0  0  0  0  0  0  0  0  0  0
  -19.6240  -26.3380   12.8390 C   0  0  0  0  0  0  0  0  0  0  0  0
  -19.3780  -26.4080   11.4350 C   0  0  0  0  0  0  0  0  0  0  0  0
  -21.4020  -27.0440   11.7570 N   0  0  0  0  0  0  0  0  0  0  0  0
  -20.4800  -26.7820   10.7950 N   0  0  0  0  0  0  0  0  0  0  0  0
  -18.1430  -26.1990   10.6660 C   0  0  0  0  0  0  0  0  0  0  0  0
  -18.0830  -25.2620    9.6110 C   0  0  0  0  0  3  0  0  0  0  0  0
  -16.8830  -25.0660    8.8970 C   0  0  0  0  0  3  0  0  0  0  0  0
  -15.7250  -25.8050    9.2390 C   0  0  0  0  0  0  0  0  0  0  0  0
  -15.7960  -26.7540   10.2730 C   0  0  0  0  0  3  0  0  0  0  0  0
  -16.9930  -26.9520   10.9810 C   0  0  0  0  0  3  0  0  0  0  0  0
  -14.5210  -25.6980    8.5840 O   0  0  0  0  0  0  0  0  0  0  0  0
  -14.1310  -24.5320    7.9770 C   0  0  0  0  0  0  0  0  0  0  0  0
  -14.0010  -23.3250    8.6990 C   0  0  0  0  0  3  0  0  0  0  0  0
  -13.5320  -22.1640    8.0510 C   0  0  0  0  0  3  0  0  0  0  0  0
  -13.1830  -22.2100    6.6880 C   0  0  0  0  0  0  0  0  0  0  0  0
  -13.3060  -23.4110    5.9690 C   0  0  0  0  0  3  0  0  0  0  0  0
  -13.7750  -24.5720    6.6130 C   0  0  0  0  0  0  0  0  0  0  0  0
  -13.8690  -25.7320    5.9200 F   0  0  0  0  0  0  0  0  0  0  0  0
  -12.7250  -21.0970    6.0700 F   0  0  0  0  0  0  0  0  0  0  0  0
  -18.6350  -25.9990   13.9190 C   0  0  0  0  0  0  0  0  0  0  0  0
  -17.7080  -25.0890   13.6400 N   0  0  0  0  0  0  0  0  0  0  0  0
  -18.7110  -26.5160   15.0330 O   0  0  0  0  0  0  0  0  0  0  0  0
  -17.6650  -24.6590   12.7280 H   0  0  0  0  0  0  0  0  0  0  0  0
  -17.0200  -24.8390   14.3350 H   0  0  0  0  0  0  0  0  0  0  0  0
  -21.6900  -26.9560   14.1660 N   0  0  0  0  0  0  0  0  0  0  0  0
  -21.0470  -27.1070   14.9370 H   0  0  0  0  0  0  0  0  0  0  0  0
  -22.2530  -27.7850   14.0170 H   0  0  0  0  0  0  0  0  0  0  0  0
  -22.7560  -24.1100   21.0050 N   0  0  0  0  0  4  0  0  0  0  0  0
  -22.7790  -23.7410   21.9400 H   0  0  0  0  0  0  0  0  0  0  0  0
  -23.3450  -23.5260   20.4350 H   0  0  0  0  0  0  0  0  0  0  0  0
  -23.2950  -25.4840   21.0560 C   0  0  0  0  0  2  0  0  0  0  0  0
  -24.8280  -25.4760   21.1670 C   0  0  0  0  0  2  0  0  0  0  0  0
  -25.3710  -26.6960   20.5880 N   0  0  0  0  0  0  0  0  0  0  0  0
  -24.8760  -27.4840   20.9890 H   0  0  0  0  0  0  0  0  0  0  0  0
  -26.7850  -26.8350   20.9270 C   0  0  0  0  0  2  0  0  0  0  0  0
  -27.2860  -28.2400   20.5320 C   0  0  0  0  0  2  0  0  0  0  0  0
  -27.9590  -28.8740   21.6180 O   0  0  0  0  0  0  0  0  0  0  0  0
  -28.3740  -32.1020   27.9130 C   0  0  0  0  0  0  0  0  0  0  0  0
  -27.2440  -29.2910   22.7240 C   0  0  0  0  0  0  0  0  0  0  0  0
  -26.1940  -31.0390   27.4090 C   0  0  0  0  0  3  0  0  0  0  0  0
  -25.8790  -30.2560   25.0050 C   0  0  0  0  0  0  0  0  0  0  0  0
  -27.7060  -31.8820   25.5260 C   0  0  0  0  0  2  0  0  0  0  0  0
  -27.1260  -30.7880   24.6570 C   0  0  0  0  0  0  0  0  0  0  0  0
  -27.8090  -30.3070   23.5220 C   0  0  0  0  0  3  0  0  0  0  0  0
  -25.9810  -28.7680   23.0880 C   0  0  0  0  0  3  0  0  0  0  0  0
  -25.3030  -29.2390   24.2260 C   0  0  0  0  0  3  0  0  0  0  0  0
  -25.2070  -30.8260   26.2290 C   0  0  0  0  0  2  0  0  0  0  0  0
  -27.4810  -31.6740   26.9750 N   0  0  0  0  0  0  0  0  0  0  0  0
  -28.1220  -32.0110   29.1210 O   0  0  0  0  0  0  0  0  0  0  0  0
  -26.3900  -29.6900   28.1370 C   0  0  0  0  0  0  0  0  0  0  0  0
  -25.6360  -29.4850   29.2290 N   0  0  0  0  0  0  0  0  0  0  0  0
  -27.1770  -28.8450   27.7040 O   0  0  0  0  0  0  0  0  0  0  0  0
  -25.0260  -30.2320   29.5310 H   0  0  0  0  0  0  0  0  0  0  0  0
  -24.2510  -28.0210   32.2230 C   0  0  0  0  0  0  0  0  0  0  0  0
  -25.6190  -28.2740   30.0460 C   0  0  0  0  0  3  0  0  0  0  0  0
  -24.6710  -27.2070   29.4460 C   0  0  0  0  0  2  0  0  0  0  0  0
  -23.2550  -27.2660   30.0240 C   0  0  0  0  0  2  0  0  0  0  0  0
  -23.2810  -27.0710   31.5410 C   0  0  0  0  0  2  0  0  0  0  0  0
  -25.3400  -28.5980   31.5190 C   0  0  0  0  0  0  0  0  0  0  0  0
  -26.1870  -29.5060   32.1920 C   0  0  0  0  0  3  0  0  0  0  0  0
  -25.9630  -29.8310   33.5440 C   0  0  0  0  0  3  0  0  0  0  0  0
  -24.8930  -29.2430   34.2410 C   0  0  0  0  0  3  0  0  0  0  0  0
  -24.0430  -28.3370   33.5820 C   0  0  0  0  0  3  0  0  0  0  0  0
  -29.7410  -32.7400   27.5100 C   0  0  0  0  0  3  0  0  0  0  0  0
  -30.0600  -33.7660   28.5100 N   0  0  0  0  0  0  0  0  0  0  0  0
  -29.8810  -35.0820   28.3320 C   0  0  0  0  0  0  0  0  0  0  0  0
  -29.4920  -35.5670   27.2660 O   0  0  0  0  0  0  0  0  0  0  0  0
  -30.3410  -33.4350   29.4220 H   0  0  0  0  0  0  0  0  0  0  0  0
  -28.8620  -36.4530   30.1760 C   0  0  0  0  0  1  0  0  0  0  0  0
  -30.1820  -36.0070   29.5260 C   0  0  0  0  0  3  0  0  0  0  0  0
  -32.3610  -36.8720   28.7900 C   0  0  0  0  0  1  0  0  0  0  0  0
  -30.9840  -37.1950   29.1630 N   0  0  0  0  0  0  0  0  0  0  0  0
  -31.0160  -37.8560   29.9350 H   0  0  0  0  0  0  0  0  0  0  0  0
  -30.9100  -31.6860   27.3990 C   0  0  1  0  0  0  0  0  0  0  0  0
  -30.9710  -30.6970   28.5850 C   0  0  0  0  0  1  0  0  0  0  0  0
  -30.7770  -30.8600   26.0980 C   0  0  0  0  0  1  0  0  0  0  0  0
  -32.2710  -32.4180   27.3210 C   0  0  0  0  0  1  0  0  0  0  0  0
  2 54  1  0
  2  1  1  0
  3  5  1  0
  4  7  1  0
  4  3  2  0
  5  8  2  0
  6  8  1  0
  7  6  2  0
  8  2  1  0
  9  7  1  0
 10  9  1  0
 10 11  1  0
 12 10  1  0
 13 10  1  0
 14 13  1  0
 15 14  1  0
 16 24  1  0
 17 22  1  0
 17 18  1  0
 18 19  1  0
 19 20  1  0
 20 21  1  0
 20 29  1  0
 22 21  1  0
 22 16  1  0
 23 16  2  0
 24 15  1  0
 24 25  1  0
 26 51  1  0
 27 26  2  0
 27 46  1  0
 28 27  1  0
 29 26  1  0
 30 28  2  0
 30 29  1  0
 31 36  1  0
 31 28  1  0
 32 31  2  0
 33 34  2  0
 33 32  1  0
 34 35  1  0
 35 36  2  0
 37 34  1  0
 38 37  1  0
 38 39  1  0
 40 39  2  0
 41 40  1  0
 42 43  1  0
 42 41  2  0
 43 38  2  0
 44 43  1  0
 45 41  1  0
 46 48  2  0
 47 46  1  0
 47 50  1  0
 49 47  1  0
 51 52  1  0
 53 51  1  0
 54 57  1  0
 54 55  1  0
 56 54  1  0
 57 58  1  0
 59 61  1  0
 59 60  1  0
 59 58  1  0
 62 61  1  0
 62 63  1  0
 63 65  1  0
 64 75  2  0
 65 71  2  0
 65 70  1  0
 66 76  1  0
 67 73  1  0
 68 74  1  0
 69 67  1  0
 69 68  1  0
 70 69  2  0
 71 72  1  0
 72 67  2  0
 73 66  1  0
 74 66  1  0
 74 64  1  0
 76 77  1  0
 77 79  1  0
 78 76  2  0
 80 89  1  0
 81 77  1  0
 81 85  1  0
 82 83  1  0
 82 81  1  0
 83 84  1  0
 84 80  1  0
 85 86  1  0
 85 80  2  0
 86 87  2  0
 87 88  1  0
 89 88  2  0
 90 64  1  0
 90 91  1  0
 91 94  1  0
 92 91  1  0
 92 96  1  0
 93 92  2  0
 96 95  1  0
 97 98  1  0
 98 96  1  0
 98 99  1  0
100 90  1  0
100101  1  1
102100  1  0
103100  1  0
M  ISO  4  16 100  24 100  62 101  63 101
M  END
>  <TORSDO>  (22) 
F 28

>  <SCORE>  (22) 
-4.664

>  <name>  (22) 
24

>  <ligand_id>  (22) 
24

>  <original_smiles>  (22) 
[H]c1c([H])c([H])c2c(c1[H])C([H])([H])C([H])([H])C([H])([H])C2([H])N([H])C(=O)C1([H])N(C(=O)C([H])(N([H])C(=O)C([H])(N([H])C([H])([H])[H])C([H])([H])[H])C(C([H])([H])[H])(C([H])([H])[H])C([H])([H])[H])C([H])([H])c2c([H])c(OC([H])([H])C([H])([H])N([H])C([H])([H])C([H])([H])[N+]([H])([H])C([H])(c3c([H])c([H])c([H])c(C([H])([H])[N+]([H])([H])C([H])([H])C([H])([H])C([H])([H])N([H])C(=O)N4C([H])([H])C([H])([H])C([H])([H])C([H])(n5nc(-c6c([H])c([H])c(Oc7c([H])c([H])c(F)c([H])c7F)c([H])c6[H])c(C(=O)N([H])[H])c5N([H])[H])C4([H])[H])c3[H])C([H])([H])[H])c([H])c([H])c2C1([H])[H]

>  <smiles>  (22) 
[H]c1c([H])c([H])c2c(c1[H])C([H])([H])C([H])([H])C([H])([H])C2([H])N([H])C(=O)C1([H])N(C(=O)C([H])(N([H])C(=O)C([H])(N([H])C([H])([H])[H])C([H])([H])[H])C(C([H])([H])[H])(C([H])([H])[H])C([H])([H])[H])C([H])([H])c2c([H])c(OC([H])([H])C([H])([H])N([H])C([H])([H])C([H])([H])[N+]([H])([H])C([H])(c3c([H])c([H])c([H])c(C([H])([H])[N+]([H])([H])C([H])([H])C([H])([H])C([H])([H])N([H])C(=O)N4C([H])([H])C([H])([H])C([H])([H])C([H])(n5nc(-c6c([H])c([H])c(Oc7c([H])c([H])c(F)c([H])c7F)c([H])c6[H])c(C(=O)N([H])[H])c5N([H])[H])C4([H])[H])c3[H])C([H])([H])[H])c([H])c([H])c2C1([H])[H]

$$$$
25:0:0
     RDKit          3D

104107  0  0  1  0  0  0  0  0999 V2000
  -22.9250  -13.1900   21.0710 C   0  0  0  0  0  1  0  0  0  0  0  0
  -24.0160  -11.3810   19.8440 C   0  0  0  0  0  2  0  0  0  0  0  0
  -24.9490  -14.4640   18.8670 C   0  0  0  0  0  2  0  0  0  0  0  0
  -23.8350  -14.8550   20.2120 C   0  0  0  0  0  2  0  0  0  0  0  0
  -25.8070  -11.4340   19.3630 C   0  0  0  0  0  2  0  0  0  0  0  0
  -25.4000  -12.8310   18.3900 C   0  0  0  0  0  3  0  0  0  0  0  0
  -27.7250  -11.4090   20.5900 C   0  0  0  0  0  2  0  0  0  0  0  0
  -28.5650  -12.9040   21.5760 N   0  0  0  0  0  1  0  0  0  0  0  0
  -28.2070  -10.2850   20.7510 O   0  0  0  0  0  0  0  0  0  0  0  0
  -29.3050  -12.4340   22.0860 H   0  0  0  0  0  0  0  0  0  0  0  0
  -29.0090  -15.1880   21.9170 C   0  0  0  0  0 15  0  0  0  0  0  0
  -29.5750  -17.7150   21.5250 C   0  0  0  0  0 15  0  0  0  0  0  0
  -29.4650  -20.3170   21.5510 C   0  0  0  0  0 15  0  0  0  0  0  0
  -30.0780  -22.5450   21.4830 O   0  0  0  0  0  1  0  0  0  0  0  0
  -28.1250  -30.3550   24.4520 C   0  0  0  0  0  0  0  0  0  0  0  0
  -29.7140  -24.3600   21.4140 C   0  0  0  0  0  0  0  0  0  0  0  0
  -27.0380  -29.3660   22.4910 C   0  0  0  0  0  3  0  0  0  0  0  0
  -28.3270  -27.4310   21.1450 C   0  0  0  0  0  0  0  0  0  0  0  0
  -29.5160  -28.7150   22.8690 C   0  0  0  0  0  2  0  0  0  0  0  0
  -29.3570  -27.2660   22.0720 C   0  0  0  0  0  0  0  0  0  0  0  0
  -30.0250  -25.8150   22.1430 C   0  0  0  0  0  3  0  0  0  0  0  0
  -28.8550  -25.0010   20.4020 C   0  0  0  0  0  3  0  0  0  0  0  0
  -28.1990  -26.3170   20.2840 C   0  0  0  0  0  3  0  0  0  0  0  0
  -27.4120  -28.7130   21.1100 C   0  0  0  0  0  2  0  0  0  0  0  0
  -28.2650  -29.5290   23.3320 N   0  0  0  0  0  0  0  0  0  0  0  0
  -27.0250  -30.8440   24.7880 O   0  0  0  0  0  0  0  0  0  0  0  0
  -25.9560  -28.5200   23.2210 C   0  0  0  0  0  0  0  0  0  0  0  0
  -24.6710  -28.5900   22.8150 N   0  0  0  0  0  0  0  0  0  0  0  0
  -26.3020  -27.7820   24.1440 O   0  0  0  0  0  0  0  0  0  0  0  0
  -24.4360  -29.2240   22.0650 H   0  0  0  0  0  0  0  0  0  0  0  0
  -21.1300  -27.7700   22.5090 C   0  0  0  0  0  0  0  0  0  0  0  0
  -23.5850  -27.7400   23.3290 C   0  0  0  0  0  3  0  0  0  0  0  0
  -23.6580  -26.3250   22.7080 C   0  0  0  0  0  2  0  0  0  0  0  0
  -22.7890  -26.1730   21.4560 C   0  0  0  0  0  2  0  0  0  0  0  0
  -21.3190  -26.4440   21.7900 C   0  0  0  0  0  2  0  0  0  0  0  0
  -22.1980  -28.3870   23.2160 C   0  0  0  0  0  0  0  0  0  0  0  0
  -21.9710  -29.6290   23.8470 C   0  0  0  0  0  3  0  0  0  0  0  0
  -20.7110  -30.2530   23.7770 C   0  0  0  0  0  3  0  0  0  0  0  0
  -19.6570  -29.6360   23.0820 C   0  0  0  0  0  3  0  0  0  0  0  0
  -19.8670  -28.3950   22.4550 C   0  0  0  0  0  3  0  0  0  0  0  0
  -29.3200  -30.7420   25.3830 C   0  0  0  0  0  3  0  0  0  0  0  0
  -29.4630  -29.7790   26.6290 C   0  0  1  0  0  0  0  0  0  0  0  0
  -28.1670  -29.6430   27.4640 C   0  0  0  0  0  1  0  0  0  0  0  0
  -29.8810  -28.3580   26.2030 C   0  0  0  0  0  1  0  0  0  0  0  0
  -30.5840  -30.2900   27.5650 C   0  0  0  0  0  1  0  0  0  0  0  0
  -29.1300  -32.1310   25.8820 N   0  0  0  0  0  0  0  0  0  0  0  0
  -29.7260  -33.2340   25.4030 C   0  0  0  0  0  0  0  0  0  0  0  0
  -30.5360  -33.1930   24.4750 O   0  0  0  0  0  0  0  0  0  0  0  0
  -28.4300  -32.2490   26.5990 H   0  0  0  0  0  0  0  0  0  0  0  0
  -28.3260  -35.3310   25.2030 C   0  0  0  0  0  1  0  0  0  0  0  0
  -29.3810  -34.5990   26.0510 C   0  0  0  0  0  3  0  0  0  0  0  0
  -31.4870  -35.0130   27.2530 C   0  0  0  0  0  1  0  0  0  0  0  0
  -30.5540  -35.4880   26.2350 N   0  0  0  0  0  0  0  0  0  0  0  0
  -30.2570  -36.4250   26.4920 H   0  0  0  0  0  0  0  0  0  0  0  0
  -25.2170  -12.6670   17.0020 N   0  0  0  0  0  0  0  0  0  0  0  0
  -25.1830  -13.4880   16.3970 H   0  0  0  0  0  0  0  0  0  0  0  0
  -25.6090  -11.8620   16.5320 H   0  0  0  0  0  0  0  0  0  0  0  0
  -24.3270  -16.4070   20.1480 C   0  0  0  0  0  0  0  0  0  0  0  0
  -23.6270  -17.2250   20.7470 O   0  0  0  0  0  0  0  0  0  0  0  0
  -25.8550  -17.0270   19.2940 C   0  0  0  0  0  3  0  0  0  0  0  0
  -25.7920  -18.3800   19.8930 N   0  0  0  0  0  4  0  0  0  0  0  0
  -25.9400  -18.2600   20.8840 H   0  0  0  0  0  0  0  0  0  0  0  0
  -24.8520  -18.7360   19.7910 H   0  0  0  0  0  0  0  0  0  0  0  0
  -26.4630  -19.0280   19.5330 H   0  0  0  0  0  0  0  0  0  0  0  0
  -27.6460  -16.6890   19.2640 C   0  0  0  0  0  2  0  0  0  0  0  0
  -29.0530  -16.3050   18.1910 C   0  0  0  0  0  2  0  0  0  0  0  0
  -31.1830  -14.2180   18.6840 C   0  0  0  0  0  0  0  0  0  0  0  0
  -30.5390  -11.7790   18.3820 C   0  0  0  0  0  2  0  0  0  0  0  0
  -29.3360  -11.5340   17.5240 C   0  0  0  0  0  3  0  0  0  0  0  0
  -28.0430  -12.3360   17.8740 C   0  0  0  0  0  3  0  0  0  0  0  0
  -27.7660  -13.5020   19.1340 C   0  0  0  0  0  3  0  0  0  0  0  0
  -29.1400  -13.7330   19.2800 C   0  0  0  0  0  2  0  0  0  0  0  0
  -30.3750  -13.1480   18.8810 N   0  0  0  0  0  0  0  0  0  0  0  0
  -32.3860  -13.9610   18.6950 O   0  0  0  0  0  0  0  0  0  0  0  0
  -30.5580  -15.5670   18.4440 N   0  0  0  0  0  0  0  0  0  0  0  0
  -31.3140  -16.2370   18.4120 H   0  0  0  0  0  0  0  0  0  0  0  0
  -26.1550  -14.0940   21.5690 C   0  0  2  0  0  0  0  0  0  0  0  0
  -25.4060  -13.0540   21.0380 C   0  0  1  0  0  0  0  0  0  0  0  0
  -25.4270  -12.0040   22.2510 C   0  0  0  0  0  3  0  0  0  0  0  0
  -26.7140  -13.5050   20.6840 N   0  0  0  0  0  0  0  0  0  0  0  0
  -26.4990  -12.6110   22.0180 N   0  0  0  0  0  0  0  0  0  0  0  0
  -24.6320  -10.3800   22.5270 C   0  0  0  0  0  0  0  0  0  0  0  0
  -25.1030   -9.0400   22.1990 C   0  0  0  0  0  3  0  0  0  0  0  0
  -24.2560   -7.8590   21.9660 C   0  0  0  0  0  3  0  0  0  0  0  0
  -22.8500   -7.9050   21.7060 C   0  0  0  0  0  0  0  0  0  0  0  0
  -22.3650   -9.2090   21.6720 C   0  0  0  0  0  3  0  0  0  0  0  0
  -23.1460  -10.2490   22.2970 C   0  0  0  0  0  3  0  0  0  0  0  0
  -21.9860   -6.8150   21.5540 O   0  0  0  0  0  0  0  0  0  0  0  0
  -21.8200   -5.9220   22.5980 C   0  0  0  0  0  0  0  0  0  0  0  0
  -21.6830   -6.3690   23.9330 C   0  0  0  0  0  3  0  0  0  0  0  0
  -21.5780   -5.4540   25.0000 C   0  0  0  0  0  3  0  0  0  0  0  0
  -21.6000   -4.0670   24.7430 C   0  0  0  0  0  0  0  0  0  0  0  0
  -21.7050   -3.6030   23.4160 C   0  0  0  0  0  3  0  0  0  0  0  0
  -21.8000   -4.5220   22.3530 C   0  0  0  0  0  0  0  0  0  0  0  0
  -21.8690   -4.0620   21.0840 F   0  0  0  0  0  0  0  0  0  0  0  0
  -21.5500   -3.1740   25.7630 F   0  0  0  0  0  0  0  0  0  0  0  0
  -23.1300  -12.7960   19.2780 C   0  0  2  0  0  0  0  0  0  0  0  0
  -22.1350  -11.8820   19.6960 N   0  0  0  0  0  0  0  0  0  0  0  0
  -22.3260  -13.7210   19.0670 O   0  0  0  0  0  1  0  0  0  0  0  0
  -22.3710  -11.0710   20.2480 H   0  0  0  0  0  0  0  0  0  0  0  0
  -21.1880  -11.9980   19.3670 H   0  0  0  0  0  0  0  0  0  0  0  0
  -26.4910  -15.3560   21.4850 N   0  0  0  0  0  0  0  0  0  0  0  0
  -26.5200  -15.6920   22.4420 H   0  0  0  0  0  0  0  0  0  0  0  0
  -27.4510  -15.2540   21.1850 H   0  0  0  0  0  0  0  0  0  0  0  0
  3  4  1  0
  5  2  1  0
  6  3  1  0
  6  5  1  0
  7  9  2  0
  8 10  1  0
 15 26  2  0
 16 14  1  0
 16 21  1  0
 17 27  1  0
 17 25  1  0
 18 20  1  0
 19 25  1  0
 20 21  2  0
 20 19  1  0
 22 16  2  0
 23 22  1  0
 23 18  2  0
 24 18  1  0
 24 17  1  0
 25 15  1  0
 27 29  2  0
 28 27  1  0
 30 28  1  0
 31 36  1  0
 32 28  1  0
 33 32  1  0
 34 35  1  0
 34 33  1  0
 35 31  1  0
 36 32  1  0
 36 37  2  0
 38 37  1  0
 39 38  2  0
 40 31  2  0
 40 39  1  0
 41 15  1  0
 41 46  1  0
 41 42  1  0
 42 43  1  1
 42 45  1  0
 44 42  1  0
 46 49  1  0
 47 46  1  0
 47 51  1  0
 48 47  2  0
 51 50  1  0
 51 53  1  0
 53 54  1  0
 53 52  1  0
 55  6  1  0
 56 55  1  0
 57 55  1  0
 58  4  1  0
 58 59  2  0
 60 65  1  0
 60 61  1  0
 60 58  1  0
 61 62  1  0
 63 61  1  0
 64 61  1  0
 66 75  1  0
 66 65  1  0
 67 74  2  0
 67 73  1  0
 68 73  1  0
 69 70  2  0
 69 68  1  0
 71 70  1  0
 71 72  1  0
 71 80  1  0
 73 72  1  0
 75 67  1  0
 76 75  1  0
 77102  1  6
 77 81  1  0
 78 77  1  0
 78 81  1  0
 78 79  1  6
 79 82  1  0
 80 78  1  0
 80 77  1  0
 81 79  1  0
 83 82  2  0
 84 83  1  0
 85 84  2  0
 86 85  1  0
 86 87  2  0
 87 82  1  0
 88 85  1  0
 88 89  1  0
 89 90  1  0
 90 91  2  0
 92 91  1  0
 92 96  1  0
 93 92  2  0
 94 89  2  0
 94 93  1  0
 95 94  1  0
 97 98  1  0
 97  2  1  0
 97  1  1  1
 98100  1  0
 99 97  1  0
101 98  1  0
102103  1  0
104102  1  0
M  ISO  4  13 101  14 101  67 100  75 100
M  END
>  <TORSDO>  (23) 
F 26

>  <SCORE>  (23) 
14.525

>  <name>  (23) 
25

>  <ligand_id>  (23) 
25

>  <original_smiles>  (23) 
[H]c1c([H])c([H])c2c(c1[H])C([H])([H])C([H])([H])C([H])([H])C2([H])N([H])C(=O)C1([H])N(C(=O)C([H])(N([H])C(=O)C([H])(N([H])C([H])([H])[H])C([H])([H])[H])C(C([H])([H])[H])(C([H])([H])[H])C([H])([H])[H])C([H])([H])c2c([H])c(OC([H])([H])C([H])([H])C([H])([H])N([H])C(=O)c3c([H])c([H])c(C(=O)C([H])(C([H])([H])C([H])([H])N([H])C(=O)N4C([H])([H])C([H])([H])C([H])([H])C([H])(n5nc(-c6c([H])c([H])c(Oc7c([H])c([H])c(F)c([H])c7F)c([H])c6[H])c(C(=O)N([H])[H])c5N([H])[H])C4([H])[H])[N+]([H])([H])[H])c([H])c3N([H])[H])c([H])c([H])c2C1([H])[H]

>  <smiles>  (23) 
[H]c1c([H])c([H])c2c(c1[H])C([H])([H])C([H])([H])C([H])([H])C2([H])N([H])C(=O)C1([H])N(C(=O)C([H])(N([H])C(=O)C([H])(N([H])C([H])([H])[H])C([H])([H])[H])C(C([H])([H])[H])(C([H])([H])[H])C([H])([H])[H])C([H])([H])c2c([H])c(OC([H])([H])C([H])([H])C([H])([H])N([H])C(=O)c3c([H])c([H])c(C(=O)C([H])(C([H])([H])C([H])([H])N([H])C(=O)N4C([H])([H])C([H])([H])C([H])([H])C([H])(n5nc(-c6c([H])c([H])c(Oc7c([H])c([H])c(F)c([H])c7F)c([H])c6[H])c(C(=O)N([H])[H])c5N([H])[H])C4([H])[H])[N+]([H])([H])[H])c([H])c3N([H])[H])c([H])c([H])c2C1([H])[H]

$$$$
26:0:0
     RDKit          3D

 97105  0  0  1  0  0  0  0  0999 V2000
  -31.9150  -21.5040   23.8820 C   0  0  0  0  0  3  0  0  0  0  0  0
  -32.3120  -20.3800   23.1340 C   0  0  0  0  0  3  0  0  0  0  0  0
  -30.9740  -22.4130   23.3580 C   0  0  0  0  0  3  0  0  0  0  0  0
  -30.8870  -21.1150   21.3060 C   0  0  0  0  0  3  0  0  0  0  0  0
  -31.7960  -20.1700   21.8370 C   0  0  0  0  0  0  0  0  0  0  0  0
  -30.4330  -22.2080   22.0690 C   0  0  0  0  0  0  0  0  0  0  0  0
  -32.2200  -18.9640   21.0680 C   0  0  0  0  0  0  0  0  0  0  0  0
  -33.2380  -18.3190   21.3340 O   0  0  0  0  0  0  0  0  0  0  0  0
  -31.3380  -18.5010   19.9050 C   0  0  0  0  0  2  0  0  0  0  0  0
  -29.8920  -18.1650   20.3200 C   0  0  0  0  0  2  0  0  0  0  0  0
  -29.4000  -16.8190   19.7950 C   0  0  0  0  0  2  0  0  0  0  0  0
  -30.6100  -14.7430   20.2530 C   0  0  0  0  0  0  0  0  0  0  0  0
  -30.4610  -12.5090   19.2640 C   0  0  0  0  0  2  0  0  0  0  0  0
  -29.5110  -12.6170   18.0500 C   0  0  0  0  0  2  0  0  0  0  0  0
  -28.0410  -12.4370   18.4820 C   0  0  0  0  0  2  0  0  0  0  0  0
  -27.6610  -13.3370   19.6890 C   0  0  0  0  0  3  0  0  0  0  0  0
  -28.7150  -13.1920   20.8120 C   0  0  0  0  0  2  0  0  0  0  0  0
  -30.0420  -13.5130   20.2490 N   0  0  0  0  0  0  0  0  0  0  0  0
  -31.6910  -15.0120   19.7210 O   0  0  0  0  0  0  0  0  0  0  0  0
  -29.7680  -15.6980   20.6530 N   0  0  0  0  0  0  0  0  0  0  0  0
  -29.0110  -15.3350   21.2130 H   0  0  0  0  0  0  0  0  0  0  0  0
  -25.2440  -13.9030   20.3840 C   0  0  0  0  0  0  0  0  0  0  0  0
  -24.2010  -13.1080   20.7740 C   0  0  0  0  0  0  0  0  0  0  0  0
  -24.6990  -11.7690   20.7670 C   0  0  0  0  0  0  0  0  0  0  0  0
  -26.3140  -13.0430   20.1700 N   0  0  0  0  0  0  0  0  0  0  0  0
  -25.9880  -11.7580   20.4550 N   0  0  0  0  0  0  0  0  0  0  0  0
  -24.0140  -10.4900   20.9860 C   0  0  0  0  0  0  0  0  0  0  0  0
  -24.4250   -9.5980   22.0010 C   0  0  0  0  0  3  0  0  0  0  0  0
  -23.7410   -8.3810   22.2030 C   0  0  0  0  0  3  0  0  0  0  0  0
  -22.6320   -8.0470   21.3900 C   0  0  0  0  0  0  0  0  0  0  0  0
  -22.2410   -8.9290   20.3670 C   0  0  0  0  0  3  0  0  0  0  0  0
  -22.9260  -10.1390   20.1630 C   0  0  0  0  0  3  0  0  0  0  0  0
  -21.9250   -6.8740   21.4960 O   0  0  0  0  0  0  0  0  0  0  0  0
  -21.7660   -6.2370   22.7010 C   0  0  0  0  0  0  0  0  0  0  0  0
  -21.1550   -6.8700   23.8040 C   0  0  0  0  0  3  0  0  0  0  0  0
  -20.9480   -6.1550   25.0000 C   0  0  0  0  0  3  0  0  0  0  0  0
  -21.3430   -4.8080   25.0940 C   0  0  0  0  0  0  0  0  0  0  0  0
  -21.9490   -4.1730   23.9960 C   0  0  0  0  0  3  0  0  0  0  0  0
  -22.1570   -4.8860   22.8000 C   0  0  0  0  0  0  0  0  0  0  0  0
  -22.7210   -4.2630   21.7370 F   0  0  0  0  0  0  0  0  0  0  0  0
  -21.1370   -4.1180   26.2420 F   0  0  0  0  0  0  0  0  0  0  0  0
  -22.7900  -13.5490   21.0460 C   0  0  0  0  0  0  0  0  0  0  0  0
  -22.0870  -12.8400   21.9220 N   0  0  0  0  0  0  0  0  0  0  0  0
  -22.3210  -14.5550   20.5170 O   0  0  0  0  0  0  0  0  0  0  0  0
  -22.4800  -12.0270   22.3720 H   0  0  0  0  0  0  0  0  0  0  0  0
  -21.1420  -13.1170   22.1460 H   0  0  0  0  0  0  0  0  0  0  0  0
  -25.3710  -15.2720   20.1740 N   0  0  0  0  0  0  0  0  0  0  0  0
  -24.5910  -15.9130   20.2800 H   0  0  0  0  0  0  0  0  0  0  0  0
  -26.2110  -15.7240   19.8350 H   0  0  0  0  0  0  0  0  0  0  0  0
  -28.5880  -23.9220   22.5470 C   0  0  0  0  0  1  0  0  0  0  0  0
  -29.3570  -23.1160   21.4750 C   0  0  0  0  0  3  0  0  0  0  0  0
  -29.9470  -23.8890   20.3500 N   0  0  0  0  0  4  0  0  0  0  0  0
  -30.9360  -23.6910   20.3950 H   0  0  0  0  0  0  0  0  0  0  0  0
  -29.6270  -23.5000   19.4760 H   0  0  0  0  0  0  0  0  0  0  0  0
  -29.8070  -25.3670   20.3140 C   0  0  0  0  0  2  0  0  0  0  0  0
  -28.5210  -25.8470   19.6150 C   0  0  0  0  0  2  0  0  0  0  0  0
  -28.4480  -27.2350   19.9050 O   0  0  0  0  0  0  0  0  0  0  0  0
  -24.6610  -32.0310   23.4730 C   0  0  0  0  0  0  0  0  0  0  0  0
  -27.2260  -27.8570   19.9930 C   0  0  0  0  0  0  0  0  0  0  0  0
  -23.4040  -30.7410   21.7750 C   0  0  0  0  0  3  0  0  0  0  0  0
  -24.8140  -29.3110   20.2010 C   0  0  0  0  0  0  0  0  0  0  0  0
  -25.9160  -31.1300   21.5220 C   0  0  0  0  0  2  0  0  0  0  0  0
  -25.9830  -29.8110   20.7850 C   0  0  0  0  0  0  0  0  0  0  0  0
  -27.1890  -29.0890   20.6780 C   0  0  0  0  0  3  0  0  0  0  0  0
  -26.0380  -27.3560   19.4140 C   0  0  0  0  0  3  0  0  0  0  0  0
  -24.8330  -28.0800   19.5180 C   0  0  0  0  0  3  0  0  0  0  0  0
  -23.5680  -30.1550   20.3470 C   0  0  0  0  0  2  0  0  0  0  0  0
  -24.6800  -31.3080   22.3170 N   0  0  0  0  0  0  0  0  0  0  0  0
  -23.5990  -32.2650   24.0630 O   0  0  0  0  0  0  0  0  0  0  0  0
  -22.7850  -29.6540   22.6820 C   0  0  0  0  0  0  0  0  0  0  0  0
  -21.4720  -29.4250   22.5270 N   0  0  0  0  0  0  0  0  0  0  0  0
  -23.4840  -29.0210   23.4760 O   0  0  0  0  0  0  0  0  0  0  0  0
  -20.9660  -29.9890   21.8590 H   0  0  0  0  0  0  0  0  0  0  0  0
  -18.1570  -28.0340   22.8710 C   0  0  0  0  0  0  0  0  0  0  0  0
  -20.6850  -28.4220   23.2440 C   0  0  0  0  0  3  0  0  0  0  0  0
  -20.8870  -27.0170   22.6340 C   0  0  0  0  0  2  0  0  0  0  0  0
  -19.8420  -26.6620   21.5720 C   0  0  0  0  0  2  0  0  0  0  0  0
  -18.4330  -26.7150   22.1690 C   0  0  0  0  0  2  0  0  0  0  0  0
  -19.2170  -28.8430   23.3610 C   0  0  0  0  0  0  0  0  0  0  0  0
  -18.9080  -30.0780   23.9730 C   0  0  0  0  0  3  0  0  0  0  0  0
  -17.5740  -30.5060   24.0990 C   0  0  0  0  0  3  0  0  0  0  0  0
  -16.5290  -29.6930   23.6280 C   0  0  0  0  0  3  0  0  0  0  0  0
  -16.8210  -28.4580   23.0200 C   0  0  0  0  0  3  0  0  0  0  0  0
  -25.9710  -32.6160   24.0910 C   0  0  0  0  0  3  0  0  0  0  0  0
  -25.7090  -34.0220   24.4270 N   0  0  0  0  0  0  0  0  0  0  0  0
  -26.0810  -35.0660   23.6730 C   0  0  0  0  0  0  0  0  0  0  0  0
  -26.7530  -34.9430   22.6460 O   0  0  0  0  0  0  0  0  0  0  0  0
  -25.1110  -34.1930   25.2230 H   0  0  0  0  0  0  0  0  0  0  0  0
  -24.4060  -36.9080   23.3220 C   0  0  0  0  0  1  0  0  0  0  0  0
  -25.6350  -36.4660   24.1320 C   0  0  0  0  0  3  0  0  0  0  0  0
  -27.7950  -37.2890   24.9650 C   0  0  0  0  0  1  0  0  0  0  0  0
  -26.7000  -37.4880   24.0190 N   0  0  0  0  0  0  0  0  0  0  0  0
  -26.3220  -38.4200   24.1620 H   0  0  0  0  0  0  0  0  0  0  0  0
  -26.4700  -31.8230   25.3620 C   0  0  1  0  0  0  0  0  0  0  0  0
  -25.3640  -31.5800   26.4140 C   0  0  0  0  0  1  0  0  0  0  0  0
  -27.0440  -30.4450   24.9550 C   0  0  0  0  0  1  0  0  0  0  0  0
  -27.6200  -32.5980   26.0470 C   0  0  0  0  0  1  0  0  0  0  0  0
  2  1  2  0
  3  1  1  0
  4  5  2  0
  4  6  1  0
  5  2  1  0
  6  3  2  0
  7  8  2  0
  7  5  1  0
  9 10  1  0
  9  7  1  0
 11 10  1  0
 11 20  1  0
 12 20  1  0
 13 18  1  0
 14 15  1  0
 14 13  1  0
 16 15  1  0
 16 25  1  0
 16 17  1  0
 18 12  1  0
 18 17  1  0
 19 12  2  0
 20 21  1  0
 22 23  2  0
 23 42  1  0
 24 23  1  0
 24 27  1  0
 25 22  1  0
 25 26  1  0
 26 24  2  0
 27 28  1  0
 28 29  2  0
 30 33  1  0
 30 29  1  0
 31 30  2  0
 32 31  1  0
 32 27  2  0
 33 34  1  0
 34 39  2  0
 34 35  1  0
 35 36  2  0
 36 37  1  0
 37 41  1  0
 38 37  2  0
 39 38  1  0
 40 39  1  0
 42 43  1  0
 43 46  1  0
 43 45  1  0
 44 42  2  0
 47 48  1  0
 47 22  1  0
 49 47  1  0
 51  6  1  0
 51 50  1  0
 52 53  1  0
 52 51  1  0
 54 52  1  0
 55 52  1  0
 56 57  1  0
 56 55  1  0
 57 59  1  0
 58 69  2  0
 59 64  1  0
 60 68  1  0
 60 70  1  0
 61 67  1  0
 61 63  1  0
 62 68  1  0
 63 62  1  0
 64 63  2  0
 65 66  1  0
 65 59  2  0
 66 61  2  0
 67 60  1  0
 68 58  1  0
 70 72  2  0
 71 70  1  0
 73 71  1  0
 74 83  2  0
 74 79  1  0
 75 71  1  0
 75 79  1  0
 76 75  1  0
 77 78  1  0
 77 76  1  0
 78 74  1  0
 79 80  2  0
 80 81  1  0
 82 81  2  0
 83 82  1  0
 84 58  1  0
 84 85  1  0
 84 94  1  0
 85 88  1  0
 86 90  1  0
 86 85  1  0
 87 86  2  0
 90 89  1  0
 92 90  1  0
 92 93  1  0
 92 91  1  0
 94 97  1  1
 94 95  1  0
 96 94  1  0
M  ISO  4  12 100  20 100  56 101  57 101
M  END
>  <TORSDO>  (24) 
F 24

>  <SCORE>  (24) 
-12.025

>  <name>  (24) 
26

>  <ligand_id>  (24) 
26

>  <original_smiles>  (24) 
[H]c1c([H])c([H])c2c(c1[H])C([H])([H])C([H])([H])C([H])([H])C2([H])N([H])C(=O)C1([H])N(C(=O)C([H])(N([H])C(=O)C([H])(N([H])C([H])([H])[H])C([H])([H])[H])C(C([H])([H])[H])(C([H])([H])[H])C([H])([H])[H])C([H])([H])c2c([H])c(OC([H])([H])C([H])([H])[N+]([H])([H])C([H])(c3c([H])c([H])c([H])c(C(=O)C([H])([H])C([H])([H])C([H])([H])N([H])C(=O)N4C([H])([H])C([H])([H])C([H])([H])C([H])(n5nc(-c6c([H])c([H])c(Oc7c([H])c([H])c(F)c([H])c7F)c([H])c6[H])c(C(=O)N([H])[H])c5N([H])[H])C4([H])[H])c3[H])C([H])([H])[H])c([H])c([H])c2C1([H])[H]

>  <smiles>  (24) 
[H]c1c([H])c([H])c2c(c1[H])C([H])([H])C([H])([H])C([H])([H])C2([H])N([H])C(=O)C1([H])N(C(=O)C([H])(N([H])C(=O)C([H])(N([H])C([H])([H])[H])C([H])([H])[H])C(C([H])([H])[H])(C([H])([H])[H])C([H])([H])[H])C([H])([H])c2c([H])c(OC([H])([H])C([H])([H])[N+]([H])([H])C([H])(c3c([H])c([H])c([H])c(C(=O)C([H])([H])C([H])([H])C([H])([H])N([H])C(=O)N4C([H])([H])C([H])([H])C([H])([H])C([H])(n5nc(-c6c([H])c([H])c(Oc7c([H])c([H])c(F)c([H])c7F)c([H])c6[H])c(C(=O)N([H])[H])c5N([H])[H])C4([H])[H])c3[H])C([H])([H])[H])c([H])c([H])c2C1([H])[H]

$$$$
27:0:0
     RDKit          3D

105113  0  0  1  0  0  0  0  0999 V2000
  -30.7870  -20.5440   22.9520 C   0  0  0  0  0  3  0  0  0  0  0  0
  -31.9110  -19.8500   22.4570 C   0  0  0  0  0  3  0  0  0  0  0  0
  -31.2270  -22.3230   21.3670 C   0  0  0  0  0  3  0  0  0  0  0  0
  -30.4280  -21.7900   22.4020 C   0  0  0  0  0  0  0  0  0  0  0  0
  -32.2930  -21.5970   20.7880 C   0  0  0  0  0  0  0  0  0  0  0  0
  -32.6070  -20.3050   21.3080 C   0  0  0  0  0  0  0  0  0  0  0  0
  -32.9660  -22.2120   19.5870 C   0  0  0  0  0  0  0  0  0  0  0  0
  -33.2370  -23.5070   19.6670 N   0  0  0  0  0  0  0  0  0  0  0  0
  -33.2330  -21.5740   18.5720 O   0  0  0  0  0  0  0  0  0  0  0  0
  -33.0120  -24.0320   20.4990 H   0  0  0  0  0  0  0  0  0  0  0  0
  -33.6420  -23.9810   18.8740 H   0  0  0  0  0  0  0  0  0  0  0  0
  -29.1520  -22.4840   22.7990 C   0  0  0  0  0  0  0  0  0  0  0  0
  -29.1500  -23.8110   22.6270 N   0  0  0  0  0  0  0  0  0  0  0  0
  -28.1730  -21.8590   23.2090 O   0  0  0  0  0  0  0  0  0  0  0  0
  -30.0380  -24.2340   22.4020 H   0  0  0  0  0  0  0  0  0  0  0  0
  -27.9560  -24.6400   22.5340 C   0  0  0  0  0  2  0  0  0  0  0  0
  -28.2260  -25.9850   21.8220 C   0  0  0  0  0  2  0  0  0  0  0  0
  -28.7520  -25.8910   20.3640 C   0  0  0  0  0  2  0  0  0  0  0  0
  -28.7840  -27.1640   19.7040 O   0  0  0  0  0  0  0  0  0  0  0  0
  -24.5200  -31.6930   23.0640 C   0  0  0  0  0  0  0  0  0  0  0  0
  -27.5760  -27.8180   19.6650 C   0  0  0  0  0  0  0  0  0  0  0  0
  -23.4580  -30.3570   21.2700 C   0  0  0  0  0  3  0  0  0  0  0  0
  -25.0590  -29.0950   19.7350 C   0  0  0  0  0  0  0  0  0  0  0  0
  -25.9440  -30.9510   21.1630 C   0  0  0  0  0  2  0  0  0  0  0  0
  -26.1560  -29.6630   20.3990 C   0  0  0  0  0  0  0  0  0  0  0  0
  -27.4170  -29.0340   20.3610 C   0  0  0  0  0  3  0  0  0  0  0  0
  -26.4740  -27.2640   18.9790 C   0  0  0  0  0  3  0  0  0  0  0  0
  -25.2160  -27.8950   19.0170 C   0  0  0  0  0  3  0  0  0  0  0  0
  -23.7410  -29.8300   19.8360 C   0  0  0  0  0  2  0  0  0  0  0  0
  -24.6540  -31.0160   21.8910 N   0  0  0  0  0  0  0  0  0  0  0  0
  -23.4170  -31.8150   23.6130 O   0  0  0  0  0  0  0  0  0  0  0  0
  -22.8900  -29.1980   22.1170 C   0  0  0  0  0  0  0  0  0  0  0  0
  -21.5800  -28.9380   21.9740 N   0  0  0  0  0  0  0  0  0  0  0  0
  -23.6210  -28.5400   22.8620 O   0  0  0  0  0  0  0  0  0  0  0  0
  -21.0430  -29.5180   21.3430 H   0  0  0  0  0  0  0  0  0  0  0  0
  -18.2950  -27.4990   22.3740 C   0  0  0  0  0  0  0  0  0  0  0  0
  -20.8400  -27.8730   22.6470 C   0  0  0  0  0  3  0  0  0  0  0  0
  -21.0180  -26.5230   21.9120 C   0  0  0  0  0  2  0  0  0  0  0  0
  -19.9180  -26.2550   20.8810 C   0  0  0  0  0  2  0  0  0  0  0  0
  -18.5400  -26.2480   21.5480 C   0  0  0  0  0  2  0  0  0  0  0  0
  -19.3760  -28.2710   22.8770 C   0  0  0  0  0  0  0  0  0  0  0  0
  -19.0960  -29.4500   23.6030 C   0  0  0  0  0  3  0  0  0  0  0  0
  -17.7660  -29.8510   23.8400 C   0  0  0  0  0  3  0  0  0  0  0  0
  -16.7010  -29.0710   23.3570 C   0  0  0  0  0  3  0  0  0  0  0  0
  -16.9670  -27.8990   22.6270 C   0  0  0  0  0  3  0  0  0  0  0  0
  -25.7430  -32.3690   23.7600 C   0  0  0  0  0  3  0  0  0  0  0  0
  -26.2500  -31.5800   25.0290 C   0  0  1  0  0  0  0  0  0  0  0  0
  -25.1310  -31.2570   26.0450 C   0  0  0  0  0  1  0  0  0  0  0  0
  -26.9160  -30.2470   24.6120 C   0  0  0  0  0  1  0  0  0  0  0  0
  -27.3280  -32.4090   25.7660 C   0  0  0  0  0  1  0  0  0  0  0  0
  -25.3410  -33.7340   24.1220 N   0  0  0  0  0  0  0  0  0  0  0  0
  -25.6580  -34.8350   23.4270 C   0  0  0  0  0  0  0  0  0  0  0  0
  -26.3920  -34.8120   22.4350 O   0  0  0  0  0  0  0  0  0  0  0  0
  -24.6920  -33.8220   24.8910 H   0  0  0  0  0  0  0  0  0  0  0  0
  -23.8560  -36.5470   23.0480 C   0  0  0  0  0  1  0  0  0  0  0  0
  -25.0700  -36.1750   23.9120 C   0  0  0  0  0  3  0  0  0  0  0  0
  -27.1010  -37.1310   24.9080 C   0  0  0  0  0  1  0  0  0  0  0  0
  -26.0480  -37.2850   23.9080 N   0  0  0  0  0  0  0  0  0  0  0  0
  -25.5830  -38.1740   24.0690 H   0  0  0  0  0  0  0  0  0  0  0  0
  -34.9010  -19.2340   21.4960 C   0  0  0  0  0  1  0  0  0  0  0  0
  -33.6160  -19.3420   20.6520 C   0  0  0  0  0  3  0  0  0  0  0  0
  -33.0300  -18.0120   20.3120 N   0  0  0  0  0  4  0  0  0  0  0  0
  -33.6650  -17.6060   19.6430 H   0  0  0  0  0  0  0  0  0  0  0  0
  -33.0400  -17.3970   21.1110 H   0  0  0  0  0  0  0  0  0  0  0  0
  -31.7000  -17.9600   19.6340 C   0  0  0  0  0  2  0  0  0  0  0  0
  -30.4700  -17.7680   20.5580 C   0  0  0  0  0  2  0  0  0  0  0  0
  -30.6220  -16.6700   21.6360 C   0  0  0  0  0  2  0  0  0  0  0  0
  -31.0460  -14.4610   20.4840 C   0  0  0  0  0  0  0  0  0  0  0  0
  -30.7950  -12.3290   19.2550 C   0  0  0  0  0  2  0  0  0  0  0  0
  -29.8230  -12.5420   18.0730 C   0  0  0  0  0  2  0  0  0  0  0  0
  -28.3510  -12.4190   18.5280 C   0  0  0  0  0  2  0  0  0  0  0  0
  -28.0440  -13.2570   19.8000 C   0  0  0  0  0  3  0  0  0  0  0  0
  -29.1030  -12.9360   20.8780 C   0  0  0  0  0  2  0  0  0  0  0  0
  -30.4200  -13.2750   20.3100 N   0  0  0  0  0  0  0  0  0  0  0  0
  -32.1550  -14.7410   20.0140 O   0  0  0  0  0  0  0  0  0  0  0  0
  -30.2820  -15.3500   21.1330 N   0  0  0  0  0  0  0  0  0  0  0  0
  -29.3420  -15.0320   21.3270 H   0  0  0  0  0  0  0  0  0  0  0  0
  -25.6730  -13.9470   20.5420 C   0  0  0  0  0  0  0  0  0  0  0  0
  -24.5880  -13.2090   20.9160 C   0  0  0  0  0  0  0  0  0  0  0  0
  -25.0050  -11.8410   20.8670 C   0  0  0  0  0  0  0  0  0  0  0  0
  -26.6880  -13.0350   20.2860 N   0  0  0  0  0  0  0  0  0  0  0  0
  -26.2870  -11.7620   20.5350 N   0  0  0  0  0  0  0  0  0  0  0  0
  -24.2510  -10.6010   21.0560 C   0  0  0  0  0  0  0  0  0  0  0  0
  -24.6430   -9.6370   22.0110 C   0  0  0  0  0  3  0  0  0  0  0  0
  -23.8910   -8.4540   22.1860 C   0  0  0  0  0  3  0  0  0  0  0  0
  -22.7330   -8.2330   21.4020 C   0  0  0  0  0  0  0  0  0  0  0  0
  -22.3600   -9.1870   20.4380 C   0  0  0  0  0  3  0  0  0  0  0  0
  -23.1140  -10.3580   20.2620 C   0  0  0  0  0  3  0  0  0  0  0  0
  -21.9550   -7.1030   21.4830 O   0  0  0  0  0  0  0  0  0  0  0  0
  -21.8200   -6.4030   22.6550 C   0  0  0  0  0  0  0  0  0  0  0  0
  -21.3130   -7.0060   23.8270 C   0  0  0  0  0  3  0  0  0  0  0  0
  -21.1280   -6.2320   24.9900 C   0  0  0  0  0  3  0  0  0  0  0  0
  -21.4400   -4.8590   24.9780 C   0  0  0  0  0  0  0  0  0  0  0  0
  -21.9420   -4.2580   23.8110 C   0  0  0  0  0  3  0  0  0  0  0  0
  -22.1300   -5.0290   22.6520 C   0  0  0  0  0  0  0  0  0  0  0  0
  -22.5930   -4.4440   21.5210 F   0  0  0  0  0  0  0  0  0  0  0  0
  -21.2570   -4.1150   26.0930 F   0  0  0  0  0  0  0  0  0  0  0  0
  -23.2110  -13.7240   21.2170 C   0  0  0  0  0  0  0  0  0  0  0  0
  -22.4770  -13.0480   22.0890 N   0  0  0  0  0  0  0  0  0  0  0  0
  -22.7980  -14.7680   20.7120 O   0  0  0  0  0  0  0  0  0  0  0  0
  -22.8270  -12.2030   22.5210 H   0  0  0  0  0  0  0  0  0  0  0  0
  -21.5530  -13.3790   22.3280 H   0  0  0  0  0  0  0  0  0  0  0  0
  -25.8750  -15.3170   20.3800 N   0  0  0  0  0  0  0  0  0  0  0  0
  -25.1230  -15.9880   20.4910 H   0  0  0  0  0  0  0  0  0  0  0  0
  -26.7370  -15.7400   20.0610 H   0  0  0  0  0  0  0  0  0  0  0  0
  2  1  1  0
  3  4  1  0
  4 12  1  0
  4  1  2  0
  5  6  1  0
  5  3  2  0
  6  2  2  0
  7  8  1  0
  7  5  1  0
  8 10  1  0
  9  7  2  0
 11  8  1  0
 12 14  2  0
 13 12  1  0
 15 13  1  0
 16 13  1  0
 17 16  1  0
 18 17  1  0
 19 18  1  0
 20 31  2  0
 21 19  1  0
 21 26  1  0
 22 30  1  0
 22 32  1  0
 23 29  1  0
 23 25  1  0
 24 30  1  0
 25 24  1  0
 26 25  2  0
 27 28  1  0
 27 21  2  0
 28 23  2  0
 29 22  1  0
 30 20  1  0
 32 34  2  0
 33 32  1  0
 35 33  1  0
 36 45  2  0
 36 41  1  0
 37 33  1  0
 37 41  1  0
 38 37  1  0
 39 40  1  0
 39 38  1  0
 40 36  1  0
 41 42  2  0
 42 43  1  0
 44 43  2  0
 45 44  1  0
 46 20  1  0
 46 51  1  0
 46 47  1  0
 47 50  1  1
 47 48  1  0
 49 47  1  0
 51 54  1  0
 52 56  1  0
 52 51  1  0
 53 52  2  0
 56 55  1  0
 58 56  1  0
 58 59  1  0
 58 57  1  0
 61  6  1  0
 61 60  1  0
 62 61  1  0
 62 64  1  0
 63 62  1  0
 65 62  1  0
 65 66  1  0
 66 67  1  0
 68 76  1  0
 69 74  1  0
 70 71  1  0
 70 69  1  0
 72 71  1  0
 72 81  1  0
 72 73  1  0
 74 68  1  0
 74 73  1  0
 75 68  2  0
 76 77  1  0
 76 67  1  0
 78 79  2  0
 79 98  1  0
 80 79  1  0
 80 83  1  0
 81 82  1  0
 81 78  1  0
 82 80  2  0
 83 84  1  0
 84 85  2  0
 86 89  1  0
 86 85  1  0
 87 86  2  0
 88 87  1  0
 88 83  2  0
 89 90  1  0
 90 91  1  0
 91 92  2  0
 93 92  1  0
 93 97  1  0
 94 93  2  0
 95 90  2  0
 95 94  1  0
 96 95  1  0
 98 99  1  0
 99102  1  0
 99101  1  0
100 98  2  0
103104  1  0
103 78  1  0
105103  1  0
M  ISO  4  18 101  19 101  68 100  76 100
M  END
>  <TORSDO>  (25) 
F 26

>  <SCORE>  (25) 
-10.193

>  <name>  (25) 
27

>  <ligand_id>  (25) 
27

>  <original_smiles>  (25) 
[H]c1c([H])c([H])c2c(c1[H])C([H])([H])C([H])([H])C([H])([H])C2([H])N([H])C(=O)C1([H])N(C(=O)C([H])(N([H])C(=O)C([H])(N([H])C([H])([H])[H])C([H])([H])[H])C(C([H])([H])[H])(C([H])([H])[H])C([H])([H])[H])C([H])([H])c2c([H])c(OC([H])([H])C([H])([H])C([H])([H])N([H])C(=O)c3c([H])c([H])c(C([H])(C([H])([H])[H])[N+]([H])([H])C([H])([H])C([H])([H])C([H])([H])N([H])C(=O)N4C([H])([H])C([H])([H])C([H])([H])C([H])(n5nc(-c6c([H])c([H])c(Oc7c([H])c([H])c(F)c([H])c7F)c([H])c6[H])c(C(=O)N([H])[H])c5N([H])[H])C4([H])[H])c(C(=O)N([H])[H])c3[H])c([H])c([H])c2C1([H])[H]

>  <smiles>  (25) 
[H]c1c([H])c([H])c2c(c1[H])C([H])([H])C([H])([H])C([H])([H])C2([H])N([H])C(=O)C1([H])N(C(=O)C([H])(N([H])C(=O)C([H])(N([H])C([H])([H])[H])C([H])([H])[H])C(C([H])([H])[H])(C([H])([H])[H])C([H])([H])[H])C([H])([H])c2c([H])c(OC([H])([H])C([H])([H])C([H])([H])N([H])C(=O)c3c([H])c([H])c(C([H])(C([H])([H])[H])[N+]([H])([H])C([H])([H])C([H])([H])C([H])([H])N([H])C(=O)N4C([H])([H])C([H])([H])C([H])([H])C([H])(n5nc(-c6c([H])c([H])c(Oc7c([H])c([H])c(F)c([H])c7F)c([H])c6[H])c(C(=O)N([H])[H])c5N([H])[H])C4([H])[H])c(C(=O)N([H])[H])c3[H])c([H])c([H])c2C1([H])[H]

$$$$
28:0:0
     RDKit          3D

 97105  0  0  1  0  0  0  0  0999 V2000
  -32.3520  -24.5730   19.2030 C   0  0  0  0  0  3  0  0  0  0  0  0
  -32.4730  -23.1860   19.4000 C   0  0  0  0  0  3  0  0  0  0  0  0
  -31.4450  -25.3130   19.9800 C   0  0  0  0  0  3  0  0  0  0  0  0
  -31.6710  -22.5160   20.3510 C   0  0  0  0  0  0  0  0  0  0  0  0
  -30.6610  -24.6750   20.9620 C   0  0  0  0  0  0  0  0  0  0  0  0
  -30.7670  -23.2720   21.1480 C   0  0  0  0  0  0  0  0  0  0  0  0
  -30.0240  -22.6630   22.1220 O   0  0  0  0  0  0  0  0  0  0  0  0
  -29.4880  -23.2690   22.6250 H   0  0  0  0  0  0  0  0  0  0  0  0
  -31.9000  -21.0530   20.5360 C   0  0  0  0  0  0  0  0  0  0  0  0
  -33.0340  -20.5600   20.6150 O   0  0  0  0  0  0  0  0  0  0  0  0
  -30.6890  -20.1140   20.5390 C   0  0  0  0  0  2  0  0  0  0  0  0
  -31.0490  -18.9470   21.3710 N   0  0  0  0  0  4  0  0  0  0  0  0
  -30.8800  -19.1830   22.3350 H   0  0  0  0  0  0  0  0  0  0  0  0
  -32.0480  -18.8530   21.2520 H   0  0  0  0  0  0  0  0  0  0  0  0
  -30.3730  -17.6840   21.0080 C   0  0  0  0  0  2  0  0  0  0  0  0
  -30.7880  -16.5220   21.9380 C   0  0  0  0  0  2  0  0  0  0  0  0
  -30.6850  -14.4360   20.5860 C   0  0  0  0  0  0  0  0  0  0  0  0
  -30.3300  -12.3780   19.2750 C   0  0  0  0  0  2  0  0  0  0  0  0
  -29.3770  -12.6380   18.0930 C   0  0  0  0  0  2  0  0  0  0  0  0
  -27.9080  -12.4780   18.5310 C   0  0  0  0  0  2  0  0  0  0  0  0
  -27.5850  -13.2690   19.8260 C   0  0  0  0  0  3  0  0  0  0  0  0
  -28.6440  -12.9900   20.9160 C   0  0  0  0  0  2  0  0  0  0  0  0
  -29.9750  -13.3000   20.3620 N   0  0  0  0  0  0  0  0  0  0  0  0
  -31.7110  -14.7310   19.9670 O   0  0  0  0  0  0  0  0  0  0  0  0
  -30.1950  -15.2470   21.5320 N   0  0  0  0  0  0  0  0  0  0  0  0
  -29.3580  -14.9430   22.0080 H   0  0  0  0  0  0  0  0  0  0  0  0
  -25.1770  -13.8500   20.5320 C   0  0  0  0  0  0  0  0  0  0  0  0
  -24.1170  -13.0660   20.9010 C   0  0  0  0  0  0  0  0  0  0  0  0
  -24.5930  -11.7190   20.8670 C   0  0  0  0  0  0  0  0  0  0  0  0
  -26.2320  -12.9810   20.3010 N   0  0  0  0  0  0  0  0  0  0  0  0
  -25.8830  -11.6940   20.5580 N   0  0  0  0  0  0  0  0  0  0  0  0
  -23.8820  -10.4480   21.0570 C   0  0  0  0  0  0  0  0  0  0  0  0
  -24.3330   -9.4800   21.9810 C   0  0  0  0  0  3  0  0  0  0  0  0
  -23.6220   -8.2730   22.1570 C   0  0  0  0  0  3  0  0  0  0  0  0
  -22.4460   -8.0270   21.4100 C   0  0  0  0  0  0  0  0  0  0  0  0
  -22.0140   -8.9840   20.4750 C   0  0  0  0  0  3  0  0  0  0  0  0
  -22.7250  -10.1820   20.2960 C   0  0  0  0  0  3  0  0  0  0  0  0
  -21.7050   -6.8730   21.4960 O   0  0  0  0  0  0  0  0  0  0  0  0
  -21.6850   -6.1150   22.6390 C   0  0  0  0  0  0  0  0  0  0  0  0
  -21.2760   -6.6480   23.8810 C   0  0  0  0  0  3  0  0  0  0  0  0
  -21.2040   -5.8150   25.0160 C   0  0  0  0  0  3  0  0  0  0  0  0
  -21.5300   -4.4510   24.9100 C   0  0  0  0  0  0  0  0  0  0  0  0
  -21.9330   -3.9160   23.6730 C   0  0  0  0  0  3  0  0  0  0  0  0
  -22.0070   -4.7450   22.5400 C   0  0  0  0  0  0  0  0  0  0  0  0
  -22.3750   -4.2210   21.3470 F   0  0  0  0  0  0  0  0  0  0  0  0
  -21.4540   -3.6480   25.9980 F   0  0  0  0  0  0  0  0  0  0  0  0
  -22.7140  -13.5260   21.1780 C   0  0  0  0  0  0  0  0  0  0  0  0
  -21.9960  -12.8200   22.0440 N   0  0  0  0  0  0  0  0  0  0  0  0
  -22.2630  -14.5480   20.6610 O   0  0  0  0  0  0  0  0  0  0  0  0
  -22.3720  -11.9940   22.4850 H   0  0  0  0  0  0  0  0  0  0  0  0
  -21.0550  -13.1110   22.2710 H   0  0  0  0  0  0  0  0  0  0  0  0
  -25.3270  -15.2230   20.3570 N   0  0  0  0  0  0  0  0  0  0  0  0
  -24.5540  -15.8710   20.4660 H   0  0  0  0  0  0  0  0  0  0  0  0
  -26.1750  -15.6690   20.0330 H   0  0  0  0  0  0  0  0  0  0  0  0
  -29.7460  -25.5260   21.8350 C   0  0  0  0  0  2  0  0  0  0  0  0
  -28.3600  -25.7780   21.2250 C   0  0  0  0  0  2  0  0  0  0  0  0
  -28.4090  -26.7840   20.2110 O   0  0  0  0  0  0  0  0  0  0  0  0
  -24.5900  -31.9230   23.2530 C   0  0  0  0  0  0  0  0  0  0  0  0
  -27.2540  -27.5210   20.1710 C   0  0  0  0  0  0  0  0  0  0  0  0
  -23.3840  -30.5080   21.6180 C   0  0  0  0  0  3  0  0  0  0  0  0
  -24.8430  -28.9780   20.1890 C   0  0  0  0  0  0  0  0  0  0  0  0
  -25.9020  -30.8940   21.4040 C   0  0  0  0  0  2  0  0  0  0  0  0
  -25.9970  -29.5240   20.7670 C   0  0  0  0  0  0  0  0  0  0  0  0
  -27.2090  -28.8020   20.7550 C   0  0  0  0  0  3  0  0  0  0  0  0
  -26.0900  -26.9760   19.5910 C   0  0  0  0  0  3  0  0  0  0  0  0
  -24.8830  -27.7020   19.5970 C   0  0  0  0  0  3  0  0  0  0  0  0
  -23.5910  -29.8230   20.2390 C   0  0  0  0  0  2  0  0  0  0  0  0
  -24.6440  -31.1220   22.1500 N   0  0  0  0  0  0  0  0  0  0  0  0
  -23.5100  -32.1890   23.7980 O   0  0  0  0  0  0  0  0  0  0  0  0
  -22.7450  -29.4860   22.5840 C   0  0  0  0  0  0  0  0  0  0  0  0
  -21.4230  -29.2880   22.4550 N   0  0  0  0  0  0  0  0  0  0  0  0
  -23.4340  -28.8730   23.4040 O   0  0  0  0  0  0  0  0  0  0  0  0
  -20.9280  -29.8360   21.7650 H   0  0  0  0  0  0  0  0  0  0  0  0
  -18.0620  -28.0560   22.9410 C   0  0  0  0  0  0  0  0  0  0  0  0
  -20.6140  -28.3470   23.2290 C   0  0  0  0  0  3  0  0  0  0  0  0
  -20.7390  -26.9130   22.6660 C   0  0  0  0  0  2  0  0  0  0  0  0
  -19.6480  -26.5690   21.6480 C   0  0  0  0  0  2  0  0  0  0  0  0
  -18.2600  -26.7020   22.2810 C   0  0  0  0  0  2  0  0  0  0  0  0
  -19.1680  -28.8360   23.3720 C   0  0  0  0  0  0  0  0  0  0  0  0
  -18.9310  -30.1030   23.9480 C   0  0  0  0  0  3  0  0  0  0  0  0
  -17.6190  -30.5900   24.0980 C   0  0  0  0  0  3  0  0  0  0  0  0
  -16.5270  -29.8090   23.6830 C   0  0  0  0  0  3  0  0  0  0  0  0
  -16.7490  -28.5430   23.1110 C   0  0  0  0  0  3  0  0  0  0  0  0
  -25.8770  -32.5600   23.8650 C   0  0  0  0  0  3  0  0  0  0  0  0
  -25.5640  -33.9580   24.1910 N   0  0  0  0  0  0  0  0  0  0  0  0
  -25.8980  -35.0080   23.4280 C   0  0  0  0  0  0  0  0  0  0  0  0
  -26.5720  -34.9020   22.4000 O   0  0  0  0  0  0  0  0  0  0  0  0
  -24.9670  -34.1150   24.9890 H   0  0  0  0  0  0  0  0  0  0  0  0
  -24.1730  -36.7980   23.0510 C   0  0  0  0  0  1  0  0  0  0  0  0
  -25.4040  -36.3960   23.8770 C   0  0  0  0  0  3  0  0  0  0  0  0
  -27.5300  -37.2830   24.7290 C   0  0  0  0  0  1  0  0  0  0  0  0
  -26.4390  -37.4500   23.7740 N   0  0  0  0  0  0  0  0  0  0  0  0
  -26.0300  -38.3690   23.9150 H   0  0  0  0  0  0  0  0  0  0  0  0
  -26.4050  -31.7940   25.1400 C   0  0  1  0  0  0  0  0  0  0  0  0
  -25.3200  -31.5530   26.2150 C   0  0  0  0  0  1  0  0  0  0  0  0
  -26.9920  -30.4190   24.7430 C   0  0  0  0  0  1  0  0  0  0  0  0
  -27.5570  -32.5940   25.7930 C   0  0  0  0  0  1  0  0  0  0  0  0
  1  2  2  0
  1  3  1  0
  2  4  1  0
  3  5  2  0
  4  9  1  0
  4  6  2  0
  5  6  1  0
  5 55  1  0
  6  7  1  0
  7  8  1  0
  9 11  1  0
  9 10  2  0
 11 12  1  0
 12 13  1  0
 14 12  1  0
 15 12  1  0
 15 16  1  0
 17 25  1  0
 18 23  1  0
 19 20  1  0
 19 18  1  0
 21 20  1  0
 21 30  1  0
 21 22  1  0
 23 17  1  0
 23 22  1  0
 24 17  2  0
 25 16  1  0
 25 26  1  0
 27 28  2  0
 28 47  1  0
 29 28  1  0
 29 32  1  0
 30 27  1  0
 30 31  1  0
 31 29  2  0
 32 33  1  0
 33 34  2  0
 35 38  1  0
 35 34  1  0
 36 35  2  0
 37 36  1  0
 37 32  2  0
 38 39  1  0
 39 40  1  0
 40 41  2  0
 42 41  1  0
 42 46  1  0
 43 42  2  0
 44 39  2  0
 44 43  1  0
 45 44  1  0
 47 48  1  0
 48 51  1  0
 48 50  1  0
 49 47  2  0
 52 53  1  0
 52 27  1  0
 54 52  1  0
 56 55  1  0
 57 56  1  0
 58 69  2  0
 59 57  1  0
 59 64  1  0
 60 68  1  0
 60 70  1  0
 61 67  1  0
 61 63  1  0
 62 68  1  0
 63 62  1  0
 64 63  2  0
 65 66  1  0
 65 59  2  0
 66 61  2  0
 67 60  1  0
 68 58  1  0
 70 72  2  0
 71 70  1  0
 73 71  1  0
 74 83  2  0
 74 79  1  0
 75 71  1  0
 75 79  1  0
 76 75  1  0
 77 78  1  0
 77 76  1  0
 78 74  1  0
 79 80  2  0
 80 81  1  0
 82 81  2  0
 83 82  1  0
 84 58  1  0
 84 85  1  0
 84 94  1  0
 85 88  1  0
 86 90  1  0
 86 85  1  0
 87 86  2  0
 90 89  1  0
 92 90  1  0
 92 93  1  0
 92 91  1  0
 94 97  1  1
 94 95  1  0
 96 94  1  0
M  ISO  4  17 100  25 100  56 101  57 101
M  END
>  <TORSDO>  (26) 
F 24

>  <SCORE>  (26) 
-12.931

>  <name>  (26) 
28

>  <ligand_id>  (26) 
28

>  <original_smiles>  (26) 
[H]Oc1c(C(=O)C([H])([H])[N+]([H])([H])C([H])([H])C([H])([H])N([H])C(=O)N2C([H])([H])C([H])([H])C([H])([H])C([H])(n3nc(-c4c([H])c([H])c(Oc5c([H])c([H])c(F)c([H])c5F)c([H])c4[H])c(C(=O)N([H])[H])c3N([H])[H])C2([H])[H])c([H])c([H])c([H])c1C([H])([H])C([H])([H])Oc1c([H])c([H])c2c(c1[H])C([H])([H])N(C(=O)C([H])(N([H])C(=O)C([H])(N([H])C([H])([H])[H])C([H])([H])[H])C(C([H])([H])[H])(C([H])([H])[H])C([H])([H])[H])C([H])(C(=O)N([H])C1([H])c3c([H])c([H])c([H])c([H])c3C([H])([H])C([H])([H])C1([H])[H])C2([H])[H]

>  <smiles>  (26) 
[H]Oc1c(C(=O)C([H])([H])[N+]([H])([H])C([H])([H])C([H])([H])N([H])C(=O)N2C([H])([H])C([H])([H])C([H])([H])C([H])(n3nc(-c4c([H])c([H])c(Oc5c([H])c([H])c(F)c([H])c5F)c([H])c4[H])c(C(=O)N([H])[H])c3N([H])[H])C2([H])[H])c([H])c([H])c([H])c1C([H])([H])C([H])([H])Oc1c([H])c([H])c2c(c1[H])C([H])([H])N(C(=O)C([H])(N([H])C(=O)C([H])(N([H])C([H])([H])[H])C([H])([H])[H])C(C([H])([H])[H])(C([H])([H])[H])C([H])([H])[H])C([H])(C(=O)N([H])C1([H])c3c([H])c([H])c([H])c([H])c3C([H])([H])C([H])([H])C1([H])[H])C2([H])[H]

$$$$
29:0:0
     RDKit          3D

103111  0  0  1  0  0  0  0  0999 V2000
  -31.7250  -19.2350   21.7970 C   0  0  0  0  0  3  0  0  0  0  0  0
  -30.2800  -19.6710   19.8900 C   0  0  0  0  0  3  0  0  0  0  0  0
  -31.9880  -21.2900   20.5090 C   0  0  0  0  0  3  0  0  0  0  0  0
  -30.6740  -18.8210   20.9440 C   0  0  0  0  0  0  0  0  0  0  0  0
  -32.3960  -20.4620   21.5810 C   0  0  0  0  0  0  0  0  0  0  0  0
  -30.9400  -20.8930   19.6520 C   0  0  0  0  0  0  0  0  0  0  0  0
  -33.5120  -20.8790   22.4990 C   0  0  0  0  0  0  0  0  0  0  0  0
  -34.6230  -21.3220   21.9250 N   0  0  0  0  0  0  0  0  0  0  0  0
  -33.4160  -20.7660   23.7210 O   0  0  0  0  0  0  0  0  0  0  0  0
  -34.6980  -21.3520   20.9190 H   0  0  0  0  0  0  0  0  0  0  0  0
  -35.4060  -21.6190   22.4920 H   0  0  0  0  0  0  0  0  0  0  0  0
  -29.9560  -17.5210   21.1120 C   0  0  0  0  0  0  0  0  0  0  0  0
  -28.8470  -17.3050   20.6090 O   0  0  0  0  0  0  0  0  0  0  0  0
  -30.6450  -16.4080   21.9210 C   0  0  0  0  0  2  0  0  0  0  0  0
  -30.5680  -14.4250   20.4180 C   0  0  0  0  0  0  0  0  0  0  0  0
  -30.1760  -12.4690   18.9670 C   0  0  0  0  0  2  0  0  0  0  0  0
  -29.1550  -12.7830   17.8590 C   0  0  0  0  0  2  0  0  0  0  0  0
  -27.7140  -12.5700   18.3570 C   0  0  0  0  0  2  0  0  0  0  0  0
  -27.4480  -13.2700   19.7160 C   0  0  0  0  0  3  0  0  0  0  0  0
  -28.5630  -12.9320   20.7290 C   0  0  0  0  0  2  0  0  0  0  0  0
  -29.8630  -13.3020   20.1360 N   0  0  0  0  0  0  0  0  0  0  0  0
  -31.5300  -14.8150   19.7470 O   0  0  0  0  0  0  0  0  0  0  0  0
  -30.1660  -15.0850   21.5080 N   0  0  0  0  0  0  0  0  0  0  0  0
  -29.3620  -14.7170   21.9930 H   0  0  0  0  0  0  0  0  0  0  0  0
  -25.0500  -13.7620   20.5170 C   0  0  0  0  0  0  0  0  0  0  0  0
  -24.0340  -12.9380   20.9250 C   0  0  0  0  0  0  0  0  0  0  0  0
  -24.5570  -11.6110   20.8630 C   0  0  0  0  0  0  0  0  0  0  0  0
  -26.1260  -12.9330   20.2410 N   0  0  0  0  0  0  0  0  0  0  0  0
  -25.8330  -11.6340   20.5040 N   0  0  0  0  0  0  0  0  0  0  0  0
  -23.9010  -10.3150   21.0750 C   0  0  0  0  0  0  0  0  0  0  0  0
  -24.3590   -9.4090   22.0560 C   0  0  0  0  0  3  0  0  0  0  0  0
  -23.7020   -8.1760   22.2550 C   0  0  0  0  0  3  0  0  0  0  0  0
  -22.5710   -7.8400   21.4730 C   0  0  0  0  0  0  0  0  0  0  0  0
  -22.1320   -8.7370   20.4820 C   0  0  0  0  0  3  0  0  0  0  0  0
  -22.7900   -9.9620   20.2840 C   0  0  0  0  0  3  0  0  0  0  0  0
  -21.8840   -6.6540   21.5770 O   0  0  0  0  0  0  0  0  0  0  0  0
  -21.7820   -5.9850   22.7680 C   0  0  0  0  0  0  0  0  0  0  0  0
  -21.1750   -6.5680   23.9020 C   0  0  0  0  0  3  0  0  0  0  0  0
  -21.0290   -5.8190   25.0870 C   0  0  0  0  0  3  0  0  0  0  0  0
  -21.4780   -4.4860   25.1380 C   0  0  0  0  0  0  0  0  0  0  0  0
  -22.0760   -3.9010   24.0070 C   0  0  0  0  0  3  0  0  0  0  0  0
  -22.2250   -4.6470   22.8260 C   0  0  0  0  0  0  0  0  0  0  0  0
  -22.7830   -4.0740   21.7330 F   0  0  0  0  0  0  0  0  0  0  0  0
  -21.3320   -3.7640   26.2730 F   0  0  0  0  0  0  0  0  0  0  0  0
  -22.6280  -13.3460   21.2570 C   0  0  0  0  0  0  0  0  0  0  0  0
  -21.9690  -12.6090   22.1430 N   0  0  0  0  0  0  0  0  0  0  0  0
  -22.1200  -14.3550   20.7660 O   0  0  0  0  0  0  0  0  0  0  0  0
  -22.3900  -11.7930   22.5620 H   0  0  0  0  0  0  0  0  0  0  0  0
  -21.0280  -12.8610   22.4060 H   0  0  0  0  0  0  0  0  0  0  0  0
  -25.1430  -15.1410   20.3400 N   0  0  0  0  0  0  0  0  0  0  0  0
  -24.3560  -15.7630   20.4860 H   0  0  0  0  0  0  0  0  0  0  0  0
  -25.9680  -15.6160   19.9940 H   0  0  0  0  0  0  0  0  0  0  0  0
  -30.5520  -20.9080   17.1570 C   0  0  0  0  0  1  0  0  0  0  0  0
  -30.5650  -21.7470   18.4450 C   0  0  0  0  0  3  0  0  0  0  0  0
  -29.2340  -22.5070   18.6300 C   0  0  0  0  0  2  0  0  0  0  0  0
  -29.2390  -23.5300   19.7820 C   0  0  0  0  0  2  0  0  0  0  0  0
  -28.5100  -23.0610   21.0580 C   0  0  0  0  0  2  0  0  0  0  0  0
  -28.7780  -23.9090   22.2440 N   0  0  0  0  0  4  0  0  0  0  0  0
  -29.7680  -23.9410   22.4310 H   0  0  0  0  0  0  0  0  0  0  0  0
  -28.3670  -23.4130   23.0220 H   0  0  0  0  0  0  0  0  0  0  0  0
  -28.1810  -25.2690   22.2600 C   0  0  0  0  0  2  0  0  0  0  0  0
  -29.0090  -26.3580   21.5370 C   0  0  0  0  0  2  0  0  0  0  0  0
  -28.4470  -26.6430   20.2540 O   0  0  0  0  0  0  0  0  0  0  0  0
  -24.5310  -31.7990   23.2460 C   0  0  0  0  0  0  0  0  0  0  0  0
  -27.2950  -27.3890   20.2560 C   0  0  0  0  0  0  0  0  0  0  0  0
  -23.3850  -30.3920   21.5640 C   0  0  0  0  0  3  0  0  0  0  0  0
  -24.8890  -28.8550   20.1870 C   0  0  0  0  0  0  0  0  0  0  0  0
  -25.9100  -30.7600   21.4550 C   0  0  0  0  0  2  0  0  0  0  0  0
  -26.0190  -29.3920   20.8190 C   0  0  0  0  0  0  0  0  0  0  0  0
  -27.2240  -28.6650   20.8560 C   0  0  0  0  0  3  0  0  0  0  0  0
  -26.1590  -26.8630   19.6120 C   0  0  0  0  0  3  0  0  0  0  0  0
  -24.9540  -27.5890   19.5800 C   0  0  0  0  0  3  0  0  0  0  0  0
  -23.6380  -29.7020   20.1950 C   0  0  0  0  0  2  0  0  0  0  0  0
  -24.6230  -30.9970   22.1460 N   0  0  0  0  0  0  0  0  0  0  0  0
  -23.4320  -32.0690   23.7490 O   0  0  0  0  0  0  0  0  0  0  0  0
  -22.6990  -29.3740   22.5040 C   0  0  0  0  0  0  0  0  0  0  0  0
  -21.3810  -29.1910   22.3290 N   0  0  0  0  0  0  0  0  0  0  0  0
  -23.3530  -28.7500   23.3440 O   0  0  0  0  0  0  0  0  0  0  0  0
  -20.9220  -29.7440   21.6180 H   0  0  0  0  0  0  0  0  0  0  0  0
  -17.9820  -28.0300   22.7210 C   0  0  0  0  0  0  0  0  0  0  0  0
  -20.5330  -28.2570   23.0690 C   0  0  0  0  0  3  0  0  0  0  0  0
  -20.6400  -26.8300   22.4860 C   0  0  0  0  0  2  0  0  0  0  0  0
  -19.5650  -26.5260   21.4380 C   0  0  0  0  0  2  0  0  0  0  0  0
  -18.1670  -26.6820   22.0410 C   0  0  0  0  0  2  0  0  0  0  0  0
  -19.0960  -28.7770   23.1860 C   0  0  0  0  0  0  0  0  0  0  0  0
  -18.8720  -30.0400   23.7750 C   0  0  0  0  0  3  0  0  0  0  0  0
  -17.5680  -30.5540   23.9110 C   0  0  0  0  0  3  0  0  0  0  0  0
  -16.4690  -29.8020   23.4610 C   0  0  0  0  0  3  0  0  0  0  0  0
  -16.6780  -28.5420   22.8730 C   0  0  0  0  0  3  0  0  0  0  0  0
  -25.7950  -32.4310   23.9070 C   0  0  0  0  0  3  0  0  0  0  0  0
  -26.2510  -31.6790   25.2160 C   0  0  1  0  0  0  0  0  0  0  0  0
  -25.1160  -31.4740   26.2480 C   0  0  0  0  0  1  0  0  0  0  0  0
  -26.8260  -30.2880   24.8670 C   0  0  0  0  0  1  0  0  0  0  0  0
  -27.3940  -32.4660   25.8990 C   0  0  0  0  0  1  0  0  0  0  0  0
  -25.4860  -33.8380   24.1980 N   0  0  0  0  0  0  0  0  0  0  0  0
  -25.8640  -34.8740   23.4350 C   0  0  0  0  0  0  0  0  0  0  0  0
  -26.5790  -34.7430   22.4380 O   0  0  0  0  0  0  0  0  0  0  0  0
  -24.8560  -34.0090   24.9690 H   0  0  0  0  0  0  0  0  0  0  0  0
  -24.1780  -36.6790   22.9630 C   0  0  0  0  0  1  0  0  0  0  0  0
  -25.3700  -36.2760   23.8440 C   0  0  0  0  0  3  0  0  0  0  0  0
  -27.4640  -37.1530   24.7780 C   0  0  0  0  0  1  0  0  0  0  0  0
  -26.4220  -37.3150   23.7690 N   0  0  0  0  0  0  0  0  0  0  0  0
  -26.0210  -38.2420   23.8750 H   0  0  0  0  0  0  0  0  0  0  0  0
  2  4  1  0
  3  5  2  0
  4 12  1  0
  4  1  2  0
  5  1  1  0
  5  7  1  0
  6  2  2  0
  6  3  1  0
  7  9  2  0
  8 11  1  0
  8  7  1  0
 10  8  1  0
 12 14  1  0
 13 12  2  0
 15 23  1  0
 16 21  1  0
 17 18  1  0
 17 16  1  0
 19 18  1  0
 19 28  1  0
 19 20  1  0
 21 15  1  0
 21 20  1  0
 22 15  2  0
 23 14  1  0
 23 24  1  0
 25 26  2  0
 26 45  1  0
 27 26  1  0
 27 30  1  0
 28 29  1  0
 28 25  1  0
 29 27  2  0
 30 31  1  0
 31 32  2  0
 33 36  1  0
 33 32  1  0
 34 33  2  0
 35 34  1  0
 35 30  2  0
 36 37  1  0
 37 42  2  0
 37 38  1  0
 38 39  2  0
 39 40  1  0
 40 44  1  0
 41 40  2  0
 42 41  1  0
 43 42  1  0
 45 46  1  0
 46 49  1  0
 46 48  1  0
 47 45  2  0
 50 51  1  0
 50 25  1  0
 52 50  1  0
 54 53  1  0
 54 55  1  0
 54  6  1  0
 55 56  1  0
 56 57  1  0
 57 58  1  0
 58 61  1  0
 58 59  1  0
 58 60  1  0
 62 61  1  0
 63 65  1  0
 63 62  1  0
 64 75  2  0
 65 70  1  0
 66 74  1  0
 66 76  1  0
 67 73  1  0
 67 69  1  0
 68 74  1  0
 69 70  2  0
 69 68  1  0
 71 65  2  0
 72 71  1  0
 72 67  2  0
 73 66  1  0
 74 64  1  0
 76 78  2  0
 77 76  1  0
 79 77  1  0
 80 89  2  0
 80 85  1  0
 81 77  1  0
 81 85  1  0
 82 81  1  0
 83 84  1  0
 83 82  1  0
 84 80  1  0
 85 86  2  0
 86 87  1  0
 88 87  2  0
 89 88  1  0
 90 64  1  0
 90 95  1  0
 90 91  1  0
 91 94  1  1
 91 92  1  0
 93 91  1  0
 95 98  1  0
 96100  1  0
 96 95  1  0
 97 96  2  0
100 99  1  0
102100  1  0
102103  1  0
102101  1  0
M  ISO  4  15 100  23 100  62 101  63 101
M  END
>  <TORSDO>  (27) 
F 26

>  <SCORE>  (27) 
-12.357

>  <name>  (27) 
29

>  <ligand_id>  (27) 
29

>  <original_smiles>  (27) 
[H]c1c([H])c([H])c2c(c1[H])C([H])([H])C([H])([H])C([H])([H])C2([H])N([H])C(=O)C1([H])N(C(=O)C([H])(N([H])C(=O)C([H])(N([H])C([H])([H])[H])C([H])([H])[H])C(C([H])([H])[H])(C([H])([H])[H])C([H])([H])[H])C([H])([H])c2c([H])c(OC([H])([H])C([H])([H])[N+]([H])([H])C([H])([H])C([H])([H])C([H])([H])C([H])(c3c([H])c(C(=O)N([H])[H])c([H])c(C(=O)C([H])([H])N([H])C(=O)N4C([H])([H])C([H])([H])C([H])([H])C([H])(n5nc(-c6c([H])c([H])c(Oc7c([H])c([H])c(F)c([H])c7F)c([H])c6[H])c(C(=O)N([H])[H])c5N([H])[H])C4([H])[H])c3[H])C([H])([H])[H])c([H])c([H])c2C1([H])[H]

>  <smiles>  (27) 
[H]c1c([H])c([H])c2c(c1[H])C([H])([H])C([H])([H])C([H])([H])C2([H])N([H])C(=O)C1([H])N(C(=O)C([H])(N([H])C(=O)C([H])(N([H])C([H])([H])[H])C([H])([H])[H])C(C([H])([H])[H])(C([H])([H])[H])C([H])([H])[H])C([H])([H])c2c([H])c(OC([H])([H])C([H])([H])[N+]([H])([H])C([H])([H])C([H])([H])C([H])([H])C([H])(c3c([H])c(C(=O)N([H])[H])c([H])c(C(=O)C([H])([H])N([H])C(=O)N4C([H])([H])C([H])([H])C([H])([H])C([H])(n5nc(-c6c([H])c([H])c(Oc7c([H])c([H])c(F)c([H])c7F)c([H])c6[H])c(C(=O)N([H])[H])c5N([H])[H])C4([H])[H])c3[H])C([H])([H])[H])c([H])c([H])c2C1([H])[H]

$$$$
30:0:0
     RDKit          3D

 97 96  0  0  1  0  0  0  0  0999 V2000
  -20.6300  -25.6830   21.7490 C   0  0  0  0  0  3  0  0  0  0  0  0
  -19.7020  -26.8580   20.2950 C   0  0  0  0  0  3  0  0  0  0  0  0
  -20.7640  -26.3600   22.1960 C   0  0  0  0  0  2  0  0  0  0  0  0
  -22.1550  -25.3460   21.9230 C   0  0  0  0  0  1  0  0  0  0  0  0
  -19.9770  -27.7160   19.1750 C   0  0  0  0  0  1  0  0  0  0  0  0
  -19.7270  -27.5140   20.6290 C   0  0  0  0  0  2  0  0  0  0  0  0
  -21.0810  -27.4660   17.9300 C   0  0  0  0  0  2  0  0  0  0  0  0
  -22.4200  -27.9720   17.8590 N   0  0  0  0  0  0  0  0  0  0  0  0
  -20.7100  -26.9010   16.9020 O   0  0  0  0  0  1  0  0  0  0  0  0
  -22.6010  -28.6240   18.6080 H   0  0  0  0  0  0  0  0  0  0  0  0
  -23.7990  -27.6070   17.0920 C   0  0  0  0  0  2  0  0  0  0  0  0
  -25.4730  -27.8560   17.5750 C   0  0  0  0  0  2  0  0  0  0  0  0
  -26.5620  -27.1550   18.5210 O   0  0  0  0  0  0  0  0  0  0  0  0
  -24.5100  -32.0850   23.1580 C   0  0  0  0  0  0  0  0  0  0  0  0
  -26.5860  -27.5070   19.8380 C   0  0  0  0  0  3  0  0  0  0  0  0
  -23.1730  -30.8380   21.5630 C   0  0  0  0  0  3  0  0  0  0  0  0
  -24.3950  -29.1250   20.2400 C   0  0  0  0  0  0  0  0  0  0  0  0
  -25.6810  -31.0370   21.1720 C   0  0  0  0  0  2  0  0  0  0  0  0
  -25.6390  -29.6500   20.5530 C   0  0  0  0  0  0  0  0  0  0  0  0
  -26.7790  -28.8460   20.2890 C   0  0  0  0  0  3  0  0  0  0  0  0
  -25.4380  -26.8870   20.1970 C   0  0  0  0  0  2  0  0  0  0  0  0
  -24.3500  -27.7160   20.1870 C   0  0  0  0  0  3  0  0  0  0  0  0
  -23.2430  -30.1180   20.2110 C   0  0  0  0  0  2  0  0  0  0  0  0
  -24.4850  -31.3620   22.0030 N   0  0  0  0  0  0  0  0  0  0  0  0
  -23.4660  -32.4130   23.7450 O   0  0  0  0  0  0  0  0  0  0  0  0
  -22.7230  -29.8110   22.5840 C   0  0  0  0  0  0  0  0  0  0  0  0
  -21.4620  -29.6620   22.7260 N   0  0  0  0  0  0  0  0  0  0  0  0
  -23.5090  -29.0950   23.1960 O   0  0  0  0  0  0  0  0  0  0  0  0
  -20.8130  -30.1630   22.1270 H   0  0  0  0  0  0  0  0  0  0  0  0
  -17.7210  -27.8950   22.9190 C   0  0  0  0  0  3  0  0  0  0  0  0
  -21.0660  -28.3530   23.1350 C   0  0  0  0  0  1  0  0  0  0  0  0
  -21.6690  -26.8050   21.3420 C   0  0  0  0  0  1  0  0  0  0  0  0
  -19.6070  -25.3990   20.1840 C   0  0  0  0  0  2  0  0  0  0  0  0
  -17.4990  -26.3040   21.5500 C   0  0  0  0  0 15  0  0  0  0  0  0
  -19.1010  -28.6440   23.6250 C   0  0  0  0  0  3  0  0  0  0  0  0
  -18.8760  -30.0230   24.1180 C   0  0  0  0  0  3  0  0  0  0  0  0
  -17.6650  -30.7670   24.1120 C   0  0  0  0  0  3  0  0  0  0  0  0
  -16.5200  -30.1570   23.5890 C   0  0  0  0  0  3  0  0  0  0  0  0
  -16.5810  -28.8290   23.0310 C   0  0  0  0  0  3  0  0  0  0  0  0
  -25.8500  -32.5340   23.7950 C   0  0  0  0  0  3  0  0  0  0  0  0
  -25.6200  -33.8770   24.3320 N   0  0  0  0  0  0  0  0  0  0  0  0
  -25.8900  -35.0010   23.6590 C   0  0  0  0  0  0  0  0  0  0  0  0
  -26.4530  -35.0030   22.5600 O   0  0  0  0  0  0  0  0  0  0  0  0
  -25.1270  -33.9410   25.2110 H   0  0  0  0  0  0  0  0  0  0  0  0
  -24.1970  -36.8560   23.6620 C   0  0  0  0  0  1  0  0  0  0  0  0
  -25.4840  -36.3310   24.3180 C   0  0  0  0  0  3  0  0  0  0  0  0
  -27.7100  -37.0410   25.0670 C   0  0  0  0  0  1  0  0  0  0  0  0
  -26.5430  -37.3610   24.2480 N   0  0  0  0  0  0  0  0  0  0  0  0
  -26.1870  -38.2660   24.5440 H   0  0  0  0  0  0  0  0  0  0  0  0
  -26.3770  -31.5560   24.9120 C   0  0  1  0  0  0  0  0  0  0  0  0
  -25.3350  -31.2090   26.0010 C   0  0  0  0  0  1  0  0  0  0  0  0
  -26.8600  -30.2340   24.2720 C   0  0  0  0  0  1  0  0  0  0  0  0
  -27.6080  -32.1850   25.6090 C   0  0  0  0  0  1  0  0  0  0  0  0
  -18.7270  -28.7780   20.4880 O   0  0  0  0  0  0  0  0  0  0  0  0
  -18.1430  -28.7450   21.2480 H   0  0  0  0  0  0  0  0  0  0  0  0
  -23.9950  -24.0430   22.0200 C   0  0  0  0  0  2  0  0  0  0  0  0
  -24.3040  -24.0630   23.2190 O   0  0  0  0  0  0  0  0  0  0  0  0
  -25.6610  -22.7480   21.1270 C   0  0  0  0  0 15  0  0  0  0  0  0
  -27.5310  -21.1680   21.1890 C   0  0  0  0  0 15  0  0  0  0  0  0
  -30.2380  -18.3400   20.5630 C   0  0  0  0  0  0  0  0  0  0  0  0
  -31.6630  -15.8980   19.6540 C   0  0  0  0  0  2  0  0  0  0  0  0
  -31.2420  -14.9620   18.4350 C   0  0  0  0  0  2  0  0  0  0  0  0
  -29.8980  -14.2660   18.7100 C   0  0  0  0  0  2  0  0  0  0  0  0
  -29.0690  -15.2290   19.5640 C   0  0  0  0  0  3  0  0  0  0  0  0
  -29.7370  -15.7430   20.8280 C   0  0  0  0  0  2  0  0  0  0  0  0
  -30.4970  -16.8300   20.2870 N   0  0  0  0  0  0  0  0  0  0  0  0
  -31.5190  -18.5420   20.6100 O   0  0  0  0  0  0  0  0  0  0  0  0
  -28.7820  -19.4570   20.6780 N   0  0  0  0  0  2  0  0  0  0  0  0
  -28.0420  -18.7960   20.4110 H   0  0  0  0  0  0  0  0  0  0  0  0
  -26.7420  -15.7310   20.1750 C   0  0  0  0  0  0  0  0  0  0  0  0
  -25.6850  -14.9460   20.4780 C   0  0  0  0  0  0  0  0  0  0  0  0
  -26.1770  -13.6040   20.4540 C   0  0  0  0  0  0  0  0  0  0  0  0
  -27.7690  -14.8500   19.9320 N   0  0  0  0  0  0  0  0  0  0  0  0
  -27.4740  -13.5670   20.1990 N   0  0  0  0  0  0  0  0  0  0  0  0
  -25.4690  -12.3430   20.5710 C   0  0  0  0  0  0  0  0  0  0  0  0
  -25.7360  -11.4420   21.6210 C   0  0  0  0  0  3  0  0  0  0  0  0
  -25.0130  -10.2370   21.7140 C   0  0  0  0  0  3  0  0  0  0  0  0
  -24.0220   -9.9320   20.7510 C   0  0  0  0  0  0  0  0  0  0  0  0
  -23.7890  -10.8230   19.6900 C   0  0  0  0  0  3  0  0  0  0  0  0
  -24.5110  -12.0190   19.5950 C   0  0  0  0  0  3  0  0  0  0  0  0
  -23.2830   -8.7770   20.7460 O   0  0  0  0  0  0  0  0  0  0  0  0
  -22.7760   -8.2500   21.9040 C   0  0  0  0  0  0  0  0  0  0  0  0
  -21.9630   -9.0060   22.7760 C   0  0  0  0  0  3  0  0  0  0  0  0
  -21.4080   -8.3990   23.9190 C   0  0  0  0  0  3  0  0  0  0  0  0
  -21.6540   -7.0390   24.1860 C   0  0  0  0  0  0  0  0  0  0  0  0
  -22.4610   -6.2850   23.3150 C   0  0  0  0  0  3  0  0  0  0  0  0
  -23.0190   -6.8900   22.1760 C   0  0  0  0  0  0  0  0  0  0  0  0
  -23.7790   -6.1540   21.3280 F   0  0  0  0  0  0  0  0  0  0  0  0
  -21.1140   -6.4530   25.2800 F   0  0  0  0  0  0  0  0  0  0  0  0
  -24.2840  -15.4270   20.6700 C   0  0  0  0  0  0  0  0  0  0  0  0
  -23.5300  -14.7520   21.5220 N   0  0  0  0  0  0  0  0  0  0  0  0
  -23.8760  -16.4420   20.1020 O   0  0  0  0  0  0  0  0  0  0  0  0
  -23.8890  -13.9410   22.0030 H   0  0  0  0  0  0  0  0  0  0  0  0
  -22.5820  -15.0540   21.7010 H   0  0  0  0  0  0  0  0  0  0  0  0
  -26.9100  -17.1080   20.0640 N   0  0  0  0  0  0  0  0  0  0  0  0
  -26.1170  -17.7390   20.1520 H   0  0  0  0  0  0  0  0  0  0  0  0
  -27.7560  -17.5080   19.6950 H   0  0  0  0  0  0  0  0  0  0  0  0
  1  4  1  0
  1  3  1  0
  2  5  1  0
  2  6  1  0
  8  7  1  0
  8 10  1  0
  9  7  1  0
 11 12  1  0
 11  8  1  0
 12 13  1  0
 14 25  2  0
 15 13  1  0
 15 21  1  0
 15 20  1  0
 16 24  1  0
 16 26  1  0
 17 19  1  0
 18 24  1  0
 19 18  1  0
 20 19  2  0
 22 21  1  0
 22 17  2  0
 23 17  1  0
 23 16  1  0
 24 14  1  0
 26 27  1  0
 26 28  2  0
 27 31  1  0
 29 27  1  0
 30 39  2  0
 30 35  1  0
 32  3  1  0
 33  2  1  0
 33  1  1  0
 35 36  2  0
 37 36  1  0
 38 37  2  0
 39 38  1  0
 40 14  1  0
 40 41  1  0
 40 50  1  0
 41 44  1  0
 42 46  1  0
 42 41  1  0
 43 42  2  0
 46 45  1  0
 48 46  1  0
 48 49  1  0
 48 47  1  0
 50 53  1  1
 50 51  1  0
 52 50  1  0
 54  6  1  0
 54 55  1  0
 56 57  2  0
 60 67  2  0
 60 68  1  0
 61 66  1  0
 62 63  1  0
 62 61  1  0
 64 63  1  0
 64 73  1  0
 64 65  1  0
 66 60  1  0
 66 65  1  0
 69 68  1  0
 70 71  2  0
 71 90  1  0
 72 71  1  0
 72 75  1  0
 73 70  1  0
 73 74  1  0
 74 72  2  0
 75 76  1  0
 76 77  2  0
 78 77  1  0
 79 78  2  0
 80 79  1  0
 80 75  2  0
 81 78  1  0
 81 82  1  0
 82 87  2  0
 82 83  1  0
 83 84  2  0
 84 85  1  0
 85 89  1  0
 86 85  2  0
 87 86  1  0
 88 87  1  0
 90 91  1  0
 91 94  1  0
 91 93  1  0
 92 90  2  0
 95 96  1  0
 95 70  1  0
 97 95  1  0
M  ISO  4  12 101  13 101  60 100  68 100
M  END
>  <TORSDO>  (28) 
F 23

>  <SCORE>  (28) 
-7.572

>  <name>  (28) 
30

>  <ligand_id>  (28) 
30

>  <original_smiles>  (28) 
[H]Oc1c([H])c(C(=O)C([H])([H])C([H])([H])N([H])C(=O)N2C([H])([H])C([H])([H])C([H])([H])C([H])(n3nc(-c4c([H])c([H])c(Oc5c([H])c([H])c(F)c([H])c5F)c([H])c4[H])c(C(=O)N([H])[H])c3N([H])[H])C2([H])[H])c([H])c([H])c1C(=O)N([H])C([H])([H])C([H])([H])Oc1c([H])c([H])c2c(c1[H])C([H])([H])N(C(=O)C([H])(N([H])C(=O)C([H])(N([H])C([H])([H])[H])C([H])([H])[H])C(C([H])([H])[H])(C([H])([H])[H])C([H])([H])[H])C([H])(C(=O)N([H])C1([H])c3c([H])c([H])c([H])c([H])c3C([H])([H])C([H])([H])C1([H])[H])C2([H])[H]

>  <smiles>  (28) 
[H]Oc1c([H])c(C(=O)C([H])([H])C([H])([H])N([H])C(=O)N2C([H])([H])C([H])([H])C([H])([H])C([H])(n3nc(-c4c([H])c([H])c(Oc5c([H])c([H])c(F)c([H])c5F)c([H])c4[H])c(C(=O)N([H])[H])c3N([H])[H])C2([H])[H])c([H])c([H])c1C(=O)N([H])C([H])([H])C([H])([H])Oc1c([H])c([H])c2c(c1[H])C([H])([H])N(C(=O)C([H])(N([H])C(=O)C([H])(N([H])C([H])([H])[H])C([H])([H])[H])C(C([H])([H])[H])(C([H])([H])[H])C([H])([H])[H])C([H])(C(=O)N([H])C1([H])c3c([H])c([H])c([H])c([H])c3C([H])([H])C([H])([H])C1([H])[H])C2([H])[H]

$$$$
31:0:0
     RDKit          3D

101111  0  0  1  0  0  0  0  0999 V2000
  -27.5310  -25.7760   22.6550 C   0  0  0  0  0  3  0  0  0  0  0  0
  -29.0000  -24.8940   22.2390 C   0  0  0  0  0  3  0  0  0  0  0  0
  -26.3420  -24.9090   19.9940 C   0  0  1  0  0  0  0  0  0  0  0  0
  -26.1620  -25.7580   21.5420 C   0  0  0  0  0  3  0  0  0  0  0  0
  -29.1100  -23.9440   20.7660 C   0  0  0  0  0  3  0  0  0  0  0  0
  -27.8240  -24.0710   19.6180 C   0  0  2  0  0  0  0  0  0  0  0  0
  -24.8220  -25.6800   22.1400 C   0  0  0  0  0  0  0  0  0  0  0  0
  -24.5040  -24.4080   22.3240 N   0  0  0  0  0  0  0  0  0  0  0  0
  -24.0950  -26.6160   22.4040 O   0  0  0  0  0  0  0  0  0  0  0  0
  -23.5850  -24.1910   22.6780 H   0  0  0  0  0  0  0  0  0  0  0  0
  -25.3010  -23.3230   21.7340 C   0  0  0  0  0  2  0  0  0  0  0  0
  -26.7300  -23.6740   21.0610 C   0  0  0  0  0  3  0  0  0  0  0  0
  -27.5860  -26.0480   19.7440 O   0  0  0  0  0  0  0  0  0  0  0  0
  -24.6370  -31.9150   23.1740 C   0  0  0  0  0  0  0  0  0  0  0  0
  -26.9900  -27.4590   19.5290 C   0  0  0  0  0  0  0  0  0  0  0  0
  -23.3520  -30.6890   21.4570 C   0  0  0  0  0  3  0  0  0  0  0  0
  -24.7400  -29.3120   19.7570 C   0  0  0  0  0  0  0  0  0  0  0  0
  -25.9030  -30.9330   21.2250 C   0  0  0  0  0  2  0  0  0  0  0  0
  -25.9320  -29.6080   20.4320 C   0  0  0  0  0  0  0  0  0  0  0  0
  -27.0440  -28.6700   20.3610 C   0  0  0  0  0  3  0  0  0  0  0  0
  -25.9180  -27.5090   18.6130 C   0  0  0  0  0  3  0  0  0  0  0  0
  -24.7530  -28.2830   18.8100 C   0  0  0  0  0  3  0  0  0  0  0  0
  -23.5060  -30.1720   20.0000 C   0  0  0  0  0  2  0  0  0  0  0  0
  -24.6490  -31.2020   22.0030 N   0  0  0  0  0  0  0  0  0  0  0  0
  -23.5760  -32.1540   23.7750 O   0  0  0  0  0  0  0  0  0  0  0  0
  -22.6890  -29.6240   22.3690 C   0  0  0  0  0  0  0  0  0  0  0  0
  -21.3800  -29.3600   22.1930 N   0  0  0  0  0  0  0  0  0  0  0  0
  -23.3570  -29.0740   23.2460 O   0  0  0  0  0  0  0  0  0  0  0  0
  -20.8960  -29.8450   21.4480 H   0  0  0  0  0  0  0  0  0  0  0  0
  -18.0240  -28.0880   22.7480 C   0  0  0  0  0  0  0  0  0  0  0  0
  -20.5920  -28.3520   22.9160 C   0  0  0  0  0  3  0  0  0  0  0  0
  -20.6800  -26.9820   22.1980 C   0  0  0  0  0  2  0  0  0  0  0  0
  -19.5230  -26.7120   21.2350 C   0  0  0  0  0  2  0  0  0  0  0  0
  -18.1640  -26.8180   21.9310 C   0  0  0  0  0  2  0  0  0  0  0  0
  -19.1570  -28.8180   23.1940 C   0  0  0  0  0  0  0  0  0  0  0  0
  -18.9570  -30.0130   23.9180 C   0  0  0  0  0  3  0  0  0  0  0  0
  -17.6550  -30.4770   24.1970 C   0  0  0  0  0  3  0  0  0  0  0  0
  -16.5390  -29.7450   23.7530 C   0  0  0  0  0  3  0  0  0  0  0  0
  -16.7230  -28.5510   23.0370 C   0  0  0  0  0  3  0  0  0  0  0  0
  -25.9490  -32.4790   23.8020 C   0  0  0  0  0  3  0  0  0  0  0  0
  -26.4720  -31.6210   25.0210 C   0  0  1  0  0  0  0  0  0  0  0  0
  -25.3980  -31.3660   26.1060 C   0  0  0  0  0  1  0  0  0  0  0  0
  -27.0050  -30.2510   24.5410 C   0  0  0  0  0  1  0  0  0  0  0  0
  -27.6610  -32.3390   25.7000 C   0  0  0  0  0  1  0  0  0  0  0  0
  -25.6820  -33.8600   24.2260 N   0  0  0  0  0  0  0  0  0  0  0  0
  -25.9970  -34.9540   23.5140 C   0  0  0  0  0  0  0  0  0  0  0  0
  -26.6130  -34.9000   22.4450 O   0  0  0  0  0  0  0  0  0  0  0  0
  -25.1440  -33.9810   25.0720 H   0  0  0  0  0  0  0  0  0  0  0  0
  -24.2910  -36.8020   23.3630 C   0  0  0  0  0  1  0  0  0  0  0  0
  -25.5650  -36.3220   24.0790 C   0  0  0  0  0  3  0  0  0  0  0  0
  -27.7580  -37.1200   24.8460 C   0  0  0  0  0  1  0  0  0  0  0  0
  -26.6140  -37.3610   23.9700 N   0  0  0  0  0  0  0  0  0  0  0  0
  -26.2340  -38.2780   24.1850 H   0  0  0  0  0  0  0  0  0  0  0  0
  -28.2440  -24.3250   17.0950 C   0  0  0  0  0  1  0  0  0  0  0  0
  -28.0080  -23.3630   18.2760 C   0  0  0  0  0  2  0  0  0  0  0  0
  -29.7330  -22.3520   21.0160 C   0  0  0  0  0  3  0  0  0  0  0  0
  -30.0260  -21.1150   20.0430 N   0  0  0  0  0  4  0  0  0  0  0  0
  -29.5840  -21.3650   19.1750 H   0  0  0  0  0  0  0  0  0  0  0  0
  -31.0110  -21.1310   19.8260 H   0  0  0  0  0  0  0  0  0  0  0  0
  -29.5800  -19.5740   20.2950 C   0  0  0  0  0  3  0  0  0  0  0  0
  -30.5870  -18.1890   20.5060 C   0  0  0  0  0  3  0  0  0  0  0  0
  -30.8840  -15.3950   20.3710 C   0  0  0  0  0  0  0  0  0  0  0  0
  -30.7750  -13.0020   19.4690 C   0  0  0  0  0  2  0  0  0  0  0  0
  -29.8770  -12.9600   18.2100 C   0  0  0  0  0  2  0  0  0  0  0  0
  -28.3870  -12.8060   18.5660 C   0  0  0  0  0  2  0  0  0  0  0  0
  -27.9640  -13.6840   19.7720 C   0  0  0  0  0  3  0  0  0  0  0  0
  -29.0040  -13.6890   20.9150 C   0  0  0  0  0  2  0  0  0  0  0  0
  -30.2820  -14.1240   20.3350 N   0  0  0  0  0  0  0  0  0  0  0  0
  -32.0820  -15.4300   20.0620 O   0  0  0  0  0  0  0  0  0  0  0  0
  -30.1690  -16.6270   20.5710 N   0  0  0  0  0  0  0  0  0  0  0  0
  -29.2270  -16.4690   20.9050 H   0  0  0  0  0  0  0  0  0  0  0  0
  -25.5600  -14.2410   20.4430 C   0  0  0  0  0  0  0  0  0  0  0  0
  -24.4800  -13.4670   20.7680 C   0  0  0  0  0  0  0  0  0  0  0  0
  -24.9340  -12.1130   20.7220 C   0  0  0  0  0  0  0  0  0  0  0  0
  -26.6090  -13.3660   20.2210 N   0  0  0  0  0  0  0  0  0  0  0  0
  -26.2380  -12.0750   20.4480 N   0  0  0  0  0  0  0  0  0  0  0  0
  -24.1830  -10.8580   20.8750 C   0  0  0  0  0  0  0  0  0  0  0  0
  -24.5490   -9.8910   21.8360 C   0  0  0  0  0  3  0  0  0  0  0  0
  -23.7980   -8.7040   21.9800 C   0  0  0  0  0  3  0  0  0  0  0  0
  -22.6660   -8.4750   21.1650 C   0  0  0  0  0  0  0  0  0  0  0  0
  -22.3160   -9.4320   20.1980 C   0  0  0  0  0  3  0  0  0  0  0  0
  -23.0660  -10.6120   20.0500 C   0  0  0  0  0  3  0  0  0  0  0  0
  -21.8970   -7.3360   21.2080 O   0  0  0  0  0  0  0  0  0  0  0  0
  -21.7410   -6.6220   22.3680 C   0  0  0  0  0  0  0  0  0  0  0  0
  -21.2100   -7.2130   23.5360 C   0  0  0  0  0  3  0  0  0  0  0  0
  -20.9950   -6.4300   24.6880 C   0  0  0  0  0  3  0  0  0  0  0  0
  -21.3060   -5.0550   24.6740 C   0  0  0  0  0  0  0  0  0  0  0  0
  -21.8260   -4.4630   23.5100 C   0  0  0  0  0  3  0  0  0  0  0  0
  -22.0400   -5.2450   22.3610 C   0  0  0  0  0  0  0  0  0  0  0  0
  -22.5250   -4.6700   21.2340 F   0  0  0  0  0  0  0  0  0  0  0  0
  -21.0960   -4.2970   25.7760 F   0  0  0  0  0  0  0  0  0  0  0  0
  -23.0830  -13.9570   21.0180 C   0  0  0  0  0  0  0  0  0  0  0  0
  -22.3290  -13.2640   21.8640 N   0  0  0  0  0  0  0  0  0  0  0  0
  -22.6700  -14.9930   20.4970 O   0  0  0  0  0  0  0  0  0  0  0  0
  -22.6690  -12.4210   22.2990 H   0  0  0  0  0  0  0  0  0  0  0  0
  -21.4000  -13.5890   22.0840 H   0  0  0  0  0  0  0  0  0  0  0  0
  -25.7230  -15.6160   20.2920 N   0  0  0  0  0  0  0  0  0  0  0  0
  -24.9330  -16.2430   20.4120 H   0  0  0  0  0  0  0  0  0  0  0  0
  -26.5360  -16.0800   19.9030 H   0  0  0  0  0  0  0  0  0  0  0  0
  -30.1460  -21.8420   23.5740 C   0  0  0  0  0  1  0  0  0  0  0  0
  -30.7420  -22.2660   22.2050 C   0  0  0  0  0  2  0  0  0  0  0  0
  2  1  2  0
  3 13  1  1
  3 12  1  0
  3  4  1  0
  4  7  1  0
  4  1  1  0
  5 56  1  0
  5  2  1  0
  6 55  1  1
  6  3  1  0
  6  5  1  0
  6 12  1  0
  7  8  1  0
  7  9  2  0
  8 10  1  0
 11  8  1  0
 12 11  1  0
 14 25  2  0
 15 13  1  0
 15 20  1  0
 16 24  1  0
 16 26  1  0
 17 23  1  0
 17 19  1  0
 18 24  1  0
 19 18  1  0
 20 19  2  0
 21 22  1  0
 21 15  2  0
 22 17  2  0
 23 16  1  0
 24 14  1  0
 26 28  2  0
 27 26  1  0
 29 27  1  0
 30 39  2  0
 30 35  1  0
 31 27  1  0
 31 35  1  0
 32 31  1  0
 33 34  1  0
 33 32  1  0
 34 30  1  0
 35 36  2  0
 36 37  1  0
 38 37  2  0
 39 38  1  0
 40 14  1  0
 40 45  1  0
 40 41  1  0
 41 44  1  1
 41 42  1  0
 43 41  1  0
 45 48  1  0
 46 50  1  0
 46 45  1  0
 47 46  2  0
 50 49  1  0
 52 50  1  0
 52 53  1  0
 52 51  1  0
 54 55  1  0
 56101  1  0
 57 60  1  0
 57 56  1  0
 58 57  1  0
 59 57  1  0
 60 61  2  0
 61 70  1  0
 62 70  1  0
 63 68  1  0
 64 65  1  0
 64 63  1  0
 66 65  1  0
 66 75  1  0
 66 67  1  0
 68 62  1  0
 68 67  1  0
 69 62  2  0
 70 71  1  0
 72 73  2  0
 73 92  1  0
 74 73  1  0
 74 77  1  0
 75 72  1  0
 75 76  1  0
 76 74  2  0
 77 78  1  0
 78 79  2  0
 80 83  1  0
 80 79  1  0
 81 80  2  0
 82 81  1  0
 82 77  2  0
 83 84  1  0
 84 85  1  0
 85 86  2  0
 87 86  1  0
 87 91  1  0
 88 87  2  0
 89 84  2  0
 89 88  1  0
 90 89  1  0
 92 93  1  0
 93 96  1  0
 93 95  1  0
 94 92  2  0
 97 98  1  0
 97 72  1  0
 99 97  1  0
101100  1  0
M  ISO  4  12 101  13 101  62 100  70 100
M  END
>  <TORSDO>  (29) 
F 25

>  <SCORE>  (29) 
-14.456

>  <name>  (29) 
31

>  <ligand_id>  (29) 
31

>  <original_smiles>  (29) 
[H]c1c([H])c([H])c2c(c1[H])C([H])([H])C([H])([H])C([H])([H])C2([H])N([H])C(=O)C1([H])N(C(=O)C([H])(N([H])C(=O)C([H])(N([H])C([H])([H])[H])C([H])([H])[H])C(C([H])([H])[H])(C([H])([H])[H])C([H])([H])[H])C([H])([H])c2c([H])c(OC([H])([H])C([H])([H])N([H])C(=O)c3c([H])c([H])c(C([H])(C([H])([H])C([H])([H])[H])[N+]([H])([H])C([H])([H])C([H])([H])N([H])C(=O)N4C([H])([H])C([H])([H])C([H])([H])C([H])(n5nc(-c6c([H])c([H])c(Oc7c([H])c([H])c(F)c([H])c7F)c([H])c6[H])c(C(=O)N([H])[H])c5N([H])[H])C4([H])[H])c(C([H])([H])C([H])([H])[H])c3[H])c([H])c([H])c2C1([H])[H]

>  <smiles>  (29) 
[H]c1c([H])c([H])c2c(c1[H])C([H])([H])C([H])([H])C([H])([H])C2([H])N([H])C(=O)C1([H])N(C(=O)C([H])(N([H])C(=O)C([H])(N([H])C([H])([H])[H])C([H])([H])[H])C(C([H])([H])[H])(C([H])([H])[H])C([H])([H])[H])C([H])([H])c2c([H])c(OC([H])([H])C([H])([H])N([H])C(=O)c3c([H])c([H])c(C([H])(C([H])([H])C([H])([H])[H])[N+]([H])([H])C([H])([H])C([H])([H])N([H])C(=O)N4C([H])([H])C([H])([H])C([H])([H])C([H])(n5nc(-c6c([H])c([H])c(Oc7c([H])c([H])c(F)c([H])c7F)c([H])c6[H])c(C(=O)N([H])[H])c5N([H])[H])C4([H])[H])c(C([H])([H])C([H])([H])[H])c3[H])c([H])c([H])c2C1([H])[H]

$$$$
32:0:0
     RDKit          3D

102110  0  0  1  0  0  0  0  0999 V2000
  -28.1210  -20.2610   25.6300 C   0  0  0  0  0  3  0  0  0  0  0  0
  -26.9220  -20.5460   26.3090 C   0  0  0  0  0  3  0  0  0  0  0  0
  -27.8170  -22.2370   24.2570 C   0  0  0  0  0  3  0  0  0  0  0  0
  -28.5750  -21.0900   24.5830 C   0  0  0  0  0  0  0  0  0  0  0  0
  -26.1450  -21.6680   25.9520 C   0  0  0  0  0  0  0  0  0  0  0  0
  -26.6000  -22.5290   24.9210 C   0  0  0  0  0  0  0  0  0  0  0  0
  -24.8390  -21.9180   26.6960 C   0  0  0  0  0  1  0  0  0  0  0  0
  -29.8700  -20.7720   23.8800 C   0  0  0  0  0  0  0  0  0  0  0  0
  -29.8350  -20.7470   22.5400 N   0  0  0  0  0  0  0  0  0  0  0  0
  -30.8830  -20.4950   24.5260 O   0  0  0  0  0  0  0  0  0  0  0  0
  -28.9510  -20.9710   22.1050 H   0  0  0  0  0  0  0  0  0  0  0  0
  -30.9570  -20.4620   21.6440 C   0  0  0  0  0  2  0  0  0  0  0  0
  -31.5670  -19.0530   21.8390 C   0  0  0  0  0  2  0  0  0  0  0  0
  -30.7040  -17.8730   21.3440 C   0  0  0  0  0  2  0  0  0  0  0  0
  -31.5280  -16.5930   21.0860 C   0  0  0  0  0  2  0  0  0  0  0  0
  -30.8270  -14.6450   19.6550 C   0  0  0  0  0  0  0  0  0  0  0  0
  -30.6640  -12.2260   19.1910 C   0  0  0  0  0  2  0  0  0  0  0  0
  -29.7010  -11.8080   18.0740 C   0  0  0  0  0  2  0  0  0  0  0  0
  -28.2940  -11.6180   18.6580 C   0  0  0  0  0  2  0  0  0  0  0  0
  -27.8150  -12.8730   19.4270 C   0  0  0  0  0  3  0  0  0  0  0  0
  -28.8660  -13.3030   20.4740 C   0  0  0  0  0  2  0  0  0  0  0  0
  -30.1820  -13.4630   19.8200 N   0  0  0  0  0  0  0  0  0  0  0  0
  -31.6530  -14.8580   18.7600 O   0  0  0  0  0  0  0  0  0  0  0  0
  -30.6850  -15.4550   20.7120 N   0  0  0  0  0  0  0  0  0  0  0  0
  -30.0470  -15.1140   21.4160 H   0  0  0  0  0  0  0  0  0  0  0  0
  -25.5810  -13.5750   20.5000 C   0  0  0  0  0  0  0  0  0  0  0  0
  -24.4940  -12.8510   20.9070 C   0  0  0  0  0  0  0  0  0  0  0  0
  -24.8180  -11.4800   20.6570 C   0  0  0  0  0  0  0  0  0  0  0  0
  -26.5060  -12.6520   20.0380 N   0  0  0  0  0  0  0  0  0  0  0  0
  -26.0550  -11.3790   20.1880 N   0  0  0  0  0  0  0  0  0  0  0  0
  -24.0040  -10.2640   20.7830 C   0  0  0  0  0  0  0  0  0  0  0  0
  -24.1700   -9.3690   21.8620 C   0  0  0  0  0  3  0  0  0  0  0  0
  -23.3630   -8.2190   21.9720 C   0  0  0  0  0  3  0  0  0  0  0  0
  -22.3750   -7.9510   20.9950 C   0  0  0  0  0  0  0  0  0  0  0  0
  -22.2260   -8.8330   19.9090 C   0  0  0  0  0  3  0  0  0  0  0  0
  -23.0360   -9.9780   19.7990 C   0  0  0  0  0  3  0  0  0  0  0  0
  -21.5630   -6.8470   21.0030 O   0  0  0  0  0  0  0  0  0  0  0  0
  -21.0270   -6.3560   22.1660 C   0  0  0  0  0  0  0  0  0  0  0  0
  -20.1100   -7.1050   22.9370 C   0  0  0  0  0  3  0  0  0  0  0  0
  -19.5300   -6.5360   24.0900 C   0  0  0  0  0  3  0  0  0  0  0  0
  -19.8590   -5.2200   24.4690 C   0  0  0  0  0  0  0  0  0  0  0  0
  -20.7650   -4.4710   23.6970 C   0  0  0  0  0  3  0  0  0  0  0  0
  -21.3450   -5.0370   22.5480 C   0  0  0  0  0  0  0  0  0  0  0  0
  -22.2020   -4.3050   21.7980 F   0  0  0  0  0  0  0  0  0  0  0  0
  -19.2960   -4.6710   25.5700 F   0  0  0  0  0  0  0  0  0  0  0  0
  -23.1840  -13.3980   21.4050 C   0  0  0  0  0  0  0  0  0  0  0  0
  -22.5520  -12.7110   22.3470 N   0  0  0  0  0  0  0  0  0  0  0  0
  -22.7380  -14.4680   20.9910 O   0  0  0  0  0  0  0  0  0  0  0  0
  -22.9230  -11.8410   22.7050 H   0  0  0  0  0  0  0  0  0  0  0  0
  -21.6800  -13.0640   22.7210 H   0  0  0  0  0  0  0  0  0  0  0  0
  -25.8630  -14.9420   20.4600 N   0  0  0  0  0  0  0  0  0  0  0  0
  -25.2040  -15.6590   20.7400 H   0  0  0  0  0  0  0  0  0  0  0  0
  -26.7340  -15.3140   20.1020 H   0  0  0  0  0  0  0  0  0  0  0  0
  -25.8400  -23.7900   24.5220 C   0  0  0  0  0  2  0  0  0  0  0  0
  -25.3970  -23.7740   23.0480 C   0  0  0  0  0  2  0  0  0  0  0  0
  -25.3010  -25.1680   22.4430 C   0  0  0  0  0  0  0  0  0  0  0  0
  -25.5890  -25.2470   21.1400 N   0  0  0  0  0  0  0  0  0  0  0  0
  -24.9360  -26.1270   23.1280 O   0  0  0  0  0  0  0  0  0  0  0  0
  -25.8950  -24.4030   20.6820 H   0  0  0  0  0  0  0  0  0  0  0  0
  -25.2980  -26.3820   20.2850 C   0  0  0  0  0  2  0  0  0  0  0  0
  -26.3730  -26.5930   19.1850 C   0  0  0  0  0  2  0  0  0  0  0  0
  -26.3470  -27.8550   18.4850 O   0  0  0  0  0  0  0  0  0  0  0  0
  -25.3930  -31.9330   24.2450 C   0  0  0  0  0  0  0  0  0  0  0  0
  -25.5940  -28.8140   19.1120 C   0  0  0  0  0  0  0  0  0  0  0  0
  -23.4320  -31.6250   22.7710 C   0  0  0  0  0  3  0  0  0  0  0  0
  -23.9150  -30.6040   20.4840 C   0  0  0  0  0  0  0  0  0  0  0  0
  -25.8090  -31.5220   21.8250 C   0  0  0  0  0  2  0  0  0  0  0  0
  -25.2860  -30.5710   20.7690 C   0  0  0  0  0  0  0  0  0  0  0  0
  -26.1370  -29.6690   20.0950 C   0  0  0  0  0  3  0  0  0  0  0  0
  -24.2350  -28.9340   18.7660 C   0  0  0  0  0  3  0  0  0  0  0  0
  -23.3800  -29.7900   19.4770 C   0  0  0  0  0  3  0  0  0  0  0  0
  -23.0650  -31.5790   21.2640 C   0  0  0  0  0  2  0  0  0  0  0  0
  -24.9130  -31.6740   22.9950 N   0  0  0  0  0  0  0  0  0  0  0  0
  -24.6200  -32.1600   25.1880 O   0  0  0  0  0  0  0  0  0  0  0  0
  -22.7410  -30.4410   23.4860 C   0  0  0  0  0  0  0  0  0  0  0  0
  -21.4220  -30.3010   23.2770 N   0  0  0  0  0  0  0  0  0  0  0  0
  -23.3950  -29.6640   24.1850 O   0  0  0  0  0  0  0  0  0  0  0  0
  -20.9590  -31.0010   22.7120 H   0  0  0  0  0  0  0  0  0  0  0  0
  -18.1340  -28.8200   23.0730 C   0  0  0  0  0  0  0  0  0  0  0  0
  -20.5740  -29.2420   23.8200 C   0  0  0  0  0  3  0  0  0  0  0  0
  -20.9020  -27.8730   23.1760 C   0  0  0  0  0  2  0  0  0  0  0  0
  -20.0250  -27.5530   21.9620 C   0  0  0  0  0  2  0  0  0  0  0  0
  -18.5460  -27.5470   22.3540 C   0  0  0  0  0  2  0  0  0  0  0  0
  -19.0880  -29.6230   23.7520 C   0  0  0  0  0  0  0  0  0  0  0  0
  -18.6620  -30.8180   24.3730 C   0  0  0  0  0  3  0  0  0  0  0  0
  -17.3110  -31.2060   24.3300 C   0  0  0  0  0  3  0  0  0  0  0  0
  -16.3660  -30.3950   23.6760 C   0  0  0  0  0  3  0  0  0  0  0  0
  -16.7790  -29.2060   23.0500 C   0  0  0  0  0  3  0  0  0  0  0  0
  -26.9260  -31.9790   24.5400 C   0  0  0  0  0  3  0  0  0  0  0  0
  -27.4180  -30.7970   25.4560 C   0  0  1  0  0  0  0  0  0  0  0  0
  -26.5670  -30.6020   26.7320 C   0  0  0  0  0  1  0  0  0  0  0  0
  -27.4020  -29.4600   24.6810 C   0  0  0  0  0  1  0  0  0  0  0  0
  -28.8830  -31.0400   25.8850 C   0  0  0  0  0  1  0  0  0  0  0  0
  -27.2210  -33.2760   25.1640 N   0  0  0  0  0  0  0  0  0  0  0  0
  -27.6850  -34.3440   24.5050 C   0  0  0  0  0  0  0  0  0  0  0  0
  -27.9780  -34.3140   23.3050 O   0  0  0  0  0  0  0  0  0  0  0  0
  -26.9610  -33.3860   26.1320 H   0  0  0  0  0  0  0  0  0  0  0  0
  -26.6530  -36.5810   25.0020 C   0  0  0  0  0  1  0  0  0  0  0  0
  -27.8430  -35.6540   25.3010 C   0  0  0  0  0  3  0  0  0  0  0  0
  -30.2840  -35.6650   25.5540 C   0  0  0  0  0  1  0  0  0  0  0  0
  -29.1140  -36.3620   25.0270 N   0  0  0  0  0  0  0  0  0  0  0  0
  -29.0990  -37.3010   25.4200 H   0  0  0  0  0  0  0  0  0  0  0  0
  1  2  1  0
  3  4  1  0
  3  6  2  0
  4  1  2  0
  5  2  2  0
  5  7  1  0
  6  5  1  0
  8 10  2  0
  8  4  1  0
  9  8  1  0
 11  9  1  0
 12 13  1  0
 12  9  1  0
 14 13  1  0
 15 14  1  0
 16 22  1  0
 16 24  1  0
 17 22  1  0
 18 19  1  0
 18 17  1  0
 20 19  1  0
 20 29  1  0
 20 21  1  0
 22 21  1  0
 23 16  2  0
 24 15  1  0
 24 25  1  0
 26 27  2  0
 27 46  1  0
 28 31  1  0
 28 27  1  0
 29 30  1  0
 29 26  1  0
 30 28  2  0
 31 32  1  0
 32 33  2  0
 34 37  1  0
 34 33  1  0
 35 34  2  0
 36 35  1  0
 36 31  2  0
 37 38  1  0
 38 43  2  0
 38 39  1  0
 39 40  2  0
 40 41  1  0
 41 45  1  0
 42 41  2  0
 43 42  1  0
 44 43  1  0
 46 47  1  0
 47 49  1  0
 47 50  1  0
 48 46  2  0
 51 26  1  0
 51 52  1  0
 53 51  1  0
 54  6  1  0
 55 54  1  0
 56 55  1  0
 56 58  2  0
 57 56  1  0
 59 57  1  0
 60 57  1  0
 61 60  1  0
 62 64  1  0
 62 61  1  0
 63 74  2  0
 64 69  1  0
 65 73  1  0
 65 75  1  0
 66 68  1  0
 66 72  1  0
 67 73  1  0
 68 67  1  0
 69 68  2  0
 70 64  2  0
 70 71  1  0
 71 66  2  0
 72 65  1  0
 73 63  1  0
 75 77  2  0
 76 75  1  0
 78 76  1  0
 79 84  1  0
 80 76  1  0
 81 80  1  0
 82 83  1  0
 82 81  1  0
 83 79  1  0
 84 80  1  0
 84 85  2  0
 86 85  1  0
 87 86  2  0
 88 79  2  0
 88 87  1  0
 89 63  1  0
 89 94  1  0
 89 90  1  0
 90 93  1  1
 90 91  1  0
 92 90  1  0
 94 97  1  0
 95 94  1  0
 95 99  1  0
 96 95  2  0
 99 98  1  0
101 99  1  0
101102  1  0
101100  1  0
M  ISO  4  16 100  24 100  61 101  62 101
M  END
>  <TORSDO>  (30) 
F 26

>  <SCORE>  (30) 
34.972

>  <name>  (30) 
32

>  <ligand_id>  (30) 
32

>  <original_smiles>  (30) 
[H]c1c([H])c([H])c2c(c1[H])C([H])([H])C([H])([H])C([H])([H])C2([H])N([H])C(=O)C1([H])N(C(=O)C([H])(N([H])C(=O)C([H])(N([H])C([H])([H])[H])C([H])([H])[H])C(C([H])([H])[H])(C([H])([H])[H])C([H])([H])[H])C([H])([H])c2c([H])c(OC([H])([H])C([H])([H])N([H])C(=O)C([H])([H])C([H])([H])c3c([H])c(C(=O)N([H])C([H])([H])C([H])([H])C([H])([H])C([H])([H])N([H])C(=O)N4C([H])([H])C([H])([H])C([H])([H])C([H])(n5nc(-c6c([H])c([H])c(Oc7c([H])c([H])c(F)c([H])c7F)c([H])c6[H])c(C(=O)N([H])[H])c5N([H])[H])C4([H])[H])c([H])c([H])c3C([H])([H])[H])c([H])c([H])c2C1([H])[H]

>  <smiles>  (30) 
[H]c1c([H])c([H])c2c(c1[H])C([H])([H])C([H])([H])C([H])([H])C2([H])N([H])C(=O)C1([H])N(C(=O)C([H])(N([H])C(=O)C([H])(N([H])C([H])([H])[H])C([H])([H])[H])C(C([H])([H])[H])(C([H])([H])[H])C([H])([H])[H])C([H])([H])c2c([H])c(OC([H])([H])C([H])([H])N([H])C(=O)C([H])([H])C([H])([H])c3c([H])c(C(=O)N([H])C([H])([H])C([H])([H])C([H])([H])C([H])([H])N([H])C(=O)N4C([H])([H])C([H])([H])C([H])([H])C([H])(n5nc(-c6c([H])c([H])c(Oc7c([H])c([H])c(F)c([H])c7F)c([H])c6[H])c(C(=O)N([H])[H])c5N([H])[H])C4([H])[H])c([H])c([H])c3C([H])([H])[H])c([H])c([H])c2C1([H])[H]

$$$$
33:0:0
     RDKit          3D

 99107  0  0  1  0  0  0  0  0999 V2000
  -32.5670  -21.9350   24.8490 C   0  0  0  0  0  1  0  0  0  0  0  0
  -32.3400  -21.2750   23.4770 C   0  0  0  0  0  3  0  0  0  0  0  0
  -29.7930  -17.7450   23.5230 C   0  0  0  0  0  3  0  0  0  0  0  0
  -31.4010  -19.1830   22.3840 C   0  0  0  0  0  3  0  0  0  0  0  0
  -30.6570  -19.7280   24.6430 C   0  0  0  0  0  3  0  0  0  0  0  0
  -30.5850  -18.0270   22.3870 C   0  0  0  0  0  0  0  0  0  0  0  0
  -29.8390  -18.5830   24.6540 C   0  0  0  0  0  0  0  0  0  0  0  0
  -31.4470  -20.0360   23.5120 C   0  0  0  0  0  0  0  0  0  0  0  0
  -29.0200  -18.2520   25.8860 C   0  0  0  0  0  1  0  0  0  0  0  0
  -30.4930  -17.1190   21.2120 C   0  0  0  0  0  0  0  0  0  0  0  0
  -29.4850  -17.0570   20.4970 O   0  0  0  0  0  0  0  0  0  0  0  0
  -31.6660  -16.1670   20.9410 C   0  0  0  0  0  2  0  0  0  0  0  0
  -31.4730  -13.9810   19.7200 C   0  0  0  0  0  0  0  0  0  0  0  0
  -30.8360  -11.9000   18.5500 C   0  0  0  0  0  2  0  0  0  0  0  0
  -29.7960  -12.1790   17.4460 C   0  0  0  0  0  2  0  0  0  0  0  0
  -28.3630  -12.1980   18.0150 C   0  0  0  0  0  2  0  0  0  0  0  0
  -28.2380  -13.0820   19.2830 C   0  0  0  0  0  3  0  0  0  0  0  0
  -29.3560  -12.7330   20.2880 C   0  0  0  0  0  2  0  0  0  0  0  0
  -30.6600  -12.8980   19.6120 N   0  0  0  0  0  0  0  0  0  0  0  0
  -32.4460  -14.1870   18.9850 O   0  0  0  0  0  0  0  0  0  0  0  0
  -31.1390  -14.8220   20.6990 N   0  0  0  0  0  0  0  0  0  0  0  0
  -30.3280  -14.5700   21.2440 H   0  0  0  0  0  0  0  0  0  0  0  0
  -26.0140  -13.9590   20.2510 C   0  0  0  0  0  0  0  0  0  0  0  0
  -24.8920  -13.3120   20.6980 C   0  0  0  0  0  0  0  0  0  0  0  0
  -25.1710  -11.9160   20.5790 C   0  0  0  0  0  0  0  0  0  0  0  0
  -26.9100  -12.9640   19.8890 N   0  0  0  0  0  0  0  0  0  0  0  0
  -26.4090  -11.7290   20.1420 N   0  0  0  0  0  0  0  0  0  0  0  0
  -24.3100  -10.7480   20.8080 C   0  0  0  0  0  0  0  0  0  0  0  0
  -24.7020   -9.7000   21.6710 C   0  0  0  0  0  3  0  0  0  0  0  0
  -23.8510   -8.5960   21.8880 C   0  0  0  0  0  3  0  0  0  0  0  0
  -22.5910   -8.5330   21.2440 C   0  0  0  0  0  0  0  0  0  0  0  0
  -22.2170   -9.5660   20.3670 C   0  0  0  0  0  3  0  0  0  0  0  0
  -23.0690  -10.6620   20.1480 C   0  0  0  0  0  3  0  0  0  0  0  0
  -21.7090   -7.4880   21.3770 O   0  0  0  0  0  0  0  0  0  0  0  0
  -21.6150   -6.7660   22.5400 C   0  0  0  0  0  0  0  0  0  0  0  0
  -21.3130   -7.3800   23.7760 C   0  0  0  0  0  3  0  0  0  0  0  0
  -21.1560   -6.5920   24.9330 C   0  0  0  0  0  3  0  0  0  0  0  0
  -21.2920   -5.1930   24.8570 C   0  0  0  0  0  0  0  0  0  0  0  0
  -21.5900   -4.5800   23.6270 C   0  0  0  0  0  3  0  0  0  0  0  0
  -21.7470   -5.3650   22.4720 C   0  0  0  0  0  0  0  0  0  0  0  0
  -22.0100   -4.7680   21.2850 F   0  0  0  0  0  0  0  0  0  0  0  0
  -21.1340   -4.4350   25.9670 F   0  0  0  0  0  0  0  0  0  0  0  0
  -23.6050  -13.9510   21.1330 C   0  0  0  0  0  0  0  0  0  0  0  0
  -22.8960  -13.3270   22.0700 N   0  0  0  0  0  0  0  0  0  0  0  0
  -23.2420  -15.0330   20.6740 O   0  0  0  0  0  0  0  0  0  0  0  0
  -23.2040  -12.4530   22.4660 H   0  0  0  0  0  0  0  0  0  0  0  0
  -22.0350  -13.7350   22.4040 H   0  0  0  0  0  0  0  0  0  0  0  0
  -26.3420  -15.3020   20.1150 N   0  0  0  0  0  0  0  0  0  0  0  0
  -25.7150  -16.0440   20.4050 H   0  0  0  0  0  0  0  0  0  0  0  0
  -27.2770  -15.6280   19.9030 H   0  0  0  0  0  0  0  0  0  0  0  0
  -32.2880  -22.4440   21.2370 C   0  0  0  0  0  3  0  0  0  0  0  0
  -31.8240  -22.3060   22.4950 C   0  0  0  0  0  3  0  0  0  0  0  0
  -31.8100  -23.4440   20.2970 C   0  0  0  0  0  0  0  0  0  0  0  0
  -30.6710  -24.0530   20.6600 N   0  0  0  0  0  0  0  0  0  0  0  0
  -32.3970  -23.7340   19.2540 O   0  0  0  0  0  0  0  0  0  0  0  0
  -30.2300  -23.7690   21.5230 H   0  0  0  0  0  0  0  0  0  0  0  0
  -30.0990  -25.1850   19.9470 C   0  0  0  0  0  2  0  0  0  0  0  0
  -28.7250  -25.6050   20.4990 C   0  0  0  0  0  2  0  0  0  0  0  0
  -28.5600  -26.9520   20.0880 O   0  0  0  0  0  0  0  0  0  0  0  0
  -24.4830  -31.8520   23.1960 C   0  0  0  0  0  0  0  0  0  0  0  0
  -27.3140  -27.5210   20.1630 C   0  0  0  0  0  0  0  0  0  0  0  0
  -23.3320  -30.4040   21.5460 C   0  0  0  0  0  3  0  0  0  0  0  0
  -24.8490  -28.8950   20.1560 C   0  0  0  0  0  0  0  0  0  0  0  0
  -25.8400  -30.8520   21.3630 C   0  0  0  0  0  2  0  0  0  0  0  0
  -25.9770  -29.4780   20.7450 C   0  0  0  0  0  0  0  0  0  0  0  0
  -27.2110  -28.8010   20.7430 C   0  0  0  0  0  3  0  0  0  0  0  0
  -26.1700  -26.9260   19.5890 C   0  0  0  0  0  3  0  0  0  0  0  0
  -24.9380  -27.6120   19.5810 C   0  0  0  0  0  3  0  0  0  0  0  0
  -23.5760  -29.7130   20.1750 C   0  0  0  0  0  2  0  0  0  0  0  0
  -24.5690  -31.0510   22.0950 N   0  0  0  0  0  0  0  0  0  0  0  0
  -23.3920  -32.0910   23.7280 O   0  0  0  0  0  0  0  0  0  0  0  0
  -22.7080  -29.3700   22.5080 C   0  0  0  0  0  0  0  0  0  0  0  0
  -21.3870  -29.1670   22.3890 N   0  0  0  0  0  0  0  0  0  0  0  0
  -23.4090  -28.7500   23.3140 O   0  0  0  0  0  0  0  0  0  0  0  0
  -20.8840  -29.7250   21.7130 H   0  0  0  0  0  0  0  0  0  0  0  0
  -18.0370  -27.9200   22.8960 C   0  0  0  0  0  0  0  0  0  0  0  0
  -20.5910  -28.2110   23.1560 C   0  0  0  0  0  3  0  0  0  0  0  0
  -20.7090  -26.7860   22.5670 C   0  0  0  0  0  2  0  0  0  0  0  0
  -19.6050  -26.4560   21.5570 C   0  0  0  0  0  2  0  0  0  0  0  0
  -18.2260  -26.5770   22.2110 C   0  0  0  0  0  2  0  0  0  0  0  0
  -19.1480  -28.6930   23.3250 C   0  0  0  0  0  0  0  0  0  0  0  0
  -18.9170  -29.9500   23.9260 C   0  0  0  0  0  3  0  0  0  0  0  0
  -17.6070  -30.4350   24.1030 C   0  0  0  0  0  3  0  0  0  0  0  0
  -16.5110  -29.6600   23.6890 C   0  0  0  0  0  3  0  0  0  0  0  0
  -16.7260  -28.4030   23.0920 C   0  0  0  0  0  3  0  0  0  0  0  0
  -25.7470  -32.5200   23.8240 C   0  0  0  0  0  3  0  0  0  0  0  0
  -25.3950  -33.9070   24.1500 N   0  0  0  0  0  0  0  0  0  0  0  0
  -25.7080  -34.9690   23.3960 C   0  0  0  0  0  0  0  0  0  0  0  0
  -26.3990  -34.8880   22.3760 O   0  0  0  0  0  0  0  0  0  0  0  0
  -24.7820  -34.0440   24.9410 H   0  0  0  0  0  0  0  0  0  0  0  0
  -23.9370  -36.7140   23.0080 C   0  0  0  0  0  1  0  0  0  0  0  0
  -25.1710  -36.3410   23.8450 C   0  0  0  0  0  3  0  0  0  0  0  0
  -27.2570  -37.2890   24.7280 C   0  0  0  0  0  1  0  0  0  0  0  0
  -26.1740  -37.4240   23.7570 N   0  0  0  0  0  0  0  0  0  0  0  0
  -25.7370  -38.3310   23.8930 H   0  0  0  0  0  0  0  0  0  0  0  0
  -26.2830  -31.7630   25.1010 C   0  0  1  0  0  0  0  0  0  0  0  0
  -25.1970  -31.5050   26.1710 C   0  0  0  0  0  1  0  0  0  0  0  0
  -26.9010  -30.4000   24.7110 C   0  0  0  0  0  1  0  0  0  0  0  0
  -27.4110  -32.5900   25.7660 C   0  0  0  0  0  1  0  0  0  0  0  0
  2  8  1  0
  2  1  1  0
  3  7  1  0
  4  6  1  0
  4  8  2  0
  5  7  2  0
  6  3  2  0
  7  9  1  0
  8  5  1  0
 10  6  1  0
 11 10  2  0
 12 10  1  0
 13 21  1  0
 14 19  1  0
 15 16  1  0
 15 14  1  0
 17 16  1  0
 17 26  1  0
 17 18  1  0
 19 13  1  0
 19 18  1  0
 20 13  2  0
 21 12  1  0
 21 22  1  0
 23 24  2  0
 24 43  1  0
 25 24  1  0
 25 28  1  0
 26 27  1  0
 26 23  1  0
 27 25  2  0
 28 29  1  0
 29 30  2  0
 31 34  1  0
 31 30  1  0
 32 31  2  0
 33 32  1  0
 33 28  2  0
 34 35  1  0
 35 36  1  0
 36 37  2  0
 38 37  1  0
 38 42  1  0
 39 38  2  0
 40 35  2  0
 40 39  1  0
 41 40  1  0
 43 44  1  0
 44 47  1  0
 44 46  1  0
 45 43  2  0
 48 23  1  0
 48 49  1  0
 50 48  1  0
 51 52  2  0
 52  2  1  0
 53 54  1  0
 53 51  1  0
 54 56  1  0
 55 53  2  0
 57 58  1  0
 57 54  1  0
 59 61  1  0
 59 58  1  0
 60 71  2  0
 61 66  1  0
 62 70  1  0
 62 72  1  0
 63 69  1  0
 63 65  1  0
 64 70  1  0
 65 64  1  0
 66 65  2  0
 67 61  2  0
 68 67  1  0
 68 63  2  0
 69 62  1  0
 70 60  1  0
 72 74  2  0
 73 72  1  0
 75 73  1  0
 76 85  2  0
 76 81  1  0
 77 73  1  0
 77 81  1  0
 78 77  1  0
 79 80  1  0
 79 78  1  0
 80 76  1  0
 81 82  2  0
 82 83  1  0
 84 83  2  0
 85 84  1  0
 86 60  1  0
 86 87  1  0
 86 96  1  0
 87 90  1  0
 88 92  1  0
 88 87  1  0
 89 88  2  0
 92 91  1  0
 94 92  1  0
 94 95  1  0
 94 93  1  0
 96 99  1  1
 96 97  1  0
 98 96  1  0
M  ISO  4  13 100  21 100  58 101  59 101
M  END
>  <TORSDO>  (31) 
F 23

>  <SCORE>  (31) 
-4.601

>  <name>  (31) 
33

>  <ligand_id>  (31) 
33

>  <original_smiles>  (31) 
[H]C(C(=O)N([H])C([H])([H])C([H])([H])Oc1c([H])c([H])c2c(c1[H])C([H])([H])N(C(=O)C([H])(N([H])C(=O)C([H])(N([H])C([H])([H])[H])C([H])([H])[H])C(C([H])([H])[H])(C([H])([H])[H])C([H])([H])[H])C([H])(C(=O)N([H])C1([H])c3c([H])c([H])c([H])c([H])c3C([H])([H])C([H])([H])C1([H])[H])C2([H])[H])=C([H])C([H])(c1c([H])c(C(=O)C([H])([H])N([H])C(=O)N2C([H])([H])C([H])([H])C([H])([H])C([H])(n3nc(-c4c([H])c([H])c(Oc5c([H])c([H])c(F)c([H])c5F)c([H])c4[H])c(C(=O)N([H])[H])c3N([H])[H])C2([H])[H])c([H])c(C([H])([H])[H])c1[H])C([H])([H])[H]

>  <smiles>  (31) 
[H]C(C(=O)N([H])C([H])([H])C([H])([H])Oc1c([H])c([H])c2c(c1[H])C([H])([H])N(C(=O)C([H])(N([H])C(=O)C([H])(N([H])C([H])([H])[H])C([H])([H])[H])C(C([H])([H])[H])(C([H])([H])[H])C([H])([H])[H])C([H])(C(=O)N([H])C1([H])c3c([H])c([H])c([H])c([H])c3C([H])([H])C([H])([H])C1([H])[H])C2([H])[H])=C([H])C([H])(c1c([H])c(C(=O)C([H])([H])N([H])C(=O)N2C([H])([H])C([H])([H])C([H])([H])C([H])(n3nc(-c4c([H])c([H])c(Oc5c([H])c([H])c(F)c([H])c5F)c([H])c4[H])c(C(=O)N([H])[H])c3N([H])[H])C2([H])[H])c([H])c(C([H])([H])[H])c1[H])C([H])([H])[H]

$$$$
34:0:0
     RDKit          3D

 99107  0  0  1  0  0  0  0  0999 V2000
  -31.5870  -21.7590   21.1680 C   0  0  0  0  0  3  0  0  0  0  0  0
  -31.9020  -20.6460   21.9720 C   0  0  0  0  0  3  0  0  0  0  0  0
  -29.9480  -19.4970   21.1080 C   0  0  0  0  0  3  0  0  0  0  0  0
  -30.4830  -21.7320   20.2810 C   0  0  0  0  0  0  0  0  0  0  0  0
  -29.6950  -20.5460   20.2030 C   0  0  0  0  0  0  0  0  0  0  0  0
  -31.0720  -19.5130   21.9500 C   0  0  0  0  0  0  0  0  0  0  0  0
  -30.2460  -22.9310   19.4040 C   0  0  0  0  0  0  0  0  0  0  0  0
  -30.2950  -24.1070   20.0380 N   0  0  0  0  0  0  0  0  0  0  0  0
  -30.0550  -22.8250   18.1900 O   0  0  0  0  0  0  0  0  0  0  0  0
  -30.4010  -24.0940   21.0460 H   0  0  0  0  0  0  0  0  0  0  0  0
  -30.3130  -25.4050   19.3770 C   0  0  0  0  0  2  0  0  0  0  0  0
  -28.8950  -25.9230   19.0780 C   0  0  0  0  0  2  0  0  0  0  0  0
  -28.6710  -27.0540   19.9030 O   0  0  0  0  0  0  0  0  0  0  0  0
  -24.5480  -31.8240   23.1140 C   0  0  0  0  0  0  0  0  0  0  0  0
  -27.4310  -27.6470   19.8980 C   0  0  0  0  0  0  0  0  0  0  0  0
  -23.4240  -30.4270   21.4110 C   0  0  0  0  0  3  0  0  0  0  0  0
  -24.9540  -29.0090   19.9460 C   0  0  0  0  0  0  0  0  0  0  0  0
  -25.9290  -30.9030   21.2610 C   0  0  0  0  0  2  0  0  0  0  0  0
  -26.0760  -29.5650   20.5720 C   0  0  0  0  0  0  0  0  0  0  0  0
  -27.3120  -28.8900   20.5500 C   0  0  0  0  0  3  0  0  0  0  0  0
  -26.2880  -27.0860   19.2760 C   0  0  0  0  0  3  0  0  0  0  0  0
  -25.0550  -27.7670   19.2950 C   0  0  0  0  0  3  0  0  0  0  0  0
  -23.6750  -29.8080   20.0080 C   0  0  0  0  0  2  0  0  0  0  0  0
  -24.6470  -31.0710   21.9830 N   0  0  0  0  0  0  0  0  0  0  0  0
  -23.4530  -32.0260   23.6530 O   0  0  0  0  0  0  0  0  0  0  0  0
  -22.8130  -29.3380   22.3240 C   0  0  0  0  0  0  0  0  0  0  0  0
  -21.4920  -29.1270   22.1990 N   0  0  0  0  0  0  0  0  0  0  0  0
  -23.5210  -28.6950   23.1020 O   0  0  0  0  0  0  0  0  0  0  0  0
  -20.9860  -29.7050   21.5400 H   0  0  0  0  0  0  0  0  0  0  0  0
  -18.1480  -27.8410   22.6870 C   0  0  0  0  0  0  0  0  0  0  0  0
  -20.7060  -28.1330   22.9280 C   0  0  0  0  0  3  0  0  0  0  0  0
  -20.8250  -26.7370   22.2740 C   0  0  0  0  0  2  0  0  0  0  0  0
  -19.7100  -26.4470   21.2650 C   0  0  0  0  0  2  0  0  0  0  0  0
  -18.3370  -26.5320   21.9400 C   0  0  0  0  0  2  0  0  0  0  0  0
  -19.2610  -28.6000   23.1380 C   0  0  0  0  0  0  0  0  0  0  0  0
  -19.0300  -29.8260   23.7980 C   0  0  0  0  0  3  0  0  0  0  0  0
  -17.7180  -30.2930   24.0100 C   0  0  0  0  0  3  0  0  0  0  0  0
  -16.6210  -29.5300   23.5750 C   0  0  0  0  0  3  0  0  0  0  0  0
  -16.8370  -28.3050   22.9190 C   0  0  0  0  0  3  0  0  0  0  0  0
  -25.7960  -32.4890   23.7710 C   0  0  0  0  0  3  0  0  0  0  0  0
  -26.3210  -31.7120   25.0400 C   0  0  1  0  0  0  0  0  0  0  0  0
  -25.2220  -31.4150   26.0910 C   0  0  0  0  0  1  0  0  0  0  0  0
  -26.9550  -30.3640   24.6280 C   0  0  0  0  0  1  0  0  0  0  0  0
  -27.4390  -32.5320   25.7270 C   0  0  0  0  0  1  0  0  0  0  0  0
  -25.4350  -33.8690   24.1190 N   0  0  0  0  0  0  0  0  0  0  0  0
  -25.7450  -34.9450   23.3810 C   0  0  0  0  0  0  0  0  0  0  0  0
  -26.4380  -34.8820   22.3620 O   0  0  0  0  0  0  0  0  0  0  0  0
  -24.8230  -33.9880   24.9150 H   0  0  0  0  0  0  0  0  0  0  0  0
  -23.9580  -36.6770   23.0160 C   0  0  0  0  0  1  0  0  0  0  0  0
  -25.1980  -36.3110   23.8480 C   0  0  0  0  0  3  0  0  0  0  0  0
  -27.2920  -37.2490   24.7260 C   0  0  0  0  0  1  0  0  0  0  0  0
  -26.1980  -37.4000   23.7690 N   0  0  0  0  0  0  0  0  0  0  0  0
  -25.7620  -38.3040   23.9250 H   0  0  0  0  0  0  0  0  0  0  0  0
  -28.5890  -20.3370   19.2290 C   0  0  0  0  0  0  0  0  0  0  0  0
  -27.5990  -21.0670   19.1540 O   0  0  0  0  0  0  0  0  0  0  0  0
  -28.7480  -19.1570   18.2560 C   0  0  0  0  0  2  0  0  0  0  0  0
  -28.6730  -17.7490   18.8950 C   0  0  0  0  0  2  0  0  0  0  0  0
  -30.0460  -17.0500   19.0330 C   0  0  0  0  0  2  0  0  0  0  0  0
  -30.8570  -14.8840   19.9120 C   0  0  0  0  0  0  0  0  0  0  0  0
  -30.6350  -12.5960   19.0910 C   0  0  0  0  0  2  0  0  0  0  0  0
  -29.6620  -12.6750   17.8920 C   0  0  0  0  0  2  0  0  0  0  0  0
  -28.2010  -12.5500   18.3740 C   0  0  0  0  0  2  0  0  0  0  0  0
  -27.8680  -13.5150   19.5440 C   0  0  0  0  0  3  0  0  0  0  0  0
  -28.9530  -13.4320   20.6450 C   0  0  0  0  0  2  0  0  0  0  0  0
  -30.2640  -13.6710   20.0190 N   0  0  0  0  0  0  0  0  0  0  0  0
  -32.0100  -15.0530   19.5070 O   0  0  0  0  0  0  0  0  0  0  0  0
  -29.9730  -15.8920   19.9210 N   0  0  0  0  0  0  0  0  0  0  0  0
  -29.0630  -15.6540   20.2830 H   0  0  0  0  0  0  0  0  0  0  0  0
  -25.5380  -14.1830   20.4100 C   0  0  0  0  0  0  0  0  0  0  0  0
  -24.4580  -13.4310   20.7920 C   0  0  0  0  0  0  0  0  0  0  0  0
  -24.8650  -12.0690   20.6700 C   0  0  0  0  0  0  0  0  0  0  0  0
  -26.5330  -13.2750   20.0830 N   0  0  0  0  0  0  0  0  0  0  0  0
  -26.1350  -11.9950   20.2980 N   0  0  0  0  0  0  0  0  0  0  0  0
  -24.1030  -10.8250   20.8300 C   0  0  0  0  0  0  0  0  0  0  0  0
  -24.5410   -9.8000   21.6960 C   0  0  0  0  0  3  0  0  0  0  0  0
  -23.7830   -8.6200   21.8480 C   0  0  0  0  0  3  0  0  0  0  0  0
  -22.5740   -8.4570   21.1340 C   0  0  0  0  0  0  0  0  0  0  0  0
  -22.1540   -9.4720   20.2580 C   0  0  0  0  0  3  0  0  0  0  0  0
  -22.9120  -10.6430   20.1030 C   0  0  0  0  0  3  0  0  0  0  0  0
  -21.7850   -7.3340   21.1980 O   0  0  0  0  0  0  0  0  0  0  0  0
  -21.7470   -6.5440   22.3190 C   0  0  0  0  0  0  0  0  0  0  0  0
  -21.4050   -7.0640   23.5860 C   0  0  0  0  0  3  0  0  0  0  0  0
  -21.3120   -6.2030   24.6990 C   0  0  0  0  0  3  0  0  0  0  0  0
  -21.5490   -4.8240   24.5450 C   0  0  0  0  0  0  0  0  0  0  0  0
  -21.8860   -4.3060   23.2820 C   0  0  0  0  0  3  0  0  0  0  0  0
  -21.9790   -5.1620   22.1730 C   0  0  0  0  0  0  0  0  0  0  0  0
  -22.2840   -4.6530   20.9540 F   0  0  0  0  0  0  0  0  0  0  0  0
  -21.4510   -3.9970   25.6110 F   0  0  0  0  0  0  0  0  0  0  0  0
  -23.0960  -13.9450   21.1550 C   0  0  0  0  0  0  0  0  0  0  0  0
  -22.3900  -13.2350   22.0300 N   0  0  0  0  0  0  0  0  0  0  0  0
  -22.6660  -15.0050   20.7010 O   0  0  0  0  0  0  0  0  0  0  0  0
  -22.7490  -12.3760   22.4180 H   0  0  0  0  0  0  0  0  0  0  0  0
  -21.4770  -13.5590   22.3180 H   0  0  0  0  0  0  0  0  0  0  0  0
  -25.7420  -15.5530   20.2890 N   0  0  0  0  0  0  0  0  0  0  0  0
  -24.9980  -16.2190   20.4650 H   0  0  0  0  0  0  0  0  0  0  0  0
  -26.5740  -15.9870   19.9110 H   0  0  0  0  0  0  0  0  0  0  0  0
  -31.4020  -18.2820   22.7700 C   0  0  0  0  0  2  0  0  0  0  0  0
  -30.9140  -16.9860   24.8910 C   0  0  0  0  0  1  0  0  0  0  0  0
  -30.7780  -18.3290   24.1660 C   0  0  0  0  0  2  0  0  0  0  0  0
  1  2  1  0
  3  6  1  0
  4  1  2  0
  5  4  1  0
  5  3  2  0
  6  2  2  0
  6 97  1  0
  7  8  1  0
  7  4  1  0
  8 10  1  0
  9  7  2  0
 11  8  1  0
 12 11  1  0
 12 13  1  0
 14 25  2  0
 15 13  1  0
 15 20  1  0
 16 24  1  0
 16 26  1  0
 17 23  1  0
 17 19  1  0
 18 24  1  0
 19 18  1  0
 20 19  2  0
 21 22  1  0
 21 15  2  0
 22 17  2  0
 23 16  1  0
 24 14  1  0
 26 28  2  0
 27 26  1  0
 29 27  1  0
 30 39  2  0
 30 35  1  0
 31 27  1  0
 31 35  1  0
 32 31  1  0
 33 34  1  0
 33 32  1  0
 34 30  1  0
 35 36  2  0
 36 37  1  0
 38 37  2  0
 39 38  1  0
 40 14  1  0
 40 45  1  0
 40 41  1  0
 41 44  1  1
 41 42  1  0
 43 41  1  0
 45 48  1  0
 46 50  1  0
 46 45  1  0
 47 46  2  0
 50 49  1  0
 52 50  1  0
 52 53  1  0
 52 51  1  0
 54  5  1  0
 55 54  2  0
 56 57  1  0
 56 54  1  0
 57 58  1  0
 58 67  1  0
 59 67  1  0
 59 65  1  0
 60 65  1  0
 61 62  1  0
 61 60  1  0
 63 62  1  0
 63 72  1  0
 63 64  1  0
 65 64  1  0
 66 59  2  0
 67 68  1  0
 69 70  2  0
 70 89  1  0
 71 70  1  0
 71 74  1  0
 72 73  1  0
 72 69  1  0
 73 71  2  0
 74 75  1  0
 75 76  2  0
 77 80  1  0
 77 76  1  0
 78 77  2  0
 79 78  1  0
 79 74  2  0
 80 81  1  0
 81 82  1  0
 82 83  2  0
 84 83  1  0
 84 88  1  0
 85 84  2  0
 86 81  2  0
 86 85  1  0
 87 86  1  0
 89 90  1  0
 90 93  1  0
 90 92  1  0
 91 89  2  0
 94 69  1  0
 94 95  1  0
 96 94  1  0
 97 99  1  0
 99 98  1  0
M  ISO  4  12 101  13 101  59 100  67 100
M  END
>  <TORSDO>  (32) 
F 25

>  <SCORE>  (32) 
-8.430

>  <name>  (32) 
34

>  <ligand_id>  (32) 
34

>  <original_smiles>  (32) 
[H]c1c([H])c([H])c2c(c1[H])C([H])([H])C([H])([H])C([H])([H])C2([H])N([H])C(=O)C1([H])N(C(=O)C([H])(N([H])C(=O)C([H])(N([H])C([H])([H])[H])C([H])([H])[H])C(C([H])([H])[H])(C([H])([H])[H])C([H])([H])[H])C([H])([H])c2c([H])c(OC([H])([H])C([H])([H])N([H])C(=O)c3c([H])c([H])c(C([H])([H])C([H])([H])C([H])([H])[H])c([H])c3C(=O)C([H])([H])C([H])([H])C([H])([H])N([H])C(=O)N3C([H])([H])C([H])([H])C([H])([H])C([H])(n4nc(-c5c([H])c([H])c(Oc6c([H])c([H])c(F)c([H])c6F)c([H])c5[H])c(C(=O)N([H])[H])c4N([H])[H])C3([H])[H])c([H])c([H])c2C1([H])[H]

>  <smiles>  (32) 
[H]c1c([H])c([H])c2c(c1[H])C([H])([H])C([H])([H])C([H])([H])C2([H])N([H])C(=O)C1([H])N(C(=O)C([H])(N([H])C(=O)C([H])(N([H])C([H])([H])[H])C([H])([H])[H])C(C([H])([H])[H])(C([H])([H])[H])C([H])([H])[H])C([H])([H])c2c([H])c(OC([H])([H])C([H])([H])N([H])C(=O)c3c([H])c([H])c(C([H])([H])C([H])([H])C([H])([H])[H])c([H])c3C(=O)C([H])([H])C([H])([H])C([H])([H])N([H])C(=O)N3C([H])([H])C([H])([H])C([H])([H])C([H])(n4nc(-c5c([H])c([H])c(Oc6c([H])c([H])c(F)c([H])c6F)c([H])c5[H])c(C(=O)N([H])[H])c4N([H])[H])C3([H])[H])c([H])c([H])c2C1([H])[H]

$$$$
35:0:0
     RDKit          3D

 97105  0  0  1  0  0  0  0  0999 V2000
  -26.9730  -19.4740   18.6910 C   0  0  0  0  0  3  0  0  0  0  0  0
  -28.9430  -20.5870   17.7720 C   0  0  0  0  0  3  0  0  0  0  0  0
  -26.5650  -20.6740   19.2920 C   0  0  0  0  0  3  0  0  0  0  0  0
  -28.5510  -21.7840   18.4060 C   0  0  0  0  0  3  0  0  0  0  0  0
  -28.1910  -19.4090   17.9790 C   0  0  0  0  0  0  0  0  0  0  0  0
  -27.3790  -21.8200   19.2010 C   0  0  0  0  0  0  0  0  0  0  0  0
  -27.0140  -23.0430   19.9720 C   0  0  0  0  0  0  0  0  0  0  0  0
  -27.9690  -23.4450   20.8120 N   0  0  0  0  0  0  0  0  0  0  0  0
  -25.9130  -23.5820   19.8520 O   0  0  0  0  0  0  0  0  0  0  0  0
  -28.8120  -22.8890   20.8300 H   0  0  0  0  0  0  0  0  0  0  0  0
  -27.9580  -24.6340   21.6470 C   0  0  0  0  0  2  0  0  0  0  0  0
  -29.4000  -25.1620   21.7350 C   0  0  0  0  0  2  0  0  0  0  0  0
  -29.5170  -26.6820   21.8240 C   0  0  0  0  0  2  0  0  0  0  0  0
  -29.1630  -27.1840   20.5420 O   0  0  0  0  0  0  0  0  0  0  0  0
  -24.7190  -31.9130   23.4010 C   0  0  0  0  0  0  0  0  0  0  0  0
  -27.9320  -27.7760   20.5030 C   0  0  0  0  0  0  0  0  0  0  0  0
  -23.7340  -30.3740   21.7350 C   0  0  0  0  0  3  0  0  0  0  0  0
  -25.3960  -28.9800   20.3970 C   0  0  0  0  0  0  0  0  0  0  0  0
  -26.2120  -30.9940   21.6400 C   0  0  0  0  0  2  0  0  0  0  0  0
  -26.4600  -29.6340   21.0340 C   0  0  0  0  0  0  0  0  0  0  0  0
  -27.7280  -29.0290   21.1050 C   0  0  0  0  0  3  0  0  0  0  0  0
  -26.8690  -27.1330   19.8400 C   0  0  0  0  0  3  0  0  0  0  0  0
  -25.5900  -27.7200   19.8060 C   0  0  0  0  0  3  0  0  0  0  0  0
  -24.0710  -29.7030   20.3760 C   0  0  0  0  0  2  0  0  0  0  0  0
  -24.9030  -31.1090   22.3190 N   0  0  0  0  0  0  0  0  0  0  0  0
  -23.5940  -32.0790   23.8900 O   0  0  0  0  0  0  0  0  0  0  0  0
  -23.1500  -29.3000   22.6790 C   0  0  0  0  0  0  0  0  0  0  0  0
  -21.9150  -28.8600   22.3900 N   0  0  0  0  0  0  0  0  0  0  0  0
  -23.8090  -28.8640   23.6280 O   0  0  0  0  0  0  0  0  0  0  0  0
  -21.4420  -29.2740   21.6000 H   0  0  0  0  0  0  0  0  0  0  0  0
  -18.7860  -27.0580   22.4960 C   0  0  0  0  0  0  0  0  0  0  0  0
  -21.1750  -27.8300   23.1140 C   0  0  0  0  0  3  0  0  0  0  0  0
  -21.6330  -26.4150   22.6950 C   0  0  0  0  0  2  0  0  0  0  0  0
  -20.7880  -25.8170   21.5660 C   0  0  0  0  0  2  0  0  0  0  0  0
  -19.3170  -25.7290   21.9850 C   0  0  0  0  0  2  0  0  0  0  0  0
  -19.6610  -28.0500   23.0120 C   0  0  0  0  0  0  0  0  0  0  0  0
  -19.1230  -29.2800   23.4440 C   0  0  0  0  0  3  0  0  0  0  0  0
  -17.7400  -29.5290   23.3660 C   0  0  0  0  0  3  0  0  0  0  0  0
  -16.8750  -28.5360   22.8710 C   0  0  0  0  0  3  0  0  0  0  0  0
  -17.3980  -27.3040   22.4420 C   0  0  0  0  0  3  0  0  0  0  0  0
  -25.9090  -32.6730   24.0670 C   0  0  0  0  0  3  0  0  0  0  0  0
  -25.4590  -34.0480   24.3320 N   0  0  0  0  0  0  0  0  0  0  0  0
  -25.7260  -35.0960   23.5450 C   0  0  0  0  0  0  0  0  0  0  0  0
  -26.4450  -35.0210   22.5450 O   0  0  0  0  0  0  0  0  0  0  0  0
  -24.8170  -34.1750   25.1000 H   0  0  0  0  0  0  0  0  0  0  0  0
  -23.8400  -36.6910   23.0680 C   0  0  0  0  0  1  0  0  0  0  0  0
  -25.0910  -36.4490   23.9270 C   0  0  0  0  0  3  0  0  0  0  0  0
  -27.1010  -37.5760   24.7770 C   0  0  0  0  0  1  0  0  0  0  0  0
  -26.0190  -37.5930   23.7950 N   0  0  0  0  0  0  0  0  0  0  0  0
  -25.5230  -38.4750   23.8840 H   0  0  0  0  0  0  0  0  0  0  0  0
  -26.4220  -31.9890   25.3900 C   0  0  1  0  0  0  0  0  0  0  0  0
  -25.2870  -31.5830   26.3600 C   0  0  0  0  0  1  0  0  0  0  0  0
  -27.2430  -30.7190   25.0660 C   0  0  0  0  0  1  0  0  0  0  0  0
  -27.3820  -32.9460   26.1380 C   0  0  0  0  0  1  0  0  0  0  0  0
  -28.7000  -18.1010   17.5090 C   0  0  0  0  0  0  0  0  0  0  0  0
  -29.1230  -17.8780   16.3720 O   0  0  0  0  0  0  0  0  0  0  0  0
  -28.7910  -17.0260   18.5940 C   0  0  0  0  0  2  0  0  0  0  0  0
  -29.9750  -17.2510   19.5630 C   0  0  0  0  0  2  0  0  0  0  0  0
  -29.6770  -16.7370   21.0060 C   0  0  0  0  0  2  0  0  0  0  0  0
  -31.1450  -14.7620   20.8230 C   0  0  0  0  0  0  0  0  0  0  0  0
  -30.7470  -12.7430   19.4780 C   0  0  0  0  0  2  0  0  0  0  0  0
  -29.8620  -13.0660   18.2620 C   0  0  0  0  0  2  0  0  0  0  0  0
  -28.3730  -12.9330   18.6360 C   0  0  0  0  0  2  0  0  0  0  0  0
  -28.0100  -13.6750   19.9490 C   0  0  0  0  0  3  0  0  0  0  0  0
  -29.0320  -13.3840   21.0750 C   0  0  0  0  0  2  0  0  0  0  0  0
  -30.3790  -13.6680   20.5560 N   0  0  0  0  0  0  0  0  0  0  0  0
  -32.2840  -14.9160   20.3880 O   0  0  0  0  0  0  0  0  0  0  0  0
  -30.6060  -15.7410   21.5500 N   0  0  0  0  0  0  0  0  0  0  0  0
  -31.3230  -16.1900   22.1040 H   0  0  0  0  0  0  0  0  0  0  0  0
  -25.5780  -14.2800   20.5420 C   0  0  0  0  0  0  0  0  0  0  0  0
  -24.4900  -13.5040   20.8320 C   0  0  0  0  0  0  0  0  0  0  0  0
  -24.9510  -12.1530   20.8000 C   0  0  0  0  0  0  0  0  0  0  0  0
  -26.6350  -13.4020   20.3580 N   0  0  0  0  0  0  0  0  0  0  0  0
  -26.2570  -12.1180   20.5730 N   0  0  0  0  0  0  0  0  0  0  0  0
  -24.2200  -10.8880   20.9290 C   0  0  0  0  0  0  0  0  0  0  0  0
  -24.5980   -9.9170   21.8840 C   0  0  0  0  0  3  0  0  0  0  0  0
  -23.8730   -8.7120   22.0040 C   0  0  0  0  0  3  0  0  0  0  0  0
  -22.7560   -8.4690   21.1700 C   0  0  0  0  0  0  0  0  0  0  0  0
  -22.3960   -9.4310   20.2110 C   0  0  0  0  0  3  0  0  0  0  0  0
  -23.1210  -10.6260   20.0860 C   0  0  0  0  0  3  0  0  0  0  0  0
  -22.0100   -7.3180   21.1900 O   0  0  0  0  0  0  0  0  0  0  0  0
  -21.8270   -6.5980   22.3450 C   0  0  0  0  0  0  0  0  0  0  0  0
  -21.2020   -7.1580   23.4790 C   0  0  0  0  0  3  0  0  0  0  0  0
  -20.9690   -6.3650   24.6190 C   0  0  0  0  0  3  0  0  0  0  0  0
  -21.3560   -5.0110   24.6240 C   0  0  0  0  0  0  0  0  0  0  0  0
  -21.9770   -4.4510   23.4950 C   0  0  0  0  0  3  0  0  0  0  0  0
  -22.2060   -5.2410   22.3540 C   0  0  0  0  0  0  0  0  0  0  0  0
  -22.7830   -4.6890   21.2580 F   0  0  0  0  0  0  0  0  0  0  0  0
  -21.1310   -4.2500   25.7210 F   0  0  0  0  0  0  0  0  0  0  0  0
  -23.0820  -13.9840   21.0340 C   0  0  0  0  0  0  0  0  0  0  0  0
  -22.3050  -13.3010   21.8670 N   0  0  0  0  0  0  0  0  0  0  0  0
  -22.6730  -15.0050   20.4870 O   0  0  0  0  0  0  0  0  0  0  0  0
  -22.6260  -12.4620   22.3240 H   0  0  0  0  0  0  0  0  0  0  0  0
  -21.3710  -13.6330   22.0580 H   0  0  0  0  0  0  0  0  0  0  0  0
  -25.7490  -15.6560   20.4070 N   0  0  0  0  0  0  0  0  0  0  0  0
  -24.9790  -16.3000   20.5460 H   0  0  0  0  0  0  0  0  0  0  0  0
  -26.6330  -16.1230   20.2690 H   0  0  0  0  0  0  0  0  0  0  0  0
  1  3  1  0
  2  5  1  0
  2  4  2  0
  4  6  1  0
  5  1  2  0
  6  3  2  0
  6  7  1  0
  7  8  1  0
  8 10  1  0
  8 11  1  0
  9  7  2  0
 11 12  1  0
 12 13  1  0
 14 13  1  0
 15 26  2  0
 16 14  1  0
 16 21  1  0
 17 25  1  0
 17 27  1  0
 18 20  1  0
 19 25  1  0
 20 21  2  0
 20 19  1  0
 22 16  2  0
 23 22  1  0
 23 18  2  0
 24 18  1  0
 24 17  1  0
 25 15  1  0
 27 29  2  0
 28 27  1  0
 30 28  1  0
 31 36  1  0
 32 28  1  0
 33 32  1  0
 34 35  1  0
 34 33  1  0
 35 31  1  0
 36 32  1  0
 36 37  2  0
 38 37  1  0
 39 38  2  0
 40 31  2  0
 40 39  1  0
 41 15  1  0
 41 42  1  0
 41 51  1  0
 42 45  1  0
 43 47  1  0
 43 42  1  0
 44 43  2  0
 47 46  1  0
 49 50  1  0
 49 47  1  0
 49 48  1  0
 51 54  1  1
 51 52  1  0
 53 51  1  0
 55  5  1  0
 55 57  1  0
 56 55  2  0
 57 58  1  0
 58 59  1  0
 59 68  1  0
 60 68  1  0
 61 66  1  0
 62 63  1  0
 62 61  1  0
 64 63  1  0
 64 73  1  0
 64 65  1  0
 66 60  1  0
 66 65  1  0
 67 60  2  0
 68 69  1  0
 70 71  2  0
 71 90  1  0
 72 71  1  0
 72 75  1  0
 73 70  1  0
 73 74  1  0
 74 72  2  0
 75 76  1  0
 76 77  2  0
 78 81  1  0
 78 77  1  0
 79 78  2  0
 80 79  1  0
 80 75  2  0
 81 82  1  0
 82 87  2  0
 82 83  1  0
 83 84  2  0
 84 85  1  0
 85 89  1  0
 86 85  2  0
 87 86  1  0
 88 87  1  0
 90 91  1  0
 91 94  1  0
 91 93  1  0
 92 90  2  0
 95 70  1  0
 95 96  1  0
 97 95  1  0
M  ISO  4  13 101  14 101  60 100  68 100
M  END
>  <TORSDO>  (33) 
F 24

>  <SCORE>  (33) 
-10.937

>  <name>  (33) 
35

>  <ligand_id>  (33) 
35

>  <original_smiles>  (33) 
[H]c1c([H])c([H])c2c(c1[H])C([H])([H])C([H])([H])C([H])([H])C2([H])N([H])C(=O)C1([H])N(C(=O)C([H])(N([H])C(=O)C([H])(N([H])C([H])([H])[H])C([H])([H])[H])C(C([H])([H])[H])(C([H])([H])[H])C([H])([H])[H])C([H])([H])c2c([H])c(OC([H])([H])C([H])([H])C([H])([H])N([H])C(=O)c3c([H])c([H])c(C(=O)C([H])([H])C([H])([H])C([H])([H])N([H])C(=O)N4C([H])([H])C([H])([H])C([H])([H])C([H])(n5nc(-c6c([H])c([H])c(Oc7c([H])c([H])c(F)c([H])c7F)c([H])c6[H])c(C(=O)N([H])[H])c5N([H])[H])C4([H])[H])c([H])c3[H])c([H])c([H])c2C1([H])[H]

>  <smiles>  (33) 
[H]c1c([H])c([H])c2c(c1[H])C([H])([H])C([H])([H])C([H])([H])C2([H])N([H])C(=O)C1([H])N(C(=O)C([H])(N([H])C(=O)C([H])(N([H])C([H])([H])[H])C([H])([H])[H])C(C([H])([H])[H])(C([H])([H])[H])C([H])([H])[H])C([H])([H])c2c([H])c(OC([H])([H])C([H])([H])C([H])([H])N([H])C(=O)c3c([H])c([H])c(C(=O)C([H])([H])C([H])([H])C([H])([H])N([H])C(=O)N4C([H])([H])C([H])([H])C([H])([H])C([H])(n5nc(-c6c([H])c([H])c(Oc7c([H])c([H])c(F)c([H])c7F)c([H])c6[H])c(C(=O)N([H])[H])c5N([H])[H])C4([H])[H])c([H])c3[H])c([H])c([H])c2C1([H])[H]

$$$$
36:0:0
     RDKit          3D

 99107  0  0  1  0  0  0  0  0999 V2000
  -32.1230  -22.2220   20.4910 C   0  0  0  0  0  3  0  0  0  0  0  0
  -31.7530  -18.7090   23.0540 C   0  0  0  0  0  3  0  0  0  0  0  0
  -32.3910  -19.8610   23.5550 C   0  0  0  0  0  3  0  0  0  0  0  0
  -31.4200  -19.8380   20.9310 C   0  0  0  0  0  3  0  0  0  0  0  0
  -31.2570  -18.6920   21.7310 C   0  0  0  0  0  0  0  0  0  0  0  0
  -32.5320  -21.0150   22.7550 C   0  0  0  0  0  0  0  0  0  0  0  0
  -32.0370  -21.0080   21.4230 C   0  0  0  0  0  0  0  0  0  0  0  0
  -33.2130  -22.2330   23.3560 C   0  0  0  0  0  1  0  0  0  0  0  0
  -30.5100  -17.5350   21.1660 C   0  0  0  0  0  0  0  0  0  0  0  0
  -29.6280  -17.6650   20.3090 O   0  0  0  0  0  0  0  0  0  0  0  0
  -30.8830  -16.1380   21.6790 C   0  0  0  0  0  2  0  0  0  0  0  0
  -30.0340  -14.6840   19.8390 C   0  0  0  0  0  0  0  0  0  0  0  0
  -29.6750  -12.6020   18.5770 C   0  0  0  0  0  2  0  0  0  0  0  0
  -28.5460  -12.6560   17.5370 C   0  0  0  0  0  2  0  0  0  0  0  0
  -27.1900  -12.3370   18.1900 C   0  0  0  0  0  2  0  0  0  0  0  0
  -26.9320  -13.1900   19.4570 C   0  0  0  0  0  3  0  0  0  0  0  0
  -28.1430  -13.1350   20.4130 C   0  0  0  0  0  2  0  0  0  0  0  0
  -29.3590  -13.5240   19.6720 N   0  0  0  0  0  0  0  0  0  0  0  0
  -30.7660  -15.1930   18.9830 O   0  0  0  0  0  0  0  0  0  0  0  0
  -30.0330  -15.0950   21.1090 N   0  0  0  0  0  0  0  0  0  0  0  0
  -29.4410  -14.5890   21.7490 H   0  0  0  0  0  0  0  0  0  0  0  0
  -24.6480  -13.5600   20.5910 C   0  0  0  0  0  0  0  0  0  0  0  0
  -23.7150  -12.6810   21.0740 C   0  0  0  0  0  0  0  0  0  0  0  0
  -24.2590  -11.3760   20.8710 C   0  0  0  0  0  0  0  0  0  0  0  0
  -25.7000  -12.7810   20.1300 N   0  0  0  0  0  0  0  0  0  0  0  0
  -25.4770  -11.4610   20.3520 N   0  0  0  0  0  0  0  0  0  0  0  0
  -23.6690  -10.0500   21.0870 C   0  0  0  0  0  0  0  0  0  0  0  0
  -24.1920   -9.1540   22.0460 C   0  0  0  0  0  3  0  0  0  0  0  0
  -23.5960   -7.8910   22.2470 C   0  0  0  0  0  3  0  0  0  0  0  0
  -22.4630   -7.5120   21.4890 C   0  0  0  0  0  0  0  0  0  0  0  0
  -21.9590   -8.3970   20.5200 C   0  0  0  0  0  3  0  0  0  0  0  0
  -22.5570   -9.6520   20.3170 C   0  0  0  0  0  3  0  0  0  0  0  0
  -21.8340   -6.2960   21.5980 O   0  0  0  0  0  0  0  0  0  0  0  0
  -21.7450   -5.6360   22.7970 C   0  0  0  0  0  0  0  0  0  0  0  0
  -21.1330   -6.2220   23.9270 C   0  0  0  0  0  3  0  0  0  0  0  0
  -21.0020   -5.4820   25.1190 C   0  0  0  0  0  3  0  0  0  0  0  0
  -21.4720   -4.1570   25.1820 C   0  0  0  0  0  0  0  0  0  0  0  0
  -22.0760   -3.5700   24.0560 C   0  0  0  0  0  3  0  0  0  0  0  0
  -22.2090   -4.3060   22.8670 C   0  0  0  0  0  0  0  0  0  0  0  0
  -22.7730   -3.7290   21.7790 F   0  0  0  0  0  0  0  0  0  0  0  0
  -21.3380   -3.4430   26.3250 F   0  0  0  0  0  0  0  0  0  0  0  0
  -22.3530  -13.0230   21.6080 C   0  0  0  0  0  0  0  0  0  0  0  0
  -21.8660  -12.2610   22.5800 N   0  0  0  0  0  0  0  0  0  0  0  0
  -21.7330  -14.0030   21.1960 O   0  0  0  0  0  0  0  0  0  0  0  0
  -22.3840  -11.4690   22.9320 H   0  0  0  0  0  0  0  0  0  0  0  0
  -20.9610  -12.4720   22.9780 H   0  0  0  0  0  0  0  0  0  0  0  0
  -24.6830  -14.9460   20.4890 N   0  0  0  0  0  0  0  0  0  0  0  0
  -23.9060  -15.5330   20.7740 H   0  0  0  0  0  0  0  0  0  0  0  0
  -25.4460  -15.4720   20.0780 H   0  0  0  0  0  0  0  0  0  0  0  0
  -34.6210  -21.7340   19.9890 C   0  0  0  0  0  1  0  0  0  0  0  0
  -33.2250  -22.0350   19.4210 C   0  0  0  0  0  2  0  0  0  0  0  0
  -30.7360  -22.4890   19.8580 C   0  0  0  0  0  2  0  0  0  0  0  0
  -30.6120  -23.7740   19.0260 C   0  0  0  0  0  2  0  0  0  0  0  0
  -29.2020  -24.0180   18.6540 N   0  0  0  0  0  4  0  0  0  0  0  0
  -28.6370  -23.9740   19.4880 H   0  0  0  0  0  0  0  0  0  0  0  0
  -28.9000  -23.2780   18.0380 H   0  0  0  0  0  0  0  0  0  0  0  0
  -28.9810  -25.3120   17.9800 C   0  0  0  0  0  2  0  0  0  0  0  0
  -27.4910  -25.6460   17.8120 C   0  0  0  0  0  2  0  0  0  0  0  0
  -27.4470  -27.0480   17.6200 O   0  0  0  0  0  0  0  0  0  0  0  0
  -25.0920  -30.9310   23.0530 C   0  0  0  0  0  0  0  0  0  0  0  0
  -26.3820  -27.7200   18.1580 C   0  0  0  0  0  0  0  0  0  0  0  0
  -23.3830  -30.3010   21.3760 C   0  0  0  0  0  3  0  0  0  0  0  0
  -24.2750  -29.2540   19.2290 C   0  0  0  0  0  0  0  0  0  0  0  0
  -25.8400  -30.5270   20.7140 C   0  0  0  0  0  2  0  0  0  0  0  0
  -25.5890  -29.4680   19.6620 C   0  0  0  0  0  0  0  0  0  0  0  0
  -26.6450  -28.7110   19.1220 C   0  0  0  0  0  3  0  0  0  0  0  0
  -25.0530  -27.4950   17.7340 C   0  0  0  0  0  3  0  0  0  0  0  0
  -23.9990  -28.2650   18.2650 C   0  0  0  0  0  3  0  0  0  0  0  0
  -23.2080  -30.1320   19.8420 C   0  0  0  0  0  2  0  0  0  0  0  0
  -24.8020  -30.5770   21.7690 N   0  0  0  0  0  0  0  0  0  0  0  0
  -24.1950  -31.0760   23.8940 O   0  0  0  0  0  0  0  0  0  0  0  0
  -22.7860  -29.0590   22.0740 C   0  0  0  0  0  0  0  0  0  0  0  0
  -21.4540  -28.9160   21.9980 N   0  0  0  0  0  0  0  0  0  0  0  0
  -23.5140  -28.2370   22.6370 O   0  0  0  0  0  0  0  0  0  0  0  0
  -20.9280  -29.6360   21.5210 H   0  0  0  0  0  0  0  0  0  0  0  0
  -18.1350  -27.5020   22.1680 C   0  0  0  0  0  0  0  0  0  0  0  0
  -20.6740  -27.8060   22.5430 C   0  0  0  0  0  3  0  0  0  0  0  0
  -20.8500  -26.5300   21.6890 C   0  0  0  0  0  2  0  0  0  0  0  0
  -19.7760  -26.3740   20.6070 C   0  0  0  0  0  2  0  0  0  0  0  0
  -18.3820  -26.3270   21.2380 C   0  0  0  0  0  2  0  0  0  0  0  0
  -19.2120  -28.2070   22.7690 C   0  0  0  0  0  0  0  0  0  0  0  0
  -18.9300  -29.3130   23.5980 C   0  0  0  0  0  3  0  0  0  0  0  0
  -17.6010  -29.7160   23.8340 C   0  0  0  0  0  3  0  0  0  0  0  0
  -16.5380  -29.0040   23.2510 C   0  0  0  0  0  3  0  0  0  0  0  0
  -16.8060  -27.8990   22.4240 C   0  0  0  0  0  3  0  0  0  0  0  0
  -26.5590  -31.1960   23.5210 C   0  0  0  0  0  3  0  0  0  0  0  0
  -27.1670  -30.0120   24.3680 C   0  0  1  0  0  0  0  0  0  0  0  0
  -26.2560  -29.5470   25.5280 C   0  0  0  0  0  1  0  0  0  0  0  0
  -27.4460  -28.7870   23.4660 C   0  0  0  0  0  1  0  0  0  0  0  0
  -28.5260  -30.4400   24.9680 C   0  0  0  0  0  1  0  0  0  0  0  0
  -26.5570  -32.4430   24.2960 N   0  0  0  0  0  0  0  0  0  0  0  0
  -26.9900  -33.6250   23.8360 C   0  0  0  0  0  0  0  0  0  0  0  0
  -27.5060  -33.7620   22.7230 O   0  0  0  0  0  0  0  0  0  0  0  0
  -26.0970  -32.4160   25.1950 H   0  0  0  0  0  0  0  0  0  0  0  0
  -25.6120  -35.6760   24.2970 C   0  0  0  0  0  1  0  0  0  0  0  0
  -26.8230  -34.8480   24.7560 C   0  0  0  0  0  3  0  0  0  0  0  0
  -29.1520  -35.0840   25.4980 C   0  0  0  0  0  1  0  0  0  0  0  0
  -28.0230  -35.7100   24.8130 N   0  0  0  0  0  0  0  0  0  0  0  0
  -27.8150  -36.5880   25.2810 H   0  0  0  0  0  0  0  0  0  0  0  0
  1 51  1  0
  1  7  1  0
  2  3  1  0
  4  7  2  0
  4  5  1  0
  5  2  2  0
  6  8  1  0
  6  3  2  0
  7  6  1  0
  9 11  1  0
  9  5  1  0
 10  9  2  0
 12 20  1  0
 13 18  1  0
 14 15  1  0
 14 13  1  0
 16 15  1  0
 16 25  1  0
 16 17  1  0
 18 12  1  0
 18 17  1  0
 19 12  2  0
 20 11  1  0
 20 21  1  0
 22 23  2  0
 23 42  1  0
 24 23  1  0
 24 27  1  0
 25 26  1  0
 25 22  1  0
 26 24  2  0
 27 28  1  0
 28 29  2  0
 30 33  1  0
 30 29  1  0
 31 30  2  0
 32 31  1  0
 32 27  2  0
 33 34  1  0
 34 39  2  0
 34 35  1  0
 35 36  2  0
 36 37  1  0
 37 41  1  0
 38 37  2  0
 39 38  1  0
 40 39  1  0
 42 43  1  0
 43 45  1  0
 43 46  1  0
 44 42  2  0
 47 22  1  0
 47 48  1  0
 49 47  1  0
 51 50  1  0
 52  1  1  0
 53 52  1  0
 54 53  1  0
 54 55  1  0
 56 54  1  0
 57 54  1  0
 58 57  1  0
 59 58  1  0
 59 61  1  0
 60 71  2  0
 61 66  1  0
 62 70  1  0
 62 72  1  0
 63 65  1  0
 63 69  1  0
 64 70  1  0
 65 64  1  0
 66 65  2  0
 67 61  2  0
 67 68  1  0
 68 63  2  0
 69 62  1  0
 70 60  1  0
 72 74  2  0
 73 72  1  0
 75 73  1  0
 76 85  2  0
 76 81  1  0
 77 73  1  0
 77 81  1  0
 78 77  1  0
 79 80  1  0
 79 78  1  0
 80 76  1  0
 81 82  2  0
 82 83  1  0
 84 83  2  0
 85 84  1  0
 86 60  1  0
 86 91  1  0
 86 87  1  0
 87 90  1  1
 87 88  1  0
 89 87  1  0
 91 94  1  0
 92 91  1  0
 92 96  1  0
 93 92  2  0
 96 95  1  0
 96 98  1  0
 98 99  1  0
 98 97  1  0
M  ISO  4  12 100  20 100  58 101  59 101
M  END
>  <TORSDO>  (34) 
F 25

>  <SCORE>  (34) 
-6.446

>  <name>  (34) 
36

>  <ligand_id>  (34) 
36

>  <original_smiles>  (34) 
[H]c1c([H])c([H])c2c(c1[H])C([H])([H])C([H])([H])C([H])([H])C2([H])N([H])C(=O)C1([H])N(C(=O)C([H])(N([H])C(=O)C([H])(N([H])C([H])([H])[H])C([H])([H])[H])C(C([H])([H])[H])(C([H])([H])[H])C([H])([H])[H])C([H])([H])c2c([H])c(OC([H])([H])C([H])([H])[N+]([H])([H])C([H])([H])C([H])([H])C([H])(c3c([H])c(C(=O)C([H])([H])N([H])C(=O)N4C([H])([H])C([H])([H])C([H])([H])C([H])(n5nc(-c6c([H])c([H])c(Oc7c([H])c([H])c(F)c([H])c7F)c([H])c6[H])c(C(=O)N([H])[H])c5N([H])[H])C4([H])[H])c([H])c([H])c3C([H])([H])[H])C([H])([H])C([H])([H])[H])c([H])c([H])c2C1([H])[H]

>  <smiles>  (34) 
[H]c1c([H])c([H])c2c(c1[H])C([H])([H])C([H])([H])C([H])([H])C2([H])N([H])C(=O)C1([H])N(C(=O)C([H])(N([H])C(=O)C([H])(N([H])C([H])([H])[H])C([H])([H])[H])C(C([H])([H])[H])(C([H])([H])[H])C([H])([H])[H])C([H])([H])c2c([H])c(OC([H])([H])C([H])([H])[N+]([H])([H])C([H])([H])C([H])([H])C([H])(c3c([H])c(C(=O)C([H])([H])N([H])C(=O)N4C([H])([H])C([H])([H])C([H])([H])C([H])(n5nc(-c6c([H])c([H])c(Oc7c([H])c([H])c(F)c([H])c7F)c([H])c6[H])c(C(=O)N([H])[H])c5N([H])[H])C4([H])[H])c([H])c([H])c3C([H])([H])[H])C([H])([H])C([H])([H])[H])c([H])c([H])c2C1([H])[H]

$$$$
37:0:0
     RDKit          3D

105113  0  0  1  0  0  0  0  0999 V2000
  -30.8130  -21.4490   22.2760 C   0  0  0  0  0  3  0  0  0  0  0  0
  -30.8630  -22.8170   22.6050 C   0  0  0  0  0  3  0  0  0  0  0  0
  -29.6730  -20.9140   21.6460 C   0  0  0  0  0  3  0  0  0  0  0  0
  -28.6260  -23.1120   21.6910 C   0  0  0  0  0  3  0  0  0  0  0  0
  -29.7690  -23.6620   22.3150 C   0  0  0  0  0  0  0  0  0  0  0  0
  -28.5790  -21.7490   21.3210 C   0  0  0  0  0  0  0  0  0  0  0  0
  -29.8040  -25.1050   22.7490 C   0  0  0  0  0  0  0  0  0  0  0  0
  -29.0150  -26.0000   22.1360 N   0  0  0  0  0  0  0  0  0  0  0  0
  -30.5600  -25.4540   23.6540 O   0  0  0  0  0  0  0  0  0  0  0  0
  -29.0460  -26.9350   22.5190 H   0  0  0  0  0  0  0  0  0  0  0  0
  -28.2510  -25.8540   20.8980 C   0  0  0  0  0  2  0  0  0  0  0  0
  -28.8660  -26.6900   19.7660 C   0  0  0  0  0  2  0  0  0  0  0  0
  -27.8710  -26.9340   18.7770 O   0  0  0  0  0  0  0  0  0  0  0  0
  -24.5320  -31.4620   23.2050 C   0  0  0  0  0  0  0  0  0  0  0  0
  -26.7820  -27.7120   19.0970 C   0  0  0  0  0  0  0  0  0  0  0  0
  -23.1710  -30.5240   21.3600 C   0  0  0  0  0  3  0  0  0  0  0  0
  -24.4680  -29.2660   19.5600 C   0  0  0  0  0  0  0  0  0  0  0  0
  -25.6940  -30.7960   21.1100 C   0  0  0  0  0  2  0  0  0  0  0  0
  -25.6700  -29.5910   20.1980 C   0  0  0  0  0  0  0  0  0  0  0  0
  -26.8260  -28.8160   19.9810 C   0  0  0  0  0  3  0  0  0  0  0  0
  -25.5670  -27.3990   18.4560 C   0  0  0  0  0  3  0  0  0  0  0  0
  -24.4070  -28.1630   18.6890 C   0  0  0  0  0  3  0  0  0  0  0  0
  -23.2810  -30.1550   19.8540 C   0  0  0  0  0  2  0  0  0  0  0  0
  -24.4860  -30.9250   21.9530 N   0  0  0  0  0  0  0  0  0  0  0  0
  -23.4940  -31.6680   23.8500 O   0  0  0  0  0  0  0  0  0  0  0  0
  -22.4940  -29.3520   22.1080 C   0  0  0  0  0  0  0  0  0  0  0  0
  -21.1550  -29.2950   22.0360 N   0  0  0  0  0  0  0  0  0  0  0  0
  -23.1670  -28.5090   22.7060 O   0  0  0  0  0  0  0  0  0  0  0  0
  -20.6770  -30.0330   21.5370 H   0  0  0  0  0  0  0  0  0  0  0  0
  -17.7200  -28.2820   22.5060 C   0  0  0  0  0  0  0  0  0  0  0  0
  -20.3020  -28.2630   22.6260 C   0  0  0  0  0  3  0  0  0  0  0  0
  -20.2340  -27.0130   21.7190 C   0  0  0  0  0  2  0  0  0  0  0  0
  -19.0480  -27.0350   20.7500 C   0  0  0  0  0  2  0  0  0  0  0  0
  -17.7260  -27.1250   21.5210 C   0  0  0  0  0  2  0  0  0  0  0  0
  -18.9290  -28.8270   23.0110 C   0  0  0  0  0  0  0  0  0  0  0  0
  -18.8690  -29.9270   23.8950 C   0  0  0  0  0  3  0  0  0  0  0  0
  -17.6300  -30.4750   24.2780 C   0  0  0  0  0  3  0  0  0  0  0  0
  -16.4350  -29.9200   23.7870 C   0  0  0  0  0  3  0  0  0  0  0  0
  -16.4810  -28.8260   22.9050 C   0  0  0  0  0  3  0  0  0  0  0  0
  -25.8830  -31.8620   23.8760 C   0  0  0  0  0  3  0  0  0  0  0  0
  -25.7150  -33.2060   24.4450 N   0  0  0  0  0  0  0  0  0  0  0  0
  -26.1830  -34.3290   23.8850 C   0  0  0  0  0  0  0  0  0  0  0  0
  -26.8710  -34.3320   22.8600 O   0  0  0  0  0  0  0  0  0  0  0  0
  -25.1040  -33.2860   25.2440 H   0  0  0  0  0  0  0  0  0  0  0  0
  -24.6580  -36.3270   23.8250 C   0  0  0  0  0  1  0  0  0  0  0  0
  -25.8290  -35.6640   24.5660 C   0  0  0  0  0  3  0  0  0  0  0  0
  -28.0220  -36.1540   25.5530 C   0  0  0  0  0  1  0  0  0  0  0  0
  -26.9680  -36.6040   24.6490 N   0  0  0  0  0  0  0  0  0  0  0  0
  -26.6550  -37.5200   24.9600 H   0  0  0  0  0  0  0  0  0  0  0  0
  -26.3500  -30.8390   24.9820 C   0  0  1  0  0  0  0  0  0  0  0  0
  -25.2650  -30.5240   26.0370 C   0  0  0  0  0  1  0  0  0  0  0  0
  -26.7820  -29.5030   24.3320 C   0  0  0  0  0  1  0  0  0  0  0  0
  -27.5890  -31.3970   25.7240 C   0  0  0  0  0  1  0  0  0  0  0  0
  -27.3320  -21.2240   20.6090 C   0  0  0  0  0  2  0  0  0  0  0  0
  -27.5200  -19.9530   19.7560 C   0  0  0  0  0  2  0  0  0  0  0  0
  -28.5770  -20.1110   18.7320 N   0  0  0  0  0  4  0  0  0  0  0  0
  -29.4330  -20.3510   19.2060 H   0  0  0  0  0  0  0  0  0  0  0  0
  -28.3470  -20.8700   18.1110 H   0  0  0  0  0  0  0  0  0  0  0  0
  -28.8330  -18.9030   17.9240 C   0  0  0  0  0  2  0  0  0  0  0  0
  -30.3160  -18.8260   17.4980 C   0  0  0  0  0  3  0  0  0  0  0  0
  -30.5030  -17.7630   16.5270 N   0  0  0  0  0  0  0  0  0  0  0  0
  -30.3970  -16.8620   16.9760 H   0  0  0  0  0  0  0  0  0  0  0  0
  -31.4650  -17.7720   16.2050 H   0  0  0  0  0  0  0  0  0  0  0  0
  -31.3250  -18.6450   18.6590 C   0  0  0  0  0  2  0  0  0  0  0  0
  -31.0010  -17.5270   19.6770 C   0  0  0  0  0  2  0  0  0  0  0  0
  -32.1770  -17.2480   20.6310 C   0  0  0  0  0  2  0  0  0  0  0  0
  -31.7970  -16.4170   21.8730 C   0  0  0  0  0  2  0  0  0  0  0  0
  -31.6640  -14.2050   20.7310 C   0  0  0  0  0  0  0  0  0  0  0  0
  -31.1680  -12.1330   19.4920 C   0  0  0  0  0  2  0  0  0  0  0  0
  -30.3040  -12.4480   18.2550 C   0  0  0  0  0  2  0  0  0  0  0  0
  -28.8080  -12.4650   18.6240 C   0  0  0  0  0  2  0  0  0  0  0  0
  -28.5100  -13.3300   19.8770 C   0  0  0  0  0  3  0  0  0  0  0  0
  -29.4810  -12.9750   21.0250 C   0  0  0  0  0  2  0  0  0  0  0  0
  -30.8600  -13.1310   20.5260 N   0  0  0  0  0  0  0  0  0  0  0  0
  -32.7700  -14.3400   20.1990 O   0  0  0  0  0  0  0  0  0  0  0  0
  -31.1550  -15.1500   21.5320 N   0  0  0  0  0  0  0  0  0  0  0  0
  -30.2510  -14.9610   21.9360 H   0  0  0  0  0  0  0  0  0  0  0  0
  -26.1790  -14.1960   20.5530 C   0  0  0  0  0  0  0  0  0  0  0  0
  -25.0080  -13.5470   20.8290 C   0  0  0  0  0  0  0  0  0  0  0  0
  -25.2950  -12.1520   20.7140 C   0  0  0  0  0  0  0  0  0  0  0  0
  -27.1140  -13.2060   20.2920 N   0  0  0  0  0  0  0  0  0  0  0  0
  -26.5800  -11.9660   20.4420 N   0  0  0  0  0  0  0  0  0  0  0  0
  -24.4080  -10.9840   20.7920 C   0  0  0  0  0  0  0  0  0  0  0  0
  -24.7370   -9.8570   21.5770 C   0  0  0  0  0  3  0  0  0  0  0  0
  -23.8610   -8.7540   21.6490 C   0  0  0  0  0  3  0  0  0  0  0  0
  -22.6400   -8.7700   20.9350 C   0  0  0  0  0  0  0  0  0  0  0  0
  -22.3260   -9.8840   20.1370 C   0  0  0  0  0  3  0  0  0  0  0  0
  -23.2020  -10.9800   20.0620 C   0  0  0  0  0  3  0  0  0  0  0  0
  -21.7390   -7.7320   20.9250 O   0  0  0  0  0  0  0  0  0  0  0  0
  -21.6430   -6.8510   21.9730 C   0  0  0  0  0  0  0  0  0  0  0  0
  -21.4230   -7.2890   23.2970 C   0  0  0  0  0  3  0  0  0  0  0  0
  -21.2620   -6.3460   24.3310 C   0  0  0  0  0  3  0  0  0  0  0  0
  -21.3120   -4.9690   24.0440 C   0  0  0  0  0  0  0  0  0  0  0  0
  -21.5260   -4.5310   22.7260 C   0  0  0  0  0  3  0  0  0  0  0  0
  -21.6880   -5.4710   21.6920 C   0  0  0  0  0  0  0  0  0  0  0  0
  -21.8730   -5.0450   20.4200 F   0  0  0  0  0  0  0  0  0  0  0  0
  -21.1500   -4.0630   25.0370 F   0  0  0  0  0  0  0  0  0  0  0  0
  -23.6730  -14.1800   21.0960 C   0  0  0  0  0  0  0  0  0  0  0  0
  -22.8350  -13.5320   21.8960 N   0  0  0  0  0  0  0  0  0  0  0  0
  -23.3830  -15.2830   20.6320 O   0  0  0  0  0  0  0  0  0  0  0  0
  -23.0800  -12.6370   22.2940 H   0  0  0  0  0  0  0  0  0  0  0  0
  -21.9360  -13.9360   22.1170 H   0  0  0  0  0  0  0  0  0  0  0  0
  -26.5290  -15.5420   20.4860 N   0  0  0  0  0  0  0  0  0  0  0  0
  -25.8520  -16.2860   20.6130 H   0  0  0  0  0  0  0  0  0  0  0  0
  -27.4570  -15.8730   20.2660 H   0  0  0  0  0  0  0  0  0  0  0  0
  1  2  1  0
  3  1  2  0
  4  5  1  0
  5  2  2  0
  5  7  1  0
  6  3  1  0
  6  4  2  0
  7  9  2  0
  8 10  1  0
  8  7  1  0
 11  8  1  0
 12 11  1  0
 13 15  1  0
 13 12  1  0
 14 25  2  0
 15 20  1  0
 16 24  1  0
 16 26  1  0
 17 23  1  0
 17 19  1  0
 18 24  1  0
 19 18  1  0
 20 19  2  0
 21 22  1  0
 21 15  2  0
 22 17  2  0
 23 16  1  0
 24 14  1  0
 26 28  2  0
 27 26  1  0
 29 27  1  0
 30 39  2  0
 30 35  1  0
 31 27  1  0
 31 35  1  0
 32 31  1  0
 33 34  1  0
 33 32  1  0
 34 30  1  0
 35 36  2  0
 36 37  1  0
 38 37  2  0
 39 38  1  0
 40 14  1  0
 40 41  1  0
 40 50  1  0
 41 44  1  0
 42 41  1  0
 42 46  1  0
 43 42  2  0
 46 45  1  0
 46 48  1  0
 48 49  1  0
 48 47  1  0
 50 53  1  1
 50 51  1  0
 52 50  1  0
 54  6  1  0
 55 54  1  0
 56 57  1  0
 56 55  1  0
 58 56  1  0
 59 56  1  0
 60 59  1  0
 60 64  1  0
 61 62  1  0
 61 60  1  0
 63 61  1  0
 64 65  1  0
 65 66  1  0
 66 67  1  0
 68 76  1  0
 69 74  1  0
 70 71  1  0
 70 69  1  0
 72 71  1  0
 72 81  1  0
 72 73  1  0
 74 68  1  0
 74 73  1  0
 75 68  2  0
 76 67  1  0
 76 77  1  0
 78 79  2  0
 79 98  1  0
 80 83  1  0
 80 79  1  0
 81 82  1  0
 81 78  1  0
 82 80  2  0
 83 84  1  0
 84 85  2  0
 86 85  1  0
 87 86  2  0
 88 87  1  0
 88 83  2  0
 89 86  1  0
 89 90  1  0
 90 91  1  0
 91 92  2  0
 93 92  1  0
 93 97  1  0
 94 93  2  0
 95 90  2  0
 95 94  1  0
 96 95  1  0
 98 99  1  0
 99102  1  0
 99101  1  0
100 98  2  0
103 78  1  0
103104  1  0
105103  1  0
M  ISO  4  12 101  13 101  68 100  76 100
M  END
>  <TORSDO>  (35) 
F 29

>  <SCORE>  (35) 
-7.997

>  <name>  (35) 
37

>  <ligand_id>  (35) 
37

>  <original_smiles>  (35) 
[H]c1c([H])c([H])c2c(c1[H])C([H])([H])C([H])([H])C([H])([H])C2([H])N([H])C(=O)C1([H])N(C(=O)C([H])(N([H])C(=O)C([H])(N([H])C([H])([H])[H])C([H])([H])[H])C(C([H])([H])[H])(C([H])([H])[H])C([H])([H])[H])C([H])([H])c2c([H])c(OC([H])([H])C([H])([H])N([H])C(=O)c3c([H])c([H])c([H])c(C([H])([H])C([H])([H])[N+]([H])([H])C([H])([H])C([H])(N([H])[H])C([H])([H])C([H])([H])C([H])([H])C([H])([H])N([H])C(=O)N4C([H])([H])C([H])([H])C([H])([H])C([H])(n5nc(-c6c([H])c([H])c(Oc7c([H])c([H])c(F)c([H])c7F)c([H])c6[H])c(C(=O)N([H])[H])c5N([H])[H])C4([H])[H])c3[H])c([H])c([H])c2C1([H])[H]

>  <smiles>  (35) 
[H]c1c([H])c([H])c2c(c1[H])C([H])([H])C([H])([H])C([H])([H])C2([H])N([H])C(=O)C1([H])N(C(=O)C([H])(N([H])C(=O)C([H])(N([H])C([H])([H])[H])C([H])([H])[H])C(C([H])([H])[H])(C([H])([H])[H])C([H])([H])[H])C([H])([H])c2c([H])c(OC([H])([H])C([H])([H])N([H])C(=O)c3c([H])c([H])c([H])c(C([H])([H])C([H])([H])[N+]([H])([H])C([H])([H])C([H])(N([H])[H])C([H])([H])C([H])([H])C([H])([H])C([H])([H])N([H])C(=O)N4C([H])([H])C([H])([H])C([H])([H])C([H])(n5nc(-c6c([H])c([H])c(Oc7c([H])c([H])c(F)c([H])c7F)c([H])c6[H])c(C(=O)N([H])[H])c5N([H])[H])C4([H])[H])c3[H])c([H])c([H])c2C1([H])[H]

$$$$
38:0:0
     RDKit          3D

 95102  0  0  1  0  0  0  0  0999 V2000
  -27.7670  -22.9630   19.1580 C   0  0  0  0  0  3  0  0  0  0  0  0
  -28.9620  -23.2750   18.6240 C   0  0  0  0  0  3  0  0  0  0  0  0
  -27.0690  -21.7120   18.8620 C   0  0  0  0  0  3  0  0  0  0  0  0
  -27.6570  -20.6980   18.3650 N   0  0  0  0  0  0  0  0  0  0  0  0
  -26.8820  -19.4730   18.2910 C   0  0  0  0  0  2  0  0  0  0  0  0
  -26.9600  -18.7290   19.6360 C   0  0  0  0  0  2  0  0  0  0  0  0
  -28.3640  -18.4760   20.0330 N   0  0  0  0  0  4  0  0  0  0  0  0
  -28.5720  -19.0630   20.8240 H   0  0  0  0  0  0  0  0  0  0  0  0
  -28.9510  -18.7840   19.2720 H   0  0  0  0  0  0  0  0  0  0  0  0
  -28.6190  -17.0620   20.3750 C   0  0  0  0  0  2  0  0  0  0  0  0
  -30.0390  -16.7430   20.8830 C   0  0  0  0  0  2  0  0  0  0  0  0
  -30.7530  -14.3910   20.4670 C   0  0  0  0  0  0  0  0  0  0  0  0
  -30.4360  -12.2700   19.2580 C   0  0  0  0  0  2  0  0  0  0  0  0
  -29.4860  -12.5050   18.0630 C   0  0  0  0  0  2  0  0  0  0  0  0
  -28.0130  -12.3780   18.4950 C   0  0  0  0  0  2  0  0  0  0  0  0
  -27.6930  -13.2020   19.7690 C   0  0  0  0  0  3  0  0  0  0  0  0
  -28.7420  -12.9200   20.8700 C   0  0  0  0  0  2  0  0  0  0  0  0
  -30.0820  -13.2170   20.3230 N   0  0  0  0  0  0  0  0  0  0  0  0
  -31.8090  -14.6580   19.8900 O   0  0  0  0  0  0  0  0  0  0  0  0
  -30.0810  -15.3080   21.1720 N   0  0  0  0  0  0  0  0  0  0  0  0
  -29.2900  -14.9430   21.6830 H   0  0  0  0  0  0  0  0  0  0  0  0
  -25.2980  -13.8520   20.4620 C   0  0  0  0  0  0  0  0  0  0  0  0
  -24.2190  -13.1000   20.8380 C   0  0  0  0  0  0  0  0  0  0  0  0
  -24.6590  -11.7420   20.8060 C   0  0  0  0  0  0  0  0  0  0  0  0
  -26.3300  -12.9560   20.2370 N   0  0  0  0  0  0  0  0  0  0  0  0
  -25.9470  -11.6810   20.4970 N   0  0  0  0  0  0  0  0  0  0  0  0
  -23.9170  -10.4900   20.9900 C   0  0  0  0  0  0  0  0  0  0  0  0
  -24.3350   -9.5200   21.9270 C   0  0  0  0  0  3  0  0  0  0  0  0
  -23.5920   -8.3340   22.1030 C   0  0  0  0  0  3  0  0  0  0  0  0
  -22.4190   -8.1100   21.3430 C   0  0  0  0  0  0  0  0  0  0  0  0
  -22.0220   -9.0700   20.3970 C   0  0  0  0  0  3  0  0  0  0  0  0
  -22.7650  -10.2490   20.2170 C   0  0  0  0  0  3  0  0  0  0  0  0
  -21.6520   -6.9730   21.4290 O   0  0  0  0  0  0  0  0  0  0  0  0
  -21.5820   -6.2390   22.5850 C   0  0  0  0  0  0  0  0  0  0  0  0
  -21.1370   -6.8000   23.8010 C   0  0  0  0  0  3  0  0  0  0  0  0
  -21.0070   -5.9870   24.9450 C   0  0  0  0  0  3  0  0  0  0  0  0
  -21.3200   -4.6160   24.8760 C   0  0  0  0  0  0  0  0  0  0  0  0
  -21.7640   -4.0560   23.6650 C   0  0  0  0  0  3  0  0  0  0  0  0
  -21.8900   -4.8630   22.5220 C   0  0  0  0  0  0  0  0  0  0  0  0
  -22.2930   -4.3140   21.3510 F   0  0  0  0  0  0  0  0  0  0  0  0
  -21.1910   -3.8330   25.9730 F   0  0  0  0  0  0  0  0  0  0  0  0
  -22.8280  -13.5970   21.1050 C   0  0  0  0  0  0  0  0  0  0  0  0
  -22.0880  -12.9140   21.9710 N   0  0  0  0  0  0  0  0  0  0  0  0
  -22.4050  -14.6280   20.5810 O   0  0  0  0  0  0  0  0  0  0  0  0
  -22.4440  -12.0860   22.4260 H   0  0  0  0  0  0  0  0  0  0  0  0
  -21.1520  -13.2270   22.1830 H   0  0  0  0  0  0  0  0  0  0  0  0
  -25.4780  -15.2170   20.2620 N   0  0  0  0  0  0  0  0  0  0  0  0
  -24.6390  -15.7830   20.2070 H   0  0  0  0  0  0  0  0  0  0  0  0
  -26.1710  -15.4920   19.5800 H   0  0  0  0  0  0  0  0  0  0  0  0
  -29.7070  -24.4920   18.9760 C   0  0  0  0  0  0  0  0  0  0  0  0
  -30.2610  -25.1660   18.1040 O   0  0  0  0  0  0  0  0  0  0  0  0
  -30.2590  -23.7690   21.3720 C   0  0  0  0  0  1  0  0  0  0  0  0
  -29.8610  -24.9340   20.4470 C   0  0  0  0  0  3  0  0  0  0  0  0
  -28.6660  -25.7440   20.9950 C   0  0  0  0  0  2  0  0  0  0  0  0
  -28.4570  -26.8490   20.1330 O   0  0  0  0  0  0  0  0  0  0  0  0
  -24.5790  -31.9100   23.2610 C   0  0  0  0  0  0  0  0  0  0  0  0
  -27.2510  -27.4860   20.2320 C   0  0  0  0  0  0  0  0  0  0  0  0
  -23.3750  -30.4890   21.6280 C   0  0  0  0  0  3  0  0  0  0  0  0
  -24.8370  -28.9340   20.2330 C   0  0  0  0  0  0  0  0  0  0  0  0
  -25.8950  -30.8650   21.4260 C   0  0  0  0  0  2  0  0  0  0  0  0
  -25.9860  -29.4860   20.8140 C   0  0  0  0  0  0  0  0  0  0  0  0
  -27.1970  -28.7670   20.8110 C   0  0  0  0  0  3  0  0  0  0  0  0
  -26.0910  -26.9250   19.6610 C   0  0  0  0  0  3  0  0  0  0  0  0
  -24.8820  -27.6500   19.6570 C   0  0  0  0  0  3  0  0  0  0  0  0
  -23.5890  -29.7870   20.2590 C   0  0  0  0  0  2  0  0  0  0  0  0
  -24.6330  -31.1020   22.1650 N   0  0  0  0  0  0  0  0  0  0  0  0
  -23.4990  -32.1860   23.8010 O   0  0  0  0  0  0  0  0  0  0  0  0
  -22.7260  -29.4790   22.6000 C   0  0  0  0  0  0  0  0  0  0  0  0
  -21.4030  -29.2870   22.4650 N   0  0  0  0  0  0  0  0  0  0  0  0
  -23.4080  -28.8670   23.4260 O   0  0  0  0  0  0  0  0  0  0  0  0
  -20.9150  -29.8320   21.7690 H   0  0  0  0  0  0  0  0  0  0  0  0
  -18.0310  -28.0830   22.9490 C   0  0  0  0  0  0  0  0  0  0  0  0
  -20.5850  -28.3550   23.2400 C   0  0  0  0  0  3  0  0  0  0  0  0
  -20.6990  -26.9160   22.6840 C   0  0  0  0  0  2  0  0  0  0  0  0
  -19.6070  -26.5780   21.6640 C   0  0  0  0  0  2  0  0  0  0  0  0
  -18.2200  -26.7260   22.2940 C   0  0  0  0  0  2  0  0  0  0  0  0
  -19.1430  -28.8550   23.3800 C   0  0  0  0  0  0  0  0  0  0  0  0
  -18.9140  -30.1240   23.9510 C   0  0  0  0  0  3  0  0  0  0  0  0
  -17.6070  -30.6240   24.1000 C   0  0  0  0  0  3  0  0  0  0  0  0
  -16.5100  -29.8480   23.6860 C   0  0  0  0  0  3  0  0  0  0  0  0
  -16.7230  -28.5810   23.1160 C   0  0  0  0  0  3  0  0  0  0  0  0
  -25.8660  -32.5460   23.8760 C   0  0  0  0  0  3  0  0  0  0  0  0
  -26.3850  -31.7880   25.1600 C   0  0  1  0  0  0  0  0  0  0  0  0
  -25.2930  -31.5590   26.2310 C   0  0  0  0  0  1  0  0  0  0  0  0
  -26.9680  -30.4070   24.7780 C   0  0  0  0  0  1  0  0  0  0  0  0
  -27.5350  -32.5910   25.8140 C   0  0  0  0  0  1  0  0  0  0  0  0
  -25.5580  -33.9470   24.1870 N   0  0  0  0  0  0  0  0  0  0  0  0
  -25.9140  -34.9900   23.4230 C   0  0  0  0  0  0  0  0  0  0  0  0
  -26.6040  -34.8740   22.4080 O   0  0  0  0  0  0  0  0  0  0  0  0
  -24.9520  -34.1130   24.9770 H   0  0  0  0  0  0  0  0  0  0  0  0
  -24.2200  -36.7990   22.9990 C   0  0  0  0  0  1  0  0  0  0  0  0
  -25.4250  -36.3850   23.8580 C   0  0  0  0  0  3  0  0  0  0  0  0
  -27.5350  -37.2490   24.7690 C   0  0  0  0  0  1  0  0  0  0  0  0
  -26.4730  -37.4260   23.7820 N   0  0  0  0  0  0  0  0  0  0  0  0
  -26.0710  -38.3510   23.9120 H   0  0  0  0  0  0  0  0  0  0  0  0
  2 50  1  0
  2  1  2  0
  3  1  1  0
  4  3  2  0
  5  4  1  0
  5  6  1  0
  6  7  1  0
  7 10  1  0
  7  8  1  0
  9  7  1  0
 10 11  1  0
 11 20  1  0
 12 20  1  0
 13 18  1  0
 14 15  1  0
 14 13  1  0
 16 15  1  0
 16 25  1  0
 16 17  1  0
 18 12  1  0
 18 17  1  0
 19 12  2  0
 20 21  1  0
 22 23  2  0
 23 42  1  0
 24 23  1  0
 24 27  1  0
 25 22  1  0
 25 26  1  0
 26 24  2  0
 27 28  1  0
 28 29  2  0
 30 33  1  0
 30 29  1  0
 31 30  2  0
 32 31  1  0
 32 27  2  0
 33 34  1  0
 34 35  1  0
 35 36  2  0
 37 36  1  0
 37 41  1  0
 38 37  2  0
 39 34  2  0
 39 38  1  0
 40 39  1  0
 42 43  1  0
 43 46  1  0
 43 45  1  0
 44 42  2  0
 47 22  1  0
 48 47  1  0
 49 47  1  0
 50 53  1  0
 51 50  2  0
 53 54  1  0
 53 52  1  0
 55 57  1  0
 55 54  1  0
 56 67  2  0
 57 62  1  0
 58 66  1  0
 58 68  1  0
 59 65  1  0
 59 61  1  0
 60 66  1  0
 61 60  1  0
 62 61  2  0
 63 57  2  0
 64 63  1  0
 64 59  2  0
 65 58  1  0
 66 56  1  0
 68 70  2  0
 69 68  1  0
 71 69  1  0
 72 81  2  0
 72 77  1  0
 73 69  1  0
 73 77  1  0
 74 73  1  0
 75 76  1  0
 75 74  1  0
 76 72  1  0
 77 78  2  0
 78 79  1  0
 80 79  2  0
 81 80  1  0
 82 56  1  0
 82 87  1  0
 82 83  1  0
 83 86  1  1
 83 84  1  0
 85 83  1  0
 87 90  1  0
 88 92  1  0
 88 87  1  0
 89 88  2  0
 92 91  1  0
 94 92  1  0
 94 95  1  0
 94 93  1  0
M  ISO  4  12 100  20 100  54 101  55 101
M  END
>  <TORSDO>  (36) 
F 25

>  <SCORE>  (36) 
-12.161

>  <name>  (36) 
38

>  <ligand_id>  (36) 
38

>  <original_smiles>  (36) 
[H]C(=NC([H])([H])C([H])([H])[N+]([H])([H])C([H])([H])C([H])([H])N([H])C(=O)N1C([H])([H])C([H])([H])C([H])([H])C([H])(n2nc(-c3c([H])c([H])c(Oc4c([H])c([H])c(F)c([H])c4F)c([H])c3[H])c(C(=O)N([H])[H])c2N([H])[H])C1([H])[H])C([H])=C([H])C(=O)C([H])(C([H])([H])[H])C([H])([H])Oc1c([H])c([H])c2c(c1[H])C([H])([H])N(C(=O)C([H])(N([H])C(=O)C([H])(N([H])C([H])([H])[H])C([H])([H])[H])C(C([H])([H])[H])(C([H])([H])[H])C([H])([H])[H])C([H])(C(=O)N([H])C1([H])c3c([H])c([H])c([H])c([H])c3C([H])([H])C([H])([H])C1([H])[H])C2([H])[H]

>  <smiles>  (36) 
[H]C(=NC([H])([H])C([H])([H])[N+]([H])([H])C([H])([H])C([H])([H])N([H])C(=O)N1C([H])([H])C([H])([H])C([H])([H])C([H])(n2nc(-c3c([H])c([H])c(Oc4c([H])c([H])c(F)c([H])c4F)c([H])c3[H])c(C(=O)N([H])[H])c2N([H])[H])C1([H])[H])C([H])=C([H])C(=O)C([H])(C([H])([H])[H])C([H])([H])Oc1c([H])c([H])c2c(c1[H])C([H])([H])N(C(=O)C([H])(N([H])C(=O)C([H])(N([H])C([H])([H])[H])C([H])([H])[H])C(C([H])([H])[H])(C([H])([H])[H])C([H])([H])[H])C([H])(C(=O)N([H])C1([H])c3c([H])c([H])c([H])c([H])c3C([H])([H])C([H])([H])C1([H])[H])C2([H])[H]

$$$$
39:0:0
     RDKit          3D

103111  0  0  1  0  0  0  0  0999 V2000
  -29.9650  -18.8050   23.5360 C   0  0  0  0  0  3  0  0  0  0  0  0
  -32.2060  -19.0420   22.6140 C   0  0  0  0  0  3  0  0  0  0  0  0
  -30.1460  -17.4030   23.6150 C   0  0  0  0  0  3  0  0  0  0  0  0
  -32.3960  -17.6520   22.7090 C   0  0  0  0  0  3  0  0  0  0  0  0
  -30.9760  -19.6350   22.9940 C   0  0  0  0  0  0  0  0  0  0  0  0
  -31.3620  -16.8200   23.1840 C   0  0  0  0  0  0  0  0  0  0  0  0
  -30.8080  -21.1290   22.8730 C   0  0  0  0  0  0  0  0  0  0  0  0
  -29.8610  -21.6030   22.0380 N   0  0  0  0  0  0  0  0  0  0  0  0
  -31.5730  -21.8820   23.4820 O   0  0  0  0  0  0  0  0  0  0  0  0
  -29.2820  -20.9400   21.5370 H   0  0  0  0  0  0  0  0  0  0  0  0
  -29.6290  -23.0420   21.8730 C   0  0  0  0  0  2  0  0  0  0  0  0
  -28.7650  -23.4500   20.6620 C   0  0  0  0  0  2  0  0  0  0  0  0
  -28.7820  -24.9930   20.4800 C   0  0  0  0  0  2  0  0  0  0  0  0
  -28.0940  -25.5120   19.2030 C   0  0  0  0  0  2  0  0  0  0  0  0
  -28.0840  -26.9530   19.1870 O   0  0  0  0  0  0  0  0  0  0  0  0
  -24.4470  -31.6590   23.0820 C   0  0  0  0  0  0  0  0  0  0  0  0
  -26.8840  -27.6180   19.3460 C   0  0  0  0  0  0  0  0  0  0  0  0
  -23.1170  -30.3780   21.4390 C   0  0  0  0  0  3  0  0  0  0  0  0
  -24.4580  -29.0420   19.7300 C   0  0  0  0  0  0  0  0  0  0  0  0
  -25.5960  -30.8510   21.0190 C   0  0  0  0  0  2  0  0  0  0  0  0
  -25.6560  -29.5450   20.2490 C   0  0  0  0  0  0  0  0  0  0  0  0
  -26.8690  -28.8430   20.0580 C   0  0  0  0  0  3  0  0  0  0  0  0
  -25.6650  -27.1420   18.8050 C   0  0  0  0  0  3  0  0  0  0  0  0
  -24.4590  -27.8380   19.0040 C   0  0  0  0  0  3  0  0  0  0  0  0
  -23.1970  -29.8430   19.9860 C   0  0  0  0  0  2  0  0  0  0  0  0
  -24.4130  -30.9660   21.9090 N   0  0  0  0  0  0  0  0  0  0  0  0
  -23.4220  -31.8390   23.7550 O   0  0  0  0  0  0  0  0  0  0  0  0
  -22.5950  -29.2440   22.3520 C   0  0  0  0  0  0  0  0  0  0  0  0
  -21.2890  -28.9430   22.2430 N   0  0  0  0  0  0  0  0  0  0  0  0
  -23.3570  -28.6440   23.1150 O   0  0  0  0  0  0  0  0  0  0  0  0
  -20.7370  -29.4750   21.5840 H   0  0  0  0  0  0  0  0  0  0  0  0
  -18.0790  -27.3480   22.6670 C   0  0  0  0  0  0  0  0  0  0  0  0
  -20.5880  -27.8950   22.9780 C   0  0  0  0  0  3  0  0  0  0  0  0
  -20.8660  -26.5070   22.3550 C   0  0  0  0  0  2  0  0  0  0  0  0
  -19.8140  -26.0890   21.3230 C   0  0  0  0  0  2  0  0  0  0  0  0
  -18.4190  -26.0510   21.9530 C   0  0  0  0  0  2  0  0  0  0  0  0
  -19.0980  -28.2190   23.1350 C   0  0  0  0  0  0  0  0  0  0  0  0
  -18.7280  -29.4320   23.7600 C   0  0  0  0  0  3  0  0  0  0  0  0
  -17.3700  -29.7700   23.9270 C   0  0  0  0  0  3  0  0  0  0  0  0
  -16.3670  -28.8950   23.4810 C   0  0  0  0  0  3  0  0  0  0  0  0
  -16.7240  -27.6860   22.8530 C   0  0  0  0  0  3  0  0  0  0  0  0
  -25.7720  -32.2740   23.6320 C   0  0  0  0  0  3  0  0  0  0  0  0
  -25.4920  -33.6560   24.0320 N   0  0  0  0  0  0  0  0  0  0  0  0
  -25.8150  -34.7370   23.3100 C   0  0  0  0  0  0  0  0  0  0  0  0
  -26.4590  -34.6720   22.2600 O   0  0  0  0  0  0  0  0  0  0  0  0
  -24.9190  -33.7830   24.8530 H   0  0  0  0  0  0  0  0  0  0  0  0
  -24.1230  -36.5730   23.0380 C   0  0  0  0  0  1  0  0  0  0  0  0
  -25.3520  -36.1100   23.8370 C   0  0  0  0  0  3  0  0  0  0  0  0
  -27.5040  -36.8970   24.7150 C   0  0  0  0  0  1  0  0  0  0  0  0
  -26.4070  -37.1460   23.7840 N   0  0  0  0  0  0  0  0  0  0  0  0
  -26.0190  -38.0640   23.9910 H   0  0  0  0  0  0  0  0  0  0  0  0
  -26.3830  -31.4520   24.8300 C   0  0  1  0  0  0  0  0  0  0  0  0
  -25.3520  -31.0900   25.9250 C   0  0  0  0  0  1  0  0  0  0  0  0
  -27.0040  -30.1340   24.3150 C   0  0  0  0  0  1  0  0  0  0  0  0
  -27.5250  -32.2580   25.4890 C   0  0  0  0  0  1  0  0  0  0  0  0
  -31.5670  -15.3060   23.2020 C   0  0  0  0  0  2  0  0  0  0  0  0
  -31.3080  -14.6740   21.8200 C   0  0  0  0  0  2  0  0  0  0  0  0
  -31.7570  -13.2070   21.6540 C   0  0  0  0  0  2  0  0  0  0  0  0
  -32.0220  -12.8620   20.2380 N   0  0  0  0  0  4  0  0  0  0  0  0
  -31.5710  -13.5200   19.6330 H   0  0  0  0  0  0  0  0  0  0  0  0
  -31.5700  -11.9730   20.0780 H   0  0  0  0  0  0  0  0  0  0  0  0
  -33.4380  -12.6670   19.8370 C   0  0  0  0  0  2  0  0  0  0  0  0
  -34.3710  -13.9000   19.9660 C   0  0  0  0  0  2  0  0  0  0  0  0
  -34.1790  -15.0570   18.9570 C   0  0  0  0  0  2  0  0  0  0  0  0
  -32.7670  -15.6760   18.8570 C   0  0  0  0  0  2  0  0  0  0  0  0
  -31.2720  -13.9860   17.8330 C   0  0  0  0  0  0  0  0  0  0  0  0
  -30.4740  -11.7520   17.2120 C   0  0  0  0  0  2  0  0  0  0  0  0
  -29.1770  -11.8010   16.3990 C   0  0  0  0  0  2  0  0  0  0  0  0
  -27.9750  -11.7510   17.3500 C   0  0  0  0  0  2  0  0  0  0  0  0
  -28.0620  -12.8110   18.4740 C   0  0  0  0  0  3  0  0  0  0  0  0
  -29.4540  -12.8370   19.1520 C   0  0  0  0  0  2  0  0  0  0  0  0
  -30.5090  -12.9060   18.1220 N   0  0  0  0  0  0  0  0  0  0  0  0
  -31.7580  -14.2000   16.7190 O   0  0  0  0  0  0  0  0  0  0  0  0
  -31.6980  -14.6700   18.9030 N   0  0  0  0  0  0  0  0  0  0  0  0
  -31.2670  -14.4630   19.7870 H   0  0  0  0  0  0  0  0  0  0  0  0
  -26.3630  -13.5570   20.2620 C   0  0  0  0  0  0  0  0  0  0  0  0
  -25.3750  -12.8880   20.9310 C   0  0  0  0  0  0  0  0  0  0  0  0
  -25.4380  -11.5360   20.4780 C   0  0  0  0  0  0  0  0  0  0  0  0
  -26.9880  -12.6200   19.4520 N   0  0  0  0  0  0  0  0  0  0  0  0
  -26.4510  -11.3820   19.6290 N   0  0  0  0  0  0  0  0  0  0  0  0
  -24.5620  -10.3910   20.7650 C   0  0  0  0  0  0  0  0  0  0  0  0
  -24.8710   -9.4610   21.7810 C   0  0  0  0  0  3  0  0  0  0  0  0
  -24.0050   -8.3800   22.0510 C   0  0  0  0  0  3  0  0  0  0  0  0
  -22.8120   -8.2230   21.3080 C   0  0  0  0  0  0  0  0  0  0  0  0
  -22.5180   -9.1410   20.2860 C   0  0  0  0  0  3  0  0  0  0  0  0
  -23.3820  -10.2140   20.0130 C   0  0  0  0  0  3  0  0  0  0  0  0
  -21.9220   -7.1900   21.4830 O   0  0  0  0  0  0  0  0  0  0  0  0
  -21.4740   -6.8350   22.7300 C   0  0  0  0  0  0  0  0  0  0  0  0
  -20.7530   -7.7330   23.5470 C   0  0  0  0  0  3  0  0  0  0  0  0
  -20.2500   -7.3040   24.7920 C   0  0  0  0  0  3  0  0  0  0  0  0
  -20.4600   -5.9790   25.2160 C   0  0  0  0  0  0  0  0  0  0  0  0
  -21.1700   -5.0810   24.3990 C   0  0  0  0  0  3  0  0  0  0  0  0
  -21.6750   -5.5080   23.1600 C   0  0  0  0  0  0  0  0  0  0  0  0
  -22.3450   -4.6360   22.3700 F   0  0  0  0  0  0  0  0  0  0  0  0
  -19.9660   -5.5620   26.4070 F   0  0  0  0  0  0  0  0  0  0  0  0
  -24.3700  -13.4900   21.8690 C   0  0  0  0  0  0  0  0  0  0  0  0
  -23.9090  -12.7240   22.8530 N   0  0  0  0  0  0  0  0  0  0  0  0
  -24.0230  -14.6660   21.7670 O   0  0  0  0  0  0  0  0  0  0  0  0
  -24.2100  -11.7640   22.9510 H   0  0  0  0  0  0  0  0  0  0  0  0
  -23.2500  -13.1020   23.5180 H   0  0  0  0  0  0  0  0  0  0  0  0
  -26.7650  -14.8870   20.2620 N   0  0  0  0  0  0  0  0  0  0  0  0
  -26.2740  -15.5800   20.8170 H   0  0  0  0  0  0  0  0  0  0  0  0
  -27.4880  -15.2830   19.6780 H   0  0  0  0  0  0  0  0  0  0  0  0
  1  3  1  0
  2  4  2  0
  2  5  1  0
  4  6  1  0
  5  1  2  0
  6 56  1  0
  6  3  2  0
  7  5  1  0
  7  9  2  0
  8  7  1  0
 10  8  1  0
 11  8  1  0
 12 11  1  0
 13 12  1  0
 14 13  1  0
 15 14  1  0
 15 17  1  0
 16 27  2  0
 17 22  1  0
 18 26  1  0
 18 28  1  0
 19 25  1  0
 19 21  1  0
 20 26  1  0
 21 20  1  0
 22 21  2  0
 23 24  1  0
 23 17  2  0
 24 19  2  0
 25 18  1  0
 26 16  1  0
 28 30  2  0
 29 28  1  0
 31 29  1  0
 32 41  2  0
 32 37  1  0
 33 29  1  0
 33 37  1  0
 34 33  1  0
 35 36  1  0
 35 34  1  0
 36 32  1  0
 37 38  2  0
 38 39  1  0
 40 39  2  0
 41 40  1  0
 42 16  1  0
 42 43  1  0
 42 52  1  0
 43 46  1  0
 44 48  1  0
 44 43  1  0
 45 44  2  0
 48 47  1  0
 50 48  1  0
 50 51  1  0
 50 49  1  0
 52 55  1  1
 52 53  1  0
 54 52  1  0
 57 56  1  0
 58 57  1  0
 59 58  1  0
 60 59  1  0
 61 59  1  0
 62 63  1  0
 62 59  1  0
 64 63  1  0
 65 74  1  0
 65 64  1  0
 66 72  1  0
 66 74  1  0
 67 72  1  0
 68 67  1  0
 68 69  1  0
 70 69  1  0
 70 71  1  0
 70 79  1  0
 72 71  1  0
 73 66  2  0
 74 75  1  0
 76 77  2  0
 77 96  1  0
 78 81  1  0
 78 77  1  0
 79 80  1  0
 79 76  1  0
 80 78  2  0
 81 82  1  0
 82 83  2  0
 84 87  1  0
 84 83  1  0
 85 84  2  0
 86 85  1  0
 86 81  2  0
 87 88  1  0
 88 93  2  0
 88 89  1  0
 89 90  2  0
 90 91  1  0
 91 95  1  0
 92 91  2  0
 93 92  1  0
 94 93  1  0
 96 97  1  0
 97 99  1  0
 97100  1  0
 98 96  2  0
101 76  1  0
101102  1  0
103101  1  0
M  ISO  4  14 101  15 101  66 100  74 100
M  END
>  <TORSDO>  (37) 
F 29

>  <SCORE>  (37) 
3.561

>  <name>  (37) 
39

>  <ligand_id>  (37) 
39

>  <original_smiles>  (37) 
[H]c1c([H])c([H])c2c(c1[H])C([H])([H])C([H])([H])C([H])([H])C2([H])N([H])C(=O)C1([H])N(C(=O)C([H])(N([H])C(=O)C([H])(N([H])C([H])([H])[H])C([H])([H])[H])C(C([H])([H])[H])(C([H])([H])[H])C([H])([H])[H])C([H])([H])c2c([H])c(OC([H])([H])C([H])([H])C([H])([H])C([H])([H])N([H])C(=O)c3c([H])c([H])c(C([H])([H])C([H])([H])C([H])([H])[N+]([H])([H])C([H])([H])C([H])([H])C([H])([H])C([H])([H])N([H])C(=O)N4C([H])([H])C([H])([H])C([H])([H])C([H])(n5nc(-c6c([H])c([H])c(Oc7c([H])c([H])c(F)c([H])c7F)c([H])c6[H])c(C(=O)N([H])[H])c5N([H])[H])C4([H])[H])c([H])c3[H])c([H])c([H])c2C1([H])[H]

>  <smiles>  (37) 
[H]c1c([H])c([H])c2c(c1[H])C([H])([H])C([H])([H])C([H])([H])C2([H])N([H])C(=O)C1([H])N(C(=O)C([H])(N([H])C(=O)C([H])(N([H])C([H])([H])[H])C([H])([H])[H])C(C([H])([H])[H])(C([H])([H])[H])C([H])([H])[H])C([H])([H])c2c([H])c(OC([H])([H])C([H])([H])C([H])([H])C([H])([H])N([H])C(=O)c3c([H])c([H])c(C([H])([H])C([H])([H])C([H])([H])[N+]([H])([H])C([H])([H])C([H])([H])C([H])([H])C([H])([H])N([H])C(=O)N4C([H])([H])C([H])([H])C([H])([H])C([H])(n5nc(-c6c([H])c([H])c(Oc7c([H])c([H])c(F)c([H])c7F)c([H])c6[H])c(C(=O)N([H])[H])c5N([H])[H])C4([H])[H])c([H])c3[H])c([H])c([H])c2C1([H])[H]

$$$$
40:0:0
     RDKit          3D

102110  0  0  1  0  0  0  0  0999 V2000
  -29.1020  -21.1350   18.7510 C   0  0  0  0  0  3  0  0  0  0  0  0
  -29.4080  -19.9850   18.0080 C   0  0  0  0  0  3  0  0  0  0  0  0
  -27.1600  -20.0010   19.6930 C   0  0  0  0  0  3  0  0  0  0  0  0
  -27.9850  -21.1440   19.6090 C   0  0  0  0  0  0  0  0  0  0  0  0
  -28.5970  -18.8360   18.1030 C   0  0  0  0  0  0  0  0  0  0  0  0
  -27.4500  -18.8490   18.9330 C   0  0  0  0  0  0  0  0  0  0  0  0
  -26.5270  -17.6460   19.0240 C   0  0  0  0  0  1  0  0  0  0  0  0
  -26.4080  -22.3540   21.2360 C   0  0  0  0  0  1  0  0  0  0  0  0
  -27.7410  -22.3760   20.4610 C   0  0  0  0  0  3  0  0  0  0  0  0
  -28.9050  -22.5470   21.3520 N   0  0  0  0  0  4  0  0  0  0  0  0
  -28.5850  -22.5040   22.3060 H   0  0  0  0  0  0  0  0  0  0  0  0
  -29.5100  -21.7530   21.2050 H   0  0  0  0  0  0  0  0  0  0  0  0
  -29.6860  -23.7810   21.1080 C   0  0  0  0  0  2  0  0  0  0  0  0
  -30.3840  -24.3030   22.3780 C   0  0  0  0  0  2  0  0  0  0  0  0
  -30.6760  -25.6930   22.2380 O   0  0  0  0  0  0  0  0  0  0  0  0
  -26.1440  -28.4420   26.9850 C   0  0  0  0  0  0  0  0  0  0  0  0
  -29.6030  -26.5160   22.4710 C   0  0  0  0  0  0  0  0  0  0  0  0
  -25.5920  -28.8410   24.6050 C   0  0  0  0  0  3  0  0  0  0  0  0
  -27.4180  -28.2390   22.9320 C   0  0  0  0  0  0  0  0  0  0  0  0
  -28.0150  -28.5030   25.3460 C   0  0  0  0  0  2  0  0  0  0  0  0
  -28.2830  -27.9050   23.9820 C   0  0  0  0  0  0  0  0  0  0  0  0
  -29.3740  -27.0400   23.7590 C   0  0  0  0  0  3  0  0  0  0  0  0
  -28.7390  -26.8780   21.4150 C   0  0  0  0  0  3  0  0  0  0  0  0
  -27.6360  -27.7210   21.6440 C   0  0  0  0  0  3  0  0  0  0  0  0
  -26.2800  -29.1790   23.2560 C   0  0  0  0  0  2  0  0  0  0  0  0
  -26.5780  -28.5610   25.6990 N   0  0  0  0  0  0  0  0  0  0  0  0
  -24.9510  -28.6020   27.2740 O   0  0  0  0  0  0  0  0  0  0  0  0
  -24.5940  -27.6850   24.3730 C   0  0  0  0  0  0  0  0  0  0  0  0
  -23.5620  -27.9430   23.5520 N   0  0  0  0  0  0  0  0  0  0  0  0
  -24.7680  -26.5830   24.8980 O   0  0  0  0  0  0  0  0  0  0  0  0
  -23.4830  -28.8750   23.1670 H   0  0  0  0  0  0  0  0  0  0  0  0
  -20.5280  -27.5940   21.6260 C   0  0  0  0  0  0  0  0  0  0  0  0
  -22.5200  -26.9950   23.1610 C   0  0  0  0  0  3  0  0  0  0  0  0
  -23.0020  -26.0840   22.0080 C   0  0  0  0  0  2  0  0  0  0  0  0
  -22.6360  -26.6210   20.6210 C   0  0  0  0  0  2  0  0  0  0  0  0
  -21.1190  -26.7780   20.4890 C   0  0  0  0  0  2  0  0  0  0  0  0
  -21.1940  -27.7090   22.8760 C   0  0  0  0  0  0  0  0  0  0  0  0
  -20.6190  -28.5090   23.8870 C   0  0  0  0  0  3  0  0  0  0  0  0
  -19.4020  -29.1820   23.6690 C   0  0  0  0  0  3  0  0  0  0  0  0
  -18.7400  -29.0510   22.4360 C   0  0  0  0  0  3  0  0  0  0  0  0
  -19.3010  -28.2560   21.4210 C   0  0  0  0  0  3  0  0  0  0  0  0
  -27.1300  -28.1220   28.1540 C   0  0  0  0  0  3  0  0  0  0  0  0
  -27.0250  -26.6360   28.6680 C   0  0  1  0  0  0  0  0  0  0  0  0
  -25.5730  -26.1660   28.9140 C   0  0  0  0  0  1  0  0  0  0  0  0
  -27.6720  -25.6600   27.6570 C   0  0  0  0  0  1  0  0  0  0  0  0
  -27.8060  -26.4820   29.9940 C   0  0  0  0  0  1  0  0  0  0  0  0
  -26.8490  -29.0710   29.2400 N   0  0  0  0  0  0  0  0  0  0  0  0
  -27.6590  -30.0760   29.5970 C   0  0  0  0  0  0  0  0  0  0  0  0
  -28.7680  -30.2580   29.0860 O   0  0  0  0  0  0  0  0  0  0  0  0
  -25.9370  -29.0130   29.6680 H   0  0  0  0  0  0  0  0  0  0  0  0
  -26.7220  -32.3630   30.0560 C   0  0  0  0  0  1  0  0  0  0  0  0
  -27.1580  -31.0330   30.6950 C   0  0  0  0  0  3  0  0  0  0  0  0
  -28.4490  -30.1180   32.5710 C   0  0  0  0  0  1  0  0  0  0  0  0
  -28.1610  -31.2920   31.7520 N   0  0  0  0  0  0  0  0  0  0  0  0
  -27.8500  -32.0390   32.3680 H   0  0  0  0  0  0  0  0  0  0  0  0
  -28.9980  -17.6200   17.2930 C   0  0  0  0  0  2  0  0  0  0  0  0
  -29.8930  -18.0060   16.1040 C   0  0  0  0  0  2  0  0  0  0  0  0
  -31.6190  -17.2460   14.4280 C   0  0  0  0  0  1  0  0  0  0  0  0
  -31.0280  -17.0020   15.8280 C   0  0  0  0  0  3  0  0  0  0  0  0
  -32.1030  -17.1540   16.8340 N   0  0  0  0  0  4  0  0  0  0  0  0
  -32.6270  -16.2960   16.8270 H   0  0  0  0  0  0  0  0  0  0  0  0
  -32.7260  -17.8930   16.5470 H   0  0  0  0  0  0  0  0  0  0  0  0
  -31.7020  -17.3820   18.2410 C   0  0  0  0  0  2  0  0  0  0  0  0
  -32.6220  -16.6310   19.2300 C   0  0  0  0  0  2  0  0  0  0  0  0
  -33.5500  -14.3870   19.6340 C   0  0  0  0  0  0  0  0  0  0  0  0
  -33.5820  -13.1730   21.7860 C   0  0  0  0  0  2  0  0  0  0  0  0
  -33.0480  -11.7320   21.6630 C   0  0  0  0  0  2  0  0  0  0  0  0
  -31.5120  -11.6940   21.7820 C   0  0  0  0  0  2  0  0  0  0  0  0
  -30.8240  -12.7290   20.8560 C   0  0  0  0  0  3  0  0  0  0  0  0
  -31.4750  -14.1130   21.0540 C   0  0  0  0  0  2  0  0  0  0  0  0
  -32.9190  -14.0130   20.7790 N   0  0  0  0  0  0  0  0  0  0  0  0
  -34.6680  -13.9800   19.3110 O   0  0  0  0  0  0  0  0  0  0  0  0
  -32.8860  -15.2390   18.8360 N   0  0  0  0  0  0  0  0  0  0  0  0
  -33.2490  -15.1820   17.8950 H   0  0  0  0  0  0  0  0  0  0  0  0
  -28.5380  -13.8770   21.1970 C   0  0  0  0  0  0  0  0  0  0  0  0
  -27.2730  -13.3710   21.3370 C   0  0  0  0  0  0  0  0  0  0  0  0
  -27.4110  -11.9500   21.2960 C   0  0  0  0  0  0  0  0  0  0  0  0
  -29.3780  -12.7790   21.0830 N   0  0  0  0  0  0  0  0  0  0  0  0
  -28.6910  -11.6140   21.2010 N   0  0  0  0  0  0  0  0  0  0  0  0
  -26.3950  -10.8890   21.2820 C   0  0  0  0  0  0  0  0  0  0  0  0
  -26.2860   -9.9590   22.3400 C   0  0  0  0  0  3  0  0  0  0  0  0
  -25.2880   -8.9620   22.3190 C   0  0  0  0  0  3  0  0  0  0  0  0
  -24.3860   -8.8840   21.2310 C   0  0  0  0  0  0  0  0  0  0  0  0
  -24.5140   -9.7970   20.1690 C   0  0  0  0  0  3  0  0  0  0  0  0
  -25.5060  -10.7900   20.1920 C   0  0  0  0  0  3  0  0  0  0  0  0
  -23.4060   -7.9300   21.1110 O   0  0  0  0  0  0  0  0  0  0  0  0
  -22.8240   -7.3540   22.2110 C   0  0  0  0  0  0  0  0  0  0  0  0
  -22.1260   -8.1180   23.1720 C   0  0  0  0  0  3  0  0  0  0  0  0
  -21.4810   -7.4780   24.2490 C   0  0  0  0  0  3  0  0  0  0  0  0
  -21.5270   -6.0770   24.3660 C   0  0  0  0  0  0  0  0  0  0  0  0
  -22.2180   -5.3130   23.4100 C   0  0  0  0  0  3  0  0  0  0  0  0
  -22.8610   -5.9500   22.3340 C   0  0  0  0  0  0  0  0  0  0  0  0
  -23.5050   -5.2070   21.4020 F   0  0  0  0  0  0  0  0  0  0  0  0
  -20.9000   -5.4620   25.3970 F   0  0  0  0  0  0  0  0  0  0  0  0
  -25.9940  -14.1560   21.4050 C   0  0  0  0  0  0  0  0  0  0  0  0
  -25.0070  -13.6600   22.1440 N   0  0  0  0  0  0  0  0  0  0  0  0
  -25.8780  -15.2380   20.8320 O   0  0  0  0  0  0  0  0  0  0  0  0
  -25.1050  -12.7800   22.6290 H   0  0  0  0  0  0  0  0  0  0  0  0
  -24.1360  -14.1650   22.2200 H   0  0  0  0  0  0  0  0  0  0  0  0
  -29.0450  -15.1710   21.1490 N   0  0  0  0  0  0  0  0  0  0  0  0
  -28.4370  -15.9810   21.1580 H   0  0  0  0  0  0  0  0  0  0  0  0
  -29.9870  -15.3910   20.8510 H   0  0  0  0  0  0  0  0  0  0  0  0
  1  4  1  0
  2  5  1  0
  2  1  2  0
  4  3  2  0
  4  9  1  0
  5  6  2  0
  6  7  1  0
  6  3  1  0
  9  8  1  0
  9 10  1  0
 10 11  1  0
 12 10  1  0
 13 10  1  0
 13 14  1  0
 15 14  1  0
 15 17  1  0
 16 27  2  0
 17 22  1  0
 18 28  1  0
 18 26  1  0
 19 25  1  0
 19 21  1  0
 20 26  1  0
 21 20  1  0
 22 21  2  0
 23 24  1  0
 23 17  2  0
 24 19  2  0
 25 18  1  0
 26 16  1  0
 28 30  2  0
 29 28  1  0
 31 29  1  0
 32 37  1  0
 33 29  1  0
 34 33  1  0
 35 34  1  0
 36 35  1  0
 36 32  1  0
 37 33  1  0
 37 38  2  0
 39 38  1  0
 40 39  2  0
 41 32  2  0
 41 40  1  0
 42 16  1  0
 42 43  1  0
 42 47  1  0
 43 44  1  1
 43 46  1  0
 45 43  1  0
 47 48  1  0
 47 50  1  0
 48 52  1  0
 49 48  2  0
 52 51  1  0
 52 54  1  0
 54 55  1  0
 54 53  1  0
 56  5  1  0
 57 56  1  0
 59 58  1  0
 59 57  1  0
 59 60  1  0
 60 63  1  0
 61 60  1  0
 62 60  1  0
 63 64  1  0
 65 71  1  0
 67 68  1  0
 67 66  1  0
 69 70  1  0
 69 78  1  0
 69 68  1  0
 71 70  1  0
 71 66  1  0
 72 65  2  0
 73 64  1  0
 73 65  1  0
 74 73  1  0
 75 76  2  0
 76 95  1  0
 77 76  1  0
 78 75  1  0
 78 79  1  0
 79 77  2  0
 80 77  1  0
 80 81  1  0
 82 81  2  0
 83 82  1  0
 84 85  1  0
 84 83  2  0
 85 80  2  0
 86 83  1  0
 86 87  1  0
 87 92  2  0
 87 88  1  0
 88 89  2  0
 89 90  1  0
 90 94  1  0
 91 90  2  0
 92 91  1  0
 93 92  1  0
 95 96  1  0
 96 99  1  0
 96 98  1  0
 97 95  2  0
100101  1  0
100 75  1  0
102100  1  0
M  ISO  4  14 101  15 101  65 100  73 100
M  END
>  <TORSDO>  (38) 
F 26

>  <SCORE>  (38) 
-2.048

>  <name>  (38) 
40

>  <ligand_id>  (38) 
40

>  <original_smiles>  (38) 
[H]c1c([H])c([H])c2c(c1[H])C([H])([H])C([H])([H])C([H])([H])C2([H])N([H])C(=O)C1([H])N(C(=O)C([H])(N([H])C(=O)C([H])(N([H])C([H])([H])[H])C([H])([H])[H])C(C([H])([H])[H])(C([H])([H])[H])C([H])([H])[H])C([H])([H])c2c([H])c(OC([H])([H])C([H])([H])[N+]([H])([H])C([H])(c3c([H])c([H])c(C([H])([H])C([H])([H])C([H])(C([H])([H])[H])[N+]([H])([H])C([H])([H])C([H])([H])N([H])C(=O)N4C([H])([H])C([H])([H])C([H])([H])C([H])(n5nc(-c6c([H])c([H])c(Oc7c([H])c([H])c(F)c([H])c7F)c([H])c6[H])c(C(=O)N([H])[H])c5N([H])[H])C4([H])[H])c(C([H])([H])[H])c3[H])C([H])([H])[H])c([H])c([H])c2C1([H])[H]

>  <smiles>  (38) 
[H]c1c([H])c([H])c2c(c1[H])C([H])([H])C([H])([H])C([H])([H])C2([H])N([H])C(=O)C1([H])N(C(=O)C([H])(N([H])C(=O)C([H])(N([H])C([H])([H])[H])C([H])([H])[H])C(C([H])([H])[H])(C([H])([H])[H])C([H])([H])[H])C([H])([H])c2c([H])c(OC([H])([H])C([H])([H])[N+]([H])([H])C([H])(c3c([H])c([H])c(C([H])([H])C([H])([H])C([H])(C([H])([H])[H])[N+]([H])([H])C([H])([H])C([H])([H])N([H])C(=O)N4C([H])([H])C([H])([H])C([H])([H])C([H])(n5nc(-c6c([H])c([H])c(Oc7c([H])c([H])c(F)c([H])c7F)c([H])c6[H])c(C(=O)N([H])[H])c5N([H])[H])C4([H])[H])c(C([H])([H])[H])c3[H])C([H])([H])[H])c([H])c([H])c2C1([H])[H]

$$$$
41:0:0
     RDKit          3D

 99107  0  0  1  0  0  0  0  0999 V2000
  -25.8010  -23.1290   19.0350 C   0  0  0  0  0  3  0  0  0  0  0  0
  -25.3650  -22.3610   17.9380 C   0  0  0  0  0  3  0  0  0  0  0  0
  -27.6380  -21.5800   19.3880 C   0  0  0  0  0  3  0  0  0  0  0  0
  -26.9630  -22.7650   19.7380 C   0  0  0  0  0  0  0  0  0  0  0  0
  -26.0460  -21.1810   17.5760 C   0  0  0  0  0  0  0  0  0  0  0  0
  -27.1710  -20.7610   18.3390 C   0  0  0  0  0  0  0  0  0  0  0  0
  -25.5350  -20.3880   16.3770 C   0  0  0  0  0  1  0  0  0  0  0  0
  -27.4290  -23.5500   20.8820 C   0  0  0  0  0  3  0  0  0  0  0  0
  -28.1260  -24.6950   20.7860 C   0  0  0  0  0  3  0  0  0  0  0  0
  -28.5360  -25.3790   19.4940 C   0  0  0  0  0  2  0  0  0  0  0  0
  -28.4330  -26.7910   19.6020 O   0  0  0  0  0  0  0  0  0  0  0  0
  -24.5330  -31.6150   22.9990 C   0  0  0  0  0  0  0  0  0  0  0  0
  -27.1980  -27.3960   19.6660 C   0  0  0  0  0  0  0  0  0  0  0  0
  -23.3050  -30.2490   21.3400 C   0  0  0  0  0  3  0  0  0  0  0  0
  -24.7490  -28.7960   19.8200 C   0  0  0  0  0  0  0  0  0  0  0  0
  -25.8070  -30.6870   21.0720 C   0  0  0  0  0  2  0  0  0  0  0  0
  -25.9070  -29.3430   20.3840 C   0  0  0  0  0  0  0  0  0  0  0  0
  -27.1290  -28.6460   20.3080 C   0  0  0  0  0  3  0  0  0  0  0  0
  -26.0250  -26.8490   19.1020 C   0  0  0  0  0  3  0  0  0  0  0  0
  -24.8000  -27.5420   19.1810 C   0  0  0  0  0  3  0  0  0  0  0  0
  -23.4820  -29.6130   19.9340 C   0  0  0  0  0  2  0  0  0  0  0  0
  -24.5700  -30.8630   21.8630 N   0  0  0  0  0  0  0  0  0  0  0  0
  -23.4650  -31.8410   23.5830 O   0  0  0  0  0  0  0  0  0  0  0  0
  -22.7080  -29.1820   22.2830 C   0  0  0  0  0  0  0  0  0  0  0  0
  -21.3860  -28.9730   22.1830 N   0  0  0  0  0  0  0  0  0  0  0  0
  -23.4280  -28.5410   23.0540 O   0  0  0  0  0  0  0  0  0  0  0  0
  -20.8680  -29.5340   21.5220 H   0  0  0  0  0  0  0  0  0  0  0  0
  -18.0580  -27.6720   22.7040 C   0  0  0  0  0  0  0  0  0  0  0  0
  -20.6110  -27.9890   22.9370 C   0  0  0  0  0  3  0  0  0  0  0  0
  -20.7440  -26.5810   22.3130 C   0  0  0  0  0  2  0  0  0  0  0  0
  -19.6300  -26.2590   21.3120 C   0  0  0  0  0  2  0  0  0  0  0  0
  -18.2570  -26.3500   21.9830 C   0  0  0  0  0  2  0  0  0  0  0  0
  -19.1640  -28.4480   23.1380 C   0  0  0  0  0  0  0  0  0  0  0  0
  -18.9240  -29.6860   23.7720 C   0  0  0  0  0  3  0  0  0  0  0  0
  -17.6100  -30.1480   23.9770 C   0  0  0  0  0  3  0  0  0  0  0  0
  -16.5180  -29.3690   23.5560 C   0  0  0  0  0  3  0  0  0  0  0  0
  -16.7430  -28.1320   22.9260 C   0  0  0  0  0  3  0  0  0  0  0  0
  -25.8280  -32.2480   23.6030 C   0  0  0  0  0  3  0  0  0  0  0  0
  -26.4310  -31.4100   24.7990 C   0  0  1  0  0  0  0  0  0  0  0  0
  -25.3950  -31.0690   25.8970 C   0  0  0  0  0  1  0  0  0  0  0  0
  -27.0330  -30.0800   24.2860 C   0  0  0  0  0  1  0  0  0  0  0  0
  -27.5910  -32.1950   25.4580 C   0  0  0  0  0  1  0  0  0  0  0  0
  -25.4940  -33.6100   24.0360 N   0  0  0  0  0  0  0  0  0  0  0  0
  -25.7710  -34.7190   23.3380 C   0  0  0  0  0  0  0  0  0  0  0  0
  -26.4040  -34.7030   22.2780 O   0  0  0  0  0  0  0  0  0  0  0  0
  -24.9190  -33.6930   24.8610 H   0  0  0  0  0  0  0  0  0  0  0  0
  -23.9770  -36.4720   23.1650 C   0  0  0  0  0  1  0  0  0  0  0  0
  -25.2600  -36.0570   23.9040 C   0  0  0  0  0  3  0  0  0  0  0  0
  -27.3950  -36.9530   24.7160 C   0  0  0  0  0  1  0  0  0  0  0  0
  -26.2550  -37.1490   23.8240 N   0  0  0  0  0  0  0  0  0  0  0  0
  -25.8280  -38.0440   24.0490 H   0  0  0  0  0  0  0  0  0  0  0  0
  -27.8590  -19.4190   18.1070 C   0  0  0  0  0  2  0  0  0  0  0  0
  -25.9360  -18.3680   19.4640 C   0  0  0  0  0  1  0  0  0  0  0  0
  -27.4410  -18.3240   19.1260 C   0  0  0  0  0  3  0  0  0  0  0  0
  -28.2390  -18.3870   20.3790 N   0  0  0  0  0  4  0  0  0  0  0  0
  -28.3220  -19.3490   20.6710 H   0  0  0  0  0  0  0  0  0  0  0  0
  -27.7240  -17.8990   21.0940 H   0  0  0  0  0  0  0  0  0  0  0  0
  -29.5750  -17.7550   20.2840 C   0  0  0  0  0  2  0  0  0  0  0  0
  -30.3360  -17.7490   21.6240 C   0  0  0  0  0  2  0  0  0  0  0  0
  -31.6580  -16.9560   21.5530 C   0  0  0  0  0  2  0  0  0  0  0  0
  -31.5680  -15.4770   21.9880 C   0  0  0  0  0  2  0  0  0  0  0  0
  -30.7710  -14.0870   20.0710 C   0  0  0  0  0  0  0  0  0  0  0  0
  -30.1920  -12.1190   18.7000 C   0  0  0  0  0  2  0  0  0  0  0  0
  -29.1560  -12.4190   17.6040 C   0  0  0  0  0  2  0  0  0  0  0  0
  -27.7270  -12.2810   18.1610 C   0  0  0  0  0  2  0  0  0  0  0  0
  -27.5270  -13.0690   19.4810 C   0  0  0  0  0  3  0  0  0  0  0  0
  -28.6590  -12.7630   20.4850 C   0  0  0  0  0  2  0  0  0  0  0  0
  -29.9570  -13.0280   19.8300 N   0  0  0  0  0  0  0  0  0  0  0  0
  -31.6940  -14.4240   19.3280 O   0  0  0  0  0  0  0  0  0  0  0  0
  -30.5850  -14.6700   21.2640 N   0  0  0  0  0  0  0  0  0  0  0  0
  -29.8070  -14.3170   21.8030 H   0  0  0  0  0  0  0  0  0  0  0  0
  -25.1830  -13.6900   20.3430 C   0  0  0  0  0  0  0  0  0  0  0  0
  -24.1410  -12.9310   20.8040 C   0  0  0  0  0  0  0  0  0  0  0  0
  -24.5970  -11.5800   20.7630 C   0  0  0  0  0  0  0  0  0  0  0  0
  -26.2100  -12.8070   20.0570 N   0  0  0  0  0  0  0  0  0  0  0  0
  -25.8630  -11.5310   20.3650 N   0  0  0  0  0  0  0  0  0  0  0  0
  -23.8840  -10.3260   21.0260 C   0  0  0  0  0  0  0  0  0  0  0  0
  -24.3540   -9.3990   21.9810 C   0  0  0  0  0  3  0  0  0  0  0  0
  -23.6410   -8.2060   22.2290 C   0  0  0  0  0  3  0  0  0  0  0  0
  -22.4440   -7.9350   21.5240 C   0  0  0  0  0  0  0  0  0  0  0  0
  -21.9940   -8.8520   20.5580 C   0  0  0  0  0  3  0  0  0  0  0  0
  -22.7080  -10.0360   20.3070 C   0  0  0  0  0  3  0  0  0  0  0  0
  -21.6980   -6.7920   21.6820 O   0  0  0  0  0  0  0  0  0  0  0  0
  -21.6690   -6.1130   22.8720 C   0  0  0  0  0  0  0  0  0  0  0  0
  -21.2450   -6.7270   24.0720 C   0  0  0  0  0  3  0  0  0  0  0  0
  -21.1630   -5.9720   25.2580 C   0  0  0  0  0  3  0  0  0  0  0  0
  -21.4960   -4.6030   25.2480 C   0  0  0  0  0  0  0  0  0  0  0  0
  -21.9140   -3.9890   24.0540 C   0  0  0  0  0  3  0  0  0  0  0  0
  -21.9970   -4.7420   22.8700 C   0  0  0  0  0  0  0  0  0  0  0  0
  -22.3800   -4.1410   21.7170 F   0  0  0  0  0  0  0  0  0  0  0  0
  -21.4100   -3.8750   26.3850 F   0  0  0  0  0  0  0  0  0  0  0  0
  -22.7690  -13.4220   21.1660 C   0  0  0  0  0  0  0  0  0  0  0  0
  -22.1040  -12.7480   22.0990 N   0  0  0  0  0  0  0  0  0  0  0  0
  -22.2990  -14.4400   20.6590 O   0  0  0  0  0  0  0  0  0  0  0  0
  -22.4980  -11.9260   22.5300 H   0  0  0  0  0  0  0  0  0  0  0  0
  -21.1880  -13.0610   22.3860 H   0  0  0  0  0  0  0  0  0  0  0  0
  -25.3300  -15.0500   20.1230 N   0  0  0  0  0  0  0  0  0  0  0  0
  -24.5200  -15.6600   20.1520 H   0  0  0  0  0  0  0  0  0  0  0  0
  -26.1050  -15.4300   19.6010 H   0  0  0  0  0  0  0  0  0  0  0  0
  1  4  1  0
  2  1  2  0
  3  4  2  0
  4  8  1  0
  5  2  1  0
  5  6  2  0
  6  3  1  0
  7  5  1  0
  9  8  2  0
 10 11  1  0
 10  9  1  0
 11 13  1  0
 12 23  2  0
 13 18  1  0
 14 22  1  0
 14 24  1  0
 15 21  1  0
 15 17  1  0
 16 22  1  0
 17 16  1  0
 18 17  2  0
 19 20  1  0
 19 13  2  0
 20 15  2  0
 21 14  1  0
 22 12  1  0
 24 26  2  0
 25 24  1  0
 27 25  1  0
 28 37  2  0
 28 33  1  0
 29 25  1  0
 29 33  1  0
 30 29  1  0
 31 32  1  0
 31 30  1  0
 32 28  1  0
 33 34  2  0
 34 35  1  0
 36 35  2  0
 37 36  1  0
 38 12  1  0
 38 43  1  0
 38 39  1  0
 39 42  1  1
 39 40  1  0
 41 39  1  0
 43 46  1  0
 44 48  1  0
 44 43  1  0
 45 44  2  0
 48 47  1  0
 50 48  1  0
 50 51  1  0
 50 49  1  0
 52  6  1  0
 52 54  1  0
 54 53  1  0
 54 55  1  0
 55 56  1  0
 55 57  1  0
 58 55  1  0
 58 59  1  0
 60 59  1  0
 60 61  1  0
 62 70  1  0
 63 68  1  0
 64 65  1  0
 64 63  1  0
 66 65  1  0
 66 75  1  0
 66 67  1  0
 68 62  1  0
 68 67  1  0
 69 62  2  0
 70 71  1  0
 70 61  1  0
 72 73  2  0
 73 92  1  0
 74 73  1  0
 74 77  1  0
 75 72  1  0
 75 76  1  0
 76 74  2  0
 77 78  1  0
 78 79  2  0
 80 83  1  0
 80 79  1  0
 81 80  2  0
 82 81  1  0
 82 77  2  0
 83 84  1  0
 84 85  1  0
 85 86  2  0
 87 86  1  0
 87 91  1  0
 88 87  2  0
 89 84  2  0
 89 88  1  0
 90 89  1  0
 92 93  1  0
 93 96  1  0
 93 95  1  0
 94 92  2  0
 97 98  1  0
 97 72  1  0
 99 97  1  0
M  ISO  4  10 101  11 101  62 100  70 100
M  END
>  <TORSDO>  (39) 
F 25

>  <SCORE>  (39) 
-10.225

>  <name>  (39) 
41

>  <ligand_id>  (39) 
41

>  <original_smiles>  (39) 
[H]C(=C([H])C([H])([H])Oc1c([H])c([H])c2c(c1[H])C([H])([H])N(C(=O)C([H])(N([H])C(=O)C([H])(N([H])C([H])([H])[H])C([H])([H])[H])C(C([H])([H])[H])(C([H])([H])[H])C([H])([H])[H])C([H])(C(=O)N([H])C1([H])c3c([H])c([H])c([H])c([H])c3C([H])([H])C([H])([H])C1([H])[H])C2([H])[H])c1c([H])c([H])c(C([H])([H])[H])c(C([H])([H])C([H])(C([H])([H])[H])[N+]([H])([H])C([H])([H])C([H])([H])C([H])([H])C([H])([H])N([H])C(=O)N2C([H])([H])C([H])([H])C([H])([H])C([H])(n3nc(-c4c([H])c([H])c(Oc5c([H])c([H])c(F)c([H])c5F)c([H])c4[H])c(C(=O)N([H])[H])c3N([H])[H])C2([H])[H])c1[H]

>  <smiles>  (39) 
[H]C(=C([H])C([H])([H])Oc1c([H])c([H])c2c(c1[H])C([H])([H])N(C(=O)C([H])(N([H])C(=O)C([H])(N([H])C([H])([H])[H])C([H])([H])[H])C(C([H])([H])[H])(C([H])([H])[H])C([H])([H])[H])C([H])(C(=O)N([H])C1([H])c3c([H])c([H])c([H])c([H])c3C([H])([H])C([H])([H])C1([H])[H])C2([H])[H])c1c([H])c([H])c(C([H])([H])[H])c(C([H])([H])C([H])(C([H])([H])[H])[N+]([H])([H])C([H])([H])C([H])([H])C([H])([H])C([H])([H])N([H])C(=O)N2C([H])([H])C([H])([H])C([H])([H])C([H])(n3nc(-c4c([H])c([H])c(Oc5c([H])c([H])c(F)c([H])c5F)c([H])c4[H])c(C(=O)N([H])[H])c3N([H])[H])C2([H])[H])c1[H]

$$$$
42:0:0
     RDKit          3D

101109  0  0  1  0  0  0  0  0999 V2000
  -35.6290  -25.0180   18.2320 C   0  0  0  0  0  3  0  0  0  0  0  0
  -36.2730  -26.0110   18.9980 C   0  0  0  0  0  3  0  0  0  0  0  0
  -37.4620  -25.0670   16.6530 C   0  0  0  0  0  3  0  0  0  0  0  0
  -36.1970  -24.5640   17.0250 C   0  0  0  0  0  0  0  0  0  0  0  0
  -37.5290  -26.5350   18.6110 C   0  0  0  0  0  0  0  0  0  0  0  0
  -38.1470  -26.0320   17.4280 C   0  0  0  0  0  0  0  0  0  0  0  0
  -35.5770  -23.4670   16.1890 C   0  0  0  0  0  0  0  0  0  0  0  0
  -34.4630  -23.6680   15.4660 N   0  0  0  0  0  0  0  0  0  0  0  0
  -36.1440  -22.3770   16.1270 O   0  0  0  0  0  0  0  0  0  0  0  0
  -34.1850  -22.8650   14.9220 H   0  0  0  0  0  0  0  0  0  0  0  0
  -33.5870  -24.8250   15.2930 C   0  0  0  0  0  2  0  0  0  0  0  0
  -33.4800  -25.1700   13.7910 C   0  0  0  0  0  2  0  0  0  0  0  0
  -33.2230  -24.0230   12.9860 O   0  0  0  0  0  0  0  0  0  0  0  0
  -28.8620  -22.0110   18.2690 C   0  0  0  0  0  0  0  0  0  0  0  0
  -32.4180  -23.0630   13.5440 C   0  0  0  0  0  0  0  0  0  0  0  0
  -29.4870  -20.2580   16.6380 C   0  0  0  0  0  3  0  0  0  0  0  0
  -30.6910  -21.0730   14.5460 C   0  0  0  0  0  0  0  0  0  0  0  0
  -29.4480  -22.7210   15.9550 C   0  0  0  0  0  2  0  0  0  0  0  0
  -30.5500  -22.4000   14.9700 C   0  0  0  0  0  0  0  0  0  0  0  0
  -31.4140  -23.4010   14.4750 C   0  0  0  0  0  3  0  0  0  0  0  0
  -32.5470  -21.7270   13.1160 C   0  0  0  0  0  3  0  0  0  0  0  0
  -31.6930  -20.7280   13.6210 C   0  0  0  0  0  3  0  0  0  0  0  0
  -29.7210  -20.0650   15.1170 C   0  0  0  0  0  2  0  0  0  0  0  0
  -29.2720  -21.6950   17.0090 N   0  0  0  0  0  0  0  0  0  0  0  0
  -28.6230  -21.1280   19.1050 O   0  0  0  0  0  0  0  0  0  0  0  0
  -30.6550  -19.5970   17.4030 C   0  0  0  0  0  0  0  0  0  0  0  0
  -30.7480  -19.8790   18.7130 N   0  0  0  0  0  0  0  0  0  0  0  0
  -31.4350  -18.8330   16.8290 O   0  0  0  0  0  0  0  0  0  0  0  0
  -30.0770  -20.5260   19.1040 H   0  0  0  0  0  0  0  0  0  0  0  0
  -31.3460  -19.0670   22.1830 C   0  0  0  0  0  0  0  0  0  0  0  0
  -31.7400  -19.3410   19.6440 C   0  0  0  0  0  3  0  0  0  0  0  0
  -31.7740  -17.7960   19.5850 C   0  0  0  0  0  2  0  0  0  0  0  0
  -30.8650  -17.1320   20.6250 C   0  0  0  0  0  2  0  0  0  0  0  0
  -31.2760  -17.5550   22.0400 C   0  0  0  0  0  2  0  0  0  0  0  0
  -31.5480  -19.9050   21.0560 C   0  0  0  0  0  0  0  0  0  0  0  0
  -31.5690  -21.3050   21.2390 C   0  0  0  0  0  3  0  0  0  0  0  0
  -31.3940  -21.8660   22.5190 C   0  0  0  0  0  3  0  0  0  0  0  0
  -31.2100  -21.0310   23.6340 C   0  0  0  0  0  3  0  0  0  0  0  0
  -31.1900  -19.6340   23.4660 C   0  0  0  0  0  3  0  0  0  0  0  0
  -28.6540  -23.4920   18.7140 C   0  0  0  0  0  3  0  0  0  0  0  0
  -27.4140  -23.6840   19.6700 C   0  0  1  0  0  0  0  0  0  0  0  0
  -26.1180  -23.0210   19.1450 C   0  0  0  0  0  1  0  0  0  0  0  0
  -27.7110  -23.0950   21.0680 C   0  0  0  0  0  1  0  0  0  0  0  0
  -27.1380  -25.1930   19.8720 C   0  0  0  0  0  1  0  0  0  0  0  0
  -28.5070  -24.3040   17.4970 N   0  0  0  0  0  0  0  0  0  0  0  0
  -29.1730  -25.4400   17.2570 C   0  0  0  0  0  0  0  0  0  0  0  0
  -29.9320  -25.9600   18.0820 O   0  0  0  0  0  0  0  0  0  0  0  0
  -27.9430  -23.9110   16.7560 H   0  0  0  0  0  0  0  0  0  0  0  0
  -30.2820  -26.7630   15.4310 C   0  0  0  0  0  1  0  0  0  0  0  0
  -28.9670  -26.1090   15.8840 C   0  0  0  0  0  3  0  0  0  0  0  0
  -26.6160  -26.5900   15.3640 C   0  0  0  0  0  1  0  0  0  0  0  0
  -27.8810  -27.1130   15.8770 N   0  0  0  0  0  0  0  0  0  0  0  0
  -28.1390  -27.9210   15.3160 H   0  0  0  0  0  0  0  0  0  0  0  0
  -38.1690  -27.5800   19.4860 C   0  0  0  0  0  0  0  0  0  0  0  0
  -37.6110  -28.7920   19.4150 N   0  0  0  0  0  0  0  0  0  0  0  0
  -39.1400  -27.3200   20.2000 O   0  0  0  0  0  0  0  0  0  0  0  0
  -36.8180  -28.8870   18.8000 H   0  0  0  0  0  0  0  0  0  0  0  0
  -38.0670  -29.9810   20.1290 C   0  0  0  0  0  2  0  0  0  0  0  0
  -37.7180  -31.2530   19.3350 C   0  0  0  0  0  2  0  0  0  0  0  0
  -40.1190  -31.3650   19.0210 C   0  0  0  0  0  0  0  0  0  0  0  0
  -42.2180  -31.4470   20.3180 C   0  0  0  0  0  2  0  0  0  0  0  0
  -42.2630  -30.3670   21.4130 C   0  0  0  0  0  2  0  0  0  0  0  0
  -41.5940  -30.8750   22.7040 C   0  0  0  0  0  2  0  0  0  0  0  0
  -40.1950  -31.4920   22.4430 C   0  0  0  0  0  3  0  0  0  0  0  0
  -40.2420  -32.5000   21.2720 C   0  0  0  0  0  2  0  0  0  0  0  0
  -40.8150  -31.8260   20.0940 N   0  0  0  0  0  0  0  0  0  0  0  0
  -40.5970  -30.6080   18.1730 O   0  0  0  0  0  0  0  0  0  0  0  0
  -38.9160  -31.9100   18.8230 N   0  0  0  0  0  0  0  0  0  0  0  0
  -38.7910  -32.1250   17.8430 H   0  0  0  0  0  0  0  0  0  0  0  0
  -38.7720  -33.1680   23.7850 C   0  0  0  0  0  0  0  0  0  0  0  0
  -38.5220  -33.2920   25.1240 C   0  0  0  0  0  0  0  0  0  0  0  0
  -39.2740  -32.2580   25.7620 C   0  0  0  0  0  0  0  0  0  0  0  0
  -39.6470  -32.1000   23.6540 N   0  0  0  0  0  0  0  0  0  0  0  0
  -39.9870  -31.5870   24.8650 N   0  0  0  0  0  0  0  0  0  0  0  0
  -39.3130  -31.8330   27.1660 C   0  0  0  0  0  0  0  0  0  0  0  0
  -40.3730  -32.2100   28.0200 C   0  0  0  0  0  3  0  0  0  0  0  0
  -40.3840  -31.8050   29.3730 C   0  0  0  0  0  3  0  0  0  0  0  0
  -39.3240  -31.0190   29.8850 C   0  0  0  0  0  0  0  0  0  0  0  0
  -38.2820  -30.6280   29.0260 C   0  0  0  0  0  3  0  0  0  0  0  0
  -38.2760  -31.0290   27.6800 C   0  0  0  0  0  3  0  0  0  0  0  0
  -39.2620  -30.5590   31.1780 O   0  0  0  0  0  0  0  0  0  0  0  0
  -39.3100  -31.4140   32.2500 C   0  0  0  0  0  0  0  0  0  0  0  0
  -38.3360  -32.4160   32.4500 C   0  0  0  0  0  3  0  0  0  0  0  0
  -38.3860  -33.2260   33.6010 C   0  0  0  0  0  3  0  0  0  0  0  0
  -39.4000  -33.0290   34.5600 C   0  0  0  0  0  0  0  0  0  0  0  0
  -40.3670  -32.0270   34.3630 C   0  0  0  0  0  3  0  0  0  0  0  0
  -40.3200  -31.2210   33.2140 C   0  0  0  0  0  0  0  0  0  0  0  0
  -41.2410  -30.2420   33.0410 F   0  0  0  0  0  0  0  0  0  0  0  0
  -39.4440  -33.8010   35.6700 F   0  0  0  0  0  0  0  0  0  0  0  0
  -37.5670  -34.2490   25.7720 C   0  0  0  0  0  0  0  0  0  0  0  0
  -37.9210  -34.7780   26.9390 N   0  0  0  0  0  0  0  0  0  0  0  0
  -36.5170  -34.5740   25.2190 O   0  0  0  0  0  0  0  0  0  0  0  0
  -38.7960  -34.5380   27.3780 H   0  0  0  0  0  0  0  0  0  0  0  0
  -37.3060  -35.4410   27.3900 H   0  0  0  0  0  0  0  0  0  0  0  0
  -38.3130  -33.8600   22.6700 N   0  0  0  0  0  0  0  0  0  0  0  0
  -37.6130  -34.5890   22.7550 H   0  0  0  0  0  0  0  0  0  0  0  0
  -38.5190  -33.6190   21.7100 H   0  0  0  0  0  0  0  0  0  0  0  0
  -39.5230  -27.9960   16.6230 C   0  0  0  0  0  1  0  0  0  0  0  0
  -39.5250  -26.4900   16.9310 C   0  0  0  0  0  3  0  0  0  0  0  0
  -41.5580  -24.9790   17.4230 C   0  0  0  0  0  1  0  0  0  0  0  0
  -40.6540  -26.1180   17.9160 C   0  0  0  0  0  2  0  0  0  0  0  0
  1  2  1  0
  3  4  1  0
  3  6  2  0
  4  1  2  0
  5  2  2  0
  5 54  1  0
  6  5  1  0
  7  4  1  0
  8  7  1  0
  9  7  2  0
 10  8  1  0
 11  8  1  0
 12 11  1  0
 13 15  1  0
 13 12  1  0
 14 25  2  0
 15 20  1  0
 16 24  1  0
 16 26  1  0
 17 19  1  0
 17 23  1  0
 18 24  1  0
 19 18  1  0
 20 19  2  0
 21 15  2  0
 21 22  1  0
 22 17  2  0
 23 16  1  0
 24 14  1  0
 26 27  1  0
 27 29  1  0
 28 26  2  0
 30 39  1  0
 31 27  1  0
 31 35  1  0
 32 31  1  0
 32 33  1  0
 33 34  1  0
 34 30  1  0
 35 36  1  0
 35 30  2  0
 36 37  2  0
 37 38  1  0
 39 38  2  0
 40 14  1  0
 40 41  1  0
 41 44  1  1
 41 43  1  0
 42 41  1  0
 45 40  1  0
 46 45  1  0
 46 47  2  0
 48 45  1  0
 50 49  1  0
 50 46  1  0
 51 52  1  0
 52 50  1  0
 53 52  1  0
 54 56  2  0
 55 54  1  0
 55 58  1  0
 57 55  1  0
 59 58  1  0
 60 66  1  0
 61 62  1  0
 62 63  1  0
 64 65  1  0
 64 63  1  0
 64 73  1  0
 66 61  1  0
 66 65  1  0
 67 60  2  0
 68 60  1  0
 68 59  1  0
 69 68  1  0
 70 71  2  0
 71 72  1  0
 71 90  1  0
 72 75  1  0
 73 70  1  0
 73 74  1  0
 74 72  2  0
 75 80  2  0
 75 76  1  0
 76 77  2  0
 77 78  1  0
 78 81  1  0
 79 78  2  0
 80 79  1  0
 81 82  1  0
 82 83  2  0
 82 87  1  0
 83 84  1  0
 84 85  2  0
 85 89  1  0
 86 85  1  0
 87 86  2  0
 88 87  1  0
 90 91  1  0
 91 93  1  0
 91 94  1  0
 92 90  2  0
 95 96  1  0
 95 70  1  0
 97 95  1  0
 99 98  1  0
 99  6  1  0
 99101  1  0
100101  1  0
M  ISO  4  12 101  13 101  60 100  68 100
M  END
>  <TORSDO>  (40) 
F 24

>  <SCORE>  (40) 
-3.066

>  <name>  (40) 
42

>  <ligand_id>  (40) 
42

>  <original_smiles>  (40) 
[H]c1c([H])c([H])c2c(c1[H])C([H])([H])C([H])([H])C([H])([H])C2([H])N([H])C(=O)C1([H])N(C(=O)C([H])(N([H])C(=O)C([H])(N([H])C([H])([H])[H])C([H])([H])[H])C(C([H])([H])[H])(C([H])([H])[H])C([H])([H])[H])C([H])([H])c2c([H])c(OC([H])([H])C([H])([H])N([H])C(=O)c3c([H])c([H])c(C(=O)N([H])C([H])([H])C([H])([H])N([H])C(=O)N4C([H])([H])C([H])([H])C([H])([H])C([H])(n5nc(-c6c([H])c([H])c(Oc7c([H])c([H])c(F)c([H])c7F)c([H])c6[H])c(C(=O)N([H])[H])c5N([H])[H])C4([H])[H])c(C([H])(C([H])([H])[H])C([H])([H])C([H])([H])[H])c3[H])c([H])c([H])c2C1([H])[H]

>  <smiles>  (40) 
[H]c1c([H])c([H])c2c(c1[H])C([H])([H])C([H])([H])C([H])([H])C2([H])N([H])C(=O)C1([H])N(C(=O)C([H])(N([H])C(=O)C([H])(N([H])C([H])([H])[H])C([H])([H])[H])C(C([H])([H])[H])(C([H])([H])[H])C([H])([H])[H])C([H])([H])c2c([H])c(OC([H])([H])C([H])([H])N([H])C(=O)c3c([H])c([H])c(C(=O)N([H])C([H])([H])C([H])([H])N([H])C(=O)N4C([H])([H])C([H])([H])C([H])([H])C([H])(n5nc(-c6c([H])c([H])c(Oc7c([H])c([H])c(F)c([H])c7F)c([H])c6[H])c(C(=O)N([H])[H])c5N([H])[H])C4([H])[H])c(C([H])(C([H])([H])[H])C([H])([H])C([H])([H])[H])c3[H])c([H])c([H])c2C1([H])[H]

$$$$
43:0:0
     RDKit          3D

100108  0  0  1  0  0  0  0  0999 V2000
  -26.8590  -22.1630   22.6990 C   0  0  0  0  0  3  0  0  0  0  0  0
  -28.2210  -23.1570   20.9450 C   0  0  0  0  0  3  0  0  0  0  0  0
  -26.3730  -23.4380   23.0440 C   0  0  0  0  0  3  0  0  0  0  0  0
  -27.7570  -24.4350   21.3070 C   0  0  0  0  0  3  0  0  0  0  0  0
  -27.8330  -22.0150   21.6870 C   0  0  0  0  0  0  0  0  0  0  0  0
  -26.8750  -24.5880   22.3960 C   0  0  0  0  0  0  0  0  0  0  0  0
  -28.5040  -20.6880   21.4730 C   0  0  0  0  0  0  0  0  0  0  0  0
  -29.6580  -20.7710   20.8030 N   0  0  0  0  0  0  0  0  0  0  0  0
  -28.1100  -19.6580   22.0260 O   0  0  0  0  0  0  0  0  0  0  0  0
  -29.8400  -21.6640   20.3670 H   0  0  0  0  0  0  0  0  0  0  0  0
  -30.7980  -19.8760   20.9210 C   0  0  0  0  0  2  0  0  0  0  0  0
  -32.0830  -20.7150   20.7830 C   0  0  0  0  0  2  0  0  0  0  0  0
  -33.3900  -20.0190   21.2070 C   0  0  0  0  0  2  0  0  0  0  0  0
  -34.0070  -19.1000   20.1280 C   0  0  0  0  0  2  0  0  0  0  0  0
  -34.1260  -16.6390   19.7330 C   0  0  0  0  0  0  0  0  0  0  0  0
  -34.1690  -14.1680   19.8560 C   0  0  0  0  0  2  0  0  0  0  0  0
  -33.4540  -13.5040   18.6620 C   0  0  0  0  0  2  0  0  0  0  0  0
  -31.9400  -13.3940   18.9270 C   0  0  0  0  0  2  0  0  0  0  0  0
  -31.3260  -14.7360   19.3940 C   0  0  0  0  0  3  0  0  0  0  0  0
  -32.1470  -15.3230   20.5590 C   0  0  0  0  0  2  0  0  0  0  0  0
  -33.5440  -15.4730   20.1080 N   0  0  0  0  0  0  0  0  0  0  0  0
  -35.1930  -16.6990   19.1100 O   0  0  0  0  0  0  0  0  0  0  0  0
  -33.5010  -17.7330   20.1950 N   0  0  0  0  0  0  0  0  0  0  0  0
  -32.6530  -17.5760   20.7180 H   0  0  0  0  0  0  0  0  0  0  0  0
  -28.9340  -15.5430   19.8890 C   0  0  0  0  0  0  0  0  0  0  0  0
  -27.7820  -14.8610   20.1810 C   0  0  0  0  0  0  0  0  0  0  0  0
  -28.1360  -13.4780   20.2040 C   0  0  0  0  0  0  0  0  0  0  0  0
  -29.9200  -14.5790   19.7580 N   0  0  0  0  0  0  0  0  0  0  0  0
  -29.4380  -13.3310   20.0020 N   0  0  0  0  0  0  0  0  0  0  0  0
  -27.3010  -12.2770   20.3560 C   0  0  0  0  0  0  0  0  0  0  0  0
  -27.2220  -11.5810   21.5830 C   0  0  0  0  0  3  0  0  0  0  0  0
  -26.4000  -10.4420   21.7150 C   0  0  0  0  0  3  0  0  0  0  0  0
  -25.6420   -9.9840   20.6110 C   0  0  0  0  0  0  0  0  0  0  0  0
  -25.7350  -10.6690   19.3860 C   0  0  0  0  0  3  0  0  0  0  0  0
  -26.5610  -11.8000   19.2560 C   0  0  0  0  0  3  0  0  0  0  0  0
  -24.8440   -8.8650   20.6370 O   0  0  0  0  0  0  0  0  0  0  0  0
  -23.8950   -8.6760   21.6110 C   0  0  0  0  0  0  0  0  0  0  0  0
  -22.8180   -9.5740   21.7850 C   0  0  0  0  0  3  0  0  0  0  0  0
  -21.8240   -9.3080   22.7470 C   0  0  0  0  0  3  0  0  0  0  0  0
  -21.9010   -8.1430   23.5350 C   0  0  0  0  0  0  0  0  0  0  0  0
  -22.9670   -7.2440   23.3610 C   0  0  0  0  0  3  0  0  0  0  0  0
  -23.9620   -7.5100   22.4020 C   0  0  0  0  0  0  0  0  0  0  0  0
  -24.9820   -6.6330   22.2280 F   0  0  0  0  0  0  0  0  0  0  0  0
  -20.9470   -7.8810   24.4580 F   0  0  0  0  0  0  0  0  0  0  0  0
  -26.4090  -15.4520   20.3370 C   0  0  0  0  0  0  0  0  0  0  0  0
  -25.5710  -14.8360   21.1660 N   0  0  0  0  0  0  0  0  0  0  0  0
  -26.0860  -16.4870   19.7590 O   0  0  0  0  0  0  0  0  0  0  0  0
  -25.8460  -13.9980   21.6580 H   0  0  0  0  0  0  0  0  0  0  0  0
  -24.6360  -15.1970   21.2980 H   0  0  0  0  0  0  0  0  0  0  0  0
  -29.2190  -16.8950   19.7100 N   0  0  0  0  0  0  0  0  0  0  0  0
  -28.4990  -17.6060   19.7690 H   0  0  0  0  0  0  0  0  0  0  0  0
  -30.1130  -17.2640   19.4120 H   0  0  0  0  0  0  0  0  0  0  0  0
  -26.5080  -25.9880   22.8770 C   0  0  0  0  0  2  0  0  0  0  0  0
  -27.7250  -26.8790   23.2190 C   0  0  0  0  0  2  0  0  0  0  0  0
  -29.0120  -26.1430   23.1560 N   0  0  0  0  0  4  0  0  0  0  0  0
  -29.7380  -26.7390   23.5310 H   0  0  0  0  0  0  0  0  0  0  0  0
  -28.9440  -25.3500   23.7770 H   0  0  0  0  0  0  0  0  0  0  0  0
  -29.4230  -25.6590   21.8170 C   0  0  0  0  0  2  0  0  0  0  0  0
  -30.0700  -26.7430   20.9250 C   0  0  0  0  0  2  0  0  0  0  0  0
  -29.3090  -26.8350   19.7260 O   0  0  0  0  0  0  0  0  0  0  0  0
  -25.5010  -31.6760   23.2470 C   0  0  0  0  0  0  0  0  0  0  0  0
  -28.0950  -27.4390   19.8950 C   0  0  0  0  0  0  0  0  0  0  0  0
  -24.2110  -30.1360   21.7950 C   0  0  0  0  0  3  0  0  0  0  0  0
  -25.5960  -28.6900   20.2150 C   0  0  0  0  0  0  0  0  0  0  0  0
  -26.6390  -30.7110   21.2580 C   0  0  0  0  0  2  0  0  0  0  0  0
  -26.7620  -29.3360   20.6430 C   0  0  0  0  0  0  0  0  0  0  0  0
  -28.0140  -28.7160   20.4840 C   0  0  0  0  0  3  0  0  0  0  0  0
  -26.9200  -26.7910   19.4610 C   0  0  0  0  0  3  0  0  0  0  0  0
  -25.6680  -27.4170   19.6240 C   0  0  0  0  0  3  0  0  0  0  0  0
  -24.2960  -29.4390   20.4090 C   0  0  0  0  0  2  0  0  0  0  0  0
  -25.4730  -30.8590   22.1570 N   0  0  0  0  0  0  0  0  0  0  0  0
  -24.4830  -31.8730   23.9270 O   0  0  0  0  0  0  0  0  0  0  0  0
  -23.7860  -29.0890   22.8490 C   0  0  0  0  0  0  0  0  0  0  0  0
  -22.6440  -28.4250   22.6020 N   0  0  0  0  0  0  0  0  0  0  0  0
  -24.4820  -28.8700   23.8430 O   0  0  0  0  0  0  0  0  0  0  0  0
  -22.1280  -28.6670   21.7680 H   0  0  0  0  0  0  0  0  0  0  0  0
  -19.9280  -26.0570   22.8200 C   0  0  0  0  0  0  0  0  0  0  0  0
  -22.0660  -27.3720   23.4350 C   0  0  0  0  0  3  0  0  0  0  0  0
  -22.8200  -26.0360   23.2440 C   0  0  0  0  0  2  0  0  0  0  0  0
  -22.1940  -25.1380   22.1710 C   0  0  0  0  0  2  0  0  0  0  0  0
  -20.7420  -24.8080   22.5280 C   0  0  0  0  0  2  0  0  0  0  0  0
  -20.5510  -27.2640   23.2310 C   0  0  0  0  0  0  0  0  0  0  0  0
  -19.7510  -28.4060   23.4550 C   0  0  0  0  0  3  0  0  0  0  0  0
  -18.3550  -28.3550   23.2740 C   0  0  0  0  0  3  0  0  0  0  0  0
  -17.7420  -27.1530   22.8830 C   0  0  0  0  0  3  0  0  0  0  0  0
  -18.5250  -26.0070   22.6620 C   0  0  0  0  0  3  0  0  0  0  0  0
  -26.8020  -32.4270   23.6760 C   0  0  0  0  0  3  0  0  0  0  0  0
  -27.5550  -31.7280   24.8730 C   0  0  1  0  0  0  0  0  0  0  0  0
  -26.6270  -31.3140   26.0380 C   0  0  0  0  0  1  0  0  0  0  0  0
  -28.2930  -30.4570   24.3860 C   0  0  0  0  0  1  0  0  0  0  0  0
  -28.6360  -32.6770   25.4410 C   0  0  0  0  0  1  0  0  0  0  0  0
  -26.4260  -33.8020   24.0290 N   0  0  0  0  0  0  0  0  0  0  0  0
  -26.5630  -34.8570   23.2160 C   0  0  0  0  0  0  0  0  0  0  0  0
  -27.1030  -34.7840   22.1090 O   0  0  0  0  0  0  0  0  0  0  0  0
  -25.9290  -33.9290   24.8990 H   0  0  0  0  0  0  0  0  0  0  0  0
  -24.6170  -36.4460   23.1320 C   0  0  0  0  0  1  0  0  0  0  0  0
  -26.0210  -36.2090   23.7150 C   0  0  0  0  0  3  0  0  0  0  0  0
  -28.1850  -37.3140   24.0750 C   0  0  0  0  0  1  0  0  0  0  0  0
  -26.8980  -37.3550   23.3840 N   0  0  0  0  0  0  0  0  0  0  0  0
  -26.4400  -38.2340   23.6140 H   0  0  0  0  0  0  0  0  0  0  0  0
  1  3  1  0
  2  4  2  0
  2  5  1  0
  4  6  1  0
  5  1  2  0
  6 53  1  0
  6  3  2  0
  7  5  1  0
  7  9  2  0
  8 11  1  0
  8  7  1  0
 10  8  1  0
 12 11  1  0
 12 13  1  0
 14 23  1  0
 14 13  1  0
 15 21  1  0
 15 23  1  0
 16 21  1  0
 17 18  1  0
 17 16  1  0
 19 18  1  0
 19 28  1  0
 19 20  1  0
 21 20  1  0
 22 15  2  0
 23 24  1  0
 25 26  2  0
 26 27  1  0
 26 45  1  0
 27 30  1  0
 28 25  1  0
 28 29  1  0
 29 27  2  0
 30 31  1  0
 31 32  2  0
 33 36  1  0
 33 32  1  0
 34 33  2  0
 35 34  1  0
 35 30  2  0
 36 37  1  0
 37 38  2  0
 37 42  1  0
 38 39  1  0
 39 40  2  0
 40 44  1  0
 41 40  1  0
 42 41  2  0
 43 42  1  0
 45 46  1  0
 46 49  1  0
 46 48  1  0
 47 45  2  0
 50 51  1  0
 50 25  1  0
 52 50  1  0
 53 54  1  0
 55 54  1  0
 55 56  1  0
 55 57  1  0
 58 55  1  0
 59 58  1  0
 60 62  1  0
 60 59  1  0
 61 72  2  0
 62 67  1  0
 63 71  1  0
 63 73  1  0
 64 70  1  0
 64 66  1  0
 65 71  1  0
 66 65  1  0
 67 66  2  0
 68 69  1  0
 68 62  2  0
 69 64  2  0
 70 63  1  0
 71 61  1  0
 73 75  2  0
 74 73  1  0
 76 74  1  0
 77 82  1  0
 78 74  1  0
 79 78  1  0
 80 81  1  0
 80 79  1  0
 81 77  1  0
 82 78  1  0
 82 83  2  0
 84 83  1  0
 85 84  2  0
 86 77  2  0
 86 85  1  0
 87 61  1  0
 87 92  1  0
 87 88  1  0
 88 91  1  1
 88 89  1  0
 90 88  1  0
 92 95  1  0
 93 97  1  0
 93 92  1  0
 94 93  2  0
 97 96  1  0
 99100  1  0
 99 97  1  0
 99 98  1  0
M  ISO  4  15 100  23 100  59 101  60 101
M  END
>  <TORSDO>  (41) 
F 26

>  <SCORE>  (41) 
1.911

>  <name>  (41) 
43

>  <ligand_id>  (41) 
43

>  <original_smiles>  (41) 
[H]c1c([H])c([H])c2c(c1[H])C([H])([H])C([H])([H])C([H])([H])C2([H])N([H])C(=O)C1([H])N(C(=O)C([H])(N([H])C(=O)C([H])(N([H])C([H])([H])[H])C([H])([H])[H])C(C([H])([H])[H])(C([H])([H])[H])C([H])([H])[H])C([H])([H])c2c([H])c(OC([H])([H])C([H])([H])[N+]([H])([H])C([H])([H])C([H])([H])c3c([H])c([H])c(C(=O)N([H])C([H])([H])C([H])([H])C([H])([H])C([H])([H])N([H])C(=O)N4C([H])([H])C([H])([H])C([H])([H])C([H])(n5nc(-c6c([H])c([H])c(Oc7c([H])c([H])c(F)c([H])c7F)c([H])c6[H])c(C(=O)N([H])[H])c5N([H])[H])C4([H])[H])c([H])c3[H])c([H])c([H])c2C1([H])[H]

>  <smiles>  (41) 
[H]c1c([H])c([H])c2c(c1[H])C([H])([H])C([H])([H])C([H])([H])C2([H])N([H])C(=O)C1([H])N(C(=O)C([H])(N([H])C(=O)C([H])(N([H])C([H])([H])[H])C([H])([H])[H])C(C([H])([H])[H])(C([H])([H])[H])C([H])([H])[H])C([H])([H])c2c([H])c(OC([H])([H])C([H])([H])[N+]([H])([H])C([H])([H])C([H])([H])c3c([H])c([H])c(C(=O)N([H])C([H])([H])C([H])([H])C([H])([H])C([H])([H])N([H])C(=O)N4C([H])([H])C([H])([H])C([H])([H])C([H])(n5nc(-c6c([H])c([H])c(Oc7c([H])c([H])c(F)c([H])c7F)c([H])c6[H])c(C(=O)N([H])[H])c5N([H])[H])C4([H])[H])c([H])c3[H])c([H])c([H])c2C1([H])[H]

$$$$
44:0:0
     RDKit          3D

 96 97  0  0  1  0  0  0  0  0999 V2000
  -20.9430  -26.5410   20.7000 C   0  0  0  0  0  2  0  0  0  0  0  0
  -21.8570  -25.1000   22.0100 C   0  0  0  0  0  2  0  0  0  0  0  0
  -21.1690  -28.0300   20.8730 C   0  0  0  0  0  2  0  0  0  0  0  0
  -23.1200  -27.0900   23.0970 C   0  0  0  0  0  1  0  0  0  0  0  0
  -23.3230  -25.2620   22.8180 C   0  0  0  0  0  2  0  0  0  0  0  0
  -22.3230  -28.4330   21.8180 C   0  0  0  0  0  1  0  0  0  0  0  0
  -24.8790  -23.8610   22.6650 C   0  0  0  0  0  2  0  0  0  0  0  0
  -26.4660  -23.2460   22.0220 N   0  0  0  0  0  2  0  0  0  0  0  0
  -24.4900  -22.9520   23.4010 O   0  0  0  0  0  1  0  0  0  0  0  0
  -26.7940  -24.0380   21.4800 H   0  0  0  0  0  0  0  0  0  0  0  0
  -27.9990  -21.7450   21.6730 C   0  0  0  0  0 15  0  0  0  0  0  0
  -30.1030  -20.8590   20.8390 C   0  0  0  0  0 15  0  0  0  0  0  0
  -32.9680  -18.5030   19.4280 C   0  0  0  0  0  0  0  0  0  0  0  0
  -34.4720  -16.4450   17.9180 C   0  0  0  0  0  2  0  0  0  0  0  0
  -33.9390  -15.4860   16.7480 C   0  0  0  0  0  2  0  0  0  0  0  0
  -32.9420  -14.4520   17.2680 C   0  0  0  0  0  2  0  0  0  0  0  0
  -32.1820  -15.1470   18.4000 C   0  0  0  0  0  3  0  0  0  0  0  0
  -33.0400  -15.7610   19.5140 C   0  0  0  0  0  2  0  0  0  0  0  0
  -33.4000  -17.0620   18.9780 N   0  0  0  0  0  0  0  0  0  0  0  0
  -34.0630  -18.9830   18.9310 O   0  0  0  0  0  0  0  0  0  0  0  0
  -31.5570  -19.3670   20.2100 N   0  0  0  0  0  2  0  0  0  0  0  0
  -32.2440  -20.1050   20.2950 H   0  0  0  0  0  0  0  0  0  0  0  0
  -29.8250  -14.7430   18.9850 C   0  0  0  0  0  0  0  0  0  0  0  0
  -29.2170  -13.7830   19.7240 C   0  0  0  0  0  0  0  0  0  0  0  0
  -30.2580  -12.9310   20.2090 C   0  0  0  0  0  0  0  0  0  0  0  0
  -31.1580  -14.4110   19.0280 N   0  0  0  0  0  0  0  0  0  0  0  0
  -31.4480  -13.3710   19.8320 N   0  0  0  0  0  0  0  0  0  0  0  0
  -30.1870  -11.6770   20.9470 C   0  0  0  0  0  0  0  0  0  0  0  0
  -31.3460  -11.0330   21.4300 C   0  0  0  0  0  3  0  0  0  0  0  0
  -31.2350   -9.8300   22.1580 C   0  0  0  0  0  3  0  0  0  0  0  0
  -29.9580   -9.2700   22.4050 C   0  0  0  0  0  0  0  0  0  0  0  0
  -28.8120   -9.9060   21.8970 C   0  0  0  0  0  3  0  0  0  0  0  0
  -28.9250  -11.0980   21.1680 C   0  0  0  0  0  3  0  0  0  0  0  0
  -29.7520   -8.0960   23.0850 O   0  0  0  0  0  0  0  0  0  0  0  0
  -30.7360   -7.1470   23.1920 C   0  0  0  0  0  0  0  0  0  0  0  0
  -32.1060   -7.4910   23.2000 C   0  0  0  0  0  3  0  0  0  0  0  0
  -33.0790   -6.4910   23.3830 C   0  0  0  0  0  3  0  0  0  0  0  0
  -32.6880   -5.1510   23.5660 C   0  0  0  0  0  0  0  0  0  0  0  0
  -31.3230   -4.8080   23.5610 C   0  0  0  0  0  3  0  0  0  0  0  0
  -30.3510   -5.8050   23.3770 C   0  0  0  0  0  0  0  0  0  0  0  0
  -29.0370   -5.4750   23.3940 F   0  0  0  0  0  0  0  0  0  0  0  0
  -33.6220   -4.1900   23.7510 F   0  0  0  0  0  0  0  0  0  0  0  0
  -27.7400  -13.6180   19.8730 C   0  0  0  0  0  0  0  0  0  0  0  0
  -27.3010  -13.0360   20.9790 N   0  0  0  0  0  0  0  0  0  0  0  0
  -26.9660  -14.0570   19.0240 O   0  0  0  0  0  0  0  0  0  0  0  0
  -27.9420  -12.6970   21.6820 H   0  0  0  0  0  0  0  0  0  0  0  0
  -26.3080  -12.9250   21.1250 H   0  0  0  0  0  0  0  0  0  0  0  0
  -29.3650  -15.8500   18.2690 N   0  0  0  0  0  0  0  0  0  0  0  0
  -28.3770  -16.0660   18.2010 H   0  0  0  0  0  0  0  0  0  0  0  0
  -29.9420  -16.4770   17.7240 H   0  0  0  0  0  0  0  0  0  0  0  0
  -22.7400  -28.7520   19.9090 C   0  0  0  0  0  3  0  0  0  0  0  0
  -23.2200  -31.4620   20.5430 C   0  0  0  0  0  1  0  0  0  0  0  0
  -23.0910  -30.3100   19.5280 C   0  0  0  0  0  3  0  0  0  0  0  0
  -23.1330  -27.4590   18.5220 C   0  0  0  0  0  2  0  0  0  0  0  0
  -24.3300  -26.0470   18.1920 C   0  0  0  0  0  2  0  0  0  0  0  0
  -25.9830  -25.7350   18.2580 O   0  0  0  0  0  0  0  0  0  0  0  0
  -26.8980  -28.5460   23.4430 C   0  0  0  0  0  0  0  0  0  0  0  0
  -27.0370  -26.5200   17.8440 C   0  0  0  0  0  3  0  0  0  0  0  0
  -25.2530  -28.1460   21.6840 C   0  0  0  0  0  3  0  0  0  0  0  0
  -25.9160  -28.4290   19.2770 C   0  0  0  0  0  3  0  0  0  0  0  0
  -27.6100  -28.5410   21.0450 C   0  0  0  0  0  2  0  0  0  0  0  0
  -27.1370  -27.9810   19.7170 C   0  0  0  0  0  0  0  0  0  0  0  0
  -27.7950  -27.0340   18.9280 C   0  0  0  0  0  3  0  0  0  0  0  0
  -26.3020  -27.4050   17.1110 C   0  0  0  0  0  2  0  0  0  0  0  0
  -25.5870  -28.3230   17.9060 C   0  0  0  0  0  2  0  0  0  0  0  0
  -25.1100  -29.0210   20.3580 C   0  0  0  0  0  2  0  0  0  0  0  0
  -26.6000  -28.4550   22.1280 N   0  0  0  0  0  0  0  0  0  0  0  0
  -26.0440  -28.4890   24.3430 O   0  0  0  0  0  0  0  0  0  0  0  0
  -25.1970  -26.5400   21.5740 C   0  0  0  0  0  0  0  0  0  0  0  0
  -24.5290  -25.7130   20.6510 N   0  0  0  0  0  0  0  0  0  0  0  0
  -25.6380  -25.9010   22.5050 O   0  0  0  0  0  0  0  0  0  0  0  0
  -25.0910  -24.8780   20.5850 H   0  0  0  0  0  0  0  0  0  0  0  0
  -19.2420  -25.3020   21.7530 C   0  0  0  0  0  3  0  0  0  0  0  0
  -22.9570  -25.3080   20.1780 C   0  0  0  0  0  3  0  0  0  0  0  0
  -22.1290  -24.5040   18.6920 C   0  0  0  0  0  3  0  0  0  0  0  0
  -20.2130  -24.1350   18.6990 C   0  0  0  0  0  1  0  0  0  0  0  0
  -18.9590  -24.4070   20.1950 C   0  0  0  0  0  1  0  0  0  0  0  0
  -20.7290  -25.5940   22.3220 C   0  0  2  0  0  0  0  0  0  0  0  0
  -20.5700  -26.7190   23.3250 C   0  0  0  0  0  2  0  0  0  0  0  0
  -19.4390  -27.5910   23.5200 C   0  0  0  0  0  3  0  0  0  0  0  0
  -18.2370  -27.3650   22.8420 C   0  0  0  0  0  3  0  0  0  0  0  0
  -18.1650  -26.2300   22.0130 C   0  0  0  0  0  2  0  0  0  0  0  0
  -28.3810  -28.7080   23.8350 C   0  0  0  0  0  3  0  0  0  0  0  0
  -28.4360  -29.6410   24.9600 N   0  0  0  0  0  0  0  0  0  0  0  0
  -28.6860  -30.9520   24.8420 C   0  0  0  0  0  0  0  0  0  0  0  0
  -28.9620  -31.4850   23.7630 O   0  0  0  0  0  0  0  0  0  0  0  0
  -28.1980  -29.2710   25.8680 H   0  0  0  0  0  0  0  0  0  0  0  0
  -27.3790  -32.6880   26.1090 C   0  0  0  0  0  1  0  0  0  0  0  0
  -28.6330  -31.8010   26.1270 C   0  0  0  0  0  3  0  0  0  0  0  0
  -31.0370  -31.8770   26.6230 C   0  0  0  0  0  1  0  0  0  0  0  0
  -29.8340  -32.6440   26.3150 N   0  0  0  0  0  0  0  0  0  0  0  0
  -29.6870  -33.3270   27.0540 H   0  0  0  0  0  0  0  0  0  0  0  0
  -29.0560  -27.3330   24.1930 C   0  0  1  0  0  0  0  0  0  0  0  0
  -28.2750  -26.4910   25.2300 C   0  0  0  0  0  1  0  0  0  0  0  0
  -29.2890  -26.4410   22.9510 C   0  0  0  0  0  1  0  0  0  0  0  0
  -30.4620  -27.6190   24.7520 C   0  0  0  0  0  1  0  0  0  0  0  0
  1  3  1  0
 78  1  1  6
  2 78  1  0
  2  5  1  0
  3  6  1  0
  5  4  1  0
  7  9  1  0
  8  7  1  0
 10  8  1  0
 13 21  1  0
 14 19  1  0
 15 16  1  0
 15 14  1  0
 17 16  1  0
 17 26  1  0
 17 18  1  0
 19 13  1  0
 19 18  1  0
 20 13  2  0
 21 22  1  0
 23 26  1  0
 23 24  2  0
 24 43  1  0
 24 25  1  0
 25 28  1  0
 26 27  1  0
 27 25  2  0
 28 33  2  0
 28 29  1  0
 29 30  2  0
 30 31  1  0
 31 34  1  0
 32 31  2  0
 33 32  1  0
 34 35  1  0
 35 36  2  0
 35 40  1  0
 36 37  1  0
 37 38  2  0
 38 42  1  0
 39 38  1  0
 40 41  1  0
 40 39  2  0
 43 44  1  0
 44 47  1  0
 44 46  1  0
 45 43  2  0
 48 23  1  0
 49 48  1  0
 50 48  1  0
 53 51  2  0
 53 52  1  0
 54 51  1  0
 55 56  1  0
 55 54  1  0
 57 68  2  0
 58 56  1  0
 58 63  1  0
 59 69  1  0
 59 67  1  0
 60 65  1  0
 60 62  1  0
 60 66  1  0
 61 67  1  0
 62 61  1  0
 63 62  2  0
 64 58  1  0
 64 65  1  0
 66 59  1  0
 67 57  1  0
 69 71  2  0
 70 69  1  0
 72 70  1  0
 73 77  1  0
 73 82  1  0
 73 78  1  0
 74 70  1  0
 75 76  1  0
 75 74  2  0
 78 79  1  0
 79 80  1  0
 81 80  2  0
 82 81  1  0
 83 57  1  0
 83 93  1  0
 83 84  1  0
 84 87  1  0
 85 84  1  0
 85 89  1  0
 86 85  2  0
 89 88  1  0
 89 91  1  0
 91 90  1  0
 91 92  1  0
 93 96  1  1
 93 94  1  0
 95 93  1  0
M  ISO  4  13 100  21 100  55 101  56 101
M  END
>  <TORSDO>  (42) 
F 23

>  <SCORE>  (42) 
-7.704

>  <name>  (42) 
44

>  <ligand_id>  (42) 
44

>  <original_smiles>  (42) 
[H]c1c([H])c([H])c2c(c1[H])C([H])([H])C([H])([H])C([H])([H])C2([H])N([H])C(=O)C1([H])N(C(=O)C([H])(N([H])C(=O)C([H])(N([H])C([H])([H])[H])C([H])([H])[H])C(C([H])([H])[H])(C([H])([H])[H])C([H])([H])[H])C([H])([H])c2c([H])c(OC([H])([H])C([H])([H])C([H])(c3c([H])c([H])c([H])c(C(=O)N([H])C([H])([H])C([H])([H])N([H])C(=O)N4C([H])([H])C([H])([H])C([H])([H])C([H])(n5nc(-c6c([H])c([H])c(Oc7c([H])c([H])c(F)c([H])c7F)c([H])c6[H])c(C(=O)N([H])[H])c5N([H])[H])C4([H])[H])c3[H])C([H])([H])C([H])([H])[H])c([H])c([H])c2C1([H])[H]

>  <smiles>  (42) 
[H]c1c([H])c([H])c2c(c1[H])C([H])([H])C([H])([H])C([H])([H])C2([H])N([H])C(=O)C1([H])N(C(=O)C([H])(N([H])C(=O)C([H])(N([H])C([H])([H])[H])C([H])([H])[H])C(C([H])([H])[H])(C([H])([H])[H])C([H])([H])[H])C([H])([H])c2c([H])c(OC([H])([H])C([H])([H])C([H])(c3c([H])c([H])c([H])c(C(=O)N([H])C([H])([H])C([H])([H])N([H])C(=O)N4C([H])([H])C([H])([H])C([H])([H])C([H])(n5nc(-c6c([H])c([H])c(Oc7c([H])c([H])c(F)c([H])c7F)c([H])c6[H])c(C(=O)N([H])[H])c5N([H])[H])C4([H])[H])c3[H])C([H])([H])C([H])([H])[H])c([H])c([H])c2C1([H])[H]

$$$$
45:0:0
     RDKit          3D

 98106  0  0  1  0  0  0  0  0999 V2000
  -30.9560  -22.9680   25.3310 C   0  0  0  0  0  3  0  0  0  0  0  0
  -31.9790  -22.0900   24.9300 C   0  0  0  0  0  3  0  0  0  0  0  0
  -29.9940  -23.3980   24.4010 C   0  0  0  0  0  3  0  0  0  0  0  0
  -31.0950  -22.0970   22.6520 C   0  0  0  0  0  3  0  0  0  0  0  0
  -32.0540  -21.6310   23.5920 C   0  0  0  0  0  0  0  0  0  0  0  0
  -30.0530  -22.9640   23.0580 C   0  0  0  0  0  0  0  0  0  0  0  0
  -28.3160  -22.1030   21.4400 C   0  0  0  0  0  1  0  0  0  0  0  0
  -28.9290  -23.3540   22.0990 C   0  0  0  0  0  3  0  0  0  0  0  0
  -29.3080  -24.4390   21.0550 C   0  0  0  0  0  2  0  0  0  0  0  0
  -28.1370  -25.4190   20.8540 C   0  0  0  0  0  2  0  0  0  0  0  0
  -28.2710  -26.3100   19.7420 O   0  0  0  0  0  0  0  0  0  0  0  0
  -24.6700  -31.3860   23.0800 C   0  0  0  0  0  0  0  0  0  0  0  0
  -27.1650  -27.1180   19.6930 C   0  0  0  0  0  0  0  0  0  0  0  0
  -23.4030  -30.1010   21.3870 C   0  0  0  0  0  3  0  0  0  0  0  0
  -24.7970  -28.6340   19.8330 C   0  0  0  0  0  0  0  0  0  0  0  0
  -25.9250  -30.4440   21.1440 C   0  0  0  0  0  2  0  0  0  0  0  0
  -25.9720  -29.1150   20.4240 C   0  0  0  0  0  0  0  0  0  0  0  0
  -27.1610  -28.3610   20.3530 C   0  0  0  0  0  3  0  0  0  0  0  0
  -25.9820  -26.6460   19.0860 C   0  0  0  0  0  3  0  0  0  0  0  0
  -24.7940  -27.3990   19.1590 C   0  0  0  0  0  3  0  0  0  0  0  0
  -23.5650  -29.5010   19.9650 C   0  0  0  0  0  2  0  0  0  0  0  0
  -24.6860  -30.6530   21.9320 N   0  0  0  0  0  0  0  0  0  0  0  0
  -23.6050  -31.6440   23.6580 O   0  0  0  0  0  0  0  0  0  0  0  0
  -22.7560  -29.0360   22.3010 C   0  0  0  0  0  0  0  0  0  0  0  0
  -21.4260  -28.8840   22.1900 N   0  0  0  0  0  0  0  0  0  0  0  0
  -23.4450  -28.3550   23.0640 O   0  0  0  0  0  0  0  0  0  0  0  0
  -20.9310  -29.4850   21.5460 H   0  0  0  0  0  0  0  0  0  0  0  0
  -18.0390  -27.7410   22.6990 C   0  0  0  0  0  0  0  0  0  0  0  0
  -20.6070  -27.9190   22.9230 C   0  0  0  0  0  3  0  0  0  0  0  0
  -20.6600  -26.5250   22.2570 C   0  0  0  0  0  2  0  0  0  0  0  0
  -19.5250  -26.2930   21.2540 C   0  0  0  0  0  2  0  0  0  0  0  0
  -18.1630  -26.4330   21.9390 C   0  0  0  0  0  2  0  0  0  0  0  0
  -19.1850  -28.4480   23.1480 C   0  0  0  0  0  0  0  0  0  0  0  0
  -19.0130  -29.6780   23.8180 C   0  0  0  0  0  3  0  0  0  0  0  0
  -17.7250  -30.2010   24.0440 C   0  0  0  0  0  3  0  0  0  0  0  0
  -16.5920  -29.4890   23.6130 C   0  0  0  0  0  3  0  0  0  0  0  0
  -16.7510  -28.2600   22.9470 C   0  0  0  0  0  3  0  0  0  0  0  0
  -25.9800  -31.9560   23.7070 C   0  0  0  0  0  3  0  0  0  0  0  0
  -25.7190  -33.3530   24.0840 N   0  0  0  0  0  0  0  0  0  0  0  0
  -26.0770  -34.4150   23.3520 C   0  0  0  0  0  0  0  0  0  0  0  0
  -26.7360  -34.3210   22.3120 O   0  0  0  0  0  0  0  0  0  0  0  0
  -25.1380  -33.5030   24.8970 H   0  0  0  0  0  0  0  0  0  0  0  0
  -24.3930  -36.2590   23.0780 C   0  0  0  0  0  1  0  0  0  0  0  0
  -25.6370  -35.8020   23.8560 C   0  0  0  0  0  3  0  0  0  0  0  0
  -27.8060  -36.6050   24.6750 C   0  0  0  0  0  1  0  0  0  0  0  0
  -26.6970  -36.8280   23.7510 N   0  0  0  0  0  0  0  0  0  0  0  0
  -26.3200  -37.7560   23.9280 H   0  0  0  0  0  0  0  0  0  0  0  0
  -26.4900  -31.1250   24.9480 C   0  0  1  0  0  0  0  0  0  0  0  0
  -25.4060  -30.8850   26.0230 C   0  0  0  0  0  1  0  0  0  0  0  0
  -27.0170  -29.7460   24.4920 C   0  0  0  0  0  1  0  0  0  0  0  0
  -27.6770  -31.8580   25.6170 C   0  0  0  0  0  1  0  0  0  0  0  0
  -33.1410  -20.6590   23.2400 C   0  0  0  0  0  0  0  0  0  0  0  0
  -34.1100  -20.4650   23.9840 O   0  0  0  0  0  0  0  0  0  0  0  0
  -33.0370  -19.8410   21.9200 C   0  0  0  0  0  0  0  0  0  0  0  0
  -32.0610  -18.9180   21.9340 N   0  0  0  0  0  0  0  0  0  0  0  0
  -33.8000  -20.0270   20.9650 O   0  0  0  0  0  0  0  0  0  0  0  0
  -31.4990  -18.8570   22.7720 H   0  0  0  0  0  0  0  0  0  0  0  0
  -31.6510  -18.1320   20.7740 C   0  0  0  0  0  2  0  0  0  0  0  0
  -31.1340  -16.7260   21.1440 C   0  0  0  0  0  2  0  0  0  0  0  0
  -30.3520  -16.1140   19.9640 C   0  0  0  0  0  2  0  0  0  0  0  0
  -30.4960  -13.7090   19.3800 C   0  0  0  0  0  0  0  0  0  0  0  0
  -29.8480  -11.7100   18.0970 C   0  0  0  0  0  2  0  0  0  0  0  0
  -28.7600  -12.1130   17.0840 C   0  0  0  0  0  2  0  0  0  0  0  0
  -27.3610  -12.0130   17.7210 C   0  0  0  0  0  2  0  0  0  0  0  0
  -27.2820  -12.7200   19.1030 C   0  0  0  0  0  3  0  0  0  0  0  0
  -28.4750  -12.3290   20.0020 C   0  0  0  0  0  2  0  0  0  0  0  0
  -29.7200  -12.5990   19.2630 N   0  0  0  0  0  0  0  0  0  0  0  0
  -31.5240  -13.8870   18.7190 O   0  0  0  0  0  0  0  0  0  0  0  0
  -29.9860  -14.7000   20.1250 N   0  0  0  0  0  0  0  0  0  0  0  0
  -29.1340  -14.4980   20.6290 H   0  0  0  0  0  0  0  0  0  0  0  0
  -24.9800  -13.3470   20.0690 C   0  0  0  0  0  0  0  0  0  0  0  0
  -23.9780  -12.5890   20.6130 C   0  0  0  0  0  0  0  0  0  0  0  0
  -24.4510  -11.2430   20.5980 C   0  0  0  0  0  0  0  0  0  0  0  0
  -26.0020  -12.4640   19.7580 N   0  0  0  0  0  0  0  0  0  0  0  0
  -25.6920  -11.1950   20.1310 N   0  0  0  0  0  0  0  0  0  0  0  0
  -23.7700   -9.9860   20.9420 C   0  0  0  0  0  0  0  0  0  0  0  0
  -24.2580   -9.1380   21.9600 C   0  0  0  0  0  3  0  0  0  0  0  0
  -23.5730   -7.9490   22.2870 C   0  0  0  0  0  3  0  0  0  0  0  0
  -22.3890   -7.5990   21.5970 C   0  0  0  0  0  0  0  0  0  0  0  0
  -21.9220   -8.4330   20.5690 C   0  0  0  0  0  3  0  0  0  0  0  0
  -22.6070   -9.6150   20.2390 C   0  0  0  0  0  3  0  0  0  0  0  0
  -21.6710   -6.4510   21.8310 O   0  0  0  0  0  0  0  0  0  0  0  0
  -21.6060   -5.8830   23.0800 C   0  0  0  0  0  0  0  0  0  0  0  0
  -21.0570   -6.5700   24.1840 C   0  0  0  0  0  3  0  0  0  0  0  0
  -20.9460   -5.9220   25.4310 C   0  0  0  0  0  3  0  0  0  0  0  0
  -21.3750   -4.5890   25.5740 C   0  0  0  0  0  0  0  0  0  0  0  0
  -21.9190   -3.9030   24.4730 C   0  0  0  0  0  3  0  0  0  0  0  0
  -22.0290   -4.5480   23.2290 C   0  0  0  0  0  0  0  0  0  0  0  0
  -22.5320   -3.8740   22.1660 F   0  0  0  0  0  0  0  0  0  0  0  0
  -21.2640   -3.9630   26.7680 F   0  0  0  0  0  0  0  0  0  0  0  0
  -22.6190  -13.0720   21.0350 C   0  0  0  0  0  0  0  0  0  0  0  0
  -22.0050  -12.4000   22.0030 N   0  0  0  0  0  0  0  0  0  0  0  0
  -22.1170  -14.0810   20.5400 O   0  0  0  0  0  0  0  0  0  0  0  0
  -22.4290  -11.5860   22.4250 H   0  0  0  0  0  0  0  0  0  0  0  0
  -21.0980  -12.7020   22.3280 H   0  0  0  0  0  0  0  0  0  0  0  0
  -25.0980  -14.7090   19.8030 N   0  0  0  0  0  0  0  0  0  0  0  0
  -24.3430  -15.3550   19.9970 H   0  0  0  0  0  0  0  0  0  0  0  0
  -25.8940  -15.1530   19.3660 H   0  0  0  0  0  0  0  0  0  0  0  0
  2  1  1  0
  3  1  2  0
  4  6  2  0
  4  5  1  0
  5  2  2  0
  6  3  1  0
  8  7  1  0
  8  6  1  0
  9  8  1  0
 10  9  1  0
 11 10  1  0
 12 23  2  0
 13 11  1  0
 13 18  1  0
 14 22  1  0
 14 24  1  0
 15 21  1  0
 15 17  1  0
 16 22  1  0
 17 16  1  0
 18 17  2  0
 19 20  1  0
 19 13  2  0
 20 15  2  0
 21 14  1  0
 22 12  1  0
 24 26  2  0
 25 24  1  0
 27 25  1  0
 28 37  2  0
 28 33  1  0
 29 25  1  0
 29 33  1  0
 30 29  1  0
 31 32  1  0
 31 30  1  0
 32 28  1  0
 33 34  2  0
 34 35  1  0
 36 35  2  0
 37 36  1  0
 38 12  1  0
 38 39  1  0
 38 48  1  0
 39 42  1  0
 40 44  1  0
 40 39  1  0
 41 40  2  0
 44 43  1  0
 46 44  1  0
 46 47  1  0
 46 45  1  0
 48 51  1  1
 48 49  1  0
 50 48  1  0
 52  5  1  0
 52 53  2  0
 54 55  1  0
 54 52  1  0
 55 57  1  0
 56 54  2  0
 58 59  1  0
 58 55  1  0
 60 69  1  0
 60 59  1  0
 61 69  1  0
 62 67  1  0
 63 64  1  0
 63 62  1  0
 65 64  1  0
 65 74  1  0
 65 66  1  0
 67 61  1  0
 67 66  1  0
 68 61  2  0
 69 70  1  0
 71 72  2  0
 72 91  1  0
 73 72  1  0
 73 76  1  0
 74 71  1  0
 74 75  1  0
 75 73  2  0
 76 77  1  0
 77 78  2  0
 79 82  1  0
 79 78  1  0
 80 79  2  0
 81 80  1  0
 81 76  2  0
 82 83  1  0
 83 88  2  0
 83 84  1  0
 84 85  2  0
 85 86  1  0
 86 90  1  0
 87 86  2  0
 88 87  1  0
 89 88  1  0
 91 92  1  0
 92 95  1  0
 92 94  1  0
 93 91  2  0
 96 97  1  0
 96 71  1  0
 98 96  1  0
M  ISO  4  10 101  11 101  61 100  69 100
M  END
>  <TORSDO>  (43) 
F 24

>  <SCORE>  (43) 
-6.026

>  <name>  (43) 
45

>  <ligand_id>  (43) 
45

>  <original_smiles>  (43) 
[H]c1c([H])c([H])c2c(c1[H])C([H])([H])C([H])([H])C([H])([H])C2([H])N([H])C(=O)C1([H])N(C(=O)C([H])(N([H])C(=O)C([H])(N([H])C([H])([H])[H])C([H])([H])[H])C(C([H])([H])[H])(C([H])([H])[H])C([H])([H])[H])C([H])([H])c2c([H])c(OC([H])([H])C([H])([H])C([H])(c3c([H])c([H])c([H])c(C(=O)C(=O)N([H])C([H])([H])C([H])([H])C([H])([H])N([H])C(=O)N4C([H])([H])C([H])([H])C([H])([H])C([H])(n5nc(-c6c([H])c([H])c(Oc7c([H])c([H])c(F)c([H])c7F)c([H])c6[H])c(C(=O)N([H])[H])c5N([H])[H])C4([H])[H])c3[H])C([H])([H])[H])c([H])c([H])c2C1([H])[H]

>  <smiles>  (43) 
[H]c1c([H])c([H])c2c(c1[H])C([H])([H])C([H])([H])C([H])([H])C2([H])N([H])C(=O)C1([H])N(C(=O)C([H])(N([H])C(=O)C([H])(N([H])C([H])([H])[H])C([H])([H])[H])C(C([H])([H])[H])(C([H])([H])[H])C([H])([H])[H])C([H])([H])c2c([H])c(OC([H])([H])C([H])([H])C([H])(c3c([H])c([H])c([H])c(C(=O)C(=O)N([H])C([H])([H])C([H])([H])C([H])([H])N([H])C(=O)N4C([H])([H])C([H])([H])C([H])([H])C([H])(n5nc(-c6c([H])c([H])c(Oc7c([H])c([H])c(F)c([H])c7F)c([H])c6[H])c(C(=O)N([H])[H])c5N([H])[H])C4([H])[H])c3[H])C([H])([H])[H])c([H])c([H])c2C1([H])[H]

$$$$
46:0:0
     RDKit          3D

106114  0  0  1  0  0  0  0  0999 V2000
  -26.6760  -16.2320   15.0640 C   0  0  0  0  0  1  0  0  0  0  0  0
  -27.1920  -15.9510   16.4920 C   0  0  0  0  0  3  0  0  0  0  0  0
  -28.0530  -17.0850   16.9590 N   0  0  0  0  0  0  0  0  0  0  0  0
  -28.4630  -16.8450   17.8590 H   0  0  0  0  0  0  0  0  0  0  0  0
  -27.4600  -18.4530   17.0300 C   0  0  0  0  0  3  0  0  0  0  0  0
  -28.3280  -19.5400   17.7760 C   0  0  0  0  0  3  0  0  0  0  0  0
  -27.8120  -21.0360   17.7340 C   0  0  0  0  0  3  0  0  0  0  0  0
  -28.5190  -22.0940   18.6740 C   0  0  0  0  0  3  0  0  0  0  0  0
  -28.1320  -23.5340   18.4500 N   0  0  0  0  0  4  0  0  0  0  0  0
  -27.1250  -23.5930   18.4330 H   0  0  0  0  0  0  0  0  0  0  0  0
  -28.4540  -23.7850   17.5280 H   0  0  0  0  0  0  0  0  0  0  0  0
  -28.6460  -24.5590   19.4390 C   0  0  0  0  0  2  0  0  0  0  0  0
  -28.4060  -26.0630   19.0230 C   0  0  0  0  0  2  0  0  0  0  0  0
  -28.8700  -27.1320   19.9160 O   0  0  0  0  0  0  0  0  0  0  0  0
  -27.4320  -32.1220   24.9480 C   0  0  0  0  0  0  0  0  0  0  0  0
  -28.0400  -27.5910   20.9370 C   0  0  0  0  0  0  0  0  0  0  0  0
  -26.1210  -30.0330   25.0430 C   0  0  0  0  0  3  0  0  0  0  0  0
  -26.3200  -28.4960   23.0170 C   0  0  0  0  0  0  0  0  0  0  0  0
  -27.0810  -30.8620   22.8140 C   0  0  0  0  0  2  0  0  0  0  0  0
  -27.1570  -29.4100   22.3660 C   0  0  0  0  0  0  0  0  0  0  0  0
  -28.0230  -28.9620   21.3290 C   0  0  0  0  0  3  0  0  0  0  0  0
  -27.1900  -26.7000   21.6290 C   0  0  0  0  0  3  0  0  0  0  0  0
  -26.3400  -27.1420   22.6540 C   0  0  0  0  0  3  0  0  0  0  0  0
  -25.4120  -29.0220   24.1060 C   0  0  0  0  0  2  0  0  0  0  0  0
  -26.9260  -31.0440   24.2830 N   0  0  0  0  0  0  0  0  0  0  0  0
  -27.2100  -32.2950   26.1550 O   0  0  0  0  0  0  0  0  0  0  0  0
  -26.9500  -29.2480   26.0850 C   0  0  0  0  0  0  0  0  0  0  0  0
  -26.3250  -28.9270   27.2300 N   0  0  0  0  0  0  0  0  0  0  0  0
  -28.1150  -28.9200   25.8480 O   0  0  0  0  0  0  0  0  0  0  0  0
  -25.3720  -29.2380   27.3540 H   0  0  0  0  0  0  0  0  0  0  0  0
  -25.7370  -27.8190   30.6210 C   0  0  0  0  0  0  0  0  0  0  0  0
  -26.8970  -28.1570   28.3350 C   0  0  0  0  0  3  0  0  0  0  0  0
  -26.6930  -26.6400   28.1220 C   0  0  0  0  0  2  0  0  0  0  0  0
  -25.4210  -26.1030   28.7880 C   0  0  0  0  0  2  0  0  0  0  0  0
  -25.4570  -26.3610   30.2970 C   0  0  0  0  0  2  0  0  0  0  0  0
  -26.4000  -28.6660   29.6930 C   0  0  0  0  0  0  0  0  0  0  0  0
  -26.6030  -30.0220   30.0300 C   0  0  0  0  0  3  0  0  0  0  0  0
  -26.1640  -30.5320   31.2660 C   0  0  0  0  0  3  0  0  0  0  0  0
  -25.5230  -29.6850   32.1860 C   0  0  0  0  0  3  0  0  0  0  0  0
  -25.3140  -28.3320   31.8640 C   0  0  0  0  0  3  0  0  0  0  0  0
  -28.2900  -33.2000   24.2200 C   0  0  0  0  0  3  0  0  0  0  0  0
  -27.7960  -34.5180   24.6420 N   0  0  0  0  0  0  0  0  0  0  0  0
  -27.0250  -35.3180   23.8950 C   0  0  0  0  0  0  0  0  0  0  0  0
  -26.7090  -35.0460   22.7330 O   0  0  0  0  0  0  0  0  0  0  0  0
  -27.9660  -34.7770   25.6030 H   0  0  0  0  0  0  0  0  0  0  0  0
  -25.0480  -36.4750   24.9360 C   0  0  0  0  0  1  0  0  0  0  0  0
  -26.5240  -36.6260   24.5370 C   0  0  0  0  0  3  0  0  0  0  0  0
  -28.0790  -38.1940   23.4610 C   0  0  0  0  0  1  0  0  0  0  0  0
  -26.6850  -37.8090   23.6630 N   0  0  0  0  0  0  0  0  0  0  0  0
  -26.1880  -38.6090   24.0460 H   0  0  0  0  0  0  0  0  0  0  0  0
  -29.8350  -33.0630   24.5160 C   0  0  1  0  0  0  0  0  0  0  0  0
  -30.1740  -32.9530   26.0200 C   0  0  0  0  0  1  0  0  0  0  0  0
  -30.4180  -31.8170   23.8070 C   0  0  0  0  0  1  0  0  0  0  0  0
  -30.5870  -34.2880   23.9450 C   0  0  0  0  0  1  0  0  0  0  0  0
  -27.8870  -14.5150   16.5800 C   0  0  0  0  0  2  0  0  0  0  0  0
  -27.1160  -13.4240   17.2980 N   0  0  0  0  0  4  0  0  0  0  0  0
  -26.1570  -13.4640   16.9950 H   0  0  0  0  0  0  0  0  0  0  0  0
  -27.1220  -13.6480   18.2800 H   0  0  0  0  0  0  0  0  0  0  0  0
  -26.4810  -11.2020   16.3910 C   0  0  0  0  0  1  0  0  0  0  0  0
  -27.5830  -11.9860   17.1200 C   0  0  0  0  0  3  0  0  0  0  0  0
  -27.9780  -11.1860   18.4530 C   0  0  0  0  0  2  0  0  0  0  0  0
  -29.4620  -10.6290   18.5910 C   0  0  0  0  0  3  0  0  0  0  0  0
  -30.0030  -10.3280   20.0500 C   0  0  0  0  0  2  0  0  0  0  0  0
  -31.4680  -10.6200   20.3060 N   0  0  0  0  0  4  0  0  0  0  0  0
  -31.7580  -11.3070   19.6310 H   0  0  0  0  0  0  0  0  0  0  0  0
  -32.0210   -9.7930   20.1340 H   0  0  0  0  0  0  0  0  0  0  0  0
  -31.8010  -11.1730   21.6720 C   0  0  0  0  0  2  0  0  0  0  0  0
  -33.1830  -11.9250   21.9480 C   0  0  0  0  0  2  0  0  0  0  0  0
  -32.7880  -14.2240   20.7520 C   0  0  0  0  0  0  0  0  0  0  0  0
  -31.9570  -13.0280   19.0640 C   0  0  0  0  0  2  0  0  0  0  0  0
  -30.8110  -12.8740   18.1680 C   0  0  0  0  0  2  0  0  0  0  0  0
  -29.4910  -12.5790   18.8180 C   0  0  0  0  0  3  0  0  0  0  0  0
  -29.2200  -13.7420   19.7660 C   0  0  0  0  0  3  0  0  0  0  0  0
  -30.2900  -13.8230   20.8830 C   0  0  0  0  0  2  0  0  0  0  0  0
  -31.6610  -13.6730   20.3280 N   0  0  0  0  0  0  0  0  0  0  0  0
  -33.3770  -15.1380   20.1620 O   0  0  0  0  0  0  0  0  0  0  0  0
  -33.5420  -13.2450   21.3270 N   0  0  0  0  0  0  0  0  0  0  0  0
  -34.5120  -13.5080   21.4290 H   0  0  0  0  0  0  0  0  0  0  0  0
  -26.9500  -14.7080   20.4230 C   0  0  0  0  0  0  0  0  0  0  0  0
  -25.7660  -14.1150   20.7420 C   0  0  0  0  0  0  0  0  0  0  0  0
  -26.0090  -12.7040   20.7170 C   0  0  0  0  0  0  0  0  0  0  0  0
  -27.8530  -13.6740   20.2400 N   0  0  0  0  0  0  0  0  0  0  0  0
  -27.2860  -12.4600   20.4560 N   0  0  0  0  0  0  0  0  0  0  0  0
  -25.0870  -11.5760   20.8700 C   0  0  0  0  0  0  0  0  0  0  0  0
  -25.3730  -10.4970   21.7370 C   0  0  0  0  0  3  0  0  0  0  0  0
  -24.4540   -9.4360   21.8870 C   0  0  0  0  0  3  0  0  0  0  0  0
  -23.2390   -9.4460   21.1620 C   0  0  0  0  0  0  0  0  0  0  0  0
  -22.9720  -10.5090   20.2810 C   0  0  0  0  0  3  0  0  0  0  0  0
  -23.8900  -11.5590   20.1290 C   0  0  0  0  0  3  0  0  0  0  0  0
  -22.2950   -8.4470   21.2230 O   0  0  0  0  0  0  0  0  0  0  0  0
  -22.2010   -7.6210   22.3150 C   0  0  0  0  0  0  0  0  0  0  0  0
  -22.0210   -8.1290   23.6210 C   0  0  0  0  0  3  0  0  0  0  0  0
  -21.8510   -7.2410   24.7020 C   0  0  0  0  0  3  0  0  0  0  0  0
  -21.8650   -5.8500   24.4840 C   0  0  0  0  0  0  0  0  0  0  0  0
  -22.0480   -5.3420   23.1850 C   0  0  0  0  0  3  0  0  0  0  0  0
  -22.2100   -6.2270   22.1040 C   0  0  0  0  0  0  0  0  0  0  0  0
  -22.3630   -5.7350   20.8510 F   0  0  0  0  0  0  0  0  0  0  0  0
  -21.7000   -4.9990   25.5240 F   0  0  0  0  0  0  0  0  0  0  0  0
  -24.4560  -14.8080   20.9720 C   0  0  0  0  0  0  0  0  0  0  0  0
  -23.6140  -14.2510   21.8320 N   0  0  0  0  0  0  0  0  0  0  0  0
  -24.1970  -15.8800   20.4230 O   0  0  0  0  0  0  0  0  0  0  0  0
  -23.8340  -13.3790   22.2920 H   0  0  0  0  0  0  0  0  0  0  0  0
  -22.7340  -14.7010   22.0360 H   0  0  0  0  0  0  0  0  0  0  0  0
  -27.3250  -16.0400   20.2530 N   0  0  0  0  0  0  0  0  0  0  0  0
  -26.6560  -16.7950   20.3710 H   0  0  0  0  0  0  0  0  0  0  0  0
  -28.2470  -16.3680   20.0020 H   0  0  0  0  0  0  0  0  0  0  0  0
  2  1  1  0
  2 55  1  0
  2  3  1  0
  3  5  1  0
  3  4  1  0
  5  6  2  0
  7  6  1  0
  7  8  2  0
  9  8  1  0
  9 12  1  0
 10  9  1  0
 11  9  1  0
 13 12  1  0
 13 14  1  0
 14 16  1  0
 15 26  2  0
 16 21  2  0
 16 22  1  0
 17 27  1  0
 18 24  1  0
 19 25  1  0
 20 19  1  0
 20 18  2  0
 21 20  1  0
 22 23  2  0
 23 18  1  0
 24 17  1  0
 25 15  1  0
 25 17  1  0
 27 28  1  0
 28 30  1  0
 29 27  2  0
 31 40  1  0
 32 28  1  0
 32 36  1  0
 33 32  1  0
 33 34  1  0
 34 35  1  0
 35 31  1  0
 36 37  1  0
 36 31  2  0
 37 38  2  0
 38 39  1  0
 40 39  2  0
 41 51  1  0
 41 42  1  0
 41 15  1  0
 42 45  1  0
 43 47  1  0
 43 42  1  0
 44 43  2  0
 47 46  1  0
 48 49  1  0
 49 50  1  0
 49 47  1  0
 51 52  1  1
 53 51  1  0
 54 51  1  0
 55 56  1  0
 56 58  1  0
 57 56  1  0
 60 59  1  0
 60 56  1  0
 60 61  1  0
 62 61  1  0
 62 72  1  0
 62 63  1  0
 63 64  1  0
 64 67  1  0
 65 64  1  0
 66 64  1  0
 67 68  1  0
 69 77  1  0
 70 75  1  0
 71 70  1  0
 72 71  1  0
 72 73  1  0
 73 82  1  0
 73 74  1  0
 75 69  1  0
 75 74  1  0
 76 69  2  0
 77 78  1  0
 77 68  1  0
 79 80  2  0
 80 99  1  0
 81 80  1  0
 81 84  1  0
 82 79  1  0
 82 83  1  0
 83 81  2  0
 84 85  1  0
 85 86  2  0
 87 90  1  0
 87 86  1  0
 88 87  2  0
 89 88  1  0
 89 84  2  0
 90 91  1  0
 91 92  1  0
 92 93  2  0
 94 93  1  0
 94 98  1  0
 95 94  2  0
 96 91  2  0
 96 95  1  0
 97 96  1  0
 99100  1  0
100103  1  0
100102  1  0
101 99  2  0
104105  1  0
104 79  1  0
106104  1  0
M  ISO  4  13 101  14 101  69 100  77 100
M  END
>  <TORSDO>  (44) 
F 33

>  <SCORE>  (44) 
19.800

>  <name>  (44) 
46

>  <ligand_id>  (44) 
46

>  <original_smiles>  (44) 
[H]c1c([H])c([H])c2c(c1[H])C([H])([H])C([H])([H])C([H])([H])C2([H])N([H])C(=O)C1([H])N(C(=O)C([H])(N([H])C(=O)C([H])(N([H])C([H])([H])[H])C([H])([H])[H])C(C([H])([H])[H])(C([H])([H])[H])C([H])([H])[H])C([H])([H])c2c([H])c(OC([H])([H])C([H])([H])[N+]([H])([H])C([H])([H])C([H])([H])C([H])([H])C([H])([H])N([H])C([H])(C([H])([H])[H])C([H])([H])[N+]([H])([H])C([H])(C([H])([H])[H])C([H])([H])C([H])([H])C([H])([H])[N+]([H])([H])C([H])([H])C([H])([H])N([H])C(=O)N3C([H])([H])C([H])([H])C([H])([H])C([H])(n4nc(-c5c([H])c([H])c(Oc6c([H])c([H])c(F)c([H])c6F)c([H])c5[H])c(C(=O)N([H])[H])c4N([H])[H])C3([H])[H])c([H])c([H])c2C1([H])[H]

>  <smiles>  (44) 
[H]c1c([H])c([H])c2c(c1[H])C([H])([H])C([H])([H])C([H])([H])C2([H])N([H])C(=O)C1([H])N(C(=O)C([H])(N([H])C(=O)C([H])(N([H])C([H])([H])[H])C([H])([H])[H])C(C([H])([H])[H])(C([H])([H])[H])C([H])([H])[H])C([H])([H])c2c([H])c(OC([H])([H])C([H])([H])[N+]([H])([H])C([H])([H])C([H])([H])C([H])([H])C([H])([H])N([H])C([H])(C([H])([H])[H])C([H])([H])[N+]([H])([H])C([H])(C([H])([H])[H])C([H])([H])C([H])([H])C([H])([H])[N+]([H])([H])C([H])([H])C([H])([H])N([H])C(=O)N3C([H])([H])C([H])([H])C([H])([H])C([H])(n4nc(-c5c([H])c([H])c(Oc6c([H])c([H])c(F)c([H])c6F)c([H])c5[H])c(C(=O)N([H])[H])c4N([H])[H])C3([H])[H])c([H])c([H])c2C1([H])[H]

$$$$
47:0:0
     RDKit          3D

 92100  0  0  1  0  0  0  0  0999 V2000
  -28.2660  -20.2890   19.9200 C   0  0  0  0  0  3  0  0  0  0  0  0
  -28.3040  -21.7120   19.9020 C   0  0  0  0  0  3  0  0  0  0  0  0
  -30.4210  -20.2190   20.9720 C   0  0  0  0  0  3  0  0  0  0  0  0
  -29.3200  -19.4930   20.4480 C   0  0  0  0  0  0  0  0  0  0  0  0
  -29.3990  -22.4410   20.4190 C   0  0  0  0  0  0  0  0  0  0  0  0
  -30.4800  -21.6590   20.9460 C   0  0  0  0  0  0  0  0  0  0  0  0
  -29.2190  -17.9550   20.3710 C   0  0  0  0  0  0  0  0  0  0  0  0
  -28.2880  -17.4170   19.7620 O   0  0  0  0  0  0  0  0  0  0  0  0
  -30.2480  -16.9880   21.0520 C   0  0  0  0  0  2  0  0  0  0  0  0
  -30.6040  -14.5170   20.3300 C   0  0  0  0  0  0  0  0  0  0  0  0
  -30.3170  -12.3190   19.1920 C   0  0  0  0  0  2  0  0  0  0  0  0
  -29.3440  -12.4690   18.0010 C   0  0  0  0  0  2  0  0  0  0  0  0
  -27.8860  -12.3060   18.4680 C   0  0  0  0  0  2  0  0  0  0  0  0
  -27.5650  -13.1750   19.7120 C   0  0  0  0  0  3  0  0  0  0  0  0
  -28.6410  -13.0000   20.8080 C   0  0  0  0  0  2  0  0  0  0  0  0
  -29.9480  -13.3210   20.2100 N   0  0  0  0  0  0  0  0  0  0  0  0
  -31.7220  -14.7000   19.8410 O   0  0  0  0  0  0  0  0  0  0  0  0
  -29.9030  -15.5310   20.9000 N   0  0  0  0  0  0  0  0  0  0  0  0
  -28.9730  -15.2870   21.2060 H   0  0  0  0  0  0  0  0  0  0  0  0
  -25.2010  -13.8010   20.5100 C   0  0  0  0  0  0  0  0  0  0  0  0
  -24.1330  -13.0370   20.8910 C   0  0  0  0  0  0  0  0  0  0  0  0
  -24.5760  -11.6790   20.8310 C   0  0  0  0  0  0  0  0  0  0  0  0
  -26.2250  -12.9100   20.2300 N   0  0  0  0  0  0  0  0  0  0  0  0
  -25.8550  -11.6290   20.4850 N   0  0  0  0  0  0  0  0  0  0  0  0
  -23.8410  -10.4240   21.0240 C   0  0  0  0  0  0  0  0  0  0  0  0
  -24.2710   -9.4490   21.9530 C   0  0  0  0  0  3  0  0  0  0  0  0
  -23.5340   -8.2600   22.1350 C   0  0  0  0  0  3  0  0  0  0  0  0
  -22.3540   -8.0340   21.3860 C   0  0  0  0  0  0  0  0  0  0  0  0
  -21.9440   -8.9960   20.4450 C   0  0  0  0  0  3  0  0  0  0  0  0
  -22.6830  -10.1770   20.2630 C   0  0  0  0  0  3  0  0  0  0  0  0
  -21.5900   -6.8940   21.4740 O   0  0  0  0  0  0  0  0  0  0  0  0
  -21.5290   -6.1590   22.6310 C   0  0  0  0  0  0  0  0  0  0  0  0
  -21.0700   -6.7140   23.8450 C   0  0  0  0  0  3  0  0  0  0  0  0
  -20.9570   -5.9020   24.9910 C   0  0  0  0  0  3  0  0  0  0  0  0
  -21.2950   -4.5370   24.9240 C   0  0  0  0  0  0  0  0  0  0  0  0
  -21.7470   -3.9810   23.7150 C   0  0  0  0  0  3  0  0  0  0  0  0
  -21.8620   -4.7890   22.5710 C   0  0  0  0  0  0  0  0  0  0  0  0
  -22.2790   -4.2450   21.4020 F   0  0  0  0  0  0  0  0  0  0  0  0
  -21.1800   -3.7540   26.0220 F   0  0  0  0  0  0  0  0  0  0  0  0
  -22.7500  -13.5260   21.2080 C   0  0  0  0  0  0  0  0  0  0  0  0
  -22.0340  -12.8240   22.0790 N   0  0  0  0  0  0  0  0  0  0  0  0
  -22.3140  -14.5690   20.7190 O   0  0  0  0  0  0  0  0  0  0  0  0
  -22.4000  -11.9790   22.4930 H   0  0  0  0  0  0  0  0  0  0  0  0
  -21.1050  -13.1330   22.3300 H   0  0  0  0  0  0  0  0  0  0  0  0
  -25.3830  -15.1760   20.3640 N   0  0  0  0  0  0  0  0  0  0  0  0
  -24.6340  -15.8350   20.5450 H   0  0  0  0  0  0  0  0  0  0  0  0
  -26.2480  -15.6290   20.0970 H   0  0  0  0  0  0  0  0  0  0  0  0
  -32.7550  -21.6180   21.7570 C   0  0  0  0  0  1  0  0  0  0  0  0
  -31.5890  -22.3540   21.3880 O   0  0  0  0  0  0  0  0  0  0  0  0
  -29.4840  -24.0170   20.2770 C   0  0  0  0  0  3  0  0  0  0  0  0
  -28.1940  -24.9450   20.3960 C   0  0  0  0  0  3  0  0  0  0  0  0
  -28.3790  -26.4110   20.2100 O   0  0  0  0  0  0  0  0  0  0  0  0
  -24.6210  -31.8110   23.1850 C   0  0  0  0  0  0  0  0  0  0  0  0
  -27.2490  -27.2450   20.1610 C   0  0  0  0  0  0  0  0  0  0  0  0
  -23.4230  -30.4180   21.5360 C   0  0  0  0  0  3  0  0  0  0  0  0
  -24.8850  -28.8580   20.1250 C   0  0  0  0  0  0  0  0  0  0  0  0
  -25.9670  -30.7330   21.3670 C   0  0  0  0  0  2  0  0  0  0  0  0
  -26.0480  -29.3520   20.7250 C   0  0  0  0  0  0  0  0  0  0  0  0
  -27.2370  -28.5580   20.7300 C   0  0  0  0  0  3  0  0  0  0  0  0
  -26.0620  -26.8080   19.5280 C   0  0  0  0  0  3  0  0  0  0  0  0
  -24.8950  -27.5930   19.5170 C   0  0  0  0  0  3  0  0  0  0  0  0
  -23.6430  -29.7290   20.1620 C   0  0  0  0  0  2  0  0  0  0  0  0
  -24.6900  -31.0030   22.0860 N   0  0  0  0  0  0  0  0  0  0  0  0
  -23.5350  -32.0880   23.7140 O   0  0  0  0  0  0  0  0  0  0  0  0
  -22.7480  -29.4040   22.4910 C   0  0  0  0  0  0  0  0  0  0  0  0
  -21.4190  -29.2430   22.3690 N   0  0  0  0  0  0  0  0  0  0  0  0
  -23.4240  -28.7590   23.2980 O   0  0  0  0  0  0  0  0  0  0  0  0
  -20.9300  -29.8100   21.6870 H   0  0  0  0  0  0  0  0  0  0  0  0
  -18.0260  -28.1220   22.9050 C   0  0  0  0  0  0  0  0  0  0  0  0
  -20.5930  -28.3090   23.1370 C   0  0  0  0  0  3  0  0  0  0  0  0
  -20.6480  -26.8870   22.5280 C   0  0  0  0  0  2  0  0  0  0  0  0
  -19.5220  -26.6160   21.5260 C   0  0  0  0  0  2  0  0  0  0  0  0
  -18.1560  -26.7840   22.1990 C   0  0  0  0  0  2  0  0  0  0  0  0
  -19.1700  -28.8460   23.3310 C   0  0  0  0  0  0  0  0  0  0  0  0
  -18.9930  -30.1030   23.9500 C   0  0  0  0  0  3  0  0  0  0  0  0
  -17.7040  -30.6350   24.1460 C   0  0  0  0  0  3  0  0  0  0  0  0
  -16.5740  -29.9060   23.7390 C   0  0  0  0  0  3  0  0  0  0  0  0
  -16.7360  -28.6520   23.1240 C   0  0  0  0  0  3  0  0  0  0  0  0
  -25.9010  -32.4390   23.8150 C   0  0  0  0  0  3  0  0  0  0  0  0
  -25.5910  -33.8340   24.1620 N   0  0  0  0  0  0  0  0  0  0  0  0
  -25.9120  -34.8950   23.4100 C   0  0  0  0  0  0  0  0  0  0  0  0
  -26.5680  -34.8040   22.3690 O   0  0  0  0  0  0  0  0  0  0  0  0
  -25.0010  -33.9800   24.9680 H   0  0  0  0  0  0  0  0  0  0  0  0
  -24.1750  -36.6900   23.0940 C   0  0  0  0  0  1  0  0  0  0  0  0
  -25.4270  -36.2780   23.8870 C   0  0  0  0  0  3  0  0  0  0  0  0
  -27.5620  -37.1720   24.7090 C   0  0  0  0  0  1  0  0  0  0  0  0
  -26.4540  -37.3350   23.7710 N   0  0  0  0  0  0  0  0  0  0  0  0
  -26.0460  -38.2550   23.9180 H   0  0  0  0  0  0  0  0  0  0  0  0
  -26.4170  -31.6540   25.0830 C   0  0  1  0  0  0  0  0  0  0  0  0
  -25.3200  -31.3990   26.1430 C   0  0  0  0  0  1  0  0  0  0  0  0
  -27.0020  -30.2830   24.6740 C   0  0  0  0  0  1  0  0  0  0  0  0
  -27.5610  -32.4420   25.7580 C   0  0  0  0  0  1  0  0  0  0  0  0
  1  4  1  0
  2  1  2  0
  2  5  1  0
  4  3  2  0
  5  6  2  0
  6  3  1  0
  6 49  1  0
  7  4  1  0
  7  9  1  0
  8  7  2  0
 10 18  1  0
 11 16  1  0
 12 13  1  0
 12 11  1  0
 14 13  1  0
 14 23  1  0
 14 15  1  0
 16 10  1  0
 16 15  1  0
 17 10  2  0
 18  9  1  0
 18 19  1  0
 20 21  2  0
 21 40  1  0
 22 21  1  0
 22 25  1  0
 23 24  1  0
 23 20  1  0
 24 22  2  0
 25 26  1  0
 26 27  2  0
 28 31  1  0
 28 27  1  0
 29 28  2  0
 30 29  1  0
 30 25  2  0
 31 32  1  0
 32 33  1  0
 33 34  2  0
 35 34  1  0
 35 39  1  0
 36 35  2  0
 37 32  2  0
 37 36  1  0
 38 37  1  0
 40 41  1  0
 41 44  1  0
 41 43  1  0
 42 40  2  0
 45 20  1  0
 45 46  1  0
 47 45  1  0
 49 48  1  0
 50 51  2  0
 50  5  1  0
 52 51  1  0
 53 64  2  0
 54 52  1  0
 54 59  1  0
 55 63  1  0
 55 65  1  0
 56 62  1  0
 56 58  1  0
 57 63  1  0
 58 59  2  0
 58 57  1  0
 60 54  2  0
 61 60  1  0
 61 56  2  0
 62 55  1  0
 63 53  1  0
 65 67  2  0
 66 65  1  0
 68 66  1  0
 69 78  2  0
 69 74  1  0
 70 66  1  0
 70 74  1  0
 71 70  1  0
 72 73  1  0
 72 71  1  0
 73 69  1  0
 74 75  2  0
 75 76  1  0
 77 76  2  0
 78 77  1  0
 79 53  1  0
 79 80  1  0
 79 89  1  0
 80 83  1  0
 81 85  1  0
 81 80  1  0
 82 81  2  0
 85 84  1  0
 87 85  1  0
 87 88  1  0
 87 86  1  0
 89 92  1  1
 89 90  1  0
 91 89  1  0
M  ISO  4  10 100  18 100  51 101  52 101
M  END
>  <TORSDO>  (45) 
F 21

>  <SCORE>  (45) 
-13.388

>  <name>  (45) 
47

>  <ligand_id>  (45) 
47

>  <original_smiles>  (45) 
[H]c1c([H])c([H])c2c(c1[H])C([H])([H])C([H])([H])C([H])([H])C2([H])N([H])C(=O)C1([H])N(C(=O)C([H])(N([H])C(=O)C([H])(N([H])C([H])([H])[H])C([H])([H])[H])C(C([H])([H])[H])(C([H])([H])[H])C([H])([H])[H])C([H])([H])c2c([H])c(OC([H])([H])C([H])([H])c3c([H])c([H])c(C(=O)C([H])([H])N([H])C(=O)N4C([H])([H])C([H])([H])C([H])([H])C([H])(n5nc(-c6c([H])c([H])c(Oc7c([H])c([H])c(F)c([H])c7F)c([H])c6[H])c(C(=O)N([H])[H])c5N([H])[H])C4([H])[H])c([H])c3OC([H])([H])[H])c([H])c([H])c2C1([H])[H]

>  <smiles>  (45) 
[H]c1c([H])c([H])c2c(c1[H])C([H])([H])C([H])([H])C([H])([H])C2([H])N([H])C(=O)C1([H])N(C(=O)C([H])(N([H])C(=O)C([H])(N([H])C([H])([H])[H])C([H])([H])[H])C(C([H])([H])[H])(C([H])([H])[H])C([H])([H])[H])C([H])([H])c2c([H])c(OC([H])([H])C([H])([H])c3c([H])c([H])c(C(=O)C([H])([H])N([H])C(=O)N4C([H])([H])C([H])([H])C([H])([H])C([H])(n5nc(-c6c([H])c([H])c(Oc7c([H])c([H])c(F)c([H])c7F)c([H])c6[H])c(C(=O)N([H])[H])c5N([H])[H])C4([H])[H])c([H])c3OC([H])([H])[H])c([H])c([H])c2C1([H])[H]

$$$$
48:0:0
     RDKit          3D

 95103  0  0  1  0  0  0  0  0999 V2000
  -25.9630  -19.7800   19.6830 C   0  0  0  0  0  3  0  0  0  0  0  0
  -26.4790  -20.7360   18.7910 C   0  0  0  0  0  3  0  0  0  0  0  0
  -26.6370  -18.5630   19.8780 C   0  0  0  0  0  3  0  0  0  0  0  0
  -28.3470  -19.2530   18.2850 C   0  0  0  0  0  3  0  0  0  0  0  0
  -27.6780  -20.4870   18.0840 C   0  0  0  0  0  0  0  0  0  0  0  0
  -27.8380  -18.2870   19.1890 C   0  0  0  0  0  0  0  0  0  0  0  0
  -28.5260  -16.9920   19.4660 C   0  0  0  0  0  0  0  0  0  0  0  0
  -28.0860  -16.1690   20.2780 O   0  0  0  0  0  0  0  0  0  0  0  0
  -29.8130  -16.6710   18.6910 C   0  0  0  0  0  2  0  0  0  0  0  0
  -30.9860  -16.1640   19.5690 C   0  0  0  0  0  2  0  0  0  0  0  0
  -31.4480  -14.0510   20.8250 C   0  0  0  0  0  0  0  0  0  0  0  0
  -31.4370  -11.6260   21.2170 C   0  0  0  0  0  2  0  0  0  0  0  0
  -30.8700  -10.9400   19.9570 C   0  0  0  0  0  2  0  0  0  0  0  0
  -29.3310  -10.8590   20.0240 C   0  0  0  0  0  2  0  0  0  0  0  0
  -28.6730  -12.2160   20.4000 C   0  0  0  0  0  3  0  0  0  0  0  0
  -29.3790  -12.8540   21.6170 C   0  0  0  0  0  2  0  0  0  0  0  0
  -30.8180  -12.9530   21.3140 N   0  0  0  0  0  0  0  0  0  0  0  0
  -32.6600  -14.1070   20.6050 O   0  0  0  0  0  0  0  0  0  0  0  0
  -30.6220  -15.0160   20.4050 N   0  0  0  0  0  0  0  0  0  0  0  0
  -29.6420  -14.8870   20.6100 H   0  0  0  0  0  0  0  0  0  0  0  0
  -26.2310  -13.0160   20.5040 C   0  0  0  0  0  0  0  0  0  0  0  0
  -25.0620  -12.3560   20.7680 C   0  0  0  0  0  0  0  0  0  0  0  0
  -25.4280  -11.0010   21.0360 C   0  0  0  0  0  0  0  0  0  0  0  0
  -27.2390  -12.0720   20.6290 N   0  0  0  0  0  0  0  0  0  0  0  0
  -26.7470  -10.8640   21.0050 N   0  0  0  0  0  0  0  0  0  0  0  0
  -24.5940   -9.8140   21.2650 C   0  0  0  0  0  0  0  0  0  0  0  0
  -24.5410   -9.1770   22.5250 C   0  0  0  0  0  3  0  0  0  0  0  0
  -23.7190   -8.0470   22.7230 C   0  0  0  0  0  3  0  0  0  0  0  0
  -22.9350   -7.5440   21.6570 C   0  0  0  0  0  0  0  0  0  0  0  0
  -23.0110   -8.1650   20.3980 C   0  0  0  0  0  3  0  0  0  0  0  0
  -23.8340   -9.2850   20.2000 C   0  0  0  0  0  3  0  0  0  0  0  0
  -22.1280   -6.4370   21.7510 O   0  0  0  0  0  0  0  0  0  0  0  0
  -21.3420   -6.2120   22.8530 C   0  0  0  0  0  0  0  0  0  0  0  0
  -20.3360   -7.1200   23.2480 C   0  0  0  0  0  3  0  0  0  0  0  0
  -19.5050   -6.8150   24.3450 C   0  0  0  0  0  3  0  0  0  0  0  0
  -19.6720   -5.6030   25.0400 C   0  0  0  0  0  0  0  0  0  0  0  0
  -20.6710   -4.6960   24.6440 C   0  0  0  0  0  3  0  0  0  0  0  0
  -21.5010   -4.9980   23.5510 C   0  0  0  0  0  0  0  0  0  0  0  0
  -22.4480   -4.1110   23.1610 F   0  0  0  0  0  0  0  0  0  0  0  0
  -18.8700   -5.3060   26.0890 F   0  0  0  0  0  0  0  0  0  0  0  0
  -23.6740  -12.9210   20.6760 C   0  0  0  0  0  0  0  0  0  0  0  0
  -22.7540  -12.4210   21.4950 N   0  0  0  0  0  0  0  0  0  0  0  0
  -23.4090  -13.8460   19.9080 O   0  0  0  0  0  0  0  0  0  0  0  0
  -22.9810  -11.6830   22.1440 H   0  0  0  0  0  0  0  0  0  0  0  0
  -21.8090  -12.7790   21.4700 H   0  0  0  0  0  0  0  0  0  0  0  0
  -26.5210  -14.3280   20.1460 N   0  0  0  0  0  0  0  0  0  0  0  0
  -25.7940  -15.0100   19.9650 H   0  0  0  0  0  0  0  0  0  0  0  0
  -27.4460  -14.6550   19.9070 H   0  0  0  0  0  0  0  0  0  0  0  0
  -28.1700  -21.5230   17.1300 C   0  0  0  0  0  0  0  0  0  0  0  0
  -27.4450  -22.4290   16.7060 O   0  0  0  0  0  0  0  0  0  0  0  0
  -29.6440  -21.4850   16.6950 C   0  0  0  0  0  2  0  0  0  0  0  0
  -30.3910  -22.8120   16.9280 C   0  0  0  0  0  2  0  0  0  0  0  0
  -30.5260  -23.1990   18.4160 C   0  0  0  0  0  2  0  0  0  0  0  0
  -31.1290  -24.6020   18.5930 C   0  0  0  0  0  2  0  0  0  0  0  0
  -30.7490  -25.1990   19.8340 O   0  0  0  0  0  0  0  0  0  0  0  0
  -26.5230  -29.4770   23.6400 C   0  0  0  0  0  0  0  0  0  0  0  0
  -29.5610  -25.8990   19.8690 C   0  0  0  0  0  0  0  0  0  0  0  0
  -25.5580  -28.6160   21.5350 C   0  0  0  0  0  3  0  0  0  0  0  0
  -27.1870  -27.4350   19.9690 C   0  0  0  0  0  0  0  0  0  0  0  0
  -28.0880  -28.8830   21.7970 C   0  0  0  0  0  2  0  0  0  0  0  0
  -28.2470  -27.7250   20.8370 C   0  0  0  0  0  0  0  0  0  0  0  0
  -29.4270  -26.9510   20.8010 C   0  0  0  0  0  3  0  0  0  0  0  0
  -28.4790  -25.6180   19.0000 C   0  0  0  0  0  3  0  0  0  0  0  0
  -27.2940  -26.3740   19.0550 C   0  0  0  0  0  3  0  0  0  0  0  0
  -25.9590  -28.3140   20.0660 C   0  0  0  0  0  2  0  0  0  0  0  0
  -26.7330  -28.9890   22.3870 N   0  0  0  0  0  0  0  0  0  0  0  0
  -25.3770  -29.6540   24.0770 O   0  0  0  0  0  0  0  0  0  0  0  0
  -24.7630  -27.4110   22.0840 C   0  0  0  0  0  0  0  0  0  0  0  0
  -23.5630  -27.1830   21.5260 N   0  0  0  0  0  0  0  0  0  0  0  0
  -25.2360  -26.6920   22.9690 O   0  0  0  0  0  0  0  0  0  0  0  0
  -23.2420  -27.8180   20.8090 H   0  0  0  0  0  0  0  0  0  0  0  0
  -20.4890  -25.5560   20.5600 C   0  0  0  0  0  0  0  0  0  0  0  0
  -22.6580  -26.0870   21.8590 C   0  0  0  0  0  3  0  0  0  0  0  0
  -23.1890  -24.7370   21.3270 C   0  0  0  0  0  2  0  0  0  0  0  0
  -22.6340  -24.3550   19.9520 C   0  0  0  0  0  2  0  0  0  0  0  0
  -21.1050  -24.2930   19.9850 C   0  0  0  0  0  2  0  0  0  0  0  0
  -21.2200  -26.4010   21.4360 C   0  0  0  0  0  0  0  0  0  0  0  0
  -20.6050  -27.5700   21.9320 C   0  0  0  0  0  3  0  0  0  0  0  0
  -19.2870  -27.9000   21.5650 C   0  0  0  0  0  3  0  0  0  0  0  0
  -18.5610  -27.0500   20.7120 C   0  0  0  0  0  3  0  0  0  0  0  0
  -19.1610  -25.8810   20.2130 C   0  0  0  0  0  3  0  0  0  0  0  0
  -27.7120  -29.8580   24.5780 C   0  0  0  0  0  3  0  0  0  0  0  0
  -27.4650  -31.2170   25.0740 N   0  0  0  0  0  0  0  0  0  0  0  0
  -28.0250  -32.3230   24.5660 C   0  0  0  0  0  0  0  0  0  0  0  0
  -28.8700  -32.2960   23.6670 O   0  0  0  0  0  0  0  0  0  0  0  0
  -26.7440  -31.3210   25.7730 H   0  0  0  0  0  0  0  0  0  0  0  0
  -26.5460  -34.3260   24.2140 C   0  0  0  0  0  1  0  0  0  0  0  0
  -27.5750  -33.6750   25.1510 C   0  0  0  0  0  3  0  0  0  0  0  0
  -29.5740  -34.1950   26.4790 C   0  0  0  0  0  1  0  0  0  0  0  0
  -28.6950  -34.6130   25.3910 N   0  0  0  0  0  0  0  0  0  0  0  0
  -28.3450  -35.5440   25.6040 H   0  0  0  0  0  0  0  0  0  0  0  0
  -27.9040  -28.8500   25.7780 C   0  0  1  0  0  0  0  0  0  0  0  0
  -26.6080  -28.5900   26.5810 C   0  0  0  0  0  1  0  0  0  0  0  0
  -28.4260  -27.4870   25.2670 C   0  0  0  0  0  1  0  0  0  0  0  0
  -28.9750  -29.3950   26.7520 C   0  0  0  0  0  1  0  0  0  0  0  0
  1  3  1  0
  2  1  2  0
  4  6  1  0
  5  4  2  0
  5  2  1  0
  6  7  1  0
  6  3  2  0
  7  8  2  0
  9  7  1  0
  9 10  1  0
 10 19  1  0
 11 17  1  0
 12 17  1  0
 13 14  1  0
 13 12  1  0
 15 14  1  0
 15 24  1  0
 15 16  1  0
 17 16  1  0
 18 11  2  0
 19 20  1  0
 19 11  1  0
 21 24  1  0
 21 22  2  0
 22 23  1  0
 23 26  1  0
 24 25  1  0
 25 23  2  0
 26 27  1  0
 27 28  2  0
 29 32  1  0
 29 28  1  0
 30 29  2  0
 31 30  1  0
 31 26  2  0
 32 33  1  0
 33 34  2  0
 33 38  1  0
 34 35  1  0
 35 36  2  0
 36 40  1  0
 37 36  1  0
 38 37  2  0
 39 38  1  0
 41 22  1  0
 41 42  1  0
 42 44  1  0
 43 41  2  0
 45 42  1  0
 46 21  1  0
 47 46  1  0
 48 46  1  0
 49  5  1  0
 50 49  2  0
 51 52  1  0
 51 49  1  0
 52 53  1  0
 53 54  1  0
 54 55  1  0
 55 57  1  0
 56 67  2  0
 57 62  1  0
 58 68  1  0
 58 66  1  0
 59 65  1  0
 59 61  1  0
 60 66  1  0
 61 60  1  0
 62 61  2  0
 63 64  1  0
 63 57  2  0
 64 59  2  0
 65 58  1  0
 66 56  1  0
 68 70  2  0
 69 68  1  0
 71 69  1  0
 72 77  1  0
 73 69  1  0
 74 73  1  0
 75 76  1  0
 75 74  1  0
 76 72  1  0
 77 73  1  0
 77 78  2  0
 79 78  1  0
 80 79  2  0
 81 72  2  0
 81 80  1  0
 82 56  1  0
 82 83  1  0
 82 92  1  0
 83 86  1  0
 84 83  1  0
 84 88  1  0
 85 84  2  0
 88 87  1  0
 88 90  1  0
 90 91  1  0
 90 89  1  0
 92 93  1  1
 92 95  1  0
 94 92  1  0
M  ISO  4  11 100  19 100  54 101  55 101
M  END
>  <TORSDO>  (46) 
F 24

>  <SCORE>  (46) 
-5.659

>  <name>  (46) 
48

>  <ligand_id>  (46) 
48

>  <original_smiles>  (46) 
[H]c1c([H])c(C(=O)C([H])([H])C([H])([H])N([H])C(=O)N2C([H])([H])C([H])([H])C([H])([H])C([H])(n3nc(-c4c([H])c([H])c(Oc5c([H])c([H])c(F)c([H])c5F)c([H])c4[H])c(C(=O)N([H])[H])c3N([H])[H])C2([H])[H])c([H])c(C(=O)C([H])([H])C([H])([H])C([H])([H])C([H])([H])Oc2c([H])c([H])c3c(c2[H])C([H])([H])N(C(=O)C([H])(N([H])C(=O)C([H])(N([H])C([H])([H])[H])C([H])([H])[H])C(C([H])([H])[H])(C([H])([H])[H])C([H])([H])[H])C([H])(C(=O)N([H])C2([H])c4c([H])c([H])c([H])c([H])c4C([H])([H])C([H])([H])C2([H])[H])C3([H])[H])c1[H]

>  <smiles>  (46) 
[H]c1c([H])c(C(=O)C([H])([H])C([H])([H])N([H])C(=O)N2C([H])([H])C([H])([H])C([H])([H])C([H])(n3nc(-c4c([H])c([H])c(Oc5c([H])c([H])c(F)c([H])c5F)c([H])c4[H])c(C(=O)N([H])[H])c3N([H])[H])C2([H])[H])c([H])c(C(=O)C([H])([H])C([H])([H])C([H])([H])C([H])([H])Oc2c([H])c([H])c3c(c2[H])C([H])([H])N(C(=O)C([H])(N([H])C(=O)C([H])(N([H])C([H])([H])[H])C([H])([H])[H])C(C([H])([H])[H])(C([H])([H])[H])C([H])([H])[H])C([H])(C(=O)N([H])C2([H])c4c([H])c([H])c([H])c([H])c4C([H])([H])C([H])([H])C2([H])[H])C3([H])[H])c1[H]

$$$$
49:0:0
     RDKit          3D

 99107  0  0  1  0  0  0  0  0999 V2000
  -29.3380  -20.1110   21.5400 C   0  0  0  0  0  3  0  0  0  0  0  0
  -28.5640  -21.2700   21.3710 C   0  0  0  0  0  3  0  0  0  0  0  0
  -30.1810  -19.6370   20.5090 C   0  0  0  0  0  0  0  0  0  0  0  0
  -28.6030  -22.0000   20.1650 C   0  0  0  0  0  0  0  0  0  0  0  0
  -29.4490  -21.5460   19.1130 C   0  0  0  0  0  0  0  0  0  0  0  0
  -30.2520  -20.3860   19.2970 C   0  0  0  0  0  0  0  0  0  0  0  0
  -29.4920  -22.2990   17.7840 C   0  0  0  0  0  1  0  0  0  0  0  0
  -26.2470  -22.9720   20.1940 C   0  0  0  0  0  1  0  0  0  0  0  0
  -27.7500  -23.2760   20.0490 C   0  0  0  0  0  3  0  0  0  0  0  0
  -28.1990  -24.3070   21.0210 N   0  0  0  0  0  4  0  0  0  0  0  0
  -27.5100  -25.0380   21.0950 H   0  0  0  0  0  0  0  0  0  0  0  0
  -28.2540  -23.8690   21.9260 H   0  0  0  0  0  0  0  0  0  0  0  0
  -29.5280  -24.9140   20.7510 C   0  0  0  0  0  2  0  0  0  0  0  0
  -29.5110  -26.0470   19.7060 C   0  0  0  0  0  2  0  0  0  0  0  0
  -29.1700  -27.2860   20.3270 O   0  0  0  0  0  0  0  0  0  0  0  0
  -24.7390  -31.9150   23.3340 C   0  0  0  0  0  0  0  0  0  0  0  0
  -27.9060  -27.8330   20.2530 C   0  0  0  0  0  0  0  0  0  0  0  0
  -23.7440  -30.4950   21.5680 C   0  0  0  0  0  3  0  0  0  0  0  0
  -25.3930  -29.1360   20.1800 C   0  0  0  0  0  0  0  0  0  0  0  0
  -26.2370  -31.0620   21.5330 C   0  0  0  0  0  2  0  0  0  0  0  0
  -26.4660  -29.7270   20.8540 C   0  0  0  0  0  0  0  0  0  0  0  0
  -27.7180  -29.0800   20.8880 C   0  0  0  0  0  3  0  0  0  0  0  0
  -26.8080  -27.2430   19.5790 C   0  0  0  0  0  3  0  0  0  0  0  0
  -25.5600  -27.8950   19.5400 C   0  0  0  0  0  3  0  0  0  0  0  0
  -24.0860  -29.8930   20.1780 C   0  0  0  0  0  2  0  0  0  0  0  0
  -24.9210  -31.1710   22.2060 N   0  0  0  0  0  0  0  0  0  0  0  0
  -23.6110  -32.0790   23.8190 O   0  0  0  0  0  0  0  0  0  0  0  0
  -23.1210  -29.3860   22.4470 C   0  0  0  0  0  0  0  0  0  0  0  0
  -21.8170  -29.1350   22.2560 N   0  0  0  0  0  0  0  0  0  0  0  0
  -23.8110  -28.7590   23.2540 O   0  0  0  0  0  0  0  0  0  0  0  0
  -21.3180  -29.7030   21.5870 H   0  0  0  0  0  0  0  0  0  0  0  0
  -18.4900  -27.7710   22.5870 C   0  0  0  0  0  0  0  0  0  0  0  0
  -21.0270  -28.1110   22.9380 C   0  0  0  0  0  3  0  0  0  0  0  0
  -21.2040  -26.7300   22.2630 C   0  0  0  0  0  2  0  0  0  0  0  0
  -20.1380  -26.4370   21.2020 C   0  0  0  0  0  2  0  0  0  0  0  0
  -18.7380  -26.4800   21.8230 C   0  0  0  0  0  2  0  0  0  0  0  0
  -19.5660  -28.5440   23.0960 C   0  0  0  0  0  0  0  0  0  0  0  0
  -19.2820  -29.7540   23.7660 C   0  0  0  0  0  3  0  0  0  0  0  0
  -17.9540  -30.1900   23.9350 C   0  0  0  0  0  3  0  0  0  0  0  0
  -16.8920  -29.4120   23.4430 C   0  0  0  0  0  3  0  0  0  0  0  0
  -17.1610  -28.2040   22.7750 C   0  0  0  0  0  3  0  0  0  0  0  0
  -25.9330  -32.6130   24.0560 C   0  0  0  0  0  3  0  0  0  0  0  0
  -25.5390  -34.0020   24.3250 N   0  0  0  0  0  0  0  0  0  0  0  0
  -25.8970  -35.0520   23.5740 C   0  0  0  0  0  0  0  0  0  0  0  0
  -26.6660  -34.9580   22.6130 O   0  0  0  0  0  0  0  0  0  0  0  0
  -24.8610  -34.1490   25.0590 H   0  0  0  0  0  0  0  0  0  0  0  0
  -24.1310  -36.7550   23.0240 C   0  0  0  0  0  1  0  0  0  0  0  0
  -25.3100  -36.4260   23.9510 C   0  0  0  0  0  3  0  0  0  0  0  0
  -27.3180  -37.4270   24.9460 C   0  0  0  0  0  1  0  0  0  0  0  0
  -26.3010  -37.5220   23.9020 N   0  0  0  0  0  0  0  0  0  0  0  0
  -25.8410  -38.4250   23.9930 H   0  0  0  0  0  0  0  0  0  0  0  0
  -26.3650  -31.8830   25.3870 C   0  0  1  0  0  0  0  0  0  0  0  0
  -25.1890  -31.5870   26.3450 C   0  0  0  0  0  1  0  0  0  0  0  0
  -27.0560  -30.5390   25.0640 C   0  0  0  0  0  1  0  0  0  0  0  0
  -27.4000  -32.7460   26.1460 C   0  0  0  0  0  1  0  0  0  0  0  0
  -30.9830  -18.3850   20.7420 C   0  0  0  0  0  0  0  0  0  0  0  0
  -31.9180  -18.0430   20.0090 O   0  0  0  0  0  0  0  0  0  0  0  0
  -30.5990  -17.5080   21.9500 C   0  0  0  0  0  2  0  0  0  0  0  0
  -31.2860  -16.1260   22.0490 C   0  0  0  0  0  2  0  0  0  0  0  0
  -30.7310  -14.4710   20.2500 C   0  0  0  0  0  0  0  0  0  0  0  0
  -30.2940  -12.4480   18.9060 C   0  0  0  0  0  2  0  0  0  0  0  0
  -29.2720  -12.6920   17.7850 C   0  0  0  0  0  2  0  0  0  0  0  0
  -27.8370  -12.4970   18.3050 C   0  0  0  0  0  2  0  0  0  0  0  0
  -27.5700  -13.2930   19.6090 C   0  0  0  0  0  3  0  0  0  0  0  0
  -28.6890  -13.0440   20.6430 C   0  0  0  0  0  2  0  0  0  0  0  0
  -29.9920  -13.3550   20.0220 N   0  0  0  0  0  0  0  0  0  0  0  0
  -31.6310  -14.8610   19.5000 O   0  0  0  0  0  0  0  0  0  0  0  0
  -30.5040  -15.0480   21.4350 N   0  0  0  0  0  0  0  0  0  0  0  0
  -29.8000  -14.6060   22.0090 H   0  0  0  0  0  0  0  0  0  0  0  0
  -25.2100  -13.8390   20.4860 C   0  0  0  0  0  0  0  0  0  0  0  0
  -24.1770  -13.0360   20.8960 C   0  0  0  0  0  0  0  0  0  0  0  0
  -24.6540  -11.6950   20.7880 C   0  0  0  0  0  0  0  0  0  0  0  0
  -26.2510  -12.9830   20.1610 N   0  0  0  0  0  0  0  0  0  0  0  0
  -25.9230  -11.6870   20.3960 N   0  0  0  0  0  0  0  0  0  0  0  0
  -23.9610  -10.4150   20.9810 C   0  0  0  0  0  0  0  0  0  0  0  0
  -24.4140   -9.4650   21.9220 C   0  0  0  0  0  3  0  0  0  0  0  0
  -23.7200   -8.2490   22.1030 C   0  0  0  0  0  3  0  0  0  0  0  0
  -22.5590   -7.9740   21.3410 C   0  0  0  0  0  0  0  0  0  0  0  0
  -22.1260   -8.9130   20.3890 C   0  0  0  0  0  3  0  0  0  0  0  0
  -22.8200  -10.1210   20.2060 C   0  0  0  0  0  3  0  0  0  0  0  0
  -21.8380   -6.8090   21.4290 O   0  0  0  0  0  0  0  0  0  0  0  0
  -21.7430   -6.1080   22.6040 C   0  0  0  0  0  0  0  0  0  0  0  0
  -21.2000   -6.6830   23.7730 C   0  0  0  0  0  3  0  0  0  0  0  0
  -21.0580   -5.9040   24.9390 C   0  0  0  0  0  3  0  0  0  0  0  0
  -21.4470   -4.5510   24.9360 C   0  0  0  0  0  0  0  0  0  0  0  0
  -21.9830   -3.9760   23.7700 C   0  0  0  0  0  3  0  0  0  0  0  0
  -22.1270   -4.7510   22.6070 C   0  0  0  0  0  0  0  0  0  0  0  0
  -22.6250   -4.1860   21.4810 F   0  0  0  0  0  0  0  0  0  0  0  0
  -21.3040   -3.8020   26.0540 F   0  0  0  0  0  0  0  0  0  0  0  0
  -22.7940  -13.4820   21.2750 C   0  0  0  0  0  0  0  0  0  0  0  0
  -22.1320  -12.7410   22.1580 N   0  0  0  0  0  0  0  0  0  0  0  0
  -22.3090  -14.5180   20.8250 O   0  0  0  0  0  0  0  0  0  0  0  0
  -22.5360  -11.9000   22.5440 H   0  0  0  0  0  0  0  0  0  0  0  0
  -21.2060  -13.0180   22.4520 H   0  0  0  0  0  0  0  0  0  0  0  0
  -25.3430  -15.2170   20.3480 N   0  0  0  0  0  0  0  0  0  0  0  0
  -24.5790  -15.8580   20.5310 H   0  0  0  0  0  0  0  0  0  0  0  0
  -26.1750  -15.6810   20.0060 H   0  0  0  0  0  0  0  0  0  0  0  0
  -31.0940  -20.0080   18.2850 O   0  0  0  0  0  0  0  0  0  0  0  0
  -31.6730  -19.2910   18.5450 H   0  0  0  0  0  0  0  0  0  0  0  0
  2  1  1  0
  3 56  1  0
  3  1  2  0
  4  2  2  0
  5  6  2  0
  5  4  1  0
  6  3  1  0
  7  5  1  0
  9  4  1  0
  9  8  1  0
  9 10  1  0
 10 11  1  0
 10 12  1  0
 13 10  1  0
 14 15  1  0
 14 13  1  0
 16 27  2  0
 17 15  1  0
 17 22  1  0
 18 26  1  0
 18 28  1  0
 19 21  1  0
 20 26  1  0
 21 22  2  0
 21 20  1  0
 23 17  2  0
 24 23  1  0
 24 19  2  0
 25 19  1  0
 25 18  1  0
 26 16  1  0
 28 30  2  0
 29 28  1  0
 31 29  1  0
 32 41  2  0
 32 37  1  0
 33 29  1  0
 33 37  1  0
 34 33  1  0
 35 36  1  0
 35 34  1  0
 36 32  1  0
 37 38  2  0
 38 39  1  0
 40 39  2  0
 41 40  1  0
 42 16  1  0
 42 43  1  0
 42 52  1  0
 43 46  1  0
 44 48  1  0
 44 43  1  0
 45 44  2  0
 48 47  1  0
 50 48  1  0
 50 51  1  0
 50 49  1  0
 52 55  1  1
 52 53  1  0
 54 52  1  0
 56 58  1  0
 57 56  2  0
 58 59  1  0
 60 68  1  0
 61 66  1  0
 62 63  1  0
 62 61  1  0
 64 63  1  0
 64 73  1  0
 64 65  1  0
 66 60  1  0
 66 65  1  0
 67 60  2  0
 68 69  1  0
 68 59  1  0
 70 71  2  0
 71 90  1  0
 72 71  1  0
 72 75  1  0
 73 74  1  0
 73 70  1  0
 74 72  2  0
 75 76  1  0
 76 77  2  0
 78 81  1  0
 78 77  1  0
 79 78  2  0
 80 79  1  0
 80 75  2  0
 81 82  1  0
 82 87  2  0
 82 83  1  0
 83 84  2  0
 85 84  1  0
 85 89  1  0
 86 85  2  0
 87 86  1  0
 88 87  1  0
 90 91  1  0
 91 94  1  0
 91 93  1  0
 92 90  2  0
 95 70  1  0
 95 96  1  0
 97 95  1  0
 98 99  1  0
 98  6  1  0
M  ISO  4  14 101  15 101  60 100  68 100
M  END
>  <TORSDO>  (47) 
F 24

>  <SCORE>  (47) 
-11.888

>  <name>  (47) 
49

>  <ligand_id>  (47) 
49

>  <original_smiles>  (47) 
[H]Oc1c(C(=O)C([H])([H])C([H])([H])N([H])C(=O)N2C([H])([H])C([H])([H])C([H])([H])C([H])(n3nc(-c4c([H])c([H])c(Oc5c([H])c([H])c(F)c([H])c5F)c([H])c4[H])c(C(=O)N([H])[H])c3N([H])[H])C2([H])[H])c([H])c([H])c(C([H])(C([H])([H])[H])[N+]([H])([H])C([H])([H])C([H])([H])Oc2c([H])c([H])c3c(c2[H])C([H])([H])N(C(=O)C([H])(N([H])C(=O)C([H])(N([H])C([H])([H])[H])C([H])([H])[H])C(C([H])([H])[H])(C([H])([H])[H])C([H])([H])[H])C([H])(C(=O)N([H])C2([H])c4c([H])c([H])c([H])c([H])c4C([H])([H])C([H])([H])C2([H])[H])C3([H])[H])c1C([H])([H])[H]

>  <smiles>  (47) 
[H]Oc1c(C(=O)C([H])([H])C([H])([H])N([H])C(=O)N2C([H])([H])C([H])([H])C([H])([H])C([H])(n3nc(-c4c([H])c([H])c(Oc5c([H])c([H])c(F)c([H])c5F)c([H])c4[H])c(C(=O)N([H])[H])c3N([H])[H])C2([H])[H])c([H])c([H])c(C([H])(C([H])([H])[H])[N+]([H])([H])C([H])([H])C([H])([H])Oc2c([H])c([H])c3c(c2[H])C([H])([H])N(C(=O)C([H])(N([H])C(=O)C([H])(N([H])C([H])([H])[H])C([H])([H])[H])C(C([H])([H])[H])(C([H])([H])[H])C([H])([H])[H])C([H])(C(=O)N([H])C2([H])c4c([H])c([H])c([H])c([H])c4C([H])([H])C([H])([H])C2([H])[H])C3([H])[H])c1C([H])([H])[H]

$$$$
50:0:0
     RDKit          3D

104112  0  0  1  0  0  0  0  0999 V2000
  -25.0350  -23.6670   19.3700 C   0  0  0  0  0  3  0  0  0  0  0  0
  -24.1800  -23.8450   20.4000 C   0  0  0  0  0  3  0  0  0  0  0  0
  -24.7620  -22.7480   18.1790 C   0  0  0  0  0  2  0  0  0  0  0  0
  -25.7910  -20.6550   17.1940 C   0  0  0  0  0  3  0  0  0  0  0  0
  -26.5150  -21.4050   19.4030 C   0  0  0  0  0  3  0  0  0  0  0  0
  -26.9700  -19.8990   17.0630 C   0  0  0  0  0  3  0  0  0  0  0  0
  -27.6830  -20.6220   19.2810 C   0  0  0  0  0  3  0  0  0  0  0  0
  -25.6350  -21.5120   18.3090 C   0  0  0  0  0  0  0  0  0  0  0  0
  -27.9690  -19.9740   18.0580 C   0  0  0  0  0  0  0  0  0  0  0  0
  -29.3670  -18.1550   16.9320 C   0  0  0  0  0  1  0  0  0  0  0  0
  -29.3680  -19.4620   17.7420 C   0  0  0  0  0  3  0  0  0  0  0  0
  -30.1250  -20.5130   17.0680 N   0  0  0  0  0  4  0  0  0  0  0  0
  -29.8700  -20.5290   16.0930 H   0  0  0  0  0  0  0  0  0  0  0  0
  -29.8430  -21.3870   17.4810 H   0  0  0  0  0  0  0  0  0  0  0  0
  -31.5840  -20.3810   17.1950 C   0  0  0  0  0  2  0  0  0  0  0  0
  -31.9640  -20.3710   18.6710 C   0  0  0  0  0  2  0  0  0  0  0  0
  -34.3170  -21.2320   19.1930 C   0  0  0  0  0  0  0  0  0  0  0  0
  -36.2840  -20.0030   19.9750 C   0  0  0  0  0  2  0  0  0  0  0  0
  -37.0720  -19.3700   18.8100 C   0  0  0  0  0  2  0  0  0  0  0  0
  -36.4940  -18.0060   18.3870 C   0  0  0  0  0  2  0  0  0  0  0  0
  -34.9440  -18.0130   18.2710 C   0  0  0  0  0  3  0  0  0  0  0  0
  -34.3430  -18.6640   19.5380 C   0  0  0  0  0  2  0  0  0  0  0  0
  -34.8540  -20.0480   19.6220 N   0  0  0  0  0  0  0  0  0  0  0  0
  -34.9690  -22.2760   19.1400 O   0  0  0  0  0  0  0  0  0  0  0  0
  -33.0070  -21.3400   18.9380 N   0  0  0  0  0  0  0  0  0  0  0  0
  -32.7440  -22.2980   18.7550 H   0  0  0  0  0  0  0  0  0  0  0  0
  -33.7640  -16.1520   16.9330 C   0  0  0  0  0  0  0  0  0  0  0  0
  -33.5510  -14.8320   17.2090 C   0  0  0  0  0  0  0  0  0  0  0  0
  -34.1120  -14.5940   18.5000 C   0  0  0  0  0  0  0  0  0  0  0  0
  -34.4190  -16.6690   18.0420 N   0  0  0  0  0  0  0  0  0  0  0  0
  -34.5830  -15.7250   19.0060 N   0  0  0  0  0  0  0  0  0  0  0  0
  -34.2870  -13.3520   19.2620 C   0  0  0  0  0  0  0  0  0  0  0  0
  -33.4730  -13.0530   20.3760 C   0  0  0  0  0  3  0  0  0  0  0  0
  -33.6400  -11.8400   21.0790 C   0  0  0  0  0  3  0  0  0  0  0  0
  -34.6280  -10.9100   20.6720 C   0  0  0  0  0  0  0  0  0  0  0  0
  -35.4480  -11.2240   19.5740 C   0  0  0  0  0  3  0  0  0  0  0  0
  -35.2850  -12.4320   18.8780 C   0  0  0  0  0  3  0  0  0  0  0  0
  -34.8880   -9.7220   21.3110 O   0  0  0  0  0  0  0  0  0  0  0  0
  -33.8740   -8.8910   21.7140 C   0  0  0  0  0  0  0  0  0  0  0  0
  -33.1000   -8.1610   20.7840 C   0  0  0  0  0  3  0  0  0  0  0  0
  -32.1190   -7.2620   21.2480 C   0  0  0  0  0  3  0  0  0  0  0  0
  -31.9140   -7.0880   22.6270 C   0  0  0  0  0  0  0  0  0  0  0  0
  -32.6840   -7.8130   23.5500 C   0  0  0  0  0  3  0  0  0  0  0  0
  -33.6660   -8.7120   23.0950 C   0  0  0  0  0  0  0  0  0  0  0  0
  -34.4260   -9.3920   23.9850 F   0  0  0  0  0  0  0  0  0  0  0  0
  -30.9760   -6.2170   23.0750 F   0  0  0  0  0  0  0  0  0  0  0  0
  -32.9490  -13.8160   16.2820 C   0  0  0  0  0  0  0  0  0  0  0  0
  -32.0270  -13.0010   16.7810 N   0  0  0  0  0  0  0  0  0  0  0  0
  -33.2580  -13.7670   15.0940 O   0  0  0  0  0  0  0  0  0  0  0  0
  -31.7600  -13.0270   17.7550 H   0  0  0  0  0  0  0  0  0  0  0  0
  -31.5980  -12.3120   16.1760 H   0  0  0  0  0  0  0  0  0  0  0  0
  -33.4800  -16.9510   15.8230 N   0  0  0  0  0  0  0  0  0  0  0  0
  -32.9910  -16.6110   15.0050 H   0  0  0  0  0  0  0  0  0  0  0  0
  -33.7520  -17.9190   15.7280 H   0  0  0  0  0  0  0  0  0  0  0  0
  -24.4930  -24.5720   21.6950 C   0  0  0  0  0  2  0  0  0  0  0  0
  -25.8610  -24.0950   22.2420 C   0  0  0  0  0  2  0  0  0  0  0  0
  -26.8360  -25.1100   22.9160 C   0  0  0  0  0  3  0  0  0  0  0  0
  -26.3110  -26.4930   22.9180 N   0  0  0  0  0  4  0  0  0  0  0  0
  -26.1420  -26.8280   21.9850 H   0  0  0  0  0  0  0  0  0  0  0  0
  -26.9560  -27.1200   23.3670 H   0  0  0  0  0  0  0  0  0  0  0  0
  -25.4540  -26.5430   23.4430 H   0  0  0  0  0  0  0  0  0  0  0  0
  -28.1800  -25.0230   22.1580 C   0  0  0  0  0  2  0  0  0  0  0  0
  -29.0870  -26.2870   22.0640 C   0  0  0  0  0  2  0  0  0  0  0  0
  -29.1540  -26.8270   20.7280 O   0  0  0  0  0  0  0  0  0  0  0  0
  -24.6760  -31.7610   23.0830 C   0  0  0  0  0  0  0  0  0  0  0  0
  -28.0430  -27.5710   20.4350 C   0  0  0  0  0  0  0  0  0  0  0  0
  -23.8220  -30.2950   21.2740 C   0  0  0  0  0  3  0  0  0  0  0  0
  -25.5800  -28.8820   20.0750 C   0  0  0  0  0  0  0  0  0  0  0  0
  -26.3160  -30.8330   21.4590 C   0  0  0  0  0  2  0  0  0  0  0  0
  -26.5910  -29.4810   20.8400 C   0  0  0  0  0  0  0  0  0  0  0  0
  -27.8230  -28.8240   21.0360 C   0  0  0  0  0  3  0  0  0  0  0  0
  -27.0460  -27.0020   19.6170 C   0  0  0  0  0  3  0  0  0  0  0  0
  -25.8010  -27.6350   19.4630 C   0  0  0  0  0  3  0  0  0  0  0  0
  -24.2790  -29.6390   19.9430 C   0  0  0  0  0  2  0  0  0  0  0  0
  -24.9460  -30.9760   22.0000 N   0  0  0  0  0  0  0  0  0  0  0  0
  -23.5120  -31.9600   23.4570 O   0  0  0  0  0  0  0  0  0  0  0  0
  -23.1060  -29.2260   22.1290 C   0  0  0  0  0  0  0  0  0  0  0  0
  -21.8160  -28.9930   21.8320 N   0  0  0  0  0  0  0  0  0  0  0  0
  -23.7080  -28.6120   23.0140 O   0  0  0  0  0  0  0  0  0  0  0  0
  -21.3910  -29.5450   21.0990 H   0  0  0  0  0  0  0  0  0  0  0  0
  -18.3720  -28.1320   22.4880 C   0  0  0  0  0  0  0  0  0  0  0  0
  -20.9530  -28.0040   22.4800 C   0  0  0  0  0  3  0  0  0  0  0  0
  -20.7890  -26.7440   21.6000 C   0  0  0  0  0  2  0  0  0  0  0  0
  -19.5580  -26.8000   20.6910 C   0  0  0  0  0  2  0  0  0  0  0  0
  -18.2820  -26.9620   21.5210 C   0  0  0  0  0  2  0  0  0  0  0  0
  -19.6260  -28.6300   22.9250 C   0  0  0  0  0  0  0  0  0  0  0  0
  -19.6560  -29.7410   23.7960 C   0  0  0  0  0  3  0  0  0  0  0  0
  -18.4620  -30.3460   24.2330 C   0  0  0  0  0  3  0  0  0  0  0  0
  -17.2230  -29.8360   23.8090 C   0  0  0  0  0  3  0  0  0  0  0  0
  -17.1800  -28.7310   22.9420 C   0  0  0  0  0  3  0  0  0  0  0  0
  -25.8150  -32.4690   23.8800 C   0  0  0  0  0  3  0  0  0  0  0  0
  -25.3670  -33.8370   24.1640 N   0  0  0  0  0  0  0  0  0  0  0  0
  -25.7000  -34.9140   23.4380 C   0  0  0  0  0  0  0  0  0  0  0  0
  -26.4820  -34.8630   22.4860 O   0  0  0  0  0  0  0  0  0  0  0  0
  -24.6850  -33.9440   24.8990 H   0  0  0  0  0  0  0  0  0  0  0  0
  -23.7480  -36.4560   23.0540 C   0  0  0  0  0  1  0  0  0  0  0  0
  -25.0580  -36.2580   23.8330 C   0  0  0  0  0  3  0  0  0  0  0  0
  -27.0670  -37.4780   24.5410 C   0  0  0  0  0  1  0  0  0  0  0  0
  -25.9420  -37.4220   23.6150 N   0  0  0  0  0  0  0  0  0  0  0  0
  -25.4180  -38.2880   23.6980 H   0  0  0  0  0  0  0  0  0  0  0  0
  -26.2040  -31.7140   25.2110 C   0  0  1  0  0  0  0  0  0  0  0  0
  -24.9890  -31.3270   26.0810 C   0  0  0  0  0  1  0  0  0  0  0  0
  -26.9880  -30.4180   24.8990 C   0  0  0  0  0  1  0  0  0  0  0  0
  -27.1320  -32.6060   26.0680 C   0  0  0  0  0  1  0  0  0  0  0  0
  1  2  2  0
  2 55  1  0
  3  8  1  0
  3  1  1  0
  4  8  1  0
  6  4  2  0
  6  9  1  0
  7  5  1  0
  8  5  2  0
  9  7  2  0
 11 10  1  0
 11  9  1  0
 12 15  1  0
 12 14  1  0
 12 11  1  0
 13 12  1  0
 15 16  1  0
 16 25  1  0
 17 23  1  0
 19 18  1  0
 20 19  1  0
 21 30  1  0
 21 20  1  0
 21 22  1  0
 22 23  1  0
 23 18  1  0
 24 17  2  0
 25 17  1  0
 26 25  1  0
 27 28  2  0
 27 30  1  0
 28 29  1  0
 29 31  2  0
 29 32  1  0
 30 31  1  0
 32 33  1  0
 33 34  2  0
 35 34  1  0
 35 38  1  0
 36 35  2  0
 37 32  2  0
 37 36  1  0
 38 39  1  0
 39 44  1  0
 40 41  1  0
 40 39  2  0
 41 42  2  0
 42 46  1  0
 42 43  1  0
 44 43  2  0
 44 45  1  0
 47 48  1  0
 47 28  1  0
 48 50  1  0
 49 47  2  0
 51 48  1  0
 52 27  1  0
 53 52  1  0
 54 52  1  0
 55 56  1  0
 56 57  1  0
 57 62  1  0
 57 58  1  0
 58 60  1  0
 58 61  1  0
 59 58  1  0
 63 62  1  0
 64 63  1  0
 65 76  2  0
 66 64  1  0
 66 71  1  0
 67 75  1  0
 67 77  1  0
 68 70  1  0
 69 75  1  0
 70 71  2  0
 70 69  1  0
 72 66  2  0
 73 72  1  0
 73 68  2  0
 74 68  1  0
 74 67  1  0
 75 65  1  0
 77 79  2  0
 78 77  1  0
 80 78  1  0
 81 86  2  0
 81 90  1  0
 82 78  1  0
 82 86  1  0
 83 82  1  0
 84 85  1  0
 84 83  1  0
 85 81  1  0
 86 87  1  0
 87 88  2  0
 89 88  1  0
 90 89  2  0
 91 65  1  0
 91 92  1  0
 91101  1  0
 92 95  1  0
 93 97  1  0
 93 92  1  0
 94 93  2  0
 97 96  1  0
 99100  1  0
 99 97  1  0
 99 98  1  0
101104  1  1
101102  1  0
103101  1  0
M  ISO  4  17 100  25 100  63 101  64 101
M  END
>  <TORSDO>  (48) 
F 28

>  <SCORE>  (48) 
-7.104

>  <name>  (48) 
50

>  <ligand_id>  (48) 
50

>  <original_smiles>  (48) 
[H]C(=C([H])C([H])([H])C([H])([H])C([H])(C([H])([H])C([H])([H])Oc1c([H])c([H])c2c(c1[H])C([H])([H])N(C(=O)C([H])(N([H])C(=O)C([H])(N([H])C([H])([H])[H])C([H])([H])[H])C(C([H])([H])[H])(C([H])([H])[H])C([H])([H])[H])C([H])(C(=O)N([H])C1([H])c3c([H])c([H])c([H])c([H])c3C([H])([H])C([H])([H])C1([H])[H])C2([H])[H])[N+]([H])([H])[H])C([H])([H])c1c([H])c([H])c(C([H])(C([H])([H])[H])[N+]([H])([H])C([H])([H])C([H])([H])N([H])C(=O)N2C([H])([H])C([H])([H])C([H])([H])C([H])(n3nc(-c4c([H])c([H])c(Oc5c([H])c([H])c(F)c([H])c5F)c([H])c4[H])c(C(=O)N([H])[H])c3N([H])[H])C2([H])[H])c([H])c1[H]

>  <smiles>  (48) 
[H]C(=C([H])C([H])([H])C([H])([H])C([H])(C([H])([H])C([H])([H])Oc1c([H])c([H])c2c(c1[H])C([H])([H])N(C(=O)C([H])(N([H])C(=O)C([H])(N([H])C([H])([H])[H])C([H])([H])[H])C(C([H])([H])[H])(C([H])([H])[H])C([H])([H])[H])C([H])(C(=O)N([H])C1([H])c3c([H])c([H])c([H])c([H])c3C([H])([H])C([H])([H])C1([H])[H])C2([H])[H])[N+]([H])([H])[H])C([H])([H])c1c([H])c([H])c(C([H])(C([H])([H])[H])[N+]([H])([H])C([H])([H])C([H])([H])N([H])C(=O)N2C([H])([H])C([H])([H])C([H])([H])C([H])(n3nc(-c4c([H])c([H])c(Oc5c([H])c([H])c(F)c([H])c5F)c([H])c4[H])c(C(=O)N([H])[H])c3N([H])[H])C2([H])[H])c([H])c1[H]

$$$$
51:0:0
     RDKit          3D

102111  0  0  1  0  0  0  0  0999 V2000
  -25.3050  -21.5790   19.9130 C   0  0  0  0  0  0  0  0  0  0  0  0
  -24.1580  -22.0220   19.7920 O   0  0  0  0  0  0  0  0  0  0  0  0
  -24.9080  -18.0410   18.5570 C   0  0  0  0  0  3  0  0  0  0  0  0
  -24.6200  -19.3490   18.9800 C   0  0  0  0  0  3  0  0  0  0  0  0
  -26.2220  -17.5420   18.6350 C   0  0  0  0  0  3  0  0  0  0  0  0
  -26.9670  -19.6750   19.5440 C   0  0  0  0  0  3  0  0  0  0  0  0
  -25.6460  -20.1850   19.4800 C   0  0  0  0  0  0  0  0  0  0  0  0
  -27.2660  -18.3470   19.1500 C   0  0  0  0  0  0  0  0  0  0  0  0
  -28.6690  -17.8060   19.2510 C   0  0  0  0  0  0  0  0  0  0  0  0
  -29.3590  -18.1800   20.3370 N   0  0  0  0  0  0  0  0  0  0  0  0
  -29.1200  -17.0410   18.3980 O   0  0  0  0  0  0  0  0  0  0  0  0
  -28.8760  -18.7820   20.9870 H   0  0  0  0  0  0  0  0  0  0  0  0
  -30.7610  -17.8910   20.6240 C   0  0  0  0  0  2  0  0  0  0  0  0
  -30.9050  -17.0050   21.8720 C   0  0  0  0  0  2  0  0  0  0  0  0
  -31.1230  -14.7190   20.9060 C   0  0  0  0  0  0  0  0  0  0  0  0
  -30.8810  -12.5860   19.7010 C   0  0  0  0  0  2  0  0  0  0  0  0
  -29.9940  -12.7800   18.4570 C   0  0  0  0  0  2  0  0  0  0  0  0
  -28.4970  -12.6640   18.8120 C   0  0  0  0  0  2  0  0  0  0  0  0
  -28.1060  -13.5050   20.0580 C   0  0  0  0  0  3  0  0  0  0  0  0
  -29.1010  -13.2440   21.2070 C   0  0  0  0  0  2  0  0  0  0  0  0
  -30.4530  -13.5510   20.7170 N   0  0  0  0  0  0  0  0  0  0  0  0
  -32.2280  -14.9540   20.4140 O   0  0  0  0  0  0  0  0  0  0  0  0
  -30.4600  -15.6360   21.6200 N   0  0  0  0  0  0  0  0  0  0  0  0
  -29.5530  -15.3720   21.9710 H   0  0  0  0  0  0  0  0  0  0  0  0
  -25.6930  -14.1410   20.6960 C   0  0  0  0  0  0  0  0  0  0  0  0
  -24.5920  -13.3810   20.9810 C   0  0  0  0  0  0  0  0  0  0  0  0
  -25.0220  -12.0230   20.9110 C   0  0  0  0  0  0  0  0  0  0  0  0
  -26.7260  -13.2470   20.4660 N   0  0  0  0  0  0  0  0  0  0  0  0
  -26.3210  -11.9630   20.6470 N   0  0  0  0  0  0  0  0  0  0  0  0
  -24.2590  -10.7730   21.0190 C   0  0  0  0  0  0  0  0  0  0  0  0
  -24.5830   -9.7970   21.9850 C   0  0  0  0  0  3  0  0  0  0  0  0
  -23.8230   -8.6120   22.0900 C   0  0  0  0  0  3  0  0  0  0  0  0
  -22.7260   -8.3950   21.2260 C   0  0  0  0  0  0  0  0  0  0  0  0
  -22.4160   -9.3620   20.2540 C   0  0  0  0  0  3  0  0  0  0  0  0
  -23.1780  -10.5390   20.1470 C   0  0  0  0  0  3  0  0  0  0  0  0
  -21.9450   -7.2650   21.2410 O   0  0  0  0  0  0  0  0  0  0  0  0
  -21.6830   -6.5830   22.4020 C   0  0  0  0  0  0  0  0  0  0  0  0
  -21.0750   -7.2100   23.5120 C   0  0  0  0  0  3  0  0  0  0  0  0
  -20.7630   -6.4600   24.6620 C   0  0  0  0  0  3  0  0  0  0  0  0
  -21.0420   -5.0810   24.7000 C   0  0  0  0  0  0  0  0  0  0  0  0
  -21.6390   -4.4510   23.5930 C   0  0  0  0  0  3  0  0  0  0  0  0
  -21.9560   -5.2000   22.4480 C   0  0  0  0  0  0  0  0  0  0  0  0
  -22.5150   -4.5860   21.3770 F   0  0  0  0  0  0  0  0  0  0  0  0
  -20.7310   -4.3570   25.8010 F   0  0  0  0  0  0  0  0  0  0  0  0
  -23.1960  -13.8810   21.2150 C   0  0  0  0  0  0  0  0  0  0  0  0
  -22.4260  -13.1910   22.0500 N   0  0  0  0  0  0  0  0  0  0  0  0
  -22.8000  -14.9220   20.6910 O   0  0  0  0  0  0  0  0  0  0  0  0
  -22.7590  -12.3510   22.5010 H   0  0  0  0  0  0  0  0  0  0  0  0
  -21.4820  -13.4970   22.2350 H   0  0  0  0  0  0  0  0  0  0  0  0
  -25.8940  -15.5100   20.6050 N   0  0  0  0  0  0  0  0  0  0  0  0
  -25.1340  -16.1680   20.7250 H   0  0  0  0  0  0  0  0  0  0  0  0
  -26.7630  -15.9580   20.3510 H   0  0  0  0  0  0  0  0  0  0  0  0
  -26.3880  -22.4090   20.4870 C   0  0  0  0  0  3  0  0  0  0  0  0
  -26.4310  -23.7440   20.3240 C   0  0  0  0  0  3  0  0  0  0  0  0
  -27.5520  -24.6270   20.8460 C   0  0  0  0  0  2  0  0  0  0  0  0
  -27.7520  -25.8810   19.9760 C   0  0  0  0  0  3  0  0  0  0  0  0
  -27.7420  -25.5200   18.5420 N   0  0  0  0  0  4  0  0  0  0  0  0
  -26.8870  -25.0030   18.4010 H   0  0  0  0  0  0  0  0  0  0  0  0
  -28.5110  -24.8870   18.3620 H   0  0  0  0  0  0  0  0  0  0  0  0
  -27.7740  -26.6460   17.5820 C   0  0  0  0  0  2  0  0  0  0  0  0
  -27.0950  -26.2300   16.2570 C   0  0  0  0  0  2  0  0  0  0  0  0
  -26.1230  -27.1790   15.8090 O   0  0  0  0  0  0  0  0  0  0  0  0
  -25.4120  -28.8900   22.6180 C   0  0  0  0  0  0  0  0  0  0  0  0
  -25.2450  -27.6210   16.7720 C   0  0  0  0  0  0  0  0  0  0  0  0
  -23.2910  -28.6300   21.3700 C   0  0  0  0  0  3  0  0  0  0  0  0
  -23.5210  -28.4670   18.8340 C   0  0  0  0  0  0  0  0  0  0  0  0
  -25.4290  -29.3730   20.1760 C   0  0  0  0  0  2  0  0  0  0  0  0
  -24.8980  -28.7010   18.9310 C   0  0  0  0  0  0  0  0  0  0  0  0
  -25.7610  -28.3020   17.8910 C   0  0  0  0  0  3  0  0  0  0  0  0
  -23.8550  -27.3760   16.6890 C   0  0  0  0  0  3  0  0  0  0  0  0
  -22.9910  -27.8080   17.7120 C   0  0  0  0  0  3  0  0  0  0  0  0
  -22.6650  -28.9480   19.9840 C   0  0  0  0  0  2  0  0  0  0  0  0
  -24.7590  -28.9370   21.4220 N   0  0  0  0  0  0  0  0  0  0  0  0
  -24.8080  -28.6330   23.6680 O   0  0  0  0  0  0  0  0  0  0  0  0
  -22.9580  -27.1630   21.7300 C   0  0  0  0  0  0  0  0  0  0  0  0
  -21.6710  -26.7940   21.6220 N   0  0  0  0  0  0  0  0  0  0  0  0
  -23.8480  -26.3800   22.0680 O   0  0  0  0  0  0  0  0  0  0  0  0
  -20.9920  -27.4920   21.3500 H   0  0  0  0  0  0  0  0  0  0  0  0
  -18.8480  -24.6310   21.0180 C   0  0  0  0  0  0  0  0  0  0  0  0
  -21.1410  -25.4560   21.8770 C   0  0  0  0  0  3  0  0  0  0  0  0
  -21.7590  -24.4170   20.9110 C   0  0  0  0  0  2  0  0  0  0  0  0
  -20.9270  -24.2020   19.6420 C   0  0  0  0  0  2  0  0  0  0  0  0
  -19.5200  -23.7230   20.0020 C   0  0  0  0  0  2  0  0  0  0  0  0
  -19.6070  -25.4560   21.8880 C   0  0  0  0  0  0  0  0  0  0  0  0
  -18.9280  -26.3140   22.7810 C   0  0  0  0  0  3  0  0  0  0  0  0
  -17.5200  -26.3480   22.8180 C   0  0  0  0  0  3  0  0  0  0  0  0
  -16.7760  -25.5140   21.9650 C   0  0  0  0  0  3  0  0  0  0  0  0
  -17.4390  -24.6580   21.0700 C   0  0  0  0  0  3  0  0  0  0  0  0
  -26.9440  -29.1780   22.7240 C   0  0  0  0  0  3  0  0  0  0  0  0
  -27.8190  -27.8680   22.8150 C   0  0  1  0  0  0  0  0  0  0  0  0
  -27.3440  -26.8850   23.9100 C   0  0  0  0  0  1  0  0  0  0  0  0
  -27.8210  -27.1130   21.4630 C   0  0  0  0  0  2  0  0  0  0  0  0
  -29.2920  -28.2400   23.1110 C   0  0  0  0  0  1  0  0  0  0  0  0
  -27.1480  -30.0210   23.9090 N   0  0  0  0  0  0  0  0  0  0  0  0
  -27.4950  -31.3140   23.8710 C   0  0  0  0  0  0  0  0  0  0  0  0
  -27.7520  -31.9090   22.8190 O   0  0  0  0  0  0  0  0  0  0  0  0
  -26.9110  -29.6110   24.8000 H   0  0  0  0  0  0  0  0  0  0  0  0
  -26.3680  -33.0090   25.3500 C   0  0  0  0  0  1  0  0  0  0  0  0
  -27.5780  -32.0700   25.2120 C   0  0  0  0  0  3  0  0  0  0  0  0
  -30.0150  -32.0050   25.5210 C   0  0  0  0  0  1  0  0  0  0  0  0
  -28.8270  -32.8450   25.3800 N   0  0  0  0  0  0  0  0  0  0  0  0
  -28.7660  -33.4470   26.1940 H   0  0  0  0  0  0  0  0  0  0  0  0
  1 53  1  0
  2  1  2  0
  3  5  2  0
  3  4  1  0
  4  7  2  0
  5  8  1  0
  7  6  1  0
  7  1  1  0
  8  9  1  0
  8  6  2  0
  9 10  1  0
 10 13  1  0
 10 12  1  0
 11  9  2  0
 13 14  1  0
 15 23  1  0
 16 21  1  0
 17 18  1  0
 17 16  1  0
 19 18  1  0
 19 28  1  0
 19 20  1  0
 21 15  1  0
 21 20  1  0
 22 15  2  0
 23 14  1  0
 23 24  1  0
 25 26  2  0
 26 45  1  0
 27 26  1  0
 27 30  1  0
 28 29  1  0
 28 25  1  0
 29 27  2  0
 30 31  1  0
 31 32  2  0
 33 36  1  0
 33 32  1  0
 34 33  2  0
 35 34  1  0
 35 30  2  0
 36 37  1  0
 37 42  2  0
 37 38  1  0
 38 39  2  0
 39 40  1  0
 40 44  1  0
 41 40  2  0
 42 41  1  0
 43 42  1  0
 45 46  1  0
 46 49  1  0
 46 48  1  0
 47 45  2  0
 50 25  1  0
 50 51  1  0
 52 50  1  0
 54 53  2  0
 54 55  1  0
 56 55  1  0
 56 92  1  0
 57 56  1  0
 58 57  1  0
 59 57  1  0
 60 57  1  0
 61 60  1  0
 62 61  1  0
 62 64  1  0
 63 89  1  0
 63 74  2  0
 64 69  1  0
 65 73  1  0
 65 75  1  0
 66 68  1  0
 66 72  1  0
 67 73  1  0
 68 67  1  0
 69 68  2  0
 70 64  2  0
 70 71  1  0
 71 66  2  0
 72 65  1  0
 73 63  1  0
 75 77  2  0
 76 75  1  0
 78 76  1  0
 79 88  2  0
 79 84  1  0
 80 76  1  0
 80 84  1  0
 81 80  1  0
 82 83  1  0
 82 81  1  0
 83 79  1  0
 84 85  2  0
 85 86  1  0
 87 86  2  0
 88 87  1  0
 89 90  1  0
 89 94  1  0
 90 93  1  1
 90 91  1  0
 92 90  1  0
 94 97  1  0
 95 94  1  0
 95 99  1  0
 96 95  2  0
 99 98  1  0
 99101  1  0
101100  1  0
101102  1  0
M  ISO  4  15 100  23 100  61 101  62 101
M  END
>  <TORSDO>  (49) 
F 26

>  <SCORE>  (49) 
-3.414

>  <name>  (49) 
51

>  <ligand_id>  (49) 
51

>  <original_smiles>  (49) 
[H]C(C(=O)c1c([H])c([H])c([H])c(C(=O)N([H])C([H])([H])C([H])([H])N([H])C(=O)N2C([H])([H])C([H])([H])C([H])([H])C([H])(n3nc(-c4c([H])c([H])c(Oc5c([H])c([H])c(F)c([H])c5F)c([H])c4[H])c(C(=O)N([H])[H])c3N([H])[H])C2([H])[H])c1[H])=C([H])C([H])([H])C([H])([H])[N+]([H])([H])C([H])([H])C([H])([H])Oc1c([H])c([H])c2c(c1[H])C([H])([H])N(C(=O)C([H])(N([H])C(=O)C([H])(N([H])C([H])([H])[H])C([H])([H])[H])C(C([H])([H])[H])(C([H])([H])[H])C([H])([H])[H])C([H])(C(=O)N([H])C1([H])c3c([H])c([H])c([H])c([H])c3C([H])([H])C([H])([H])C1([H])[H])C2([H])[H]

>  <smiles>  (49) 
[H]C(C(=O)c1c([H])c([H])c([H])c(C(=O)N([H])C([H])([H])C([H])([H])N([H])C(=O)N2C([H])([H])C([H])([H])C([H])([H])C([H])(n3nc(-c4c([H])c([H])c(Oc5c([H])c([H])c(F)c([H])c5F)c([H])c4[H])c(C(=O)N([H])[H])c3N([H])[H])C2([H])[H])c1[H])=C([H])C([H])([H])C([H])([H])[N+]([H])([H])C([H])([H])C([H])([H])Oc1c([H])c([H])c2c(c1[H])C([H])([H])N(C(=O)C([H])(N([H])C(=O)C([H])(N([H])C([H])([H])[H])C([H])([H])[H])C(C([H])([H])[H])(C([H])([H])[H])C([H])([H])[H])C([H])(C(=O)N([H])C1([H])c3c([H])c([H])c([H])c([H])c3C([H])([H])C([H])([H])C1([H])[H])C2([H])[H]

$$$$
52:0:0
     RDKit          3D

 97105  0  0  1  0  0  0  0  0999 V2000
  -31.3030  -21.7010   25.6530 C   0  0  0  0  0  1  0  0  0  0  0  0
  -30.6220  -21.8260   24.2810 C   0  0  0  0  0  3  0  0  0  0  0  0
  -33.2130  -20.2830   21.8890 C   0  0  0  0  0  3  0  0  0  0  0  0
  -32.5560  -19.1080   21.4840 C   0  0  0  0  0  3  0  0  0  0  0  0
  -32.5940  -21.1620   22.7920 C   0  0  0  0  0  3  0  0  0  0  0  0
  -30.6390  -19.7070   22.8640 C   0  0  0  0  0  3  0  0  0  0  0  0
  -31.2630  -18.7980   21.9790 C   0  0  0  0  0  0  0  0  0  0  0  0
  -31.2970  -20.8890   23.2800 C   0  0  0  0  0  0  0  0  0  0  0  0
  -30.5550  -17.5410   21.5810 C   0  0  0  0  0  0  0  0  0  0  0  0
  -29.3880  -17.2810   21.8960 O   0  0  0  0  0  0  0  0  0  0  0  0
  -31.3620  -16.5270   20.7700 C   0  0  0  0  0  2  0  0  0  0  0  0
  -31.0490  -14.3690   19.6910 C   0  0  0  0  0  0  0  0  0  0  0  0
  -30.4540  -12.3770   18.3840 C   0  0  0  0  0  2  0  0  0  0  0  0
  -29.3900  -12.7350   17.3300 C   0  0  0  0  0  2  0  0  0  0  0  0
  -27.9780  -12.6070   17.9280 C   0  0  0  0  0  2  0  0  0  0  0  0
  -27.8350  -13.3430   19.2860 C   0  0  0  0  0  3  0  0  0  0  0  0
  -29.0030  -12.9930   20.2370 C   0  0  0  0  0  2  0  0  0  0  0  0
  -30.2700  -13.2690   19.5380 N   0  0  0  0  0  0  0  0  0  0  0  0
  -32.0260  -14.6090   18.9750 O   0  0  0  0  0  0  0  0  0  0  0  0
  -30.6880  -15.2370   20.6360 N   0  0  0  0  0  0  0  0  0  0  0  0
  -29.8910  -15.0520   21.2310 H   0  0  0  0  0  0  0  0  0  0  0  0
  -25.5230  -13.9500   20.2440 C   0  0  0  0  0  0  0  0  0  0  0  0
  -24.4990  -13.1750   20.7200 C   0  0  0  0  0  0  0  0  0  0  0  0
  -24.9530  -11.8240   20.6330 C   0  0  0  0  0  0  0  0  0  0  0  0
  -26.5380  -13.0700   19.9010 N   0  0  0  0  0  0  0  0  0  0  0  0
  -26.2030  -11.7860   20.1900 N   0  0  0  0  0  0  0  0  0  0  0  0
  -24.2510  -10.5600   20.8930 C   0  0  0  0  0  0  0  0  0  0  0  0
  -24.7270   -9.6300   21.8430 C   0  0  0  0  0  3  0  0  0  0  0  0
  -24.0230   -8.4320   22.0880 C   0  0  0  0  0  3  0  0  0  0  0  0
  -22.8290   -8.1530   21.3800 C   0  0  0  0  0  0  0  0  0  0  0  0
  -22.3720   -9.0720   20.4190 C   0  0  0  0  0  3  0  0  0  0  0  0
  -23.0770  -10.2620   20.1730 C   0  0  0  0  0  3  0  0  0  0  0  0
  -22.0920   -7.0040   21.5340 O   0  0  0  0  0  0  0  0  0  0  0  0
  -21.9770   -6.3800   22.7500 C   0  0  0  0  0  0  0  0  0  0  0  0
  -21.4340   -7.0360   23.8770 C   0  0  0  0  0  3  0  0  0  0  0  0
  -21.2700   -6.3360   25.0880 C   0  0  0  0  0  3  0  0  0  0  0  0
  -21.6370   -4.9800   25.1740 C   0  0  0  0  0  0  0  0  0  0  0  0
  -22.1740   -4.3230   24.0530 C   0  0  0  0  0  3  0  0  0  0  0  0
  -22.3400   -5.0210   22.8430 C   0  0  0  0  0  0  0  0  0  0  0  0
  -22.8370   -4.3770   21.7590 F   0  0  0  0  0  0  0  0  0  0  0  0
  -21.4730   -4.3040   26.3360 F   0  0  0  0  0  0  0  0  0  0  0  0
  -23.1400  -13.6520   21.1440 C   0  0  0  0  0  0  0  0  0  0  0  0
  -22.5250  -12.9720   22.1060 N   0  0  0  0  0  0  0  0  0  0  0  0
  -22.6340  -14.6620   20.6550 O   0  0  0  0  0  0  0  0  0  0  0  0
  -22.9490  -12.1550   22.5190 H   0  0  0  0  0  0  0  0  0  0  0  0
  -21.6200  -13.2740   22.4340 H   0  0  0  0  0  0  0  0  0  0  0  0
  -25.6700  -15.3210   20.0550 N   0  0  0  0  0  0  0  0  0  0  0  0
  -24.9270  -15.9820   20.2510 H   0  0  0  0  0  0  0  0  0  0  0  0
  -26.4910  -15.7570   19.6510 H   0  0  0  0  0  0  0  0  0  0  0  0
  -30.5730  -23.3100   23.8350 C   0  0  0  0  0  2  0  0  0  0  0  0
  -29.5800  -23.6030   22.7040 C   0  0  0  0  0  0  0  0  0  0  0  0
  -29.9260  -24.5600   21.8340 N   0  0  0  0  0  0  0  0  0  0  0  0
  -28.5140  -22.9880   22.6350 O   0  0  0  0  0  0  0  0  0  0  0  0
  -30.8190  -25.0110   21.9750 H   0  0  0  0  0  0  0  0  0  0  0  0
  -29.1430  -24.9960   20.6810 C   0  0  0  0  0  2  0  0  0  0  0  0
  -28.9520  -26.5190   20.6800 C   0  0  0  0  0  2  0  0  0  0  0  0
  -28.2920  -26.8840   19.4720 O   0  0  0  0  0  0  0  0  0  0  0  0
  -24.4480  -31.6510   23.1140 C   0  0  0  0  0  0  0  0  0  0  0  0
  -27.1140  -27.5700   19.6200 C   0  0  0  0  0  0  0  0  0  0  0  0
  -23.2200  -30.3260   21.4210 C   0  0  0  0  0  3  0  0  0  0  0  0
  -24.6660  -28.9520   19.8300 C   0  0  0  0  0  0  0  0  0  0  0  0
  -25.7140  -30.8030   21.1480 C   0  0  0  0  0  2  0  0  0  0  0  0
  -25.8220  -29.4840   20.4170 C   0  0  0  0  0  0  0  0  0  0  0  0
  -27.0470  -28.7950   20.3190 C   0  0  0  0  0  3  0  0  0  0  0  0
  -25.9520  -27.0510   19.0190 C   0  0  0  0  0  3  0  0  0  0  0  0
  -24.7250  -27.7320   19.1300 C   0  0  0  0  0  3  0  0  0  0  0  0
  -23.3920  -29.7480   19.9900 C   0  0  0  0  0  2  0  0  0  0  0  0
  -24.4810  -30.9380   21.9530 N   0  0  0  0  0  0  0  0  0  0  0  0
  -23.3820  -31.8440   23.7160 O   0  0  0  0  0  0  0  0  0  0  0  0
  -22.6470  -29.2150   22.3310 C   0  0  0  0  0  0  0  0  0  0  0  0
  -21.3300  -28.9730   22.2160 N   0  0  0  0  0  0  0  0  0  0  0  0
  -23.3810  -28.5760   23.0890 O   0  0  0  0  0  0  0  0  0  0  0  0
  -20.8000  -29.5430   21.5730 H   0  0  0  0  0  0  0  0  0  0  0  0
  -18.0580  -27.4940   22.5930 C   0  0  0  0  0  0  0  0  0  0  0  0
  -20.5780  -27.9500   22.9390 C   0  0  0  0  0  3  0  0  0  0  0  0
  -20.8130  -26.5510   22.3250 C   0  0  0  0  0  2  0  0  0  0  0  0
  -19.7650  -26.1700   21.2740 C   0  0  0  0  0  2  0  0  0  0  0  0
  -18.3610  -26.1830   21.8850 C   0  0  0  0  0  2  0  0  0  0  0  0
  -19.1000  -28.3320   23.0720 C   0  0  0  0  0  0  0  0  0  0  0  0
  -18.7660  -29.5570   23.6890 C   0  0  0  0  0  3  0  0  0  0  0  0
  -17.4220  -29.9460   23.8350 C   0  0  0  0  0  3  0  0  0  0  0  0
  -16.3940  -29.1070   23.3750 C   0  0  0  0  0  3  0  0  0  0  0  0
  -16.7110  -27.8820   22.7580 C   0  0  0  0  0  3  0  0  0  0  0  0
  -25.7400  -32.2790   23.7270 C   0  0  0  0  0  3  0  0  0  0  0  0
  -25.4410  -33.6810   24.0410 N   0  0  0  0  0  0  0  0  0  0  0  0
  -25.8040  -34.7240   23.2830 C   0  0  0  0  0  0  0  0  0  0  0  0
  -26.4980  -34.6060   22.2690 O   0  0  0  0  0  0  0  0  0  0  0  0
  -24.8270  -33.8490   24.8250 H   0  0  0  0  0  0  0  0  0  0  0  0
  -24.0960  -36.5260   22.8860 C   0  0  0  0  0  1  0  0  0  0  0  0
  -25.3220  -36.1210   23.7200 C   0  0  0  0  0  3  0  0  0  0  0  0
  -27.4480  -36.9980   24.5780 C   0  0  0  0  0  1  0  0  0  0  0  0
  -26.3650  -37.1640   23.6120 N   0  0  0  0  0  0  0  0  0  0  0  0
  -25.9640  -38.0890   23.7430 H   0  0  0  0  0  0  0  0  0  0  0  0
  -26.2560  -31.5160   25.0070 C   0  0  1  0  0  0  0  0  0  0  0  0
  -25.1660  -31.3140   26.0860 C   0  0  0  0  0  1  0  0  0  0  0  0
  -26.8110  -30.1240   24.6240 C   0  0  0  0  0  1  0  0  0  0  0  0
  -27.4280  -32.2970   25.6480 C   0  0  0  0  0  1  0  0  0  0  0  0
  2  1  1  0
  3  5  1  0
  4  3  2  0
  4  7  1  0
  5  8  2  0
  6  8  1  0
  7  6  2  0
  8  2  1  0
  9 10  2  0
  9  7  1  0
 11  9  1  0
 12 20  1  0
 13 18  1  0
 14 15  1  0
 14 13  1  0
 16 15  1  0
 16 25  1  0
 16 17  1  0
 18 12  1  0
 18 17  1  0
 19 12  2  0
 20 11  1  0
 20 21  1  0
 22 23  2  0
 23 42  1  0
 24 23  1  0
 24 27  1  0
 25 26  1  0
 25 22  1  0
 26 24  2  0
 27 28  1  0
 28 29  2  0
 30 33  1  0
 30 29  1  0
 31 30  2  0
 32 31  1  0
 32 27  2  0
 33 34  1  0
 34 39  2  0
 34 35  1  0
 35 36  2  0
 36 37  1  0
 37 41  1  0
 38 37  2  0
 39 38  1  0
 40 39  1  0
 42 43  1  0
 43 46  1  0
 43 45  1  0
 44 42  2  0
 47 22  1  0
 47 48  1  0
 49 47  1  0
 50  2  1  0
 51 50  1  0
 52 54  1  0
 52 51  1  0
 53 51  2  0
 55 52  1  0
 56 55  1  0
 57 59  1  0
 57 56  1  0
 58 69  2  0
 59 64  1  0
 60 68  1  0
 60 70  1  0
 61 67  1  0
 61 63  1  0
 62 68  1  0
 63 62  1  0
 64 63  2  0
 65 66  1  0
 65 59  2  0
 66 61  2  0
 67 60  1  0
 68 58  1  0
 70 72  2  0
 71 70  1  0
 73 71  1  0
 74 83  2  0
 74 79  1  0
 75 71  1  0
 75 79  1  0
 76 75  1  0
 77 78  1  0
 77 76  1  0
 78 74  1  0
 79 80  2  0
 80 81  1  0
 82 81  2  0
 83 82  1  0
 84 58  1  0
 84 85  1  0
 84 94  1  0
 85 88  1  0
 86 90  1  0
 86 85  1  0
 87 86  2  0
 90 89  1  0
 92 90  1  0
 92 93  1  0
 92 91  1  0
 94 97  1  1
 94 95  1  0
 96 94  1  0
M  ISO  4  12 100  20 100  56 101  57 101
M  END
>  <TORSDO>  (50) 
F 23

>  <SCORE>  (50) 
-10.150

>  <name>  (50) 
52

>  <ligand_id>  (50) 
52

>  <original_smiles>  (50) 
[H]c1c([H])c([H])c2c(c1[H])C([H])([H])C([H])([H])C([H])([H])C2([H])N([H])C(=O)C1([H])N(C(=O)C([H])(N([H])C(=O)C([H])(N([H])C([H])([H])[H])C([H])([H])[H])C(C([H])([H])[H])(C([H])([H])[H])C([H])([H])[H])C([H])([H])c2c([H])c(OC([H])([H])C([H])([H])N([H])C(=O)C([H])([H])C([H])(c3c([H])c([H])c([H])c(C(=O)C([H])([H])N([H])C(=O)N4C([H])([H])C([H])([H])C([H])([H])C([H])(n5nc(-c6c([H])c([H])c(Oc7c([H])c([H])c(F)c([H])c7F)c([H])c6[H])c(C(=O)N([H])[H])c5N([H])[H])C4([H])[H])c3[H])C([H])([H])[H])c([H])c([H])c2C1([H])[H]

>  <smiles>  (50) 
[H]c1c([H])c([H])c2c(c1[H])C([H])([H])C([H])([H])C([H])([H])C2([H])N([H])C(=O)C1([H])N(C(=O)C([H])(N([H])C(=O)C([H])(N([H])C([H])([H])[H])C([H])([H])[H])C(C([H])([H])[H])(C([H])([H])[H])C([H])([H])[H])C([H])([H])c2c([H])c(OC([H])([H])C([H])([H])N([H])C(=O)C([H])([H])C([H])(c3c([H])c([H])c([H])c(C(=O)C([H])([H])N([H])C(=O)N4C([H])([H])C([H])([H])C([H])([H])C([H])(n5nc(-c6c([H])c([H])c(Oc7c([H])c([H])c(F)c([H])c7F)c([H])c6[H])c(C(=O)N([H])[H])c5N([H])[H])C4([H])[H])c3[H])C([H])([H])[H])c([H])c([H])c2C1([H])[H]

$$$$
53:0:0
     RDKit          3D

 98105  0  0  1  0  0  0  0  0999 V2000
  -30.8110  -22.6380   25.6810 C   0  0  0  0  0  2  0  0  0  0  0  0
  -29.7850  -22.0900   24.6710 C   0  0  0  0  0  2  0  0  0  0  0  0
  -29.6690  -22.9860   23.4270 C   0  0  0  0  0  2  0  0  0  0  0  0
  -28.5550  -22.5440   22.4540 C   0  0  0  0  0  2  0  0  0  0  0  0
  -28.6120  -23.2570   21.1570 N   0  0  0  0  0  4  0  0  0  0  0  0
  -28.0070  -22.7710   20.5120 H   0  0  0  0  0  0  0  0  0  0  0  0
  -29.5490  -23.1710   20.7960 H   0  0  0  0  0  0  0  0  0  0  0  0
  -28.2190  -24.6870   21.1940 C   0  0  0  0  0  2  0  0  0  0  0  0
  -28.5230  -25.4020   19.8660 C   0  0  0  0  0  2  0  0  0  0  0  0
  -28.4560  -26.8150   20.0520 O   0  0  0  0  0  0  0  0  0  0  0  0
  -24.6120  -31.8690   23.2110 C   0  0  0  0  0  0  0  0  0  0  0  0
  -27.2400  -27.4620   20.0800 C   0  0  0  0  0  0  0  0  0  0  0  0
  -23.3970  -30.4920   21.5530 C   0  0  0  0  0  3  0  0  0  0  0  0
  -24.8400  -28.9570   20.1200 C   0  0  0  0  0  0  0  0  0  0  0  0
  -25.9220  -30.8430   21.3580 C   0  0  0  0  0  2  0  0  0  0  0  0
  -25.9990  -29.4780   20.7080 C   0  0  0  0  0  0  0  0  0  0  0  0
  -27.1980  -28.7370   20.6830 C   0  0  0  0  0  3  0  0  0  0  0  0
  -26.0560  -26.9390   19.5070 C   0  0  0  0  0  3  0  0  0  0  0  0
  -24.8620  -27.6850   19.5230 C   0  0  0  0  0  3  0  0  0  0  0  0
  -23.6020  -29.8220   20.1680 C   0  0  0  0  0  2  0  0  0  0  0  0
  -24.6620  -31.0830   22.0990 N   0  0  0  0  0  0  0  0  0  0  0  0
  -23.5320  -32.1440   23.7530 O   0  0  0  0  0  0  0  0  0  0  0  0
  -22.7390  -29.4660   22.5010 C   0  0  0  0  0  0  0  0  0  0  0  0
  -21.4120  -29.3020   22.3750 N   0  0  0  0  0  0  0  0  0  0  0  0
  -23.4180  -28.8200   23.3030 O   0  0  0  0  0  0  0  0  0  0  0  0
  -20.9270  -29.8760   21.7000 H   0  0  0  0  0  0  0  0  0  0  0  0
  -18.0260  -28.1370   22.8480 C   0  0  0  0  0  0  0  0  0  0  0  0
  -20.5850  -28.3650   23.1340 C   0  0  0  0  0  3  0  0  0  0  0  0
  -20.6750  -26.9390   22.5430 C   0  0  0  0  0  2  0  0  0  0  0  0
  -19.5730  -26.6380   21.5210 C   0  0  0  0  0  2  0  0  0  0  0  0
  -18.1910  -26.7920   22.1620 C   0  0  0  0  0  2  0  0  0  0  0  0
  -19.1510  -28.8830   23.2900 C   0  0  0  0  0  0  0  0  0  0  0  0
  -18.9440  -30.1440   23.8900 C   0  0  0  0  0  3  0  0  0  0  0  0
  -17.6450  -30.6580   24.0570 C   0  0  0  0  0  3  0  0  0  0  0  0
  -16.5340  -29.9080   23.6330 C   0  0  0  0  0  3  0  0  0  0  0  0
  -16.7250  -28.6510   23.0340 C   0  0  0  0  0  3  0  0  0  0  0  0
  -25.9020  -32.4830   23.8400 C   0  0  0  0  0  3  0  0  0  0  0  0
  -25.5890  -33.8630   24.2330 N   0  0  0  0  0  0  0  0  0  0  0  0
  -25.9040  -34.9480   23.5140 C   0  0  0  0  0  0  0  0  0  0  0  0
  -26.5600  -34.8930   22.4700 O   0  0  0  0  0  0  0  0  0  0  0  0
  -25.0030  -33.9800   25.0470 H   0  0  0  0  0  0  0  0  0  0  0  0
  -24.1480  -36.7320   23.2640 C   0  0  0  0  0  1  0  0  0  0  0  0
  -25.4100  -36.3120   24.0340 C   0  0  0  0  0  3  0  0  0  0  0  0
  -27.5580  -37.1810   24.8470 C   0  0  0  0  0  1  0  0  0  0  0  0
  -26.4290  -37.3800   23.9410 N   0  0  0  0  0  0  0  0  0  0  0  0
  -26.0180  -38.2880   24.1410 H   0  0  0  0  0  0  0  0  0  0  0  0
  -26.4460  -31.6600   25.0720 C   0  0  1  0  0  0  0  0  0  0  0  0
  -25.3750  -31.3700   26.1490 C   0  0  0  0  0  1  0  0  0  0  0  0
  -27.0290  -30.3050   24.6070 C   0  0  0  0  0  1  0  0  0  0  0  0
  -27.6040  -32.4330   25.7470 C   0  0  0  0  0  1  0  0  0  0  0  0
  -31.0020  -21.7610   26.9390 C   0  0  0  0  0  2  0  0  0  0  0  0
  -31.8450  -20.4880   26.7780 C   0  0  0  0  0  0  0  0  0  0  0  0
  -32.4920  -20.2800   25.6230 N   0  0  0  0  0  0  0  0  0  0  0  0
  -31.9320  -19.7060   27.7260 O   0  0  0  0  0  0  0  0  0  0  0  0
  -32.3680  -20.9700   24.8930 H   0  0  0  0  0  0  0  0  0  0  0  0
  -33.4510  -19.2070   25.3700 C   0  0  0  0  0  2  0  0  0  0  0  0
  -32.7820  -17.8650   25.0200 C   0  0  0  0  0  2  0  0  0  0  0  0
  -31.9660  -17.8930   23.7160 C   0  0  0  0  0  2  0  0  0  0  0  0
  -31.4530  -16.5000   23.3160 C   0  0  0  0  0  2  0  0  0  0  0  0
  -30.7070  -16.5130   21.9730 C   0  0  0  0  0  2  0  0  0  0  0  0
  -30.7490  -14.3710   20.6800 C   0  0  0  0  0  0  0  0  0  0  0  0
  -30.4200  -12.2880   19.3950 C   0  0  0  0  0  2  0  0  0  0  0  0
  -29.4860  -12.5250   18.1940 C   0  0  0  0  0  2  0  0  0  0  0  0
  -28.0090  -12.3790   18.6100 C   0  0  0  0  0  2  0  0  0  0  0  0
  -27.6670  -13.1980   19.8820 C   0  0  0  0  0  3  0  0  0  0  0  0
  -28.7040  -12.9280   20.9940 C   0  0  0  0  0  2  0  0  0  0  0  0
  -30.0470  -13.2290   20.4610 N   0  0  0  0  0  0  0  0  0  0  0  0
  -31.7840  -14.6610   20.0720 O   0  0  0  0  0  0  0  0  0  0  0  0
  -30.2280  -15.1810   21.6110 N   0  0  0  0  0  0  0  0  0  0  0  0
  -29.3850  -14.8560   22.0620 H   0  0  0  0  0  0  0  0  0  0  0  0
  -25.2610  -13.8150   20.5670 C   0  0  0  0  0  0  0  0  0  0  0  0
  -24.1850  -13.0430   20.9160 C   0  0  0  0  0  0  0  0  0  0  0  0
  -24.6390  -11.6900   20.8720 C   0  0  0  0  0  0  0  0  0  0  0  0
  -26.3040  -12.9300   20.3380 N   0  0  0  0  0  0  0  0  0  0  0  0
  -25.9310  -11.6470   20.5750 N   0  0  0  0  0  0  0  0  0  0  0  0
  -23.9050  -10.4290   21.0400 C   0  0  0  0  0  0  0  0  0  0  0  0
  -24.3600   -9.4210   21.9180 C   0  0  0  0  0  3  0  0  0  0  0  0
  -23.6280   -8.2240   22.0750 C   0  0  0  0  0  3  0  0  0  0  0  0
  -22.4270   -8.0280   21.3550 C   0  0  0  0  0  0  0  0  0  0  0  0
  -21.9900   -9.0250   20.4650 C   0  0  0  0  0  3  0  0  0  0  0  0
  -22.7220  -10.2130   20.3050 C   0  0  0  0  0  3  0  0  0  0  0  0
  -21.6630   -6.8870   21.4240 O   0  0  0  0  0  0  0  0  0  0  0  0
  -21.6850   -6.0730   22.5280 C   0  0  0  0  0  0  0  0  0  0  0  0
  -21.4010   -6.5640   23.8210 C   0  0  0  0  0  3  0  0  0  0  0  0
  -21.3660   -5.6790   24.9170 C   0  0  0  0  0  3  0  0  0  0  0  0
  -21.6040   -4.3050   24.7230 C   0  0  0  0  0  0  0  0  0  0  0  0
  -21.8820   -3.8140   23.4350 C   0  0  0  0  0  3  0  0  0  0  0  0
  -21.9190   -4.6960   22.3400 C   0  0  0  0  0  0  0  0  0  0  0  0
  -22.1660   -4.2150   21.0980 F   0  0  0  0  0  0  0  0  0  0  0  0
  -21.5630   -3.4540   25.7740 F   0  0  0  0  0  0  0  0  0  0  0  0
  -22.7870  -13.5240   21.1830 C   0  0  0  0  0  0  0  0  0  0  0  0
  -22.0510  -12.8240   22.0390 N   0  0  0  0  0  0  0  0  0  0  0  0
  -22.3560  -14.5550   20.6690 O   0  0  0  0  0  0  0  0  0  0  0  0
  -22.4120  -11.9890   22.4770 H   0  0  0  0  0  0  0  0  0  0  0  0
  -21.1140  -13.1270   22.2610 H   0  0  0  0  0  0  0  0  0  0  0  0
  -25.4360  -15.1860   20.4090 N   0  0  0  0  0  0  0  0  0  0  0  0
  -24.6750  -15.8470   20.5190 H   0  0  0  0  0  0  0  0  0  0  0  0
  -26.2990  -15.6230   20.1100 H   0  0  0  0  0  0  0  0  0  0  0  0
  1 51  1  0
  2  1  1  0
  3  2  1  0
  4  3  1  0
  5  8  1  0
  5  4  1  0
  6  5  1  0
  7  5  1  0
  9 10  1  0
  9  8  1  0
 10 12  1  0
 11 22  2  0
 12 17  1  0
 13 21  1  0
 13 23  1  0
 14 20  1  0
 14 16  1  0
 15 21  1  0
 16 15  1  0
 17 16  2  0
 18 19  1  0
 18 12  2  0
 19 14  2  0
 20 13  1  0
 21 11  1  0
 23 25  2  0
 24 23  1  0
 26 24  1  0
 27 36  2  0
 27 32  1  0
 28 24  1  0
 28 32  1  0
 29 28  1  0
 30 31  1  0
 30 29  1  0
 31 27  1  0
 32 33  2  0
 33 34  1  0
 35 34  2  0
 36 35  1  0
 37 11  1  0
 37 38  1  0
 37 47  1  0
 38 41  1  0
 39 43  1  0
 39 38  1  0
 40 39  2  0
 43 42  1  0
 45 43  1  0
 45 46  1  0
 45 44  1  0
 47 50  1  1
 47 48  1  0
 49 47  1  0
 52 51  1  0
 52 54  2  0
 53 52  1  0
 55 53  1  0
 56 53  1  0
 57 56  1  0
 58 57  1  0
 59 58  1  0
 60 59  1  0
 61 69  1  0
 62 67  1  0
 63 64  1  0
 63 62  1  0
 65 64  1  0
 65 74  1  0
 65 66  1  0
 67 61  1  0
 67 66  1  0
 68 61  2  0
 69 60  1  0
 69 70  1  0
 71 72  2  0
 72 91  1  0
 73 72  1  0
 73 76  1  0
 74 71  1  0
 74 75  1  0
 75 73  2  0
 76 77  1  0
 77 78  2  0
 79 82  1  0
 79 78  1  0
 80 79  2  0
 81 80  1  0
 81 76  2  0
 82 83  1  0
 83 84  1  0
 84 85  2  0
 86 85  1  0
 86 90  1  0
 87 86  2  0
 88 83  2  0
 88 87  1  0
 89 88  1  0
 91 92  1  0
 92 95  1  0
 92 94  1  0
 93 91  2  0
 96 97  1  0
 96 71  1  0
 98 96  1  0
M  ISO  4   9 101  10 101  61 100  69 100
M  END
>  <TORSDO>  (51) 
F 29

>  <SCORE>  (51) 
28.819

>  <name>  (51) 
53

>  <ligand_id>  (51) 
53

>  <original_smiles>  (51) 
[H]c1c([H])c([H])c2c(c1[H])C([H])([H])C([H])([H])C([H])([H])C2([H])N([H])C(=O)C1([H])N(C(=O)C([H])(N([H])C(=O)C([H])(N([H])C([H])([H])[H])C([H])([H])[H])C(C([H])([H])[H])(C([H])([H])[H])C([H])([H])[H])C([H])([H])c2c([H])c(OC([H])([H])C([H])([H])[N+]([H])([H])C([H])([H])C([H])([H])C([H])([H])C([H])([H])C([H])([H])C(=O)N([H])C([H])([H])C([H])([H])C([H])([H])C([H])([H])C([H])([H])N([H])C(=O)N3C([H])([H])C([H])([H])C([H])([H])C([H])(n4nc(-c5c([H])c([H])c(Oc6c([H])c([H])c(F)c([H])c6F)c([H])c5[H])c(C(=O)N([H])[H])c4N([H])[H])C3([H])[H])c([H])c([H])c2C1([H])[H]

>  <smiles>  (51) 
[H]c1c([H])c([H])c2c(c1[H])C([H])([H])C([H])([H])C([H])([H])C2([H])N([H])C(=O)C1([H])N(C(=O)C([H])(N([H])C(=O)C([H])(N([H])C([H])([H])[H])C([H])([H])[H])C(C([H])([H])[H])(C([H])([H])[H])C([H])([H])[H])C([H])([H])c2c([H])c(OC([H])([H])C([H])([H])[N+]([H])([H])C([H])([H])C([H])([H])C([H])([H])C([H])([H])C([H])([H])C(=O)N([H])C([H])([H])C([H])([H])C([H])([H])C([H])([H])C([H])([H])N([H])C(=O)N3C([H])([H])C([H])([H])C([H])([H])C([H])(n4nc(-c5c([H])c([H])c(Oc6c([H])c([H])c(F)c([H])c6F)c([H])c5[H])c(C(=O)N([H])[H])c4N([H])[H])C3([H])[H])c([H])c([H])c2C1([H])[H]

$$$$
54:0:0
     RDKit          3D

 99107  0  0  1  0  0  0  0  0999 V2000
  -28.8000  -19.6950   21.5230 C   0  0  0  0  0  3  0  0  0  0  0  0
  -29.0840  -21.0720   21.5010 C   0  0  0  0  0  3  0  0  0  0  0  0
  -30.3450  -19.3610   19.6770 C   0  0  0  0  0  3  0  0  0  0  0  0
  -29.4860  -18.8230   20.6560 C   0  0  0  0  0  0  0  0  0  0  0  0
  -30.0470  -21.6060   20.6110 C   0  0  0  0  0  0  0  0  0  0  0  0
  -30.6350  -20.7320   19.6480 C   0  0  0  0  0  0  0  0  0  0  0  0
  -30.4410  -23.0550   20.7640 C   0  0  0  0  0  0  0  0  0  0  0  0
  -31.4480  -23.4330   19.9750 N   0  0  0  0  0  0  0  0  0  0  0  0
  -29.9610  -23.7760   21.6430 O   0  0  0  0  0  0  0  0  0  0  0  0
  -31.6750  -22.7450   19.2590 H   0  0  0  0  0  0  0  0  0  0  0  0
  -32.2820  -24.6180   20.0460 C   0  0  0  0  0  2  0  0  0  0  0  0
  -33.7310  -24.2140   19.7130 C   0  0  0  0  0  2  0  0  0  0  0  0
  -34.6660  -25.3890   19.4090 C   0  0  0  0  0  2  0  0  0  0  0  0
  -34.2450  -26.0060   18.1870 O   0  0  0  0  0  0  0  0  0  0  0  0
  -29.0780  -28.8020   22.1550 C   0  0  0  0  0  0  0  0  0  0  0  0
  -32.9860  -26.5470   18.2250 C   0  0  0  0  0  0  0  0  0  0  0  0
  -28.4400  -28.1570   19.8490 C   0  0  0  0  0  3  0  0  0  0  0  0
  -30.3720  -27.5950   18.2830 C   0  0  0  0  0  0  0  0  0  0  0  0
  -30.8350  -28.8550   20.3970 C   0  0  0  0  0  2  0  0  0  0  0  0
  -31.2870  -27.9350   19.2850 C   0  0  0  0  0  0  0  0  0  0  0  0
  -32.5940  -27.4190   19.2610 C   0  0  0  0  0  3  0  0  0  0  0  0
  -32.0700  -26.2230   17.2060 C   0  0  0  0  0  3  0  0  0  0  0  0
  -30.7550  -26.7330   17.2370 C   0  0  0  0  0  3  0  0  0  0  0  0
  -28.9880  -28.1900   18.3960 C   0  0  0  0  0  2  0  0  0  0  0  0
  -29.4560  -28.5960   20.8600 N   0  0  0  0  0  0  0  0  0  0  0  0
  -27.8970  -28.6850   22.5040 O   0  0  0  0  0  0  0  0  0  0  0  0
  -27.8650  -26.7510   20.1240 C   0  0  0  0  0  0  0  0  0  0  0  0
  -26.6570  -26.4870   19.6010 N   0  0  0  0  0  0  0  0  0  0  0  0
  -28.5120  -25.9170   20.7650 O   0  0  0  0  0  0  0  0  0  0  0  0
  -26.1860  -27.2290   19.1000 H   0  0  0  0  0  0  0  0  0  0  0  0
  -23.5690  -24.8360   18.7260 C   0  0  0  0  0  0  0  0  0  0  0  0
  -25.9330  -25.2200   19.6990 C   0  0  0  0  0  3  0  0  0  0  0  0
  -26.4230  -24.2120   18.6310 C   0  0  0  0  0  2  0  0  0  0  0  0
  -25.6010  -24.2570   17.3390 C   0  0  0  0  0  2  0  0  0  0  0  0
  -24.1280  -23.9520   17.6270 C   0  0  0  0  0  2  0  0  0  0  0  0
  -24.4160  -25.4440   19.6880 C   0  0  0  0  0  0  0  0  0  0  0  0
  -23.8450  -26.2890   20.6660 C   0  0  0  0  0  3  0  0  0  0  0  0
  -22.4560  -26.5190   20.6950 C   0  0  0  0  0  3  0  0  0  0  0  0
  -21.6200  -25.8990   19.7500 C   0  0  0  0  0  3  0  0  0  0  0  0
  -22.1770  -25.0590   18.7710 C   0  0  0  0  0  3  0  0  0  0  0  0
  -30.1100  -29.2170   23.2510 C   0  0  0  0  0  3  0  0  0  0  0  0
  -30.3950  -28.0800   24.3080 C   0  0  1  0  0  0  0  0  0  0  0  0
  -29.1130  -27.4830   24.9340 C   0  0  0  0  0  1  0  0  0  0  0  0
  -31.1920  -26.9230   23.6620 C   0  0  0  0  0  1  0  0  0  0  0  0
  -31.2750  -28.6400   25.4530 C   0  0  0  0  0  1  0  0  0  0  0  0
  -29.5940  -30.4220   23.9120 N   0  0  0  0  0  0  0  0  0  0  0  0
  -30.0200  -31.6670   23.6600 C   0  0  0  0  0  0  0  0  0  0  0  0
  -30.9520  -31.9130   22.8890 O   0  0  0  0  0  0  0  0  0  0  0  0
  -28.7900  -30.3070   24.5090 H   0  0  0  0  0  0  0  0  0  0  0  0
  -28.2900  -33.4720   23.4130 C   0  0  0  0  0  1  0  0  0  0  0  0
  -29.2940  -32.8210   24.3760 C   0  0  0  0  0  3  0  0  0  0  0  0
  -31.0240  -33.3650   26.0270 C   0  0  0  0  0  1  0  0  0  0  0  0
  -30.2100  -33.8480   24.9160 N   0  0  0  0  0  0  0  0  0  0  0  0
  -29.6930  -34.6650   25.2280 H   0  0  0  0  0  0  0  0  0  0  0  0
  -29.3150  -17.3580   20.7860 C   0  0  0  0  0  0  0  0  0  0  0  0
  -28.5900  -16.8190   21.6250 O   0  0  0  0  0  0  0  0  0  0  0  0
  -30.2270  -16.4970   19.9080 C   0  0  0  0  0  2  0  0  0  0  0  0
  -31.6890  -16.4830   20.4090 C   0  0  0  0  0  2  0  0  0  0  0  0
  -31.9570  -15.4350   21.5090 C   0  0  0  0  0  2  0  0  0  0  0  0
  -31.5990  -13.5480   19.9270 C   0  0  0  0  0  0  0  0  0  0  0  0
  -30.8130  -11.7180   18.4750 C   0  0  0  0  0  2  0  0  0  0  0  0
  -29.8270  -12.2020   17.3970 C   0  0  0  0  0  2  0  0  0  0  0  0
  -28.3870  -12.2210   17.9430 C   0  0  0  0  0  2  0  0  0  0  0  0
  -28.2830  -12.9820   19.2880 C   0  0  0  0  0  3  0  0  0  0  0  0
  -29.3530  -12.4730   20.2810 C   0  0  0  0  0  2  0  0  0  0  0  0
  -30.6890  -12.5840   19.6550 N   0  0  0  0  0  0  0  0  0  0  0  0
  -32.5370  -13.8440   19.1820 O   0  0  0  0  0  0  0  0  0  0  0  0
  -31.4210  -14.1400   21.1130 N   0  0  0  0  0  0  0  0  0  0  0  0
  -30.6860  -13.7550   21.6880 H   0  0  0  0  0  0  0  0  0  0  0  0
  -26.0260  -13.8960   20.1420 C   0  0  0  0  0  0  0  0  0  0  0  0
  -24.8980  -13.2640   20.5940 C   0  0  0  0  0  0  0  0  0  0  0  0
  -25.1810  -11.8650   20.5350 C   0  0  0  0  0  0  0  0  0  0  0  0
  -26.9360  -12.8900   19.8530 N   0  0  0  0  0  0  0  0  0  0  0  0
  -26.4300  -11.6630   20.1380 N   0  0  0  0  0  0  0  0  0  0  0  0
  -24.3140  -10.7030   20.7740 C   0  0  0  0  0  0  0  0  0  0  0  0
  -24.6860   -9.6770   21.6700 C   0  0  0  0  0  3  0  0  0  0  0  0
  -23.8280   -8.5790   21.8960 C   0  0  0  0  0  3  0  0  0  0  0  0
  -22.5850   -8.5000   21.2270 C   0  0  0  0  0  0  0  0  0  0  0  0
  -22.2310   -9.5130   20.3170 C   0  0  0  0  0  3  0  0  0  0  0  0
  -23.0870  -10.6020   20.0890 C   0  0  0  0  0  3  0  0  0  0  0  0
  -21.7010   -7.4580   21.3650 O   0  0  0  0  0  0  0  0  0  0  0  0
  -21.6200   -6.7320   22.5260 C   0  0  0  0  0  0  0  0  0  0  0  0
  -21.3440   -7.3420   23.7700 C   0  0  0  0  0  3  0  0  0  0  0  0
  -21.2010   -6.5500   24.9260 C   0  0  0  0  0  3  0  0  0  0  0  0
  -21.3250   -5.1510   24.8420 C   0  0  0  0  0  0  0  0  0  0  0  0
  -21.5910   -4.5400   23.6040 C   0  0  0  0  0  3  0  0  0  0  0  0
  -21.7370   -5.3290   22.4480 C   0  0  0  0  0  0  0  0  0  0  0  0
  -21.9750   -4.7350   21.2540 F   0  0  0  0  0  0  0  0  0  0  0  0
  -21.1790   -4.3890   25.9510 F   0  0  0  0  0  0  0  0  0  0  0  0
  -23.5930  -13.9130   20.9580 C   0  0  0  0  0  0  0  0  0  0  0  0
  -22.8570  -13.3210   21.8920 N   0  0  0  0  0  0  0  0  0  0  0  0
  -23.2430  -14.9760   20.4490 O   0  0  0  0  0  0  0  0  0  0  0  0
  -23.1540  -12.4580   22.3230 H   0  0  0  0  0  0  0  0  0  0  0  0
  -21.9850  -13.7380   22.1830 H   0  0  0  0  0  0  0  0  0  0  0  0
  -26.3430  -15.2330   19.9240 N   0  0  0  0  0  0  0  0  0  0  0  0
  -25.6160  -15.9370   19.9690 H   0  0  0  0  0  0  0  0  0  0  0  0
  -27.1190  -15.5020   19.3330 H   0  0  0  0  0  0  0  0  0  0  0  0
  -31.5280  -21.1420   18.6950 O   0  0  0  0  0  0  0  0  0  0  0  0
  -31.8330  -20.4280   18.1430 H   0  0  0  0  0  0  0  0  0  0  0  0
  2  1  1  0
  3  4  1  0
  4 55  1  0
  4  1  2  0
  5  7  1  0
  5  2  2  0
  6  3  2  0
  6  5  1  0
  7  9  2  0
  8 11  1  0
  8  7  1  0
 10  8  1  0
 12 11  1  0
 13 12  1  0
 14 16  1  0
 14 13  1  0
 15 26  2  0
 16 21  1  0
 17 27  1  0
 17 25  1  0
 18 24  1  0
 18 20  1  0
 19 25  1  0
 20 19  1  0
 21 20  2  0
 22 23  1  0
 22 16  2  0
 23 18  2  0
 24 17  1  0
 25 15  1  0
 27 29  2  0
 28 27  1  0
 30 28  1  0
 31 40  2  0
 31 36  1  0
 32 28  1  0
 33 32  1  0
 34 35  1  0
 34 33  1  0
 35 31  1  0
 36 32  1  0
 36 37  2  0
 37 38  1  0
 39 38  2  0
 40 39  1  0
 41 15  1  0
 41 46  1  0
 41 42  1  0
 42 43  1  1
 42 45  1  0
 44 42  1  0
 46 49  1  0
 47 46  1  0
 47 51  1  0
 48 47  2  0
 51 50  1  0
 51 53  1  0
 53 54  1  0
 53 52  1  0
 55 56  2  0
 57 58  1  0
 57 55  1  0
 58 59  1  0
 60 68  1  0
 61 66  1  0
 62 63  1  0
 62 61  1  0
 64 63  1  0
 64 73  1  0
 64 65  1  0
 66 60  1  0
 66 65  1  0
 67 60  2  0
 68 59  1  0
 68 69  1  0
 70 71  2  0
 71 90  1  0
 72 71  1  0
 72 75  1  0
 73 74  1  0
 73 70  1  0
 74 72  2  0
 75 76  1  0
 76 77  2  0
 78 81  1  0
 78 77  1  0
 79 78  2  0
 80 79  1  0
 80 75  2  0
 81 82  1  0
 82 83  1  0
 83 84  2  0
 85 84  1  0
 85 89  1  0
 86 85  2  0
 87 82  2  0
 87 86  1  0
 88 87  1  0
 90 91  1  0
 91 94  1  0
 91 93  1  0
 92 90  2  0
 95 96  1  0
 95 70  1  0
 97 95  1  0
 98  6  1  0
 99 98  1  0
M  ISO  4  13 101  14 101  60 100  68 100
M  END
>  <TORSDO>  (52) 
F 25

>  <SCORE>  (52) 
-5.582

>  <name>  (52) 
54

>  <ligand_id>  (52) 
54

>  <original_smiles>  (52) 
[H]Oc1c([H])c(C(=O)C([H])([H])C([H])([H])C([H])([H])N([H])C(=O)N2C([H])([H])C([H])([H])C([H])([H])C([H])(n3nc(-c4c([H])c([H])c(Oc5c([H])c([H])c(F)c([H])c5F)c([H])c4[H])c(C(=O)N([H])[H])c3N([H])[H])C2([H])[H])c([H])c([H])c1C(=O)N([H])C([H])([H])C([H])([H])C([H])([H])Oc1c([H])c([H])c2c(c1[H])C([H])([H])N(C(=O)C([H])(N([H])C(=O)C([H])(N([H])C([H])([H])[H])C([H])([H])[H])C(C([H])([H])[H])(C([H])([H])[H])C([H])([H])[H])C([H])(C(=O)N([H])C1([H])c3c([H])c([H])c([H])c([H])c3C([H])([H])C([H])([H])C1([H])[H])C2([H])[H]

>  <smiles>  (52) 
[H]Oc1c([H])c(C(=O)C([H])([H])C([H])([H])C([H])([H])N([H])C(=O)N2C([H])([H])C([H])([H])C([H])([H])C([H])(n3nc(-c4c([H])c([H])c(Oc5c([H])c([H])c(F)c([H])c5F)c([H])c4[H])c(C(=O)N([H])[H])c3N([H])[H])C2([H])[H])c([H])c([H])c1C(=O)N([H])C([H])([H])C([H])([H])C([H])([H])Oc1c([H])c([H])c2c(c1[H])C([H])([H])N(C(=O)C([H])(N([H])C(=O)C([H])(N([H])C([H])([H])[H])C([H])([H])[H])C(C([H])([H])[H])(C([H])([H])[H])C([H])([H])[H])C([H])(C(=O)N([H])C1([H])c3c([H])c([H])c([H])c([H])c3C([H])([H])C([H])([H])C1([H])[H])C2([H])[H]

$$$$
55:0:0
     RDKit          3D

104112  0  0  1  0  0  0  0  0999 V2000
  -30.2950  -19.9270   18.3640 C   0  0  0  0  0  3  0  0  0  0  0  0
  -29.3560  -19.5990   19.2670 C   0  0  0  0  0  3  0  0  0  0  0  0
  -28.9250  -18.1790   19.5900 C   0  0  0  0  0  3  0  0  0  0  0  0
  -24.5870  -17.8190   19.4600 C   0  0  0  0  0  3  0  0  0  0  0  0
  -25.1910  -18.6870   20.3890 C   0  0  0  0  0  3  0  0  0  0  0  0
  -25.3880  -17.0600   18.5860 C   0  0  0  0  0  3  0  0  0  0  0  0
  -26.5930  -18.8030   20.4390 C   0  0  0  0  0  3  0  0  0  0  0  0
  -26.7930  -17.1630   18.6440 C   0  0  0  0  0  3  0  0  0  0  0  0
  -27.4070  -18.0400   19.5670 C   0  0  0  0  0  0  0  0  0  0  0  0
  -29.4630  -17.7120   20.8870 N   0  0  0  0  0  4  0  0  0  0  0  0
  -29.1800  -18.3390   21.6220 H   0  0  0  0  0  0  0  0  0  0  0  0
  -29.0400  -16.8200   21.0770 H   0  0  0  0  0  0  0  0  0  0  0  0
  -30.9300  -17.5200   20.9490 C   0  0  0  0  0  2  0  0  0  0  0  0
  -31.3120  -16.3840   21.9200 C   0  0  0  0  0  2  0  0  0  0  0  0
  -31.2000  -14.2630   20.6140 C   0  0  0  0  0  0  0  0  0  0  0  0
  -30.8130  -12.1740   19.3630 C   0  0  0  0  0  2  0  0  0  0  0  0
  -29.8780  -12.4150   18.1620 C   0  0  0  0  0  2  0  0  0  0  0  0
  -28.4020  -12.3060   18.5880 C   0  0  0  0  0  2  0  0  0  0  0  0
  -28.0830  -13.1540   19.8470 C   0  0  0  0  0  3  0  0  0  0  0  0
  -29.1190  -12.8830   20.9610 C   0  0  0  0  0  2  0  0  0  0  0  0
  -30.4670  -13.1380   20.4170 N   0  0  0  0  0  0  0  0  0  0  0  0
  -32.2290  -14.5290   19.9860 O   0  0  0  0  0  0  0  0  0  0  0  0
  -30.7180  -15.0990   21.5430 N   0  0  0  0  0  0  0  0  0  0  0  0
  -29.9330  -14.7610   22.0840 H   0  0  0  0  0  0  0  0  0  0  0  0
  -25.7070  -13.8320   20.5770 C   0  0  0  0  0  0  0  0  0  0  0  0
  -24.6090  -13.0950   20.9220 C   0  0  0  0  0  0  0  0  0  0  0  0
  -25.0200  -11.7290   20.8610 C   0  0  0  0  0  0  0  0  0  0  0  0
  -26.7180  -12.9210   20.3150 N   0  0  0  0  0  0  0  0  0  0  0  0
  -26.3070  -11.6470   20.5460 N   0  0  0  0  0  0  0  0  0  0  0  0
  -24.2500  -10.4920   21.0290 C   0  0  0  0  0  0  0  0  0  0  0  0
  -24.6420   -9.5010   21.9550 C   0  0  0  0  0  3  0  0  0  0  0  0
  -23.8750   -8.3270   22.1130 C   0  0  0  0  0  3  0  0  0  0  0  0
  -22.7030   -8.1380   21.3430 C   0  0  0  0  0  0  0  0  0  0  0  0
  -22.3300   -9.1180   20.4070 C   0  0  0  0  0  3  0  0  0  0  0  0
  -23.0970  -10.2830   20.2470 C   0  0  0  0  0  3  0  0  0  0  0  0
  -21.9110   -7.0180   21.4100 O   0  0  0  0  0  0  0  0  0  0  0  0
  -21.8090   -6.2760   22.5600 C   0  0  0  0  0  0  0  0  0  0  0  0
  -21.3890   -6.8460   23.7820 C   0  0  0  0  0  3  0  0  0  0  0  0
  -21.2310   -6.0330   24.9200 C   0  0  0  0  0  3  0  0  0  0  0  0
  -21.4850   -4.6510   24.8400 C   0  0  0  0  0  0  0  0  0  0  0  0
  -21.8970   -4.0790   23.6240 C   0  0  0  0  0  3  0  0  0  0  0  0
  -22.0560   -4.8900   22.4860 C   0  0  0  0  0  0  0  0  0  0  0  0
  -22.4340   -4.3320   21.3120 F   0  0  0  0  0  0  0  0  0  0  0  0
  -21.3260   -3.8680   25.9320 F   0  0  0  0  0  0  0  0  0  0  0  0
  -23.2300  -13.6210   21.2000 C   0  0  0  0  0  0  0  0  0  0  0  0
  -22.4830  -12.9470   22.0670 N   0  0  0  0  0  0  0  0  0  0  0  0
  -22.8250  -14.6600   20.6840 O   0  0  0  0  0  0  0  0  0  0  0  0
  -22.8210  -12.1040   22.5060 H   0  0  0  0  0  0  0  0  0  0  0  0
  -21.5560  -13.2800   22.2970 H   0  0  0  0  0  0  0  0  0  0  0  0
  -25.9240  -15.1970   20.4480 N   0  0  0  0  0  0  0  0  0  0  0  0
  -25.1400  -15.8400   20.4980 H   0  0  0  0  0  0  0  0  0  0  0  0
  -26.6880  -15.5830   19.9130 H   0  0  0  0  0  0  0  0  0  0  0  0
  -30.6640  -21.3520   18.0230 C   0  0  0  0  0  2  0  0  0  0  0  0
  -32.0100  -21.7690   18.6210 C   0  0  0  0  0  2  0  0  0  0  0  0
  -32.2130  -23.2830   18.4850 C   0  0  0  0  0  2  0  0  0  0  0  0
  -33.5380  -23.7750   19.0800 C   0  0  0  0  0  2  0  0  0  0  0  0
  -33.7120  -25.3040   18.9980 C   0  0  0  0  0  2  0  0  0  0  0  0
  -33.0110  -26.0130   20.0890 N   0  0  0  0  0  4  0  0  0  0  0  0
  -33.5490  -26.8420   20.2900 H   0  0  0  0  0  0  0  0  0  0  0  0
  -33.0380  -25.4440   20.9160 H   0  0  0  0  0  0  0  0  0  0  0  0
  -31.6310  -26.4730   19.8090 C   0  0  0  0  0  2  0  0  0  0  0  0
  -30.6700  -26.1450   20.9690 C   0  0  0  0  0  2  0  0  0  0  0  0
  -29.4370  -27.0590   21.0200 C   0  0  0  0  0  2  0  0  0  0  0  0
  -28.4060  -26.6790   20.1070 O   0  0  0  0  0  0  0  0  0  0  0  0
  -24.5870  -31.8380   23.2350 C   0  0  0  0  0  0  0  0  0  0  0  0
  -27.2460  -27.4340   20.1490 C   0  0  0  0  0  0  0  0  0  0  0  0
  -23.3750  -30.4460   21.5810 C   0  0  0  0  0  3  0  0  0  0  0  0
  -24.8260  -28.9040   20.1580 C   0  0  0  0  0  0  0  0  0  0  0  0
  -25.8910  -30.8110   21.3830 C   0  0  0  0  0  2  0  0  0  0  0  0
  -25.9730  -29.4390   20.7500 C   0  0  0  0  0  0  0  0  0  0  0  0
  -27.1770  -28.7160   20.7500 C   0  0  0  0  0  3  0  0  0  0  0  0
  -26.0800  -26.9040   19.5560 C   0  0  0  0  0  3  0  0  0  0  0  0
  -24.8710  -27.6310   19.5600 C   0  0  0  0  0  3  0  0  0  0  0  0
  -23.5830  -29.7620   20.1990 C   0  0  0  0  0  2  0  0  0  0  0  0
  -24.6360  -31.0470   22.1250 N   0  0  0  0  0  0  0  0  0  0  0  0
  -23.5070  -32.1130   23.7750 O   0  0  0  0  0  0  0  0  0  0  0  0
  -22.7190  -29.4260   22.5380 C   0  0  0  0  0  0  0  0  0  0  0  0
  -21.3910  -29.2720   22.4210 N   0  0  0  0  0  0  0  0  0  0  0  0
  -23.3990  -28.7760   23.3360 O   0  0  0  0  0  0  0  0  0  0  0  0
  -20.9070  -29.8460   21.7460 H   0  0  0  0  0  0  0  0  0  0  0  0
  -17.9970  -28.1520   22.9270 C   0  0  0  0  0  0  0  0  0  0  0  0
  -20.5610  -28.3420   23.1860 C   0  0  0  0  0  3  0  0  0  0  0  0
  -20.6270  -26.9180   22.5880 C   0  0  0  0  0  2  0  0  0  0  0  0
  -19.5110  -26.6360   21.5770 C   0  0  0  0  0  2  0  0  0  0  0  0
  -18.1370  -26.8070   22.2330 C   0  0  0  0  0  2  0  0  0  0  0  0
  -19.1360  -28.8800   23.3600 C   0  0  0  0  0  0  0  0  0  0  0  0
  -18.9550  -30.1400   23.9690 C   0  0  0  0  0  3  0  0  0  0  0  0
  -17.6640  -30.6710   24.1510 C   0  0  0  0  0  3  0  0  0  0  0  0
  -16.5380  -29.9400   23.7350 C   0  0  0  0  0  3  0  0  0  0  0  0
  -16.7050  -28.6810   23.1290 C   0  0  0  0  0  3  0  0  0  0  0  0
  -25.8800  -32.4510   23.8620 C   0  0  0  0  0  3  0  0  0  0  0  0
  -25.5760  -33.8410   24.2220 N   0  0  0  0  0  0  0  0  0  0  0  0
  -25.9110  -34.9070   23.4810 C   0  0  0  0  0  0  0  0  0  0  0  0
  -26.5780  -34.8220   22.4460 O   0  0  0  0  0  0  0  0  0  0  0  0
  -24.9830  -33.9820   25.0280 H   0  0  0  0  0  0  0  0  0  0  0  0
  -24.1840  -36.7050   23.1690 C   0  0  0  0  0  1  0  0  0  0  0  0
  -25.4300  -36.2880   23.9660 C   0  0  0  0  0  3  0  0  0  0  0  0
  -27.5760  -37.1510   24.7910 C   0  0  0  0  0  1  0  0  0  0  0  0
  -26.4620  -37.3420   23.8650 N   0  0  0  0  0  0  0  0  0  0  0  0
  -26.0570  -38.2560   24.0450 H   0  0  0  0  0  0  0  0  0  0  0  0
  -26.4080  -31.6500   25.1150 C   0  0  1  0  0  0  0  0  0  0  0  0
  -25.3220  -31.3950   26.1890 C   0  0  0  0  0  1  0  0  0  0  0  0
  -26.9830  -30.2810   24.6800 C   0  0  0  0  0  1  0  0  0  0  0  0
  -27.5700  -32.4220   25.7790 C   0  0  0  0  0  1  0  0  0  0  0  0
  1  2  2  0
  3  2  1  0
  3 10  1  0
  4  5  1  0
  5  7  2  0
  6  8  1  0
  6  4  2  0
  8  9  2  0
  9  3  1  0
  9  7  1  0
 10 13  1  0
 10 12  1  0
 10 11  1  0
 13 14  1  0
 15 23  1  0
 16 21  1  0
 17 18  1  0
 17 16  1  0
 19 18  1  0
 19 28  1  0
 19 20  1  0
 21 15  1  0
 21 20  1  0
 22 15  2  0
 23 14  1  0
 23 24  1  0
 25 26  2  0
 26 45  1  0
 27 26  1  0
 27 30  1  0
 28 29  1  0
 28 25  1  0
 29 27  2  0
 30 31  1  0
 31 32  2  0
 33 36  1  0
 33 32  1  0
 34 33  2  0
 35 34  1  0
 35 30  2  0
 36 37  1  0
 37 38  1  0
 38 39  2  0
 40 39  1  0
 40 44  1  0
 41 40  2  0
 42 37  2  0
 42 41  1  0
 43 42  1  0
 45 46  1  0
 46 49  1  0
 46 48  1  0
 47 45  2  0
 50 51  1  0
 50 25  1  0
 52 50  1  0
 53  1  1  0
 53 54  1  0
 55 54  1  0
 55 56  1  0
 57 56  1  0
 57 58  1  0
 58 59  1  0
 58 60  1  0
 61 58  1  0
 61 62  1  0
 62 63  1  0
 64 66  1  0
 64 63  1  0
 65 76  2  0
 66 71  1  0
 67 75  1  0
 67 77  1  0
 68 74  1  0
 68 70  1  0
 69 75  1  0
 70 71  2  0
 70 69  1  0
 72 73  1  0
 72 66  2  0
 73 68  2  0
 74 67  1  0
 75 65  1  0
 77 79  2  0
 78 77  1  0
 80 78  1  0
 81 90  2  0
 81 86  1  0
 82 78  1  0
 82 86  1  0
 83 82  1  0
 84 85  1  0
 84 83  1  0
 85 81  1  0
 86 87  2  0
 87 88  1  0
 89 88  2  0
 90 89  1  0
 91 65  1  0
 91 92  1  0
 91101  1  0
 92 95  1  0
 93 97  1  0
 93 92  1  0
 94 93  2  0
 97 96  1  0
 99 97  1  0
 99100  1  0
 99 98  1  0
101104  1  1
101102  1  0
103101  1  0
M  ISO  4  15 100  23 100  63 101  64 101
M  END
>  <TORSDO>  (53) 
F 30

>  <SCORE>  (53) 
-5.814

>  <name>  (53) 
55

>  <ligand_id>  (53) 
55

>  <original_smiles>  (53) 
[H]C(=C([H])C([H])(c1c([H])c([H])c([H])c([H])c1[H])[N+]([H])([H])C([H])([H])C([H])([H])N([H])C(=O)N1C([H])([H])C([H])([H])C([H])([H])C([H])(n2nc(-c3c([H])c([H])c(Oc4c([H])c([H])c(F)c([H])c4F)c([H])c3[H])c(C(=O)N([H])[H])c2N([H])[H])C1([H])[H])C([H])([H])C([H])([H])C([H])([H])C([H])([H])C([H])([H])[N+]([H])([H])C([H])([H])C([H])([H])C([H])([H])Oc1c([H])c([H])c2c(c1[H])C([H])([H])N(C(=O)C([H])(N([H])C(=O)C([H])(N([H])C([H])([H])[H])C([H])([H])[H])C(C([H])([H])[H])(C([H])([H])[H])C([H])([H])[H])C([H])(C(=O)N([H])C1([H])c3c([H])c([H])c([H])c([H])c3C([H])([H])C([H])([H])C1([H])[H])C2([H])[H]

>  <smiles>  (53) 
[H]C(=C([H])C([H])(c1c([H])c([H])c([H])c([H])c1[H])[N+]([H])([H])C([H])([H])C([H])([H])N([H])C(=O)N1C([H])([H])C([H])([H])C([H])([H])C([H])(n2nc(-c3c([H])c([H])c(Oc4c([H])c([H])c(F)c([H])c4F)c([H])c3[H])c(C(=O)N([H])[H])c2N([H])[H])C1([H])[H])C([H])([H])C([H])([H])C([H])([H])C([H])([H])C([H])([H])[N+]([H])([H])C([H])([H])C([H])([H])C([H])([H])Oc1c([H])c([H])c2c(c1[H])C([H])([H])N(C(=O)C([H])(N([H])C(=O)C([H])(N([H])C([H])([H])[H])C([H])([H])[H])C(C([H])([H])[H])(C([H])([H])[H])C([H])([H])[H])C([H])(C(=O)N([H])C1([H])c3c([H])c([H])c([H])c([H])c3C([H])([H])C([H])([H])C1([H])[H])C2([H])[H]

$$$$
56:0:0
     RDKit          3D

114122  0  0  1  0  0  0  0  0999 V2000
  -32.9300  -20.2190   17.8290 C   0  0  0  0  0  3  0  0  0  0  0  0
  -32.6290  -22.4040   16.7880 C   0  0  0  0  0  3  0  0  0  0  0  0
  -31.9450  -19.6780   16.9760 C   0  0  0  0  0  3  0  0  0  0  0  0
  -31.6210  -21.8730   15.9610 C   0  0  0  0  0  3  0  0  0  0  0  0
  -33.2700  -21.5880   17.7420 C   0  0  0  0  0  0  0  0  0  0  0  0
  -31.2680  -20.5070   16.0530 C   0  0  0  0  0  0  0  0  0  0  0  0
  -34.3450  -22.1700   18.6100 C   0  0  0  0  0  0  0  0  0  0  0  0
  -34.1110  -22.3230   19.9240 N   0  0  0  0  0  0  0  0  0  0  0  0
  -35.4100  -22.5220   18.1040 O   0  0  0  0  0  0  0  0  0  0  0  0
  -34.8870  -22.7050   20.4500 H   0  0  0  0  0  0  0  0  0  0  0  0
  -32.9430  -21.9500   20.7250 C   0  0  0  0  0  2  0  0  0  0  0  0
  -31.6340  -22.6870   20.3770 C   0  0  0  0  0  2  0  0  0  0  0  0
  -31.7080  -24.2280   20.4220 C   0  0  0  0  0  2  0  0  0  0  0  0
  -30.4830  -24.8630   19.8920 N   0  0  0  0  0  4  0  0  0  0  0  0
  -30.2900  -24.4890   18.9770 H   0  0  0  0  0  0  0  0  0  0  0  0
  -30.6670  -25.8490   19.7690 H   0  0  0  0  0  0  0  0  0  0  0  0
  -29.2880  -24.7230   20.7530 C   0  0  0  0  0  2  0  0  0  0  0  0
  -28.0490  -25.2820   20.0610 C   0  0  0  0  0  2  0  0  0  0  0  0
  -28.2240  -26.6830   19.8710 O   0  0  0  0  0  0  0  0  0  0  0  0
  -24.5600  -31.7850   23.1270 C   0  0  0  0  0  0  0  0  0  0  0  0
  -27.0600  -27.4100   19.8840 C   0  0  0  0  0  0  0  0  0  0  0  0
  -23.2910  -30.4310   21.4940 C   0  0  0  0  0  3  0  0  0  0  0  0
  -24.6830  -28.9150   19.9980 C   0  0  0  0  0  0  0  0  0  0  0  0
  -25.8100  -30.7790   21.2260 C   0  0  0  0  0  2  0  0  0  0  0  0
  -25.8620  -29.4250   20.5570 C   0  0  0  0  0  0  0  0  0  0  0  0
  -27.0560  -28.6790   20.4960 C   0  0  0  0  0  3  0  0  0  0  0  0
  -25.8630  -26.9100   19.3190 C   0  0  0  0  0  3  0  0  0  0  0  0
  -24.6750  -27.6560   19.3780 C   0  0  0  0  0  3  0  0  0  0  0  0
  -23.4490  -29.7790   20.0960 C   0  0  0  0  0  2  0  0  0  0  0  0
  -24.5740  -31.0100   22.0080 N   0  0  0  0  0  0  0  0  0  0  0  0
  -23.4970  -32.0560   23.7050 O   0  0  0  0  0  0  0  0  0  0  0  0
  -22.6600  -29.3960   22.4520 C   0  0  0  0  0  0  0  0  0  0  0  0
  -21.3310  -29.2330   22.3580 N   0  0  0  0  0  0  0  0  0  0  0  0
  -23.3600  -28.7410   23.2300 O   0  0  0  0  0  0  0  0  0  0  0  0
  -20.8270  -29.8050   21.6960 H   0  0  0  0  0  0  0  0  0  0  0  0
  -17.9540  -28.0820   22.9430 C   0  0  0  0  0  0  0  0  0  0  0  0
  -20.5250  -28.2900   23.1350 C   0  0  0  0  0  3  0  0  0  0  0  0
  -20.5840  -26.8740   22.5210 C   0  0  0  0  0  2  0  0  0  0  0  0
  -19.4430  -26.5960   21.5370 C   0  0  0  0  0  2  0  0  0  0  0  0
  -18.0840  -26.7480   22.2300 C   0  0  0  0  0  2  0  0  0  0  0  0
  -19.1010  -28.8150   23.3550 C   0  0  0  0  0  0  0  0  0  0  0  0
  -18.9250  -30.0670   23.9800 C   0  0  0  0  0  3  0  0  0  0  0  0
  -17.6350  -30.5890   24.1960 C   0  0  0  0  0  3  0  0  0  0  0  0
  -16.5040  -29.8530   23.8020 C   0  0  0  0  0  3  0  0  0  0  0  0
  -16.6660  -28.6020   23.1800 C   0  0  0  0  0  3  0  0  0  0  0  0
  -25.8710  -32.3870   23.7210 C   0  0  0  0  0  3  0  0  0  0  0  0
  -26.4330  -31.5640   24.9450 C   0  0  1  0  0  0  0  0  0  0  0  0
  -25.3800  -31.2930   26.0480 C   0  0  0  0  0  1  0  0  0  0  0  0
  -26.9910  -30.1990   24.4770 C   0  0  0  0  0  1  0  0  0  0  0  0
  -27.6160  -32.3240   25.5880 C   0  0  0  0  0  1  0  0  0  0  0  0
  -25.5840  -33.7730   24.1110 N   0  0  0  0  0  0  0  0  0  0  0  0
  -25.9000  -34.8490   23.3780 C   0  0  0  0  0  0  0  0  0  0  0  0
  -26.5380  -34.7750   22.3230 O   0  0  0  0  0  0  0  0  0  0  0  0
  -25.0170  -33.9040   24.9350 H   0  0  0  0  0  0  0  0  0  0  0  0
  -24.1760  -36.6610   23.1300 C   0  0  0  0  0  1  0  0  0  0  0  0
  -25.4350  -36.2220   23.8950 C   0  0  0  0  0  3  0  0  0  0  0  0
  -27.5940  -37.0660   24.7020 C   0  0  0  0  0  1  0  0  0  0  0  0
  -26.4710  -37.2720   23.7920 N   0  0  0  0  0  0  0  0  0  0  0  0
  -26.0750  -38.1890   23.9790 H   0  0  0  0  0  0  0  0  0  0  0  0
  -30.1650  -19.9540   15.1570 C   0  0  0  0  0  2  0  0  0  0  0  0
  -28.8170  -19.8150   15.8910 C   0  0  0  0  0  2  0  0  0  0  0  0
  -28.8840  -18.8500   17.0110 N   0  0  0  0  0  4  0  0  0  0  0  0
  -29.8650  -18.7200   17.1940 H   0  0  0  0  0  0  0  0  0  0  0  0
  -28.5110  -17.9650   16.7090 H   0  0  0  0  0  0  0  0  0  0  0  0
  -28.2560  -19.2670   18.2930 C   0  0  0  0  0  3  0  0  0  0  0  0
  -26.7390  -19.6000   18.1640 C   0  0  0  0  0  2  0  0  0  0  0  0
  -26.4190  -20.9990   17.5770 C   0  0  0  0  0  2  0  0  0  0  0  0
  -24.8370  -22.9910   17.7450 C   0  0  0  0  0  1  0  0  0  0  0  0
  -24.9490  -21.4530   17.7630 C   0  0  0  0  0  3  0  0  0  0  0  0
  -24.0580  -20.8590   16.7490 N   0  0  0  0  0  4  0  0  0  0  0  0
  -24.2770  -21.1860   15.8240 H   0  0  0  0  0  0  0  0  0  0  0  0
  -23.1010  -21.1010   16.9380 H   0  0  0  0  0  0  0  0  0  0  0  0
  -24.1180  -19.8570   16.7550 H   0  0  0  0  0  0  0  0  0  0  0  0
  -28.5090  -18.1910   19.3830 C   0  0  0  0  0  2  0  0  0  0  0  0
  -29.9940  -18.0110   19.7730 C   0  0  0  0  0  2  0  0  0  0  0  0
  -30.2200  -17.3180   21.1330 C   0  0  0  0  0  2  0  0  0  0  0  0
  -30.6520  -14.9020   20.6800 C   0  0  0  0  0  0  0  0  0  0  0  0
  -30.4900  -12.6990   19.6120 C   0  0  0  0  0  2  0  0  0  0  0  0
  -29.6100  -12.8420   18.3520 C   0  0  0  0  0  2  0  0  0  0  0  0
  -28.1200  -12.6690   18.7060 C   0  0  0  0  0  2  0  0  0  0  0  0
  -27.6870  -13.5430   19.9130 C   0  0  0  0  0  3  0  0  0  0  0  0
  -28.6820  -13.3880   21.0860 C   0  0  0  0  0  2  0  0  0  0  0  0
  -30.0320  -13.7000   20.5800 N   0  0  0  0  0  0  0  0  0  0  0  0
  -31.7950  -15.1180   20.2660 O   0  0  0  0  0  0  0  0  0  0  0  0
  -29.8710  -15.8990   21.1160 N   0  0  0  0  0  0  0  0  0  0  0  0
  -28.9440  -15.6440   21.4240 H   0  0  0  0  0  0  0  0  0  0  0  0
  -25.2510  -14.1110   20.5230 C   0  0  0  0  0  0  0  0  0  0  0  0
  -24.1790  -13.3160   20.8360 C   0  0  0  0  0  0  0  0  0  0  0  0
  -24.6640  -11.9730   20.8080 C   0  0  0  0  0  0  0  0  0  0  0  0
  -26.3180  -13.2480   20.3270 N   0  0  0  0  0  0  0  0  0  0  0  0
  -25.9660  -11.9580   20.5540 N   0  0  0  0  0  0  0  0  0  0  0  0
  -23.9520  -10.6970   20.9480 C   0  0  0  0  0  0  0  0  0  0  0  0
  -24.3450   -9.7330   21.9010 C   0  0  0  0  0  3  0  0  0  0  0  0
  -23.6330   -8.5200   22.0290 C   0  0  0  0  0  3  0  0  0  0  0  0
  -22.5140   -8.2660   21.2000 C   0  0  0  0  0  0  0  0  0  0  0  0
  -22.1440   -9.2170   20.2340 C   0  0  0  0  0  3  0  0  0  0  0  0
  -22.8570  -10.4200   20.1060 C   0  0  0  0  0  3  0  0  0  0  0  0
  -21.7790   -7.1060   21.2360 O   0  0  0  0  0  0  0  0  0  0  0  0
  -21.6390   -6.3760   22.3880 C   0  0  0  0  0  0  0  0  0  0  0  0
  -21.1130   -6.9430   23.5700 C   0  0  0  0  0  3  0  0  0  0  0  0
  -20.9220   -6.1400   24.7120 C   0  0  0  0  0  3  0  0  0  0  0  0
  -21.2470   -4.7700   24.6720 C   0  0  0  0  0  0  0  0  0  0  0  0
  -21.7640   -4.2030   23.4950 C   0  0  0  0  0  3  0  0  0  0  0  0
  -21.9570   -5.0030   22.3550 C   0  0  0  0  0  0  0  0  0  0  0  0
  -22.4380   -4.4470   21.2180 F   0  0  0  0  0  0  0  0  0  0  0  0
  -21.0560   -3.9960   25.7660 F   0  0  0  0  0  0  0  0  0  0  0  0
  -22.7640  -13.7690   21.0520 C   0  0  0  0  0  0  0  0  0  0  0  0
  -22.0170  -13.0610   21.8940 N   0  0  0  0  0  0  0  0  0  0  0  0
  -22.3270  -14.7830   20.5120 O   0  0  0  0  0  0  0  0  0  0  0  0
  -22.3840  -12.2400   22.3510 H   0  0  0  0  0  0  0  0  0  0  0  0
  -21.0660  -13.3450   22.0810 H   0  0  0  0  0  0  0  0  0  0  0  0
  -25.4000  -15.4850   20.3770 N   0  0  0  0  0  0  0  0  0  0  0  0
  -24.6200  -16.1220   20.4940 H   0  0  0  0  0  0  0  0  0  0  0  0
  -26.2630  -15.9510   20.1290 H   0  0  0  0  0  0  0  0  0  0  0  0
  2  5  2  0
  3  1  2  0
  4  6  2  0
  4  2  1  0
  5  1  1  0
  5  7  1  0
  6  3  1  0
  7  8  1  0
  8 10  1  0
  8 11  1  0
  9  7  2  0
 12 13  1  0
 12 11  1  0
 14 13  1  0
 14 17  1  0
 15 14  1  0
 16 14  1  0
 18 17  1  0
 19 21  1  0
 19 18  1  0
 20 31  2  0
 21 26  1  0
 22 30  1  0
 22 32  1  0
 23 29  1  0
 23 25  1  0
 24 30  1  0
 25 24  1  0
 26 25  2  0
 27 28  1  0
 27 21  2  0
 28 23  2  0
 29 22  1  0
 30 20  1  0
 32 34  2  0
 33 32  1  0
 35 33  1  0
 36 45  2  0
 36 41  1  0
 37 33  1  0
 37 41  1  0
 38 37  1  0
 39 40  1  0
 39 38  1  0
 40 36  1  0
 41 42  2  0
 42 43  1  0
 44 43  2  0
 45 44  1  0
 46 20  1  0
 46 51  1  0
 46 47  1  0
 47 50  1  1
 47 48  1  0
 49 47  1  0
 51 54  1  0
 52 56  1  0
 52 51  1  0
 53 52  2  0
 56 55  1  0
 58 56  1  0
 58 59  1  0
 58 57  1  0
 60 61  1  0
 60  6  1  0
 61 62  1  0
 62 63  1  0
 62 65  1  0
 64 62  1  0
 65 66  1  0
 65 74  1  0
 67 69  1  0
 67 66  1  0
 69 68  1  0
 70 73  1  0
 70 72  1  0
 70 69  1  0
 71 70  1  0
 74 75  1  0
 75 76  1  0
 77 85  1  0
 78 83  1  0
 79 80  1  0
 79 78  1  0
 81 80  1  0
 81 90  1  0
 81 82  1  0
 83 77  1  0
 83 82  1  0
 84 77  2  0
 85 76  1  0
 85 86  1  0
 87 88  2  0
 88107  1  0
 89 88  1  0
 89 92  1  0
 90 87  1  0
 90 91  1  0
 91 89  2  0
 92 93  1  0
 93 94  2  0
 95 98  1  0
 95 94  1  0
 96 95  2  0
 97 96  1  0
 97 92  2  0
 98 99  1  0
 99100  1  0
100101  2  0
102101  1  0
102106  1  0
103102  2  0
104 99  2  0
104103  1  0
105104  1  0
107108  1  0
108111  1  0
108110  1  0
109107  2  0
112113  1  0
112 87  1  0
114112  1  0
M  ISO  4  18 101  19 101  77 100  85 100
M  END
>  <TORSDO>  (54) 
F 34

>  <SCORE>  (54) 
-10.382

>  <name>  (54) 
56

>  <ligand_id>  (54) 
56

>  <original_smiles>  (54) 
[H]c1c([H])c([H])c2c(c1[H])C([H])([H])C([H])([H])C([H])([H])C2([H])N([H])C(=O)C1([H])N(C(=O)C([H])(N([H])C(=O)C([H])(N([H])C([H])([H])[H])C([H])([H])[H])C(C([H])([H])[H])(C([H])([H])[H])C([H])([H])[H])C([H])([H])c2c([H])c(OC([H])([H])C([H])([H])[N+]([H])([H])C([H])([H])C([H])([H])C([H])([H])N([H])C(=O)c3c([H])c([H])c(C([H])([H])C([H])([H])[N+]([H])([H])C([H])(C([H])([H])C([H])([H])C([H])([H])N([H])C(=O)N4C([H])([H])C([H])([H])C([H])([H])C([H])(n5nc(-c6c([H])c([H])c(Oc7c([H])c([H])c(F)c([H])c7F)c([H])c6[H])c(C(=O)N([H])[H])c5N([H])[H])C4([H])[H])C([H])([H])C([H])([H])C([H])(C([H])([H])[H])[N+]([H])([H])[H])c([H])c3[H])c([H])c([H])c2C1([H])[H]

>  <smiles>  (54) 
[H]c1c([H])c([H])c2c(c1[H])C([H])([H])C([H])([H])C([H])([H])C2([H])N([H])C(=O)C1([H])N(C(=O)C([H])(N([H])C(=O)C([H])(N([H])C([H])([H])[H])C([H])([H])[H])C(C([H])([H])[H])(C([H])([H])[H])C([H])([H])[H])C([H])([H])c2c([H])c(OC([H])([H])C([H])([H])[N+]([H])([H])C([H])([H])C([H])([H])C([H])([H])N([H])C(=O)c3c([H])c([H])c(C([H])([H])C([H])([H])[N+]([H])([H])C([H])(C([H])([H])C([H])([H])C([H])([H])N([H])C(=O)N4C([H])([H])C([H])([H])C([H])([H])C([H])(n5nc(-c6c([H])c([H])c(Oc7c([H])c([H])c(F)c([H])c7F)c([H])c6[H])c(C(=O)N([H])[H])c5N([H])[H])C4([H])[H])C([H])([H])C([H])([H])C([H])(C([H])([H])[H])[N+]([H])([H])[H])c([H])c3[H])c([H])c([H])c2C1([H])[H]

$$$$
57:0:0
     RDKit          3D

 96103  0  0  1  0  0  0  0  0999 V2000
  -27.8220  -22.3060   21.4830 C   0  0  0  0  0  0  0  0  0  0  0  0
  -27.1570  -22.0400   20.3540 N   0  0  0  0  0  0  0  0  0  0  0  0
  -28.7920  -21.6330   21.8330 O   0  0  0  0  0  0  0  0  0  0  0  0
  -26.3520  -22.6210   20.1550 H   0  0  0  0  0  0  0  0  0  0  0  0
  -27.2860  -23.4450   22.3590 C   0  0  0  0  0  2  0  0  0  0  0  0
  -28.2620  -24.9270   24.1750 C   0  0  0  0  0  1  0  0  0  0  0  0
  -28.2910  -24.5900   22.6700 C   0  0  0  0  0  3  0  0  0  0  0  0
  -28.0190  -25.8590   21.8250 C   0  0  0  0  0  2  0  0  0  0  0  0
  -28.3250  -25.7060   20.3180 C   0  0  0  0  0  2  0  0  0  0  0  0
  -28.3040  -26.9720   19.6570 O   0  0  0  0  0  0  0  0  0  0  0  0
  -24.5940  -31.9160   23.1190 C   0  0  0  0  0  0  0  0  0  0  0  0
  -27.1210  -27.6640   19.7410 C   0  0  0  0  0  0  0  0  0  0  0  0
  -23.3160  -30.5720   21.4810 C   0  0  0  0  0  3  0  0  0  0  0  0
  -24.7080  -29.1150   19.9230 C   0  0  0  0  0  0  0  0  0  0  0  0
  -25.8220  -30.9780   21.1680 C   0  0  0  0  0  2  0  0  0  0  0  0
  -25.8860  -29.6380   20.4730 C   0  0  0  0  0  0  0  0  0  0  0  0
  -27.0960  -28.9190   20.3810 C   0  0  0  0  0  3  0  0  0  0  0  0
  -25.9320  -27.1440   19.1840 C   0  0  0  0  0  3  0  0  0  0  0  0
  -24.7240  -27.8630   19.2770 C   0  0  0  0  0  3  0  0  0  0  0  0
  -23.4560  -29.9540   20.0650 C   0  0  0  0  0  2  0  0  0  0  0  0
  -24.5970  -31.1690   21.9790 N   0  0  0  0  0  0  0  0  0  0  0  0
  -23.5400  -32.1530   23.7260 O   0  0  0  0  0  0  0  0  0  0  0  0
  -22.7260  -29.5040   22.4300 C   0  0  0  0  0  0  0  0  0  0  0  0
  -21.4040  -29.2930   22.3390 N   0  0  0  0  0  0  0  0  0  0  0  0
  -23.4540  -28.8680   23.1980 O   0  0  0  0  0  0  0  0  0  0  0  0
  -20.8780  -29.8530   21.6820 H   0  0  0  0  0  0  0  0  0  0  0  0
  -18.0810  -27.9940   22.8900 C   0  0  0  0  0  0  0  0  0  0  0  0
  -20.6360  -28.3120   23.1040 C   0  0  0  0  0  3  0  0  0  0  0  0
  -20.7660  -26.9020   22.4860 C   0  0  0  0  0  2  0  0  0  0  0  0
  -19.6470  -26.5790   21.4920 C   0  0  0  0  0  2  0  0  0  0  0  0
  -18.2770  -26.6700   22.1720 C   0  0  0  0  0  2  0  0  0  0  0  0
  -19.1890  -28.7740   23.3120 C   0  0  0  0  0  0  0  0  0  0  0  0
  -18.9520  -30.0160   23.9410 C   0  0  0  0  0  3  0  0  0  0  0  0
  -17.6380  -30.4760   24.1540 C   0  0  0  0  0  3  0  0  0  0  0  0
  -16.5450  -29.6920   23.7470 C   0  0  0  0  0  3  0  0  0  0  0  0
  -16.7670  -28.4530   23.1200 C   0  0  0  0  0  3  0  0  0  0  0  0
  -25.9070  -32.5300   23.7010 C   0  0  0  0  0  3  0  0  0  0  0  0
  -26.4890  -31.7150   24.9220 C   0  0  1  0  0  0  0  0  0  0  0  0
  -25.4480  -31.4230   26.0260 C   0  0  0  0  0  1  0  0  0  0  0  0
  -27.0680  -30.3600   24.4470 C   0  0  0  0  0  1  0  0  0  0  0  0
  -27.6590  -32.4980   25.5630 C   0  0  0  0  0  1  0  0  0  0  0  0
  -25.6060  -33.9140   24.0910 N   0  0  0  0  0  0  0  0  0  0  0  0
  -25.9120  -34.9950   23.3580 C   0  0  0  0  0  0  0  0  0  0  0  0
  -26.5530  -34.9290   22.3060 O   0  0  0  0  0  0  0  0  0  0  0  0
  -25.0390  -34.0390   24.9180 H   0  0  0  0  0  0  0  0  0  0  0  0
  -24.1670  -36.7900   23.1260 C   0  0  0  0  0  1  0  0  0  0  0  0
  -25.4370  -36.3640   23.8780 C   0  0  0  0  0  3  0  0  0  0  0  0
  -27.6010  -37.2310   24.6560 C   0  0  0  0  0  1  0  0  0  0  0  0
  -26.4610  -37.4260   23.7620 N   0  0  0  0  0  0  0  0  0  0  0  0
  -26.0570  -38.3390   23.9580 H   0  0  0  0  0  0  0  0  0  0  0  0
  -27.5780  -21.1130   19.2980 C   0  0  0  0  0  2  0  0  0  0  0  0
  -27.3700  -19.6100   19.6210 C   0  0  0  0  0  2  0  0  0  0  0  0
  -28.2100  -19.1100   20.7400 N   0  0  0  0  0  4  0  0  0  0  0  0
  -28.5610  -19.9280   21.2260 H   0  0  0  0  0  0  0  0  0  0  0  0
  -27.6020  -18.6050   21.3650 H   0  0  0  0  0  0  0  0  0  0  0  0
  -29.3540  -18.2320   20.3700 C   0  0  0  0  0  2  0  0  0  0  0  0
  -30.2150  -17.8030   21.5920 C   0  0  0  0  0  2  0  0  0  0  0  0
  -31.3660  -16.8030   21.2770 C   0  0  0  0  0  2  0  0  0  0  0  0
  -31.5590  -14.3610   20.6410 C   0  0  0  0  0  0  0  0  0  0  0  0
  -31.2260  -12.0820   19.7400 C   0  0  0  0  0  2  0  0  0  0  0  0
  -30.3730  -12.1570   18.4570 C   0  0  0  0  0  2  0  0  0  0  0  0
  -28.8650  -12.1580   18.7900 C   0  0  0  0  0  2  0  0  0  0  0  0
  -28.5050  -13.1720   19.9090 C   0  0  0  0  0  3  0  0  0  0  0  0
  -29.4700  -13.0400   21.1080 C   0  0  0  0  0  2  0  0  0  0  0  0
  -30.8450  -13.2070   20.6070 N   0  0  0  0  0  0  0  0  0  0  0  0
  -32.6780  -14.4750   20.1260 O   0  0  0  0  0  0  0  0  0  0  0  0
  -30.9190  -15.4030   21.2090 N   0  0  0  0  0  0  0  0  0  0  0  0
  -30.0370  -15.1800   21.6450 H   0  0  0  0  0  0  0  0  0  0  0  0
  -26.1750  -14.0410   20.5700 C   0  0  0  0  0  0  0  0  0  0  0  0
  -25.0050  -13.3920   20.8630 C   0  0  0  0  0  0  0  0  0  0  0  0
  -25.2920  -11.9980   20.7620 C   0  0  0  0  0  0  0  0  0  0  0  0
  -27.1070  -13.0480   20.3190 N   0  0  0  0  0  0  0  0  0  0  0  0
  -26.5750  -11.8100   20.4870 N   0  0  0  0  0  0  0  0  0  0  0  0
  -24.4020  -10.8300   20.8550 C   0  0  0  0  0  0  0  0  0  0  0  0
  -24.6590   -9.7760   21.7580 C   0  0  0  0  0  3  0  0  0  0  0  0
  -23.7800   -8.6760   21.8430 C   0  0  0  0  0  3  0  0  0  0  0  0
  -22.6280   -8.6210   21.0220 C   0  0  0  0  0  0  0  0  0  0  0  0
  -22.3890   -9.6630   20.1080 C   0  0  0  0  0  3  0  0  0  0  0  0
  -23.2680  -10.7570   20.0220 C   0  0  0  0  0  3  0  0  0  0  0  0
  -21.7310   -7.5820   21.0170 O   0  0  0  0  0  0  0  0  0  0  0  0
  -21.4960   -6.8280   22.1390 C   0  0  0  0  0  0  0  0  0  0  0  0
  -21.0490   -7.4070   23.3460 C   0  0  0  0  0  3  0  0  0  0  0  0
  -20.7560   -6.5870   24.4540 C   0  0  0  0  0  3  0  0  0  0  0  0
  -20.8990   -5.1900   24.3540 C   0  0  0  0  0  0  0  0  0  0  0  0
  -21.3400   -4.6120   23.1510 C   0  0  0  0  0  3  0  0  0  0  0  0
  -21.6360   -5.4290   22.0470 C   0  0  0  0  0  0  0  0  0  0  0  0
  -22.0390   -4.8640   20.8830 F   0  0  0  0  0  0  0  0  0  0  0  0
  -20.6090   -4.4010   25.4150 F   0  0  0  0  0  0  0  0  0  0  0  0
  -23.6730  -14.0310   21.1240 C   0  0  0  0  0  0  0  0  0  0  0  0
  -22.8410  -13.4000   21.9440 N   0  0  0  0  0  0  0  0  0  0  0  0
  -23.3810  -15.1220   20.6350 O   0  0  0  0  0  0  0  0  0  0  0  0
  -23.0950  -12.5150   22.3570 H   0  0  0  0  0  0  0  0  0  0  0  0
  -21.9410  -13.8080   22.1580 H   0  0  0  0  0  0  0  0  0  0  0  0
  -26.5180  -15.3860   20.4770 N   0  0  0  0  0  0  0  0  0  0  0  0
  -25.7950  -16.0960   20.4780 H   0  0  0  0  0  0  0  0  0  0  0  0
  -27.3850  -15.6940   20.0570 H   0  0  0  0  0  0  0  0  0  0  0  0
  1  3  2  0
  1  5  1  0
  2  1  1  0
  4  2  1  0
  5  7  1  0
  7  6  1  0
  8  7  1  0
  9  8  1  0
 10 12  1  0
 10  9  1  0
 11 22  2  0
 12 17  1  0
 13 21  1  0
 13 23  1  0
 14 20  1  0
 14 16  1  0
 15 21  1  0
 16 15  1  0
 17 16  2  0
 18 19  1  0
 18 12  2  0
 19 14  2  0
 20 13  1  0
 21 11  1  0
 23 25  2  0
 24 23  1  0
 26 24  1  0
 27 36  2  0
 27 32  1  0
 28 24  1  0
 28 32  1  0
 29 28  1  0
 30 31  1  0
 30 29  1  0
 31 27  1  0
 32 33  2  0
 33 34  1  0
 35 34  2  0
 36 35  1  0
 37 11  1  0
 37 42  1  0
 37 38  1  0
 38 41  1  1
 38 39  1  0
 40 38  1  0
 42 45  1  0
 43 47  1  0
 43 42  1  0
 44 43  2  0
 47 46  1  0
 49 47  1  0
 49 50  1  0
 49 48  1  0
 51 52  1  0
 51  2  1  0
 52 53  1  0
 53 54  1  0
 53 55  1  0
 56 53  1  0
 56 57  1  0
 58 57  1  0
 59 67  1  0
 60 65  1  0
 61 62  1  0
 61 60  1  0
 63 62  1  0
 63 72  1  0
 63 64  1  0
 65 59  1  0
 65 64  1  0
 66 59  2  0
 67 58  1  0
 67 68  1  0
 69 70  2  0
 70 89  1  0
 71 74  1  0
 71 70  1  0
 72 73  1  0
 72 69  1  0
 73 71  2  0
 74 75  1  0
 75 76  2  0
 77 76  1  0
 78 77  2  0
 79 78  1  0
 79 74  2  0
 80 77  1  0
 80 81  1  0
 81 82  1  0
 82 83  2  0
 84 83  1  0
 84 88  1  0
 85 84  2  0
 86 81  2  0
 86 85  1  0
 87 86  1  0
 89 90  1  0
 90 93  1  0
 90 92  1  0
 91 89  2  0
 94 95  1  0
 94 69  1  0
 96 94  1  0
M  ISO  4   9 101  10 101  59 100  67 100
M  END
>  <TORSDO>  (55) 
F 26

>  <SCORE>  (55) 
-10.041

>  <name>  (55) 
57

>  <ligand_id>  (55) 
57

>  <original_smiles>  (55) 
[H]c1c([H])c([H])c2c(c1[H])C([H])([H])C([H])([H])C([H])([H])C2([H])N([H])C(=O)C1([H])N(C(=O)C([H])(N([H])C(=O)C([H])(N([H])C([H])([H])[H])C([H])([H])[H])C(C([H])([H])[H])(C([H])([H])[H])C([H])([H])[H])C([H])([H])c2c([H])c(OC([H])([H])C([H])([H])C([H])(C([H])([H])[H])C([H])([H])C(=O)N([H])C([H])([H])C([H])([H])[N+]([H])([H])C([H])([H])C([H])([H])C([H])([H])N([H])C(=O)N3C([H])([H])C([H])([H])C([H])([H])C([H])(n4nc(-c5c([H])c([H])c(Oc6c([H])c([H])c(F)c([H])c6F)c([H])c5[H])c(C(=O)N([H])[H])c4N([H])[H])C3([H])[H])c([H])c([H])c2C1([H])[H]

>  <smiles>  (55) 
[H]c1c([H])c([H])c2c(c1[H])C([H])([H])C([H])([H])C([H])([H])C2([H])N([H])C(=O)C1([H])N(C(=O)C([H])(N([H])C(=O)C([H])(N([H])C([H])([H])[H])C([H])([H])[H])C(C([H])([H])[H])(C([H])([H])[H])C([H])([H])[H])C([H])([H])c2c([H])c(OC([H])([H])C([H])([H])C([H])(C([H])([H])[H])C([H])([H])C(=O)N([H])C([H])([H])C([H])([H])[N+]([H])([H])C([H])([H])C([H])([H])C([H])([H])N([H])C(=O)N3C([H])([H])C([H])([H])C([H])([H])C([H])(n4nc(-c5c([H])c([H])c(Oc6c([H])c([H])c(F)c([H])c6F)c([H])c5[H])c(C(=O)N([H])[H])c4N([H])[H])C3([H])[H])c([H])c([H])c2C1([H])[H]

$$$$
58:0:0
     RDKit          3D

 98105  0  0  1  0  0  0  0  0999 V2000
  -27.8060  -20.8610   19.4580 C   0  0  0  0  0  3  0  0  0  0  0  0
  -28.0140  -20.0980   20.7150 N   0  0  0  0  0  4  0  0  0  0  0  0
  -27.8590  -20.6820   21.5190 H   0  0  0  0  0  0  0  0  0  0  0  0
  -27.3250  -19.3630   20.7340 H   0  0  0  0  0  0  0  0  0  0  0  0
  -29.3040  -19.3870   20.8520 C   0  0  0  0  0  2  0  0  0  0  0  0
  -29.0540  -17.8670   20.9460 C   0  0  0  0  0  3  0  0  0  0  0  0
  -28.2200  -17.4570   19.8670 O   0  0  0  0  0  0  0  0  0  0  0  0
  -28.7530  -17.4620   19.0760 H   0  0  0  0  0  0  0  0  0  0  0  0
  -30.3430  -17.0220   20.9200 C   0  0  0  0  0  2  0  0  0  0  0  0
  -30.7010  -14.6400   20.3400 C   0  0  0  0  0  0  0  0  0  0  0  0
  -30.3800  -12.5350   19.1180 C   0  0  0  0  0  2  0  0  0  0  0  0
  -29.3870  -12.7720   17.9610 C   0  0  0  0  0  2  0  0  0  0  0  0
  -27.9320  -12.6050   18.4420 C   0  0  0  0  0  2  0  0  0  0  0  0
  -27.6360  -13.4020   19.7410 C   0  0  0  0  0  3  0  0  0  0  0  0
  -28.7300  -13.1420   20.8010 C   0  0  0  0  0  2  0  0  0  0  0  0
  -30.0330  -13.4680   20.1960 N   0  0  0  0  0  0  0  0  0  0  0  0
  -31.7880  -14.8820   19.8120 O   0  0  0  0  0  0  0  0  0  0  0  0
  -30.0140  -15.6000   20.9620 N   0  0  0  0  0  0  0  0  0  0  0  0
  -29.1000  -15.3610   21.3190 H   0  0  0  0  0  0  0  0  0  0  0  0
  -25.2480  -13.9660   20.5220 C   0  0  0  0  0  0  0  0  0  0  0  0
  -24.2010  -13.1690   20.9030 C   0  0  0  0  0  0  0  0  0  0  0  0
  -24.6810  -11.8260   20.8430 C   0  0  0  0  0  0  0  0  0  0  0  0
  -26.3010  -13.1040   20.2540 N   0  0  0  0  0  0  0  0  0  0  0  0
  -25.9630  -11.8110   20.5000 N   0  0  0  0  0  0  0  0  0  0  0  0
  -23.9820  -10.5490   21.0380 C   0  0  0  0  0  0  0  0  0  0  0  0
  -24.4450   -9.5900   21.9650 C   0  0  0  0  0  3  0  0  0  0  0  0
  -23.7470   -8.3760   22.1480 C   0  0  0  0  0  3  0  0  0  0  0  0
  -22.5730   -8.1150   21.4050 C   0  0  0  0  0  0  0  0  0  0  0  0
  -22.1280   -9.0640   20.4670 C   0  0  0  0  0  3  0  0  0  0  0  0
  -22.8280  -10.2680   20.2820 C   0  0  0  0  0  3  0  0  0  0  0  0
  -21.8410   -6.9560   21.4990 O   0  0  0  0  0  0  0  0  0  0  0  0
  -21.7880   -6.2340   22.6630 C   0  0  0  0  0  0  0  0  0  0  0  0
  -21.3070   -6.7940   23.8660 C   0  0  0  0  0  3  0  0  0  0  0  0
  -21.1950   -5.9950   25.0210 C   0  0  0  0  0  3  0  0  0  0  0  0
  -21.5600   -4.6350   24.9760 C   0  0  0  0  0  0  0  0  0  0  0  0
  -22.0360   -4.0740   23.7780 C   0  0  0  0  0  3  0  0  0  0  0  0
  -22.1460   -4.8690   22.6250 C   0  0  0  0  0  0  0  0  0  0  0  0
  -22.5840   -4.3170   21.4680 F   0  0  0  0  0  0  0  0  0  0  0  0
  -21.4470   -3.8670   26.0840 F   0  0  0  0  0  0  0  0  0  0  0  0
  -22.8030  -13.6180   21.2210 C   0  0  0  0  0  0  0  0  0  0  0  0
  -22.1190  -12.9010   22.1060 N   0  0  0  0  0  0  0  0  0  0  0  0
  -22.3280  -14.6350   20.7210 O   0  0  0  0  0  0  0  0  0  0  0  0
  -22.5190  -12.0760   22.5290 H   0  0  0  0  0  0  0  0  0  0  0  0
  -21.1860  -13.1830   22.3690 H   0  0  0  0  0  0  0  0  0  0  0  0
  -25.3870  -15.3440   20.3770 N   0  0  0  0  0  0  0  0  0  0  0  0
  -24.6240  -15.9770   20.5900 H   0  0  0  0  0  0  0  0  0  0  0  0
  -26.2670  -15.8330   20.2360 H   0  0  0  0  0  0  0  0  0  0  0  0
  -26.2920  -21.1710   19.2690 C   0  0  0  0  0  2  0  0  0  0  0  0
  -25.9030  -21.8330   17.9400 C   0  0  0  0  0  0  0  0  0  0  0  0
  -24.6090  -22.0570   17.7300 N   0  0  0  0  0  0  0  0  0  0  0  0
  -26.7390  -22.1330   17.0910 O   0  0  0  0  0  0  0  0  0  0  0  0
  -23.9190  -21.8030   18.4250 H   0  0  0  0  0  0  0  0  0  0  0  0
  -24.2980  -22.4710   16.8620 H   0  0  0  0  0  0  0  0  0  0  0  0
  -28.7460  -22.1040   19.3670 C   0  0  0  0  0  2  0  0  0  0  0  0
  -28.4930  -23.2220   20.3990 C   0  0  0  0  0  2  0  0  0  0  0  0
  -29.1120  -24.5760   20.0050 C   0  0  0  0  0  2  0  0  0  0  0  0
  -28.7740  -25.6740   21.0290 C   0  0  0  0  0  2  0  0  0  0  0  0
  -28.8760  -26.9800   20.4610 O   0  0  0  0  0  0  0  0  0  0  0  0
  -24.6150  -31.9180   23.2620 C   0  0  0  0  0  0  0  0  0  0  0  0
  -27.6780  -27.6450   20.3720 C   0  0  0  0  0  0  0  0  0  0  0  0
  -23.5930  -30.4700   21.5330 C   0  0  0  0  0  3  0  0  0  0  0  0
  -25.2150  -29.0080   20.2190 C   0  0  0  0  0  0  0  0  0  0  0  0
  -26.1030  -30.9560   21.5130 C   0  0  0  0  0  2  0  0  0  0  0  0
  -26.3000  -29.5930   20.8850 C   0  0  0  0  0  0  0  0  0  0  0  0
  -27.5340  -28.9170   20.9630 C   0  0  0  0  0  3  0  0  0  0  0  0
  -26.5800  -27.0640   19.7010 C   0  0  0  0  0  3  0  0  0  0  0  0
  -25.3480  -27.7400   19.6280 C   0  0  0  0  0  3  0  0  0  0  0  0
  -23.9320  -29.8060   20.1720 C   0  0  0  0  0  2  0  0  0  0  0  0
  -24.7850  -31.1300   22.1640 N   0  0  0  0  0  0  0  0  0  0  0  0
  -23.4880  -32.1360   23.7280 O   0  0  0  0  0  0  0  0  0  0  0  0
  -22.9250  -29.4160   22.4440 C   0  0  0  0  0  0  0  0  0  0  0  0
  -21.6090  -29.2140   22.2600 N   0  0  0  0  0  0  0  0  0  0  0  0
  -23.5870  -28.7830   23.2710 O   0  0  0  0  0  0  0  0  0  0  0  0
  -21.1340  -29.7780   21.5690 H   0  0  0  0  0  0  0  0  0  0  0  0
  -18.2280  -28.0090   22.6450 C   0  0  0  0  0  0  0  0  0  0  0  0
  -20.7800  -28.2460   22.9770 C   0  0  0  0  0  3  0  0  0  0  0  0
  -20.8920  -26.8410   22.3410 C   0  0  0  0  0  2  0  0  0  0  0  0
  -19.8080  -26.5650   21.2930 C   0  0  0  0  0  2  0  0  0  0  0  0
  -18.4150  -26.6880   21.9170 C   0  0  0  0  0  2  0  0  0  0  0  0
  -19.3400  -28.7470   23.1290 C   0  0  0  0  0  0  0  0  0  0  0  0
  -19.1140  -29.9860   23.7670 C   0  0  0  0  0  3  0  0  0  0  0  0
  -17.8080  -30.4850   23.9300 C   0  0  0  0  0  3  0  0  0  0  0  0
  -16.7100  -29.7430   23.4640 C   0  0  0  0  0  3  0  0  0  0  0  0
  -16.9210  -28.5060   22.8270 C   0  0  0  0  0  3  0  0  0  0  0  0
  -25.8260  -32.6040   23.9710 C   0  0  0  0  0  3  0  0  0  0  0  0
  -25.4400  -33.9910   24.2610 N   0  0  0  0  0  0  0  0  0  0  0  0
  -25.7660  -35.0440   23.4990 C   0  0  0  0  0  0  0  0  0  0  0  0
  -26.4920  -34.9540   22.5050 O   0  0  0  0  0  0  0  0  0  0  0  0
  -24.8020  -34.1310   25.0300 H   0  0  0  0  0  0  0  0  0  0  0  0
  -23.9650  -36.7380   23.0380 C   0  0  0  0  0  1  0  0  0  0  0  0
  -25.1930  -36.4160   23.9040 C   0  0  0  0  0  3  0  0  0  0  0  0
  -27.2440  -37.4310   24.7950 C   0  0  0  0  0  1  0  0  0  0  0  0
  -26.1750  -37.5170   23.8030 N   0  0  0  0  0  0  0  0  0  0  0  0
  -25.7160  -38.4180   23.9070 H   0  0  0  0  0  0  0  0  0  0  0  0
  -26.2760  -31.8610   25.2880 C   0  0  1  0  0  0  0  0  0  0  0  0
  -25.1140  -31.5630   26.2620 C   0  0  0  0  0  1  0  0  0  0  0  0
  -26.9660  -30.5180   24.9500 C   0  0  0  0  0  1  0  0  0  0  0  0
  -27.3190  -32.7180   26.0440 C   0  0  0  0  0  1  0  0  0  0  0  0
  1 48  1  0
  1  2  1  0
  2  4  1  0
  2  5  1  0
  2  3  1  0
  6  5  1  0
  7  6  1  0
  8  7  1  0
  9  6  1  0
  9 18  1  0
 10 18  1  0
 11 16  1  0
 12 13  1  0
 12 11  1  0
 14 13  1  0
 14 23  1  0
 14 15  1  0
 16 10  1  0
 16 15  1  0
 17 10  2  0
 18 19  1  0
 20 21  2  0
 21 40  1  0
 22 21  1  0
 22 25  1  0
 23 24  1  0
 23 20  1  0
 24 22  2  0
 25 26  1  0
 26 27  2  0
 28 31  1  0
 28 27  1  0
 29 28  2  0
 30 29  1  0
 30 25  2  0
 31 32  1  0
 32 33  1  0
 33 34  2  0
 35 34  1  0
 35 39  1  0
 36 35  2  0
 37 32  2  0
 37 36  1  0
 38 37  1  0
 40 41  1  0
 41 44  1  0
 41 43  1  0
 42 40  2  0
 45 20  1  0
 45 46  1  0
 47 45  1  0
 49 48  1  0
 50 49  1  0
 50 52  1  0
 51 49  2  0
 53 50  1  0
 54  1  1  0
 54 55  1  0
 56 55  1  0
 56 57  1  0
 58 57  1  0
 59 70  2  0
 60 58  1  0
 60 65  1  0
 61 69  1  0
 61 71  1  0
 62 64  1  0
 63 69  1  0
 64 65  2  0
 64 63  1  0
 66 60  2  0
 67 66  1  0
 67 62  2  0
 68 62  1  0
 68 61  1  0
 69 59  1  0
 71 73  2  0
 72 71  1  0
 74 72  1  0
 75 84  2  0
 75 80  1  0
 76 72  1  0
 76 80  1  0
 77 76  1  0
 78 79  1  0
 78 77  1  0
 79 75  1  0
 80 81  2  0
 81 82  1  0
 83 82  2  0
 84 83  1  0
 85 59  1  0
 85 86  1  0
 85 95  1  0
 86 89  1  0
 87 91  1  0
 87 86  1  0
 88 87  2  0
 91 90  1  0
 93 91  1  0
 93 94  1  0
 93 92  1  0
 95 98  1  1
 95 96  1  0
 97 95  1  0
M  ISO  4  10 100  18 100  57 101  58 101
M  END
>  <TORSDO>  (56) 
F 27

>  <SCORE>  (56) 
-11.486

>  <name>  (56) 
58

>  <ligand_id>  (56) 
58

>  <original_smiles>  (56) 
[H]OC([H])(C([H])([H])N([H])C(=O)N1C([H])([H])C([H])([H])C([H])([H])C([H])(n2nc(-c3c([H])c([H])c(Oc4c([H])c([H])c(F)c([H])c4F)c([H])c3[H])c(C(=O)N([H])[H])c2N([H])[H])C1([H])[H])C([H])([H])[N+]([H])([H])C([H])(C([H])([H])C(=O)N([H])[H])C([H])([H])C([H])([H])C([H])([H])C([H])([H])Oc1c([H])c([H])c2c(c1[H])C([H])([H])N(C(=O)C([H])(N([H])C(=O)C([H])(N([H])C([H])([H])[H])C([H])([H])[H])C(C([H])([H])[H])(C([H])([H])[H])C([H])([H])[H])C([H])(C(=O)N([H])C1([H])c3c([H])c([H])c([H])c([H])c3C([H])([H])C([H])([H])C1([H])[H])C2([H])[H]

>  <smiles>  (56) 
[H]OC([H])(C([H])([H])N([H])C(=O)N1C([H])([H])C([H])([H])C([H])([H])C([H])(n2nc(-c3c([H])c([H])c(Oc4c([H])c([H])c(F)c([H])c4F)c([H])c3[H])c(C(=O)N([H])[H])c2N([H])[H])C1([H])[H])C([H])([H])[N+]([H])([H])C([H])(C([H])([H])C(=O)N([H])[H])C([H])([H])C([H])([H])C([H])([H])C([H])([H])Oc1c([H])c([H])c2c(c1[H])C([H])([H])N(C(=O)C([H])(N([H])C(=O)C([H])(N([H])C([H])([H])[H])C([H])([H])[H])C(C([H])([H])[H])(C([H])([H])[H])C([H])([H])[H])C([H])(C(=O)N([H])C1([H])c3c([H])c([H])c([H])c([H])c3C([H])([H])C([H])([H])C1([H])[H])C2([H])[H]

$$$$
59:0:0
     RDKit          3D

 94101  0  0  1  0  0  0  0  0999 V2000
  -31.6700  -23.6050   16.6830 C   0  0  0  0  0  2  0  0  0  0  0  0
  -30.3790  -22.9590   17.2060 C   0  0  0  0  0  2  0  0  0  0  0  0
  -30.1680  -21.4960   16.7990 C   0  0  0  0  0  2  0  0  0  0  0  0
  -28.9840  -20.9390   17.4860 N   0  0  0  0  0  4  0  0  0  0  0  0
  -28.5500  -20.2600   16.8800 H   0  0  0  0  0  0  0  0  0  0  0  0
  -28.3130  -21.6820   17.6080 H   0  0  0  0  0  0  0  0  0  0  0  0
  -29.2400  -20.3010   18.7960 C   0  0  0  0  0  2  0  0  0  0  0  0
  -29.6650  -18.8340   18.6110 C   0  0  0  0  0  2  0  0  0  0  0  0
  -29.7150  -17.9810   19.8970 C   0  0  0  0  0  2  0  0  0  0  0  0
  -29.8880  -16.5110   19.4920 C   0  0  0  0  0  2  0  0  0  0  0  0
  -30.6650  -14.4870   20.5780 C   0  0  0  0  0  0  0  0  0  0  0  0
  -30.3910  -12.2990   19.5380 C   0  0  0  0  0  2  0  0  0  0  0  0
  -29.4890  -12.5100   18.3040 C   0  0  0  0  0  2  0  0  0  0  0  0
  -28.0050  -12.3760   18.6970 C   0  0  0  0  0  2  0  0  0  0  0  0
  -27.6310  -13.2410   19.9280 C   0  0  0  0  0  3  0  0  0  0  0  0
  -28.6580  -13.0600   21.0750 C   0  0  0  0  0  2  0  0  0  0  0  0
  -30.0060  -13.3030   20.5380 N   0  0  0  0  0  0  0  0  0  0  0  0
  -31.8440  -14.6300   20.2460 O   0  0  0  0  0  0  0  0  0  0  0  0
  -29.8420  -15.5450   20.5940 N   0  0  0  0  0  0  0  0  0  0  0  0
  -28.9200  -15.3480   20.9570 H   0  0  0  0  0  0  0  0  0  0  0  0
  -25.2140  -13.8620   20.5650 C   0  0  0  0  0  0  0  0  0  0  0  0
  -24.1360  -13.0910   20.9150 C   0  0  0  0  0  0  0  0  0  0  0  0
  -24.5990  -11.7410   20.9140 C   0  0  0  0  0  0  0  0  0  0  0  0
  -26.2650  -12.9770   20.3760 N   0  0  0  0  0  0  0  0  0  0  0  0
  -25.8960  -11.6990   20.6430 N   0  0  0  0  0  0  0  0  0  0  0  0
  -23.8690  -10.4810   21.1000 C   0  0  0  0  0  0  0  0  0  0  0  0
  -24.3010   -9.5070   22.0290 C   0  0  0  0  0  3  0  0  0  0  0  0
  -23.5740   -8.3100   22.2000 C   0  0  0  0  0  3  0  0  0  0  0  0
  -22.3990   -8.0780   21.4450 C   0  0  0  0  0  0  0  0  0  0  0  0
  -21.9890   -9.0390   20.5050 C   0  0  0  0  0  3  0  0  0  0  0  0
  -22.7160  -10.2280   20.3310 C   0  0  0  0  0  3  0  0  0  0  0  0
  -21.6430   -6.9340   21.5280 O   0  0  0  0  0  0  0  0  0  0  0  0
  -21.6180   -6.1710   22.6670 C   0  0  0  0  0  0  0  0  0  0  0  0
  -21.2480   -6.7140   23.9170 C   0  0  0  0  0  3  0  0  0  0  0  0
  -21.1680   -5.8790   25.0510 C   0  0  0  0  0  3  0  0  0  0  0  0
  -21.4460   -4.5030   24.9350 C   0  0  0  0  0  0  0  0  0  0  0  0
  -21.8080   -3.9620   23.6890 C   0  0  0  0  0  3  0  0  0  0  0  0
  -21.8920   -4.7930   22.5590 C   0  0  0  0  0  0  0  0  0  0  0  0
  -22.2210   -4.2630   21.3550 F   0  0  0  0  0  0  0  0  0  0  0  0
  -21.3610   -3.6980   26.0200 F   0  0  0  0  0  0  0  0  0  0  0  0
  -22.7320  -13.5690   21.1480 C   0  0  0  0  0  0  0  0  0  0  0  0
  -21.9880  -12.8780   22.0060 N   0  0  0  0  0  0  0  0  0  0  0  0
  -22.3030  -14.5860   20.6030 O   0  0  0  0  0  0  0  0  0  0  0  0
  -22.3520  -12.0540   22.4610 H   0  0  0  0  0  0  0  0  0  0  0  0
  -21.0430  -13.1730   22.2090 H   0  0  0  0  0  0  0  0  0  0  0  0
  -25.3820  -15.2290   20.3690 N   0  0  0  0  0  0  0  0  0  0  0  0
  -24.6110  -15.8840   20.4410 H   0  0  0  0  0  0  0  0  0  0  0  0
  -26.2370  -15.6600   20.0400 H   0  0  0  0  0  0  0  0  0  0  0  0
  -31.8630  -25.0460   17.2060 C   0  0  0  0  0  2  0  0  0  0  0  0
  -30.0140  -26.4890   16.7080 C   0  0  0  0  0  3  0  0  0  0  0  0
  -31.1540  -26.0110   16.3780 N   0  0  0  0  0  0  0  0  0  0  0  0
  -29.1550  -26.1540   17.9190 C   0  0  0  0  0  2  0  0  0  0  0  0
  -29.3110  -27.1630   19.0590 C   0  0  0  0  0  2  0  0  0  0  0  0
  -28.4380  -26.7670   20.1090 O   0  0  0  0  0  0  0  0  0  0  0  0
  -24.6310  -31.8840   23.2260 C   0  0  0  0  0  0  0  0  0  0  0  0
  -27.2670  -27.4730   20.1460 C   0  0  0  0  0  0  0  0  0  0  0  0
  -23.4140  -30.4700   21.5980 C   0  0  0  0  0  3  0  0  0  0  0  0
  -24.8600  -28.9300   20.1750 C   0  0  0  0  0  0  0  0  0  0  0  0
  -25.9290  -30.8530   21.3700 C   0  0  0  0  0  2  0  0  0  0  0  0
  -26.0160  -29.4760   20.7470 C   0  0  0  0  0  0  0  0  0  0  0  0
  -27.2230  -28.7490   20.7410 C   0  0  0  0  0  3  0  0  0  0  0  0
  -26.0960  -26.9180   19.5930 C   0  0  0  0  0  3  0  0  0  0  0  0
  -24.8890  -27.6430   19.6030 C   0  0  0  0  0  3  0  0  0  0  0  0
  -23.6140  -29.7840   20.2190 C   0  0  0  0  0  2  0  0  0  0  0  0
  -24.6770  -31.0820   22.1250 N   0  0  0  0  0  0  0  0  0  0  0  0
  -23.5550  -32.1570   23.7730 O   0  0  0  0  0  0  0  0  0  0  0  0
  -22.7750  -29.4530   22.5690 C   0  0  0  0  0  0  0  0  0  0  0  0
  -21.4520  -29.2660   22.4480 N   0  0  0  0  0  0  0  0  0  0  0  0
  -23.4670  -28.8310   23.3810 O   0  0  0  0  0  0  0  0  0  0  0  0
  -20.9610  -29.8160   21.7570 H   0  0  0  0  0  0  0  0  0  0  0  0
  -18.0830  -28.0730   22.9670 C   0  0  0  0  0  0  0  0  0  0  0  0
  -20.6400  -28.3330   23.2280 C   0  0  0  0  0  3  0  0  0  0  0  0
  -20.7410  -26.9010   22.6540 C   0  0  0  0  0  2  0  0  0  0  0  0
  -19.6340  -26.5730   21.6470 C   0  0  0  0  0  2  0  0  0  0  0  0
  -18.2550  -26.7210   22.2950 C   0  0  0  0  0  2  0  0  0  0  0  0
  -19.2020  -28.8380   23.3890 C   0  0  0  0  0  0  0  0  0  0  0  0
  -18.9850  -30.1050   23.9720 C   0  0  0  0  0  3  0  0  0  0  0  0
  -17.6800  -30.6060   24.1400 C   0  0  0  0  0  3  0  0  0  0  0  0
  -16.5750  -29.8380   23.7320 C   0  0  0  0  0  3  0  0  0  0  0  0
  -16.7770  -28.5740   23.1520 C   0  0  0  0  0  3  0  0  0  0  0  0
  -25.9230  -32.5140   23.8380 C   0  0  0  0  0  3  0  0  0  0  0  0
  -26.4690  -31.7320   25.0950 C   0  0  1  0  0  0  0  0  0  0  0  0
  -25.4000  -31.4700   26.1790 C   0  0  0  0  0  1  0  0  0  0  0  0
  -27.0510  -30.3630   24.6690 C   0  0  0  0  0  1  0  0  0  0  0  0
  -27.6280  -32.5260   25.7430 C   0  0  0  0  0  1  0  0  0  0  0  0
  -25.6120  -33.9060   24.1820 N   0  0  0  0  0  0  0  0  0  0  0  0
  -25.9300  -34.9670   23.4260 C   0  0  0  0  0  0  0  0  0  0  0  0
  -26.5880  -34.8740   22.3860 O   0  0  0  0  0  0  0  0  0  0  0  0
  -25.0250  -34.0540   24.9900 H   0  0  0  0  0  0  0  0  0  0  0  0
  -24.1830  -36.7480   23.1070 C   0  0  0  0  0  1  0  0  0  0  0  0
  -25.4380  -36.3470   23.8990 C   0  0  0  0  0  3  0  0  0  0  0  0
  -27.5820  -37.2330   24.7020 C   0  0  0  0  0  1  0  0  0  0  0  0
  -26.4620  -37.4070   23.7810 N   0  0  0  0  0  0  0  0  0  0  0  0
  -26.0540  -38.3230   23.9460 H   0  0  0  0  0  0  0  0  0  0  0  0
  1  2  1  0
  1 49  1  0
  3  2  1  0
  3  4  1  0
  4  6  1  0
  4  7  1  0
  5  4  1  0
  8  7  1  0
  8  9  1  0
 10  9  1  0
 10 19  1  0
 11 19  1  0
 12 17  1  0
 13 14  1  0
 13 12  1  0
 15 14  1  0
 15 24  1  0
 15 16  1  0
 17 11  1  0
 17 16  1  0
 18 11  2  0
 19 20  1  0
 21 22  2  0
 22 41  1  0
 23 22  1  0
 23 26  1  0
 24 21  1  0
 24 25  1  0
 25 23  2  0
 26 27  1  0
 27 28  2  0
 29 32  1  0
 29 28  1  0
 30 29  2  0
 31 30  1  0
 31 26  2  0
 32 33  1  0
 33 34  1  0
 34 35  2  0
 36 35  1  0
 36 40  1  0
 37 36  2  0
 38 33  2  0
 38 37  1  0
 39 38  1  0
 41 42  1  0
 42 45  1  0
 42 44  1  0
 43 41  2  0
 46 47  1  0
 46 21  1  0
 48 46  1  0
 50 52  1  0
 51 50  2  0
 51 49  1  0
 52 53  1  0
 53 54  1  0
 54 56  1  0
 55 66  2  0
 56 61  1  0
 57 65  1  0
 57 67  1  0
 58 64  1  0
 58 60  1  0
 59 65  1  0
 60 59  1  0
 61 60  2  0
 62 63  1  0
 62 56  2  0
 63 58  2  0
 64 57  1  0
 65 55  1  0
 67 69  2  0
 68 67  1  0
 70 68  1  0
 71 80  2  0
 71 76  1  0
 72 68  1  0
 72 76  1  0
 73 72  1  0
 74 75  1  0
 74 73  1  0
 75 71  1  0
 76 77  2  0
 77 78  1  0
 79 78  2  0
 80 79  1  0
 81 55  1  0
 81 86  1  0
 81 82  1  0
 82 85  1  1
 82 83  1  0
 84 82  1  0
 86 89  1  0
 87 91  1  0
 87 86  1  0
 88 87  2  0
 91 90  1  0
 93 91  1  0
 93 94  1  0
 93 92  1  0
M  ISO  4  11 100  19 100  53 101  54 101
M  END
>  <TORSDO>  (57) 
F 27

>  <SCORE>  (57) 
-11.396

>  <name>  (57) 
59

>  <ligand_id>  (57) 
59

>  <original_smiles>  (57) 
[H]C(=NC([H])([H])C([H])([H])C([H])([H])C([H])([H])[N+]([H])([H])C([H])([H])C([H])([H])C([H])([H])C([H])([H])N([H])C(=O)N1C([H])([H])C([H])([H])C([H])([H])C([H])(n2nc(-c3c([H])c([H])c(Oc4c([H])c([H])c(F)c([H])c4F)c([H])c3[H])c(C(=O)N([H])[H])c2N([H])[H])C1([H])[H])C([H])([H])C([H])([H])Oc1c([H])c([H])c2c(c1[H])C([H])([H])N(C(=O)C([H])(N([H])C(=O)C([H])(N([H])C([H])([H])[H])C([H])([H])[H])C(C([H])([H])[H])(C([H])([H])[H])C([H])([H])[H])C([H])(C(=O)N([H])C1([H])c3c([H])c([H])c([H])c([H])c3C([H])([H])C([H])([H])C1([H])[H])C2([H])[H]

>  <smiles>  (57) 
[H]C(=NC([H])([H])C([H])([H])C([H])([H])C([H])([H])[N+]([H])([H])C([H])([H])C([H])([H])C([H])([H])C([H])([H])N([H])C(=O)N1C([H])([H])C([H])([H])C([H])([H])C([H])(n2nc(-c3c([H])c([H])c(Oc4c([H])c([H])c(F)c([H])c4F)c([H])c3[H])c(C(=O)N([H])[H])c2N([H])[H])C1([H])[H])C([H])([H])C([H])([H])Oc1c([H])c([H])c2c(c1[H])C([H])([H])N(C(=O)C([H])(N([H])C(=O)C([H])(N([H])C([H])([H])[H])C([H])([H])[H])C(C([H])([H])[H])(C([H])([H])[H])C([H])([H])[H])C([H])(C(=O)N([H])C1([H])c3c([H])c([H])c([H])c([H])c3C([H])([H])C([H])([H])C1([H])[H])C2([H])[H]

$$$$
60:0:0
     RDKit          3D

 99107  0  0  1  0  0  0  0  0999 V2000
  -31.8820  -22.0200   21.0730 C   0  0  0  0  0  3  0  0  0  0  0  0
  -31.3110  -22.8260   22.0740 C   0  0  0  0  0  3  0  0  0  0  0  0
  -29.7000  -21.8110   20.0170 C   0  0  0  0  0  3  0  0  0  0  0  0
  -31.0780  -21.5040   20.0360 C   0  0  0  0  0  0  0  0  0  0  0  0
  -29.1210  -22.6560   20.9930 C   0  0  0  0  0  0  0  0  0  0  0  0
  -29.9390  -23.1480   22.0420 C   0  0  0  0  0  0  0  0  0  0  0  0
  -29.4310  -23.9510   23.0610 N   0  0  0  0  0  0  0  0  0  0  0  0
  -30.0480  -24.3690   23.7500 H   0  0  0  0  0  0  0  0  0  0  0  0
  -28.5360  -24.4160   22.9650 H   0  0  0  0  0  0  0  0  0  0  0  0
  -32.7440  -21.5100   18.1410 C   0  0  0  0  0  1  0  0  0  0  0  0
  -31.6940  -20.6820   18.9000 C   0  0  0  0  0  3  0  0  0  0  0  0
  -32.2660  -19.3900   19.3410 N   0  0  0  0  0  4  0  0  0  0  0  0
  -32.3160  -18.8050   18.5230 H   0  0  0  0  0  0  0  0  0  0  0  0
  -33.2100  -19.5370   19.6610 H   0  0  0  0  0  0  0  0  0  0  0  0
  -31.5300  -18.6440   20.3880 C   0  0  0  0  0  2  0  0  0  0  0  0
  -31.5780  -17.1230   20.1170 C   0  0  0  0  0  2  0  0  0  0  0  0
  -31.3320  -16.2430   21.3630 C   0  0  0  0  0  2  0  0  0  0  0  0
  -31.3720  -13.9490   20.2900 C   0  0  0  0  0  0  0  0  0  0  0  0
  -30.8810  -11.8640   19.0610 C   0  0  0  0  0  2  0  0  0  0  0  0
  -29.9470  -12.1630   17.8710 C   0  0  0  0  0  2  0  0  0  0  0  0
  -28.4680  -12.1530   18.3080 C   0  0  0  0  0  2  0  0  0  0  0  0
  -28.2160  -13.0050   19.5800 C   0  0  0  0  0  3  0  0  0  0  0  0
  -29.2460  -12.6540   20.6740 C   0  0  0  0  0  2  0  0  0  0  0  0
  -30.5970  -12.8490   20.1140 N   0  0  0  0  0  0  0  0  0  0  0  0
  -32.4700  -14.1030   19.7440 O   0  0  0  0  0  0  0  0  0  0  0  0
  -30.8140  -14.9090   21.0450 N   0  0  0  0  0  0  0  0  0  0  0  0
  -29.9140  -14.6740   21.4390 H   0  0  0  0  0  0  0  0  0  0  0  0
  -25.8840  -13.8270   20.2960 C   0  0  0  0  0  0  0  0  0  0  0  0
  -24.7540  -13.1540   20.6710 C   0  0  0  0  0  0  0  0  0  0  0  0
  -25.0890  -11.7660   20.6340 C   0  0  0  0  0  0  0  0  0  0  0  0
  -26.8450  -12.8550   20.0620 N   0  0  0  0  0  0  0  0  0  0  0  0
  -26.3690  -11.6100   20.3190 N   0  0  0  0  0  0  0  0  0  0  0  0
  -24.2550  -10.5750   20.8270 C   0  0  0  0  0  0  0  0  0  0  0  0
  -24.5880   -9.5870   21.7800 C   0  0  0  0  0  3  0  0  0  0  0  0
  -23.7620   -8.4570   21.9590 C   0  0  0  0  0  3  0  0  0  0  0  0
  -22.5860   -8.3070   21.1840 C   0  0  0  0  0  0  0  0  0  0  0  0
  -22.2720   -9.2820   20.2220 C   0  0  0  0  0  3  0  0  0  0  0  0
  -23.0970  -10.4030   20.0410 C   0  0  0  0  0  3  0  0  0  0  0  0
  -21.7360   -7.2310   21.2710 O   0  0  0  0  0  0  0  0  0  0  0  0
  -21.5800   -6.5310   22.4410 C   0  0  0  0  0  0  0  0  0  0  0  0
  -21.1490   -7.1540   23.6320 C   0  0  0  0  0  3  0  0  0  0  0  0
  -20.9340   -6.3830   24.7930 C   0  0  0  0  0  3  0  0  0  0  0  0
  -21.1400   -4.9920   24.7620 C   0  0  0  0  0  0  0  0  0  0  0  0
  -21.5620   -4.3680   23.5750 C   0  0  0  0  0  3  0  0  0  0  0  0
  -21.7780   -5.1360   22.4170 C   0  0  0  0  0  0  0  0  0  0  0  0
  -22.1650   -4.5270   21.2710 F   0  0  0  0  0  0  0  0  0  0  0  0
  -20.9270   -4.2490   25.8740 F   0  0  0  0  0  0  0  0  0  0  0  0
  -23.4060  -13.7530   20.9550 C   0  0  0  0  0  0  0  0  0  0  0  0
  -22.6350  -13.1340   21.8430 N   0  0  0  0  0  0  0  0  0  0  0  0
  -23.0490  -14.8040   20.4260 O   0  0  0  0  0  0  0  0  0  0  0  0
  -22.9370  -12.2830   22.2940 H   0  0  0  0  0  0  0  0  0  0  0  0
  -21.7290  -13.5160   22.0740 H   0  0  0  0  0  0  0  0  0  0  0  0
  -26.1730  -15.1780   20.1200 N   0  0  0  0  0  0  0  0  0  0  0  0
  -25.4680  -15.9000   20.2230 H   0  0  0  0  0  0  0  0  0  0  0  0
  -27.0620  -15.5330   19.7900 H   0  0  0  0  0  0  0  0  0  0  0  0
  -27.6340  -23.0060   20.8850 C   0  0  0  0  0  2  0  0  0  0  0  0
  -27.2590  -23.7960   19.6130 C   0  0  0  0  0  2  0  0  0  0  0  0
  -28.1660  -25.0040   19.3070 C   0  0  0  0  0  2  0  0  0  0  0  0
  -27.5670  -25.8110   18.2990 O   0  0  0  0  0  0  0  0  0  0  0  0
  -24.9350  -30.5580   22.9700 C   0  0  0  0  0  0  0  0  0  0  0  0
  -26.5780  -26.6820   18.6830 C   0  0  0  0  0  0  0  0  0  0  0  0
  -23.4250  -29.8670   21.1340 C   0  0  0  0  0  3  0  0  0  0  0  0
  -24.5080  -28.5100   19.2650 C   0  0  0  0  0  0  0  0  0  0  0  0
  -25.9630  -29.8030   20.8330 C   0  0  0  0  0  2  0  0  0  0  0  0
  -25.7580  -28.6480   19.8800 C   0  0  0  0  0  0  0  0  0  0  0  0
  -26.7960  -27.7300   19.6040 C   0  0  0  0  0  3  0  0  0  0  0  0
  -25.3160  -26.5560   18.0670 C   0  0  0  0  0  3  0  0  0  0  0  0
  -24.2760  -27.4580   18.3620 C   0  0  0  0  0  3  0  0  0  0  0  0
  -23.4530  -29.5360   19.6180 C   0  0  0  0  0  2  0  0  0  0  0  0
  -24.7970  -30.0730   21.7030 N   0  0  0  0  0  0  0  0  0  0  0  0
  -23.9460  -30.8740   23.6470 O   0  0  0  0  0  0  0  0  0  0  0  0
  -22.6210  -28.7660   21.8620 C   0  0  0  0  0  0  0  0  0  0  0  0
  -21.2830  -28.8880   21.8330 N   0  0  0  0  0  0  0  0  0  0  0  0
  -23.1930  -27.8210   22.4100 O   0  0  0  0  0  0  0  0  0  0  0  0
  -20.8930  -29.6950   21.3680 H   0  0  0  0  0  0  0  0  0  0  0  0
  -17.7620  -28.3140   22.3990 C   0  0  0  0  0  0  0  0  0  0  0  0
  -20.3220  -27.9540   22.4170 C   0  0  0  0  0  3  0  0  0  0  0  0
  -20.0590  -26.7620   21.4680 C   0  0  0  0  0  2  0  0  0  0  0  0
  -18.8530  -26.9780   20.5480 C   0  0  0  0  0  2  0  0  0  0  0  0
  -17.5830  -27.2100   21.3710 C   0  0  0  0  0  2  0  0  0  0  0  0
  -19.0500  -28.6730   22.8780 C   0  0  0  0  0  0  0  0  0  0  0  0
  -19.1630  -29.7300   23.8070 C   0  0  0  0  0  3  0  0  0  0  0  0
  -18.0220  -30.4190   24.2580 C   0  0  0  0  0  3  0  0  0  0  0  0
  -16.7490  -30.0470   23.7930 C   0  0  0  0  0  3  0  0  0  0  0  0
  -16.6210  -28.9950   22.8690 C   0  0  0  0  0  3  0  0  0  0  0  0
  -26.3410  -30.7600   23.6180 C   0  0  0  0  0  3  0  0  0  0  0  0
  -26.7390  -29.6040   24.6140 C   0  0  1  0  0  0  0  0  0  0  0  0
  -25.6580  -29.3070   25.6810 C   0  0  0  0  0  1  0  0  0  0  0  0
  -27.0190  -28.2920   23.8440 C   0  0  0  0  0  1  0  0  0  0  0  0
  -28.0490  -29.9720   25.3480 C   0  0  0  0  0  1  0  0  0  0  0  0
  -26.3260  -32.0580   24.3060 N   0  0  0  0  0  0  0  0  0  0  0  0
  -26.8780  -33.1790   23.8240 C   0  0  0  0  0  0  0  0  0  0  0  0
  -27.5230  -33.2110   22.7710 O   0  0  0  0  0  0  0  0  0  0  0  0
  -25.7650  -32.1200   25.1420 H   0  0  0  0  0  0  0  0  0  0  0  0
  -25.5650  -35.3170   24.0030 C   0  0  0  0  0  1  0  0  0  0  0  0
  -26.6820  -34.4720   24.6380 C   0  0  0  0  0  3  0  0  0  0  0  0
  -28.9380  -34.6540   25.5870 C   0  0  0  0  0  1  0  0  0  0  0  0
  -27.9140  -35.2820   24.7580 N   0  0  0  0  0  0  0  0  0  0  0  0
  -27.7060  -36.1980   25.1490 H   0  0  0  0  0  0  0  0  0  0  0  0
  1  2  1  0
  3  4  1  0
  3  5  2  0
  4  1  2  0
  5  6  1  0
  6  2  2  0
  6  7  1  0
  7  8  1  0
  9  7  1  0
 11 10  1  0
 11 12  1  0
 11  4  1  0
 12 14  1  0
 12 15  1  0
 13 12  1  0
 16 15  1  0
 16 17  1  0
 18 26  1  0
 19 24  1  0
 20 21  1  0
 20 19  1  0
 22 21  1  0
 22 31  1  0
 22 23  1  0
 24 18  1  0
 24 23  1  0
 25 18  2  0
 26 17  1  0
 26 27  1  0
 28 29  2  0
 29 48  1  0
 30 29  1  0
 30 33  1  0
 31 28  1  0
 31 32  1  0
 32 30  2  0
 33 34  1  0
 34 35  2  0
 36 39  1  0
 36 35  1  0
 37 36  2  0
 38 37  1  0
 38 33  2  0
 39 40  1  0
 40 41  1  0
 41 42  2  0
 43 42  1  0
 43 47  1  0
 44 43  2  0
 45 40  2  0
 45 44  1  0
 46 45  1  0
 48 49  1  0
 49 52  1  0
 49 51  1  0
 50 48  2  0
 53 54  1  0
 53 28  1  0
 55 53  1  0
 56  5  1  0
 57 56  1  0
 58 57  1  0
 59 61  1  0
 59 58  1  0
 60 71  2  0
 61 66  1  0
 62 70  1  0
 62 72  1  0
 63 69  1  0
 63 65  1  0
 64 70  1  0
 65 64  1  0
 66 65  2  0
 67 68  1  0
 67 61  2  0
 68 63  2  0
 69 62  1  0
 70 60  1  0
 72 74  2  0
 73 72  1  0
 75 73  1  0
 76 85  2  0
 76 81  1  0
 77 73  1  0
 77 81  1  0
 78 77  1  0
 79 80  1  0
 79 78  1  0
 80 76  1  0
 81 82  2  0
 82 83  1  0
 84 83  2  0
 85 84  1  0
 86 60  1  0
 86 91  1  0
 86 87  1  0
 87 90  1  1
 87 88  1  0
 89 87  1  0
 91 94  1  0
 92 91  1  0
 92 96  1  0
 93 92  2  0
 96 95  1  0
 96 98  1  0
 98 99  1  0
 98 97  1  0
M  ISO  4  18 100  26 100  58 101  59 101
M  END
>  <TORSDO>  (58) 
F 25

>  <SCORE>  (58) 
-10.321

>  <name>  (58) 
60

>  <ligand_id>  (58) 
60

>  <original_smiles>  (58) 
[H]c1c([H])c([H])c2c(c1[H])C([H])([H])C([H])([H])C([H])([H])C2([H])N([H])C(=O)C1([H])N(C(=O)C([H])(N([H])C(=O)C([H])(N([H])C([H])([H])[H])C([H])([H])[H])C(C([H])([H])[H])(C([H])([H])[H])C([H])([H])[H])C([H])([H])c2c([H])c(OC([H])([H])C([H])([H])C([H])([H])c3c([H])c(C([H])(C([H])([H])[H])[N+]([H])([H])C([H])([H])C([H])([H])C([H])([H])N([H])C(=O)N4C([H])([H])C([H])([H])C([H])([H])C([H])(n5nc(-c6c([H])c([H])c(Oc7c([H])c([H])c(F)c([H])c7F)c([H])c6[H])c(C(=O)N([H])[H])c5N([H])[H])C4([H])[H])c([H])c([H])c3N([H])[H])c([H])c([H])c2C1([H])[H]

>  <smiles>  (58) 
[H]c1c([H])c([H])c2c(c1[H])C([H])([H])C([H])([H])C([H])([H])C2([H])N([H])C(=O)C1([H])N(C(=O)C([H])(N([H])C(=O)C([H])(N([H])C([H])([H])[H])C([H])([H])[H])C(C([H])([H])[H])(C([H])([H])[H])C([H])([H])[H])C([H])([H])c2c([H])c(OC([H])([H])C([H])([H])C([H])([H])c3c([H])c(C([H])(C([H])([H])[H])[N+]([H])([H])C([H])([H])C([H])([H])C([H])([H])N([H])C(=O)N4C([H])([H])C([H])([H])C([H])([H])C([H])(n5nc(-c6c([H])c([H])c(Oc7c([H])c([H])c(F)c([H])c7F)c([H])c6[H])c(C(=O)N([H])[H])c5N([H])[H])C4([H])[H])c([H])c([H])c3N([H])[H])c([H])c([H])c2C1([H])[H]

$$$$
61:0:0
     RDKit          3D

101109  0  0  1  0  0  0  0  0999 V2000
  -31.1460  -21.2340   19.5680 C   0  0  0  0  0  3  0  0  0  0  0  0
  -31.0710  -22.5000   18.9460 C   0  0  0  0  0  3  0  0  0  0  0  0
  -33.5540  -21.4810   19.7250 C   0  0  0  0  0  3  0  0  0  0  0  0
  -32.3990  -20.7030   19.9580 C   0  0  0  0  0  0  0  0  0  0  0  0
  -32.2340  -23.2780   18.6960 C   0  0  0  0  0  0  0  0  0  0  0  0
  -33.4830  -22.7520   19.1240 C   0  0  0  0  0  0  0  0  0  0  0  0
  -32.5540  -19.3370   20.5790 C   0  0  0  0  0  0  0  0  0  0  0  0
  -31.4510  -18.6860   20.9690 N   0  0  0  0  0  0  0  0  0  0  0  0
  -33.6800  -18.8500   20.7230 O   0  0  0  0  0  0  0  0  0  0  0  0
  -30.5570  -19.1400   20.8440 H   0  0  0  0  0  0  0  0  0  0  0  0
  -31.4720  -17.3100   21.4600 C   0  0  0  0  0  2  0  0  0  0  0  0
  -30.0600  -16.6880   21.4310 C   0  0  0  0  0  2  0  0  0  0  0  0
  -30.6020  -14.3930   20.5040 C   0  0  0  0  0  0  0  0  0  0  0  0
  -30.2850  -12.3460   19.1770 C   0  0  0  0  0  2  0  0  0  0  0  0
  -29.3170  -12.6490   18.0180 C   0  0  0  0  0  2  0  0  0  0  0  0
  -27.8420  -12.5350   18.4590 C   0  0  0  0  0  2  0  0  0  0  0  0
  -27.5500  -13.2600   19.8010 C   0  0  0  0  0  3  0  0  0  0  0  0
  -28.6150  -12.8880   20.8550 C   0  0  0  0  0  2  0  0  0  0  0  0
  -29.9380  -13.2280   20.3030 N   0  0  0  0  0  0  0  0  0  0  0  0
  -31.6300  -14.6860   19.8890 O   0  0  0  0  0  0  0  0  0  0  0  0
  -29.9950  -15.2270   21.3640 N   0  0  0  0  0  0  0  0  0  0  0  0
  -29.2040  -14.8190   21.8430 H   0  0  0  0  0  0  0  0  0  0  0  0
  -25.1450  -13.8540   20.5050 C   0  0  0  0  0  0  0  0  0  0  0  0
  -24.0840  -13.0770   20.8770 C   0  0  0  0  0  0  0  0  0  0  0  0
  -24.5490  -11.7270   20.8400 C   0  0  0  0  0  0  0  0  0  0  0  0
  -26.1950  -12.9820   20.2740 N   0  0  0  0  0  0  0  0  0  0  0  0
  -25.8360  -11.6970   20.5220 N   0  0  0  0  0  0  0  0  0  0  0  0
  -23.8320  -10.4620   21.0330 C   0  0  0  0  0  0  0  0  0  0  0  0
  -24.2770   -9.4990   21.9660 C   0  0  0  0  0  3  0  0  0  0  0  0
  -23.5630   -8.2960   22.1490 C   0  0  0  0  0  3  0  0  0  0  0  0
  -22.3880   -8.0480   21.4000 C   0  0  0  0  0  0  0  0  0  0  0  0
  -21.9620   -9.0000   20.4580 C   0  0  0  0  0  3  0  0  0  0  0  0
  -22.6770  -10.1950   20.2720 C   0  0  0  0  0  3  0  0  0  0  0  0
  -21.6430   -6.8970   21.4930 O   0  0  0  0  0  0  0  0  0  0  0  0
  -21.6120   -6.1480   22.6410 C   0  0  0  0  0  0  0  0  0  0  0  0
  -21.1920   -6.6940   23.8740 C   0  0  0  0  0  3  0  0  0  0  0  0
  -21.1110   -5.8730   25.0170 C   0  0  0  0  0  3  0  0  0  0  0  0
  -21.4370   -4.5060   24.9250 C   0  0  0  0  0  0  0  0  0  0  0  0
  -21.8470   -3.9590   23.6960 C   0  0  0  0  0  3  0  0  0  0  0  0
  -21.9310   -4.7790   22.5560 C   0  0  0  0  0  0  0  0  0  0  0  0
  -22.3080   -4.2430   21.3700 F   0  0  0  0  0  0  0  0  0  0  0  0
  -21.3500   -3.7140   26.0190 F   0  0  0  0  0  0  0  0  0  0  0  0
  -22.6850  -13.5440   21.1610 C   0  0  0  0  0  0  0  0  0  0  0  0
  -21.9640  -12.8390   22.0230 N   0  0  0  0  0  0  0  0  0  0  0  0
  -22.2410  -14.5740   20.6520 O   0  0  0  0  0  0  0  0  0  0  0  0
  -22.3290  -11.9990   22.4490 H   0  0  0  0  0  0  0  0  0  0  0  0
  -21.0230  -13.1320   22.2500 H   0  0  0  0  0  0  0  0  0  0  0  0
  -25.2980  -15.2270   20.3290 N   0  0  0  0  0  0  0  0  0  0  0  0
  -24.5240  -15.8730   20.4370 H   0  0  0  0  0  0  0  0  0  0  0  0
  -26.1550  -15.6800   20.0350 H   0  0  0  0  0  0  0  0  0  0  0  0
  -34.6790  -23.4660   19.0000 N   0  0  0  0  0  0  0  0  0  0  0  0
  -35.5520  -22.9700   19.1410 H   0  0  0  0  0  0  0  0  0  0  0  0
  -34.7660  -24.1610   18.2640 H   0  0  0  0  0  0  0  0  0  0  0  0
  -32.8980  -24.6890   16.6370 C   0  0  0  0  0  1  0  0  0  0  0  0
  -32.1680  -24.6610   17.9980 C   0  0  0  0  0  3  0  0  0  0  0  0
  -30.8030  -25.2070   17.8110 N   0  0  0  0  0  4  0  0  0  0  0  0
  -30.8690  -25.9300   17.1100 H   0  0  0  0  0  0  0  0  0  0  0  0
  -30.1980  -24.4910   17.4420 H   0  0  0  0  0  0  0  0  0  0  0  0
  -30.2360  -25.8360   19.0210 C   0  0  0  0  0  2  0  0  0  0  0  0
  -28.7570  -26.1930   18.8850 C   0  0  0  0  0  2  0  0  0  0  0  0
  -28.4330  -26.8260   20.1160 O   0  0  0  0  0  0  0  0  0  0  0  0
  -24.5990  -31.8900   23.2450 C   0  0  0  0  0  0  0  0  0  0  0  0
  -27.2410  -27.4940   20.1490 C   0  0  0  0  0  0  0  0  0  0  0  0
  -23.3910  -30.4870   21.6010 C   0  0  0  0  0  3  0  0  0  0  0  0
  -24.8420  -28.9590   20.1780 C   0  0  0  0  0  0  0  0  0  0  0  0
  -25.9090  -30.8640   21.3950 C   0  0  0  0  0  2  0  0  0  0  0  0
  -25.9940  -29.4920   20.7670 C   0  0  0  0  0  0  0  0  0  0  0  0
  -27.1940  -28.7570   20.7660 C   0  0  0  0  0  3  0  0  0  0  0  0
  -26.0630  -26.9470   19.5870 C   0  0  0  0  0  3  0  0  0  0  0  0
  -24.8650  -27.6790   19.5980 C   0  0  0  0  0  3  0  0  0  0  0  0
  -23.5970  -29.8100   20.2210 C   0  0  0  0  0  2  0  0  0  0  0  0
  -24.6520  -31.0940   22.1410 N   0  0  0  0  0  0  0  0  0  0  0  0
  -23.5180  -32.1570   23.7870 O   0  0  0  0  0  0  0  0  0  0  0  0
  -22.7430  -29.4600   22.5580 C   0  0  0  0  0  0  0  0  0  0  0  0
  -21.4180  -29.2750   22.4350 N   0  0  0  0  0  0  0  0  0  0  0  0
  -23.4310  -28.8280   23.3670 O   0  0  0  0  0  0  0  0  0  0  0  0
  -20.9160  -29.8370   21.7580 H   0  0  0  0  0  0  0  0  0  0  0  0
  -18.0490  -28.0910   22.9530 C   0  0  0  0  0  0  0  0  0  0  0  0
  -20.6090  -28.3350   23.2080 C   0  0  0  0  0  3  0  0  0  0  0  0
  -20.7010  -26.9070   22.6220 C   0  0  0  0  0  2  0  0  0  0  0  0
  -19.5920  -26.5970   21.6130 C   0  0  0  0  0  2  0  0  0  0  0  0
  -18.2150  -26.7450   22.2680 C   0  0  0  0  0  2  0  0  0  0  0  0
  -19.1750  -28.8430   23.3800 C   0  0  0  0  0  0  0  0  0  0  0  0
  -18.9690  -30.1060   23.9760 C   0  0  0  0  0  3  0  0  0  0  0  0
  -17.6690  -30.6160   24.1510 C   0  0  0  0  0  3  0  0  0  0  0  0
  -16.5560  -29.8590   23.7460 C   0  0  0  0  0  3  0  0  0  0  0  0
  -16.7480  -28.6000   23.1510 C   0  0  0  0  0  3  0  0  0  0  0  0
  -25.8840  -32.5250   23.8600 C   0  0  0  0  0  3  0  0  0  0  0  0
  -25.5740  -33.9220   24.1830 N   0  0  0  0  0  0  0  0  0  0  0  0
  -25.9090  -34.9720   23.4230 C   0  0  0  0  0  0  0  0  0  0  0  0
  -26.5850  -34.8700   22.3960 O   0  0  0  0  0  0  0  0  0  0  0  0
  -24.9740  -34.0850   24.9770 H   0  0  0  0  0  0  0  0  0  0  0  0
  -24.1820  -36.7580   23.0450 C   0  0  0  0  0  1  0  0  0  0  0  0
  -25.4130  -36.3600   23.8730 C   0  0  0  0  0  3  0  0  0  0  0  0
  -27.5330  -37.2430   24.7330 C   0  0  0  0  0  1  0  0  0  0  0  0
  -26.4450  -37.4160   23.7750 N   0  0  0  0  0  0  0  0  0  0  0  0
  -26.0360  -38.3340   23.9290 H   0  0  0  0  0  0  0  0  0  0  0  0
  -26.4090  -31.7560   25.1350 C   0  0  1  0  0  0  0  0  0  0  0  0
  -25.3180  -31.4920   26.1970 C   0  0  0  0  0  1  0  0  0  0  0  0
  -27.0110  -30.3890   24.7360 C   0  0  0  0  0  1  0  0  0  0  0  0
  -27.5500  -32.5550   25.8100 C   0  0  0  0  0  1  0  0  0  0  0  0
  1  4  1  0
  2  1  2  0
  3  4  2  0
  4  7  1  0
  5  2  1  0
  5  6  2  0
  6  3  1  0
  7  9  2  0
  7  8  1  0
  8 11  1  0
 10  8  1  0
 12 11  1  0
 13 21  1  0
 14 19  1  0
 15 16  1  0
 15 14  1  0
 17 16  1  0
 17 26  1  0
 17 18  1  0
 19 13  1  0
 19 18  1  0
 20 13  2  0
 21 12  1  0
 21 22  1  0
 23 24  2  0
 24 43  1  0
 25 24  1  0
 25 28  1  0
 26 23  1  0
 26 27  1  0
 27 25  2  0
 28 29  1  0
 29 30  2  0
 31 34  1  0
 31 30  1  0
 32 31  2  0
 33 32  1  0
 33 28  2  0
 34 35  1  0
 35 36  1  0
 36 37  2  0
 38 37  1  0
 38 42  1  0
 39 38  2  0
 40 35  2  0
 40 39  1  0
 41 40  1  0
 43 44  1  0
 44 47  1  0
 44 46  1  0
 45 43  2  0
 48 49  1  0
 48 23  1  0
 50 48  1  0
 51  6  1  0
 51 52  1  0
 53 51  1  0
 55 54  1  0
 55  5  1  0
 56 55  1  0
 56 59  1  0
 57 56  1  0
 58 56  1  0
 60 59  1  0
 60 61  1  0
 61 63  1  0
 62 73  2  0
 63 68  1  0
 64 72  1  0
 64 74  1  0
 65 71  1  0
 65 67  1  0
 66 72  1  0
 67 66  1  0
 68 67  2  0
 69 70  1  0
 69 63  2  0
 70 65  2  0
 71 64  1  0
 72 62  1  0
 74 76  2  0
 75 74  1  0
 77 75  1  0
 78 87  2  0
 78 83  1  0
 79 75  1  0
 79 83  1  0
 80 79  1  0
 81 82  1  0
 81 80  1  0
 82 78  1  0
 83 84  2  0
 84 85  1  0
 86 85  2  0
 87 86  1  0
 88 62  1  0
 88 89  1  0
 88 98  1  0
 89 92  1  0
 90 94  1  0
 90 89  1  0
 91 90  2  0
 94 93  1  0
 96 94  1  0
 96 97  1  0
 96 95  1  0
 98101  1  1
 98 99  1  0
100 98  1  0
M  ISO  4  13 100  21 100  60 101  61 101
M  END
>  <TORSDO>  (59) 
F 24

>  <SCORE>  (59) 
-12.722

>  <name>  (59) 
61

>  <ligand_id>  (59) 
61

>  <original_smiles>  (59) 
[H]c1c([H])c([H])c2c(c1[H])C([H])([H])C([H])([H])C([H])([H])C2([H])N([H])C(=O)C1([H])N(C(=O)C([H])(N([H])C(=O)C([H])(N([H])C([H])([H])[H])C([H])([H])[H])C(C([H])([H])[H])(C([H])([H])[H])C([H])([H])[H])C([H])([H])c2c([H])c(OC([H])([H])C([H])([H])[N+]([H])([H])C([H])(c3c([H])c([H])c(C(=O)N([H])C([H])([H])C([H])([H])N([H])C(=O)N4C([H])([H])C([H])([H])C([H])([H])C([H])(n5nc(-c6c([H])c([H])c(Oc7c([H])c([H])c(F)c([H])c7F)c([H])c6[H])c(C(=O)N([H])[H])c5N([H])[H])C4([H])[H])c([H])c3N([H])[H])C([H])([H])[H])c([H])c([H])c2C1([H])[H]

>  <smiles>  (59) 
[H]c1c([H])c([H])c2c(c1[H])C([H])([H])C([H])([H])C([H])([H])C2([H])N([H])C(=O)C1([H])N(C(=O)C([H])(N([H])C(=O)C([H])(N([H])C([H])([H])[H])C([H])([H])[H])C(C([H])([H])[H])(C([H])([H])[H])C([H])([H])[H])C([H])([H])c2c([H])c(OC([H])([H])C([H])([H])[N+]([H])([H])C([H])(c3c([H])c([H])c(C(=O)N([H])C([H])([H])C([H])([H])N([H])C(=O)N4C([H])([H])C([H])([H])C([H])([H])C([H])(n5nc(-c6c([H])c([H])c(Oc7c([H])c([H])c(F)c([H])c7F)c([H])c6[H])c(C(=O)N([H])[H])c5N([H])[H])C4([H])[H])c([H])c3N([H])[H])C([H])([H])[H])c([H])c([H])c2C1([H])[H]

$$$$
62:0:0
     RDKit          3D

102110  0  0  1  0  0  0  0  0999 V2000
  -33.4500  -24.9480   24.4670 C   0  0  0  0  0  3  0  0  0  0  0  0
  -32.8110  -23.6950   24.4150 C   0  0  0  0  0  3  0  0  0  0  0  0
  -31.3500  -26.0360   23.8820 C   0  0  0  0  0  3  0  0  0  0  0  0
  -32.7350  -26.1180   24.1470 C   0  0  0  0  0  0  0  0  0  0  0  0
  -31.4510  -23.5970   24.0470 C   0  0  0  0  0  0  0  0  0  0  0  0
  -30.7040  -24.7810   23.8220 C   0  0  0  0  0  0  0  0  0  0  0  0
  -29.2250  -24.7420   23.4700 C   0  0  0  0  0  1  0  0  0  0  0  0
  -33.4870  -27.4000   23.9680 C   0  0  0  0  0  0  0  0  0  0  0  0
  -34.0850  -27.4790   22.7750 N   0  0  0  0  0  0  0  0  0  0  0  0
  -33.6880  -28.1810   24.9010 O   0  0  0  0  0  0  0  0  0  0  0  0
  -33.7780  -26.7880   22.1050 H   0  0  0  0  0  0  0  0  0  0  0  0
  -35.4000  -28.0640   22.5290 C   0  0  0  0  0  2  0  0  0  0  0  0
  -36.4890  -27.1050   23.0600 C   0  0  0  0  0  2  0  0  0  0  0  0
  -37.7410  -26.9980   22.1750 C   0  0  0  0  0  2  0  0  0  0  0  0
  -38.5340  -28.1650   22.3350 O   0  0  0  0  0  0  0  0  0  0  0  0
  -38.8380  -35.1890   23.2410 C   0  0  0  0  0  0  0  0  0  0  0  0
  -37.9210  -29.3730   22.1150 C   0  0  0  0  0  0  0  0  0  0  0  0
  -36.7500  -34.3400   22.2160 C   0  0  0  0  0  3  0  0  0  0  0  0
  -36.7810  -31.8840   21.5220 C   0  0  0  0  0  0  0  0  0  0  0  0
  -38.9450  -33.0690   21.9460 C   0  0  0  0  0  2  0  0  0  0  0  0
  -38.1300  -31.7950   21.8840 C   0  0  0  0  0  0  0  0  0  0  0  0
  -38.7050  -30.5430   22.1740 C   0  0  0  0  0  3  0  0  0  0  0  0
  -36.5590  -29.4710   21.7630 C   0  0  0  0  0  3  0  0  0  0  0  0
  -35.9850  -30.7250   21.4650 C   0  0  0  0  0  3  0  0  0  0  0  0
  -36.2510  -33.2650   21.2100 C   0  0  0  0  0  2  0  0  0  0  0  0
  -38.2130  -34.2170   22.5200 N   0  0  0  0  0  0  0  0  0  0  0  0
  -38.2310  -36.2040   23.6110 O   0  0  0  0  0  0  0  0  0  0  0  0
  -35.8590  -34.2790   23.4780 C   0  0  0  0  0  0  0  0  0  0  0  0
  -34.6490  -34.8540   23.3790 N   0  0  0  0  0  0  0  0  0  0  0  0
  -36.2450  -33.6980   24.4940 O   0  0  0  0  0  0  0  0  0  0  0  0
  -34.4170  -35.3140   22.5110 H   0  0  0  0  0  0  0  0  0  0  0  0
  -31.7000  -36.6060   24.5020 C   0  0  0  0  0  0  0  0  0  0  0  0
  -33.6210  -34.8820   24.4170 C   0  0  0  0  0  3  0  0  0  0  0  0
  -32.5240  -33.8270   24.1390 C   0  0  0  0  0  2  0  0  0  0  0  0
  -31.3340  -34.3840   23.3490 C   0  0  0  0  0  2  0  0  0  0  0  0
  -30.6840  -35.5450   24.1060 C   0  0  0  0  0  2  0  0  0  0  0  0
  -33.0790  -36.2970   24.6300 C   0  0  0  0  0  0  0  0  0  0  0  0
  -33.9840  -37.3280   24.9650 C   0  0  0  0  0  3  0  0  0  0  0  0
  -33.5310  -38.6440   25.1710 C   0  0  0  0  0  3  0  0  0  0  0  0
  -32.1610  -38.9410   25.0580 C   0  0  0  0  0  3  0  0  0  0  0  0
  -31.2480  -37.9220   24.7270 C   0  0  0  0  0  3  0  0  0  0  0  0
  -40.3530  -35.0870   23.6150 C   0  0  0  0  0  3  0  0  0  0  0  0
  -40.9980  -36.3370   23.1960 N   0  0  0  0  0  0  0  0  0  0  0  0
  -41.6770  -36.4970   22.0520 C   0  0  0  0  0  0  0  0  0  0  0  0
  -41.8900  -35.5730   21.2610 O   0  0  0  0  0  0  0  0  0  0  0  0
  -40.8100  -37.1540   23.7590 H   0  0  0  0  0  0  0  0  0  0  0  0
  -41.2830  -38.5780   20.7030 C   0  0  0  0  0  1  0  0  0  0  0  0
  -42.2030  -37.9090   21.7340 C   0  0  0  0  0  3  0  0  0  0  0  0
  -44.5720  -37.5260   22.2520 C   0  0  0  0  0  1  0  0  0  0  0  0
  -43.5960  -37.9190   21.2400 N   0  0  0  0  0  0  0  0  0  0  0  0
  -43.8510  -38.8420   20.8980 H   0  0  0  0  0  0  0  0  0  0  0  0
  -40.5980  -34.8170   25.1490 C   0  0  1  0  0  0  0  0  0  0  0  0
  -39.8600  -35.8100   26.0780 C   0  0  0  0  0  1  0  0  0  0  0  0
  -40.1460  -33.3850   25.5240 C   0  0  0  0  0  1  0  0  0  0  0  0
  -42.1090  -34.9170   25.4650 C   0  0  0  0  0  1  0  0  0  0  0  0
  -30.8650  -22.2080   23.8010 C   0  0  0  0  0  2  0  0  0  0  0  0
  -31.3580  -21.7360   22.4910 N   0  0  0  0  0  4  0  0  0  0  0  0
  -32.0190  -20.9940   22.6590 H   0  0  0  0  0  0  0  0  0  0  0  0
  -31.8740  -22.5000   22.0880 H   0  0  0  0  0  0  0  0  0  0  0  0
  -30.3630  -21.2790   21.4960 C   0  0  0  0  0  2  0  0  0  0  0  0
  -29.7470  -22.4840   20.7300 C   0  0  0  0  0  2  0  0  0  0  0  0
  -29.9310  -22.4110   19.2030 C   0  0  0  0  0  2  0  0  0  0  0  0
  -28.9870  -23.3260   18.3850 C   0  0  0  0  0  2  0  0  0  0  0  0
  -29.6880  -23.8520   17.1160 C   0  0  0  0  0  2  0  0  0  0  0  0
  -28.9020  -25.5830   15.5130 C   0  0  0  0  0  0  0  0  0  0  0  0
  -28.8070  -26.7280   13.3350 C   0  0  0  0  0  2  0  0  0  0  0  0
  -27.7650  -27.8570   13.2720 C   0  0  0  0  0  2  0  0  0  0  0  0
  -26.4010  -27.2950   12.8490 C   0  0  0  0  0  2  0  0  0  0  0  0
  -25.9770  -26.0770   13.7090 C   0  0  0  0  0  3  0  0  0  0  0  0
  -27.1140  -25.0320   13.8210 C   0  0  0  0  0  2  0  0  0  0  0  0
  -28.3470  -25.6990   14.2810 N   0  0  0  0  0  0  0  0  0  0  0  0
  -29.6570  -26.4360   15.9920 O   0  0  0  0  0  0  0  0  0  0  0  0
  -28.7750  -24.3770   16.0890 N   0  0  0  0  0  0  0  0  0  0  0  0
  -28.1980  -23.7100   15.5950 H   0  0  0  0  0  0  0  0  0  0  0  0
  -23.6100  -25.0820   13.8980 C   0  0  0  0  0  0  0  0  0  0  0  0
  -22.7150  -24.6570   12.9510 C   0  0  0  0  0  0  0  0  0  0  0  0
  -23.3620  -24.8320   11.6910 C   0  0  0  0  0  0  0  0  0  0  0  0
  -24.7400  -25.4810   13.2030 N   0  0  0  0  0  0  0  0  0  0  0  0
  -24.6020  -25.2750   11.8680 N   0  0  0  0  0  0  0  0  0  0  0  0
  -22.8570  -24.6530   10.3240 C   0  0  0  0  0  0  0  0  0  0  0  0
  -23.5910  -23.9360    9.3520 C   0  0  0  0  0  3  0  0  0  0  0  0
  -23.0750  -23.7630    8.0490 C   0  0  0  0  0  3  0  0  0  0  0  0
  -21.8130  -24.3030    7.7090 C   0  0  0  0  0  0  0  0  0  0  0  0
  -21.0970  -25.0350    8.6710 C   0  0  0  0  0  3  0  0  0  0  0  0
  -21.6130  -25.2120    9.9660 C   0  0  0  0  0  3  0  0  0  0  0  0
  -21.2450  -24.2060    6.4610 O   0  0  0  0  0  0  0  0  0  0  0  0
  -21.5510  -23.1770    5.6070 C   0  0  0  0  0  0  0  0  0  0  0  0
  -21.4080  -21.8260    5.9880 C   0  0  0  0  0  3  0  0  0  0  0  0
  -21.6670  -20.8010    5.0570 C   0  0  0  0  0  3  0  0  0  0  0  0
  -22.0600  -21.1210    3.7450 C   0  0  0  0  0  0  0  0  0  0  0  0
  -22.1980  -22.4670    3.3620 C   0  0  0  0  0  3  0  0  0  0  0  0
  -21.9420  -23.4910    4.2910 C   0  0  0  0  0  0  0  0  0  0  0  0
  -22.0540  -24.7860    3.9090 F   0  0  0  0  0  0  0  0  0  0  0  0
  -22.3020  -20.1370    2.8490 F   0  0  0  0  0  0  0  0  0  0  0  0
  -21.3030  -24.2040   13.1930 C   0  0  0  0  0  0  0  0  0  0  0  0
  -20.8350  -23.2260   12.4260 N   0  0  0  0  0  0  0  0  0  0  0  0
  -20.6210  -24.6850   14.0970 O   0  0  0  0  0  0  0  0  0  0  0  0
  -21.4010  -22.8170   11.6970 H   0  0  0  0  0  0  0  0  0  0  0  0
  -19.8960  -22.8790   12.5700 H   0  0  0  0  0  0  0  0  0  0  0  0
  -23.5480  -25.1790   15.2850 N   0  0  0  0  0  0  0  0  0  0  0  0
  -22.7120  -24.9450   15.8130 H   0  0  0  0  0  0  0  0  0  0  0  0
  -24.2930  -25.5420   15.8680 H   0  0  0  0  0  0  0  0  0  0  0  0
  2  1  1  0
  3  4  1  0
  4  1  2  0
  5  2  2  0
  6  3  2  0
  6  5  1  0
  7  6  1  0
  8  4  1  0
  8 10  2  0
  9  8  1  0
 11  9  1  0
 12  9  1  0
 12 13  1  0
 14 15  1  0
 14 13  1  0
 16 27  2  0
 17 22  1  0
 17 15  1  0
 18 26  1  0
 18 28  1  0
 19 21  1  0
 20 26  1  0
 21 20  1  0
 21 22  2  0
 23 17  2  0
 24 19  2  0
 24 23  1  0
 25 19  1  0
 25 18  1  0
 26 16  1  0
 28 30  2  0
 29 28  1  0
 31 29  1  0
 32 37  2  0
 32 41  1  0
 33 29  1  0
 33 37  1  0
 34 33  1  0
 35 36  1  0
 35 34  1  0
 36 32  1  0
 37 38  1  0
 38 39  2  0
 40 39  1  0
 41 40  2  0
 42 16  1  0
 42 52  1  0
 43 42  1  0
 43 46  1  0
 44 43  1  0
 45 44  2  0
 48 47  1  0
 48 44  1  0
 50 48  1  0
 50 49  1  0
 51 50  1  0
 52 55  1  6
 52 54  1  0
 52 53  1  0
 56  5  1  0
 57 58  1  0
 57 56  1  0
 59 57  1  0
 60 57  1  0
 61 60  1  0
 62 61  1  0
 63 62  1  0
 64 63  1  0
 65 72  2  0
 65 73  1  0
 66 71  1  0
 67 66  1  0
 68 67  1  0
 69 68  1  0
 69 70  1  0
 70 71  1  0
 71 65  1  0
 73 64  1  0
 74 73  1  0
 75100  1  0
 76 95  1  0
 76 75  2  0
 77 79  2  0
 77 76  1  0
 78 69  1  0
 78 75  1  0
 79 78  1  0
 80 77  1  0
 81 80  2  0
 82 81  1  0
 83 82  2  0
 83 84  1  0
 84 85  2  0
 85 80  1  0
 86 83  1  0
 87 88  1  0
 87 86  1  0
 89 88  2  0
 90 89  1  0
 91 90  2  0
 91 92  1  0
 92 87  2  0
 93 92  1  0
 94 90  1  0
 95 97  2  0
 96 99  1  0
 96 95  1  0
 98 96  1  0
100101  1  0
100102  1  0
M  ISO  4  14 101  15 101  65 100  73 100
M  END
>  <TORSDO>  (60) 
F 27

>  <SCORE>  (60) 
38.231

>  <name>  (60) 
62

>  <ligand_id>  (60) 
62

>  <original_smiles>  (60) 
[H]c1c([H])c([H])c2c(c1[H])C([H])([H])C([H])([H])C([H])([H])C2([H])N([H])C(=O)C1([H])N(C(=O)C([H])(N([H])C(=O)C([H])(N([H])C([H])([H])[H])C([H])([H])[H])C(C([H])([H])[H])(C([H])([H])[H])C([H])([H])[H])C([H])([H])c2c([H])c(OC([H])([H])C([H])([H])C([H])([H])N([H])C(=O)c3c([H])c([H])c(C([H])([H])[N+]([H])([H])C([H])([H])C([H])([H])C([H])([H])C([H])([H])C([H])([H])N([H])C(=O)N4C([H])([H])C([H])([H])C([H])([H])C([H])(n5nc(-c6c([H])c([H])c(Oc7c([H])c([H])c(F)c([H])c7F)c([H])c6[H])c(C(=O)N([H])[H])c5N([H])[H])C4([H])[H])c(C([H])([H])[H])c3[H])c([H])c([H])c2C1([H])[H]

>  <smiles>  (60) 
[H]c1c([H])c([H])c2c(c1[H])C([H])([H])C([H])([H])C([H])([H])C2([H])N([H])C(=O)C1([H])N(C(=O)C([H])(N([H])C(=O)C([H])(N([H])C([H])([H])[H])C([H])([H])[H])C(C([H])([H])[H])(C([H])([H])[H])C([H])([H])[H])C([H])([H])c2c([H])c(OC([H])([H])C([H])([H])C([H])([H])N([H])C(=O)c3c([H])c([H])c(C([H])([H])[N+]([H])([H])C([H])([H])C([H])([H])C([H])([H])C([H])([H])C([H])([H])N([H])C(=O)N4C([H])([H])C([H])([H])C([H])([H])C([H])(n5nc(-c6c([H])c([H])c(Oc7c([H])c([H])c(F)c([H])c7F)c([H])c6[H])c(C(=O)N([H])[H])c5N([H])[H])C4([H])[H])c(C([H])([H])[H])c3[H])c([H])c([H])c2C1([H])[H]

$$$$
63:0:0
     RDKit          3D

 99107  0  0  1  0  0  0  0  0999 V2000
  -31.4840  -23.4730   21.3830 C   0  0  0  0  0  3  0  0  0  0  0  0
  -29.7730  -24.5660   22.7240 C   0  0  0  0  0  3  0  0  0  0  0  0
  -31.7540  -24.6910   20.7270 C   0  0  0  0  0  3  0  0  0  0  0  0
  -30.0440  -25.7840   22.0690 C   0  0  0  0  0  3  0  0  0  0  0  0
  -30.4730  -23.3930   22.3670 C   0  0  0  0  0  0  0  0  0  0  0  0
  -31.0110  -25.8490   21.0440 C   0  0  0  0  0  0  0  0  0  0  0  0
  -30.1520  -22.0840   23.0360 C   0  0  0  0  0  0  0  0  0  0  0  0
  -30.0970  -21.0370   22.2090 N   0  0  0  0  0  0  0  0  0  0  0  0
  -29.8970  -22.0180   24.2410 O   0  0  0  0  0  0  0  0  0  0  0  0
  -30.2830  -21.2390   21.2370 H   0  0  0  0  0  0  0  0  0  0  0  0
  -29.7340  -19.6650   22.5360 C   0  0  0  0  0  2  0  0  0  0  0  0
  -30.7220  -18.7040   21.8560 C   0  0  0  0  0  2  0  0  0  0  0  0
  -30.2260  -17.2560   21.7930 C   0  0  0  0  0  2  0  0  0  0  0  0
  -31.3330  -16.3040   21.3140 C   0  0  0  0  0  2  0  0  0  0  0  0
  -31.1010  -14.1850   20.0360 C   0  0  0  0  0  0  0  0  0  0  0  0
  -30.6680  -12.0250   18.9390 C   0  0  0  0  0  2  0  0  0  0  0  0
  -29.6920  -12.1810   17.7590 C   0  0  0  0  0  2  0  0  0  0  0  0
  -28.2400  -12.0680   18.2530 C   0  0  0  0  0  2  0  0  0  0  0  0
  -27.9480  -12.9980   19.4580 C   0  0  0  0  0  3  0  0  0  0  0  0
  -29.0310  -12.8480   20.5500 C   0  0  0  0  0  2  0  0  0  0  0  0
  -30.3600  -13.0550   19.9390 N   0  0  0  0  0  0  0  0  0  0  0  0
  -32.0320  -14.4570   19.2700 O   0  0  0  0  0  0  0  0  0  0  0  0
  -30.7980  -14.9670   21.0770 N   0  0  0  0  0  0  0  0  0  0  0  0
  -30.1000  -14.6170   21.7170 H   0  0  0  0  0  0  0  0  0  0  0  0
  -25.5880  -13.6790   20.2360 C   0  0  0  0  0  0  0  0  0  0  0  0
  -24.5190  -12.9410   20.6690 C   0  0  0  0  0  0  0  0  0  0  0  0
  -24.9500  -11.5790   20.6570 C   0  0  0  0  0  0  0  0  0  0  0  0
  -26.6060  -12.7700   19.9920 N   0  0  0  0  0  0  0  0  0  0  0  0
  -26.2260  -11.5020   20.2990 N   0  0  0  0  0  0  0  0  0  0  0  0
  -24.2070  -10.3380   20.9160 C   0  0  0  0  0  0  0  0  0  0  0  0
  -24.6130   -9.4310   21.9200 C   0  0  0  0  0  3  0  0  0  0  0  0
  -23.8730   -8.2530   22.1640 C   0  0  0  0  0  3  0  0  0  0  0  0
  -22.7130   -7.9750   21.4030 C   0  0  0  0  0  0  0  0  0  0  0  0
  -22.3260   -8.8680   20.3900 C   0  0  0  0  0  3  0  0  0  0  0  0
  -23.0660  -10.0370   20.1450 C   0  0  0  0  0  3  0  0  0  0  0  0
  -21.9500   -6.8410   21.5500 O   0  0  0  0  0  0  0  0  0  0  0  0
  -21.8180   -6.2160   22.7630 C   0  0  0  0  0  0  0  0  0  0  0  0
  -21.3010   -6.8850   23.8930 C   0  0  0  0  0  3  0  0  0  0  0  0
  -21.1180   -6.1850   25.1030 C   0  0  0  0  0  3  0  0  0  0  0  0
  -21.4380   -4.8160   25.1820 C   0  0  0  0  0  0  0  0  0  0  0  0
  -21.9470   -4.1470   24.0540 C   0  0  0  0  0  3  0  0  0  0  0  0
  -22.1330   -4.8440   22.8480 C   0  0  0  0  0  0  0  0  0  0  0  0
  -22.6050   -4.1900   21.7590 F   0  0  0  0  0  0  0  0  0  0  0  0
  -21.2540   -4.1400   26.3390 F   0  0  0  0  0  0  0  0  0  0  0  0
  -23.1440  -13.4530   20.9860 C   0  0  0  0  0  0  0  0  0  0  0  0
  -22.4500  -12.8070   21.9160 N   0  0  0  0  0  0  0  0  0  0  0  0
  -22.6960  -14.4640   20.4440 O   0  0  0  0  0  0  0  0  0  0  0  0
  -22.8280  -11.9870   22.3700 H   0  0  0  0  0  0  0  0  0  0  0  0
  -21.5300  -13.1310   22.1790 H   0  0  0  0  0  0  0  0  0  0  0  0
  -25.7760  -15.0400   20.0160 N   0  0  0  0  0  0  0  0  0  0  0  0
  -25.0330  -15.7180   20.1420 H   0  0  0  0  0  0  0  0  0  0  0  0
  -26.6360  -15.4500   19.6720 H   0  0  0  0  0  0  0  0  0  0  0  0
  -31.2530  -27.1640   20.3070 C   0  0  0  0  0  2  0  0  0  0  0  0
  -31.1610  -27.0400   18.8320 N   0  0  0  0  0  4  0  0  0  0  0  0
  -31.4910  -26.1330   18.5470 H   0  0  0  0  0  0  0  0  0  0  0  0
  -31.8240  -27.7080   18.4710 H   0  0  0  0  0  0  0  0  0  0  0  0
  -29.8560  -27.3540   18.1880 C   0  0  0  0  0  2  0  0  0  0  0  0
  -28.7280  -26.3470   18.4890 C   0  0  0  0  0  2  0  0  0  0  0  0
  -28.1900  -26.6360   19.7750 O   0  0  0  0  0  0  0  0  0  0  0  0
  -24.5250  -31.7030   23.1340 C   0  0  0  0  0  0  0  0  0  0  0  0
  -27.0230  -27.3570   19.8230 C   0  0  0  0  0  0  0  0  0  0  0  0
  -23.2530  -30.3870   21.4680 C   0  0  0  0  0  3  0  0  0  0  0  0
  -24.6460  -28.8670   19.9620 C   0  0  0  0  0  0  0  0  0  0  0  0
  -25.7770  -30.7020   21.2310 C   0  0  0  0  0  2  0  0  0  0  0  0
  -25.8200  -29.3510   20.5500 C   0  0  0  0  0  0  0  0  0  0  0  0
  -27.0060  -28.5930   20.4980 C   0  0  0  0  0  3  0  0  0  0  0  0
  -25.8320  -26.8650   19.2470 C   0  0  0  0  0  3  0  0  0  0  0  0
  -24.6420  -27.6180   19.3170 C   0  0  0  0  0  3  0  0  0  0  0  0
  -23.4180  -29.7450   20.0630 C   0  0  0  0  0  2  0  0  0  0  0  0
  -24.5380  -30.9430   22.0030 N   0  0  0  0  0  0  0  0  0  0  0  0
  -23.4610  -31.9810   23.7050 O   0  0  0  0  0  0  0  0  0  0  0  0
  -22.5990  -29.3480   22.4050 C   0  0  0  0  0  0  0  0  0  0  0  0
  -21.2770  -29.1620   22.2560 N   0  0  0  0  0  0  0  0  0  0  0  0
  -23.2790  -28.7140   23.2170 O   0  0  0  0  0  0  0  0  0  0  0  0
  -20.7940  -29.7300   21.5750 H   0  0  0  0  0  0  0  0  0  0  0  0
  -17.9150  -27.9020   22.6440 C   0  0  0  0  0  0  0  0  0  0  0  0
  -20.4570  -28.2040   22.9970 C   0  0  0  0  0  3  0  0  0  0  0  0
  -20.6040  -26.7770   22.4200 C   0  0  0  0  0  2  0  0  0  0  0  0
  -19.5410  -26.4360   21.3730 C   0  0  0  0  0  2  0  0  0  0  0  0
  -18.1370  -26.5560   21.9730 C   0  0  0  0  0  2  0  0  0  0  0  0
  -19.0060  -28.6840   23.1100 C   0  0  0  0  0  0  0  0  0  0  0  0
  -18.7460  -29.9440   23.6910 C   0  0  0  0  0  3  0  0  0  0  0  0
  -17.4290  -30.4210   23.8160 C   0  0  0  0  0  3  0  0  0  0  0  0
  -16.3530  -29.6360   23.3680 C   0  0  0  0  0  3  0  0  0  0  0  0
  -16.5950  -28.3780   22.7870 C   0  0  0  0  0  3  0  0  0  0  0  0
  -25.8380  -32.2770   23.7500 C   0  0  0  0  0  3  0  0  0  0  0  0
  -26.3410  -31.4690   25.0080 C   0  0  1  0  0  0  0  0  0  0  0  0
  -25.2490  -31.2480   26.0810 C   0  0  0  0  0  1  0  0  0  0  0  0
  -26.8780  -30.0810   24.5870 C   0  0  0  0  0  1  0  0  0  0  0  0
  -27.5190  -32.2160   25.6760 C   0  0  0  0  0  1  0  0  0  0  0  0
  -25.5830  -33.6800   24.0990 N   0  0  0  0  0  0  0  0  0  0  0  0
  -25.9660  -34.7300   23.3590 C   0  0  0  0  0  0  0  0  0  0  0  0
  -26.6440  -34.6160   22.3350 O   0  0  0  0  0  0  0  0  0  0  0  0
  -24.9900  -33.8480   24.8990 H   0  0  0  0  0  0  0  0  0  0  0  0
  -24.3250  -36.6000   22.9950 C   0  0  0  0  0  1  0  0  0  0  0  0
  -25.5250  -36.1280   23.8320 C   0  0  0  0  0  3  0  0  0  0  0  0
  -27.6720  -36.9040   24.7350 C   0  0  0  0  0  1  0  0  0  0  0  0
  -26.6040  -37.1380   23.7670 N   0  0  0  0  0  0  0  0  0  0  0  0
  -26.2330  -38.0700   23.9240 H   0  0  0  0  0  0  0  0  0  0  0  0
  1  5  1  0
  3  6  1  0
  3  1  2  0
  4  2  1  0
  5  2  2  0
  5  7  1  0
  6  4  2  0
  7  9  2  0
  8 11  1  0
  8  7  1  0
 10  8  1  0
 12 11  1  0
 13 12  1  0
 14 13  1  0
 15 23  1  0
 16 21  1  0
 17 18  1  0
 17 16  1  0
 19 18  1  0
 19 28  1  0
 19 20  1  0
 21 15  1  0
 21 20  1  0
 22 15  2  0
 23 14  1  0
 23 24  1  0
 25 26  2  0
 26 45  1  0
 27 26  1  0
 27 30  1  0
 28 25  1  0
 28 29  1  0
 29 27  2  0
 30 31  1  0
 31 32  2  0
 33 36  1  0
 33 32  1  0
 34 33  2  0
 35 34  1  0
 35 30  2  0
 36 37  1  0
 37 42  2  0
 37 38  1  0
 38 39  2  0
 39 40  1  0
 40 44  1  0
 41 40  2  0
 42 41  1  0
 43 42  1  0
 45 46  1  0
 46 49  1  0
 46 48  1  0
 47 45  2  0
 50 51  1  0
 50 25  1  0
 52 50  1  0
 53  6  1  0
 54 53  1  0
 55 54  1  0
 56 54  1  0
 57 58  1  0
 57 54  1  0
 58 59  1  0
 59 61  1  0
 60 71  2  0
 61 66  1  0
 62 70  1  0
 62 72  1  0
 63 69  1  0
 63 65  1  0
 64 70  1  0
 65 64  1  0
 66 65  2  0
 67 68  1  0
 67 61  2  0
 68 63  2  0
 69 62  1  0
 70 60  1  0
 72 74  2  0
 73 72  1  0
 75 73  1  0
 76 85  2  0
 76 81  1  0
 77 73  1  0
 77 81  1  0
 78 77  1  0
 79 80  1  0
 79 78  1  0
 80 76  1  0
 81 82  2  0
 82 83  1  0
 84 83  2  0
 85 84  1  0
 86 60  1  0
 86 91  1  0
 86 87  1  0
 87 90  1  1
 87 88  1  0
 89 87  1  0
 91 94  1  0
 92 96  1  0
 92 91  1  0
 93 92  2  0
 96 95  1  0
 98 96  1  0
 98 99  1  0
 98 97  1  0
M  ISO  4  15 100  23 100  58 101  59 101
M  END
>  <TORSDO>  (61) 
F 25

>  <SCORE>  (61) 
-10.370

>  <name>  (61) 
63

>  <ligand_id>  (61) 
63

>  <original_smiles>  (61) 
[H]c1c([H])c([H])c2c(c1[H])C([H])([H])C([H])([H])C([H])([H])C2([H])N([H])C(=O)C1([H])N(C(=O)C([H])(N([H])C(=O)C([H])(N([H])C([H])([H])[H])C([H])([H])[H])C(C([H])([H])[H])(C([H])([H])[H])C([H])([H])[H])C([H])([H])c2c([H])c(OC([H])([H])C([H])([H])[N+]([H])([H])C([H])([H])c3c([H])c([H])c(C(=O)N([H])C([H])([H])C([H])([H])C([H])([H])C([H])([H])N([H])C(=O)N4C([H])([H])C([H])([H])C([H])([H])C([H])(n5nc(-c6c([H])c([H])c(Oc7c([H])c([H])c(F)c([H])c7F)c([H])c6[H])c(C(=O)N([H])[H])c5N([H])[H])C4([H])[H])c([H])c3[H])c([H])c([H])c2C1([H])[H]

>  <smiles>  (61) 
[H]c1c([H])c([H])c2c(c1[H])C([H])([H])C([H])([H])C([H])([H])C2([H])N([H])C(=O)C1([H])N(C(=O)C([H])(N([H])C(=O)C([H])(N([H])C([H])([H])[H])C([H])([H])[H])C(C([H])([H])[H])(C([H])([H])[H])C([H])([H])[H])C([H])([H])c2c([H])c(OC([H])([H])C([H])([H])[N+]([H])([H])C([H])([H])c3c([H])c([H])c(C(=O)N([H])C([H])([H])C([H])([H])C([H])([H])C([H])([H])N([H])C(=O)N4C([H])([H])C([H])([H])C([H])([H])C([H])(n5nc(-c6c([H])c([H])c(Oc7c([H])c([H])c(F)c([H])c7F)c([H])c6[H])c(C(=O)N([H])[H])c5N([H])[H])C4([H])[H])c([H])c3[H])c([H])c([H])c2C1([H])[H]

$$$$
64:0:0
     RDKit          3D

 95102  0  0  1  0  0  0  0  0999 V2000
  -26.8520  -22.6180   23.4520 C   0  0  0  0  0  2  0  0  0  0  0  0
  -26.5550  -23.4670   22.2810 N   0  0  0  0  0  4  0  0  0  0  0  0
  -25.7700  -24.0410   22.5420 H   0  0  0  0  0  0  0  0  0  0  0  0
  -26.2510  -22.8850   21.5150 H   0  0  0  0  0  0  0  0  0  0  0  0
  -27.6340  -24.3800   21.8310 C   0  0  0  0  0  2  0  0  0  0  0  0
  -27.1160  -25.2960   20.7090 C   0  0  0  0  0  2  0  0  0  0  0  0
  -28.1810  -26.1700   20.0000 C   0  0  0  0  0  2  0  0  0  0  0  0
  -27.6290  -27.0300   18.9900 O   0  0  0  0  0  0  0  0  0  0  0  0
  -25.5710  -31.1690   24.3950 C   0  0  0  0  0  0  0  0  0  0  0  0
  -26.7240  -27.9450   19.4670 C   0  0  0  0  0  0  0  0  0  0  0  0
  -23.8960  -30.7860   22.6150 C   0  0  0  0  0  3  0  0  0  0  0  0
  -24.7820  -29.7160   20.4750 C   0  0  0  0  0  0  0  0  0  0  0  0
  -26.3980  -30.7270   22.0910 C   0  0  0  0  0  2  0  0  0  0  0  0
  -26.0830  -29.7350   20.9920 C   0  0  0  0  0  0  0  0  0  0  0  0
  -27.0600  -28.8430   20.4990 C   0  0  0  0  0  3  0  0  0  0  0  0
  -25.4220  -27.9610   18.9240 C   0  0  0  0  0  3  0  0  0  0  0  0
  -24.4430  -28.8270   19.4420 C   0  0  0  0  0  3  0  0  0  0  0  0
  -23.7920  -30.6920   21.0700 C   0  0  0  0  0  2  0  0  0  0  0  0
  -25.3140  -30.8810   23.0890 N   0  0  0  0  0  0  0  0  0  0  0  0
  -24.6510  -31.3960   25.1920 O   0  0  0  0  0  0  0  0  0  0  0  0
  -23.1230  -29.6010   23.2350 C   0  0  0  0  0  0  0  0  0  0  0  0
  -21.7970  -29.5750   23.0210 N   0  0  0  0  0  0  0  0  0  0  0  0
  -23.7120  -28.7190   23.8670 O   0  0  0  0  0  0  0  0  0  0  0  0
  -21.3890  -30.3240   22.4800 H   0  0  0  0  0  0  0  0  0  0  0  0
  -18.3900  -28.4030   22.7730 C   0  0  0  0  0  0  0  0  0  0  0  0
  -20.8700  -28.5480   23.4900 C   0  0  0  0  0  3  0  0  0  0  0  0
  -21.0640  -27.2290   22.7130 C   0  0  0  0  0  2  0  0  0  0  0  0
  -20.1460  -27.1090   21.4930 C   0  0  0  0  0  2  0  0  0  0  0  0
  -18.6770  -27.1770   21.9220 C   0  0  0  0  0  2  0  0  0  0  0  0
  -19.4240  -29.0580   23.4940 C   0  0  0  0  0  0  0  0  0  0  0  0
  -19.1120  -30.2140   24.2420 C   0  0  0  0  0  3  0  0  0  0  0  0
  -17.7960  -30.7120   24.2860 C   0  0  0  0  0  3  0  0  0  0  0  0
  -16.7740  -30.0510   23.5840 C   0  0  0  0  0  3  0  0  0  0  0  0
  -17.0700  -28.8980   22.8330 C   0  0  0  0  0  3  0  0  0  0  0  0
  -27.0300  -31.2540   24.9440 C   0  0  0  0  0  3  0  0  0  0  0  0
  -27.1040  -32.4230   25.8300 N   0  0  0  0  0  0  0  0  0  0  0  0
  -27.7120  -33.5740   25.5170 C   0  0  0  0  0  0  0  0  0  0  0  0
  -28.3420  -33.7370   24.4680 O   0  0  0  0  0  0  0  0  0  0  0  0
  -26.5650  -32.3810   26.6820 H   0  0  0  0  0  0  0  0  0  0  0  0
  -26.5820  -35.7600   26.0300 C   0  0  0  0  0  1  0  0  0  0  0  0
  -27.6080  -34.7310   26.5290 C   0  0  0  0  0  3  0  0  0  0  0  0
  -29.8510  -34.5620   27.5120 C   0  0  0  0  0  1  0  0  0  0  0  0
  -28.9000  -35.4030   26.7910 N   0  0  0  0  0  0  0  0  0  0  0  0
  -28.7610  -36.2560   27.3280 H   0  0  0  0  0  0  0  0  0  0  0  0
  -27.4860  -29.9470   25.7000 C   0  0  1  0  0  0  0  0  0  0  0  0
  -26.4930  -29.4820   26.7910 C   0  0  0  0  0  1  0  0  0  0  0  0
  -27.6760  -28.7760   24.7080 C   0  0  0  0  0  1  0  0  0  0  0  0
  -28.8580  -30.1820   26.3740 C   0  0  0  0  0  1  0  0  0  0  0  0
  -28.3100  -22.1280   23.4920 C   0  0  0  0  0  2  0  0  0  0  0  0
  -28.6780  -21.5140   24.8590 C   0  0  0  0  0  2  0  0  0  0  0  0
  -30.1420  -21.7520   25.2680 C   0  0  0  0  0  2  0  0  0  0  0  0
  -31.0940  -21.3230   24.2220 N   0  0  0  0  0  4  0  0  0  0  0  0
  -30.8270  -21.7730   23.3610 H   0  0  0  0  0  0  0  0  0  0  0  0
  -31.0240  -20.3280   24.0840 H   0  0  0  0  0  0  0  0  0  0  0  0
  -32.4980  -21.6900   24.5020 C   0  0  0  0  0  2  0  0  0  0  0  0
  -33.4060  -21.3840   23.3000 C   0  0  0  0  0  2  0  0  0  0  0  0
  -34.8960  -21.3250   23.6760 C   0  0  0  0  0  2  0  0  0  0  0  0
  -36.4910  -20.0480   22.2810 C   0  0  0  0  0  0  0  0  0  0  0  0
  -36.6280  -17.9830   20.9580 C   0  0  0  0  0  2  0  0  0  0  0  0
  -36.2620  -18.3020   19.4940 C   0  0  0  0  0  2  0  0  0  0  0  0
  -34.7400  -18.1940   19.2800 C   0  0  0  0  0  2  0  0  0  0  0  0
  -33.9330  -18.9780   20.3500 C   0  0  0  0  0  3  0  0  0  0  0  0
  -34.4410  -18.6530   21.7700 C   0  0  0  0  0  2  0  0  0  0  0  0
  -35.8900  -18.9220   21.8150 N   0  0  0  0  0  0  0  0  0  0  0  0
  -37.7080  -20.2340   22.2470 O   0  0  0  0  0  0  0  0  0  0  0  0
  -35.6960  -21.1030   22.4790 N   0  0  0  0  0  0  0  0  0  0  0  0
  -36.1880  -21.9460   22.2200 H   0  0  0  0  0  0  0  0  0  0  0  0
  -31.4550  -19.6460   20.1180 C   0  0  0  0  0  0  0  0  0  0  0  0
  -30.3190  -18.8980   19.9630 C   0  0  0  0  0  0  0  0  0  0  0  0
  -30.7380  -17.5330   19.9820 C   0  0  0  0  0  0  0  0  0  0  0  0
  -32.4970  -18.7350   20.2270 N   0  0  0  0  0  0  0  0  0  0  0  0
  -32.0460  -17.4560   20.1990 N   0  0  0  0  0  0  0  0  0  0  0  0
  -29.9820  -16.2950   19.7530 C   0  0  0  0  0  0  0  0  0  0  0  0
  -29.8110  -15.3330   20.7740 C   0  0  0  0  0  3  0  0  0  0  0  0
  -29.0680  -14.1580   20.5320 C   0  0  0  0  0  3  0  0  0  0  0  0
  -28.4830  -13.9360   19.2640 C   0  0  0  0  0  0  0  0  0  0  0  0
  -28.6740  -14.8870   18.2450 C   0  0  0  0  0  3  0  0  0  0  0  0
  -29.4190  -16.0540   18.4850 C   0  0  0  0  0  3  0  0  0  0  0  0
  -27.7650  -12.8130   18.9290 O   0  0  0  0  0  0  0  0  0  0  0  0
  -26.8330  -12.2750   19.7800 C   0  0  0  0  0  0  0  0  0  0  0  0
  -25.7200  -13.0180   20.2300 C   0  0  0  0  0  3  0  0  0  0  0  0
  -24.7500  -12.4040   21.0480 C   0  0  0  0  0  3  0  0  0  0  0  0
  -24.8850  -11.0500   21.4090 C   0  0  0  0  0  0  0  0  0  0  0  0
  -25.9910  -10.3090   20.9580 C   0  0  0  0  0  3  0  0  0  0  0  0
  -26.9620  -10.9200   20.1440 C   0  0  0  0  0  0  0  0  0  0  0  0
  -28.0140  -10.1940   19.6940 F   0  0  0  0  0  0  0  0  0  0  0  0
  -23.9510  -10.4590   22.1890 F   0  0  0  0  0  0  0  0  0  0  0  0
  -28.9320  -19.4160   19.7140 C   0  0  0  0  0  0  0  0  0  0  0  0
  -27.9140  -18.6850   20.1520 N   0  0  0  0  0  0  0  0  0  0  0  0
  -28.7460  -20.5040   19.1710 O   0  0  0  0  0  0  0  0  0  0  0  0
  -28.0660  -17.8030   20.6170 H   0  0  0  0  0  0  0  0  0  0  0  0
  -26.9680  -19.0150   20.0220 H   0  0  0  0  0  0  0  0  0  0  0  0
  -31.6940  -21.0160   20.1540 N   0  0  0  0  0  0  0  0  0  0  0  0
  -30.9590  -21.6910   19.9690 H   0  0  0  0  0  0  0  0  0  0  0  0
  -32.6190  -21.4250   20.1540 H   0  0  0  0  0  0  0  0  0  0  0  0
  1 49  1  0
  2  3  1  0
  2  1  1  0
  4  2  1  0
  5  2  1  0
  6  5  1  0
  7  6  1  0
  8 10  1  0
  8  7  1  0
  9 20  2  0
 10 15  1  0
 11 19  1  0
 11 21  1  0
 12 14  1  0
 12 18  1  0
 13 19  1  0
 14 13  1  0
 15 14  2  0
 16 17  1  0
 16 10  2  0
 17 12  2  0
 18 11  1  0
 19  9  1  0
 21 23  2  0
 22 21  1  0
 24 22  1  0
 25 34  2  0
 25 30  1  0
 26 22  1  0
 26 30  1  0
 27 26  1  0
 28 29  1  0
 28 27  1  0
 29 25  1  0
 30 31  2  0
 31 32  1  0
 33 32  2  0
 34 33  1  0
 35  9  1  0
 35 45  1  0
 35 36  1  0
 36 39  1  0
 37 36  1  0
 37 41  1  0
 38 37  2  0
 41 40  1  0
 41 43  1  0
 43 44  1  0
 43 42  1  0
 45 48  1  1
 45 46  1  0
 47 45  1  0
 49 50  1  0
 50 51  1  0
 52 55  1  0
 52 51  1  0
 53 52  1  0
 54 52  1  0
 56 57  1  0
 56 55  1  0
 58 66  1  0
 59 64  1  0
 60 59  1  0
 61 60  1  0
 62 61  1  0
 62 63  1  0
 63 64  1  0
 64 58  1  0
 65 58  2  0
 66 57  1  0
 67 66  1  0
 68 93  1  0
 68 71  1  0
 69 70  1  0
 69 68  2  0
 70 72  2  0
 71 62  1  0
 72 71  1  0
 73 70  1  0
 73 74  1  0
 75 74  2  0
 76 75  1  0
 77 78  1  0
 77 76  2  0
 78 73  2  0
 79 76  1  0
 79 80  1  0
 80 85  2  0
 80 81  1  0
 81 82  2  0
 82 83  1  0
 83 87  1  0
 84 83  2  0
 85 84  1  0
 86 85  1  0
 88 69  1  0
 88 89  1  0
 89 91  1  0
 90 88  2  0
 92 89  1  0
 94 93  1  0
 95 93  1  0
M  ISO  4   7 101   8 101  58 100  66 100
M  END
>  <TORSDO>  (62) 
F 27

>  <SCORE>  (62) 
4.970

>  <name>  (62) 
64

>  <ligand_id>  (62) 
64

>  <original_smiles>  (62) 
[H]c1c([H])c([H])c2c(c1[H])C([H])([H])C([H])([H])C([H])([H])C2([H])N([H])C(=O)C1([H])N(C(=O)C([H])(N([H])C(=O)C([H])(N([H])C([H])([H])[H])C([H])([H])[H])C(C([H])([H])[H])(C([H])([H])[H])C([H])([H])[H])C([H])([H])c2c([H])c(OC([H])([H])C([H])([H])C([H])([H])[N+]([H])([H])C([H])([H])C([H])([H])C([H])([H])C([H])([H])[N+]([H])([H])C([H])([H])C([H])([H])C([H])([H])N([H])C(=O)N3C([H])([H])C([H])([H])C([H])([H])C([H])(n4nc(-c5c([H])c([H])c(Oc6c([H])c([H])c(F)c([H])c6F)c([H])c5[H])c(C(=O)N([H])[H])c4N([H])[H])C3([H])[H])c([H])c([H])c2C1([H])[H]

>  <smiles>  (62) 
[H]c1c([H])c([H])c2c(c1[H])C([H])([H])C([H])([H])C([H])([H])C2([H])N([H])C(=O)C1([H])N(C(=O)C([H])(N([H])C(=O)C([H])(N([H])C([H])([H])[H])C([H])([H])[H])C(C([H])([H])[H])(C([H])([H])[H])C([H])([H])[H])C([H])([H])c2c([H])c(OC([H])([H])C([H])([H])C([H])([H])[N+]([H])([H])C([H])([H])C([H])([H])C([H])([H])C([H])([H])[N+]([H])([H])C([H])([H])C([H])([H])C([H])([H])N([H])C(=O)N3C([H])([H])C([H])([H])C([H])([H])C([H])(n4nc(-c5c([H])c([H])c(Oc6c([H])c([H])c(F)c([H])c6F)c([H])c5[H])c(C(=O)N([H])[H])c4N([H])[H])C3([H])[H])c([H])c([H])c2C1([H])[H]

$$$$
65:0:0
     RDKit          3D

 96103  0  0  1  0  0  0  0  0999 V2000
  -24.0240  -20.7950   19.2350 C   0  0  0  0  0  2  0  0  0  0  0  0
  -24.2250  -19.4630   18.4960 C   0  0  0  0  0  2  0  0  0  0  0  0
  -25.1780  -18.6120   19.2010 N   0  0  0  0  0  0  0  0  0  0  0  0
  -24.8020  -17.6660   19.1970 H   0  0  0  0  0  0  0  0  0  0  0  0
  -26.5100  -18.5970   18.5950 C   0  0  0  0  0  2  0  0  0  0  0  0
  -27.5760  -19.0310   19.6280 C   0  0  0  0  0  2  0  0  0  0  0  0
  -28.9210  -18.4660   19.3670 N   0  0  0  0  0  4  0  0  0  0  0  0
  -29.5900  -19.2010   19.5300 H   0  0  0  0  0  0  0  0  0  0  0  0
  -28.9850  -18.1960   18.4000 H   0  0  0  0  0  0  0  0  0  0  0  0
  -29.2840  -17.3310   20.2390 C   0  0  0  0  0  2  0  0  0  0  0  0
  -30.7610  -16.9000   20.1290 C   0  0  0  0  0  2  0  0  0  0  0  0
  -31.6480  -14.6050   20.3980 C   0  0  0  0  0  0  0  0  0  0  0  0
  -31.4270  -12.2380   19.7310 C   0  0  0  0  0  2  0  0  0  0  0  0
  -30.5470  -12.1570   18.4620 C   0  0  0  0  0  2  0  0  0  0  0  0
  -29.0480  -12.1400   18.8150 C   0  0  0  0  0  2  0  0  0  0  0  0
  -28.6580  -13.2430   19.8290 C   0  0  0  0  0  3  0  0  0  0  0  0
  -29.6360  -13.2370   21.0290 C   0  0  0  0  0  2  0  0  0  0  0  0
  -31.0090  -13.4130   20.5100 N   0  0  0  0  0  0  0  0  0  0  0  0
  -32.7230  -14.7620   19.8080 O   0  0  0  0  0  0  0  0  0  0  0  0
  -30.9320  -15.6400   20.8490 N   0  0  0  0  0  0  0  0  0  0  0  0
  -30.1730  -15.3870   21.4650 H   0  0  0  0  0  0  0  0  0  0  0  0
  -26.3090  -14.0730   20.5020 C   0  0  0  0  0  0  0  0  0  0  0  0
  -25.1630  -13.4100   20.8320 C   0  0  0  0  0  0  0  0  0  0  0  0
  -25.4880  -12.0200   20.7700 C   0  0  0  0  0  0  0  0  0  0  0  0
  -27.2680  -13.1020   20.2630 N   0  0  0  0  0  0  0  0  0  0  0  0
  -26.7720  -11.8580   20.4800 N   0  0  0  0  0  0  0  0  0  0  0  0
  -24.6350  -10.8360   20.9070 C   0  0  0  0  0  0  0  0  0  0  0  0
  -24.8960   -9.8610   21.8940 C   0  0  0  0  0  3  0  0  0  0  0  0
  -24.0580   -8.7330   22.0210 C   0  0  0  0  0  3  0  0  0  0  0  0
  -22.9460   -8.5780   21.1620 C   0  0  0  0  0  0  0  0  0  0  0  0
  -22.7030   -9.5420   20.1680 C   0  0  0  0  0  3  0  0  0  0  0  0
  -23.5400  -10.6610   20.0380 C   0  0  0  0  0  3  0  0  0  0  0  0
  -22.0890   -7.5040   21.1960 O   0  0  0  0  0  0  0  0  0  0  0  0
  -21.8110   -6.8430   22.3660 C   0  0  0  0  0  0  0  0  0  0  0  0
  -21.2280   -7.5000   23.4690 C   0  0  0  0  0  3  0  0  0  0  0  0
  -20.8970   -6.7710   24.6290 C   0  0  0  0  0  3  0  0  0  0  0  0
  -21.1330   -5.3840   24.6800 C   0  0  0  0  0  0  0  0  0  0  0  0
  -21.7040   -4.7260   23.5760 C   0  0  0  0  0  3  0  0  0  0  0  0
  -22.0390   -5.4530   22.4210 C   0  0  0  0  0  0  0  0  0  0  0  0
  -22.5740   -4.8140   21.3540 F   0  0  0  0  0  0  0  0  0  0  0  0
  -20.8070   -4.6790   25.7880 F   0  0  0  0  0  0  0  0  0  0  0  0
  -23.8150  -14.0190   21.0890 C   0  0  0  0  0  0  0  0  0  0  0  0
  -23.0080  -13.3850   21.9290 N   0  0  0  0  0  0  0  0  0  0  0  0
  -23.4920  -15.0900   20.5730 O   0  0  0  0  0  0  0  0  0  0  0  0
  -23.2910  -12.5180   22.3650 H   0  0  0  0  0  0  0  0  0  0  0  0
  -22.1010  -13.7730   22.1420 H   0  0  0  0  0  0  0  0  0  0  0  0
  -26.6030  -15.4200   20.3490 N   0  0  0  0  0  0  0  0  0  0  0  0
  -25.8040  -16.0390   20.3930 H   0  0  0  0  0  0  0  0  0  0  0  0
  -27.2300  -15.6470   19.5910 H   0  0  0  0  0  0  0  0  0  0  0  0
  -25.1020  -21.8460   18.9330 C   0  0  0  0  0  2  0  0  0  0  0  0
  -25.0680  -23.0270   19.9070 C   0  0  0  0  0  2  0  0  0  0  0  0
  -26.4000  -23.7390   19.9440 C   0  0  0  0  0  3  0  0  0  0  0  0
  -27.1200  -23.9260   21.0650 C   0  0  0  0  0  3  0  0  0  0  0  0
  -28.4670  -24.6220   21.1970 C   0  0  0  0  0  2  0  0  0  0  0  0
  -28.9330  -25.5020   20.0160 C   0  0  0  0  0  2  0  0  0  0  0  0
  -28.8170  -26.8890   20.3240 O   0  0  0  0  0  0  0  0  0  0  0  0
  -24.6690  -31.7450   23.4000 C   0  0  0  0  0  0  0  0  0  0  0  0
  -27.5880  -27.5100   20.2920 C   0  0  0  0  0  0  0  0  0  0  0  0
  -23.5770  -30.3660   21.6590 C   0  0  0  0  0  3  0  0  0  0  0  0
  -25.1370  -28.9190   20.2570 C   0  0  0  0  0  0  0  0  0  0  0  0
  -26.0950  -30.8050   21.5870 C   0  0  0  0  0  2  0  0  0  0  0  0
  -26.2480  -29.4600   20.9140 C   0  0  0  0  0  0  0  0  0  0  0  0
  -27.4700  -28.7600   20.9350 C   0  0  0  0  0  3  0  0  0  0  0  0
  -26.4600  -26.9860   19.6190 C   0  0  0  0  0  3  0  0  0  0  0  0
  -25.2350  -27.6760   19.6110 C   0  0  0  0  0  3  0  0  0  0  0  0
  -23.8660  -29.7350   20.2690 C   0  0  0  0  0  2  0  0  0  0  0  0
  -24.7950  -30.9860   22.2740 N   0  0  0  0  0  0  0  0  0  0  0  0
  -23.5580  -31.9660   23.9000 O   0  0  0  0  0  0  0  0  0  0  0  0
  -22.9150  -29.2940   22.5550 C   0  0  0  0  0  0  0  0  0  0  0  0
  -21.6140  -29.0470   22.3310 N   0  0  0  0  0  0  0  0  0  0  0  0
  -23.5740  -28.6870   23.4040 O   0  0  0  0  0  0  0  0  0  0  0  0
  -21.1440  -29.5930   21.6220 H   0  0  0  0  0  0  0  0  0  0  0  0
  -18.2870  -27.6610   22.5490 C   0  0  0  0  0  0  0  0  0  0  0  0
  -20.7960  -28.0560   23.0280 C   0  0  0  0  0  3  0  0  0  0  0  0
  -21.0260  -26.6400   22.4510 C   0  0  0  0  0  2  0  0  0  0  0  0
  -20.0280  -26.2690   21.3490 C   0  0  0  0  0  2  0  0  0  0  0  0
  -18.5930  -26.3310   21.8820 C   0  0  0  0  0  2  0  0  0  0  0  0
  -19.3240  -28.4780   23.0740 C   0  0  0  0  0  0  0  0  0  0  0  0
  -18.9900  -29.7220   23.6530 C   0  0  0  0  0  3  0  0  0  0  0  0
  -17.6510  -30.1510   23.7150 C   0  0  0  0  0  3  0  0  0  0  0  0
  -16.6270  -29.3320   23.2090 C   0  0  0  0  0  3  0  0  0  0  0  0
  -16.9460  -28.0890   22.6320 C   0  0  0  0  0  3  0  0  0  0  0  0
  -25.9090  -32.3880   24.0950 C   0  0  0  0  0  3  0  0  0  0  0  0
  -26.3390  -31.6410   25.4180 C   0  0  1  0  0  0  0  0  0  0  0  0
  -25.1710  -31.4010   26.4020 C   0  0  0  0  0  1  0  0  0  0  0  0
  -26.9700  -30.2670   25.0880 C   0  0  0  0  0  1  0  0  0  0  0  0
  -27.4240  -32.4610   26.1540 C   0  0  0  0  0  1  0  0  0  0  0  0
  -25.5800  -33.7910   24.3740 N   0  0  0  0  0  0  0  0  0  0  0  0
  -25.9430  -34.8240   23.6040 C   0  0  0  0  0  0  0  0  0  0  0  0
  -26.6630  -34.6980   22.6090 O   0  0  0  0  0  0  0  0  0  0  0  0
  -24.9490  -33.9630   25.1440 H   0  0  0  0  0  0  0  0  0  0  0  0
  -24.2100  -36.5830   23.1370 C   0  0  0  0  0  1  0  0  0  0  0  0
  -25.4270  -36.2200   24.0000 C   0  0  0  0  0  3  0  0  0  0  0  0
  -27.5200  -37.1600   24.8730 C   0  0  0  0  0  1  0  0  0  0  0  0
  -26.4520  -37.2810   23.8850 N   0  0  0  0  0  0  0  0  0  0  0  0
  -26.0320  -38.2010   23.9850 H   0  0  0  0  0  0  0  0  0  0  0  0
  2  3  1  0
  2  1  1  0
  4  3  1  0
  5  3  1  0
  5  6  1  0
  7  8  1  0
  7  6  1  0
  7 10  1  0
  9  7  1  0
 11 10  1  0
 11 20  1  0
 12 18  1  0
 12 20  1  0
 13 18  1  0
 14 15  1  0
 14 13  1  0
 16 15  1  0
 16 25  1  0
 16 17  1  0
 18 17  1  0
 19 12  2  0
 20 21  1  0
 22 23  2  0
 23 42  1  0
 24 23  1  0
 24 27  1  0
 25 26  1  0
 25 22  1  0
 26 24  2  0
 27 28  1  0
 28 29  2  0
 30 33  1  0
 30 29  1  0
 31 30  2  0
 32 31  1  0
 32 27  2  0
 33 34  1  0
 34 39  2  0
 34 35  1  0
 35 36  2  0
 36 37  1  0
 37 41  1  0
 38 37  2  0
 39 38  1  0
 40 39  1  0
 42 43  1  0
 43 46  1  0
 43 45  1  0
 44 42  2  0
 47 48  1  0
 47 22  1  0
 49 47  1  0
 50  1  1  0
 50 51  1  0
 51 52  1  0
 52 53  2  0
 53 54  1  0
 55 56  1  0
 55 54  1  0
 57 68  2  0
 58 56  1  0
 58 63  1  0
 59 67  1  0
 59 69  1  0
 60 66  1  0
 60 62  1  0
 61 67  1  0
 62 63  2  0
 62 61  1  0
 64 58  2  0
 65 64  1  0
 65 60  2  0
 66 59  1  0
 67 57  1  0
 69 71  2  0
 70 69  1  0
 72 70  1  0
 73 82  2  0
 73 78  1  0
 74 70  1  0
 74 78  1  0
 75 74  1  0
 76 77  1  0
 76 75  1  0
 77 73  1  0
 78 79  2  0
 79 80  1  0
 81 80  2  0
 82 81  1  0
 83 57  1  0
 83 88  1  0
 83 84  1  0
 84 87  1  1
 84 85  1  0
 86 84  1  0
 88 91  1  0
 89 93  1  0
 89 88  1  0
 90 89  2  0
 93 92  1  0
 95 96  1  0
 95 93  1  0
 95 94  1  0
M  ISO  4  12 100  20 100  55 101  56 101
M  END
>  <TORSDO>  (63) 
F 28

>  <SCORE>  (63) 
-7.267

>  <name>  (63) 
65

>  <ligand_id>  (63) 
65

>  <original_smiles>  (63) 
[H]C(=C([H])C([H])([H])C([H])([H])C([H])([H])C([H])([H])N([H])C([H])([H])C([H])([H])[N+]([H])([H])C([H])([H])C([H])([H])N([H])C(=O)N1C([H])([H])C([H])([H])C([H])([H])C([H])(n2nc(-c3c([H])c([H])c(Oc4c([H])c([H])c(F)c([H])c4F)c([H])c3[H])c(C(=O)N([H])[H])c2N([H])[H])C1([H])[H])C([H])([H])C([H])([H])Oc1c([H])c([H])c2c(c1[H])C([H])([H])N(C(=O)C([H])(N([H])C(=O)C([H])(N([H])C([H])([H])[H])C([H])([H])[H])C(C([H])([H])[H])(C([H])([H])[H])C([H])([H])[H])C([H])(C(=O)N([H])C1([H])c3c([H])c([H])c([H])c([H])c3C([H])([H])C([H])([H])C1([H])[H])C2([H])[H]

>  <smiles>  (63) 
[H]C(=C([H])C([H])([H])C([H])([H])C([H])([H])C([H])([H])N([H])C([H])([H])C([H])([H])[N+]([H])([H])C([H])([H])C([H])([H])N([H])C(=O)N1C([H])([H])C([H])([H])C([H])([H])C([H])(n2nc(-c3c([H])c([H])c(Oc4c([H])c([H])c(F)c([H])c4F)c([H])c3[H])c(C(=O)N([H])[H])c2N([H])[H])C1([H])[H])C([H])([H])C([H])([H])Oc1c([H])c([H])c2c(c1[H])C([H])([H])N(C(=O)C([H])(N([H])C(=O)C([H])(N([H])C([H])([H])[H])C([H])([H])[H])C(C([H])([H])[H])(C([H])([H])[H])C([H])([H])[H])C([H])(C(=O)N([H])C1([H])c3c([H])c([H])c([H])c([H])c3C([H])([H])C([H])([H])C1([H])[H])C2([H])[H]

$$$$
66:0:0
     RDKit          3D

102108  0  0  1  0  0  0  0  0999 V2000
  -17.5630  -24.7970   24.7360 C   0  0  0  0  0  3  0  0  0  0  0  0
  -16.4930  -25.1370   25.7940 C   0  0  0  0  0  3  0  0  0  0  0  0
  -18.1090  -22.2190   25.6220 C   0  0  0  0  0  1  0  0  0  0  0  0
  -18.5350  -23.5880   24.6400 C   0  0  0  0  0  3  0  0  0  0  0  0
  -16.4530  -22.8120   27.0080 C   0  0  0  0  0  2  0  0  0  0  0  0
  -16.1090  -24.3740   27.0730 C   0  0  0  0  0  3  0  0  0  0  0  0
  -15.0180  -22.2820   27.5100 C   0  0  0  0  0  0  0  0  0  0  0  0
  -13.9540  -22.7140   26.8440 N   0  0  0  0  0  0  0  0  0  0  0  0
  -14.7440  -21.5890   28.4850 O   0  0  0  0  0  0  0  0  0  0  0  0
  -14.0640  -23.3500   26.0700 H   0  0  0  0  0  0  0  0  0  0  0  0
  -13.0270  -22.4410   27.1440 H   0  0  0  0  0  0  0  0  0  0  0  0
  -20.0360  -24.4110   24.4880 C   0  0  0  0  0  0  0  0  0  0  0  0
  -20.2420  -25.2960   25.3290 O   0  0  0  0  0  0  0  0  0  0  0  0
  -21.3800  -24.2300   23.2360 C   0  0  0  0  0  0  0  0  0  0  0  0
  -21.3530  -24.3470   21.7660 N   0  0  0  0  0  0  0  0  0  0  0  0
  -22.5150  -24.0520   23.6900 O   0  0  0  0  0  0  0  0  0  0  0  0
  -20.4230  -24.5510   21.4190 H   0  0  0  0  0  0  0  0  0  0  0  0
  -22.5060  -24.5100   20.5830 C   0  0  0  0  0  2  0  0  0  0  0  0
  -23.9370  -25.5700   20.4140 C   0  0  0  0  0  2  0  0  0  0  0  0
  -24.2810  -27.2520   20.9410 C   0  0  0  0  0  2  0  0  0  0  0  0
  -25.7280  -28.2150   21.3990 C   0  0  0  0  0  2  0  0  0  0  0  0
  -26.5170  -28.8120   24.2360 C   0  0  0  0  0  0  0  0  0  0  0  0
  -28.0510  -30.0530   25.9220 C   0  0  0  0  0  2  0  0  0  0  0  0
  -28.6030  -31.3470   25.2480 C   0  0  0  0  0  2  0  0  0  0  0  0
  -29.7050  -31.0370   24.2150 C   0  0  0  0  0  2  0  0  0  0  0  0
  -29.3210  -29.8130   23.3550 C   0  0  0  0  0  3  0  0  0  0  0  0
  -28.9570  -28.6130   24.2330 C   0  0  0  0  0  2  0  0  0  0  0  0
  -27.7350  -29.0180   24.8770 N   0  0  0  0  0  0  0  0  0  0  0  0
  -25.5370  -29.1930   24.9180 O   0  0  0  0  0  0  0  0  0  0  0  0
  -26.5610  -28.3080   22.8290 N   0  0  0  0  0  0  0  0  0  0  0  0
  -27.5120  -28.0040   22.6610 H   0  0  0  0  0  0  0  0  0  0  0  0
  -31.4200  -30.1220   21.9670 C   0  0  0  0  0  0  0  0  0  0  0  0
  -32.0770  -29.2950   21.1070 C   0  0  0  0  0  0  0  0  0  0  0  0
  -31.3150  -28.0870   21.0800 C   0  0  0  0  0  0  0  0  0  0  0  0
  -30.3300  -29.4060   22.4150 N   0  0  0  0  0  0  0  0  0  0  0  0
  -30.2300  -28.1950   21.8290 N   0  0  0  0  0  0  0  0  0  0  0  0
  -31.5920  -26.8010   20.4490 C   0  0  0  0  0  0  0  0  0  0  0  0
  -30.5970  -25.8090   20.3230 C   0  0  0  0  0  3  0  0  0  0  0  0
  -30.8920  -24.5810   19.6940 C   0  0  0  0  0  3  0  0  0  0  0  0
  -32.1900  -24.3420   19.1840 C   0  0  0  0  0  0  0  0  0  0  0  0
  -33.1820  -25.3250   19.3360 C   0  0  0  0  0  3  0  0  0  0  0  0
  -32.8900  -26.5430   19.9680 C   0  0  0  0  0  3  0  0  0  0  0  0
  -32.5770  -23.1660   18.5900 O   0  0  0  0  0  0  0  0  0  0  0  0
  -32.1960  -21.9500   19.0940 C   0  0  0  0  0  0  0  0  0  0  0  0
  -31.5210  -20.9930   18.3050 C   0  0  0  0  0  3  0  0  0  0  0  0
  -31.2130  -19.7270   18.8440 C   0  0  0  0  0  3  0  0  0  0  0  0
  -31.5800  -19.4190   20.1670 C   0  0  0  0  0  0  0  0  0  0  0  0
  -32.2510  -20.3720   20.9550 C   0  0  0  0  0  3  0  0  0  0  0  0
  -32.5610  -21.6330   20.4180 C   0  0  0  0  0  0  0  0  0  0  0  0
  -33.2290  -22.5400   21.1700 F   0  0  0  0  0  0  0  0  0  0  0  0
  -31.2890  -18.2030   20.6850 F   0  0  0  0  0  0  0  0  0  0  0  0
  -33.3880  -29.5750   20.4360 C   0  0  0  0  0  0  0  0  0  0  0  0
  -33.6160  -28.9770   19.2730 N   0  0  0  0  0  0  0  0  0  0  0  0
  -34.2000  -30.3670   20.9140 O   0  0  0  0  0  0  0  0  0  0  0  0
  -32.9400  -28.3460   18.8700 H   0  0  0  0  0  0  0  0  0  0  0  0
  -34.4750  -29.1590   18.7750 H   0  0  0  0  0  0  0  0  0  0  0  0
  -31.6690  -31.4000   22.4340 N   0  0  0  0  0  0  0  0  0  0  0  0
  -32.5280  -31.8940   22.2240 H   0  0  0  0  0  0  0  0  0  0  0  0
  -31.0600  -31.9100   23.0610 H   0  0  0  0  0  0  0  0  0  0  0  0
  -16.5080  -25.2790   28.5210 C   0  0  0  0  0  2  0  0  0  0  0  0
  -16.1210  -25.1240   30.3170 C   0  0  0  0  0  2  0  0  0  0  0  0
  -16.0000  -24.1700   31.7130 O   0  0  0  0  0  0  0  0  0  0  0  0
  -14.0790  -25.8840   37.6420 C   0  0  0  0  0  0  0  0  0  0  0  0
  -14.8530  -23.5350   32.1740 C   0  0  0  0  0  3  0  0  0  0  0  0
  -15.9720  -24.5660   36.8390 C   0  0  0  0  0  3  0  0  0  0  0  0
  -15.5720  -23.1140   34.7380 C   0  0  0  0  0  0  0  0  0  0  0  0
  -13.6730  -24.3380   35.7490 C   0  0  0  0  0  2  0  0  0  0  0  0
  -14.4180  -23.8600   34.5270 C   0  0  0  0  0  0  0  0  0  0  0  0
  -14.0390  -24.1160   33.1940 C   0  0  0  0  0  3  0  0  0  0  0  0
  -15.4000  -22.3150   32.4500 C   0  0  0  0  0  2  0  0  0  0  0  0
  -15.9770  -22.2310   33.7250 C   0  0  0  0  0  3  0  0  0  0  0  0
  -16.2660  -23.2440   36.0660 C   0  0  0  0  0  2  0  0  0  0  0  0
  -14.5320  -24.9260   36.7940 N   0  0  0  0  0  0  0  0  0  0  0  0
  -14.8180  -26.3910   38.4980 O   0  0  0  0  0  0  0  0  0  0  0  0
  -16.7650  -25.8090   36.3790 C   0  0  0  0  0  0  0  0  0  0  0  0
  -16.1890  -26.6840   35.5700 N   0  0  0  0  0  0  0  0  0  0  0  0
  -17.9530  -25.9240   36.6740 O   0  0  0  0  0  0  0  0  0  0  0  0
  -15.2020  -26.5190   35.3770 H   0  0  0  0  0  0  0  0  0  0  0  0
  -17.5470  -29.5320   37.8290 C   0  0  0  0  0  0  0  0  0  0  0  0
  -16.6200  -28.0520   35.3210 C   0  0  0  0  0  3  0  0  0  0  0  0
  -18.0230  -27.8560   34.1890 C   0  0  0  0  0  2  0  0  0  0  0  0
  -19.7100  -28.1420   34.5800 C   0  0  0  0  0  1  0  0  0  0  0  0
  -19.4750  -29.4380   37.5810 C   0  0  0  0  0  1  0  0  0  0  0  0
  -16.4640  -28.9020   36.8470 C   0  0  0  0  0  0  0  0  0  0  0  0
  -15.0830  -28.8570   37.2360 C   0  0  0  0  0  3  0  0  0  0  0  0
  -14.5850  -29.4550   38.3960 C   0  0  0  0  0  3  0  0  0  0  0  0
  -15.4840  -30.1570   39.2100 C   0  0  0  0  0  3  0  0  0  0  0  0
  -16.8930  -30.1880   38.9350 C   0  0  0  0  0  3  0  0  0  0  0  0
  -12.6080  -26.3620   37.5830 C   0  0  0  0  0  3  0  0  0  0  0  0
  -12.0560  -26.8810   38.9690 C   0  0  1  0  0  0  0  0  0  0  0  0
  -11.4500  -25.7690   39.8550 C   0  0  0  0  0  1  0  0  0  0  0  0
  -13.1560  -27.5800   39.8020 C   0  0  0  0  0  1  0  0  0  0  0  0
  -10.9630  -27.9450   38.7120 C   0  0  0  0  0  1  0  0  0  0  0  0
  -11.8330  -25.2130   37.1100 N   0  0  0  0  0  0  0  0  0  0  0  0
  -11.3540  -25.0880   35.8680 C   0  0  0  0  0  0  0  0  0  0  0  0
  -11.4380  -25.9850   35.0230 O   0  0  0  0  0  0  0  0  0  0  0  0
  -11.7770  -24.4210   37.7320 H   0  0  0  0  0  0  0  0  0  0  0  0
  -11.7250  -22.7020   35.1690 C   0  0  0  0  0  1  0  0  0  0  0  0
  -10.6650  -23.7610   35.5120 C   0  0  0  0  0  3  0  0  0  0  0  0
   -8.6610  -24.8800   34.6450 C   0  0  0  0  0  1  0  0  0  0  0  0
   -9.6990  -23.8810   34.3990 N   0  0  0  0  0  0  0  0  0  0  0  0
   -9.2480  -22.9880   34.2160 H   0  0  0  0  0  0  0  0  0  0  0  0
  1  2  2  0
  4  1  1  0
  4  3  1  0
  5  6  1  0
  5  7  1  0
  6  2  1  0
  6 60  1  0
  7  9  2  0
  8 11  1  0
  8  7  1  0
 10  8  1  0
 12  4  1  0
 12 13  2  0
 14 16  2  0
 14 12  1  0
 15 14  1  0
 17 15  1  0
 18 15  1  0
 19 18  1  0
 19 20  1  0
 20 21  1  0
 21 30  1  0
 22 28  1  0
 22 29  2  0
 24 23  1  0
 25 24  1  0
 26 35  1  0
 26 25  1  0
 26 27  1  0
 27 28  1  0
 28 23  1  0
 30 22  1  0
 31 30  1  0
 32 35  1  0
 32 57  1  0
 33 32  2  0
 34 33  1  0
 34 36  2  0
 36 35  1  0
 37 34  1  0
 38 37  1  0
 39 38  2  0
 40 41  2  0
 40 39  1  0
 41 42  1  0
 42 37  2  0
 43 44  1  0
 43 40  1  0
 44 49  1  0
 45 46  1  0
 45 44  2  0
 46 47  2  0
 47 51  1  0
 47 48  1  0
 49 48  2  0
 49 50  1  0
 52 54  2  0
 52 33  1  0
 53 52  1  0
 55 53  1  0
 56 53  1  0
 57 59  1  0
 58 57  1  0
 60 61  1  0
 61 62  1  0
 63 74  2  0
 64 62  1  0
 64 70  1  0
 64 69  1  0
 65 75  1  0
 66 72  1  0
 67 73  1  0
 68 66  1  0
 68 67  1  0
 69 68  2  0
 70 71  1  0
 71 66  2  0
 72 65  1  0
 73 65  1  0
 73 63  1  0
 75 77  2  0
 76 75  1  0
 78 76  1  0
 79 88  1  0
 80 81  1  0
 80 76  1  0
 80 84  1  0
 81 82  1  0
 83 79  1  0
 84 85  1  0
 84 79  2  0
 85 86  2  0
 86 87  1  0
 88 87  2  0
 89 63  1  0
 89 90  1  0
 90 92  1  1
 90 91  1  0
 93 90  1  0
 94 89  1  0
 94 97  1  0
 95 94  1  0
 96 95  2  0
 99 98  1  0
 99 95  1  0
101100  1  0
101 99  1  0
102101  1  0
M  ISO  4  22 100  30 100  61 101  62 101
M  END
>  <TORSDO>  (64) 
F 25

>  <SCORE>  (64) 
55.949

>  <name>  (64) 
66

>  <ligand_id>  (64) 
66

>  <original_smiles>  (64) 
[H]c1c([H])c([H])c2c(c1[H])C([H])([H])C([H])([H])C([H])([H])C2([H])N([H])C(=O)C1([H])N(C(=O)C([H])(N([H])C(=O)C([H])(N([H])C([H])([H])[H])C([H])([H])[H])C(C([H])([H])[H])(C([H])([H])[H])C([H])([H])[H])C([H])([H])c2c([H])c(OC([H])([H])C([H])([H])c3c([H])c([H])c(C(=O)C(=O)N([H])C([H])([H])C([H])([H])C([H])([H])C([H])([H])N([H])C(=O)N4C([H])([H])C([H])([H])C([H])([H])C([H])(n5nc(-c6c([H])c([H])c(Oc7c([H])c([H])c(F)c([H])c7F)c([H])c6[H])c(C(=O)N([H])[H])c5N([H])[H])C4([H])[H])c([H])c3C(=O)N([H])[H])c([H])c([H])c2C1([H])[H]

>  <smiles>  (64) 
[H]c1c([H])c([H])c2c(c1[H])C([H])([H])C([H])([H])C([H])([H])C2([H])N([H])C(=O)C1([H])N(C(=O)C([H])(N([H])C(=O)C([H])(N([H])C([H])([H])[H])C([H])([H])[H])C(C([H])([H])[H])(C([H])([H])[H])C([H])([H])[H])C([H])([H])c2c([H])c(OC([H])([H])C([H])([H])c3c([H])c([H])c(C(=O)C(=O)N([H])C([H])([H])C([H])([H])C([H])([H])C([H])([H])N([H])C(=O)N4C([H])([H])C([H])([H])C([H])([H])C([H])(n5nc(-c6c([H])c([H])c(Oc7c([H])c([H])c(F)c([H])c7F)c([H])c6[H])c(C(=O)N([H])[H])c5N([H])[H])C4([H])[H])c([H])c3C(=O)N([H])[H])c([H])c([H])c2C1([H])[H]

$$$$
67:0:0
     RDKit          3D

103111  0  0  1  0  0  0  0  0999 V2000
  -26.5920  -22.3240   20.5780 C   0  0  0  0  0  3  0  0  0  0  0  0
  -27.2690  -21.3890   18.4350 C   0  0  0  0  0  3  0  0  0  0  0  0
  -25.4890  -22.9360   19.9600 C   0  0  0  0  0  3  0  0  0  0  0  0
  -26.1690  -22.0110   17.8140 C   0  0  0  0  0  3  0  0  0  0  0  0
  -27.5020  -21.5580   19.8180 C   0  0  0  0  0  0  0  0  0  0  0  0
  -25.2790  -22.8060   18.5650 C   0  0  0  0  0  0  0  0  0  0  0  0
  -22.9690  -23.9250   18.7800 C   0  0  0  0  0  1  0  0  0  0  0  0
  -24.1310  -23.5250   17.8480 C   0  0  0  0  0  3  0  0  0  0  0  0
  -24.6010  -24.6660   17.0180 N   0  0  0  0  0  4  0  0  0  0  0  0
  -24.7090  -24.3250   16.0740 H   0  0  0  0  0  0  0  0  0  0  0  0
  -23.8540  -25.3410   16.9870 H   0  0  0  0  0  0  0  0  0  0  0  0
  -25.8750  -25.3290   17.4070 C   0  0  0  0  0  2  0  0  0  0  0  0
  -25.9160  -26.8090   16.9680 C   0  0  0  0  0  2  0  0  0  0  0  0
  -26.5510  -27.6530   17.9360 O   0  0  0  0  0  0  0  0  0  0  0  0
  -25.6360  -30.6380   24.3460 C   0  0  0  0  0  0  0  0  0  0  0  0
  -25.7440  -28.4370   18.7380 C   0  0  0  0  0  0  0  0  0  0  0  0
  -23.7050  -30.7690   22.8110 C   0  0  0  0  0  3  0  0  0  0  0  0
  -24.1610  -30.0960   20.3990 C   0  0  0  0  0  0  0  0  0  0  0  0
  -26.0900  -30.6100   21.8980 C   0  0  0  0  0  2  0  0  0  0  0  0
  -25.5150  -29.8970   20.6940 C   0  0  0  0  0  0  0  0  0  0  0  0
  -26.3070  -29.0600   19.8760 C   0  0  0  0  0  3  0  0  0  0  0  0
  -24.3730  -28.6570   18.4620 C   0  0  0  0  0  3  0  0  0  0  0  0
  -23.5820  -29.4680   19.2890 C   0  0  0  0  0  3  0  0  0  0  0  0
  -23.3790  -31.0080   21.3130 C   0  0  0  0  0  2  0  0  0  0  0  0
  -25.1770  -30.6470   23.0640 N   0  0  0  0  0  0  0  0  0  0  0  0
  -24.8630  -30.7660   25.3050 O   0  0  0  0  0  0  0  0  0  0  0  0
  -22.8960  -29.5470   23.3000 C   0  0  0  0  0  0  0  0  0  0  0  0
  -21.5670  -29.5970   23.1100 N   0  0  0  0  0  0  0  0  0  0  0  0
  -23.4610  -28.5760   23.8110 O   0  0  0  0  0  0  0  0  0  0  0  0
  -21.1780  -30.4360   22.7040 H   0  0  0  0  0  0  0  0  0  0  0  0
  -18.1890  -28.4440   22.5540 C   0  0  0  0  0  0  0  0  0  0  0  0
  -20.6080  -28.5480   23.4590 C   0  0  0  0  0  3  0  0  0  0  0  0
  -20.8600  -27.2610   22.6420 C   0  0  0  0  0  2  0  0  0  0  0  0
  -20.0340  -27.1920   21.3540 C   0  0  0  0  0  2  0  0  0  0  0  0
  -18.5370  -27.2550   21.6750 C   0  0  0  0  0  2  0  0  0  0  0  0
  -19.1660  -29.0610   23.3800 C   0  0  0  0  0  0  0  0  0  0  0  0
  -18.8010  -30.1840   24.1530 C   0  0  0  0  0  3  0  0  0  0  0  0
  -17.4890  -30.6910   24.1110 C   0  0  0  0  0  3  0  0  0  0  0  0
  -16.5200  -30.0670   23.3050 C   0  0  0  0  0  3  0  0  0  0  0  0
  -16.8700  -28.9450   22.5340 C   0  0  0  0  0  3  0  0  0  0  0  0
  -27.1560  -30.4870   24.6660 C   0  0  0  0  0  3  0  0  0  0  0  0
  -27.5090  -31.5440   25.6220 N   0  0  0  0  0  0  0  0  0  0  0  0
  -28.1790  -32.6610   25.3080 C   0  0  0  0  0  0  0  0  0  0  0  0
  -28.6290  -32.8780   24.1790 O   0  0  0  0  0  0  0  0  0  0  0  0
  -27.1130  -31.4660   26.5480 H   0  0  0  0  0  0  0  0  0  0  0  0
  -27.3840  -34.8630   26.2310 C   0  0  0  0  0  1  0  0  0  0  0  0
  -28.3770  -33.7060   26.4240 C   0  0  0  0  0  3  0  0  0  0  0  0
  -30.7350  -33.2510   26.9270 C   0  0  0  0  0  1  0  0  0  0  0  0
  -29.7530  -34.2410   26.4910 N   0  0  0  0  0  0  0  0  0  0  0  0
  -29.8020  -35.0350   27.1220 H   0  0  0  0  0  0  0  0  0  0  0  0
  -27.5330  -29.0650   25.2350 C   0  0  1  0  0  0  0  0  0  0  0  0
  -26.6560  -28.6160   26.4270 C   0  0  0  0  0  1  0  0  0  0  0  0
  -27.4170  -27.9840   24.1340 C   0  0  0  0  0  1  0  0  0  0  0  0
  -29.0080  -29.0620   25.6990 C   0  0  0  0  0  1  0  0  0  0  0  0
  -28.7220  -20.9440   20.4980 C   0  0  0  0  0  2  0  0  0  0  0  0
  -29.6800  -20.2390   19.5080 C   0  0  0  0  0  3  0  0  0  0  0  0
  -30.8110  -21.0590   19.2610 O   0  0  0  0  0  0  0  0  0  0  0  0
  -31.2410  -21.2360   20.0940 H   0  0  0  0  0  0  0  0  0  0  0  0
  -30.1690  -18.8620   20.0070 C   0  0  0  0  0  2  0  0  0  0  0  0
  -31.1220  -18.1690   19.0170 C   0  0  0  0  0  2  0  0  0  0  0  0
  -31.9130  -17.1090   19.6780 N   0  0  0  0  0  4  0  0  0  0  0  0
  -31.2870  -16.4000   20.0190 H   0  0  0  0  0  0  0  0  0  0  0  0
  -32.3920  -17.5090   20.4700 H   0  0  0  0  0  0  0  0  0  0  0  0
  -32.9000  -16.4390   18.8080 C   0  0  0  0  0  2  0  0  0  0  0  0
  -33.6260  -15.3020   19.5490 C   0  0  0  0  0  2  0  0  0  0  0  0
  -32.9100  -12.9130   19.6420 C   0  0  0  0  0  0  0  0  0  0  0  0
  -32.5850  -10.7240   20.7140 C   0  0  0  0  0  2  0  0  0  0  0  0
  -31.7350   -9.7320   19.9060 C   0  0  0  0  0  2  0  0  0  0  0  0
  -30.2410   -9.9360   20.2040 C   0  0  0  0  0  2  0  0  0  0  0  0
  -29.8090  -11.4160   20.0500 C   0  0  0  0  0  3  0  0  0  0  0  0
  -30.7620  -12.3570   20.8190 C   0  0  0  0  0  2  0  0  0  0  0  0
  -32.1530  -12.0910   20.4040 N   0  0  0  0  0  0  0  0  0  0  0  0
  -33.8410  -12.5360   18.9240 O   0  0  0  0  0  0  0  0  0  0  0  0
  -32.7270  -14.2080   19.9300 N   0  0  0  0  0  0  0  0  0  0  0  0
  -32.0450  -14.3950   20.6510 H   0  0  0  0  0  0  0  0  0  0  0  0
  -27.6910  -12.7780   20.6000 C   0  0  0  0  0  0  0  0  0  0  0  0
  -26.4170  -12.3960   20.9290 C   0  0  0  0  0  0  0  0  0  0  0  0
  -26.4300  -10.9690   20.9610 C   0  0  0  0  0  0  0  0  0  0  0  0
  -28.4160  -11.6040   20.4560 N   0  0  0  0  0  0  0  0  0  0  0  0
  -27.6540  -10.5130   20.7290 N   0  0  0  0  0  0  0  0  0  0  0  0
  -25.3360  -10.0060   21.1460 C   0  0  0  0  0  0  0  0  0  0  0  0
  -25.3870   -9.0130   22.1490 C   0  0  0  0  0  3  0  0  0  0  0  0
  -24.3140   -8.1110   22.3170 C   0  0  0  0  0  3  0  0  0  0  0  0
  -23.1750   -8.1980   21.4830 C   0  0  0  0  0  0  0  0  0  0  0  0
  -23.1400   -9.1730   20.4710 C   0  0  0  0  0  3  0  0  0  0  0  0
  -24.2100  -10.0670   20.3000 C   0  0  0  0  0  3  0  0  0  0  0  0
  -22.0990   -7.3470   21.5560 O   0  0  0  0  0  0  0  0  0  0  0  0
  -21.7450   -6.7330   22.7310 C   0  0  0  0  0  0  0  0  0  0  0  0
  -21.3980   -7.4710   23.8840 C   0  0  0  0  0  3  0  0  0  0  0  0
  -20.9750   -6.8000   25.0480 C   0  0  0  0  0  3  0  0  0  0  0  0
  -20.8890   -5.3960   25.0600 C   0  0  0  0  0  0  0  0  0  0  0  0
  -21.2290   -4.6590   23.9120 C   0  0  0  0  0  3  0  0  0  0  0  0
  -21.6530   -5.3270   22.7500 C   0  0  0  0  0  0  0  0  0  0  0  0
  -21.9590   -4.6130   21.6400 F   0  0  0  0  0  0  0  0  0  0  0  0
  -20.4750   -4.7510   26.1760 F   0  0  0  0  0  0  0  0  0  0  0  0
  -25.2300  -13.2980   21.1080 C   0  0  0  0  0  0  0  0  0  0  0  0
  -24.2950  -12.9170   21.9730 N   0  0  0  0  0  0  0  0  0  0  0  0
  -25.1490  -14.3750   20.5180 O   0  0  0  0  0  0  0  0  0  0  0  0
  -24.3730  -12.0430   22.4730 H   0  0  0  0  0  0  0  0  0  0  0  0
  -23.4900  -13.5050   22.1350 H   0  0  0  0  0  0  0  0  0  0  0  0
  -28.2870  -14.0180   20.3920 N   0  0  0  0  0  0  0  0  0  0  0  0
  -27.7540  -14.8810   20.4210 H   0  0  0  0  0  0  0  0  0  0  0  0
  -29.2400  -14.1510   20.0770 H   0  0  0  0  0  0  0  0  0  0  0  0
  2  5  1  0
  3  1  1  0
  4  2  2  0
  4  6  1  0
  5 55  1  0
  5  1  2  0
  6  3  2  0
  8  6  1  0
  8  7  1  0
  9 12  1  0
  9  8  1  0
 10  9  1  0
 11  9  1  0
 13 12  1  0
 13 14  1  0
 14 16  1  0
 15 26  2  0
 16 21  1  0
 17 25  1  0
 17 27  1  0
 18 20  1  0
 18 24  1  0
 19 25  1  0
 20 19  1  0
 21 20  2  0
 22 16  2  0
 22 23  1  0
 23 18  2  0
 24 17  1  0
 25 15  1  0
 27 29  2  0
 28 27  1  0
 30 28  1  0
 31 36  1  0
 32 28  1  0
 33 32  1  0
 34 35  1  0
 34 33  1  0
 35 31  1  0
 36 32  1  0
 36 37  2  0
 38 37  1  0
 39 38  2  0
 40 31  2  0
 40 39  1  0
 41 15  1  0
 41 51  1  0
 41 42  1  0
 42 45  1  0
 43 42  1  0
 43 47  1  0
 44 43  2  0
 47 46  1  0
 47 49  1  0
 49 48  1  0
 49 50  1  0
 51 54  1  1
 51 52  1  0
 53 51  1  0
 56 59  1  0
 56 55  1  0
 57 56  1  0
 57 58  1  0
 60 61  1  0
 60 59  1  0
 61 62  1  0
 61 63  1  0
 64 65  1  0
 64 61  1  0
 65 74  1  0
 66 74  1  0
 66 72  1  0
 68 69  1  0
 68 67  1  0
 70 69  1  0
 70 79  1  0
 70 71  1  0
 72 67  1  0
 72 71  1  0
 73 66  2  0
 74 75  1  0
 76 77  2  0
 77 78  1  0
 77 96  1  0
 78 81  1  0
 79 76  1  0
 79 80  1  0
 80 78  2  0
 81 82  1  0
 82 83  2  0
 84 87  1  0
 84 83  1  0
 85 84  2  0
 86 85  1  0
 86 81  2  0
 87 88  1  0
 88 93  2  0
 88 89  1  0
 89 90  2  0
 90 91  1  0
 91 95  1  0
 92 91  2  0
 93 92  1  0
 94 93  1  0
 96 97  1  0
 97100  1  0
 97 99  1  0
 98 96  2  0
101102  1  0
101 76  1  0
103101  1  0
M  ISO  4  13 101  14 101  66 100  74 100
M  END
>  <TORSDO>  (65) 
F 28

>  <SCORE>  (65) 
-8.338

>  <name>  (65) 
67

>  <ligand_id>  (65) 
67

>  <original_smiles>  (65) 
[H]OC([H])(C([H])([H])c1c([H])c([H])c(C([H])(C([H])([H])[H])[N+]([H])([H])C([H])([H])C([H])([H])Oc2c([H])c([H])c3c(c2[H])C([H])([H])N(C(=O)C([H])(N([H])C(=O)C([H])(N([H])C([H])([H])[H])C([H])([H])[H])C(C([H])([H])[H])(C([H])([H])[H])C([H])([H])[H])C([H])(C(=O)N([H])C2([H])c4c([H])c([H])c([H])c([H])c4C([H])([H])C([H])([H])C2([H])[H])C3([H])[H])c([H])c1[H])C([H])([H])C([H])([H])[N+]([H])([H])C([H])([H])C([H])([H])N([H])C(=O)N1C([H])([H])C([H])([H])C([H])([H])C([H])(n2nc(-c3c([H])c([H])c(Oc4c([H])c([H])c(F)c([H])c4F)c([H])c3[H])c(C(=O)N([H])[H])c2N([H])[H])C1([H])[H]

>  <smiles>  (65) 
[H]OC([H])(C([H])([H])c1c([H])c([H])c(C([H])(C([H])([H])[H])[N+]([H])([H])C([H])([H])C([H])([H])Oc2c([H])c([H])c3c(c2[H])C([H])([H])N(C(=O)C([H])(N([H])C(=O)C([H])(N([H])C([H])([H])[H])C([H])([H])[H])C(C([H])([H])[H])(C([H])([H])[H])C([H])([H])[H])C([H])(C(=O)N([H])C2([H])c4c([H])c([H])c([H])c([H])c4C([H])([H])C([H])([H])C2([H])[H])C3([H])[H])c([H])c1[H])C([H])([H])C([H])([H])[N+]([H])([H])C([H])([H])C([H])([H])N([H])C(=O)N1C([H])([H])C([H])([H])C([H])([H])C([H])(n2nc(-c3c([H])c([H])c(Oc4c([H])c([H])c(F)c([H])c4F)c([H])c3[H])c(C(=O)N([H])[H])c2N([H])[H])C1([H])[H]

$$$$
68:0:0
     RDKit          3D

105113  0  0  1  0  0  0  0  0999 V2000
  -26.9730  -21.9880   17.6730 C   0  0  0  0  0  3  0  0  0  0  0  0
  -27.4380  -23.3150   17.6740 C   0  0  0  0  0  3  0  0  0  0  0  0
  -29.2580  -21.2080   17.4050 C   0  0  0  0  0  3  0  0  0  0  0  0
  -29.7480  -22.5350   17.4260 C   0  0  0  0  0  0  0  0  0  0  0  0
  -27.8770  -20.9210   17.5140 C   0  0  0  0  0  0  0  0  0  0  0  0
  -28.8140  -23.6100   17.5250 C   0  0  0  0  0  0  0  0  0  0  0  0
  -31.2360  -22.7510   17.3020 C   0  0  0  0  0  0  0  0  0  0  0  0
  -31.9980  -21.9770   18.0610 N   0  0  0  0  0  0  0  0  0  0  0  0
  -31.7210  -23.6110   16.5750 O   0  0  0  0  0  0  0  0  0  0  0  0
  -31.5830  -21.2900   18.6720 H   0  0  0  0  0  0  0  0  0  0  0  0
  -33.0030  -22.0730   18.0320 H   0  0  0  0  0  0  0  0  0  0  0  0
  -27.8670  -18.6940   16.2290 C   0  0  0  0  0  1  0  0  0  0  0  0
  -27.3410  -19.4880   17.4450 C   0  0  0  0  0  3  0  0  0  0  0  0
  -27.5110  -18.7640   18.7290 N   0  0  0  0  0  4  0  0  0  0  0  0
  -26.9960  -19.2740   19.4300 H   0  0  0  0  0  0  0  0  0  0  0  0
  -27.0720  -17.8610   18.6400 H   0  0  0  0  0  0  0  0  0  0  0  0
  -28.9050  -18.6040   19.2060 C   0  0  0  0  0  2  0  0  0  0  0  0
  -29.0450  -17.6440   20.4040 C   0  0  0  0  0  2  0  0  0  0  0  0
  -30.5220  -17.5100   20.8240 C   0  0  0  0  0  2  0  0  0  0  0  0
  -30.7950  -16.5110   21.9650 C   0  0  0  0  0  2  0  0  0  0  0  0
  -30.9860  -14.2920   20.8300 C   0  0  0  0  0  0  0  0  0  0  0  0
  -30.5880  -12.3990   19.3070 C   0  0  0  0  0  2  0  0  0  0  0  0
  -29.6620  -12.8610   18.1630 C   0  0  0  0  0  2  0  0  0  0  0  0
  -28.1790  -12.7410   18.5710 C   0  0  0  0  0  2  0  0  0  0  0  0
  -27.8820  -13.3610   19.9610 C   0  0  0  0  0  3  0  0  0  0  0  0
  -28.9130  -12.8740   21.0050 C   0  0  0  0  0  2  0  0  0  0  0  0
  -30.2590  -13.1940   20.4980 N   0  0  0  0  0  0  0  0  0  0  0  0
  -32.0890  -14.5550   20.3440 O   0  0  0  0  0  0  0  0  0  0  0  0
  -30.3560  -15.1530   21.6410 N   0  0  0  0  0  0  0  0  0  0  0  0
  -29.4680  -14.8460   22.0120 H   0  0  0  0  0  0  0  0  0  0  0  0
  -25.4510  -13.9640   20.5590 C   0  0  0  0  0  0  0  0  0  0  0  0
  -24.3700  -13.1900   20.8870 C   0  0  0  0  0  0  0  0  0  0  0  0
  -24.8390  -11.8410   20.8890 C   0  0  0  0  0  0  0  0  0  0  0  0
  -26.5100  -13.0860   20.3840 N   0  0  0  0  0  0  0  0  0  0  0  0
  -26.1420  -11.8060   20.6390 N   0  0  0  0  0  0  0  0  0  0  0  0
  -24.1140  -10.5770   21.0640 C   0  0  0  0  0  0  0  0  0  0  0  0
  -24.4900   -9.6380   22.0480 C   0  0  0  0  0  3  0  0  0  0  0  0
  -23.7660   -8.4370   22.2060 C   0  0  0  0  0  3  0  0  0  0  0  0
  -22.6510   -8.1670   21.3780 C   0  0  0  0  0  0  0  0  0  0  0  0
  -22.2920   -9.0950   20.3840 C   0  0  0  0  0  3  0  0  0  0  0  0
  -23.0190  -10.2880   20.2260 C   0  0  0  0  0  3  0  0  0  0  0  0
  -21.9020   -7.0160   21.4440 O   0  0  0  0  0  0  0  0  0  0  0  0
  -21.7390   -6.3290   22.6210 C   0  0  0  0  0  0  0  0  0  0  0  0
  -21.1420   -6.9240   23.7540 C   0  0  0  0  0  3  0  0  0  0  0  0
  -20.9300   -6.1620   24.9190 C   0  0  0  0  0  3  0  0  0  0  0  0
  -21.3050   -4.8050   24.9520 C   0  0  0  0  0  0  0  0  0  0  0  0
  -21.8960   -4.2100   23.8240 C   0  0  0  0  0  3  0  0  0  0  0  0
  -22.1090   -4.9700   22.6600 C   0  0  0  0  0  0  0  0  0  0  0  0
  -22.6580   -4.3850   21.5690 F   0  0  0  0  0  0  0  0  0  0  0  0
  -21.0930   -4.0700   26.0700 F   0  0  0  0  0  0  0  0  0  0  0  0
  -22.9620  -13.6640   21.0960 C   0  0  0  0  0  0  0  0  0  0  0  0
  -22.2040  -12.9780   21.9430 N   0  0  0  0  0  0  0  0  0  0  0  0
  -22.5410  -14.6810   20.5470 O   0  0  0  0  0  0  0  0  0  0  0  0
  -22.5570  -12.1600   22.4160 H   0  0  0  0  0  0  0  0  0  0  0  0
  -21.2600  -13.2850   22.1270 H   0  0  0  0  0  0  0  0  0  0  0  0
  -25.6210  -15.3330   20.3810 N   0  0  0  0  0  0  0  0  0  0  0  0
  -24.8630  -15.9940   20.5100 H   0  0  0  0  0  0  0  0  0  0  0  0
  -26.5180  -15.7650   20.2130 H   0  0  0  0  0  0  0  0  0  0  0  0
  -29.2000  -25.0880   17.4740 C   0  0  0  0  0  2  0  0  0  0  0  0
  -29.8400  -25.5230   18.7280 N   0  0  0  0  0  4  0  0  0  0  0  0
  -30.7340  -25.0710   18.8220 H   0  0  0  0  0  0  0  0  0  0  0  0
  -29.2640  -25.2080   19.4960 H   0  0  0  0  0  0  0  0  0  0  0  0
  -29.9980  -26.9910   18.8610 C   0  0  0  0  0  2  0  0  0  0  0  0
  -30.1990  -27.3830   20.3330 C   0  0  0  0  0  2  0  0  0  0  0  0
  -29.1230  -26.8230   21.0910 O   0  0  0  0  0  0  0  0  0  0  0  0
  -24.8810  -31.9840   23.5620 C   0  0  0  0  0  0  0  0  0  0  0  0
  -27.9330  -27.4980   20.9990 C   0  0  0  0  0  0  0  0  0  0  0  0
  -23.8550  -30.4200   21.9390 C   0  0  0  0  0  3  0  0  0  0  0  0
  -25.4720  -28.8500   20.7470 C   0  0  0  0  0  0  0  0  0  0  0  0
  -26.3670  -30.8840   21.8980 C   0  0  0  0  0  2  0  0  0  0  0  0
  -26.5570  -29.4780   21.3730 C   0  0  0  0  0  0  0  0  0  0  0  0
  -27.7900  -28.8070   21.5030 C   0  0  0  0  0  3  0  0  0  0  0  0
  -26.8280  -26.8600   20.3990 C   0  0  0  0  0  3  0  0  0  0  0  0
  -25.5990  -27.5350   20.2620 C   0  0  0  0  0  3  0  0  0  0  0  0
  -24.1960  -29.6520   20.6340 C   0  0  0  0  0  2  0  0  0  0  0  0
  -25.0460  -31.1150   22.5260 N   0  0  0  0  0  0  0  0  0  0  0  0
  -23.7540  -32.2470   24.0030 O   0  0  0  0  0  0  0  0  0  0  0  0
  -23.1700  -29.4460   22.9220 C   0  0  0  0  0  0  0  0  0  0  0  0
  -21.8870  -29.1440   22.6690 N   0  0  0  0  0  0  0  0  0  0  0  0
  -23.7960  -28.9550   23.8650 O   0  0  0  0  0  0  0  0  0  0  0  0
  -21.4410  -29.5950   21.8810 H   0  0  0  0  0  0  0  0  0  0  0  0
  -18.5760  -27.7160   22.8910 C   0  0  0  0  0  0  0  0  0  0  0  0
  -21.0530  -28.2170   23.4330 C   0  0  0  0  0  3  0  0  0  0  0  0
  -21.3330  -26.7520   23.0300 C   0  0  0  0  0  2  0  0  0  0  0  0
  -20.3950  -26.2380   21.9330 C   0  0  0  0  0  2  0  0  0  0  0  0
  -18.9360  -26.3270   22.3910 C   0  0  0  0  0  2  0  0  0  0  0  0
  -19.5720  -28.6080   23.3660 C   0  0  0  0  0  0  0  0  0  0  0  0
  -19.1890  -29.9010   23.7870 C   0  0  0  0  0  3  0  0  0  0  0  0
  -17.8420  -30.3030   23.7410 C   0  0  0  0  0  3  0  0  0  0  0  0
  -16.8570  -29.4100   23.2850 C   0  0  0  0  0  3  0  0  0  0  0  0
  -17.2250  -28.1180   22.8660 C   0  0  0  0  0  3  0  0  0  0  0  0
  -26.0950  -32.7080   24.2280 C   0  0  0  0  0  3  0  0  0  0  0  0
  -25.7170  -34.1120   24.4290 N   0  0  0  0  0  0  0  0  0  0  0  0
  -26.0680  -35.1160   23.6150 C   0  0  0  0  0  0  0  0  0  0  0  0
  -26.8140  -34.9630   22.6430 O   0  0  0  0  0  0  0  0  0  0  0  0
  -25.0620  -34.3040   25.1730 H   0  0  0  0  0  0  0  0  0  0  0  0
  -24.3050  -36.8030   23.0050 C   0  0  0  0  0  1  0  0  0  0  0  0
  -25.5010  -36.5140   23.9260 C   0  0  0  0  0  3  0  0  0  0  0  0
  -27.5380  -37.5490   24.8250 C   0  0  0  0  0  1  0  0  0  0  0  0
  -26.5020  -37.5970   23.7980 N   0  0  0  0  0  0  0  0  0  0  0  0
  -26.0530  -38.5080   23.8410 H   0  0  0  0  0  0  0  0  0  0  0  0
  -26.5430  -32.0480   25.5910 C   0  0  1  0  0  0  0  0  0  0  0  0
  -25.3710  -31.7740   26.5610 C   0  0  0  0  0  1  0  0  0  0  0  0
  -27.2680  -30.7060   25.3350 C   0  0  0  0  0  1  0  0  0  0  0  0
  -27.5550  -32.9690   26.3130 C   0  0  0  0  0  1  0  0  0  0  0  0
  1  2  1  0
  3  4  2  0
  3  5  1  0
  4  6  1  0
  5  1  2  0
  6  2  2  0
  7  4  1  0
  7  8  1  0
  8 10  1  0
  9  7  2  0
 11  8  1  0
 13 12  1  0
 13  5  1  0
 13 14  1  0
 14 17  1  0
 14 15  1  0
 16 14  1  0
 17 18  1  0
 18 19  1  0
 19 20  1  0
 21 29  1  0
 22 27  1  0
 23 24  1  0
 23 22  1  0
 25 24  1  0
 25 34  1  0
 25 26  1  0
 27 21  1  0
 27 26  1  0
 28 21  2  0
 29 20  1  0
 29 30  1  0
 31 32  2  0
 32 33  1  0
 32 51  1  0
 33 36  1  0
 34 31  1  0
 34 35  1  0
 35 33  2  0
 36 37  1  0
 37 38  2  0
 39 42  1  0
 39 38  1  0
 40 39  2  0
 41 40  1  0
 41 36  2  0
 42 43  1  0
 43 48  2  0
 43 44  1  0
 44 45  2  0
 45 46  1  0
 46 50  1  0
 47 46  2  0
 48 47  1  0
 49 48  1  0
 51 52  1  0
 52 55  1  0
 52 54  1  0
 53 51  2  0
 56 57  1  0
 56 31  1  0
 58 56  1  0
 59  6  1  0
 59 60  1  0
 60 61  1  0
 60 63  1  0
 60 62  1  0
 63 64  1  0
 64 65  1  0
 66 77  2  0
 67 65  1  0
 67 72  1  0
 68 76  1  0
 68 78  1  0
 69 71  1  0
 70 76  1  0
 71 72  2  0
 71 70  1  0
 73 67  2  0
 74 73  1  0
 74 69  2  0
 75 69  1  0
 75 68  1  0
 76 66  1  0
 78 80  2  0
 79 78  1  0
 81 79  1  0
 82 87  1  0
 83 79  1  0
 84 83  1  0
 85 86  1  0
 85 84  1  0
 86 82  1  0
 87 83  1  0
 87 88  2  0
 89 88  1  0
 90 89  2  0
 91 82  2  0
 91 90  1  0
 92 66  1  0
 92 93  1  0
 92102  1  0
 93 96  1  0
 94 98  1  0
 94 93  1  0
 95 94  2  0
 98 97  1  0
100101  1  0
100 98  1  0
100 99  1  0
102105  1  1
102103  1  0
104102  1  0
M  ISO  4  21 100  29 100  64 101  65 101
M  END
>  <TORSDO>  (66) 
F 27

>  <SCORE>  (66) 
-10.884

>  <name>  (66) 
68

>  <ligand_id>  (66) 
68

>  <original_smiles>  (66) 
[H]c1c([H])c([H])c2c(c1[H])C([H])([H])C([H])([H])C([H])([H])C2([H])N([H])C(=O)C1([H])N(C(=O)C([H])(N([H])C(=O)C([H])(N([H])C([H])([H])[H])C([H])([H])[H])C(C([H])([H])[H])(C([H])([H])[H])C([H])([H])[H])C([H])([H])c2c([H])c(OC([H])([H])C([H])([H])[N+]([H])([H])C([H])([H])c3c([H])c([H])c(C([H])(C([H])([H])[H])[N+]([H])([H])C([H])([H])C([H])([H])C([H])([H])C([H])([H])N([H])C(=O)N4C([H])([H])C([H])([H])C([H])([H])C([H])(n5nc(-c6c([H])c([H])c(Oc7c([H])c([H])c(F)c([H])c7F)c([H])c6[H])c(C(=O)N([H])[H])c5N([H])[H])C4([H])[H])c([H])c3C(=O)N([H])[H])c([H])c([H])c2C1([H])[H]

>  <smiles>  (66) 
[H]c1c([H])c([H])c2c(c1[H])C([H])([H])C([H])([H])C([H])([H])C2([H])N([H])C(=O)C1([H])N(C(=O)C([H])(N([H])C(=O)C([H])(N([H])C([H])([H])[H])C([H])([H])[H])C(C([H])([H])[H])(C([H])([H])[H])C([H])([H])[H])C([H])([H])c2c([H])c(OC([H])([H])C([H])([H])[N+]([H])([H])C([H])([H])c3c([H])c([H])c(C([H])(C([H])([H])[H])[N+]([H])([H])C([H])([H])C([H])([H])C([H])([H])C([H])([H])N([H])C(=O)N4C([H])([H])C([H])([H])C([H])([H])C([H])(n5nc(-c6c([H])c([H])c(Oc7c([H])c([H])c(F)c([H])c7F)c([H])c6[H])c(C(=O)N([H])[H])c5N([H])[H])C4([H])[H])c([H])c3C(=O)N([H])[H])c([H])c([H])c2C1([H])[H]

$$$$
69:0:0
     RDKit          3D

 92 99  0  0  1  0  0  0  0  0999 V2000
  -29.8610  -23.4890   17.1070 C   0  0  0  0  0  0  0  0  0  0  0  0
  -29.0640  -22.4330   16.8970 N   0  0  0  0  0  0  0  0  0  0  0  0
  -31.0830  -23.4390   16.9590 O   0  0  0  0  0  0  0  0  0  0  0  0
  -28.0680  -22.5520   17.0360 H   0  0  0  0  0  0  0  0  0  0  0  0
  -29.1240  -24.6760   17.4920 C   0  0  0  0  0  3  0  0  0  0  0  0
  -29.6870  -25.5840   18.3110 C   0  0  0  0  0  3  0  0  0  0  0  0
  -29.0350  -26.8840   18.7190 C   0  0  0  0  0  2  0  0  0  0  0  0
  -28.4560  -26.7890   20.0180 O   0  0  0  0  0  0  0  0  0  0  0  0
  -24.6370  -31.8820   23.2190 C   0  0  0  0  0  0  0  0  0  0  0  0
  -27.2750  -27.4750   20.1130 C   0  0  0  0  0  0  0  0  0  0  0  0
  -23.4210  -30.4770   21.5840 C   0  0  0  0  0  3  0  0  0  0  0  0
  -24.8670  -28.9330   20.1630 C   0  0  0  0  0  0  0  0  0  0  0  0
  -25.9400  -30.8440   21.3700 C   0  0  0  0  0  2  0  0  0  0  0  0
  -26.0250  -29.4690   20.7440 C   0  0  0  0  0  0  0  0  0  0  0  0
  -27.2320  -28.7430   20.7270 C   0  0  0  0  0  3  0  0  0  0  0  0
  -26.1020  -26.9300   19.5520 C   0  0  0  0  0  3  0  0  0  0  0  0
  -24.8960  -27.6540   19.5770 C   0  0  0  0  0  3  0  0  0  0  0  0
  -23.6270  -29.7930   20.2050 C   0  0  0  0  0  2  0  0  0  0  0  0
  -24.6840  -31.0850   22.1160 N   0  0  0  0  0  0  0  0  0  0  0  0
  -23.5600  -32.1530   23.7670 O   0  0  0  0  0  0  0  0  0  0  0  0
  -22.7790  -29.4560   22.5500 C   0  0  0  0  0  0  0  0  0  0  0  0
  -21.4530  -29.2730   22.4340 N   0  0  0  0  0  0  0  0  0  0  0  0
  -23.4690  -28.8310   23.3610 O   0  0  0  0  0  0  0  0  0  0  0  0
  -20.9570  -29.8290   21.7500 H   0  0  0  0  0  0  0  0  0  0  0  0
  -18.0860  -28.0730   22.9510 C   0  0  0  0  0  0  0  0  0  0  0  0
  -20.6440  -28.3370   23.2120 C   0  0  0  0  0  3  0  0  0  0  0  0
  -20.7470  -26.9040   22.6410 C   0  0  0  0  0  2  0  0  0  0  0  0
  -19.6420  -26.5750   21.6320 C   0  0  0  0  0  2  0  0  0  0  0  0
  -18.2630  -26.7210   22.2820 C   0  0  0  0  0  2  0  0  0  0  0  0
  -19.2050  -28.8380   23.3750 C   0  0  0  0  0  0  0  0  0  0  0  0
  -18.9880  -30.1040   23.9600 C   0  0  0  0  0  3  0  0  0  0  0  0
  -17.6830  -30.6060   24.1290 C   0  0  0  0  0  3  0  0  0  0  0  0
  -16.5780  -29.8370   23.7230 C   0  0  0  0  0  3  0  0  0  0  0  0
  -16.7800  -28.5740   23.1400 C   0  0  0  0  0  3  0  0  0  0  0  0
  -25.9270  -32.5150   23.8270 C   0  0  0  0  0  3  0  0  0  0  0  0
  -25.6160  -33.9090   24.1710 N   0  0  0  0  0  0  0  0  0  0  0  0
  -25.9360  -34.9670   23.4150 C   0  0  0  0  0  0  0  0  0  0  0  0
  -26.5960  -34.8730   22.3760 O   0  0  0  0  0  0  0  0  0  0  0  0
  -25.0290  -34.0550   24.9790 H   0  0  0  0  0  0  0  0  0  0  0  0
  -24.1930  -36.7500   23.0900 C   0  0  0  0  0  1  0  0  0  0  0  0
  -25.4450  -36.3490   23.8860 C   0  0  0  0  0  3  0  0  0  0  0  0
  -27.5890  -37.2370   24.6920 C   0  0  0  0  0  1  0  0  0  0  0  0
  -26.4700  -37.4080   23.7680 N   0  0  0  0  0  0  0  0  0  0  0  0
  -26.0630  -38.3240   23.9310 H   0  0  0  0  0  0  0  0  0  0  0  0
  -26.4700  -31.7340   25.0880 C   0  0  1  0  0  0  0  0  0  0  0  0
  -25.3960  -31.4820   26.1710 C   0  0  0  0  0  1  0  0  0  0  0  0
  -27.0530  -30.3650   24.6700 C   0  0  0  0  0  1  0  0  0  0  0  0
  -27.6280  -32.5270   25.7380 C   0  0  0  0  0  1  0  0  0  0  0  0
  -29.5300  -21.1280   16.4270 C   0  0  0  0  0  2  0  0  0  0  0  0
  -30.2360  -20.3160   17.5320 C   0  0  0  0  0  2  0  0  0  0  0  0
  -29.3060  -19.4030   18.3480 C   0  0  0  0  0  2  0  0  0  0  0  0
  -30.0290  -18.7750   19.5530 C   0  0  0  0  0  2  0  0  0  0  0  0
  -29.5850  -17.3390   19.8320 C   0  0  0  0  0  2  0  0  0  0  0  0
  -30.2670  -16.7500   21.0800 C   0  0  0  0  0  2  0  0  0  0  0  0
  -30.6720  -14.3700   20.5430 C   0  0  0  0  0  0  0  0  0  0  0  0
  -30.3430  -12.2600   19.3260 C   0  0  0  0  0  2  0  0  0  0  0  0
  -29.3980  -12.5290   18.1360 C   0  0  0  0  0  2  0  0  0  0  0  0
  -27.9190  -12.4270   18.5650 C   0  0  0  0  0  2  0  0  0  0  0  0
  -27.6120  -13.2210   19.8640 C   0  0  0  0  0  3  0  0  0  0  0  0
  -28.6660  -12.9140   20.9520 C   0  0  0  0  0  2  0  0  0  0  0  0
  -29.9980  -13.2050   20.3930 N   0  0  0  0  0  0  0  0  0  0  0  0
  -31.7670  -14.6040   20.0190 O   0  0  0  0  0  0  0  0  0  0  0  0
  -29.9800  -15.3260   21.1700 N   0  0  0  0  0  0  0  0  0  0  0  0
  -29.0780  -15.0600   21.5380 H   0  0  0  0  0  0  0  0  0  0  0  0
  -25.2170  -13.8410   20.5830 C   0  0  0  0  0  0  0  0  0  0  0  0
  -24.1460  -13.0740   20.9570 C   0  0  0  0  0  0  0  0  0  0  0  0
  -24.6020  -11.7200   20.9210 C   0  0  0  0  0  0  0  0  0  0  0  0
  -26.2570  -12.9560   20.3450 N   0  0  0  0  0  0  0  0  0  0  0  0
  -25.8890  -11.6750   20.6050 N   0  0  0  0  0  0  0  0  0  0  0  0
  -23.8720  -10.4590   21.1130 C   0  0  0  0  0  0  0  0  0  0  0  0
  -24.3260   -9.4730   22.0150 C   0  0  0  0  0  3  0  0  0  0  0  0
  -23.6000   -8.2760   22.1950 C   0  0  0  0  0  3  0  0  0  0  0  0
  -22.4030   -8.0580   21.4710 C   0  0  0  0  0  0  0  0  0  0  0  0
  -21.9680   -9.0330   20.5560 C   0  0  0  0  0  3  0  0  0  0  0  0
  -22.6960  -10.2200   20.3740 C   0  0  0  0  0  3  0  0  0  0  0  0
  -21.6420   -6.9170   21.5640 O   0  0  0  0  0  0  0  0  0  0  0  0
  -21.6450   -6.1380   22.6930 C   0  0  0  0  0  0  0  0  0  0  0  0
  -21.3090   -6.6630   23.9590 C   0  0  0  0  0  3  0  0  0  0  0  0
  -21.2570   -5.8120   25.0820 C   0  0  0  0  0  3  0  0  0  0  0  0
  -21.5320   -4.4390   24.9400 C   0  0  0  0  0  0  0  0  0  0  0  0
  -21.8610   -3.9150   23.6780 C   0  0  0  0  0  3  0  0  0  0  0  0
  -21.9150   -4.7620   22.5580 C   0  0  0  0  0  0  0  0  0  0  0  0
  -22.2120   -4.2460   21.3400 F   0  0  0  0  0  0  0  0  0  0  0  0
  -21.4740   -3.6210   26.0170 F   0  0  0  0  0  0  0  0  0  0  0  0
  -22.7510  -13.5570   21.2400 C   0  0  0  0  0  0  0  0  0  0  0  0
  -22.0240  -12.8620   22.1080 N   0  0  0  0  0  0  0  0  0  0  0  0
  -22.3120  -14.5850   20.7230 O   0  0  0  0  0  0  0  0  0  0  0  0
  -22.3910  -12.0320   22.5470 H   0  0  0  0  0  0  0  0  0  0  0  0
  -21.0910  -13.1680   22.3430 H   0  0  0  0  0  0  0  0  0  0  0  0
  -25.3930  -15.2090   20.4080 N   0  0  0  0  0  0  0  0  0  0  0  0
  -24.6410  -15.8810   20.5120 H   0  0  0  0  0  0  0  0  0  0  0  0
  -26.2600  -15.6330   20.0980 H   0  0  0  0  0  0  0  0  0  0  0  0
  1  5  1  0
  2  4  1  0
  2  1  1  0
  3  1  2  0
  5  6  2  0
  6  7  1  0
  7  8  1  0
  8 10  1  0
  9 20  2  0
 10 15  1  0
 11 19  1  0
 11 21  1  0
 12 18  1  0
 12 14  1  0
 13 19  1  0
 14 13  1  0
 15 14  2  0
 16 17  1  0
 16 10  2  0
 17 12  2  0
 18 11  1  0
 19  9  1  0
 21 23  2  0
 22 21  1  0
 24 22  1  0
 25 34  2  0
 25 30  1  0
 26 22  1  0
 26 30  1  0
 27 26  1  0
 28 29  1  0
 28 27  1  0
 29 25  1  0
 30 31  2  0
 31 32  1  0
 33 32  2  0
 34 33  1  0
 35  9  1  0
 35 36  1  0
 35 45  1  0
 36 39  1  0
 37 41  1  0
 37 36  1  0
 38 37  2  0
 41 40  1  0
 43 41  1  0
 43 44  1  0
 43 42  1  0
 45 48  1  1
 45 46  1  0
 47 45  1  0
 49  2  1  0
 49 50  1  0
 50 51  1  0
 51 52  1  0
 52 53  1  0
 53 54  1  0
 54 63  1  0
 55 63  1  0
 56 61  1  0
 57 58  1  0
 57 56  1  0
 59 58  1  0
 59 68  1  0
 59 60  1  0
 61 55  1  0
 61 60  1  0
 62 55  2  0
 63 64  1  0
 65 66  2  0
 66 85  1  0
 67 66  1  0
 67 70  1  0
 68 65  1  0
 68 69  1  0
 69 67  2  0
 70 71  1  0
 71 72  2  0
 73 76  1  0
 73 72  1  0
 74 73  2  0
 75 74  1  0
 75 70  2  0
 76 77  1  0
 77 78  1  0
 78 79  2  0
 80 79  1  0
 80 84  1  0
 81 80  2  0
 82 77  2  0
 82 81  1  0
 83 82  1  0
 85 86  1  0
 86 89  1  0
 86 88  1  0
 87 85  2  0
 90 91  1  0
 90 65  1  0
 92 90  1  0
M  ISO  4   7 101   8 101  55 100  63 100
M  END
>  <TORSDO>  (67) 
F 24

>  <SCORE>  (67) 
-12.207

>  <name>  (67) 
69

>  <ligand_id>  (67) 
69

>  <original_smiles>  (67) 
[H]C(C(=O)N([H])C([H])([H])C([H])([H])C([H])([H])C([H])([H])C([H])([H])C([H])([H])N([H])C(=O)N1C([H])([H])C([H])([H])C([H])([H])C([H])(n2nc(-c3c([H])c([H])c(Oc4c([H])c([H])c(F)c([H])c4F)c([H])c3[H])c(C(=O)N([H])[H])c2N([H])[H])C1([H])[H])=C([H])C([H])([H])Oc1c([H])c([H])c2c(c1[H])C([H])([H])N(C(=O)C([H])(N([H])C(=O)C([H])(N([H])C([H])([H])[H])C([H])([H])[H])C(C([H])([H])[H])(C([H])([H])[H])C([H])([H])[H])C([H])(C(=O)N([H])C1([H])c3c([H])c([H])c([H])c([H])c3C([H])([H])C([H])([H])C1([H])[H])C2([H])[H]

>  <smiles>  (67) 
[H]C(C(=O)N([H])C([H])([H])C([H])([H])C([H])([H])C([H])([H])C([H])([H])C([H])([H])N([H])C(=O)N1C([H])([H])C([H])([H])C([H])([H])C([H])(n2nc(-c3c([H])c([H])c(Oc4c([H])c([H])c(F)c([H])c4F)c([H])c3[H])c(C(=O)N([H])[H])c2N([H])[H])C1([H])[H])=C([H])C([H])([H])Oc1c([H])c([H])c2c(c1[H])C([H])([H])N(C(=O)C([H])(N([H])C(=O)C([H])(N([H])C([H])([H])[H])C([H])([H])[H])C(C([H])([H])[H])(C([H])([H])[H])C([H])([H])[H])C([H])(C(=O)N([H])C1([H])c3c([H])c([H])c([H])c([H])c3C([H])([H])C([H])([H])C1([H])[H])C2([H])[H]

$$$$
70:0:0
     RDKit          3D

 98 95  0  0  1  0  0  0  0  0999 V2000
  -20.5930  -26.7570   21.4960 C   0  0  0  0  0  2  0  0  0  0  0  0
  -20.7230  -26.1120   19.5720 C   0  0  0  0  0  2  0  0  0  0  0  0
  -21.3070  -27.3860   22.4220 C   0  0  0  0  0  1  0  0  0  0  0  0
  -21.1110  -25.4810   19.7440 C   0  0  0  0  0  1  0  0  0  0  0  0
  -21.6660  -25.9840   18.3560 C   0  0  0  0  0  1  0  0  0  0  0  0
  -21.2220  -26.1240   21.9020 C   0  0  0  0  0  2  0  0  0  0  0  0
  -21.8160  -25.1060   23.3760 C   0  0  0  0  0  0  0  0  0  0  0  0
  -23.2550  -24.4930   23.6470 N   0  0  0  0  0  0  0  0  0  0  0  0
  -21.0100  -24.9620   24.3000 O   0  0  0  0  0  0  0  0  0  0  0  0
  -23.2110  -24.0560   24.5650 H   0  0  0  0  0  0  0  0  0  0  0  0
  -25.0390  -24.6670   23.2330 C   0  0  0  0  0  1  0  0  0  0  0  0
  -26.5020  -23.7210   22.2920 C   0  0  0  0  0  1  0  0  0  0  0  0
  -27.0570  -22.5860   21.0750 O   0  0  0  0  0  0  0  0  0  0  0  0
  -28.4100  -26.4060   18.2920 C   0  0  0  0  0  0  0  0  0  0  0  0
  -28.2790  -21.8690   20.9840 C   0  0  0  0  0  3  0  0  0  0  0  0
  -28.1740  -24.0070   17.2480 C   0  0  0  0  0  3  0  0  0  0  0  0
  -29.3480  -22.1590   18.5350 C   0  0  0  0  0  3  0  0  0  0  0  0
  -29.7400  -24.5490   19.1960 C   0  0  0  0  0  2  0  0  0  0  0  0
  -29.5590  -23.1010   19.5580 C   0  0  0  0  0  3  0  0  0  0  0  0
  -29.3120  -22.7720   20.8920 C   0  0  0  0  0  2  0  0  0  0  0  0
  -28.3280  -20.6950   20.1750 C   0  0  0  0  0  3  0  0  0  0  0  0
  -28.8710  -20.8580   18.8750 C   0  0  0  0  0  3  0  0  0  0  0  0
  -29.1520  -22.7950   17.1550 C   0  0  0  0  0  2  0  0  0  0  0  0
  -28.6980  -25.0470   18.2680 N   0  0  0  0  0  0  0  0  0  0  0  0
  -27.8140  -26.9510   17.3550 O   0  0  0  0  0  0  0  0  0  0  0  0
  -26.9170  -23.1120   17.6850 C   0  0  0  0  0  0  0  0  0  0  0  0
  -25.5990  -22.9650   17.6740 N   0  0  0  0  0  0  0  0  0  0  0  0
  -26.7950  -22.4390   18.5930 O   0  0  0  0  0  0  0  0  0  0  0  0
  -25.5180  -22.2430   18.3770 H   0  0  0  0  0  0  0  0  0  0  0  0
  -22.2990  -21.9360   14.2270 C   0  0  0  0  0  3  0  0  0  0  0  0
  -24.2010  -23.4010   17.2940 C   0  0  0  0  0  1  0  0  0  0  0  0
  -24.7470  -21.0260   17.7440 C   0  0  0  0  0 15  0  0  0  0  0  0
  -23.8860  -19.2470   16.4460 C   0  0  0  0  0 15  0  0  0  0  0  0
  -22.4790  -19.8890   14.6640 C   0  0  0  0  0 15  0  0  0  0  0  0
  -22.8850  -23.4410   15.0720 C   0  0  0  0  0  3  0  0  0  0  0  0
  -23.2300  -24.3210   13.9370 C   0  0  0  0  0  3  0  0  0  0  0  0
  -23.2360  -24.0450   12.5230 C   0  0  0  0  0  3  0  0  0  0  0  0
  -22.6780  -22.8960   11.9570 C   0  0  0  0  0  3  0  0  0  0  0  0
  -22.1840  -21.9050   12.8070 C   0  0  0  0  0  3  0  0  0  0  0  0
  -28.8420  -27.3920   19.4570 C   0  0  0  0  0  3  0  0  0  0  0  0
  -30.1810  -27.8790   19.1060 N   0  0  0  0  0  0  0  0  0  0  0  0
  -31.1760  -28.0850   19.9750 C   0  0  0  0  0  0  0  0  0  0  0  0
  -31.0560  -27.8810   21.1850 O   0  0  0  0  0  0  0  0  0  0  0  0
  -30.3670  -28.0080   18.1220 H   0  0  0  0  0  0  0  0  0  0  0  0
  -33.5780  -27.4860   19.5430 C   0  0  0  0  0  1  0  0  0  0  0  0
  -32.5140  -28.5860   19.4050 C   0  0  0  0  0  3  0  0  0  0  0  0
  -32.1970  -31.0030   19.7170 C   0  0  0  0  0  1  0  0  0  0  0  0
  -32.9990  -29.8280   20.0420 N   0  0  0  0  0  0  0  0  0  0  0  0
  -33.9570  -30.0200   19.7640 H   0  0  0  0  0  0  0  0  0  0  0  0
  -27.9350  -28.6740   19.7610 C   0  0  1  0  0  0  0  0  0  0  0  0
  -27.6060  -29.5470   18.5150 C   0  0  0  0  0  1  0  0  0  0  0  0
  -26.6570  -28.3750   20.5630 C   0  0  0  0  0  1  0  0  0  0  0  0
  -28.6770  -29.6130   20.7390 C   0  0  0  0  0  1  0  0  0  0  0  0
  -23.3730  -26.0460   17.5470 C   0  0  0  0  0  2  0  0  0  0  0  0
  -24.2090  -26.7930   16.3400 N   0  0  0  0  0  0  0  0  0  0  0  0
  -24.1020  -25.2060   18.0780 O   0  0  0  0  0  1  0  0  0  0  0  0
  -23.5550  -27.4380   15.9120 H   0  0  0  0  0  0  0  0  0  0  0  0
  -25.8880  -26.9810   15.4310 C   0  0  0  0  0  1  0  0  0  0  0  0
  -27.0990  -26.5010   13.7680 C   0  0  0  0  0 15  0  0  0  0  0  0
  -27.1840  -25.7560   11.7920 C   0  0  0  0  0  1  0  0  0  0  0  0
  -24.8690  -25.0490    9.2960 C   0  0  0  0  0  0  0  0  0  0  0  0
  -23.5000  -23.6140    7.3510 C   0  0  0  0  0  2  0  0  0  0  0  0
  -23.5850  -22.0490    7.4550 C   0  0  0  0  0  2  0  0  0  0  0  0
  -24.9920  -21.5450    7.0910 C   0  0  0  0  0  2  0  0  0  0  0  0
  -26.0320  -22.5350    7.6510 C   0  0  0  0  0  3  0  0  0  0  0  0
  -25.7990  -23.9650    7.1920 C   0  0  0  0  0  2  0  0  0  0  0  0
  -24.7080  -24.3230    8.0360 N   0  0  0  0  0  0  0  0  0  0  0  0
  -23.6850  -25.4850    9.4700 O   0  0  0  0  0  0  0  0  0  0  0  0
  -26.2200  -25.1480   10.2490 N   0  0  0  0  0  0  0  0  0  0  0  0
  -26.8920  -24.5860    9.7380 H   0  0  0  0  0  0  0  0  0  0  0  0
  -28.1810  -22.8120    6.4180 C   0  0  0  0  0  0  0  0  0  0  0  0
  -29.3870  -22.2000    6.5590 C   0  0  0  0  0  0  0  0  0  0  0  0
  -29.2230  -21.2340    7.5990 C   0  0  0  0  0  0  0  0  0  0  0  0
  -27.3890  -22.2400    7.3890 N   0  0  0  0  0  0  0  0  0  0  0  0
  -27.9790  -21.2190    8.0390 N   0  0  0  0  0  0  0  0  0  0  0  0
  -30.1920  -20.3790    8.2710 C   0  0  0  0  0  0  0  0  0  0  0  0
  -30.6260  -19.1630    7.7000 C   0  0  0  0  0  3  0  0  0  0  0  0
  -31.5740  -18.3670    8.3750 C   0  0  0  0  0  3  0  0  0  0  0  0
  -32.0920  -18.7900    9.6220 C   0  0  0  0  0  0  0  0  0  0  0  0
  -31.6310  -19.9890   10.1940 C   0  0  0  0  0  3  0  0  0  0  0  0
  -30.6830  -20.7780    9.5260 C   0  0  0  0  0  3  0  0  0  0  0  0
  -33.0000  -18.0740   10.3600 O   0  0  0  0  0  0  0  0  0  0  0  0
  -34.2470  -17.7820    9.8710 C   0  0  0  0  0  0  0  0  0  0  0  0
  -34.9650  -16.6420   10.2910 C   0  0  0  0  0  3  0  0  0  0  0  0
  -36.2130  -16.3430    9.7080 C   0  0  0  0  0  3  0  0  0  0  0  0
  -36.7380  -17.1770    8.7020 C   0  0  0  0  0  0  0  0  0  0  0  0
  -36.0210  -18.3100    8.2810 C   0  0  0  0  0  3  0  0  0  0  0  0
  -34.7780  -18.6100    8.8620 C   0  0  0  0  0  0  0  0  0  0  0  0
  -34.0790  -19.6920    8.4400 F   0  0  0  0  0  0  0  0  0  0  0  0
  -37.9330  -16.8870    8.1360 F   0  0  0  0  0  0  0  0  0  0  0  0
  -30.6470  -22.5810    5.8500 C   0  0  0  0  0  0  0  0  0  0  0  0
  -31.5590  -21.6340    5.6790 N   0  0  0  0  0  0  0  0  0  0  0  0
  -30.8050  -23.7190    5.4070 O   0  0  0  0  0  0  0  0  0  0  0  0
  -31.4120  -20.6980    6.0280 H   0  0  0  0  0  0  0  0  0  0  0  0
  -32.4170  -21.8510    5.1940 H   0  0  0  0  0  0  0  0  0  0  0  0
  -27.7010  -23.8180    5.5790 N   0  0  0  0  0  0  0  0  0  0  0  0
  -28.3930  -24.3200    5.0330 H   0  0  0  0  0  0  0  0  0  0  0  0
  -26.9460  -24.4260    5.8680 H   0  0  0  0  0  0  0  0  0  0  0  0
  1  6  1  0
  1  3  1  0
  2  4  1  0
  5  2  1  0
  6  7  1  0
  7  8  1  0
  7  9  2  0
  8 10  1  0
 11  8  1  0
 13 12  1  0
 15 13  1  0
 16 26  1  0
 16 24  1  0
 17 23  1  0
 17 22  1  0
 17 19  1  0
 19 18  1  0
 19 20  1  0
 20 15  1  0
 21 15  1  0
 22 21  2  0
 23 16  1  0
 24 14  1  0
 24 18  1  0
 25 14  2  0
 26 28  2  0
 27 26  1  0
 27 29  1  0
 30 35  1  0
 31 27  1  0
 36 35  2  0
 37 36  1  0
 38 37  2  0
 38 39  1  0
 39 30  2  0
 40 14  1  0
 40 50  1  0
 41 40  1  0
 41 42  1  0
 42 43  2  0
 44 41  1  0
 46 45  1  0
 46 42  1  0
 46 48  1  0
 47 48  1  0
 49 48  1  0
 50 52  1  1
 50 53  1  0
 51 50  1  0
 54 56  1  0
 55 54  1  0
 57 55  1  0
 58 55  1  0
 61 68  2  0
 61 69  1  0
 62 63  1  0
 62 67  1  0
 64 63  1  0
 65 64  1  0
 66 65  1  0
 66 67  1  0
 67 61  1  0
 69 60  1  0
 70 69  1  0
 71 72  2  0
 71 74  1  0
 72 73  1  0
 73 75  2  0
 73 76  1  0
 74 65  1  0
 74 75  1  0
 76 81  1  0
 77 76  2  0
 77 78  1  0
 78 79  2  0
 79 80  1  0
 79 82  1  0
 81 80  2  0
 83 84  1  0
 83 82  1  0
 85 84  2  0
 86 85  1  0
 87 86  2  0
 87 88  1  0
 88 83  2  0
 89 88  1  0
 90 86  1  0
 91 72  1  0
 92 91  1  0
 92 94  1  0
 93 91  2  0
 95 92  1  0
 96 98  1  0
 96 71  1  0
 97 96  1  0
M  ISO  4  12 101  13 101  61 100  69 100
M  END
>  <TORSDO>  (68) 
F 23

>  <SCORE>  (68) 
11.544

>  <name>  (68) 
70

>  <ligand_id>  (68) 
70

>  <original_smiles>  (68) 
[H]c1c([H])c(C(=O)N([H])C([H])([H])C([H])([H])Oc2c([H])c([H])c3c(c2[H])C([H])([H])N(C(=O)C([H])(N([H])C(=O)C([H])(N([H])C([H])([H])[H])C([H])([H])[H])C(C([H])([H])[H])(C([H])([H])[H])C([H])([H])[H])C([H])(C(=O)N([H])C2([H])c4c([H])c([H])c([H])c([H])c4C([H])([H])C([H])([H])C2([H])[H])C3([H])[H])c([H])c(C(=O)N([H])C([H])([H])C([H])([H])C([H])([H])N([H])C(=O)N2C([H])([H])C([H])([H])C([H])([H])C([H])(n3nc(-c4c([H])c([H])c(Oc5c([H])c([H])c(F)c([H])c5F)c([H])c4[H])c(C(=O)N([H])[H])c3N([H])[H])C2([H])[H])c1[H]

>  <smiles>  (68) 
[H]c1c([H])c(C(=O)N([H])C([H])([H])C([H])([H])Oc2c([H])c([H])c3c(c2[H])C([H])([H])N(C(=O)C([H])(N([H])C(=O)C([H])(N([H])C([H])([H])[H])C([H])([H])[H])C(C([H])([H])[H])(C([H])([H])[H])C([H])([H])[H])C([H])(C(=O)N([H])C2([H])c4c([H])c([H])c([H])c([H])c4C([H])([H])C([H])([H])C2([H])[H])C3([H])[H])c([H])c(C(=O)N([H])C([H])([H])C([H])([H])C([H])([H])N([H])C(=O)N2C([H])([H])C([H])([H])C([H])([H])C([H])(n3nc(-c4c([H])c([H])c(Oc5c([H])c([H])c(F)c([H])c5F)c([H])c4[H])c(C(=O)N([H])[H])c3N([H])[H])C2([H])[H])c1[H]

$$$$
71:0:0
     RDKit          3D

100109  0  0  1  0  0  0  0  0999 V2000
  -26.1360  -24.0450   20.7620 C   0  0  0  0  0  0  0  0  0  0  0  0
  -25.2010  -25.0950   19.6750 C   0  0  0  0  0  0  0  0  0  0  0  0
  -28.3330  -23.9140   18.7720 C   0  0  0  0  0  3  0  0  0  0  0  0
  -27.6820  -23.3700   20.2490 C   0  0  0  0  0  0  0  0  0  0  0  0
  -25.9210  -25.5180   18.0660 C   0  0  0  0  0  0  0  0  0  0  0  0
  -27.4870  -24.9090   17.6730 C   0  0  0  0  0  0  0  0  0  0  0  0
  -28.1450  -21.8860   20.8440 C   0  0  0  0  0  0  0  0  0  0  0  0
  -28.5970  -20.6500   20.2000 N   0  0  0  0  0  0  0  0  0  0  0  0
  -27.9340  -21.7740   22.0460 O   0  0  0  0  0  0  0  0  0  0  0  0
  -28.6630  -20.6460   19.1810 H   0  0  0  0  0  0  0  0  0  0  0  0
  -28.9080  -19.1710   20.8220 C   0  0  0  0  0  3  0  0  0  0  0  0
  -29.7270  -17.8390   20.1300 C   0  0  0  0  0  3  0  0  0  0  0  0
  -30.6280  -15.2000   20.3020 C   0  0  0  0  0  0  0  0  0  0  0  0
  -30.6480  -12.8480   19.3360 C   0  0  0  0  0  2  0  0  0  0  0  0
  -29.6960  -12.7560   18.1140 C   0  0  0  0  0  2  0  0  0  0  0  0
  -28.2500  -12.4940   18.5590 C   0  0  0  0  0  2  0  0  0  0  0  0
  -27.8240  -13.4400   19.7060 C   0  0  0  0  0  3  0  0  0  0  0  0
  -28.8630  -13.4850   20.8480 C   0  0  0  0  0  2  0  0  0  0  0  0
  -30.1350  -13.9010   20.2670 N   0  0  0  0  0  0  0  0  0  0  0  0
  -31.7810  -15.3510   19.8650 O   0  0  0  0  0  0  0  0  0  0  0  0
  -29.7760  -16.3140   20.6120 N   0  0  0  0  0  0  0  0  0  0  0  0
  -28.9150  -15.9910   21.0500 H   0  0  0  0  0  0  0  0  0  0  0  0
  -25.4530  -14.0230   20.4730 C   0  0  0  0  0  0  0  0  0  0  0  0
  -24.3880  -13.2460   20.8370 C   0  0  0  0  0  0  0  0  0  0  0  0
  -24.8500  -11.8960   20.7870 C   0  0  0  0  0  0  0  0  0  0  0  0
  -26.4890  -13.1440   20.2070 N   0  0  0  0  0  0  0  0  0  0  0  0
  -26.1370  -11.8600   20.4650 N   0  0  0  0  0  0  0  0  0  0  0  0
  -24.1250  -10.6320   20.9680 C   0  0  0  0  0  0  0  0  0  0  0  0
  -24.5170   -9.6900   21.9430 C   0  0  0  0  0  3  0  0  0  0  0  0
  -23.7930   -8.4900   22.1110 C   0  0  0  0  0  3  0  0  0  0  0  0
  -22.6620   -8.2260   21.3020 C   0  0  0  0  0  0  0  0  0  0  0  0
  -22.2870   -9.1590   20.3200 C   0  0  0  0  0  3  0  0  0  0  0  0
  -23.0130  -10.3510   20.1510 C   0  0  0  0  0  3  0  0  0  0  0  0
  -21.9140   -7.0770   21.3770 O   0  0  0  0  0  0  0  0  0  0  0  0
  -21.7530   -6.3960   22.5570 C   0  0  0  0  0  0  0  0  0  0  0  0
  -21.2020   -7.0100   23.7030 C   0  0  0  0  0  3  0  0  0  0  0  0
  -20.9890   -6.2530   24.8720 C   0  0  0  0  0  3  0  0  0  0  0  0
  -21.3210   -4.8850   24.8960 C   0  0  0  0  0  0  0  0  0  0  0  0
  -21.8680   -4.2720   23.7550 C   0  0  0  0  0  3  0  0  0  0  0  0
  -22.0790   -5.0250   22.5870 C   0  0  0  0  0  0  0  0  0  0  0  0
  -22.5840   -4.4260   21.4820 F   0  0  0  0  0  0  0  0  0  0  0  0
  -21.1110   -4.1550   26.0170 F   0  0  0  0  0  0  0  0  0  0  0  0
  -22.9930  -13.7230   21.1200 C   0  0  0  0  0  0  0  0  0  0  0  0
  -22.2730  -13.0230   21.9880 N   0  0  0  0  0  0  0  0  0  0  0  0
  -22.5520  -14.7530   20.6110 O   0  0  0  0  0  0  0  0  0  0  0  0
  -22.6440  -12.1910   22.4200 H   0  0  0  0  0  0  0  0  0  0  0  0
  -21.3370  -13.3210   22.2220 H   0  0  0  0  0  0  0  0  0  0  0  0
  -25.6200  -15.3990   20.3220 N   0  0  0  0  0  0  0  0  0  0  0  0
  -24.8480  -16.0410   20.4660 H   0  0  0  0  0  0  0  0  0  0  0  0
  -26.4630  -15.8590   20.0010 H   0  0  0  0  0  0  0  0  0  0  0  0
  -28.2250  -25.2810   15.0760 C   0  0  0  0  0  1  0  0  0  0  0  0
  -27.6750  -24.4320   16.2190 C   0  0  0  0  0  2  0  0  0  0  0  0
  -25.0710  -26.1850   16.9570 C   0  0  0  0  0  2  0  0  0  0  0  0
  -23.6660  -25.5970   17.0210 C   0  0  0  0  0  2  0  0  0  0  0  0
  -23.7540  -24.1120   17.0970 N   0  0  0  0  0  4  0  0  0  0  0  0
  -24.1690  -23.8040   16.2380 H   0  0  0  0  0  0  0  0  0  0  0  0
  -22.7790  -23.8530   17.0440 H   0  0  0  0  0  0  0  0  0  0  0  0
  -24.2980  -23.3950   18.3490 C   0  0  0  0  0  2  0  0  0  0  0  0
  -25.8710  -23.4690   18.9340 C   0  0  0  0  0  3  0  0  0  0  0  0
  -27.3590  -25.7480   19.8900 O   0  0  0  0  0  1  0  0  0  0  0  0
  -24.7690  -32.1160   23.6270 C   0  0  0  0  0  0  0  0  0  0  0  0
  -27.0410  -27.2790   20.2060 C   0  0  0  0  0  3  0  0  0  0  0  0
  -23.5830  -30.8000   21.9700 C   0  0  0  0  0  3  0  0  0  0  0  0
  -24.9850  -29.2960   20.5160 C   0  0  0  0  0  0  0  0  0  0  0  0
  -26.1860  -30.8690   21.9260 C   0  0  0  0  0  2  0  0  0  0  0  0
  -26.1840  -29.5060   21.2280 C   0  0  0  0  0  0  0  0  0  0  0  0
  -27.1780  -28.3730   21.2150 C   0  0  0  0  0  2  0  0  0  0  0  0
  -26.3040  -27.9550   19.2610 C   0  0  0  0  0  2  0  0  0  0  0  0
  -24.9930  -28.2050   19.7010 C   0  0  0  0  0  2  0  0  0  0  0  0
  -23.8220  -30.2690   20.5590 C   0  0  0  0  0  2  0  0  0  0  0  0
  -24.8720  -31.2860   22.5480 N   0  0  0  0  0  0  0  0  0  0  0  0
  -23.6890  -32.4250   24.1490 O   0  0  0  0  0  0  0  0  0  0  0  0
  -22.9030  -29.7120   22.8470 C   0  0  0  0  0  0  0  0  0  0  0  0
  -21.5940  -29.4810   22.6600 N   0  0  0  0  0  0  0  0  0  0  0  0
  -23.5450  -29.0870   23.7030 O   0  0  0  0  0  0  0  0  0  0  0  0
  -21.0910  -30.0160   21.9650 H   0  0  0  0  0  0  0  0  0  0  0  0
  -18.2770  -28.0430   22.8920 C   0  0  0  0  0  0  0  0  0  0  0  0
  -20.7780  -28.4970   23.3800 C   0  0  0  0  0  3  0  0  0  0  0  0
  -21.0370  -27.0630   22.8630 C   0  0  0  0  0  2  0  0  0  0  0  0
  -20.0560  -26.6290   21.7700 C   0  0  0  0  0  2  0  0  0  0  0  0
  -18.6130  -26.6900   22.2850 C   0  0  0  0  0  2  0  0  0  0  0  0
  -19.2980  -28.8980   23.3870 C   0  0  0  0  0  0  0  0  0  0  0  0
  -18.9340  -30.1600   23.9010 C   0  0  0  0  0  3  0  0  0  0  0  0
  -17.5880  -30.5700   23.9400 C   0  0  0  0  0  3  0  0  0  0  0  0
  -16.5800  -29.7080   23.4710 C   0  0  0  0  0  3  0  0  0  0  0  0
  -16.9250  -28.4490   22.9410 C   0  0  0  0  0  3  0  0  0  0  0  0
  -26.0610  -32.7180   24.2360 C   0  0  0  0  0  3  0  0  0  0  0  0
  -26.5310  -31.9730   25.5520 C   0  0  1  0  0  0  0  0  0  0  0  0
  -25.3950  -31.7670   26.5760 C   0  0  0  0  0  1  0  0  0  0  0  0
  -27.1500  -30.5780   25.2700 C   0  0  0  0  0  1  0  0  0  0  0  0
  -27.6350  -32.7920   26.2560 C   0  0  0  0  0  1  0  0  0  0  0  0
  -25.7920  -34.1340   24.5310 N   0  0  0  0  0  0  0  0  0  0  0  0
  -26.1080  -35.1600   23.7290 C   0  0  0  0  0  0  0  0  0  0  0  0
  -26.7620  -35.0280   22.6930 O   0  0  0  0  0  0  0  0  0  0  0  0
  -25.2350  -34.3180   25.3550 H   0  0  0  0  0  0  0  0  0  0  0  0
  -24.3850  -36.9670   23.3800 C   0  0  0  0  0  1  0  0  0  0  0  0
  -25.6300  -36.5510   24.1720 C   0  0  0  0  0  3  0  0  0  0  0  0
  -27.7730  -37.4760   24.9670 C   0  0  0  0  0  1  0  0  0  0  0  0
  -26.6590  -37.6000   24.0320 N   0  0  0  0  0  0  0  0  0  0  0  0
  -26.2370  -38.5150   24.1550 H   0  0  0  0  0  0  0  0  0  0  0  0
  2  1  2  3
  3  4  2  0
  4  1  1  0
  4  7  1  0
  5  2  1  0
  6  5  2  0
  6  3  1  0
  7  9  2  0
  8 11  1  0
  8  7  1  0
 10  8  1  0
 12 21  1  0
 12 11  2  0
 13 21  1  0
 14 19  1  0
 15 16  1  0
 15 14  1  0
 17 16  1  0
 17 26  1  0
 17 18  1  0
 19 13  1  0
 19 18  1  0
 20 13  2  0
 21 22  1  0
 23 24  2  0
 24 43  1  0
 25 24  1  0
 25 28  1  0
 26 27  1  0
 26 23  1  0
 27 25  2  0
 28 29  1  0
 29 30  2  0
 31 34  1  0
 31 30  1  0
 32 31  2  0
 33 32  1  0
 33 28  2  0
 34 35  1  0
 35 40  2  0
 35 36  1  0
 36 37  2  0
 37 38  1  0
 38 42  1  0
 39 38  2  0
 40 39  1  0
 41 40  1  0
 43 44  1  0
 44 47  1  0
 44 46  1  0
 45 43  2  0
 48 49  1  0
 48 23  1  0
 50 48  1  0
 51 52  1  0
 52  6  1  0
 53 54  1  0
 53  5  1  0
 54 55  1  0
 55 58  1  0
 56 55  1  0
 57 55  1  0
 59 58  1  0
 59  2  1  0
 59  1  1  0
 61 72  2  0
 62 60  1  0
 62 67  1  0
 63 71  1  0
 63 73  1  0
 64 70  1  0
 64 66  2  0
 65 71  1  0
 66 65  1  0
 67 66  1  0
 68 69  1  0
 68 62  1  0
 69 64  1  0
 70 63  1  0
 71 61  1  0
 73 75  2  0
 74 73  1  0
 76 74  1  0
 77 86  2  0
 77 82  1  0
 78 74  1  0
 78 82  1  0
 79 78  1  0
 80 81  1  0
 80 79  1  0
 81 77  1  0
 82 83  2  0
 83 84  1  0
 85 84  2  0
 86 85  1  0
 87 61  1  0
 87 92  1  0
 87 88  1  0
 88 91  1  1
 88 89  1  0
 90 88  1  0
 92 95  1  0
 93 97  1  0
 93 92  1  0
 94 93  2  0
 97 96  1  0
 99100  1  0
 99 97  1  0
 99 98  1  0
M  ISO  4  13 100  21 100  59 101  60 101
M  END
>  <TORSDO>  (69) 
F 25

>  <SCORE>  (69) 
-13.236

>  <name>  (69) 
71

>  <ligand_id>  (69) 
71

>  <original_smiles>  (69) 
[H]c1c([H])c([H])c2c(c1[H])C([H])([H])C([H])([H])C([H])([H])C2([H])N([H])C(=O)C1([H])N(C(=O)C([H])(N([H])C(=O)C([H])(N([H])C([H])([H])[H])C([H])([H])[H])C(C([H])([H])[H])(C([H])([H])[H])C([H])([H])[H])C([H])([H])c2c([H])c(OC([H])([H])C([H])([H])[N+]([H])([H])C([H])([H])C([H])([H])c3c([H])c([H])c(C(=O)N([H])C([H])([H])C([H])([H])N([H])C(=O)N4C([H])([H])C([H])([H])C([H])([H])C([H])(n5nc(-c6c([H])c([H])c(Oc7c([H])c([H])c(F)c([H])c7F)c([H])c6[H])c(C(=O)N([H])[H])c5N([H])[H])C4([H])[H])c([H])c3C([H])([H])C([H])([H])[H])c([H])c([H])c2C1([H])[H]

>  <smiles>  (69) 
[H]c1c([H])c([H])c2c(c1[H])C([H])([H])C([H])([H])C([H])([H])C2([H])N([H])C(=O)C1([H])N(C(=O)C([H])(N([H])C(=O)C([H])(N([H])C([H])([H])[H])C([H])([H])[H])C(C([H])([H])[H])(C([H])([H])[H])C([H])([H])[H])C([H])([H])c2c([H])c(OC([H])([H])C([H])([H])[N+]([H])([H])C([H])([H])C([H])([H])c3c([H])c([H])c(C(=O)N([H])C([H])([H])C([H])([H])N([H])C(=O)N4C([H])([H])C([H])([H])C([H])([H])C([H])(n5nc(-c6c([H])c([H])c(Oc7c([H])c([H])c(F)c([H])c7F)c([H])c6[H])c(C(=O)N([H])[H])c5N([H])[H])C4([H])[H])c([H])c3C([H])([H])C([H])([H])[H])c([H])c([H])c2C1([H])[H]

$$$$
72:0:0
     RDKit          3D

102110  0  0  1  0  0  0  0  0999 V2000
  -26.6860  -18.9930   20.3190 C   0  0  0  0  0  3  0  0  0  0  0  0
  -25.9980  -20.2200   20.4250 C   0  0  0  0  0  3  0  0  0  0  0  0
  -28.7110  -20.1830   19.7160 C   0  0  0  0  0  3  0  0  0  0  0  0
  -28.0550  -18.9740   19.9820 C   0  0  0  0  0  0  0  0  0  0  0  0
  -26.6540  -21.4400   20.1510 C   0  0  0  0  0  0  0  0  0  0  0  0
  -28.0120  -21.4080   19.7330 C   0  0  0  0  0  0  0  0  0  0  0  0
  -28.7940  -17.7040   19.7920 C   0  0  0  0  0  0  0  0  0  0  0  0
  -28.9740  -17.1880   18.6840 O   0  0  0  0  0  0  0  0  0  0  0  0
  -29.3630  -17.0850   21.0700 C   0  0  0  0  0  2  0  0  0  0  0  0
  -30.7920  -16.4810   20.9830 C   0  0  0  0  0  2  0  0  0  0  0  0
  -31.4130  -14.0450   20.9640 C   0  0  0  0  0  0  0  0  0  0  0  0
  -31.2500  -11.6070   20.5940 C   0  0  0  0  0  2  0  0  0  0  0  0
  -30.5280  -11.3220   19.2610 C   0  0  0  0  0  2  0  0  0  0  0  0
  -29.0020  -11.3160   19.4550 C   0  0  0  0  0  2  0  0  0  0  0  0
  -28.4970  -12.5660   20.2190 C   0  0  0  0  0  3  0  0  0  0  0  0
  -29.3230  -12.7630   21.5070 C   0  0  0  0  0  2  0  0  0  0  0  0
  -30.7470  -12.8760   21.1350 N   0  0  0  0  0  0  0  0  0  0  0  0
  -32.5130  -14.1440   20.4110 O   0  0  0  0  0  0  0  0  0  0  0  0
  -30.7320  -15.0970   21.4320 N   0  0  0  0  0  0  0  0  0  0  0  0
  -29.9200  -14.8560   21.9800 H   0  0  0  0  0  0  0  0  0  0  0  0
  -26.1190  -13.4780   20.6130 C   0  0  0  0  0  0  0  0  0  0  0  0
  -24.9280  -12.8550   20.8570 C   0  0  0  0  0  0  0  0  0  0  0  0
  -25.2170  -11.4560   20.8960 C   0  0  0  0  0  0  0  0  0  0  0  0
  -27.0690  -12.4740   20.5200 N   0  0  0  0  0  0  0  0  0  0  0  0
  -26.5200  -11.2530   20.7410 N   0  0  0  0  0  0  0  0  0  0  0  0
  -24.3250  -10.2980   21.0110 C   0  0  0  0  0  0  0  0  0  0  0  0
  -24.5460   -9.2840   21.9700 C   0  0  0  0  0  3  0  0  0  0  0  0
  -23.6660   -8.1860   22.0690 C   0  0  0  0  0  3  0  0  0  0  0  0
  -22.5450   -8.0950   21.2080 C   0  0  0  0  0  0  0  0  0  0  0  0
  -22.3430   -9.0940   20.2400 C   0  0  0  0  0  3  0  0  0  0  0  0
  -23.2250  -10.1840   20.1400 C   0  0  0  0  0  3  0  0  0  0  0  0
  -21.6500   -7.0540   21.2120 O   0  0  0  0  0  0  0  0  0  0  0  0
  -21.4720   -6.2690   22.3210 C   0  0  0  0  0  0  0  0  0  0  0  0
  -21.0340   -6.8050   23.5520 C   0  0  0  0  0  3  0  0  0  0  0  0
  -20.7980   -5.9500   24.6470 C   0  0  0  0  0  3  0  0  0  0  0  0
  -20.9900   -4.5620   24.5100 C   0  0  0  0  0  0  0  0  0  0  0  0
  -21.4210   -4.0270   23.2830 C   0  0  0  0  0  3  0  0  0  0  0  0
  -21.6590   -4.8800   22.1910 C   0  0  0  0  0  0  0  0  0  0  0  0
  -22.0560   -4.3560   21.0060 F   0  0  0  0  0  0  0  0  0  0  0  0
  -20.7550   -3.7390   25.5590 F   0  0  0  0  0  0  0  0  0  0  0  0
  -23.5780  -13.5060   20.9540 C   0  0  0  0  0  0  0  0  0  0  0  0
  -22.6750  -12.9320   21.7410 N   0  0  0  0  0  0  0  0  0  0  0  0
  -23.3300  -14.5590   20.3650 O   0  0  0  0  0  0  0  0  0  0  0  0
  -22.8810  -12.0750   22.2290 H   0  0  0  0  0  0  0  0  0  0  0  0
  -21.7660  -13.3570   21.8530 H   0  0  0  0  0  0  0  0  0  0  0  0
  -26.4710  -14.8080   20.4340 N   0  0  0  0  0  0  0  0  0  0  0  0
  -25.7630  -15.5320   20.3940 H   0  0  0  0  0  0  0  0  0  0  0  0
  -27.3830  -15.1090   20.1140 H   0  0  0  0  0  0  0  0  0  0  0  0
  -25.8900  -22.7470   20.3300 C   0  0  0  0  0  2  0  0  0  0  0  0
  -26.5390  -24.9840   21.4320 C   0  0  0  0  0  1  0  0  0  0  0  0
  -26.3130  -23.4790   21.6210 C   0  0  0  0  0  2  0  0  0  0  0  0
  -28.7590  -22.6070   19.1680 C   0  0  0  0  0  2  0  0  0  0  0  0
  -28.5010  -22.6810   17.6380 C   0  0  0  0  0  2  0  0  0  0  0  0
  -30.5750  -22.0090   16.2810 C   0  0  0  0  0  1  0  0  0  0  0  0
  -30.4730  -24.2730   17.3550 C   0  0  0  0  0  1  0  0  0  0  0  0
  -29.6290  -23.1670   16.6850 C   0  0  2  0  0  0  0  0  0  0  0  0
  -28.9760  -23.6890   15.4480 N   0  0  0  0  0  4  0  0  0  0  0  0
  -29.6860  -23.9040   14.7630 H   0  0  0  0  0  0  0  0  0  0  0  0
  -28.4240  -22.9380   15.0540 H   0  0  0  0  0  0  0  0  0  0  0  0
  -28.1100  -24.8870   15.6080 C   0  0  0  0  0  2  0  0  0  0  0  0
  -27.7210  -25.5540   14.2700 C   0  0  0  0  0  2  0  0  0  0  0  0
  -27.6430  -26.9720   14.4060 O   0  0  0  0  0  0  0  0  0  0  0  0
  -26.8510  -28.4860   21.2810 C   0  0  0  0  0  0  0  0  0  0  0  0
  -26.7960  -27.4770   15.3630 C   0  0  0  0  0  0  0  0  0  0  0  0
  -24.8010  -28.6680   19.9080 C   0  0  0  0  0  3  0  0  0  0  0  0
  -25.1450  -28.5510   17.3840 C   0  0  0  0  0  0  0  0  0  0  0  0
  -27.1070  -29.0240   18.8640 C   0  0  0  0  0  2  0  0  0  0  0  0
  -26.5310  -28.5040   17.5630 C   0  0  0  0  0  0  0  0  0  0  0  0
  -27.3620  -27.9840   16.5490 C   0  0  0  0  0  3  0  0  0  0  0  0
  -25.3940  -27.5150   15.1920 C   0  0  0  0  0  3  0  0  0  0  0  0
  -24.5690  -28.0550   16.1980 C   0  0  0  0  0  3  0  0  0  0  0  0
  -24.3320  -29.1490   18.5090 C   0  0  0  0  0  2  0  0  0  0  0  0
  -26.2930  -28.6960   20.0560 N   0  0  0  0  0  0  0  0  0  0  0  0
  -26.1450  -28.3200   22.2840 O   0  0  0  0  0  0  0  0  0  0  0  0
  -24.1820  -27.2830   20.1830 C   0  0  0  0  0  0  0  0  0  0  0  0
  -22.8540  -27.2520   20.3880 N   0  0  0  0  0  0  0  0  0  0  0  0
  -24.8810  -26.2660   20.1810 O   0  0  0  0  0  0  0  0  0  0  0  0
  -22.3530  -28.1270   20.3770 H   0  0  0  0  0  0  0  0  0  0  0  0
  -19.4690  -26.0540   20.7610 C   0  0  0  0  0  0  0  0  0  0  0  0
  -22.0520  -26.0530   20.6280 C   0  0  0  0  0  3  0  0  0  0  0  0
  -21.8880  -25.2300   19.3300 C   0  0  0  0  0  2  0  0  0  0  0  0
  -20.6140  -25.5730   18.5520 C   0  0  0  0  0  2  0  0  0  0  0  0
  -19.3750  -25.3400   19.4230 C   0  0  0  0  0  2  0  0  0  0  0  0
  -20.7270  -26.4010   21.3190 C   0  0  0  0  0  0  0  0  0  0  0  0
  -20.7600  -27.0870   22.5530 C   0  0  0  0  0  3  0  0  0  0  0  0
  -19.5710  -27.4230   23.2230 C   0  0  0  0  0  3  0  0  0  0  0  0
  -18.3300  -27.0590   22.6760 C   0  0  0  0  0  3  0  0  0  0  0  0
  -18.2800  -26.3760   21.4480 C   0  0  0  0  0  3  0  0  0  0  0  0
  -28.4000  -28.4710   21.4840 C   0  0  0  0  0  3  0  0  0  0  0  0
  -28.6660  -28.8910   22.8660 N   0  0  0  0  0  0  0  0  0  0  0  0
  -29.0700  -30.1170   23.2240 C   0  0  0  0  0  0  0  0  0  0  0  0
  -29.3320  -31.0020   22.4030 O   0  0  0  0  0  0  0  0  0  0  0  0
  -28.4240  -28.2350   23.5940 H   0  0  0  0  0  0  0  0  0  0  0  0
  -27.9970  -31.2120   25.2160 C   0  0  0  0  0  1  0  0  0  0  0  0
  -29.2130  -30.4070   24.7310 C   0  0  0  0  0  3  0  0  0  0  0  0
  -31.6590  -30.3120   24.9080 C   0  0  0  0  0  1  0  0  0  0  0  0
  -30.4580  -31.1260   25.0790 N   0  0  0  0  0  0  0  0  0  0  0  0
  -30.4310  -31.4470   26.0430 H   0  0  0  0  0  0  0  0  0  0  0  0
  -29.0530  -27.0670   21.1900 C   0  0  1  0  0  0  0  0  0  0  0  0
  -28.3940  -25.9020   21.9630 C   0  0  0  0  0  1  0  0  0  0  0  0
  -28.9750  -26.7340   19.6830 C   0  0  0  0  0  1  0  0  0  0  0  0
  -30.5540  -27.0970   21.5600 C   0  0  0  0  0  1  0  0  0  0  0  0
  1  2  1  0
  3  6  2  0
  3  4  1  0
  4  1  2  0
  5 49  1  0
  5  2  2  0
  6  5  1  0
  7  4  1  0
  7  9  1  0
  8  7  2  0
 10  9  1  0
 10 19  1  0
 11 17  1  0
 11 19  1  0
 12 17  1  0
 13 14  1  0
 13 12  1  0
 15 14  1  0
 15 24  1  0
 15 16  1  0
 17 16  1  0
 18 11  2  0
 19 20  1  0
 21 22  2  0
 22 23  1  0
 22 41  1  0
 23 26  1  0
 24 21  1  0
 24 25  1  0
 25 23  2  0
 26 27  1  0
 27 28  2  0
 29 32  1  0
 29 28  1  0
 30 29  2  0
 31 30  1  0
 31 26  2  0
 32 33  1  0
 33 34  1  0
 34 35  2  0
 36 35  1  0
 36 40  1  0
 37 36  2  0
 38 33  2  0
 38 37  1  0
 39 38  1  0
 41 42  1  0
 42 45  1  0
 42 44  1  0
 43 41  2  0
 46 21  1  0
 47 46  1  0
 48 46  1  0
 49 51  1  0
 50 51  1  0
 52  6  1  0
 53 52  1  0
 56 54  1  6
 56 55  1  0
 56 53  1  0
 57 60  1  0
 57 56  1  0
 58 57  1  0
 59 57  1  0
 61 62  1  0
 61 60  1  0
 62 64  1  0
 63 74  2  0
 64 69  1  0
 65 73  1  0
 65 75  1  0
 66 68  1  0
 66 72  1  0
 67 73  1  0
 68 67  1  0
 69 68  2  0
 70 64  2  0
 70 71  1  0
 71 66  2  0
 72 65  1  0
 73 63  1  0
 75 76  1  0
 77 75  2  0
 78 76  1  0
 79 84  2  0
 79 88  1  0
 80 76  1  0
 80 84  1  0
 81 80  1  0
 82 81  1  0
 82 83  1  0
 83 79  1  0
 84 85  1  0
 85 86  2  0
 87 86  1  0
 88 87  2  0
 89 63  1  0
 89 90  1  0
 90 91  1  0
 90 93  1  0
 91 95  1  0
 92 91  2  0
 95 97  1  0
 95 94  1  0
 96 97  1  0
 97 98  1  0
 99 89  1  0
 99102  1  1
 99100  1  0
101 99  1  0
M  ISO  4  11 100  19 100  61 101  62 101
M  END
>  <TORSDO>  (70) 
F 27

>  <SCORE>  (70) 
-3.266

>  <name>  (70) 
72

>  <ligand_id>  (70) 
72

>  <original_smiles>  (70) 
[H]c1c([H])c([H])c2c(c1[H])C([H])([H])C([H])([H])C([H])([H])C2([H])N([H])C(=O)C1([H])N(C(=O)C([H])(N([H])C(=O)C([H])(N([H])C([H])([H])[H])C([H])([H])[H])C(C([H])([H])[H])(C([H])([H])[H])C([H])([H])[H])C([H])([H])c2c([H])c(OC([H])([H])C([H])([H])[N+]([H])([H])C(C([H])([H])[H])(C([H])([H])[H])C([H])([H])C([H])([H])c3c([H])c(C(=O)C([H])([H])C([H])([H])N([H])C(=O)N4C([H])([H])C([H])([H])C([H])([H])C([H])(n5nc(-c6c([H])c([H])c(Oc7c([H])c([H])c(F)c([H])c7F)c([H])c6[H])c(C(=O)N([H])[H])c5N([H])[H])C4([H])[H])c([H])c([H])c3C([H])([H])C([H])([H])C([H])([H])[H])c([H])c([H])c2C1([H])[H]

>  <smiles>  (70) 
[H]c1c([H])c([H])c2c(c1[H])C([H])([H])C([H])([H])C([H])([H])C2([H])N([H])C(=O)C1([H])N(C(=O)C([H])(N([H])C(=O)C([H])(N([H])C([H])([H])[H])C([H])([H])[H])C(C([H])([H])[H])(C([H])([H])[H])C([H])([H])[H])C([H])([H])c2c([H])c(OC([H])([H])C([H])([H])[N+]([H])([H])C(C([H])([H])[H])(C([H])([H])[H])C([H])([H])C([H])([H])c3c([H])c(C(=O)C([H])([H])C([H])([H])N([H])C(=O)N4C([H])([H])C([H])([H])C([H])([H])C([H])(n5nc(-c6c([H])c([H])c(Oc7c([H])c([H])c(F)c([H])c7F)c([H])c6[H])c(C(=O)N([H])[H])c5N([H])[H])C4([H])[H])c([H])c([H])c3C([H])([H])C([H])([H])C([H])([H])[H])c([H])c([H])c2C1([H])[H]

$$$$
73:0:0
     RDKit          3D

105114  0  0  1  0  0  0  0  0999 V2000
  -27.1750  -17.0210   20.7240 C   0  0  0  0  0  3  0  0  0  0  0  0
  -27.7600  -16.8890   18.3700 C   0  0  0  0  0  3  0  0  0  0  0  0
  -27.4970  -15.6590   20.8860 C   0  0  0  0  0  3  0  0  0  0  0  0
  -28.0780  -15.5270   18.5260 C   0  0  0  0  0  3  0  0  0  0  0  0
  -27.2930  -17.6500   19.4660 C   0  0  0  0  0  0  0  0  0  0  0  0
  -27.9450  -14.9020   19.7840 C   0  0  0  0  0  0  0  0  0  0  0  0
  -26.9030  -19.0680   19.3410 C   0  0  0  0  0  3  0  0  0  0  0  0
  -26.9680  -19.8250   18.2250 C   0  0  0  0  0  3  0  0  0  0  0  0
  -25.6780  -21.7680   19.3010 C   0  0  0  0  0  1  0  0  0  0  0  0
  -26.4810  -21.2650   18.0800 C   0  0  0  0  0  3  0  0  0  0  0  0
  -27.6180  -22.1670   17.7700 N   0  0  0  0  0  4  0  0  0  0  0  0
  -28.3750  -21.9610   18.4050 H   0  0  0  0  0  0  0  0  0  0  0  0
  -27.9500  -21.9580   16.8400 H   0  0  0  0  0  0  0  0  0  0  0  0
  -27.2890  -23.6150   17.8160 C   0  0  0  0  0  2  0  0  0  0  0  0
  -28.3120  -24.4400   18.6260 C   0  0  0  0  0  2  0  0  0  0  0  0
  -28.2940  -25.8290   18.2680 O   0  0  0  0  0  0  0  0  0  0  0  0
  -24.1180  -28.9760   23.1010 C   0  0  0  0  0  0  0  0  0  0  0  0
  -27.1070  -26.4690   18.5310 C   0  0  0  0  0  0  0  0  0  0  0  0
  -23.0700  -28.4860   20.9160 C   0  0  0  0  0  3  0  0  0  0  0  0
  -24.6640  -27.7800   19.0560 C   0  0  0  0  0  0  0  0  0  0  0  0
  -25.5870  -28.8990   21.0920 C   0  0  0  0  0  2  0  0  0  0  0  0
  -25.7590  -27.9740   19.9070 C   0  0  0  0  0  0  0  0  0  0  0  0
  -26.9840  -27.3190   19.6510 C   0  0  0  0  0  3  0  0  0  0  0  0
  -26.0060  -26.3080   17.6660 C   0  0  0  0  0  3  0  0  0  0  0  0
  -24.7810  -26.9440   17.9340 C   0  0  0  0  0  3  0  0  0  0  0  0
  -23.3900  -28.5170   19.3980 C   0  0  0  0  0  2  0  0  0  0  0  0
  -24.2720  -28.7740   21.7630 N   0  0  0  0  0  0  0  0  0  0  0  0
  -22.9950  -28.9700   23.6250 O   0  0  0  0  0  0  0  0  0  0  0  0
  -22.3950  -27.1380   21.2500 C   0  0  0  0  0  0  0  0  0  0  0  0
  -21.0680  -27.0690   21.0560 N   0  0  0  0  0  0  0  0  0  0  0  0
  -23.0610  -26.1770   21.6440 O   0  0  0  0  0  0  0  0  0  0  0  0
  -20.5950  -27.9040   20.7390 H   0  0  0  0  0  0  0  0  0  0  0  0
  -17.6430  -25.9390   21.2570 C   0  0  0  0  0  0  0  0  0  0  0  0
  -20.2270  -25.8920   21.2660 C   0  0  0  0  0  3  0  0  0  0  0  0
  -20.1150  -25.0490   19.9750 C   0  0  0  0  0  2  0  0  0  0  0  0
  -18.8940  -25.4110   19.1230 C   0  0  0  0  0  2  0  0  0  0  0  0
  -17.6020  -25.2150   19.9220 C   0  0  0  0  0  2  0  0  0  0  0  0
  -18.8750  -26.2690   21.8810 C   0  0  0  0  0  0  0  0  0  0  0  0
  -18.8560  -26.9710   23.1050 C   0  0  0  0  0  3  0  0  0  0  0  0
  -17.6370  -27.3390   23.7060 C   0  0  0  0  0  3  0  0  0  0  0  0
  -16.4200  -26.9940   23.0930 C   0  0  0  0  0  3  0  0  0  0  0  0
  -16.4250  -26.2930   21.8730 C   0  0  0  0  0  3  0  0  0  0  0  0
  -25.3400  -29.2510   24.0320 C   0  0  0  0  0  3  0  0  0  0  0  0
  -25.1040  -30.5350   24.7040 N   0  0  0  0  0  0  0  0  0  0  0  0
  -25.7470  -31.6730   24.4120 C   0  0  0  0  0  0  0  0  0  0  0  0
  -26.6630  -31.7320   23.5870 O   0  0  0  0  0  0  0  0  0  0  0  0
  -24.3300  -30.5750   25.3520 H   0  0  0  0  0  0  0  0  0  0  0  0
  -24.4450  -33.8170   24.2200 C   0  0  0  0  0  1  0  0  0  0  0  0
  -25.3020  -32.9480   25.1530 C   0  0  0  0  0  3  0  0  0  0  0  0
  -27.1370  -33.0950   26.7780 C   0  0  0  0  0  1  0  0  0  0  0  0
  -26.4300  -33.7470   25.6790 N   0  0  0  0  0  0  0  0  0  0  0  0
  -26.1100  -34.6550   26.0020 H   0  0  0  0  0  0  0  0  0  0  0  0
  -25.5890  -28.1040   25.0890 C   0  0  1  0  0  0  0  0  0  0  0  0
  -24.3120  -27.6680   25.8430 C   0  0  0  0  0  1  0  0  0  0  0  0
  -26.1840  -26.8510   24.4040 C   0  0  0  0  0  1  0  0  0  0  0  0
  -26.6270  -28.5720   26.1350 C   0  0  0  0  0  1  0  0  0  0  0  0
  -28.2950  -13.4320   19.9420 C   0  0  0  0  0  2  0  0  0  0  0  0
  -29.2590  -13.2630   21.0460 N   0  0  0  0  0  4  0  0  0  0  0  0
  -28.7240  -13.0560   21.8730 H   0  0  0  0  0  0  0  0  0  0  0  0
  -29.7150  -14.1460   21.2010 H   0  0  0  0  0  0  0  0  0  0  0  0
  -29.7250  -11.0480   20.0240 C   0  0  0  0  0  2  0  0  0  0  0  0
  -30.2870  -12.2090   20.8620 C   0  0  0  0  0  3  0  0  0  0  0  0
  -30.8770  -11.7020   22.2040 C   0  0  0  0  0  2  0  0  0  0  0  0
  -29.8850  -11.6750   23.3860 C   0  0  0  0  0  2  0  0  0  0  0  0
  -29.8430  -10.3120   24.0980 C   0  0  0  0  0  2  0  0  0  0  0  0
  -31.1380   -9.4830   23.9420 C   0  0  0  0  0  2  0  0  0  0  0  0
  -31.3030   -8.7640   22.5830 C   0  0  0  0  0  2  0  0  0  0  0  0
  -30.0780   -9.2280   20.4500 C   0  0  1  0  0  0  0  0  0  0  0  0
  -28.8110   -8.7170   18.3950 C   0  0  0  0  0  2  0  0  0  0  0  0
  -28.0130   -9.9050   17.8370 C   0  0  0  0  0  2  0  0  0  0  0  0
  -26.6330   -9.9980   18.5120 C   0  0  0  0  0  2  0  0  0  0  0  0
  -26.7280   -9.9510   20.0580 C   0  0  0  0  0  3  0  0  0  0  0  0
  -27.6030   -8.7670   20.5190 C   0  0  0  0  0  2  0  0  0  0  0  0
  -28.9180   -8.8610   19.8520 N   0  0  0  0  0  0  0  0  0  0  0  0
  -31.0750   -9.6220   19.8360 O   0  0  0  0  0  1  0  0  0  0  0  0
  -30.1130   -8.9300   21.7530 N   0  0  0  0  0  0  0  0  0  0  0  0
  -29.2430   -8.5980   22.1410 H   0  0  0  0  0  0  0  0  0  0  0  0
  -24.4510  -10.9110   20.7860 C   0  0  0  0  0  0  0  0  0  0  0  0
  -23.3610  -10.3290   21.3780 C   0  0  0  0  0  0  0  0  0  0  0  0
  -23.7110   -8.9610   21.5910 C   0  0  0  0  0  0  0  0  0  0  0  0
  -25.4020   -9.9080   20.6710 N   0  0  0  0  0  0  0  0  0  0  0  0
  -24.9640   -8.7410   21.2100 N   0  0  0  0  0  0  0  0  0  0  0  0
  -22.9080   -7.8350   22.0840 C   0  0  0  0  0  0  0  0  0  0  0  0
  -22.7830   -7.5660   23.4660 C   0  0  0  0  0  3  0  0  0  0  0  0
  -21.9920   -6.4880   23.9160 C   0  0  0  0  0  3  0  0  0  0  0  0
  -21.3140   -5.6670   22.9840 C   0  0  0  0  0  0  0  0  0  0  0  0
  -21.4600   -5.9250   21.6090 C   0  0  0  0  0  3  0  0  0  0  0  0
  -22.2530   -6.9960   21.1620 C   0  0  0  0  0  3  0  0  0  0  0  0
  -20.5440   -4.5820   23.3280 O   0  0  0  0  0  0  0  0  0  0  0  0
  -19.5670   -4.6690   24.2870 C   0  0  0  0  0  0  0  0  0  0  0  0
  -18.3880   -5.4180   24.0850 C   0  0  0  0  0  3  0  0  0  0  0  0
  -17.3790   -5.4230   25.0690 C   0  0  0  0  0  3  0  0  0  0  0  0
  -17.5410   -4.6730   26.2480 C   0  0  0  0  0  0  0  0  0  0  0  0
  -18.7120   -3.9210   26.4490 C   0  0  0  0  0  3  0  0  0  0  0  0
  -19.7200   -3.9160   25.4700 C   0  0  0  0  0  0  0  0  0  0  0  0
  -20.8370   -3.1720   25.6580 F   0  0  0  0  0  0  0  0  0  0  0  0
  -16.5690   -4.6700   27.1900 F   0  0  0  0  0  0  0  0  0  0  0  0
  -22.0340  -10.9780   21.6430 C   0  0  0  0  0  0  0  0  0  0  0  0
  -21.3960  -10.6370   22.7560 N   0  0  0  0  0  0  0  0  0  0  0  0
  -21.5760  -11.8320   20.8840 O   0  0  0  0  0  0  0  0  0  0  0  0
  -21.7790   -9.9500   23.3890 H   0  0  0  0  0  0  0  0  0  0  0  0
  -20.5080  -11.0670   22.9800 H   0  0  0  0  0  0  0  0  0  0  0  0
  -24.7080  -12.1970   20.3230 N   0  0  0  0  0  0  0  0  0  0  0  0
  -24.0150  -12.9370   20.3570 H   0  0  0  0  0  0  0  0  0  0  0  0
  -25.5690  -12.4830   19.8740 H   0  0  0  0  0  0  0  0  0  0  0  0
  1  3  1  0
  2  4  2  0
  2  5  1  0
  4  6  1  0
  5  1  2  0
  6 57  1  0
  6  3  2  0
  7  5  1  0
  8  7  2  0
 10  8  1  0
 10  9  1  0
 11 14  1  0
 11 10  1  0
 11 12  1  0
 13 11  1  0
 14 15  1  0
 16 18  1  0
 16 15  1  0
 17 28  2  0
 18 23  1  0
 19 29  1  0
 19 27  1  0
 20 26  1  0
 20 22  1  0
 21 27  1  0
 22 21  1  0
 23 22  2  0
 24 25  1  0
 24 18  2  0
 25 20  2  0
 26 19  1  0
 27 17  1  0
 29 31  2  0
 30 29  1  0
 32 30  1  0
 33 42  2  0
 33 38  1  0
 34 30  1  0
 34 38  1  0
 35 34  1  0
 36 37  1  0
 36 35  1  0
 37 33  1  0
 38 39  2  0
 39 40  1  0
 41 40  2  0
 42 41  1  0
 43 17  1  0
 43 44  1  0
 43 53  1  0
 44 47  1  0
 45 44  1  0
 45 49  1  0
 46 45  2  0
 49 48  1  0
 49 51  1  0
 51 52  1  0
 51 50  1  0
 53 54  1  1
 53 56  1  0
 55 53  1  0
 57 58  1  0
 58 60  1  0
 58 59  1  0
 61 68  1  0
 61 62  1  0
 62 58  1  0
 62 63  1  0
 63 64  1  0
 64 65  1  0
 66 65  1  0
 67 66  1  0
 68 75  1  6
 68 76  1  0
 70 69  1  0
 70 71  1  0
 72 71  1  0
 72 73  1  0
 72 81  1  0
 74 69  1  0
 74 68  1  0
 74 73  1  0
 76 77  1  0
 76 67  1  0
 78 79  2  0
 79 80  1  0
 79 98  1  0
 80 83  1  0
 81 78  1  0
 81 82  1  0
 82 80  2  0
 83 84  1  0
 84 85  2  0
 86 89  1  0
 86 85  1  0
 87 86  2  0
 88 87  1  0
 88 83  2  0
 89 90  1  0
 90 95  1  0
 91 90  2  0
 91 92  1  0
 92 93  2  0
 93 94  1  0
 93 97  1  0
 95 96  1  0
 95 94  2  0
 98 99  1  0
 99102  1  0
 99101  1  0
100 98  2  0
103104  1  0
103 78  1  0
105103  1  0
M  ISO  4  15 101  16 101  68 100  76 100
M  END
>  <TORSDO>  (71) 
F 29

>  <SCORE>  (71) 
6.054

>  <name>  (71) 
73

>  <ligand_id>  (71) 
73

>  <original_smiles>  (71) 
[H]C(=C([H])C([H])(C([H])([H])[H])[N+]([H])([H])C([H])([H])C([H])([H])Oc1c([H])c([H])c2c(c1[H])C([H])([H])N(C(=O)C([H])(N([H])C(=O)C([H])(N([H])C([H])([H])[H])C([H])([H])[H])C(C([H])([H])[H])(C([H])([H])[H])C([H])([H])[H])C([H])(C(=O)N([H])C1([H])c3c([H])c([H])c([H])c([H])c3C([H])([H])C([H])([H])C1([H])[H])C2([H])[H])c1c([H])c([H])c(C([H])([H])[N+]([H])([H])C([H])(C([H])([H])[H])C([H])([H])C([H])([H])C([H])([H])C([H])([H])C([H])([H])N([H])C(=O)N2C([H])([H])C([H])([H])C([H])([H])C([H])(n3nc(-c4c([H])c([H])c(Oc5c([H])c([H])c(F)c([H])c5F)c([H])c4[H])c(C(=O)N([H])[H])c3N([H])[H])C2([H])[H])c([H])c1[H]

>  <smiles>  (71) 
[H]C(=C([H])C([H])(C([H])([H])[H])[N+]([H])([H])C([H])([H])C([H])([H])Oc1c([H])c([H])c2c(c1[H])C([H])([H])N(C(=O)C([H])(N([H])C(=O)C([H])(N([H])C([H])([H])[H])C([H])([H])[H])C(C([H])([H])[H])(C([H])([H])[H])C([H])([H])[H])C([H])(C(=O)N([H])C1([H])c3c([H])c([H])c([H])c([H])c3C([H])([H])C([H])([H])C1([H])[H])C2([H])[H])c1c([H])c([H])c(C([H])([H])[N+]([H])([H])C([H])(C([H])([H])[H])C([H])([H])C([H])([H])C([H])([H])C([H])([H])C([H])([H])N([H])C(=O)N2C([H])([H])C([H])([H])C([H])([H])C([H])(n3nc(-c4c([H])c([H])c(Oc5c([H])c([H])c(F)c([H])c5F)c([H])c4[H])c(C(=O)N([H])[H])c3N([H])[H])C2([H])[H])c([H])c1[H]

$$$$
74:0:0
     RDKit          3D

107116  0  0  1  0  0  0  0  0999 V2000
  -29.9380  -23.4110   17.1750 C   0  0  0  0  0  3  0  0  0  0  0  0
  -30.2980  -24.3240   18.1860 C   0  0  0  0  0  3  0  0  0  0  0  0
  -32.4300  -23.1610   18.5280 C   0  0  0  0  0  3  0  0  0  0  0  0
  -30.7940  -22.3300   16.9130 C   0  0  0  0  0  0  0  0  0  0  0  0
  -32.0310  -22.2430   17.5350 C   0  0  0  0  0  0  0  0  0  0  0  0
  -31.5170  -24.1780   18.9150 C   0  0  0  0  0  0  0  0  0  0  0  0
  -32.8090  -21.0740   17.0060 C   0  0  0  0  0  2  0  0  0  0  0  0
  -30.5150  -21.1550   16.0010 C   0  0  0  0  0  3  0  0  0  0  0  0
  -31.9300  -20.5000   15.8520 C   0  0  0  0  0  3  0  0  0  0  0  0
  -33.2600  -25.4760   20.3710 C   0  0  0  0  0  1  0  0  0  0  0  0
  -31.7970  -25.0470   20.1510 C   0  0  0  0  0  3  0  0  0  0  0  0
  -30.8940  -26.2090   20.1770 N   0  0  0  0  0  4  0  0  0  0  0  0
  -31.4010  -27.0300   20.4690 H   0  0  0  0  0  0  0  0  0  0  0  0
  -30.5910  -26.3420   19.2270 H   0  0  0  0  0  0  0  0  0  0  0  0
  -29.6990  -26.0010   21.0210 C   0  0  0  0  0  2  0  0  0  0  0  0
  -28.6610  -27.1000   20.8210 C   0  0  0  0  0  2  0  0  0  0  0  0
  -28.0780  -27.0790   19.5020 O   0  0  0  0  0  0  0  0  0  0  0  0
  -24.4470  -31.8700   23.1060 C   0  0  0  0  0  0  0  0  0  0  0  0
  -26.9310  -27.8310   19.4830 C   0  0  0  0  0  0  0  0  0  0  0  0
  -23.1360  -30.5760   21.4480 C   0  0  0  0  0  3  0  0  0  0  0  0
  -24.4960  -29.2170   19.7740 C   0  0  0  0  0  0  0  0  0  0  0  0
  -25.6090  -31.0600   21.0580 C   0  0  0  0  0  2  0  0  0  0  0  0
  -25.6760  -29.7580   20.2940 C   0  0  0  0  0  0  0  0  0  0  0  0
  -26.8940  -29.0810   20.1350 C   0  0  0  0  0  3  0  0  0  0  0  0
  -25.7480  -27.3060   18.9210 C   0  0  0  0  0  3  0  0  0  0  0  0
  -24.5290  -27.9990   19.0650 C   0  0  0  0  0  3  0  0  0  0  0  0
  -23.2320  -30.0080   20.0030 C   0  0  0  0  0  2  0  0  0  0  0  0
  -24.4220  -31.1780   21.9310 N   0  0  0  0  0  0  0  0  0  0  0  0
  -23.4120  -32.0620   23.7590 O   0  0  0  0  0  0  0  0  0  0  0  0
  -22.5920  -29.4660   22.3710 C   0  0  0  0  0  0  0  0  0  0  0  0
  -21.2740  -29.2190   22.2890 N   0  0  0  0  0  0  0  0  0  0  0  0
  -23.3490  -28.8280   23.1090 O   0  0  0  0  0  0  0  0  0  0  0  0
  -20.7220  -29.7860   21.6580 H   0  0  0  0  0  0  0  0  0  0  0  0
  -18.0080  -27.7610   22.7950 C   0  0  0  0  0  0  0  0  0  0  0  0
  -20.5460  -28.1880   23.0280 C   0  0  0  0  0  3  0  0  0  0  0  0
  -20.7370  -26.7970   22.3780 C   0  0  0  0  0  2  0  0  0  0  0  0
  -19.6370  -26.4460   21.3720 C   0  0  0  0  0  2  0  0  0  0  0  0
  -18.2650  -26.4620   22.0490 C   0  0  0  0  0  2  0  0  0  0  0  0
  -19.0800  -28.5790   23.2390 C   0  0  0  0  0  0  0  0  0  0  0  0
  -18.7890  -29.7940   23.8970 C   0  0  0  0  0  3  0  0  0  0  0  0
  -17.4590  -30.1960   24.1110 C   0  0  0  0  0  3  0  0  0  0  0  0
  -16.4000  -29.3770   23.6840 C   0  0  0  0  0  3  0  0  0  0  0  0
  -16.6760  -28.1590   23.0350 C   0  0  0  0  0  3  0  0  0  0  0  0
  -25.7710  -32.4780   23.6730 C   0  0  0  0  0  3  0  0  0  0  0  0
  -25.4870  -33.8600   24.0800 N   0  0  0  0  0  0  0  0  0  0  0  0
  -25.8170  -34.9440   23.3620 C   0  0  0  0  0  0  0  0  0  0  0  0
  -26.4640  -34.8820   22.3140 O   0  0  0  0  0  0  0  0  0  0  0  0
  -24.9140  -33.9840   24.9020 H   0  0  0  0  0  0  0  0  0  0  0  0
  -24.1330  -36.7910   23.0910 C   0  0  0  0  0  1  0  0  0  0  0  0
  -25.3540  -36.3140   23.8950 C   0  0  0  0  0  3  0  0  0  0  0  0
  -27.4860  -37.1060   24.8190 C   0  0  0  0  0  1  0  0  0  0  0  0
  -26.4120  -37.3480   23.8570 N   0  0  0  0  0  0  0  0  0  0  0  0
  -26.0210  -38.2680   24.0450 H   0  0  0  0  0  0  0  0  0  0  0  0
  -26.3710  -31.6520   24.8760 C   0  0  1  0  0  0  0  0  0  0  0  0
  -25.3500  -31.3630   26.0000 C   0  0  0  0  0  1  0  0  0  0  0  0
  -26.9290  -30.2980   24.3790 C   0  0  0  0  0  1  0  0  0  0  0  0
  -27.5620  -32.4200   25.4970 C   0  0  0  0  0  1  0  0  0  0  0  0
  -29.6430  -20.1330   16.6040 N   0  0  0  0  0  0  0  0  0  0  0  0
  -29.2700  -19.5940   15.8250 H   0  0  0  0  0  0  0  0  0  0  0  0
  -28.4910  -20.5820   17.3990 C   0  0  0  0  0  2  0  0  0  0  0  0
  -28.0170  -19.3960   18.2410 C   0  0  0  0  0  2  0  0  0  0  0  0
  -29.1580  -18.8270   18.9870 N   0  0  0  0  0  4  0  0  0  0  0  0
  -29.9010  -18.7570   18.3060 H   0  0  0  0  0  0  0  0  0  0  0  0
  -29.4580  -19.4860   19.6860 H   0  0  0  0  0  0  0  0  0  0  0  0
  -28.8690  -17.5260   19.6220 C   0  0  0  0  0  2  0  0  0  0  0  0
  -29.9660  -17.0740   20.6070 C   0  0  0  0  0  2  0  0  0  0  0  0
  -30.5090  -14.6610   20.6350 C   0  0  0  0  0  0  0  0  0  0  0  0
  -30.2760  -12.5060   19.4900 C   0  0  0  0  0  2  0  0  0  0  0  0
  -29.3410  -12.7220   18.2850 C   0  0  0  0  0  2  0  0  0  0  0  0
  -27.8720  -12.5370   18.7030 C   0  0  0  0  0  2  0  0  0  0  0  0
  -27.4960  -13.3240   19.9890 C   0  0  0  0  0  3  0  0  0  0  0  0
  -28.5590  -13.1330   21.0940 C   0  0  0  0  0  2  0  0  0  0  0  0
  -29.8750  -13.4680   20.5270 N   0  0  0  0  0  0  0  0  0  0  0  0
  -31.6350  -14.8750   20.1840 O   0  0  0  0  0  0  0  0  0  0  0  0
  -29.7330  -15.6800   21.0150 N   0  0  0  0  0  0  0  0  0  0  0  0
  -28.8250  -15.4340   21.3800 H   0  0  0  0  0  0  0  0  0  0  0  0
  -25.0650  -13.7810   20.7160 C   0  0  0  0  0  0  0  0  0  0  0  0
  -24.0420  -12.9450   21.0610 C   0  0  0  0  0  0  0  0  0  0  0  0
  -24.5730  -11.6190   20.9910 C   0  0  0  0  0  0  0  0  0  0  0  0
  -26.1590  -12.9670   20.4580 N   0  0  0  0  0  0  0  0  0  0  0  0
  -25.8630  -11.6610   20.6810 N   0  0  0  0  0  0  0  0  0  0  0  0
  -23.9180  -10.3150   21.1440 C   0  0  0  0  0  0  0  0  0  0  0  0
  -24.3470   -9.3790   22.1120 C   0  0  0  0  0  3  0  0  0  0  0  0
  -23.6850   -8.1400   22.2530 C   0  0  0  0  0  3  0  0  0  0  0  0
  -22.5800   -7.8270   21.4250 C   0  0  0  0  0  0  0  0  0  0  0  0
  -22.1710   -8.7540   20.4500 C   0  0  0  0  0  3  0  0  0  0  0  0
  -22.8340   -9.9830   20.3080 C   0  0  0  0  0  3  0  0  0  0  0  0
  -21.8940   -6.6350   21.4680 O   0  0  0  0  0  0  0  0  0  0  0  0
  -21.7530   -5.9320   22.6380 C   0  0  0  0  0  0  0  0  0  0  0  0
  -21.0510   -6.4610   23.7440 C   0  0  0  0  0  3  0  0  0  0  0  0
  -20.8690   -5.6780   24.9020 C   0  0  0  0  0  3  0  0  0  0  0  0
  -21.3780   -4.3650   24.9500 C   0  0  0  0  0  0  0  0  0  0  0  0
  -22.0690   -3.8360   23.8480 C   0  0  0  0  0  3  0  0  0  0  0  0
  -22.2540   -4.6160   22.6930 C   0  0  0  0  0  0  0  0  0  0  0  0
  -22.9030   -4.0960   21.6250 F   0  0  0  0  0  0  0  0  0  0  0  0
  -21.1970   -3.6100   26.0590 F   0  0  0  0  0  0  0  0  0  0  0  0
  -22.6200  -13.3340   21.3500 C   0  0  0  0  0  0  0  0  0  0  0  0
  -21.9340  -12.5690   22.1880 N   0  0  0  0  0  0  0  0  0  0  0  0
  -22.1310  -14.3570   20.8690 O   0  0  0  0  0  0  0  0  0  0  0  0
  -22.3460  -11.7420   22.5920 H   0  0  0  0  0  0  0  0  0  0  0  0
  -20.9850  -12.8120   22.4330 H   0  0  0  0  0  0  0  0  0  0  0  0
  -25.1590  -15.1670   20.5850 N   0  0  0  0  0  0  0  0  0  0  0  0
  -24.3660  -15.7760   20.7620 H   0  0  0  0  0  0  0  0  0  0  0  0
  -25.9910  -15.6660   20.2990 H   0  0  0  0  0  0  0  0  0  0  0  0
  -32.6160  -20.7540   14.4930 C   0  0  0  0  0  2  0  0  0  0  0  0
  -31.9700  -20.0430   13.4520 O   0  0  0  0  0  0  0  0  0  0  0  0
  -32.5690  -20.0090   12.7130 H   0  0  0  0  0  0  0  0  0  0  0  0
  1  2  1  0
  2  6  2  0
  3  6  1  0
  4  1  2  0
  4  5  1  0
  5  3  2  0
  6 11  1  0
  7  5  1  0
  8 58  1  0
  8  4  1  0
  9105  1  0
  9  8  1  0
  9  7  1  0
 11 12  1  0
 11 10  1  0
 12 13  1  0
 12 15  1  0
 14 12  1  0
 16 15  1  0
 17 16  1  0
 18 29  2  0
 19 17  1  0
 19 24  1  0
 20 28  1  0
 20 30  1  0
 21 27  1  0
 21 23  1  0
 22 28  1  0
 23 22  1  0
 24 23  2  0
 25 26  1  0
 25 19  2  0
 26 21  2  0
 27 20  1  0
 28 18  1  0
 30 32  2  0
 31 30  1  0
 33 31  1  0
 34 43  2  0
 34 39  1  0
 35 31  1  0
 35 39  1  0
 36 35  1  0
 37 38  1  0
 37 36  1  0
 38 34  1  0
 39 40  2  0
 40 41  1  0
 42 41  2  0
 43 42  1  0
 44 18  1  0
 44 45  1  0
 44 54  1  0
 45 48  1  0
 46 50  1  0
 46 45  1  0
 47 46  2  0
 50 49  1  0
 52 50  1  0
 52 53  1  0
 52 51  1  0
 54 57  1  1
 54 55  1  0
 56 54  1  0
 58 60  1  0
 59 58  1  0
 60 61  1  0
 61 62  1  0
 62 65  1  0
 62 64  1  0
 63 62  1  0
 65 66  1  0
 66 75  1  0
 67 75  1  0
 68 73  1  0
 69 70  1  0
 69 68  1  0
 71 70  1  0
 71 80  1  0
 71 72  1  0
 73 67  1  0
 73 72  1  0
 74 67  2  0
 75 76  1  0
 77 78  2  0
 78 97  1  0
 79 78  1  0
 79 82  1  0
 80 81  1  0
 80 77  1  0
 81 79  2  0
 82 83  1  0
 83 84  2  0
 85 88  1  0
 85 84  1  0
 86 85  2  0
 87 86  1  0
 87 82  2  0
 88 89  1  0
 89 94  2  0
 89 90  1  0
 90 91  2  0
 91 92  1  0
 92 96  1  0
 93 92  2  0
 94 93  1  0
 95 94  1  0
 97 98  1  0
 98101  1  0
 98100  1  0
 99 97  2  0
102 77  1  0
102103  1  0
104102  1  0
106105  1  0
107106  1  0
M  ISO  4  16 101  17 101  67 100  75 100
M  END
>  <TORSDO>  (72) 
F 28

>  <SCORE>  (72) 
-10.928

>  <name>  (72) 
74

>  <ligand_id>  (72) 
74

>  <original_smiles>  (72) 
[H]OC([H])([H])C1([H])C([H])([H])c2c([H])c(C([H])(C([H])([H])[H])[N+]([H])([H])C([H])([H])C([H])([H])Oc3c([H])c([H])c4c(c3[H])C([H])([H])N(C(=O)C([H])(N([H])C(=O)C([H])(N([H])C([H])([H])[H])C([H])([H])[H])C(C([H])([H])[H])(C([H])([H])[H])C([H])([H])[H])C([H])(C(=O)N([H])C3([H])c5c([H])c([H])c([H])c([H])c5C([H])([H])C([H])([H])C3([H])[H])C4([H])[H])c([H])c([H])c2C1([H])N([H])C([H])([H])C([H])([H])[N+]([H])([H])C([H])([H])C([H])([H])N([H])C(=O)N1C([H])([H])C([H])([H])C([H])([H])C([H])(n2nc(-c3c([H])c([H])c(Oc4c([H])c([H])c(F)c([H])c4F)c([H])c3[H])c(C(=O)N([H])[H])c2N([H])[H])C1([H])[H]

>  <smiles>  (72) 
[H]OC([H])([H])C1([H])C([H])([H])c2c([H])c(C([H])(C([H])([H])[H])[N+]([H])([H])C([H])([H])C([H])([H])Oc3c([H])c([H])c4c(c3[H])C([H])([H])N(C(=O)C([H])(N([H])C(=O)C([H])(N([H])C([H])([H])[H])C([H])([H])[H])C(C([H])([H])[H])(C([H])([H])[H])C([H])([H])[H])C([H])(C(=O)N([H])C3([H])c5c([H])c([H])c([H])c([H])c5C([H])([H])C([H])([H])C3([H])[H])C4([H])[H])c([H])c([H])c2C1([H])N([H])C([H])([H])C([H])([H])[N+]([H])([H])C([H])([H])C([H])([H])N([H])C(=O)N1C([H])([H])C([H])([H])C([H])([H])C([H])(n2nc(-c3c([H])c([H])c(Oc4c([H])c([H])c(F)c([H])c4F)c([H])c3[H])c(C(=O)N([H])[H])c2N([H])[H])C1([H])[H]

$$$$
75:0:0
     RDKit          3D

100108  0  0  1  0  0  0  0  0999 V2000
  -29.1740  -21.7280   19.1590 C   0  0  0  0  0  2  0  0  0  0  0  0
  -29.2640  -21.5350   20.6930 C   0  0  0  0  0  2  0  0  0  0  0  0
  -31.7920  -18.6790   20.9420 C   0  0  0  0  0  3  0  0  0  0  0  0
  -29.7270  -17.9790   22.0370 C   0  0  0  0  0  3  0  0  0  0  0  0
  -31.2230  -19.9350   20.6730 C   0  0  0  0  0  3  0  0  0  0  0  0
  -29.1540  -19.2330   21.7550 C   0  0  0  0  0  3  0  0  0  0  0  0
  -31.0350  -17.6800   21.5960 C   0  0  0  0  0  0  0  0  0  0  0  0
  -29.8940  -20.2070   21.0530 C   0  0  0  0  0  0  0  0  0  0  0  0
  -31.6060  -16.3310   21.8340 C   0  0  0  0  0  0  0  0  0  0  0  0
  -31.3280  -15.6380   22.8190 O   0  0  0  0  0  0  0  0  0  0  0  0
  -32.5270  -15.7830   20.7350 C   0  0  0  0  0  2  0  0  0  0  0  0
  -32.5420  -14.2490   20.6090 C   0  0  0  0  0  2  0  0  0  0  0  0
  -30.9710  -13.3390   18.8740 C   0  0  0  0  0  0  0  0  0  0  0  0
  -30.1190  -11.2820   17.8340 C   0  0  0  0  0  2  0  0  0  0  0  0
  -28.9140  -11.4240   16.8970 C   0  0  0  0  0  2  0  0  0  0  0  0
  -27.6010  -11.3930   17.6970 C   0  0  0  0  0  2  0  0  0  0  0  0
  -27.6080  -12.4000   18.8740 C   0  0  0  0  0  3  0  0  0  0  0  0
  -28.8850  -12.2480   19.7260 C   0  0  0  0  0  2  0  0  0  0  0  0
  -30.0670  -12.3390   18.8490 N   0  0  0  0  0  0  0  0  0  0  0  0
  -31.6540  -13.6880   17.9040 O   0  0  0  0  0  0  0  0  0  0  0  0
  -31.2830  -13.6760   20.1310 N   0  0  0  0  0  0  0  0  0  0  0  0
  -30.6900  -13.2590   20.8360 H   0  0  0  0  0  0  0  0  0  0  0  0
  -25.6010  -13.2590   20.2410 C   0  0  0  0  0  0  0  0  0  0  0  0
  -24.5600  -12.6060   20.8440 C   0  0  0  0  0  0  0  0  0  0  0  0
  -24.7830  -11.2140   20.6160 C   0  0  0  0  0  0  0  0  0  0  0  0
  -26.4020  -12.2700   19.6880 N   0  0  0  0  0  0  0  0  0  0  0  0
  -25.9240  -11.0300   19.9660 N   0  0  0  0  0  0  0  0  0  0  0  0
  -23.9450  -10.0480   20.9270 C   0  0  0  0  0  0  0  0  0  0  0  0
  -24.4050   -9.0150   21.7740 C   0  0  0  0  0  3  0  0  0  0  0  0
  -23.5760   -7.9120   22.0720 C   0  0  0  0  0  3  0  0  0  0  0  0
  -22.2720   -7.8360   21.5280 C   0  0  0  0  0  0  0  0  0  0  0  0
  -21.8270   -8.8570   20.6680 C   0  0  0  0  0  3  0  0  0  0  0  0
  -22.6560   -9.9500   20.3680 C   0  0  0  0  0  3  0  0  0  0  0  0
  -21.4050   -6.7920   21.7430 O   0  0  0  0  0  0  0  0  0  0  0  0
  -21.4060   -6.0860   22.9190 C   0  0  0  0  0  0  0  0  0  0  0  0
  -21.1620   -6.7090   24.1620 C   0  0  0  0  0  3  0  0  0  0  0  0
  -21.1040   -5.9350   25.3390 C   0  0  0  0  0  3  0  0  0  0  0  0
  -21.2790   -4.5390   25.2730 C   0  0  0  0  0  0  0  0  0  0  0  0
  -21.5160   -3.9160   24.0350 C   0  0  0  0  0  3  0  0  0  0  0  0
  -21.5770   -4.6880   22.8620 C   0  0  0  0  0  0  0  0  0  0  0  0
  -21.7860   -4.0810   21.6690 F   0  0  0  0  0  0  0  0  0  0  0  0
  -21.2140   -3.7940   26.4010 F   0  0  0  0  0  0  0  0  0  0  0  0
  -23.3730  -13.2380   21.5120 C   0  0  0  0  0  0  0  0  0  0  0  0
  -22.8100  -12.5760   22.5180 N   0  0  0  0  0  0  0  0  0  0  0  0
  -22.9660  -14.3490   21.1750 O   0  0  0  0  0  0  0  0  0  0  0  0
  -23.1590  -11.6740   22.8070 H   0  0  0  0  0  0  0  0  0  0  0  0
  -22.0240  -12.9780   23.0070 H   0  0  0  0  0  0  0  0  0  0  0  0
  -25.9250  -14.6050   20.0990 N   0  0  0  0  0  0  0  0  0  0  0  0
  -25.3320  -15.3480   20.4510 H   0  0  0  0  0  0  0  0  0  0  0  0
  -26.7340  -14.9470   19.5960 H   0  0  0  0  0  0  0  0  0  0  0  0
  -28.5450  -23.0540   18.6770 C   0  0  0  0  0  3  0  0  0  0  0  0
  -29.2980  -24.2180   19.1850 N   0  0  0  0  0  4  0  0  0  0  0  0
  -28.6460  -24.7640   19.7340 H   0  0  0  0  0  0  0  0  0  0  0  0
  -30.0150  -23.8880   19.8080 H   0  0  0  0  0  0  0  0  0  0  0  0
  -29.9240  -25.0760   18.1540 C   0  0  0  0  0  2  0  0  0  0  0  0
  -30.5640  -26.3350   18.7730 C   0  0  0  0  0  2  0  0  0  0  0  0
  -29.5480  -27.4150   19.1760 C   0  0  0  0  0  2  0  0  0  0  0  0
  -28.5970  -26.8490   20.0730 O   0  0  0  0  0  0  0  0  0  0  0  0
  -24.6800  -31.9050   23.2170 C   0  0  0  0  0  0  0  0  0  0  0  0
  -27.4240  -27.5530   20.1350 C   0  0  0  0  0  0  0  0  0  0  0  0
  -23.5040  -30.4790   21.5710 C   0  0  0  0  0  3  0  0  0  0  0  0
  -24.9920  -28.9700   20.1600 C   0  0  0  0  0  0  0  0  0  0  0  0
  -26.0190  -30.8950   21.3800 C   0  0  0  0  0  2  0  0  0  0  0  0
  -26.1350  -29.5270   20.7480 C   0  0  0  0  0  0  0  0  0  0  0  0
  -27.3560  -28.8230   20.7420 C   0  0  0  0  0  3  0  0  0  0  0  0
  -26.2670  -26.9910   19.5620 C   0  0  0  0  0  3  0  0  0  0  0  0
  -25.0490  -27.6950   19.5700 C   0  0  0  0  0  3  0  0  0  0  0  0
  -23.7300  -29.8000   20.1950 C   0  0  0  0  0  2  0  0  0  0  0  0
  -24.7520  -31.1080   22.1150 N   0  0  0  0  0  0  0  0  0  0  0  0
  -23.5930  -32.1580   23.7550 O   0  0  0  0  0  0  0  0  0  0  0  0
  -22.8700  -29.4460   22.5300 C   0  0  0  0  0  0  0  0  0  0  0  0
  -21.5570  -29.2140   22.3760 N   0  0  0  0  0  0  0  0  0  0  0  0
  -23.5590  -28.8540   23.3670 O   0  0  0  0  0  0  0  0  0  0  0  0
  -21.0640  -29.7410   21.6690 H   0  0  0  0  0  0  0  0  0  0  0  0
  -18.2240  -27.8860   22.7820 C   0  0  0  0  0  0  0  0  0  0  0  0
  -20.7560  -28.2590   23.1400 C   0  0  0  0  0  3  0  0  0  0  0  0
  -20.9410  -26.8220   22.6020 C   0  0  0  0  0  2  0  0  0  0  0  0
  -19.8920  -26.4300   21.5560 C   0  0  0  0  0  2  0  0  0  0  0  0
  -18.4820  -26.5300   22.1450 C   0  0  0  0  0  2  0  0  0  0  0  0
  -19.2920  -28.7040   23.2330 C   0  0  0  0  0  0  0  0  0  0  0  0
  -19.0000  -29.9710   23.7840 C   0  0  0  0  0  3  0  0  0  0  0  0
  -17.6700  -30.4210   23.8900 C   0  0  0  0  0  3  0  0  0  0  0  0
  -16.6150  -29.6000   23.4570 C   0  0  0  0  0  3  0  0  0  0  0  0
  -16.8930  -28.3350   22.9090 C   0  0  0  0  0  3  0  0  0  0  0  0
  -25.9560  -32.5580   23.8380 C   0  0  0  0  0  3  0  0  0  0  0  0
  -25.6180  -33.9440   24.1840 N   0  0  0  0  0  0  0  0  0  0  0  0
  -25.9190  -35.0100   23.4290 C   0  0  0  0  0  0  0  0  0  0  0  0
  -26.5840  -34.9300   22.3920 O   0  0  0  0  0  0  0  0  0  0  0  0
  -25.0280  -34.0780   24.9910 H   0  0  0  0  0  0  0  0  0  0  0  0
  -24.1440  -36.7570   23.0970 C   0  0  0  0  0  1  0  0  0  0  0  0
  -25.4000  -36.3810   23.8990 C   0  0  0  0  0  3  0  0  0  0  0  0
  -27.5200  -37.3090   24.7170 C   0  0  0  0  0  1  0  0  0  0  0  0
  -26.4030  -37.4610   23.7870 N   0  0  0  0  0  0  0  0  0  0  0  0
  -25.9770  -38.3690   23.9520 H   0  0  0  0  0  0  0  0  0  0  0  0
  -26.4990  -31.7840   25.1010 C   0  0  1  0  0  0  0  0  0  0  0  0
  -25.4130  -31.4840   26.1600 C   0  0  0  0  0  1  0  0  0  0  0  0
  -27.1330  -30.4360   24.6830 C   0  0  0  0  0  1  0  0  0  0  0  0
  -27.6160  -32.6080   25.7810 C   0  0  0  0  0  1  0  0  0  0  0  0
  -27.1030  -23.2110   19.1640 C   0  0  0  0  0  3  0  0  0  0  0  0
  -26.8110  -23.6600   20.2760 O   0  0  0  0  0  0  0  0  0  0  0  0
  1  2  1  0
  2  8  1  0
  3  7  1  0
  5  3  2  0
  5  8  1  0
  6  4  1  0
  7  9  1  0
  7  4  2  0
  8  6  2  0
  9 10  2  0
 11  9  1  0
 12 11  1  0
 13 21  1  0
 14 19  1  0
 15 16  1  0
 15 14  1  0
 17 16  1  0
 17 26  1  0
 17 18  1  0
 19 13  1  0
 19 18  1  0
 20 13  2  0
 21 12  1  0
 21 22  1  0
 23 24  2  0
 24 43  1  0
 25 24  1  0
 25 28  1  0
 26 27  1  0
 26 23  1  0
 27 25  2  0
 28 29  1  0
 29 30  2  0
 31 34  1  0
 31 30  1  0
 32 31  2  0
 33 32  1  0
 33 28  2  0
 34 35  1  0
 35 36  1  0
 36 37  2  0
 38 37  1  0
 38 42  1  0
 39 38  2  0
 40 35  2  0
 40 39  1  0
 41 40  1  0
 43 44  1  0
 44 46  1  0
 44 47  1  0
 45 43  2  0
 48 23  1  0
 48 49  1  0
 50 48  1  0
 51  1  1  0
 51 99  1  0
 51 52  1  0
 52 53  1  0
 52 54  1  0
 55 56  1  0
 55 52  1  0
 56 57  1  0
 57 58  1  0
 58 60  1  0
 59 70  2  0
 60 65  1  0
 61 69  1  0
 61 71  1  0
 62 68  1  0
 62 64  1  0
 63 69  1  0
 64 63  1  0
 65 64  2  0
 66 67  1  0
 66 60  2  0
 67 62  2  0
 68 61  1  0
 69 59  1  0
 71 73  2  0
 72 71  1  0
 74 72  1  0
 75 84  2  0
 75 80  1  0
 76 72  1  0
 76 80  1  0
 77 76  1  0
 78 79  1  0
 78 77  1  0
 79 75  1  0
 80 81  2  0
 81 82  1  0
 83 82  2  0
 84 83  1  0
 85 59  1  0
 85 86  1  0
 85 95  1  0
 86 89  1  0
 87 91  1  0
 87 86  1  0
 88 87  2  0
 91 90  1  0
 93 91  1  0
 93 94  1  0
 93 92  1  0
 95 98  1  1
 95 96  1  0
 97 95  1  0
 99100  2  0
M  ISO  4  13 100  21 100  57 101  58 101
M  END
>  <TORSDO>  (73) 
F 27

>  <SCORE>  (73) 
-6.391

>  <name>  (73) 
75

>  <ligand_id>  (73) 
75

>  <original_smiles>  (73) 
[H]C(=O)C([H])(C([H])([H])C([H])([H])c1c([H])c([H])c(C(=O)C([H])([H])C([H])([H])N([H])C(=O)N2C([H])([H])C([H])([H])C([H])([H])C([H])(n3nc(-c4c([H])c([H])c(Oc5c([H])c([H])c(F)c([H])c5F)c([H])c4[H])c(C(=O)N([H])[H])c3N([H])[H])C2([H])[H])c([H])c1[H])[N+]([H])([H])C([H])([H])C([H])([H])C([H])([H])Oc1c([H])c([H])c2c(c1[H])C([H])([H])N(C(=O)C([H])(N([H])C(=O)C([H])(N([H])C([H])([H])[H])C([H])([H])[H])C(C([H])([H])[H])(C([H])([H])[H])C([H])([H])[H])C([H])(C(=O)N([H])C1([H])c3c([H])c([H])c([H])c([H])c3C([H])([H])C([H])([H])C1([H])[H])C2([H])[H]

>  <smiles>  (73) 
[H]C(=O)C([H])(C([H])([H])C([H])([H])c1c([H])c([H])c(C(=O)C([H])([H])C([H])([H])N([H])C(=O)N2C([H])([H])C([H])([H])C([H])([H])C([H])(n3nc(-c4c([H])c([H])c(Oc5c([H])c([H])c(F)c([H])c5F)c([H])c4[H])c(C(=O)N([H])[H])c3N([H])[H])C2([H])[H])c([H])c1[H])[N+]([H])([H])C([H])([H])C([H])([H])C([H])([H])Oc1c([H])c([H])c2c(c1[H])C([H])([H])N(C(=O)C([H])(N([H])C(=O)C([H])(N([H])C([H])([H])[H])C([H])([H])[H])C(C([H])([H])[H])(C([H])([H])[H])C([H])([H])[H])C([H])(C(=O)N([H])C1([H])c3c([H])c([H])c([H])c([H])c3C([H])([H])C([H])([H])C1([H])[H])C2([H])[H]

$$$$
76:0:0
     RDKit          3D

104112  0  0  1  0  0  0  0  0999 V2000
  -28.7980  -22.2220   24.7020 C   0  0  0  0  0  3  0  0  0  0  0  0
  -27.5780  -22.8940   24.8870 C   0  0  0  0  0  3  0  0  0  0  0  0
  -28.9490  -23.1340   22.4510 C   0  0  0  0  0  3  0  0  0  0  0  0
  -29.4770  -22.3050   23.4670 C   0  0  0  0  0  0  0  0  0  0  0  0
  -27.7020  -23.7850   22.6080 C   0  0  0  0  0  0  0  0  0  0  0  0
  -27.0150  -23.6600   23.8470 C   0  0  0  0  0  0  0  0  0  0  0  0
  -25.7710  -24.2440   24.0820 N   0  0  0  0  0  0  0  0  0  0  0  0
  -25.4080  -24.2140   25.0300 H   0  0  0  0  0  0  0  0  0  0  0  0
  -25.5310  -25.1140   23.6180 H   0  0  0  0  0  0  0  0  0  0  0  0
  -30.7160  -21.5200   23.2050 C   0  0  0  0  0  0  0  0  0  0  0  0
  -31.7710  -22.0210   22.7990 O   0  0  0  0  0  0  0  0  0  0  0  0
  -30.5990  -20.0020   23.3500 C   0  0  0  0  0  2  0  0  0  0  0  0
  -30.9640  -19.3750   22.0630 N   0  0  0  0  0  4  0  0  0  0  0  0
  -31.9140  -19.6380   21.8520 H   0  0  0  0  0  0  0  0  0  0  0  0
  -30.3790  -19.7790   21.3480 H   0  0  0  0  0  0  0  0  0  0  0  0
  -30.8070  -17.9050   22.0650 C   0  0  0  0  0  2  0  0  0  0  0  0
  -31.2830  -17.2560   20.7540 C   0  0  0  0  0  2  0  0  0  0  0  0
  -31.8790  -15.8500   20.9550 C   0  0  0  0  0  2  0  0  0  0  0  0
  -31.1350  -13.6930   19.9640 C   0  0  0  0  0  0  0  0  0  0  0  0
  -31.1040  -11.2410   20.1560 C   0  0  0  0  0  2  0  0  0  0  0  0
  -30.2640  -10.5090   19.1000 C   0  0  0  0  0  2  0  0  0  0  0  0
  -28.8020  -10.4040   19.5610 C   0  0  0  0  0  2  0  0  0  0  0  0
  -28.2250  -11.7740   20.0010 C   0  0  0  0  0  3  0  0  0  0  0  0
  -29.1720  -12.4970   20.9880 C   0  0  0  0  0  2  0  0  0  0  0  0
  -30.5230  -12.5680   20.4010 N   0  0  0  0  0  0  0  0  0  0  0  0
  -32.0170  -13.7020   19.0990 O   0  0  0  0  0  0  0  0  0  0  0  0
  -30.9230  -14.7550   20.7540 N   0  0  0  0  0  0  0  0  0  0  0  0
  -30.2160  -14.6270   21.4640 H   0  0  0  0  0  0  0  0  0  0  0  0
  -25.9400  -12.5980   20.8600 C   0  0  0  0  0  0  0  0  0  0  0  0
  -24.8220  -11.9260   21.2740 C   0  0  0  0  0  0  0  0  0  0  0  0
  -25.1380  -10.5360   21.1830 C   0  0  0  0  0  0  0  0  0  0  0  0
  -26.8780  -11.6240   20.5520 N   0  0  0  0  0  0  0  0  0  0  0  0
  -26.4000  -10.3760   20.8010 N   0  0  0  0  0  0  0  0  0  0  0  0
  -24.3000   -9.3480   21.3890 C   0  0  0  0  0  0  0  0  0  0  0  0
  -24.3010   -8.6440   22.6130 C   0  0  0  0  0  3  0  0  0  0  0  0
  -23.4730   -7.5150   22.7910 C   0  0  0  0  0  3  0  0  0  0  0  0
  -22.6290   -7.0820   21.7410 C   0  0  0  0  0  0  0  0  0  0  0  0
  -22.6480   -7.7730   20.5170 C   0  0  0  0  0  3  0  0  0  0  0  0
  -23.4770   -8.8930   20.3390 C   0  0  0  0  0  3  0  0  0  0  0  0
  -21.8100   -5.9810   21.8140 O   0  0  0  0  0  0  0  0  0  0  0  0
  -20.9240   -5.8100   22.8490 C   0  0  0  0  0  0  0  0  0  0  0  0
  -19.8560   -6.7060   23.0720 C   0  0  0  0  0  3  0  0  0  0  0  0
  -18.9290   -6.4540   24.1030 C   0  0  0  0  0  3  0  0  0  0  0  0
  -19.0630   -5.3050   24.9050 C   0  0  0  0  0  0  0  0  0  0  0  0
  -20.1240   -4.4100   24.6830 C   0  0  0  0  0  3  0  0  0  0  0  0
  -21.0500   -4.6610   23.6540 C   0  0  0  0  0  0  0  0  0  0  0  0
  -22.0580   -3.7830   23.4300 F   0  0  0  0  0  0  0  0  0  0  0  0
  -18.1690   -5.0590   25.8920 F   0  0  0  0  0  0  0  0  0  0  0  0
  -23.4970  -12.5330   21.6400 C   0  0  0  0  0  0  0  0  0  0  0  0
  -22.7770  -11.9160   22.5690 N   0  0  0  0  0  0  0  0  0  0  0  0
  -23.1160  -13.5890   21.1370 O   0  0  0  0  0  0  0  0  0  0  0  0
  -23.0960  -11.0580   22.9960 H   0  0  0  0  0  0  0  0  0  0  0  0
  -21.8920  -12.3060   22.8600 H   0  0  0  0  0  0  0  0  0  0  0  0
  -26.2330  -13.9500   20.7040 N   0  0  0  0  0  0  0  0  0  0  0  0
  -25.5470  -14.6770   20.8720 H   0  0  0  0  0  0  0  0  0  0  0  0
  -27.1110  -14.3080   20.3480 H   0  0  0  0  0  0  0  0  0  0  0  0
  -27.7130  -25.8650   21.1000 C   0  0  0  0  0  1  0  0  0  0  0  0
  -27.0850  -24.4890   21.3950 C   0  0  0  0  0  3  0  0  0  0  0  0
  -27.1680  -23.5590   20.2460 N   0  0  0  0  0  4  0  0  0  0  0  0
  -28.1260  -23.3530   20.0120 H   0  0  0  0  0  0  0  0  0  0  0  0
  -26.7690  -22.7010   20.5930 H   0  0  0  0  0  0  0  0  0  0  0  0
  -26.3800  -23.8980   19.0420 C   0  0  0  0  0  2  0  0  0  0  0  0
  -27.2370  -24.4450   17.8770 C   0  0  0  0  0  2  0  0  0  0  0  0
  -26.4110  -25.0330   16.8670 O   0  0  0  0  0  0  0  0  0  0  0  0
  -23.8620  -28.7830   22.3190 C   0  0  0  0  0  0  0  0  0  0  0  0
  -25.3670  -25.7560   17.3750 C   0  0  0  0  0  0  0  0  0  0  0  0
  -22.2010  -28.0540   20.6330 C   0  0  0  0  0  3  0  0  0  0  0  0
  -23.1650  -27.1280   18.4630 C   0  0  0  0  0  0  0  0  0  0  0  0
  -24.6350  -28.4740   19.9760 C   0  0  0  0  0  2  0  0  0  0  0  0
  -24.4630  -27.4170   18.9090 C   0  0  0  0  0  0  0  0  0  0  0  0
  -25.5690  -26.7300   18.3720 C   0  0  0  0  0  3  0  0  0  0  0  0
  -24.0630  -25.4830   16.9150 C   0  0  0  0  0  3  0  0  0  0  0  0
  -22.9580  -26.1560   17.4670 C   0  0  0  0  0  3  0  0  0  0  0  0
  -22.0370  -27.9110   19.0960 C   0  0  0  0  0  2  0  0  0  0  0  0
  -23.5980  -28.4290   21.0300 N   0  0  0  0  0  0  0  0  0  0  0  0
  -22.9570  -28.8440   23.1630 O   0  0  0  0  0  0  0  0  0  0  0  0
  -21.7010  -26.7570   21.3070 C   0  0  0  0  0  0  0  0  0  0  0  0
  -20.4080  -26.4480   21.1170 N   0  0  0  0  0  0  0  0  0  0  0  0
  -22.4690  -26.0440   21.9570 O   0  0  0  0  0  0  0  0  0  0  0  0
  -19.8430  -27.0920   20.5830 H   0  0  0  0  0  0  0  0  0  0  0  0
  -17.3120  -24.5920   20.9680 C   0  0  0  0  0  0  0  0  0  0  0  0
  -19.7220  -25.2600   21.6230 C   0  0  0  0  0  3  0  0  0  0  0  0
  -20.1710  -23.9920   20.8620 C   0  0  0  0  0  2  0  0  0  0  0  0
  -19.2700  -23.6480   19.6710 C   0  0  0  0  0  2  0  0  0  0  0  0
  -17.8260  -23.4290   20.1350 C   0  0  0  0  0  2  0  0  0  0  0  0
  -18.2020  -25.4600   21.6530 C   0  0  0  0  0  0  0  0  0  0  0  0
  -17.6740  -26.5450   22.3850 C   0  0  0  0  0  3  0  0  0  0  0  0
  -16.2850  -26.7680   22.4400 C   0  0  0  0  0  3  0  0  0  0  0  0
  -15.4080  -25.8950   21.7740 C   0  0  0  0  0  3  0  0  0  0  0  0
  -15.9200  -24.8080   21.0440 C   0  0  0  0  0  3  0  0  0  0  0  0
  -25.3050  -29.1500   22.7880 C   0  0  0  0  0  3  0  0  0  0  0  0
  -25.2170  -30.4040   23.5460 N   0  0  0  0  0  0  0  0  0  0  0  0
  -25.6430  -31.5940   23.1000 C   0  0  0  0  0  0  0  0  0  0  0  0
  -26.2240  -31.7360   22.0200 O   0  0  0  0  0  0  0  0  0  0  0  0
  -24.7050  -30.3710   24.4150 H   0  0  0  0  0  0  0  0  0  0  0  0
  -24.2200  -33.6430   23.4050 C   0  0  0  0  0  1  0  0  0  0  0  0
  -25.3800  -32.8220   23.9900 C   0  0  0  0  0  3  0  0  0  0  0  0
  -27.6190  -33.0710   24.9650 C   0  0  0  0  0  1  0  0  0  0  0  0
  -26.5670  -33.6870   24.1620 N   0  0  0  0  0  0  0  0  0  0  0  0
  -26.3100  -34.5690   24.5980 H   0  0  0  0  0  0  0  0  0  0  0  0
  -25.9830  -28.0190   23.6520 C   0  0  1  0  0  0  0  0  0  0  0  0
  -25.1040  -27.5170   24.8190 C   0  0  0  0  0  1  0  0  0  0  0  0
  -26.3390  -26.8010   22.7680 C   0  0  0  0  0  1  0  0  0  0  0  0
  -27.3110  -28.5390   24.2480 C   0  0  0  0  0  1  0  0  0  0  0  0
  1  2  1  0
  3  5  2  0
  3  4  1  0
  4  1  2  0
  5  6  1  0
  6  7  1  0
  6  2  2  0
  7  8  1  0
  9  7  1  0
 10 12  1  0
 10  4  1  0
 11 10  2  0
 13 16  1  0
 13 12  1  0
 14 13  1  0
 15 13  1  0
 17 18  1  0
 17 16  1  0
 19 25  1  0
 19 27  1  0
 20 25  1  0
 21 22  1  0
 21 20  1  0
 23 22  1  0
 23 32  1  0
 23 24  1  0
 25 24  1  0
 26 19  2  0
 27 18  1  0
 27 28  1  0
 29 30  2  0
 30 49  1  0
 31 30  1  0
 31 34  1  0
 32 33  1  0
 32 29  1  0
 33 31  2  0
 34 35  1  0
 35 36  2  0
 37 40  1  0
 37 36  1  0
 38 37  2  0
 39 38  1  0
 39 34  2  0
 40 41  1  0
 41 42  2  0
 41 46  1  0
 42 43  1  0
 43 44  2  0
 44 48  1  0
 45 44  1  0
 46 45  2  0
 47 46  1  0
 49 50  1  0
 50 53  1  0
 50 52  1  0
 51 49  2  0
 54 29  1  0
 54 55  1  0
 56 54  1  0
 58 57  1  0
 58  5  1  0
 59 61  1  0
 59 58  1  0
 60 59  1  0
 62 59  1  0
 63 62  1  0
 64 66  1  0
 64 63  1  0
 65 76  2  0
 66 71  1  0
 67 75  1  0
 67 77  1  0
 68 70  1  0
 68 74  1  0
 69 75  1  0
 70 69  1  0
 71 70  2  0
 72 66  2  0
 72 73  1  0
 73 68  2  0
 74 67  1  0
 75 65  1  0
 77 79  2  0
 78 77  1  0
 80 78  1  0
 81 90  2  0
 81 86  1  0
 82 78  1  0
 82 86  1  0
 83 82  1  0
 84 85  1  0
 84 83  1  0
 85 81  1  0
 86 87  2  0
 87 88  1  0
 89 88  2  0
 90 89  1  0
 91 65  1  0
 91 92  1  0
 91101  1  0
 92 95  1  0
 93 92  1  0
 93 97  1  0
 94 93  2  0
 97 96  1  0
 97 99  1  0
 99100  1  0
 99 98  1  0
101104  1  1
101102  1  0
103101  1  0
M  ISO  4  19 100  27 100  63 101  64 101
M  END
>  <TORSDO>  (74) 
F 27

>  <SCORE>  (74) 
6.922

>  <name>  (74) 
76

>  <ligand_id>  (74) 
76

>  <original_smiles>  (74) 
[H]c1c([H])c([H])c2c(c1[H])C([H])([H])C([H])([H])C([H])([H])C2([H])N([H])C(=O)C1([H])N(C(=O)C([H])(N([H])C(=O)C([H])(N([H])C([H])([H])[H])C([H])([H])[H])C(C([H])([H])[H])(C([H])([H])[H])C([H])([H])[H])C([H])([H])c2c([H])c(OC([H])([H])C([H])([H])[N+]([H])([H])C([H])(c3c([H])c(C(=O)C([H])([H])[N+]([H])([H])C([H])([H])C([H])([H])C([H])([H])N([H])C(=O)N4C([H])([H])C([H])([H])C([H])([H])C([H])(n5nc(-c6c([H])c([H])c(Oc7c([H])c([H])c(F)c([H])c7F)c([H])c6[H])c(C(=O)N([H])[H])c5N([H])[H])C4([H])[H])c([H])c([H])c3N([H])[H])C([H])([H])[H])c([H])c([H])c2C1([H])[H]

>  <smiles>  (74) 
[H]c1c([H])c([H])c2c(c1[H])C([H])([H])C([H])([H])C([H])([H])C2([H])N([H])C(=O)C1([H])N(C(=O)C([H])(N([H])C(=O)C([H])(N([H])C([H])([H])[H])C([H])([H])[H])C(C([H])([H])[H])(C([H])([H])[H])C([H])([H])[H])C([H])([H])c2c([H])c(OC([H])([H])C([H])([H])[N+]([H])([H])C([H])(c3c([H])c(C(=O)C([H])([H])[N+]([H])([H])C([H])([H])C([H])([H])C([H])([H])N([H])C(=O)N4C([H])([H])C([H])([H])C([H])([H])C([H])(n5nc(-c6c([H])c([H])c(Oc7c([H])c([H])c(F)c([H])c7F)c([H])c6[H])c(C(=O)N([H])[H])c5N([H])[H])C4([H])[H])c([H])c([H])c3N([H])[H])C([H])([H])[H])c([H])c([H])c2C1([H])[H]

$$$$
77:0:0
     RDKit          3D

 98106  0  0  1  0  0  0  0  0999 V2000
  -24.2800  -21.0560   19.8420 C   0  0  0  0  0  1  0  0  0  0  0  0
  -25.3770  -21.7280   18.9990 C   0  0  0  0  0  3  0  0  0  0  0  0
  -26.6770  -19.1600   16.4330 C   0  0  0  0  0  3  0  0  0  0  0  0
  -27.7770  -18.5950   17.1080 C   0  0  0  0  0  3  0  0  0  0  0  0
  -25.9290  -20.1950   17.0350 C   0  0  0  0  0  3  0  0  0  0  0  0
  -27.3550  -20.0680   19.0020 C   0  0  0  0  0  3  0  0  0  0  0  0
  -28.1210  -19.0430   18.4020 C   0  0  0  0  0  0  0  0  0  0  0  0
  -26.2530  -20.6550   18.3320 C   0  0  0  0  0  0  0  0  0  0  0  0
  -29.2960  -18.4530   19.1100 C   0  0  0  0  0  0  0  0  0  0  0  0
  -30.2050  -17.8660   18.5160 O   0  0  0  0  0  0  0  0  0  0  0  0
  -29.3140  -18.5750   20.6510 C   0  0  0  0  0  2  0  0  0  0  0  0
  -30.4140  -17.7920   21.3980 C   0  0  0  0  0  2  0  0  0  0  0  0
  -31.0140  -15.4010   21.1240 C   0  0  0  0  0  0  0  0  0  0  0  0
  -30.9370  -13.3980   19.7110 C   0  0  0  0  0  2  0  0  0  0  0  0
  -30.1220  -13.7660   18.4540 C   0  0  0  0  0  2  0  0  0  0  0  0
  -28.6100  -13.5730   18.6920 C   0  0  0  0  0  2  0  0  0  0  0  0
  -28.1210  -14.2310   20.0110 C   0  0  0  0  0  3  0  0  0  0  0  0
  -29.0540  -13.8350   21.1790 C   0  0  0  0  0  2  0  0  0  0  0  0
  -30.4260  -14.2210   20.8120 N   0  0  0  0  0  0  0  0  0  0  0  0
  -32.1930  -15.6710   20.8790 O   0  0  0  0  0  0  0  0  0  0  0  0
  -30.1440  -16.3570   21.4900 N   0  0  0  0  0  0  0  0  0  0  0  0
  -29.1890  -16.0630   21.6450 H   0  0  0  0  0  0  0  0  0  0  0  0
  -25.6080  -14.7130   20.3240 C   0  0  0  0  0  0  0  0  0  0  0  0
  -24.5490  -13.8830   20.5820 C   0  0  0  0  0  0  0  0  0  0  0  0
  -25.0980  -12.5710   20.7080 C   0  0  0  0  0  0  0  0  0  0  0  0
  -26.7300  -13.8970   20.3030 N   0  0  0  0  0  0  0  0  0  0  0  0
  -26.4170  -12.6090   20.5920 N   0  0  0  0  0  0  0  0  0  0  0  0
  -24.4350  -11.2700   20.8680 C   0  0  0  0  0  0  0  0  0  0  0  0
  -24.7880  -10.3880   21.9120 C   0  0  0  0  0  3  0  0  0  0  0  0
  -24.1230   -9.1500   22.0530 C   0  0  0  0  0  3  0  0  0  0  0  0
  -23.0970   -8.7860   21.1490 C   0  0  0  0  0  0  0  0  0  0  0  0
  -22.7670   -9.6620   20.0980 C   0  0  0  0  0  3  0  0  0  0  0  0
  -23.4330  -10.8900   19.9550 C   0  0  0  0  0  3  0  0  0  0  0  0
  -22.4120   -7.5970   21.1940 O   0  0  0  0  0  0  0  0  0  0  0  0
  -22.1200   -6.9840   22.3850 C   0  0  0  0  0  0  0  0  0  0  0  0
  -21.4000   -7.6450   23.4070 C   0  0  0  0  0  3  0  0  0  0  0  0
  -21.0580   -6.9540   24.5830 C   0  0  0  0  0  3  0  0  0  0  0  0
  -21.4250   -5.6030   24.7410 C   0  0  0  0  0  0  0  0  0  0  0  0
  -22.1400   -4.9460   23.7280 C   0  0  0  0  0  3  0  0  0  0  0  0
  -22.4840   -5.6320   22.5500 C   0  0  0  0  0  0  0  0  0  0  0  0
  -23.1560   -4.9890   21.5650 F   0  0  0  0  0  0  0  0  0  0  0  0
  -21.0870   -4.9350   25.8700 F   0  0  0  0  0  0  0  0  0  0  0  0
  -23.1010  -14.2740   20.6110 C   0  0  0  0  0  0  0  0  0  0  0  0
  -22.2990  -13.5850   21.4170 N   0  0  0  0  0  0  0  0  0  0  0  0
  -22.6760  -15.2190   19.9500 O   0  0  0  0  0  0  0  0  0  0  0  0
  -22.6500  -12.8050   21.9540 H   0  0  0  0  0  0  0  0  0  0  0  0
  -21.3160  -13.8230   21.4780 H   0  0  0  0  0  0  0  0  0  0  0  0
  -25.6950  -16.0790   20.0910 N   0  0  0  0  0  0  0  0  0  0  0  0
  -24.8480  -16.6310   19.9950 H   0  0  0  0  0  0  0  0  0  0  0  0
  -26.5080  -16.5420   19.7110 H   0  0  0  0  0  0  0  0  0  0  0  0
  -26.1480  -22.6560   19.8580 N   0  0  0  0  0  4  0  0  0  0  0  0
  -25.5560  -23.4510   20.0250 H   0  0  0  0  0  0  0  0  0  0  0  0
  -26.2970  -22.2010   20.7430 H   0  0  0  0  0  0  0  0  0  0  0  0
  -27.4340  -23.1680   19.3270 C   0  0  0  0  0  2  0  0  0  0  0  0
  -28.1660  -23.9880   20.4070 C   0  0  0  0  0  2  0  0  0  0  0  0
  -29.4620  -24.6720   19.9370 C   0  0  0  0  0  2  0  0  0  0  0  0
  -29.8290  -25.8830   20.8210 C   0  0  0  0  0  2  0  0  0  0  0  0
  -29.5680  -27.1230   20.1800 O   0  0  0  0  0  0  0  0  0  0  0  0
  -24.7580  -31.3270   23.3120 C   0  0  0  0  0  0  0  0  0  0  0  0
  -28.2660  -27.5680   20.2140 C   0  0  0  0  0  0  0  0  0  0  0  0
  -23.8800  -29.8130   21.5650 C   0  0  0  0  0  3  0  0  0  0  0  0
  -25.6380  -28.6010   20.1750 C   0  0  0  0  0  0  0  0  0  0  0  0
  -26.3080  -30.6160   21.5000 C   0  0  0  0  0  2  0  0  0  0  0  0
  -26.6600  -29.3080   20.8200 C   0  0  0  0  0  0  0  0  0  0  0  0
  -27.9750  -28.8000   20.8360 C   0  0  0  0  0  3  0  0  0  0  0  0
  -27.2210  -26.8520   19.5880 C   0  0  0  0  0  3  0  0  0  0  0  0
  -25.9100  -27.3650   19.5640 C   0  0  0  0  0  3  0  0  0  0  0  0
  -24.2650  -29.2330   20.1790 C   0  0  0  0  0  2  0  0  0  0  0  0
  -24.9960  -30.5980   22.1860 N   0  0  0  0  0  0  0  0  0  0  0  0
  -23.6250  -31.3850   23.8110 O   0  0  0  0  0  0  0  0  0  0  0  0
  -23.3720  -28.6580   22.4570 C   0  0  0  0  0  0  0  0  0  0  0  0
  -22.2080  -28.0930   22.0970 N   0  0  0  0  0  0  0  0  0  0  0  0
  -24.0310  -28.2730   23.4270 O   0  0  0  0  0  0  0  0  0  0  0  0
  -21.7280  -28.4700   21.2910 H   0  0  0  0  0  0  0  0  0  0  0  0
  -19.3330  -25.9130   21.9780 C   0  0  0  0  0  0  0  0  0  0  0  0
  -21.5590  -26.9650   22.7620 C   0  0  0  0  0  3  0  0  0  0  0  0
  -22.2170  -25.6260   22.3610 C   0  0  0  0  0  2  0  0  0  0  0  0
  -21.5320  -24.9500   21.1710 C   0  0  0  0  0  2  0  0  0  0  0  0
  -20.0590  -24.6690   21.4900 C   0  0  0  0  0  2  0  0  0  0  0  0
  -20.0400  -26.9970   22.5610 C   0  0  0  0  0  0  0  0  0  0  0  0
  -19.3220  -28.1410   22.9650 C   0  0  0  0  0  3  0  0  0  0  0  0
  -17.9270  -28.2120   22.7960 C   0  0  0  0  0  3  0  0  0  0  0  0
  -17.2300  -27.1280   22.2350 C   0  0  0  0  0  3  0  0  0  0  0  0
  -17.9320  -25.9810   21.8280 C   0  0  0  0  0  3  0  0  0  0  0  0
  -25.8920  -32.1380   24.0160 C   0  0  0  0  0  3  0  0  0  0  0  0
  -26.3920  -31.4760   25.3570 C   0  0  1  0  0  0  0  0  0  0  0  0
  -25.2440  -31.0040   26.2780 C   0  0  0  0  0  1  0  0  0  0  0  0
  -27.2930  -30.2560   25.0590 C   0  0  0  0  0  1  0  0  0  0  0  0
  -27.2540  -32.4840   26.1490 C   0  0  0  0  0  1  0  0  0  0  0  0
  -25.3750  -33.4910   24.2610 N   0  0  0  0  0  0  0  0  0  0  0  0
  -25.6420  -34.5570   23.4940 C   0  0  0  0  0  0  0  0  0  0  0  0
  -26.4180  -34.5150   22.5340 O   0  0  0  0  0  0  0  0  0  0  0  0
  -24.6910  -33.5880   24.9960 H   0  0  0  0  0  0  0  0  0  0  0  0
  -23.7480  -36.1010   22.9070 C   0  0  0  0  0  1  0  0  0  0  0  0
  -24.9400  -35.8810   23.8520 C   0  0  0  0  0  3  0  0  0  0  0  0
  -26.8510  -37.0510   24.8550 C   0  0  0  0  0  1  0  0  0  0  0  0
  -25.8370  -37.0560   23.8030 N   0  0  0  0  0  0  0  0  0  0  0  0
  -25.3020  -37.9180   23.8810 H   0  0  0  0  0  0  0  0  0  0  0  0
  2  1  1  0
  2 51  1  0
  3  5  2  0
  3  4  1  0
  4  7  2  0
  5  8  1  0
  7  6  1  0
  7  9  1  0
  8  2  1  0
  8  6  2  0
  9 11  1  0
 10  9  2  0
 11 12  1  0
 12 21  1  0
 13 21  1  0
 14 19  1  0
 15 16  1  0
 15 14  1  0
 17 16  1  0
 17 26  1  0
 17 18  1  0
 19 13  1  0
 19 18  1  0
 20 13  2  0
 21 22  1  0
 23 24  2  0
 24 43  1  0
 24 25  1  0
 25 28  1  0
 26 23  1  0
 26 27  1  0
 27 25  2  0
 28 29  1  0
 29 30  2  0
 31 34  1  0
 31 30  1  0
 32 31  2  0
 33 32  1  0
 33 28  2  0
 34 35  1  0
 35 40  2  0
 35 36  1  0
 36 37  2  0
 37 38  1  0
 38 42  1  0
 39 38  2  0
 40 39  1  0
 41 40  1  0
 43 44  1  0
 44 47  1  0
 44 46  1  0
 45 43  2  0
 48 23  1  0
 49 48  1  0
 50 48  1  0
 51 52  1  0
 51 53  1  0
 54 51  1  0
 54 55  1  0
 56 55  1  0
 56 57  1  0
 58 60  1  0
 58 57  1  0
 59 70  2  0
 60 65  1  0
 61 69  1  0
 61 71  1  0
 62 68  1  0
 62 64  1  0
 63 69  1  0
 64 65  2  0
 64 63  1  0
 66 60  2  0
 67 66  1  0
 67 62  2  0
 68 61  1  0
 69 59  1  0
 71 73  2  0
 72 71  1  0
 74 72  1  0
 75 80  1  0
 76 72  1  0
 77 76  1  0
 78 79  1  0
 78 77  1  0
 79 75  1  0
 80 76  1  0
 80 81  2  0
 82 81  1  0
 83 82  2  0
 84 75  2  0
 84 83  1  0
 85 59  1  0
 85 90  1  0
 85 86  1  0
 86 89  1  1
 86 87  1  0
 88 86  1  0
 90 93  1  0
 91 95  1  0
 91 90  1  0
 92 91  2  0
 95 94  1  0
 97 95  1  0
 97 98  1  0
 97 96  1  0
M  ISO  4  13 100  21 100  57 101  58 101
M  END
>  <TORSDO>  (75) 
F 25

>  <SCORE>  (75) 
-7.096

>  <name>  (75) 
77

>  <ligand_id>  (75) 
77

>  <original_smiles>  (75) 
[H]c1c([H])c([H])c2c(c1[H])C([H])([H])C([H])([H])C([H])([H])C2([H])N([H])C(=O)C1([H])N(C(=O)C([H])(N([H])C(=O)C([H])(N([H])C([H])([H])[H])C([H])([H])[H])C(C([H])([H])[H])(C([H])([H])[H])C([H])([H])[H])C([H])([H])c2c([H])c(OC([H])([H])C([H])([H])C([H])([H])C([H])([H])[N+]([H])([H])C([H])(c3c([H])c([H])c([H])c(C(=O)C([H])([H])C([H])([H])N([H])C(=O)N4C([H])([H])C([H])([H])C([H])([H])C([H])(n5nc(-c6c([H])c([H])c(Oc7c([H])c([H])c(F)c([H])c7F)c([H])c6[H])c(C(=O)N([H])[H])c5N([H])[H])C4([H])[H])c3[H])C([H])([H])[H])c([H])c([H])c2C1([H])[H]

>  <smiles>  (75) 
[H]c1c([H])c([H])c2c(c1[H])C([H])([H])C([H])([H])C([H])([H])C2([H])N([H])C(=O)C1([H])N(C(=O)C([H])(N([H])C(=O)C([H])(N([H])C([H])([H])[H])C([H])([H])[H])C(C([H])([H])[H])(C([H])([H])[H])C([H])([H])[H])C([H])([H])c2c([H])c(OC([H])([H])C([H])([H])C([H])([H])C([H])([H])[N+]([H])([H])C([H])(c3c([H])c([H])c([H])c(C(=O)C([H])([H])C([H])([H])N([H])C(=O)N4C([H])([H])C([H])([H])C([H])([H])C([H])(n5nc(-c6c([H])c([H])c(Oc7c([H])c([H])c(F)c([H])c7F)c([H])c6[H])c(C(=O)N([H])[H])c5N([H])[H])C4([H])[H])c3[H])C([H])([H])[H])c([H])c([H])c2C1([H])[H]

$$$$
78:0:0
     RDKit          3D

104112  0  0  1  0  0  0  0  0999 V2000
  -28.0760  -20.6120   17.6300 C   0  0  0  0  0  3  0  0  0  0  0  0
  -28.1520  -21.8470   16.9490 C   0  0  0  0  0  3  0  0  0  0  0  0
  -27.6150  -20.5170   18.9710 C   0  0  0  0  0  0  0  0  0  0  0  0
  -27.7170  -23.0470   17.5570 C   0  0  0  0  0  0  0  0  0  0  0  0
  -27.1510  -21.7240   19.5670 C   0  0  0  0  0  0  0  0  0  0  0  0
  -27.1590  -22.9380   18.8490 C   0  0  0  0  0  0  0  0  0  0  0  0
  -26.6070  -24.0100   19.4480 F   0  0  0  0  0  0  0  0  0  0  0  0
  -27.5980  -19.1910   19.7230 C   0  0  0  0  0  0  0  0  0  0  0  0
  -26.8160  -18.9460   20.6520 O   0  0  0  0  0  0  0  0  0  0  0  0
  -28.5600  -18.0380   19.2930 C   0  0  0  0  0  0  0  0  0  0  0  0
  -29.8550  -18.2760   19.5560 N   0  0  0  0  0  0  0  0  0  0  0  0
  -28.1500  -17.0150   18.7380 O   0  0  0  0  0  0  0  0  0  0  0  0
  -30.0490  -19.1040   20.1020 H   0  0  0  0  0  0  0  0  0  0  0  0
  -30.9630  -17.6480   18.8360 C   0  0  0  0  0  2  0  0  0  0  0  0
  -32.2820  -17.6540   19.6450 C   0  0  0  0  0  2  0  0  0  0  0  0
  -33.2590  -16.4920   19.3140 C   0  0  0  0  0  2  0  0  0  0  0  0
  -33.6030  -14.1020   20.0210 C   0  0  0  0  0  0  0  0  0  0  0  0
  -33.3600  -11.6730   20.4150 C   0  0  0  0  0  2  0  0  0  0  0  0
  -32.5220  -11.0410   19.2830 C   0  0  0  0  0  2  0  0  0  0  0  0
  -31.0150  -11.1650   19.5670 C   0  0  0  0  0  2  0  0  0  0  0  0
  -30.6070  -12.6050   19.9820 C   0  0  0  0  0  3  0  0  0  0  0  0
  -31.5410  -13.1310   21.0930 C   0  0  0  0  0  2  0  0  0  0  0  0
  -32.9260  -13.0680   20.5840 N   0  0  0  0  0  0  0  0  0  0  0  0
  -34.7230  -13.9910   19.5100 O   0  0  0  0  0  0  0  0  0  0  0  0
  -32.9060  -15.2520   20.0000 N   0  0  0  0  0  0  0  0  0  0  0  0
  -32.0080  -15.2290   20.4620 H   0  0  0  0  0  0  0  0  0  0  0  0
  -28.4060  -13.7770   20.6120 C   0  0  0  0  0  0  0  0  0  0  0  0
  -27.1660  -13.2820   20.9200 C   0  0  0  0  0  0  0  0  0  0  0  0
  -27.2840  -11.8610   20.8600 C   0  0  0  0  0  0  0  0  0  0  0  0
  -29.2090  -12.6680   20.3880 N   0  0  0  0  0  0  0  0  0  0  0  0
  -28.5340  -11.5090   20.5880 N   0  0  0  0  0  0  0  0  0  0  0  0
  -26.2660  -10.8100   20.9820 C   0  0  0  0  0  0  0  0  0  0  0  0
  -26.2600   -9.9050   22.0680 C   0  0  0  0  0  3  0  0  0  0  0  0
  -25.2610   -8.9120   22.1670 C   0  0  0  0  0  3  0  0  0  0  0  0
  -24.2510   -8.8250   21.1780 C   0  0  0  0  0  0  0  0  0  0  0  0
  -24.2750   -9.7130   20.0870 C   0  0  0  0  0  3  0  0  0  0  0  0
  -25.2730  -10.6960   19.9890 C   0  0  0  0  0  3  0  0  0  0  0  0
  -23.2500   -7.8820   21.1800 O   0  0  0  0  0  0  0  0  0  0  0  0
  -22.6420   -7.4820   22.3410 C   0  0  0  0  0  0  0  0  0  0  0  0
  -21.9380   -8.3890   23.1650 C   0  0  0  0  0  3  0  0  0  0  0  0
  -21.2730   -7.9260   24.3160 C   0  0  0  0  0  3  0  0  0  0  0  0
  -21.2950   -6.5570   24.6410 C   0  0  0  0  0  0  0  0  0  0  0  0
  -21.9860   -5.6500   23.8180 C   0  0  0  0  0  3  0  0  0  0  0  0
  -22.6540   -6.1110   22.6700 C   0  0  0  0  0  0  0  0  0  0  0  0
  -23.3030   -5.2320   21.8700 F   0  0  0  0  0  0  0  0  0  0  0  0
  -20.6450   -6.1100   25.7400 F   0  0  0  0  0  0  0  0  0  0  0  0
  -25.9210  -14.0810   21.1720 C   0  0  0  0  0  0  0  0  0  0  0  0
  -25.0110  -13.5520   21.9850 N   0  0  0  0  0  0  0  0  0  0  0  0
  -25.7650  -15.1990   20.6830 O   0  0  0  0  0  0  0  0  0  0  0  0
  -25.1500  -12.6390   22.3900 H   0  0  0  0  0  0  0  0  0  0  0  0
  -24.1660  -14.0630   22.2050 H   0  0  0  0  0  0  0  0  0  0  0  0
  -28.9120  -15.0620   20.4940 N   0  0  0  0  0  0  0  0  0  0  0  0
  -28.3770  -15.8840   20.7570 H   0  0  0  0  0  0  0  0  0  0  0  0
  -29.8830  -15.2630   20.2990 H   0  0  0  0  0  0  0  0  0  0  0  0
  -26.5880  -25.3220   16.9060 C   0  0  0  0  0  1  0  0  0  0  0  0
  -27.8050  -24.3810   16.7820 C   0  0  0  0  0  3  0  0  0  0  0  0
  -29.1170  -25.0950   16.8720 N   0  0  0  0  0  4  0  0  0  0  0  0
  -29.2470  -25.4800   15.9480 H   0  0  0  0  0  0  0  0  0  0  0  0
  -29.8590  -24.4290   16.9880 H   0  0  0  0  0  0  0  0  0  0  0  0
  -29.3080  -26.2590   17.7900 C   0  0  0  0  0  2  0  0  0  0  0  0
  -29.3580  -25.9220   19.2960 C   0  0  0  0  0  2  0  0  0  0  0  0
  -29.3210  -27.1220   20.0930 O   0  0  0  0  0  0  0  0  0  0  0  0
  -25.3070  -31.5140   24.0280 C   0  0  0  0  0  0  0  0  0  0  0  0
  -28.1180  -27.7970   20.2150 C   0  0  0  0  0  0  0  0  0  0  0  0
  -24.1550  -30.3640   22.1700 C   0  0  0  0  0  3  0  0  0  0  0  0
  -25.6590  -29.1750   20.5020 C   0  0  0  0  0  0  0  0  0  0  0  0
  -26.6650  -30.8560   22.0480 C   0  0  0  0  0  2  0  0  0  0  0  0
  -26.7990  -29.6200   21.1840 C   0  0  0  0  0  0  0  0  0  0  0  0
  -28.0260  -28.9280   21.0560 C   0  0  0  0  0  3  0  0  0  0  0  0
  -26.9620  -27.4100   19.5020 C   0  0  0  0  0  3  0  0  0  0  0  0
  -25.7330  -28.0590   19.6620 C   0  0  0  0  0  3  0  0  0  0  0  0
  -24.3800  -29.9520   20.6920 C   0  0  0  0  0  2  0  0  0  0  0  0
  -25.3930  -30.9190   22.8040 N   0  0  0  0  0  0  0  0  0  0  0  0
  -24.2160  -31.6390   24.6050 O   0  0  0  0  0  0  0  0  0  0  0  0
  -23.5540  -29.1600   22.9330 C   0  0  0  0  0  0  0  0  0  0  0  0
  -22.3160  -28.7770   22.5780 N   0  0  0  0  0  0  0  0  0  0  0  0
  -24.2070  -28.5760   23.8010 O   0  0  0  0  0  0  0  0  0  0  0  0
  -21.8480  -29.3030   21.8520 H   0  0  0  0  0  0  0  0  0  0  0  0
  -19.2870  -26.8310   22.2360 C   0  0  0  0  0  0  0  0  0  0  0  0
  -21.5650  -27.6550   23.1400 C   0  0  0  0  0  3  0  0  0  0  0  0
  -22.1360  -26.3060   22.6520 C   0  0  0  0  0  2  0  0  0  0  0  0
  -21.4320  -25.7700   21.4030 C   0  0  0  0  0  2  0  0  0  0  0  0
  -19.9340  -25.5800   21.6690 C   0  0  0  0  0  2  0  0  0  0  0  0
  -20.0580  -27.8140   22.9150 C   0  0  0  0  0  0  0  0  0  0  0  0
  -19.4150  -28.9750   23.3930 C   0  0  0  0  0  3  0  0  0  0  0  0
  -18.0310  -29.1620   23.2100 C   0  0  0  0  0  3  0  0  0  0  0  0
  -17.2730  -28.1760   22.5560 C   0  0  0  0  0  3  0  0  0  0  0  0
  -17.8970  -27.0160   22.0710 C   0  0  0  0  0  3  0  0  0  0  0  0
  -26.5660  -32.0890   24.7430 C   0  0  0  0  0  3  0  0  0  0  0  0
  -26.9850  -31.2620   26.0210 C   0  0  1  0  0  0  0  0  0  0  0  0
  -25.8170  -30.9900   26.9980 C   0  0  0  0  0  1  0  0  0  0  0  0
  -27.5860  -29.8940   25.6170 C   0  0  0  0  0  1  0  0  0  0  0  0
  -28.0920  -32.0190   26.7930 C   0  0  0  0  0  1  0  0  0  0  0  0
  -26.2690  -33.4830   25.0970 N   0  0  0  0  0  0  0  0  0  0  0  0
  -26.6630  -34.5490   24.3870 C   0  0  0  0  0  0  0  0  0  0  0  0
  -27.3840  -34.4600   23.3900 O   0  0  0  0  0  0  0  0  0  0  0  0
  -25.6350  -33.6240   25.8680 H   0  0  0  0  0  0  0  0  0  0  0  0
  -25.0010  -36.3950   23.9840 C   0  0  0  0  0  1  0  0  0  0  0  0
  -26.1800  -35.9340   24.8570 C   0  0  0  0  0  3  0  0  0  0  0  0
  -28.2740  -36.7420   25.8530 C   0  0  0  0  0  1  0  0  0  0  0  0
  -27.2420  -36.9640   24.8430 N   0  0  0  0  0  0  0  0  0  0  0  0
  -26.8520  -37.8910   24.9890 H   0  0  0  0  0  0  0  0  0  0  0  0
  -26.6670  -21.8090   20.8410 O   0  0  0  0  0  0  0  0  0  0  0  0
  -26.4230  -22.7120   21.0250 H   0  0  0  0  0  0  0  0  0  0  0  0
  1  3  1  0
  2  4  1  0
  2  1  2  0
  3  5  2  0
  3  8  1  0
  4  6  2  0
  5103  1  0
  6  7  1  0
  6  5  1  0
  8  9  2  0
 10 11  1  0
 10  8  1  0
 11 13  1  0
 12 10  2  0
 14 11  1  0
 14 15  1  0
 16 15  1  0
 16 25  1  0
 17 23  1  0
 18 23  1  0
 19 20  1  0
 19 18  1  0
 21 20  1  0
 21 30  1  0
 21 22  1  0
 23 22  1  0
 24 17  2  0
 25 17  1  0
 25 26  1  0
 27 28  2  0
 28 47  1  0
 29 28  1  0
 29 32  1  0
 30 31  1  0
 30 27  1  0
 31 29  2  0
 32 33  1  0
 33 34  2  0
 35 38  1  0
 35 34  1  0
 36 35  2  0
 37 36  1  0
 37 32  2  0
 38 39  1  0
 39 44  2  0
 39 40  1  0
 40 41  2  0
 41 42  1  0
 42 46  1  0
 43 42  2  0
 44 43  1  0
 45 44  1  0
 47 48  1  0
 48 51  1  0
 48 50  1  0
 49 47  2  0
 52 27  1  0
 52 53  1  0
 54 52  1  0
 56 57  1  0
 56 55  1  0
 56  4  1  0
 57 59  1  0
 57 60  1  0
 58 57  1  0
 60 61  1  0
 61 62  1  0
 62 64  1  0
 63 74  2  0
 64 69  1  0
 65 73  1  0
 65 75  1  0
 66 72  1  0
 66 68  1  0
 67 73  1  0
 68 67  1  0
 69 68  2  0
 70 71  1  0
 70 64  2  0
 71 66  2  0
 72 65  1  0
 73 63  1  0
 75 77  2  0
 76 75  1  0
 78 76  1  0
 79 84  1  0
 80 76  1  0
 81 80  1  0
 82 83  1  0
 82 81  1  0
 83 79  1  0
 84 80  1  0
 84 85  2  0
 86 85  1  0
 87 86  2  0
 88 79  2  0
 88 87  1  0
 89 63  1  0
 89 94  1  0
 89 90  1  0
 90 93  1  1
 90 91  1  0
 92 90  1  0
 94 97  1  0
 95 99  1  0
 95 94  1  0
 96 95  2  0
 99 98  1  0
101 99  1  0
101102  1  0
101100  1  0
103104  1  0
M  ISO  4  17 100  25 100  61 101  62 101
M  END
>  <TORSDO>  (76) 
F 26

>  <SCORE>  (76) 
-7.039

>  <name>  (76) 
78

>  <ligand_id>  (76) 
78

>  <original_smiles>  (76) 
[H]Oc1c(F)c(C([H])(C([H])([H])[H])[N+]([H])([H])C([H])([H])C([H])([H])Oc2c([H])c([H])c3c(c2[H])C([H])([H])N(C(=O)C([H])(N([H])C(=O)C([H])(N([H])C([H])([H])[H])C([H])([H])[H])C(C([H])([H])[H])(C([H])([H])[H])C([H])([H])[H])C([H])(C(=O)N([H])C2([H])c4c([H])c([H])c([H])c([H])c4C([H])([H])C([H])([H])C2([H])[H])C3([H])[H])c([H])c([H])c1C(=O)C(=O)N([H])C([H])([H])C([H])([H])C([H])([H])N([H])C(=O)N1C([H])([H])C([H])([H])C([H])([H])C([H])(n2nc(-c3c([H])c([H])c(Oc4c([H])c([H])c(F)c([H])c4F)c([H])c3[H])c(C(=O)N([H])[H])c2N([H])[H])C1([H])[H]

>  <smiles>  (76) 
[H]Oc1c(F)c(C([H])(C([H])([H])[H])[N+]([H])([H])C([H])([H])C([H])([H])Oc2c([H])c([H])c3c(c2[H])C([H])([H])N(C(=O)C([H])(N([H])C(=O)C([H])(N([H])C([H])([H])[H])C([H])([H])[H])C(C([H])([H])[H])(C([H])([H])[H])C([H])([H])[H])C([H])(C(=O)N([H])C2([H])c4c([H])c([H])c([H])c([H])c4C([H])([H])C([H])([H])C2([H])[H])C3([H])[H])c([H])c([H])c1C(=O)C(=O)N([H])C([H])([H])C([H])([H])C([H])([H])N([H])C(=O)N1C([H])([H])C([H])([H])C([H])([H])C([H])(n2nc(-c3c([H])c([H])c(Oc4c([H])c([H])c(F)c([H])c4F)c([H])c3[H])c(C(=O)N([H])[H])c2N([H])[H])C1([H])[H]

$$$$
79:0:0
     RDKit          3D

101105  0  0  1  0  0  0  0  0999 V2000
  -20.1160  -27.6830   21.3960 C   0  0  0  0  0 15  0  0  0  0  0  0
  -17.2130  -27.9770   21.0060 C   0  0  0  0  0  2  0  0  0  0  0  0
  -13.7380  -27.8120   24.0050 C   0  0  0  0  0  3  0  0  0  0  0  0
  -13.9560  -25.8090   23.1070 C   0  0  0  0  0  3  0  0  0  0  0  0
  -14.7520  -28.3840   23.0030 C   0  0  0  0  0  3  0  0  0  0  0  0
  -14.8040  -26.4170   22.0140 C   0  0  0  0  0  3  0  0  0  0  0  0
  -13.4310  -26.3970   24.3460 C   0  0  0  0  0  0  0  0  0  0  0  0
  -15.5810  -27.7060   21.9450 C   0  0  0  0  0  0  0  0  0  0  0  0
  -12.3540  -25.6290   25.4800 C   0  0  0  0  0  0  0  0  0  0  0  0
  -11.8780  -25.8000   26.9150 N   0  0  0  0  0  0  0  0  0  0  0  0
  -11.8730  -24.6190   24.9610 O   0  0  0  0  0  0  0  0  0  0  0  0
  -12.2520  -26.6360   27.3540 H   0  0  0  0  0  0  0  0  0  0  0  0
  -10.9450  -24.8760   28.0440 C   0  0  0  0  0  2  0  0  0  0  0  0
   -9.7210  -25.2190   29.4160 C   0  0  0  0  0  2  0  0  0  0  0  0
   -7.9650  -24.2130   31.8010 C   0  0  0  0  0  0  0  0  0  0  0  0
   -7.4010  -24.0690   34.3780 C   0  0  0  0  0  2  0  0  0  0  0  0
   -8.0050  -25.2810   35.1470 C   0  0  0  0  0  2  0  0  0  0  0  0
   -9.5310  -25.1240   35.3380 C   0  0  0  0  0  2  0  0  0  0  0  0
  -10.1980  -24.5570   34.0580 C   0  0  0  0  0  3  0  0  0  0  0  0
   -9.4850  -23.3000   33.5510 C   0  0  0  0  0  2  0  0  0  0  0  0
   -8.2040  -23.7910   33.1250 N   0  0  0  0  0  0  0  0  0  0  0  0
   -6.7420  -24.4570   31.6320 O   0  0  0  0  0  0  0  0  0  0  0  0
   -9.1370  -24.4390   30.8430 N   0  0  0  0  0  0  0  0  0  0  0  0
   -9.9510  -24.2270   31.4050 H   0  0  0  0  0  0  0  0  0  0  0  0
  -12.6300  -24.7940   33.3990 C   0  0  0  0  0  0  0  0  0  0  0  0
  -13.7670  -24.2660   33.9350 C   0  0  0  0  0  0  0  0  0  0  0  0
  -13.3490  -23.4290   35.0160 C   0  0  0  0  0  0  0  0  0  0  0  0
  -11.6050  -24.2950   34.1780 N   0  0  0  0  0  0  0  0  0  0  0  0
  -12.0310  -23.4180   35.1100 N   0  0  0  0  0  0  0  0  0  0  0  0
  -14.1260  -22.6900   36.0110 C   0  0  0  0  0  0  0  0  0  0  0  0
  -13.6230  -21.5170   36.6150 C   0  0  0  0  0  3  0  0  0  0  0  0
  -14.4010  -20.8170   37.5590 C   0  0  0  0  0  3  0  0  0  0  0  0
  -15.6910  -21.2860   37.9040 C   0  0  0  0  0  0  0  0  0  0  0  0
  -16.1710  -22.4700   37.3160 C   0  0  0  0  0  3  0  0  0  0  0  0
  -15.3960  -23.1700   36.3800 C   0  0  0  0  0  3  0  0  0  0  0  0
  -16.5080  -20.6880   38.8300 O   0  0  0  0  0  0  0  0  0  0  0  0
  -16.1230  -19.5560   39.5020 C   0  0  0  0  0  0  0  0  0  0  0  0
  -15.9860  -18.3120   38.8490 C   0  0  0  0  0  3  0  0  0  0  0  0
  -15.6570  -17.1590   39.5920 C   0  0  0  0  0  3  0  0  0  0  0  0
  -15.4730  -17.2470   40.9860 C   0  0  0  0  0  0  0  0  0  0  0  0
  -15.6170  -18.4860   41.6380 C   0  0  0  0  0  3  0  0  0  0  0  0
  -15.9430  -19.6350   40.8970 C   0  0  0  0  0  0  0  0  0  0  0  0
  -16.1000  -20.8210   41.5330 F   0  0  0  0  0  0  0  0  0  0  0  0
  -15.1650  -16.1410   41.7000 F   0  0  0  0  0  0  0  0  0  0  0  0
  -15.1720  -24.5860   33.5240 C   0  0  0  0  0  0  0  0  0  0  0  0
  -16.0500  -23.5910   33.5230 N   0  0  0  0  0  0  0  0  0  0  0  0
  -15.4840  -25.7160   33.1520 O   0  0  0  0  0  0  0  0  0  0  0  0
  -15.7830  -22.6590   33.8080 H   0  0  0  0  0  0  0  0  0  0  0  0
  -17.0040  -23.7650   33.2360 H   0  0  0  0  0  0  0  0  0  0  0  0
  -12.3870  -25.6680   32.3400 N   0  0  0  0  0  0  0  0  0  0  0  0
  -13.1530  -26.0710   31.8100 H   0  0  0  0  0  0  0  0  0  0  0  0
  -11.4930  -26.0640   32.0890 H   0  0  0  0  0  0  0  0  0  0  0  0
  -16.3210  -26.7440   20.1450 C   0  0  0  0  0  2  0  0  0  0  0  0
  -15.9250  -25.1880   20.7110 C   0  0  0  0  0  2  0  0  0  0  0  0
  -16.8410  -24.0330   21.4600 C   0  0  0  0  0  2  0  0  0  0  0  0
  -16.4530  -23.5130   22.8700 N   0  0  0  0  0  4  0  0  0  0  0  0
  -15.8010  -24.1700   23.2710 H   0  0  0  0  0  0  0  0  0  0  0  0
  -17.2960  -23.5960   23.4300 H   0  0  0  0  0  0  0  0  0  0  0  0
  -15.8940  -22.0920   23.1130 C   0  0  0  0  0  2  0  0  0  0  0  0
  -16.8340  -20.8390   23.6760 C   0  0  0  0  0  2  0  0  0  0  0  0
  -16.7010  -20.0550   24.9940 O   0  0  0  0  0  0  0  0  0  0  0  0
   -9.7910  -18.6550   23.9710 C   0  0  0  0  0  0  0  0  0  0  0  0
  -15.4380  -20.2290   25.4900 C   0  0  0  0  0  0  0  0  0  0  0  0
  -10.6490  -20.9120   24.1420 C   0  0  0  0  0  3  0  0  0  0  0  0
  -12.8730  -21.2640   25.2980 C   0  0  0  0  0  0  0  0  0  0  0  0
  -11.7640  -19.0430   25.4700 C   0  0  0  0  0  2  0  0  0  0  0  0
  -13.0340  -19.8770   25.4150 C   0  0  0  0  0  0  0  0  0  0  0  0
  -14.3430  -19.3240   25.4430 C   0  0  0  0  0  3  0  0  0  0  0  0
  -15.1940  -21.5670   25.7630 C   0  0  0  0  0  3  0  0  0  0  0  0
  -13.9520  -22.1220   25.4740 C   0  0  0  0  0  3  0  0  0  0  0  0
  -11.4900  -21.7990   25.0860 C   0  0  0  0  0  2  0  0  0  0  0  0
  -10.6980  -19.4900   24.5370 N   0  0  0  0  0  0  0  0  0  0  0  0
   -8.9100  -19.0770   23.2050 O   0  0  0  0  0  0  0  0  0  0  0  0
  -11.1410  -21.0370   22.6960 C   0  0  0  0  0  0  0  0  0  0  0  0
  -10.3400  -21.6660   21.8900 N   0  0  0  0  0  0  0  0  0  0  0  0
  -12.1800  -20.5550   22.2610 O   0  0  0  0  0  0  0  0  0  0  0  0
   -9.3540  -21.3860   21.8960 H   0  0  0  0  0  0  0  0  0  0  0  0
   -9.4930  -24.3680   18.9230 C   0  0  0  0  0  0  0  0  0  0  0  0
  -10.8420  -22.4750   20.8280 C   0  0  0  0  0  2  0  0  0  0  0  0
  -11.8920  -23.8810   21.8250 C   0  0  0  0  0 15  0  0  0  0  0  0
  -11.6030  -25.7910   21.1250 C   0  0  0  0  0 15  0  0  0  0  0  0
  -10.4580  -25.8230   19.4350 C   0  0  0  0  0  1  0  0  0  0  0  0
   -9.6840  -22.9080   19.4960 C   0  0  0  0  0  0  0  0  0  0  0  0
   -8.4580  -22.1170   19.5290 C   0  0  0  0  0  3  0  0  0  0  0  0
   -7.1610  -22.5750   19.1790 C   0  0  0  0  0  3  0  0  0  0  0  0
   -7.0080  -23.8730   18.6860 C   0  0  0  0  0  3  0  0  0  0  0  0
   -8.1410  -24.7140   18.5460 C   0  0  0  0  0  3  0  0  0  0  0  0
   -9.8280  -17.1400   24.2680 C   0  0  0  0  0  3  0  0  0  0  0  0
  -10.4990  -16.3050   23.1130 C   0  0  1  0  0  0  0  0  0  0  0  0
  -10.0050  -16.6700   21.6940 C   0  0  0  0  0  1  0  0  0  0  0  0
  -12.0390  -16.4650   23.1310 C   0  0  0  0  0  1  0  0  0  0  0  0
  -10.2020  -14.8040   23.3470 C   0  0  0  0  0  1  0  0  0  0  0  0
   -8.4420  -16.7180   24.4880 N   0  0  0  0  0  0  0  0  0  0  0  0
   -7.8930  -16.5440   25.6940 C   0  0  0  0  0  0  0  0  0  0  0  0
   -8.5350  -16.6440   26.7430 O   0  0  0  0  0  0  0  0  0  0  0  0
   -7.8420  -16.6780   23.6760 H   0  0  0  0  0  0  0  0  0  0  0  0
   -5.5970  -17.4190   26.2410 C   0  0  0  0  0  1  0  0  0  0  0  0
   -6.3940  -16.2040   25.7390 C   0  0  0  0  0  3  0  0  0  0  0  0
   -6.5820  -13.7730   26.0190 C   0  0  0  0  0  1  0  0  0  0  0  0
   -6.0890  -15.0290   26.5810 N   0  0  0  0  0  0  0  0  0  0  0  0
   -5.0860  -14.9420   26.7270 H   0  0  0  0  0  0  0  0  0  0  0  0
  2  8  1  0
  3  7  1  0
  4  7  2  0
  5  3  2  0
  6  4  1  0
  7  9  1  0
  8  6  2  0
  8  5  1  0
  9 10  1  0
 10 12  1  0
 10 13  1  0
 11  9  2  0
 13 14  1  0
 14 23  1  0
 15 21  1  0
 16 17  1  0
 17 18  1  0
 19 20  1  0
 19 28  1  0
 19 18  1  0
 21 20  1  0
 21 16  1  0
 22 15  2  0
 23 24  1  0
 23 15  1  0
 25 26  2  0
 25 28  1  0
 26 27  1  0
 27 29  2  0
 27 30  1  0
 28 29  1  0
 30 35  2  0
 30 31  1  0
 31 32  2  0
 32 33  1  0
 33 36  1  0
 34 33  2  0
 35 34  1  0
 36 37  1  0
 37 42  1  0
 38 37  2  0
 38 39  1  0
 39 40  2  0
 40 41  1  0
 40 44  1  0
 42 43  1  0
 42 41  2  0
 45 26  1  0
 46 45  1  0
 46 48  1  0
 47 45  2  0
 49 46  1  0
 50 25  1  0
 51 50  1  0
 52 50  1  0
 53 54  1  0
 53  2  1  0
 54 55  1  0
 55 56  1  0
 56 59  1  0
 56 57  1  0
 56 58  1  0
 59 60  1  0
 60 61  1  0
 61 63  1  0
 62 72  1  0
 63 69  1  0
 64 74  1  0
 64 72  1  0
 64 71  1  0
 65 67  2  0
 65 70  1  0
 67 68  1  0
 67 66  1  0
 68 63  2  0
 70 69  2  0
 71 65  1  0
 72 66  1  0
 73 62  2  0
 75 77  1  0
 75 74  1  0
 76 74  2  0
 78 82  1  0
 78 83  1  0
 79 75  1  0
 83 84  2  0
 83 79  1  0
 85 84  1  0
 86 85  2  0
 87 86  1  0
 87 78  2  0
 88 62  1  0
 88 93  1  0
 89 91  1  6
 89 92  1  0
 89 88  1  0
 90 89  1  0
 93 94  1  0
 94 98  1  0
 94 95  2  0
 96 93  1  0
 98 97  1  0
 98100  1  0
 99100  1  0
100101  1  0
M  ISO  4  15 100  23 100  60 101  61 101
M  END
>  <TORSDO>  (77) 
F 26

>  <SCORE>  (77) 
-0.182

>  <name>  (77) 
79

>  <ligand_id>  (77) 
79

>  <original_smiles>  (77) 
[H]c1c([H])c([H])c2c(c1[H])C([H])([H])C([H])([H])C([H])([H])C2([H])N([H])C(=O)C1([H])N(C(=O)C([H])(N([H])C(=O)C([H])(N([H])C([H])([H])[H])C([H])([H])[H])C(C([H])([H])[H])(C([H])([H])[H])C([H])([H])[H])C([H])([H])c2c([H])c(OC([H])([H])C([H])([H])[N+]([H])([H])C([H])([H])C([H])([H])C([H])([H])C([H])(c3c([H])c([H])c(C(=O)N([H])C([H])([H])C([H])([H])N([H])C(=O)N4C([H])([H])C([H])([H])C([H])([H])C([H])(n5nc(-c6c([H])c([H])c(Oc7c([H])c([H])c(F)c([H])c7F)c([H])c6[H])c(C(=O)N([H])[H])c5N([H])[H])C4([H])[H])c([H])c3[H])C([H])([H])[H])c([H])c([H])c2C1([H])[H]

>  <smiles>  (77) 
[H]c1c([H])c([H])c2c(c1[H])C([H])([H])C([H])([H])C([H])([H])C2([H])N([H])C(=O)C1([H])N(C(=O)C([H])(N([H])C(=O)C([H])(N([H])C([H])([H])[H])C([H])([H])[H])C(C([H])([H])[H])(C([H])([H])[H])C([H])([H])[H])C([H])([H])c2c([H])c(OC([H])([H])C([H])([H])[N+]([H])([H])C([H])([H])C([H])([H])C([H])([H])C([H])(c3c([H])c([H])c(C(=O)N([H])C([H])([H])C([H])([H])N([H])C(=O)N4C([H])([H])C([H])([H])C([H])([H])C([H])(n5nc(-c6c([H])c([H])c(Oc7c([H])c([H])c(F)c([H])c7F)c([H])c6[H])c(C(=O)N([H])[H])c5N([H])[H])C4([H])[H])c([H])c3[H])C([H])([H])[H])c([H])c([H])c2C1([H])[H]

$$$$
80:0:0
     RDKit          3D

102106  0  0  1  0  0  0  0  0999 V2000
  -25.7620  -17.6700   19.8480 C   0  0  0  0  0  2  0  0  0  0  0  0
  -23.3280  -16.9180   20.1950 C   0  0  0  0  0  1  0  0  0  0  0  0
  -24.8020  -16.4710   20.1090 C   0  0  0  0  0  3  0  0  0  0  0  0
  -25.2060  -15.6370   21.3680 C   0  0  0  0  0  2  0  0  0  0  0  0
  -24.5370  -14.2440   21.4870 C   0  0  0  0  0  0  0  0  0  0  0  0
  -23.3620  -14.1130   21.1420 O   0  0  0  0  0  0  0  0  0  0  0  0
  -29.0080  -11.3250   21.0380 C   0  0  0  0  0  0  0  0  0  0  0  0
  -30.2850   -9.7190   22.2260 C   0  0  0  0  0  2  0  0  0  0  0  0
  -29.4970   -8.6930   21.4410 C   0  0  0  0  0  2  0  0  0  0  0  0
  -28.0420   -8.7260   22.0030 C   0  0  0  0  0  2  0  0  0  0  0  0
  -27.3270  -10.0790   22.7810 C   0  0  0  0  0  3  0  0  0  0  0  0
  -28.4800  -10.8500   23.3260 C   0  0  0  0  0  2  0  0  0  0  0  0
  -29.3880  -10.8530   22.2380 N   0  0  0  0  0  0  0  0  0  0  0  0
  -30.0230  -12.0140   20.7120 O   0  0  0  0  0  0  0  0  0  0  0  0
  -23.6150   -7.0500   21.8600 C   0  0  0  0  0  2  0  0  0  0  0  0
  -25.2730   -7.7010   20.9460 C   0  0  0  0  0 15  0  0  0  0  0  0
  -21.8080   -9.1380   22.9080 C   0  0  0  0  0  1  0  0  0  0  0  0
  -24.1350  -11.5710   22.1310 C   0  0  0  0  0  3  0  0  0  0  0  0
  -25.9990   -9.5210   20.5010 C   0  0  0  0  0  1  0  0  0  0  0  0
  -22.6170  -10.8560   22.9430 C   0  0  0  0  0  0  0  0  0  0  0  0
  -27.0650  -12.6550   21.1430 C   0  0  0  0  0  1  0  0  0  0  0  0
  -25.3030  -13.0160   22.0610 C   0  0  0  0  0  2  0  0  0  0  0  0
  -27.5720  -10.9830   20.4430 N   0  0  0  0  0  2  0  0  0  0  0  0
  -21.9060  -11.7660   23.6490 F   0  0  0  0  0  0  0  0  0  0  0  0
  -25.2570  -11.7210   20.2410 C   0  0  0  0  0  2  0  0  0  0  0  0
  -24.0830  -10.8590   19.8190 C   0  0  0  0  0  3  0  0  0  0  0  0
  -24.0780   -9.6830   20.8320 C   0  0  2  0  0  0  0  0  0  0  0  0
  -26.1120  -10.7380   22.2370 N   0  0  0  0  0  2  0  0  0  0  0  0
  -25.1970   -9.5600   22.2780 N   0  0  0  0  0  2  0  0  0  0  0  0
  -23.5780   -9.0880   21.0940 C   0  0  0  0  0  3  0  0  0  0  0  0
  -23.7390   -8.1560   23.1130 C   0  0  0  0  0  2  0  0  0  0  0  0
  -22.6770   -6.8680   23.2980 C   0  0  0  0  0  3  0  0  0  0  0  0
  -21.6580   -6.4050   22.1070 C   0  0  0  0  0  0  0  0  0  0  0  0
  -21.5750   -7.0540   20.6250 C   0  0  0  0  0  3  0  0  0  0  0  0
  -22.4330   -8.3310   20.0490 C   0  0  0  0  0  3  0  0  0  0  0  0
  -20.6690   -5.4490   22.3310 O   0  0  0  0  0  0  0  0  0  0  0  0
  -19.8810   -5.3880   23.4720 C   0  0  0  0  0  0  0  0  0  0  0  0
  -19.0480   -6.4480   23.9120 C   0  0  0  0  0  3  0  0  0  0  0  0
  -18.2280   -6.2920   25.0540 C   0  0  0  0  0  3  0  0  0  0  0  0
  -18.2090   -5.0730   25.7600 C   0  0  0  0  0  0  0  0  0  0  0  0
  -19.0060   -4.0070   25.3110 C   0  0  0  0  0  3  0  0  0  0  0  0
  -19.8240   -4.1620   24.1750 C   0  0  0  0  0  0  0  0  0  0  0  0
  -20.5570   -3.1100   23.7440 F   0  0  0  0  0  0  0  0  0  0  0  0
  -17.4310   -4.9210   26.8580 F   0  0  0  0  0  0  0  0  0  0  0  0
  -22.7970  -11.3720   19.2440 C   0  0  0  0  0  0  0  0  0  0  0  0
  -21.6610  -11.1940   19.9320 N   0  0  0  0  0  0  0  0  0  0  0  0
  -22.8020  -11.9940   18.2030 O   0  0  0  0  0  0  0  0  0  0  0  0
  -21.6340  -10.6270   20.7640 H   0  0  0  0  0  0  0  0  0  0  0  0
  -20.8020  -11.6030   19.5880 H   0  0  0  0  0  0  0  0  0  0  0  0
  -25.6960  -12.6530   19.2800 N   0  0  0  0  0  0  0  0  0  0  0  0
  -25.2410  -12.6820   18.3770 H   0  0  0  0  0  0  0  0  0  0  0  0
  -26.6760  -12.9030   19.2390 H   0  0  0  0  0  0  0  0  0  0  0  0
  -25.3650  -18.5850   18.6650 C   0  0  0  0  0  2  0  0  0  0  0  0
  -26.5370  -19.3150   17.9630 C   0  0  0  0  0  2  0  0  0  0  0  0
  -26.5310  -20.8580   18.0820 C   0  0  0  0  0  2  0  0  0  0  0  0
  -28.4170  -22.2150   19.0280 C   0  0  0  0  0  0  0  0  0  0  0  0
  -27.3800  -21.3640   19.1760 N   0  0  0  0  0  0  0  0  0  0  0  0
  -28.8000  -22.5680   17.9130 O   0  0  0  0  0  0  0  0  0  0  0  0
  -27.1450  -21.0570   20.1100 H   0  0  0  0  0  0  0  0  0  0  0  0
  -29.1930  -22.6940   20.2710 C   0  0  0  0  0  2  0  0  0  0  0  0
  -28.8560  -24.1010   20.8500 C   0  0  0  0  0  2  0  0  0  0  0  0
  -29.2760  -25.2650   20.1090 O   0  0  0  0  0  0  0  0  0  0  0  0
  -25.8820  -30.2080   23.9370 C   0  0  0  0  0  0  0  0  0  0  0  0
  -28.3130  -26.2430   20.1350 C   0  0  0  0  0  0  0  0  0  0  0  0
  -24.7280  -29.3950   21.9070 C   0  0  0  0  0  3  0  0  0  0  0  0
  -26.1560  -28.0450   20.2860 C   0  0  0  0  0  0  0  0  0  0  0  0
  -27.2830  -29.4290   22.0280 C   0  0  0  0  0  2  0  0  0  0  0  0
  -27.2830  -28.2340   21.0970 C   0  0  0  0  0  0  0  0  0  0  0  0
  -28.3710  -27.3330   21.0310 C   0  0  0  0  0  3  0  0  0  0  0  0
  -27.1970  -26.1000   19.2900 C   0  0  0  0  0  3  0  0  0  0  0  0
  -26.1120  -26.9820   19.3720 C   0  0  0  0  0  3  0  0  0  0  0  0
  -25.0200  -29.0290   20.4280 C   0  0  0  0  0  2  0  0  0  0  0  0
  -25.9790  -29.6730   22.6860 N   0  0  0  0  0  0  0  0  0  0  0  0
  -24.7820  -30.5030   24.4250 O   0  0  0  0  0  0  0  0  0  0  0  0
  -23.8530  -28.2840   22.5310 C   0  0  0  0  0  0  0  0  0  0  0  0
  -22.5460  -28.3100   22.2200 N   0  0  0  0  0  0  0  0  0  0  0  0
  -24.3500  -27.4160   23.2520 O   0  0  0  0  0  0  0  0  0  0  0  0
  -22.2160  -29.0610   21.6300 H   0  0  0  0  0  0  0  0  0  0  0  0
  -19.0250  -27.5160   22.0880 C   0  0  0  0  0  0  0  0  0  0  0  0
  -21.5390  -27.3480   22.6650 C   0  0  0  0  0  3  0  0  0  0  0  0
  -21.5520  -26.0780   21.7820 C   0  0  0  0  0  2  0  0  0  0  0  0
  -20.5590  -26.1420   20.6180 C   0  0  0  0  0  2  0  0  0  0  0  0
  -19.1330  -26.3330   21.1400 C   0  0  0  0  0  2  0  0  0  0  0  0
  -20.1580  -28.0020   22.7930 C   0  0  0  0  0  0  0  0  0  0  0  0
  -20.0080  -29.1260   23.6360 C   0  0  0  0  0  3  0  0  0  0  0  0
  -18.7580  -29.7560   23.7800 C   0  0  0  0  0  3  0  0  0  0  0  0
  -17.6390  -29.2620   23.0910 C   0  0  0  0  0  3  0  0  0  0  0  0
  -17.7720  -28.1420   22.2500 C   0  0  0  0  0  3  0  0  0  0  0  0
  -27.1480  -30.4950   24.8020 C   0  0  0  0  0  3  0  0  0  0  0  0
  -27.4060  -29.4010   25.9100 C   0  0  1  0  0  0  0  0  0  0  0  0
  -26.1760  -29.1050   26.7990 C   0  0  0  0  0  1  0  0  0  0  0  0
  -27.8490  -28.0710   25.2570 C   0  0  0  0  0  1  0  0  0  0  0  0
  -28.5630  -29.8510   26.8340 C   0  0  0  0  0  1  0  0  0  0  0  0
  -26.9780  -31.8230   25.4070 N   0  0  0  0  0  0  0  0  0  0  0  0
  -27.6190  -32.9280   25.0030 C   0  0  0  0  0  0  0  0  0  0  0  0
  -28.4830  -32.9180   24.1200 O   0  0  0  0  0  0  0  0  0  0  0  0
  -26.2520  -31.9140   26.1000 H   0  0  0  0  0  0  0  0  0  0  0  0
  -26.3370  -35.0790   24.7610 C   0  0  0  0  0  1  0  0  0  0  0  0
  -27.2450  -34.2560   25.6880 C   0  0  0  0  0  3  0  0  0  0  0  0
  -29.1940  -34.4780   27.1670 C   0  0  0  0  0  1  0  0  0  0  0  0
  -28.4180  -35.0690   26.0800 N   0  0  0  0  0  0  0  0  0  0  0  0
  -28.1270  -35.9990   26.3680 H   0  0  0  0  0  0  0  0  0  0  0  0
  1  3  1  0
  3  2  1  0
  3  4  1  0
  4  5  1  0
  5 22  1  0
  6  5  2  0
  7 13  1  0
  8 13  1  0
  9 10  1  0
  9  8  1  0
 10 11  1  0
 11 28  1  0
 11 12  1  0
 13 12  1  0
 14  7  2  0
 15 31  1  0
 15 32  1  0
 17 20  1  0
 18 20  2  0
 20 24  1  0
 22 18  1  0
 23  7  1  0
 23 21  1  0
 26 25  1  0
 26 27  1  0
 27 19  1  6
 27 30  1  0
 27 29  1  0
 28 29  1  0
 31 32  1  0
 33 36  1  0
 33 32  1  0
 34 33  2  0
 35 34  1  0
 35 30  2  0
 36 37  1  0
 37 38  2  0
 37 42  1  0
 38 39  1  0
 39 40  2  0
 40 44  1  0
 41 40  1  0
 42 41  2  0
 43 42  1  0
 45 26  1  0
 45 46  1  0
 46 48  1  0
 47 45  2  0
 49 46  1  0
 50 25  1  0
 51 50  1  0
 52 50  1  0
 53  1  1  0
 54 55  1  0
 54 53  1  0
 55 57  1  0
 56 57  1  0
 56 60  1  0
 57 59  1  0
 58 56  2  0
 60 61  1  0
 62 64  1  0
 62 61  1  0
 63 74  2  0
 64 69  1  0
 65 75  1  0
 65 73  1  0
 66 72  1  0
 66 68  1  0
 67 73  1  0
 68 67  1  0
 69 68  2  0
 70 71  1  0
 70 64  2  0
 71 66  2  0
 72 65  1  0
 73 63  1  0
 75 77  2  0
 76 75  1  0
 78 76  1  0
 79 88  2  0
 79 84  1  0
 80 76  1  0
 80 84  1  0
 81 80  1  0
 82 83  1  0
 82 81  1  0
 83 79  1  0
 84 85  2  0
 85 86  1  0
 87 86  2  0
 88 87  1  0
 89 63  1  0
 89 94  1  0
 89 90  1  0
 90 91  1  1
 90 93  1  0
 92 90  1  0
 94 97  1  0
 95 94  1  0
 95 99  1  0
 96 95  2  0
 99 98  1  0
 99101  1  0
101102  1  0
101100  1  0
M  ISO  4   7 100  23 100  61 101  62 101
M  END
>  <TORSDO>  (78) 
F 25

>  <SCORE>  (78) 
3.796

>  <name>  (78) 
80

>  <ligand_id>  (78) 
80

>  <original_smiles>  (78) 
[H]c1c([H])c(F)c2c(c1[H])N(C(=O)N1C([H])([H])C([H])([H])C([H])([H])C([H])(n3nc(-c4c([H])c([H])c(Oc5c([H])c([H])c(F)c([H])c5F)c([H])c4[H])c(C(=O)N([H])[H])c3N([H])[H])C1([H])[H])C([H])([H])C2([H])C(=O)C([H])([H])C([H])(C([H])([H])[H])C([H])([H])C([H])([H])C([H])([H])C([H])([H])N([H])C(=O)C([H])([H])C([H])([H])Oc1c([H])c([H])c2c(c1[H])C([H])([H])N(C(=O)C([H])(N([H])C(=O)C([H])(N([H])C([H])([H])[H])C([H])([H])[H])C(C([H])([H])[H])(C([H])([H])[H])C([H])([H])[H])C([H])(C(=O)N([H])C1([H])c3c([H])c([H])c([H])c([H])c3C([H])([H])C([H])([H])C1([H])[H])C2([H])[H]

>  <smiles>  (78) 
[H]c1c([H])c(F)c2c(c1[H])N(C(=O)N1C([H])([H])C([H])([H])C([H])([H])C([H])(n3nc(-c4c([H])c([H])c(Oc5c([H])c([H])c(F)c([H])c5F)c([H])c4[H])c(C(=O)N([H])[H])c3N([H])[H])C1([H])[H])C([H])([H])C2([H])C(=O)C([H])([H])C([H])(C([H])([H])[H])C([H])([H])C([H])([H])C([H])([H])C([H])([H])N([H])C(=O)C([H])([H])C([H])([H])Oc1c([H])c([H])c2c(c1[H])C([H])([H])N(C(=O)C([H])(N([H])C(=O)C([H])(N([H])C([H])([H])[H])C([H])([H])[H])C(C([H])([H])[H])(C([H])([H])[H])C([H])([H])[H])C([H])(C(=O)N([H])C1([H])c3c([H])c([H])c([H])c([H])c3C([H])([H])C([H])([H])C1([H])[H])C2([H])[H]

$$$$
81:0:0
     RDKit          3D

 96104  0  0  1  0  0  0  0  0999 V2000
  -31.3950  -21.5390   20.3440 C   0  0  0  0  0  3  0  0  0  0  0  0
  -31.3940  -20.1480   20.5470 C   0  0  0  0  0  3  0  0  0  0  0  0
  -30.2230  -22.1940   19.9250 C   0  0  0  0  0  3  0  0  0  0  0  0
  -29.0560  -20.0660   19.8820 C   0  0  0  0  0  3  0  0  0  0  0  0
  -30.2070  -19.4010   20.3590 C   0  0  0  0  0  0  0  0  0  0  0  0
  -29.0480  -21.4590   19.6380 C   0  0  0  0  0  0  0  0  0  0  0  0
  -27.7570  -22.0990   19.1800 C   0  0  0  0  0  0  0  0  0  0  0  0
  -27.7260  -23.0360   18.2190 N   0  0  0  0  0  0  0  0  0  0  0  0
  -26.6920  -21.6780   19.6340 O   0  0  0  0  0  0  0  0  0  0  0  0
  -26.7920  -23.2800   17.9190 H   0  0  0  0  0  0  0  0  0  0  0  0
  -28.7830  -23.8370   17.6010 C   0  0  0  0  0  2  0  0  0  0  0  0
  -28.7490  -25.2960   18.1130 C   0  0  0  0  0  2  0  0  0  0  0  0
  -28.5560  -25.4760   19.6420 C   0  0  0  0  0  2  0  0  0  0  0  0
  -28.5210  -26.8410   20.0460 O   0  0  0  0  0  0  0  0  0  0  0  0
  -24.5230  -31.7810   23.2290 C   0  0  0  0  0  0  0  0  0  0  0  0
  -27.3080  -27.4960   20.0650 C   0  0  0  0  0  0  0  0  0  0  0  0
  -23.3870  -30.4340   21.4920 C   0  0  0  0  0  3  0  0  0  0  0  0
  -24.8980  -28.9670   20.0730 C   0  0  0  0  0  0  0  0  0  0  0  0
  -25.9160  -30.8190   21.4070 C   0  0  0  0  0  2  0  0  0  0  0  0
  -26.0330  -29.4820   20.7100 C   0  0  0  0  0  0  0  0  0  0  0  0
  -27.2420  -28.7550   20.6980 C   0  0  0  0  0  3  0  0  0  0  0  0
  -26.1350  -26.9710   19.4670 C   0  0  0  0  0  3  0  0  0  0  0  0
  -24.9400  -27.7090   19.4560 C   0  0  0  0  0  3  0  0  0  0  0  0
  -23.6560  -29.8200   20.0940 C   0  0  0  0  0  2  0  0  0  0  0  0
  -24.6220  -31.0270   22.0990 N   0  0  0  0  0  0  0  0  0  0  0  0
  -23.4200  -32.0230   23.7390 O   0  0  0  0  0  0  0  0  0  0  0  0
  -22.7140  -29.3670   22.3850 C   0  0  0  0  0  0  0  0  0  0  0  0
  -21.3900  -29.2000   22.2250 N   0  0  0  0  0  0  0  0  0  0  0  0
  -23.3760  -28.6960   23.1810 O   0  0  0  0  0  0  0  0  0  0  0  0
  -20.9160  -29.8020   21.5660 H   0  0  0  0  0  0  0  0  0  0  0  0
  -17.9910  -28.0380   22.6350 C   0  0  0  0  0  0  0  0  0  0  0  0
  -20.5520  -28.2300   22.9320 C   0  0  0  0  0  3  0  0  0  0  0  0
  -20.6280  -26.8330   22.2720 C   0  0  0  0  0  2  0  0  0  0  0  0
  -19.5270  -26.5950   21.2350 C   0  0  0  0  0  2  0  0  0  0  0  0
  -18.1430  -26.7290   21.8790 C   0  0  0  0  0  2  0  0  0  0  0  0
  -19.1220  -28.7500   23.1140 C   0  0  0  0  0  0  0  0  0  0  0  0
  -18.9250  -29.9780   23.7810 C   0  0  0  0  0  3  0  0  0  0  0  0
  -17.6300  -30.4990   23.9630 C   0  0  0  0  0  3  0  0  0  0  0  0
  -16.5130  -29.7850   23.4950 C   0  0  0  0  0  3  0  0  0  0  0  0
  -16.6940  -28.5540   22.8410 C   0  0  0  0  0  3  0  0  0  0  0  0
  -25.7820  -32.3950   23.9210 C   0  0  0  0  0  3  0  0  0  0  0  0
  -25.4770  -33.8000   24.2250 N   0  0  0  0  0  0  0  0  0  0  0  0
  -25.8600  -34.8400   23.4760 C   0  0  0  0  0  0  0  0  0  0  0  0
  -26.5810  -34.7220   22.4800 O   0  0  0  0  0  0  0  0  0  0  0  0
  -24.8490  -33.9740   24.9960 H   0  0  0  0  0  0  0  0  0  0  0  0
  -24.1800  -36.6520   23.0120 C   0  0  0  0  0  1  0  0  0  0  0  0
  -25.3640  -36.2350   23.9000 C   0  0  0  0  0  3  0  0  0  0  0  0
  -27.4510  -37.0980   24.8620 C   0  0  0  0  0  1  0  0  0  0  0  0
  -26.4140  -37.2740   23.8490 N   0  0  0  0  0  0  0  0  0  0  0  0
  -26.0090  -38.1990   23.9660 H   0  0  0  0  0  0  0  0  0  0  0  0
  -26.2190  -31.6250   25.2280 C   0  0  1  0  0  0  0  0  0  0  0  0
  -25.0640  -31.4090   26.2320 C   0  0  0  0  0  1  0  0  0  0  0  0
  -26.8070  -30.2370   24.8770 C   0  0  0  0  0  1  0  0  0  0  0  0
  -27.3350  -32.4140   25.9530 C   0  0  0  0  0  1  0  0  0  0  0  0
  -30.1270  -17.9450   20.6700 C   0  0  0  0  0  0  0  0  0  0  0  0
  -29.0720  -17.3050   20.5990 O   0  0  0  0  0  0  0  0  0  0  0  0
  -31.4320  -17.2480   21.0930 C   0  0  0  0  0  2  0  0  0  0  0  0
  -31.2980  -15.9650   21.9460 C   0  0  0  0  0  2  0  0  0  0  0  0
  -30.6920  -14.2810   20.1860 C   0  0  0  0  0  0  0  0  0  0  0  0
  -30.2210  -12.2280   18.9100 C   0  0  0  0  0  2  0  0  0  0  0  0
  -29.2070  -12.4450   17.7750 C   0  0  0  0  0  2  0  0  0  0  0  0
  -27.7720  -12.2720   18.3000 C   0  0  0  0  0  2  0  0  0  0  0  0
  -27.5040  -13.1210   19.5690 C   0  0  0  0  0  3  0  0  0  0  0  0
  -28.6180  -12.9160   20.6200 C   0  0  0  0  0  2  0  0  0  0  0  0
  -29.9270  -13.1790   19.9900 N   0  0  0  0  0  0  0  0  0  0  0  0
  -31.5920  -14.6390   19.4210 O   0  0  0  0  0  0  0  0  0  0  0  0
  -30.5000  -14.8830   21.3630 N   0  0  0  0  0  0  0  0  0  0  0  0
  -29.7740  -14.4930   21.9480 H   0  0  0  0  0  0  0  0  0  0  0  0
  -25.1540  -13.7180   20.4460 C   0  0  0  0  0  0  0  0  0  0  0  0
  -24.1070  -12.9400   20.8570 C   0  0  0  0  0  0  0  0  0  0  0  0
  -24.5570  -11.5880   20.7570 C   0  0  0  0  0  0  0  0  0  0  0  0
  -26.1790  -12.8410   20.1250 N   0  0  0  0  0  0  0  0  0  0  0  0
  -25.8240  -11.5520   20.3650 N   0  0  0  0  0  0  0  0  0  0  0  0
  -23.8370  -10.3230   20.9560 C   0  0  0  0  0  0  0  0  0  0  0  0
  -24.2730   -9.3640   21.8970 C   0  0  0  0  0  3  0  0  0  0  0  0
  -23.5530   -8.1640   22.0840 C   0  0  0  0  0  3  0  0  0  0  0  0
  -22.3830   -7.9150   21.3290 C   0  0  0  0  0  0  0  0  0  0  0  0
  -21.9660   -8.8630   20.3770 C   0  0  0  0  0  3  0  0  0  0  0  0
  -22.6870  -10.0530   20.1890 C   0  0  0  0  0  3  0  0  0  0  0  0
  -21.6350   -6.7660   21.4240 O   0  0  0  0  0  0  0  0  0  0  0  0
  -21.5530   -6.0540   22.5940 C   0  0  0  0  0  0  0  0  0  0  0  0
  -21.0490   -6.6290   23.7810 C   0  0  0  0  0  3  0  0  0  0  0  0
  -20.9170   -5.8410   24.9420 C   0  0  0  0  0  3  0  0  0  0  0  0
  -21.2790   -4.4810   24.9160 C   0  0  0  0  0  0  0  0  0  0  0  0
  -21.7760   -3.9060   23.7330 C   0  0  0  0  0  3  0  0  0  0  0  0
  -21.9090   -4.6910   22.5740 C   0  0  0  0  0  0  0  0  0  0  0  0
  -22.3680   -4.1270   21.4310 F   0  0  0  0  0  0  0  0  0  0  0  0
  -21.1460   -3.7220   26.0290 F   0  0  0  0  0  0  0  0  0  0  0  0
  -22.7330  -13.4130   21.2360 C   0  0  0  0  0  0  0  0  0  0  0  0
  -22.0540  -12.6840   22.1140 N   0  0  0  0  0  0  0  0  0  0  0  0
  -22.2730  -14.4640   20.7900 O   0  0  0  0  0  0  0  0  0  0  0  0
  -22.4390  -11.8320   22.4970 H   0  0  0  0  0  0  0  0  0  0  0  0
  -21.1360  -12.9820   22.4120 H   0  0  0  0  0  0  0  0  0  0  0  0
  -25.3170  -15.0940   20.3040 N   0  0  0  0  0  0  0  0  0  0  0  0
  -24.5730  -15.7530   20.5090 H   0  0  0  0  0  0  0  0  0  0  0  0
  -26.1730  -15.5440   20.0050 H   0  0  0  0  0  0  0  0  0  0  0  0
  1  2  1  0
  3  1  2  0
  4  5  1  0
  5  2  2  0
  5 55  1  0
  6  4  2  0
  6  3  1  0
  7  9  2  0
  7  6  1  0
  8  7  1  0
 10  8  1  0
 11 12  1  0
 11  8  1  0
 12 13  1  0
 13 14  1  0
 14 16  1  0
 15 26  2  0
 16 21  1  0
 17 25  1  0
 17 27  1  0
 18 24  1  0
 18 20  1  0
 19 25  1  0
 20 19  1  0
 21 20  2  0
 22 16  2  0
 23 22  1  0
 23 18  2  0
 24 17  1  0
 25 15  1  0
 27 29  2  0
 28 27  1  0
 30 28  1  0
 31 40  2  0
 31 36  1  0
 32 28  1  0
 32 36  1  0
 33 32  1  0
 34 35  1  0
 34 33  1  0
 35 31  1  0
 36 37  2  0
 37 38  1  0
 39 38  2  0
 40 39  1  0
 41 15  1  0
 41 42  1  0
 41 51  1  0
 42 45  1  0
 43 47  1  0
 43 42  1  0
 44 43  2  0
 47 46  1  0
 49 47  1  0
 49 50  1  0
 49 48  1  0
 51 54  1  1
 51 52  1  0
 53 51  1  0
 55 57  1  0
 56 55  2  0
 57 58  1  0
 59 67  1  0
 60 65  1  0
 61 62  1  0
 61 60  1  0
 63 62  1  0
 63 72  1  0
 63 64  1  0
 65 59  1  0
 65 64  1  0
 66 59  2  0
 67 58  1  0
 67 68  1  0
 69 70  2  0
 70 89  1  0
 71 70  1  0
 71 74  1  0
 72 73  1  0
 72 69  1  0
 73 71  2  0
 74 75  1  0
 75 76  2  0
 77 80  1  0
 77 76  1  0
 78 77  2  0
 79 78  1  0
 79 74  2  0
 80 81  1  0
 81 82  1  0
 82 83  2  0
 84 83  1  0
 84 88  1  0
 85 84  2  0
 86 81  2  0
 86 85  1  0
 87 86  1  0
 89 90  1  0
 90 93  1  0
 90 92  1  0
 91 89  2  0
 94 69  1  0
 94 95  1  0
 96 94  1  0
M  ISO  4  13 101  14 101  59 100  67 100
M  END
>  <TORSDO>  (79) 
F 23

>  <SCORE>  (79) 
-12.541

>  <name>  (79) 
81

>  <ligand_id>  (79) 
81

>  <original_smiles>  (79) 
[H]c1c([H])c(C(=O)N([H])C([H])([H])C([H])([H])C([H])([H])Oc2c([H])c([H])c3c(c2[H])C([H])([H])N(C(=O)C([H])(N([H])C(=O)C([H])(N([H])C([H])([H])[H])C([H])([H])[H])C(C([H])([H])[H])(C([H])([H])[H])C([H])([H])[H])C([H])(C(=O)N([H])C2([H])c4c([H])c([H])c([H])c([H])c4C([H])([H])C([H])([H])C2([H])[H])C3([H])[H])c([H])c(C(=O)C([H])([H])C([H])([H])N([H])C(=O)N2C([H])([H])C([H])([H])C([H])([H])C([H])(n3nc(-c4c([H])c([H])c(Oc5c([H])c([H])c(F)c([H])c5F)c([H])c4[H])c(C(=O)N([H])[H])c3N([H])[H])C2([H])[H])c1[H]

>  <smiles>  (79) 
[H]c1c([H])c(C(=O)N([H])C([H])([H])C([H])([H])C([H])([H])Oc2c([H])c([H])c3c(c2[H])C([H])([H])N(C(=O)C([H])(N([H])C(=O)C([H])(N([H])C([H])([H])[H])C([H])([H])[H])C(C([H])([H])[H])(C([H])([H])[H])C([H])([H])[H])C([H])(C(=O)N([H])C2([H])c4c([H])c([H])c([H])c([H])c4C([H])([H])C([H])([H])C2([H])[H])C3([H])[H])c([H])c(C(=O)C([H])([H])C([H])([H])N([H])C(=O)N2C([H])([H])C([H])([H])C([H])([H])C([H])(n3nc(-c4c([H])c([H])c(Oc5c([H])c([H])c(F)c([H])c5F)c([H])c4[H])c(C(=O)N([H])[H])c3N([H])[H])C2([H])[H])c1[H]

$$$$
82:0:0
     RDKit          3D

101109  0  0  1  0  0  0  0  0999 V2000
  -32.8140  -24.2740   18.5090 C   0  0  0  0  0  3  0  0  0  0  0  0
  -33.7100  -23.9960   19.5600 C   0  0  0  0  0  3  0  0  0  0  0  0
  -31.3680  -22.4680   19.2730 C   0  0  0  0  0  3  0  0  0  0  0  0
  -31.6300  -23.5170   18.3590 C   0  0  0  0  0  0  0  0  0  0  0  0
  -32.2620  -22.1860   20.3380 C   0  0  0  0  0  0  0  0  0  0  0  0
  -33.4350  -22.9620   20.4750 C   0  0  0  0  0  0  0  0  0  0  0  0
  -34.2950  -22.7340   21.4960 F   0  0  0  0  0  0  0  0  0  0  0  0
  -30.4940  -22.6280   16.2620 C   0  0  0  0  0  1  0  0  0  0  0  0
  -30.6740  -23.8320   17.2010 C   0  0  0  0  0  3  0  0  0  0  0  0
  -29.3590  -24.3310   17.6670 N   0  0  0  0  0  4  0  0  0  0  0  0
  -28.7760  -24.4380   16.8520 H   0  0  0  0  0  0  0  0  0  0  0  0
  -28.9160  -23.6320   18.2420 H   0  0  0  0  0  0  0  0  0  0  0  0
  -29.3490  -25.6350   18.3720 C   0  0  0  0  0  2  0  0  0  0  0  0
  -28.6950  -25.5280   19.7570 C   0  0  0  0  0  2  0  0  0  0  0  0
  -28.5020  -26.8350   20.2890 O   0  0  0  0  0  0  0  0  0  0  0  0
  -24.5920  -31.9180   23.2670 C   0  0  0  0  0  0  0  0  0  0  0  0
  -27.2790  -27.4750   20.2290 C   0  0  0  0  0  0  0  0  0  0  0  0
  -23.3940  -30.4960   21.6300 C   0  0  0  0  0  3  0  0  0  0  0  0
  -24.8590  -28.9470   20.2270 C   0  0  0  0  0  0  0  0  0  0  0  0
  -25.9130  -30.8640   21.4380 C   0  0  0  0  0  2  0  0  0  0  0  0
  -26.0050  -29.4830   20.8230 C   0  0  0  0  0  0  0  0  0  0  0  0
  -27.2070  -28.7480   20.8370 C   0  0  0  0  0  3  0  0  0  0  0  0
  -26.1180  -26.9540   19.6090 C   0  0  0  0  0  3  0  0  0  0  0  0
  -24.9090  -27.6790   19.6220 C   0  0  0  0  0  3  0  0  0  0  0  0
  -23.6100  -29.7970   20.2590 C   0  0  0  0  0  2  0  0  0  0  0  0
  -24.6500  -31.1090   22.1710 N   0  0  0  0  0  0  0  0  0  0  0  0
  -23.5090  -32.1940   23.8010 O   0  0  0  0  0  0  0  0  0  0  0  0
  -22.7410  -29.4860   22.6000 C   0  0  0  0  0  0  0  0  0  0  0  0
  -21.4210  -29.2900   22.4590 N   0  0  0  0  0  0  0  0  0  0  0  0
  -23.4210  -28.8780   23.4310 O   0  0  0  0  0  0  0  0  0  0  0  0
  -20.9340  -29.8340   21.7610 H   0  0  0  0  0  0  0  0  0  0  0  0
  -18.0530  -28.0650   22.9080 C   0  0  0  0  0  0  0  0  0  0  0  0
  -20.6020  -28.3570   23.2300 C   0  0  0  0  0  3  0  0  0  0  0  0
  -20.7340  -26.9180   22.6790 C   0  0  0  0  0  2  0  0  0  0  0  0
  -19.6570  -26.5650   21.6480 C   0  0  0  0  0  2  0  0  0  0  0  0
  -18.2600  -26.7050   22.2630 C   0  0  0  0  0  2  0  0  0  0  0  0
  -19.1550  -28.8470   23.3480 C   0  0  0  0  0  0  0  0  0  0  0  0
  -18.9110  -30.1190   23.9090 C   0  0  0  0  0  3  0  0  0  0  0  0
  -17.5970  -30.6090   24.0390 C   0  0  0  0  0  3  0  0  0  0  0  0
  -16.5100  -29.8240   23.6180 C   0  0  0  0  0  3  0  0  0  0  0  0
  -16.7390  -28.5540   23.0560 C   0  0  0  0  0  3  0  0  0  0  0  0
  -25.8770  -32.5530   23.8880 C   0  0  0  0  0  3  0  0  0  0  0  0
  -26.3950  -31.7870   25.1670 C   0  0  1  0  0  0  0  0  0  0  0  0
  -25.3050  -31.5530   26.2370 C   0  0  0  0  0  1  0  0  0  0  0  0
  -26.9780  -30.4100   24.7760 C   0  0  0  0  0  1  0  0  0  0  0  0
  -27.5450  -32.5850   25.8280 C   0  0  0  0  0  1  0  0  0  0  0  0
  -25.5700  -33.9530   24.2070 N   0  0  0  0  0  0  0  0  0  0  0  0
  -25.9020  -34.9970   23.4380 C   0  0  0  0  0  0  0  0  0  0  0  0
  -26.5730  -34.8860   22.4080 O   0  0  0  0  0  0  0  0  0  0  0  0
  -24.9800  -34.1170   25.0090 H   0  0  0  0  0  0  0  0  0  0  0  0
  -24.1700  -36.7810   23.0670 C   0  0  0  0  0  1  0  0  0  0  0  0
  -25.4110  -36.3890   23.8820 C   0  0  0  0  0  3  0  0  0  0  0  0
  -27.5450  -37.2850   24.7020 C   0  0  0  0  0  1  0  0  0  0  0  0
  -26.4400  -37.4440   23.7600 N   0  0  0  0  0  0  0  0  0  0  0  0
  -26.0300  -38.3620   23.9040 H   0  0  0  0  0  0  0  0  0  0  0  0
  -30.8840  -21.6520   22.3660 C   0  0  0  0  0  1  0  0  0  0  0  0
  -31.9430  -21.1140   21.3840 C   0  0  0  0  0  3  0  0  0  0  0  0
  -31.5380  -19.8300   20.7510 N   0  0  0  0  0  4  0  0  0  0  0  0
  -30.6290  -19.9390   20.3360 H   0  0  0  0  0  0  0  0  0  0  0  0
  -32.1960  -19.6400   20.0100 H   0  0  0  0  0  0  0  0  0  0  0  0
  -31.5100  -18.6530   21.6510 C   0  0  0  0  0  2  0  0  0  0  0  0
  -30.9440  -17.3950   20.9610 C   0  0  0  0  0  2  0  0  0  0  0  0
  -31.1740  -16.1200   21.8030 C   0  0  0  0  0  2  0  0  0  0  0  0
  -30.7700  -14.2260   20.2380 C   0  0  0  0  0  0  0  0  0  0  0  0
  -30.2580  -12.2190   18.9050 C   0  0  0  0  0  2  0  0  0  0  0  0
  -29.2620  -12.5250   17.7740 C   0  0  0  0  0  2  0  0  0  0  0  0
  -27.8070  -12.4350   18.2730 C   0  0  0  0  0  2  0  0  0  0  0  0
  -27.5730  -13.2130   19.5970 C   0  0  0  0  0  3  0  0  0  0  0  0
  -28.6710  -12.8780   20.6310 C   0  0  0  0  0  2  0  0  0  0  0  0
  -29.9910  -13.1370   20.0210 N   0  0  0  0  0  0  0  0  0  0  0  0
  -31.7530  -14.5160   19.5500 O   0  0  0  0  0  0  0  0  0  0  0  0
  -30.4350  -14.9650   21.2990 N   0  0  0  0  0  0  0  0  0  0  0  0
  -29.6330  -14.6510   21.8270 H   0  0  0  0  0  0  0  0  0  0  0  0
  -25.2140  -13.8580   20.4070 C   0  0  0  0  0  0  0  0  0  0  0  0
  -24.1520  -13.1020   20.8240 C   0  0  0  0  0  0  0  0  0  0  0  0
  -24.5860  -11.7430   20.7690 C   0  0  0  0  0  0  0  0  0  0  0  0
  -26.2350  -12.9600   20.1350 N   0  0  0  0  0  0  0  0  0  0  0  0
  -25.8620  -11.6820   20.4060 N   0  0  0  0  0  0  0  0  0  0  0  0
  -23.8490  -10.4920   20.9920 C   0  0  0  0  0  0  0  0  0  0  0  0
  -24.3040   -9.5230   21.9120 C   0  0  0  0  0  3  0  0  0  0  0  0
  -23.5670   -8.3390   22.1250 C   0  0  0  0  0  3  0  0  0  0  0  0
  -22.3630   -8.1150   21.4190 C   0  0  0  0  0  0  0  0  0  0  0  0
  -21.9250   -9.0750   20.4910 C   0  0  0  0  0  3  0  0  0  0  0  0
  -22.6620  -10.2510   20.2750 C   0  0  0  0  0  3  0  0  0  0  0  0
  -21.5960   -6.9790   21.5370 O   0  0  0  0  0  0  0  0  0  0  0  0
  -21.5830   -6.2380   22.6890 C   0  0  0  0  0  0  0  0  0  0  0  0
  -21.2290   -6.8050   23.9340 C   0  0  0  0  0  3  0  0  0  0  0  0
  -21.1600   -5.9930   25.0840 C   0  0  0  0  0  3  0  0  0  0  0  0
  -21.4370   -4.6160   24.9910 C   0  0  0  0  0  0  0  0  0  0  0  0
  -21.7830   -4.0490   23.7510 C   0  0  0  0  0  3  0  0  0  0  0  0
  -21.8520   -4.8570   22.6030 C   0  0  0  0  0  0  0  0  0  0  0  0
  -22.1650   -4.3020   21.4080 F   0  0  0  0  0  0  0  0  0  0  0  0
  -21.3620   -3.8340   26.0920 F   0  0  0  0  0  0  0  0  0  0  0  0
  -22.7760  -13.6040   21.1570 C   0  0  0  0  0  0  0  0  0  0  0  0
  -22.0780  -12.9260   22.0600 N   0  0  0  0  0  0  0  0  0  0  0  0
  -22.3280  -14.6310   20.6490 O   0  0  0  0  0  0  0  0  0  0  0  0
  -22.4550  -12.0980   22.4930 H   0  0  0  0  0  0  0  0  0  0  0  0
  -21.1550  -13.2440   22.3190 H   0  0  0  0  0  0  0  0  0  0  0  0
  -25.3940  -15.2250   20.2190 N   0  0  0  0  0  0  0  0  0  0  0  0
  -24.6490  -15.8980   20.3710 H   0  0  0  0  0  0  0  0  0  0  0  0
  -26.2390  -15.6540   19.8600 H   0  0  0  0  0  0  0  0  0  0  0  0
  1  2  1  0
  2  6  2  0
  3  5  2  0
  4  1  2  0
  4  3  1  0
  5  6  1  0
  5 57  1  0
  6  7  1  0
  9  8  1  0
  9 10  1  0
  9  4  1  0
 10 12  1  0
 10 13  1  0
 11 10  1  0
 13 14  1  0
 14 15  1  0
 16 27  2  0
 17 15  1  0
 17 22  1  0
 18 26  1  0
 18 28  1  0
 19 25  1  0
 19 21  1  0
 20 26  1  0
 21 22  2  0
 21 20  1  0
 23 24  1  0
 23 17  2  0
 24 19  2  0
 25 18  1  0
 26 16  1  0
 28 30  2  0
 29 28  1  0
 31 29  1  0
 32 41  2  0
 32 37  1  0
 33 29  1  0
 33 37  1  0
 34 33  1  0
 35 36  1  0
 35 34  1  0
 36 32  1  0
 37 38  2  0
 38 39  1  0
 40 39  2  0
 41 40  1  0
 42 16  1  0
 42 47  1  0
 42 43  1  0
 43 46  1  1
 43 44  1  0
 45 43  1  0
 47 50  1  0
 48 52  1  0
 48 47  1  0
 49 48  2  0
 52 51  1  0
 54 52  1  0
 54 55  1  0
 54 53  1  0
 57 56  1  0
 58 57  1  0
 58 61  1  0
 59 58  1  0
 60 58  1  0
 62 61  1  0
 62 63  1  0
 64 72  1  0
 65 70  1  0
 66 67  1  0
 66 65  1  0
 68 67  1  0
 68 77  1  0
 68 69  1  0
 70 64  1  0
 70 69  1  0
 71 64  2  0
 72 63  1  0
 72 73  1  0
 74 75  2  0
 75 94  1  0
 76 75  1  0
 76 79  1  0
 77 78  1  0
 77 74  1  0
 78 76  2  0
 79 80  1  0
 80 81  2  0
 82 85  1  0
 82 81  1  0
 83 82  2  0
 84 83  1  0
 84 79  2  0
 85 86  1  0
 86 87  1  0
 87 88  2  0
 89 88  1  0
 89 93  1  0
 90 89  2  0
 91 86  2  0
 91 90  1  0
 92 91  1  0
 94 95  1  0
 95 98  1  0
 95 97  1  0
 96 94  2  0
 99100  1  0
 99 74  1  0
101 99  1  0
M  ISO  4  14 101  15 101  64 100  72 100
M  END
>  <TORSDO>  (80) 
F 25

>  <SCORE>  (80) 
-11.413

>  <name>  (80) 
82

>  <ligand_id>  (80) 
82

>  <original_smiles>  (80) 
[H]c1c([H])c([H])c2c(c1[H])C([H])([H])C([H])([H])C([H])([H])C2([H])N([H])C(=O)C1([H])N(C(=O)C([H])(N([H])C(=O)C([H])(N([H])C([H])([H])[H])C([H])([H])[H])C(C([H])([H])[H])(C([H])([H])[H])C([H])([H])[H])C([H])([H])c2c([H])c(OC([H])([H])C([H])([H])[N+]([H])([H])C([H])(c3c([H])c([H])c(F)c(C([H])(C([H])([H])[H])[N+]([H])([H])C([H])([H])C([H])([H])C([H])([H])N([H])C(=O)N4C([H])([H])C([H])([H])C([H])([H])C([H])(n5nc(-c6c([H])c([H])c(Oc7c([H])c([H])c(F)c([H])c7F)c([H])c6[H])c(C(=O)N([H])[H])c5N([H])[H])C4([H])[H])c3[H])C([H])([H])[H])c([H])c([H])c2C1([H])[H]

>  <smiles>  (80) 
[H]c1c([H])c([H])c2c(c1[H])C([H])([H])C([H])([H])C([H])([H])C2([H])N([H])C(=O)C1([H])N(C(=O)C([H])(N([H])C(=O)C([H])(N([H])C([H])([H])[H])C([H])([H])[H])C(C([H])([H])[H])(C([H])([H])[H])C([H])([H])[H])C([H])([H])c2c([H])c(OC([H])([H])C([H])([H])[N+]([H])([H])C([H])(c3c([H])c([H])c(F)c(C([H])(C([H])([H])[H])[N+]([H])([H])C([H])([H])C([H])([H])C([H])([H])N([H])C(=O)N4C([H])([H])C([H])([H])C([H])([H])C([H])(n5nc(-c6c([H])c([H])c(Oc7c([H])c([H])c(F)c([H])c7F)c([H])c6[H])c(C(=O)N([H])[H])c5N([H])[H])C4([H])[H])c3[H])C([H])([H])[H])c([H])c([H])c2C1([H])[H]

$$$$
83:0:0
     RDKit          3D

104112  0  0  1  0  0  0  0  0999 V2000
  -30.2480  -21.7660   15.8710 C   0  0  0  0  0  3  0  0  0  0  0  0
  -32.6240  -21.3060   16.1650 C   0  0  0  0  0  3  0  0  0  0  0  0
  -30.5530  -23.0930   15.5120 C   0  0  0  0  0  3  0  0  0  0  0  0
  -32.9270  -22.6380   15.8230 C   0  0  0  0  0  3  0  0  0  0  0  0
  -31.2830  -20.8680   16.2010 C   0  0  0  0  0  0  0  0  0  0  0  0
  -31.8940  -23.5410   15.4940 C   0  0  0  0  0  0  0  0  0  0  0  0
  -31.9540  -25.2420   13.6370 C   0  0  0  0  0  1  0  0  0  0  0  0
  -32.2310  -24.9850   15.1260 C   0  0  0  0  0  3  0  0  0  0  0  0
  -31.5050  -25.9600   15.9720 N   0  0  0  0  0  4  0  0  0  0  0  0
  -31.7970  -26.8850   15.6980 H   0  0  0  0  0  0  0  0  0  0  0  0
  -30.5240  -25.8800   15.7680 H   0  0  0  0  0  0  0  0  0  0  0  0
  -31.6940  -25.8330   17.4360 C   0  0  0  0  0  2  0  0  0  0  0  0
  -30.6680  -26.6920   18.1960 C   0  0  0  0  0  2  0  0  0  0  0  0
  -30.7550  -26.5310   19.7230 C   0  0  0  0  0  2  0  0  0  0  0  0
  -29.6410  -27.3010   20.4430 C   0  0  0  0  0  2  0  0  0  0  0  0
  -28.3980  -26.7010   20.0950 O   0  0  0  0  0  0  0  0  0  0  0  0
  -24.5780  -31.8740   23.2290 C   0  0  0  0  0  0  0  0  0  0  0  0
  -27.2540  -27.4610   20.1730 C   0  0  0  0  0  0  0  0  0  0  0  0
  -23.3730  -30.4620   21.5890 C   0  0  0  0  0  3  0  0  0  0  0  0
  -24.8340  -28.9210   20.1780 C   0  0  0  0  0  0  0  0  0  0  0  0
  -25.8890  -30.8360   21.3920 C   0  0  0  0  0  2  0  0  0  0  0  0
  -25.9800  -29.4610   20.7700 C   0  0  0  0  0  0  0  0  0  0  0  0
  -27.1860  -28.7360   20.7840 C   0  0  0  0  0  3  0  0  0  0  0  0
  -26.0880  -26.9230   19.5900 C   0  0  0  0  0  3  0  0  0  0  0  0
  -24.8780  -27.6430   19.5900 C   0  0  0  0  0  3  0  0  0  0  0  0
  -23.5850  -29.7710   20.2130 C   0  0  0  0  0  2  0  0  0  0  0  0
  -24.6310  -31.0720   22.1300 N   0  0  0  0  0  0  0  0  0  0  0  0
  -23.4970  -32.1470   23.7690 O   0  0  0  0  0  0  0  0  0  0  0  0
  -22.7240  -29.4440   22.5530 C   0  0  0  0  0  0  0  0  0  0  0  0
  -21.4020  -29.2580   22.4210 N   0  0  0  0  0  0  0  0  0  0  0  0
  -23.4070  -28.8250   23.3730 O   0  0  0  0  0  0  0  0  0  0  0  0
  -20.9130  -29.8090   21.7280 H   0  0  0  0  0  0  0  0  0  0  0  0
  -18.0270  -28.0700   22.9050 C   0  0  0  0  0  0  0  0  0  0  0  0
  -20.5830  -28.3250   23.1920 C   0  0  0  0  0  3  0  0  0  0  0  0
  -20.6870  -26.8920   22.6220 C   0  0  0  0  0  2  0  0  0  0  0  0
  -19.5910  -26.5660   21.6020 C   0  0  0  0  0  2  0  0  0  0  0  0
  -18.2050  -26.7160   22.2380 C   0  0  0  0  0  2  0  0  0  0  0  0
  -19.1440  -28.8320   23.3380 C   0  0  0  0  0  0  0  0  0  0  0  0
  -18.9250  -30.1000   23.9180 C   0  0  0  0  0  3  0  0  0  0  0  0
  -17.6200  -30.6050   24.0730 C   0  0  0  0  0  3  0  0  0  0  0  0
  -16.5170  -29.8390   23.6590 C   0  0  0  0  0  3  0  0  0  0  0  0
  -16.7210  -28.5740   23.0800 C   0  0  0  0  0  3  0  0  0  0  0  0
  -25.8660  -32.5030   23.8480 C   0  0  0  0  0  3  0  0  0  0  0  0
  -25.5610  -33.9010   24.1750 N   0  0  0  0  0  0  0  0  0  0  0  0
  -25.9000  -34.9500   23.4140 C   0  0  0  0  0  0  0  0  0  0  0  0
  -26.5760  -34.8440   22.3870 O   0  0  0  0  0  0  0  0  0  0  0  0
  -24.9620  -34.0600   24.9730 H   0  0  0  0  0  0  0  0  0  0  0  0
  -24.1810  -36.7440   23.0390 C   0  0  0  0  0  1  0  0  0  0  0  0
  -25.4120  -36.3390   23.8650 C   0  0  0  0  0  3  0  0  0  0  0  0
  -27.5400  -37.2170   24.7160 C   0  0  0  0  0  1  0  0  0  0  0  0
  -26.4470  -37.3900   23.7620 N   0  0  0  0  0  0  0  0  0  0  0  0
  -26.0420  -38.3100   23.9110 H   0  0  0  0  0  0  0  0  0  0  0  0
  -26.3880  -31.7300   25.1220 C   0  0  1  0  0  0  0  0  0  0  0  0
  -25.2990  -31.4910   26.1930 C   0  0  0  0  0  1  0  0  0  0  0  0
  -26.9690  -30.3530   24.7220 C   0  0  0  0  0  1  0  0  0  0  0  0
  -27.5410  -32.5230   25.7820 C   0  0  0  0  0  1  0  0  0  0  0  0
  -30.9700  -19.4300   16.5730 C   0  0  0  0  0  2  0  0  0  0  0  0
  -31.1290  -19.2050   18.0220 N   0  0  0  0  0  4  0  0  0  0  0  0
  -30.4150  -19.6920   18.5360 H   0  0  0  0  0  0  0  0  0  0  0  0
  -32.0200  -19.5750   18.3210 H   0  0  0  0  0  0  0  0  0  0  0  0
  -31.1720  -17.7810   18.4040 C   0  0  0  0  0  3  0  0  0  0  0  0
  -32.5400  -17.5820   19.0630 C   0  0  0  0  0  3  0  0  0  0  0  0
  -33.0900  -18.4410   19.7610 O   0  0  0  0  0  0  0  0  0  0  0  0
  -29.9410  -17.3650   19.2610 C   0  0  0  0  0  2  0  0  0  0  0  0
  -29.9520  -17.6430   20.7900 C   0  0  0  0  0  2  0  0  0  0  0  0
  -30.6640  -16.5970   21.6870 C   0  0  0  0  0  2  0  0  0  0  0  0
  -30.7740  -14.3410   20.6210 C   0  0  0  0  0  0  0  0  0  0  0  0
  -30.4150  -12.2690   19.3400 C   0  0  0  0  0  2  0  0  0  0  0  0
  -29.4890  -12.5330   18.1360 C   0  0  0  0  0  2  0  0  0  0  0  0
  -28.0100  -12.4120   18.5490 C   0  0  0  0  0  2  0  0  0  0  0  0
  -27.6770  -13.2320   19.8240 C   0  0  0  0  0  3  0  0  0  0  0  0
  -28.7060  -12.9370   20.9380 C   0  0  0  0  0  2  0  0  0  0  0  0
  -30.0550  -13.2100   20.4100 N   0  0  0  0  0  0  0  0  0  0  0  0
  -31.8360  -14.5880   20.0430 O   0  0  0  0  0  0  0  0  0  0  0  0
  -30.2020  -15.2320   21.4410 N   0  0  0  0  0  0  0  0  0  0  0  0
  -29.3480  -14.9430   21.8920 H   0  0  0  0  0  0  0  0  0  0  0  0
  -25.2700  -13.8760   20.4760 C   0  0  0  0  0  0  0  0  0  0  0  0
  -24.1890  -13.1160   20.8350 C   0  0  0  0  0  0  0  0  0  0  0  0
  -24.6390  -11.7610   20.8280 C   0  0  0  0  0  0  0  0  0  0  0  0
  -26.3110  -12.9810   20.2760 N   0  0  0  0  0  0  0  0  0  0  0  0
  -25.9320  -11.7060   20.5420 N   0  0  0  0  0  0  0  0  0  0  0  0
  -23.8990  -10.5070   21.0190 C   0  0  0  0  0  0  0  0  0  0  0  0
  -24.3120   -9.5420   21.9630 C   0  0  0  0  0  3  0  0  0  0  0  0
  -23.5710   -8.3530   22.1400 C   0  0  0  0  0  3  0  0  0  0  0  0
  -22.4040   -8.1230   21.3740 C   0  0  0  0  0  0  0  0  0  0  0  0
  -22.0150   -9.0770   20.4160 C   0  0  0  0  0  3  0  0  0  0  0  0
  -22.7550  -10.2560   20.2370 C   0  0  0  0  0  3  0  0  0  0  0  0
  -21.6350   -6.9880   21.4610 O   0  0  0  0  0  0  0  0  0  0  0  0
  -21.5680   -6.2510   22.6160 C   0  0  0  0  0  0  0  0  0  0  0  0
  -21.1440   -6.8160   23.8390 C   0  0  0  0  0  3  0  0  0  0  0  0
  -21.0270   -6.0060   24.9860 C   0  0  0  0  0  3  0  0  0  0  0  0
  -21.3190   -4.6310   24.9100 C   0  0  0  0  0  0  0  0  0  0  0  0
  -21.7320   -4.0640   23.6910 C   0  0  0  0  0  3  0  0  0  0  0  0
  -21.8540   -4.8720   22.5470 C   0  0  0  0  0  0  0  0  0  0  0  0
  -22.2340   -4.3180   21.3720 F   0  0  0  0  0  0  0  0  0  0  0  0
  -21.1960   -3.8500   26.0080 F   0  0  0  0  0  0  0  0  0  0  0  0
  -22.7910  -13.6080   21.0790 C   0  0  0  0  0  0  0  0  0  0  0  0
  -22.0420  -12.9270   21.9400 N   0  0  0  0  0  0  0  0  0  0  0  0
  -22.3710  -14.6320   20.5410 O   0  0  0  0  0  0  0  0  0  0  0  0
  -22.3910  -12.0980   22.3970 H   0  0  0  0  0  0  0  0  0  0  0  0
  -21.1030  -13.2410   22.1430 H   0  0  0  0  0  0  0  0  0  0  0  0
  -25.4480  -15.2440   20.2870 N   0  0  0  0  0  0  0  0  0  0  0  0
  -24.6810  -15.9020   20.3660 H   0  0  0  0  0  0  0  0  0  0  0  0
  -26.3110  -15.6800   19.9900 H   0  0  0  0  0  0  0  0  0  0  0  0
  1  5  1  0
  2  5  2  0
  3  1  2  0
  4  2  1  0
  5 57  1  0
  6  3  1  0
  6  4  2  0
  8  7  1  0
  8  6  1  0
  8  9  1  0
  9 12  1  0
 10  9  1  0
 11  9  1  0
 12 13  1  0
 13 14  1  0
 14 15  1  0
 16 18  1  0
 16 15  1  0
 17 28  2  0
 18 23  1  0
 19 27  1  0
 19 29  1  0
 20 26  1  0
 20 22  1  0
 21 27  1  0
 22 23  2  0
 22 21  1  0
 24 25  1  0
 24 18  2  0
 25 20  2  0
 26 19  1  0
 27 17  1  0
 29 31  2  0
 30 29  1  0
 32 30  1  0
 33 42  2  0
 33 38  1  0
 34 30  1  0
 34 38  1  0
 35 34  1  0
 36 37  1  0
 36 35  1  0
 37 33  1  0
 38 39  2  0
 39 40  1  0
 41 40  2  0
 42 41  1  0
 43 17  1  0
 43 44  1  0
 43 53  1  0
 44 47  1  0
 45 49  1  0
 45 44  1  0
 46 45  2  0
 49 48  1  0
 51 49  1  0
 51 52  1  0
 51 50  1  0
 53 56  1  1
 53 54  1  0
 55 53  1  0
 57 58  1  0
 58 60  1  0
 58 61  1  0
 58 59  1  0
 61 62  1  0
 61 64  1  0
 62 63  2  0
 64 65  1  0
 65 66  1  0
 67 75  1  0
 68 73  1  0
 69 70  1  0
 69 68  1  0
 71 70  1  0
 71 80  1  0
 71 72  1  0
 73 67  1  0
 73 72  1  0
 74 67  2  0
 75 66  1  0
 75 76  1  0
 77 78  2  0
 78 97  1  0
 79 78  1  0
 79 82  1  0
 80 77  1  0
 80 81  1  0
 81 79  2  0
 82 83  1  0
 83 84  2  0
 85 88  1  0
 85 84  1  0
 86 85  2  0
 87 86  1  0
 87 82  2  0
 88 89  1  0
 89 90  1  0
 90 91  2  0
 92 91  1  0
 92 96  1  0
 93 92  2  0
 94 89  2  0
 94 93  1  0
 95 94  1  0
 97 98  1  0
 98101  1  0
 98100  1  0
 99 97  2  0
102103  1  0
102 77  1  0
104102  1  0
M  ISO  4  15 101  16 101  67 100  75 100
M  END
>  <TORSDO>  (81) 
F 29

>  <SCORE>  (81) 
-11.215

>  <name>  (81) 
83

>  <ligand_id>  (81) 
83

>  <original_smiles>  (81) 
[H]C(=O)C([H])(C([H])([H])C([H])([H])C([H])([H])N([H])C(=O)N1C([H])([H])C([H])([H])C([H])([H])C([H])(n2nc(-c3c([H])c([H])c(Oc4c([H])c([H])c(F)c([H])c4F)c([H])c3[H])c(C(=O)N([H])[H])c2N([H])[H])C1([H])[H])[N+]([H])([H])C([H])([H])c1c([H])c([H])c(C([H])(C([H])([H])[H])[N+]([H])([H])C([H])([H])C([H])([H])C([H])([H])C([H])([H])Oc2c([H])c([H])c3c(c2[H])C([H])([H])N(C(=O)C([H])(N([H])C(=O)C([H])(N([H])C([H])([H])[H])C([H])([H])[H])C(C([H])([H])[H])(C([H])([H])[H])C([H])([H])[H])C([H])(C(=O)N([H])C2([H])c4c([H])c([H])c([H])c([H])c4C([H])([H])C([H])([H])C2([H])[H])C3([H])[H])c([H])c1[H]

>  <smiles>  (81) 
[H]C(=O)C([H])(C([H])([H])C([H])([H])C([H])([H])N([H])C(=O)N1C([H])([H])C([H])([H])C([H])([H])C([H])(n2nc(-c3c([H])c([H])c(Oc4c([H])c([H])c(F)c([H])c4F)c([H])c3[H])c(C(=O)N([H])[H])c2N([H])[H])C1([H])[H])[N+]([H])([H])C([H])([H])c1c([H])c([H])c(C([H])(C([H])([H])[H])[N+]([H])([H])C([H])([H])C([H])([H])C([H])([H])C([H])([H])Oc2c([H])c([H])c3c(c2[H])C([H])([H])N(C(=O)C([H])(N([H])C(=O)C([H])(N([H])C([H])([H])[H])C([H])([H])[H])C(C([H])([H])[H])(C([H])([H])[H])C([H])([H])[H])C([H])(C(=O)N([H])C2([H])c4c([H])c([H])c([H])c([H])c4C([H])([H])C([H])([H])C2([H])[H])C3([H])[H])c([H])c1[H]

$$$$
84:0:0
     RDKit          3D

103111  0  0  1  0  0  0  0  0999 V2000
  -32.1650  -21.6260   21.6780 C   0  0  0  0  0  3  0  0  0  0  0  0
  -32.2360  -20.4690   22.4750 C   0  0  0  0  0  3  0  0  0  0  0  0
  -30.0180  -19.8200   21.7240 C   0  0  0  0  0  3  0  0  0  0  0  0
  -31.0150  -21.9080   20.9030 C   0  0  0  0  0  0  0  0  0  0  0  0
  -31.1620  -19.5580   22.5070 C   0  0  0  0  0  0  0  0  0  0  0  0
  -29.9370  -20.9770   20.9230 C   0  0  0  0  0  0  0  0  0  0  0  0
  -28.7600  -21.1620   20.1930 N   0  0  0  0  0  0  0  0  0  0  0  0
  -28.1610  -20.3600   20.0320 H   0  0  0  0  0  0  0  0  0  0  0  0
  -28.8000  -21.7810   19.3880 H   0  0  0  0  0  0  0  0  0  0  0  0
  -30.2740  -18.3210   24.5620 C   0  0  0  0  0  1  0  0  0  0  0  0
  -31.2560  -18.3050   23.3750 C   0  0  0  0  0  3  0  0  0  0  0  0
  -31.0930  -17.0820   22.5620 N   0  0  0  0  0  4  0  0  0  0  0  0
  -31.2280  -16.2920   23.1690 H   0  0  0  0  0  0  0  0  0  0  0  0
  -30.1540  -17.0390   22.2010 H   0  0  0  0  0  0  0  0  0  0  0  0
  -32.0500  -16.9480   21.4430 C   0  0  0  0  0  2  0  0  0  0  0  0
  -32.2110  -15.4840   21.0080 C   0  0  0  0  0  2  0  0  0  0  0  0
  -30.6770  -14.4700   19.3540 C   0  0  0  0  0  0  0  0  0  0  0  0
  -30.1570  -12.3130   18.3100 C   0  0  0  0  0  2  0  0  0  0  0  0
  -29.0010  -12.3130   17.3020 C   0  0  0  0  0  2  0  0  0  0  0  0
  -27.6620  -12.1090   18.0260 C   0  0  0  0  0  2  0  0  0  0  0  0
  -27.4740  -13.0990   19.2030 C   0  0  0  0  0  3  0  0  0  0  0  0
  -28.7130  -13.1130   20.1290 C   0  0  0  0  0  2  0  0  0  0  0  0
  -29.9200  -13.3510   19.3180 N   0  0  0  0  0  0  0  0  0  0  0  0
  -31.3260  -14.9030   18.3960 O   0  0  0  0  0  0  0  0  0  0  0  0
  -30.9500  -14.8520   20.6070 N   0  0  0  0  0  0  0  0  0  0  0  0
  -30.4320  -14.3540   21.3180 H   0  0  0  0  0  0  0  0  0  0  0  0
  -25.3240  -13.6840   20.4950 C   0  0  0  0  0  0  0  0  0  0  0  0
  -24.3190  -12.9030   20.9990 C   0  0  0  0  0  0  0  0  0  0  0  0
  -24.6810  -11.5540   20.7030 C   0  0  0  0  0  0  0  0  0  0  0  0
  -26.2440  -12.8090   19.9390 N   0  0  0  0  0  0  0  0  0  0  0  0
  -25.8700  -11.5170   20.1140 N   0  0  0  0  0  0  0  0  0  0  0  0
  -23.9430  -10.2990   20.9000 C   0  0  0  0  0  0  0  0  0  0  0  0
  -24.3640   -9.3370   21.8440 C   0  0  0  0  0  3  0  0  0  0  0  0
  -23.6290   -8.1460   22.0290 C   0  0  0  0  0  3  0  0  0  0  0  0
  -22.4590   -7.9080   21.2710 C   0  0  0  0  0  0  0  0  0  0  0  0
  -22.0560   -8.8600   20.3180 C   0  0  0  0  0  3  0  0  0  0  0  0
  -22.7910  -10.0420   20.1300 C   0  0  0  0  0  3  0  0  0  0  0  0
  -21.6990   -6.7680   21.3630 O   0  0  0  0  0  0  0  0  0  0  0  0
  -21.4850   -6.1410   22.5640 C   0  0  0  0  0  0  0  0  0  0  0  0
  -20.8220   -6.7820   23.6330 C   0  0  0  0  0  3  0  0  0  0  0  0
  -20.5610   -6.0760   24.8240 C   0  0  0  0  0  3  0  0  0  0  0  0
  -20.9550   -4.7300   24.9480 C   0  0  0  0  0  0  0  0  0  0  0  0
  -21.6130   -4.0890   23.8830 C   0  0  0  0  0  3  0  0  0  0  0  0
  -21.8740   -4.7920   22.6950 C   0  0  0  0  0  0  0  0  0  0  0  0
  -22.4880   -4.1620   21.6640 F   0  0  0  0  0  0  0  0  0  0  0  0
  -20.6980   -4.0510   26.0910 F   0  0  0  0  0  0  0  0  0  0  0  0
  -23.0470  -13.3820   21.6360 C   0  0  0  0  0  0  0  0  0  0  0  0
  -22.4990  -12.6090   22.5680 N   0  0  0  0  0  0  0  0  0  0  0  0
  -22.5560  -14.4730   21.3460 O   0  0  0  0  0  0  0  0  0  0  0  0
  -22.9100  -11.7230   22.8230 H   0  0  0  0  0  0  0  0  0  0  0  0
  -21.6550  -12.9090   23.0360 H   0  0  0  0  0  0  0  0  0  0  0  0
  -25.5260  -15.0620   20.4470 N   0  0  0  0  0  0  0  0  0  0  0  0
  -24.8480  -15.7250   20.8050 H   0  0  0  0  0  0  0  0  0  0  0  0
  -26.3240  -15.5060   20.0090 H   0  0  0  0  0  0  0  0  0  0  0  0
  -31.0000  -23.1510   20.0700 C   0  0  0  0  0  0  0  0  0  0  0  0
  -30.4850  -23.2240   18.9460 O   0  0  0  0  0  0  0  0  0  0  0  0
  -31.5860  -24.4180   20.6920 C   0  0  0  0  0  2  0  0  0  0  0  0
  -30.5690  -25.4730   20.5200 N   0  0  0  0  0  4  0  0  0  0  0  0
  -29.9190  -25.4110   21.2870 H   0  0  0  0  0  0  0  0  0  0  0  0
  -30.0580  -25.2180   19.6850 H   0  0  0  0  0  0  0  0  0  0  0  0
  -31.0930  -26.8510   20.3800 C   0  0  0  0  0  2  0  0  0  0  0  0
  -29.9660  -27.8870   20.4890 C   0  0  0  0  0  2  0  0  0  0  0  0
  -28.8640  -27.4160   19.7180 O   0  0  0  0  0  0  0  0  0  0  0  0
  -24.5600  -31.8320   23.3390 C   0  0  0  0  0  0  0  0  0  0  0  0
  -27.6520  -28.0560   19.8510 C   0  0  0  0  0  0  0  0  0  0  0  0
  -23.4940  -30.4830   21.5590 C   0  0  0  0  0  3  0  0  0  0  0  0
  -25.0950  -29.2520   20.0000 C   0  0  0  0  0  0  0  0  0  0  0  0
  -25.9590  -31.1320   21.4060 C   0  0  0  0  0  2  0  0  0  0  0  0
  -26.1870  -29.8470   20.6420 C   0  0  0  0  0  0  0  0  0  0  0  0
  -27.4640  -29.2590   20.5730 C   0  0  0  0  0  3  0  0  0  0  0  0
  -26.5430  -27.4650   19.2120 C   0  0  0  0  0  3  0  0  0  0  0  0
  -25.2640  -28.0530   19.2860 C   0  0  0  0  0  3  0  0  0  0  0  0
  -23.7650  -29.9630   20.1220 C   0  0  0  0  0  2  0  0  0  0  0  0
  -24.6880  -31.1580   22.1630 N   0  0  0  0  0  0  0  0  0  0  0  0
  -23.4620  -31.9360   23.9030 O   0  0  0  0  0  0  0  0  0  0  0  0
  -22.9600  -29.3100   22.4110 C   0  0  0  0  0  0  0  0  0  0  0  0
  -21.6720  -28.9750   22.2220 N   0  0  0  0  0  0  0  0  0  0  0  0
  -23.6990  -28.7080   23.1950 O   0  0  0  0  0  0  0  0  0  0  0  0
  -21.1320  -29.5210   21.5660 H   0  0  0  0  0  0  0  0  0  0  0  0
  -18.4880  -27.2860   22.4370 C   0  0  0  0  0  0  0  0  0  0  0  0
  -20.9620  -27.8820   22.8850 C   0  0  0  0  0  3  0  0  0  0  0  0
  -21.3040  -26.5220   22.2330 C   0  0  0  0  0  2  0  0  0  0  0  0
  -20.3170  -26.1160   21.1350 C   0  0  0  0  0  2  0  0  0  0  0  0
  -18.8950  -26.0230   21.6960 C   0  0  0  0  0  2  0  0  0  0  0  0
  -19.4590  -28.1670   22.9810 C   0  0  0  0  0  0  0  0  0  0  0  0
  -19.0300  -29.3460   23.6280 C   0  0  0  0  0  3  0  0  0  0  0  0
  -17.6600  -29.6470   23.7390 C   0  0  0  0  0  3  0  0  0  0  0  0
  -16.7010  -28.7630   23.2130 C   0  0  0  0  0  3  0  0  0  0  0  0
  -17.1160  -27.5860   22.5680 C   0  0  0  0  0  3  0  0  0  0  0  0
  -25.7830  -32.5250   24.0220 C   0  0  0  0  0  3  0  0  0  0  0  0
  -26.2430  -31.8060   25.3480 C   0  0  1  0  0  0  0  0  0  0  0  0
  -25.0870  -31.5240   26.3360 C   0  0  0  0  0  1  0  0  0  0  0  0
  -26.9310  -30.4580   25.0270 C   0  0  0  0  0  1  0  0  0  0  0  0
  -27.2920  -32.6780   26.0790 C   0  0  0  0  0  1  0  0  0  0  0  0
  -25.4080  -33.9200   24.2870 N   0  0  0  0  0  0  0  0  0  0  0  0
  -25.8190  -34.9680   23.5600 C   0  0  0  0  0  0  0  0  0  0  0  0
  -26.6220  -34.8650   22.6290 O   0  0  0  0  0  0  0  0  0  0  0  0
  -24.7120  -34.0730   25.0010 H   0  0  0  0  0  0  0  0  0  0  0  0
  -24.1340  -36.7250   22.9350 C   0  0  0  0  0  1  0  0  0  0  0  0
  -25.2480  -36.3510   23.9250 C   0  0  0  0  0  3  0  0  0  0  0  0
  -27.2380  -37.2660   25.0360 C   0  0  0  0  0  1  0  0  0  0  0  0
  -26.2700  -37.4200   23.9540 N   0  0  0  0  0  0  0  0  0  0  0  0
  -25.8320  -38.3330   24.0490 H   0  0  0  0  0  0  0  0  0  0  0  0
  1  2  1  0
  2  5  2  0
  3  5  1  0
  4  6  1  0
  4  1  2  0
  5 11  1  0
  6  3  2  0
  7  6  1  0
  8  7  1  0
  9  7  1  0
 11 10  1  0
 12 13  1  0
 12 11  1  0
 14 12  1  0
 15 12  1  0
 16 15  1  0
 17 25  1  0
 18 23  1  0
 19 20  1  0
 19 18  1  0
 21 20  1  0
 21 30  1  0
 21 22  1  0
 23 17  1  0
 23 22  1  0
 24 17  2  0
 25 16  1  0
 25 26  1  0
 27 28  2  0
 28 47  1  0
 29 32  1  0
 29 28  1  0
 30 31  1  0
 30 27  1  0
 31 29  2  0
 32 33  1  0
 33 34  2  0
 35 38  1  0
 35 34  1  0
 36 35  2  0
 37 36  1  0
 37 32  2  0
 38 39  1  0
 39 44  2  0
 39 40  1  0
 40 41  2  0
 41 42  1  0
 42 46  1  0
 43 42  2  0
 44 43  1  0
 45 44  1  0
 47 48  1  0
 48 50  1  0
 48 51  1  0
 49 47  2  0
 52 27  1  0
 52 53  1  0
 54 52  1  0
 55 57  1  0
 55  4  1  0
 56 55  2  0
 58 57  1  0
 58 59  1  0
 60 58  1  0
 61 62  1  0
 61 58  1  0
 63 65  1  0
 63 62  1  0
 64 75  2  0
 65 70  1  0
 66 74  1  0
 66 76  1  0
 67 73  1  0
 67 69  1  0
 68 74  1  0
 69 68  1  0
 70 69  2  0
 71 72  1  0
 71 65  2  0
 72 67  2  0
 73 66  1  0
 74 64  1  0
 76 78  2  0
 77 76  1  0
 79 77  1  0
 80 89  2  0
 80 85  1  0
 81 77  1  0
 81 85  1  0
 82 81  1  0
 83 84  1  0
 83 82  1  0
 84 80  1  0
 85 86  2  0
 86 87  1  0
 88 87  2  0
 89 88  1  0
 90 64  1  0
 90 95  1  0
 90 91  1  0
 91 94  1  1
 91 92  1  0
 93 91  1  0
 95 98  1  0
 96100  1  0
 96 95  1  0
 97 96  2  0
100 99  1  0
100102  1  0
102103  1  0
102101  1  0
M  ISO  4  17 100  25 100  62 101  63 101
M  END
>  <TORSDO>  (82) 
F 26

>  <SCORE>  (82) 
-7.433

>  <name>  (82) 
84

>  <ligand_id>  (82) 
84

>  <original_smiles>  (82) 
[H]c1c([H])c([H])c2c(c1[H])C([H])([H])C([H])([H])C([H])([H])C2([H])N([H])C(=O)C1([H])N(C(=O)C([H])(N([H])C(=O)C([H])(N([H])C([H])([H])[H])C([H])([H])[H])C(C([H])([H])[H])(C([H])([H])[H])C([H])([H])[H])C([H])([H])c2c([H])c(OC([H])([H])C([H])([H])[N+]([H])([H])C([H])([H])C(=O)c3c([H])c([H])c(C([H])(C([H])([H])[H])[N+]([H])([H])C([H])([H])C([H])([H])N([H])C(=O)N4C([H])([H])C([H])([H])C([H])([H])C([H])(n5nc(-c6c([H])c([H])c(Oc7c([H])c([H])c(F)c([H])c7F)c([H])c6[H])c(C(=O)N([H])[H])c5N([H])[H])C4([H])[H])c([H])c3N([H])[H])c([H])c([H])c2C1([H])[H]

>  <smiles>  (82) 
[H]c1c([H])c([H])c2c(c1[H])C([H])([H])C([H])([H])C([H])([H])C2([H])N([H])C(=O)C1([H])N(C(=O)C([H])(N([H])C(=O)C([H])(N([H])C([H])([H])[H])C([H])([H])[H])C(C([H])([H])[H])(C([H])([H])[H])C([H])([H])[H])C([H])([H])c2c([H])c(OC([H])([H])C([H])([H])[N+]([H])([H])C([H])([H])C(=O)c3c([H])c([H])c(C([H])(C([H])([H])[H])[N+]([H])([H])C([H])([H])C([H])([H])N([H])C(=O)N4C([H])([H])C([H])([H])C([H])([H])C([H])(n5nc(-c6c([H])c([H])c(Oc7c([H])c([H])c(F)c([H])c7F)c([H])c6[H])c(C(=O)N([H])[H])c5N([H])[H])C4([H])[H])c([H])c3N([H])[H])c([H])c([H])c2C1([H])[H]

$$$$
85:0:0
     RDKit          3D

 97 99  0  0  1  0  0  0  0  0999 V2000
  -26.2830  -11.3380   20.6990 C   0  0  0  0  0  1  0  0  0  0  0  0
  -25.0360  -11.7780   18.8170 C   0  0  0  0  0  1  0  0  0  0  0  0
  -26.4970  -15.1880   21.2440 C   0  0  0  0  0 15  0  0  0  0  0  0
  -27.0130  -13.1350   21.7990 C   0  0  0  0  0  1  0  0  0  0  0  0
  -24.6730  -13.8870   18.2260 C   0  0  0  0  0  1  0  0  0  0  0  0
  -25.3940  -15.6550   19.3960 C   0  0  0  0  0  1  0  0  0  0  0  0
  -23.9670  -14.1470   16.9150 C   0  0  0  0  0  1  0  0  0  0  0  0
  -28.0830  -13.0250   22.8910 C   0  0  0  0  0  2  0  0  0  0  0  0
  -29.1070  -14.2120   22.9400 C   0  0  0  0  0  2  0  0  0  0  0  0
  -30.4540  -14.0020   22.1730 C   0  0  0  0  0  2  0  0  0  0  0  0
  -30.6390  -14.8610   20.8830 C   0  0  0  0  0  2  0  0  0  0  0  0
  -31.1200  -13.6260   18.6930 C   0  0  0  0  0  0  0  0  0  0  0  0
  -30.4670  -11.3710   17.8310 C   0  0  0  0  0  2  0  0  0  0  0  0
  -29.2280  -11.3150   16.8980 C   0  0  0  0  0  2  0  0  0  0  0  0
  -27.9010  -11.3740   17.6530 C   0  0  0  0  0  2  0  0  0  0  0  0
  -28.0290  -12.5240   18.6440 C   0  0  0  0  0  3  0  0  0  0  0  0
  -29.1970  -12.3620   19.5980 C   0  0  0  0  0  2  0  0  0  0  0  0
  -30.3880  -12.4900   18.7890 N   0  0  0  0  0  0  0  0  0  0  0  0
  -31.7520  -13.8860   17.6670 O   0  0  0  0  0  0  0  0  0  0  0  0
  -31.4870  -14.2080   19.8630 N   0  0  0  0  0  0  0  0  0  0  0  0
  -32.4160  -14.6090   19.8260 H   0  0  0  0  0  0  0  0  0  0  0  0
  -26.3000  -13.5980   19.8120 C   0  0  0  0  0  0  0  0  0  0  0  0
  -24.6250  -13.0270   20.6070 C   0  0  0  0  0  0  0  0  0  0  0  0
  -24.1860  -11.7790   20.6750 C   0  0  0  0  0  2  0  0  0  0  0  0
  -26.8050  -13.0210   19.3510 N   0  0  0  0  0  2  0  0  0  0  0  0
  -25.1990  -12.8250   20.2890 N   0  0  2  0  0  4  0  0  0  0  0  0
  -23.8900  -10.2660   20.6450 C   0  0  0  0  0  3  0  0  0  0  0  0
  -24.3700   -9.2180   21.4900 C   0  0  0  0  0  3  0  0  0  0  0  0
  -23.6070   -8.0300   21.7010 C   0  0  0  0  0  3  0  0  0  0  0  0
  -22.3250   -7.8950   21.1220 C   0  0  0  0  0  0  0  0  0  0  0  0
  -21.8770   -8.9040   20.2570 C   0  0  0  0  0  3  0  0  0  0  0  0
  -22.6500  -10.0460   20.0200 C   0  0  0  0  0  3  0  0  0  0  0  0
  -21.4690   -6.8300   21.2920 O   0  0  0  0  0  0  0  0  0  0  0  0
  -21.5170   -5.9910   22.3770 C   0  0  0  0  0  0  0  0  0  0  0  0
  -21.4530   -6.4650   23.7080 C   0  0  0  0  0  3  0  0  0  0  0  0
  -21.4490   -5.5470   24.7770 C   0  0  0  0  0  3  0  0  0  0  0  0
  -21.4940   -4.1630   24.5230 C   0  0  0  0  0  0  0  0  0  0  0  0
  -21.5280   -3.6920   23.1970 C   0  0  0  0  0  3  0  0  0  0  0  0
  -21.5380   -4.6040   22.1280 C   0  0  0  0  0  0  0  0  0  0  0  0
  -21.5580   -4.1410   20.8540 F   0  0  0  0  0  0  0  0  0  0  0  0
  -21.4830   -3.2820   25.5470 F   0  0  0  0  0  0  0  0  0  0  0  0
  -23.1720  -13.6180   21.2570 C   0  0  0  0  0  0  0  0  0  0  0  0
  -22.5940  -12.9710   22.2910 N   0  0  0  0  0  0  0  0  0  0  0  0
  -22.5450  -14.5260   20.7220 O   0  0  0  0  0  0  0  0  0  0  0  0
  -23.0540  -12.2120   22.7820 H   0  0  0  0  0  0  0  0  0  0  0  0
  -21.6930  -13.2820   22.6270 H   0  0  0  0  0  0  0  0  0  0  0  0
  -27.2000  -14.7360   19.5510 N   0  0  0  0  0  4  0  0  0  0  0  0
  -26.6340  -15.5610   19.6880 H   0  0  0  0  0  0  0  0  0  0  0  0
  -27.6600  -14.7320   18.6570 H   0  0  0  0  0  0  0  0  0  0  0  0
  -25.7390  -17.2680   18.6450 C   0  0  0  0  0  3  0  0  0  0  0  0
  -27.1470  -18.0920   17.7410 C   0  0  0  0  0  3  0  0  0  0  0  0
  -27.4640  -19.6780   17.1310 N   0  0  0  0  0  4  0  0  0  0  0  0
  -26.9570  -19.3660   16.3200 H   0  0  0  0  0  0  0  0  0  0  0  0
  -28.3620  -19.3160   17.4200 H   0  0  0  0  0  0  0  0  0  0  0  0
  -28.5410  -20.4920   16.0520 C   0  0  0  0  0  3  0  0  0  0  0  0
  -28.9060  -22.2770   15.5850 C   0  0  0  0  0  3  0  0  0  0  0  0
  -29.8530  -23.2410   14.5020 O   0  0  0  0  0  0  0  0  0  0  0  0
  -30.0300  -30.7170   15.6880 C   0  0  0  0  0  0  0  0  0  0  0  0
  -29.5550  -24.6560   14.1180 C   0  0  0  0  0  0  0  0  0  0  0  0
  -27.9690  -29.5070   15.1670 C   0  0  0  0  0  3  0  0  0  0  0  0
  -28.1970  -27.2430   13.9620 C   0  0  0  0  0  0  0  0  0  0  0  0
  -30.1900  -28.7020   14.1300 C   0  0  0  0  0  2  0  0  0  0  0  0
  -29.5960  -27.2580   14.0360 C   0  0  0  0  0  0  0  0  0  0  0  0
  -30.2920  -25.9580   14.0940 C   0  0  0  0  0  3  0  0  0  0  0  0
  -28.2150  -24.8020   13.7740 C   0  0  0  0  0  3  0  0  0  0  0  0
  -27.5380  -26.0280   13.7650 C   0  0  0  0  0  3  0  0  0  0  0  0
  -27.4090  -28.5380   14.0970 C   0  0  0  0  0  2  0  0  0  0  0  0
  -29.4460  -29.6740   15.0160 N   0  0  0  0  0  0  0  0  0  0  0  0
  -29.3680  -31.4740   16.4180 O   0  0  0  0  0  0  0  0  0  0  0  0
  -27.5650  -29.0230   16.5830 C   0  0  0  0  0  0  0  0  0  0  0  0
  -26.2760  -29.1620   16.9440 N   0  0  0  0  0  0  0  0  0  0  0  0
  -28.4060  -28.5180   17.3310 O   0  0  0  0  0  0  0  0  0  0  0  0
  -25.6400  -29.5830   16.2810 H   0  0  0  0  0  0  0  0  0  0  0  0
  -23.1980  -28.9630   18.8440 C   0  0  0  0  0  0  0  0  0  0  0  0
  -25.6970  -28.7400   18.2230 C   0  0  0  0  0  3  0  0  0  0  0  0
  -25.4580  -27.2130   18.2420 C   0  0  0  0  0  2  0  0  0  0  0  0
  -24.0430  -26.8180   17.8050 C   0  0  0  0  0  2  0  0  0  0  0  0
  -22.9960  -27.4630   18.7160 C   0  0  0  0  0  2  0  0  0  0  0  0
  -24.4610  -29.5650   18.5980 C   0  0  0  0  0  0  0  0  0  0  0  0
  -24.5800  -30.9680   18.7050 C   0  0  0  0  0  3  0  0  0  0  0  0
  -23.4690  -31.7620   19.0520 C   0  0  0  0  0  3  0  0  0  0  0  0
  -22.2250  -31.1570   19.3040 C   0  0  0  0  0  3  0  0  0  0  0  0
  -22.0920  -29.7620   19.2010 C   0  0  0  0  0  3  0  0  0  0  0  0
  -31.5510  -31.0180   15.5640 C   0  0  0  0  0  3  0  0  0  0  0  0
  -32.4010  -30.3630   16.7220 C   0  0  1  0  0  0  0  0  0  0  0  0
  -31.8720  -30.6870   18.1410 C   0  0  0  0  0  1  0  0  0  0  0  0
  -32.4410  -28.8260   16.5830 C   0  0  0  0  0  1  0  0  0  0  0  0
  -33.8650  -30.8450   16.6260 C   0  0  0  0  0  1  0  0  0  0  0  0
  -31.7180  -32.4820   15.5860 N   0  0  0  0  0  0  0  0  0  0  0  0
  -31.9260  -33.2510   14.5100 C   0  0  0  0  0  0  0  0  0  0  0  0
  -32.0530  -32.7830   13.3760 O   0  0  0  0  0  0  0  0  0  0  0  0
  -31.5670  -32.9330   16.4740 H   0  0  0  0  0  0  0  0  0  0  0  0
  -30.6810  -35.4310   14.2930 C   0  0  0  0  0  1  0  0  0  0  0  0
  -32.0070  -34.7770   14.7170 C   0  0  0  0  0  3  0  0  0  0  0  0
  -34.4390  -35.0530   14.5140 C   0  0  0  0  0  1  0  0  0  0  0  0
  -33.1260  -35.4150   13.9880 N   0  0  0  0  0  0  0  0  0  0  0  0
  -33.0430  -36.4270   14.0080 H   0  0  0  0  0  0  0  0  0  0  0  0
 26  2  1  6
  4  8  1  0
  7  5  1  0
  8  9  1  0
 10  9  1  0
 11 10  1  0
 12 18  1  0
 12 20  1  0
 13 18  1  0
 14 15  1  0
 14 13  1  0
 15 16  1  0
 16 25  1  0
 16 17  1  0
 18 17  1  0
 19 12  2  0
 20 11  1  0
 21 20  1  0
 22 26  1  0
 23 24  2  0
 23 42  1  0
 25 22  1  0
 26 23  1  0
 26  1  1  0
 27 28  1  0
 28 29  2  0
 30 33  1  0
 30 29  1  0
 31 30  2  0
 32 31  1  0
 32 27  2  0
 33 34  1  0
 34 35  1  0
 35 36  2  0
 37 36  1  0
 37 41  1  0
 38 37  2  0
 39 34  2  0
 39 38  1  0
 40 39  1  0
 42 43  1  0
 43 46  1  0
 43 45  1  0
 44 42  2  0
 47 48  1  0
 47 22  2  0
 49 47  1  0
 50  6  1  0
 51 50  2  0
 52 54  1  0
 52 51  1  0
 53 52  1  0
 55 52  1  0
 56 55  2  0
 57 56  1  0
 58 69  2  0
 59 57  1  0
 60 70  1  0
 61 63  1  0
 61 67  1  0
 62 68  1  0
 63 64  2  0
 63 62  1  0
 64 59  1  0
 65 59  2  0
 66 65  1  0
 66 61  2  0
 67 60  1  0
 68 60  1  0
 68 58  1  0
 70 71  1  0
 70 72  2  0
 73 71  1  0
 74 83  1  0
 75 71  1  0
 75 76  1  0
 75 79  1  0
 77 76  1  0
 77 78  1  0
 78 74  1  0
 79 80  1  0
 79 74  2  0
 80 81  2  0
 81 82  1  0
 83 82  2  0
 84 89  1  0
 84 58  1  0
 84 85  1  0
 85 86  1  1
 87 85  1  0
 88 85  1  0
 89 92  1  0
 90 94  1  0
 90 89  1  0
 91 90  2  0
 94 93  1  0
 96 97  1  0
 96 95  1  0
 96 94  1  0
M  ISO  4  12 100  20 100  56 101  57 101
M  END
>  <TORSDO>  (83) 
F 25

>  <SCORE>  (83) 
28.034

>  <name>  (83) 
85

>  <ligand_id>  (83) 
85

>  <original_smiles>  (83) 
[H]c1c([H])c([H])c2c(c1[H])C([H])([H])C([H])([H])C([H])([H])C2([H])N([H])C(=O)C1([H])N(C(=O)C([H])(N([H])C(=O)C([H])(N([H])C([H])([H])[H])C([H])([H])[H])C(C([H])([H])[H])(C([H])([H])[H])C([H])([H])[H])C([H])([H])c2c([H])c(OC([H])([H])C([H])([H])[N+]([H])([H])C([H])([H])C([H])([H])c3c([H])c(C([H])([H])C([H])([H])C([H])([H])C([H])([H])N([H])C(=O)N4C([H])([H])C([H])([H])C([H])([H])C([H])(n5nc(-c6c([H])c([H])c(Oc7c([H])c([H])c(F)c([H])c7F)c([H])c6[H])c(C(=O)N([H])[H])c5N([H])[H])C4([H])[H])c([H])c([H])c3C([H])([H])[H])c([H])c([H])c2C1([H])[H]

>  <smiles>  (83) 
[H]c1c([H])c([H])c2c(c1[H])C([H])([H])C([H])([H])C([H])([H])C2([H])N([H])C(=O)C1([H])N(C(=O)C([H])(N([H])C(=O)C([H])(N([H])C([H])([H])[H])C([H])([H])[H])C(C([H])([H])[H])(C([H])([H])[H])C([H])([H])[H])C([H])([H])c2c([H])c(OC([H])([H])C([H])([H])[N+]([H])([H])C([H])([H])C([H])([H])c3c([H])c(C([H])([H])C([H])([H])C([H])([H])C([H])([H])N([H])C(=O)N4C([H])([H])C([H])([H])C([H])([H])C([H])(n5nc(-c6c([H])c([H])c(Oc7c([H])c([H])c(F)c([H])c7F)c([H])c6[H])c(C(=O)N([H])[H])c5N([H])[H])C4([H])[H])c([H])c([H])c3C([H])([H])[H])c([H])c([H])c2C1([H])[H]

$$$$
86:0:0
     RDKit          3D

 97105  0  0  1  0  0  0  0  0999 V2000
  -29.9190  -19.8420   22.7620 C   0  0  0  0  0  3  0  0  0  0  0  0
  -29.8840  -21.2400   22.6120 C   0  0  0  0  0  3  0  0  0  0  0  0
  -31.6710  -19.7280   21.0810 C   0  0  0  0  0  3  0  0  0  0  0  0
  -30.7960  -19.0670   21.9780 C   0  0  0  0  0  0  0  0  0  0  0  0
  -30.7080  -21.8920   21.6690 C   0  0  0  0  0  0  0  0  0  0  0  0
  -31.6470  -21.1300   20.9100 C   0  0  0  0  0  0  0  0  0  0  0  0
  -30.5410  -23.3760   21.5170 C   0  0  0  0  0  0  0  0  0  0  0  0
  -30.3200  -23.7910   20.2680 N   0  0  0  0  0  0  0  0  0  0  0  0
  -30.5510  -24.1220   22.4980 O   0  0  0  0  0  0  0  0  0  0  0  0
  -30.2830  -23.0790   19.5520 H   0  0  0  0  0  0  0  0  0  0  0  0
  -30.1410  -25.1720   19.8510 C   0  0  0  0  0  2  0  0  0  0  0  0
  -28.6610  -25.4920   19.6300 C   0  0  0  0  0  2  0  0  0  0  0  0
  -28.5870  -26.8970   19.4680 O   0  0  0  0  0  0  0  0  0  0  0  0
  -24.6490  -31.5630   23.0440 C   0  0  0  0  0  0  0  0  0  0  0  0
  -27.3500  -27.4750   19.5880 C   0  0  0  0  0  0  0  0  0  0  0  0
  -23.4240  -30.1710   21.4030 C   0  0  0  0  0  3  0  0  0  0  0  0
  -24.8700  -28.7910   19.8250 C   0  0  0  0  0  0  0  0  0  0  0  0
  -25.9010  -30.7010   21.0730 C   0  0  0  0  0  2  0  0  0  0  0  0
  -26.0250  -29.3710   20.3630 C   0  0  0  0  0  0  0  0  0  0  0  0
  -27.2680  -28.7200   20.2390 C   0  0  0  0  0  3  0  0  0  0  0  0
  -26.1780  -26.8880   19.0600 C   0  0  0  0  0  3  0  0  0  0  0  0
  -24.9380  -27.5440   19.1740 C   0  0  0  0  0  3  0  0  0  0  0  0
  -23.5850  -29.5700   19.9810 C   0  0  0  0  0  2  0  0  0  0  0  0
  -24.6800  -30.8250   21.8990 N   0  0  0  0  0  0  0  0  0  0  0  0
  -23.5910  -31.7450   23.6600 O   0  0  0  0  0  0  0  0  0  0  0  0
  -22.8940  -29.0680   22.3470 C   0  0  0  0  0  0  0  0  0  0  0  0
  -21.5880  -28.7760   22.2460 N   0  0  0  0  0  0  0  0  0  0  0  0
  -23.6510  -28.4800   23.1250 O   0  0  0  0  0  0  0  0  0  0  0  0
  -21.0360  -29.3090   21.5890 H   0  0  0  0  0  0  0  0  0  0  0  0
  -18.3510  -27.2550   22.7450 C   0  0  0  0  0  0  0  0  0  0  0  0
  -20.8750  -27.7490   23.0020 C   0  0  0  0  0  3  0  0  0  0  0  0
  -21.1070  -26.3470   22.3950 C   0  0  0  0  0  2  0  0  0  0  0  0
  -20.0310  -25.9410   21.3820 C   0  0  0  0  0  2  0  0  0  0  0  0
  -18.6480  -25.9410   22.0410 C   0  0  0  0  0  2  0  0  0  0  0  0
  -19.3960  -28.1110   23.1810 C   0  0  0  0  0  0  0  0  0  0  0  0
  -19.0640  -29.3360   23.7990 C   0  0  0  0  0  3  0  0  0  0  0  0
  -17.7200  -29.7090   23.9840 C   0  0  0  0  0  3  0  0  0  0  0  0
  -16.6900  -28.8510   23.5660 C   0  0  0  0  0  3  0  0  0  0  0  0
  -17.0050  -27.6250   22.9520 C   0  0  0  0  0  3  0  0  0  0  0  0
  -25.9380  -32.2350   23.6190 C   0  0  0  0  0  3  0  0  0  0  0  0
  -25.5930  -33.6170   23.9710 N   0  0  0  0  0  0  0  0  0  0  0  0
  -25.8740  -34.6870   23.2140 C   0  0  0  0  0  0  0  0  0  0  0  0
  -26.5250  -34.6150   22.1670 O   0  0  0  0  0  0  0  0  0  0  0  0
  -25.0110  -33.7460   24.7850 H   0  0  0  0  0  0  0  0  0  0  0  0
  -24.0850  -36.4250   22.9080 C   0  0  0  0  0  1  0  0  0  0  0  0
  -25.3520  -36.0530   23.6940 C   0  0  0  0  0  3  0  0  0  0  0  0
  -27.4680  -36.9990   24.5020 C   0  0  0  0  0  1  0  0  0  0  0  0
  -26.3490  -37.1390   23.5750 N   0  0  0  0  0  0  0  0  0  0  0  0
  -25.9170  -38.0440   23.7370 H   0  0  0  0  0  0  0  0  0  0  0  0
  -26.5350  -31.4720   24.8650 C   0  0  1  0  0  0  0  0  0  0  0  0
  -25.4930  -31.1750   25.9680 C   0  0  0  0  0  1  0  0  0  0  0  0
  -27.1610  -30.1260   24.4300 C   0  0  0  0  0  1  0  0  0  0  0  0
  -27.6730  -32.3080   25.4950 C   0  0  0  0  0  1  0  0  0  0  0  0
  -32.1720  -21.4700   18.4580 C   0  0  0  0  0  1  0  0  0  0  0  0
  -34.0780  -21.2940   20.1160 C   0  0  0  0  0  1  0  0  0  0  0  0
  -32.6250  -21.7510   19.9000 C   0  0  0  0  0  3  0  0  0  0  0  0
  -30.7590  -17.5800   22.1010 C   0  0  0  0  0  0  0  0  0  0  0  0
  -30.1070  -16.9870   22.9700 O   0  0  0  0  0  0  0  0  0  0  0  0
  -31.5550  -16.7650   21.0820 C   0  0  0  0  0  2  0  0  0  0  0  0
  -31.3890  -14.5690   20.0170 C   0  0  0  0  0  0  0  0  0  0  0  0
  -30.8910  -12.4690   18.8400 C   0  0  0  0  0  2  0  0  0  0  0  0
  -29.8670  -12.7050   17.7150 C   0  0  0  0  0  2  0  0  0  0  0  0
  -28.4270  -12.6150   18.2530 C   0  0  0  0  0  2  0  0  0  0  0  0
  -28.2130  -13.4700   19.5300 C   0  0  0  0  0  3  0  0  0  0  0  0
  -29.3360  -13.2090   20.5590 C   0  0  0  0  0  2  0  0  0  0  0  0
  -30.6370  -13.4470   19.9060 N   0  0  0  0  0  0  0  0  0  0  0  0
  -32.3550  -14.8230   19.2910 O   0  0  0  0  0  0  0  0  0  0  0  0
  -31.0160  -15.4170   20.9710 N   0  0  0  0  0  0  0  0  0  0  0  0
  -30.2380  -15.1880   21.5730 H   0  0  0  0  0  0  0  0  0  0  0  0
  -25.9120  -14.1540   20.4690 C   0  0  0  0  0  0  0  0  0  0  0  0
  -24.8380  -13.4120   20.8870 C   0  0  0  0  0  0  0  0  0  0  0  0
  -25.2240  -12.0450   20.7440 C   0  0  0  0  0  0  0  0  0  0  0  0
  -26.8880  -13.2380   20.1050 N   0  0  0  0  0  0  0  0  0  0  0  0
  -26.4800  -11.9620   20.3230 N   0  0  0  0  0  0  0  0  0  0  0  0
  -24.4530  -10.8090   20.9300 C   0  0  0  0  0  0  0  0  0  0  0  0
  -24.8580   -9.8190   21.8530 C   0  0  0  0  0  3  0  0  0  0  0  0
  -24.0910   -8.6470   22.0260 C   0  0  0  0  0  3  0  0  0  0  0  0
  -22.9070   -8.4560   21.2750 C   0  0  0  0  0  0  0  0  0  0  0  0
  -22.5210   -9.4340   20.3420 C   0  0  0  0  0  3  0  0  0  0  0  0
  -23.2880  -10.5980   20.1670 C   0  0  0  0  0  3  0  0  0  0  0  0
  -22.1110   -7.3370   21.3590 O   0  0  0  0  0  0  0  0  0  0  0  0
  -21.9370   -6.6650   22.5420 C   0  0  0  0  0  0  0  0  0  0  0  0
  -21.4130   -7.2990   23.6900 C   0  0  0  0  0  3  0  0  0  0  0  0
  -21.1840   -6.5550   24.8640 C   0  0  0  0  0  3  0  0  0  0  0  0
  -21.4700   -5.1760   24.8910 C   0  0  0  0  0  0  0  0  0  0  0  0
  -21.9870   -4.5420   23.7480 C   0  0  0  0  0  3  0  0  0  0  0  0
  -22.2170   -5.2830   22.5760 C   0  0  0  0  0  0  0  0  0  0  0  0
  -22.6960   -4.6630   21.4700 F   0  0  0  0  0  0  0  0  0  0  0  0
  -21.2430   -4.4580   26.0160 F   0  0  0  0  0  0  0  0  0  0  0  0
  -23.4980  -13.9370   21.3100 C   0  0  0  0  0  0  0  0  0  0  0  0
  -22.8200  -13.2350   22.2120 N   0  0  0  0  0  0  0  0  0  0  0  0
  -23.0620  -15.0030   20.8750 O   0  0  0  0  0  0  0  0  0  0  0  0
  -23.1860  -12.3710   22.5840 H   0  0  0  0  0  0  0  0  0  0  0  0
  -21.9230  -13.5680   22.5360 H   0  0  0  0  0  0  0  0  0  0  0  0
  -26.1320  -15.5240   20.3490 N   0  0  0  0  0  0  0  0  0  0  0  0
  -25.4170  -16.2110   20.5600 H   0  0  0  0  0  0  0  0  0  0  0  0
  -26.9870  -15.9370   19.9980 H   0  0  0  0  0  0  0  0  0  0  0  0
  2  1  1  0
  3  4  1  0
  4 57  1  0
  4  1  2  0
  5  2  2  0
  6  3  2  0
  6  5  1  0
  7  5  1  0
  7  9  2  0
  8  7  1  0
 10  8  1  0
 11  8  1  0
 12 11  1  0
 13 15  1  0
 13 12  1  0
 14 25  2  0
 15 20  1  0
 16 24  1  0
 16 26  1  0
 17 23  1  0
 17 19  1  0
 18 24  1  0
 19 18  1  0
 20 19  2  0
 21 22  1  0
 21 15  2  0
 22 17  2  0
 23 16  1  0
 24 14  1  0
 26 28  2  0
 27 26  1  0
 29 27  1  0
 30 39  2  0
 30 35  1  0
 31 27  1  0
 31 35  1  0
 32 31  1  0
 33 34  1  0
 33 32  1  0
 34 30  1  0
 35 36  2  0
 36 37  1  0
 38 37  2  0
 39 38  1  0
 40 14  1  0
 40 41  1  0
 40 50  1  0
 41 44  1  0
 42 46  1  0
 42 41  1  0
 43 42  2  0
 46 45  1  0
 48 46  1  0
 48 49  1  0
 48 47  1  0
 50 53  1  1
 50 51  1  0
 52 50  1  0
 54 56  1  0
 56 55  1  0
 56  6  1  0
 57 58  2  0
 59 57  1  0
 60 68  1  0
 61 66  1  0
 62 63  1  0
 62 61  1  0
 64 63  1  0
 64 73  1  0
 64 65  1  0
 66 60  1  0
 66 65  1  0
 67 60  2  0
 68 59  1  0
 68 69  1  0
 70 71  2  0
 71 90  1  0
 72 71  1  0
 72 75  1  0
 73 74  1  0
 73 70  1  0
 74 72  2  0
 75 76  1  0
 76 77  2  0
 78 81  1  0
 78 77  1  0
 79 78  2  0
 80 79  1  0
 80 75  2  0
 81 82  1  0
 82 87  2  0
 82 83  1  0
 83 84  2  0
 84 85  1  0
 85 89  1  0
 86 85  2  0
 87 86  1  0
 88 87  1  0
 90 91  1  0
 91 94  1  0
 91 93  1  0
 92 90  2  0
 95 70  1  0
 95 96  1  0
 97 95  1  0
M  ISO  4  12 101  13 101  60 100  68 100
M  END
>  <TORSDO>  (84) 
F 22

>  <SCORE>  (84) 
-10.430

>  <name>  (84) 
86

>  <ligand_id>  (84) 
86

>  <original_smiles>  (84) 
[H]c1c([H])c([H])c2c(c1[H])C([H])([H])C([H])([H])C([H])([H])C2([H])N([H])C(=O)C1([H])N(C(=O)C([H])(N([H])C(=O)C([H])(N([H])C([H])([H])[H])C([H])([H])[H])C(C([H])([H])[H])(C([H])([H])[H])C([H])([H])[H])C([H])([H])c2c([H])c(OC([H])([H])C([H])([H])N([H])C(=O)c3c([H])c([H])c(C(=O)C([H])([H])N([H])C(=O)N4C([H])([H])C([H])([H])C([H])([H])C([H])(n5nc(-c6c([H])c([H])c(Oc7c([H])c([H])c(F)c([H])c7F)c([H])c6[H])c(C(=O)N([H])[H])c5N([H])[H])C4([H])[H])c([H])c3C([H])(C([H])([H])[H])C([H])([H])[H])c([H])c([H])c2C1([H])[H]

>  <smiles>  (84) 
[H]c1c([H])c([H])c2c(c1[H])C([H])([H])C([H])([H])C([H])([H])C2([H])N([H])C(=O)C1([H])N(C(=O)C([H])(N([H])C(=O)C([H])(N([H])C([H])([H])[H])C([H])([H])[H])C(C([H])([H])[H])(C([H])([H])[H])C([H])([H])[H])C([H])([H])c2c([H])c(OC([H])([H])C([H])([H])N([H])C(=O)c3c([H])c([H])c(C(=O)C([H])([H])N([H])C(=O)N4C([H])([H])C([H])([H])C([H])([H])C([H])(n5nc(-c6c([H])c([H])c(Oc7c([H])c([H])c(F)c([H])c7F)c([H])c6[H])c(C(=O)N([H])[H])c5N([H])[H])C4([H])[H])c([H])c3C([H])(C([H])([H])[H])C([H])([H])[H])c([H])c([H])c2C1([H])[H]

$$$$
87:0:0
     RDKit          3D

102110  0  0  1  0  0  0  0  0999 V2000
  -30.9370  -24.5130   16.7680 N   0  0  0  0  0  4  0  0  0  0  0  0
  -31.6940  -24.4570   17.4310 H   0  0  0  0  0  0  0  0  0  0  0  0
  -31.3430  -24.4860   15.8460 H   0  0  0  0  0  0  0  0  0  0  0  0
  -29.1210  -23.1470   15.7860 C   0  0  0  0  0  1  0  0  0  0  0  0
  -30.1070  -23.2980   16.9710 C   0  0  0  0  0  3  0  0  0  0  0  0
  -31.0360  -22.0650   17.1420 C   0  0  0  0  0  2  0  0  0  0  0  0
  -30.9710  -19.4820   20.0040 C   0  0  0  0  0  3  0  0  0  0  0  0
  -28.9250  -19.2520   18.7130 C   0  0  0  0  0  3  0  0  0  0  0  0
  -31.3580  -20.5620   19.1800 C   0  0  0  0  0  3  0  0  0  0  0  0
  -29.3170  -20.3180   17.8860 C   0  0  0  0  0  3  0  0  0  0  0  0
  -29.7580  -18.7920   19.7590 C   0  0  0  0  0  0  0  0  0  0  0  0
  -30.5450  -20.9770   18.0980 C   0  0  0  0  0  0  0  0  0  0  0  0
  -29.3210  -17.5840   20.5260 C   0  0  0  0  0  0  0  0  0  0  0  0
  -28.2040  -17.0750   20.3670 O   0  0  0  0  0  0  0  0  0  0  0  0
  -30.2830  -16.9200   21.5300 C   0  0  0  0  0  2  0  0  0  0  0  0
  -30.7010  -14.6320   20.6770 C   0  0  0  0  0  0  0  0  0  0  0  0
  -30.4220  -12.5900   19.3310 C   0  0  0  0  0  2  0  0  0  0  0  0
  -29.4780  -12.8870   18.1470 C   0  0  0  0  0  2  0  0  0  0  0  0
  -28.0010  -12.7140   18.5570 C   0  0  0  0  0  2  0  0  0  0  0  0
  -27.6590  -13.4450   19.8830 C   0  0  0  0  0  3  0  0  0  0  0  0
  -28.7060  -13.1160   20.9700 C   0  0  0  0  0  2  0  0  0  0  0  0
  -30.0410  -13.4690   20.4460 N   0  0  0  0  0  0  0  0  0  0  0  0
  -31.7410  -14.9530   20.0980 O   0  0  0  0  0  0  0  0  0  0  0  0
  -30.0850  -15.4690   21.5200 N   0  0  0  0  0  0  0  0  0  0  0  0
  -29.2290  -15.1360   21.9380 H   0  0  0  0  0  0  0  0  0  0  0  0
  -25.2340  -13.9970   20.5610 C   0  0  0  0  0  0  0  0  0  0  0  0
  -24.1770  -13.1990   20.9120 C   0  0  0  0  0  0  0  0  0  0  0  0
  -24.6690  -11.8570   20.8710 C   0  0  0  0  0  0  0  0  0  0  0  0
  -26.3030  -13.1410   20.3370 N   0  0  0  0  0  0  0  0  0  0  0  0
  -25.9620  -11.8480   20.5730 N   0  0  0  0  0  0  0  0  0  0  0  0
  -23.9710  -10.5760   21.0380 C   0  0  0  0  0  0  0  0  0  0  0  0
  -24.3990   -9.6220   21.9880 C   0  0  0  0  0  3  0  0  0  0  0  0
  -23.7020   -8.4030   22.1420 C   0  0  0  0  0  3  0  0  0  0  0  0
  -22.5610   -8.1320   21.3490 C   0  0  0  0  0  0  0  0  0  0  0  0
  -22.1540   -9.0760   20.3890 C   0  0  0  0  0  3  0  0  0  0  0  0
  -22.8530  -10.2840   20.2330 C   0  0  0  0  0  3  0  0  0  0  0  0
  -21.8380   -6.9660   21.4120 O   0  0  0  0  0  0  0  0  0  0  0  0
  -21.7360   -6.2420   22.5740 C   0  0  0  0  0  0  0  0  0  0  0  0
  -21.1560   -6.7830   23.7420 C   0  0  0  0  0  3  0  0  0  0  0  0
  -21.0090   -5.9820   24.8920 C   0  0  0  0  0  3  0  0  0  0  0  0
  -21.4300   -4.6380   24.8730 C   0  0  0  0  0  0  0  0  0  0  0  0
  -22.0040   -4.0970   23.7080 C   0  0  0  0  0  3  0  0  0  0  0  0
  -22.1520   -4.8960   22.5630 C   0  0  0  0  0  0  0  0  0  0  0  0
  -22.6860   -4.3620   21.4370 F   0  0  0  0  0  0  0  0  0  0  0  0
  -21.2850   -3.8660   25.9740 F   0  0  0  0  0  0  0  0  0  0  0  0
  -22.7660  -13.6410   21.1770 C   0  0  0  0  0  0  0  0  0  0  0  0
  -22.0380  -12.9070   22.0110 N   0  0  0  0  0  0  0  0  0  0  0  0
  -22.3150  -14.6720   20.6810 O   0  0  0  0  0  0  0  0  0  0  0  0
  -22.4140  -12.0760   22.4450 H   0  0  0  0  0  0  0  0  0  0  0  0
  -21.0910  -13.1830   22.2280 H   0  0  0  0  0  0  0  0  0  0  0  0
  -25.3740  -15.3700   20.3970 N   0  0  0  0  0  0  0  0  0  0  0  0
  -24.5880  -16.0060   20.4630 H   0  0  0  0  0  0  0  0  0  0  0  0
  -26.2330  -15.8260   20.1060 H   0  0  0  0  0  0  0  0  0  0  0  0
  -30.2250  -25.8000   16.9600 C   0  0  0  0  0  2  0  0  0  0  0  0
  -31.1660  -27.0220   17.0180 C   0  0  0  0  0  2  0  0  0  0  0  0
  -31.9890  -27.2120   18.3130 C   0  0  0  0  0  2  0  0  0  0  0  0
  -31.1680  -27.6580   19.4600 N   0  0  0  0  0  4  0  0  0  0  0  0
  -30.3160  -28.0710   19.1130 H   0  0  0  0  0  0  0  0  0  0  0  0
  -31.6710  -28.3930   19.9360 H   0  0  0  0  0  0  0  0  0  0  0  0
  -30.8340  -26.6150   20.4610 C   0  0  0  0  0  2  0  0  0  0  0  0
  -29.5060  -26.9390   21.1560 C   0  0  0  0  0  2  0  0  0  0  0  0
  -28.4910  -26.7860   20.1620 O   0  0  0  0  0  0  0  0  0  0  0  0
  -24.5280  -31.8930   23.2380 C   0  0  0  0  0  0  0  0  0  0  0  0
  -27.3340  -27.5280   20.2330 C   0  0  0  0  0  0  0  0  0  0  0  0
  -23.3770  -30.4710   21.5670 C   0  0  0  0  0  3  0  0  0  0  0  0
  -24.8900  -28.9530   20.1850 C   0  0  0  0  0  0  0  0  0  0  0  0
  -25.8920  -30.8850   21.4170 C   0  0  0  0  0  2  0  0  0  0  0  0
  -26.0180  -29.5110   20.7970 C   0  0  0  0  0  0  0  0  0  0  0  0
  -27.2390  -28.8110   20.8240 C   0  0  0  0  0  3  0  0  0  0  0  0
  -26.1900  -26.9800   19.6140 C   0  0  0  0  0  3  0  0  0  0  0  0
  -24.9690  -27.6800   19.5920 C   0  0  0  0  0  3  0  0  0  0  0  0
  -23.6280  -29.7850   20.1950 C   0  0  0  0  0  2  0  0  0  0  0  0
  -24.6170  -31.0970   22.1350 N   0  0  0  0  0  0  0  0  0  0  0  0
  -23.4340  -32.1490   23.7560 O   0  0  0  0  0  0  0  0  0  0  0  0
  -22.7230  -29.4430   22.5150 C   0  0  0  0  0  0  0  0  0  0  0  0
  -21.4050  -29.2420   22.3580 N   0  0  0  0  0  0  0  0  0  0  0  0
  -23.3980  -28.8260   23.3440 O   0  0  0  0  0  0  0  0  0  0  0  0
  -20.9230  -29.7930   21.6610 H   0  0  0  0  0  0  0  0  0  0  0  0
  -18.0290  -28.0420   22.8050 C   0  0  0  0  0  0  0  0  0  0  0  0
  -20.5840  -28.2940   23.1080 C   0  0  0  0  0  3  0  0  0  0  0  0
  -20.6920  -26.8720   22.5150 C   0  0  0  0  0  2  0  0  0  0  0  0
  -19.6020  -26.5620   21.4840 C   0  0  0  0  0  2  0  0  0  0  0  0
  -18.2130  -26.7010   22.1130 C   0  0  0  0  0  2  0  0  0  0  0  0
  -19.1430  -28.7970   23.2570 C   0  0  0  0  0  0  0  0  0  0  0  0
  -18.9200  -30.0540   23.8600 C   0  0  0  0  0  3  0  0  0  0  0  0
  -17.6140  -30.5560   24.0160 C   0  0  0  0  0  3  0  0  0  0  0  0
  -16.5130  -29.7970   23.5820 C   0  0  0  0  0  3  0  0  0  0  0  0
  -16.7230  -28.5420   22.9820 C   0  0  0  0  0  3  0  0  0  0  0  0
  -25.7950  -32.5400   23.8850 C   0  0  0  0  0  3  0  0  0  0  0  0
  -25.4700  -33.9370   24.1960 N   0  0  0  0  0  0  0  0  0  0  0  0
  -25.8120  -34.9840   23.4320 C   0  0  0  0  0  0  0  0  0  0  0  0
  -26.5060  -34.8760   22.4180 O   0  0  0  0  0  0  0  0  0  0  0  0
  -24.8550  -34.0950   24.9820 H   0  0  0  0  0  0  0  0  0  0  0  0
  -24.0920  -36.7650   23.0000 C   0  0  0  0  0  1  0  0  0  0  0  0
  -25.3010  -36.3710   23.8630 C   0  0  0  0  0  3  0  0  0  0  0  0
  -27.3880  -37.2770   24.7850 C   0  0  0  0  0  1  0  0  0  0  0  0
  -26.3330  -37.4280   23.7870 N   0  0  0  0  0  0  0  0  0  0  0  0
  -25.9160  -38.3480   23.9040 H   0  0  0  0  0  0  0  0  0  0  0  0
  -26.2920  -31.7790   25.1750 C   0  0  1  0  0  0  0  0  0  0  0  0
  -25.1770  -31.5310   26.2170 C   0  0  0  0  0  1  0  0  0  0  0  0
  -26.9010  -30.4080   24.7980 C   0  0  0  0  0  1  0  0  0  0  0  0
  -27.4180  -32.5900   25.8630 C   0  0  0  0  0  1  0  0  0  0  0  0
  1 54  1  0
  1  5  1  0
  1  2  1  0
  3  1  1  0
  5  4  1  0
  5  6  1  0
  6 12  1  0
  8 11  2  0
  9  7  2  0
 10 12  2  0
 10  8  1  0
 11  7  1  0
 11 13  1  0
 12  9  1  0
 13 15  1  0
 14 13  2  0
 16 24  1  0
 17 22  1  0
 18 19  1  0
 18 17  1  0
 20 19  1  0
 20 29  1  0
 20 21  1  0
 22 16  1  0
 22 21  1  0
 23 16  2  0
 24 15  1  0
 24 25  1  0
 26 27  2  0
 27 46  1  0
 28 27  1  0
 28 31  1  0
 29 26  1  0
 29 30  1  0
 30 28  2  0
 31 32  1  0
 32 33  2  0
 34 37  1  0
 34 33  1  0
 35 34  2  0
 36 35  1  0
 36 31  2  0
 37 38  1  0
 38 39  1  0
 39 40  2  0
 41 40  1  0
 41 45  1  0
 42 41  2  0
 43 38  2  0
 43 42  1  0
 44 43  1  0
 46 47  1  0
 47 50  1  0
 47 49  1  0
 48 46  2  0
 51 52  1  0
 51 26  1  0
 53 51  1  0
 54 55  1  0
 55 56  1  0
 56 57  1  0
 57 59  1  0
 57 60  1  0
 58 57  1  0
 60 61  1  0
 62 64  1  0
 62 61  1  0
 63 74  2  0
 64 69  1  0
 65 73  1  0
 65 75  1  0
 66 72  1  0
 66 68  1  0
 67 73  1  0
 68 69  2  0
 68 67  1  0
 70 64  2  0
 71 70  1  0
 71 66  2  0
 72 65  1  0
 73 63  1  0
 75 77  2  0
 76 75  1  0
 78 76  1  0
 79 88  2  0
 79 84  1  0
 80 76  1  0
 80 84  1  0
 81 80  1  0
 82 83  1  0
 82 81  1  0
 83 79  1  0
 84 85  2  0
 85 86  1  0
 87 86  2  0
 88 87  1  0
 89 63  1  0
 89 90  1  0
 89 99  1  0
 90 93  1  0
 91 95  1  0
 91 90  1  0
 92 91  2  0
 95 94  1  0
 97 95  1  0
 97 98  1  0
 97 96  1  0
 99102  1  1
 99100  1  0
101 99  1  0
M  ISO  4  16 100  24 100  61 101  62 101
M  END
>  <TORSDO>  (85) 
F 27

>  <SCORE>  (85) 
-11.664

>  <name>  (85) 
87

>  <ligand_id>  (85) 
87

>  <original_smiles>  (85) 
[H]c1c([H])c([H])c2c(c1[H])C([H])([H])C([H])([H])C([H])([H])C2([H])N([H])C(=O)C1([H])N(C(=O)C([H])(N([H])C(=O)C([H])(N([H])C([H])([H])[H])C([H])([H])[H])C(C([H])([H])[H])(C([H])([H])[H])C([H])([H])[H])C([H])([H])c2c([H])c(OC([H])([H])C([H])([H])[N+]([H])([H])C([H])([H])C([H])([H])C([H])([H])[N+]([H])([H])C([H])(C([H])([H])[H])C([H])([H])c3c([H])c([H])c(C(=O)C([H])([H])N([H])C(=O)N4C([H])([H])C([H])([H])C([H])([H])C([H])(n5nc(-c6c([H])c([H])c(Oc7c([H])c([H])c(F)c([H])c7F)c([H])c6[H])c(C(=O)N([H])[H])c5N([H])[H])C4([H])[H])c([H])c3[H])c([H])c([H])c2C1([H])[H]

>  <smiles>  (85) 
[H]c1c([H])c([H])c2c(c1[H])C([H])([H])C([H])([H])C([H])([H])C2([H])N([H])C(=O)C1([H])N(C(=O)C([H])(N([H])C(=O)C([H])(N([H])C([H])([H])[H])C([H])([H])[H])C(C([H])([H])[H])(C([H])([H])[H])C([H])([H])[H])C([H])([H])c2c([H])c(OC([H])([H])C([H])([H])[N+]([H])([H])C([H])([H])C([H])([H])C([H])([H])[N+]([H])([H])C([H])(C([H])([H])[H])C([H])([H])c3c([H])c([H])c(C(=O)C([H])([H])N([H])C(=O)N4C([H])([H])C([H])([H])C([H])([H])C([H])(n5nc(-c6c([H])c([H])c(Oc7c([H])c([H])c(F)c([H])c7F)c([H])c6[H])c(C(=O)N([H])[H])c5N([H])[H])C4([H])[H])c([H])c3[H])c([H])c([H])c2C1([H])[H]

$$$$
88:0:0
     RDKit          3D

 92 99  0  0  1  0  0  0  0  0999 V2000
  -28.5160  -23.7560   19.9260 C   0  0  0  0  0  3  0  0  0  0  0  0
  -29.3950  -24.0900   18.7920 N   0  0  0  0  0  4  0  0  0  0  0  0
  -30.2890  -24.4060   19.1310 H   0  0  0  0  0  0  0  0  0  0  0  0
  -28.9930  -24.8190   18.2310 H   0  0  0  0  0  0  0  0  0  0  0  0
  -29.5490  -23.2790   18.2170 H   0  0  0  0  0  0  0  0  0  0  0  0
  -29.1580  -22.4950   20.6650 C   0  0  0  0  0  0  0  0  0  0  0  0
  -28.9600  -21.1910   20.2470 N   0  0  0  0  0  0  0  0  0  0  0  0
  -29.9400  -22.7120   21.5920 O   0  0  0  0  0  0  0  0  0  0  0  0
  -28.2970  -21.0420   19.4970 H   0  0  0  0  0  0  0  0  0  0  0  0
  -29.7080  -19.9600   20.7480 C   0  0  0  0  0  2  0  0  0  0  0  0
  -29.2420  -18.4680   20.3560 C   0  0  0  0  0  3  0  0  0  0  0  0
  -30.2290  -17.2590   20.7710 C   0  0  0  0  0  3  0  0  0  0  0  0
  -30.5640  -14.6930   20.4010 C   0  0  0  0  0  0  0  0  0  0  0  0
  -30.3560  -12.4370   19.3620 C   0  0  0  0  0  2  0  0  0  0  0  0
  -29.4090  -12.5230   18.1450 C   0  0  0  0  0  2  0  0  0  0  0  0
  -27.9390  -12.3660   18.5800 C   0  0  0  0  0  2  0  0  0  0  0  0
  -27.5770  -13.2480   19.8050 C   0  0  0  0  0  3  0  0  0  0  0  0
  -28.6380  -13.1320   20.9200 C   0  0  0  0  0  2  0  0  0  0  0  0
  -29.9330  -13.4770   20.3230 N   0  0  0  0  0  0  0  0  0  0  0  0
  -31.7480  -14.8090   20.0710 O   0  0  0  0  0  0  0  0  0  0  0  0
  -29.7910  -15.8080   20.6550 N   0  0  0  0  0  0  0  0  0  0  0  0
  -28.8200  -15.6170   20.8530 H   0  0  0  0  0  0  0  0  0  0  0  0
  -25.1890  -13.8470   20.5320 C   0  0  0  0  0  0  0  0  0  0  0  0
  -24.1230  -13.0740   20.9050 C   0  0  0  0  0  0  0  0  0  0  0  0
  -24.5870  -11.7220   20.8760 C   0  0  0  0  0  0  0  0  0  0  0  0
  -26.2330  -12.9650   20.2980 N   0  0  0  0  0  0  0  0  0  0  0  0
  -25.8770  -11.6830   20.5670 N   0  0  0  0  0  0  0  0  0  0  0  0
  -23.8610  -10.4590   21.0690 C   0  0  0  0  0  0  0  0  0  0  0  0
  -24.3060   -9.4820   21.9870 C   0  0  0  0  0  3  0  0  0  0  0  0
  -23.5800   -8.2860   22.1690 C   0  0  0  0  0  3  0  0  0  0  0  0
  -22.3950   -8.0580   21.4310 C   0  0  0  0  0  0  0  0  0  0  0  0
  -21.9680   -9.0210   20.5010 C   0  0  0  0  0  3  0  0  0  0  0  0
  -22.6950  -10.2100   20.3180 C   0  0  0  0  0  3  0  0  0  0  0  0
  -21.6400   -6.9130   21.5220 O   0  0  0  0  0  0  0  0  0  0  0  0
  -21.6210   -6.1530   22.6620 C   0  0  0  0  0  0  0  0  0  0  0  0
  -21.2410   -6.6920   23.9110 C   0  0  0  0  0  3  0  0  0  0  0  0
  -21.1660   -5.8580   25.0450 C   0  0  0  0  0  3  0  0  0  0  0  0
  -21.4640   -4.4860   24.9320 C   0  0  0  0  0  0  0  0  0  0  0  0
  -21.8370   -3.9480   23.6880 C   0  0  0  0  0  3  0  0  0  0  0  0
  -21.9110   -4.7780   22.5560 C   0  0  0  0  0  0  0  0  0  0  0  0
  -22.2510   -4.2490   21.3560 F   0  0  0  0  0  0  0  0  0  0  0  0
  -21.3840   -3.6830   26.0180 F   0  0  0  0  0  0  0  0  0  0  0  0
  -22.7260  -13.5490   21.1770 C   0  0  0  0  0  0  0  0  0  0  0  0
  -22.0020  -12.8540   22.0480 N   0  0  0  0  0  0  0  0  0  0  0  0
  -22.2870  -14.5730   20.6550 O   0  0  0  0  0  0  0  0  0  0  0  0
  -22.3730  -12.0250   22.4870 H   0  0  0  0  0  0  0  0  0  0  0  0
  -21.0650  -13.1540   22.2770 H   0  0  0  0  0  0  0  0  0  0  0  0
  -25.3520  -15.2170   20.3480 N   0  0  0  0  0  0  0  0  0  0  0  0
  -24.5810  -15.8680   20.4530 H   0  0  0  0  0  0  0  0  0  0  0  0
  -26.1900  -15.6520   19.9820 H   0  0  0  0  0  0  0  0  0  0  0  0
  -28.2430  -25.1010   20.7780 C   0  0  0  0  0  2  0  0  0  0  0  0
  -28.3410  -26.4600   20.1600 O   0  0  0  0  0  0  0  0  0  0  0  0
  -24.6190  -31.8720   23.2260 C   0  0  0  0  0  0  0  0  0  0  0  0
  -27.2190  -27.3030   20.1730 C   0  0  0  0  0  0  0  0  0  0  0  0
  -23.4090  -30.4720   21.5910 C   0  0  0  0  0  3  0  0  0  0  0  0
  -24.8530  -28.9120   20.1640 C   0  0  0  0  0  0  0  0  0  0  0  0
  -25.9480  -30.7890   21.3930 C   0  0  0  0  0  2  0  0  0  0  0  0
  -26.0260  -29.4080   20.7510 C   0  0  0  0  0  0  0  0  0  0  0  0
  -27.2160  -28.6190   20.7350 C   0  0  0  0  0  3  0  0  0  0  0  0
  -26.0250  -26.8540   19.5720 C   0  0  0  0  0  3  0  0  0  0  0  0
  -24.8560  -27.6420   19.5630 C   0  0  0  0  0  3  0  0  0  0  0  0
  -23.6170  -29.7900   20.2120 C   0  0  0  0  0  2  0  0  0  0  0  0
  -24.6780  -31.0620   22.1270 N   0  0  0  0  0  0  0  0  0  0  0  0
  -23.5370  -32.1480   23.7650 O   0  0  0  0  0  0  0  0  0  0  0  0
  -22.7510  -29.4580   22.5550 C   0  0  0  0  0  0  0  0  0  0  0  0
  -21.4250  -29.2810   22.4310 N   0  0  0  0  0  0  0  0  0  0  0  0
  -23.4310  -28.8320   23.3720 O   0  0  0  0  0  0  0  0  0  0  0  0
  -20.9370  -29.8350   21.7410 H   0  0  0  0  0  0  0  0  0  0  0  0
  -18.0510  -28.0760   22.9390 C   0  0  0  0  0  0  0  0  0  0  0  0
  -20.6090  -28.3430   23.2040 C   0  0  0  0  0  3  0  0  0  0  0  0
  -20.7130  -26.9110   22.6320 C   0  0  0  0  0  2  0  0  0  0  0  0
  -19.6100  -26.5820   21.6200 C   0  0  0  0  0  2  0  0  0  0  0  0
  -18.2290  -26.7250   22.2650 C   0  0  0  0  0  2  0  0  0  0  0  0
  -19.1680  -28.8420   23.3640 C   0  0  0  0  0  0  0  0  0  0  0  0
  -18.9470  -30.1060   23.9550 C   0  0  0  0  0  3  0  0  0  0  0  0
  -17.6400  -30.6030   24.1220 C   0  0  0  0  0  3  0  0  0  0  0  0
  -16.5380  -29.8350   23.7110 C   0  0  0  0  0  3  0  0  0  0  0  0
  -16.7430  -28.5740   23.1260 C   0  0  0  0  0  3  0  0  0  0  0  0
  -25.9030  -32.5040   23.8440 C   0  0  0  0  0  3  0  0  0  0  0  0
  -25.5940  -33.9020   24.1790 N   0  0  0  0  0  0  0  0  0  0  0  0
  -25.9170  -34.9570   23.4200 C   0  0  0  0  0  0  0  0  0  0  0  0
  -26.5790  -34.8560   22.3830 O   0  0  0  0  0  0  0  0  0  0  0  0
  -25.0060  -34.0550   24.9850 H   0  0  0  0  0  0  0  0  0  0  0  0
  -24.1810  -36.7470   23.0870 C   0  0  0  0  0  1  0  0  0  0  0  0
  -25.4320  -36.3440   23.8840 C   0  0  0  0  0  3  0  0  0  0  0  0
  -27.5760  -37.2300   24.6910 C   0  0  0  0  0  1  0  0  0  0  0  0
  -26.4620  -37.4000   23.7620 N   0  0  0  0  0  0  0  0  0  0  0  0
  -26.0560  -38.3180   23.9150 H   0  0  0  0  0  0  0  0  0  0  0  0
  -26.4240  -31.7340   25.1210 C   0  0  1  0  0  0  0  0  0  0  0  0
  -25.3340  -31.4980   26.1930 C   0  0  0  0  0  1  0  0  0  0  0  0
  -27.0050  -30.3550   24.7290 C   0  0  0  0  0  1  0  0  0  0  0  0
  -27.5780  -32.5290   25.7760 C   0  0  0  0  0  1  0  0  0  0  0  0
  1  6  1  0
  1 51  1  0
  2  3  1  0
  2  1  1  0
  4  2  1  0
  5  2  1  0
  6  8  2  0
  7  6  1  0
  7 10  1  0
  9  7  1  0
 11 10  1  0
 11 12  2  0
 13 21  1  0
 14 19  1  0
 15 16  1  0
 15 14  1  0
 17 16  1  0
 17 26  1  0
 17 18  1  0
 19 13  1  0
 19 18  1  0
 20 13  2  0
 21 12  1  0
 21 22  1  0
 23 24  2  0
 24 43  1  0
 25 24  1  0
 25 28  1  0
 26 23  1  0
 26 27  1  0
 27 25  2  0
 28 29  1  0
 29 30  2  0
 31 34  1  0
 31 30  1  0
 32 31  2  0
 33 32  1  0
 33 28  2  0
 34 35  1  0
 35 36  1  0
 36 37  2  0
 38 37  1  0
 38 42  1  0
 39 38  2  0
 40 35  2  0
 40 39  1  0
 41 40  1  0
 43 44  1  0
 44 47  1  0
 44 46  1  0
 45 43  2  0
 48 49  1  0
 48 23  1  0
 50 48  1  0
 52 54  1  0
 52 51  1  0
 53 64  2  0
 54 59  1  0
 55 63  1  0
 55 65  1  0
 56 62  1  0
 56 58  1  0
 57 63  1  0
 58 57  1  0
 59 58  2  0
 60 54  2  0
 61 60  1  0
 61 56  2  0
 62 55  1  0
 63 53  1  0
 65 67  2  0
 66 65  1  0
 68 66  1  0
 69 78  2  0
 69 74  1  0
 70 66  1  0
 70 74  1  0
 71 70  1  0
 72 73  1  0
 72 71  1  0
 73 69  1  0
 74 75  2  0
 75 76  1  0
 77 76  2  0
 78 77  1  0
 79 53  1  0
 79 80  1  0
 79 89  1  0
 80 83  1  0
 81 85  1  0
 81 80  1  0
 82 81  2  0
 85 84  1  0
 87 85  1  0
 87 88  1  0
 87 86  1  0
 89 92  1  1
 89 90  1  0
 91 89  1  0
M  ISO  4  13 100  21 100  51 101  52 101
M  END
>  <TORSDO>  (86) 
F 22

>  <SCORE>  (86) 
-13.178

>  <name>  (86) 
88

>  <ligand_id>  (86) 
88

>  <original_smiles>  (86) 
[H]c1c([H])c([H])c2c(c1[H])C([H])([H])C([H])([H])C([H])([H])C2([H])N([H])C(=O)C1([H])N(C(=O)C([H])(N([H])C(=O)C([H])(N([H])C([H])([H])[H])C([H])([H])[H])C(C([H])([H])[H])(C([H])([H])[H])C([H])([H])[H])C([H])([H])c2c([H])c(OC([H])([H])C([H])(C(=O)N([H])C([H])([H])C([H])([H])C([H])([H])N([H])C(=O)N3C([H])([H])C([H])([H])C([H])([H])C([H])(n4nc(-c5c([H])c([H])c(Oc6c([H])c([H])c(F)c([H])c6F)c([H])c5[H])c(C(=O)N([H])[H])c4N([H])[H])C3([H])[H])[N+]([H])([H])[H])c([H])c([H])c2C1([H])[H]

>  <smiles>  (86) 
[H]c1c([H])c([H])c2c(c1[H])C([H])([H])C([H])([H])C([H])([H])C2([H])N([H])C(=O)C1([H])N(C(=O)C([H])(N([H])C(=O)C([H])(N([H])C([H])([H])[H])C([H])([H])[H])C(C([H])([H])[H])(C([H])([H])[H])C([H])([H])[H])C([H])([H])c2c([H])c(OC([H])([H])C([H])(C(=O)N([H])C([H])([H])C([H])([H])C([H])([H])N([H])C(=O)N3C([H])([H])C([H])([H])C([H])([H])C([H])(n4nc(-c5c([H])c([H])c(Oc6c([H])c([H])c(F)c([H])c6F)c([H])c5[H])c(C(=O)N([H])[H])c4N([H])[H])C3([H])[H])[N+]([H])([H])[H])c([H])c([H])c2C1([H])[H]

$$$$
89:0:0
     RDKit          3D

102110  0  0  1  0  0  0  0  0999 V2000
  -25.8180  -21.2160   19.6310 C   0  0  0  0  0  0  0  0  0  0  0  0
  -24.5640  -21.4170   19.2090 N   0  0  0  0  0  0  0  0  0  0  0  0
  -26.3920  -22.0090   20.3790 O   0  0  0  0  0  0  0  0  0  0  0  0
  -24.1460  -20.7120   18.6160 H   0  0  0  0  0  0  0  0  0  0  0  0
  -26.5170  -19.9280   19.1730 C   0  0  0  0  0  2  0  0  0  0  0  0
  -27.5910  -20.1560   18.0720 C   0  0  0  0  0  2  0  0  0  0  0  0
  -29.7420  -22.5060   18.3380 C   0  0  0  0  0  2  0  0  0  0  0  0
  -30.2670  -21.7260   19.5460 C   0  0  0  0  0  2  0  0  0  0  0  0
  -29.9900  -21.7390   17.0170 C   0  0  0  0  0  2  0  0  0  0  0  0
  -29.6960  -20.2930   19.6600 C   0  0  0  0  0  2  0  0  0  0  0  0
  -29.9650  -20.2000   17.1790 C   0  0  0  0  0  2  0  0  0  0  0  0
  -29.0750  -19.6980   18.3480 C   0  0  2  0  0  0  0  0  0  0  0  0
  -29.0850  -18.1320   18.3860 C   0  0  0  0  0  2  0  0  0  0  0  0
  -30.0740  -17.4290   19.3680 C   0  0  0  0  0  2  0  0  0  0  0  0
  -31.5830  -15.4400   19.3090 C   0  0  0  0  0  0  0  0  0  0  0  0
  -31.4260  -13.0020   19.1670 C   0  0  0  0  0  2  0  0  0  0  0  0
  -30.5230  -12.6780   17.9600 C   0  0  0  0  0  2  0  0  0  0  0  0
  -29.0380  -12.6590   18.3750 C   0  0  0  0  0  2  0  0  0  0  0  0
  -28.6230  -13.9070   19.2010 C   0  0  0  0  0  3  0  0  0  0  0  0
  -29.6490  -14.1840   20.3230 C   0  0  0  0  0  2  0  0  0  0  0  0
  -30.9720  -14.2930   19.6960 N   0  0  0  0  0  0  0  0  0  0  0  0
  -32.7700  -15.4970   18.9900 O   0  0  0  0  0  0  0  0  0  0  0  0
  -30.7640  -16.3220   18.7130 N   0  0  0  0  0  0  0  0  0  0  0  0
  -31.1950  -16.6370   17.8550 H   0  0  0  0  0  0  0  0  0  0  0  0
  -26.3140  -14.7700   19.9300 C   0  0  0  0  0  0  0  0  0  0  0  0
  -25.1800  -14.1180   20.3380 C   0  0  0  0  0  0  0  0  0  0  0  0
  -25.5070  -12.7270   20.3400 C   0  0  0  0  0  0  0  0  0  0  0  0
  -27.2620  -13.7830   19.7140 N   0  0  0  0  0  0  0  0  0  0  0  0
  -26.7810  -12.5500   20.0150 N   0  0  0  0  0  0  0  0  0  0  0  0
  -24.6660  -11.5480   20.5810 C   0  0  0  0  0  0  0  0  0  0  0  0
  -25.0130  -10.5770   21.5450 C   0  0  0  0  0  3  0  0  0  0  0  0
  -24.1800   -9.4610   21.7720 C   0  0  0  0  0  3  0  0  0  0  0  0
  -22.9850   -9.3060   21.0300 C   0  0  0  0  0  0  0  0  0  0  0  0
  -22.6540  -10.2650   20.0540 C   0  0  0  0  0  3  0  0  0  0  0  0
  -23.4880  -11.3720   19.8300 C   0  0  0  0  0  3  0  0  0  0  0  0
  -22.1260   -8.2420   21.1630 O   0  0  0  0  0  0  0  0  0  0  0  0
  -21.9410   -7.6150   22.3680 C   0  0  0  0  0  0  0  0  0  0  0  0
  -21.5220   -8.3190   23.5190 C   0  0  0  0  0  3  0  0  0  0  0  0
  -21.2780   -7.6220   24.7200 C   0  0  0  0  0  3  0  0  0  0  0  0
  -21.4430   -6.2250   24.7700 C   0  0  0  0  0  0  0  0  0  0  0  0
  -21.8520   -5.5220   23.6230 C   0  0  0  0  0  3  0  0  0  0  0  0
  -22.0990   -6.2150   22.4250 C   0  0  0  0  0  0  0  0  0  0  0  0
  -22.4750   -5.5310   21.3180 F   0  0  0  0  0  0  0  0  0  0  0  0
  -21.1980   -5.5550   25.9190 F   0  0  0  0  0  0  0  0  0  0  0  0
  -23.8430  -14.7390   20.6170 C   0  0  0  0  0  0  0  0  0  0  0  0
  -23.0910  -14.1750   21.5560 N   0  0  0  0  0  0  0  0  0  0  0  0
  -23.4760  -15.7590   20.0360 O   0  0  0  0  0  0  0  0  0  0  0  0
  -23.4000  -13.3500   22.0470 H   0  0  0  0  0  0  0  0  0  0  0  0
  -22.1940  -14.5760   21.7860 H   0  0  0  0  0  0  0  0  0  0  0  0
  -26.6070  -16.1100   19.7060 N   0  0  0  0  0  0  0  0  0  0  0  0
  -25.9090  -16.8390   19.8050 H   0  0  0  0  0  0  0  0  0  0  0  0
  -27.4990  -16.4500   19.3740 H   0  0  0  0  0  0  0  0  0  0  0  0
  -23.7000  -22.5350   19.5980 C   0  0  0  0  0  2  0  0  0  0  0  0
  -24.2850  -23.9030   19.1960 C   0  0  0  0  0  2  0  0  0  0  0  0
  -24.6460  -24.0230   17.7000 C   0  0  0  0  0  2  0  0  0  0  0  0
  -25.5070  -25.2590   17.3760 C   0  0  0  0  0  2  0  0  0  0  0  0
  -26.8790  -25.1380   17.9320 N   0  0  0  0  0  4  0  0  0  0  0  0
  -27.4360  -24.6230   17.2650 H   0  0  0  0  0  0  0  0  0  0  0  0
  -26.8370  -24.5700   18.7650 H   0  0  0  0  0  0  0  0  0  0  0  0
  -27.5680  -26.4170   18.2540 C   0  0  0  0  0  2  0  0  0  0  0  0
  -28.2430  -26.3870   19.6450 C   0  0  0  0  0  2  0  0  0  0  0  0
  -28.4960  -27.7060   20.1580 O   0  0  0  0  0  0  0  0  0  0  0  0
  -27.6310  -32.6170   25.2540 C   0  0  0  0  0  0  0  0  0  0  0  0
  -27.6870  -28.1850   21.1710 C   0  0  0  0  0  0  0  0  0  0  0  0
  -26.0380  -30.7290   25.2850 C   0  0  0  0  0  3  0  0  0  0  0  0
  -26.0500  -29.2290   23.2350 C   0  0  0  0  0  0  0  0  0  0  0  0
  -27.1310  -31.4780   23.0980 C   0  0  0  0  0  2  0  0  0  0  0  0
  -27.0120  -30.0430   22.6230 C   0  0  0  0  0  0  0  0  0  0  0  0
  -27.8290  -29.5270   21.5930 C   0  0  0  0  0  3  0  0  0  0  0  0
  -26.7060  -27.3850   21.8030 C   0  0  0  0  0  3  0  0  0  0  0  0
  -25.8960  -27.8950   22.8300 C   0  0  0  0  0  3  0  0  0  0  0  0
  -25.2030  -29.8490   24.3190 C   0  0  0  0  0  2  0  0  0  0  0  0
  -26.9880  -31.6370   24.5620 N   0  0  0  0  0  0  0  0  0  0  0  0
  -27.4170  -32.7950   26.4600 O   0  0  0  0  0  0  0  0  0  0  0  0
  -26.7280  -29.8160   26.3190 C   0  0  0  0  0  0  0  0  0  0  0  0
  -26.1620  -29.7530   27.5370 N   0  0  0  0  0  0  0  0  0  0  0  0
  -27.7330  -29.1680   26.0160 O   0  0  0  0  0  0  0  0  0  0  0  0
  -25.3490  -30.3270   27.7130 H   0  0  0  0  0  0  0  0  0  0  0  0
  -25.8240  -29.2200   31.0930 C   0  0  0  0  0  0  0  0  0  0  0  0
  -26.6170  -28.9250   28.6510 C   0  0  0  0  0  3  0  0  0  0  0  0
  -25.8790  -27.5670   28.6800 C   0  0  0  0  0  2  0  0  0  0  0  0
  -24.6400  -27.5700   29.5830 C   0  0  0  0  0  2  0  0  0  0  0  0
  -25.0250  -27.9290   31.0230 C   0  0  0  0  0  2  0  0  0  0  0  0
  -26.5610  -29.6930   29.9770 C   0  0  0  0  0  0  0  0  0  0  0  0
  -27.2640  -30.9150   30.0850 C   0  0  0  0  0  3  0  0  0  0  0  0
  -27.2460  -31.6520   31.2830 C   0  0  0  0  0  3  0  0  0  0  0  0
  -26.5230  -31.1720   32.3910 C   0  0  0  0  0  3  0  0  0  0  0  0
  -25.8180  -29.9590   32.2970 C   0  0  0  0  0  3  0  0  0  0  0  0
  -28.6460  -33.5760   24.5580 C   0  0  0  0  0  3  0  0  0  0  0  0
  -28.2270  -34.9540   24.8530 N   0  0  0  0  0  0  0  0  0  0  0  0
  -27.5850  -35.7510   23.9910 C   0  0  0  0  0  0  0  0  0  0  0  0
  -27.3380  -35.4250   22.8270 O   0  0  0  0  0  0  0  0  0  0  0  0
  -28.3460  -35.2740   25.8050 H   0  0  0  0  0  0  0  0  0  0  0  0
  -25.6380  -37.0990   24.8380 C   0  0  0  0  0  1  0  0  0  0  0  0
  -27.1390  -37.1330   24.5050 C   0  0  0  0  0  3  0  0  0  0  0  0
  -28.8380  -38.5260   23.4170 C   0  0  0  0  0  1  0  0  0  0  0  0
  -27.4150  -38.2300   23.5540 N   0  0  0  0  0  0  0  0  0  0  0  0
  -26.9340  -39.0810   23.8360 H   0  0  0  0  0  0  0  0  0  0  0  0
  -30.1380  -33.3330   25.0070 C   0  0  1  0  0  0  0  0  0  0  0  0
  -30.3490  -33.3720   26.5380 C   0  0  0  0  0  1  0  0  0  0  0  0
  -30.6450  -31.9660   24.4980 C   0  0  0  0  0  1  0  0  0  0  0  0
  -31.0550  -34.4050   24.3720 C   0  0  0  0  0  1  0  0  0  0  0  0
  1  3  2  0
  2 53  1  0
  2  1  1  0
  4  2  1  0
  5  1  1  0
 12  6  1  6
  6  5  1  0
  7  8  1  0
  8 10  1  0
  9 11  1  0
  9  7  1  0
 11 12  1  0
 12 13  1  0
 12 10  1  0
 13 14  1  0
 15 21  1  0
 16 21  1  0
 17 18  1  0
 17 16  1  0
 19 18  1  0
 19 28  1  0
 19 20  1  0
 21 20  1  0
 22 15  2  0
 23 15  1  0
 23 14  1  0
 24 23  1  0
 25 26  2  0
 26 27  1  0
 26 45  1  0
 27 30  1  0
 28 25  1  0
 28 29  1  0
 29 27  2  0
 30 31  1  0
 31 32  2  0
 33 36  1  0
 33 32  1  0
 34 33  2  0
 35 34  1  0
 35 30  2  0
 36 37  1  0
 37 42  2  0
 37 38  1  0
 38 39  2  0
 39 40  1  0
 40 44  1  0
 41 40  2  0
 42 41  1  0
 43 42  1  0
 45 46  1  0
 46 49  1  0
 46 48  1  0
 47 45  2  0
 50 51  1  0
 50 25  1  0
 52 50  1  0
 54 53  1  0
 55 54  1  0
 56 55  1  0
 56 57  1  0
 57 60  1  0
 57 59  1  0
 58 57  1  0
 60 61  1  0
 61 62  1  0
 62 64  1  0
 63 74  2  0
 64 69  2  0
 64 70  1  0
 65 75  1  0
 66 72  1  0
 67 73  1  0
 68 67  1  0
 68 66  2  0
 69 68  1  0
 70 71  2  0
 71 66  1  0
 72 65  1  0
 73 63  1  0
 73 65  1  0
 75 76  1  0
 76 78  1  0
 77 75  2  0
 79 88  1  0
 80 76  1  0
 80 81  1  0
 80 84  1  0
 81 82  1  0
 82 83  1  0
 83 79  1  0
 84 85  1  0
 84 79  2  0
 85 86  2  0
 86 87  1  0
 88 87  2  0
 89 90  1  0
 89 99  1  0
 89 63  1  0
 90 93  1  0
 91 95  1  0
 91 90  1  0
 92 91  2  0
 95 94  1  0
 96 97  1  0
 97 98  1  0
 97 95  1  0
 99100  1  1
101 99  1  0
102 99  1  0
M  ISO  4  15 100  23 100  61 101  62 101
M  END
>  <TORSDO>  (87) 
F 28

>  <SCORE>  (87) 
-6.269

>  <name>  (87) 
89

>  <ligand_id>  (87) 
89

>  <original_smiles>  (87) 
[H]c1c([H])c([H])c2c(c1[H])C([H])([H])C([H])([H])C([H])([H])C2([H])N([H])C(=O)C1([H])N(C(=O)C([H])(N([H])C(=O)C([H])(N([H])C([H])([H])[H])C([H])([H])[H])C(C([H])([H])[H])(C([H])([H])[H])C([H])([H])[H])C([H])([H])c2c([H])c(OC([H])([H])C([H])([H])[N+]([H])([H])C([H])([H])C([H])([H])C([H])([H])C([H])([H])N([H])C(=O)C([H])([H])C([H])([H])C3(C([H])([H])C([H])([H])N([H])C(=O)N4C([H])([H])C([H])([H])C([H])([H])C([H])(n5nc(-c6c([H])c([H])c(Oc7c([H])c([H])c(F)c([H])c7F)c([H])c6[H])c(C(=O)N([H])[H])c5N([H])[H])C4([H])[H])C([H])([H])C([H])([H])C([H])([H])C([H])([H])C3([H])[H])c([H])c([H])c2C1([H])[H]

>  <smiles>  (87) 
[H]c1c([H])c([H])c2c(c1[H])C([H])([H])C([H])([H])C([H])([H])C2([H])N([H])C(=O)C1([H])N(C(=O)C([H])(N([H])C(=O)C([H])(N([H])C([H])([H])[H])C([H])([H])[H])C(C([H])([H])[H])(C([H])([H])[H])C([H])([H])[H])C([H])([H])c2c([H])c(OC([H])([H])C([H])([H])[N+]([H])([H])C([H])([H])C([H])([H])C([H])([H])C([H])([H])N([H])C(=O)C([H])([H])C([H])([H])C3(C([H])([H])C([H])([H])N([H])C(=O)N4C([H])([H])C([H])([H])C([H])([H])C([H])(n5nc(-c6c([H])c([H])c(Oc7c([H])c([H])c(F)c([H])c7F)c([H])c6[H])c(C(=O)N([H])[H])c5N([H])[H])C4([H])[H])C([H])([H])C([H])([H])C([H])([H])C([H])([H])C3([H])[H])c([H])c([H])c2C1([H])[H]

$$$$
90:0:0
     RDKit          3D

103111  0  0  1  0  0  0  0  0999 V2000
  -29.0680  -21.6500   19.2870 C   0  0  0  0  0  3  0  0  0  0  0  0
  -29.4690  -22.8060   21.3950 C   0  0  0  0  0  3  0  0  0  0  0  0
  -27.7460  -22.1160   19.2760 C   0  0  0  0  0  3  0  0  0  0  0  0
  -28.1500  -23.3100   21.3550 C   0  0  0  0  0  3  0  0  0  0  0  0
  -29.9600  -22.0400   20.3110 C   0  0  0  0  0  0  0  0  0  0  0  0
  -27.2940  -23.0120   20.2710 C   0  0  0  0  0  0  0  0  0  0  0  0
  -25.9670  -23.7050   20.1210 C   0  0  0  0  0  0  0  0  0  0  0  0
  -25.9420  -24.5530   19.0900 N   0  0  0  0  0  0  0  0  0  0  0  0
  -25.0730  -23.6110   20.9620 O   0  0  0  0  0  0  0  0  0  0  0  0
  -26.7220  -24.4470   18.4590 H   0  0  0  0  0  0  0  0  0  0  0  0
  -25.2140  -25.8070   18.9730 C   0  0  0  0  0  2  0  0  0  0  0  0
  -26.2470  -26.9440   18.7810 C   0  0  0  0  0  2  0  0  0  0  0  0
  -26.2790  -27.6070   17.3730 C   0  0  0  0  0  2  0  0  0  0  0  0
  -25.7330  -28.9230   17.3330 O   0  0  0  0  0  0  0  0  0  0  0  0
  -25.5840  -29.1080   24.3850 C   0  0  0  0  0  0  0  0  0  0  0  0
  -24.9890  -29.2520   18.4330 C   0  0  0  0  0  0  0  0  0  0  0  0
  -23.3920  -29.3810   23.2600 C   0  0  0  0  0  3  0  0  0  0  0  0
  -23.4850  -29.7950   20.7420 C   0  0  0  0  0  0  0  0  0  0  0  0
  -25.5520  -30.1250   22.1170 C   0  0  0  0  0  2  0  0  0  0  0  0
  -24.8850  -29.8090   20.7990 C   0  0  0  0  0  0  0  0  0  0  0  0
  -25.6460  -29.5350   19.6460 C   0  0  0  0  0  3  0  0  0  0  0  0
  -23.5800  -29.2650   18.3720 C   0  0  0  0  0  3  0  0  0  0  0  0
  -22.8250  -29.5330   19.5280 C   0  0  0  0  0  3  0  0  0  0  0  0
  -22.7480  -30.0810   22.0310 C   0  0  0  0  0  2  0  0  0  0  0  0
  -24.8870  -29.5010   23.2810 N   0  0  0  0  0  0  0  0  0  0  0  0
  -25.0020  -28.6930   25.3960 O   0  0  0  0  0  0  0  0  0  0  0  0
  -22.9000  -27.9180   23.3060 C   0  0  0  0  0  0  0  0  0  0  0  0
  -21.6110  -27.7150   22.9840 N   0  0  0  0  0  0  0  0  0  0  0  0
  -23.6690  -26.9990   23.5990 O   0  0  0  0  0  0  0  0  0  0  0  0
  -21.0440  -28.5190   22.7550 H   0  0  0  0  0  0  0  0  0  0  0  0
  -18.9050  -25.9330   21.4030 C   0  0  0  0  0  0  0  0  0  0  0  0
  -20.9370  -26.4200   22.9230 C   0  0  0  0  0  3  0  0  0  0  0  0
  -21.7200  -25.4340   22.0250 C   0  0  0  0  0  2  0  0  0  0  0  0
  -21.2420  -25.4390   20.5700 C   0  0  0  0  0  2  0  0  0  0  0  0
  -19.7570  -25.0710   20.4880 C   0  0  0  0  0  2  0  0  0  0  0  0
  -19.4620  -26.5780   22.5370 C   0  0  0  0  0  0  0  0  0  0  0  0
  -18.6330  -27.4030   23.3330 C   0  0  0  0  0  3  0  0  0  0  0  0
  -17.2720  -27.5750   23.0170 C   0  0  0  0  0  3  0  0  0  0  0  0
  -16.7210  -26.9160   21.9060 C   0  0  0  0  0  3  0  0  0  0  0  0
  -17.5350  -26.0980   21.1020 C   0  0  0  0  0  3  0  0  0  0  0  0
  -27.1420  -29.1850   24.4360 C   0  0  0  0  0  3  0  0  0  0  0  0
  -27.5010  -30.2110   25.4230 N   0  0  0  0  0  0  0  0  0  0  0  0
  -28.0670  -31.3870   25.1260 C   0  0  0  0  0  0  0  0  0  0  0  0
  -28.4120  -31.6970   23.9830 O   0  0  0  0  0  0  0  0  0  0  0  0
  -27.1990  -30.0520   26.3730 H   0  0  0  0  0  0  0  0  0  0  0  0
  -27.2580  -33.5200   26.1840 C   0  0  0  0  0  1  0  0  0  0  0  0
  -28.2860  -32.3810   26.2830 C   0  0  0  0  0  3  0  0  0  0  0  0
  -30.6690  -31.9610   26.6910 C   0  0  0  0  0  1  0  0  0  0  0  0
  -29.6520  -32.9440   26.3280 N   0  0  0  0  0  0  0  0  0  0  0  0
  -29.7010  -33.7110   26.9940 H   0  0  0  0  0  0  0  0  0  0  0  0
  -27.8220  -27.8040   24.7840 C   0  0  1  0  0  0  0  0  0  0  0  0
  -27.2530  -27.1370   26.0560 C   0  0  0  0  0  1  0  0  0  0  0  0
  -27.6580  -26.8050   23.6130 C   0  0  0  0  0  1  0  0  0  0  0  0
  -29.3400  -28.0040   24.9930 C   0  0  0  0  0  1  0  0  0  0  0  0
  -31.4110  -21.7250   20.1830 C   0  0  0  0  0  0  0  0  0  0  0  0
  -31.9180  -20.6600   20.5490 O   0  0  0  0  0  0  0  0  0  0  0  0
  -32.2720  -22.8770   19.5860 C   0  0  0  0  0  0  0  0  0  0  0  0
  -32.4990  -22.7020   18.2760 N   0  0  0  0  0  0  0  0  0  0  0  0
  -32.6150  -23.8750   20.2290 O   0  0  0  0  0  0  0  0  0  0  0  0
  -32.2150  -21.8140   17.8820 H   0  0  0  0  0  0  0  0  0  0  0  0
  -33.0100  -23.7020   17.3450 C   0  0  0  0  0  2  0  0  0  0  0  0
  -33.2440  -23.0760   15.9510 C   0  0  0  0  0  2  0  0  0  0  0  0
  -33.8020  -21.6300   15.9350 C   0  0  0  0  0  2  0  0  0  0  0  0
  -35.3050  -21.4940   16.2220 C   0  0  0  0  0  2  0  0  0  0  0  0
  -35.7460  -21.8550   17.6470 C   0  0  0  0  0  2  0  0  0  0  0  0
  -35.5490  -20.8980   19.8850 C   0  0  0  0  0  0  0  0  0  0  0  0
  -36.5380  -18.7110   19.7860 C   0  0  0  0  0  2  0  0  0  0  0  0
  -36.1970  -18.1720   18.3770 C   0  0  0  0  0  2  0  0  0  0  0  0
  -34.8210  -17.4730   18.3620 C   0  0  0  0  0  2  0  0  0  0  0  0
  -33.6950  -18.2530   19.0970 C   0  0  0  0  0  3  0  0  0  0  0  0
  -34.1940  -18.8520   20.4350 C   0  0  0  0  0  2  0  0  0  0  0  0
  -35.4400  -19.5870   20.1870 N   0  0  0  0  0  0  0  0  0  0  0  0
  -36.4800  -21.6190   20.2340 O   0  0  0  0  0  0  0  0  0  0  0  0
  -34.9880  -21.1540   18.6950 N   0  0  0  0  0  0  0  0  0  0  0  0
  -34.3260  -20.4620   18.3820 H   0  0  0  0  0  0  0  0  0  0  0  0
  -31.1670  -17.7830   19.1510 C   0  0  0  0  0  0  0  0  0  0  0  0
  -30.4490  -16.6240   19.2910 C   0  0  0  0  0  0  0  0  0  0  0  0
  -31.4160  -15.5890   19.4820 C   0  0  0  0  0  0  0  0  0  0  0  0
  -32.5010  -17.4250   19.2620 N   0  0  0  0  0  0  0  0  0  0  0  0
  -32.6400  -16.1000   19.5280 N   0  0  0  0  0  0  0  0  0  0  0  0
  -31.2460  -14.1310   19.5710 C   0  0  0  0  0  0  0  0  0  0  0  0
  -31.2320  -13.4620   20.8150 C   0  0  0  0  0  3  0  0  0  0  0  0
  -31.0460  -12.0620   20.8720 C   0  0  0  0  0  3  0  0  0  0  0  0
  -30.8700  -11.3200   19.6800 C   0  0  0  0  0  0  0  0  0  0  0  0
  -30.9080  -11.9870   18.4440 C   0  0  0  0  0  3  0  0  0  0  0  0
  -31.0970  -13.3780   18.3890 C   0  0  0  0  0  3  0  0  0  0  0  0
  -30.7010   -9.9580   19.6390 O   0  0  0  0  0  0  0  0  0  0  0  0
  -29.6750   -9.3380   20.3020 C   0  0  0  0  0  0  0  0  0  0  0  0
  -28.3290   -9.5000   19.9060 C   0  0  0  0  0  3  0  0  0  0  0  0
  -27.3110   -8.7900   20.5700 C   0  0  0  0  0  3  0  0  0  0  0  0
  -27.6300   -7.9160   21.6260 C   0  0  0  0  0  0  0  0  0  0  0  0
  -28.9710   -7.7500   22.0170 C   0  0  0  0  0  3  0  0  0  0  0  0
  -29.9880   -8.4560   21.3540 C   0  0  0  0  0  0  0  0  0  0  0  0
  -31.2790   -8.2760   21.7250 F   0  0  0  0  0  0  0  0  0  0  0  0
  -26.6520   -7.2260   22.2570 F   0  0  0  0  0  0  0  0  0  0  0  0
  -28.9610  -16.4740   19.1560 C   0  0  0  0  0  0  0  0  0  0  0  0
  -28.3910  -15.4620   19.8020 N   0  0  0  0  0  0  0  0  0  0  0  0
  -28.2860  -17.2790   18.5170 O   0  0  0  0  0  0  0  0  0  0  0  0
  -28.9460  -14.8090   20.3330 H   0  0  0  0  0  0  0  0  0  0  0  0
  -27.3900  -15.3330   19.7610 H   0  0  0  0  0  0  0  0  0  0  0  0
  -30.7900  -19.1000   18.9150 N   0  0  0  0  0  0  0  0  0  0  0  0
  -29.8190  -19.3640   18.7900 H   0  0  0  0  0  0  0  0  0  0  0  0
  -31.4310  -19.8780   18.8300 H   0  0  0  0  0  0  0  0  0  0  0  0
  1  5  1  0
  3  1  2  0
  3  6  1  0
  4  2  1  0
  5  2  2  0
  6  4  2  0
  7  6  1  0
  7  9  2  0
  8  7  1  0
 10  8  1  0
 11  8  1  0
 12 11  1  0
 13 12  1  0
 14 13  1  0
 14 16  1  0
 15 26  2  0
 16 21  1  0
 17 25  1  0
 17 27  1  0
 18 20  1  0
 18 24  1  0
 19 25  1  0
 20 19  1  0
 21 20  2  0
 22 16  2  0
 22 23  1  0
 23 18  2  0
 24 17  1  0
 25 15  1  0
 27 29  2  0
 28 27  1  0
 30 28  1  0
 31 36  1  0
 32 28  1  0
 33 32  1  0
 34 33  1  0
 35 34  1  0
 35 31  1  0
 36 32  1  0
 36 37  2  0
 38 37  1  0
 39 38  2  0
 40 31  2  0
 40 39  1  0
 41 15  1  0
 41 51  1  0
 41 42  1  0
 42 45  1  0
 43 42  1  0
 43 47  1  0
 44 43  2  0
 47 46  1  0
 47 49  1  0
 49 48  1  0
 49 50  1  0
 51 54  1  1
 51 52  1  0
 53 51  1  0
 55  5  1  0
 55 56  2  0
 57 55  1  0
 57 59  2  0
 58 57  1  0
 60 58  1  0
 61 58  1  0
 62 61  1  0
 63 62  1  0
 63 64  1  0
 64 65  1  0
 65 74  1  0
 66 72  1  0
 66 73  2  0
 67 72  1  0
 68 67  1  0
 69 68  1  0
 70 69  1  0
 70 79  1  0
 70 71  1  0
 72 71  1  0
 74 66  1  0
 75 74  1  0
 76 79  1  0
 76 77  2  0
 77 78  1  0
 78 80  2  0
 78 81  1  0
 79 80  1  0
 81 82  1  0
 82 83  2  0
 84 83  1  0
 85 84  2  0
 86 85  1  0
 86 81  2  0
 87 84  1  0
 87 88  1  0
 88 93  1  0
 89 88  2  0
 89 90  1  0
 90 91  2  0
 91 92  1  0
 91 95  1  0
 93 94  1  0
 93 92  2  0
 96 77  1  0
 96 97  1  0
 97 99  1  0
 98 96  2  0
100 97  1  0
101 76  1  0
102101  1  0
103101  1  0
M  ISO  4  13 101  14 101  66 100  74 100
M  END
>  <TORSDO>  (88) 
F 27

>  <SCORE>  (88) 
-5.635

>  <name>  (88) 
90

>  <ligand_id>  (88) 
90

>  <original_smiles>  (88) 
[H]c1c([H])c([H])c2c(c1[H])C([H])([H])C([H])([H])C([H])([H])C2([H])N([H])C(=O)C1([H])N(C(=O)C([H])(N([H])C(=O)C([H])(N([H])C([H])([H])[H])C([H])([H])[H])C(C([H])([H])[H])(C([H])([H])[H])C([H])([H])[H])C([H])([H])c2c([H])c(OC([H])([H])C([H])([H])C([H])([H])N([H])C(=O)c3c([H])c([H])c(C(=O)C(=O)N([H])C([H])([H])C([H])([H])C([H])([H])C([H])([H])C([H])([H])N([H])C(=O)N4C([H])([H])C([H])([H])C([H])([H])C([H])(n5nc(-c6c([H])c([H])c(Oc7c([H])c([H])c(F)c([H])c7F)c([H])c6[H])c(C(=O)N([H])[H])c5N([H])[H])C4([H])[H])c([H])c3[H])c([H])c([H])c2C1([H])[H]

>  <smiles>  (88) 
[H]c1c([H])c([H])c2c(c1[H])C([H])([H])C([H])([H])C([H])([H])C2([H])N([H])C(=O)C1([H])N(C(=O)C([H])(N([H])C(=O)C([H])(N([H])C([H])([H])[H])C([H])([H])[H])C(C([H])([H])[H])(C([H])([H])[H])C([H])([H])[H])C([H])([H])c2c([H])c(OC([H])([H])C([H])([H])C([H])([H])N([H])C(=O)c3c([H])c([H])c(C(=O)C(=O)N([H])C([H])([H])C([H])([H])C([H])([H])C([H])([H])C([H])([H])N([H])C(=O)N4C([H])([H])C([H])([H])C([H])([H])C([H])(n5nc(-c6c([H])c([H])c(Oc7c([H])c([H])c(F)c([H])c7F)c([H])c6[H])c(C(=O)N([H])[H])c5N([H])[H])C4([H])[H])c([H])c3[H])c([H])c([H])c2C1([H])[H]

$$$$
91:0:0
     RDKit          3D

 99107  0  0  1  0  0  0  0  0999 V2000
  -27.0480  -21.5220   20.8730 C   0  0  0  0  0  3  0  0  0  0  0  0
  -28.8050  -22.3030   19.3820 C   0  0  0  0  0  3  0  0  0  0  0  0
  -27.6510  -20.2530   20.9250 C   0  0  0  0  0  3  0  0  0  0  0  0
  -29.4230  -21.0370   19.4520 C   0  0  0  0  0  3  0  0  0  0  0  0
  -27.6060  -22.5480   20.0800 C   0  0  0  0  0  0  0  0  0  0  0  0
  -28.8320  -19.9950   20.2030 C   0  0  0  0  0  0  0  0  0  0  0  0
  -26.9140  -23.8760   20.0100 C   0  0  0  0  0  0  0  0  0  0  0  0
  -27.3010  -24.6870   19.0150 N   0  0  0  0  0  0  0  0  0  0  0  0
  -25.9590  -24.1210   20.7530 O   0  0  0  0  0  0  0  0  0  0  0  0
  -28.0890  -24.3880   18.4580 H   0  0  0  0  0  0  0  0  0  0  0  0
  -26.4300  -25.7270   18.4680 C   0  0  0  0  0  2  0  0  0  0  0  0
  -27.1400  -26.8700   17.7050 C   0  0  0  0  0  2  0  0  0  0  0  0
  -26.2060  -27.7840   17.1030 O   0  0  0  0  0  0  0  0  0  0  0  0
  -25.8970  -30.3270   23.7240 C   0  0  0  0  0  0  0  0  0  0  0  0
  -25.5450  -28.5900   17.9970 C   0  0  0  0  0  0  0  0  0  0  0  0
  -23.8540  -30.6150   22.3580 C   0  0  0  0  0  3  0  0  0  0  0  0
  -24.1200  -30.1480   19.8630 C   0  0  0  0  0  0  0  0  0  0  0  0
  -26.1550  -30.5300   21.2550 C   0  0  0  0  0  2  0  0  0  0  0  0
  -25.4880  -29.9120   20.0470 C   0  0  0  0  0  0  0  0  0  0  0  0
  -26.2090  -29.1240   19.1220 C   0  0  0  0  0  3  0  0  0  0  0  0
  -24.1820  -28.8890   17.7880 C   0  0  0  0  0  3  0  0  0  0  0  0
  -23.4590  -29.6370   18.7340 C   0  0  0  0  0  3  0  0  0  0  0  0
  -23.4190  -30.9810   20.9130 C   0  0  0  0  0  2  0  0  0  0  0  0
  -25.3390  -30.4570   22.4880 N   0  0  0  0  0  0  0  0  0  0  0  0
  -25.2030  -30.3840   24.7480 O   0  0  0  0  0  0  0  0  0  0  0  0
  -23.0630  -29.3680   22.8120 C   0  0  0  0  0  0  0  0  0  0  0  0
  -21.7240  -29.4610   22.7610 N   0  0  0  0  0  0  0  0  0  0  0  0
  -23.6490  -28.3420   23.1680 O   0  0  0  0  0  0  0  0  0  0  0  0
  -21.3240  -30.3420   22.4690 H   0  0  0  0  0  0  0  0  0  0  0  0
  -18.2770  -28.4330   22.4350 C   0  0  0  0  0  0  0  0  0  0  0  0
  -20.7740  -28.4010   23.1000 C   0  0  0  0  0  3  0  0  0  0  0  0
  -20.9100  -27.2000   22.1360 C   0  0  0  0  0  2  0  0  0  0  0  0
  -19.9560  -27.2790   20.9380 C   0  0  0  0  0  2  0  0  0  0  0  0
  -18.5020  -27.3330   21.4130 C   0  0  0  0  0  2  0  0  0  0  0  0
  -19.3470  -28.9450   23.2160 C   0  0  0  0  0  0  0  0  0  0  0  0
  -19.0890  -29.9950   24.1240 C   0  0  0  0  0  3  0  0  0  0  0  0
  -17.7930  -30.5260   24.2630 C   0  0  0  0  0  3  0  0  0  0  0  0
  -16.7350  -30.0070   23.4980 C   0  0  0  0  0  3  0  0  0  0  0  0
  -16.9770  -28.9600   22.5900 C   0  0  0  0  0  3  0  0  0  0  0  0
  -27.4320  -30.1260   23.9120 C   0  0  0  0  0  3  0  0  0  0  0  0
  -27.8440  -30.9330   25.0670 N   0  0  0  0  0  0  0  0  0  0  0  0
  -28.6610  -31.9930   25.0000 C   0  0  0  0  0  0  0  0  0  0  0  0
  -29.2100  -32.3510   23.9550 O   0  0  0  0  0  0  0  0  0  0  0  0
  -27.3890  -30.7320   25.9440 H   0  0  0  0  0  0  0  0  0  0  0  0
  -28.1580  -34.1220   26.2430 C   0  0  0  0  0  1  0  0  0  0  0  0
  -28.9070  -32.7810   26.3010 C   0  0  0  0  0  3  0  0  0  0  0  0
  -31.0790  -31.8120   26.9090 C   0  0  0  0  0  1  0  0  0  0  0  0
  -30.3380  -33.0270   26.5800 N   0  0  0  0  0  0  0  0  0  0  0  0
  -30.4500  -33.6820   27.3490 H   0  0  0  0  0  0  0  0  0  0  0  0
  -27.8410  -28.6150   24.1050 C   0  0  1  0  0  0  0  0  0  0  0  0
  -27.0330  -27.8870   25.2050 C   0  0  0  0  0  1  0  0  0  0  0  0
  -27.6530  -27.8360   22.7830 C   0  0  0  0  0  1  0  0  0  0  0  0
  -29.3410  -28.5180   24.4710 C   0  0  0  0  0  1  0  0  0  0  0  0
  -29.4260  -18.5940   20.2810 C   0  0  0  0  0  2  0  0  0  0  0  0
  -30.9630  -18.4950   20.3220 C   0  0  0  0  0  2  0  0  0  0  0  0
  -31.6000  -17.8000   19.1170 C   0  0  0  0  0  0  0  0  0  0  0  0
  -32.8560  -18.1620   18.8310 N   0  0  0  0  0  0  0  0  0  0  0  0
  -30.9990  -16.9160   18.5040 O   0  0  0  0  0  0  0  0  0  0  0  0
  -33.2520  -18.9280   19.3600 H   0  0  0  0  0  0  0  0  0  0  0  0
  -33.7720  -17.4470   17.9520 C   0  0  0  0  0  2  0  0  0  0  0  0
  -34.7090  -16.5590   18.7890 C   0  0  0  0  0  2  0  0  0  0  0  0
  -34.0900  -14.1660   18.9900 C   0  0  0  0  0  0  0  0  0  0  0  0
  -33.9340  -11.9690   20.0660 C   0  0  0  0  0  2  0  0  0  0  0  0
  -33.1000  -10.9400   19.2920 C   0  0  0  0  0  2  0  0  0  0  0  0
  -31.6210  -11.0530   19.6900 C   0  0  0  0  0  2  0  0  0  0  0  0
  -31.0910  -12.5050   19.5670 C   0  0  0  0  0  3  0  0  0  0  0  0
  -32.0330  -13.5110   20.2700 C   0  0  0  0  0  2  0  0  0  0  0  0
  -33.4140  -13.3120   19.7890 N   0  0  0  0  0  0  0  0  0  0  0  0
  -34.9440  -13.8230   18.1670 O   0  0  0  0  0  0  0  0  0  0  0  0
  -33.9770  -15.4410   19.3750 N   0  0  0  0  0  0  0  0  0  0  0  0
  -33.3440  -15.6380   20.1350 H   0  0  0  0  0  0  0  0  0  0  0  0
  -28.9480  -13.7310   20.3090 C   0  0  0  0  0  0  0  0  0  0  0  0
  -27.7120  -13.2710   20.6780 C   0  0  0  0  0  0  0  0  0  0  0  0
  -27.7900  -11.8450   20.6280 C   0  0  0  0  0  0  0  0  0  0  0  0
  -29.7180  -12.6040   20.0630 N   0  0  0  0  0  0  0  0  0  0  0  0
  -29.0200  -11.4630   20.3050 N   0  0  0  0  0  0  0  0  0  0  0  0
  -26.7510  -10.8230   20.8170 C   0  0  0  0  0  0  0  0  0  0  0  0
  -26.7190  -10.0050   21.9680 C   0  0  0  0  0  3  0  0  0  0  0  0
  -25.7000   -9.0420   22.1340 C   0  0  0  0  0  3  0  0  0  0  0  0
  -24.6960   -8.8940   21.1450 C   0  0  0  0  0  0  0  0  0  0  0  0
  -24.7450   -9.6970   19.9930 C   0  0  0  0  0  3  0  0  0  0  0  0
  -25.7630  -10.6500   19.8270 C   0  0  0  0  0  3  0  0  0  0  0  0
  -23.6810   -7.9680   21.2100 O   0  0  0  0  0  0  0  0  0  0  0  0
  -22.9950   -7.7340   22.3740 C   0  0  0  0  0  0  0  0  0  0  0  0
  -22.2540   -8.7490   23.0200 C   0  0  0  0  0  3  0  0  0  0  0  0
  -21.5050   -8.4490   24.1740 C   0  0  0  0  0  3  0  0  0  0  0  0
  -21.4850   -7.1360   24.6800 C   0  0  0  0  0  0  0  0  0  0  0  0
  -22.2160   -6.1220   24.0350 C   0  0  0  0  0  3  0  0  0  0  0  0
  -22.9660   -6.4200   22.8840 C   0  0  0  0  0  0  0  0  0  0  0  0
  -23.6520   -5.4350   22.2560 F   0  0  0  0  0  0  0  0  0  0  0  0
  -20.7600   -6.8450   25.7860 F   0  0  0  0  0  0  0  0  0  0  0  0
  -26.4970  -14.1050   20.9760 C   0  0  0  0  0  0  0  0  0  0  0  0
  -25.6300  -13.6300   21.8640 N   0  0  0  0  0  0  0  0  0  0  0  0
  -26.3360  -15.2080   20.4570 O   0  0  0  0  0  0  0  0  0  0  0  0
  -25.7670  -12.7330   22.3020 H   0  0  0  0  0  0  0  0  0  0  0  0
  -24.8130  -14.1750   22.1060 H   0  0  0  0  0  0  0  0  0  0  0  0
  -29.4760  -15.0080   20.1470 N   0  0  0  0  0  0  0  0  0  0  0  0
  -28.9350  -15.8490   20.3120 H   0  0  0  0  0  0  0  0  0  0  0  0
  -30.4530  -15.1940   19.9560 H   0  0  0  0  0  0  0  0  0  0  0  0
  1  3  1  0
  2  4  2  0
  2  5  1  0
  4  6  1  0
  5  1  2  0
  6 54  1  0
  6  3  2  0
  7  5  1  0
  7  9  2  0
  8  7  1  0
 10  8  1  0
 11  8  1  0
 12 11  1  0
 13 12  1  0
 13 15  1  0
 14 25  2  0
 15 20  1  0
 16 24  1  0
 16 26  1  0
 17 19  1  0
 17 23  1  0
 18 24  1  0
 19 18  1  0
 20 19  2  0
 21 15  2  0
 21 22  1  0
 22 17  2  0
 23 16  1  0
 24 14  1  0
 26 28  2  0
 27 26  1  0
 29 27  1  0
 30 39  2  0
 30 35  1  0
 31 27  1  0
 31 35  1  0
 32 31  1  0
 33 34  1  0
 33 32  1  0
 34 30  1  0
 35 36  2  0
 36 37  1  0
 38 37  2  0
 39 38  1  0
 40 14  1  0
 40 50  1  0
 40 41  1  0
 41 44  1  0
 42 41  1  0
 42 46  1  0
 43 42  2  0
 46 45  1  0
 46 48  1  0
 48 47  1  0
 48 49  1  0
 50 53  1  1
 50 51  1  0
 52 50  1  0
 54 55  1  0
 56 55  1  0
 57 56  1  0
 57 59  1  0
 58 56  2  0
 60 61  1  0
 60 57  1  0
 61 70  1  0
 62 70  1  0
 62 68  1  0
 64 65  1  0
 64 63  1  0
 66 65  1  0
 66 75  1  0
 66 67  1  0
 68 63  1  0
 68 67  1  0
 69 62  2  0
 70 71  1  0
 72 73  2  0
 73 92  1  0
 74 73  1  0
 74 77  1  0
 75 76  1  0
 75 72  1  0
 76 74  2  0
 77 78  1  0
 78 79  2  0
 80 83  1  0
 80 79  1  0
 81 80  2  0
 82 81  1  0
 82 77  2  0
 83 84  1  0
 84 89  2  0
 84 85  1  0
 85 86  2  0
 86 87  1  0
 87 91  1  0
 88 87  2  0
 89 88  1  0
 90 89  1  0
 92 93  1  0
 93 96  1  0
 93 95  1  0
 94 92  2  0
 97 72  1  0
 97 98  1  0
 99 97  1  0
M  ISO  4  12 101  13 101  62 100  70 100
M  END
>  <TORSDO>  (89) 
F 24

>  <SCORE>  (89) 
-5.936

>  <name>  (89) 
91

>  <ligand_id>  (89) 
91

>  <original_smiles>  (89) 
[H]c1c([H])c([H])c2c(c1[H])C([H])([H])C([H])([H])C([H])([H])C2([H])N([H])C(=O)C1([H])N(C(=O)C([H])(N([H])C(=O)C([H])(N([H])C([H])([H])[H])C([H])([H])[H])C(C([H])([H])[H])(C([H])([H])[H])C([H])([H])[H])C([H])([H])c2c([H])c(OC([H])([H])C([H])([H])N([H])C(=O)c3c([H])c([H])c(C([H])([H])C([H])([H])C(=O)N([H])C([H])([H])C([H])([H])N([H])C(=O)N4C([H])([H])C([H])([H])C([H])([H])C([H])(n5nc(-c6c([H])c([H])c(Oc7c([H])c([H])c(F)c([H])c7F)c([H])c6[H])c(C(=O)N([H])[H])c5N([H])[H])C4([H])[H])c([H])c3[H])c([H])c([H])c2C1([H])[H]

>  <smiles>  (89) 
[H]c1c([H])c([H])c2c(c1[H])C([H])([H])C([H])([H])C([H])([H])C2([H])N([H])C(=O)C1([H])N(C(=O)C([H])(N([H])C(=O)C([H])(N([H])C([H])([H])[H])C([H])([H])[H])C(C([H])([H])[H])(C([H])([H])[H])C([H])([H])[H])C([H])([H])c2c([H])c(OC([H])([H])C([H])([H])N([H])C(=O)c3c([H])c([H])c(C([H])([H])C([H])([H])C(=O)N([H])C([H])([H])C([H])([H])N([H])C(=O)N4C([H])([H])C([H])([H])C([H])([H])C([H])(n5nc(-c6c([H])c([H])c(Oc7c([H])c([H])c(F)c([H])c7F)c([H])c6[H])c(C(=O)N([H])[H])c5N([H])[H])C4([H])[H])c([H])c3[H])c([H])c([H])c2C1([H])[H]

$$$$
92:0:0
     RDKit          3D

100108  0  0  1  0  0  0  0  0999 V2000
  -29.2140  -19.9940   15.5750 C   0  0  0  0  0  2  0  0  0  0  0  0
  -29.8920  -18.7520   14.9730 C   0  0  0  0  0  2  0  0  0  0  0  0
  -30.1810  -17.6520   16.0100 C   0  0  0  0  0  2  0  0  0  0  0  0
  -32.7970  -19.2550   18.3070 C   0  0  0  0  0  3  0  0  0  0  0  0
  -32.1870  -18.6850   17.1750 C   0  0  0  0  0  3  0  0  0  0  0  0
  -32.0880  -19.3440   19.5190 C   0  0  0  0  0  3  0  0  0  0  0  0
  -30.1690  -18.2620   18.4790 C   0  0  0  0  0  3  0  0  0  0  0  0
  -30.8650  -18.2000   17.2520 C   0  0  0  0  0  0  0  0  0  0  0  0
  -30.7760  -18.8330   19.6200 C   0  0  0  0  0  0  0  0  0  0  0  0
  -29.0110  -20.1050   20.8750 C   0  0  0  0  0  1  0  0  0  0  0  0
  -30.0090  -18.9350   20.9370 C   0  0  0  0  0  3  0  0  0  0  0  0
  -29.2970  -17.6180   21.3580 C   0  0  0  0  0  2  0  0  0  0  0  0
  -30.8380  -15.7190   21.0000 C   0  0  0  0  0  0  0  0  0  0  0  0
  -30.8110  -13.5480   19.8300 C   0  0  0  0  0  2  0  0  0  0  0  0
  -29.9550  -13.6130   18.5520 C   0  0  0  0  0  2  0  0  0  0  0  0
  -28.4790  -13.3130   18.8740 C   0  0  0  0  0  2  0  0  0  0  0  0
  -27.9480  -14.1520   20.0660 C   0  0  0  0  0  3  0  0  0  0  0  0
  -28.9210  -14.0930   21.2620 C   0  0  0  0  0  2  0  0  0  0  0  0
  -30.2550  -14.5080   20.7940 N   0  0  0  0  0  0  0  0  0  0  0  0
  -31.9370  -16.0230   20.5280 O   0  0  0  0  0  0  0  0  0  0  0  0
  -30.7430  -16.7820   23.1780 C   0  0  0  0  0  1  0  0  0  0  0  0
  -30.1900  -16.5500   21.8420 N   0  0  0  0  0  0  0  0  0  0  0  0
  -25.4660  -14.5160   20.6380 C   0  0  0  0  0  0  0  0  0  0  0  0
  -24.4510  -13.6380   20.9130 C   0  0  0  0  0  0  0  0  0  0  0  0
  -25.0350  -12.3350   20.8680 C   0  0  0  0  0  0  0  0  0  0  0  0
  -26.5980  -13.7420   20.4480 N   0  0  0  0  0  0  0  0  0  0  0  0
  -26.3390  -12.4230   20.6420 N   0  0  0  0  0  0  0  0  0  0  0  0
  -24.4180  -11.0060   20.9710 C   0  0  0  0  0  0  0  0  0  0  0  0
  -24.8230  -10.0780   21.9550 C   0  0  0  0  0  3  0  0  0  0  0  0
  -24.2030   -8.8130   22.0450 C   0  0  0  0  0  3  0  0  0  0  0  0
  -23.1620   -8.4680   21.1500 C   0  0  0  0  0  0  0  0  0  0  0  0
  -22.7790   -9.3870   20.1570 C   0  0  0  0  0  3  0  0  0  0  0  0
  -23.4010  -10.6430   20.0660 C   0  0  0  0  0  3  0  0  0  0  0  0
  -22.5200   -7.2530   21.1460 O   0  0  0  0  0  0  0  0  0  0  0  0
  -22.2350   -6.5860   22.3100 C   0  0  0  0  0  0  0  0  0  0  0  0
  -21.4510   -7.1680   23.3300 C   0  0  0  0  0  3  0  0  0  0  0  0
  -21.1250   -6.4220   24.4800 C   0  0  0  0  0  3  0  0  0  0  0  0
  -21.5710   -5.0920   24.6070 C   0  0  0  0  0  0  0  0  0  0  0  0
  -22.3470   -4.5100   23.5900 C   0  0  0  0  0  3  0  0  0  0  0  0
  -22.6750   -5.2540   22.4420 C   0  0  0  0  0  0  0  0  0  0  0  0
  -23.4040   -4.6810   21.4550 F   0  0  0  0  0  0  0  0  0  0  0  0
  -21.2520   -4.3720   25.7070 F   0  0  0  0  0  0  0  0  0  0  0  0
  -23.0020  -13.9780   21.1100 C   0  0  0  0  0  0  0  0  0  0  0  0
  -22.2920  -13.1920   21.9140 N   0  0  0  0  0  0  0  0  0  0  0  0
  -22.5000  -14.9730   20.5890 O   0  0  0  0  0  0  0  0  0  0  0  0
  -22.7080  -12.3860   22.3570 H   0  0  0  0  0  0  0  0  0  0  0  0
  -21.3190  -13.3980   22.0870 H   0  0  0  0  0  0  0  0  0  0  0  0
  -25.5150  -15.9020   20.5160 N   0  0  0  0  0  0  0  0  0  0  0  0
  -24.6890  -16.4840   20.6020 H   0  0  0  0  0  0  0  0  0  0  0  0
  -26.3440  -16.4250   20.2660 H   0  0  0  0  0  0  0  0  0  0  0  0
  -29.8490  -21.3070   15.1020 C   0  0  0  0  0  2  0  0  0  0  0  0
  -29.5680  -22.4530   16.0790 C   0  0  0  0  0  2  0  0  0  0  0  0
  -30.5630  -23.6180   15.9270 C   0  0  0  0  0  2  0  0  0  0  0  0
  -30.1150  -24.9120   16.6320 C   0  0  0  0  0  2  0  0  0  0  0  0
  -29.9780  -24.7230   18.0910 N   0  0  0  0  0  4  0  0  0  0  0  0
  -30.8670  -24.4210   18.4620 H   0  0  0  0  0  0  0  0  0  0  0  0
  -29.3140  -23.9810   18.2440 H   0  0  0  0  0  0  0  0  0  0  0  0
  -29.5220  -25.9240   18.8290 C   0  0  0  0  0  2  0  0  0  0  0  0
  -29.2040  -25.5890   20.3010 C   0  0  0  0  0  2  0  0  0  0  0  0
  -28.8720  -26.7500   21.0550 O   0  0  0  0  0  0  0  0  0  0  0  0
  -24.5270  -31.7970   23.4930 C   0  0  0  0  0  0  0  0  0  0  0  0
  -27.6350  -27.3430   20.9140 C   0  0  0  0  0  0  0  0  0  0  0  0
  -23.5400  -30.2630   21.8210 C   0  0  0  0  0  3  0  0  0  0  0  0
  -25.1800  -28.7150   20.6350 C   0  0  0  0  0  0  0  0  0  0  0  0
  -26.0560  -30.7200   21.8490 C   0  0  0  0  0  2  0  0  0  0  0  0
  -26.2530  -29.3250   21.2950 C   0  0  0  0  0  0  0  0  0  0  0  0
  -27.4800  -28.6450   21.4320 C   0  0  0  0  0  3  0  0  0  0  0  0
  -26.5310  -26.7260   20.2780 C   0  0  0  0  0  3  0  0  0  0  0  0
  -25.3110  -27.4110   20.1320 C   0  0  0  0  0  3  0  0  0  0  0  0
  -23.9070  -29.5200   20.5100 C   0  0  0  0  0  2  0  0  0  0  0  0
  -24.7190  -30.9460   22.4450 N   0  0  0  0  0  0  0  0  0  0  0  0
  -23.3900  -32.0500   23.9130 O   0  0  0  0  0  0  0  0  0  0  0  0
  -22.8390  -29.2640   22.7700 C   0  0  0  0  0  0  0  0  0  0  0  0
  -21.5480  -29.0000   22.5110 N   0  0  0  0  0  0  0  0  0  0  0  0
  -23.4570  -28.7260   23.6900 O   0  0  0  0  0  0  0  0  0  0  0  0
  -21.1120  -29.4880   21.7410 H   0  0  0  0  0  0  0  0  0  0  0  0
  -18.1990  -27.6660   22.7250 C   0  0  0  0  0  0  0  0  0  0  0  0
  -20.6990  -28.0650   23.2460 C   0  0  0  0  0  3  0  0  0  0  0  0
  -20.9250  -26.6110   22.7690 C   0  0  0  0  0  2  0  0  0  0  0  0
  -19.9540  -26.1800   21.6650 C   0  0  0  0  0  2  0  0  0  0  0  0
  -18.5060  -26.2930   22.1500 C   0  0  0  0  0  2  0  0  0  0  0  0
  -19.2310  -28.5040   23.2240 C   0  0  0  0  0  0  0  0  0  0  0  0
  -18.8960  -29.7860   23.7120 C   0  0  0  0  0  3  0  0  0  0  0  0
  -17.5620  -30.2340   23.7060 C   0  0  0  0  0  3  0  0  0  0  0  0
  -16.5430  -29.3930   23.2260 C   0  0  0  0  0  3  0  0  0  0  0  0
  -16.8620  -28.1110   22.7430 C   0  0  0  0  0  3  0  0  0  0  0  0
  -25.7240  -32.5090   24.1990 C   0  0  0  0  0  3  0  0  0  0  0  0
  -25.3550  -33.9190   24.3810 N   0  0  0  0  0  0  0  0  0  0  0  0
  -25.7270  -34.9130   23.5630 C   0  0  0  0  0  0  0  0  0  0  0  0
  -26.4880  -34.7440   22.6060 O   0  0  0  0  0  0  0  0  0  0  0  0
  -24.6930  -34.1220   25.1150 H   0  0  0  0  0  0  0  0  0  0  0  0
  -23.9830  -36.6010   22.9100 C   0  0  0  0  0  1  0  0  0  0  0  0
  -25.1640  -36.3180   23.8520 C   0  0  0  0  0  3  0  0  0  0  0  0
  -27.1920  -37.3520   24.7720 C   0  0  0  0  0  1  0  0  0  0  0  0
  -26.1730  -37.3920   23.7260 N   0  0  0  0  0  0  0  0  0  0  0  0
  -25.7290  -38.3080   23.7510 H   0  0  0  0  0  0  0  0  0  0  0  0
  -26.1140  -31.8540   25.5810 C   0  0  1  0  0  0  0  0  0  0  0  0
  -24.9110  -31.6300   26.5260 C   0  0  0  0  0  1  0  0  0  0  0  0
  -26.8010  -30.4860   25.3620 C   0  0  0  0  0  1  0  0  0  0  0  0
  -27.1370  -32.7530   26.3160 C   0  0  0  0  0  1  0  0  0  0  0  0
  2  1  1  0
  2  3  1  0
  3  8  1  0
  4  6  1  0
  5  8  1  0
  5  4  2  0
  6  9  2  0
  7  9  1  0
  8  7  2  0
  9 11  1  0
 11 10  1  0
 11 12  1  0
 12 22  1  0
 13 22  1  0
 14 19  1  0
 15 16  1  0
 15 14  1  0
 17 16  1  0
 17 26  1  0
 17 18  1  0
 19 13  1  0
 19 18  1  0
 20 13  2  0
 22 21  1  0
 23 24  2  0
 24 43  1  0
 25 24  1  0
 25 28  1  0
 26 23  1  0
 26 27  1  0
 27 25  2  0
 28 29  1  0
 29 30  2  0
 31 30  1  0
 32 31  2  0
 33 32  1  0
 33 28  2  0
 34 31  1  0
 34 35  1  0
 35 40  2  0
 35 36  1  0
 36 37  2  0
 37 38  1  0
 38 42  1  0
 39 38  2  0
 40 39  1  0
 41 40  1  0
 43 44  1  0
 44 47  1  0
 44 46  1  0
 45 43  2  0
 48 49  1  0
 48 23  1  0
 50 48  1  0
 51  1  1  0
 51 52  1  0
 53 52  1  0
 53 54  1  0
 54 55  1  0
 55 57  1  0
 55 56  1  0
 55 58  1  0
 58 59  1  0
 59 60  1  0
 61 72  2  0
 62 60  1  0
 62 67  1  0
 63 71  1  0
 63 73  1  0
 64 66  1  0
 65 71  1  0
 66 67  2  0
 66 65  1  0
 68 62  2  0
 69 68  1  0
 69 64  2  0
 70 64  1  0
 70 63  1  0
 71 61  1  0
 73 75  2  0
 74 73  1  0
 76 74  1  0
 77 86  2  0
 77 82  1  0
 78 74  1  0
 79 78  1  0
 80 81  1  0
 80 79  1  0
 81 77  1  0
 82 78  1  0
 82 83  2  0
 84 83  1  0
 85 84  2  0
 86 85  1  0
 87 61  1  0
 87 88  1  0
 87 97  1  0
 88 91  1  0
 89 93  1  0
 89 88  1  0
 90 89  2  0
 93 92  1  0
 95 96  1  0
 95 93  1  0
 95 94  1  0
 97100  1  1
 97 98  1  0
 99 97  1  0
M  ISO  4  13 100  22 100  59 101  60 101
M  END
>  <TORSDO>  (90) 
F 28

>  <SCORE>  (90) 
-8.899

>  <name>  (90) 
92

>  <ligand_id>  (90) 
92

>  <original_smiles>  (90) 
[H]c1c([H])c([H])c2c(c1[H])C([H])([H])C([H])([H])C([H])([H])C2([H])N([H])C(=O)C1([H])N(C(=O)C([H])(N([H])C(=O)C([H])(N([H])C([H])([H])[H])C([H])([H])[H])C(C([H])([H])[H])(C([H])([H])[H])C([H])([H])[H])C([H])([H])c2c([H])c(OC([H])([H])C([H])([H])[N+]([H])([H])C([H])([H])C([H])([H])C([H])([H])C([H])([H])C([H])([H])C([H])([H])C([H])([H])c3c([H])c([H])c([H])c(C([H])(C([H])([H])[H])C([H])([H])N(C(=O)N4C([H])([H])C([H])([H])C([H])([H])C([H])(n5nc(-c6c([H])c([H])c(Oc7c([H])c([H])c(F)c([H])c7F)c([H])c6[H])c(C(=O)N([H])[H])c5N([H])[H])C4([H])[H])C([H])([H])[H])c3[H])c([H])c([H])c2C1([H])[H]

>  <smiles>  (90) 
[H]c1c([H])c([H])c2c(c1[H])C([H])([H])C([H])([H])C([H])([H])C2([H])N([H])C(=O)C1([H])N(C(=O)C([H])(N([H])C(=O)C([H])(N([H])C([H])([H])[H])C([H])([H])[H])C(C([H])([H])[H])(C([H])([H])[H])C([H])([H])[H])C([H])([H])c2c([H])c(OC([H])([H])C([H])([H])[N+]([H])([H])C([H])([H])C([H])([H])C([H])([H])C([H])([H])C([H])([H])C([H])([H])C([H])([H])c3c([H])c([H])c([H])c(C([H])(C([H])([H])[H])C([H])([H])N(C(=O)N4C([H])([H])C([H])([H])C([H])([H])C([H])(n5nc(-c6c([H])c([H])c(Oc7c([H])c([H])c(F)c([H])c7F)c([H])c6[H])c(C(=O)N([H])[H])c5N([H])[H])C4([H])[H])C([H])([H])[H])c3[H])c([H])c([H])c2C1([H])[H]

$$$$
93:0:0
     RDKit          3D

100108  0  0  1  0  0  0  0  0999 V2000
  -24.1520  -18.7730   23.8410 C   0  0  0  0  0  1  0  0  0  0  0  0
  -25.3170  -19.6570   23.8800 N   0  0  0  0  0  0  0  0  0  0  0  0
  -27.5960  -17.5670   25.9980 C   0  0  0  0  0  3  0  0  0  0  0  0
  -28.8520  -18.3870   24.0900 C   0  0  0  0  0  3  0  0  0  0  0  0
  -26.4560  -18.2630   25.5440 C   0  0  0  0  0  3  0  0  0  0  0  0
  -27.7090  -19.0560   23.6220 C   0  0  0  0  0  3  0  0  0  0  0  0
  -28.7900  -17.5920   25.2480 C   0  0  0  0  0  0  0  0  0  0  0  0
  -26.4860  -19.0030   24.3370 C   0  0  0  0  0  0  0  0  0  0  0  0
  -29.9730  -16.8160   25.6870 C   0  0  0  0  0  0  0  0  0  0  0  0
  -30.4840  -16.9270   26.8050 O   0  0  0  0  0  0  0  0  0  0  0  0
  -30.4880  -15.7550   24.7070 C   0  0  0  0  0  2  0  0  0  0  0  0
  -31.4950  -16.2650   23.6490 C   0  0  0  0  0  2  0  0  0  0  0  0
  -30.9630  -16.3110   22.2010 C   0  0  0  0  0  2  0  0  0  0  0  0
  -30.7930  -14.3260   20.7010 C   0  0  0  0  0  0  0  0  0  0  0  0
  -30.4150  -12.2780   19.3850 C   0  0  0  0  0  2  0  0  0  0  0  0
  -29.4800  -12.5310   18.1890 C   0  0  0  0  0  2  0  0  0  0  0  0
  -28.0070  -12.3830   18.6090 C   0  0  0  0  0  2  0  0  0  0  0  0
  -27.6700  -13.2010   19.8830 C   0  0  0  0  0  3  0  0  0  0  0  0
  -28.7090  -12.9360   20.9960 C   0  0  0  0  0  2  0  0  0  0  0  0
  -30.0580  -13.2120   20.4620 N   0  0  0  0  0  0  0  0  0  0  0  0
  -31.7780  -14.6530   20.0310 O   0  0  0  0  0  0  0  0  0  0  0  0
  -30.4080  -15.0310   21.7700 N   0  0  0  0  0  0  0  0  0  0  0  0
  -29.6090  -14.6730   22.2700 H   0  0  0  0  0  0  0  0  0  0  0  0
  -25.2620  -13.8160   20.5680 C   0  0  0  0  0  0  0  0  0  0  0  0
  -24.1860  -13.0440   20.9160 C   0  0  0  0  0  0  0  0  0  0  0  0
  -24.6400  -11.6910   20.8730 C   0  0  0  0  0  0  0  0  0  0  0  0
  -26.3060  -12.9320   20.3400 N   0  0  0  0  0  0  0  0  0  0  0  0
  -25.9330  -11.6490   20.5770 N   0  0  0  0  0  0  0  0  0  0  0  0
  -23.9060  -10.4300   21.0410 C   0  0  0  0  0  0  0  0  0  0  0  0
  -24.3610   -9.4210   21.9180 C   0  0  0  0  0  3  0  0  0  0  0  0
  -23.6290   -8.2250   22.0750 C   0  0  0  0  0  3  0  0  0  0  0  0
  -22.4270   -8.0290   21.3550 C   0  0  0  0  0  0  0  0  0  0  0  0
  -21.9910   -9.0260   20.4650 C   0  0  0  0  0  3  0  0  0  0  0  0
  -22.7240  -10.2140   20.3050 C   0  0  0  0  0  3  0  0  0  0  0  0
  -21.6640   -6.8880   21.4240 O   0  0  0  0  0  0  0  0  0  0  0  0
  -21.6850   -6.0740   22.5280 C   0  0  0  0  0  0  0  0  0  0  0  0
  -21.4010   -6.5640   23.8210 C   0  0  0  0  0  3  0  0  0  0  0  0
  -21.3660   -5.6790   24.9180 C   0  0  0  0  0  3  0  0  0  0  0  0
  -21.6040   -4.3060   24.7230 C   0  0  0  0  0  0  0  0  0  0  0  0
  -21.8820   -3.8150   23.4350 C   0  0  0  0  0  3  0  0  0  0  0  0
  -21.9190   -4.6970   22.3400 C   0  0  0  0  0  0  0  0  0  0  0  0
  -22.1660   -4.2150   21.0980 F   0  0  0  0  0  0  0  0  0  0  0  0
  -21.5630   -3.4540   25.7740 F   0  0  0  0  0  0  0  0  0  0  0  0
  -22.7880  -13.5240   21.1830 C   0  0  0  0  0  0  0  0  0  0  0  0
  -22.0510  -12.8240   22.0380 N   0  0  0  0  0  0  0  0  0  0  0  0
  -22.3570  -14.5550   20.6690 O   0  0  0  0  0  0  0  0  0  0  0  0
  -22.4120  -11.9880   22.4760 H   0  0  0  0  0  0  0  0  0  0  0  0
  -21.1130  -13.1270   22.2590 H   0  0  0  0  0  0  0  0  0  0  0  0
  -25.4350  -15.1870   20.4070 N   0  0  0  0  0  0  0  0  0  0  0  0
  -24.6730  -15.8470   20.5160 H   0  0  0  0  0  0  0  0  0  0  0  0
  -26.2990  -15.6250   20.1110 H   0  0  0  0  0  0  0  0  0  0  0  0
  -25.4380  -20.6120   22.7730 C   0  0  0  0  0  2  0  0  0  0  0  0
  -26.2520  -21.8740   23.1290 C   0  0  0  0  0  2  0  0  0  0  0  0
  -26.6840  -22.6330   21.8670 C   0  0  0  0  0  2  0  0  0  0  0  0
  -27.5000  -23.8280   22.1680 N   0  0  0  0  0  4  0  0  0  0  0  0
  -28.2980  -23.5630   22.7250 H   0  0  0  0  0  0  0  0  0  0  0  0
  -26.9390  -24.4600   22.7190 H   0  0  0  0  0  0  0  0  0  0  0  0
  -27.9650  -24.5220   20.9450 C   0  0  0  0  0  2  0  0  0  0  0  0
  -28.5420  -25.9210   21.2280 C   0  0  0  0  0  2  0  0  0  0  0  0
  -28.3950  -26.7450   20.0710 O   0  0  0  0  0  0  0  0  0  0  0  0
  -24.6090  -31.8720   23.2120 C   0  0  0  0  0  0  0  0  0  0  0  0
  -27.2380  -27.4820   20.0790 C   0  0  0  0  0  0  0  0  0  0  0  0
  -23.3960  -30.4950   21.5530 C   0  0  0  0  0  3  0  0  0  0  0  0
  -24.8440  -28.9670   20.1120 C   0  0  0  0  0  0  0  0  0  0  0  0
  -25.9190  -30.8490   21.3610 C   0  0  0  0  0  2  0  0  0  0  0  0
  -26.0000  -29.4850   20.7120 C   0  0  0  0  0  0  0  0  0  0  0  0
  -27.2000  -28.7460   20.7020 C   0  0  0  0  0  3  0  0  0  0  0  0
  -26.0760  -26.9770   19.4610 C   0  0  0  0  0  3  0  0  0  0  0  0
  -24.8730  -27.7080   19.4880 C   0  0  0  0  0  3  0  0  0  0  0  0
  -23.6020  -29.8270   20.1660 C   0  0  0  0  0  2  0  0  0  0  0  0
  -24.6590  -31.0850   22.1010 N   0  0  0  0  0  0  0  0  0  0  0  0
  -23.5300  -32.1450   23.7550 O   0  0  0  0  0  0  0  0  0  0  0  0
  -22.7390  -29.4660   22.5010 C   0  0  0  0  0  0  0  0  0  0  0  0
  -21.4130  -29.3020   22.3750 N   0  0  0  0  0  0  0  0  0  0  0  0
  -23.4190  -28.8190   23.3010 O   0  0  0  0  0  0  0  0  0  0  0  0
  -20.9270  -29.8740   21.6980 H   0  0  0  0  0  0  0  0  0  0  0  0
  -18.0260  -28.1370   22.8490 C   0  0  0  0  0  0  0  0  0  0  0  0
  -20.5860  -28.3650   23.1330 C   0  0  0  0  0  3  0  0  0  0  0  0
  -20.6760  -26.9390   22.5420 C   0  0  0  0  0  2  0  0  0  0  0  0
  -19.5740  -26.6390   21.5220 C   0  0  0  0  0  2  0  0  0  0  0  0
  -18.1910  -26.7920   22.1620 C   0  0  0  0  0  2  0  0  0  0  0  0
  -19.1510  -28.8820   23.2910 C   0  0  0  0  0  0  0  0  0  0  0  0
  -18.9450  -30.1430   23.8920 C   0  0  0  0  0  3  0  0  0  0  0  0
  -17.6450  -30.6580   24.0570 C   0  0  0  0  0  3  0  0  0  0  0  0
  -16.5340  -29.9090   23.6320 C   0  0  0  0  0  3  0  0  0  0  0  0
  -16.7250  -28.6510   23.0350 C   0  0  0  0  0  3  0  0  0  0  0  0
  -25.9010  -32.4840   23.8410 C   0  0  0  0  0  3  0  0  0  0  0  0
  -25.5880  -33.8640   24.2350 N   0  0  0  0  0  0  0  0  0  0  0  0
  -25.9030  -34.9480   23.5140 C   0  0  0  0  0  0  0  0  0  0  0  0
  -26.5600  -34.8920   22.4700 O   0  0  0  0  0  0  0  0  0  0  0  0
  -25.0020  -33.9810   25.0480 H   0  0  0  0  0  0  0  0  0  0  0  0
  -24.1490  -36.7330   23.2640 C   0  0  0  0  0  1  0  0  0  0  0  0
  -25.4110  -36.3120   24.0340 C   0  0  0  0  0  3  0  0  0  0  0  0
  -27.5580  -37.1820   24.8460 C   0  0  0  0  0  1  0  0  0  0  0  0
  -26.4300  -37.3800   23.9400 N   0  0  0  0  0  0  0  0  0  0  0  0
  -26.0200  -38.2890   24.1400 H   0  0  0  0  0  0  0  0  0  0  0  0
  -26.4450  -31.6610   25.0730 C   0  0  1  0  0  0  0  0  0  0  0  0
  -25.3730  -31.3700   26.1480 C   0  0  0  0  0  1  0  0  0  0  0  0
  -27.0290  -30.3070   24.6060 C   0  0  0  0  0  1  0  0  0  0  0  0
  -27.6040  -32.4330   25.7490 C   0  0  0  0  0  1  0  0  0  0  0  0
  1  2  1  0
  2  8  1  0
  4  7  1  0
  5  3  1  0
  6  4  2  0
  6  8  1  0
  7  9  1  0
  7  3  2  0
  8  5  2  0
  9 10  2  0
 11  9  1  0
 12 11  1  0
 13 12  1  0
 14 22  1  0
 15 20  1  0
 16 17  1  0
 16 15  1  0
 18 17  1  0
 18 27  1  0
 18 19  1  0
 20 14  1  0
 20 19  1  0
 21 14  2  0
 22 13  1  0
 22 23  1  0
 24 25  2  0
 25 44  1  0
 26 25  1  0
 26 29  1  0
 27 24  1  0
 27 28  1  0
 28 26  2  0
 29 30  1  0
 30 31  2  0
 32 35  1  0
 32 31  1  0
 33 32  2  0
 34 33  1  0
 34 29  2  0
 35 36  1  0
 36 37  1  0
 37 38  2  0
 39 38  1  0
 39 43  1  0
 40 39  2  0
 41 36  2  0
 41 40  1  0
 42 41  1  0
 44 45  1  0
 45 48  1  0
 45 47  1  0
 46 44  2  0
 49 50  1  0
 49 24  1  0
 51 49  1  0
 52 53  1  0
 52  2  1  0
 54 55  1  0
 54 53  1  0
 55 57  1  0
 55 56  1  0
 58 59  1  0
 58 55  1  0
 60 62  1  0
 60 59  1  0
 61 72  2  0
 62 67  1  0
 63 71  1  0
 63 73  1  0
 64 70  1  0
 64 66  1  0
 65 71  1  0
 66 65  1  0
 67 66  2  0
 68 69  1  0
 68 62  2  0
 69 64  2  0
 70 63  1  0
 71 61  1  0
 73 75  2  0
 74 73  1  0
 76 74  1  0
 77 86  2  0
 77 82  1  0
 78 74  1  0
 78 82  1  0
 79 78  1  0
 80 81  1  0
 80 79  1  0
 81 77  1  0
 82 83  2  0
 83 84  1  0
 85 84  2  0
 86 85  1  0
 87 61  1  0
 87 88  1  0
 87 97  1  0
 88 91  1  0
 89 93  1  0
 89 88  1  0
 90 89  2  0
 93 92  1  0
 95 93  1  0
 95 96  1  0
 95 94  1  0
 97100  1  1
 97 98  1  0
 99 97  1  0
M  ISO  4  14 100  22 100  59 101  60 101
M  END
>  <TORSDO>  (91) 
F 27

>  <SCORE>  (91) 
73.724

>  <name>  (91) 
93

>  <ligand_id>  (91) 
93

>  <original_smiles>  (91) 
[H]c1c([H])c([H])c2c(c1[H])C([H])([H])C([H])([H])C([H])([H])C2([H])N([H])C(=O)C1([H])N(C(=O)C([H])(N([H])C(=O)C([H])(N([H])C([H])([H])[H])C([H])([H])[H])C(C([H])([H])[H])(C([H])([H])[H])C([H])([H])[H])C([H])([H])c2c([H])c(OC([H])([H])C([H])([H])[N+]([H])([H])C([H])([H])C([H])([H])C([H])([H])N(c3c([H])c([H])c(C(=O)C([H])([H])C([H])([H])C([H])([H])N([H])C(=O)N4C([H])([H])C([H])([H])C([H])([H])C([H])(n5nc(-c6c([H])c([H])c(Oc7c([H])c([H])c(F)c([H])c7F)c([H])c6[H])c(C(=O)N([H])[H])c5N([H])[H])C4([H])[H])c([H])c3[H])C([H])([H])[H])c([H])c([H])c2C1([H])[H]

>  <smiles>  (91) 
[H]c1c([H])c([H])c2c(c1[H])C([H])([H])C([H])([H])C([H])([H])C2([H])N([H])C(=O)C1([H])N(C(=O)C([H])(N([H])C(=O)C([H])(N([H])C([H])([H])[H])C([H])([H])[H])C(C([H])([H])[H])(C([H])([H])[H])C([H])([H])[H])C([H])([H])c2c([H])c(OC([H])([H])C([H])([H])[N+]([H])([H])C([H])([H])C([H])([H])C([H])([H])N(c3c([H])c([H])c(C(=O)C([H])([H])C([H])([H])C([H])([H])N([H])C(=O)N4C([H])([H])C([H])([H])C([H])([H])C([H])(n5nc(-c6c([H])c([H])c(Oc7c([H])c([H])c(F)c([H])c7F)c([H])c6[H])c(C(=O)N([H])[H])c5N([H])[H])C4([H])[H])c([H])c3[H])C([H])([H])[H])c([H])c([H])c2C1([H])[H]

$$$$
94:0:0
     RDKit          3D

 95103  0  0  1  0  0  0  0  0999 V2000
  -30.5710  -21.8160   17.6290 C   0  0  0  0  0  2  0  0  0  0  0  0
  -32.8950  -20.1930   20.2020 C   0  0  0  0  0  3  0  0  0  0  0  0
  -32.1560  -19.0610   20.5910 C   0  0  0  0  0  3  0  0  0  0  0  0
  -32.3780  -21.0790   19.2440 C   0  0  0  0  0  3  0  0  0  0  0  0
  -30.3770  -19.6970   19.0550 C   0  0  0  0  0  3  0  0  0  0  0  0
  -30.8900  -18.7870   20.0150 C   0  0  0  0  0  0  0  0  0  0  0  0
  -31.1100  -20.8440   18.6730 C   0  0  0  0  0  0  0  0  0  0  0  0
  -30.1080  -17.5510   20.3520 C   0  0  0  0  0  0  0  0  0  0  0  0
  -29.0940  -17.2210   19.7250 O   0  0  0  0  0  0  0  0  0  0  0  0
  -30.5590  -16.6680   21.5370 C   0  0  0  0  0  2  0  0  0  0  0  0
  -30.6890  -14.3910   20.5810 C   0  0  0  0  0  0  0  0  0  0  0  0
  -30.3540  -12.3090   19.3160 C   0  0  0  0  0  2  0  0  0  0  0  0
  -29.4030  -12.5620   18.1300 C   0  0  0  0  0  2  0  0  0  0  0  0
  -27.9310  -12.4260   18.5670 C   0  0  0  0  0  2  0  0  0  0  0  0
  -27.6130  -13.2320   19.8540 C   0  0  0  0  0  3  0  0  0  0  0  0
  -28.6650  -12.9400   20.9470 C   0  0  0  0  0  2  0  0  0  0  0  0
  -29.9950  -13.2430   20.3920 N   0  0  0  0  0  0  0  0  0  0  0  0
  -31.7560  -14.6450   20.0130 O   0  0  0  0  0  0  0  0  0  0  0  0
  -30.1000  -15.2850   21.3820 N   0  0  0  0  0  0  0  0  0  0  0  0
  -29.2050  -15.0420   21.7760 H   0  0  0  0  0  0  0  0  0  0  0  0
  -25.2110  -13.8520   20.5510 C   0  0  0  0  0  0  0  0  0  0  0  0
  -24.1410  -13.0820   20.9200 C   0  0  0  0  0  0  0  0  0  0  0  0
  -24.5990  -11.7290   20.8940 C   0  0  0  0  0  0  0  0  0  0  0  0
  -26.2550  -12.9670   20.3260 N   0  0  0  0  0  0  0  0  0  0  0  0
  -25.8880  -11.6850   20.5870 N   0  0  0  0  0  0  0  0  0  0  0  0
  -23.8710  -10.4690   21.0860 C   0  0  0  0  0  0  0  0  0  0  0  0
  -24.3150   -9.4940   22.0070 C   0  0  0  0  0  3  0  0  0  0  0  0
  -23.5890   -8.2970   22.1870 C   0  0  0  0  0  3  0  0  0  0  0  0
  -22.4040   -8.0670   21.4470 C   0  0  0  0  0  0  0  0  0  0  0  0
  -21.9800   -9.0310   20.5160 C   0  0  0  0  0  3  0  0  0  0  0  0
  -22.7070  -10.2200   20.3330 C   0  0  0  0  0  3  0  0  0  0  0  0
  -21.6480   -6.9240   21.5370 O   0  0  0  0  0  0  0  0  0  0  0  0
  -21.6270   -6.1630   22.6780 C   0  0  0  0  0  0  0  0  0  0  0  0
  -21.2510   -6.7020   23.9280 C   0  0  0  0  0  3  0  0  0  0  0  0
  -21.1770   -5.8680   25.0620 C   0  0  0  0  0  3  0  0  0  0  0  0
  -21.4680   -4.4950   24.9470 C   0  0  0  0  0  0  0  0  0  0  0  0
  -21.8400   -3.9550   23.7030 C   0  0  0  0  0  3  0  0  0  0  0  0
  -21.9160   -4.7860   22.5720 C   0  0  0  0  0  0  0  0  0  0  0  0
  -22.2530   -4.2570   21.3710 F   0  0  0  0  0  0  0  0  0  0  0  0
  -21.3910   -3.6920   26.0350 F   0  0  0  0  0  0  0  0  0  0  0  0
  -22.7440  -13.5610   21.1920 C   0  0  0  0  0  0  0  0  0  0  0  0
  -22.0150  -12.8690   22.0610 N   0  0  0  0  0  0  0  0  0  0  0  0
  -22.3070  -14.5870   20.6700 O   0  0  0  0  0  0  0  0  0  0  0  0
  -22.3810  -12.0420   22.5080 H   0  0  0  0  0  0  0  0  0  0  0  0
  -21.0780  -13.1720   22.2850 H   0  0  0  0  0  0  0  0  0  0  0  0
  -25.3790  -15.2210   20.3700 N   0  0  0  0  0  0  0  0  0  0  0  0
  -24.6140  -15.8780   20.4740 H   0  0  0  0  0  0  0  0  0  0  0  0
  -26.2320  -15.6570   20.0360 H   0  0  0  0  0  0  0  0  0  0  0  0
  -29.6620  -22.9300   18.1940 C   0  0  0  0  0  2  0  0  0  0  0  0
  -30.3140  -23.6550   19.3080 N   0  0  0  0  0  4  0  0  0  0  0  0
  -31.3060  -23.6090   19.1450 H   0  0  0  0  0  0  0  0  0  0  0  0
  -30.1390  -23.1500   20.1650 H   0  0  0  0  0  0  0  0  0  0  0  0
  -29.9850  -25.0940   19.4660 C   0  0  0  0  0  2  0  0  0  0  0  0
  -28.4960  -25.4060   19.6920 C   0  0  0  0  0  2  0  0  0  0  0  0
  -28.4260  -26.7680   20.1150 O   0  0  0  0  0  0  0  0  0  0  0  0
  -24.5920  -31.8680   23.2320 C   0  0  0  0  0  0  0  0  0  0  0  0
  -27.2160  -27.4270   20.1350 C   0  0  0  0  0  0  0  0  0  0  0  0
  -23.3750  -30.4700   21.5940 C   0  0  0  0  0  3  0  0  0  0  0  0
  -24.8160  -28.9260   20.1710 C   0  0  0  0  0  0  0  0  0  0  0  0
  -25.9000  -30.8220   21.3870 C   0  0  0  0  0  2  0  0  0  0  0  0
  -25.9770  -29.4500   20.7500 C   0  0  0  0  0  0  0  0  0  0  0  0
  -27.1760  -28.7070   20.7290 C   0  0  0  0  0  3  0  0  0  0  0  0
  -26.0280  -26.9020   19.5730 C   0  0  0  0  0  3  0  0  0  0  0  0
  -24.8350  -27.6480   19.5850 C   0  0  0  0  0  3  0  0  0  0  0  0
  -23.5780  -29.7890   20.2140 C   0  0  0  0  0  2  0  0  0  0  0  0
  -24.6410  -31.0680   22.1290 N   0  0  0  0  0  0  0  0  0  0  0  0
  -23.5140  -32.1440   23.7750 O   0  0  0  0  0  0  0  0  0  0  0  0
  -22.7250  -29.4490   22.5550 C   0  0  0  0  0  0  0  0  0  0  0  0
  -21.4000  -29.2700   22.4300 N   0  0  0  0  0  0  0  0  0  0  0  0
  -23.4100  -28.8230   23.3690 O   0  0  0  0  0  0  0  0  0  0  0  0
  -20.9110  -29.8280   21.7440 H   0  0  0  0  0  0  0  0  0  0  0  0
  -18.0260  -28.0820   22.9220 C   0  0  0  0  0  0  0  0  0  0  0  0
  -20.5820  -28.3350   23.2030 C   0  0  0  0  0  3  0  0  0  0  0  0
  -20.6840  -26.9030   22.6300 C   0  0  0  0  0  2  0  0  0  0  0  0
  -19.5840  -26.5790   21.6140 C   0  0  0  0  0  2  0  0  0  0  0  0
  -18.2010  -26.7300   22.2540 C   0  0  0  0  0  2  0  0  0  0  0  0
  -19.1450  -28.8420   23.3540 C   0  0  0  0  0  0  0  0  0  0  0  0
  -18.9270  -30.1090   23.9390 C   0  0  0  0  0  3  0  0  0  0  0  0
  -17.6230  -30.6150   24.0980 C   0  0  0  0  0  3  0  0  0  0  0  0
  -16.5180  -29.8510   23.6840 C   0  0  0  0  0  3  0  0  0  0  0  0
  -16.7210  -28.5860   23.1020 C   0  0  0  0  0  3  0  0  0  0  0  0
  -25.8830  -32.4940   23.8470 C   0  0  0  0  0  3  0  0  0  0  0  0
  -25.5780  -33.8920   24.1810 N   0  0  0  0  0  0  0  0  0  0  0  0
  -25.9130  -34.9430   23.4220 C   0  0  0  0  0  0  0  0  0  0  0  0
  -26.5830  -34.8400   22.3900 O   0  0  0  0  0  0  0  0  0  0  0  0
  -24.9850  -34.0470   24.9820 H   0  0  0  0  0  0  0  0  0  0  0  0
  -24.1890  -36.7390   23.0690 C   0  0  0  0  0  1  0  0  0  0  0  0
  -25.4290  -36.3330   23.8810 C   0  0  0  0  0  3  0  0  0  0  0  0
  -27.5670  -37.2080   24.7110 C   0  0  0  0  0  1  0  0  0  0  0  0
  -26.4640  -37.3840   23.7700 N   0  0  0  0  0  0  0  0  0  0  0  0
  -26.0600  -38.3040   23.9250 H   0  0  0  0  0  0  0  0  0  0  0  0
  -26.4060  -31.7170   25.1170 C   0  0  1  0  0  0  0  0  0  0  0  0
  -25.3200  -31.4800   26.1910 C   0  0  0  0  0  1  0  0  0  0  0  0
  -26.9810  -30.3390   24.7150 C   0  0  0  0  0  1  0  0  0  0  0  0
  -27.5630  -32.5040   25.7750 C   0  0  0  0  0  1  0  0  0  0  0  0
  1 49  1  0
  1  7  1  0
  2  3  1  0
  4  2  2  0
  5  6  1  0
  6  8  1  0
  6  3  2  0
  7  5  2  0
  7  4  1  0
  8 10  1  0
  9  8  2  0
 11 19  1  0
 12 17  1  0
 13 14  1  0
 13 12  1  0
 15 14  1  0
 15 24  1  0
 15 16  1  0
 17 11  1  0
 17 16  1  0
 18 11  2  0
 19 10  1  0
 19 20  1  0
 21 22  2  0
 22 41  1  0
 23 22  1  0
 23 26  1  0
 24 21  1  0
 24 25  1  0
 25 23  2  0
 26 27  1  0
 27 28  2  0
 29 32  1  0
 29 28  1  0
 30 29  2  0
 31 30  1  0
 31 26  2  0
 32 33  1  0
 33 34  1  0
 34 35  2  0
 36 35  1  0
 36 40  1  0
 37 36  2  0
 38 33  2  0
 38 37  1  0
 39 38  1  0
 41 42  1  0
 42 45  1  0
 42 44  1  0
 43 41  2  0
 46 47  1  0
 46 21  1  0
 48 46  1  0
 49 50  1  0
 50 53  1  0
 50 52  1  0
 51 50  1  0
 53 54  1  0
 54 55  1  0
 55 57  1  0
 56 67  2  0
 57 62  1  0
 58 66  1  0
 58 68  1  0
 59 65  1  0
 59 61  1  0
 60 66  1  0
 61 60  1  0
 62 61  2  0
 63 64  1  0
 63 57  2  0
 64 59  2  0
 65 58  1  0
 66 56  1  0
 68 70  2  0
 69 68  1  0
 71 69  1  0
 72 81  2  0
 72 77  1  0
 73 69  1  0
 73 77  1  0
 74 73  1  0
 75 76  1  0
 75 74  1  0
 76 72  1  0
 77 78  2  0
 78 79  1  0
 80 79  2  0
 81 80  1  0
 82 56  1  0
 82 83  1  0
 82 92  1  0
 83 86  1  0
 84 88  1  0
 84 83  1  0
 85 84  2  0
 88 87  1  0
 90 88  1  0
 90 91  1  0
 90 89  1  0
 92 95  1  1
 92 93  1  0
 94 92  1  0
M  ISO  4  11 100  19 100  54 101  55 101
M  END
>  <TORSDO>  (92) 
F 23

>  <SCORE>  (92) 
-12.896

>  <name>  (92) 
94

>  <ligand_id>  (92) 
94

>  <original_smiles>  (92) 
[H]c1c([H])c([H])c2c(c1[H])C([H])([H])C([H])([H])C([H])([H])C2([H])N([H])C(=O)C1([H])N(C(=O)C([H])(N([H])C(=O)C([H])(N([H])C([H])([H])[H])C([H])([H])[H])C(C([H])([H])[H])(C([H])([H])[H])C([H])([H])[H])C([H])([H])c2c([H])c(OC([H])([H])C([H])([H])[N+]([H])([H])C([H])([H])C([H])([H])c3c([H])c([H])c([H])c(C(=O)C([H])([H])N([H])C(=O)N4C([H])([H])C([H])([H])C([H])([H])C([H])(n5nc(-c6c([H])c([H])c(Oc7c([H])c([H])c(F)c([H])c7F)c([H])c6[H])c(C(=O)N([H])[H])c5N([H])[H])C4([H])[H])c3[H])c([H])c([H])c2C1([H])[H]

>  <smiles>  (92) 
[H]c1c([H])c([H])c2c(c1[H])C([H])([H])C([H])([H])C([H])([H])C2([H])N([H])C(=O)C1([H])N(C(=O)C([H])(N([H])C(=O)C([H])(N([H])C([H])([H])[H])C([H])([H])[H])C(C([H])([H])[H])(C([H])([H])[H])C([H])([H])[H])C([H])([H])c2c([H])c(OC([H])([H])C([H])([H])[N+]([H])([H])C([H])([H])C([H])([H])c3c([H])c([H])c([H])c(C(=O)C([H])([H])N([H])C(=O)N4C([H])([H])C([H])([H])C([H])([H])C([H])(n5nc(-c6c([H])c([H])c(Oc7c([H])c([H])c(F)c([H])c7F)c([H])c6[H])c(C(=O)N([H])[H])c5N([H])[H])C4([H])[H])c3[H])c([H])c([H])c2C1([H])[H]

$$$$
95:0:0
     RDKit          3D

109117  0  0  1  0  0  0  0  0999 V2000
  -24.9400  -22.1630   21.5020 C   0  0  0  0  0  3  0  0  0  0  0  0
  -25.7940  -23.8440   19.9580 C   0  0  0  0  0  3  0  0  0  0  0  0
  -24.4750  -23.1850   22.3530 C   0  0  0  0  0  3  0  0  0  0  0  0
  -25.3110  -24.8640   20.8000 C   0  0  0  0  0  3  0  0  0  0  0  0
  -25.6210  -22.4880   20.3080 C   0  0  0  0  0  0  0  0  0  0  0  0
  -24.6710  -24.5440   22.0170 C   0  0  0  0  0  0  0  0  0  0  0  0
  -22.6980  -25.6960   23.1230 C   0  0  0  0  0  1  0  0  0  0  0  0
  -24.2270  -25.6650   22.9590 C   0  0  0  0  0  3  0  0  0  0  0  0
  -24.9160  -25.5890   24.2720 N   0  0  0  0  0  4  0  0  0  0  0  0
  -24.6860  -26.4040   24.8170 H   0  0  0  0  0  0  0  0  0  0  0  0
  -24.5180  -24.8050   24.7630 H   0  0  0  0  0  0  0  0  0  0  0  0
  -26.3930  -25.3890   24.2840 C   0  0  0  0  0  2  0  0  0  0  0  0
  -27.2330  -26.6940   24.2450 C   0  0  0  0  0  2  0  0  0  0  0  0
  -27.2980  -27.4140   22.8830 C   0  0  0  0  0  2  0  0  0  0  0  0
  -28.0030  -26.6520   21.8180 N   0  0  0  0  0  4  0  0  0  0  0  0
  -28.1860  -25.7040   22.1080 H   0  0  0  0  0  0  0  0  0  0  0  0
  -28.9020  -27.0910   21.6810 H   0  0  0  0  0  0  0  0  0  0  0  0
  -27.2620  -26.6330   20.5320 C   0  0  0  0  0  2  0  0  0  0  0  0
  -28.1570  -26.7280   19.2650 C   0  0  0  0  0  2  0  0  0  0  0  0
  -27.4080  -27.1750   18.1210 O   0  0  0  0  0  0  0  0  0  0  0  0
  -24.3790  -31.4970   22.8580 C   0  0  0  0  0  0  0  0  0  0  0  0
  -26.3190  -27.9510   18.4300 C   0  0  0  0  0  0  0  0  0  0  0  0
  -22.8610  -30.4990   21.1750 C   0  0  0  0  0  3  0  0  0  0  0  0
  -23.9980  -29.3520   19.2000 C   0  0  0  0  0  0  0  0  0  0  0  0
  -25.3160  -30.9370   20.6220 C   0  0  0  0  0  2  0  0  0  0  0  0
  -25.2510  -29.7530   19.6810 C   0  0  0  0  0  0  0  0  0  0  0  0
  -26.4140  -29.0590   19.3000 C   0  0  0  0  0  3  0  0  0  0  0  0
  -25.0570  -27.5630   17.9350 C   0  0  0  0  0  3  0  0  0  0  0  0
  -23.8930  -28.2540   18.3260 C   0  0  0  0  0  3  0  0  0  0  0  0
  -22.8040  -30.1560   19.6610 C   0  0  0  0  0  2  0  0  0  0  0  0
  -24.2140  -30.9750   21.6090 N   0  0  0  0  0  0  0  0  0  0  0  0
  -23.4180  -31.6260   23.6290 O   0  0  0  0  0  0  0  0  0  0  0  0
  -22.3570  -29.2770   21.9760 C   0  0  0  0  0  0  0  0  0  0  0  0
  -21.0320  -29.0550   21.9510 N   0  0  0  0  0  0  0  0  0  0  0  0
  -23.1450  -28.5420   22.5740 O   0  0  0  0  0  0  0  0  0  0  0  0
  -20.4520  -29.7080   21.4430 H   0  0  0  0  0  0  0  0  0  0  0  0
  -17.7830  -27.5580   22.4410 C   0  0  0  0  0  0  0  0  0  0  0  0
  -20.3340  -27.9470   22.5990 C   0  0  0  0  0  3  0  0  0  0  0  0
  -20.4810  -26.6420   21.7820 C   0  0  0  0  0  2  0  0  0  0  0  0
  -19.3300  -26.4160   20.7970 C   0  0  0  0  0  2  0  0  0  0  0  0
  -17.9920  -26.3540   21.5380 C   0  0  0  0  0  2  0  0  0  0  0  0
  -18.8820  -28.3140   22.9270 C   0  0  0  0  0  0  0  0  0  0  0  0
  -18.6310  -29.4450   23.7340 C   0  0  0  0  0  3  0  0  0  0  0  0
  -17.3140  -29.8200   24.0590 C   0  0  0  0  0  3  0  0  0  0  0  0
  -16.2300  -29.0570   23.5910 C   0  0  0  0  0  3  0  0  0  0  0  0
  -16.4660  -27.9270   22.7870 C   0  0  0  0  0  3  0  0  0  0  0  0
  -25.7750  -31.9750   23.3690 C   0  0  0  0  0  3  0  0  0  0  0  0
  -25.6140  -33.3370   23.8940 N   0  0  0  0  0  0  0  0  0  0  0  0
  -26.0370  -34.4460   23.2730 C   0  0  0  0  0  0  0  0  0  0  0  0
  -26.6780  -34.4190   22.2190 O   0  0  0  0  0  0  0  0  0  0  0  0
  -25.0520  -33.4380   24.7260 H   0  0  0  0  0  0  0  0  0  0  0  0
  -24.5420  -36.4630   23.1510 C   0  0  0  0  0  1  0  0  0  0  0  0
  -25.6930  -35.7990   23.9230 C   0  0  0  0  0  3  0  0  0  0  0  0
  -27.8800  -36.2830   24.9240 C   0  0  0  0  0  1  0  0  0  0  0  0
  -26.8430  -36.7260   23.9970 N   0  0  0  0  0  0  0  0  0  0  0  0
  -26.5420  -37.6550   24.2810 H   0  0  0  0  0  0  0  0  0  0  0  0
  -26.3970  -31.0210   24.4610 C   0  0  1  0  0  0  0  0  0  0  0  0
  -25.4270  -30.6890   25.6190 C   0  0  0  0  0  1  0  0  0  0  0  0
  -26.8500  -29.6870   23.8250 C   0  0  0  0  0  1  0  0  0  0  0  0
  -27.6630  -31.6720   25.0680 C   0  0  0  0  0  1  0  0  0  0  0  0
  -26.1830  -21.3910   19.4150 C   0  0  0  0  0  2  0  0  0  0  0  0
  -27.4820  -20.9230   19.9430 N   0  0  0  0  0  4  0  0  0  0  0  0
  -27.3110  -20.1890   20.6120 H   0  0  0  0  0  0  0  0  0  0  0  0
  -27.8960  -21.7020   20.4250 H   0  0  0  0  0  0  0  0  0  0  0  0
  -28.4590  -20.4330   18.9410 C   0  0  0  0  0  3  0  0  0  0  0  0
  -27.8650  -19.2090   18.2330 C   0  0  0  0  0  3  0  0  0  0  0  0
  -27.3620  -18.2540   18.8270 O   0  0  0  0  0  0  0  0  0  0  0  0
  -29.8350  -20.1200   19.5890 C   0  0  0  0  0  2  0  0  0  0  0  0
  -29.8800  -18.9440   20.5970 C   0  0  0  0  0  2  0  0  0  0  0  0
  -31.3060  -18.6580   21.0980 C   0  0  0  0  0  2  0  0  0  0  0  0
  -31.3950  -17.5170   22.1330 C   0  0  0  0  0  2  0  0  0  0  0  0
  -31.3800  -15.4090   20.8030 C   0  0  0  0  0  0  0  0  0  0  0  0
  -31.0590  -13.3740   19.4490 C   0  0  0  0  0  2  0  0  0  0  0  0
  -30.2060  -13.6850   18.2050 C   0  0  0  0  0  2  0  0  0  0  0  0
  -28.7050  -13.5680   18.5310 C   0  0  0  0  0  2  0  0  0  0  0  0
  -28.3100  -14.3480   19.8130 C   0  0  0  0  0  3  0  0  0  0  0  0
  -29.2770  -14.0200   20.9730 C   0  0  0  0  0  2  0  0  0  0  0  0
  -30.6530  -14.2960   20.5190 N   0  0  0  0  0  0  0  0  0  0  0  0
  -32.4790  -15.6490   20.2970 O   0  0  0  0  0  0  0  0  0  0  0  0
  -30.8100  -16.2610   21.6630 N   0  0  0  0  0  0  0  0  0  0  0  0
  -29.9130  -15.9940   22.0400 H   0  0  0  0  0  0  0  0  0  0  0  0
  -25.8660  -14.9810   20.3250 C   0  0  0  0  0  0  0  0  0  0  0  0
  -24.7640  -14.2220   20.6150 C   0  0  0  0  0  0  0  0  0  0  0  0
  -25.2150  -12.8670   20.6290 C   0  0  0  0  0  0  0  0  0  0  0  0
  -26.9180  -14.0900   20.1810 N   0  0  0  0  0  0  0  0  0  0  0  0
  -26.5240  -12.8140   20.4220 N   0  0  0  0  0  0  0  0  0  0  0  0
  -24.4630  -11.6140   20.7700 C   0  0  0  0  0  0  0  0  0  0  0  0
  -24.7990  -10.6590   21.7550 C   0  0  0  0  0  3  0  0  0  0  0  0
  -24.0510   -9.4700   21.8850 C   0  0  0  0  0  3  0  0  0  0  0  0
  -22.9500   -9.2280   21.0280 C   0  0  0  0  0  0  0  0  0  0  0  0
  -22.6330  -10.1710   20.0360 C   0  0  0  0  0  3  0  0  0  0  0  0
  -23.3830  -11.3520   19.9040 C   0  0  0  0  0  3  0  0  0  0  0  0
  -22.1810   -8.0910   21.0640 O   0  0  0  0  0  0  0  0  0  0  0  0
  -21.9840   -7.3920   22.2290 C   0  0  0  0  0  0  0  0  0  0  0  0
  -21.4110   -7.9920   23.3700 C   0  0  0  0  0  3  0  0  0  0  0  0
  -21.1620   -7.2210   24.5220 C   0  0  0  0  0  3  0  0  0  0  0  0
  -21.4760   -5.8490   24.5330 C   0  0  0  0  0  0  0  0  0  0  0  0
  -22.0410   -5.2470   23.3950 C   0  0  0  0  0  3  0  0  0  0  0  0
  -22.2910   -6.0170   22.2460 C   0  0  0  0  0  0  0  0  0  0  0  0
  -22.8170   -5.4280   21.1450 F   0  0  0  0  0  0  0  0  0  0  0  0
  -21.2290   -5.1050   25.6360 F   0  0  0  0  0  0  0  0  0  0  0  0
  -23.3550  -14.7160   20.7710 C   0  0  0  0  0  0  0  0  0  0  0  0
  -22.5590  -14.0450   21.5960 N   0  0  0  0  0  0  0  0  0  0  0  0
  -22.9660  -15.7310   20.1960 O   0  0  0  0  0  0  0  0  0  0  0  0
  -22.8860  -13.2240   22.0830 H   0  0  0  0  0  0  0  0  0  0  0  0
  -21.6100  -14.3580   21.7440 H   0  0  0  0  0  0  0  0  0  0  0  0
  -26.0440  -16.3480   20.1520 N   0  0  0  0  0  0  0  0  0  0  0  0
  -25.2360  -16.9590   20.1230 H   0  0  0  0  0  0  0  0  0  0  0  0
  -26.8500  -16.7650   19.6970 H   0  0  0  0  0  0  0  0  0  0  0  0
  1  3  1  0
  2  5  1  0
  2  4  2  0
  4  6  1  0
  5  1  2  0
  6  3  2  0
  6  8  1  0
  8  7  1  0
  8  9  1  0
  9 12  1  0
  9 11  1  0
  9 10  1  0
 13 12  1  0
 14 13  1  0
 15 16  1  0
 15 14  1  0
 17 15  1  0
 18 15  1  0
 19 18  1  0
 20 22  1  0
 20 19  1  0
 21 32  2  0
 22 27  1  0
 23 31  1  0
 23 33  1  0
 24 30  1  0
 24 26  1  0
 25 31  1  0
 26 25  1  0
 27 26  2  0
 28 29  1  0
 28 22  2  0
 29 24  2  0
 30 23  1  0
 31 21  1  0
 33 35  2  0
 34 33  1  0
 36 34  1  0
 37 46  2  0
 37 42  1  0
 38 34  1  0
 38 42  1  0
 39 38  1  0
 40 41  1  0
 40 39  1  0
 41 37  1  0
 42 43  2  0
 43 44  1  0
 45 44  2  0
 46 45  1  0
 47 21  1  0
 47 48  1  0
 47 57  1  0
 48 51  1  0
 49 48  1  0
 49 53  1  0
 50 49  2  0
 53 52  1  0
 53 55  1  0
 55 56  1  0
 55 54  1  0
 57 60  1  1
 57 58  1  0
 59 57  1  0
 61 62  1  0
 61  5  1  0
 62 64  1  0
 62 63  1  0
 65 66  1  0
 65 68  1  0
 65 62  1  0
 66 67  2  0
 68 69  1  0
 69 70  1  0
 70 71  1  0
 72 80  1  0
 73 78  1  0
 74 75  1  0
 74 73  1  0
 76 75  1  0
 76 85  1  0
 76 77  1  0
 78 72  1  0
 78 77  1  0
 79 72  2  0
 80 81  1  0
 80 71  1  0
 82 83  2  0
 83 84  1  0
 83102  1  0
 84 87  1  0
 85 82  1  0
 85 86  1  0
 86 84  2  0
 87 88  1  0
 88 89  2  0
 90 93  1  0
 90 89  1  0
 91 90  2  0
 92 91  1  0
 92 87  2  0
 93 94  1  0
 94 99  2  0
 94 95  1  0
 95 96  2  0
 96 97  1  0
 97101  1  0
 98 97  2  0
 99 98  1  0
100 99  1  0
102103  1  0
103106  1  0
103105  1  0
104102  2  0
107 82  1  0
108107  1  0
109107  1  0
M  ISO  4  19 101  20 101  72 100  80 100
M  END
>  <TORSDO>  (93) 
F 32

>  <SCORE>  (93) 
-4.171

>  <name>  (93) 
95

>  <ligand_id>  (93) 
95

>  <original_smiles>  (93) 
[H]C(=O)C([H])(C([H])([H])C([H])([H])C([H])([H])C([H])([H])N([H])C(=O)N1C([H])([H])C([H])([H])C([H])([H])C([H])(n2nc(-c3c([H])c([H])c(Oc4c([H])c([H])c(F)c([H])c4F)c([H])c3[H])c(C(=O)N([H])[H])c2N([H])[H])C1([H])[H])[N+]([H])([H])C([H])([H])c1c([H])c([H])c(C([H])(C([H])([H])[H])[N+]([H])([H])C([H])([H])C([H])([H])C([H])([H])[N+]([H])([H])C([H])([H])C([H])([H])Oc2c([H])c([H])c3c(c2[H])C([H])([H])N(C(=O)C([H])(N([H])C(=O)C([H])(N([H])C([H])([H])[H])C([H])([H])[H])C(C([H])([H])[H])(C([H])([H])[H])C([H])([H])[H])C([H])(C(=O)N([H])C2([H])c4c([H])c([H])c([H])c([H])c4C([H])([H])C([H])([H])C2([H])[H])C3([H])[H])c([H])c1[H]

>  <smiles>  (93) 
[H]C(=O)C([H])(C([H])([H])C([H])([H])C([H])([H])C([H])([H])N([H])C(=O)N1C([H])([H])C([H])([H])C([H])([H])C([H])(n2nc(-c3c([H])c([H])c(Oc4c([H])c([H])c(F)c([H])c4F)c([H])c3[H])c(C(=O)N([H])[H])c2N([H])[H])C1([H])[H])[N+]([H])([H])C([H])([H])c1c([H])c([H])c(C([H])(C([H])([H])[H])[N+]([H])([H])C([H])([H])C([H])([H])C([H])([H])[N+]([H])([H])C([H])([H])C([H])([H])Oc2c([H])c([H])c3c(c2[H])C([H])([H])N(C(=O)C([H])(N([H])C(=O)C([H])(N([H])C([H])([H])[H])C([H])([H])[H])C(C([H])([H])[H])(C([H])([H])[H])C([H])([H])[H])C([H])(C(=O)N([H])C2([H])c4c([H])c([H])c([H])c([H])c4C([H])([H])C([H])([H])C2([H])[H])C3([H])[H])c([H])c1[H]

$$$$
96:0:0
     RDKit          3D

101109  0  0  1  0  0  0  0  0999 V2000
  -27.2070  -20.2900   19.4610 C   0  0  0  0  0  3  0  0  0  0  0  0
  -27.5630  -21.4820   17.3610 C   0  0  0  0  0  3  0  0  0  0  0  0
  -28.5920  -20.3070   19.7010 C   0  0  0  0  0  3  0  0  0  0  0  0
  -28.9530  -21.4880   17.5990 C   0  0  0  0  0  3  0  0  0  0  0  0
  -26.6840  -20.8580   18.2780 C   0  0  0  0  0  0  0  0  0  0  0  0
  -29.4790  -20.8750   18.7570 C   0  0  0  0  0  0  0  0  0  0  0  0
  -25.2020  -20.8870   18.0520 C   0  0  0  0  0  0  0  0  0  0  0  0
  -24.7920  -21.0530   16.7830 N   0  0  0  0  0  0  0  0  0  0  0  0
  -24.4200  -20.7750   18.9990 O   0  0  0  0  0  0  0  0  0  0  0  0
  -25.4820  -20.9750   16.0460 H   0  0  0  0  0  0  0  0  0  0  0  0
  -23.4460  -21.5310   16.4580 C   0  0  0  0  0  2  0  0  0  0  0  0
  -23.4110  -22.8430   15.6380 C   0  0  0  0  0  2  0  0  0  0  0  0
  -24.6530  -23.7540   15.8020 C   0  0  0  0  0  2  0  0  0  0  0  0
  -24.3750  -25.1420   15.6230 O   0  0  0  0  0  0  0  0  0  0  0  0
  -23.4470  -28.6070   21.7680 C   0  0  0  0  0  0  0  0  0  0  0  0
  -23.4640  -25.7440   16.4650 C   0  0  0  0  0  0  0  0  0  0  0  0
  -21.3700  -27.9680   20.5790 C   0  0  0  0  0  3  0  0  0  0  0  0
  -21.6850  -27.0930   18.2060 C   0  0  0  0  0  0  0  0  0  0  0  0
  -23.5520  -28.3500   19.2960 C   0  0  0  0  0  2  0  0  0  0  0  0
  -23.0570  -27.3490   18.2740 C   0  0  0  0  0  0  0  0  0  0  0  0
  -23.9440  -26.6870   17.4010 C   0  0  0  0  0  3  0  0  0  0  0  0
  -22.0750  -25.4770   16.4290 C   0  0  0  0  0  3  0  0  0  0  0  0
  -21.1890  -26.1430   17.2960 C   0  0  0  0  0  3  0  0  0  0  0  0
  -20.7900  -27.8730   19.1450 C   0  0  0  0  0  2  0  0  0  0  0  0
  -22.8320  -28.3010   20.5890 N   0  0  0  0  0  0  0  0  0  0  0  0
  -22.8130  -28.6550   22.8300 O   0  0  0  0  0  0  0  0  0  0  0  0
  -21.0320  -26.6610   21.3270 C   0  0  0  0  0  0  0  0  0  0  0  0
  -19.7290  -26.3360   21.4130 N   0  0  0  0  0  0  0  0  0  0  0  0
  -21.9300  -25.9490   21.7840 O   0  0  0  0  0  0  0  0  0  0  0  0
  -19.0580  -26.9770   21.0180 H   0  0  0  0  0  0  0  0  0  0  0  0
  -16.7600  -24.2940   21.6880 C   0  0  0  0  0  0  0  0  0  0  0  0
  -19.1810  -25.1270   22.0290 C   0  0  0  0  0  3  0  0  0  0  0  0
  -19.6110  -23.8550   21.2590 C   0  0  0  0  0  2  0  0  0  0  0  0
  -18.6030  -23.4240   20.1850 C   0  0  0  0  0  2  0  0  0  0  0  0
  -17.2420  -23.1370   20.8280 C   0  0  0  0  0  2  0  0  0  0  0  0
  -17.6670  -25.2430   22.2390 C   0  0  0  0  0  0  0  0  0  0  0  0
  -17.1530  -26.3200   22.9960 C   0  0  0  0  0  3  0  0  0  0  0  0
  -15.7660  -26.4600   23.2040 C   0  0  0  0  0  3  0  0  0  0  0  0
  -14.8790  -25.5130   22.6660 C   0  0  0  0  0  3  0  0  0  0  0  0
  -15.3750  -24.4340   21.9160 C   0  0  0  0  0  3  0  0  0  0  0  0
  -24.9730  -28.9340   21.8290 C   0  0  0  0  0  3  0  0  0  0  0  0
  -25.8580  -27.7030   22.2680 C   0  0  1  0  0  0  0  0  0  0  0  0
  -25.3730  -27.0250   23.5690 C   0  0  0  0  0  1  0  0  0  0  0  0
  -25.8930  -26.6260   21.1600 C   0  0  0  0  0  1  0  0  0  0  0  0
  -27.3200  -28.1550   22.4890 C   0  0  0  0  0  1  0  0  0  0  0  0
  -25.1520  -30.0550   22.7630 N   0  0  0  0  0  0  0  0  0  0  0  0
  -25.4370  -31.3110   22.4000 C   0  0  0  0  0  0  0  0  0  0  0  0
  -25.6520  -31.6360   21.2280 O   0  0  0  0  0  0  0  0  0  0  0  0
  -24.9510  -29.8690   23.7340 H   0  0  0  0  0  0  0  0  0  0  0  0
  -24.1990  -33.2320   23.4520 C   0  0  0  0  0  1  0  0  0  0  0  0
  -25.4790  -32.3800   23.5070 C   0  0  0  0  0  3  0  0  0  0  0  0
  -27.9130  -32.5620   23.7480 C   0  0  0  0  0  1  0  0  0  0  0  0
  -26.6670  -33.2580   23.4300 N   0  0  0  0  0  0  0  0  0  0  0  0
  -26.5730  -34.0490   24.0610 H   0  0  0  0  0  0  0  0  0  0  0  0
  -31.5280  -21.8140   19.9290 C   0  0  0  0  0  1  0  0  0  0  0  0
  -30.9900  -20.7540   18.9400 C   0  0  0  0  0  3  0  0  0  0  0  0
  -31.3510  -19.3630   19.3380 N   0  0  0  0  0  4  0  0  0  0  0  0
  -32.1270  -19.4130   19.9760 H   0  0  0  0  0  0  0  0  0  0  0  0
  -30.5650  -18.9890   19.8420 H   0  0  0  0  0  0  0  0  0  0  0  0
  -31.6930  -18.4160   18.2350 C   0  0  0  0  0  2  0  0  0  0  0  0
  -32.6000  -17.2360   18.6960 C   0  0  0  0  0  2  0  0  0  0  0  0
  -33.2700  -16.4520   17.5320 C   0  0  0  0  0  2  0  0  0  0  0  0
  -34.2170  -15.2820   17.9180 C   0  0  0  0  0  2  0  0  0  0  0  0
  -33.8080  -12.9020   18.7070 C   0  0  0  0  0  0  0  0  0  0  0  0
  -33.5060  -10.8450   20.0650 C   0  0  0  0  0  2  0  0  0  0  0  0
  -32.5220   -9.8480   19.4310 C   0  0  0  0  0  2  0  0  0  0  0  0
  -31.0880  -10.1710   19.8850 C   0  0  0  0  0  2  0  0  0  0  0  0
  -30.7240  -11.6560   19.6390 C   0  0  0  0  0  3  0  0  0  0  0  0
  -31.8100  -12.5960   20.2050 C   0  0  0  0  0  2  0  0  0  0  0  0
  -33.1280  -12.2120   19.6610 N   0  0  0  0  0  0  0  0  0  0  0  0
  -34.6720  -12.3890   17.9870 O   0  0  0  0  0  0  0  0  0  0  0  0
  -33.5770  -14.2310   18.7220 N   0  0  0  0  0  0  0  0  0  0  0  0
  -32.9820  -14.5490   19.4740 H   0  0  0  0  0  0  0  0  0  0  0  0
  -28.8970  -13.2120   20.5710 C   0  0  0  0  0  0  0  0  0  0  0  0
  -27.5970  -12.9790   20.9410 C   0  0  0  0  0  0  0  0  0  0  0  0
  -27.3760  -11.5850   20.7440 C   0  0  0  0  0  0  0  0  0  0  0  0
  -29.4050  -11.9840   20.1780 N   0  0  0  0  0  0  0  0  0  0  0  0
  -28.4910  -10.9910   20.3380 N   0  0  0  0  0  0  0  0  0  0  0  0
  -26.1490  -10.7880   20.8670 C   0  0  0  0  0  0  0  0  0  0  0  0
  -26.0870   -9.6580   21.7120 C   0  0  0  0  0  3  0  0  0  0  0  0
  -24.8930   -8.9150   21.8300 C   0  0  0  0  0  3  0  0  0  0  0  0
  -23.7440   -9.3000   21.1000 C   0  0  0  0  0  0  0  0  0  0  0  0
  -23.8170  -10.4130   20.2460 C   0  0  0  0  0  3  0  0  0  0  0  0
  -25.0080  -11.1490   20.1270 C   0  0  0  0  0  3  0  0  0  0  0  0
  -22.5490   -8.6200   21.1240 O   0  0  0  0  0  0  0  0  0  0  0  0
  -22.1870   -7.8410   22.1920 C   0  0  0  0  0  0  0  0  0  0  0  0
  -21.9820   -8.3900   23.4770 C   0  0  0  0  0  3  0  0  0  0  0  0
  -21.5410   -7.5660   24.5320 C   0  0  0  0  0  3  0  0  0  0  0  0
  -21.2950   -6.1990   24.3060 C   0  0  0  0  0  0  0  0  0  0  0  0
  -21.4940   -5.6530   23.0250 C   0  0  0  0  0  3  0  0  0  0  0  0
  -21.9350   -6.4720   21.9730 C   0  0  0  0  0  0  0  0  0  0  0  0
  -22.1040   -5.9440   20.7350 F   0  0  0  0  0  0  0  0  0  0  0  0
  -20.8640   -5.4110   25.3170 F   0  0  0  0  0  0  0  0  0  0  0  0
  -26.5950  -14.0120   21.3670 C   0  0  0  0  0  0  0  0  0  0  0  0
  -25.6690  -13.6410   22.2470 N   0  0  0  0  0  0  0  0  0  0  0  0
  -26.6530  -15.1680   20.9550 O   0  0  0  0  0  0  0  0  0  0  0  0
  -25.6220  -12.6950   22.5940 H   0  0  0  0  0  0  0  0  0  0  0  0
  -25.0000  -14.3200   22.5800 H   0  0  0  0  0  0  0  0  0  0  0  0
  -29.6790  -14.3630   20.5250 N   0  0  0  0  0  0  0  0  0  0  0  0
  -29.2910  -15.2790   20.7240 H   0  0  0  0  0  0  0  0  0  0  0  0
  -30.6360  -14.3980   20.1980 H   0  0  0  0  0  0  0  0  0  0  0  0
  1  3  1  0
  2  4  2  0
  2  5  1  0
  4  6  1  0
  5  1  2  0
  6 56  1  0
  6  3  2  0
  7  5  1  0
  7  9  2  0
  8  7  1  0
 10  8  1  0
 11  8  1  0
 12 13  1  0
 12 11  1  0
 14 13  1  0
 14 16  1  0
 15 26  2  0
 16 21  1  0
 17 25  1  0
 17 27  1  0
 18 20  1  0
 18 24  1  0
 19 25  1  0
 20 19  1  0
 21 20  2  0
 22 16  2  0
 22 23  1  0
 23 18  2  0
 24 17  1  0
 25 15  1  0
 27 28  1  0
 27 29  2  0
 30 28  1  0
 31 40  2  0
 31 36  1  0
 32 28  1  0
 32 36  1  0
 33 32  1  0
 34 35  1  0
 34 33  1  0
 35 31  1  0
 36 37  2  0
 37 38  1  0
 39 38  2  0
 40 39  1  0
 41 15  1  0
 41 42  1  0
 41 46  1  0
 42 45  1  1
 42 43  1  0
 44 42  1  0
 46 49  1  0
 47 46  1  0
 47 51  1  0
 48 47  2  0
 51 50  1  0
 53 51  1  0
 53 52  1  0
 53 54  1  0
 56 57  1  0
 56 55  1  0
 57 59  1  0
 57 58  1  0
 60 61  1  0
 60 57  1  0
 62 63  1  0
 62 61  1  0
 63 72  1  0
 64 72  1  0
 64 70  1  0
 66 67  1  0
 66 65  1  0
 68 67  1  0
 68 77  1  0
 68 69  1  0
 70 65  1  0
 70 69  1  0
 71 64  2  0
 72 73  1  0
 74 75  2  0
 75 94  1  0
 76 79  1  0
 76 75  1  0
 77 78  1  0
 77 74  1  0
 78 76  2  0
 79 80  1  0
 80 81  2  0
 82 85  1  0
 82 81  1  0
 83 82  2  0
 84 83  1  0
 84 79  2  0
 85 86  1  0
 86 87  1  0
 87 88  2  0
 89 88  1  0
 89 93  1  0
 90 89  2  0
 91 86  2  0
 91 90  1  0
 92 91  1  0
 94 95  1  0
 95 98  1  0
 95 97  1  0
 96 94  2  0
 99 74  1  0
 99100  1  0
101 99  1  0
M  ISO  4  13 101  14 101  64 100  72 100
M  END
>  <TORSDO>  (94) 
F 26

>  <SCORE>  (94) 
-6.187

>  <name>  (94) 
96

>  <ligand_id>  (94) 
96

>  <original_smiles>  (94) 
[H]c1c([H])c([H])c2c(c1[H])C([H])([H])C([H])([H])C([H])([H])C2([H])N([H])C(=O)C1([H])N(C(=O)C([H])(N([H])C(=O)C([H])(N([H])C([H])([H])[H])C([H])([H])[H])C(C([H])([H])[H])(C([H])([H])[H])C([H])([H])[H])C([H])([H])c2c([H])c(OC([H])([H])C([H])([H])C([H])([H])N([H])C(=O)c3c([H])c([H])c(C([H])(C([H])([H])[H])[N+]([H])([H])C([H])([H])C([H])([H])C([H])([H])C([H])([H])N([H])C(=O)N4C([H])([H])C([H])([H])C([H])([H])C([H])(n5nc(-c6c([H])c([H])c(Oc7c([H])c([H])c(F)c([H])c7F)c([H])c6[H])c(C(=O)N([H])[H])c5N([H])[H])C4([H])[H])c([H])c3[H])c([H])c([H])c2C1([H])[H]

>  <smiles>  (94) 
[H]c1c([H])c([H])c2c(c1[H])C([H])([H])C([H])([H])C([H])([H])C2([H])N([H])C(=O)C1([H])N(C(=O)C([H])(N([H])C(=O)C([H])(N([H])C([H])([H])[H])C([H])([H])[H])C(C([H])([H])[H])(C([H])([H])[H])C([H])([H])[H])C([H])([H])c2c([H])c(OC([H])([H])C([H])([H])C([H])([H])N([H])C(=O)c3c([H])c([H])c(C([H])(C([H])([H])[H])[N+]([H])([H])C([H])([H])C([H])([H])C([H])([H])C([H])([H])N([H])C(=O)N4C([H])([H])C([H])([H])C([H])([H])C([H])(n5nc(-c6c([H])c([H])c(Oc7c([H])c([H])c(F)c([H])c7F)c([H])c6[H])c(C(=O)N([H])[H])c5N([H])[H])C4([H])[H])c([H])c3[H])c([H])c([H])c2C1([H])[H]

$$$$
97:0:0
     RDKit          3D

104112  0  0  1  0  0  0  0  0999 V2000
  -26.5260  -22.0280   21.4260 C   0  0  0  0  0  3  0  0  0  0  0  0
  -26.8530  -22.6270   19.0870 C   0  0  0  0  0  3  0  0  0  0  0  0
  -25.6810  -24.1530   20.5770 C   0  0  0  0  0  3  0  0  0  0  0  0
  -27.0660  -21.7190   20.1500 C   0  0  0  0  0  0  0  0  0  0  0  0
  -25.8180  -23.2360   21.6390 C   0  0  0  0  0  0  0  0  0  0  0  0
  -26.1730  -23.8440   19.2930 C   0  0  0  0  0  0  0  0  0  0  0  0
  -25.2390  -23.5930   22.9620 C   0  0  0  0  0  0  0  0  0  0  0  0
  -24.6710  -22.4550   23.7940 C   0  0  0  0  0  1  0  0  0  0  0  0
  -25.1340  -24.7540   23.3690 O   0  0  0  0  0  0  0  0  0  0  0  0
  -27.8710  -20.4840   19.8690 C   0  0  0  0  0  0  0  0  0  0  0  0
  -27.6310  -19.7640   18.8900 O   0  0  0  0  0  0  0  0  0  0  0  0
  -29.0760  -20.1050   20.7750 C   0  0  0  0  0  0  0  0  0  0  0  0
  -30.1880  -19.8870   20.0560 N   0  0  0  0  0  0  0  0  0  0  0  0
  -28.9930  -19.9370   21.9960 O   0  0  0  0  0  0  0  0  0  0  0  0
  -30.1090  -20.0550   19.0610 H   0  0  0  0  0  0  0  0  0  0  0  0
  -31.3800  -19.1890   20.5310 C   0  0  0  0  0  2  0  0  0  0  0  0
  -31.2970  -17.6980   20.1550 C   0  0  0  0  0  2  0  0  0  0  0  0
  -32.2320  -17.2900   18.9970 C   0  0  0  0  0  2  0  0  0  0  0  0
  -33.2230  -15.0950   19.5640 C   0  0  0  0  0  0  0  0  0  0  0  0
  -33.3020  -12.9860   20.8330 C   0  0  0  0  0  2  0  0  0  0  0  0
  -32.6080  -11.8730   20.0220 C   0  0  0  0  0  2  0  0  0  0  0  0
  -31.0820  -11.8760   20.2540 C   0  0  0  0  0  2  0  0  0  0  0  0
  -30.4550  -13.2920   20.1270 C   0  0  0  0  0  3  0  0  0  0  0  0
  -31.2720  -14.3110   20.9480 C   0  0  0  0  0  2  0  0  0  0  0  0
  -32.6650  -14.2590   20.4760 N   0  0  0  0  0  0  0  0  0  0  0  0
  -34.3960  -15.0230   19.1910 O   0  0  0  0  0  0  0  0  0  0  0  0
  -32.3430  -15.8380   18.8820 N   0  0  0  0  0  0  0  0  0  0  0  0
  -32.3530  -15.5750   17.9070 H   0  0  0  0  0  0  0  0  0  0  0  0
  -28.1950  -14.3650   20.7430 C   0  0  0  0  0  0  0  0  0  0  0  0
  -26.9670  -13.8200   21.0070 C   0  0  0  0  0  0  0  0  0  0  0  0
  -27.1380  -12.4040   20.9220 C   0  0  0  0  0  0  0  0  0  0  0  0
  -29.0450  -13.2940   20.5150 N   0  0  0  0  0  0  0  0  0  0  0  0
  -28.4080  -12.1080   20.6770 N   0  0  0  0  0  0  0  0  0  0  0  0
  -26.1560  -11.3160   20.9980 C   0  0  0  0  0  0  0  0  0  0  0  0
  -26.2020  -10.3500   22.0280 C   0  0  0  0  0  3  0  0  0  0  0  0
  -25.2370   -9.3230   22.0910 C   0  0  0  0  0  3  0  0  0  0  0  0
  -24.2100   -9.2560   21.1190 C   0  0  0  0  0  0  0  0  0  0  0  0
  -24.1810  -10.2040   20.0820 C   0  0  0  0  0  3  0  0  0  0  0  0
  -25.1460  -11.2230   20.0190 C   0  0  0  0  0  3  0  0  0  0  0  0
  -23.2430   -8.2790   21.0870 O   0  0  0  0  0  0  0  0  0  0  0  0
  -22.6530   -7.8150   22.2350 C   0  0  0  0  0  0  0  0  0  0  0  0
  -21.9470   -8.6700   23.1090 C   0  0  0  0  0  3  0  0  0  0  0  0
  -21.2930   -8.1390   24.2370 C   0  0  0  0  0  3  0  0  0  0  0  0
  -21.3350   -6.7550   24.4920 C   0  0  0  0  0  0  0  0  0  0  0  0
  -22.0330   -5.9010   23.6200 C   0  0  0  0  0  3  0  0  0  0  0  0
  -22.6870   -6.4290   22.4930 C   0  0  0  0  0  0  0  0  0  0  0  0
  -23.3380   -5.5990   21.6440 F   0  0  0  0  0  0  0  0  0  0  0  0
  -20.7010   -6.2440   25.5720 F   0  0  0  0  0  0  0  0  0  0  0  0
  -25.6840  -14.5650   21.2300 C   0  0  0  0  0  0  0  0  0  0  0  0
  -24.7890  -14.0160   22.0440 N   0  0  0  0  0  0  0  0  0  0  0  0
  -25.4860  -15.6660   20.7160 O   0  0  0  0  0  0  0  0  0  0  0  0
  -24.9580  -13.1220   22.4810 H   0  0  0  0  0  0  0  0  0  0  0  0
  -23.9190  -14.4970   22.2320 H   0  0  0  0  0  0  0  0  0  0  0  0
  -28.6530  -15.6760   20.6540 N   0  0  0  0  0  0  0  0  0  0  0  0
  -28.0340  -16.4730   20.7590 H   0  0  0  0  0  0  0  0  0  0  0  0
  -29.6010  -15.9360   20.4090 H   0  0  0  0  0  0  0  0  0  0  0  0
  -24.8290  -25.7950   18.3740 C   0  0  0  0  0  1  0  0  0  0  0  0
  -25.9900  -24.8130   18.1330 C   0  0  0  0  0  3  0  0  0  0  0  0
  -27.2600  -25.5220   17.8730 N   0  0  0  0  0  4  0  0  0  0  0  0
  -27.0170  -26.4410   17.5290 H   0  0  0  0  0  0  0  0  0  0  0  0
  -27.7630  -25.6430   18.7400 H   0  0  0  0  0  0  0  0  0  0  0  0
  -28.1410  -24.9070   16.8450 C   0  0  0  0  0  2  0  0  0  0  0  0
  -29.1800  -25.9060   16.2800 C   0  0  0  0  0  2  0  0  0  0  0  0
  -28.5690  -27.0540   15.6720 O   0  0  0  0  0  0  0  0  0  0  0  0
  -25.8500  -28.4730   22.0750 C   0  0  0  0  0  0  0  0  0  0  0  0
  -27.5120  -27.5540   16.3850 C   0  0  0  0  0  0  0  0  0  0  0  0
  -24.2460  -28.4520   20.1910 C   0  0  0  0  0  3  0  0  0  0  0  0
  -25.2790  -28.4290   17.8570 C   0  0  0  0  0  0  0  0  0  0  0  0
  -26.7000  -29.0610   19.8150 C   0  0  0  0  0  2  0  0  0  0  0  0
  -26.5600  -28.4980   18.4200 C   0  0  0  0  0  0  0  0  0  0  0  0
  -27.6830  -28.0520   17.6920 C   0  0  0  0  0  3  0  0  0  0  0  0
  -26.2300  -27.5500   15.8010 C   0  0  0  0  0  3  0  0  0  0  0  0
  -25.1070  -27.9580   16.5440 C   0  0  0  0  0  3  0  0  0  0  0  0
  -24.1290  -28.9120   18.7110 C   0  0  0  0  0  2  0  0  0  0  0  0
  -25.6270  -28.6360   20.7410 N   0  0  0  0  0  0  0  0  0  0  0  0
  -24.9210  -28.2130   22.8520 O   0  0  0  0  0  0  0  0  0  0  0  0
  -23.7330  -26.9980   20.2990 C   0  0  0  0  0  0  0  0  0  0  0  0
  -22.4300  -26.8050   20.0390 N   0  0  0  0  0  0  0  0  0  0  0  0
  -24.5040  -26.0770   20.5830 O   0  0  0  0  0  0  0  0  0  0  0  0
  -21.8650  -27.6140   19.8240 H   0  0  0  0  0  0  0  0  0  0  0  0
  -19.2650  -25.2050   19.3450 C   0  0  0  0  0  0  0  0  0  0  0  0
  -21.7340  -25.5190   20.0450 C   0  0  0  0  0  3  0  0  0  0  0  0
  -22.0890  -24.6890   18.7910 C   0  0  0  0  0  2  0  0  0  0  0  0
  -21.1040  -24.8840   17.6350 C   0  0  0  0  0  2  0  0  0  0  0  0
  -19.6870  -24.4970   18.0670 C   0  0  0  0  0  2  0  0  0  0  0  0
  -20.2270  -25.6980   20.2660 C   0  0  0  0  0  0  0  0  0  0  0  0
  -19.7830  -26.3790   21.4200 C   0  0  0  0  0  3  0  0  0  0  0  0
  -18.4100  -26.5660   21.6620 C   0  0  0  0  0  3  0  0  0  0  0  0
  -17.4620  -26.0640   20.7530 C   0  0  0  0  0  3  0  0  0  0  0  0
  -17.8900  -25.3830   19.6010 C   0  0  0  0  0  3  0  0  0  0  0  0
  -27.2780  -28.6260   22.6880 C   0  0  0  0  0  3  0  0  0  0  0  0
  -27.8930  -27.2600   23.1810 C   0  0  1  0  0  0  0  0  0  0  0  0
  -26.9440  -26.4450   24.0880 C   0  0  0  0  0  1  0  0  0  0  0  0
  -28.2790  -26.3670   21.9780 C   0  0  0  0  0  1  0  0  0  0  0  0
  -29.1960  -27.5270   23.9720 C   0  0  0  0  0  1  0  0  0  0  0  0
  -27.1800  -29.5830   23.7970 N   0  0  0  0  0  0  0  0  0  0  0  0
  -27.6420  -30.8400   23.7590 C   0  0  0  0  0  0  0  0  0  0  0  0
  -28.2690  -31.2950   22.7980 O   0  0  0  0  0  0  0  0  0  0  0  0
  -26.6300  -29.2990   24.5940 H   0  0  0  0  0  0  0  0  0  0  0  0
  -26.2380  -32.7300   24.6460 C   0  0  0  0  0  1  0  0  0  0  0  0
  -27.3610  -31.7360   24.9810 C   0  0  0  0  0  3  0  0  0  0  0  0
  -29.5770  -31.6040   26.0330 C   0  0  0  0  0  1  0  0  0  0  0  0
  -28.5530  -32.4720   25.4570 N   0  0  0  0  0  0  0  0  0  0  0  0
  -28.2940  -33.1650   26.1540 H   0  0  0  0  0  0  0  0  0  0  0  0
  1  5  1  0
  2  6  2  0
  2  4  1  0
  3  5  2  0
  4  1  2  0
  5  7  1  0
  6  3  1  0
  7  9  2  0
  7  8  1  0
 10  4  1  0
 10 12  1  0
 11 10  2  0
 12 14  2  0
 13 16  1  0
 13 12  1  0
 15 13  1  0
 17 16  1  0
 18 17  1  0
 19 25  1  0
 21 22  1  0
 21 20  1  0
 23 22  1  0
 23 32  1  0
 23 24  1  0
 25 20  1  0
 25 24  1  0
 26 19  2  0
 27 18  1  0
 27 19  1  0
 28 27  1  0
 29 30  2  0
 30 49  1  0
 31 34  1  0
 31 30  1  0
 32 33  1  0
 32 29  1  0
 33 31  2  0
 34 35  1  0
 35 36  2  0
 37 36  1  0
 38 37  2  0
 39 38  1  0
 39 34  2  0
 40 37  1  0
 40 41  1  0
 41 46  2  0
 41 42  1  0
 42 43  2  0
 43 44  1  0
 44 48  1  0
 45 44  2  0
 46 45  1  0
 47 46  1  0
 49 50  1  0
 50 53  1  0
 50 52  1  0
 51 49  2  0
 54 29  1  0
 54 55  1  0
 56 54  1  0
 58 57  1  0
 58  6  1  0
 59 58  1  0
 59 61  1  0
 60 59  1  0
 62 59  1  0
 63 62  1  0
 64 63  1  0
 64 66  1  0
 65 76  2  0
 66 71  1  0
 67 77  1  0
 67 75  1  0
 68 70  1  0
 68 74  1  0
 69 75  1  0
 70 69  1  0
 71 70  2  0
 72 66  2  0
 72 73  1  0
 73 68  2  0
 74 67  1  0
 75 65  1  0
 77 79  2  0
 78 77  1  0
 80 78  1  0
 81 90  2  0
 81 86  1  0
 82 78  1  0
 82 86  1  0
 83 82  1  0
 84 85  1  0
 84 83  1  0
 85 81  1  0
 86 87  2  0
 87 88  1  0
 89 88  2  0
 90 89  1  0
 91 65  1  0
 91 92  1  0
 91 96  1  0
 92 95  1  1
 92 93  1  0
 94 92  1  0
 96 99  1  0
 97 96  1  0
 97101  1  0
 98 97  2  0
101100  1  0
101103  1  0
103102  1  0
103104  1  0
M  ISO  4  19 100  27 100  63 101  64 101
M  END
>  <TORSDO>  (95) 
F 26

>  <SCORE>  (95) 
-1.200

>  <name>  (95) 
97

>  <ligand_id>  (95) 
97

>  <original_smiles>  (95) 
[H]c1c([H])c([H])c2c(c1[H])C([H])([H])C([H])([H])C([H])([H])C2([H])N([H])C(=O)C1([H])N(C(=O)C([H])(N([H])C(=O)C([H])(N([H])C([H])([H])[H])C([H])([H])[H])C(C([H])([H])[H])(C([H])([H])[H])C([H])([H])[H])C([H])([H])c2c([H])c(OC([H])([H])C([H])([H])[N+]([H])([H])C([H])(c3c([H])c(C(=O)C(=O)N([H])C([H])([H])C([H])([H])C([H])([H])N([H])C(=O)N4C([H])([H])C([H])([H])C([H])([H])C([H])(n5nc(-c6c([H])c([H])c(Oc7c([H])c([H])c(F)c([H])c7F)c([H])c6[H])c(C(=O)N([H])[H])c5N([H])[H])C4([H])[H])c([H])c(C(=O)C([H])([H])[H])c3[H])C([H])([H])[H])c([H])c([H])c2C1([H])[H]

>  <smiles>  (95) 
[H]c1c([H])c([H])c2c(c1[H])C([H])([H])C([H])([H])C([H])([H])C2([H])N([H])C(=O)C1([H])N(C(=O)C([H])(N([H])C(=O)C([H])(N([H])C([H])([H])[H])C([H])([H])[H])C(C([H])([H])[H])(C([H])([H])[H])C([H])([H])[H])C([H])([H])c2c([H])c(OC([H])([H])C([H])([H])[N+]([H])([H])C([H])(c3c([H])c(C(=O)C(=O)N([H])C([H])([H])C([H])([H])C([H])([H])N([H])C(=O)N4C([H])([H])C([H])([H])C([H])([H])C([H])(n5nc(-c6c([H])c([H])c(Oc7c([H])c([H])c(F)c([H])c7F)c([H])c6[H])c(C(=O)N([H])[H])c5N([H])[H])C4([H])[H])c([H])c(C(=O)C([H])([H])[H])c3[H])C([H])([H])[H])c([H])c([H])c2C1([H])[H]

$$$$
98:0:0
     RDKit          3D

101107  0  0  1  0  0  0  0  0999 V2000
  -23.9470  -30.2290   20.1550 C   0  0  0  0  0  1  0  0  0  0  0  0
  -22.4490  -29.6420   19.7810 C   0  0  0  0  0  2  0  0  0  0  0  0
  -24.8350  -28.6130   21.4890 C   0  0  0  0  0  1  0  0  0  0  0  0
  -22.8030  -27.2110   21.1790 C   0  0  0  0  0  2  0  0  0  0  0  0
  -22.0770  -28.1310   20.2070 C   0  0  0  0  0  3  0  0  0  0  0  0
  -24.1890  -27.2110   21.7460 C   0  0  0  0  0  3  0  0  0  0  0  0
  -21.7810  -27.1010   19.0660 C   0  0  0  0  0  0  0  0  0  0  0  0
  -22.7110  -26.0700   18.7460 N   0  0  0  0  0  0  0  0  0  0  0  0
  -20.8270  -27.3190   18.3220 O   0  0  0  0  0  0  0  0  0  0  0  0
  -22.4530  -25.7340   17.8280 H   0  0  0  0  0  0  0  0  0  0  0  0
  -23.8630  -25.1660   19.3940 C   0  0  0  0  0  2  0  0  0  0  0  0
  -25.5860  -25.3140   19.4810 C   0  0  0  0  0  2  0  0  0  0  0  0
  -26.7310  -26.0800   20.3560 O   0  0  0  0  0  0  0  0  0  0  0  0
  -24.5470  -31.8060   23.3670 C   0  0  0  0  0  0  0  0  0  0  0  0
  -27.3610  -27.2690   19.9870 C   0  0  0  0  0  3  0  0  0  0  0  0
  -23.1470  -29.8420   22.0910 C   0  0  0  0  0  2  0  0  0  0  0  0
  -25.7400  -28.9760   19.1250 C   0  0  0  0  0  3  0  0  0  0  0  0
  -26.0370  -30.8330   21.4450 C   0  0  0  0  0  2  0  0  0  0  0  0
  -26.5730  -29.6670   20.2040 C   0  0  0  0  0  3  0  0  0  0  0  0
  -27.4120  -28.5650   20.6660 C   0  0  0  0  0  2  0  0  0  0  0  0
  -27.1660  -27.2620   18.6540 C   0  0  0  0  0  2  0  0  0  0  0  0
  -26.1740  -28.0780   18.2210 C   0  0  0  0  0  2  0  0  0  0  0  0
  -24.3220  -28.2610   19.4090 C   0  0  0  0  0  1  0  0  0  0  0  0
  -24.5870  -30.8630   22.4080 N   0  0  0  0  0  0  0  0  0  0  0  0
  -23.4660  -32.1390   23.8560 O   0  0  0  0  0  0  0  0  0  0  0  0
  -22.5000  -29.2290   23.1650 C   0  0  0  0  0  0  0  0  0  0  0  0
  -21.2340  -29.0990   22.8440 N   0  0  0  0  0  0  0  0  0  0  0  0
  -23.1590  -28.7210   24.0560 O   0  0  0  0  0  0  0  0  0  0  0  0
  -20.9060  -29.5380   21.9940 H   0  0  0  0  0  0  0  0  0  0  0  0
  -17.9050  -28.1250   22.8580 C   0  0  0  0  0  0  0  0  0  0  0  0
  -20.3570  -28.2050   23.4780 C   0  0  0  0  0  3  0  0  0  0  0  0
  -20.4100  -26.7770   22.9170 C   0  0  0  0  0  2  0  0  0  0  0  0
  -19.5270  -26.5820   21.6780 C   0  0  0  0  0  2  0  0  0  0  0  0
  -18.0800  -26.8030   22.1150 C   0  0  0  0  0  2  0  0  0  0  0  0
  -18.9980  -28.8230   23.4170 C   0  0  0  0  0  0  0  0  0  0  0  0
  -18.8280  -30.1060   23.9760 C   0  0  0  0  0  3  0  0  0  0  0  0
  -17.5460  -30.6660   24.0550 C   0  0  0  0  0  3  0  0  0  0  0  0
  -16.4410  -29.9360   23.5820 C   0  0  0  0  0  3  0  0  0  0  0  0
  -16.6220  -28.6770   22.9810 C   0  0  0  0  0  3  0  0  0  0  0  0
  -25.8540  -32.4640   23.8890 C   0  0  0  0  0  3  0  0  0  0  0  0
  -26.4450  -31.6660   25.1160 C   0  0  1  0  0  0  0  0  0  0  0  0
  -25.4000  -31.3710   26.2180 C   0  0  0  0  0  1  0  0  0  0  0  0
  -27.0490  -30.3110   24.6730 C   0  0  0  0  0  1  0  0  0  0  0  0
  -27.5950  -32.4700   25.7600 C   0  0  0  0  0  1  0  0  0  0  0  0
  -25.5610  -33.8590   24.2540 N   0  0  0  0  0  0  0  0  0  0  0  0
  -25.8950  -34.9320   23.5220 C   0  0  0  0  0  0  0  0  0  0  0  0
  -26.5500  -34.8620   22.4770 O   0  0  0  0  0  0  0  0  0  0  0  0
  -25.0030  -34.0000   25.0850 H   0  0  0  0  0  0  0  0  0  0  0  0
  -24.1550  -36.7220   23.2620 C   0  0  0  0  0  1  0  0  0  0  0  0
  -25.4150  -36.3040   24.0350 C   0  0  0  0  0  3  0  0  0  0  0  0
  -27.5610  -37.1730   24.8430 C   0  0  0  0  0  1  0  0  0  0  0  0
  -26.4340  -37.3670   23.9350 N   0  0  0  0  0  0  0  0  0  0  0  0
  -26.0270  -38.2790   24.1210 H   0  0  0  0  0  0  0  0  0  0  0  0
  -24.6910  -25.6620   22.4150 C   0  0  0  0  0  2  0  0  0  0  0  0
  -27.3710  -25.4360   23.1250 C   0  0  0  0  0  1  0  0  0  0  0  0
  -26.1280  -24.6040   22.6500 C   0  0  0  0  0  3  0  0  0  0  0  0
  -26.6720  -23.2970   21.8130 N   0  0  0  0  0  4  0  0  0  0  0  0
  -26.3360  -23.4060   20.8760 H   0  0  0  0  0  0  0  0  0  0  0  0
  -27.6590  -23.5030   21.7750 H   0  0  0  0  0  0  0  0  0  0  0  0
  -26.7080  -21.6840   22.1110 C   0  0  0  0  0  3  0  0  0  0  0  0
  -27.9090  -20.5300   21.5170 C   0  0  0  0  0  3  0  0  0  0  0  0
  -28.0370  -18.7760   21.5630 C   0  0  0  0  0  3  0  0  0  0  0  0
  -29.2970  -17.7190   20.9590 C   0  0  0  0  0  3  0  0  0  0  0  0
  -30.3140  -15.0380   20.5910 C   0  0  0  0  0  0  0  0  0  0  0  0
  -30.4440  -12.6760   19.5640 C   0  0  0  0  0  2  0  0  0  0  0  0
  -29.5440  -12.6030   18.3010 C   0  0  0  0  0  2  0  0  0  0  0  0
  -28.0720  -12.3450   18.6840 C   0  0  0  0  0  2  0  0  0  0  0  0
  -27.6250  -13.2360   19.8720 C   0  0  0  0  0  3  0  0  0  0  0  0
  -28.6300  -13.1950   21.0370 C   0  0  0  0  0  2  0  0  0  0  0  0
  -29.8820  -13.7100   20.4970 N   0  0  0  0  0  0  0  0  0  0  0  0
  -31.4770  -15.2420   20.1910 O   0  0  0  0  0  0  0  0  0  0  0  0
  -29.3880  -16.0920   20.9970 N   0  0  0  0  0  0  0  0  0  0  0  0
  -28.5480  -15.6840   21.3810 H   0  0  0  0  0  0  0  0  0  0  0  0
  -25.2410  -13.8170   20.5670 C   0  0  0  0  0  0  0  0  0  0  0  0
  -24.1720  -13.0410   20.9190 C   0  0  0  0  0  0  0  0  0  0  0  0
  -24.6320  -11.6890   20.8730 C   0  0  0  0  0  0  0  0  0  0  0  0
  -26.2790  -12.9350   20.3230 N   0  0  0  0  0  0  0  0  0  0  0  0
  -25.9240  -11.6500   20.5700 N   0  0  0  0  0  0  0  0  0  0  0  0
  -23.9010  -10.4280   21.0410 C   0  0  0  0  0  0  0  0  0  0  0  0
  -24.3580   -9.4210   21.9190 C   0  0  0  0  0  3  0  0  0  0  0  0
  -23.6270   -8.2240   22.0770 C   0  0  0  0  0  3  0  0  0  0  0  0
  -22.4270   -8.0270   21.3540 C   0  0  0  0  0  0  0  0  0  0  0  0
  -21.9880   -9.0240   20.4660 C   0  0  0  0  0  3  0  0  0  0  0  0
  -22.7190  -10.2120   20.3060 C   0  0  0  0  0  3  0  0  0  0  0  0
  -21.6640   -6.8860   21.4250 O   0  0  0  0  0  0  0  0  0  0  0  0
  -21.6850   -6.0720   22.5280 C   0  0  0  0  0  0  0  0  0  0  0  0
  -21.4010   -6.5630   23.8210 C   0  0  0  0  0  3  0  0  0  0  0  0
  -21.3650   -5.6790   24.9170 C   0  0  0  0  0  3  0  0  0  0  0  0
  -21.6040   -4.3050   24.7230 C   0  0  0  0  0  0  0  0  0  0  0  0
  -21.8820   -3.8140   23.4350 C   0  0  0  0  0  3  0  0  0  0  0  0
  -21.9190   -4.6950   22.3400 C   0  0  0  0  0  0  0  0  0  0  0  0
  -22.1670   -4.2130   21.0980 F   0  0  0  0  0  0  0  0  0  0  0  0
  -21.5630   -3.4540   25.7740 F   0  0  0  0  0  0  0  0  0  0  0  0
  -22.7770  -13.5230   21.1860 C   0  0  0  0  0  0  0  0  0  0  0  0
  -22.0410  -12.8240   22.0420 N   0  0  0  0  0  0  0  0  0  0  0  0
  -22.3470  -14.5540   20.6700 O   0  0  0  0  0  0  0  0  0  0  0  0
  -22.3980  -11.9880   22.4800 H   0  0  0  0  0  0  0  0  0  0  0  0
  -21.1040  -13.1320   22.2640 H   0  0  0  0  0  0  0  0  0  0  0  0
  -25.4100  -15.1890   20.4040 N   0  0  0  0  0  0  0  0  0  0  0  0
  -24.6290  -15.8320   20.4790 H   0  0  0  0  0  0  0  0  0  0  0  0
  -26.2300  -15.6150   19.9910 H   0  0  0  0  0  0  0  0  0  0  0  0
  2  1  1  0
  4  6  1  0
  5  2  1  0
  5  4  1  0
  6  3  1  0
  6 54  1  0
  7  5  1  0
  8  7  1  0
  8 11  1  0
  9  7  2  0
 10  8  1  0
 11 12  1  0
 12 13  1  0
 14 25  2  0
 15 13  1  0
 15 20  1  0
 16 24  1  0
 16 26  1  0
 17 23  1  0
 17 19  1  0
 18 24  1  0
 19 20  1  0
 19 18  1  0
 21 15  1  0
 22 21  1  0
 22 17  1  0
 24 14  1  0
 26 28  2  0
 27 26  1  0
 29 27  1  0
 30 39  2  0
 30 35  1  0
 31 27  1  0
 32 31  1  0
 33 34  1  0
 33 32  1  0
 34 30  1  0
 35 31  1  0
 35 36  2  0
 36 37  1  0
 38 37  2  0
 39 38  1  0
 40 14  1  0
 40 45  1  0
 40 41  1  0
 41 44  1  1
 41 42  1  0
 43 41  1  0
 45 48  1  0
 46 50  1  0
 46 45  1  0
 47 46  2  0
 50 49  1  0
 52 50  1  0
 52 53  1  0
 52 51  1  0
 54 56  1  0
 56 55  1  0
 57 60  1  0
 57 56  1  0
 58 57  1  0
 59 57  1  0
 61 62  1  0
 61 60  2  0
 63 72  1  0
 63 62  2  0
 64 72  1  0
 65 70  1  0
 66 67  1  0
 66 65  1  0
 68 67  1  0
 68 77  1  0
 68 69  1  0
 70 64  1  0
 70 69  1  0
 71 64  2  0
 72 73  1  0
 74 75  2  0
 75 94  1  0
 76 75  1  0
 76 79  1  0
 77 74  1  0
 77 78  1  0
 78 76  2  0
 79 80  1  0
 80 81  2  0
 82 85  1  0
 82 81  1  0
 83 82  2  0
 84 83  1  0
 84 79  2  0
 85 86  1  0
 86 87  1  0
 87 88  2  0
 89 88  1  0
 89 93  1  0
 90 89  2  0
 91 86  2  0
 91 90  1  0
 92 91  1  0
 94 95  1  0
 95 98  1  0
 95 97  1  0
 96 94  2  0
 99100  1  0
 99 74  1  0
101 99  1  0
M  ISO  4  12 101  13 101  64 100  72 100
M  END
>  <TORSDO>  (96) 
F 26

>  <SCORE>  (96) 
-8.318

>  <name>  (96) 
98

>  <ligand_id>  (96) 
98

>  <original_smiles>  (96) 
[H]c1c([H])c([H])c2c(c1[H])C([H])([H])C([H])([H])C([H])([H])C2([H])N([H])C(=O)C1([H])N(C(=O)C([H])(N([H])C(=O)C([H])(N([H])C([H])([H])[H])C([H])([H])[H])C(C([H])([H])[H])(C([H])([H])[H])C([H])([H])[H])C([H])([H])c2c([H])c(OC([H])([H])C([H])([H])N([H])C(=O)c3c([H])c([H])c([H])c(C([H])([H])C([H])(C([H])([H])[H])[N+]([H])([H])C([H])([H])C([H])([H])C([H])([H])C([H])([H])N([H])C(=O)N4C([H])([H])C([H])([H])C([H])([H])C([H])(n5nc(-c6c([H])c([H])c(Oc7c([H])c([H])c(F)c([H])c7F)c([H])c6[H])c(C(=O)N([H])[H])c5N([H])[H])C4([H])[H])c3[H])c([H])c([H])c2C1([H])[H]

>  <smiles>  (96) 
[H]c1c([H])c([H])c2c(c1[H])C([H])([H])C([H])([H])C([H])([H])C2([H])N([H])C(=O)C1([H])N(C(=O)C([H])(N([H])C(=O)C([H])(N([H])C([H])([H])[H])C([H])([H])[H])C(C([H])([H])[H])(C([H])([H])[H])C([H])([H])[H])C([H])([H])c2c([H])c(OC([H])([H])C([H])([H])N([H])C(=O)c3c([H])c([H])c([H])c(C([H])([H])C([H])(C([H])([H])[H])[N+]([H])([H])C([H])([H])C([H])([H])C([H])([H])C([H])([H])N([H])C(=O)N4C([H])([H])C([H])([H])C([H])([H])C([H])(n5nc(-c6c([H])c([H])c(Oc7c([H])c([H])c(F)c([H])c7F)c([H])c6[H])c(C(=O)N([H])[H])c5N([H])[H])C4([H])[H])c3[H])c([H])c([H])c2C1([H])[H]

$$$$
99:0:0
     RDKit          3D

 99107  0  0  1  0  0  0  0  0999 V2000
  -30.4690  -22.4890   21.0310 C   0  0  0  0  0  3  0  0  0  0  0  0
  -29.5770  -22.6790   18.7750 C   0  0  0  0  0  3  0  0  0  0  0  0
  -30.7010  -21.1120   20.8300 C   0  0  0  0  0  3  0  0  0  0  0  0
  -29.8000  -21.3030   18.5780 C   0  0  0  0  0  3  0  0  0  0  0  0
  -29.9260  -23.2880   19.9980 C   0  0  0  0  0  0  0  0  0  0  0  0
  -30.3910  -20.5120   19.5890 C   0  0  0  0  0  0  0  0  0  0  0  0
  -30.9420  -25.4970   19.3980 C   0  0  0  0  0  1  0  0  0  0  0  0
  -29.8120  -24.8030   20.1780 C   0  0  0  0  0  3  0  0  0  0  0  0
  -28.4240  -25.3780   19.8100 C   0  0  0  0  0  2  0  0  0  0  0  0
  -28.4000  -26.7670   20.1540 O   0  0  0  0  0  0  0  0  0  0  0  0
  -24.5760  -31.8910   23.2420 C   0  0  0  0  0  0  0  0  0  0  0  0
  -27.2000  -27.4470   20.1450 C   0  0  0  0  0  0  0  0  0  0  0  0
  -23.3570  -30.4910   21.6080 C   0  0  0  0  0  3  0  0  0  0  0  0
  -24.7970  -28.9450   20.1770 C   0  0  0  0  0  0  0  0  0  0  0  0
  -25.8810  -30.8440   21.3960 C   0  0  0  0  0  2  0  0  0  0  0  0
  -25.9580  -29.4730   20.7560 C   0  0  0  0  0  0  0  0  0  0  0  0
  -27.1570  -28.7290   20.7390 C   0  0  0  0  0  3  0  0  0  0  0  0
  -26.0190  -26.9290   19.5650 C   0  0  0  0  0  3  0  0  0  0  0  0
  -24.8220  -27.6720   19.5820 C   0  0  0  0  0  3  0  0  0  0  0  0
  -23.5550  -29.8070   20.2290 C   0  0  0  0  0  2  0  0  0  0  0  0
  -24.6220  -31.0900   22.1400 N   0  0  0  0  0  0  0  0  0  0  0  0
  -23.4990  -32.1680   23.7880 O   0  0  0  0  0  0  0  0  0  0  0  0
  -22.7090  -29.4730   22.5730 C   0  0  0  0  0  0  0  0  0  0  0  0
  -21.3840  -29.2910   22.4460 N   0  0  0  0  0  0  0  0  0  0  0  0
  -23.3930  -28.8500   23.3900 O   0  0  0  0  0  0  0  0  0  0  0  0
  -20.8950  -29.8430   21.7550 H   0  0  0  0  0  0  0  0  0  0  0  0
  -18.0090  -28.0960   22.9340 C   0  0  0  0  0  0  0  0  0  0  0  0
  -20.5650  -28.3580   23.2180 C   0  0  0  0  0  3  0  0  0  0  0  0
  -20.6730  -26.9240   22.6490 C   0  0  0  0  0  2  0  0  0  0  0  0
  -19.5760  -26.5960   21.6320 C   0  0  0  0  0  2  0  0  0  0  0  0
  -18.1890  -26.7430   22.2670 C   0  0  0  0  0  2  0  0  0  0  0  0
  -19.1250  -28.8610   23.3660 C   0  0  0  0  0  0  0  0  0  0  0  0
  -18.9030  -30.1280   23.9470 C   0  0  0  0  0  3  0  0  0  0  0  0
  -17.5970  -30.6300   24.1040 C   0  0  0  0  0  3  0  0  0  0  0  0
  -16.4950  -29.8610   23.6890 C   0  0  0  0  0  3  0  0  0  0  0  0
  -16.7020  -28.5970   23.1100 C   0  0  0  0  0  3  0  0  0  0  0  0
  -25.8690  -32.5150   23.8560 C   0  0  0  0  0  3  0  0  0  0  0  0
  -26.3940  -31.7380   25.1250 C   0  0  1  0  0  0  0  0  0  0  0  0
  -25.3100  -31.5040   26.2020 C   0  0  0  0  0  1  0  0  0  0  0  0
  -26.9670  -30.3580   24.7230 C   0  0  0  0  0  1  0  0  0  0  0  0
  -27.5540  -32.5270   25.7780 C   0  0  0  0  0  1  0  0  0  0  0  0
  -25.5680  -33.9130   24.1910 N   0  0  0  0  0  0  0  0  0  0  0  0
  -25.8960  -34.9650   23.4300 C   0  0  0  0  0  0  0  0  0  0  0  0
  -26.5580  -34.8620   22.3930 O   0  0  0  0  0  0  0  0  0  0  0  0
  -24.9800  -34.0680   24.9960 H   0  0  0  0  0  0  0  0  0  0  0  0
  -24.1670  -36.7610   23.0940 C   0  0  0  0  0  1  0  0  0  0  0  0
  -25.4150  -36.3530   23.8940 C   0  0  0  0  0  3  0  0  0  0  0  0
  -27.5600  -37.2330   24.7010 C   0  0  0  0  0  1  0  0  0  0  0  0
  -26.4470  -37.4050   23.7710 N   0  0  0  0  0  0  0  0  0  0  0  0
  -26.0430  -38.3250   23.9270 H   0  0  0  0  0  0  0  0  0  0  0  0
  -30.7620  -19.0590   19.2800 C   0  0  0  0  0  3  0  0  0  0  0  0
  -32.2110  -18.9420   18.9760 N   0  0  0  0  0  4  0  0  0  0  0  0
  -32.7380  -19.2450   19.7790 H   0  0  0  0  0  0  0  0  0  0  0  0
  -32.4280  -17.9730   18.8170 H   0  0  0  0  0  0  0  0  0  0  0  0
  -32.6830  -19.7050   17.8000 C   0  0  0  0  0  2  0  0  0  0  0  0
  -34.1640  -19.4080   17.4910 C   0  0  0  0  0  2  0  0  0  0  0  0
  -34.6790  -20.3190   16.4800 N   0  0  0  0  0  0  0  0  0  0  0  0
  -34.1640  -20.1910   15.6130 H   0  0  0  0  0  0  0  0  0  0  0  0
  -35.6310  -20.0510   16.2410 H   0  0  0  0  0  0  0  0  0  0  0  0
  -30.3330  -18.0270   20.3620 C   0  0  0  0  0  2  0  0  0  0  0  0
  -29.9090  -16.6940   19.7080 C   0  0  0  0  0  2  0  0  0  0  0  0
  -30.6550  -14.4630   20.4050 C   0  0  0  0  0  0  0  0  0  0  0  0
  -30.3450  -12.3040   19.3000 C   0  0  0  0  0  2  0  0  0  0  0  0
  -29.4060  -12.5480   18.0980 C   0  0  0  0  0  2  0  0  0  0  0  0
  -27.9310  -12.4230   18.5280 C   0  0  0  0  0  2  0  0  0  0  0  0
  -27.6020  -13.2540   19.7960 C   0  0  0  0  0  3  0  0  0  0  0  0
  -28.6580  -13.0180   20.9060 C   0  0  0  0  0  2  0  0  0  0  0  0
  -29.9910  -13.2830   20.3380 N   0  0  0  0  0  0  0  0  0  0  0  0
  -31.8100  -14.6240   19.9980 O   0  0  0  0  0  0  0  0  0  0  0  0
  -29.8550  -15.5240   20.5960 N   0  0  0  0  0  0  0  0  0  0  0  0
  -28.9510  -15.3110   20.9940 H   0  0  0  0  0  0  0  0  0  0  0  0
  -25.2080  -13.8830   20.5020 C   0  0  0  0  0  0  0  0  0  0  0  0
  -24.1360  -13.1180   20.8760 C   0  0  0  0  0  0  0  0  0  0  0  0
  -24.5880  -11.7640   20.8490 C   0  0  0  0  0  0  0  0  0  0  0  0
  -26.2470  -12.9930   20.2750 N   0  0  0  0  0  0  0  0  0  0  0  0
  -25.8770  -11.7140   20.5410 N   0  0  0  0  0  0  0  0  0  0  0  0
  -23.8550  -10.5080   21.0450 C   0  0  0  0  0  0  0  0  0  0  0  0
  -24.2980   -9.5360   21.9690 C   0  0  0  0  0  3  0  0  0  0  0  0
  -23.5710   -8.3400   22.1540 C   0  0  0  0  0  3  0  0  0  0  0  0
  -22.3850   -8.1100   21.4150 C   0  0  0  0  0  0  0  0  0  0  0  0
  -21.9610   -9.0720   20.4810 C   0  0  0  0  0  3  0  0  0  0  0  0
  -22.6890  -10.2580   20.2940 C   0  0  0  0  0  3  0  0  0  0  0  0
  -21.6270   -6.9690   21.5110 O   0  0  0  0  0  0  0  0  0  0  0  0
  -21.6020   -6.2140   22.6550 C   0  0  0  0  0  0  0  0  0  0  0  0
  -21.2240   -6.7610   23.9010 C   0  0  0  0  0  3  0  0  0  0  0  0
  -21.1450   -5.9330   25.0390 C   0  0  0  0  0  3  0  0  0  0  0  0
  -21.4320   -4.5580   24.9320 C   0  0  0  0  0  0  0  0  0  0  0  0
  -21.8020   -4.0110   23.6920 C   0  0  0  0  0  3  0  0  0  0  0  0
  -21.8830   -4.8370   22.5560 C   0  0  0  0  0  0  0  0  0  0  0  0
  -22.2180   -4.3000   21.3580 F   0  0  0  0  0  0  0  0  0  0  0  0
  -21.3490   -3.7610   26.0230 F   0  0  0  0  0  0  0  0  0  0  0  0
  -22.7410  -13.6030   21.1490 C   0  0  0  0  0  0  0  0  0  0  0  0
  -22.0130  -12.9150   22.0210 N   0  0  0  0  0  0  0  0  0  0  0  0
  -22.3060  -14.6270   20.6240 O   0  0  0  0  0  0  0  0  0  0  0  0
  -22.3790  -12.0900   22.4700 H   0  0  0  0  0  0  0  0  0  0  0  0
  -21.0770  -13.2200   22.2460 H   0  0  0  0  0  0  0  0  0  0  0  0
  -25.3800  -15.2530   20.3190 N   0  0  0  0  0  0  0  0  0  0  0  0
  -24.6130  -15.9090   20.4240 H   0  0  0  0  0  0  0  0  0  0  0  0
  -26.2280  -15.6900   19.9810 H   0  0  0  0  0  0  0  0  0  0  0  0
  2  5  1  0
  3  1  1  0
  4  2  2  0
  4  6  1  0
  5  8  1  0
  5  1  2  0
  6  3  2  0
  8  7  1  0
  9 10  1  0
  9  8  1  0
 11 22  2  0
 12 10  1  0
 12 17  1  0
 13 21  1  0
 13 23  1  0
 14 20  1  0
 14 16  1  0
 15 21  1  0
 16 15  1  0
 17 16  2  0
 18 19  1  0
 18 12  2  0
 19 14  2  0
 20 13  1  0
 21 11  1  0
 23 25  2  0
 24 23  1  0
 26 24  1  0
 27 36  2  0
 27 32  1  0
 28 24  1  0
 28 32  1  0
 29 28  1  0
 30 31  1  0
 30 29  1  0
 31 27  1  0
 32 33  2  0
 33 34  1  0
 35 34  2  0
 36 35  1  0
 37 11  1  0
 37 42  1  0
 37 38  1  0
 38 41  1  1
 38 39  1  0
 40 38  1  0
 42 45  1  0
 43 47  1  0
 43 42  1  0
 44 43  2  0
 47 46  1  0
 49 47  1  0
 49 50  1  0
 49 48  1  0
 51  6  1  0
 51 60  1  0
 52 51  1  0
 52 53  1  0
 54 52  1  0
 55 52  1  0
 56 55  1  0
 57 56  1  0
 58 57  1  0
 59 57  1  0
 61 60  1  0
 61 70  1  0
 62 70  1  0
 63 68  1  0
 64 65  1  0
 64 63  1  0
 66 65  1  0
 66 75  1  0
 66 67  1  0
 68 62  1  0
 68 67  1  0
 69 62  2  0
 70 71  1  0
 72 73  2  0
 73 92  1  0
 74 73  1  0
 74 77  1  0
 75 72  1  0
 75 76  1  0
 76 74  2  0
 77 78  1  0
 78 79  2  0
 80 83  1  0
 80 79  1  0
 81 80  2  0
 82 81  1  0
 82 77  2  0
 83 84  1  0
 84 85  1  0
 85 86  2  0
 87 86  1  0
 87 91  1  0
 88 87  2  0
 89 84  2  0
 89 88  1  0
 90 89  1  0
 92 93  1  0
 93 96  1  0
 93 95  1  0
 94 92  2  0
 97 98  1  0
 97 72  1  0
 99 97  1  0
M  ISO  4   9 101  10 101  62 100  70 100
M  END
>  <TORSDO>  (97) 
F 25

>  <SCORE>  (97) 
-12.378

>  <name>  (97) 
99

>  <ligand_id>  (97) 
99

>  <original_smiles>  (97) 
[H]c1c([H])c([H])c2c(c1[H])C([H])([H])C([H])([H])C([H])([H])C2([H])N([H])C(=O)C1([H])N(C(=O)C([H])(N([H])C(=O)C([H])(N([H])C([H])([H])[H])C([H])([H])[H])C(C([H])([H])[H])(C([H])([H])[H])C([H])([H])[H])C([H])([H])c2c([H])c(OC([H])([H])C([H])(c3c([H])c([H])c(C([H])(C([H])([H])C([H])([H])N([H])C(=O)N4C([H])([H])C([H])([H])C([H])([H])C([H])(n5nc(-c6c([H])c([H])c(Oc7c([H])c([H])c(F)c([H])c7F)c([H])c6[H])c(C(=O)N([H])[H])c5N([H])[H])C4([H])[H])[N+]([H])([H])C([H])([H])C([H])([H])N([H])[H])c([H])c3[H])C([H])([H])[H])c([H])c([H])c2C1([H])[H]

>  <smiles>  (97) 
[H]c1c([H])c([H])c2c(c1[H])C([H])([H])C([H])([H])C([H])([H])C2([H])N([H])C(=O)C1([H])N(C(=O)C([H])(N([H])C(=O)C([H])(N([H])C([H])([H])[H])C([H])([H])[H])C(C([H])([H])[H])(C([H])([H])[H])C([H])([H])[H])C([H])([H])c2c([H])c(OC([H])([H])C([H])(c3c([H])c([H])c(C([H])(C([H])([H])C([H])([H])N([H])C(=O)N4C([H])([H])C([H])([H])C([H])([H])C([H])(n5nc(-c6c([H])c([H])c(Oc7c([H])c([H])c(F)c([H])c7F)c([H])c6[H])c(C(=O)N([H])[H])c5N([H])[H])C4([H])[H])[N+]([H])([H])C([H])([H])C([H])([H])N([H])[H])c([H])c3[H])C([H])([H])[H])c([H])c([H])c2C1([H])[H]

$$$$
